drugbank_target|Q9HAB3 Solute carrier family 52, riboflavin transporter, member 2 (DB01440)
 OpenBabel12092120593D

  0  0  0     0  0            999 V3000
M  V30 BEGIN CTAB
M  V30 COUNTS 6565 6655 0 0 0
M  V30 BEGIN ATOM
M  V30 1 H -0.908 1.98254 -0.117106 0
M  V30 2 N 0 1.576 0 0
M  V30 3 C 0.933 2.03868 1.02534 0
M  V30 4 C 1.911 0.928543 1.3348 0
M  V30 5 O 3.095 1.19667 1.45644 0
M  V30 6 C 0.222 2.43627 2.35294 0
M  V30 7 C -0.732 3.65373 2.2001 0
M  V30 8 S 0.101 5.13292 1.52614 0
M  V30 9 C 1.257 5.56322 2.86805 0
M  V30 10 H 1.49 2.90518 0.631377 0
M  V30 11 H -0.977 1.52953 0.210867 0
M  V30 12 H 0.981 2.67203 3.11629 0
M  V30 13 H -0.358 1.57376 2.7183 0
M  V30 14 H -1.165 3.90944 3.18086 0
M  V30 15 H -1.563 3.418 1.51819 0
M  V30 16 H 0.729 5.58782 3.83104 0
M  V30 17 H 1.672 6.56266 2.65933 0
M  V30 18 H 2.08 4.83886 2.90714 0
M  V30 19 N 1.4781 -0.272755 1.55222 0
M  V30 20 C 2.4411 -1.32041 1.87344 0
M  V30 21 C 3.4411 -1.42342 0.74803 0
M  V30 22 O 4.6311 -1.41488 1.0162 0
M  V30 23 C 1.7631 -2.70173 2.07893 0
M  V30 24 H 2.9561 -1.04789 2.80997 0
M  V30 25 H 0.5091 -0.51083 1.47717 0
M  V30 26 H 1.2441 -3.02605 1.16622 0
M  V30 27 H 1.0291 -2.64082 2.89833 0
M  V30 28 H 2.5191 -3.45869 2.34017 0
M  V30 29 N 2.9562 -1.48159 -0.537278 0
M  V30 30 C 3.9192 -1.61665 -1.62472 0
M  V30 31 C 4.9192 -0.490395 -1.5314 0
M  V30 32 O 6.1092 -0.755998 -1.5694 0
M  V30 33 C 3.2412 -1.57997 -3.02076 0
M  V30 34 H 4.4342 -2.58621 -1.51839 0
M  V30 35 H 1.9872 -1.36647 -0.758771 0
M  V30 36 H 2.7222 -0.624913 -3.18222 0
M  V30 37 H 2.5072 -2.39755 -3.10258 0
M  V30 38 H 3.9972 -1.70627 -3.81151 0
M  V30 39 N 4.4343 0.785586 -1.36625 0
M  V30 40 C 5.8453 1.36101 -1.27803 0
M  V30 41 C 6.1963 1.96035 0.0804875 0
M  V30 42 O 5.3213 1.92834 0.982042 0
M  V30 43 C 5.9163 2.47442 -2.31426 0
M  V30 44 C 4.4753 3.00789 -2.26281 0
M  V30 45 C 3.6223 1.73896 -2.15999 0
M  V30 46 H 6.5733 0.586928 -1.47448 0
M  V30 47 H 6.5943 3.2656 -1.95291 0
M  V30 48 H 6.1063 2.03791 -3.30289 0
M  V30 49 H 4.2073 3.48851 -1.30896 0
M  V30 50 H 4.3203 3.57343 -3.19128 0
M  V30 51 H 2.6843 1.9628 -1.62316 0
M  V30 52 H 3.4673 1.32368 -3.16755 0
M  V30 53 N 5.9124 1.20967 1.01018 0
M  V30 54 C 7.1404 1.04956 1.78303 0
M  V30 55 C 7.5554 -0.400915 1.84494 0
M  V30 56 O 6.9124 -1.27826 1.30257 0
M  V30 57 C 6.9634 1.63403 3.22462 0
M  V30 58 O 6.6844 3.02775 3.16637 0
M  V30 59 C 8.1854 1.52432 4.16268 0
M  V30 60 H 5.4054 0.368858 0.560522 0
M  V30 61 H 7.9494 1.60193 1.27116 0
M  V30 62 H 6.1044 1.1227 3.70775 0
M  V30 63 H 6.5184 3.30626 4.07169 0
M  V30 64 H 7.9924 1.98078 5.15237 0
M  V30 65 H 8.4694 0.477875 4.36592 0
M  V30 66 H 9.0754 2.02787 3.73841 0
M  V30 67 N 7.3905 -1.2043 1.01659 0
M  V30 68 C 8.8015 -1.71517 0.737482 0
M  V30 69 C 9.1525 -1.81547 -0.743973 0
M  V30 70 O 8.2775 -1.47803 -1.58061 0
M  V30 71 C 8.8725 -3.11515 1.33206 0
M  V30 72 C 7.4315 -3.59912 1.10183 0
M  V30 73 C 6.5785 -2.37116 1.43776 0
M  V30 74 H 9.5295 -1.05444 1.18606 0
M  V30 75 H 9.5505 -3.73575 0.722636 0
M  V30 76 H 9.0625 -3.04182 2.41028 0
M  V30 77 H 7.1635 -3.72577 0.0412756 0
M  V30 78 H 7.2765 -4.44731 1.78188 0
M  V30 79 H 5.6405 -2.39857 0.856778 0
M  V30 80 H 6.4235 -2.32424 2.52654 0
M  V30 81 N 8.8686 -0.792821 -1.36206 0
M  V30 82 C 9.8316 -0.199459 -2.2833 0
M  V30 83 C 10.8316 0.605189 -1.48977 0
M  V30 84 O 12.0216 0.425685 -1.68919 0
M  V30 85 C 9.1536 0.723523 -3.33134 0
M  V30 86 H 10.3466 -1.01181 -2.82316 0
M  V30 87 H 7.8996 -0.562485 -1.45828 0
M  V30 88 H 8.6346 1.56008 -2.84309 0
M  V30 89 H 8.4196 0.148436 -3.91819 0
M  V30 90 H 9.9096 1.13344 -4.01924 0
M  V30 91 N 10.3467 1.47872 -0.545128 0
M  V30 92 C 11.7627 1.5829 -0.204032 0
M  V30 93 C 11.9627 1.54529 1.29317 0
M  V30 94 O 11.0187 1.44232 2.07252 0
M  V30 95 C 12.3317 2.89304 -0.819987 0
M  V30 96 C 13.8797 3.02864 -0.790105 0
M  V30 97 C 14.3547 4.3656 -1.38491 0
M  V30 98 N 15.8457 4.43165 -1.34755 0
M  V30 99 C 16.5807 5.45153 -1.77753 0
M  V30 100 N 16.0767 6.54016 -2.2855 0
M  V30 101 N 17.8697 5.36125 -1.68897 0
M  V30 102 H 10.0207 1.4856 -1.51802 0
M  V30 103 H 12.2837 0.706305 -0.632327 0
M  V30 104 H 11.9897 2.97757 -1.87173 0
M  V30 105 H 11.8637 3.75957 -0.305915 0
M  V30 106 H 14.2507 2.94014 0.252913 0
M  V30 107 H 14.3317 2.17782 -1.34181 0
M  V30 108 H 13.9757 4.46164 -2.42693 0
M  V30 109 H 13.9057 5.20353 -0.808754 0
M  V30 110 H 16.3967 3.65083 -0.975855 0
M  V30 111 H 16.7097 7.27994 -2.59314 0
M  V30 112 H 15.0547 6.54938 -2.32553 0
M  V30 113 H 18.2457 4.49975 -1.28998 0
M  V30 114 H 18.4187 6.15472 -2.02726 0
M  V30 115 N 11.8248 0.280983 1.55075 0
M  V30 116 C 13.2358 -0.215629 1.85451 0
M  V30 117 C 13.5868 -1.54991 1.203 0
M  V30 118 O 12.7118 -2.10699 0.493435 0
M  V30 119 C 13.3068 -0.398026 3.36454 0
M  V30 120 C 11.8658 -0.838866 3.66933 0
M  V30 121 C 11.0128 0.064458 2.77225 0
M  V30 122 H 13.9638 0.502601 1.50531 0
M  V30 123 H 13.9848 -1.23569 3.59876 0
M  V30 124 H 13.4968 0.573241 3.83843 0
M  V30 125 H 11.5978 -1.8214 3.25048 0
M  V30 126 H 11.7108 -0.672123 4.74362 0
M  V30 127 H 10.0748 -0.452863 2.50642 0
M  V30 128 H 10.8578 1.03172 3.2743 0
M  V30 129 N 13.3029 -1.57598 0.00835791 0
M  V30 130 C 14.5489 -1.91211 -0.675732 0
M  V30 131 C 14.8819 -0.883139 -1.72958 0
M  V30 132 O 14.1569 0.097016 -1.94258 0
M  V30 133 C 14.4399 -3.35379 -1.31123 0
M  V30 134 C 14.2929 -4.48999 -0.268356 0
M  V30 135 C 15.6119 -3.7912 -2.23508 0
M  V30 136 H 12.7309 -0.695374 -0.244179 0
M  V30 137 H 15.3729 -1.89901 0.0613655 0
M  V30 138 H 13.5229 -3.36626 -1.93946 0
M  V30 139 H 15.1949 -4.59887 0.360844 0
M  V30 140 H 13.4379 -4.31873 0.408482 0
M  V30 141 H 14.1089 -5.46851 -0.752218 0
M  V30 142 H 16.5849 -3.79477 -1.70693 0
M  V30 143 H 15.4609 -4.80729 -2.64936 0
M  V30 144 H 15.7219 -3.13455 -3.11766 0
M  V30 145 N 14.781 0.264519 -1.55364 0
M  V30 146 C 15.711 1.33121 -1.91836 0
M  V30 147 C 16.692 1.51101 -0.781192 0
M  V30 148 O 17.877 1.64003 -1.04003 0
M  V30 149 C 15.007 2.68921 -2.19769 0
M  V30 150 C 13.961 2.65661 -3.35571 0
M  V30 151 C 13.287 4.05093 -3.49004 0
M  V30 152 C 14.587 2.24187 -4.71739 0
M  V30 153 H 16.281 1.02844 -2.81182 0
M  V30 154 H 13.827 0.493286 -1.35287 0
M  V30 155 H 15.78 3.43663 -2.43872 0
M  V30 156 H 14.504 3.00799 -1.27231 0
M  V30 157 H 13.163 1.93377 -3.1145 0
M  V30 158 H 12.811 4.34206 -2.53917 0
M  V30 159 H 12.511 4.03804 -4.26868 0
M  V30 160 H 14.035 4.81561 -3.75408 0
M  V30 161 H 15.449 2.88654 -4.9533 0
M  V30 162 H 13.846 2.34044 -5.52579 0
M  V30 163 H 14.916 1.19327 -4.69988 0
M  V30 164 N 16.2591 1.48442 0.529413 0
M  V30 165 C 17.4871 1.60151 1.30994 0
M  V30 166 C 17.9021 0.261985 1.86973 0
M  V30 167 O 17.2591 -0.748805 1.66431 0
M  V30 168 C 17.3101 2.64854 2.46038 0
M  V30 169 O 17.0311 3.93608 1.92365 0
M  V30 170 C 18.5321 2.87007 3.37849 0
M  V30 171 H 15.7521 0.539971 0.398338 0
M  V30 172 H 18.2961 1.94273 0.638597 0
M  V30 173 H 16.4511 2.33589 3.09055 0
M  V30 174 H 16.8651 4.51055 2.67675 0
M  V30 175 H 18.3391 3.64068 4.14919 0
M  V30 176 H 18.8161 1.95852 3.93114 0
M  V30 177 H 19.4221 3.19579 2.80623 0
M  V30 178 N 17.7372 -0.778329 1.37039 0
M  V30 179 C 18.6872 -1.88142 1.28789 0
M  V30 180 C 19.6712 -1.59923 0.177063 0
M  V30 181 O 20.8632 -1.72165 0.410873 0
M  V30 182 C 17.9922 -3.25518 1.09055 0
M  V30 183 C 17.0782 -3.5971 2.24654 0
M  V30 184 N 17.4692 -3.65131 3.50018 0
M  V30 185 C 15.7672 -3.89837 2.16663 0
M  V30 186 C 16.4682 -3.95882 4.26207 0
M  V30 187 N 15.4442 -4.11441 3.55271 0
M  V30 188 H 19.2462 -1.90575 2.23737 0
M  V30 189 H 16.7602 -0.974435 1.29917 0
M  V30 190 H 18.7572 -4.04423 1.0123 0
M  V30 191 H 17.4172 -3.24353 0.15018 0
M  V30 192 H 18.4282 -3.475 3.84011 0
M  V30 193 H 15.1052 -3.96533 1.30645 0
M  V30 194 H 16.4952 -4.06907 5.34674 0
M  V30 195 N 19.2153 -1.21501 -1.00376 0
M  V30 196 C 20.1453 -0.999478 -2.11028 0
M  V30 197 C 21.1263 0.0759671 -1.6993 0
M  V30 198 O 22.3113 -0.0841106 -1.94018 0
M  V30 199 C 19.4413 -0.564709 -3.42678 0
M  V30 200 C 18.3953 -1.58486 -3.97576 0
M  V30 201 C 17.7213 -1.00628 -5.25146 0
M  V30 202 C 19.0213 -2.97204 -4.29496 0
M  V30 203 H 20.7153 -1.92495 -2.29317 0
M  V30 204 H 18.2613 -0.92693 -1.102 0
M  V30 205 H 20.2143 -0.401091 -4.19487 0
M  V30 206 H 18.9383 0.396411 -3.24185 0
M  V30 207 H 17.5973 -1.73606 -3.22888 0
M  V30 208 H 17.2453 -0.0368439 -5.02987 0
M  V30 209 H 16.9453 -1.68771 -5.62841 0
M  V30 210 H 18.4693 -0.854015 -6.04598 0
M  V30 211 H 19.8833 -2.8552 -4.97143 0
M  V30 212 H 18.2803 -3.62372 -4.78338 0
M  V30 213 H 19.3503 -3.47956 -3.3772 0
M  V30 214 N 20.6934 1.19889 -1.02296 0
M  V30 215 C 21.6234 2.25141 -0.619174 0
M  V30 216 C 22.6044 1.66051 0.368915 0
M  V30 217 O 23.7894 1.92546 0.252941 0
M  V30 218 C 20.9194 3.4728 0.0368783 0
M  V30 219 C 19.8734 4.19005 -0.872865 0
M  V30 220 C 19.1994 5.34637 -0.0822402 0
M  V30 221 C 20.4994 4.74452 -2.18387 0
M  V30 222 H 22.1934 2.59171 -1.49903 0
M  V30 223 H 19.7394 1.24579 -0.722222 0
M  V30 224 H 21.6924 4.20098 0.330958 0
M  V30 225 H 20.4164 3.12433 0.95149 0
M  V30 226 H 19.0754 3.48061 -1.15105 0
M  V30 227 H 18.7234 4.96034 0.83422 0
M  V30 228 H 18.4234 5.83557 -0.688149 0
M  V30 229 H 19.9474 6.10255 0.205238 0
M  V30 230 H 21.3614 5.39055 -1.95172 0
M  V30 231 H 19.7584 5.33834 -2.74119 0
M  V30 232 H 20.8284 3.92844 -2.84257 0
M  V30 233 N 22.1715 0.800033 1.35784 0
M  V30 234 C 23.4175 0.377901 1.99248 0
M  V30 235 C 23.7505 -1.05052 1.63333 0
M  V30 236 O 23.0255 -1.72768 0.893385 0
M  V30 237 C 23.3085 0.553922 3.55814 0
M  V30 238 C 23.1615 2.0268 4.01548 0
M  V30 239 C 24.4805 -0.0244802 4.40093 0
M  V30 240 H 21.5995 0.138782 0.723815 0
M  V30 241 H 24.2415 1.00835 1.61035 0
M  V30 242 H 22.3915 0.0172398 3.88496 0
M  V30 243 H 24.0635 2.62536 3.79305 0
M  V30 244 H 22.3065 2.5256 3.52698 0
M  V30 245 H 22.9775 2.10087 5.10458 0
M  V30 246 H 25.4535 0.433775 4.13833 0
M  V30 247 H 24.3295 0.128637 5.48749 0
M  V30 248 H 24.5905 -1.11758 4.27741 0
M  V30 249 N 23.6496 -1.47581 0.552962 0
M  V30 250 C 24.6126 -2.28439 -0.186605 0
M  V30 251 C 25.6126 -1.36706 -0.84665 0
M  V30 252 O 26.8026 -1.59378 -0.703164 0
M  V30 253 C 23.9346 -3.16264 -1.2724 0
M  V30 254 H 25.1276 -2.95294 0.523609 0
M  V30 255 H 22.6806 -1.532 0.309745 0
M  V30 256 H 23.4156 -2.54091 -2.01514 0
M  V30 257 H 23.2006 -3.83769 -0.803968 0
M  V30 258 H 24.6906 -3.77198 -1.79196 0
M  V30 259 N 25.1277 -0.289203 -1.54924 0
M  V30 260 C 26.0577 0.58549 -2.2604 0
M  V30 261 C 27.0387 1.14753 -1.25562 0
M  V30 262 O 28.2237 1.17906 -1.54311 0
M  V30 263 C 25.3537 1.76305 -2.99222 0
M  V30 264 C 24.3077 1.33191 -4.06748 0
M  V30 265 C 23.6337 2.5937 -4.6758 0
M  V30 266 C 24.9337 0.471775 -5.20165 0
M  V30 267 H 26.6277 -0.00763532 -2.99399 0
M  V30 268 H 24.1737 -0.00511229 -1.43999 0
M  V30 269 H 26.1267 2.38097 -3.47689 0
M  V30 270 H 24.8507 2.38223 -2.23422 0
M  V30 271 H 23.5097 0.737121 -3.59113 0
M  V30 272 H 23.1577 3.19576 -3.88433 0
M  V30 273 H 22.8577 2.31228 -5.40192 0
M  V30 274 H 24.3817 3.21985 -5.18804 0
M  V30 275 H 25.7957 0.995056 -5.64599 0
M  V30 276 H 24.1927 0.284639 -5.99425 0
M  V30 277 H 25.2627 -0.506041 -4.82252 0
M  V30 278 N 26.6058 1.57591 -0.0167156 0
M  V30 279 C 27.8528 1.91283 0.664597 0
M  V30 280 C 28.1808 0.891949 1.72842 0
M  V30 281 O 27.4358 -0.100931 1.9544 0
M  V30 282 C 27.7348 3.3172 1.33029 0
M  V30 283 C 27.4008 4.4914 0.398047 0
M  V30 284 C 26.0628 4.80992 0.141421 0
M  V30 285 C 28.4148 5.20634 -0.242825 0
M  V30 286 C 25.7428 5.81703 -0.764092 0
M  V30 287 C 28.0948 6.22311 -1.13632 0
M  V30 288 C 26.7588 6.52611 -1.40196 0
M  V30 289 H 26.0288 0.699956 0.243193 0
M  V30 290 H 28.6758 1.9135 -0.0758267 0
M  V30 291 H 26.9808 3.27856 2.14517 0
M  V30 292 H 28.6778 3.55055 1.86379 0
M  V30 293 H 25.2678 4.24262 0.608238 0
M  V30 294 H 29.4518 4.96267 -0.0576019 0
M  V30 295 H 24.7078 6.03532 -0.977732 0
M  V30 296 H 28.8818 6.76834 -1.63917 0
M  V30 297 H 26.5088 7.30467 -2.10529 0
M  V30 298 N 28.0839 -0.256276 1.55502 0
M  V30 299 C 29.3319 -0.983672 1.76545 0
M  V30 300 C 29.6529 -1.86206 0.578982 0
M  V30 301 O 28.9229 -1.91656 -0.405577 0
M  V30 302 H 27.5029 -0.366191 0.651086 0
M  V30 303 H 30.1649 -0.276479 1.92929 0
M  V30 304 H 29.2609 -1.61087 2.67315 0
M  V30 305 N 29.562 -1.4872 -0.521534 0
M  V30 306 C 30.495 -1.58451 -1.64221 0
M  V30 307 C 31.473 -0.434513 -1.56687 0
M  V30 308 O 32.657 -0.647275 -1.77038 0
M  V30 309 C 29.784 -1.52037 -3.02659 0
M  V30 310 C 28.83 -2.71981 -3.28525 0
M  V30 311 S 29.663 -4.33869 -3.13876 0
M  V30 312 C 30.819 -4.30067 -4.54745 0
M  V30 313 H 31.052 -2.53256 -1.55719 0
M  V30 314 H 28.585 -1.37358 -0.705143 0
M  V30 315 H 30.543 -1.49023 -3.82495 0
M  V30 316 H 29.204 -0.585541 -3.08594 0
M  V30 317 H 28.397 -2.63656 -4.29536 0
M  V30 318 H 27.999 -2.72302 -2.56374 0
M  V30 319 H 30.291 -4.00521 -5.46433 0
M  V30 320 H 31.234 -5.31287 -4.68123 0
M  V30 321 H 31.642 -3.60419 -4.34463 0
M  V30 322 N 31.0401 0.771051 -1.3745 0
M  V30 323 C 32.2881 1.52661 -1.32435 0
M  V30 324 C 32.6091 1.9479 0.0905024 0
M  V30 325 O 31.8791 1.66348 1.03466 0
M  V30 326 H 30.4591 0.566218 -0.487244 0
M  V30 327 H 33.1211 0.917636 -1.71946 0
M  V30 328 H 32.2171 2.42568 -1.96385 0
M  V30 329 N 32.5182 1.22032 0.997298 0
M  V30 330 C 33.7432 1.06921 1.77715 0
M  V30 331 C 34.1682 -0.376226 1.84299 0
M  V30 332 O 33.5262 -1.27165 1.29223 0
M  V30 333 C 33.5742 1.67996 3.19076 0
M  V30 334 O 32.6782 0.930653 4.01762 0
M  V30 335 H 32.0192 0.375814 0.547412 0
M  V30 336 H 34.5492 1.61737 1.25309 0
M  V30 337 H 34.5592 1.72538 3.69723 0
M  V30 338 H 33.2342 2.73182 3.13599 0
M  V30 339 H 31.8112 0.960917 3.60307 0
M  V30 340 N 33.9963 -1.19345 1.0293 0
M  V30 341 C 35.2423 -1.89585 0.736824 0
M  V30 342 C 35.5973 -1.78148 -0.726703 0
M  V30 343 O 34.8903 -1.16332 -1.52242 0
M  V30 344 C 35.0843 -3.39292 1.12319 0
M  V30 345 C 34.9133 -3.65298 2.62273 0
M  V30 346 C 33.6833 -3.83304 3.29251 0
M  V30 347 C 35.8813 -3.6682 3.60482 0
M  V30 348 N 33.8633 -3.96944 4.68304 0
M  V30 349 C 35.2343 -3.86037 4.85155 0
M  V30 350 C 37.2893 -3.49848 3.54275 0
M  V30 351 C 35.9923 -3.9004 6.04369 0
M  V30 352 C 38.0183 -3.55129 4.72903 0
M  V30 353 C 37.3803 -3.74831 5.9639 0
M  V30 354 H 33.4793 -0.712856 0.321497 0
M  V30 355 H 36.0633 -1.43427 1.31669 0
M  V30 356 H 34.2343 -3.84172 0.571524 0
M  V30 357 H 35.9663 -3.97055 0.78292 0
M  V30 358 H 32.7213 -3.82211 2.79663 0
M  V30 359 H 33.1453 -4.07613 5.40538 0
M  V30 360 H 37.7873 -3.33572 2.59788 0
M  V30 361 H 35.5053 -4.05108 6.99223 0
M  V30 362 H 39.0913 -3.43287 4.69729 0
M  V30 363 H 37.9713 -3.78792 6.86649 0
M  V30 364 N 35.4744 -0.807222 -1.35358 0
M  V30 365 C 36.4374 -0.223665 -2.28106 0
M  V30 366 C 37.4374 0.589354 -1.4961 0
M  V30 367 O 38.6274 0.407745 -1.69361 0
M  V30 368 C 35.7594 0.688149 -3.33882 0
M  V30 369 H 36.9524 -1.04169 -2.81227 0
M  V30 370 H 34.5054 -0.577921 -1.45223 0
M  V30 371 H 35.2404 1.52984 -2.85948 0
M  V30 372 H 35.0254 0.10687 -3.91954 0
M  V30 373 H 36.5154 1.09075 -4.03104 0
M  V30 374 N 36.9525 1.47285 -0.560781 0
M  V30 375 C 37.9155 2.28535 0.174488 0
M  V30 376 C 38.9155 1.37153 0.839388 0
M  V30 377 O 40.1055 1.59748 0.694702 0
M  V30 378 C 37.2375 3.16934 1.25561 0
M  V30 379 H 38.4305 2.95012 -0.539262 0
M  V30 380 H 35.9835 1.53034 -0.317865 0
M  V30 381 H 36.7185 2.55157 2.00164 0
M  V30 382 H 36.5035 3.8419 0.783604 0
M  V30 383 H 37.9935 3.78143 1.77193 0
M  V30 384 N 38.4306 0.297415 1.54768 0
M  V30 385 C 39.6766 -0.313376 2.00364 0
M  V30 386 C 40.0096 -1.53815 1.18553 0
M  V30 387 O 39.2846 -1.92739 0.261103 0
M  V30 388 C 39.5676 -0.673525 3.53745 0
M  V30 389 C 39.4206 0.560133 4.46299 0
M  V30 390 C 40.7396 -1.50143 4.13697 0
M  V30 391 H 37.8586 -0.112428 0.728374 0
M  V30 392 H 40.5006 0.4088 1.8555 0
M  V30 393 H 38.6506 -1.28881 3.665 0
M  V30 394 H 40.3226 1.19863 4.45455 0
M  V30 395 H 38.5656 1.19405 4.17043 0
M  V30 396 H 39.2366 0.26405 5.51368 0
M  V30 397 H 41.7126 -0.981588 4.04356 0
M  V30 398 H 40.5886 -1.72221 5.21182 0
M  V30 399 H 40.8496 -2.48952 3.65343 0
M  V30 400 N 39.9087 -1.5758 0.0250728 0
M  V30 401 C 40.8567 -2.11125 -0.97617 0
M  V30 402 C 41.8507 -1.03689 -1.33959 0
M  V30 403 O 43.0567 -1.22128 -1.3223 0
M  V30 404 H 39.4317 -0.674468 -0.332561 0
M  V30 405 H 41.4027 -2.94194 -0.499223 0
M  V30 406 C 40.1517 -2.65017 -2.2508 0
M  V30 407 H 39.4747 -3.47333 -1.9799 0
M  V30 408 H 40.9147 -3.06133 -2.93357 0
M  V30 409 C 39.3737 -1.57574 -2.97779 0
M  V30 410 O 39.9037 -0.973203 -3.89733 0
M  V30 411 N 38.1097 -1.29716 -2.60043 0
M  V30 412 H 37.6567 -1.789 -1.85345 0
M  V30 413 H 37.6147 -0.58051 -3.08994 0
M  V30 414 N 41.3868 0.248026 -1.55636 0
M  V30 415 C 42.6348 0.974295 -1.77065 0
M  V30 416 C 42.9558 1.85897 -0.588849 0
M  V30 417 O 42.2258 1.91868 0.395407 0
M  V30 418 H 40.8058 0.362733 -0.653019 0
M  V30 419 H 43.4678 0.266244 -1.93073 0
M  V30 420 H 42.5638 1.59667 -2.68166 0
M  V30 421 N 42.8649 1.48995 0.513639 0
M  V30 422 C 44.1139 1.57093 1.2651 0
M  V30 423 C 44.4269 0.257091 1.93903 0
M  V30 424 O 45.6329 0.216478 2.70636 0
M  V30 425 C 44.0889 2.77118 2.29638 0
M  V30 426 C 43.6969 4.15209 1.68241 0
M  V30 427 C 45.4409 2.94538 3.05692 0
M  V30 428 C 43.3479 5.26474 2.69406 0
M  V30 429 H 42.2779 0.584876 0.475854 0
M  V30 430 H 44.9289 1.7536 0.540487 0
M  V30 431 H 43.3109 2.52319 3.05207 0
M  V30 432 H 44.4849 4.50094 0.987505 0
M  V30 433 H 42.7999 4.03042 1.04623 0
M  V30 434 H 45.3969 3.74832 3.8132 0
M  V30 435 H 45.7399 2.04614 3.62545 0
M  V30 436 H 46.2729 3.19316 2.37238 0
M  V30 437 H 43.0119 6.18417 2.17351 0
M  V30 438 H 42.5319 4.96058 3.37175 0
M  V30 439 H 44.2109 5.55277 3.32078 0
M  V30 440 N 44.343 -0.763751 1.37857 0
M  V30 441 C 45.589 -1.52396 1.3471 0
M  V30 442 C 45.944 -1.92288 -0.0656435 0
M  V30 443 O 45.237 -1.6181 -1.02606 0
M  V30 444 C 45.431 -2.79499 2.22745 0
M  V30 445 C 45.26 -2.52031 3.72438 0
M  V30 446 C 44.03 -2.45759 4.4151 0
M  V30 447 C 46.228 -2.19489 4.65112 0
M  V30 448 N 44.21 -2.1046 5.76697 0
M  V30 449 C 45.581 -1.94396 5.88736 0
M  V30 450 C 47.636 -2.05712 4.53417 0
M  V30 451 C 46.339 -1.56917 7.01975 0
M  V30 452 C 48.365 -1.69634 5.66549 0
M  V30 453 C 47.727 -1.45407 6.89229 0
M  V30 454 H 43.826 -0.55765 0.548225 0
M  V30 455 H 46.41 -0.890302 1.73152 0
M  V30 456 H 44.581 -3.4069 1.86507 0
M  V30 457 H 46.313 -3.45465 2.10798 0
M  V30 458 H 43.068 -2.61885 3.94605 0
M  V30 459 H 43.492 -1.95484 6.48163 0
M  V30 460 H 48.134 -2.23123 3.59133 0
M  V30 461 H 45.852 -1.38246 7.96187 0
M  V30 462 H 49.438 -1.59621 5.59475 0
M  V30 463 H 48.318 -1.17904 7.75286 0
M  V30 464 N 45.8211 -1.22559 -0.990812 0
M  V30 465 C 47.0671 -1.05297 -1.73322 0
M  V30 466 C 47.4001 0.410655 -1.89808 0
M  V30 467 O 46.6751 1.30439 -1.44277 0
M  V30 468 C 46.9581 -1.76713 -3.13759 0
M  V30 469 C 46.8111 -3.30684 -3.04907 0
M  V30 470 C 48.1301 -1.52121 -4.12974 0
M  V30 471 H 45.2491 -0.38392 -0.629106 0
M  V30 472 H 47.8911 -1.50926 -1.15418 0
M  V30 473 H 46.0411 -1.37924 -3.63193 0
M  V30 474 H 47.7131 -3.7893 -2.63077 0
M  V30 475 H 45.9561 -3.60253 -2.41661 0
M  V30 476 H 46.6271 -3.75833 -4.04294 0
M  V30 477 H 49.1031 -1.85819 -3.72304 0
M  V30 478 H 47.9791 -2.04582 -5.0935 0
M  V30 479 H 48.2401 -0.454257 -4.3976 0
M  V30 480 N 47.2992 1.18797 -1.03562 0
M  V30 481 C 48.2092 2.25913 -0.632505 0
M  V30 482 C 49.2252 1.70668 0.338882 0
M  V30 483 O 50.4012 2.00453 0.195076 0
M  V30 484 C 47.4662 3.467 0.00350942 0
M  V30 485 C 46.5272 4.17098 -1.01624 0
M  V30 486 C 45.7602 5.32119 -0.410478 0
M  V30 487 O 45.9832 5.64976 0.784725 0
M  V30 488 O 44.9172 5.9107 -1.13667 0
M  V30 489 H 48.7432 2.62648 -1.52478 0
M  V30 490 H 46.3282 1.25781 -0.806195 0
M  V30 491 H 48.2102 4.19878 0.35781 0
M  V30 492 H 46.8852 3.11798 0.869686 0
M  V30 493 H 45.7922 3.4601 -1.42224 0
M  V30 494 H 47.1252 4.55987 -1.85301 0
M  V30 495 N 48.7773 0.814389 1.34928 0
M  V30 496 C 49.7073 0.244827 2.32213 0
M  V30 497 C 50.6883 -0.634024 1.57842 0
M  V30 498 O 51.8733 -0.562676 1.8587 0
M  V30 499 C 49.0033 -0.601106 3.42058 0
M  V30 500 C 47.9573 0.179896 4.27622 0
M  V30 501 C 47.2833 -0.788237 5.28858 0
M  V30 502 C 48.5833 1.38329 5.03649 0
M  V30 503 H 50.2773 1.05763 2.80097 0
M  V30 504 H 47.8233 0.510029 1.34665 0
M  V30 505 H 49.7763 -1.00968 4.09125 0
M  V30 506 H 48.5003 -1.44688 2.92802 0
M  V30 507 H 47.1593 0.569739 3.62146 0
M  V30 508 H 46.8073 -1.62973 4.75866 0
M  V30 509 H 46.5073 -0.269942 5.8698 0
M  V30 510 H 48.0313 -1.19485 5.98795 0
M  V30 511 H 49.4453 1.04918 5.63618 0
M  V30 512 H 47.8423 1.83662 5.71304 0
M  V30 513 H 48.9123 2.16592 4.33839 0
M  V30 514 N 50.2554 -1.46986 0.568584 0
M  V30 515 C 51.6664 -1.86188 0.138219 0
M  V30 516 C 52.0174 -1.47388 -1.29504 0
M  V30 517 O 51.1424 -0.88219 -1.97602 0
M  V30 518 C 51.7374 -3.3792 0.244065 0
M  V30 519 C 50.2964 -3.76171 -0.131335 0
M  V30 520 C 49.4434 -2.71027 0.586465 0
M  V30 521 H 52.3944 -1.38342 0.777645 0
M  V30 522 H 52.4154 -3.76729 -0.534351 0
M  V30 523 H 51.9274 -3.66128 1.28731 0
M  V30 524 H 50.0284 -3.5358 -1.17526 0
M  V30 525 H 50.1414 -4.78523 0.235146 0
M  V30 526 H 48.5054 -2.54684 0.0282722 0
M  V30 527 H 49.2884 -3.02077 1.63109 0
M  V30 528 N 51.7335 -0.305618 -1.54608 0
M  V30 529 C 52.9795 0.302746 -2.00528 0
M  V30 530 C 53.3125 1.53184 -1.19367 0
M  V30 531 O 52.5875 1.92598 -0.271321 0
M  V30 532 C 52.8705 0.654756 -3.54097 0
M  V30 533 C 52.7235 -0.583793 -4.45995 0
M  V30 534 C 54.0425 1.47947 -4.14487 0
M  V30 535 H 51.1615 0.108564 -0.72896 0
M  V30 536 H 53.8035 -0.418634 -1.85331 0
M  V30 537 H 51.9535 1.26935 -3.67178 0
M  V30 538 H 53.6255 -1.22224 -4.44814 0
M  V30 539 H 51.8685 -1.21615 -4.16404 0
M  V30 540 H 52.5395 -0.293287 -5.5122 0
M  V30 541 H 55.0155 0.96013 -4.04871 0
M  V30 542 H 53.8915 1.69454 -5.22088 0
M  V30 543 H 54.1525 2.47011 -3.66658 0
M  V30 544 N 53.2116 1.57565 -0.0334293 0
M  V30 545 C 54.4576 1.92262 0.645226 0
M  V30 546 C 54.7906 0.910543 1.71531 0
M  V30 547 O 54.0656 -0.066099 1.94388 0
M  V30 548 C 54.3486 3.37422 1.2577 0
M  V30 549 C 54.2016 4.49369 0.196891 0
M  V30 550 C 55.5206 3.82628 2.17449 0
M  V30 551 H 52.6396 0.699171 0.233085 0
M  V30 552 H 55.2816 1.89779 -0.0915694 0
M  V30 553 H 53.4316 3.39669 1.88566 0
M  V30 554 H 55.1036 4.59254 -0.433962 0
M  V30 555 H 53.3466 4.31168 -0.477137 0
M  V30 556 H 54.0176 5.47978 0.665124 0
M  V30 557 H 56.4936 3.82145 1.64634 0
M  V30 558 H 55.3696 4.84883 2.57254 0
M  V30 559 H 55.6306 3.18376 3.0674 0
M  V30 560 N 54.6897 -0.239769 1.55765 0
M  V30 561 C 55.9357 -0.968234 1.78194 0
M  V30 562 C 56.2687 -1.84701 0.599938 0
M  V30 563 O 55.5437 -1.9031 -0.401524 0
M  V30 564 C 55.8267 -1.8227 3.10564 0
M  V30 565 C 55.6797 -0.971633 4.3918 0
M  V30 566 C 56.9987 -2.80388 3.39221 0
M  V30 567 H 54.1177 -0.350572 0.648281 0
M  V30 568 H 56.7597 -0.238259 1.885 0
M  V30 569 H 54.9097 -2.44507 3.01908 0
M  V30 570 H 56.5817 -0.367408 4.59835 0
M  V30 571 H 54.8247 -0.276276 4.32919 0
M  V30 572 H 55.4957 -1.60346 5.28198 0
M  V30 573 H 57.9717 -2.28287 3.47885 0
M  V30 574 H 56.8477 -3.3729 4.33044 0
M  V30 575 H 57.1087 -3.57212 2.60484 0
M  V30 576 N 56.1678 -1.49265 -0.50573 0
M  V30 577 C 57.1148 -1.65585 -1.6078 0
M  V30 578 C 58.0848 -0.497396 -1.58478 0
M  V30 579 O 59.2698 -0.72385 -1.76536 0
M  V30 580 C 56.4098 -1.72408 -2.98948 0
M  V30 581 C 55.5228 -2.99525 -3.11301 0
M  V30 582 C 54.6578 -2.97356 -4.40174 0
M  V30 583 C 53.6968 -4.19074 -4.46143 0
M  V30 584 N 52.8338 -4.14841 -5.66437 0
M  V30 585 H 57.6738 -2.59688 -1.46172 0
M  V30 586 H 55.2108 -1.28761 -0.711261 0
M  V30 587 H 57.1688 -1.74344 -3.79025 0
M  V30 588 H 55.7988 -0.817753 -3.1227 0
M  V30 589 H 54.8508 -3.07222 -2.24318 0
M  V30 590 H 56.1628 -3.89518 -3.11572 0
M  V30 591 H 55.3168 -2.97829 -5.28567 0
M  V30 592 H 54.0558 -2.05133 -4.42461 0
M  V30 593 H 53.0608 -4.1885 -3.56153 0
M  V30 594 H 54.2858 -5.12483 -4.45575 0
M  V30 595 H 52.2318 -3.25453 -5.69575 0
M  V30 596 H 52.1488 -4.98564 -5.68304 0
M  V30 597 H 53.4168 -4.1941 -6.57051 0
M  V30 598 N 57.6459 0.756429 -1.3826 0
M  V30 599 C 58.5559 1.9009 -1.37488 0
M  V30 600 C 59.5719 1.71855 -0.272366 0
M  V30 601 O 60.7479 1.94827 -0.510318 0
M  V30 602 C 57.8129 3.25421 -1.19592 0
M  V30 603 C 56.8739 3.56202 -2.39622 0
M  V30 604 C 56.1069 4.85075 -2.2257 0
M  V30 605 O 56.3299 5.57246 -1.21793 0
M  V30 606 O 55.2639 5.15269 -3.11098 0
M  V30 607 H 59.0899 1.93695 -2.33914 0
M  V30 608 H 56.6749 0.901313 -1.1915 0
M  V30 609 H 58.5569 4.06337 -1.11661 0
M  V30 610 H 57.2319 3.22634 -0.262486 0
M  V30 611 H 56.1389 2.75458 -2.53128 0
M  V30 612 H 57.4719 3.63747 -3.31586 0
M  V30 613 N 59.124 1.23083 0.984299 0
M  V30 614 C 60.054 1.03292 2.09411 0
M  V30 615 C 61.035 -0.048923 1.7003 0
M  V30 616 O 62.22 0.114967 1.93859 0
M  V30 617 C 59.35 0.619155 3.41736 0
M  V30 618 C 58.304 1.64791 3.95004 0
M  V30 619 C 57.63 1.0897 5.23478 0
M  V30 620 C 58.93 3.03999 4.24714 0
M  V30 621 H 60.624 1.96119 2.26225 0
M  V30 622 H 58.17 0.944344 1.08711 0
M  V30 623 H 60.123 0.467777 4.18796 0
M  V30 624 H 58.847 -0.344786 3.24775 0
M  V30 625 H 57.506 1.78721 3.20085 0
M  V30 626 H 57.154 0.11686 5.02864 0
M  V30 627 H 56.854 1.77704 5.60085 0
M  V30 628 H 58.378 0.950093 6.03163 0
M  V30 629 H 59.792 2.93393 4.92538 0
M  V30 630 H 58.189 3.69936 4.72512 0
M  V30 631 H 59.259 3.53285 3.32142 0
M  V30 632 N 60.6021 -1.18246 1.0419 0
M  V30 633 C 62.0131 -1.69914 0.773698 0
M  V30 634 C 62.3641 -1.83085 -0.705297 0
M  V30 635 O 61.4891 -1.51123 -1.5489 0
M  V30 636 C 62.0841 -3.08619 1.39784 0
M  V30 637 C 60.6431 -3.57494 1.17792 0
M  V30 638 C 59.7901 -2.34013 1.48773 0
M  V30 639 H 62.7411 -1.02904 1.20816 0
M  V30 640 H 62.7621 -3.71958 0.801714 0
M  V30 641 H 62.2741 -2.99001 2.47426 0
M  V30 642 H 60.3751 -3.72406 0.120295 0
M  V30 643 H 60.4881 -4.40852 1.87581 0
M  V30 644 H 58.8521 -2.37986 0.907463 0
M  V30 645 H 59.6351 -2.27013 2.57527 0
M  V30 646 N 62.0802 -0.821533 -1.34494 0
M  V30 647 C 62.9902 -0.244355 -2.33324 0
M  V30 648 C 64.0062 0.620527 -1.62559 0
M  V30 649 O 65.1822 0.528754 -1.94335 0
M  V30 650 C 62.2472 0.585368 -3.41723 0
M  V30 651 C 61.3082 -0.301752 -4.28238 0
M  V30 652 C 60.5412 0.488466 -5.3146 0
M  V30 653 O 60.7642 1.72186 -5.4379 0
M  V30 654 O 59.6982 -0.12848 -6.01763 0
M  V30 655 H 63.5242 -1.06231 -2.84515 0
M  V30 656 H 61.1092 -0.583645 -1.37528 0
M  V30 657 H 62.9912 1.05747 -4.07916 0
M  V30 658 H 61.6662 1.38068 -2.92778 0
M  V30 659 H 60.5732 -0.821315 -3.64973 0
M  V30 660 H 61.9062 -1.06138 -4.8062 0
M  V30 661 N 63.5583 1.46682 -0.576371 0
M  V30 662 C 64.8063 2.02013 -0.0594163 0
M  V30 663 C 65.1273 1.45101 1.30271 0
M  V30 664 O 64.3973 0.633317 1.8538 0
M  V30 665 H 62.9773 0.746759 -0.0189745 0
M  V30 666 H 65.6393 1.79862 -0.750717 0
M  V30 667 H 64.7353 3.12097 0.014345 0
M  V30 668 N 65.0364 0.313813 1.54444 0
M  V30 669 C 66.2824 -0.284918 2.01395 0
M  V30 670 C 66.6374 -1.50537 1.19818 0
M  V30 671 O 65.9304 -1.89692 0.269748 0
M  V30 672 C 66.1244 -0.680386 3.50864 0
M  V30 673 C 65.9534 0.500198 4.4691 0
M  V30 674 C 64.7234 0.996248 4.95382 0
M  V30 675 C 66.9214 1.34928 4.96285 0
M  V30 676 N 64.9034 2.14226 5.75309 0
M  V30 677 C 66.2744 2.3426 5.7404 0
M  V30 678 C 68.3294 1.37818 4.78446 0
M  V30 679 C 67.0324 3.36272 6.35856 0
M  V30 680 C 69.0584 2.38695 5.4109 0
M  V30 681 C 68.4204 3.36755 6.18688 0
M  V30 682 H 64.5194 -0.0683689 0.779006 0
M  V30 683 H 67.1034 0.44664 1.89508 0
M  V30 684 H 65.2744 -1.38109 3.63016 0
M  V30 685 H 67.0064 -1.25975 3.84594 0
M  V30 686 H 63.7614 0.56912 4.70168 0
M  V30 687 H 64.1854 2.72005 6.19953 0
M  V30 688 H 68.8274 0.633747 4.18023 0
M  V30 689 H 66.5454 4.11627 6.95405 0
M  V30 690 H 70.1314 2.41721 5.29209 0
M  V30 691 H 69.0114 4.13535 6.66302 0
M  V30 692 N 66.5145 -1.57545 0.0417849 0
M  V30 693 C 67.7395 -1.97035 -0.647455 0
M  V30 694 C 68.1645 -0.918775 -1.64135 0
M  V30 695 O 67.5225 0.119006 -1.80909 0
M  V30 696 C 67.5705 -3.35609 -1.31905 0
M  V30 697 O 66.6745 -3.3287 -2.43457 0
M  V30 698 H 66.0155 -0.64211 -0.169086 0
M  V30 699 H 68.5455 -2.04318 0.107399 0
M  V30 700 H 68.5555 -3.72126 -1.67291 0
M  V30 701 H 67.2305 -4.11685 -0.590586 0
M  V30 702 H 65.8075 -3.08087 -2.10088 0
M  V30 703 N 67.9926 0.231505 -1.5589 0
M  V30 704 C 68.9226 1.29022 -1.94617 0
M  V30 705 C 69.9036 1.4941 -0.813067 0
M  V30 706 O 71.0886 1.6176 -1.07459 0
M  V30 707 C 68.2186 2.64199 -2.25424 0
M  V30 708 C 67.1726 2.58484 -3.41131 0
M  V30 709 C 66.4986 3.97599 -3.57518 0
M  V30 710 C 67.7986 2.1413 -4.76388 0
M  V30 711 H 69.4926 0.968563 -2.83301 0
M  V30 712 H 67.0386 0.464479 -1.36303 0
M  V30 713 H 68.9916 3.38413 -2.51107 0
M  V30 714 H 67.7156 2.98032 -1.33583 0
M  V30 715 H 66.3746 1.86727 -3.15481 0
M  V30 716 H 66.0226 4.28723 -2.6307 0
M  V30 717 H 65.7226 3.94659 -4.35337 0
M  V30 718 H 67.2466 4.7349 -3.85538 0
M  V30 719 H 68.6606 2.78083 -5.01341 0
M  V30 720 H 67.0576 2.2227 -5.57419 0
M  V30 721 H 68.1276 1.09331 -4.72414 0
M  V30 722 N 69.4707 1.49531 0.497807 0
M  V30 723 C 70.8817 1.52344 1.07927 0
M  V30 724 C 71.2327 0.311469 1.93712 0
M  V30 725 O 70.3577 -0.578405 2.08527 0
M  V30 726 C 70.9527 2.76062 1.96405 0
M  V30 727 C 69.5117 2.81643 2.49709 0
M  V30 728 C 68.6587 2.46299 1.27404 0
M  V30 729 H 71.6097 1.56182 0.281576 0
M  V30 730 H 71.6307 2.56405 2.81135 0
M  V30 731 H 71.1427 3.64254 1.33943 0
M  V30 732 H 69.2437 1.97739 3.15801 0
M  V30 733 H 69.3567 3.83891 2.86643 0
M  V30 734 H 67.7207 1.98148 1.60029 0
M  V30 735 H 68.5037 3.36769 0.66645 0
M  V30 736 N 70.9488 -0.749086 1.3866 0
M  V30 737 C 72.1738 -1.54344 1.38538 0
M  V30 738 C 72.5988 -1.88088 -0.0216655 0
M  V30 739 O 71.9568 -1.50899 -1.00494 0
M  V30 740 C 72.0048 -2.8164 2.25192 0
M  V30 741 O 71.1088 -3.7698 1.67212 0
M  V30 742 H 70.4498 -0.466654 0.472367 0
M  V30 743 H 72.9798 -0.925355 1.82478 0
M  V30 744 H 72.9898 -3.30519 2.3921 0
M  V30 745 H 71.6648 -2.56411 3.27454 0
M  V30 746 H 70.2418 -3.35699 1.6236 0
M  V30 747 N 72.4269 -1.23603 -0.977757 0
M  V30 748 C 73.6569 -1.09487 -1.75203 0
M  V30 749 C 74.0649 0.356321 -1.85814 0
M  V30 750 O 73.4079 1.25816 -1.33851 0
M  V30 751 C 73.4699 -1.64905 -3.19447 0
M  V30 752 C 73.1339 -3.13688 -3.32338 0
M  V30 753 C 74.1309 -4.10953 -3.18455 0
M  V30 754 C 71.8159 -3.53449 -3.56902 0
M  V30 755 C 73.8099 -5.45962 -3.28944 0
M  V30 756 C 71.4969 -4.88602 -3.6703 0
M  V30 757 C 72.4949 -5.84668 -3.53062 0
M  V30 758 O 72.1829 -7.17365 -3.62826 0
M  V30 759 H 71.9149 -0.38367 -0.556573 0
M  V30 760 H 74.4689 -1.6398 -1.23693 0
M  V30 761 H 72.6989 -1.04835 -3.72218 0
M  V30 762 H 74.3879 -1.46226 -3.78646 0
M  V30 763 H 75.1539 -3.81577 -2.99372 0
M  V30 764 H 71.0329 -2.79188 -3.66844 0
M  V30 765 H 74.5769 -6.20925 -3.17958 0
M  V30 766 H 70.4739 -5.17653 -3.85623 0
M  V30 767 H 71.2419 -7.2515 -3.79605 0
M  V30 768 N 73.905 1.17692 -1.04816 0
M  V30 769 C 75.151 1.88137 -0.75711 0
M  V30 770 C 75.484 1.80604 0.713841 0
M  V30 771 O 74.759 1.21146 1.52164 0
M  V30 772 C 75.042 3.38318 -1.2334 0
M  V30 773 C 74.895 3.54622 -2.76701 0
M  V30 774 C 76.214 4.32214 -0.829415 0
M  V30 775 H 73.333 0.683163 -0.27651 0
M  V30 776 H 75.975 1.38424 -1.30149 0
M  V30 777 H 74.125 3.80787 -0.770286 0
M  V30 778 H 75.797 3.21194 -3.31107 0
M  V30 779 H 74.04 2.97026 -3.16161 0
M  V30 780 H 74.711 4.60028 -3.05088 0
M  V30 781 H 77.187 3.97565 -1.22805 0
M  V30 782 H 76.063 5.35838 -1.19033 0
M  V30 783 H 76.324 4.41294 0.266891 0
M  V30 784 N 75.3831 0.828654 1.34056 0
M  V30 785 C 76.6081 0.431637 2.02859 0
M  V30 786 C 77.0331 -0.956339 1.61975 0
M  V30 787 O 76.3911 -1.62338 0.807228 0
M  V30 788 C 76.4391 0.548323 3.56407 0
M  V30 789 O 75.5431 -0.429556 4.10157 0
M  V30 790 H 74.8841 0.176886 0.640006 0
M  V30 791 H 77.4141 1.12066 1.71179 0
M  V30 792 H 77.4241 0.426196 4.05768 0
M  V30 793 H 76.0991 1.5606 3.8551 0
M  V30 794 H 74.6761 -0.265836 3.71951 0
M  V30 795 N 76.8612 -1.46375 0.584142 0
M  V30 796 C 78.1072 -2.02678 0.0703716 0
M  V30 797 C 78.4402 -1.4545 -1.28678 0
M  V30 798 O 77.7152 -0.62014 -1.84349 0
M  V30 799 C 77.9982 -3.60099 0.00614674 0
M  V30 800 C 77.8512 -4.27709 1.3923 0
M  V30 801 C 79.1702 -4.34598 -0.693742 0
M  V30 802 H 76.2892 -0.736504 0.027047 0
M  V30 803 H 78.9312 -1.74501 0.751615 0
M  V30 804 H 77.0812 -3.84236 -0.574009 0
M  V30 805 H 78.7532 -4.14832 2.01773 0
M  V30 806 H 76.9962 -3.87016 1.95962 0
M  V30 807 H 77.6672 -5.36478 1.29982 0
M  V30 808 H 80.1432 -4.15615 -0.200869 0
M  V30 809 H 79.0192 -5.44318 -0.707714 0
M  V30 810 H 79.2802 -4.05759 -1.75533 0
M  V30 811 N 78.3393 -0.321999 -1.54275 0
M  V30 812 C 79.2693 0.537411 -2.27231 0
M  V30 813 C 80.2503 1.12064 -1.27968 0
M  V30 814 O 81.4353 1.14606 -1.56777 0
M  V30 815 C 78.5653 1.69919 -3.02894 0
M  V30 816 C 77.5193 1.24534 -4.09482 0
M  V30 817 C 76.8453 2.49394 -4.72977 0
M  V30 818 C 78.1453 0.361335 -5.21049 0
M  V30 819 H 79.8393 -0.0711406 -2.99315 0
M  V30 820 H 77.3853 -0.0356555 -1.43956 0
M  V30 821 H 79.3383 2.30668 -3.52662 0
M  V30 822 H 78.0623 2.33431 -2.28424 0
M  V30 823 H 76.7213 0.660782 -3.60596 0
M  V30 824 H 76.3693 3.11265 -3.95124 0
M  V30 825 H 76.0693 2.19718 -5.44975 0
M  V30 826 H 77.5933 3.10908 -5.25517 0
M  V30 827 H 79.0073 0.875072 -5.66582 0
M  V30 828 H 77.4043 0.157428 -5.99893 0
M  V30 829 H 78.4743 -0.60822 -4.8107 0
M  V30 830 N 79.8174 1.5752 -0.0501392 0
M  V30 831 C 81.0634 1.92936 0.624798 0
M  V30 832 C 81.3964 0.928685 1.70555 0
M  V30 833 O 80.6714 -0.0454779 1.94447 0
M  V30 834 C 80.9544 3.38737 1.22185 0
M  V30 835 C 80.8074 4.49552 0.149218 0
M  V30 836 C 82.1264 3.84913 2.13378 0
M  V30 837 H 79.2454 0.701604 0.225657 0
M  V30 838 H 81.8874 1.89671 -0.111693 0
M  V30 839 H 80.0374 3.4165 1.84953 0
M  V30 840 H 81.7094 4.58768 -0.482648 0
M  V30 841 H 79.9524 4.30638 -0.522841 0
M  V30 842 H 80.6234 5.48653 0.606966 0
M  V30 843 H 83.0994 3.8387 1.60572 0
M  V30 844 H 81.9754 4.87584 2.52097 0
M  V30 845 H 82.2364 3.21611 3.03346 0
M  V30 846 N 81.2955 -0.223234 1.56011 0
M  V30 847 C 82.2585 -1.26014 1.9145 0
M  V30 848 C 83.2585 -1.3989 0.792937 0
M  V30 849 O 84.4485 -1.38184 1.0607 0
M  V30 850 C 81.5805 -2.63422 2.16383 0
M  V30 851 H 82.7735 -0.95796 2.84189 0
M  V30 852 H 80.3265 -0.463576 1.49267 0
M  V30 853 H 81.0615 -2.98741 1.2619 0
M  V30 854 H 80.8465 -2.54728 2.98088 0
M  V30 855 H 82.3365 -3.38249 2.44903 0
M  V30 856 N 82.7736 -1.49793 -0.48987 0
M  V30 857 C 83.7036 -1.70201 -1.59856 0
M  V30 858 C 84.6846 -0.55076 -1.60937 0
M  V30 859 O 85.8696 -0.787841 -1.77501 0
M  V30 860 C 82.9996 -1.77882 -2.98287 0
M  V30 861 C 81.9536 -2.92907 -3.12073 0
M  V30 862 C 81.2796 -2.85712 -4.51965 0
M  V30 863 C 82.5796 -4.3369 -2.91051 0
M  V30 864 H 84.2736 -2.63025 -1.43032 0
M  V30 865 H 81.8196 -1.26574 -0.686664 0
M  V30 866 H 83.7726 -1.90744 -3.75759 0
M  V30 867 H 82.4966 -0.816653 -3.16225 0
M  V30 868 H 81.1556 -2.79665 -2.37029 0
M  V30 869 H 80.8036 -1.8738 -4.66795 0
M  V30 870 H 80.5036 -3.62921 -4.62128 0
M  V30 871 H 82.0276 -3.00598 -5.31482 0
M  V30 872 H 83.4416 -4.47555 -3.58284 0
M  V30 873 H 81.8386 -5.12205 -3.12675 0
M  V30 874 H 82.9086 -4.47362 -1.87071 0
M  V30 875 N 84.2517 0.741722 -1.39055 0
M  V30 876 C 85.4997 1.49818 -1.35643 0
M  V30 877 C 85.8207 1.94938 0.0491642 0
M  V30 878 O 85.0907 1.68505 0.999141 0
M  V30 879 H 83.6707 0.555755 -0.499144 0
M  V30 880 H 86.3327 0.880957 -1.73854 0
M  V30 881 H 85.4287 2.38348 -2.01486 0
M  V30 882 N 85.7298 1.2412 0.971189 0
M  V30 883 C 86.6778 1.02812 2.08644 0
M  V30 884 C 87.6718 -0.0358403 1.69362 0
M  V30 885 O 88.8778 0.118429 1.7961 0
M  V30 886 H 85.2528 0.315428 0.682649 0
M  V30 887 H 87.2238 1.97397 2.23779 0
M  V30 888 C 85.9728 0.645874 3.41649 0
M  V30 889 H 85.2958 1.45632 3.72332 0
M  V30 890 H 86.7358 0.536366 4.20594 0
M  V30 891 C 85.1948 -0.646713 3.30635 0
M  V30 892 O 85.7248 -1.69338 3.64263 0
M  V30 893 N 83.9308 -0.626115 2.83775 0
M  V30 894 H 83.4778 0.225988 2.56607 0
M  V30 895 H 83.4358 -1.49117 2.76788 0
M  V30 896 N 87.2079 -1.17134 1.05439 0
M  V30 897 C 88.1379 -2.2342 0.678649 0
M  V30 898 C 89.1189 -1.66971 -0.32476 0
M  V30 899 O 90.3039 -1.93149 -0.201802 0
M  V30 900 C 87.4339 -3.47256 0.0552099 0
M  V30 901 C 86.3879 -4.16543 0.98365 0
M  V30 902 C 85.7139 -5.34231 0.223961 0
M  V30 903 C 87.0139 -4.68495 2.3089 0
M  V30 904 H 88.7079 -2.55105 1.56722 0
M  V30 905 H 86.2539 -1.2262 0.754998 0
M  V30 906 H 88.2069 -4.20828 -0.21946 0
M  V30 907 H 86.9309 -3.14846 -0.868319 0
M  V30 908 H 85.5899 -3.44887 1.24293 0
M  V30 909 H 85.2379 -4.98071 -0.702412 0
M  V30 910 H 84.9379 -5.81527 0.842627 0
M  V30 911 H 86.4619 -6.10585 -0.0433671 0
M  V30 912 H 87.8759 -5.33691 2.09396 0
M  V30 913 H 86.2729 -5.26379 2.88176 0
M  V30 914 H 87.3429 -3.85169 2.94572 0
M  V30 915 N 88.686 -0.835752 -1.33615 0
M  V30 916 C 89.934 -0.429109 -1.97492 0
M  V30 917 C 90.255 1.01433 -1.66543 0
M  V30 918 O 89.525 1.70611 -0.962744 0
M  V30 919 H 88.105 -0.155686 -0.730596 0
M  V30 920 H 90.767 -1.06802 -1.63031 0
M  V30 921 H 89.863 -0.55861 -3.0706 0
M  V30 922 N 90.1641 1.46063 -0.591896 0
M  V30 923 C 91.0941 2.33172 0.123673 0
M  V30 924 C 92.0751 1.45897 0.87453 0
M  V30 925 O 93.2601 1.74698 0.848181 0
M  V30 926 C 90.3901 3.28336 1.13194 0
M  V30 927 C 89.3441 4.25124 0.495324 0
M  V30 928 C 88.6701 5.09863 1.61071 0
M  V30 929 C 89.9701 5.19143 -0.573425 0
M  V30 930 H 91.6641 2.93252 -0.603646 0
M  V30 931 H 89.2101 1.41014 -0.291741 0
M  V30 932 H 91.1631 3.88137 1.64097 0
M  V30 933 H 89.8871 2.66383 1.88965 0
M  V30 934 H 88.5461 3.66599 0.00729452 0
M  V30 935 H 88.1941 4.44288 2.35832 0
M  V30 936 H 87.8941 5.75417 1.19035 0
M  V30 937 H 89.4181 5.72529 2.12233 0
M  V30 938 H 90.8321 5.73106 -0.1491 0
M  V30 939 H 89.2291 5.93089 -0.914636 0
M  V30 940 H 90.2991 4.62519 -1.45617 0
M  V30 941 N 91.6422 0.330177 1.54103 0
M  V30 942 C 92.5722 -0.525353 2.27513 0
M  V30 943 C 93.5532 -1.11383 1.2856 0
M  V30 944 O 94.7382 -1.13773 1.57383 0
M  V30 945 C 91.8682 -1.6831 3.03791 0
M  V30 946 C 90.8222 -1.2236 4.10137 0
M  V30 947 C 90.1482 -2.46882 4.74293 0
M  V30 948 C 91.4482 -0.333697 5.21233 0
M  V30 949 H 93.1422 0.087013 2.99274 0
M  V30 950 H 90.6882 0.0432893 1.43935 0
M  V30 951 H 92.6412 -2.28795 3.5388 0
M  V30 952 H 91.3652 -2.32216 2.29659 0
M  V30 953 H 90.0242 -0.64165 3.60941 0
M  V30 954 H 89.6722 -3.09165 3.96769 0
M  V30 955 H 89.3722 -2.16825 5.46133 0
M  V30 956 H 90.8962 -3.08117 5.27159 0
M  V30 957 H 92.3102 -0.845013 5.67038 0
M  V30 958 H 90.7072 -0.125612 5.99969 0
M  V30 959 H 91.7772 0.633724 4.80741 0
M  V30 960 N 93.1203 -1.57491 0.0584922 0
M  V30 961 C 94.3663 -1.93264 -0.614558 0
M  V30 962 C 94.6993 -0.937717 -1.7006 0
M  V30 963 O 93.9743 0.0351652 -1.94468 0
M  V30 964 C 94.2573 -3.3938 -1.20386 0
M  V30 965 C 94.1103 -4.49625 -0.125375 0
M  V30 966 C 95.4293 -3.86039 -2.11334 0
M  V30 967 H 92.5483 -0.702791 -0.221933 0
M  V30 968 H 95.1903 -1.8961 0.12175 0
M  V30 969 H 93.3403 -3.42626 -1.83139 0
M  V30 970 H 95.0123 -4.58506 0.506971 0
M  V30 971 H 93.2553 -4.30354 0.545672 0
M  V30 972 H 93.9263 -5.48967 -0.577861 0
M  V30 973 H 96.4023 -3.84716 -1.58534 0
M  V30 974 H 95.2783 -4.88914 -2.49507 0
M  V30 975 H 95.5393 -3.23215 -3.01636 0
M  V30 976 N 94.5984 0.214957 -1.56127 0
M  V30 977 C 95.8444 0.939762 -1.79712 0
M  V30 978 C 96.1774 1.83723 -0.629247 0
M  V30 979 O 95.4524 1.90925 0.371197 0
M  V30 980 C 95.7354 1.77306 -3.13424 0
M  V30 981 C 95.5884 0.90164 -4.40671 0
M  V30 982 C 96.9074 2.74956 -3.43638 0
M  V30 983 H 94.0264 0.340214 -0.653776 0
M  V30 984 H 96.6684 0.20824 -1.88855 0
M  V30 985 H 94.8184 2.39673 -3.0576 0
M  V30 986 H 96.4904 0.294206 -4.60361 0
M  V30 987 H 94.7334 0.207368 -4.33304 0
M  V30 988 H 95.4044 1.51923 -5.30682 0
M  V30 989 H 97.8804 2.22724 -3.51473 0
M  V30 990 H 96.7564 3.30358 -4.38355 0
M  V30 991 H 97.0174 3.53023 -2.66134 0
M  V30 992 N 96.0765 1.50051 0.48192 0
M  V30 993 C 97.3045 1.64237 1.25832 0
M  V30 994 C 97.7195 0.321336 1.86045 0
M  V30 995 O 97.0765 -0.695478 1.68729 0
M  V30 996 C 97.1275 2.72548 2.37487 0
M  V30 997 O 96.8485 3.99529 1.79745 0
M  V30 998 C 98.3495 2.9761 3.28547 0
M  V30 999 H 95.5695 0.55237 0.380957 0
M  V30 1000 H 98.1135 1.96207 0.576467 0
M  V30 1001 H 96.2685 2.43303 3.01467 0
M  V30 1002 H 96.6825 4.59342 2.5319 0
M  V30 1003 H 98.1565 3.77084 4.03127 0
M  V30 1004 H 98.6335 2.0826 3.86684 0
M  V30 1005 H 99.2395 3.28345 2.70314 0
M  V30 1006 N 97.5546 -0.734337 1.39446 0
M  V30 1007 C 98.4846 -1.86155 1.40955 0
M  V30 1008 C 99.4656 -1.67898 0.272827 0
M  V30 1009 O 100.651 -1.88207 0.478743 0
M  V30 1010 C 97.7806 -3.23912 1.25294 0
M  V30 1011 C 96.7346 -3.56808 2.36373 0
M  V30 1012 C 96.0606 -4.93508 2.058 0
M  V30 1013 C 97.3606 -3.59713 3.78687 0
M  V30 1014 H 99.0546 -1.8515 2.35287 0
M  V30 1015 H 96.6006 -0.889367 1.13253 0
M  V30 1016 H 98.5536 -4.02443 1.2497 0
M  V30 1017 H 97.2776 -3.25446 0.274308 0
M  V30 1018 H 95.9366 -2.80606 2.35914 0
M  V30 1019 H 95.5846 -4.91623 1.06374 0
M  V30 1020 H 95.2846 -5.16486 2.80208 0
M  V30 1021 H 96.8086 -5.74396 2.07128 0
M  V30 1022 H 98.2226 -4.2832 3.81071 0
M  V30 1023 H 96.6196 -3.94209 4.52459 0
M  V30 1024 H 97.6896 -2.59504 4.09617 0
M  V30 1025 N 99.0327 -1.24633 -0.964593 0
M  V30 1026 C 100.279 -1.09957 -1.71117 0
M  V30 1027 C 100.634 0.357422 -1.89051 0
M  V30 1028 O 99.9267 1.26029 -1.44317 0
M  V30 1029 C 100.121 -1.7763 -3.10133 0
M  V30 1030 C 99.9497 -3.29759 -3.05759 0
M  V30 1031 C 98.7197 -3.98981 -3.10068 0
M  V30 1032 C 100.918 -4.26305 -2.87695 0
M  V30 1033 N 98.8997 -5.37966 -2.95747 0
M  V30 1034 C 100.271 -5.52308 -2.81702 0
M  V30 1035 C 102.326 -4.16842 -2.72299 0
M  V30 1036 C 101.029 -6.69931 -2.61887 0
M  V30 1037 C 103.055 -5.34147 -2.53853 0
M  V30 1038 C 102.417 -6.59084 -2.48572 0
M  V30 1039 H 98.5157 -0.457003 -0.634564 0
M  V30 1040 H 101.1 -1.57592 -1.14337 0
M  V30 1041 H 99.2707 -1.32504 -3.65099 0
M  V30 1042 H 101.003 -1.55786 -3.73514 0
M  V30 1043 H 97.7577 -3.50169 -3.18871 0
M  V30 1044 H 98.1817 -6.10877 -2.91818 0
M  V30 1045 H 102.824 -3.21007 -2.75163 0
M  V30 1046 H 100.542 -7.65886 -2.57767 0
M  V30 1047 H 104.128 -5.28678 -2.4288 0
M  V30 1048 H 103.008 -7.48324 -2.34481 0
M  V30 1049 N 100.511 1.16574 -1.06058 0
M  V30 1050 C 101.927 1.3904 -0.783585 0
M  V30 1051 C 102.127 1.91784 0.618145 0
M  V30 1052 O 101.183 2.11511 1.37911 0
M  V30 1053 C 102.496 2.37329 -1.84649 0
M  V30 1054 C 104.044 2.51018 -1.86973 0
M  V30 1055 C 104.519 3.52588 -2.92311 0
M  V30 1056 N 106.01 3.60113 -2.91329 0
M  V30 1057 C 106.745 4.38486 -3.69482 0
M  V30 1058 N 106.241 5.20302 -4.57447 0
M  V30 1059 N 108.034 4.33446 -3.57885 0
M  V30 1060 H 100.185 0.806725 -1.96483 0
M  V30 1061 H 102.448 0.417117 -0.851303 0
M  V30 1062 H 102.154 2.05663 -2.85299 0
M  V30 1063 H 102.028 3.36946 -1.6955 0
M  V30 1064 H 104.415 2.81989 -0.869827 0
M  V30 1065 H 104.496 1.51445 -2.0615 0
M  V30 1066 H 104.14 3.22354 -3.92492 0
M  V30 1067 H 104.07 4.51886 -2.70383 0
M  V30 1068 H 106.561 3.01707 -2.27555 0
M  V30 1069 H 106.874 5.77311 -5.13743 0
M  V30 1070 H 105.219 5.19653 -4.61503 0
M  V30 1071 H 108.41 3.68586 -2.88551 0
M  V30 1072 H 108.583 4.94279 -4.19037 0
M  V30 1073 N 101.989 0.842826 1.3317 0
M  V30 1074 C 103.405 0.531128 1.50503 0
M  V30 1075 C 103.605 -0.940734 1.78192 0
M  V30 1076 O 102.661 -1.72436 1.84451 0
M  V30 1077 C 103.974 1.40789 2.65705 0
M  V30 1078 C 105.522 1.40708 2.79589 0
M  V30 1079 C 105.997 2.26878 3.97857 0
M  V30 1080 N 107.488 2.24609 4.05099 0
M  V30 1081 C 108.223 2.88019 4.95815 0
M  V30 1082 N 107.719 3.60496 5.9162 0
M  V30 1083 N 109.512 2.77469 4.88843 0
M  V30 1084 H 101.663 1.79557 1.1346 0
M  V30 1085 H 103.926 0.766267 0.558156 0
M  V30 1086 H 103.632 2.454 2.51936 0
M  V30 1087 H 103.506 1.08677 3.61205 0
M  V30 1088 H 105.893 0.368668 2.92788 0
M  V30 1089 H 105.974 1.76829 1.84838 0
M  V30 1090 H 105.618 3.3078 3.85418 0
M  V30 1091 H 105.548 1.88096 4.91861 0
M  V30 1092 H 108.039 1.71906 3.36536 0
M  V30 1093 H 108.352 4.06076 6.57512 0
M  V30 1094 H 106.697 3.64604 5.91683 0
M  V30 1095 H 109.888 2.20406 4.12963 0
M  V30 1096 H 110.061 3.2717 5.59342 0
M  V30 1097 N 103.467 -1.45747 0.599634 0
M  V30 1098 C 104.397 -2.33235 -0.111306 0
M  V30 1099 C 105.378 -1.46359 -0.866781 0
M  V30 1100 O 106.563 -1.75146 -0.838904 0
M  V30 1101 C 103.693 -3.28932 -1.11451 0
M  V30 1102 C 102.647 -4.25381 -0.472772 0
M  V30 1103 C 101.973 -5.1071 -1.58365 0
M  V30 1104 C 103.273 -5.18831 0.600948 0
M  V30 1105 H 104.967 -2.92927 0.61919 0
M  V30 1106 H 102.513 -1.40857 0.299215 0
M  V30 1107 H 104.466 -3.89002 -1.62036 0
M  V30 1108 H 103.19 -2.67381 -1.8755 0
M  V30 1109 H 101.849 -3.66598 0.0121472 0
M  V30 1110 H 101.497 -4.45533 -2.33473 0
M  V30 1111 H 101.197 -5.7604 -1.15982 0
M  V30 1112 H 102.721 -5.73647 -2.09194 0
M  V30 1113 H 104.135 -5.73019 0.179491 0
M  V30 1114 H 102.532 -5.92595 0.946076 0
M  V30 1115 H 103.602 -4.6174 1.48068 0
M  V30 1116 N 104.945 -0.338344 -1.53925 0
M  V30 1117 C 105.908 0.508299 -2.23493 0
M  V30 1118 C 106.908 1.03175 -1.23335 0
M  V30 1119 O 108.098 0.921826 -1.47811 0
M  V30 1120 C 105.23 1.70754 -2.95052 0
M  V30 1121 H 106.423 -0.100058 -2.99733 0
M  V30 1122 H 103.976 -0.0896198 -1.56043 0
M  V30 1123 H 104.711 2.35474 -2.22986 0
M  V30 1124 H 104.496 1.33946 -3.68512 0
M  V30 1125 H 105.986 2.30818 -3.48013 0
M  V30 1126 N 106.423 1.57458 -0.0668435 0
M  V30 1127 C 107.834 1.80776 0.466558 0
M  V30 1128 C 108.185 0.980361 1.69951 0
M  V30 1129 O 107.31 0.201441 2.1546 0
M  V30 1130 C 107.905 3.27881 0.85321 0
M  V30 1131 C 106.464 3.52062 1.3315 0
M  V30 1132 C 105.611 2.75513 0.314264 0
M  V30 1133 H 108.562 1.5598 -0.292588 0
M  V30 1134 H 108.583 3.39659 1.715 0
M  V30 1135 H 108.095 3.88075 -0.0443439 0
M  V30 1136 H 106.196 2.97167 2.24772 0
M  V30 1137 H 106.309 4.60762 1.31285 0
M  V30 1138 H 104.673 2.42123 0.790492 0
M  V30 1139 H 105.456 3.38442 -0.575477 0
M  V30 1140 N 107.901 -0.206675 1.56239 0
M  V30 1141 C 109.149 -0.927007 1.79586 0
M  V30 1142 C 109.47 -1.8427 0.637929 0
M  V30 1143 O 108.74 -1.92849 -0.344398 0
M  V30 1144 H 107.32 -0.345292 0.662407 0
M  V30 1145 H 109.982 -0.21496 1.93711 0
M  V30 1146 H 109.078 -1.52501 2.72305 0
M  V30 1147 N 109.379 -1.50304 -0.473955 0
M  V30 1148 C 110.326 -1.68959 -1.57231 0
M  V30 1149 C 111.296 -0.530899 -1.57387 0
M  V30 1150 O 112.481 -0.761133 -1.74961 0
M  V30 1151 C 109.621 -1.7871 -2.95223 0
M  V30 1152 C 108.734 -3.06061 -3.04878 0
M  V30 1153 C 107.869 -3.06626 -4.33767 0
M  V30 1154 C 106.908 -4.28443 -4.37154 0
M  V30 1155 N 106.045 -4.26763 -5.5751 0
M  V30 1156 H 110.885 -2.6273 -1.40631 0
M  V30 1157 H 108.422 -1.30241 -0.683789 0
M  V30 1158 H 110.38 -1.82344 -3.75242 0
M  V30 1159 H 109.01 -0.883806 -3.10465 0
M  V30 1160 H 108.062 -3.11911 -2.17751 0
M  V30 1161 H 109.374 -3.96039 -3.0324 0
M  V30 1162 H 108.528 -3.08973 -5.22131 0
M  V30 1163 H 107.267 -2.14473 -4.3801 0
M  V30 1164 H 106.272 -4.2631 -3.47188 0
M  V30 1165 H 107.497 -5.2182 -4.34605 0
M  V30 1166 H 105.443 -3.37462 -5.62544 0
M  V30 1167 H 105.36 -5.10507 -5.57601 0
M  V30 1168 H 106.628 -4.33253 -6.48006 0
M  V30 1169 N 110.857 0.726932 -1.39834 0
M  V30 1170 C 112.134 1.47902 -1.28001 0
M  V30 1171 C 112.514 2.1083 0.106789 0
M  V30 1172 O 111.862 1.99242 1.11869 0
M  V30 1173 C 112.072 2.52392 -2.41038 0
M  V30 1174 C 113.42 3.18546 -2.80737 0
M  V30 1175 O 114.444 2.62708 -2.40547 0
M  V30 1176 O 113.303 4.19604 -3.50135 0
M  V30 1177 H 110.397 0.657163 -0.502062 0
M  V30 1178 H 112.943 0.760071 -1.51727 0
M  V30 1179 H 111.715 2.04329 -3.33715 0
M  V30 1180 H 111.338 3.31837 -2.19021 0
M  V30 1181 N 112.336 1.25143 0.95797 0
M  V30 1182 C 113.246 1.06968 2.08794 0
M  V30 1183 C 114.262 0.00773911 1.73998 0
M  V30 1184 O 115.438 0.207972 2.00323 0
M  V30 1185 C 112.503 0.68691 3.39827 0
M  V30 1186 C 111.564 1.82641 3.88511 0
M  V30 1187 C 110.797 1.46181 5.1329 0
M  V30 1188 O 111.02 0.355971 5.69288 0
M  V30 1189 O 109.954 2.29085 5.566 0
M  V30 1190 H 113.78 2.01723 2.27027 0
M  V30 1191 H 111.365 1.04051 1.07209 0
M  V30 1192 H 113.247 0.485417 4.18595 0
M  V30 1193 H 111.922 -0.231417 3.22872 0
M  V30 1194 H 110.829 2.08274 3.10762 0
M  V30 1195 H 112.162 2.72386 4.09959 0
M  V30 1196 N 113.814 -1.1601 1.06675 0
M  V30 1197 C 114.746 -2.20115 0.638921 0
M  V30 1198 C 115.759 -1.59916 -0.305057 0
M  V30 1199 O 116.948 -1.78245 -0.0954446 0
M  V30 1200 C 114.048 -3.38798 -0.0830083 0
M  V30 1201 C 113.221 -4.2855 0.875426 0
M  V30 1202 C 112.28 -5.25849 0.192042 0
M  V30 1203 O 111.306 -5.63102 0.830921 0
M  V30 1204 N 112.508 -5.70648 -1.06493 0
M  V30 1205 H 115.273 -2.57439 1.53444 0
M  V30 1206 H 112.834 -1.31057 0.950557 0
M  V30 1207 H 114.826 -4.00936 -0.550685 0
M  V30 1208 H 113.396 -2.99947 -0.880386 0
M  V30 1209 H 112.616 -3.63617 1.52238 0
M  V30 1210 H 113.904 -4.85393 1.52548 0
M  V30 1211 H 113.302 -5.42482 -1.60405 0
M  V30 1212 H 111.859 -6.34859 -1.47641 0
M  V30 1213 N 115.292 -0.849877 -1.32721 0
M  V30 1214 C 116.538 -0.451591 -1.97708 0
M  V30 1215 C 116.871 0.989175 -1.6712 0
M  V30 1216 O 116.146 1.69334 -0.956891 0
M  V30 1217 C 116.429 -0.685598 -3.53513 0
M  V30 1218 C 116.282 -2.17444 -3.93749 0
M  V30 1219 C 117.601 -0.138874 -4.39881 0
M  V30 1220 H 114.72 -0.16555 -0.718166 0
M  V30 1221 H 117.362 -1.06742 -1.57182 0
M  V30 1222 H 115.512 -0.161416 -3.88165 0
M  V30 1223 H 117.184 -2.76433 -3.693 0
M  V30 1224 H 115.427 -2.65476 -3.43081 0
M  V30 1225 H 116.098 -2.28888 -5.02309 0
M  V30 1226 H 118.574 -0.587068 -4.11938 0
M  V30 1227 H 117.45 -0.332213 -5.47894 0
M  V30 1228 H 117.711 0.95806 -4.31594 0
M  V30 1229 N 116.77 1.45427 -0.607355 0
M  V30 1230 C 118.181 1.85756 -0.187535 0
M  V30 1231 C 118.532 1.5077 1.25551 0
M  V30 1232 O 117.657 0.93427 1.95193 0
M  V30 1233 C 118.252 3.37154 -0.333572 0
M  V30 1234 C 116.811 3.76387 0.0315542 0
M  V30 1235 C 115.958 2.69377 -0.658117 0
M  V30 1236 H 118.909 1.36231 -0.81405 0
M  V30 1237 H 118.93 3.78014 0.43428 0
M  V30 1238 H 118.442 3.62586 -1.38393 0
M  V30 1239 H 116.543 3.56571 1.0811 0
M  V30 1240 H 116.656 4.77731 -0.361935 0
M  V30 1241 H 115.02 2.5452 -0.0957873 0
M  V30 1242 H 115.803 2.97646 -1.7106 0
M  V30 1243 N 118.248 0.346503 1.53744 0
M  V30 1244 C 119.497 -0.250122 2.00143 0
M  V30 1245 C 119.81 -1.51418 1.23822 0
M  V30 1246 O 121.016 -2.18823 1.60713 0
M  V30 1247 C 119.472 -0.496252 3.56462 0
M  V30 1248 C 119.08 0.752077 4.41642 0
M  V30 1249 C 120.824 -1.05157 4.11269 0
M  V30 1250 C 118.731 0.476583 5.89477 0
M  V30 1251 H 117.661 -0.0972409 0.747703 0
M  V30 1252 H 120.312 0.46229 1.77581 0
M  V30 1253 H 118.694 -1.26944 3.75102 0
M  V30 1254 H 119.868 1.5266 4.34778 0
M  V30 1255 H 118.183 1.22925 3.97842 0
M  V30 1256 H 120.78 -1.27269 5.19333 0
M  V30 1257 H 121.123 -2.00799 3.64672 0
M  V30 1258 H 121.656 -0.339019 3.96353 0
M  V30 1259 H 118.395 1.4028 6.40314 0
M  V30 1260 H 117.915 -0.259794 5.99237 0
M  V30 1261 H 119.594 0.0949315 6.4693 0
M  V30 1262 N 119.726 -1.57421 0.075193 0
M  V30 1263 C 121.142 -1.57099 -0.281444 0
M  V30 1264 C 121.342 -1.08486 -1.69803 0
M  V30 1265 O 120.398 -0.752279 -2.41033 0
M  V30 1266 C 121.711 -3.00571 -0.0880041 0
M  V30 1267 C 123.259 -3.12605 -0.157281 0
M  V30 1268 C 123.734 -4.57999 0.0079207 0
M  V30 1269 N 125.225 -4.63176 -0.0475725 0
M  V30 1270 C 125.96 -5.73373 0.0557876 0
M  V30 1271 N 125.456 -6.92473 0.21286 0
M  V30 1272 N 127.249 -5.621 -0.00152098 0
M  V30 1273 H 119.4 -1.87335 1.00098 0
M  V30 1274 H 121.663 -0.86377 0.390646 0
M  V30 1275 H 121.369 -3.40262 0.889629 0
M  V30 1276 H 121.243 -3.67754 -0.838875 0
M  V30 1277 H 123.63 -2.72798 -1.1254 0
M  V30 1278 H 123.711 -2.48053 0.62475 0
M  V30 1279 H 123.355 -4.98496 0.972824 0
M  V30 1280 H 123.285 -5.20586 -0.793556 0
M  V30 1281 H 125.776 -3.7753 -0.167244 0
M  V30 1282 H 126.089 -7.72279 0.283781 0
M  V30 1283 H 124.434 -6.94556 0.248267 0
M  V30 1284 H 127.625 -4.67938 -0.122958 0
M  V30 1285 H 127.798 -6.47948 0.0824844 0
M  V30 1286 N 121.204 0.198386 -1.56346 0
M  V30 1287 C 122.45 0.920648 -1.80698 0
M  V30 1288 C 122.783 1.83045 -0.648697 0
M  V30 1289 O 122.058 1.91308 0.350925 0
M  V30 1290 C 122.341 1.73971 -3.15287 0
M  V30 1291 C 122.194 0.85485 -4.41602 0
M  V30 1292 C 123.513 2.71296 -3.46535 0
M  V30 1293 H 120.632 0.333261 -0.657348 0
M  V30 1294 H 123.274 0.188198 -1.89066 0
M  V30 1295 H 121.424 2.36416 -3.08285 0
M  V30 1296 H 123.096 0.245362 -4.60647 0
M  V30 1297 H 121.339 0.161398 -4.335 0
M  V30 1298 H 122.01 1.46286 -5.32264 0
M  V30 1299 H 124.486 2.18983 -3.53816 0
M  V30 1300 H 123.362 3.2569 -4.41834 0
M  V30 1301 H 123.623 3.5018 -2.69864 0
M  V30 1302 N 122.682 1.50554 0.465978 0
M  V30 1303 C 123.928 1.62038 1.21949 0
M  V30 1304 C 124.261 0.322116 1.9151 0
M  V30 1305 O 123.536 -0.676723 1.82348 0
M  V30 1306 C 123.819 2.80421 2.25912 0
M  V30 1307 C 123.672 4.20144 1.60622 0
M  V30 1308 C 124.991 2.94354 3.27176 0
M  V30 1309 H 122.11 0.589752 0.441998 0
M  V30 1310 H 124.752 1.82956 0.51257 0
M  V30 1311 H 122.902 2.62717 2.86203 0
M  V30 1312 H 124.574 4.49449 1.03889 0
M  V30 1313 H 122.817 4.24165 0.909211 0
M  V30 1314 H 123.488 4.98914 2.36196 0
M  V30 1315 H 125.964 3.10578 2.76913 0
M  V30 1316 H 124.84 3.788 3.97242 0
M  V30 1317 H 125.101 2.05186 3.916 0
M  V30 1318 N 124.16 -0.719506 1.40217 0
M  V30 1319 C 125.092 -1.84428 1.36084 0
M  V30 1320 C 126.105 -1.60597 0.266913 0
M  V30 1321 O 127.294 -1.70544 0.526983 0
M  V30 1322 C 124.394 -3.20757 1.094 0
M  V30 1323 C 123.567 -3.71817 2.30372 0
M  V30 1324 C 122.626 -4.86748 1.99907 0
M  V30 1325 O 121.652 -4.99603 2.72737 0
M  V30 1326 N 122.854 -5.7226 0.974635 0
M  V30 1327 H 125.619 -1.88473 2.33019 0
M  V30 1328 H 123.18 -0.900885 1.3452 0
M  V30 1329 H 125.172 -3.95235 0.870116 0
M  V30 1330 H 123.742 -3.11884 0.211452 0
M  V30 1331 H 122.962 -2.88514 2.68614 0
M  V30 1332 H 124.25 -4.02666 3.11026 0
M  V30 1333 H 123.648 -5.6448 0.371368 0
M  V30 1334 H 122.205 -6.46739 0.810656 0
M  V30 1335 N 125.638 -1.25649 -0.95132 0
M  V30 1336 C 126.884 -1.10757 -1.69884 0
M  V30 1337 C 127.217 0.350061 -1.91019 0
M  V30 1338 O 126.492 1.25783 -1.48354 0
M  V30 1339 C 126.775 -1.86606 -3.07978 0
M  V30 1340 C 126.628 -3.40217 -2.94232 0
M  V30 1341 C 127.947 -1.65182 -4.07925 0
M  V30 1342 H 125.066 -0.40374 -0.616574 0
M  V30 1343 H 127.708 -1.54521 -1.10558 0
M  V30 1344 H 125.858 -1.49409 -3.58621 0
M  V30 1345 H 127.53 -3.87108 -2.50889 0
M  V30 1346 H 125.773 -3.67759 -2.30078 0
M  V30 1347 H 126.444 -3.88505 -3.92133 0
M  V30 1348 H 128.92 -1.9757 -3.66204 0
M  V30 1349 H 127.796 -2.20683 -5.02583 0
M  V30 1350 H 128.057 -0.593933 -4.38092 0
M  V30 1351 N 127.117 1.15442 -1.07289 0
M  V30 1352 C 128.047 2.22312 -0.714107 0
M  V30 1353 C 129.028 1.67467 0.298155 0
M  V30 1354 O 130.213 1.93445 0.171048 0
M  V30 1355 C 127.343 3.47124 -0.110448 0
M  V30 1356 C 126.297 4.14926 -1.04979 0
M  V30 1357 C 125.623 5.33807 -0.308924 0
M  V30 1358 C 126.923 4.64762 -2.38314 0
M  V30 1359 H 128.617 2.5258 -1.6076 0
M  V30 1360 H 126.163 1.21404 -0.77441 0
M  V30 1361 H 128.116 4.21124 0.152482 0
M  V30 1362 H 126.84 3.16187 0.81812 0
M  V30 1363 H 125.499 3.42866 -1.29764 0
M  V30 1364 H 125.147 4.99126 0.623084 0
M  V30 1365 H 124.847 5.80113 -0.935036 0
M  V30 1366 H 126.371 6.10576 -0.0537771 0
M  V30 1367 H 127.785 5.30292 -2.1786 0
M  V30 1368 H 126.182 5.21728 -2.96514 0
M  V30 1369 H 127.252 3.80434 -3.00663 0
M  V30 1370 N 128.595 0.856903 1.32268 0
M  V30 1371 C 129.843 0.460474 1.96784 0
M  V30 1372 C 130.164 -0.987701 1.68135 0
M  V30 1373 O 129.434 -1.69058 0.989765 0
M  V30 1374 H 128.014 0.167289 0.728027 0
M  V30 1375 H 130.676 1.09383 1.61312 0
M  V30 1376 H 129.772 0.60739 3.06133 0
M  V30 1377 N 130.073 -1.45103 0.615059 0
M  V30 1378 C 131.006 -2.27717 -0.148408 0
M  V30 1379 C 131.984 -1.37584 -0.866572 0
M  V30 1380 O 133.168 -1.67017 -0.87393 0
M  V30 1381 C 130.295 -3.16136 -1.21557 0
M  V30 1382 C 129.341 -4.22263 -0.599712 0
M  V30 1383 S 130.174 -5.3215 0.598081 0
M  V30 1384 C 131.33 -6.24137 -0.469484 0
M  V30 1385 H 131.563 -2.92121 0.552483 0
M  V30 1386 H 129.096 -1.49054 0.402778 0
M  V30 1387 H 131.054 -3.67633 -1.82638 0
M  V30 1388 H 129.715 -2.50982 -1.88857 0
M  V30 1389 H 128.908 -4.84081 -1.4029 0
M  V30 1390 H 128.51 -3.73945 -0.063876 0
M  V30 1391 H 130.802 -6.63984 -1.34652 0
M  V30 1392 H 131.745 -7.0801 0.112725 0
M  V30 1393 H 132.153 -5.58971 -0.788168 0
M  V30 1394 N 131.551 -0.354651 -1.53558 0
M  V30 1395 C 132.797 0.238797 -2.01389 0
M  V30 1396 C 133.13 1.49309 -1.2418 0
M  V30 1397 O 132.405 1.91638 -0.332457 0
M  V30 1398 C 132.688 0.541771 -3.56001 0
M  V30 1399 C 132.541 -0.725388 -4.43912 0
M  V30 1400 C 133.86 1.34685 -4.18984 0
M  V30 1401 H 130.979 0.0853177 -0.732045 0
M  V30 1402 H 133.621 -0.477384 -1.83905 0
M  V30 1403 H 131.771 1.15189 -3.71031 0
M  V30 1404 H 133.443 -1.36313 -4.407 0
M  V30 1405 H 131.686 -1.34801 -4.12324 0
M  V30 1406 H 132.357 -0.468505 -5.50008 0
M  V30 1407 H 134.833 0.830837 -4.07721 0
M  V30 1408 H 133.709 1.52759 -5.27215 0
M  V30 1409 H 133.97 2.35221 -3.74331 0
M  V30 1410 N 133.029 1.57378 -0.0835403 0
M  V30 1411 C 134.277 1.93547 0.581718 0
M  V30 1412 C 134.598 0.96524 1.69435 0
M  V30 1413 O 133.868 0.0153369 1.95894 0
M  V30 1414 H 132.448 0.714521 0.217874 0
M  V30 1415 H 135.11 1.94366 -0.144158 0
M  V30 1416 H 134.206 2.95665 0.999423 0
M  V30 1417 N 134.507 -0.190092 1.56449 0
M  V30 1418 C 135.735 -0.925772 1.85033 0
M  V30 1419 C 136.15 -1.76638 0.666658 0
M  V30 1420 O 135.507 -1.78822 -0.364565 0
M  V30 1421 C 135.558 -1.81786 3.12468 0
M  V30 1422 O 135.279 -1.01118 4.26271 0
M  V30 1423 C 136.78 -2.6648 3.54265 0
M  V30 1424 H 134 -0.269872 0.614337 0
M  V30 1425 H 136.544 -0.195837 2.0356 0
M  V30 1426 H 134.699 -2.50136 2.95822 0
M  V30 1427 H 135.113 -1.61956 4.98869 0
M  V30 1428 H 136.587 -3.24722 4.46385 0
M  V30 1429 H 137.064 -3.40434 2.77491 0
M  V30 1430 H 137.67 -2.03493 3.73458 0
M  V30 1431 N 135.985 -1.50799 -0.457987 0
M  V30 1432 C 136.948 -1.7005 -1.53674 0
M  V30 1433 C 137.948 -0.570881 -1.50325 0
M  V30 1434 O 139.138 -0.838126 -1.52712 0
M  V30 1435 C 136.27 -1.73788 -2.93276 0
M  V30 1436 H 137.463 -2.66306 -1.37917 0
M  V30 1437 H 135.016 -1.40477 -0.685271 0
M  V30 1438 H 135.751 -0.792717 -3.14462 0
M  V30 1439 H 135.536 -2.55864 -2.97113 0
M  V30 1440 H 137.026 -1.90591 -3.71571 0
M  V30 1441 N 137.463 0.71206 -1.40597 0
M  V30 1442 C 138.393 1.83889 -1.43899 0
M  V30 1443 C 139.374 1.67442 -0.299504 0
M  V30 1444 O 140.559 1.87421 -0.508624 0
M  V30 1445 C 137.689 3.21877 -1.30431 0
M  V30 1446 C 136.643 3.53002 -2.42019 0
M  V30 1447 C 135.969 4.90172 -2.13626 0
M  V30 1448 C 137.269 3.53643 -3.84362 0
M  V30 1449 H 138.963 1.81383 -2.38203 0
M  V30 1450 H 136.509 0.871237 -1.14654 0
M  V30 1451 H 138.462 4.00404 -1.31357 0
M  V30 1452 H 137.186 3.24968 -0.326049 0
M  V30 1453 H 135.845 2.76818 -2.40349 0
M  V30 1454 H 135.493 4.89869 -1.14182 0
M  V30 1455 H 135.193 5.11962 -2.88389 0
M  V30 1456 H 136.717 5.71028 -2.1624 0
M  V30 1457 H 138.131 4.22203 -3.87837 0
M  V30 1458 H 136.528 3.86961 -4.58673 0
M  V30 1459 H 137.598 2.52954 -4.13693 0
M  V30 1460 N 138.941 1.26152 0.944643 0
M  V30 1461 C 139.871 1.09902 2.06019 0
M  V30 1462 C 140.852 0.00519538 1.70099 0
M  V30 1463 O 142.037 0.176583 1.93396 0
M  V30 1464 C 139.167 0.727562 3.39594 0
M  V30 1465 C 138.121 1.77274 3.89561 0
M  V30 1466 C 137.447 1.25569 5.19747 0
M  V30 1467 C 138.747 3.17357 4.14827 0
M  V30 1468 H 140.441 2.03217 2.19871 0
M  V30 1469 H 137.987 0.978452 1.05652 0
M  V30 1470 H 139.94 0.600777 4.17095 0
M  V30 1471 H 138.664 -0.241287 3.25707 0
M  V30 1472 H 137.323 1.88814 3.14237 0
M  V30 1473 H 136.971 0.276783 5.02238 0
M  V30 1474 H 136.671 1.95433 5.54148 0
M  V30 1475 H 138.195 1.1415 5.99835 0
M  V30 1476 H 139.609 3.08914 4.82954 0
M  V30 1477 H 138.006 3.84781 4.60504 0
M  V30 1478 H 139.076 3.63673 3.20734 0
M  V30 1479 N 140.419 -1.14872 1.07899 0
M  V30 1480 C 141.382 -2.17986 0.708161 0
M  V30 1481 C 142.382 -1.58775 -0.25442 0
M  V30 1482 O 143.572 -1.74166 -0.034645 0
M  V30 1483 C 140.704 -3.40871 0.0446929 0
M  V30 1484 H 141.897 -2.52306 1.62116 0
M  V30 1485 H 139.45 -1.2943 0.876218 0
M  V30 1486 H 140.185 -3.12124 -0.880281 0
M  V30 1487 H 139.97 -3.8511 0.737091 0
M  V30 1488 H 141.46 -4.17121 -0.19991 0
M  V30 1489 N 141.898 -0.863906 -1.31812 0
M  V30 1490 C 143.123 -0.48527 -2.01643 0
M  V30 1491 C 143.548 0.913058 -1.64453 0
M  V30 1492 O 142.906 1.6014 -0.849985 0
M  V30 1493 C 142.954 -0.642625 -3.54828 0
M  V30 1494 O 142.058 0.320659 -4.11151 0
M  V30 1495 H 141.399 -0.193793 -0.635091 0
M  V30 1496 H 143.929 -1.16565 -1.68148 0
M  V30 1497 H 143.939 -0.533628 -4.04495 0
M  V30 1498 H 142.614 -1.66227 -3.81237 0
M  V30 1499 H 141.191 0.167126 -3.72525 0
M  V30 1500 N 143.376 1.44774 -0.622745 0
M  V30 1501 C 144.306 2.33382 0.0741861 0
M  V30 1502 C 145.287 1.47719 0.843387 0
M  V30 1503 O 146.472 1.76458 0.810934 0
M  V30 1504 C 143.602 3.30663 1.06204 0
M  V30 1505 C 142.556 4.26079 0.405037 0
M  V30 1506 C 141.882 5.13165 1.5022 0
M  V30 1507 C 143.182 5.1781 -0.683414 0
M  V30 1508 H 144.876 2.91905 -0.665713 0
M  V30 1509 H 142.422 1.40363 -0.321587 0
M  V30 1510 H 144.375 3.9153 1.55827 0
M  V30 1511 H 143.099 2.70331 1.83272 0
M  V30 1512 H 141.758 3.66532 -0.0704683 0
M  V30 1513 H 141.406 4.49191 2.26355 0
M  V30 1514 H 141.106 5.77812 1.06803 0
M  V30 1515 H 142.63 5.76902 2.00041 0
M  V30 1516 H 144.044 5.72661 -0.270631 0
M  V30 1517 H 142.441 5.91015 -1.04023 0
M  V30 1518 H 143.511 4.59326 -1.55395 0
M  V30 1519 N 144.854 0.36279 1.53368 0
M  V30 1520 C 146.1 -0.220702 2.02199 0
M  V30 1521 C 146.455 -1.46649 1.24546 0
M  V30 1522 O 145.748 -1.88737 0.32996 0
M  V30 1523 C 145.942 -0.568417 3.52851 0
M  V30 1524 C 145.771 0.642126 4.45092 0
M  V30 1525 C 144.541 1.15335 4.91961 0
M  V30 1526 C 146.739 1.50649 4.91741 0
M  V30 1527 N 144.721 2.3242 5.68202 0
M  V30 1528 C 146.092 2.52404 5.66297 0
M  V30 1529 C 148.147 1.52969 4.73819 0
M  V30 1530 C 146.85 3.56331 6.24836 0
M  V30 1531 C 148.876 2.55789 5.33222 0
M  V30 1532 C 148.238 3.56268 6.07662 0
M  V30 1533 H 144.337 -0.0435508 0.780786 0
M  V30 1534 H 146.921 0.506704 1.87991 0
M  V30 1535 H 145.092 -1.2649 3.67226 0
M  V30 1536 H 146.824 -1.13676 3.88407 0
M  V30 1537 H 143.579 0.718412 4.68119 0
M  V30 1538 H 144.003 2.91591 6.10986 0
M  V30 1539 H 148.645 0.766418 4.15795 0
M  V30 1540 H 146.363 4.33543 6.81958 0
M  V30 1541 H 149.949 2.58435 5.21251 0
M  V30 1542 H 148.829 4.34524 6.52808 0
M  V30 1543 N 146.332 -1.57332 0.0918853 0
M  V30 1544 C 147.282 -2.10385 -0.87876 0
M  V30 1545 C 148.266 -1.01814 -1.24591 0
M  V30 1546 O 149.458 -1.28093 -1.22152 0
M  V30 1547 C 146.587 -2.68517 -2.13901 0
M  V30 1548 C 145.673 -3.84126 -1.79744 0
M  V30 1549 N 146.064 -4.92288 -1.1613 0
M  V30 1550 C 144.362 -3.93801 -2.09373 0
M  V30 1551 C 145.063 -5.7295 -1.00513 0
M  V30 1552 N 144.039 -5.21876 -1.5214 0
M  V30 1553 H 147.841 -2.91395 -0.38293 0
M  V30 1554 H 145.355 -1.62017 -0.111423 0
M  V30 1555 H 147.352 -3.04852 -2.84378 0
M  V30 1556 H 146.012 -1.88961 -2.64053 0
M  V30 1557 H 147.023 -5.1123 -0.828504 0
M  V30 1558 H 143.7 -3.25249 -2.61762 0
M  V30 1559 H 145.09 -6.69978 -0.507902 0
M  V30 1560 N 147.81 0.181792 -1.56548 0
M  V30 1561 C 148.76 1.22961 -1.92002 0
M  V30 1562 C 149.744 1.40331 -0.787146 0
M  V30 1563 O 150.936 1.42478 -1.05019 0
M  V30 1564 C 148.065 2.57144 -2.27446 0
M  V30 1565 C 147.151 2.43512 -3.47222 0
M  V30 1566 N 147.542 1.99577 -4.64761 0
M  V30 1567 C 145.84 2.74368 -3.51622 0
M  V30 1568 C 146.541 1.98156 -5.46909 0
M  V30 1569 N 145.517 2.40164 -4.8767 0
M  V30 1570 H 149.319 0.881462 -2.8037 0
M  V30 1571 H 146.833 0.390141 -1.57644 0
M  V30 1572 H 148.83 3.32847 -2.51035 0
M  V30 1573 H 147.49 2.92771 -1.40411 0
M  V30 1574 H 148.501 1.70078 -4.89177 0
M  V30 1575 H 145.178 3.14102 -2.75038 0
M  V30 1576 H 146.568 1.65975 -6.51077 0
M  V30 1577 N 149.288 1.51039 0.449983 0
M  V30 1578 C 150.534 1.63322 1.20223 0
M  V30 1579 C 150.867 0.34241 1.91158 0
M  V30 1580 O 150.142 -0.657344 1.83055 0
M  V30 1581 C 150.425 2.82801 2.22925 0
M  V30 1582 C 150.278 4.21823 1.56157 0
M  V30 1583 C 151.597 2.97807 3.24035 0
M  V30 1584 H 148.716 0.594407 0.435718 0
M  V30 1585 H 151.358 1.83489 0.493136 0
M  V30 1586 H 149.508 2.65738 2.834 0
M  V30 1587 H 151.18 4.50526 0.991162 0
M  V30 1588 H 149.423 4.25105 0.864172 0
M  V30 1589 H 150.094 5.01391 2.30891 0
M  V30 1590 H 152.57 3.13497 2.73603 0
M  V30 1591 H 151.446 3.82992 3.93202 0
M  V30 1592 H 151.707 2.09328 3.89402 0
M  V30 1593 N 150.766 -0.704594 1.40972 0
M  V30 1594 C 151.729 -1.80035 1.41845 0
M  V30 1595 C 152.729 -1.57774 0.310474 0
M  V30 1596 O 153.919 -1.64613 0.56992 0
M  V30 1597 C 151.051 -3.18284 1.22098 0
M  V30 1598 H 152.244 -1.80658 2.3938 0
M  V30 1599 H 149.797 -0.911329 1.26982 0
M  V30 1600 H 150.532 -3.23306 0.253672 0
M  V30 1601 H 150.317 -3.35843 2.02366 0
M  V30 1602 H 151.807 -3.98289 1.25522 0
M  V30 1603 N 152.244 -1.26651 -0.937939 0
M  V30 1604 C 153.655 -1.1125 -1.49934 0
M  V30 1605 C 154.006 0.306077 -1.93798 0
M  V30 1606 O 153.131 1.19792 -1.80219 0
M  V30 1607 C 153.726 -2.01339 -2.72485 0
M  V30 1608 C 152.285 -1.90074 -3.24883 0
M  V30 1609 C 151.432 -1.94498 -1.97651 0
M  V30 1610 H 154.383 -1.39693 -0.753091 0
M  V30 1611 H 154.404 -1.56319 -3.46907 0
M  V30 1612 H 153.916 -3.04577 -2.40529 0
M  V30 1613 H 152.017 -0.897827 -3.61621 0
M  V30 1614 H 152.13 -2.75778 -3.9177 0
M  V30 1615 H 150.494 -1.38591 -2.13693 0
M  V30 1616 H 151.277 -2.99372 -1.68022 0
M  V30 1617 N 153.722 1.14298 -1.08507 0
M  V30 1618 C 154.968 1.85633 -0.816581 0
M  V30 1619 C 155.301 1.82784 0.656021 0
M  V30 1620 O 154.576 1.25926 1.48233 0
M  V30 1621 C 154.859 3.34223 -1.34041 0
M  V30 1622 C 154.712 3.45639 -2.87843 0
M  V30 1623 C 156.031 4.29356 -0.9665 0
M  V30 1624 H 153.15 0.67402 -0.298104 0
M  V30 1625 H 155.792 1.34214 -1.34487 0
M  V30 1626 H 153.942 3.78144 -0.89104 0
M  V30 1627 H 155.614 3.10498 -3.41158 0
M  V30 1628 H 153.857 2.86817 -3.25451 0
M  V30 1629 H 154.528 4.50089 -3.19569 0
M  V30 1630 H 157.004 3.93457 -1.35391 0
M  V30 1631 H 155.88 5.3178 -1.3602 0
M  V30 1632 H 156.141 4.41919 0.126362 0
M  V30 1633 N 155.201 0.870884 1.31352 0
M  V30 1634 C 156.164 0.332243 2.26779 0
M  V30 1635 C 157.164 -0.517302 1.52252 0
M  V30 1636 O 158.354 -0.326477 1.71113 0
M  V30 1637 C 155.486 -0.528066 3.36785 0
M  V30 1638 H 156.679 1.17469 2.75937 0
M  V30 1639 H 154.232 0.64655 1.423 0
M  V30 1640 H 154.967 -1.39167 2.92922 0
M  V30 1641 H 154.752 0.0802582 3.92018 0
M  V30 1642 H 156.242 -0.897179 4.07849 0
M  V30 1643 N 156.679 -1.44442 0.630414 0
M  V30 1644 C 157.927 -2.01653 0.134351 0
M  V30 1645 C 158.248 -1.49836 -1.24796 0
M  V30 1646 O 157.518 -0.701684 -1.82902 0
M  V30 1647 H 156.098 -0.74554 0.0466769 0
M  V30 1648 H 158.76 -1.76952 0.816955 0
M  V30 1649 H 157.856 -3.11935 0.101498 0
M  V30 1650 N 158.157 -0.370918 -1.53173 0
M  V30 1651 C 159.089 0.507823 -2.23503 0
M  V30 1652 C 160.102 1.04182 -1.251 0
M  V30 1653 O 161.291 0.947286 -1.5129 0
M  V30 1654 C 158.391 1.71447 -2.92334 0
M  V30 1655 C 157.564 1.31105 -4.17289 0
M  V30 1656 C 156.623 2.38035 -4.69282 0
M  V30 1657 O 155.649 2.00204 -5.32829 0
M  V30 1658 N 156.851 3.69697 -4.47554 0
M  V30 1659 H 159.616 -0.0946382 -2.99551 0
M  V30 1660 H 157.177 -0.196358 -1.60705 0
M  V30 1661 H 159.169 2.42469 -3.24023 0
M  V30 1662 H 157.739 2.22368 -2.19707 0
M  V30 1663 H 156.959 0.430462 -3.91843 0
M  V30 1664 H 158.247 1.0179 -4.98514 0
M  V30 1665 H 157.645 4.03205 -3.9679 0
M  V30 1666 H 156.202 4.36807 -4.8378 0
M  V30 1667 N 159.635 1.57281 -0.100228 0
M  V30 1668 C 160.565 2.17328 0.853857 0
M  V30 1669 C 161.546 1.10804 1.2906 0
M  V30 1670 O 162.731 1.38963 1.35657 0
M  V30 1671 C 159.861 2.75772 2.11109 0
M  V30 1672 C 158.815 3.87713 1.81279 0
M  V30 1673 C 158.141 4.32882 3.13874 0
M  V30 1674 C 159.441 5.10677 1.09574 0
M  V30 1675 H 161.135 2.97305 0.353545 0
M  V30 1676 H 158.681 1.43009 0.168612 0
M  V30 1677 H 160.634 3.16433 2.78296 0
M  V30 1678 H 159.358 1.93057 2.63432 0
M  V30 1679 H 158.017 3.476 1.16489 0
M  V30 1680 H 157.665 3.47051 3.64095 0
M  V30 1681 H 157.365 5.08358 2.94696 0
M  V30 1682 H 158.889 4.7618 3.82211 0
M  V30 1683 H 160.303 5.48474 1.66879 0
M  V30 1684 H 158.7 5.91615 1.00557 0
M  V30 1685 H 159.77 4.84835 0.0793299 0
M  V30 1686 N 161.113 -0.173488 1.56642 0
M  V30 1687 C 162.063 -1.21941 1.92651 0
M  V30 1688 C 163.047 -1.39912 0.794577 0
M  V30 1689 O 164.239 -1.41919 1.05773 0
M  V30 1690 C 161.368 -2.55935 2.28806 0
M  V30 1691 C 160.454 -2.41667 3.48508 0
M  V30 1692 N 160.845 -1.9711 4.65813 0
M  V30 1693 C 159.143 -2.72499 3.53072 0
M  V30 1694 C 159.844 -1.95253 5.47952 0
M  V30 1695 N 158.82 -2.37575 4.88937 0
M  V30 1696 H 162.622 -0.866581 2.80834 0
M  V30 1697 H 160.136 -0.381776 1.57849 0
M  V30 1698 H 162.133 -3.31511 2.52797 0
M  V30 1699 H 160.793 -2.92022 1.41961 0
M  V30 1700 H 161.804 -1.67481 4.90072 0
M  V30 1701 H 158.481 -3.12639 2.767 0
M  V30 1702 H 159.871 -1.6252 6.51948 0
M  V30 1703 N 162.591 -1.51276 -0.441967 0
M  V30 1704 C 163.816 -1.67799 -1.21895 0
M  V30 1705 C 164.241 -0.372864 -1.84367 0
M  V30 1706 O 163.599 0.666501 -1.68604 0
M  V30 1707 C 163.647 -2.79199 -2.28211 0
M  V30 1708 O 162.751 -2.42479 -3.33583 0
M  V30 1709 H 162.092 -0.559649 -0.357336 0
M  V30 1710 H 164.622 -1.97815 -0.522522 0
M  V30 1711 H 164.632 -3.03146 -2.73069 0
M  V30 1712 H 163.307 -3.73906 -1.82118 0
M  V30 1713 H 161.884 -2.29087 -2.94234 0
M  V30 1714 N 164.069 0.697108 -1.41344 0
M  V30 1715 C 165.315 1.4593 -1.40827 0
M  V30 1716 C 165.648 1.94193 -0.0167098 0
M  V30 1717 O 164.923 1.69425 0.955263 0
M  V30 1718 C 165.206 2.67229 -2.41373 0
M  V30 1719 C 165.059 2.24741 -3.8963 0
M  V30 1720 C 166.378 3.69423 -2.39196 0
M  V30 1721 H 163.497 0.529303 -0.512842 0
M  V30 1722 H 166.139 0.794112 -1.72609 0
M  V30 1723 H 164.289 3.23982 -2.14401 0
M  V30 1724 H 165.961 1.73327 -4.27499 0
M  V30 1725 H 164.204 1.56542 -4.0457 0
M  V30 1726 H 164.875 3.1177 -4.55525 0
M  V30 1727 H 167.351 3.2234 -2.63128 0
M  V30 1728 H 166.227 4.51907 -3.11563 0
M  V30 1729 H 166.488 4.19012 -1.41001 0
M  V30 1730 N 165.547 1.27147 0.931209 0
M  V30 1731 C 166.51 1.09615 2.01289 0
M  V30 1732 C 167.51 0.0412581 1.60747 0
M  V30 1733 O 168.7 0.285545 1.71844 0
M  V30 1734 C 165.832 0.669447 3.34262 0
M  V30 1735 H 167.025 2.05662 2.18273 0
M  V30 1736 H 164.578 1.09885 1.11153 0
M  V30 1737 H 165.313 -0.292572 3.22978 0
M  V30 1738 H 165.098 1.43127 3.65044 0
M  V30 1739 H 166.588 0.568921 4.13706 0
M  V30 1740 N 167.025 -1.13721 1.09112 0
M  V30 1741 C 168.272 -1.84924 0.825192 0
M  V30 1742 C 168.6 -1.83347 -0.649151 0
M  V30 1743 O 167.855 -1.26449 -1.49362 0
M  V30 1744 C 168.154 -3.32861 1.30146 0
M  V30 1745 C 167.82 -3.54621 2.78486 0
M  V30 1746 C 166.482 -3.60268 3.18999 0
M  V30 1747 C 168.834 -3.62855 3.74146 0
M  V30 1748 C 166.162 -3.71679 4.53951 0
M  V30 1749 C 168.514 -3.75793 5.08883 0
M  V30 1750 C 167.178 -3.79692 5.4899 0
M  V30 1751 H 166.448 -0.676684 0.301959 0
M  V30 1752 H 169.095 -1.3428 1.36533 0
M  V30 1753 H 167.4 -3.85835 0.681064 0
M  V30 1754 H 169.097 -3.86395 1.07236 0
M  V30 1755 H 165.687 -3.50879 2.46134 0
M  V30 1756 H 169.871 -3.57775 3.43963 0
M  V30 1757 H 165.127 -3.72963 4.84467 0
M  V30 1758 H 169.301 -3.81107 5.82864 0
M  V30 1759 H 166.928 -3.88287 6.53558 0
M  V30 1760 N 168.503 -0.877838 -1.30888 0
M  V30 1761 C 169.433 -0.35534 -2.3078 0
M  V30 1762 C 170.414 0.557994 -1.60687 0
M  V30 1763 O 171.599 0.473355 -1.88343 0
M  V30 1764 C 168.729 0.437221 -3.44537 0
M  V30 1765 C 167.683 -0.383715 -4.26276 0
M  V30 1766 C 167.009 0.535014 -5.32017 0
M  V30 1767 C 168.309 -1.62201 -4.96476 0
M  V30 1768 H 170.003 -1.19007 -2.74732 0
M  V30 1769 H 167.549 -0.573698 -1.32078 0
M  V30 1770 H 169.502 0.813334 -4.13477 0
M  V30 1771 H 168.226 1.30553 -2.99372 0
M  V30 1772 H 166.885 -0.741874 -3.59015 0
M  V30 1773 H 166.533 1.40083 -4.831 0
M  V30 1774 H 166.233 -0.0104211 -5.87599 0
M  V30 1775 H 167.757 0.907799 -6.03814 0
M  V30 1776 H 169.171 -1.31689 -5.5797 0
M  V30 1777 H 167.568 -2.10711 -5.61891 0
M  V30 1778 H 168.638 -2.37044 -4.23011 0
M  V30 1779 N 169.982 1.44106 -0.638065 0
M  V30 1780 C 170.945 2.29138 0.0531013 0
M  V30 1781 C 171.945 1.41409 0.765506 0
M  V30 1782 O 173.135 1.63206 0.609046 0
M  V30 1783 C 170.267 3.23144 1.08584 0
M  V30 1784 H 171.46 2.91739 -0.694883 0
M  V30 1785 H 169.013 1.51134 -0.398538 0
M  V30 1786 H 169.748 2.65408 1.86357 0
M  V30 1787 H 169.533 3.87804 0.578852 0
M  V30 1788 H 171.023 3.87004 1.56899 0
M  V30 1789 N 171.46 0.379036 1.52974 0
M  V30 1790 C 172.39 -0.452706 2.29069 0
M  V30 1791 C 173.371 -1.07237 1.32039 0
M  V30 1792 O 174.556 -1.08708 1.60923 0
M  V30 1793 C 171.686 -1.5856 3.08992 0
M  V30 1794 C 170.64 -1.0925 4.13822 0
M  V30 1795 C 169.966 -2.31668 4.81907 0
M  V30 1796 C 171.266 -0.167702 5.22031 0
M  V30 1797 H 172.96 0.182181 2.98845 0
M  V30 1798 H 170.506 0.0890592 1.43724 0
M  V30 1799 H 172.459 -2.1742 3.6098 0
M  V30 1800 H 171.183 -2.24792 2.36931 0
M  V30 1801 H 169.842 -0.526494 3.628 0
M  V30 1802 H 169.49 -2.96386 4.06404 0
M  V30 1803 H 169.19 -1.9934 5.52754 0
M  V30 1804 H 170.714 -2.91189 5.36695 0
M  V30 1805 H 172.128 -0.664186 5.6944 0
M  V30 1806 H 170.525 0.0653265 6.00064 0
M  V30 1807 H 171.595 0.786347 4.78482 0
M  V30 1808 N 172.938 -1.57226 0.108567 0
M  V30 1809 C 173.901 -2.13602 -0.831082 0
M  V30 1810 C 174.901 -1.06841 -1.20173 0
M  V30 1811 O 176.091 -1.32666 -1.12895 0
M  V30 1812 C 173.223 -2.66769 -2.12243 0
M  V30 1813 H 174.416 -2.97951 -0.341317 0
M  V30 1814 H 171.969 -1.55667 -0.14057 0
M  V30 1815 H 172.704 -1.85977 -2.65675 0
M  V30 1816 H 172.489 -3.44839 -1.86625 0
M  V30 1817 H 173.979 -3.10332 -2.79435 0
M  V30 1818 N 174.416 0.165178 -1.56732 0
M  V30 1819 C 175.663 0.880807 -1.8234 0
M  V30 1820 C 175.991 1.81977 -0.686621 0
M  V30 1821 O 175.246 1.92971 0.325697 0
M  V30 1822 C 175.545 1.70405 -3.1416 0
M  V30 1823 C 175.211 0.913475 -4.4155 0
M  V30 1824 C 173.873 0.695303 -4.7615 0
M  V30 1825 C 176.225 0.359349 -5.1996 0
M  V30 1826 C 173.553 -0.0879947 -5.86634 0
M  V30 1827 C 175.905 -0.410893 -6.31264 0
M  V30 1828 C 174.569 -0.639808 -6.64427 0
M  V30 1829 H 173.839 0.32231 -0.667231 0
M  V30 1830 H 176.486 0.145402 -1.90947 0
M  V30 1831 H 174.791 2.50903 -3.00923 0
M  V30 1832 H 176.488 2.26091 -3.31186 0
M  V30 1833 H 173.078 1.09357 -4.14414 0
M  V30 1834 H 177.262 0.515228 -4.93618 0
M  V30 1835 H 172.518 -0.27503 -6.10781 0
M  V30 1836 H 176.692 -0.847494 -6.91224 0
M  V30 1837 H 174.319 -1.24864 -7.49875 0
M  V30 1838 N 175.894 1.51508 0.433938 0
M  V30 1839 C 177.14 1.64588 1.18484 0
M  V30 1840 C 177.473 0.362666 1.90784 0
M  V30 1841 O 176.748 -0.637892 1.83742 0
M  V30 1842 C 177.031 2.85149 2.19913 0
M  V30 1843 C 176.884 4.23456 1.51674 0
M  V30 1844 C 178.203 3.01227 3.20858 0
M  V30 1845 H 175.322 0.598994 0.429389 0
M  V30 1846 H 177.964 1.84002 0.473647 0
M  V30 1847 H 176.114 2.68729 2.80566 0
M  V30 1848 H 177.786 4.51552 0.943322 0
M  V30 1849 H 176.029 4.25998 0.819035 0
M  V30 1850 H 176.7 5.03812 2.2556 0
M  V30 1851 H 179.176 3.16382 2.70263 0
M  V30 1852 H 178.052 3.87141 3.89118 0
M  V30 1853 H 178.313 2.13447 3.8716 0
M  V30 1854 N 177.372 -0.689602 1.41712 0
M  V30 1855 C 178.302 -1.81577 1.46806 0
M  V30 1856 C 179.283 -1.66945 0.326105 0
M  V30 1857 O 180.468 -1.86588 0.538377 0
M  V30 1858 C 177.598 -3.19762 1.35535 0
M  V30 1859 C 176.552 -3.49107 2.47605 0
M  V30 1860 C 175.878 -4.86711 2.21397 0
M  V30 1861 C 177.178 -3.47483 3.89939 0
M  V30 1862 H 178.872 -1.7757 2.41058 0
M  V30 1863 H 176.418 -0.852887 1.16025 0
M  V30 1864 H 178.371 -3.98263 1.3771 0
M  V30 1865 H 177.095 -3.24409 0.377708 0
M  V30 1866 H 175.754 -2.72959 2.44722 0
M  V30 1867 H 175.402 -4.8799 1.21961 0
M  V30 1868 H 175.102 -5.0731 2.96497 0
M  V30 1869 H 176.626 -5.67515 2.25297 0
M  V30 1870 H 178.04 -4.1598 3.94505 0
M  V30 1871 H 176.437 -3.79615 4.64771 0
M  V30 1872 H 177.507 -2.46341 4.17665 0
M  V30 1873 N 178.85 -1.27639 -0.924453 0
M  V30 1874 C 179.813 -1.10681 -2.00705 0
M  V30 1875 C 180.813 -0.0497823 -1.60723 0
M  V30 1876 O 182.003 -0.294654 -1.7169 0
M  V30 1877 C 179.135 -0.687164 -3.33902 0
M  V30 1878 H 180.328 -2.06817 -2.17179 0
M  V30 1879 H 177.881 -1.10473 -1.10569 0
M  V30 1880 H 178.616 0.275439 -3.23128 0
M  V30 1881 H 178.401 -1.45061 -3.6428 0
M  V30 1882 H 179.891 -0.590853 -4.13399 0
M  V30 1883 N 180.328 1.1314 -1.09713 0
M  V30 1884 C 181.258 2.20748 -0.761102 0
M  V30 1885 C 182.239 1.68061 0.262566 0
M  V30 1886 O 183.424 1.93765 0.129977 0
M  V30 1887 C 180.554 3.46812 -0.184054 0
M  V30 1888 C 179.508 4.12606 -1.13757 0
M  V30 1889 C 178.834 5.33031 -0.422083 0
M  V30 1890 C 180.134 4.59603 -2.48118 0
M  V30 1891 H 181.828 2.49113 -1.66082 0
M  V30 1892 H 179.374 1.19734 -0.799987 0
M  V30 1893 H 181.327 4.21353 0.0631215 0
M  V30 1894 H 180.051 3.17851 0.750868 0
M  V30 1895 H 178.71 3.40036 -1.37007 0
M  V30 1896 H 178.358 5.00335 0.517072 0
M  V30 1897 H 178.058 5.77999 -1.05788 0
M  V30 1898 H 179.582 6.10325 -0.183277 0
M  V30 1899 H 180.996 5.25552 -2.29059 0
M  V30 1900 H 179.393 5.15321 -3.07514 0
M  V30 1901 H 180.463 3.73971 -3.08665 0
M  V30 1902 N 181.806 0.884767 1.30421 0
M  V30 1903 C 182.769 0.356277 2.26414 0
M  V30 1904 C 183.769 -0.501124 1.52792 0
M  V30 1905 O 184.959 -0.30831 1.7145 0
M  V30 1906 C 182.091 -0.492316 3.37326 0
M  V30 1907 H 183.284 1.20389 2.74675 0
M  V30 1908 H 180.837 0.661607 1.41607 0
M  V30 1909 H 181.572 -1.36052 2.94381 0
M  V30 1910 H 181.357 0.121832 3.91911 0
M  V30 1911 H 182.847 -0.853871 4.08777 0
M  V30 1912 N 183.284 -1.43765 0.645699 0
M  V30 1913 C 184.524 -2.03776 0.159542 0
M  V30 1914 C 184.888 -1.49792 -1.2011 0
M  V30 1915 O 186.089 -2.01398 -1.78023 0
M  V30 1916 C 184.36 -3.57036 0.161251 0
M  V30 1917 S 185.919 -4.3804 -0.258159 0
M  V30 1918 H 182.737 -0.707717 0.0682454 0
M  V30 1919 H 185.339 -1.75941 0.852352 0
M  V30 1920 H 184.043 -3.9383 1.15439 0
M  V30 1921 H 183.574 -3.89503 -0.552339 0
M  V30 1922 H 185.589 -4.7302 -1.49889 0
M  V30 1923 N 184.763 -0.387143 -1.52771 0
M  V30 1924 C 186.003 0.195537 -2.03463 0
M  V30 1925 C 186.367 1.44222 -1.26744 0
M  V30 1926 O 187.568 2.10192 -1.67549 0
M  V30 1927 C 185.839 0.459097 -3.54439 0
M  V30 1928 S 187.398 1.01237 -4.26962 0
M  V30 1929 H 184.216 0.0552675 -0.708849 0
M  V30 1930 H 186.818 -0.534992 -1.88037 0
M  V30 1931 H 185.522 -0.455382 -4.07866 0
M  V30 1932 H 185.053 1.21811 -3.74066 0
M  V30 1933 H 187.068 2.29492 -4.39941 0
M  V30 1934 N 186.241 1.57166 -0.116904 0
M  V30 1935 C 187.204 2.14039 0.819742 0
M  V30 1936 C 188.204 1.07477 1.19605 0
M  V30 1937 O 189.394 1.33263 1.1219 0
M  V30 1938 C 186.526 2.67891 2.10826 0
M  V30 1939 H 187.719 2.98128 0.325511 0
M  V30 1940 H 185.272 1.55739 0.132312 0
M  V30 1941 H 186.007 1.87384 2.64685 0
M  V30 1942 H 185.792 3.45823 1.84793 0
M  V30 1943 H 187.282 3.11809 2.77785 0
M  V30 1944 N 187.719 -0.156864 1.56817 0
M  V30 1945 C 188.944 -0.890331 1.87318 0
M  V30 1946 C 189.369 -1.74394 0.704855 0
M  V30 1947 O 188.727 -1.77972 -0.345786 0
M  V30 1948 C 188.775 -1.73102 3.16336 0
M  V30 1949 O 187.879 -2.83422 2.99576 0
M  V30 1950 H 187.22 -0.24857 0.615718 0
M  V30 1951 H 189.75 -0.150649 2.04045 0
M  V30 1952 H 189.76 -2.12803 3.48107 0
M  V30 1953 H 188.435 -1.10412 4.00976 0
M  V30 1954 H 187.012 -2.47199 2.7919 0
M  V30 1955 N 189.197 -1.51736 -0.425897 0
M  V30 1956 C 190.145 -1.74464 -1.53834 0
M  V30 1957 C 191.139 -0.611241 -1.57988 0
M  V30 1958 O 192.345 -0.792899 -1.61596 0
M  V30 1959 H 188.72 -0.551437 -0.511293 0
M  V30 1960 H 190.691 -2.67694 -1.31843 0
M  V30 1961 C 189.44 -1.8972 -2.91379 0
M  V30 1962 H 188.763 -2.76344 -2.88919 0
M  V30 1963 H 190.203 -2.09629 -3.68553 0
M  V30 1964 C 188.662 -0.65992 -3.30374 0
M  V30 1965 O 189.192 0.180083 -4.01296 0
M  V30 1966 N 187.398 -0.500677 -2.86254 0
M  V30 1967 H 186.945 -1.18532 -2.28709 0
M  V30 1968 H 186.903 0.325903 -3.12706 0
M  V30 1969 N 190.675 0.682077 -1.42076 0
M  V30 1970 C 191.921 1.44428 -1.42367 0
M  V30 1971 C 192.254 1.94164 -0.0373056 0
M  V30 1972 O 191.529 1.70429 0.937239 0
M  V30 1973 C 191.812 2.64654 -2.44194 0
M  V30 1974 C 191.665 2.20596 -3.91991 0
M  V30 1975 C 192.984 3.66865 -2.431 0
M  V30 1976 H 190.103 0.523834 -0.518428 0
M  V30 1977 H 192.745 0.77576 -1.73442 0
M  V30 1978 H 190.895 3.2169 -2.17826 0
M  V30 1979 H 192.567 1.68783 -4.29313 0
M  V30 1980 H 190.81 1.52242 -4.06208 0
M  V30 1981 H 191.481 3.06921 -4.58807 0
M  V30 1982 H 193.957 3.19531 -2.66532 0
M  V30 1983 H 192.833 4.48577 -3.16339 0
M  V30 1984 H 193.094 4.17493 -1.45437 0
M  V30 1985 N 192.153 1.28127 0.917671 0
M  V30 1986 C 193.381 1.17892 1.70026 0
M  V30 1987 C 193.796 -0.262958 1.8696 0
M  V30 1988 O 193.153 -1.17811 1.3938 0
M  V30 1989 C 193.204 1.86872 3.09453 0
M  V30 1990 O 192.925 3.25428 2.93306 0
M  V30 1991 C 194.426 1.8289 4.03815 0
M  V30 1992 H 191.646 0.40942 0.531617 0
M  V30 1993 H 194.19 1.69181 1.14883 0
M  V30 1994 H 192.345 1.39464 3.61426 0
M  V30 1995 H 192.759 3.59918 3.81523 0
M  V30 1996 H 194.233 2.35751 4.99125 0
M  V30 1997 H 194.71 0.800412 4.31845 0
M  V30 1998 H 195.316 2.29959 3.57769 0
M  V30 1999 N 193.631 -1.12557 1.10312 0
M  V30 2000 C 194.878 -1.84038 0.844759 0
M  V30 2001 C 195.206 -1.84026 -0.629668 0
M  V30 2002 O 194.461 -1.28026 -1.48013 0
M  V30 2003 C 194.76 -3.31462 1.33669 0
M  V30 2004 C 194.426 -3.51647 2.82232 0
M  V30 2005 C 193.088 -3.56864 3.22802 0
M  V30 2006 C 195.44 -3.58867 3.77974 0
M  V30 2007 C 192.768 -3.66844 4.57867 0
M  V30 2008 C 195.12 -3.70375 5.1284 0
M  V30 2009 C 193.784 -3.73848 5.52986 0
M  V30 2010 H 193.054 -0.673444 0.309119 0
M  V30 2011 H 195.701 -1.32824 1.37949 0
M  V30 2012 H 194.006 -3.85091 0.721949 0
M  V30 2013 H 195.703 -3.85236 1.11329 0
M  V30 2014 H 192.293 -3.48249 2.49842 0
M  V30 2015 H 196.477 -3.54107 3.47738 0
M  V30 2016 H 191.733 -3.67804 4.88396 0
M  V30 2017 H 195.907 -3.74904 5.86873 0
M  V30 2018 H 193.534 -3.81333 6.57639 0
M  V30 2019 N 195.109 -0.891671 -1.2995 0
M  V30 2020 C 196.039 -0.379797 -2.30391 0
M  V30 2021 C 197.02 0.540919 -1.6127 0
M  V30 2022 O 198.205 0.453352 -1.88834 0
M  V30 2023 C 195.335 0.400654 -3.44981 0
M  V30 2024 C 194.289 -0.428905 -4.25846 0
M  V30 2025 C 193.615 0.478557 -5.32554 0
M  V30 2026 C 194.915 -1.67458 -4.94727 0
M  V30 2027 H 196.609 -1.21914 -2.73454 0
M  V30 2028 H 194.155 -0.587675 -1.31462 0
M  V30 2029 H 196.108 0.769434 -4.14316 0
M  V30 2030 H 194.832 1.27371 -3.0074 0
M  V30 2031 H 193.491 -0.779911 -3.58208 0
M  V30 2032 H 193.139 1.34951 -4.84559 0
M  V30 2033 H 192.839 -0.0727433 -5.87555 0
M  V30 2034 H 194.363 0.843705 -6.04743 0
M  V30 2035 H 195.777 -1.376 -5.56542 0
M  V30 2036 H 194.174 -2.16659 -5.59624 0
M  V30 2037 H 195.244 -2.41518 -4.20473 0
M  V30 2038 N 196.587 1.43421 -0.653314 0
M  V30 2039 C 197.998 1.85065 -0.246537 0
M  V30 2040 C 198.349 1.54688 1.2069 0
M  V30 2041 O 197.474 0.995896 1.92122 0
M  V30 2042 C 198.069 3.35922 -0.440666 0
M  V30 2043 C 196.628 3.76297 -0.0882064 0
M  V30 2044 C 195.775 2.67147 -0.743484 0
M  V30 2045 H 198.726 1.33572 -0.856979 0
M  V30 2046 H 198.747 3.79204 0.313798 0
M  V30 2047 H 198.259 3.58 -1.49858 0
M  V30 2048 H 196.36 3.5983 0.96711 0
M  V30 2049 H 196.473 4.76338 -0.513738 0
M  V30 2050 H 194.837 2.54086 -0.176712 0
M  V30 2051 H 195.62 2.92053 -1.80443 0
M  V30 2052 N 198.065 0.39524 1.52563 0
M  V30 2053 C 199.312 -0.185044 2.01653 0
M  V30 2054 C 199.64 -1.46317 1.28146 0
M  V30 2055 O 198.895 -1.9213 0.372074 0
M  V30 2056 C 199.194 -0.493444 3.53977 0
M  V30 2057 C 198.86 0.69384 4.4553 0
M  V30 2058 C 197.522 1.01954 4.70275 0
M  V30 2059 C 199.874 1.48785 4.99512 0
M  V30 2060 C 197.202 2.14069 5.46252 0
M  V30 2061 C 199.554 2.59965 5.76716 0
M  V30 2062 C 198.218 2.93037 5.99738 0
M  V30 2063 H 197.488 -0.0677123 0.7379 0
M  V30 2064 H 200.135 0.533807 1.8391 0
M  V30 2065 H 198.44 -1.29369 3.69825 0
M  V30 2066 H 200.137 -0.955163 3.89458 0
M  V30 2067 H 196.727 0.429987 4.26438 0
M  V30 2068 H 200.911 1.24946 4.80315 0
M  V30 2069 H 196.167 2.40056 5.62302 0
M  V30 2070 H 200.341 3.21887 6.17545 0
M  V30 2071 H 197.968 3.8003 6.58393 0
M  V30 2072 N 199.544 -1.57102 0.125237 0
M  V30 2073 C 200.474 -2.18659 -0.819174 0
M  V30 2074 C 201.455 -1.12843 -1.27281 0
M  V30 2075 O 202.64 -1.41104 -1.33429 0
M  V30 2076 C 199.77 -2.79096 -2.06695 0
M  V30 2077 C 198.724 -3.90548 -1.75088 0
M  V30 2078 C 198.05 -4.37821 -3.06948 0
M  V30 2079 C 199.35 -5.12356 -1.01435 0
M  V30 2080 H 201.044 -2.9783 -0.306202 0
M  V30 2081 H 198.59 -1.4326 -0.145839 0
M  V30 2082 H 200.543 -3.2082 -2.73226 0
M  V30 2083 H 199.267 -1.97223 -2.60328 0
M  V30 2084 H 197.926 -3.49409 -1.10944 0
M  V30 2085 H 197.574 -3.52799 -3.58527 0
M  V30 2086 H 197.274 -5.12982 -2.86571 0
M  V30 2087 H 198.798 -4.822 -3.74587 0
M  V30 2088 H 200.212 -5.5106 -1.58132 0
M  V30 2089 H 198.609 -5.9314 -0.911319 0
M  V30 2090 H 199.679 -4.849 -0.00218681 0
M  V30 2091 N 201.022 0.148545 -1.56898 0
M  V30 2092 C 202.247 0.880385 -1.87787 0
M  V30 2093 C 202.672 1.74018 -0.714093 0
M  V30 2094 O 202.03 1.78153 0.336343 0
M  V30 2095 C 202.078 1.71422 -3.17249 0
M  V30 2096 O 201.182 2.8183 -3.01074 0
M  V30 2097 H 200.523 0.245301 -0.617028 0
M  V30 2098 H 203.053 0.139826 -2.04122 0
M  V30 2099 H 203.063 2.10954 -3.49231 0
M  V30 2100 H 201.738 1.08284 -4.01556 0
M  V30 2101 H 200.315 2.45715 -2.80497 0
M  V30 2102 N 202.5 1.5196 0.417844 0
M  V30 2103 C 203.45 1.7106 1.5074 0
M  V30 2104 C 204.434 0.564487 1.50673 0
M  V30 2105 O 205.626 0.821206 1.56797 0
M  V30 2106 C 202.755 1.85677 2.88754 0
M  V30 2107 C 201.841 3.06133 2.93502 0
M  V30 2108 N 202.232 4.28987 2.67962 0
M  V30 2109 C 200.53 3.05787 3.24669 0
M  V30 2110 C 201.231 5.10395 2.79055 0
M  V30 2111 N 200.207 4.45455 3.11561 0
M  V30 2112 H 204.009 2.63696 1.29775 0
M  V30 2113 H 201.523 1.49873 0.625436 0
M  V30 2114 H 203.52 1.97475 3.67164 0
M  V30 2115 H 202.18 0.942348 3.10725 0
M  V30 2116 H 203.191 4.57607 2.4252 0
M  V30 2117 H 199.868 2.2405 3.52289 0
M  V30 2118 H 201.258 6.18247 2.63097 0
M  V30 2119 N 203.978 -0.674533 1.42435 0
M  V30 2120 C 204.908 -1.80009 1.48724 0
M  V30 2121 C 205.889 -1.6659 0.343793 0
M  V30 2122 O 207.074 -1.86007 0.558137 0
M  V30 2123 C 204.204 -3.18306 1.38919 0
M  V30 2124 C 203.158 -3.46461 2.51294 0
M  V30 2125 C 202.484 -4.84335 2.26547 0
M  V30 2126 C 203.784 -3.43328 3.93603 0
M  V30 2127 H 205.478 -1.75004 2.42928 0
M  V30 2128 H 203.024 -0.840533 1.16923 0
M  V30 2129 H 204.977 -3.9678 1.41927 0
M  V30 2130 H 203.701 -3.2399 0.412094 0
M  V30 2131 H 202.36 -2.70348 2.47604 0
M  V30 2132 H 202.008 -4.86669 1.2713 0
M  V30 2133 H 201.708 -5.04136 3.01861 0
M  V30 2134 H 203.232 -5.65094 2.31304 0
M  V30 2135 H 204.646 -4.11772 3.98894 0
M  V30 2136 H 203.043 -3.74664 4.68771 0
M  V30 2137 H 204.113 -2.41897 4.20255 0
M  V30 2138 N 205.456 -1.28612 -0.910864 0
M  V30 2139 C 206.867 -1.14406 -1.47541 0
M  V30 2140 C 207.218 0.264901 -1.94403 0
M  V30 2141 O 206.343 1.15942 -1.82719 0
M  V30 2142 C 206.938 -2.07073 -2.68153 0
M  V30 2143 C 205.497 -1.96923 -3.20778 0
M  V30 2144 C 204.644 -1.98646 -1.93481 0
M  V30 2145 H 207.595 -1.41259 -0.723291 0
M  V30 2146 H 207.616 -1.63642 -3.43514 0
M  V30 2147 H 207.128 -3.09611 -2.34015 0
M  V30 2148 H 205.229 -0.97433 -3.59635 0
M  V30 2149 H 205.342 -2.84026 -3.85832 0
M  V30 2150 H 203.706 -1.43093 -2.10705 0
M  V30 2151 H 204.489 -3.02868 -1.61634 0
M  V30 2152 N 206.934 1.1197 -1.10907 0
M  V30 2153 C 208.345 1.65114 -0.871446 0
M  V30 2154 C 208.696 1.86885 0.597353 0
M  V30 2155 O 207.821 1.59896 1.45816 0
M  V30 2156 C 208.416 2.99944 -1.5754 0
M  V30 2157 C 206.975 3.50018 -1.38435 0
M  V30 2158 C 206.122 2.24941 -1.62164 0
M  V30 2159 H 209.073 0.956851 -1.2661 0
M  V30 2160 H 209.094 3.66651 -1.01721 0
M  V30 2161 H 208.606 2.84067 -2.64438 0
M  V30 2162 H 206.707 3.71071 -0.337214 0
M  V30 2163 H 206.82 4.29165 -2.12965 0
M  V30 2164 H 205.184 2.3229 -1.04467 0
M  V30 2165 H 205.967 2.11612 -2.70324 0
M  V30 2166 N 208.412 0.89855 1.29475 0
M  V30 2167 C 209.828 0.594483 1.48115 0
M  V30 2168 C 210.028 -0.86431 1.82022 0
M  V30 2169 O 209.084 -1.64457 1.91599 0
M  V30 2170 C 210.397 1.51932 2.59494 0
M  V30 2171 C 211.945 1.5244 2.7337 0
M  V30 2172 C 212.42 2.43548 3.87877 0
M  V30 2173 N 213.911 2.41589 3.95208 0
M  V30 2174 C 214.646 3.08789 4.83153 0
M  V30 2175 N 214.142 3.85265 5.75798 0
M  V30 2176 N 215.935 2.97952 4.76635 0
M  V30 2177 H 208.086 1.84207 1.05742 0
M  V30 2178 H 210.349 0.789251 0.525154 0
M  V30 2179 H 210.055 2.55865 2.41301 0
M  V30 2180 H 209.929 1.23899 3.56271 0
M  V30 2181 H 212.316 0.492518 2.90961 0
M  V30 2182 H 212.397 1.8451 1.77172 0
M  V30 2183 H 212.041 3.46829 3.71041 0
M  V30 2184 H 211.971 2.08788 4.83441 0
M  V30 2185 H 214.462 1.86025 3.28943 0
M  V30 2186 H 214.775 4.33598 6.39697 0
M  V30 2187 H 213.12 3.89371 5.75687 0
M  V30 2188 H 216.311 2.37723 4.03244 0
M  V30 2189 H 216.484 3.50599 5.44962 0
M  V30 2190 N 209.89 -1.43072 0.660911 0
M  V30 2191 C 211.137 -2.01721 0.177445 0
M  V30 2192 C 211.465 -1.5218 -1.21126 0
M  V30 2193 O 210.72 -0.708659 -1.82419 0
M  V30 2194 C 211.019 -3.57103 0.145563 0
M  V30 2195 C 210.685 -4.26021 1.47705 0
M  V30 2196 C 209.347 -4.44563 1.84165 0
M  V30 2197 C 211.699 -4.64983 2.35458 0
M  V30 2198 C 209.027 -4.99334 3.0803 0
M  V30 2199 C 211.379 -5.21127 3.58622 0
M  V30 2200 C 210.043 -5.37884 3.95268 0
M  V30 2201 H 209.313 -0.73815 0.0649317 0
M  V30 2202 H 211.96 -1.71446 0.853144 0
M  V30 2203 H 210.265 -3.86965 -0.61361 0
M  V30 2204 H 211.962 -4.00248 -0.2455 0
M  V30 2205 H 208.552 -4.11939 1.18339 0
M  V30 2206 H 212.736 -4.50343 2.08579 0
M  V30 2207 H 207.992 -5.10493 3.36462 0
M  V30 2208 H 212.166 -5.50262 4.26831 0
M  V30 2209 H 209.793 -5.80089 4.91325 0
M  V30 2210 N 211.368 -0.403325 -1.52352 0
M  V30 2211 C 212.298 0.416205 -2.29761 0
M  V30 2212 C 213.279 1.05123 -1.33728 0
M  V30 2213 O 214.464 1.06134 -1.62632 0
M  V30 2214 C 211.594 1.53624 -3.11475 0
M  V30 2215 C 210.548 1.02653 -4.15507 0
M  V30 2216 C 209.874 2.23971 -4.85532 0
M  V30 2217 C 211.174 0.08463 -5.22231 0
M  V30 2218 H 212.868 -0.229701 -2.98518 0
M  V30 2219 H 210.414 -0.111913 -1.43564 0
M  V30 2220 H 212.367 2.1165 -3.64393 0
M  V30 2221 H 211.091 2.20994 -2.40477 0
M  V30 2222 H 209.75 0.46871 -3.63591 0
M  V30 2223 H 209.398 2.89883 -4.11068 0
M  V30 2224 H 209.098 1.90521 -5.55856 0
M  V30 2225 H 210.622 2.82614 -5.41259 0
M  V30 2226 H 212.036 0.573509 -5.70424 0
M  V30 2227 H 210.433 -0.160783 -5.99885 0
M  V30 2228 H 211.503 -0.86237 -4.7717 0
M  V30 2229 N 212.846 1.57033 -0.133567 0
M  V30 2230 C 214.262 1.58035 0.222944 0
M  V30 2231 C 214.462 1.14713 1.6566 0
M  V30 2232 O 213.518 0.841218 2.38075 0
M  V30 2233 C 214.831 3.00691 -0.0236116 0
M  V30 2234 C 216.379 3.12973 0.0411512 0
M  V30 2235 C 216.854 4.57654 -0.177899 0
M  V30 2236 N 218.345 4.63033 -0.124365 0
M  V30 2237 C 219.08 5.72771 -0.268553 0
M  V30 2238 N 218.576 6.91206 -0.46972 0
M  V30 2239 N 220.369 5.61718 -0.2071 0
M  V30 2240 H 212.52 1.8349 -1.06981 0
M  V30 2241 H 214.783 0.848677 -0.422436 0
M  V30 2242 H 214.489 3.36726 -1.0153 0
M  V30 2243 H 214.363 3.70614 0.701808 0
M  V30 2244 H 216.75 2.76787 1.02338 0
M  V30 2245 H 216.831 2.45564 -0.716383 0
M  V30 2246 H 216.475 4.94542 -1.15717 0
M  V30 2247 H 216.405 5.23173 0.599797 0
M  V30 2248 H 218.896 3.7789 0.027011 0
M  V30 2249 H 219.209 7.70693 -0.570212 0
M  V30 2250 H 217.554 6.93156 -0.505876 0
M  V30 2251 H 220.745 4.68072 -0.0507986 0
M  V30 2252 H 220.918 6.47195 -0.322909 0
M  V30 2253 N 214.325 -0.140222 1.56975 0
M  V30 2254 C 215.55 -0.870414 1.88251 0
M  V30 2255 C 215.975 -1.73637 0.723312 0
M  V30 2256 O 215.333 -1.78329 -0.32689 0
M  V30 2257 C 215.381 -1.69737 3.18154 0
M  V30 2258 O 214.485 -2.80229 3.02565 0
M  V30 2259 H 213.826 -0.242025 0.61832 0
M  V30 2260 H 216.356 -0.128999 2.04193 0
M  V30 2261 H 216.366 -2.09099 3.50345 0
M  V30 2262 H 215.041 -1.06152 4.02125 0
M  V30 2263 H 213.618 -2.44224 2.81796 0
M  V30 2264 N 215.803 -1.52179 -0.40978 0
M  V30 2265 C 217.05 -1.66206 -1.15679 0
M  V30 2266 C 217.378 -0.391674 -1.90516 0
M  V30 2267 O 216.633 0.62533 -1.8544 0
M  V30 2268 C 216.932 -2.83428 -2.17723 0
M  V30 2269 C 216.598 -4.21672 -1.59699 0
M  V30 2270 C 215.26 -4.59274 -1.43599 0
M  V30 2271 C 217.612 -5.07825 -1.17317 0
M  V30 2272 C 214.94 -5.80709 -0.836328 0
M  V30 2273 C 217.292 -6.29864 -0.587691 0
M  V30 2274 C 215.956 -6.66216 -0.413818 0
M  V30 2275 H 215.226 -0.608192 -0.423301 0
M  V30 2276 H 217.873 -1.86279 -0.444097 0
M  V30 2277 H 216.178 -2.57687 -2.95135 0
M  V30 2278 H 217.875 -2.91477 -2.75394 0
M  V30 2279 H 214.465 -3.9204 -1.73213 0
M  V30 2280 H 218.649 -4.79359 -1.28565 0
M  V30 2281 H 213.905 -6.07498 -0.689626 0
M  V30 2282 H 218.079 -6.95948 -0.250894 0
M  V30 2283 H 215.706 -7.60182 0.0529471 0
M  V30 2284 N 217.281 0.66697 -1.42791 0
M  V30 2285 C 218.528 1.42699 -1.43678 0
M  V30 2286 C 218.856 1.94419 -0.0560425 0
M  V30 2287 O 218.111 1.7182 0.936831 0
M  V30 2288 C 218.41 2.6349 -2.4147 0
M  V30 2289 C 218.076 2.30267 -3.8767 0
M  V30 2290 C 216.738 2.20918 -4.27491 0
M  V30 2291 C 219.09 2.03435 -4.79858 0
M  V30 2292 C 216.418 1.82873 -5.57471 0
M  V30 2293 C 218.77 1.66892 -6.10188 0
M  V30 2294 C 217.434 1.56058 -6.49001 0
M  V30 2295 H 216.704 0.522171 -0.525755 0
M  V30 2296 H 219.351 0.759785 -1.75783 0
M  V30 2297 H 217.656 3.35279 -2.0272 0
M  V30 2298 H 219.353 3.21684 -2.39417 0
M  V30 2299 H 215.943 2.38449 -3.56146 0
M  V30 2300 H 220.127 2.09586 -4.49875 0
M  V30 2301 H 215.383 1.7306 -5.86396 0
M  V30 2302 H 219.557 1.45157 -6.81104 0
M  V30 2303 H 217.184 1.26348 -7.49627 0
M  V30 2304 N 218.759 1.29093 0.90403 0
M  V30 2305 C 219.689 1.16401 2.02418 0
M  V30 2306 C 220.67 0.0593085 1.69997 0
M  V30 2307 O 221.855 0.238021 1.92736 0
M  V30 2308 C 218.985 0.835233 3.37107 0
M  V30 2309 C 217.939 1.89578 3.83724 0
M  V30 2310 C 217.265 1.42041 5.15489 0
M  V30 2311 C 218.565 3.30394 4.04521 0
M  V30 2312 H 220.259 2.10109 2.13295 0
M  V30 2313 H 217.805 1.01157 1.02486 0
M  V30 2314 H 219.758 0.733169 4.14973 0
M  V30 2315 H 218.482 -0.137543 3.2631 0
M  V30 2316 H 217.141 1.98715 3.08071 0
M  V30 2317 H 216.789 0.436426 5.01103 0
M  V30 2318 H 216.489 2.12964 5.4765 0
M  V30 2319 H 218.013 1.33176 5.959 0
M  V30 2320 H 219.427 3.24123 4.72882 0
M  V30 2321 H 217.824 3.99237 4.48029 0
M  V30 2322 H 218.894 3.73692 3.09002 0
M  V30 2323 N 220.237 -1.11381 1.11499 0
M  V30 2324 C 221.485 -1.8277 0.862524 0
M  V30 2325 C 221.806 -1.85097 -0.613534 0
M  V30 2326 O 221.076 -1.32198 -1.4457 0
M  V30 2327 H 219.656 -0.676823 0.316101 0
M  V30 2328 H 222.318 -1.34816 1.4075 0
M  V30 2329 H 221.414 -2.86614 1.23527 0
M  V30 2330 N 221.715 -0.905404 -1.28997 0
M  V30 2331 C 222.647 -0.344748 -2.26592 0
M  V30 2332 C 223.66 0.512135 -1.54535 0
M  V30 2333 O 224.849 0.328368 -1.75454 0
M  V30 2334 C 221.949 0.526587 -3.34784 0
M  V30 2335 C 221.122 -0.305871 -4.36329 0
M  V30 2336 C 220.181 0.499209 -5.23827 0
M  V30 2337 O 219.207 -0.0853004 -5.69136 0
M  V30 2338 N 220.409 1.80408 -5.51755 0
M  V30 2339 H 223.174 -1.18359 -2.75338 0
M  V30 2340 H 220.735 -0.770481 -1.42391 0
M  V30 2341 H 222.727 1.07171 -3.90252 0
M  V30 2342 H 221.297 1.26613 -2.85811 0
M  V30 2343 H 220.517 -1.0324 -3.80441 0
M  V30 2344 H 221.805 -0.875773 -5.01206 0
M  V30 2345 H 221.203 2.3016 -5.16762 0
M  V30 2346 H 219.76 2.29621 -6.10014 0
M  V30 2347 N 223.193 1.4272 -0.668489 0
M  V30 2348 C 224.441 2.01226 -0.187769 0
M  V30 2349 C 224.762 1.53092 1.2078 0
M  V30 2350 O 224.032 0.74993 1.80977 0
M  V30 2351 H 222.612 0.744041 -0.0664272 0
M  V30 2352 H 225.274 1.74723 -0.863583 0
M  V30 2353 H 224.37 3.11556 -0.184166 0
M  V30 2354 N 224.671 0.411399 1.52136 0
M  V30 2355 C 225.601 -0.404015 2.29978 0
M  V30 2356 C 226.582 -1.04412 1.34284 0
M  V30 2357 O 227.767 -1.0527 1.63192 0
M  V30 2358 C 224.897 -1.5197 3.12286 0
M  V30 2359 C 223.851 -1.00448 4.16046 0
M  V30 2360 C 223.177 -2.21393 4.86712 0
M  V30 2361 C 224.477 -0.0569336 5.22269 0
M  V30 2362 H 226.171 0.245529 2.98392 0
M  V30 2363 H 223.717 0.119525 1.43503 0
M  V30 2364 H 225.67 -2.09715 3.6551 0
M  V30 2365 H 224.394 -2.19716 2.41646 0
M  V30 2366 H 223.053 -0.449421 3.63835 0
M  V30 2367 H 222.701 -2.87699 4.12599 0
M  V30 2368 H 222.401 -1.87571 5.56858 0
M  V30 2369 H 223.925 -2.7974 5.4275 0
M  V30 2370 H 225.339 -0.54325 5.7072 0
M  V30 2371 H 223.736 0.192594 5.99791 0
M  V30 2372 H 224.806 0.887663 4.76706 0
M  V30 2373 N 226.149 -1.5696 0.141893 0
M  V30 2374 C 227.374 -2.00754 -0.520838 0
M  V30 2375 C 227.799 -1.0213 -1.57959 0
M  V30 2376 O 227.157 0.00371324 -1.813 0
M  V30 2377 C 227.205 -3.43318 -1.10294 0
M  V30 2378 O 226.309 -3.47679 -2.21795 0
M  V30 2379 H 225.65 -0.651564 -0.127908 0
M  V30 2380 H 228.18 -2.03221 0.23712 0
M  V30 2381 H 228.19 -3.82012 -1.43287 0
M  V30 2382 H 226.865 -4.14608 -0.327574 0
M  V30 2383 H 225.442 -3.20824 -1.9007 0
M  V30 2384 N 227.627 0.131896 -1.57047 0
M  V30 2385 C 228.59 1.14638 -1.98471 0
M  V30 2386 C 229.59 1.35029 -0.873148 0
M  V30 2387 O 230.78 1.31764 -1.13946 0
M  V30 2388 C 227.912 2.50358 -2.31373 0
M  V30 2389 H 229.105 0.79064 -2.8929 0
M  V30 2390 H 226.658 0.375761 -1.51716 0
M  V30 2391 H 227.393 2.90876 -1.43393 0
M  V30 2392 H 227.178 2.36915 -3.12432 0
M  V30 2393 H 228.668 3.23395 -2.64207 0
M  V30 2394 N 229.106 1.52395 0.401703 0
M  V30 2395 C 230.036 1.79231 1.49661 0
M  V30 2396 C 231.017 0.643654 1.57452 0
M  V30 2397 O 232.202 0.889989 1.72606 0
M  V30 2398 C 229.332 1.94971 2.87409 0
M  V30 2399 C 228.286 3.10604 2.94465 0
M  V30 2400 C 227.612 3.11577 4.34538 0
M  V30 2401 C 228.912 4.49921 2.6527 0
M  V30 2402 H 230.606 2.70917 1.27454 0
M  V30 2403 H 228.152 1.30362 0.6117 0
M  V30 2404 H 230.105 2.12328 3.63999 0
M  V30 2405 H 228.829 0.999632 3.10926 0
M  V30 2406 H 227.488 2.93009 2.20321 0
M  V30 2407 H 227.136 2.14277 4.55076 0
M  V30 2408 H 226.836 3.89247 4.40183 0
M  V30 2409 H 228.36 3.31073 5.13053 0
M  V30 2410 H 229.774 4.67683 3.31581 0
M  V30 2411 H 228.171 5.29564 2.82281 0
M  V30 2412 H 229.241 4.57507 1.60671 0
M  V30 2413 N 230.584 -0.659388 1.43143 0
M  V30 2414 C 231.514 -1.78422 1.50625 0
M  V30 2415 C 232.495 -1.66216 0.361443 0
M  V30 2416 O 233.68 -1.85404 0.577834 0
M  V30 2417 C 230.81 -3.16815 1.42287 0
M  V30 2418 C 229.764 -3.43777 2.54954 0
M  V30 2419 C 229.09 -4.81905 2.31671 0
M  V30 2420 C 230.39 -3.39134 3.97222 0
M  V30 2421 H 232.084 -1.72417 2.44771 0
M  V30 2422 H 229.63 -0.828084 1.17808 0
M  V30 2423 H 231.583 -3.95253 1.46127 0
M  V30 2424 H 230.307 -3.23534 0.446435 0
M  V30 2425 H 228.966 -2.67707 2.50457 0
M  V30 2426 H 228.614 -4.85294 1.32284 0
M  V30 2427 H 228.314 -5.00906 3.07192 0
M  V30 2428 H 229.838 -5.62609 2.37284 0
M  V30 2429 H 231.252 -4.07518 4.03239 0
M  V30 2430 H 229.649 -3.69671 4.72719 0
M  V30 2431 H 230.719 -2.37426 4.22797 0
M  V30 2432 N 232.062 -1.29571 -0.897171 0
M  V30 2433 C 233.473 -1.15964 -1.46319 0
M  V30 2434 C 233.824 0.244267 -1.94674 0
M  V30 2435 O 232.949 1.13998 -1.83939 0
M  V30 2436 C 233.544 -2.09906 -2.65942 0
M  V30 2437 C 232.103 -2.00314 -3.18671 0
M  V30 2438 C 231.25 -2.00687 -1.91363 0
M  V30 2439 H 234.201 -1.42019 -0.708268 0
M  V30 2440 H 234.222 -1.67276 -3.41759 0
M  V30 2441 H 233.734 -3.12075 -2.30718 0
M  V30 2442 H 231.835 -1.01242 -3.58582 0
M  V30 2443 H 231.948 -2.88102 -3.82798 0
M  V30 2444 H 230.312 -1.45319 -2.09175 0
M  V30 2445 H 231.095 -3.04566 -1.58413 0
M  V30 2446 N 233.54 1.10788 -1.12088 0
M  V30 2447 C 234.78 1.84297 -0.883974 0
M  V30 2448 C 235.144 1.83036 0.579797 0
M  V30 2449 O 236.345 2.52061 0.933734 0
M  V30 2450 C 234.616 3.27173 -1.43849 0
M  V30 2451 S 236.175 4.17853 -1.33957 0
M  V30 2452 H 232.993 0.635433 -0.318977 0
M  V30 2453 H 235.595 1.33341 -1.4297 0
M  V30 2454 H 234.299 3.25658 -2.49749 0
M  V30 2455 H 233.83 3.83198 -0.890096 0
M  V30 2456 H 235.845 4.95239 -0.308603 0
M  V30 2457 N 235.018 0.912232 1.28515 0
M  V30 2458 C 236.264 0.545405 1.95328 0
M  V30 2459 C 236.597 -0.908313 1.71649 0
M  V30 2460 O 235.872 -1.64575 1.03659 0
M  V30 2461 C 236.155 0.853483 3.4984 0
M  V30 2462 C 236.008 2.35982 3.82926 0
M  V30 2463 C 237.327 0.348589 4.38717 0
M  V30 2464 H 234.446 0.199626 0.709449 0
M  V30 2465 H 237.088 1.1412 1.5191 0
M  V30 2466 H 235.238 0.34643 3.86952 0
M  V30 2467 H 236.91 2.93738 3.55691 0
M  V30 2468 H 235.153 2.81543 3.30024 0
M  V30 2469 H 235.824 2.52593 4.90816 0
M  V30 2470 H 238.3 0.78294 4.08668 0
M  V30 2471 H 237.176 0.593242 5.45685 0
M  V30 2472 H 237.437 -0.751049 4.35674 0
M  V30 2473 N 236.496 -1.42363 0.676048 0
M  V30 2474 C 237.426 -2.33497 0.0124832 0
M  V30 2475 C 238.407 -1.50748 -0.787981 0
M  V30 2476 O 239.592 -1.79346 -0.744884 0
M  V30 2477 C 236.722 -3.34377 -0.938582 0
M  V30 2478 C 235.676 -4.27289 -0.246622 0
M  V30 2479 C 235.002 -5.18386 -1.31071 0
M  V30 2480 C 236.302 -5.14916 0.875125 0
M  V30 2481 H 237.996 -2.89233 0.773593 0
M  V30 2482 H 235.542 -1.39073 0.37346 0
M  V30 2483 H 237.495 -3.97044 -1.41188 0
M  V30 2484 H 236.219 -2.76947 -1.73113 0
M  V30 2485 H 234.878 -3.66018 0.206456 0
M  V30 2486 H 234.526 -4.57282 -2.09528 0
M  V30 2487 H 234.226 -5.81378 -0.852839 0
M  V30 2488 H 235.75 -5.83929 -1.78492 0
M  V30 2489 H 237.164 -5.71262 0.482983 0
M  V30 2490 H 235.561 -5.86747 1.25887 0
M  V30 2491 H 236.631 -4.53242 1.72335 0
M  V30 2492 N 237.974 -0.419461 -1.51915 0
M  V30 2493 C 238.937 0.389116 -2.25873 0
M  V30 2494 C 239.937 0.964924 -1.28631 0
M  V30 2495 O 241.127 0.842179 -1.52489 0
M  V30 2496 C 238.259 1.54874 -3.03689 0
M  V30 2497 H 239.452 -0.258799 -2.98781 0
M  V30 2498 H 237.005 -0.172209 -1.55348 0
M  V30 2499 H 237.74 2.23323 -2.35154 0
M  V30 2500 H 237.525 1.14223 -3.75094 0
M  V30 2501 H 239.015 2.12046 -3.59759 0
M  V30 2502 N 239.452 1.56882 -0.150215 0
M  V30 2503 C 240.382 2.19935 0.784284 0
M  V30 2504 C 241.363 1.14854 1.25469 0
M  V30 2505 O 242.548 1.43209 1.31168 0
M  V30 2506 C 239.678 2.82349 2.02229 0
M  V30 2507 C 238.632 3.93285 1.68853 0
M  V30 2508 C 237.958 4.42649 2.99944 0
M  V30 2509 C 239.258 5.13904 0.932714 0
M  V30 2510 H 240.952 2.9828 0.258781 0
M  V30 2511 H 238.498 1.43473 0.123029 0
M  V30 2512 H 240.451 3.25126 2.68088 0
M  V30 2513 H 239.175 2.0134 2.57157 0
M  V30 2514 H 237.834 3.5113 1.05371 0
M  V30 2515 H 237.482 3.58458 3.52869 0
M  V30 2516 H 237.182 5.17476 2.78374 0
M  V30 2517 H 238.706 4.88099 3.66868 0
M  V30 2518 H 240.12 5.53506 1.49345 0
M  V30 2519 H 238.517 5.94515 0.81684 0
M  V30 2520 H 239.587 4.84842 -0.0749568 0
M  V30 2521 N 240.93 -0.123565 1.57115 0
M  V30 2522 C 242.176 -0.833386 1.84885 0
M  V30 2523 C 242.509 -1.79742 0.735292 0
M  V30 2524 O 241.784 -1.92764 -0.25925 0
M  V30 2525 C 242.067 -1.5873 3.23228 0
M  V30 2526 C 241.92 -0.643183 4.45178 0
M  V30 2527 C 243.239 -2.54453 3.59085 0
M  V30 2528 H 240.358 -0.301518 0.6725 0
M  V30 2529 H 243 -0.097778 1.89748 0
M  V30 2530 H 241.15 -2.21438 3.19214 0
M  V30 2531 H 242.822 -0.0253015 4.61293 0
M  V30 2532 H 241.065 0.0456139 4.33776 0
M  V30 2533 H 241.736 -1.20724 5.38637 0
M  V30 2534 H 244.212 -2.01853 3.63861 0
M  V30 2535 H 243.088 -3.04238 4.5687 0
M  V30 2536 H 243.349 -3.36906 2.86264 0
M  V30 2537 N 242.408 -1.52605 -0.393616 0
M  V30 2538 C 243.34 -1.73303 -1.49995 0
M  V30 2539 C 244.353 -0.613473 -1.50799 0
M  V30 2540 O 245.542 -0.889049 -1.54784 0
M  V30 2541 C 242.642 -1.77245 -2.88855 0
M  V30 2542 C 241.815 -3.06483 -3.12069 0
M  V30 2543 C 240.874 -3.02033 -4.30886 0
M  V30 2544 O 239.9 -3.75907 -4.27414 0
M  V30 2545 N 241.102 -2.20897 -5.36828 0
M  V30 2546 H 243.867 -2.68756 -1.32629 0
M  V30 2547 H 241.428 -1.51036 -0.583083 0
M  V30 2548 H 243.42 -1.7178 -3.66434 0
M  V30 2549 H 241.99 -0.891993 -2.99603 0
M  V30 2550 H 241.21 -3.25474 -2.22396 0
M  V30 2551 H 242.498 -3.91947 -3.2443 0
M  V30 2552 H 241.896 -1.60336 -5.42502 0
M  V30 2553 H 240.453 -2.21275 -6.13091 0
M  V30 2554 N 243.887 0.651787 -1.4349 0
M  V30 2555 C 245.135 1.40888 -1.44897 0
M  V30 2556 C 245.456 1.94856 -0.0749086 0
M  V30 2557 O 244.726 1.74518 0.889956 0
M  V30 2558 H 243.306 0.522887 -0.533478 0
M  V30 2559 H 245.968 0.768609 -1.79104 0
M  V30 2560 H 245.064 2.25052 -2.16236 0
M  V30 2561 N 245.365 1.30045 0.890287 0
M  V30 2562 C 246.611 1.18737 1.64406 0
M  V30 2563 C 246.944 -0.258525 1.92472 0
M  V30 2564 O 246.219 -1.18562 1.54186 0
M  V30 2565 C 246.502 2.01087 2.98724 0
M  V30 2566 C 246.355 3.53867 2.77665 0
M  V30 2567 C 247.674 1.84457 3.9958 0
M  V30 2568 H 244.793 0.432698 0.596608 0
M  V30 2569 H 247.435 1.5962 1.0306 0
M  V30 2570 H 245.585 1.66349 3.51084 0
M  V30 2571 H 247.257 3.98637 2.32133 0
M  V30 2572 H 245.5 3.78318 2.12269 0
M  V30 2573 H 246.171 4.06772 3.7315 0
M  V30 2574 H 248.647 2.14817 3.56361 0
M  V30 2575 H 247.523 2.44411 4.91482 0
M  V30 2576 H 247.784 0.802276 4.3476 0
M  V30 2577 N 246.843 -1.10192 1.12674 0
M  V30 2578 C 248.091 -1.81845 0.881861 0
M  V30 2579 C 248.412 -1.85737 -0.593867 0
M  V30 2580 O 247.682 -1.33724 -1.4316 0
M  V30 2581 H 246.262 -0.673432 0.323261 0
M  V30 2582 H 248.924 -1.33316 1.42172 0
M  V30 2583 H 248.02 -2.85288 1.2656 0
M  V30 2584 N 248.321 -0.919034 -1.28029 0
M  V30 2585 C 249.737 -0.617972 -1.4715 0
M  V30 2586 C 249.937 0.835242 -1.83374 0
M  V30 2587 O 248.993 1.61388 -1.94191 0
M  V30 2588 C 250.306 -1.56041 -2.57044 0
M  V30 2589 C 251.854 -1.56769 -2.7091 0
M  V30 2590 C 252.329 -2.49688 -3.83953 0
M  V30 2591 N 253.82 -2.47845 -3.91314 0
M  V30 2592 C 254.555 -3.16437 -4.78179 0
M  V30 2593 N 254.051 -3.94376 -5.69596 0
M  V30 2594 N 255.844 -3.05498 -4.71834 0
M  V30 2595 H 247.995 -1.85866 -1.02798 0
M  V30 2596 H 250.258 -0.797506 -0.512531 0
M  V30 2597 H 249.964 -2.59671 -2.372 0
M  V30 2598 H 249.838 -1.29551 -3.54255 0
M  V30 2599 H 252.225 -0.538745 -2.90141 0
M  V30 2600 H 252.306 -1.87305 -1.74214 0
M  V30 2601 H 251.95 -3.52688 -3.65477 0
M  V30 2602 H 251.88 -2.16453 -4.80058 0
M  V30 2603 H 254.371 -1.91234 -3.25941 0
M  V30 2604 H 254.684 -4.43721 -6.32718 0
M  V30 2605 H 253.029 -3.98481 -5.69419 0
M  V30 2606 H 256.22 -2.44108 -3.99411 0
M  V30 2607 H 256.393 -3.59225 -5.39316 0
M  V30 2608 N 249.799 1.42003 -0.683588 0
M  V30 2609 C 250.729 2.33487 -0.024866 0
M  V30 2610 C 251.71 1.51163 0.779975 0
M  V30 2611 O 252.895 1.79739 0.735362 0
M  V30 2612 C 250.025 3.3487 0.920836 0
M  V30 2613 C 248.979 4.27414 0.223958 0
M  V30 2614 C 248.305 5.19074 1.2832 0
M  V30 2615 C 249.605 5.14445 -0.90242 0
M  V30 2616 H 251.299 2.88819 -0.788921 0
M  V30 2617 H 248.845 1.38873 -0.38083 0
M  V30 2618 H 250.798 3.97787 1.39081 0
M  V30 2619 H 249.522 2.77861 1.71642 0
M  V30 2620 H 248.181 3.65904 -0.225864 0
M  V30 2621 H 247.829 4.58387 2.071 0
M  V30 2622 H 247.529 5.81822 0.821995 0
M  V30 2623 H 249.053 5.84867 1.75392 0
M  V30 2624 H 250.467 5.70998 -0.513272 0
M  V30 2625 H 248.864 5.86072 -1.28997 0
M  V30 2626 H 249.934 4.52322 -1.74737 0
M  V30 2627 N 251.277 0.427512 1.51691 0
M  V30 2628 C 252.187 -0.39527 2.31246 0
M  V30 2629 C 253.203 -1.03674 1.39742 0
M  V30 2630 O 254.379 -1.03425 1.72816 0
M  V30 2631 C 251.444 -1.48706 3.13189 0
M  V30 2632 C 250.505 -0.866743 4.20459 0
M  V30 2633 C 249.738 -1.90651 4.98486 0
M  V30 2634 O 249.961 -3.12733 4.77026 0
M  V30 2635 O 248.895 -1.5025 5.82845 0
M  V30 2636 H 252.721 0.253918 3.02637 0
M  V30 2637 H 250.306 0.190274 1.48183 0
M  V30 2638 H 252.188 -2.12047 3.64162 0
M  V30 2639 H 250.863 -2.12051 2.44573 0
M  V30 2640 H 249.77 -0.195544 3.73589 0
M  V30 2641 H 251.103 -0.276934 4.9142 0
M  V30 2642 N 252.755 -1.56801 0.158532 0
M  V30 2643 C 253.995 -1.98383 -0.49229 0
M  V30 2644 C 254.359 -1.04184 -1.61275 0
M  V30 2645 O 255.56 -1.34856 -2.32524 0
M  V30 2646 C 253.831 -3.4385 -0.974766 0
M  V30 2647 S 255.39 -4.07459 -1.62857 0
M  V30 2648 H 252.208 -0.693041 -0.158794 0
M  V30 2649 H 254.81 -1.93856 0.252974 0
M  V30 2650 H 253.514 -4.10131 -0.148688 0
M  V30 2651 H 253.045 -3.52115 -1.75438 0
M  V30 2652 H 255.06 -4.01458 -2.91627 0
M  V30 2653 N 254.233 0.115231 -1.57178 0
M  V30 2654 C 255.644 0.67197 -1.74188 0
M  V30 2655 C 255.995 1.80125 -0.777777 0
M  V30 2656 O 255.12 2.16346 0.0484376 0
M  V30 2657 C 255.715 1.22573 -3.1585 0
M  V30 2658 C 254.274 1.72872 -3.34353 0
M  V30 2659 C 253.421 0.629972 -2.70049 0
M  V30 2660 H 256.372 -0.110712 -1.58313 0
M  V30 2661 H 256.393 2.09535 -3.17609 0
M  V30 2662 H 255.905 0.403598 -3.85996 0
M  V30 2663 H 254.006 2.5755 -2.69256 0
M  V30 2664 H 254.119 1.83557 -4.42542 0
M  V30 2665 H 252.483 1.0645 -2.31388 0
M  V30 2666 H 253.266 -0.181241 -3.42821 0
M  V30 2667 N 255.711 1.52812 0.385517 0
M  V30 2668 C 257.122 1.5993 0.963293 0
M  V30 2669 C 257.473 0.454302 1.90868 0
M  V30 2670 O 256.598 -0.422132 2.12243 0
M  V30 2671 C 257.193 2.89871 1.75387 0
M  V30 2672 C 255.752 2.99389 2.28129 0
M  V30 2673 C 254.899 2.55071 1.08783 0
M  V30 2674 H 257.85 1.5784 0.164948 0
M  V30 2675 H 257.871 2.76553 2.61341 0
M  V30 2676 H 257.383 3.73186 1.06554 0
M  V30 2677 H 255.484 2.20619 3.00263 0
M  V30 2678 H 255.597 4.04096 2.57377 0
M  V30 2679 H 253.961 2.09473 1.4489 0
M  V30 2680 H 254.744 3.40785 0.414807 0
M  V30 2681 N 257.189 -0.644168 1.43834 0
M  V30 2682 C 258.152 -1.73857 1.49353 0
M  V30 2683 C 259.152 -1.56315 0.377112 0
M  V30 2684 O 260.342 -1.62048 0.639226 0
M  V30 2685 C 257.474 -3.12819 1.35488 0
M  V30 2686 H 258.667 -1.70342 2.46827 0
M  V30 2687 H 256.22 -0.856652 1.30733 0
M  V30 2688 H 256.955 -3.2194 0.390569 0
M  V30 2689 H 256.74 -3.26958 2.16428 0
M  V30 2690 H 258.23 -3.92606 1.42302 0
M  V30 2691 N 258.668 -1.30515 -0.883378 0
M  V30 2692 C 260.079 -1.17509 -1.45081 0
M  V30 2693 C 260.43 0.223605 -1.94922 0
M  V30 2694 O 259.555 1.12041 -1.85137 0
M  V30 2695 C 260.15 -2.12715 -2.63701 0
M  V30 2696 C 258.709 -2.03682 -3.16529 0
M  V30 2697 C 257.856 -2.02706 -1.89224 0
M  V30 2698 H 260.807 -1.42762 -0.693165 0
M  V30 2699 H 260.828 -1.70891 -3.39965 0
M  V30 2700 H 260.34 -3.14505 -2.27395 0
M  V30 2701 H 258.441 -1.05039 -3.57488 0
M  V30 2702 H 258.554 -2.92146 -3.7972 0
M  V30 2703 H 256.918 -1.4753 -2.07622 0
M  V30 2704 H 257.701 -3.06229 -1.55174 0
M  V30 2705 N 260.146 1.09593 -1.13257 0
M  V30 2706 C 261.395 1.81105 -0.887917 0
M  V30 2707 C 261.708 1.86563 0.587672 0
M  V30 2708 O 262.914 2.54367 0.949204 0
M  V30 2709 C 261.37 3.25338 -1.53895 0
M  V30 2710 C 260.978 3.28151 -3.04994 0
M  V30 2711 C 262.722 4.01617 -1.37492 0
M  V30 2712 C 260.629 4.66897 -3.6299 0
M  V30 2713 H 259.559 0.678661 -0.328534 0
M  V30 2714 H 262.21 1.23183 -1.36008 0
M  V30 2715 H 260.592 3.8331 -0.994446 0
M  V30 2716 H 261.766 2.79953 -3.66009 0
M  V30 2717 H 260.081 2.65361 -3.20893 0
M  V30 2718 H 262.678 5.04119 -1.78235 0
M  V30 2719 H 263.021 4.15072 -0.31957 0
M  V30 2720 H 263.554 3.50082 -1.88912 0
M  V30 2721 H 260.293 4.58643 -4.68323 0
M  V30 2722 H 259.813 5.15426 -3.06752 0
M  V30 2723 H 261.492 5.3587 -3.62563 0
M  V30 2724 N 261.624 0.925811 1.2754 0
M  V30 2725 C 262.572 0.413897 2.28888 0
M  V30 2726 C 263.566 -0.500779 1.61829 0
M  V30 2727 O 264.772 -0.38069 1.75928 0
M  V30 2728 H 261.147 0.115274 0.743112 0
M  V30 2729 H 263.118 1.28151 2.69481 0
M  V30 2730 C 261.867 -0.319792 3.46226 0
M  V30 2731 H 261.19 0.374846 3.98039 0
M  V30 2732 H 262.63 -0.642435 4.19105 0
M  V30 2733 C 261.089 -1.53209 3.00048 0
M  V30 2734 O 261.619 -2.6309 3.03557 0
M  V30 2735 N 259.825 -1.38326 2.55566 0
M  V30 2736 H 259.372 -0.489292 2.5291 0
M  V30 2737 H 259.33 -2.19564 2.25031 0
M  V30 2738 N 263.102 -1.41638 0.69111 0
M  V30 2739 C 264.35 -2.00902 0.219758 0
M  V30 2740 C 264.671 -1.54994 -1.18329 0
M  V30 2741 O 263.941 -0.778628 -1.79762 0
M  V30 2742 H 262.521 -0.74289 0.0782558 0
M  V30 2743 H 265.183 -1.73327 0.891271 0
M  V30 2744 H 264.279 -3.11224 0.233708 0
M  V30 2745 N 264.58 -0.43555 -1.51462 0
M  V30 2746 C 265.808 0.130242 -2.0649 0
M  V30 2747 C 266.223 1.36614 -1.30315 0
M  V30 2748 O 265.58 1.78869 -0.362223 0
M  V30 2749 C 265.631 0.454253 -3.58635 0
M  V30 2750 O 265.352 -0.73259 -4.31931 0
M  V30 2751 C 266.853 1.07091 -4.3017 0
M  V30 2752 H 264.073 0.00871669 -0.670943 0
M  V30 2753 H 266.617 -0.614117 -1.95061 0
M  V30 2754 H 264.772 1.14851 -3.69984 0
M  V30 2755 H 265.186 -0.455787 -5.22516 0
M  V30 2756 H 266.66 1.24764 -5.37716 0
M  V30 2757 H 267.137 2.05144 -3.88346 0
M  V30 2758 H 267.743 0.416089 -4.2326 0
M  V30 2759 N 266.058 1.56714 -0.166846 0
M  V30 2760 C 267.469 1.83378 0.350646 0
M  V30 2761 C 267.82 1.08646 1.63372 0
M  V30 2762 O 266.945 0.338058 2.13743 0
M  V30 2763 C 267.54 3.32643 0.642963 0
M  V30 2764 C 266.099 3.59818 1.10491 0
M  V30 2765 C 265.246 2.76954 0.138411 0
M  V30 2766 H 268.197 1.53803 -0.391193 0
M  V30 2767 H 268.218 3.49878 1.49551 0
M  V30 2768 H 267.73 3.87007 -0.291055 0
M  V30 2769 H 265.831 3.1086 2.05418 0
M  V30 2770 H 265.944 4.68178 1.01716 0
M  V30 2771 H 264.308 2.4666 0.634911 0
M  V30 2772 H 265.091 3.34097 -0.789549 0
M  V30 2773 N 267.536 -0.106894 1.57237 0
M  V30 2774 C 268.784 -0.810921 1.85117 0
M  V30 2775 C 269.105 -1.7984 0.753827 0
M  V30 2776 O 268.375 -1.94649 -0.221056 0
M  V30 2777 H 266.955 -0.302466 0.683025 0
M  V30 2778 H 269.617 -0.0913324 1.94686 0
M  V30 2779 H 268.713 -1.34875 2.81452 0
M  V30 2780 N 269.014 -1.53014 -0.377408 0
M  V30 2781 C 270.425 -1.60438 -0.954798 0
M  V30 2782 C 270.776 -0.464418 -1.90624 0
M  V30 2783 O 269.901 0.41087 -2.12464 0
M  V30 2784 C 270.496 -2.90797 -1.73847 0
M  V30 2785 C 269.055 -3.00595 -2.26538 0
M  V30 2786 C 268.202 -2.55645 -1.07429 0
M  V30 2787 H 271.153 -1.57926 -0.156575 0
M  V30 2788 H 271.174 -2.77935 -2.5987 0
M  V30 2789 H 270.686 -3.73746 -1.04574 0
M  V30 2790 H 268.787 -2.22208 -2.99089 0
M  V30 2791 H 268.9 -4.05456 -2.5523 0
M  V30 2792 H 267.264 -2.10239 -1.43777 0
M  V30 2793 H 268.047 -3.41 -0.396728 0
M  V30 2794 N 270.492 0.636531 -1.44174 0
M  V30 2795 C 271.903 1.21806 -1.41493 0
M  V30 2796 C 272.254 1.95785 -0.1275 0
M  V30 2797 O 271.379 2.02147 0.772376 0
M  V30 2798 C 271.974 2.21551 -2.56321 0
M  V30 2799 C 270.533 2.75143 -2.56853 0
M  V30 2800 C 269.68 1.50052 -2.33195 0
M  V30 2801 H 272.631 0.427531 -1.52833 0
M  V30 2802 H 272.652 3.0405 -2.28765 0
M  V30 2803 H 272.164 1.67679 -3.50008 0
M  V30 2804 H 270.265 3.33033 -1.67093 0
M  V30 2805 H 270.378 3.2155 -3.55165 0
M  V30 2806 H 268.742 1.77993 -1.82183 0
M  V30 2807 H 269.525 0.980903 -3.28988 0
M  V30 2808 N 271.97 1.30982 0.876444 0
M  V30 2809 C 272.9 1.20668 1.99903 0
M  V30 2810 C 273.881 0.095354 1.69833 0
M  V30 2811 O 275.066 0.27885 1.92188 0
M  V30 2812 C 272.196 0.90655 3.3526 0
M  V30 2813 C 271.15 1.97675 3.79617 0
M  V30 2814 C 270.476 1.52943 5.1236 0
M  V30 2815 C 271.776 3.389 3.97422 0
M  V30 2816 H 273.47 2.14586 2.0879 0
M  V30 2817 H 271.016 1.03308 1.00317 0
M  V30 2818 H 272.969 0.821025 4.13324 0
M  V30 2819 H 271.693 -0.0682969 3.26529 0
M  V30 2820 H 270.352 2.05205 3.03787 0
M  V30 2821 H 270 0.54262 5.00065 0
M  V30 2822 H 269.7 2.24532 5.43009 0
M  V30 2823 H 271.224 1.45786 5.92941 0
M  V30 2824 H 272.638 3.34081 4.659 0
M  V30 2825 H 271.035 4.0865 4.3946 0
M  V30 2826 H 272.105 3.80163 3.01006 0
M  V30 2827 N 273.449 -1.08991 1.13837 0
M  V30 2828 C 274.726 -1.77863 0.813876 0
M  V30 2829 C 275.106 -1.99375 -0.693746 0
M  V30 2830 O 274.454 -1.59875 -1.63255 0
M  V30 2831 C 274.664 -3.0986 1.60586 0
M  V30 2832 C 276.012 -3.84493 1.8014 0
M  V30 2833 O 277.036 -3.19624 1.57222 0
M  V30 2834 O 275.895 -5.00957 2.18413 0
M  V30 2835 H 272.989 -0.771589 0.297624 0
M  V30 2836 H 275.535 -1.15507 1.24323 0
M  V30 2837 H 274.307 -2.89715 2.63022 0
M  V30 2838 H 273.93 -3.79942 1.17173 0
M  V30 2839 N 274.927 -0.932562 -1.27047 0
M  V30 2840 C 276.174 -0.575559 -1.94148 0
M  V30 2841 C 276.502 0.883984 -1.73251 0
M  V30 2842 O 275.757 1.64655 -1.0577 0
M  V30 2843 C 276.056 -0.853713 -3.47054 0
M  V30 2844 C 275.722 -2.29577 -3.88079 0
M  V30 2845 C 274.384 -2.68999 -3.9899 0
M  V30 2846 C 276.736 -3.23331 -4.08787 0
M  V30 2847 C 274.064 -4.01289 -4.28 0
M  V30 2848 C 276.416 -4.55207 -4.39282 0
M  V30 2849 C 275.08 -4.94457 -4.48407 0
M  V30 2850 H 274.35 -0.210612 -0.710439 0
M  V30 2851 H 276.997 -1.17744 -1.51025 0
M  V30 2852 H 275.302 -0.169204 -3.91434 0
M  V30 2853 H 276.999 -0.55639 -3.97121 0
M  V30 2854 H 273.589 -1.97994 -3.80127 0
M  V30 2855 H 277.773 -2.94074 -3.99793 0
M  V30 2856 H 273.029 -4.31374 -4.33275 0
M  V30 2857 H 277.203 -5.27852 -4.54252 0
M  V30 2858 H 274.83 -5.96994 -4.7064 0
M  V30 2859 N 276.405 1.4127 -0.698611 0
M  V30 2860 C 277.335 2.33447 -0.049629 0
M  V30 2861 C 278.316 1.51982 0.763898 0
M  V30 2862 O 279.501 1.80509 0.716257 0
M  V30 2863 C 276.631 3.35828 0.885267 0
M  V30 2864 C 275.585 4.27627 0.178613 0
M  V30 2865 C 274.911 5.20406 1.22807 0
M  V30 2866 C 276.211 5.13459 -0.956933 0
M  V30 2867 H 277.905 2.87966 -0.81951 0
M  V30 2868 H 275.451 1.38461 -0.395538 0
M  V30 2869 H 277.404 3.9924 1.34854 0
M  V30 2870 H 276.128 2.79666 1.68685 0
M  V30 2871 H 274.787 3.65643 -0.26466 0
M  V30 2872 H 274.435 4.60558 2.02226 0
M  V30 2873 H 274.135 5.82661 0.760239 0
M  V30 2874 H 275.659 5.86695 1.69179 0
M  V30 2875 H 277.073 5.70421 -0.573805 0
M  V30 2876 H 275.47 5.8467 -1.35205 0
M  V30 2877 H 276.54 4.50443 -1.79524 0
M  V30 2878 N 277.883 0.443576 1.51229 0
M  V30 2879 C 278.793 -0.370721 2.31652 0
M  V30 2880 C 279.809 -1.02186 1.40833 0
M  V30 2881 O 280.985 -1.01586 1.73903 0
M  V30 2882 C 278.05 -1.45376 3.14749 0
M  V30 2883 C 277.111 -0.822099 4.21355 0
M  V30 2884 C 276.344 -1.85353 5.0048 0
M  V30 2885 O 276.567 -3.07656 4.80316 0
M  V30 2886 O 275.501 -1.4406 5.84406 0
M  V30 2887 H 279.327 0.286002 3.0235 0
M  V30 2888 H 276.912 0.20598 1.47973 0
M  V30 2889 H 278.794 -2.08173 3.66391 0
M  V30 2890 H 277.469 -2.09445 2.46809 0
M  V30 2891 H 276.376 -0.155909 3.73775 0
M  V30 2892 H 277.709 -0.224797 4.91686 0
M  V30 2893 N 279.361 -1.56624 0.175154 0
M  V30 2894 C 280.777 -1.58571 -0.180966 0
M  V30 2895 C 280.977 -1.19065 -1.6256 0
M  V30 2896 O 280.033 -0.904044 -2.35761 0
M  V30 2897 C 281.346 -3.00522 0.103326 0
M  V30 2898 C 282.894 -3.12972 0.0418426 0
M  V30 2899 C 283.369 -4.57022 0.299175 0
M  V30 2900 N 284.86 -4.62541 0.247086 0
M  V30 2901 C 285.595 -5.71857 0.420318 0
M  V30 2902 N 285.091 -6.89717 0.652816 0
M  V30 2903 N 286.884 -5.60972 0.355957 0
M  V30 2904 H 279.035 -1.80589 1.11809 0
M  V30 2905 H 281.298 -0.837178 0.444788 0
M  V30 2906 H 281.004 -3.33916 1.10422 0
M  V30 2907 H 280.878 -3.72344 -0.603299 0
M  V30 2908 H 283.265 -2.79403 -0.949636 0
M  V30 2909 H 283.346 -2.43578 0.781238 0
M  V30 2910 H 282.99 -4.913 1.28788 0
M  V30 2911 H 282.92 -5.24579 -0.460876 0
M  V30 2912 H 285.411 -3.77829 0.0731895 0
M  V30 2913 H 285.724 -7.68911 0.774347 0
M  V30 2914 H 284.069 -6.91572 0.689476 0
M  V30 2915 H 287.26 -4.67773 0.174882 0
M  V30 2916 H 287.433 -6.46111 0.494388 0
M  V30 2917 N 280.839 0.0985539 -1.57292 0
M  V30 2918 C 282.086 0.802678 -1.85912 0
M  V30 2919 C 282.414 1.78901 -0.763186 0
M  V30 2920 O 281.669 1.94178 0.243559 0
M  V30 2921 C 281.968 1.56927 -3.21105 0
M  V30 2922 C 281.634 0.725376 -4.45027 0
M  V30 2923 C 280.296 0.492726 -4.78671 0
M  V30 2924 C 282.648 0.138493 -5.21016 0
M  V30 2925 C 279.976 -0.336727 -5.85733 0
M  V30 2926 C 282.328 -0.678264 -6.28953 0
M  V30 2927 C 280.992 -0.921039 -6.61115 0
M  V30 2928 H 280.262 0.293721 -0.680301 0
M  V30 2929 H 282.909 0.0642841 -1.91392 0
M  V30 2930 H 281.214 2.37914 -3.11294 0
M  V30 2931 H 282.911 2.11841 -3.40477 0
M  V30 2932 H 279.501 0.916815 -4.18679 0
M  V30 2933 H 283.685 0.305404 -4.95359 0
M  V30 2934 H 278.941 -0.533836 -6.09065 0
M  V30 2935 H 283.115 -1.1399 -6.87007 0
M  V30 2936 H 280.742 -1.56556 -7.43905 0
M  V30 2937 N 282.317 1.53212 0.369288 0
M  V30 2938 C 283.728 1.60943 0.946276 0
M  V30 2939 C 284.079 0.47452 1.90375 0
M  V30 2940 O 283.204 -0.399597 2.12679 0
M  V30 2941 C 283.799 2.91715 1.72302 0
M  V30 2942 C 282.358 3.01792 2.24941 0
M  V30 2943 C 281.505 2.56211 1.06072 0
M  V30 2944 H 284.456 1.58007 0.148198 0
M  V30 2945 H 284.477 2.79309 2.58393 0
M  V30 2946 H 283.989 3.74295 1.0259 0
M  V30 2947 H 282.09 2.23791 2.97906 0
M  V30 2948 H 282.203 4.06803 2.53077 0
M  V30 2949 H 280.567 2.10998 1.4266 0
M  V30 2950 H 281.35 3.41206 0.378639 0
M  V30 2951 N 283.795 -0.628877 1.44509 0
M  V30 2952 C 284.758 -1.72263 1.51188 0
M  V30 2953 C 285.758 -1.55907 0.39367 0
M  V30 2954 O 286.948 -1.61361 0.656377 0
M  V30 2955 C 284.08 -3.11365 1.38798 0
M  V30 2956 H 285.273 -1.67714 2.4862 0
M  V30 2957 H 282.826 -0.842737 1.31634 0
M  V30 2958 H 283.561 -3.21507 0.424693 0
M  V30 2959 H 283.346 -3.24644 2.19884 0
M  V30 2960 H 284.836 -3.91075 1.46458 0
M  V30 2961 N 285.273 -1.31445 -0.869486 0
M  V30 2962 C 286.498 -1.24256 -1.66058 0
M  V30 2963 C 286.923 0.188928 -1.87149 0
M  V30 2964 O 286.281 1.13522 -1.4136 0
M  V30 2965 C 286.329 -1.9924 -3.00559 0
M  V30 2966 O 285.433 -1.33007 -3.90362 0
M  V30 2967 H 284.774 -0.428973 -0.506831 0
M  V30 2968 H 287.304 -1.73521 -1.08404 0
M  V30 2969 H 287.314 -2.08854 -3.50491 0
M  V30 2970 H 285.989 -3.03342 -2.84528 0
M  V30 2971 H 284.566 -1.31848 -3.48813 0
M  V30 2972 N 286.751 1.08385 -1.14413 0
M  V30 2973 C 287.979 1.84517 -0.936001 0
M  V30 2974 C 288.394 1.81626 0.515503 0
M  V30 2975 O 287.751 1.22008 1.35721 0
M  V30 2976 C 287.802 3.32049 -1.42918 0
M  V30 2977 O 287.523 3.34951 -2.82381 0
M  V30 2978 C 289.024 4.24986 -1.26103 0
M  V30 2979 H 286.244 0.582491 -0.333084 0
M  V30 2980 H 288.788 1.36885 -1.5193 0
M  V30 2981 H 286.943 3.7707 -0.888641 0
M  V30 2982 H 287.357 4.27048 -3.04517 0
M  V30 2983 H 288.831 5.26615 -1.6547 0
M  V30 2984 H 289.308 4.38726 -0.20392 0
M  V30 2985 H 289.914 3.85791 -1.79012 0
M  V30 2986 N 288.23 0.939286 1.26551 0
M  V30 2987 C 289.477 0.585847 1.9384 0
M  V30 2988 C 289.805 -0.874784 1.73718 0
M  V30 2989 O 289.06 -1.64092 1.06642 0
M  V30 2990 C 289.359 0.872106 3.46596 0
M  V30 2991 C 289.025 2.31632 3.86856 0
M  V30 2992 C 287.687 2.71111 3.97558 0
M  V30 2993 C 290.039 3.25494 4.07066 0
M  V30 2994 C 287.367 4.03553 4.25866 0
M  V30 2995 C 289.719 4.57531 4.36862 0
M  V30 2996 C 288.383 4.96828 4.45778 0
M  V30 2997 H 287.653 0.214377 0.709312 0
M  V30 2998 H 290.3 1.18544 1.50398 0
M  V30 2999 H 288.605 0.18996 3.91339 0
M  V30 3000 H 290.302 0.577442 3.96821 0
M  V30 3001 H 286.892 2.00008 3.79071 0
M  V30 3002 H 291.076 2.9619 3.98227 0
M  V30 3003 H 286.332 4.33665 4.30981 0
M  V30 3004 H 290.506 5.30254 4.51446 0
M  V30 3005 H 288.133 5.99482 4.67468 0
M  V30 3006 N 289.708 -1.40897 0.706093 0
M  V30 3007 C 290.955 -2.01054 0.241531 0
M  V30 3008 C 291.283 -1.55956 -1.16223 0
M  V30 3009 O 290.538 -0.766336 -1.80072 0
M  V30 3010 C 290.837 -3.5646 0.259099 0
M  V30 3011 C 290.503 -4.21106 1.61184 0
M  V30 3012 C 289.165 -4.38479 1.98216 0
M  V30 3013 C 291.517 -4.57256 2.50132 0
M  V30 3014 C 288.845 -4.89282 3.2376 0
M  V30 3015 C 291.197 -5.09454 3.7502 0
M  V30 3016 C 289.861 -5.25037 4.12181 0
M  V30 3017 H 289.131 -0.73571 0.0883825 0
M  V30 3018 H 291.778 -1.68645 0.907257 0
M  V30 3019 H 290.083 -3.88721 -0.490189 0
M  V30 3020 H 291.78 -4.00826 -0.11804 0
M  V30 3021 H 288.37 -4.07966 1.31384 0
M  V30 3022 H 292.554 -4.43479 2.228 0
M  V30 3023 H 287.81 -4.99531 3.52532 0
M  V30 3024 H 291.984 -5.36404 4.44121 0
M  V30 3025 H 289.611 -5.64164 5.09532 0
M  V30 3026 N 291.186 -0.45159 -1.50991 0
M  V30 3027 C 292.432 0.102439 -2.03142 0
M  V30 3028 C 292.787 1.39138 -1.32884 0
M  V30 3029 O 292.08 1.86493 -0.439438 0
M  V30 3030 C 292.274 0.361728 -3.55565 0
M  V30 3031 C 292.103 -0.900535 -4.40591 0
M  V30 3032 C 290.873 -1.43821 -4.844 0
M  V30 3033 C 293.071 -1.79063 -4.82121 0
M  V30 3034 N 291.053 -2.65153 -5.53685 0
M  V30 3035 C 292.424 -2.84991 -5.50618 0
M  V30 3036 C 294.479 -1.80334 -4.64095 0
M  V30 3037 C 293.182 -3.92155 -6.02998 0
M  V30 3038 C 295.208 -2.86442 -5.17402 0
M  V30 3039 C 294.57 -3.9109 -5.85857 0
M  V30 3040 H 290.669 -0.00204537 -0.781997 0
M  V30 3041 H 293.253 -0.615446 -1.84717 0
M  V30 3042 H 291.424 1.04865 -3.73976 0
M  V30 3043 H 293.156 0.908372 -3.94374 0
M  V30 3044 H 289.911 -0.990117 -4.63135 0
M  V30 3045 H 290.335 -3.26717 -5.92946 0
M  V30 3046 H 294.977 -1.00753 -4.1062 0
M  V30 3047 H 292.695 -4.72565 -6.55521 0
M  V30 3048 H 296.281 -2.88386 -5.05297 0
M  V30 3049 H 295.161 -4.71845 -6.26364 0
M  V30 3050 N 292.664 1.56529 -0.183458 0
M  V30 3051 C 293.627 2.17324 0.728223 0
M  V30 3052 C 294.627 1.12453 1.14939 0
M  V30 3053 O 295.817 1.37902 1.06437 0
M  V30 3054 C 292.949 2.76591 1.99274 0
M  V30 3055 H 294.142 2.99241 0.198772 0
M  V30 3056 H 291.695 1.5616 0.0661391 0
M  V30 3057 H 292.43 1.98441 2.56499 0
M  V30 3058 H 292.215 3.5335 1.69959 0
M  V30 3059 H 293.705 3.23311 2.6431 0
M  V30 3060 N 294.142 -0.090211 1.57342 0
M  V30 3061 C 295.072 -1.10976 2.05443 0
M  V30 3062 C 296.053 -1.41482 0.944284 0
M  V30 3063 O 297.238 -1.51428 1.21586 0
M  V30 3064 C 294.368 -2.42831 2.48295 0
M  V30 3065 C 293.322 -2.26721 3.63018 0
M  V30 3066 C 292.648 -3.63796 3.91863 0
M  V30 3067 C 293.948 -1.7037 4.93732 0
M  V30 3068 H 295.642 -0.709564 2.9087 0
M  V30 3069 H 293.188 -0.339874 1.39932 0
M  V30 3070 H 295.141 -3.14431 2.80555 0
M  V30 3071 H 293.865 -2.84795 1.59873 0
M  V30 3072 H 292.524 -1.57565 3.31012 0
M  V30 3073 H 292.172 -4.03297 3.00601 0
M  V30 3074 H 291.872 -3.53861 4.69101 0
M  V30 3075 H 293.396 -4.36855 4.26603 0
M  V30 3076 H 294.81 -2.31816 5.24342 0
M  V30 3077 H 293.207 -1.71181 5.75167 0
M  V30 3078 H 294.277 -0.663542 4.80339 0
M  V30 3079 N 295.62 -1.53406 -0.361157 0
M  V30 3080 C 296.848 -1.73717 -1.12383 0
M  V30 3081 C 297.263 -0.468161 -1.82904 0
M  V30 3082 O 296.62 0.559198 -1.73722 0
M  V30 3083 C 296.671 -2.90558 -2.15078 0
M  V30 3084 O 296.392 -4.12549 -1.47428 0
M  V30 3085 C 297.893 -3.22777 -3.03858 0
M  V30 3086 H 295.113 -0.580896 -0.335858 0
M  V30 3087 H 297.657 -2.00167 -0.418728 0
M  V30 3088 H 295.812 -2.66489 -2.8118 0
M  V30 3089 H 296.226 -4.78009 -2.15887 0
M  V30 3090 H 297.7 -4.07927 -3.71887 0
M  V30 3091 H 298.177 -2.38329 -3.68912 0
M  V30 3092 H 298.783 -3.48787 -2.43367 0
M  V30 3093 N 297.098 0.621204 -1.44841 0
M  V30 3094 C 298.061 1.71459 -1.521 0
M  V30 3095 C 299.061 1.55696 -0.401933 0
M  V30 3096 O 300.251 1.61011 -0.664925 0
M  V30 3097 C 297.383 3.10624 -1.40447 0
M  V30 3098 H 298.576 1.66394 -2.49506 0
M  V30 3099 H 296.129 0.835745 -1.3208 0
M  V30 3100 H 296.864 3.21277 -0.441737 0
M  V30 3101 H 296.649 3.23473 -2.21602 0
M  V30 3102 H 298.139 3.90293 -1.4853 0
M  V30 3103 N 298.576 1.31904 0.862503 0
M  V30 3104 C 299.506 1.22782 1.98612 0
M  V30 3105 C 300.487 0.113362 1.69722 0
M  V30 3106 O 301.672 0.299218 1.91881 0
M  V30 3107 C 298.802 0.942058 3.34279 0
M  V30 3108 C 297.756 2.0169 3.77499 0
M  V30 3109 C 297.082 1.58369 5.10709 0
M  V30 3110 C 298.382 3.43096 3.93805 0
M  V30 3111 H 300.076 2.16788 2.06502 0
M  V30 3112 H 297.622 1.04366 0.992154 0
M  V30 3113 H 299.575 0.864818 4.1243 0
M  V30 3114 H 298.299 -0.0336603 3.26583 0
M  V30 3115 H 296.958 2.08416 3.01593 0
M  V30 3116 H 296.606 0.595628 4.99461 0
M  V30 3117 H 296.306 2.30279 5.40597 0
M  V30 3118 H 297.83 1.52067 5.91361 0
M  V30 3119 H 299.244 3.39003 4.62331 0
M  V30 3120 H 297.641 4.13288 4.35101 0
M  V30 3121 H 298.711 3.83334 2.96957 0
M  V30 3122 N 300.054 -1.07777 1.14986 0
M  V30 3123 C 300.984 -2.16865 0.865557 0
M  V30 3124 C 301.965 -1.69123 -0.182083 0
M  V30 3125 O 303.15 -1.94164 -0.0373815 0
M  V30 3126 C 300.28 -3.45539 0.349313 0
M  V30 3127 C 299.234 -4.06708 1.33313 0
M  V30 3128 C 298.56 -5.30411 0.675918 0
M  V30 3129 C 299.86 -4.47241 2.69764 0
M  V30 3130 H 301.554 -2.40905 1.77778 0
M  V30 3131 H 299.1 -1.15781 0.856203 0
M  V30 3132 H 301.053 -4.21174 0.137983 0
M  V30 3133 H 299.777 -3.21072 -0.598362 0
M  V30 3134 H 298.436 -3.33112 1.53075 0
M  V30 3135 H 298.084 -5.02232 -0.277767 0
M  V30 3136 H 297.784 -5.72293 1.33244 0
M  V30 3137 H 299.308 -6.08755 0.474262 0
M  V30 3138 H 300.722 -5.14025 2.53873 0
M  V30 3139 H 299.119 -5.00062 3.3175 0
M  V30 3140 H 300.189 -3.58818 3.26156 0
M  V30 3141 N 301.532 -0.945985 -1.26051 0
M  V30 3142 C 302.778 -0.597002 -1.93814 0
M  V30 3143 C 303.111 0.862484 -1.73997 0
M  V30 3144 O 302.386 1.61769 -1.07986 0
M  V30 3145 C 302.669 -0.945937 -3.47454 0
M  V30 3146 C 302.522 -2.46052 -3.76535 0
M  V30 3147 C 303.841 -0.464785 -4.37639 0
M  V30 3148 H 300.96 -0.218366 -0.703907 0
M  V30 3149 H 303.602 -1.18107 -1.48831 0
M  V30 3150 H 301.752 -0.448902 -3.85898 0
M  V30 3151 H 303.424 -3.03065 -3.47778 0
M  V30 3152 H 301.667 -2.90194 -3.22444 0
M  V30 3153 H 302.338 -2.65517 -4.83947 0
M  V30 3154 H 304.814 -0.891016 -4.06448 0
M  V30 3155 H 303.69 -0.737712 -5.4392 0
M  V30 3156 H 303.951 0.635274 -4.37512 0
M  V30 3157 N 303.011 1.40521 -0.713556 0
M  V30 3158 C 303.974 2.29098 -0.0684347 0
M  V30 3159 C 304.974 1.45268 0.689472 0
M  V30 3160 O 306.164 1.66205 0.521677 0
M  V30 3161 C 303.296 3.28446 0.913024 0
M  V30 3162 H 304.489 2.87645 -0.84855 0
M  V30 3163 H 302.042 1.48809 -0.47809 0
M  V30 3164 H 302.777 2.74913 1.72027 0
M  V30 3165 H 302.562 3.90327 0.372472 0
M  V30 3166 H 304.052 3.94777 1.36165 0
M  V30 3167 N 304.489 0.459591 1.5075 0
M  V30 3168 C 305.714 -0.0996819 2.0716 0
M  V30 3169 C 306.139 -1.33761 1.32249 0
M  V30 3170 O 305.497 -1.77551 0.366786 0
M  V30 3171 C 305.545 -0.378226 3.58611 0
M  V30 3172 O 304.649 -1.46081 3.85661 0
M  V30 3173 H 303.99 0.00791392 0.663953 0
M  V30 3174 H 306.52 0.647329 1.9409 0
M  V30 3175 H 306.53 -0.622135 4.03229 0
M  V30 3176 H 305.205 0.526439 4.12555 0
M  V30 3177 H 303.782 -1.20511 3.5289 0
M  V30 3178 N 305.967 -1.56429 0.191757 0
M  V30 3179 C 306.93 -2.17707 -0.716688 0
M  V30 3180 C 307.93 -1.13061 -1.14341 0
M  V30 3181 O 309.12 -1.38464 -1.05704 0
M  V30 3182 C 306.252 -2.77644 -1.97804 0
M  V30 3183 H 307.445 -2.99342 -0.1829 0
M  V30 3184 H 304.998 -1.56193 -0.0578566 0
M  V30 3185 H 305.733 -1.99799 -2.55443 0
M  V30 3186 H 305.518 -3.54246 -1.68083 0
M  V30 3187 H 307.008 -3.24708 -2.62592 0
M  V30 3188 N 307.445 0.0818655 -1.57387 0
M  V30 3189 C 308.408 1.08265 -2.02018 0
M  V30 3190 C 309.408 1.32183 -0.915664 0
M  V30 3191 O 310.598 1.28073 -1.18081 0
M  V30 3192 C 307.73 2.42871 -2.39221 0
M  V30 3193 H 308.923 0.698204 -2.91659 0
M  V30 3194 H 306.476 0.327303 -1.52835 0
M  V30 3195 H 307.211 2.86167 -1.52575 0
M  V30 3196 H 306.996 2.26855 -3.19811 0
M  V30 3197 H 308.486 3.14826 -2.74362 0
M  V30 3198 N 308.923 1.53595 0.353017 0
M  V30 3199 C 309.886 1.80232 1.41594 0
M  V30 3200 C 310.886 0.673081 1.46035 0
M  V30 3201 O 312.076 0.941335 1.46576 0
M  V30 3202 C 309.208 1.93578 2.80607 0
M  V30 3203 H 310.401 2.75174 1.19244 0
M  V30 3204 H 307.954 1.44864 0.586872 0
M  V30 3205 H 308.689 1.00746 3.08254 0
M  V30 3206 H 308.474 2.75724 2.78781 0
M  V30 3207 H 309.964 2.15735 3.57558 0
M  V30 3208 N 310.401 -0.613514 1.45168 0
M  V30 3209 C 311.648 -1.37268 1.48875 0
M  V30 3210 C 311.976 -1.94077 0.128161 0
M  V30 3211 O 311.231 -1.75178 -0.872416 0
M  V30 3212 C 311.53 -2.54347 2.51083 0
M  V30 3213 C 311.196 -2.1572 3.95949 0
M  V30 3214 C 309.858 -2.04899 4.35396 0
M  V30 3215 C 312.21 -1.85485 4.87078 0
M  V30 3216 C 309.538 -1.62057 5.63875 0
M  V30 3217 C 311.89 -1.4413 6.15962 0
M  V30 3218 C 310.554 -1.31863 6.54346 0
M  V30 3219 H 309.824 -0.502299 0.544773 0
M  V30 3220 H 312.471 -0.694021 1.78481 0
M  V30 3221 H 310.776 -3.27524 2.15024 0
M  V30 3222 H 312.473 -3.12577 2.51191 0
M  V30 3223 H 309.063 -2.25066 3.64751 0
M  V30 3224 H 313.247 -1.92745 4.57343 0
M  V30 3225 H 308.503 -1.51177 5.92415 0
M  V30 3226 H 312.677 -1.19778 6.86022 0
M  V30 3227 H 310.304 -0.984392 7.538 0
M  V30 3228 N 311.879 -1.3236 -0.855495 0
M  V30 3229 C 312.811 -1.17052 -1.97057 0
M  V30 3230 C 313.824 -0.10574 -1.62456 0
M  V30 3231 O 315.013 -0.354619 -1.74942 0
M  V30 3232 C 312.113 -0.769305 -3.30053 0
M  V30 3233 C 311.286 -1.9222 -3.929 0
M  V30 3234 C 310.345 -1.50466 -5.04228 0
M  V30 3235 O 309.371 -2.21655 -5.24269 0
M  V30 3236 N 310.573 -0.400209 -5.79119 0
M  V30 3237 H 313.338 -2.13103 -2.1073 0
M  V30 3238 H 310.899 -1.24885 -1.0303 0
M  V30 3239 H 312.891 -0.472407 -4.01933 0
M  V30 3240 H 311.461 0.100025 -3.1244 0
M  V30 3241 H 310.681 -2.38563 -3.13817 0
M  V30 3242 H 311.969 -2.69403 -4.31624 0
M  V30 3243 H 311.367 0.192319 -5.65373 0
M  V30 3244 H 309.924 -0.162912 -6.51596 0
M  V30 3245 N 313.357 1.07166 -1.15556 0
M  V30 3246 C 314.605 1.79443 -0.929764 0
M  V30 3247 C 314.926 1.87246 0.544414 0
M  V30 3248 O 314.196 1.37473 1.39564 0
M  V30 3249 H 312.776 0.664625 -0.341003 0
M  V30 3250 H 315.438 1.29499 -1.45657 0
M  V30 3251 H 314.534 2.81832 -1.34079 0
M  V30 3252 N 314.835 0.952656 1.25548 0
M  V30 3253 C 315.765 0.489287 2.28316 0
M  V30 3254 C 316.746 -0.463359 1.63667 0
M  V30 3255 O 317.931 -0.36274 1.90782 0
M  V30 3256 C 315.061 -0.235603 3.465 0
M  V30 3257 C 314.015 0.631593 4.23314 0
M  V30 3258 C 313.341 -0.223923 5.34231 0
M  V30 3259 C 314.641 1.90871 4.86174 0
M  V30 3260 H 316.335 1.34822 2.67326 0
M  V30 3261 H 313.881 0.649728 1.28509 0
M  V30 3262 H 315.834 -0.570882 4.17515 0
M  V30 3263 H 314.558 -1.12877 3.06474 0
M  V30 3264 H 313.217 0.949929 3.54079 0
M  V30 3265 H 312.865 -1.11678 4.90446 0
M  V30 3266 H 312.565 0.35299 5.86539 0
M  V30 3267 H 314.089 -0.554214 6.0808 0
M  V30 3268 H 315.503 1.63997 5.49343 0
M  V30 3269 H 313.9 2.43112 5.4865 0
M  V30 3270 H 314.97 2.61304 4.08471 0
M  V30 3271 N 316.313 -1.40141 0.720998 0
M  V30 3272 C 317.243 -2.33339 0.0867621 0
M  V30 3273 C 318.224 -1.53178 -0.739622 0
M  V30 3274 O 319.409 -1.81625 -0.687449 0
M  V30 3275 C 316.539 -3.37194 -0.831728 0
M  V30 3276 C 315.493 -4.27857 -0.110558 0
M  V30 3277 C 314.819 -5.22294 -1.14513 0
M  V30 3278 C 316.119 -5.11872 1.0385 0
M  V30 3279 H 317.813 -2.86626 0.865219 0
M  V30 3280 H 315.359 -1.37814 0.417516 0
M  V30 3281 H 317.312 -4.01335 -1.28485 0
M  V30 3282 H 316.036 -2.82314 -1.64214 0
M  V30 3283 H 314.695 -3.65176 0.322797 0
M  V30 3284 H 314.343 -4.63717 -1.94874 0
M  V30 3285 H 314.043 -5.83797 -0.667446 0
M  V30 3286 H 315.567 -5.89312 -1.59824 0
M  V30 3287 H 316.981 -5.69436 0.664482 0
M  V30 3288 H 315.378 -5.82445 1.4449 0
M  V30 3289 H 316.448 -4.4753 1.86668 0
M  V30 3290 N 317.792 -0.46758 -1.50504 0
M  V30 3291 C 318.722 0.318381 -2.31319 0
M  V30 3292 C 319.703 0.993564 -1.38066 0
M  V30 3293 O 320.888 0.991411 -1.66987 0
M  V30 3294 C 318.018 1.40275 -3.17711 0
M  V30 3295 C 316.972 0.849373 -4.19487 0
M  V30 3296 C 316.298 2.03177 -4.94594 0
M  V30 3297 C 317.598 -0.136942 -5.2212 0
M  V30 3298 H 319.292 -0.356106 -2.97275 0
M  V30 3299 H 316.838 -0.172703 -1.42961 0
M  V30 3300 H 318.791 1.96004 -3.73042 0
M  V30 3301 H 317.515 2.10596 -2.49634 0
M  V30 3302 H 316.174 0.314076 -3.65252 0
M  V30 3303 H 315.822 2.72187 -4.22993 0
M  V30 3304 H 315.522 1.66774 -5.63436 0
M  V30 3305 H 317.046 2.59403 -5.52759 0
M  V30 3306 H 318.46 0.331056 -5.72343 0
M  V30 3307 H 316.857 -0.41507 -5.98663 0
M  V30 3308 H 317.927 -1.06398 -4.73083 0
M  V30 3309 N 319.27 1.56325 -0.20005 0
M  V30 3310 C 320.2 2.22318 0.713916 0
M  V30 3311 C 321.181 1.18788 1.21752 0
M  V30 3312 O 322.366 1.47309 1.26545 0
M  V30 3313 C 319.496 2.88639 1.93144 0
M  V30 3314 C 318.45 3.98457 1.56255 0
M  V30 3315 C 317.776 4.51967 2.85709 0
M  V30 3316 C 319.076 5.16612 0.768747 0
M  V30 3317 H 320.77 2.98952 0.163755 0
M  V30 3318 H 318.316 1.43792 0.0773219 0
M  V30 3319 H 320.269 3.33491 2.57608 0
M  V30 3320 H 318.993 2.09419 2.50621 0
M  V30 3321 H 317.652 3.54305 0.941471 0
M  V30 3322 H 317.3 3.69503 3.41287 0
M  V30 3323 H 317 5.26071 2.6177 0
M  V30 3324 H 318.524 4.99523 3.51154 0
M  V30 3325 H 319.938 5.57977 1.3166 0
M  V30 3326 H 318.335 5.96812 0.627286 0
M  V30 3327 H 319.405 4.84358 -0.229168 0
M  V30 3328 N 320.748 -0.0735177 1.57428 0
M  V30 3329 C 321.678 -1.0879 2.06608 0
M  V30 3330 C 322.659 -1.40473 0.959237 0
M  V30 3331 O 323.844 -1.5013 1.23185 0
M  V30 3332 C 320.974 -2.40183 2.50857 0
M  V30 3333 C 319.928 -2.22858 3.65402 0
M  V30 3334 C 319.254 -3.59619 3.957 0
M  V30 3335 C 320.554 -1.65123 4.95511 0
M  V30 3336 H 322.248 -0.678673 2.91607 0
M  V30 3337 H 319.794 -0.325013 1.40284 0
M  V30 3338 H 321.747 -3.11437 2.83874 0
M  V30 3339 H 320.471 -2.83083 1.62885 0
M  V30 3340 H 319.13 -1.54045 3.32664 0
M  V30 3341 H 318.778 -4.00086 3.04861 0
M  V30 3342 H 318.478 -3.48866 4.72828 0
M  V30 3343 H 320.002 -4.32306 4.31212 0
M  V30 3344 H 321.416 -2.26241 5.26771 0
M  V30 3345 H 319.813 -1.65071 5.7695 0
M  V30 3346 H 320.883 -0.612559 4.81015 0
M  V30 3347 N 322.226 -1.5378 -0.344866 0
M  V30 3348 C 323.637 -1.62428 -0.920552 0
M  V30 3349 C 323.988 -0.504747 -1.89596 0
M  V30 3350 O 323.113 0.365711 -2.13287 0
M  V30 3351 C 323.708 -2.94419 -1.67639 0
M  V30 3352 C 322.267 -3.05333 -2.20111 0
M  V30 3353 C 321.414 -2.57866 -1.01982 0
M  V30 3354 H 324.365 -1.58222 -0.123042 0
M  V30 3355 H 324.386 -2.83384 -2.53917 0
M  V30 3356 H 323.898 -3.7588 -0.966224 0
M  V30 3357 H 321.999 -2.28502 -2.94308 0
M  V30 3358 H 322.112 -4.10778 -2.46573 0
M  V30 3359 H 320.476 -2.13241 -1.39285 0
M  V30 3360 H 321.259 -3.41765 -0.324308 0
M  V30 3361 N 323.704 0.605807 -1.45491 0
M  V30 3362 C 325.115 1.18777 -1.44045 0
M  V30 3363 C 325.466 1.95471 -0.169001 0
M  V30 3364 O 324.591 2.0374 0.729324 0
M  V30 3365 C 325.186 2.16064 -2.60963 0
M  V30 3366 C 323.745 2.69633 -2.62631 0
M  V30 3367 C 322.892 1.45072 -2.36325 0
M  V30 3368 H 325.843 0.395017 -1.53705 0
M  V30 3369 H 325.864 2.9913 -2.35163 0
M  V30 3370 H 325.376 1.60217 -3.53486 0
M  V30 3371 H 323.477 3.29414 -1.74119 0
M  V30 3372 H 323.59 3.13944 -3.61906 0
M  V30 3373 H 321.954 1.74089 -1.85917 0
M  V30 3374 H 322.737 0.910899 -3.30995 0
M  V30 3375 N 325.182 1.32811 0.848464 0
M  V30 3376 C 326.593 1.21315 1.41914 0
M  V30 3377 C 326.944 -0.171847 1.95446 0
M  V30 3378 O 326.069 -1.07093 1.88043 0
M  V30 3379 C 326.664 2.19631 2.57968 0
M  V30 3380 C 325.223 2.12003 3.11017 0
M  V30 3381 C 324.37 2.07651 1.83783 0
M  V30 3382 H 327.321 1.44549 0.655071 0
M  V30 3383 H 327.342 1.79845 3.35315 0
M  V30 3384 H 326.854 3.20423 2.18976 0
M  V30 3385 H 324.955 1.14481 3.54577 0
M  V30 3386 H 325.068 3.02111 3.71841 0
M  V30 3387 H 323.432 1.52983 2.03638 0
M  V30 3388 H 324.215 3.10235 1.47 0
M  V30 3389 N 326.66 -1.06551 1.16123 0
M  V30 3390 C 328.071 -1.60768 0.949232 0
M  V30 3391 C 328.422 -1.89523 -0.507508 0
M  V30 3392 O 327.547 -1.66671 -1.38021 0
M  V30 3393 C 328.142 -2.92086 1.71671 0
M  V30 3394 C 326.701 -3.43015 1.54977 0
M  V30 3395 C 325.848 -2.16947 1.72711 0
M  V30 3396 H 328.799 -0.895354 1.31031 0
M  V30 3397 H 328.82 -3.6138 1.19099 0
M  V30 3398 H 328.332 -2.71127 2.7769 0
M  V30 3399 H 326.433 -3.69039 0.513873 0
M  V30 3400 H 326.546 -4.18516 2.33198 0
M  V30 3401 H 324.91 -2.27041 1.15431 0
M  V30 3402 H 325.693 -1.98473 2.80113 0
M  V30 3403 N 328.138 -0.959301 -1.25041 0
M  V30 3404 C 329.363 -0.633507 -1.97488 0
M  V30 3405 C 329.788 0.788555 -1.70773 0
M  V30 3406 O 329.146 1.53394 -0.966431 0
M  V30 3407 C 329.194 -0.904057 -3.49083 0
M  V30 3408 O 328.298 0.0147939 -4.12397 0
M  V30 3409 H 327.639 -0.240368 -0.618966 0
M  V30 3410 H 330.169 -1.28717 -1.59038 0
M  V30 3411 H 330.179 -0.832203 -3.99423 0
M  V30 3412 H 328.854 -1.94048 -3.67856 0
M  V30 3413 H 327.431 -0.109664 -3.72739 0
M  V30 3414 N 329.616 1.39756 -0.72842 0
M  V30 3415 C 330.862 2.00942 -0.273892 0
M  V30 3416 C 331.195 1.57656 1.13394 0
M  V30 3417 O 330.47 0.802434 1.77176 0
M  V30 3418 C 330.753 3.58211 -0.368346 0
M  V30 3419 C 330.606 4.11534 -1.81548 0
M  V30 3420 C 331.925 4.39372 0.253054 0
M  V30 3421 H 329.044 0.730047 -0.100996 0
M  V30 3422 H 331.686 1.66056 -0.923337 0
M  V30 3423 H 329.836 3.88061 0.184588 0
M  V30 3424 H 331.508 3.92431 -2.42478 0
M  V30 3425 H 329.751 3.65341 -2.33898 0
M  V30 3426 H 330.422 5.20682 -1.83288 0
M  V30 3427 H 332.898 4.15527 -0.218224 0
M  V30 3428 H 331.774 5.48677 0.156585 0
M  V30 3429 H 332.035 4.21358 1.33826 0
M  V30 3430 N 331.094 0.475555 1.50254 0
M  V30 3431 C 332.505 0.0215174 1.86688 0
M  V30 3432 C 332.856 -1.38467 1.39001 0
M  V30 3433 O 331.981 -2.02732 0.756894 0
M  V30 3434 C 332.576 0.0322715 3.38785 0
M  V30 3435 C 331.135 -0.366314 3.74613 0
M  V30 3436 C 330.282 0.415832 2.74164 0
M  V30 3437 H 333.233 0.689612 1.42934 0
M  V30 3438 H 333.254 -0.76889 3.7265 0
M  V30 3439 H 332.766 1.05584 3.73462 0
M  V30 3440 H 330.867 -1.39406 3.45538 0
M  V30 3441 H 330.98 -0.064555 4.79057 0
M  V30 3442 H 329.344 -0.131048 2.54363 0
M  V30 3443 H 330.127 1.43899 3.11686 0
M  V30 3444 N 332.573 -1.56217 0.208337 0
M  V30 3445 C 333.801 -2.02337 -0.43215 0
M  V30 3446 C 334.216 -1.08834 -1.54275 0
M  V30 3447 O 333.573 -0.0955462 -1.8225 0
M  V30 3448 C 333.624 -3.48072 -0.976138 0
M  V30 3449 O 333.345 -4.38007 0.0901621 0
M  V30 3450 C 334.846 -4.09773 -1.69119 0
M  V30 3451 H 332.066 -0.662385 -0.10718 0
M  V30 3452 H 334.61 -2.01966 0.320923 0
M  V30 3453 H 332.765 -3.49099 -1.67954 0
M  V30 3454 H 333.179 -5.23543 -0.316701 0
M  V30 3455 H 334.653 -5.13556 -2.02397 0
M  V30 3456 H 335.13 -3.53999 -2.59964 0
M  V30 3457 H 335.736 -4.12556 -1.03332 0
M  V30 3458 N 334.051 0.0651679 -1.57465 0
M  V30 3459 C 335.299 0.761555 -1.87202 0
M  V30 3460 C 335.62 1.77778 -0.801243 0
M  V30 3461 O 334.89 1.95166 0.16937 0
M  V30 3462 H 333.47 0.284251 -0.690804 0
M  V30 3463 H 336.132 0.0396827 -1.9486 0
M  V30 3464 H 335.228 1.27365 -2.84929 0
M  V30 3465 N 335.529 1.53961 0.336706 0
M  V30 3466 C 336.439 1.85432 1.43708 0
M  V30 3467 C 337.455 0.745053 1.57242 0
M  V30 3468 O 338.631 1.03804 1.72588 0
M  V30 3469 C 335.696 2.06349 2.78605 0
M  V30 3470 C 334.757 3.30191 2.74358 0
M  V30 3471 C 333.99 3.50101 4.02822 0
M  V30 3472 O 334.213 2.7371 5.00439 0
M  V30 3473 O 333.147 4.43547 4.06878 0
M  V30 3474 H 336.973 2.78975 1.20028 0
M  V30 3475 H 334.558 1.39701 0.52952 0
M  V30 3476 H 336.44 2.21513 3.58483 0
M  V30 3477 H 335.115 1.15995 3.02203 0
M  V30 3478 H 334.022 3.20425 1.93078 0
M  V30 3479 H 335.355 4.2056 2.55715 0
M  V30 3480 N 337.007 -0.598083 1.45811 0
M  V30 3481 C 337.937 -1.71873 1.58057 0
M  V30 3482 C 338.918 -1.64533 0.431615 0
M  V30 3483 O 340.103 -1.82787 0.65595 0
M  V30 3484 C 337.233 -3.10495 1.55597 0
M  V30 3485 C 336.187 -3.32654 2.69305 0
M  V30 3486 C 335.513 -4.71646 2.51902 0
M  V30 3487 C 336.813 -3.21981 4.11248 0
M  V30 3488 H 338.507 -1.61881 2.51863 0
M  V30 3489 H 336.053 -0.777372 1.21214 0
M  V30 3490 H 338.006 -3.88699 1.6276 0
M  V30 3491 H 336.73 -3.2135 0.583255 0
M  V30 3492 H 335.389 -2.56843 2.61586 0
M  V30 3493 H 335.037 -4.79246 1.52748 0
M  V30 3494 H 334.737 -4.87426 3.2816 0
M  V30 3495 H 336.261 -5.52038 2.60933 0
M  V30 3496 H 337.675 -3.90049 4.20161 0
M  V30 3497 H 336.072 -3.49289 4.87972 0
M  V30 3498 H 337.142 -2.1928 4.32486 0
M  V30 3499 N 338.485 -1.33259 -0.841409 0
M  V30 3500 C 339.733 -1.24326 -1.59334 0
M  V30 3501 C 340.054 0.191564 -1.94057 0
M  V30 3502 O 339.324 1.11967 -1.60749 0
M  V30 3503 H 337.904 -0.457174 -0.590763 0
M  V30 3504 H 340.566 -1.66947 -1.00571 0
M  V30 3505 H 339.662 -1.8352 -2.52442 0
M  V30 3506 N 339.963 1.05934 -1.16686 0
M  V30 3507 C 341.188 1.83029 -0.975455 0
M  V30 3508 C 341.613 1.82096 0.471452 0
M  V30 3509 O 340.971 1.22443 1.33706 0
M  V30 3510 C 341.019 3.27372 -1.51195 0
M  V30 3511 O 340.123 4.06054 -0.720701 0
M  V30 3512 H 339.464 0.566194 -0.346872 0
M  V30 3513 H 341.994 1.33541 -1.55009 0
M  V30 3514 H 342.004 3.78186 -1.53099 0
M  V30 3515 H 340.679 3.27366 -2.56523 0
M  V30 3516 H 339.256 3.64812 -0.772458 0
M  V30 3517 N 341.441 0.965919 1.2453 0
M  V30 3518 C 342.689 0.625593 1.92174 0
M  V30 3519 C 343.01 -0.841652 1.75901 0
M  V30 3520 O 342.28 -1.60061 1.12948 0
M  V30 3521 H 340.86 0.228388 0.71123 0
M  V30 3522 H 343.522 1.2266 1.51461 0
M  V30 3523 H 342.618 0.864653 2.99884 0
M  V30 3524 N 342.919 -1.39368 0.735821 0
M  V30 3525 C 343.849 -2.33234 0.111506 0
M  V30 3526 C 344.83 -1.53954 -0.723334 0
M  V30 3527 O 346.015 -1.82344 -0.668147 0
M  V30 3528 C 343.145 -3.38057 -0.795917 0
M  V30 3529 C 342.099 -4.2795 -0.065172 0
M  V30 3530 C 341.425 -5.23479 -1.08967 0
M  V30 3531 C 342.725 -5.10741 1.09273 0
M  V30 3532 H 344.419 -2.85692 0.895571 0
M  V30 3533 H 341.965 -1.37364 0.432109 0
M  V30 3534 H 343.918 -4.02675 -1.24221 0
M  V30 3535 H 342.642 -2.8404 -1.61211 0
M  V30 3536 H 341.301 -3.64813 0.361511 0
M  V30 3537 H 340.949 -4.65758 -1.89944 0
M  V30 3538 H 340.649 -5.84472 -0.605489 0
M  V30 3539 H 342.173 -5.90974 -1.53565 0
M  V30 3540 H 343.587 -5.68699 0.724841 0
M  V30 3541 H 341.984 -5.8088 1.50659 0
M  V30 3542 H 343.054 -4.45525 1.91404 0
M  V30 3543 N 344.397 -0.483516 -1.5 0
M  V30 3544 C 345.329 0.340634 -2.26655 0
M  V30 3545 C 346.342 0.946152 -1.32483 0
M  V30 3546 O 347.531 0.832453 -1.579 0
M  V30 3547 C 344.631 1.4929 -3.04246 0
M  V30 3548 C 343.804 0.997903 -4.25865 0
M  V30 3549 C 342.863 2.02569 -4.85646 0
M  V30 3550 O 341.889 1.60128 -5.46212 0
M  V30 3551 N 343.091 3.3548 -4.73744 0
M  V30 3552 H 345.856 -0.316577 -2.98023 0
M  V30 3553 H 343.417 -0.315024 -1.58806 0
M  V30 3554 H 345.409 2.17766 -3.41116 0
M  V30 3555 H 343.979 2.05458 -2.35597 0
M  V30 3556 H 343.199 0.138617 -3.93956 0
M  V30 3557 H 344.487 0.645305 -5.04691 0
M  V30 3558 H 343.885 3.72661 -4.25605 0
M  V30 3559 H 342.442 3.99718 -5.14848 0
M  V30 3560 N 345.875 1.56104 -0.216619 0
M  V30 3561 C 347.121 1.98466 0.417033 0
M  V30 3562 C 347.454 1.10403 1.59765 0
M  V30 3563 O 346.729 0.160632 1.93836 0
M  V30 3564 C 347.012 3.49769 0.85637 0
M  V30 3565 C 346.865 4.48606 -0.327546 0
M  V30 3566 C 348.184 4.05339 1.7143 0
M  V30 3567 H 345.303 0.721551 0.150112 0
M  V30 3568 H 347.945 1.87423 -0.311864 0
M  V30 3569 H 346.095 3.5931 1.47745 0
M  V30 3570 H 347.767 4.5108 -0.965618 0
M  V30 3571 H 346.01 4.22682 -0.975805 0
M  V30 3572 H 346.681 5.51995 0.0227149 0
M  V30 3573 H 349.157 3.98712 1.19031 0
M  V30 3574 H 348.033 5.11533 1.99061 0
M  V30 3575 H 348.294 3.51918 2.67593 0
M  V30 3576 N 347.353 -0.0568162 1.57498 0
M  V30 3577 C 348.601 -0.751617 1.87604 0
M  V30 3578 C 348.922 -1.77351 0.81066 0
M  V30 3579 O 348.192 -1.95254 -0.159018 0
M  V30 3580 H 346.772 -0.280583 0.692302 0
M  V30 3581 H 349.434 -0.0293483 1.94878 0
M  V30 3582 H 348.53 -1.25852 2.856 0
M  V30 3583 N 348.832 -1.54138 -0.328536 0
M  V30 3584 C 349.795 -1.82462 -1.38709 0
M  V30 3585 C 350.795 -0.696229 -1.44946 0
M  V30 3586 O 351.985 -0.964535 -1.4506 0
M  V30 3587 C 349.117 -1.98018 -2.77492 0
M  V30 3588 H 350.31 -2.77037 -1.14851 0
M  V30 3589 H 347.863 -1.45779 -0.563751 0
M  V30 3590 H 348.598 -1.05637 -3.06613 0
M  V30 3591 H 348.383 -2.80124 -2.74359 0
M  V30 3592 H 349.873 -2.21396 -3.54081 0
M  V30 3593 N 350.31 0.590341 -1.46126 0
M  V30 3594 C 351.721 1.17243 -1.45296 0
M  V30 3595 C 352.072 1.95281 -0.189723 0
M  V30 3596 O 351.197 2.04502 0.707674 0
M  V30 3597 C 351.792 2.13284 -2.6324 0
M  V30 3598 C 350.351 2.66832 -2.65476 0
M  V30 3599 C 349.498 1.42557 -2.3785 0
M  V30 3600 H 352.449 0.378692 -1.54116 0
M  V30 3601 H 352.47 2.96619 -2.38323 0
M  V30 3602 H 351.982 1.56459 -3.55165 0
M  V30 3603 H 350.083 3.27548 -1.77603 0
M  V30 3604 H 350.196 3.10088 -3.65215 0
M  V30 3605 H 348.56 1.72107 -1.87753 0
M  V30 3606 H 349.343 0.875741 -3.31942 0
M  V30 3607 N 351.788 1.33704 0.83433 0
M  V30 3608 C 353.036 1.25169 1.58673 0
M  V30 3609 C 353.357 -0.18127 1.94156 0
M  V30 3610 O 352.627 -1.11113 1.6134 0
M  V30 3611 H 351.207 0.4603 0.58833 0
M  V30 3612 H 353.869 1.67478 0.996847 0
M  V30 3613 H 352.965 1.84856 2.51465 0
M  V30 3614 N 353.266 -1.05314 1.17247 0
M  V30 3615 C 354.229 -2.112 0.890357 0
M  V30 3616 C 355.229 -1.60359 -0.118943 0
M  V30 3617 O 356.419 -1.73833 0.113086 0
M  V30 3618 C 353.551 -3.39266 0.333422 0
M  V30 3619 H 354.744 -2.37659 1.82916 0
M  V30 3620 H 352.297 -1.21538 0.982758 0
M  V30 3621 H 353.032 -3.18462 -0.612587 0
M  V30 3622 H 352.817 -3.77477 1.06082 0
M  V30 3623 H 354.307 -4.17315 0.154322 0
M  V30 3624 N 354.744 -0.972509 -1.24016 0
M  V30 3625 C 355.654 -0.5143 -2.28893 0
M  V30 3626 C 356.67 0.427078 -1.68677 0
M  V30 3627 O 357.846 0.298939 -1.99169 0
M  V30 3628 C 354.911 0.183598 -3.46214 0
M  V30 3629 C 353.972 -0.798202 -4.21814 0
M  V30 3630 C 353.205 -0.133514 -5.33533 0
M  V30 3631 O 353.428 1.07714 -5.60137 0
M  V30 3632 O 352.362 -0.828103 -5.96176 0
M  V30 3633 H 356.188 -1.38629 -2.70214 0
M  V30 3634 H 353.773 -0.739769 -1.29799 0
M  V30 3635 H 355.655 0.575433 -4.17453 0
M  V30 3636 H 354.33 1.03048 -3.0686 0
M  V30 3637 H 353.237 -1.24059 -3.52931 0
M  V30 3638 H 354.57 -1.61364 -4.64997 0
M  V30 3639 N 356.222 1.38976 -0.743202 0
M  V30 3640 C 357.132 2.3434 -0.110399 0
M  V30 3641 C 358.148 1.58741 0.712559 0
M  V30 3642 O 359.324 1.9099 0.639125 0
M  V30 3643 C 356.389 3.37812 0.780012 0
M  V30 3644 C 355.45 4.29263 -0.0561319 0
M  V30 3645 C 354.683 5.27793 0.791875 0
M  V30 3646 O 354.906 5.33043 2.03031 0
M  V30 3647 O 353.84 6.01512 0.216183 0
M  V30 3648 H 357.666 2.90129 -0.897714 0
M  V30 3649 H 355.251 1.40643 -0.503966 0
M  V30 3650 H 357.133 4.01194 1.28923 0
M  V30 3651 H 355.808 2.84395 1.546 0
M  V30 3652 H 354.715 3.69076 -0.611056 0
M  V30 3653 H 356.048 4.85907 -0.784531 0
M  V30 3654 N 357.7 0.491464 1.49741 0
M  V30 3655 C 358.61 -0.296835 2.32715 0
M  V30 3656 C 359.626 -0.976536 1.44013 0
M  V30 3657 O 360.802 -0.960023 1.77047 0
M  V30 3658 C 357.867 -1.35288 3.19215 0
M  V30 3659 C 356.928 -0.687632 4.23757 0
M  V30 3660 C 356.161 -1.69336 5.06123 0
M  V30 3661 O 356.384 -2.92219 4.89861 0
M  V30 3662 O 355.318 -1.25394 5.88693 0
M  V30 3663 H 359.144 0.382048 3.01287 0
M  V30 3664 H 356.729 0.252953 1.47243 0
M  V30 3665 H 358.611 -1.96411 3.72828 0
M  V30 3666 H 357.286 -2.01487 2.53347 0
M  V30 3667 H 356.193 -0.0369159 3.74082 0
M  V30 3668 H 357.526 -0.0682566 4.92153 0
M  V30 3669 N 359.178 -1.55987 0.224894 0
M  V30 3670 C 360.424 -1.98684 -0.406502 0
M  V30 3671 C 360.757 -1.11248 -1.59177 0
M  V30 3672 O 360.032 -0.170909 -1.93748 0
M  V30 3673 C 360.315 -3.50218 -0.837808 0
M  V30 3674 C 360.168 -4.48426 0.351332 0
M  V30 3675 C 361.487 -4.06243 -1.69278 0
M  V30 3676 H 358.606 -0.722337 -0.146283 0
M  V30 3677 H 361.248 -1.87255 0.321799 0
M  V30 3678 H 359.398 -3.60089 -1.45837 0
M  V30 3679 H 361.07 -4.50562 0.989526 0
M  V30 3680 H 359.313 -4.22159 0.998207 0
M  V30 3681 H 359.984 -5.52 0.00655905 0
M  V30 3682 H 362.46 -3.99337 -1.16914 0
M  V30 3683 H 361.336 -5.12581 -1.96346 0
M  V30 3684 H 361.597 -3.53332 -2.65723 0
M  V30 3685 N 360.656 0.0484629 -1.57525 0
M  V30 3686 C 361.566 1.07241 -2.08654 0
M  V30 3687 C 362.582 1.409 -1.02095 0
M  V30 3688 O 363.758 1.50609 -1.33712 0
M  V30 3689 C 360.823 2.36008 -2.5397 0
M  V30 3690 C 359.884 2.09108 -3.7493 0
M  V30 3691 C 359.117 3.31736 -4.18075 0
M  V30 3692 O 359.34 4.41714 -3.60895 0
M  V30 3693 O 358.274 3.18576 -5.10679 0
M  V30 3694 H 362.1 0.667965 -2.96263 0
M  V30 3695 H 359.685 0.26417 -1.47046 0
M  V30 3696 H 361.567 3.11747 -2.83535 0
M  V30 3697 H 360.242 2.75786 -1.69481 0
M  V30 3698 H 359.149 1.31 -3.50414 0
M  V30 3699 H 360.482 1.74198 -4.60343 0
M  V30 3700 N 362.134 1.5431 0.320358 0
M  V30 3701 C 363.044 1.86946 1.41734 0
M  V30 3702 C 364.06 0.761689 1.56443 0
M  V30 3703 O 365.236 1.05629 1.71477 0
M  V30 3704 C 362.301 2.09293 2.76401 0
M  V30 3705 C 361.362 3.33082 2.70841 0
M  V30 3706 C 360.595 3.54353 3.99086 0
M  V30 3707 O 360.818 2.79002 4.97508 0
M  V30 3708 O 359.752 4.47838 4.0215 0
M  V30 3709 H 363.578 2.80232 1.17062 0
M  V30 3710 H 361.163 1.40255 0.514673 0
M  V30 3711 H 363.045 2.25303 3.56113 0
M  V30 3712 H 361.72 1.19194 3.00956 0
M  V30 3713 H 360.627 3.22454 1.89668 0
M  V30 3714 H 361.96 4.23249 2.5124 0
M  V30 3715 N 363.613 -0.582584 1.46437 0
M  V30 3716 C 364.838 -1.37168 1.55563 0
M  V30 3717 C 365.263 -1.87061 0.19743 0
M  V30 3718 O 364.621 -1.61572 -0.822451 0
M  V30 3719 C 364.669 -2.53511 2.56446 0
M  V30 3720 O 363.773 -3.54953 2.09958 0
M  V30 3721 H 363.114 -0.408494 0.523477 0
M  V30 3722 H 365.644 -0.706646 1.9201 0
M  V30 3723 H 365.654 -3.00426 2.76058 0
M  V30 3724 H 364.329 -2.16549 3.55076 0
M  V30 3725 H 362.906 -3.14516 2.00334 0
M  V30 3726 N 365.091 -1.34144 -0.827227 0
M  V30 3727 C 366.316 -1.29476 -1.62021 0
M  V30 3728 C 366.741 0.129292 -1.87655 0
M  V30 3729 O 366.099 1.08967 -1.449 0
M  V30 3730 C 366.147 -2.08702 -2.94068 0
M  V30 3731 O 365.251 -1.45359 -3.85933 0
M  V30 3732 H 364.592 -0.444881 -0.492927 0
M  V30 3733 H 367.122 -1.76882 -1.02829 0
M  V30 3734 H 367.132 -2.19898 -3.43669 0
M  V30 3735 H 365.807 -3.12241 -2.74734 0
M  V30 3736 H 364.384 -1.42879 -3.44442 0
M  V30 3737 N 366.569 1.04691 -1.17803 0
M  V30 3738 C 367.98 1.59238 -0.974689 0
M  V30 3739 C 368.331 1.90306 0.477292 0
M  V30 3740 O 367.456 1.68846 1.35352 0
M  V30 3741 C 368.051 2.89318 -1.76296 0
M  V30 3742 C 366.61 3.40506 -1.60414 0
M  V30 3743 C 365.757 2.14172 -1.76141 0
M  V30 3744 H 368.708 0.874395 -1.32439 0
M  V30 3745 H 368.729 3.5944 -1.24833 0
M  V30 3746 H 368.241 2.66675 -2.81968 0
M  V30 3747 H 366.342 3.68175 -0.572519 0
M  V30 3748 H 366.455 4.14753 -2.39827 0
M  V30 3749 H 364.819 2.25176 -1.19028 0
M  V30 3750 H 365.602 1.93992 -2.83235 0
M  V30 3751 N 368.047 0.979072 1.23499 0
M  V30 3752 C 368.977 0.537606 2.27227 0
M  V30 3753 C 369.958 -0.428539 1.64613 0
M  V30 3754 O 371.143 -0.322191 1.91509 0
M  V30 3755 C 368.273 -0.162052 3.46922 0
M  V30 3756 C 367.227 0.721242 4.21879 0
M  V30 3757 C 366.553 -0.110555 5.34586 0
M  V30 3758 C 367.853 2.01141 4.82016 0
M  V30 3759 H 369.547 1.40462 2.64406 0
M  V30 3760 H 367.093 0.67684 1.27102 0
M  V30 3761 H 369.046 -0.482192 4.18632 0
M  V30 3762 H 367.77 -1.06351 3.08799 0
M  V30 3763 H 366.429 1.02482 3.51984 0
M  V30 3764 H 366.077 -1.0125 4.92704 0
M  V30 3765 H 365.777 0.477325 5.85658 0
M  V30 3766 H 367.301 -0.425107 6.09118 0
M  V30 3767 H 368.715 1.75612 5.45741 0
M  V30 3768 H 367.112 2.54695 5.43369 0
M  V30 3769 H 368.182 2.69909 4.02836 0
M  V30 3770 N 369.525 -1.3858 0.750561 0
M  V30 3771 C 370.457 -2.29057 0.0810714 0
M  V30 3772 C 371.47 -1.47596 -0.686973 0
M  V30 3773 O 372.659 -1.70495 -0.528563 0
M  V30 3774 C 369.759 -3.26475 -0.909247 0
M  V30 3775 C 368.932 -4.36945 -0.199478 0
M  V30 3776 C 367.991 -5.14572 -1.10011 0
M  V30 3777 O 367.017 -5.66321 -0.57177 0
M  V30 3778 N 368.219 -5.27262 -2.42849 0
M  V30 3779 H 370.984 -2.87153 0.858087 0
M  V30 3780 H 368.545 -1.50328 0.60109 0
M  V30 3781 H 370.537 -3.75285 -1.51471 0
M  V30 3782 H 369.107 -2.69298 -1.58736 0
M  V30 3783 H 368.327 -3.8981 0.586664 0
M  V30 3784 H 369.615 -5.07963 0.291783 0
M  V30 3785 H 369.013 -4.86763 -2.88233 0
M  V30 3786 H 367.57 -5.79456 -2.98453 0
M  V30 3787 N 371.003 -0.499398 -1.49478 0
M  V30 3788 C 371.913 0.284489 -2.32869 0
M  V30 3789 C 372.929 0.968885 -1.44529 0
M  V30 3790 O 374.105 0.95062 -1.77553 0
M  V30 3791 C 371.17 1.33594 -3.19928 0
M  V30 3792 C 370.231 0.665149 -4.24116 0
M  V30 3793 C 369.464 1.6665 -5.07014 0
M  V30 3794 O 369.687 2.89618 -4.91404 0
M  V30 3795 O 368.621 1.22271 -5.8935 0
M  V30 3796 H 372.447 -0.39802 -3.01081 0
M  V30 3797 H 370.032 -0.260758 -1.47107 0
M  V30 3798 H 371.914 1.94431 -3.73864 0
M  V30 3799 H 370.589 2.0014 -2.54412 0
M  V30 3800 H 369.496 0.0170769 -3.74096 0
M  V30 3801 H 370.829 0.0421555 -4.92182 0
M  V30 3802 N 372.481 1.55866 -0.233164 0
M  V30 3803 C 373.892 1.847 0.272554 0
M  V30 3804 C 374.243 1.15477 1.58617 0
M  V30 3805 O 373.368 0.42841 2.12117 0
M  V30 3806 C 373.963 3.35071 0.501299 0
M  V30 3807 C 372.522 3.6418 0.951304 0
M  V30 3808 C 371.669 2.77292 0.0208209 0
M  V30 3809 H 374.62 1.52005 -0.456074 0
M  V30 3810 H 374.641 3.55906 1.34577 0
M  V30 3811 H 374.153 3.85424 -0.454936 0
M  V30 3812 H 372.254 3.19293 1.92049 0
M  V30 3813 H 372.367 4.72071 0.817675 0
M  V30 3814 H 370.731 2.49131 0.529723 0
M  V30 3815 H 371.514 3.30448 -0.93054 0
M  V30 3816 N 373.959 -0.0401083 1.57549 0
M  V30 3817 C 375.37 -0.588097 1.77196 0
M  V30 3818 C 375.721 -1.76209 0.862832 0
M  V30 3819 O 374.846 -2.16331 0.0548389 0
M  V30 3820 C 375.441 -1.07363 3.21339 0
M  V30 3821 C 374 -1.56723 3.42221 0
M  V30 3822 C 373.147 -0.50041 2.72747 0
M  V30 3823 H 376.098 0.186119 1.57605 0
M  V30 3824 H 376.119 -1.94143 3.27244 0
M  V30 3825 H 375.631 -0.218975 3.87482 0
M  V30 3826 H 373.732 -2.4441 2.81237 0
M  V30 3827 H 373.845 -1.62234 4.50796 0
M  V30 3828 H 372.209 -0.952894 2.36203 0
M  V30 3829 H 372.992 0.344599 3.41566 0
M  V30 3830 N 375.437 -1.54477 -0.31217 0
M  V30 3831 C 376.662 -1.77526 -1.07235 0
M  V30 3832 C 377.087 -0.527775 -1.80544 0
M  V30 3833 O 376.445 0.52121 -1.73646 0
M  V30 3834 C 376.493 -2.97535 -2.03728 0
M  V30 3835 O 375.597 -2.69878 -3.11833 0
M  V30 3836 H 374.938 -0.58792 -0.30862 0
M  V30 3837 H 377.468 -2.01532 -0.352993 0
M  V30 3838 H 377.478 -3.25198 -2.46395 0
M  V30 3839 H 376.153 -3.87996 -1.49774 0
M  V30 3840 H 374.73 -2.53199 -2.7376 0
M  V30 3841 N 376.915 0.57481 -1.46744 0
M  V30 3842 C 377.847 1.69804 -1.53946 0
M  V30 3843 C 378.86 1.57098 -0.427106 0
M  V30 3844 O 380.049 1.64378 -0.695863 0
M  V30 3845 C 377.149 3.08125 -1.4111 0
M  V30 3846 C 376.322 3.46757 -2.66605 0
M  V30 3847 C 375.381 4.6417 -2.47855 0
M  V30 3848 O 374.407 4.69634 -3.21609 0
M  V30 3849 N 375.609 5.59553 -1.54534 0
M  V30 3850 H 378.374 1.64077 -2.50796 0
M  V30 3851 H 375.935 0.761 -1.429 0
M  V30 3852 H 377.927 3.84478 -1.26328 0
M  V30 3853 H 376.497 3.08175 -0.524109 0
M  V30 3854 H 375.717 2.6003 -2.96274 0
M  V30 3855 H 377.005 3.69337 -3.49954 0
M  V30 3856 H 376.403 5.57881 -0.937304 0
M  V30 3857 H 374.96 6.35304 -1.45711 0
M  V30 3858 N 378.394 1.34581 0.820102 0
M  V30 3859 C 379.357 1.2628 1.91275 0
M  V30 3860 C 380.357 0.177344 1.59819 0
M  V30 3861 O 381.547 0.430156 1.68806 0
M  V30 3862 C 378.679 0.950327 3.27386 0
M  V30 3863 H 379.872 2.23421 2.00057 0
M  V30 3864 H 377.425 1.1891 1.0144 0
M  V30 3865 H 378.16 -0.0177938 3.24295 0
M  V30 3866 H 377.945 1.73549 3.51601 0
M  V30 3867 H 379.435 0.917492 4.07396 0
M  V30 3868 N 379.872 -1.04064 1.18357 0
M  V30 3869 C 380.835 -2.10243 0.912707 0
M  V30 3870 C 381.835 -1.60477 -0.101928 0
M  V30 3871 O 383.025 -1.73703 0.131517 0
M  V30 3872 C 380.157 -3.38893 0.369387 0
M  V30 3873 H 381.35 -2.35706 1.85426 0
M  V30 3874 H 378.903 -1.20489 0.995594 0
M  V30 3875 H 379.638 -3.19094 -0.578776 0
M  V30 3876 H 379.423 -3.76331 1.1008 0
M  V30 3877 H 380.913 -4.17128 0.198575 0
M  V30 3878 N 381.35 -0.985608 -1.22978 0
M  V30 3879 C 382.598 -0.656087 -1.91154 0
M  V30 3880 C 382.919 0.813561 -1.77218 0
M  V30 3881 O 382.189 1.58244 -1.1548 0
M  V30 3882 H 380.769 -0.239674 -0.707506 0
M  V30 3883 H 383.431 -1.25054 -1.49491 0
M  V30 3884 H 382.527 -0.912253 -2.9847 0
M  V30 3885 N 382.828 1.3818 -0.7579 0
M  V30 3886 C 384.056 2.04301 -0.326937 0
M  V30 3887 C 384.471 1.57163 1.0462 0
M  V30 3888 O 383.828 0.746626 1.66529 0
M  V30 3889 C 383.879 3.59846 -0.345363 0
M  V30 3890 O 383.6 4.05256 -1.66432 0
M  V30 3891 C 385.101 4.4319 0.098927 0
M  V30 3892 H 382.321 0.656443 -0.139012 0
M  V30 3893 H 384.865 1.76786 -1.02796 0
M  V30 3894 H 383.02 3.86182 0.306955 0
M  V30 3895 H 383.434 4.99709 -1.59345 0
M  V30 3896 H 384.908 5.51989 0.0348745 0
M  V30 3897 H 385.385 4.23947 1.14741 0
M  V30 3898 H 385.991 4.22051 -0.52468 0
M  V30 3899 N 384.306 0.507319 1.49211 0
M  V30 3900 C 385.534 -0.0315749 2.06876 0
M  V30 3901 C 385.949 -1.30241 1.36685 0
M  V30 3902 O 385.306 -1.76937 0.447152 0
M  V30 3903 C 385.357 -0.282627 3.60393 0
M  V30 3904 O 385.078 0.937835 4.27944 0
M  V30 3905 C 386.579 -0.864453 4.3479 0
M  V30 3906 H 383.799 0.0233048 0.670595 0
M  V30 3907 H 386.343 0.706484 1.91909 0
M  V30 3908 H 384.498 -0.97068 3.75042 0
M  V30 3909 H 384.912 0.704567 5.19746 0
M  V30 3910 H 386.386 -0.989664 5.43056 0
M  V30 3911 H 386.863 -1.86382 3.97692 0
M  V30 3912 H 387.469 -0.213672 4.24763 0
M  V30 3913 N 385.784 -1.5574 0.241426 0
M  V30 3914 C 387.195 -1.84842 -0.262755 0
M  V30 3915 C 387.546 -1.16317 -1.58003 0
M  V30 3916 O 386.671 -0.439653 -2.11887 0
M  V30 3917 C 387.266 -3.35332 -0.483523 0
M  V30 3918 C 385.825 -3.6468 -0.931977 0
M  V30 3919 C 384.972 -2.77299 -0.0061151 0
M  V30 3920 H 387.923 -1.51761 0.464129 0
M  V30 3921 H 387.944 -3.56615 -1.32688 0
M  V30 3922 H 387.456 -3.85178 0.47537 0
M  V30 3923 H 385.557 -3.20307 -1.90353 0
M  V30 3924 H 385.67 -4.72498 -0.792628 0
M  V30 3925 H 384.034 -2.49408 -0.516503 0
M  V30 3926 H 384.817 -3.2995 0.948052 0
M  V30 3927 N 387.262 0.0317525 -1.57568 0
M  V30 3928 C 388.51 0.721676 -1.88776 0
M  V30 3929 C 388.831 1.76039 -0.838772 0
M  V30 3930 O 388.101 1.95482 0.127935 0
M  V30 3931 H 386.681 0.269534 -0.696678 0
M  V30 3932 H 389.343 -0.00165879 -1.949 0
M  V30 3933 H 388.439 1.21293 -2.87566 0
M  V30 3934 N 388.74 1.54641 0.303973 0
M  V30 3935 C 390.151 1.64811 0.877163 0
M  V30 3936 C 390.502 0.554838 1.88191 0
M  V30 3937 O 389.627 -0.309033 2.14182 0
M  V30 3938 C 390.222 2.9876 1.59775 0
M  V30 3939 C 388.781 3.11061 2.11938 0
M  V30 3940 C 387.928 2.60479 0.951097 0
M  V30 3941 H 390.879 1.58493 0.0810486 0
M  V30 3942 H 390.9 2.90017 2.46314 0
M  V30 3943 H 390.412 3.7831 0.866226 0
M  V30 3944 H 388.513 2.36225 2.88146 0
M  V30 3945 H 388.626 4.17171 2.35595 0
M  V30 3946 H 386.99 2.16859 1.33583 0
M  V30 3947 H 387.773 3.42504 0.233581 0
M  V30 3948 N 390.218 -0.567019 1.47046 0
M  V30 3949 C 391.495 -1.3276 1.43646 0
M  V30 3950 C 391.875 -2.1071 0.128186 0
M  V30 3951 O 391.223 -2.10441 -0.890326 0
M  V30 3952 C 391.433 -2.2404 2.67595 0
M  V30 3953 C 392.781 -2.85372 3.14401 0
M  V30 3954 O 393.805 -2.34346 2.68254 0
M  V30 3955 O 392.664 -3.78091 3.946 0
M  V30 3956 H 389.758 -0.597293 0.571988 0
M  V30 3957 H 392.304 -0.586735 1.59234 0
M  V30 3958 H 391.076 -1.65975 3.54356 0
M  V30 3959 H 390.699 -3.05439 2.54544 0
M  V30 3960 N 391.696 -1.35014 -0.812953 0
M  V30 3961 C 393.107 -1.25035 -1.38648 0
M  V30 3962 C 393.458 0.119967 -1.95833 0
M  V30 3963 O 392.583 1.02069 -1.90816 0
M  V30 3964 C 393.178 -2.26394 -2.52054 0
M  V30 3965 C 391.737 -2.20175 -3.05287 0
M  V30 3966 C 390.884 -2.12451 -1.78213 0
M  V30 3967 H 393.835 -1.46235 -0.616516 0
M  V30 3968 H 393.856 -1.88672 -3.30429 0
M  V30 3969 H 393.368 -3.26116 -2.10404 0
M  V30 3970 H 391.469 -1.23841 -3.51417 0
M  V30 3971 H 391.582 -3.11863 -3.63701 0
M  V30 3972 H 389.946 -1.58328 -1.9951 0
M  V30 3973 H 390.729 -3.14024 -1.38723 0
M  V30 3974 N 393.175 1.03435 -1.18907 0
M  V30 3975 C 394.122 2.11591 -0.921837 0
M  V30 3976 C 395.092 1.65499 0.141226 0
M  V30 3977 O 396.277 1.908 0.000242829 0
M  V30 3978 C 393.417 3.42012 -0.460616 0
M  V30 3979 C 392.53 4.01682 -1.58982 0
M  V30 3980 C 391.665 5.20091 -1.08069 0
M  V30 3981 C 390.704 5.71805 -2.18416 0
M  V30 3982 N 389.841 6.81494 -1.68849 0
M  V30 3983 H 394.681 2.33787 -1.8479 0
M  V30 3984 H 392.218 1.1467 -0.921373 0
M  V30 3985 H 394.176 4.16834 -0.174642 0
M  V30 3986 H 392.806 3.19944 0.428467 0
M  V30 3987 H 391.858 3.24127 -1.99113 0
M  V30 3988 H 393.17 4.36084 -2.4214 0
M  V30 3989 H 392.324 6.02051 -0.749615 0
M  V30 3990 H 391.063 4.87209 -0.218771 0
M  V30 3991 H 390.068 4.88461 -2.5236 0
M  V30 3992 H 391.293 6.06728 -3.05054 0
M  V30 3993 H 389.239 6.50475 -0.849572 0
M  V30 3994 H 389.156 7.14994 -2.45601 0
M  V30 3995 H 390.424 7.67063 -1.38689 0
M  V30 3996 N 394.653 0.992116 1.22453 0
M  V30 3997 C 395.616 0.546883 2.2258 0
M  V30 3998 C 396.616 -0.369829 1.56489 0
M  V30 3999 O 397.806 -0.161896 1.73446 0
M  V30 4000 C 394.938 -0.204659 3.40285 0
M  V30 4001 H 396.131 1.43234 2.63484 0
M  V30 4002 H 393.684 0.779239 1.3549 0
M  V30 4003 H 394.419 -1.10614 3.04853 0
M  V30 4004 H 394.204 0.45354 3.89468 0
M  V30 4005 H 395.694 -0.504358 4.14543 0
M  V30 4006 N 396.131 -1.37776 0.765217 0
M  V30 4007 C 397.361 -2.03828 0.337277 0
M  V30 4008 C 397.769 -1.57841 -1.04321 0
M  V30 4009 O 397.112 -0.752043 -1.67601 0
M  V30 4010 C 397.174 -3.58292 0.294407 0
M  V30 4011 C 396.838 -4.27384 1.61838 0
M  V30 4012 C 397.835 -4.51956 2.56967 0
M  V30 4013 C 395.52 -4.65345 1.89102 0
M  V30 4014 C 397.514 -5.13536 3.77571 0
M  V30 4015 C 395.201 -5.26647 3.09978 0
M  V30 4016 C 396.199 -5.50679 4.04032 0
M  V30 4017 O 395.887 -6.10702 5.2278 0
M  V30 4018 H 395.619 -0.661292 0.140248 0
M  V30 4019 H 398.173 -1.77222 1.03834 0
M  V30 4020 H 396.403 -3.83918 -0.462983 0
M  V30 4021 H 398.092 -4.05763 -0.105581 0
M  V30 4022 H 398.858 -4.23048 2.37183 0
M  V30 4023 H 394.737 -4.45978 1.16725 0
M  V30 4024 H 398.281 -5.3221 4.50997 0
M  V30 4025 H 394.178 -5.54979 3.29649 0
M  V30 4026 H 394.946 -6.29183 5.23517 0
M  V30 4027 N 397.609 -0.515225 -1.4894 0
M  V30 4028 C 398.541 0.292481 -2.27326 0
M  V30 4029 C 399.554 0.917838 -1.3446 0
M  V30 4030 O 400.743 0.798772 -1.5963 0
M  V30 4031 C 397.843 1.42803 -3.07344 0
M  V30 4032 C 397.016 0.907347 -4.27885 0
M  V30 4033 C 396.075 1.92222 -4.89834 0
M  V30 4034 O 395.101 1.48506 -5.49486 0
M  V30 4035 N 396.303 3.25355 -4.80754 0
M  V30 4036 H 399.068 -0.379721 -2.97285 0
M  V30 4037 H 396.629 -0.348638 -1.58102 0
M  V30 4038 H 398.621 2.10481 -3.45658 0
M  V30 4039 H 397.191 2.00414 -2.39902 0
M  V30 4040 H 396.411 0.0550218 -3.94162 0
M  V30 4041 H 397.699 0.538108 -5.05946 0
M  V30 4042 H 397.097 3.6355 -4.33414 0
M  V30 4043 H 395.654 3.88707 -5.23211 0
M  V30 4044 N 399.087 1.5561 -0.249682 0
M  V30 4045 C 400.017 2.24477 0.642826 0
M  V30 4046 C 400.998 1.22601 1.17911 0
M  V30 4047 O 402.183 1.5126 1.21795 0
M  V30 4048 C 399.313 2.94638 1.83863 0
M  V30 4049 C 398.267 4.03227 1.435 0
M  V30 4050 C 397.593 4.60828 2.71186 0
M  V30 4051 C 398.893 5.18796 0.604002 0
M  V30 4052 H 400.587 2.99321 0.0685625 0
M  V30 4053 H 398.133 1.43965 0.0315363 0
M  V30 4054 H 400.086 3.41517 2.46868 0
M  V30 4055 H 398.81 2.17287 2.43832 0
M  V30 4056 H 397.469 3.57121 0.828275 0
M  V30 4057 H 397.117 3.80174 3.29358 0
M  V30 4058 H 396.817 5.34132 2.44901 0
M  V30 4059 H 398.341 5.10442 3.35084 0
M  V30 4060 H 399.755 5.61883 1.13842 0
M  V30 4061 H 398.152 5.98506 0.437097 0
M  V30 4062 H 399.222 4.83384 -0.383147 0
M  V30 4063 N 400.565 -0.0233959 1.57583 0
M  V30 4064 C 401.495 -1.02162 2.09965 0
M  V30 4065 C 402.476 -1.3735 1.00344 0
M  V30 4066 O 403.661 -1.46135 1.27899 0
M  V30 4067 C 400.791 -2.32081 2.58371 0
M  V30 4068 C 399.745 -2.1112 3.72307 0
M  V30 4069 C 399.071 -3.46848 4.06941 0
M  V30 4070 C 400.371 -1.49276 5.00514 0
M  V30 4071 H 402.065 -0.585557 2.93618 0
M  V30 4072 H 399.611 -0.280218 1.41247 0
M  V30 4073 H 401.564 -3.02249 2.93639 0
M  V30 4074 H 400.288 -2.77758 1.71808 0
M  V30 4075 H 398.947 -1.43384 3.37397 0
M  V30 4076 H 398.595 -3.90184 3.17436 0
M  V30 4077 H 398.295 -3.33646 4.83688 0
M  V30 4078 H 399.819 -4.18369 4.44747 0
M  V30 4079 H 401.233 -2.09368 5.33702 0
M  V30 4080 H 399.63 -1.46632 5.8191 0
M  V30 4081 H 400.7 -0.459217 4.82721 0
M  V30 4082 N 402.043 -1.548 -0.295768 0
M  V30 4083 C 403.268 -1.78653 -1.05346 0
M  V30 4084 C 403.693 -0.546894 -1.79974 0
M  V30 4085 O 403.051 0.502763 -1.7419 0
M  V30 4086 C 403.099 -2.99679 -2.00561 0
M  V30 4087 O 402.203 -2.7317 -3.08953 0
M  V30 4088 H 401.544 -0.59116 -0.302367 0
M  V30 4089 H 404.074 -2.01895 -0.331598 0
M  V30 4090 H 404.084 -3.27793 -2.42932 0
M  V30 4091 H 402.759 -3.89562 -1.4565 0
M  V30 4092 H 401.336 -2.56089 -2.71059 0
M  V30 4093 N 403.521 0.559213 -1.47345 0
M  V30 4094 C 404.484 1.64854 -1.59235 0
M  V30 4095 C 405.484 1.53851 -0.467607 0
M  V30 4096 O 406.674 1.58045 -0.732617 0
M  V30 4097 C 403.806 3.04388 -1.53496 0
M  V30 4098 H 404.999 1.55662 -2.56339 0
M  V30 4099 H 402.552 0.778973 -1.35505 0
M  V30 4100 H 403.287 3.19115 -0.577604 0
M  V30 4101 H 403.072 3.13783 -2.35123 0
M  V30 4102 H 404.562 3.83642 -1.6495 0
M  V30 4103 N 404.999 1.35443 0.805782 0
M  V30 4104 C 406.415 1.15499 1.10146 0
M  V30 4105 C 406.615 -0.0319975 2.01475 0
M  V30 4106 O 405.671 -0.70236 2.42535 0
M  V30 4107 C 406.984 2.45833 1.73166 0
M  V30 4108 C 408.532 2.52047 1.85583 0
M  V30 4109 C 409.007 3.82427 2.52019 0
M  V30 4110 N 410.498 3.83682 2.59504 0
M  V30 4111 C 411.233 4.81294 3.11679 0
M  V30 4112 N 410.729 5.89294 3.64287 0
M  V30 4113 N 412.522 4.6873 3.1024 0
M  V30 4114 H 404.673 2.11469 0.198678 0
M  V30 4115 H 406.936 0.93594 0.150731 0
M  V30 4116 H 406.642 3.32874 1.13526 0
M  V30 4117 H 406.516 2.6044 2.72857 0
M  V30 4118 H 408.903 1.65435 2.44367 0
M  V30 4119 H 408.984 2.41354 0.847455 0
M  V30 4120 H 408.628 4.69437 1.93885 0
M  V30 4121 H 408.558 3.90409 3.53395 0
M  V30 4122 H 411.049 3.05648 2.22234 0
M  V30 4123 H 411.362 6.59768 4.02401 0
M  V30 4124 H 409.707 5.92985 3.62483 0
M  V30 4125 H 412.898 3.83496 2.68419 0
M  V30 4126 H 413.071 5.44965 3.50596 0
M  V30 4127 N 406.477 -1.02803 1.19454 0
M  V30 4128 C 407.702 -1.80378 1.02364 0
M  V30 4129 C 408.127 -1.83282 -0.423007 0
M  V30 4130 O 407.485 -1.25945 -1.30413 0
M  V30 4131 C 407.533 -3.23248 1.59821 0
M  V30 4132 O 406.637 -4.04 0.828105 0
M  V30 4133 H 405.978 -0.556799 0.361761 0
M  V30 4134 H 408.508 -1.29385 1.58495 0
M  V30 4135 H 408.518 -3.73994 1.63073 0
M  V30 4136 H 407.193 -3.2045 2.65113 0
M  V30 4137 H 405.77 -3.62635 0.86891 0
M  V30 4138 N 407.956 -0.998596 -1.21925 0
M  V30 4139 C 408.919 -0.558679 -2.22287 0
M  V30 4140 C 409.919 0.361525 -1.56683 0
M  V30 4141 O 411.109 0.152695 -1.73529 0
M  V30 4142 C 408.241 0.18661 -3.40389 0
M  V30 4143 H 409.434 -1.4463 -2.62721 0
M  V30 4144 H 406.987 -0.786413 -1.35075 0
M  V30 4145 H 407.722 1.08996 -3.05435 0
M  V30 4146 H 407.507 -0.474188 -3.89222 0
M  V30 4147 H 408.997 0.482367 -4.14805 0
M  V30 4148 N 409.434 1.37368 -0.772513 0
M  V30 4149 C 410.674 2.01512 -0.342361 0
M  V30 4150 C 411.038 1.59997 1.06136 0
M  V30 4151 O 412.239 2.16609 1.59167 0
M  V30 4152 C 410.51 3.54134 -0.482048 0
M  V30 4153 S 412.069 4.38585 -0.137272 0
M  V30 4154 H 408.887 0.698699 -0.131686 0
M  V30 4155 H 411.489 1.67552 -1.0073 0
M  V30 4156 H 410.193 3.81837 -1.50428 0
M  V30 4157 H 409.724 3.92894 0.199413 0
M  V30 4158 H 411.739 4.84594 1.06692 0
M  V30 4159 N 410.912 0.523116 1.48665 0
M  V30 4160 C 411.842 -0.23231 2.32342 0
M  V30 4161 C 412.823 -0.941637 1.41659 0
M  V30 4162 O 414.008 -0.928751 1.70552 0
M  V30 4163 C 411.138 -1.28387 3.22698 0
M  V30 4164 C 410.092 -0.693098 4.22351 0
M  V30 4165 C 409.418 -1.8468 5.01794 0
M  V30 4166 C 410.718 0.33063 5.21252 0
M  V30 4167 H 412.412 0.466192 2.95748 0
M  V30 4168 H 409.958 0.225643 1.42221 0
M  V30 4169 H 411.911 -1.82024 3.80059 0
M  V30 4170 H 410.635 -2.01186 2.57278 0
M  V30 4171 H 409.294 -0.178299 3.66166 0
M  V30 4172 H 408.942 -2.56301 4.32804 0
M  V30 4173 H 408.642 -1.45747 5.69238 0
M  V30 4174 H 410.166 -2.38709 5.62006 0
M  V30 4175 H 411.58 -0.118407 5.73178 0
M  V30 4176 H 409.977 0.636974 5.9671 0
M  V30 4177 H 411.047 1.23883 4.68808 0
M  V30 4178 N 412.39 -1.55475 0.257931 0
M  V30 4179 C 413.32 -2.24815 -0.630912 0
M  V30 4180 C 414.301 -1.23224 -1.17259 0
M  V30 4181 O 415.486 -1.51904 -1.20991 0
M  V30 4182 C 412.616 -2.95609 -1.82298 0
M  V30 4183 C 411.57 -4.03982 -1.41359 0
M  V30 4184 C 410.896 -4.6226 -2.68738 0
M  V30 4185 C 412.196 -5.19109 -0.57648 0
M  V30 4186 H 413.89 -2.99354 -0.0526878 0
M  V30 4187 H 411.436 -1.4398 -0.023901 0
M  V30 4188 H 413.389 -3.42822 -2.45054 0
M  V30 4189 H 412.113 -2.18577 -2.42676 0
M  V30 4190 H 410.772 -3.57555 -0.809324 0
M  V30 4191 H 410.42 -3.81915 -3.27338 0
M  V30 4192 H 410.12 -5.35424 -2.42065 0
M  V30 4193 H 411.644 -5.12212 -3.32372 0
M  V30 4194 H 413.058 -5.62479 -1.10861 0
M  V30 4195 H 411.455 -5.98729 -0.405351 0
M  V30 4196 H 412.525 -4.83174 0.408776 0
M  V30 4197 N 413.868 0.0150385 -1.57593 0
M  V30 4198 C 415.116 0.701613 -1.8953 0
M  V30 4199 C 415.437 1.75139 -0.857396 0
M  V30 4200 O 414.707 1.95607 0.107194 0
M  V30 4201 H 413.287 0.26213 -0.699498 0
M  V30 4202 H 415.949 -0.0223304 -1.94887 0
M  V30 4203 H 415.045 1.18236 -2.88837 0
M  V30 4204 N 415.346 1.54954 0.287554 0
M  V30 4205 C 416.276 1.89839 1.35954 0
M  V30 4206 C 417.257 0.758675 1.52244 0
M  V30 4207 O 418.442 1.01557 1.65529 0
M  V30 4208 C 415.572 2.15753 2.72154 0
M  V30 4209 C 414.526 3.3159 2.70614 0
M  V30 4210 C 413.852 3.42952 4.10229 0
M  V30 4211 C 415.152 4.68359 2.31165 0
M  V30 4212 H 416.846 2.79625 1.07007 0
M  V30 4213 H 414.392 1.3454 0.513316 0
M  V30 4214 H 416.345 2.38743 3.47246 0
M  V30 4215 H 415.069 1.22752 3.02654 0
M  V30 4216 H 413.728 3.08545 1.97979 0
M  V30 4217 H 413.376 2.47443 4.37928 0
M  V30 4218 H 413.076 4.20826 4.10097 0
M  V30 4219 H 414.6 3.68218 4.87081 0
M  V30 4220 H 416.014 4.9099 2.95976 0
M  V30 4221 H 414.411 5.49044 2.42221 0
M  V30 4222 H 415.481 4.68165 1.26291 0
M  V30 4223 N 416.824 -0.551391 1.4764 0
M  V30 4224 C 417.754 -1.66757 1.63445 0
M  V30 4225 C 418.735 -1.63077 0.483742 0
M  V30 4226 O 419.92 -1.80607 0.71377 0
M  V30 4227 C 417.05 -3.05387 1.65396 0
M  V30 4228 C 416.004 -3.23918 2.79752 0
M  V30 4229 C 415.33 -4.63393 2.66779 0
M  V30 4230 C 416.63 -3.08735 4.21284 0
M  V30 4231 H 418.324 -1.53786 2.56886 0
M  V30 4232 H 415.87 -0.738415 1.23626 0
M  V30 4233 H 417.823 -3.83325 1.75043 0
M  V30 4234 H 416.547 -3.19332 0.685195 0
M  V30 4235 H 415.206 -2.48391 2.69625 0
M  V30 4236 H 414.854 -4.74144 1.67918 0
M  V30 4237 H 414.554 -4.7674 3.43501 0
M  V30 4238 H 416.078 -5.43458 2.78364 0
M  V30 4239 H 417.492 -3.76484 4.32357 0
M  V30 4240 H 415.889 -3.33588 4.98838 0
M  V30 4241 H 416.959 -2.0541 4.39243 0
M  V30 4242 N 418.302 -1.35869 -0.798587 0
M  V30 4243 C 419.265 -1.29307 -1.89242 0
M  V30 4244 C 420.265 -0.202747 -1.59517 0
M  V30 4245 O 421.455 -0.456957 -1.681 0
M  V30 4246 C 418.587 -1.00229 -3.25833 0
M  V30 4247 H 419.78 -2.26576 -1.96478 0
M  V30 4248 H 417.333 -1.20509 -0.995358 0
M  V30 4249 H 418.068 -0.033801 -3.24282 0
M  V30 4250 H 417.853 -1.79121 -3.48795 0
M  V30 4251 H 419.343 -0.98219 -4.05885 0
M  V30 4252 N 419.78 1.02168 -1.19998 0
M  V30 4253 C 420.743 2.08765 -0.94604 0
M  V30 4254 C 421.743 1.60618 0.0763846 0
M  V30 4255 O 422.933 1.73472 -0.159135 0
M  V30 4256 C 420.065 3.38262 -0.423255 0
M  V30 4257 H 421.258 2.32726 -1.89153 0
M  V30 4258 H 418.811 1.1889 -1.01464 0
M  V30 4259 H 419.546 3.19974 0.527938 0
M  V30 4260 H 419.331 3.74532 -1.16053 0
M  V30 4261 H 420.821 4.16759 -0.264911 0
M  V30 4262 N 421.258 1.00505 1.21394 0
M  V30 4263 C 422.486 0.706609 1.9446 0
M  V30 4264 C 422.901 -0.73081 1.74082 0
M  V30 4265 O 422.258 -1.49446 1.04747 0
M  V30 4266 C 422.309 1.01824 3.46863 0
M  V30 4267 O 422.03 2.39919 3.66566 0
M  V30 4268 C 423.531 0.739216 4.37093 0
M  V30 4269 H 420.751 0.260394 0.618414 0
M  V30 4270 H 423.295 1.34311 1.54211 0
M  V30 4271 H 421.45 0.427343 3.85036 0
M  V30 4272 H 421.864 2.50784 4.6066 0
M  V30 4273 H 423.338 1.00744 5.42729 0
M  V30 4274 H 423.815 -0.326746 4.37983 0
M  V30 4275 H 424.421 1.31173 4.04566 0
M  V30 4276 N 422.737 -1.36956 0.779787 0
M  V30 4277 C 423.685 -2.32053 0.15942 0
M  V30 4278 C 424.679 -1.55333 -0.675878 0
M  V30 4279 O 425.885 -1.70668 -0.57204 0
M  V30 4280 H 422.26 -0.751286 0.0327707 0
M  V30 4281 H 424.231 -2.8195 0.977078 0
M  V30 4282 C 422.98 -3.40602 -0.698977 0
M  V30 4283 H 422.303 -3.99746 -0.0655966 0
M  V30 4284 H 423.743 -4.09486 -1.09989 0
M  V30 4285 C 422.202 -2.81359 -1.85307 0
M  V30 4286 O 422.732 -2.72751 -2.94906 0
M  V30 4287 N 420.938 -2.38786 -1.65619 0
M  V30 4288 H 420.485 -2.45987 -0.764725 0
M  V30 4289 H 420.443 -1.99493 -2.43002 0
M  V30 4290 N 424.215 -0.530993 -1.48385 0
M  V30 4291 C 425.178 0.220497 -2.28137 0
M  V30 4292 C 426.178 0.866851 -1.35434 0
M  V30 4293 O 427.368 0.726746 -1.58316 0
M  V30 4294 C 424.5 1.31921 -3.1434 0
M  V30 4295 H 425.693 -0.479714 -2.96038 0
M  V30 4296 H 423.246 -0.286968 -1.53643 0
M  V30 4297 H 423.981 2.05264 -2.51072 0
M  V30 4298 H 423.766 0.86085 -3.82533 0
M  V30 4299 H 425.256 1.84776 -3.74497 0
M  V30 4300 N 425.693 1.55336 -0.266172 0
M  V30 4301 C 426.623 2.25146 0.618981 0
M  V30 4302 C 427.604 1.23845 1.16604 0
M  V30 4303 O 428.789 1.52544 1.20183 0
M  V30 4304 C 425.919 2.96572 1.80728 0
M  V30 4305 C 424.873 4.04726 1.39215 0
M  V30 4306 C 424.199 4.63678 2.66283 0
M  V30 4307 C 425.499 5.19407 0.548942 0
M  V30 4308 H 427.193 2.99377 0.0368116 0
M  V30 4309 H 424.739 1.43991 0.0162651 0
M  V30 4310 H 426.692 3.44116 2.43232 0
M  V30 4311 H 425.416 2.19861 2.41514 0
M  V30 4312 H 424.075 3.57979 0.790351 0
M  V30 4313 H 423.723 3.83646 3.25308 0
M  V30 4314 H 423.423 5.367 2.39222 0
M  V30 4315 H 424.947 5.13967 3.29651 0
M  V30 4316 H 426.361 5.63059 1.07876 0
M  V30 4317 H 424.758 5.98936 0.373593 0
M  V30 4318 H 425.828 4.8295 -0.434394 0
M  V30 4319 N 427.171 -0.0066808 1.57599 0
M  V30 4320 C 428.399 -0.704087 1.94551 0
M  V30 4321 C 428.814 -1.67677 0.867746 0
M  V30 4322 O 428.171 -1.8185 -0.153925 0
M  V30 4323 C 428.222 -1.44177 3.31505 0
M  V30 4324 O 427.943 -0.508097 4.35144 0
M  V30 4325 C 429.444 -2.23429 3.82876 0
M  V30 4326 H 426.664 -0.196523 0.641576 0
M  V30 4327 H 429.208 0.042453 2.04456 0
M  V30 4328 H 427.363 -2.13999 3.22929 0
M  V30 4329 H 427.777 -1.02782 5.14331 0
M  V30 4330 H 429.251 -2.70552 4.8115 0
M  V30 4331 H 429.728 -3.05818 3.15233 0
M  V30 4332 H 430.334 -1.58636 3.94607 0
M  V30 4333 N 428.649 -1.55105 -0.279332 0
M  V30 4334 C 429.597 -1.88333 -1.36505 0
M  V30 4335 C 430.591 -0.759043 -1.51443 0
M  V30 4336 O 431.797 -0.943312 -1.53302 0
M  V30 4337 H 428.172 -0.59766 -0.456406 0
M  V30 4338 H 430.143 -2.79041 -1.05728 0
M  V30 4339 C 428.892 -2.16628 -2.7197 0
M  V30 4340 H 428.215 -3.02624 -2.61264 0
M  V30 4341 H 429.655 -2.43803 -3.46895 0
M  V30 4342 C 428.114 -0.971807 -3.22579 0
M  V30 4343 O 428.644 -0.203228 -4.01186 0
M  V30 4344 N 426.85 -0.771238 -2.80179 0
M  V30 4345 H 426.397 -1.39792 -2.1637 0
M  V30 4346 H 426.355 0.0263667 -3.14389 0
M  V30 4347 N 430.127 0.543554 -1.4793 0
M  V30 4348 C 431.375 1.29752 -1.54948 0
M  V30 4349 C 431.696 1.93764 -0.219242 0
M  V30 4350 O 430.966 1.80639 0.75805 0
M  V30 4351 H 429.546 0.481874 -0.570795 0
M  V30 4352 H 432.208 0.633636 -1.84312 0
M  V30 4353 H 431.304 2.08392 -2.32334 0
M  V30 4354 N 431.605 1.3629 0.791371 0
M  V30 4355 C 432.851 1.30605 1.55146 0
M  V30 4356 C 433.184 -0.115042 1.93859 0
M  V30 4357 O 432.459 -1.06798 1.62556 0
M  V30 4358 C 432.742 2.22692 2.82985 0
M  V30 4359 C 432.595 3.73489 2.50651 0
M  V30 4360 C 433.914 2.13588 3.84796 0
M  V30 4361 H 431.033 0.475761 0.562868 0
M  V30 4362 H 433.675 1.66825 0.909358 0
M  V30 4363 H 431.825 1.91933 3.37778 0
M  V30 4364 H 433.497 4.14758 2.01924 0
M  V30 4365 H 431.74 3.93021 1.83622 0
M  V30 4366 H 432.411 4.3333 3.41949 0
M  V30 4367 H 434.887 2.40659 3.39445 0
M  V30 4368 H 433.763 2.80195 4.71998 0
M  V30 4369 H 434.024 1.12256 4.27611 0
M  V30 4370 N 433.083 -1.0153 1.20538 0
M  V30 4371 C 434.013 -2.11972 0.979295 0
M  V30 4372 C 434.994 -1.6985 -0.0921787 0
M  V30 4373 O 436.179 -1.94089 0.0655932 0
M  V30 4374 C 433.309 -3.43201 0.531984 0
M  V30 4375 C 432.263 -3.9907 1.54685 0
M  V30 4376 C 431.589 -5.26082 0.956127 0
M  V30 4377 C 432.889 -4.32313 2.93092 0
M  V30 4378 H 434.583 -2.31143 1.90298 0
M  V30 4379 H 432.129 -1.11079 0.916372 0
M  V30 4380 H 434.082 -4.1985 0.361044 0
M  V30 4381 H 432.806 -3.23792 -0.427327 0
M  V30 4382 H 431.465 -3.2453 1.70517 0
M  V30 4383 H 431.113 -5.02999 -0.0111538 0
M  V30 4384 H 430.813 -5.64426 1.63393 0
M  V30 4385 H 432.337 -6.05386 0.796284 0
M  V30 4386 H 433.751 -4.99845 2.80763 0
M  V30 4387 H 432.148 -4.81774 3.57791 0
M  V30 4388 H 433.218 -3.41025 3.44717 0
M  V30 4389 N 434.561 -1.01147 -1.20859 0
M  V30 4390 C 435.972 -0.730205 -1.71828 0
M  V30 4391 C 436.323 0.751662 -1.8123 0
M  V30 4392 O 435.448 1.58686 -1.47132 0
M  V30 4393 C 436.043 -1.31885 -3.12077 0
M  V30 4394 C 434.602 -1.08656 -3.60376 0
M  V30 4395 C 433.749 -1.42769 -2.37723 0
M  V30 4396 H 436.7 -1.18158 -1.05945 0
M  V30 4397 H 436.721 -0.706793 -3.73878 0
M  V30 4398 H 436.233 -2.39737 -3.05201 0
M  V30 4399 H 434.334 -0.0254814 -3.72591 0
M  V30 4400 H 434.447 -1.76301 -4.45483 0
M  V30 4401 H 432.811 -0.846603 -2.40218 0
M  V30 4402 H 433.594 -2.51666 -2.33493 0
M  V30 4403 N 436.039 1.36541 -0.78704 0
M  V30 4404 C 437.002 2.28413 -0.189778 0
M  V30 4405 C 438.002 1.48719 0.611499 0
M  V30 4406 O 439.192 1.68737 0.432842 0
M  V30 4407 C 436.324 3.32824 0.737638 0
M  V30 4408 H 437.517 2.82743 -0.999831 0
M  V30 4409 H 435.07 1.46065 -0.556298 0
M  V30 4410 H 435.805 2.83646 1.57212 0
M  V30 4411 H 435.59 3.91752 0.165044 0
M  V30 4412 H 437.08 4.0144 1.15047 0
M  V30 4413 N 437.518 0.538854 1.48102 0
M  V30 4414 C 438.764 0.00801365 2.02798 0
M  V30 4415 C 439.097 -1.3309 1.41424 0
M  V30 4416 O 438.372 -1.86169 0.563158 0
M  V30 4417 C 438.655 -0.104589 3.59948 0
M  V30 4418 C 438.508 1.26012 4.31788 0
M  V30 4419 C 439.827 -0.827055 4.32259 0
M  V30 4420 H 436.946 0.00438624 0.736987 0
M  V30 4421 H 439.588 0.6976 1.7673 0
M  V30 4422 H 437.738 -0.691893 3.82289 0
M  V30 4423 H 439.41 1.88922 4.2084 0
M  V30 4424 H 437.653 1.83968 3.92859 0
M  V30 4425 H 438.324 1.13424 5.40221 0
M  V30 4426 H 440.8 -0.328578 4.14801 0
M  V30 4427 H 439.676 -0.87476 5.41885 0
M  V30 4428 H 439.937 -1.87927 4.0017 0
M  V30 4429 N 438.996 -1.55193 0.274407 0
M  V30 4430 C 439.928 -2.1989 -0.646595 0
M  V30 4431 C 440.941 -1.1834 -1.11801 0
M  V30 4432 O 442.13 -1.4507 -1.04004 0
M  V30 4433 C 439.23 -2.8104 -1.89393 0
M  V30 4434 C 438.403 -4.08274 -1.56943 0
M  V30 4435 C 437.462 -4.53478 -2.66916 0
M  V30 4436 O 436.488 -5.19267 -2.33132 0
M  V30 4437 N 437.69 -4.2356 -3.9696 0
M  V30 4438 H 440.455 -2.99556 -0.0928686 0
M  V30 4439 H 438.016 -1.61618 0.0954783 0
M  V30 4440 H 440.008 -3.08226 -2.62257 0
M  V30 4441 H 438.578 -2.05372 -2.35672 0
M  V30 4442 H 437.798 -3.88384 -0.674655 0
M  V30 4443 H 439.086 -4.91173 -1.32764 0
M  V30 4444 H 438.484 -3.70799 -4.27229 0
M  V30 4445 H 437.041 -4.55518 -4.66205 0
M  V30 4446 N 440.474 -0.00167713 -1.576 0
M  V30 4447 C 441.699 0.69739 -1.95323 0
M  V30 4448 C 442.124 1.6642 -0.876706 0
M  V30 4449 O 441.482 1.80548 0.165007 0
M  V30 4450 C 441.53 1.40403 -3.32144 0
M  V30 4451 O 440.634 2.5185 -3.26566 0
M  V30 4452 H 439.975 0.185373 -0.637599 0
M  V30 4453 H 442.505 -0.0553665 -2.04525 0
M  V30 4454 H 442.515 1.76707 -3.67748 0
M  V30 4455 H 441.19 0.695167 -4.10049 0
M  V30 4456 H 439.767 2.17861 -3.0264 0
M  V30 4457 N 441.952 1.55251 0.271103 0
M  V30 4458 C 443.199 1.75946 1.00245 0
M  V30 4459 C 443.527 0.561611 1.86215 0
M  V30 4460 O 442.782 -0.455832 1.90317 0
M  V30 4461 C 443.081 3.01879 1.91321 0
M  V30 4462 C 442.747 4.34337 1.21086 0
M  V30 4463 C 441.409 4.70338 1.01666 0
M  V30 4464 C 443.761 5.16325 0.71119 0
M  V30 4465 C 441.089 5.8588 0.310099 0
M  V30 4466 C 443.441 6.32597 0.0182157 0
M  V30 4467 C 442.105 6.67236 -0.18768 0
M  V30 4468 H 441.375 0.643833 0.366824 0
M  V30 4469 H 444.022 1.89521 0.27458 0
M  V30 4470 H 442.327 2.83212 2.70736 0
M  V30 4471 H 444.024 3.15088 2.48033 0
M  V30 4472 H 440.614 4.06043 1.37213 0
M  V30 4473 H 444.798 4.88987 0.848844 0
M  V30 4474 H 440.054 6.1124 0.139873 0
M  V30 4475 H 444.228 6.9538 -0.376711 0
M  V30 4476 H 441.855 7.56618 -0.73715 0
M  V30 4477 N 443.43 -0.535701 1.48216 0
M  V30 4478 C 444.655 -1.32149 1.59848 0
M  V30 4479 C 445.08 -1.86338 0.256842 0
M  V30 4480 O 444.438 -1.64107 -0.770632 0
M  V30 4481 C 444.486 -2.45224 2.64381 0
M  V30 4482 O 443.59 -3.48093 2.21144 0
M  V30 4483 H 442.931 -0.391634 0.536208 0
M  V30 4484 H 445.461 -0.645202 1.94161 0
M  V30 4485 H 445.471 -2.91491 2.85476 0
M  V30 4486 H 444.146 -2.05143 3.61786 0
M  V30 4487 H 442.723 -3.07984 2.10239 0
M  V30 4488 N 444.908 -1.36708 -0.784132 0
M  V30 4489 C 446.148 -1.32618 -1.55537 0
M  V30 4490 C 446.512 0.0920681 -1.91779 0
M  V30 4491 O 447.713 0.257573 -2.67563 0
M  V30 4492 C 445.984 -2.22788 -2.79464 0
M  V30 4493 S 447.543 -2.36432 -3.69656 0
M  V30 4494 H 444.361 -0.470973 -0.53264 0
M  V30 4495 H 446.963 -1.72333 -0.92312 0
M  V30 4496 H 445.667 -3.24774 -2.50899 0
M  V30 4497 H 445.198 -1.84112 -3.47658 0
M  V30 4498 H 447.213 -1.56573 -4.7085 0
M  V30 4499 N 446.386 1.0089 -1.21074 0
M  V30 4500 C 447.316 2.1145 -0.990523 0
M  V30 4501 C 448.297 1.69897 0.0831699 0
M  V30 4502 O 449.482 1.94052 -0.0758853 0
M  V30 4503 C 446.612 3.42914 -0.550177 0
M  V30 4504 C 445.566 3.98244 -1.56799 0
M  V30 4505 C 444.892 5.25568 -0.984013 0
M  V30 4506 C 446.192 4.30752 -2.95381 0
M  V30 4507 H 447.886 2.3013 -1.91521 0
M  V30 4508 H 445.432 1.10592 -0.92225 0
M  V30 4509 H 447.385 4.19653 -0.383305 0
M  V30 4510 H 446.109 3.24014 0.41015 0
M  V30 4511 H 444.768 3.23621 -1.72236 0
M  V30 4512 H 444.416 5.02998 -0.0155216 0
M  V30 4513 H 444.116 5.63551 -1.66384 0
M  V30 4514 H 445.64 6.04955 -0.828378 0
M  V30 4515 H 447.054 4.98349 -2.8341 0
M  V30 4516 H 445.451 4.79869 -3.60341 0
M  V30 4517 H 446.521 3.39192 -3.46521 0
M  V30 4518 N 447.864 1.01787 1.20321 0
M  V30 4519 C 449.275 0.739307 1.71438 0
M  V30 4520 C 449.626 -0.742041 1.81627 0
M  V30 4521 O 448.751 -1.57903 1.47971 0
M  V30 4522 C 449.346 1.33538 3.11373 0
M  V30 4523 C 447.905 1.10566 3.59795 0
M  V30 4524 C 447.052 1.44028 2.36962 0
M  V30 4525 H 450.003 1.18718 1.05317 0
M  V30 4526 H 450.024 0.726611 3.73498 0
M  V30 4527 H 449.536 2.41352 3.03926 0
M  V30 4528 H 447.637 0.0452405 3.72573 0
M  V30 4529 H 447.75 1.78661 4.44542 0
M  V30 4530 H 446.114 0.85933 2.39766 0
M  V30 4531 H 446.897 2.52901 2.32155 0
M  V30 4532 N 449.342 -1.36122 0.79427 0
M  V30 4533 C 450.572 -2.03067 0.380437 0
M  V30 4534 C 450.98 -1.60018 -1.00949 0
M  V30 4535 O 450.323 -0.787425 -1.65968 0
M  V30 4536 C 450.385 -3.57587 0.37034 0
M  V30 4537 C 450.049 -4.23855 1.70867 0
M  V30 4538 C 451.046 -4.46404 2.66496 0
M  V30 4539 C 448.731 -4.61229 1.9893 0
M  V30 4540 C 450.725 -5.05412 3.88378 0
M  V30 4541 C 448.412 -5.19953 3.21079 0
M  V30 4542 C 449.41 -5.41985 4.15621 0
M  V30 4543 O 449.098 -5.99475 5.35616 0
M  V30 4544 H 448.83 -0.658168 0.154243 0
M  V30 4545 H 451.384 -1.7498 1.0757 0
M  V30 4546 H 449.614 -3.84814 -0.381444 0
M  V30 4547 H 451.303 -4.05895 -0.0194894 0
M  V30 4548 H 452.069 -4.17921 2.46103 0
M  V30 4549 H 447.948 -4.43402 1.26158 0
M  V30 4550 H 451.492 -5.22524 4.62185 0
M  V30 4551 H 447.389 -5.47862 3.41347 0
M  V30 4552 H 448.157 -6.17937 5.36745 0
M  V30 4553 N 450.82 -0.546701 -1.47814 0
M  V30 4554 C 452.068 -0.0187037 -2.02091 0
M  V30 4555 C 452.389 1.33168 -1.42447 0
M  V30 4556 O 451.659 1.86619 -0.595839 0
M  V30 4557 H 450.239 -0.00392531 -0.74699 0
M  V30 4558 H 452.901 -0.714327 -1.81338 0
M  V30 4559 H 451.997 0.0772219 -3.12004 0
M  V30 4560 N 452.299 1.55045 -0.282633 0
M  V30 4561 C 453.715 1.59441 0.0712997 0
M  V30 4562 C 453.915 1.2998 1.53972 0
M  V30 4563 O 452.971 1.06431 2.28973 0
M  V30 4564 C 454.284 2.99097 -0.310104 0
M  V30 4565 C 455.832 3.1194 -0.257343 0
M  V30 4566 C 456.307 4.53875 -0.613297 0
M  V30 4567 N 457.798 4.5974 -0.565134 0
M  V30 4568 C 458.533 5.67603 -0.81326 0
M  V30 4569 N 458.029 6.83582 -1.1264 0
M  V30 4570 N 459.822 5.57187 -0.741553 0
M  V30 4571 H 451.973 1.72458 -1.23984 0
M  V30 4572 H 454.236 0.804549 -0.501403 0
M  V30 4573 H 453.942 3.25516 -1.33163 0
M  V30 4574 H 453.816 3.75616 0.345366 0
M  V30 4575 H 456.203 2.85281 0.754905 0
M  V30 4576 H 456.284 2.37618 -0.947178 0
M  V30 4577 H 455.928 4.81261 -1.62327 0
M  V30 4578 H 455.858 5.26508 0.09841 0
M  V30 4579 H 458.349 3.76427 -0.333294 0
M  V30 4580 H 458.662 7.6175 -1.30219 0
M  V30 4581 H 457.007 6.85179 -1.16425 0
M  V30 4582 H 460.198 4.65457 -0.496705 0
M  V30 4583 H 460.371 6.41171 -0.938306 0
M  V30 4584 N 453.777 0.010035 1.57597 0
M  V30 4585 C 454.707 -0.976857 2.12084 0
M  V30 4586 C 455.688 -1.35191 1.03235 0
M  V30 4587 O 456.873 -1.43389 1.3097 0
M  V30 4588 C 454.003 -2.26548 2.63236 0
M  V30 4589 C 452.957 -2.03175 3.76701 0
M  V30 4590 C 452.283 -3.38138 4.14206 0
M  V30 4591 C 453.583 -1.38625 5.03568 0
M  V30 4592 H 455.277 -0.523145 2.94794 0
M  V30 4593 H 452.823 -0.250195 1.4181 0
M  V30 4594 H 454.776 -2.95952 2.99984 0
M  V30 4595 H 453.5 -2.74051 1.77661 0
M  V30 4596 H 452.159 -1.36195 3.40362 0
M  V30 4597 H 451.807 -3.83363 3.25641 0
M  V30 4598 H 451.507 -3.23312 4.90656 0
M  V30 4599 H 453.031 -4.08841 4.53521 0
M  V30 4600 H 454.445 -1.98 5.38023 0
M  V30 4601 H 452.842 -1.34256 5.84889 0
M  V30 4602 H 453.912 -0.356722 4.83586 0
M  V30 4603 N 455.255 -1.55392 -0.262866 0
M  V30 4604 C 456.218 -1.88181 -1.30846 0
M  V30 4605 C 457.218 -0.757079 -1.41862 0
M  V30 4606 O 458.408 -1.02519 -1.40838 0
M  V30 4607 C 455.54 -2.09609 -2.68844 0
M  V30 4608 H 456.733 -2.81659 -1.02997 0
M  V30 4609 H 454.286 -1.48039 -0.501414 0
M  V30 4610 H 455.021 -1.18547 -3.01856 0
M  V30 4611 H 454.806 -2.91508 -2.62231 0
M  V30 4612 H 456.296 -2.36215 -3.44372 0
M  V30 4613 N 456.733 0.527833 -1.48498 0
M  V30 4614 C 457.963 1.30633 -1.60058 0
M  V30 4615 C 458.371 1.87394 -0.260786 0
M  V30 4616 O 457.714 1.67227 0.760317 0
M  V30 4617 C 457.776 2.49361 -2.58958 0
M  V30 4618 C 457.44 2.13671 -4.03972 0
M  V30 4619 C 458.437 1.69217 -4.91591 0
M  V30 4620 C 456.122 2.24129 -4.49524 0
M  V30 4621 C 458.116 1.35689 -6.2279 0
M  V30 4622 C 455.803 1.90212 -5.80743 0
M  V30 4623 C 456.801 1.46063 -6.67199 0
M  V30 4624 O 456.489 1.12593 -7.95976 0
M  V30 4625 H 456.221 0.403444 -0.54241 0
M  V30 4626 H 458.775 0.643233 -1.95068 0
M  V30 4627 H 457.005 3.18659 -2.19073 0
M  V30 4628 H 458.694 3.11421 -2.6033 0
M  V30 4629 H 459.46 1.60607 -4.57636 0
M  V30 4630 H 455.339 2.57447 -3.82416 0
M  V30 4631 H 458.883 1.01157 -6.90227 0
M  V30 4632 H 454.78 1.98464 -6.14233 0
M  V30 4633 H 455.548 1.25972 -8.08748 0
M  V30 4634 N 458.211 1.37122 0.776871 0
M  V30 4635 C 459.161 1.28989 1.88005 0
M  V30 4636 C 460.145 0.178765 1.59904 0
M  V30 4637 O 461.337 0.412705 1.72121 0
M  V30 4638 C 458.466 1.09402 3.25402 0
M  V30 4639 C 457.552 2.25036 3.59471 0
M  V30 4640 N 457.943 3.50407 3.64759 0
M  V30 4641 C 456.241 2.17078 3.89607 0
M  V30 4642 C 456.942 4.26628 3.95428 0
M  V30 4643 N 455.918 3.55709 4.11062 0
M  V30 4644 H 459.72 2.2394 1.90337 0
M  V30 4645 H 457.234 1.30021 0.973052 0
M  V30 4646 H 459.231 1.01661 4.04315 0
M  V30 4647 H 457.891 0.153632 3.24336 0
M  V30 4648 H 458.902 3.8438 3.47091 0
M  V30 4649 H 455.579 1.31067 3.96393 0
M  V30 4650 H 456.969 5.35107 4.06338 0
M  V30 4651 N 459.689 -1.00246 1.21608 0
M  V30 4652 C 460.619 -2.10921 1.00172 0
M  V30 4653 C 461.6 -1.69938 -0.0741587 0
M  V30 4654 O 462.785 -1.94009 0.0861753 0
M  V30 4655 C 459.915 -3.42618 0.568355 0
M  V30 4656 C 458.869 -3.97407 1.58909 0
M  V30 4657 C 458.195 -5.25038 1.01187 0
M  V30 4658 C 459.495 -4.2918 2.97661 0
M  V30 4659 H 461.189 -2.29112 1.92739 0
M  V30 4660 H 458.735 -1.10101 0.928102 0
M  V30 4661 H 460.688 -4.19444 0.405555 0
M  V30 4662 H 459.412 -3.24227 -0.392961 0
M  V30 4663 H 458.071 -3.22703 1.73949 0
M  V30 4664 H 457.719 -5.02982 0.0421965 0
M  V30 4665 H 457.419 -5.62661 1.6937 0
M  V30 4666 H 458.943 -6.04507 0.860448 0
M  V30 4667 H 460.357 -4.96839 2.86049 0
M  V30 4668 H 458.754 -4.77952 3.6288 0
M  V30 4669 H 459.824 -3.3735 3.48315 0
M  V30 4670 N 461.167 -1.02423 -1.1978 0
M  V30 4671 C 462.13 -0.605703 -2.21052 0
M  V30 4672 C 463.13 0.328209 -1.57415 0
M  V30 4673 O 464.32 0.115853 -1.73814 0
M  V30 4674 C 461.452 0.114366 -3.40708 0
M  V30 4675 H 462.645 -1.5017 -2.59594 0
M  V30 4676 H 460.198 -0.814888 -1.33376 0
M  V30 4677 H 460.933 1.02492 -3.07678 0
M  V30 4678 H 460.718 -0.556641 -3.88129 0
M  V30 4679 H 462.208 0.394272 -4.15735 0
M  V30 4680 N 462.645 1.35699 -0.801477 0
M  V30 4681 C 463.891 1.99208 -0.380022 0
M  V30 4682 C 464.224 1.63445 1.04878 0
M  V30 4683 O 463.499 0.895223 1.72673 0
M  V30 4684 C 463.782 3.55755 -0.557708 0
M  V30 4685 C 463.635 4.01332 -2.03107 0
M  V30 4686 C 464.954 4.40096 0.0197968 0
M  V30 4687 H 462.073 0.723667 -0.139552 0
M  V30 4688 H 464.715 1.60928 -1.01006 0
M  V30 4689 H 462.865 3.88494 -0.0213741 0
M  V30 4690 H 464.537 3.79026 -2.62939 0
M  V30 4691 H 462.78 3.52429 -2.52936 0
M  V30 4692 H 463.451 5.10234 -2.1063 0
M  V30 4693 H 465.927 4.13786 -0.438179 0
M  V30 4694 H 464.803 5.48735 -0.134477 0
M  V30 4695 H 465.064 4.2786 1.11303 0
M  V30 4696 N 464.123 0.554532 1.47522 0
M  V30 4697 C 465.369 0.0295227 2.02779 0
M  V30 4698 C 465.702 -1.31582 1.42828 0
M  V30 4699 O 464.977 -1.85561 0.582872 0
M  V30 4700 C 465.26 -0.0664057 3.60039 0
M  V30 4701 C 465.113 1.30585 4.30427 0
M  V30 4702 C 466.432 -0.781162 4.33112 0
M  V30 4703 H 463.551 0.0122027 0.736899 0
M  V30 4704 H 466.193 0.716305 1.7598 0
M  V30 4705 H 464.343 -0.651307 3.83002 0
M  V30 4706 H 466.015 1.93374 4.18813 0
M  V30 4707 H 464.258 1.88125 3.90886 0
M  V30 4708 H 464.929 1.19147 5.38988 0
M  V30 4709 H 467.405 -0.284565 4.15126 0
M  V30 4710 H 466.281 -0.817237 5.42782 0
M  V30 4711 H 466.542 -1.83672 4.0214 0
M  V30 4712 N 465.601 -1.54893 0.290851 0
M  V30 4713 C 466.531 -2.26103 -0.583084 0
M  V30 4714 C 467.512 -1.25684 -1.14619 0
M  V30 4715 O 468.697 -1.54436 -1.17741 0
M  V30 4716 C 465.827 -2.99409 -1.75987 0
M  V30 4717 C 464.781 -4.0689 -1.32758 0
M  V30 4718 C 464.107 -4.67856 -2.58872 0
M  V30 4719 C 465.407 -5.20215 -0.46624 0
M  V30 4720 H 467.101 -2.99398 0.0108214 0
M  V30 4721 H 464.647 -1.43998 0.00664468 0
M  V30 4722 H 466.6 -3.47943 -2.37727 0
M  V30 4723 H 465.324 -2.23675 -2.37985 0
M  V30 4724 H 463.983 -3.59191 -0.733299 0
M  V30 4725 H 463.631 -3.88772 -3.19163 0
M  V30 4726 H 463.331 -5.40438 -2.30653 0
M  V30 4727 H 464.855 -5.19147 -3.21433 0
M  V30 4728 H 466.269 -5.64704 -0.989047 0
M  V30 4729 H 464.666 -5.99455 -0.27826 0
M  V30 4730 H 465.736 -4.82198 0.511173 0
M  V30 4731 N 467.08 -0.0183926 -1.57589 0
M  V30 4732 C 468.328 0.661253 -1.90976 0
M  V30 4733 C 468.649 1.73281 -0.894353 0
M  V30 4734 O 467.919 1.9579 0.0656788 0
M  V30 4735 H 466.499 0.247233 -0.704901 0
M  V30 4736 H 469.161 -0.0636639 -1.94796 0
M  V30 4737 H 468.257 1.12083 -2.9128 0
M  V30 4738 N 468.558 1.5553 0.254621 0
M  V30 4739 C 469.783 1.81383 1.00573 0
M  V30 4740 C 470.208 0.594419 1.78461 0
M  V30 4741 O 469.566 -0.456403 1.75461 0
M  V30 4742 C 469.614 3.04892 1.92545 0
M  V30 4743 O 468.718 2.81266 3.01601 0
M  V30 4744 H 468.059 0.598969 0.286587 0
M  V30 4745 H 470.589 2.02703 0.277952 0
M  V30 4746 H 470.599 3.34119 2.34155 0
M  V30 4747 H 469.274 3.93287 1.3527 0
M  V30 4748 H 467.851 2.63185 2.64174 0
M  V30 4749 N 470.036 -0.519951 1.48776 0
M  V30 4750 C 470.999 -1.60574 1.6355 0
M  V30 4751 C 471.999 -1.52557 0.508234 0
M  V30 4752 O 473.189 -1.56047 0.774262 0
M  V30 4753 C 470.321 -3.00211 1.61512 0
M  V30 4754 H 471.514 -1.4881 2.60376 0
M  V30 4755 H 469.067 -0.742772 1.37523 0
M  V30 4756 H 469.802 -3.17471 0.662009 0
M  V30 4757 H 469.587 -3.07439 2.43359 0
M  V30 4758 H 471.077 -3.79134 1.75064 0
M  V30 4759 N 471.514 -1.37532 -0.769588 0
M  V30 4760 C 472.477 -1.33292 -1.86456 0
M  V30 4761 C 473.477 -0.236537 -1.59051 0
M  V30 4762 O 474.667 -0.492511 -1.67093 0
M  V30 4763 C 471.799 -1.07118 -3.23633 0
M  V30 4764 H 472.992 -2.30692 -1.91628 0
M  V30 4765 H 470.545 -1.22593 -0.969572 0
M  V30 4766 H 471.28 -0.102578 -3.24138 0
M  V30 4767 H 471.065 -1.86479 -3.44917 0
M  V30 4768 H 472.555 -1.06806 -4.03711 0
M  V30 4769 N 472.992 0.995999 -1.22138 0
M  V30 4770 C 473.94 2.10673 -0.985876 0
M  V30 4771 C 474.934 1.69255 0.0699553 0
M  V30 4772 O 476.14 1.79812 -0.0822176 0
M  V30 4773 H 472.515 0.688865 -0.30161 0
M  V30 4774 H 474.486 2.27711 -1.92848 0
M  V30 4775 C 473.235 3.42881 -0.576909 0
M  V30 4776 H 472.558 3.75191 -1.38101 0
M  V30 4777 H 473.998 4.21589 -0.451518 0
M  V30 4778 C 472.457 3.29265 0.713196 0
M  V30 4779 O 472.987 3.60777 1.76643 0
M  V30 4780 N 471.193 2.82456 0.683162 0
M  V30 4781 H 470.74 2.5701 -0.174242 0
M  V30 4782 H 470.698 2.73727 1.54663 0
M  V30 4783 N 474.47 1.03057 1.19235 0
M  V30 4784 C 475.881 0.757449 1.70645 0
M  V30 4785 C 476.232 -0.722735 1.82403 0
M  V30 4786 O 475.357 -1.56325 1.49638 0
M  V30 4787 C 475.952 1.36833 3.09939 0
M  V30 4788 C 474.511 1.14375 3.58602 0
M  V30 4789 C 473.658 1.46533 2.35422 0
M  V30 4790 H 476.609 1.19828 1.04052 0
M  V30 4791 H 476.63 0.766184 3.72706 0
M  V30 4792 H 476.142 2.44562 3.01349 0
M  V30 4793 H 474.243 0.0847542 3.72504 0
M  V30 4794 H 474.356 1.83366 4.42622 0
M  V30 4795 H 472.72 0.884712 2.38841 0
M  V30 4796 H 473.503 2.55349 2.2946 0
M  V30 4797 N 475.948 -1.35272 0.808662 0
M  V30 4798 C 476.878 -2.32315 0.234981 0
M  V30 4799 C 477.859 -1.57572 -0.64071 0
M  V30 4800 O 479.044 -1.8563 -0.570551 0
M  V30 4801 C 476.174 -3.41801 -0.615601 0
M  V30 4802 C 475.128 -4.27694 0.161767 0
M  V30 4803 C 474.454 -5.28519 -0.810649 0
M  V30 4804 C 475.754 -5.04231 1.36193 0
M  V30 4805 H 477.448 -2.80543 1.04575 0
M  V30 4806 H 474.994 -1.3488 0.504315 0
M  V30 4807 H 476.947 -4.08693 -1.02702 0
M  V30 4808 H 475.671 -2.92186 -1.45928 0
M  V30 4809 H 474.33 -3.62384 0.554382 0
M  V30 4810 H 473.978 -4.75171 -1.64988 0
M  V30 4811 H 473.678 -5.8686 -0.294822 0
M  V30 4812 H 475.202 -5.98283 -1.22023 0
M  V30 4813 H 476.616 -5.64058 1.02528 0
M  V30 4814 H 475.013 -5.72077 1.81239 0
M  V30 4815 H 476.083 -4.34753 2.14751 0
M  V30 4816 N 477.426 -0.562348 -1.47226 0
M  V30 4817 C 478.389 0.172056 -2.28553 0
M  V30 4818 C 479.389 0.837928 -1.37242 0
M  V30 4819 O 480.579 0.693001 -1.59822 0
M  V30 4820 C 477.711 1.25223 -3.17068 0
M  V30 4821 H 478.904 -0.542401 -2.94954 0
M  V30 4822 H 476.457 -0.319493 -1.53 0
M  V30 4823 H 477.192 1.99892 -2.55369 0
M  V30 4824 H 476.977 0.779515 -3.84273 0
M  V30 4825 H 478.467 1.76791 -3.78332 0
M  V30 4826 N 478.904 1.54736 -0.299062 0
M  V30 4827 C 480.144 2.0201 0.31168 0
M  V30 4828 C 480.508 1.18281 1.5124 0
M  V30 4829 O 481.709 1.55243 2.19438 0
M  V30 4830 C 479.98 3.5123 0.661227 0
M  V30 4831 S 481.539 4.20467 1.2551 0
M  V30 4832 H 478.357 0.704523 0.0957517 0
M  V30 4833 H 480.959 1.90791 -0.426482 0
M  V30 4834 H 479.663 4.09804 -0.221171 0
M  V30 4835 H 479.194 3.66481 1.43023 0
M  V30 4836 H 481.209 4.26083 2.54298 0
M  V30 4837 N 480.382 0.0267497 1.57577 0
M  V30 4838 C 481.629 -0.652404 1.91703 0
M  V30 4839 C 481.957 -1.72271 0.902936 0
M  V30 4840 O 481.212 -1.955 -0.0884843 0
M  V30 4841 C 481.511 -1.30914 3.3256 0
M  V30 4842 C 481.177 -0.369441 4.49384 0
M  V30 4843 C 479.839 -0.110791 4.81072 0
M  V30 4844 C 482.191 0.275971 5.20469 0
M  V30 4845 C 479.519 0.801116 5.81205 0
M  V30 4846 C 481.871 1.17592 6.21575 0
M  V30 4847 C 480.535 1.44348 6.51705 0
M  V30 4848 H 479.805 -0.238732 0.70149 0
M  V30 4849 H 482.452 0.0880091 1.91298 0
M  V30 4850 H 480.757 -2.12425 3.29216 0
M  V30 4851 H 482.454 -1.84115 3.56234 0
M  V30 4852 H 479.044 -0.581211 4.24641 0
M  V30 4853 H 483.228 0.0892 4.9622 0
M  V30 4854 H 478.484 1.01614 6.02897 0
M  V30 4855 H 482.658 1.68223 6.75777 0
M  V30 4856 H 480.285 2.15176 7.29111 0
M  V30 4857 N 481.861 -1.55662 -0.24637 0
M  V30 4858 C 482.791 -1.93377 -1.30873 0
M  V30 4859 C 483.772 -0.798773 -1.50179 0
M  V30 4860 O 484.957 -1.0591 -1.62778 0
M  V30 4861 C 482.087 -2.22893 -2.66338 0
M  V30 4862 C 481.041 -3.38649 -2.61727 0
M  V30 4863 C 480.367 -3.53708 -4.00992 0
M  V30 4864 C 481.667 -4.74323 -2.18666 0
M  V30 4865 H 483.361 -2.82363 -0.995552 0
M  V30 4866 H 480.907 -1.35854 -0.477464 0
M  V30 4867 H 482.86 -2.47866 -3.40794 0
M  V30 4868 H 481.584 -1.30733 -2.99293 0
M  V30 4869 H 480.243 -3.13685 -1.89729 0
M  V30 4870 H 479.891 -2.58967 -4.31214 0
M  V30 4871 H 479.591 -4.31551 -3.98795 0
M  V30 4872 H 481.115 -3.81003 -4.77147 0
M  V30 4873 H 482.529 -4.98665 -2.82854 0
M  V30 4874 H 480.926 -5.55273 -2.27579 0
M  V30 4875 H 481.996 -4.71349 -1.13834 0
M  V30 4876 N 483.339 0.512053 -1.4905 0
M  V30 4877 C 484.302 1.59704 -1.64399 0
M  V30 4878 C 485.302 1.52285 -0.516317 0
M  V30 4879 O 486.492 1.55635 -0.782527 0
M  V30 4880 C 483.624 2.9935 -1.63102 0
M  V30 4881 H 484.817 1.47428 -2.61161 0
M  V30 4882 H 482.37 0.735469 -1.37915 0
M  V30 4883 H 483.105 3.17116 -0.678836 0
M  V30 4884 H 482.89 3.06144 -2.44986 0
M  V30 4885 H 484.38 3.782 -1.77072 0
M  V30 4886 N 484.817 1.37938 0.762283 0
M  V30 4887 C 485.75 1.2884 1.88349 0
M  V30 4888 C 486.728 0.167084 1.61739 0
M  V30 4889 O 487.912 0.34292 1.85355 0
M  V30 4890 C 485.039 0.994257 3.23778 0
M  V30 4891 C 484.085 2.13376 3.69287 0
M  V30 4892 S 484.918 3.75439 3.81845 0
M  V30 4893 C 486.074 3.48195 5.20107 0
M  V30 4894 H 486.307 2.23736 1.95779 0
M  V30 4895 H 483.84 1.23672 0.924368 0
M  V30 4896 H 485.798 0.83138 4.01993 0
M  V30 4897 H 484.459 0.0626251 3.14038 0
M  V30 4898 H 483.652 1.88319 4.67495 0
M  V30 4899 H 483.254 2.25726 2.98201 0
M  V30 4900 H 485.546 3.0377 6.05583 0
M  V30 4901 H 486.489 4.45765 5.50181 0
M  V30 4902 H 486.897 2.82905 4.88493 0
M  V30 4903 N 486.295 -0.989507 1.22664 0
M  V30 4904 C 487.543 -1.72612 1.05117 0
M  V30 4905 C 487.864 -1.90552 -0.414131 0
M  V30 4906 O 487.134 -1.4676 -1.29762 0
M  V30 4907 H 485.714 -0.639555 0.385977 0
M  V30 4908 H 488.376 -1.19158 1.54232 0
M  V30 4909 H 487.472 -2.71926 1.53175 0
M  V30 4910 N 487.773 -1.03688 -1.18687 0
M  V30 4911 C 489.019 -0.739123 -1.88851 0
M  V30 4912 C 489.352 0.731042 -1.79915 0
M  V30 4913 O 488.627 1.53313 -1.19688 0
M  V30 4914 C 488.91 -1.20106 -3.3948 0
M  V30 4915 C 488.763 -2.73304 -3.57246 0
M  V30 4916 C 490.082 -0.788134 -4.32986 0
M  V30 4917 H 487.201 -0.269978 -0.68577 0
M  V30 4918 H 489.843 -1.28822 -1.3966 0
M  V30 4919 H 487.993 -0.733915 -3.81505 0
M  V30 4920 H 489.665 -3.28027 -3.24339 0
M  V30 4921 H 487.908 -3.13313 -3.00029 0
M  V30 4922 H 488.579 -3.00684 -4.62918 0
M  V30 4923 H 491.055 -1.19005 -3.98719 0
M  V30 4924 H 489.931 -1.13915 -5.36949 0
M  V30 4925 H 490.192 0.308988 -4.41019 0
M  V30 4926 N 489.251 1.34841 -0.815825 0
M  V30 4927 C 490.181 2.32187 -0.247298 0
M  V30 4928 C 491.162 1.5791 0.632344 0
M  V30 4929 O 492.347 1.8593 0.560698 0
M  V30 4930 C 489.477 3.42122 0.597466 0
M  V30 4931 C 488.431 4.27602 -0.184446 0
M  V30 4932 C 487.757 5.28942 0.782609 0
M  V30 4933 C 489.057 5.03502 -1.38865 0
M  V30 4934 H 490.751 2.79985 -1.06061 0
M  V30 4935 H 488.297 1.34611 -0.511461 0
M  V30 4936 H 490.25 4.09232 1.00533 0
M  V30 4937 H 488.974 2.92956 1.44376 0
M  V30 4938 H 487.633 3.62085 -0.573592 0
M  V30 4939 H 487.281 4.7604 1.62466 0
M  V30 4940 H 486.981 5.87008 0.263695 0
M  V30 4941 H 488.505 5.98922 1.18848 0
M  V30 4942 H 489.919 5.63506 -1.05518 0
M  V30 4943 H 488.316 5.71108 -1.8427 0
M  V30 4944 H 489.386 4.33608 -2.17054 0
M  V30 4945 N 490.729 0.570148 1.46925 0
M  V30 4946 C 491.969 0.0534743 2.0433 0
M  V30 4947 C 492.333 -1.27729 1.4335 0
M  V30 4948 O 493.534 -1.88244 1.91879 0
M  V30 4949 C 491.805 -0.0244296 3.57392 0
M  V30 4950 S 493.364 -0.485351 4.36108 0
M  V30 4951 H 490.182 0.0313908 0.710307 0
M  V30 4952 H 492.784 0.759808 1.80131 0
M  V30 4953 H 491.488 0.948261 3.99295 0
M  V30 4954 H 491.019 -0.753922 3.86108 0
M  V30 4955 H 493.034 -1.74258 4.64595 0
M  V30 4956 N 492.207 -1.54576 0.307264 0
M  V30 4957 C 493.623 -1.59534 -0.0459251 0
M  V30 4958 C 493.823 -1.32414 -1.51884 0
M  V30 4959 O 492.879 -1.1006 -2.27251 0
M  V30 4960 C 494.192 -2.98566 0.357649 0
M  V30 4961 C 495.74 -3.11491 0.306937 0
M  V30 4962 C 496.215 -4.52842 0.685427 0
M  V30 4963 N 497.706 -4.58782 0.638203 0
M  V30 4964 C 498.441 -5.66238 0.903458 0
M  V30 4965 N 497.937 -6.81703 1.23501 0
M  V30 4966 N 499.73 -5.55937 0.830102 0
M  V30 4967 H 491.881 -1.70464 1.26712 0
M  V30 4968 H 494.144 -0.79647 0.514139 0
M  V30 4969 H 493.85 -3.23356 1.38325 0
M  V30 4970 H 493.724 -3.76117 -0.285565 0
M  V30 4971 H 496.111 -2.86446 -0.709424 0
M  V30 4972 H 496.192 -2.36081 0.984861 0
M  V30 4973 H 495.836 -4.78618 1.69963 0
M  V30 4974 H 495.766 -5.26598 -0.0146346 0
M  V30 4975 H 498.257 -3.75849 0.393138 0
M  V30 4976 H 498.57 -7.59582 1.42322 0
M  V30 4977 H 496.915 -6.8324 1.27311 0
M  V30 4978 H 500.106 -4.64608 0.570693 0
M  V30 4979 H 500.279 -6.39597 1.04019 0
M  V30 4980 N 493.685 -0.035106 -1.57561 0
M  V30 4981 C 494.91 0.655802 -1.96759 0
M  V30 4982 C 495.335 1.64523 -0.911809 0
M  V30 4983 O 494.693 1.80857 0.126673 0
M  V30 4984 C 494.741 1.33326 -3.35047 0
M  V30 4985 O 493.845 2.44866 -3.31835 0
M  V30 4986 H 493.186 0.171807 -0.641388 0
M  V30 4987 H 495.716 -0.0987369 -2.04362 0
M  V30 4988 H 495.726 1.68867 -3.71413 0
M  V30 4989 H 494.401 0.608033 -4.11431 0
M  V30 4990 H 492.978 2.11392 -3.07193 0
M  V30 4991 N 495.163 1.55791 0.238111 0
M  V30 4992 C 496.093 1.94068 1.29846 0
M  V30 4993 C 497.074 0.806726 1.49753 0
M  V30 4994 O 498.259 1.06772 1.62214 0
M  V30 4995 C 495.389 2.24302 2.65153 0
M  V30 4996 C 494.343 3.40032 2.59927 0
M  V30 4997 C 493.669 3.55829 3.99111 0
M  V30 4998 C 494.969 4.75476 2.16148 0
M  V30 4999 H 496.663 2.82887 0.980563 0
M  V30 5000 H 494.209 1.36105 0.470253 0
M  V30 5001 H 496.162 2.4967 3.39475 0
M  V30 5002 H 494.886 1.32318 2.98596 0
M  V30 5003 H 493.545 3.14687 1.88063 0
M  V30 5004 H 493.193 2.6125 4.29834 0
M  V30 5005 H 492.893 4.3366 3.96501 0
M  V30 5006 H 494.417 3.83528 4.7512 0
M  V30 5007 H 495.831 5.00158 2.80205 0
M  V30 5008 H 494.228 5.56472 2.24631 0
M  V30 5009 H 495.298 4.71946 1.11333 0
M  V30 5010 N 496.642 -0.504142 1.49319 0
M  V30 5011 C 497.605 -1.5883 1.65244 0
M  V30 5012 C 498.605 -1.52009 0.524386 0
M  V30 5013 O 499.795 -1.55218 0.79077 0
M  V30 5014 C 496.927 -2.98481 1.64687 0
M  V30 5015 H 498.12 -1.4604 2.61939 0
M  V30 5016 H 495.673 -0.728144 1.38303 0
M  V30 5017 H 496.408 -3.16751 0.695644 0
M  V30 5018 H 496.193 -3.0484 2.46607 0
M  V30 5019 H 497.683 -3.77256 1.79075 0
M  V30 5020 N 498.12 -1.38341 -0.754957 0
M  V30 5021 C 499.368 -1.34208 -1.51105 0
M  V30 5022 C 499.689 0.0677634 -1.94882 0
M  V30 5023 O 498.959 1.01517 -1.67544 0
M  V30 5024 H 497.539 -0.493819 -0.560493 0
M  V30 5025 H 500.201 -1.73005 -0.897507 0
M  V30 5026 H 499.297 -1.99203 -2.4026 0
M  V30 5027 N 499.598 0.982988 -1.23187 0
M  V30 5028 C 500.528 2.09301 -1.03515 0
M  V30 5029 C 501.509 1.70035 0.0471136 0
M  V30 5030 O 502.694 1.93847 -0.117029 0
M  V30 5031 C 499.824 3.4167 -0.622791 0
M  V30 5032 C 498.778 3.94828 -1.65211 0
M  V30 5033 C 498.104 5.23362 -1.09527 0
M  V30 5034 C 499.404 4.2439 -3.04451 0
M  V30 5035 H 501.098 2.26016 -1.96359 0
M  V30 5036 H 498.644 1.08611 -0.945501 0
M  V30 5037 H 500.597 4.18746 -0.472233 0
M  V30 5038 H 499.321 3.24811 0.341329 0
M  V30 5039 H 497.98 3.19895 -1.79061 0
M  V30 5040 H 497.628 5.02852 -0.122211 0
M  V30 5041 H 497.328 5.59895 -1.783 0
M  V30 5042 H 498.852 6.03062 -0.956511 0
M  V30 5043 H 500.266 4.92225 -2.93917 0
M  V30 5044 H 498.663 4.72118 -3.70438 0
M  V30 5045 H 499.733 3.31765 -3.53638 0
M  V30 5046 N 501.076 1.04316 1.18135 0
M  V30 5047 C 502.324 0.746542 1.87806 0
M  V30 5048 C 502.645 -0.728082 1.80898 0
M  V30 5049 O 501.915 -1.52554 1.22899 0
M  V30 5050 H 500.495 0.273157 0.695265 0
M  V30 5051 H 503.157 1.32044 1.43354 0
M  V30 5052 H 502.253 1.05362 2.93778 0
M  V30 5053 N 502.554 -1.34406 0.822964 0
M  V30 5054 C 503.802 -1.97892 0.410245 0
M  V30 5055 C 504.123 -1.65567 -1.03017 0
M  V30 5056 O 503.393 -0.94642 -1.71522 0
M  V30 5057 H 501.973 -0.732049 0.148707 0
M  V30 5058 H 504.635 -1.64043 1.05242 0
M  V30 5059 H 503.731 -3.07579 0.529284 0
M  V30 5060 N 504.032 -0.577932 -1.46621 0
M  V30 5061 C 504.962 0.145917 -2.33044 0
M  V30 5062 C 505.943 0.888412 -1.45056 0
M  V30 5063 O 507.128 0.864812 -1.73881 0
M  V30 5064 C 504.258 1.16322 -3.27241 0
M  V30 5065 C 503.212 0.535868 -4.24632 0
M  V30 5066 C 502.538 1.65929 -5.08303 0
M  V30 5067 C 503.838 -0.523861 -5.19666 0
M  V30 5068 H 505.532 -0.575636 -2.93814 0
M  V30 5069 H 503.078 -0.278272 -1.41286 0
M  V30 5070 H 505.031 1.67793 -3.86553 0
M  V30 5071 H 503.755 1.91498 -2.64567 0
M  V30 5072 H 502.414 0.0422759 -3.66576 0
M  V30 5073 H 502.062 2.40061 -4.42018 0
M  V30 5074 H 501.762 1.2452 -5.74255 0
M  V30 5075 H 503.286 2.17686 -5.70478 0
M  V30 5076 H 504.7 -0.0944059 -5.73222 0
M  V30 5077 H 503.097 -0.858 -5.93935 0
M  V30 5078 H 504.167 -1.41197 -4.63887 0
M  V30 5079 N 505.51 1.54411 -0.315457 0
M  V30 5080 C 506.735 2.05299 0.294496 0
M  V30 5081 C 507.16 1.19052 1.4563 0
M  V30 5082 O 506.518 0.197804 1.80218 0
M  V30 5083 C 506.566 3.5345 0.714549 0
M  V30 5084 O 505.67 3.70175 1.81781 0
M  V30 5085 H 505.011 0.661743 0.0547019 0
M  V30 5086 H 507.541 1.99327 -0.461508 0
M  V30 5087 H 507.551 3.9557 0.999426 0
M  V30 5088 H 506.226 4.1568 -0.135244 0
M  V30 5089 H 504.803 3.3996 1.53236 0
M  V30 5090 N 506.988 0.0434614 1.5754 0
M  V30 5091 C 507.918 -0.931651 2.14109 0
M  V30 5092 C 508.899 -1.32971 1.06079 0
M  V30 5093 O 510.084 -1.40579 1.33982 0
M  V30 5094 C 507.214 -2.20914 2.67982 0
M  V30 5095 C 506.168 -1.95139 3.80926 0
M  V30 5096 C 505.494 -3.29276 4.21285 0
M  V30 5097 C 506.794 -1.27913 5.06395 0
M  V30 5098 H 508.488 -0.460497 2.95837 0
M  V30 5099 H 506.034 -0.220058 1.42309 0
M  V30 5100 H 507.987 -2.89522 3.06194 0
M  V30 5101 H 506.711 -2.70221 1.83434 0
M  V30 5102 H 505.37 -1.28945 3.43175 0
M  V30 5103 H 505.018 -3.76369 3.33699 0
M  V30 5104 H 504.718 -3.12831 4.97404 0
M  V30 5105 H 506.242 -3.99129 4.62091 0
M  V30 5106 H 507.656 -1.86544 5.42102 0
M  V30 5107 H 506.053 -1.2182 5.87605 0
M  V30 5108 H 507.123 -0.254066 4.84234 0
M  V30 5109 N 508.466 -1.55915 -0.229846 0
M  V30 5110 C 509.396 -1.94754 -1.28815 0
M  V30 5111 C 510.377 -0.814657 -1.49323 0
M  V30 5112 O 511.562 -1.07631 -1.61645 0
M  V30 5113 C 508.692 -2.25705 -2.63959 0
M  V30 5114 C 507.646 -3.41406 -2.5812 0
M  V30 5115 C 506.972 -3.57941 -3.97218 0
M  V30 5116 C 508.272 -4.76616 -2.13623 0
M  V30 5117 H 509.966 -2.83404 -0.965547 0
M  V30 5118 H 507.512 -1.36353 -0.463028 0
M  V30 5119 H 509.465 -2.51467 -3.38146 0
M  V30 5120 H 508.189 -1.339 -2.9789 0
M  V30 5121 H 506.848 -3.1568 -1.86391 0
M  V30 5122 H 506.496 -2.63526 -4.28443 0
M  V30 5123 H 506.196 -4.35757 -3.94195 0
M  V30 5124 H 507.72 -3.86042 -4.73079 0
M  V30 5125 H 509.134 -5.01637 -2.77549 0
M  V30 5126 H 507.531 -5.57655 -2.21677 0
M  V30 5127 H 508.601 -4.7253 -1.08829 0
M  V30 5128 N 509.944 0.496216 -1.49584 0
M  V30 5129 C 511.192 1.24756 -1.58998 0
M  V30 5130 C 511.513 1.92968 -0.280775 0
M  V30 5131 O 510.783 1.82959 0.700198 0
M  V30 5132 H 509.363 0.463471 -0.585836 0
M  V30 5133 H 512.025 0.574678 -1.86235 0
M  V30 5134 H 511.121 2.00895 -2.38847 0
M  V30 5135 N 511.423 1.38739 0.74761 0
M  V30 5136 C 512.669 1.35475 1.50912 0
M  V30 5137 C 513.002 -0.0533093 1.94127 0
M  V30 5138 O 512.277 -1.01572 1.65871 0
M  V30 5139 C 512.56 2.31582 2.75757 0
M  V30 5140 C 512.413 3.81274 2.38642 0
M  V30 5141 C 513.732 2.25722 3.77806 0
M  V30 5142 H 510.851 0.493427 0.547447 0
M  V30 5143 H 513.493 1.69634 0.855823 0
M  V30 5144 H 511.643 2.02582 3.31501 0
M  V30 5145 H 513.315 4.20972 1.88626 0
M  V30 5146 H 511.558 3.98664 1.71025 0
M  V30 5147 H 512.229 4.4399 3.27989 0
M  V30 5148 H 514.705 2.51336 3.31616 0
M  V30 5149 H 513.581 2.95069 4.62845 0
M  V30 5150 H 513.842 1.25803 4.23823 0
M  V30 5151 N 512.901 -0.976442 1.23707 0
M  V30 5152 C 514.148 -1.71827 1.07153 0
M  V30 5153 C 514.476 -1.9053 -0.390982 0
M  V30 5154 O 513.731 -1.45779 -1.30564 0
M  V30 5155 C 514.03 -3.11814 1.74662 0
M  V30 5156 C 513.696 -3.12978 3.24585 0
M  V30 5157 C 512.358 -3.13003 3.6549 0
M  V30 5158 C 514.71 -3.07986 4.20469 0
M  V30 5159 C 512.038 -3.05757 5.00729 0
M  V30 5160 C 514.39 -3.02282 5.55705 0
M  V30 5161 C 513.054 -3.00631 5.95968 0
M  V30 5162 H 512.324 -0.628758 0.392102 0
M  V30 5163 H 514.971 -1.14239 1.53693 0
M  V30 5164 H 513.276 -3.72812 1.20492 0
M  V30 5165 H 514.973 -3.67989 1.59328 0
M  V30 5166 H 511.563 -3.13718 2.92026 0
M  V30 5167 H 515.747 -3.07103 3.89874 0
M  V30 5168 H 511.003 -3.02834 5.31132 0
M  V30 5169 H 515.177 -2.97376 6.29714 0
M  V30 5170 H 512.804 -2.94771 7.00724 0
M  V30 5171 N 514.379 -1.04941 -1.1758 0
M  V30 5172 C 515.619 -0.766996 -1.89464 0
M  V30 5173 C 515.983 0.693123 -1.79053 0
M  V30 5174 O 517.184 1.08953 -2.45729 0
M  V30 5175 C 515.455 -1.23108 -3.35528 0
M  V30 5176 S 517.014 -1.07565 -4.25412 0
M  V30 5177 H 513.832 -0.278616 -0.654136 0
M  V30 5178 H 516.434 -1.34352 -1.4202 0
M  V30 5179 H 515.138 -2.28896 -3.40639 0
M  V30 5180 H 514.669 -0.648724 -3.88014 0
M  V30 5181 H 516.684 0.00169467 -4.962 0
M  V30 5182 N 515.857 1.33968 -0.830081 0
M  V30 5183 C 517.105 1.97672 -0.420734 0
M  V30 5184 C 517.426 1.66111 1.02138 0
M  V30 5185 O 516.696 0.955503 1.71017 0
M  V30 5186 H 515.276 0.73125 -0.152587 0
M  V30 5187 H 517.938 1.63483 -1.0611 0
M  V30 5188 H 517.034 3.07294 -0.545588 0
M  V30 5189 N 517.335 0.585699 1.46312 0
M  V30 5190 C 518.583 0.072278 2.01971 0
M  V30 5191 C 518.904 -1.29345 1.45928 0
M  V30 5192 O 518.174 -1.84973 0.645109 0
M  V30 5193 H 516.754 0.023729 0.746623 0
M  V30 5194 H 519.416 0.762155 1.7938 0
M  V30 5195 H 518.512 0.00552767 3.121 0
M  V30 5196 N 518.813 -1.54241 0.323641 0
M  V30 5197 C 520.043 -2.04687 -0.280464 0
M  V30 5198 C 520.451 -1.19939 -1.46326 0
M  V30 5199 O 519.794 -0.222872 -1.82343 0
M  V30 5200 C 519.856 -3.50978 -0.778123 0
M  V30 5201 C 519.52 -4.56127 0.282371 0
M  V30 5202 C 520.517 -5.07726 1.11847 0
M  V30 5203 C 518.202 -5.00451 0.430582 0
M  V30 5204 C 520.196 -6.02212 2.08851 0
M  V30 5205 C 517.883 -5.94752 1.40404 0
M  V30 5206 C 518.881 -6.45519 2.23147 0
M  V30 5207 O 518.569 -7.37968 3.1884 0
M  V30 5208 H 518.301 -0.673192 -0.0615473 0
M  V30 5209 H 520.855 -1.99999 0.467921 0
M  V30 5210 H 519.085 -3.53064 -1.57742 0
M  V30 5211 H 520.774 -3.84499 -1.30058 0
M  V30 5212 H 521.54 -4.74261 1.01496 0
M  V30 5213 H 517.419 -4.6055 -0.203569 0
M  V30 5214 H 520.963 -6.41761 2.73474 0
M  V30 5215 H 516.86 -6.27633 1.5082 0
M  V30 5216 H 517.628 -7.55841 3.14079 0
M  V30 5217 N 520.291 -0.0518155 -1.57515 0
M  V30 5218 C 521.221 0.920283 -2.146 0
M  V30 5219 C 522.202 1.32406 -1.06783 0
M  V30 5220 O 523.387 1.39866 -1.34726 0
M  V30 5221 C 520.517 2.1949 -2.6915 0
M  V30 5222 C 519.471 1.93116 -3.81956 0
M  V30 5223 C 518.797 3.27037 -4.23026 0
M  V30 5224 C 520.097 1.25225 -5.07066 0
M  V30 5225 H 521.791 0.444801 -2.96077 0
M  V30 5226 H 519.337 0.212508 -1.42423 0
M  V30 5227 H 521.29 2.87894 -3.07725 0
M  V30 5228 H 520.014 2.69244 -1.84865 0
M  V30 5229 H 518.673 1.27123 -3.43854 0
M  V30 5230 H 518.321 3.74595 -3.3569 0
M  V30 5231 H 518.021 3.10189 -4.99056 0
M  V30 5232 H 519.545 3.96673 -4.64202 0
M  V30 5233 H 520.959 1.83666 -5.43083 0
M  V30 5234 H 519.356 1.18702 -5.88243 0
M  V30 5235 H 520.426 0.228382 -4.84362 0
M  V30 5236 N 521.769 1.56035 0.221574 0
M  V30 5237 C 522.702 1.87427 1.30178 0
M  V30 5238 C 523.68 0.731658 1.45209 0
M  V30 5239 O 524.864 0.980016 1.61022 0
M  V30 5240 C 521.991 2.08127 2.67209 0
M  V30 5241 C 521.037 3.30813 2.69194 0
M  V30 5242 S 521.87 4.86738 2.23263 0
M  V30 5243 C 523.026 5.10474 3.62171 0
M  V30 5244 H 523.259 2.78756 1.03355 0
M  V30 5245 H 520.792 1.48469 0.423813 0
M  V30 5246 H 522.75 2.20736 3.46101 0
M  V30 5247 H 521.411 1.17595 2.91256 0
M  V30 5248 H 520.604 3.42341 3.6989 0
M  V30 5249 H 520.206 3.1706 1.98366 0
M  V30 5250 H 522.498 4.9937 4.5786 0
M  V30 5251 H 523.441 6.12359 3.55558 0
M  V30 5252 H 523.849 4.38208 3.55857 0
M  V30 5253 N 523.247 -0.488276 1.49845 0
M  V30 5254 C 524.21 -1.57069 1.66919 0
M  V30 5255 C 525.21 -1.51445 0.540479 0
M  V30 5256 O 526.4 -1.5437 0.807188 0
M  V30 5257 C 523.532 -2.96718 1.67844 0
M  V30 5258 H 524.725 -1.43254 2.63474 0
M  V30 5259 H 522.278 -0.713435 1.39068 0
M  V30 5260 H 523.013 -3.15996 0.7292 0
M  V30 5261 H 522.798 -3.02208 2.49826 0
M  V30 5262 H 524.288 -3.75335 1.83066 0
M  V30 5263 N 524.725 -1.39134 -0.740242 0
M  V30 5264 C 525.655 -1.40165 -1.86751 0
M  V30 5265 C 526.636 -0.265708 -1.68012 0
M  V30 5266 O 527.821 -0.47076 -1.88408 0
M  V30 5267 C 524.951 -1.2392 -3.2444 0
M  V30 5268 C 523.905 -2.34858 -3.57807 0
M  V30 5269 C 523.231 -2.03707 -4.94376 0
M  V30 5270 C 524.531 -3.77159 -3.61315 0
M  V30 5271 H 526.225 -2.345 -1.86145 0
M  V30 5272 H 523.771 -1.12875 -0.89416 0
M  V30 5273 H 525.724 -1.23263 -4.02969 0
M  V30 5274 H 524.448 -0.26051 -3.25559 0
M  V30 5275 H 523.107 -2.34723 -2.81604 0
M  V30 5276 H 522.755 -1.04289 -4.9207 0
M  V30 5277 H 522.455 -2.78016 -5.17669 0
M  V30 5278 H 523.979 -2.04691 -5.75268 0
M  V30 5279 H 525.393 -3.79252 -4.29931 0
M  V30 5280 H 523.79 -4.50784 -3.96124 0
M  V30 5281 H 524.86 -4.08513 -2.61238 0
M  V30 5282 N 526.204 0.969867 -1.24223 0
M  V30 5283 C 527.167 2.04564 -1.03373 0
M  V30 5284 C 528.167 1.60798 0.00819206 0
M  V30 5285 O 529.357 1.72641 -0.232567 0
M  V30 5286 C 526.489 3.36163 -0.566343 0
M  V30 5287 H 527.682 2.24494 -1.98853 0
M  V30 5288 H 525.235 1.1448 -1.06415 0
M  V30 5289 H 525.97 3.21925 0.391751 0
M  V30 5290 H 525.755 3.69273 -1.31834 0
M  V30 5291 H 527.245 4.1526 -0.441435 0
M  V30 5292 N 527.682 1.05563 1.17022 0
M  V30 5293 C 528.928 0.769074 1.87652 0
M  V30 5294 C 529.261 -0.702326 1.81055 0
M  V30 5295 O 528.536 -1.5139 1.22112 0
M  V30 5296 C 528.819 1.25492 3.37526 0
M  V30 5297 C 528.672 2.78953 3.52853 0
M  V30 5298 C 529.991 0.856919 4.31677 0
M  V30 5299 H 527.11 0.280854 0.681388 0
M  V30 5300 H 529.752 1.31027 1.37593 0
M  V30 5301 H 527.902 0.794516 3.80289 0
M  V30 5302 H 529.574 3.33146 3.19079 0
M  V30 5303 H 527.817 3.18046 2.95007 0
M  V30 5304 H 528.488 3.08011 4.58076 0
M  V30 5305 H 530.964 1.25334 3.96775 0
M  V30 5306 H 529.84 1.22443 5.35069 0
M  V30 5307 H 530.101 -0.238787 4.41455 0
M  V30 5308 N 529.16 -1.33526 0.837174 0
M  V30 5309 C 530.09 -2.31764 0.284206 0
M  V30 5310 C 531.071 -1.58896 -0.607142 0
M  V30 5311 O 532.256 -1.86798 -0.531047 0
M  V30 5312 C 529.386 -3.43029 -0.542962 0
M  V30 5313 C 528.34 -4.27255 0.252451 0
M  V30 5314 C 527.666 -5.3012 -0.69836 0
M  V30 5315 C 528.966 -5.01229 1.46858 0
M  V30 5316 H 530.66 -2.78262 1.10502 0
M  V30 5317 H 528.206 -1.3378 0.532812 0
M  V30 5318 H 530.159 -4.1078 -0.940096 0
M  V30 5319 H 528.883 -2.95216 -1.39697 0
M  V30 5320 H 527.542 -3.61127 0.631124 0
M  V30 5321 H 527.19 -4.78564 -1.54872 0
M  V30 5322 H 526.89 -5.87353 -0.170274 0
M  V30 5323 H 528.414 -6.00737 -1.09305 0
M  V30 5324 H 529.828 -5.61756 1.14469 0
M  V30 5325 H 528.225 -5.68104 1.93333 0
M  V30 5326 H 529.295 -4.301 2.23924 0
M  V30 5327 N 530.638 -0.59345 -1.46 0
M  V30 5328 C 531.863 -0.0872365 -2.07216 0
M  V30 5329 C 532.288 1.2131 -1.43755 0
M  V30 5330 O 531.646 1.73528 -0.525152 0
M  V30 5331 C 531.694 0.0538197 -3.6056 0
M  V30 5332 O 530.798 1.10765 -3.97247 0
M  V30 5333 H 530.139 -0.0676598 -0.660544 0
M  V30 5334 H 532.669 -0.819445 -1.87473 0
M  V30 5335 H 532.679 0.256567 -4.07193 0
M  V30 5336 H 531.354 -0.895739 -4.0614 0
M  V30 5337 H 529.931 0.882501 -3.62307 0
M  V30 5338 N 532.116 1.54067 -0.331816 0
M  V30 5339 C 533.527 1.86059 0.15454 0
M  V30 5340 C 533.878 1.25331 1.50952 0
M  V30 5341 O 533.003 0.562441 2.08963 0
M  V30 5342 C 533.598 3.37581 0.287192 0
M  V30 5343 C 532.157 3.69493 0.717773 0
M  V30 5344 C 531.304 2.76863 -0.155569 0
M  V30 5345 H 534.255 1.48797 -0.55182 0
M  V30 5346 H 534.276 3.63744 1.11671 0
M  V30 5347 H 533.788 3.81751 -0.699131 0
M  V30 5348 H 531.889 3.3086 1.71354 0
M  V30 5349 H 532.002 4.76315 0.5158 0
M  V30 5350 H 530.366 2.51995 0.370213 0
M  V30 5351 H 531.149 3.23861 -1.13881 0
M  V30 5352 N 533.594 0.0601682 1.57485 0
M  V30 5353 C 534.834 -0.615384 1.94916 0
M  V30 5354 C 535.198 -1.67475 0.938948 0
M  V30 5355 O 536.399 -2.40502 1.20051 0
M  V30 5356 C 534.67 -1.18788 3.37082 0
M  V30 5357 S 536.229 -1.88018 3.96478 0
M  V30 5358 H 533.047 -0.201821 0.681754 0
M  V30 5359 H 535.649 0.131252 1.95059 0
M  V30 5360 H 534.353 -0.404869 4.08398 0
M  V30 5361 H 533.884 -1.97114 3.40455 0
M  V30 5362 H 535.899 -3.16161 3.82435 0
M  V30 5363 N 535.072 -1.5615 -0.213296 0
M  V30 5364 C 536.483 -1.69645 -0.779582 0
M  V30 5365 C 536.834 -0.663615 -1.84636 0
M  V30 5366 O 535.959 0.183633 -2.15619 0
M  V30 5367 C 536.554 -3.07567 -1.42084 0
M  V30 5368 C 535.113 -3.22889 -1.93442 0
M  V30 5369 C 534.26 -2.65581 -0.797612 0
M  V30 5370 H 537.211 -1.58696 0.0114951 0
M  V30 5371 H 537.232 -3.03884 -2.28986 0
M  V30 5372 H 536.744 -3.82716 -0.644187 0
M  V30 5373 H 534.845 -2.52623 -2.73884 0
M  V30 5374 H 534.958 -4.30197 -2.10872 0
M  V30 5375 H 533.322 -2.24278 -1.20712 0
M  V30 5376 H 534.105 -3.43284 -0.033494 0
M  V30 5377 N 536.55 0.480323 -1.50102 0
M  V30 5378 C 537.961 1.06142 -1.53593 0
M  V30 5379 C 538.312 1.93335 -0.334055 0
M  V30 5380 O 537.437 2.09188 0.55403 0
M  V30 5381 C 538.032 1.9317 -2.78336 0
M  V30 5382 C 536.591 2.46405 -2.84538 0
M  V30 5383 C 535.738 1.24521 -2.4777 0
M  V30 5384 H 538.689 0.26333 -1.565 0
M  V30 5385 H 538.71 2.78123 -2.59669 0
M  V30 5386 H 538.222 1.29683 -3.65792 0
M  V30 5387 H 536.323 3.13472 -2.01411 0
M  V30 5388 H 536.436 2.82143 -3.87211 0
M  V30 5389 H 534.8 1.57706 -2.00003 0
M  V30 5390 H 535.583 0.627102 -3.37524 0
M  V30 5391 N 538.028 1.39524 0.732853 0
M  V30 5392 C 538.958 1.41153 1.86005 0
M  V30 5393 C 539.939 0.274614 1.67869 0
M  V30 5394 O 541.124 0.480745 1.88155 0
M  V30 5395 C 538.254 1.25638 3.23778 0
M  V30 5396 C 537.208 2.36752 3.56556 0
M  V30 5397 C 536.534 2.06326 4.93289 0
M  V30 5398 C 537.834 3.79069 3.5931 0
M  V30 5399 H 539.528 2.35484 1.84899 0
M  V30 5400 H 537.074 1.13348 0.888162 0
M  V30 5401 H 539.027 1.25398 4.0231 0
M  V30 5402 H 537.751 0.277772 3.25417 0
M  V30 5403 H 536.41 2.36213 2.80355 0
M  V30 5404 H 536.058 1.06897 4.9151 0
M  V30 5405 H 535.758 2.80757 5.16187 0
M  V30 5406 H 537.282 2.07739 5.74175 0
M  V30 5407 H 538.696 3.81526 4.27914 0
M  V30 5408 H 537.093 4.52878 3.93728 0
M  V30 5409 H 538.163 4.09893 2.59068 0
M  V30 5410 N 539.506 -0.963266 1.24736 0
M  V30 5411 C 540.752 -1.70933 1.09131 0
M  V30 5412 C 541.085 -1.90676 -0.368273 0
M  V30 5413 O 540.36 -1.47147 -1.27193 0
M  V30 5414 C 540.643 -3.09744 1.83658 0
M  V30 5415 C 540.496 -2.97465 3.37394 0
M  V30 5416 C 541.815 -4.09483 1.61282 0
M  V30 5417 H 538.934 -0.620398 0.397838 0
M  V30 5418 H 541.576 -1.12028 1.53459 0
M  V30 5419 H 539.726 -3.60031 1.4598 0
M  V30 5420 H 541.398 -2.54571 3.84696 0
M  V30 5421 H 539.641 -2.33576 3.65547 0
M  V30 5422 H 540.312 -3.95822 3.84745 0
M  V30 5423 H 542.788 -3.68073 1.94066 0
M  V30 5424 H 541.664 -5.04666 2.15878 0
M  V30 5425 H 541.925 -4.38639 0.552102 0
M  V30 5426 N 540.985 -1.06182 -1.16461 0
M  V30 5427 C 542.233 -0.776326 -1.86595 0
M  V30 5428 C 542.554 0.69921 -1.82033 0
M  V30 5429 O 541.824 1.50579 -1.2531 0
M  V30 5430 H 540.404 -0.284184 -0.690832 0
M  V30 5431 H 543.066 -1.34308 -1.41235 0
M  V30 5432 H 542.162 -1.10022 -2.92064 0
M  V30 5433 N 542.463 1.3308 -0.844243 0
M  V30 5434 C 543.691 2.01808 -0.456203 0
M  V30 5435 C 544.106 1.63498 0.944131 0
M  V30 5436 O 543.463 0.85102 1.61443 0
M  V30 5437 C 543.514 3.56922 -0.573513 0
M  V30 5438 O 543.235 3.93851 -1.91868 0
M  V30 5439 C 544.736 4.42922 -0.183125 0
M  V30 5440 H 541.956 0.646273 -0.180477 0
M  V30 5441 H 544.5 1.69891 -1.1383 0
M  V30 5442 H 542.655 3.87352 0.0607367 0
M  V30 5443 H 543.069 4.88564 -1.90802 0
M  V30 5444 H 544.543 5.51093 -0.316241 0
M  V30 5445 H 545.02 4.30386 0.875477 0
M  V30 5446 H 545.626 4.1786 -0.792027 0
M  V30 5447 N 543.941 0.601185 1.45683 0
M  V30 5448 C 545.166 0.0982245 2.07167 0
M  V30 5449 C 545.591 -1.20546 1.44396 0
M  V30 5450 O 544.949 -1.73247 0.534347 0
M  V30 5451 C 544.997 -0.0346976 3.60583 0
M  V30 5452 O 544.101 -1.08657 3.97828 0
M  V30 5453 H 543.442 0.0711618 0.660176 0
M  V30 5454 H 545.972 0.829376 1.87036 0
M  V30 5455 H 545.982 -0.234969 4.07323 0
M  V30 5456 H 544.657 0.917265 4.05659 0
M  V30 5457 H 543.234 -0.863275 3.6277 0
M  V30 5458 N 545.419 -1.53889 0.339982 0
M  V30 5459 C 546.382 -2.23547 -0.50592 0
M  V30 5460 C 547.382 -1.23445 -1.03044 0
M  V30 5461 O 548.572 -1.47909 -0.920253 0
M  V30 5462 C 545.704 -2.95234 -1.7044 0
M  V30 5463 H 546.897 -2.99722 0.103247 0
M  V30 5464 H 544.45 -1.56033 0.0912804 0
M  V30 5465 H 545.185 -2.23236 -2.35236 0
M  V30 5466 H 544.97 -3.68654 -1.33553 0
M  V30 5467 H 546.46 -3.48258 -2.30447 0
M  V30 5468 N 546.897 -0.0685191 -1.57451 0
M  V30 5469 C 548.145 0.60016 -1.92983 0
M  V30 5470 C 548.466 1.70348 -0.949028 0
M  V30 5471 O 547.736 1.959 0.00335647 0
M  V30 5472 H 546.316 0.224682 -0.712409 0
M  V30 5473 H 548.978 -0.125605 -1.94495 0
M  V30 5474 H 548.074 1.02759 -2.94698 0
M  V30 5475 N 548.375 1.56261 0.205012 0
M  V30 5476 C 549.621 1.80306 0.9283 0
M  V30 5477 C 549.954 0.640932 1.83319 0
M  V30 5478 O 549.229 -0.359032 1.91158 0
M  V30 5479 C 549.512 3.14547 1.75306 0
M  V30 5480 C 549.365 4.41236 0.873562 0
M  V30 5481 C 550.684 3.45382 2.72762 0
M  V30 5482 H 547.803 0.655929 0.336044 0
M  V30 5483 H 550.445 1.88984 0.196211 0
M  V30 5484 H 548.595 3.0728 2.37721 0
M  V30 5485 H 550.267 4.60539 0.264887 0
M  V30 5486 H 548.51 4.33427 0.179773 0
M  V30 5487 H 549.181 5.31639 1.48541 0
M  V30 5488 H 551.657 3.52884 2.20481 0
M  V30 5489 H 550.533 4.40449 3.2756 0
M  V30 5490 H 550.794 2.68377 3.51321 0
M  V30 5491 N 549.853 -0.472356 1.50355 0
M  V30 5492 C 551.099 -1.22634 1.6152 0
M  V30 5493 C 551.432 -1.91645 0.313995 0
M  V30 5494 O 550.707 -1.82059 -0.684446 0
M  V30 5495 C 550.99 -2.27099 2.7946 0
M  V30 5496 C 550.843 -1.62402 4.19459 0
M  V30 5497 C 552.162 -3.28421 2.92964 0
M  V30 5498 H 549.281 -0.444494 0.587873 0
M  V30 5499 H 551.923 -0.520321 1.82737 0
M  V30 5500 H 550.073 -2.87314 2.61501 0
M  V30 5501 H 551.745 -1.05793 4.49005 0
M  V30 5502 H 549.988 -0.927184 4.23776 0
M  V30 5503 H 550.659 -2.38309 4.97909 0
M  V30 5504 H 553.135 -2.78227 3.09401 0
M  V30 5505 H 552.011 -3.98845 3.77113 0
M  V30 5506 H 552.272 -3.92467 2.03525 0
M  V30 5507 N 551.331 -1.39911 -0.725443 0
M  V30 5508 C 552.261 -1.42138 -1.85254 0
M  V30 5509 C 553.242 -0.283513 -1.67721 0
M  V30 5510 O 554.427 -0.490717 -1.87898 0
M  V30 5511 C 551.557 -1.27354 -3.23107 0
M  V30 5512 C 550.511 -2.3864 -3.55296 0
M  V30 5513 C 549.837 -2.08939 -4.92188 0
M  V30 5514 C 551.137 -3.8097 -3.57295 0
M  V30 5515 H 552.831 -2.36461 -1.83648 0
M  V30 5516 H 550.377 -1.13817 -0.882138 0
M  V30 5517 H 552.33 -1.2753 -4.01639 0
M  V30 5518 H 551.054 -0.295025 -3.25265 0
M  V30 5519 H 549.713 -2.37696 -2.79099 0
M  V30 5520 H 549.361 -1.09502 -4.90936 0
M  V30 5521 H 549.061 -2.83491 -5.14691 0
M  V30 5522 H 550.585 -2.10781 -5.73065 0
M  V30 5523 H 551.999 -3.8379 -4.25885 0
M  V30 5524 H 550.396 -4.5496 -3.9132 0
M  V30 5525 H 551.466 -4.11261 -2.5689 0
M  V30 5526 N 552.809 0.956637 -1.25245 0
M  V30 5527 C 554.055 1.70352 -1.10036 0
M  V30 5528 C 554.388 1.90869 0.358156 0
M  V30 5529 O 553.663 1.47819 1.26411 0
M  V30 5530 C 553.946 3.08766 -1.85298 0
M  V30 5531 C 553.799 2.95672 -3.38966 0
M  V30 5532 C 555.118 4.08622 -1.63451 0
M  V30 5533 H 552.237 0.618279 -0.401123 0
M  V30 5534 H 554.879 1.11212 -1.54051 0
M  V30 5535 H 553.029 3.59252 -1.47887 0
M  V30 5536 H 554.701 2.52527 -3.86041 0
M  V30 5537 H 552.944 2.31634 -3.6678 0
M  V30 5538 H 553.615 3.93776 -3.86839 0
M  V30 5539 H 556.091 3.67038 -1.96015 0
M  V30 5540 H 554.967 5.03514 -2.18551 0
M  V30 5541 H 555.228 4.3834 -0.575357 0
M  V30 5542 N 554.287 1.06798 1.15896 0
M  V30 5543 C 555.533 0.788934 1.86825 0
M  V30 5544 C 555.866 -0.683084 1.8179 0
M  V30 5545 O 555.141 -1.50086 1.23711 0
M  V30 5546 C 555.424 1.29065 3.36176 0
M  V30 5547 C 555.277 2.8268 3.49874 0
M  V30 5548 C 556.596 0.902655 4.30744 0
M  V30 5549 H 553.715 0.288066 0.678371 0
M  V30 5550 H 556.357 1.32479 1.36195 0
M  V30 5551 H 554.507 0.834806 3.79425 0
M  V30 5552 H 556.179 3.36511 3.15528 0
M  V30 5553 H 554.422 3.21157 2.91617 0
M  V30 5554 H 555.093 3.12852 4.54783 0
M  V30 5555 H 557.569 1.29535 3.95424 0
M  V30 5556 H 556.445 1.28111 5.3374 0
M  V30 5557 H 556.706 -0.191951 4.41683 0
M  V30 5558 N 555.766 -1.3263 0.851289 0
M  V30 5559 C 556.696 -2.31449 0.308771 0
M  V30 5560 C 557.677 -1.59531 -0.590255 0
M  V30 5561 O 558.862 -1.87351 -0.511205 0
M  V30 5562 C 555.992 -3.43586 -0.506548 0
M  V30 5563 C 554.946 -4.26963 0.297753 0
M  V30 5564 C 554.272 -5.30831 -0.642094 0
M  V30 5565 C 555.572 -4.99643 1.52166 0
M  V30 5566 H 557.266 -2.77074 1.13447 0
M  V30 5567 H 554.812 -1.33207 0.546971 0
M  V30 5568 H 556.765 -4.11754 -0.896474 0
M  V30 5569 H 555.489 -2.96681 -1.36558 0
M  V30 5570 H 554.148 -3.60437 0.669391 0
M  V30 5571 H 553.796 -4.8018 -1.49788 0
M  V30 5572 H 553.496 -5.87501 -0.107968 0
M  V30 5573 H 555.02 -6.01862 -1.02927 0
M  V30 5574 H 556.434 -5.6051 1.20421 0
M  V30 5575 H 554.831 -5.66022 1.99347 0
M  V30 5576 H 555.901 -4.27701 2.28474 0
M  V30 5577 N 557.244 -0.608902 -1.45362 0
M  V30 5578 C 558.469 -0.10921 -2.07112 0
M  V30 5579 C 558.894 1.19779 -1.45033 0
M  V30 5580 O 558.252 1.72961 -0.543527 0
M  V30 5581 C 558.3 0.0155745 -3.60597 0
M  V30 5582 O 557.404 1.06546 -3.98399 0
M  V30 5583 H 556.745 -0.0746619 -0.659789 0
M  V30 5584 H 559.275 -0.839283 -1.86594 0
M  V30 5585 H 559.285 0.213364 -4.07442 0
M  V30 5586 H 557.96 -0.938765 -4.05167 0
M  V30 5587 H 556.537 0.844024 -3.63223 0
M  V30 5588 N 558.722 1.53707 -0.348139 0
M  V30 5589 C 559.968 2.01979 0.239986 0
M  V30 5590 C 560.323 1.23141 1.47831 0
M  V30 5591 O 559.616 0.311936 1.89044 0
M  V30 5592 C 559.81 3.52292 0.602061 0
M  V30 5593 C 559.639 4.45684 -0.599625 0
M  V30 5594 C 558.409 4.9304 -1.10635 0
M  V30 5595 C 560.607 4.93156 -1.4595 0
M  V30 5596 N 558.589 5.70394 -2.26988 0
M  V30 5597 C 559.96 5.6868 -2.46988 0
M  V30 5598 C 562.015 4.75257 -1.48441 0
M  V30 5599 C 560.718 6.28208 -3.50353 0
M  V30 5600 C 562.744 5.35639 -2.50689 0
M  V30 5601 C 562.106 6.11034 -3.50453 0
M  V30 5602 H 558.205 0.780335 0.0509992 0
M  V30 5603 H 560.789 1.88466 -0.488742 0
M  V30 5604 H 558.96 3.66002 1.29989 0
M  V30 5605 H 560.692 3.87304 1.17377 0
M  V30 5606 H 557.447 4.68784 -0.67371 0
M  V30 5607 H 557.871 6.13741 -2.85747 0
M  V30 5608 H 562.513 4.16508 -0.726707 0
M  V30 5609 H 560.231 6.86064 -4.27015 0
M  V30 5610 H 563.817 5.23693 -2.53449 0
M  V30 5611 H 562.697 6.56925 -4.28275 0
M  V30 5612 N 560.2 0.0768682 1.57412 0
M  V30 5613 C 561.446 -0.591961 1.93968 0
M  V30 5614 C 561.779 -1.68954 0.9575 0
M  V30 5615 O 561.054 -1.94496 -0.0124675 0
M  V30 5616 C 561.337 -1.16418 3.40762 0
M  V30 5617 C 561.19 -0.0728933 4.49741 0
M  V30 5618 C 562.509 -2.06814 3.88479 0
M  V30 5619 H 559.628 -0.213716 0.705333 0
M  V30 5620 H 562.27 0.14387 1.89455 0
M  V30 5621 H 560.42 -1.79128 3.4474 0
M  V30 5622 H 562.092 0.560446 4.57883 0
M  V30 5623 H 560.335 0.595859 4.29688 0
M  V30 5624 H 561.006 -0.513755 5.49604 0
M  V30 5625 H 563.482 -1.54033 3.8654 0
M  V30 5626 H 562.358 -2.43785 4.91793 0
M  V30 5627 H 562.619 -2.97844 3.26713 0
M  V30 5628 N 561.678 -1.56367 -0.196722 0
M  V30 5629 C 562.608 -1.97442 -1.24655 0
M  V30 5630 C 563.589 -0.846147 -1.47561 0
M  V30 5631 O 564.774 -1.11035 -1.59326 0
M  V30 5632 C 561.904 -2.31253 -2.59112 0
M  V30 5633 C 560.858 -3.46804 -2.50821 0
M  V30 5634 C 560.184 -3.66286 -3.89536 0
M  V30 5635 C 561.484 -4.8104 -2.03465 0
M  V30 5636 H 563.178 -2.85388 -0.905216 0
M  V30 5637 H 560.724 -1.37304 -0.434002 0
M  V30 5638 H 562.677 -2.58583 -3.32736 0
M  V30 5639 H 561.401 -1.40188 -2.94983 0
M  V30 5640 H 560.06 -3.19563 -1.79653 0
M  V30 5641 H 559.708 -2.72555 -4.22756 0
M  V30 5642 H 559.408 -4.4402 -3.84864 0
M  V30 5643 H 560.932 -3.9599 -4.64784 0
M  V30 5644 H 562.346 -5.07411 -2.66846 0
M  V30 5645 H 560.743 -5.62232 -2.09798 0
M  V30 5646 H 561.813 -4.74732 -0.98781 0
M  V30 5647 N 563.156 0.464375 -1.50603 0
M  V30 5648 C 564.396 1.22573 -1.6357 0
M  V30 5649 C 564.76 1.89111 -0.331834 0
M  V30 5650 O 565.961 2.66679 -0.336999 0
M  V30 5651 C 564.232 2.23643 -2.7878 0
M  V30 5652 S 565.791 3.08628 -3.1192 0
M  V30 5653 H 562.609 0.416058 -0.576556 0
M  V30 5654 H 565.211 0.521637 -1.88412 0
M  V30 5655 H 563.915 1.73354 -3.7199 0
M  V30 5656 H 563.446 2.98672 -2.56044 0
M  V30 5657 H 565.461 4.24904 -2.56264 0
M  V30 5658 N 564.634 1.40294 0.718013 0
M  V30 5659 C 565.564 1.43118 1.84498 0
M  V30 5660 C 566.545 0.292403 1.67568 0
M  V30 5661 O 567.73 0.500675 1.87635 0
M  V30 5662 C 564.86 1.29065 3.22427 0
M  V30 5663 C 563.814 2.40521 3.54025 0
M  V30 5664 C 563.14 2.11546 4.91073 0
M  V30 5665 C 564.44 3.82859 3.55269 0
M  V30 5666 H 566.134 2.37432 1.82391 0
M  V30 5667 H 563.68 1.14283 0.87609 0
M  V30 5668 H 565.633 1.29658 4.00957 0
M  V30 5669 H 564.357 0.312271 3.25104 0
M  V30 5670 H 563.016 2.39173 2.77834 0
M  V30 5671 H 562.664 1.12104 4.90348 0
M  V30 5672 H 562.364 2.86216 5.1318 0
M  V30 5673 H 563.888 2.13817 5.71939 0
M  V30 5674 H 565.302 3.86044 4.23843 0
M  V30 5675 H 563.699 4.57029 3.88902 0
M  V30 5676 H 564.769 4.12617 2.54706 0
M  V30 5677 N 566.112 -0.949982 1.2575 0
M  V30 5678 C 567.36 -1.6918 1.10555 0
M  V30 5679 C 567.681 -1.91773 -0.353298 0
M  V30 5680 O 566.951 -1.50814 -1.25027 0
M  V30 5681 H 565.531 -0.626952 0.406129 0
M  V30 5682 H 568.193 -1.1419 1.57945 0
M  V30 5683 H 567.289 -2.66915 1.61749 0
M  V30 5684 N 567.59 -1.07411 -1.15328 0
M  V30 5685 C 568.836 -0.798831 -1.86404 0
M  V30 5686 C 569.169 0.673433 -1.8215 0
M  V30 5687 O 568.444 1.49428 -1.24505 0
M  V30 5688 C 568.727 -1.30846 -3.35487 0
M  V30 5689 C 568.58 -2.84532 -3.4837 0
M  V30 5690 C 569.899 -0.925486 -4.30259 0
M  V30 5691 H 567.018 -0.291659 -0.676834 0
M  V30 5692 H 569.66 -1.332 -1.35491 0
M  V30 5693 H 567.81 -0.854916 -3.78977 0
M  V30 5694 H 569.482 -3.3818 -3.13739 0
M  V30 5695 H 567.725 -3.22699 -2.8991 0
M  V30 5696 H 568.396 -3.15259 -4.53118 0
M  V30 5697 H 570.872 -1.3163 -3.94731 0
M  V30 5698 H 569.748 -1.3094 -5.33053 0
M  V30 5699 H 570.009 0.168525 -4.41779 0
M  V30 5700 N 569.068 1.32177 -0.85831 0
M  V30 5701 C 570.315 1.97125 -0.463484 0
M  V30 5702 C 570.643 1.67907 0.981705 0
M  V30 5703 O 569.898 0.961717 1.70439 0
M  V30 5704 C 570.197 3.51372 -0.653658 0
M  V30 5705 C 569.863 4.00584 -2.06987 0
M  V30 5706 C 568.525 4.13733 -2.4572 0
M  V30 5707 C 570.877 4.26624 -2.99402 0
M  V30 5708 C 568.205 4.50268 -3.76132 0
M  V30 5709 C 570.557 4.64618 -4.29316 0
M  V30 5710 C 569.221 4.75975 -4.67979 0
M  V30 5711 H 568.491 0.72133 -0.169601 0
M  V30 5712 H 571.138 1.57517 -1.08907 0
M  V30 5713 H 569.443 3.91761 0.0551328 0
M  V30 5714 H 571.14 3.99655 -0.328163 0
M  V30 5715 H 567.73 3.90837 -1.75911 0
M  V30 5716 H 571.914 4.1597 -2.70708 0
M  V30 5717 H 567.17 4.57256 -4.05865 0
M  V30 5718 H 571.344 4.83722 -5.00985 0
M  V30 5719 H 568.971 5.04041 -5.69076 0
M  V30 5720 N 570.547 0.616602 1.45037 0
M  V30 5721 C 571.772 0.120192 2.07051 0
M  V30 5722 C 572.197 -1.19008 1.45666 0
M  V30 5723 O 571.555 -1.7267 0.552692 0
M  V30 5724 C 571.603 0.00354901 3.606 0
M  V30 5725 O 570.707 -1.04431 3.98958 0
M  V30 5726 H 570.048 0.0781599 0.659384 0
M  V30 5727 H 572.578 0.849167 1.86146 0
M  V30 5728 H 572.588 -0.191754 4.07549 0
M  V30 5729 H 571.263 0.960239 4.04663 0
M  V30 5730 H 569.84 -0.824749 3.63665 0
M  V30 5731 N 572.025 -1.5352 0.356285 0
M  V30 5732 C 573.255 -2.05236 -0.236983 0
M  V30 5733 C 573.663 -1.23016 -1.43749 0
M  V30 5734 O 573.006 -0.2615 -1.81829 0
M  V30 5735 C 573.068 -3.52549 -0.7035 0
M  V30 5736 C 572.732 -4.55425 0.379059 0
M  V30 5737 C 573.729 -5.0524 1.22592 0
M  V30 5738 C 571.414 -4.99425 0.536638 0
M  V30 5739 C 573.408 -5.97647 2.21578 0
M  V30 5740 C 571.095 -5.9164 1.52988 0
M  V30 5741 C 572.093 -6.4064 2.3679 0
M  V30 5742 O 571.781 -7.31039 3.34421 0
M  V30 5743 H 571.513 -0.674346 -0.047254 0
M  V30 5744 H 574.067 -1.98962 0.510238 0
M  V30 5745 H 572.297 -3.56331 -1.50217 0
M  V30 5746 H 573.986 -3.87171 -1.21873 0
M  V30 5747 H 574.752 -4.72002 1.11532 0
M  V30 5748 H 570.631 -4.60879 -0.105834 0
M  V30 5749 H 574.175 -6.35816 2.87025 0
M  V30 5750 H 570.072 -6.24293 1.64099 0
M  V30 5751 H 570.84 -7.49009 3.30041 0
M  V30 5752 N 573.503 -0.0852151 -1.57369 0
M  V30 5753 C 574.749 0.581666 -1.94279 0
M  V30 5754 C 575.082 1.68444 -0.966446 0
M  V30 5755 O 574.357 1.945 0.00215277 0
M  V30 5756 C 574.64 1.14609 -3.41375 0
M  V30 5757 C 574.493 0.0490414 -4.49773 0
M  V30 5758 C 575.812 2.04751 -3.8957 0
M  V30 5759 H 572.931 0.209972 -0.706456 0
M  V30 5760 H 575.573 -0.153915 -1.89376 0
M  V30 5761 H 573.723 1.77297 -3.45685 0
M  V30 5762 H 575.395 -0.584721 -4.57579 0
M  V30 5763 H 573.638 -0.618638 -4.29366 0
M  V30 5764 H 574.309 0.484601 -5.49869 0
M  V30 5765 H 576.785 1.51981 -3.87351 0
M  V30 5766 H 575.661 2.41173 -4.93079 0
M  V30 5767 H 575.922 2.96107 -3.28288 0
M  V30 5768 N 574.981 1.5647 0.188427 0
M  V30 5769 C 575.928 1.95073 1.23349 0
M  V30 5770 C 576.898 0.812238 1.44886 0
M  V30 5771 O 578.083 1.07095 1.57909 0
M  V30 5772 C 575.223 2.30124 2.57171 0
M  V30 5773 C 574.336 3.57069 2.43157 0
M  V30 5774 C 573.471 3.81411 3.69729 0
M  V30 5775 C 572.51 5.0176 3.50575 0
M  V30 5776 N 571.647 5.22321 4.69175 0
M  V30 5777 H 576.487 2.84171 0.89728 0
M  V30 5778 H 574.024 1.40623 0.431683 0
M  V30 5779 H 575.982 2.48463 3.35145 0
M  V30 5780 H 574.612 1.44159 2.88822 0
M  V30 5781 H 573.664 3.4674 1.56447 0
M  V30 5782 H 574.976 4.452 2.24942 0
M  V30 5783 H 574.13 4.00026 4.56141 0
M  V30 5784 H 572.869 2.91624 3.90905 0
M  V30 5785 H 571.874 4.83061 2.62549 0
M  V30 5786 H 573.099 5.93063 3.30837 0
M  V30 5787 H 571.045 4.35483 4.90602 0
M  V30 5788 H 570.962 6.04643 4.53809 0
M  V30 5789 H 572.23 5.45401 5.56919 0
M  V30 5790 N 576.459 -0.456382 1.50847 0
M  V30 5791 C 577.705 -1.20914 1.62811 0
M  V30 5792 C 578.038 -1.91301 0.334304 0
M  V30 5793 O 577.313 -1.82775 -0.665098 0
M  V30 5794 C 577.596 -2.24122 2.81853 0
M  V30 5795 C 577.449 -1.57944 4.21158 0
M  V30 5796 C 578.768 -3.25295 2.96431 0
M  V30 5797 H 575.887 -0.438233 0.592554 0
M  V30 5798 H 578.529 -0.50091 1.83278 0
M  V30 5799 H 576.679 -2.84524 2.64534 0
M  V30 5800 H 578.351 -1.01025 4.50102 0
M  V30 5801 H 576.594 -0.882185 4.24735 0
M  V30 5802 H 577.265 -2.33014 5.00408 0
M  V30 5803 H 579.741 -2.7493 3.12335 0
M  V30 5804 H 578.617 -3.94822 3.81322 0
M  V30 5805 H 578.878 -3.90286 2.07676 0
M  V30 5806 N 577.937 -1.40673 -0.710563 0
M  V30 5807 C 578.9 -1.4108 -1.80635 0
M  V30 5808 C 579.9 -0.303783 -1.57904 0
M  V30 5809 O 581.09 -0.562937 -1.64853 0
M  V30 5810 C 578.222 -1.20748 -3.18799 0
M  V30 5811 H 579.415 -2.38612 -1.81671 0
M  V30 5812 H 576.968 -1.26595 -0.916704 0
M  V30 5813 H 577.703 -0.239964 -3.23411 0
M  V30 5814 H 577.488 -2.00941 -3.36698 0
M  V30 5815 H 578.978 -1.23833 -3.98817 0
M  V30 5816 N 579.415 0.9433 -1.26252 0
M  V30 5817 C 580.378 2.02326 -1.07689 0
M  V30 5818 C 581.378 1.60779 -0.0259174 0
M  V30 5819 O 582.568 1.72108 -0.269134 0
M  V30 5820 C 579.7 3.34886 -0.63752 0
M  V30 5821 H 580.893 2.20225 -2.0357 0
M  V30 5822 H 578.446 1.12197 -1.08819 0
M  V30 5823 H 579.181 3.22684 0.323377 0
M  V30 5824 H 578.966 3.66393 -1.39637 0
M  V30 5825 H 580.456 4.14231 -0.529418 0
M  V30 5826 N 580.893 1.08022 1.14757 0
M  V30 5827 C 582.118 0.82895 1.90114 0
M  V30 5828 C 582.543 -0.612772 1.77839 0
M  V30 5829 O 581.901 -1.42895 1.11583 0
M  V30 5830 C 581.949 1.25062 3.38219 0
M  V30 5831 O 581.053 0.400119 4.10454 0
M  V30 5832 H 580.394 0.301412 0.591648 0
M  V30 5833 H 582.924 1.44062 1.45284 0
M  V30 5834 H 582.934 1.22977 3.89025 0
M  V30 5835 H 581.609 2.30067 3.46471 0
M  V30 5836 H 580.186 0.484052 3.69745 0
M  V30 5837 N 582.371 -1.3172 0.865308 0
M  V30 5838 C 583.596 -2.01591 0.487415 0
M  V30 5839 C 584.021 -1.6455 -0.911307 0
M  V30 5840 O 583.379 -0.851689 -1.6005 0
M  V30 5841 C 583.427 -3.54759 0.646401 0
M  V30 5842 O 582.531 -4.11185 -0.316284 0
M  V30 5843 H 581.872 -0.634884 0.194468 0
M  V30 5844 H 584.402 -1.68024 1.16744 0
M  V30 5845 H 584.412 -4.04438 0.537932 0
M  V30 5846 H 583.087 -3.8106 1.66632 0
M  V30 5847 H 581.664 -3.72543 -0.163162 0
M  V30 5848 N 583.85 -0.624285 -1.44708 0
M  V30 5849 C 584.779 0.0717025 -2.3339 0
M  V30 5850 C 585.76 0.841814 -1.47809 0
M  V30 5851 O 586.946 0.809056 -1.76544 0
M  V30 5852 C 584.076 1.05852 -3.30776 0
M  V30 5853 C 583.029 0.400503 -4.26122 0
M  V30 5854 C 582.356 1.49674 -5.13324 0
M  V30 5855 C 583.656 -0.688924 -5.17737 0
M  V30 5856 H 585.35 -0.668819 -2.91834 0
M  V30 5857 H 582.896 -0.32308 -1.40329 0
M  V30 5858 H 584.849 1.5541 -3.91696 0
M  V30 5859 H 583.572 1.82984 -2.70526 0
M  V30 5860 H 582.231 -0.0743687 -3.66525 0
M  V30 5861 H 581.88 2.25877 -4.49431 0
M  V30 5862 H 581.58 1.06188 -5.77926 0
M  V30 5863 H 583.104 1.99427 -5.77115 0
M  V30 5864 H 584.518 -0.276724 -5.72632 0
M  V30 5865 H 582.915 -1.04652 -5.90904 0
M  V30 5866 H 583.985 -1.55884 -4.5916 0
M  V30 5867 N 585.328 1.53329 -0.364422 0
M  V30 5868 C 586.258 2.28627 0.474543 0
M  V30 5869 C 587.239 1.31009 1.08492 0
M  V30 5870 O 588.424 1.59878 1.10239 0
M  V30 5871 C 585.554 3.07465 1.61501 0
M  V30 5872 C 584.508 4.1276 1.13194 0
M  V30 5873 C 583.834 4.79674 2.36255 0
M  V30 5874 C 585.134 5.21847 0.217507 0
M  V30 5875 H 586.828 2.99005 -0.153656 0
M  V30 5876 H 584.374 1.43803 -0.0753406 0
M  V30 5877 H 586.327 3.58889 2.20855 0
M  V30 5878 H 585.051 2.34775 2.27042 0
M  V30 5879 H 583.71 3.62281 0.56109 0
M  V30 5880 H 583.358 4.03557 3.00251 0
M  V30 5881 H 583.058 5.50827 2.04606 0
M  V30 5882 H 584.582 5.33892 2.96297 0
M  V30 5883 H 585.996 5.6878 0.718493 0
M  V30 5884 H 584.393 6.00099 -0.00806408 0
M  V30 5885 H 585.463 4.7921 -0.740653 0
M  V30 5886 N 586.806 0.0935595 1.57322 0
M  V30 5887 C 587.756 -0.876521 2.10478 0
M  V30 5888 C 588.74 -1.24482 1.01946 0
M  V30 5889 O 589.932 -1.22016 1.28223 0
M  V30 5890 C 587.061 -2.13615 2.68745 0
M  V30 5891 C 586.147 -1.79335 3.84317 0
M  V30 5892 N 586.538 -1.15606 4.92411 0
M  V30 5893 C 584.836 -2.08954 3.94023 0
M  V30 5894 C 585.537 -0.999036 5.73057 0
M  V30 5895 N 584.513 -1.51585 5.22037 0
M  V30 5896 H 588.315 -0.379829 2.91435 0
M  V30 5897 H 585.829 -0.109699 1.62029 0
M  V30 5898 H 587.826 -2.84053 3.05155 0
M  V30 5899 H 586.486 -2.63851 1.89242 0
M  V30 5900 H 587.497 -0.823063 5.11318 0
M  V30 5901 H 584.174 -2.61416 3.25527 0
M  V30 5902 H 585.564 -0.500772 6.70031 0
M  V30 5903 N 588.284 -1.56567 -0.180126 0
M  V30 5904 C 589.532 -1.81133 -0.896392 0
M  V30 5905 C 589.853 -0.669114 -1.83161 0
M  V30 5906 O 589.123 0.311616 -1.93406 0
M  V30 5907 H 587.703 -0.668172 -0.333999 0
M  V30 5908 H 590.365 -1.94048 -0.182051 0
M  V30 5909 H 589.461 -2.74854 -1.47857 0
M  V30 5910 N 589.762 0.448376 -1.51087 0
M  V30 5911 C 591.01 1.19635 -1.62886 0
M  V30 5912 C 591.331 1.91977 -0.342024 0
M  V30 5913 O 590.601 1.85094 0.641636 0
M  V30 5914 H 589.181 0.444598 -0.600285 0
M  V30 5915 H 591.843 0.515138 -1.87969 0
M  V30 5916 H 590.939 1.93194 -2.45117 0
M  V30 5917 N 591.24 1.41047 0.703093 0
M  V30 5918 C 592.488 1.39723 1.4602 0
M  V30 5919 C 592.809 0.00461257 1.94999 0
M  V30 5920 O 592.079 -0.952292 1.71196 0
M  V30 5921 H 590.659 0.514281 0.541779 0
M  V30 5922 H 593.321 1.76217 0.832678 0
M  V30 5923 H 592.417 2.07982 2.32701 0
M  V30 5924 N 592.718 -0.936591 1.26751 0
M  V30 5925 C 594.134 -1.21095 1.03963 0
M  V30 5926 C 594.334 -2.00156 -0.232372 0
M  V30 5927 O 593.39 -2.3434 -0.940274 0
M  V30 5928 C 594.703 -1.96775 2.27377 0
M  V30 5929 C 596.251 -2.09749 2.32324 0
M  V30 5930 C 596.726 -2.88832 3.55443 0
M  V30 5931 N 598.217 -2.96404 3.55948 0
M  V30 5932 C 598.952 -3.58036 4.47881 0
M  V30 5933 N 598.448 -4.21132 5.50109 0
M  V30 5934 N 600.241 -3.55353 4.35523 0
M  V30 5935 H 592.392 -0.408173 2.08441 0
M  V30 5936 H 594.655 -0.243139 0.91629 0
M  V30 5937 H 594.361 -1.46094 3.19921 0
M  V30 5938 H 594.235 -2.97424 2.31989 0
M  V30 5939 H 596.622 -2.5962 1.40291 0
M  V30 5940 H 596.703 -1.08347 2.31721 0
M  V30 5941 H 596.347 -2.39647 4.47808 0
M  V30 5942 H 596.277 -3.90499 3.53296 0
M  V30 5943 H 598.768 -2.51552 2.82011 0
M  V30 5944 H 599.081 -4.66071 6.16439 0
M  V30 5945 H 597.426 -4.19705 5.53961 0
M  V30 5946 H 600.617 -3.05256 3.54875 0
M  V30 5947 H 600.79 -4.03097 5.07363 0
M  V30 5948 N 594.196 -1.08629 -1.14182 0
M  V30 5949 C 595.607 -0.838003 -1.66836 0
M  V30 5950 C 595.958 0.634885 -1.85644 0
M  V30 5951 O 595.083 1.49008 -1.56926 0
M  V30 5952 C 595.678 -1.51465 -3.03058 0
M  V30 5953 C 594.237 -1.31355 -3.52736 0
M  V30 5954 C 593.384 -1.57599 -2.28162 0
M  V30 5955 H 596.335 -1.24656 -0.982165 0
M  V30 5956 H 596.356 -0.943134 -3.68626 0
M  V30 5957 H 595.868 -2.58661 -2.89337 0
M  V30 5958 H 593.969 -0.262384 -3.71675 0
M  V30 5959 H 594.082 -2.04275 -4.33369 0
M  V30 5960 H 592.446 -0.997659 -2.34348 0
M  V30 5961 H 593.229 -2.66006 -2.17015 0
M  V30 5962 N 595.674 1.31259 -0.872281 0
M  V30 5963 C 596.637 2.26744 -0.334656 0
M  V30 5964 C 597.637 1.52307 0.515681 0
M  V30 5965 O 598.827 1.71148 0.324656 0
M  V30 5966 C 595.959 3.36841 0.524482 0
M  V30 5967 H 597.152 2.75812 -1.17762 0
M  V30 5968 H 594.705 1.42232 -0.648064 0
M  V30 5969 H 595.44 2.93069 1.38855 0
M  V30 5970 H 595.225 3.92009 -0.0844299 0
M  V30 5971 H 596.715 4.07944 0.892838 0
M  V30 5972 N 597.152 0.631951 1.44375 0
M  V30 5973 C 598.082 -0.0593243 2.33425 0
M  V30 5974 C 599.063 -0.833964 1.48253 0
M  V30 5975 O 600.248 -0.799682 1.76971 0
M  V30 5976 C 597.378 -1.04096 3.31333 0
M  V30 5977 C 596.332 -0.377899 4.26328 0
M  V30 5978 C 595.658 -1.4695 5.14111 0
M  V30 5979 C 596.958 0.716371 5.17364 0
M  V30 5980 H 598.652 0.684287 2.91475 0
M  V30 5981 H 596.198 0.330518 1.40156 0
M  V30 5982 H 598.151 -1.53331 3.92514 0
M  V30 5983 H 596.875 -1.81547 2.71493 0
M  V30 5984 H 595.534 0.0938054 3.6648 0
M  V30 5985 H 595.182 -2.2349 4.50623 0
M  V30 5986 H 594.882 -1.03121 5.78481 0
M  V30 5987 H 596.406 -1.96363 5.78164 0
M  V30 5988 H 597.82 0.307089 5.72477 0
M  V30 5989 H 596.217 1.07784 5.90341 0
M  V30 5990 H 597.287 1.58316 4.58327 0
M  V30 5991 N 598.631 -1.53133 0.372548 0
M  V30 5992 C 599.561 -2.28876 -0.462412 0
M  V30 5993 C 600.542 -1.31583 -1.07796 0
M  V30 5994 O 601.727 -1.60461 -1.09389 0
M  V30 5995 C 598.857 -3.08317 -1.59868 0
M  V30 5996 C 597.811 -4.13355 -1.11003 0
M  V30 5997 C 597.137 -4.8092 -2.33708 0
M  V30 5998 C 598.437 -5.21955 -0.18983 0
M  V30 5999 H 600.131 -2.9892 0.169511 0
M  V30 6000 H 597.677 -1.43761 0.0829658 0
M  V30 6001 H 599.63 -3.60055 -2.18949 0
M  V30 6002 H 598.354 -2.35976 -2.25794 0
M  V30 6003 H 597.013 -3.62573 -0.541869 0
M  V30 6004 H 596.661 -4.05144 -2.98106 0
M  V30 6005 H 596.361 -5.51904 -2.01682 0
M  V30 6006 H 597.885 -5.35455 -2.93462 0
M  V30 6007 H 599.299 -5.69153 -0.688319 0
M  V30 6008 H 597.696 -6.00087 0.0398887 0
M  V30 6009 H 598.766 -4.78811 0.766057 0
M  V30 6010 N 600.109 -0.101901 -1.5727 0
M  V30 6011 C 601.072 0.840129 -2.13247 0
M  V30 6012 C 602.072 1.20625 -1.06331 0
M  V30 6013 O 603.262 1.13456 -1.32186 0
M  V30 6014 C 600.394 2.13372 -2.65867 0
M  V30 6015 H 601.587 0.353945 -2.97804 0
M  V30 6016 H 599.14 0.147167 -1.55606 0
M  V30 6017 H 599.875 2.66461 -1.84849 0
M  V30 6018 H 599.66 1.88085 -3.44044 0
M  V30 6019 H 601.15 2.80748 -3.09145 0
M  V30 6020 N 601.587 1.56661 0.17182 0
M  V30 6021 C 602.55 1.9549 1.19651 0
M  V30 6022 C 603.55 0.838501 1.37207 0
M  V30 6023 O 604.74 1.10556 1.34622 0
M  V30 6024 C 601.872 2.24927 2.56166 0
M  V30 6025 H 603.065 2.87184 0.864007 0
M  V30 6026 H 600.618 1.50711 0.41425 0
M  V30 6027 H 601.353 1.35944 2.94431 0
M  V30 6028 H 601.138 3.06301 2.4479 0
M  V30 6029 H 602.628 2.55891 3.30014 0
M  V30 6030 N 603.065 -0.440357 1.51323 0
M  V30 6031 C 604.313 -1.18769 1.63518 0
M  V30 6032 C 604.634 -1.91793 0.352201 0
M  V30 6033 O 603.904 -1.85432 -0.631811 0
M  V30 6034 H 602.484 -0.441408 0.602634 0
M  V30 6035 H 605.146 -0.505162 1.8824 0
M  V30 6036 H 604.242 -1.91892 2.46138 0
M  V30 6037 N 604.543 -1.41418 -0.695603 0
M  V30 6038 C 605.789 -1.40982 -1.4578 0
M  V30 6039 C 606.122 -0.0187763 -1.94191 0
M  V30 6040 O 605.397 0.95346 -1.69527 0
M  V30 6041 C 605.68 -2.41657 -2.66972 0
M  V30 6042 C 605.533 -3.89869 -2.24327 0
M  V30 6043 C 606.852 -2.39589 -3.69168 0
M  V30 6044 H 603.971 -0.513405 -0.528757 0
M  V30 6045 H 606.613 -1.72693 -0.792275 0
M  V30 6046 H 604.763 -2.14746 -3.23754 0
M  V30 6047 H 606.435 -4.27683 -1.72872 0
M  V30 6048 H 604.678 -4.04737 -1.56111 0
M  V30 6049 H 605.349 -4.55857 -3.11285 0
M  V30 6050 H 607.825 -2.63471 -3.2206 0
M  V30 6051 H 606.701 -3.12044 -4.51575 0
M  V30 6052 H 606.962 -1.41447 -4.18862 0
M  V30 6053 N 606.021 0.929856 -1.27246 0
M  V30 6054 C 606.984 2.01172 -1.09829 0
M  V30 6055 C 607.984 1.60743 -0.0429687 0
M  V30 6056 O 609.174 1.71813 -0.287373 0
M  V30 6057 C 606.306 3.34191 -0.673003 0
M  V30 6058 H 607.499 2.18054 -2.05895 0
M  V30 6059 H 605.052 1.11036 -1.10003 0
M  V30 6060 H 605.787 3.23009 0.289134 0
M  V30 6061 H 605.572 3.64892 -1.43515 0
M  V30 6062 H 607.062 4.13646 -0.573323 0
M  V30 6063 N 607.499 1.09233 1.13605 0
M  V30 6064 C 608.748 0.82205 1.84188 0
M  V30 6065 C 609.061 -0.654548 1.84323 0
M  V30 6066 O 610.267 -1.04029 2.50779 0
M  V30 6067 C 608.723 1.42066 3.30674 0
M  V30 6068 C 608.331 2.92965 3.38933 0
M  V30 6069 C 610.075 1.22924 4.06313 0
M  V30 6070 C 607.982 3.45922 4.79679 0
M  V30 6071 H 606.912 0.303854 0.690064 0
M  V30 6072 H 609.563 1.31479 1.28006 0
M  V30 6073 H 607.945 0.855613 3.86646 0
M  V30 6074 H 609.119 3.55679 2.92966 0
M  V30 6075 H 607.434 3.11118 2.76757 0
M  V30 6076 H 610.031 1.59945 5.10217 0
M  V30 6077 H 610.374 0.169726 4.15954 0
M  V30 6078 H 610.907 1.76168 3.56665 0
M  V30 6079 H 607.646 4.51484 4.75229 0
M  V30 6080 H 607.166 2.87971 5.26149 0
M  V30 6081 H 608.845 3.43009 5.48592 0
M  V30 6082 N 608.977 -1.30795 0.87923 0
M  V30 6083 C 609.909 -2.27241 0.299025 0
M  V30 6084 C 610.922 -1.53472 -0.543166 0
M  V30 6085 O 612.111 -1.74756 -0.363651 0
M  V30 6086 C 609.211 -3.33655 -0.593931 0
M  V30 6087 C 608.384 -4.36857 0.2179 0
M  V30 6088 C 607.443 -5.22715 -0.604646 0
M  V30 6089 O 606.469 -5.69192 -0.0293838 0
M  V30 6090 N 607.671 -5.48008 -1.91488 0
M  V30 6091 H 610.436 -2.77667 1.12788 0
M  V30 6092 H 607.997 -1.43914 0.741637 0
M  V30 6093 H 609.989 -3.88013 -1.15012 0
M  V30 6094 H 608.559 -2.83202 -1.32346 0
M  V30 6095 H 607.779 -3.82444 0.955536 0
M  V30 6096 H 609.067 -5.02869 0.774614 0
M  V30 6097 H 608.465 -5.1202 -2.40525 0
M  V30 6098 H 607.022 -6.05264 -2.41864 0
M  V30 6099 N 610.455 -0.639598 -1.44038 0
M  V30 6100 C 611.701 -0.147698 -2.02261 0
M  V30 6101 C 612.034 1.23031 -1.50256 0
M  V30 6102 O 611.309 1.81847 -0.690068 0
M  V30 6103 C 611.592 -0.14362 -3.59813 0
M  V30 6104 C 611.445 -1.55458 -4.22082 0
M  V30 6105 C 612.764 0.527317 -4.36929 0
M  V30 6106 H 609.883 -0.0551453 -0.734934 0
M  V30 6107 H 612.525 -0.817688 -1.71505 0
M  V30 6108 H 610.675 0.426898 -3.86147 0
M  V30 6109 H 612.347 -2.17464 -4.06826 0
M  V30 6110 H 610.59 -2.10594 -3.79253 0
M  V30 6111 H 611.261 -1.50369 -5.31124 0
M  V30 6112 H 613.737 0.0420504 -4.16079 0
M  V30 6113 H 612.613 0.499389 -5.46624 0
M  V30 6114 H 612.874 1.59914 -4.12165 0
M  V30 6115 N 611.933 1.52934 -0.380664 0
M  V30 6116 C 613.181 2.01069 0.203874 0
M  V30 6117 C 613.502 1.26922 1.4804 0
M  V30 6118 O 612.772 0.386787 1.92044 0
M  V30 6119 H 611.352 0.742882 0.0783279 0
M  V30 6120 H 614.014 1.88099 -0.510368 0
M  V30 6121 H 613.11 3.09258 0.42021 0
M  V30 6122 N 613.412 0.11024 1.57214 0
M  V30 6123 C 614.637 -0.561179 1.99664 0
M  V30 6124 C 615.062 -1.59985 0.989266 0
M  V30 6125 O 614.42 -1.81255 -0.0402399 0
M  V30 6126 C 614.468 -1.17189 3.41027 0
M  V30 6127 O 613.572 -2.28755 3.4314 0
M  V30 6128 H 612.913 -0.14101 0.648855 0
M  V30 6129 H 615.443 0.196128 2.03658 0
M  V30 6130 H 615.453 -1.50954 3.79047 0
M  V30 6131 H 614.128 -0.411041 4.13864 0
M  V30 6132 H 612.705 -1.96495 3.16929 0
M  V30 6133 N 614.89 -1.56749 -0.16351 0
M  V30 6134 C 615.82 -2.00042 -1.20438 0
M  V30 6135 C 616.801 -0.877256 -1.45733 0
M  V30 6136 O 617.986 -1.1439 -1.56935 0
M  V30 6137 C 615.116 -2.36697 -2.54149 0
M  V30 6138 C 614.07 -3.52046 -2.43408 0
M  V30 6139 C 613.396 -3.74466 -3.81679 0
M  V30 6140 C 614.696 -4.85247 -1.93216 0
M  V30 6141 H 616.39 -2.87244 -0.844477 0
M  V30 6142 H 613.936 -1.38194 -0.40478 0
M  V30 6143 H 615.889 -2.65582 -3.27176 0
M  V30 6144 H 614.613 -1.46414 -2.91943 0
M  V30 6145 H 613.272 -3.23301 -1.72834 0
M  V30 6146 H 612.92 -2.81461 -4.1688 0
M  V30 6147 H 612.62 -4.52084 -3.75359 0
M  V30 6148 H 614.144 -4.0576 -4.5628 0
M  V30 6149 H 615.558 -5.12957 -2.56023 0
M  V30 6150 H 613.955 -5.66556 -1.97825 0
M  V30 6151 H 615.025 -4.7672 -0.88689 0
M  V30 6152 N 616.368 0.432326 -1.51554 0
M  V30 6153 C 617.298 1.53242 -1.76179 0
M  V30 6154 C 618.279 1.58717 -0.611801 0
M  V30 6155 O 619.464 1.74364 -0.855033 0
M  V30 6156 C 616.594 2.91278 -1.89141 0
M  V30 6157 C 615.548 3.00663 -3.04608 0
M  V30 6158 C 614.874 4.40728 -3.02759 0
M  V30 6159 C 616.174 2.74281 -4.44485 0
M  V30 6160 H 617.868 1.32886 -2.68294 0
M  V30 6161 H 615.414 0.637841 -1.29103 0
M  V30 6162 H 617.367 3.68203 -2.04951 0
M  V30 6163 H 616.091 3.12877 -0.936785 0
M  V30 6164 H 614.75 2.26179 -2.88511 0
M  V30 6165 H 614.398 4.59301 -2.05065 0
M  V30 6166 H 614.098 4.47936 -3.80299 0
M  V30 6167 H 615.622 5.19619 -3.20669 0
M  V30 6168 H 617.036 3.40936 -4.60907 0
M  V30 6169 H 615.433 2.92893 -5.23769 0
M  V30 6170 H 616.503 1.69856 -4.54177 0
M  V30 6171 N 617.846 1.41785 0.688094 0
M  V30 6172 C 619.094 1.41264 1.4453 0
M  V30 6173 C 619.415 0.0252946 1.94984 0
M  V30 6174 O 618.685 -0.934081 1.72197 0
M  V30 6175 H 617.265 0.519998 0.536294 0
M  V30 6176 H 619.927 1.7709 0.813941 0
M  V30 6177 H 619.023 2.10439 2.30482 0
M  V30 6178 N 619.324 -0.923095 1.27737 0
M  V30 6179 C 620.287 -2.00587 1.10894 0
M  V30 6180 C 621.287 -1.60718 0.0514927 0
M  V30 6181 O 622.477 -1.71658 0.296481 0
M  V30 6182 C 619.609 -3.33829 0.690717 0
M  V30 6183 H 620.802 -2.16959 2.07048 0
M  V30 6184 H 618.355 -1.10451 1.1059 0
M  V30 6185 H 619.09 -3.23157 -0.272 0
M  V30 6186 H 618.875 -3.64125 1.45448 0
M  V30 6187 H 620.365 -4.13336 0.595252 0
M  V30 6188 N 620.802 -1.09834 -1.13024 0
M  V30 6189 C 622.048 -0.83819 -1.84668 0
M  V30 6190 C 622.381 0.634645 -1.83537 0
M  V30 6191 O 621.656 1.46753 -1.27647 0
M  V30 6192 C 621.939 -1.37933 -3.32636 0
M  V30 6193 C 621.792 -2.91857 -3.42257 0
M  V30 6194 C 623.111 -1.01654 -4.28199 0
M  V30 6195 H 620.23 -0.30595 -0.670495 0
M  V30 6196 H 622.872 -1.36044 -1.32635 0
M  V30 6197 H 621.022 -0.935111 -3.77078 0
M  V30 6198 H 622.694 -3.44759 -3.06495 0
M  V30 6199 H 620.937 -3.28776 -2.83 0
M  V30 6200 H 621.608 -3.24799 -4.46329 0
M  V30 6201 H 624.084 -1.39973 -3.9185 0
M  V30 6202 H 622.96 -1.42217 -5.30156 0
M  V30 6203 H 623.221 0.0747794 -4.42037 0
M  V30 6204 N 622.28 1.30327 -0.886154 0
M  V30 6205 C 623.243 2.26376 -0.358687 0
M  V30 6206 C 624.243 1.52845 0.499498 0
M  V30 6207 O 625.433 1.71483 0.306485 0
M  V30 6208 C 622.565 3.37379 0.488726 0
M  V30 6209 H 623.758 2.74547 -1.20681 0
M  V30 6210 H 621.311 1.41536 -0.663113 0
M  V30 6211 H 622.046 2.94526 1.35739 0
M  V30 6212 H 621.831 3.91897 -0.126003 0
M  V30 6213 H 623.321 4.08868 0.84952 0
M  V30 6214 N 623.758 0.647228 1.43697 0
M  V30 6215 C 624.691 -0.097646 2.27991 0
M  V30 6216 C 625.669 -0.83571 1.3948 0
M  V30 6217 O 626.853 -0.836509 1.68922 0
M  V30 6218 C 623.98 -1.14484 3.18765 0
M  V30 6219 C 623.026 -0.505503 4.23494 0
M  V30 6220 S 623.859 0.716471 5.30685 0
M  V30 6221 C 625.015 -0.330339 6.25028 0
M  V30 6222 H 625.248 0.617417 2.90818 0
M  V30 6223 H 622.781 0.435881 1.4812 0
M  V30 6224 H 624.739 -1.74403 3.7161 0
M  V30 6225 H 623.4 -1.83219 2.55127 0
M  V30 6226 H 622.593 -1.29473 4.87086 0
M  V30 6227 H 622.195 0.0194377 3.73995 0
M  V30 6228 H 624.487 -1.19828 6.66819 0
M  V30 6229 H 625.43 0.270409 7.07583 0
M  V30 6230 H 625.838 -0.663459 5.60588 0
M  V30 6231 N 625.236 -1.5273 0.388769 0
M  V30 6232 C 626.483 -2.01573 -0.19359 0
M  V30 6233 C 626.811 -1.27525 -1.46859 0
M  V30 6234 O 626.066 -0.363926 -1.92286 0
M  V30 6235 C 626.365 -3.53765 -0.508445 0
M  V30 6236 C 626.031 -4.4582 0.674947 0
M  V30 6237 C 624.693 -4.70703 0.999596 0
M  V30 6238 C 627.045 -5.00138 1.46666 0
M  V30 6239 C 624.373 -5.47155 2.11751 0
M  V30 6240 C 626.725 -5.77812 2.57518 0
M  V30 6241 C 625.389 -6.00975 2.90492 0
M  V30 6242 H 624.659 -0.737606 -0.0708397 0
M  V30 6243 H 627.306 -1.84134 0.526006 0
M  V30 6244 H 625.611 -3.69274 -1.30936 0
M  V30 6245 H 627.308 -3.8905 -0.971664 0
M  V30 6246 H 623.898 -4.26616 0.411906 0
M  V30 6247 H 628.082 -4.8084 1.22909 0
M  V30 6248 H 623.338 -5.63314 2.3767 0
M  V30 6249 H 627.512 -6.18904 3.19267 0
M  V30 6250 H 625.139 -6.59998 3.77236 0
M  V30 6251 N 626.714 -0.118576 -1.57153 0
M  V30 6252 C 628.125 0.40687 -1.82213 0
M  V30 6253 C 628.476 1.66636 -1.03571 0
M  V30 6254 O 627.601 2.14682 -0.272171 0
M  V30 6255 C 628.196 0.744949 -3.30509 0
M  V30 6256 C 626.755 1.21503 -3.5625 0
M  V30 6257 C 625.902 0.223511 -2.76398 0
M  V30 6258 H 628.853 -0.343712 -1.54933 0
M  V30 6259 H 628.874 1.6024 -3.45114 0
M  V30 6260 H 628.386 -0.171911 -3.87719 0
M  V30 6261 H 626.487 2.1488 -3.04396 0
M  V30 6262 H 626.6 1.16065 -4.64829 0
M  V30 6263 H 624.964 0.71046 -2.44591 0
M  V30 6264 H 625.747 -0.686439 -3.36367 0
M  V30 6265 N 628.193 1.56834 0.155195 0
M  V30 6266 C 629.604 1.72421 0.716082 0
M  V30 6267 C 629.955 0.731685 1.82046 0
M  V30 6268 O 629.08 -0.103481 2.16152 0
M  V30 6269 C 629.675 3.12629 1.30571 0
M  V30 6270 C 628.234 3.29846 1.81325 0
M  V30 6271 C 627.381 2.68359 0.698494 0
M  V30 6272 H 630.332 1.58544 -0.0703861 0
M  V30 6273 H 630.353 3.12174 2.1755 0
M  V30 6274 H 629.865 3.84844 0.501701 0
M  V30 6275 H 627.966 2.62614 2.64319 0
M  V30 6276 H 628.079 4.37727 1.9476 0
M  V30 6277 H 626.443 2.28604 1.12305 0
M  V30 6278 H 627.226 3.43171 -0.0939366 0
M  V30 6279 N 629.671 -0.424282 1.51781 0
M  V30 6280 C 630.899 -1.1947 1.68921 0
M  V30 6281 C 631.314 -1.84683 0.39213 0
M  V30 6282 O 630.671 -1.71261 -0.630554 0
M  V30 6283 C 630.722 -2.26909 2.81416 0
M  V30 6284 O 630.443 -1.64361 4.061 0
M  V30 6285 C 631.944 -3.16945 3.09937 0
M  V30 6286 H 629.164 -0.359591 0.566511 0
M  V30 6287 H 631.708 -0.501139 1.98265 0
M  V30 6288 H 629.863 -2.91959 2.54635 0
M  V30 6289 H 630.277 -2.35468 4.68674 0
M  V30 6290 H 631.751 -3.88437 3.922 0
M  V30 6291 H 632.228 -3.78451 2.22871 0
M  V30 6292 H 632.834 -2.57581 3.38426 0
M  V30 6293 N 631.149 -1.42148 -0.680565 0
M  V30 6294 C 632.374 -1.45901 -1.47403 0
M  V30 6295 C 632.799 -0.0700985 -1.87969 0
M  V30 6296 O 632.157 0.930145 -1.55621 0
M  V30 6297 C 632.205 -2.38661 -2.70321 0
M  V30 6298 O 631.309 -1.85399 -3.68376 0
M  V30 6299 H 630.65 -0.494565 -0.443059 0
M  V30 6300 H 633.18 -1.86774 -0.835251 0
M  V30 6301 H 633.19 -2.55046 -3.18458 0
M  V30 6302 H 631.865 -3.39571 -2.40134 0
M  V30 6303 H 630.442 -1.78541 -3.2738 0
M  V30 6304 N 632.627 0.916307 -1.28225 0
M  V30 6305 C 633.876 1.65975 -1.14608 0
M  V30 6306 C 634.189 1.93204 0.305191 0
M  V30 6307 O 635.395 2.65611 0.562432 0
M  V30 6308 C 633.851 2.98989 -2.00333 0
M  V30 6309 C 633.459 2.79417 -3.50186 0
M  V30 6310 C 635.203 3.76856 -1.95397 0
M  V30 6311 C 633.11 4.08056 -4.28071 0
M  V30 6312 H 632.04 0.622587 -0.425324 0
M  V30 6313 H 634.691 1.01705 -1.52736 0
M  V30 6314 H 633.073 3.6438 -1.5506 0
M  V30 6315 H 634.247 2.22723 -4.034 0
M  V30 6316 H 632.562 2.14966 -3.56621 0
M  V30 6317 H 635.159 4.72203 -2.50856 0
M  V30 6318 H 635.502 4.05776 -0.930137 0
M  V30 6319 H 636.035 3.1828 -2.38626 0
M  V30 6320 H 632.774 3.8431 -5.31024 0
M  V30 6321 H 632.294 4.64371 -3.79631 0
M  V30 6322 H 633.973 4.76333 -4.37854 0
M  V30 6323 N 634.105 1.10431 1.1244 0
M  V30 6324 C 635.335 0.867612 1.87499 0
M  V30 6325 C 635.743 -0.585475 1.79913 0
M  V30 6326 O 635.086 -1.41539 1.171 0
M  V30 6327 C 635.148 1.2374 3.37533 0
M  V30 6328 C 634.812 2.69751 3.68895 0
M  V30 6329 C 635.809 3.67988 3.67261 0
M  V30 6330 C 633.494 3.06135 3.98229 0
M  V30 6331 C 635.488 5.00632 3.9452 0
M  V30 6332 C 633.175 4.38967 4.25149 0
M  V30 6333 C 634.173 5.36025 4.23281 0
M  V30 6334 O 633.861 6.66465 4.49533 0
M  V30 6335 H 633.593 0.311196 0.600111 0
M  V30 6336 H 636.147 1.47257 1.43194 0
M  V30 6337 H 634.377 0.575537 3.82393 0
M  V30 6338 H 636.066 0.978187 3.93937 0
M  V30 6339 H 636.832 3.41224 3.44661 0
M  V30 6340 H 632.711 2.31214 3.98825 0
M  V30 6341 H 636.255 5.7638 3.92978 0
M  V30 6342 H 632.152 4.6547 4.47223 0
M  V30 6343 H 632.92 6.72095 4.67152 0
M  V30 6344 N 635.583 -1.29855 0.893053 0
M  V30 6345 C 636.533 -2.25493 0.337211 0
M  V30 6346 C 637.517 -1.51606 -0.53894 0
M  V30 6347 O 638.709 -1.72828 -0.382043 0
M  V30 6348 C 635.838 -3.40467 -0.440117 0
M  V30 6349 C 634.924 -4.217 0.450578 0
M  V30 6350 N 635.315 -4.81312 1.55476 0
M  V30 6351 C 633.613 -4.45315 0.247154 0
M  V30 6352 C 634.314 -5.42241 2.10593 0
M  V30 6353 N 633.29 -5.25267 1.39982 0
M  V30 6354 H 637.092 -2.69137 1.18079 0
M  V30 6355 H 634.606 -1.44388 0.743359 0
M  V30 6356 H 636.603 -4.08038 -0.855021 0
M  V30 6357 H 635.263 -2.98361 -1.28104 0
M  V30 6358 H 636.274 -4.80291 1.93755 0
M  V30 6359 H 632.951 -4.13782 -0.555939 0
M  V30 6360 H 634.341 -5.99517 3.03362 0
M  V30 6361 N 637.061 -0.65484 -1.43351 0
M  V30 6362 C 638.307 -0.169142 -2.02093 0
M  V30 6363 C 638.64 1.21431 -1.51553 0
M  V30 6364 O 637.915 1.81105 -0.709317 0
M  V30 6365 C 638.198 -0.181775 -3.59641 0
M  V30 6366 C 638.051 -1.59926 -4.20409 0
M  V30 6367 C 639.37 0.480945 -4.37464 0
M  V30 6368 H 636.489 -0.0629371 -0.734308 0
M  V30 6369 H 639.131 -0.835833 -1.70628 0
M  V30 6370 H 637.281 0.385918 -3.86578 0
M  V30 6371 H 638.953 -2.21766 -4.04497 0
M  V30 6372 H 637.196 -2.14605 -3.76998 0
M  V30 6373 H 637.867 -1.55994 -5.295 0
M  V30 6374 H 640.343 -0.00208273 -4.161 0
M  V30 6375 H 639.219 0.441384 -5.47122 0
M  V30 6376 H 639.48 1.55533 -4.13838 0
M  V30 6377 N 638.539 1.52521 -0.396863 0
M  V30 6378 C 639.786 2.01672 0.182898 0
M  V30 6379 C 640.114 1.28302 1.46181 0
M  V30 6380 O 639.369 0.374118 1.92091 0
M  V30 6381 C 639.668 3.5403 0.489677 0
M  V30 6382 C 639.334 4.45456 -0.698581 0
M  V30 6383 C 637.996 4.70166 -1.02454 0
M  V30 6384 C 640.348 4.99354 -1.49316 0
M  V30 6385 C 637.676 5.46024 -2.1465 0
M  V30 6386 C 640.028 5.76439 -2.60579 0
M  V30 6387 C 638.692 5.99426 -2.93675 0
M  V30 6388 H 637.962 0.737971 0.066927 0
M  V30 6389 H 640.609 1.83853 -0.535764 0
M  V30 6390 H 638.914 3.69963 1.28976 0
M  V30 6391 H 640.611 3.8956 0.951018 0
M  V30 6392 H 637.201 4.26392 -0.434525 0
M  V30 6393 H 641.385 4.80182 -1.25457 0
M  V30 6394 H 636.641 5.62046 -2.40654 0
M  V30 6395 H 640.815 6.17202 -3.22544 0
M  V30 6396 H 638.442 6.57988 -3.80731 0
M  V30 6397 N 640.017 0.126909 1.57088 0
M  V30 6398 C 640.967 -0.831678 2.1229 0
M  V30 6399 C 641.951 -1.22292 1.04564 0
M  V30 6400 O 643.143 -1.19269 1.30782 0
M  V30 6401 C 640.272 -2.07866 2.73215 0
M  V30 6402 C 639.358 -1.71143 3.88035 0
M  V30 6403 N 639.749 -1.05136 4.94753 0
M  V30 6404 C 638.047 -2.00549 3.98367 0
M  V30 6405 C 638.748 -0.877257 5.75047 0
M  V30 6406 N 637.724 -1.40477 5.25135 0
M  V30 6407 H 641.526 -0.317926 2.92175 0
M  V30 6408 H 639.04 -0.0753052 1.62225 0
M  V30 6409 H 641.037 -2.77516 3.11111 0
M  V30 6410 H 639.697 -2.59778 1.94796 0
M  V30 6411 H 640.708 -0.71442 5.12949 0
M  V30 6412 H 637.385 -2.54452 3.30999 0
M  V30 6413 H 638.775 -0.358536 6.70943 0
M  V30 6414 N 641.495 -1.56914 -0.146875 0
M  V30 6415 C 642.72 -1.87881 -0.878386 0
M  V30 6416 C 643.145 -0.715945 -1.73942 0
M  V30 6417 O 642.503 0.334447 -1.78189 0
M  V30 6418 C 642.551 -3.17431 -1.71084 0
M  V30 6419 O 641.655 -3.01374 -2.81509 0
M  V30 6420 H 640.996 -0.617289 -0.244644 0
M  V30 6421 H 643.526 -2.04136 -0.137654 0
M  V30 6422 H 643.536 -3.49455 -2.10582 0
M  V30 6423 H 642.211 -4.01671 -1.07856 0
M  V30 6424 H 640.788 -2.80758 -2.45416 0
M  V30 6425 N 642.974 0.416227 -1.52004 0
M  V30 6426 C 644.39 0.754319 -1.40649 0
M  V30 6427 C 644.59 1.95059 -0.505392 0
M  V30 6428 O 643.646 2.5248 0.0315057 0
M  V30 6429 C 644.959 1.0149 -2.83055 0
M  V30 6430 C 646.507 1.11805 -2.9235 0
M  V30 6431 C 646.982 1.41144 -4.35709 0
M  V30 6432 N 648.473 1.48024 -4.38911 0
M  V30 6433 C 649.208 1.72338 -5.46889 0
M  V30 6434 N 648.704 1.94303 -6.64995 0
M  V30 6435 N 650.497 1.74294 -5.34395 0
M  V30 6436 H 642.648 -0.371324 -2.09129 0
M  V30 6437 H 644.911 -0.103811 -0.942299 0
M  V30 6438 H 644.617 0.208345 -3.51082 0
M  V30 6439 H 644.491 1.93697 -3.23668 0
M  V30 6440 H 646.878 1.91521 -2.24508 0
M  V30 6441 H 646.959 0.17451 -2.55204 0
M  V30 6442 H 646.603 0.619484 -5.04108 0
M  V30 6443 H 646.533 2.36739 -4.70385 0
M  V30 6444 H 649.024 1.32868 -3.53772 0
M  V30 6445 H 649.337 2.12286 -7.43071 0
M  V30 6446 H 647.682 1.91582 -6.68073 0
M  V30 6447 H 650.873 1.56667 -4.41104 0
M  V30 6448 H 651.046 1.92904 -6.18621 0
M  V30 6449 N 644.452 1.42507 0.673017 0
M  V30 6450 C 645.399 1.46124 1.78651 0
M  V30 6451 C 646.369 0.313007 1.63124 0
M  V30 6452 O 647.554 0.517337 1.83653 0
M  V30 6453 C 644.694 1.3711 3.16694 0
M  V30 6454 C 643.807 2.61983 3.43495 0
M  V30 6455 C 642.942 2.45098 4.71275 0
M  V30 6456 C 641.981 3.65336 4.91117 0
M  V30 6457 N 641.118 3.47383 6.10139 0
M  V30 6458 H 645.958 2.4128 1.74895 0
M  V30 6459 H 643.495 1.19788 0.853766 0
M  V30 6460 H 645.453 1.29881 3.96468 0
M  V30 6461 H 644.083 0.45549 3.1957 0
M  V30 6462 H 643.135 2.79571 2.57961 0
M  V30 6463 H 644.447 3.51355 3.5405 0
M  V30 6464 H 643.601 2.35466 5.59143 0
M  V30 6465 H 642.34 1.53219 4.63007 0
M  V30 6466 H 641.345 3.754 4.0169 0
M  V30 6467 H 642.57 4.58199 5.01229 0
M  V30 6468 H 640.516 2.58222 6.0304 0
M  V30 6469 H 640.433 4.30344 6.21563 0
M  V30 6470 H 641.701 3.41565 7.00681 0
M  V30 6471 N 645.93 -0.909495 1.28709 0
M  V30 6472 C 647.207 -1.63865 1.06806 0
M  V30 6473 C 647.587 -2.07445 -0.391143 0
M  V30 6474 O 646.935 -1.82269 -1.37805 0
M  V30 6475 C 647.145 -2.82692 2.04661 0
M  V30 6476 C 648.493 -3.5361 2.35042 0
M  V30 6477 O 649.517 -2.92847 2.02779 0
M  V30 6478 O 648.376 -4.63131 2.90124 0
M  V30 6479 H 645.47 -0.719065 0.408502 0
M  V30 6480 H 648.016 -0.958424 1.40044 0
M  V30 6481 H 646.788 -2.47614 3.0299 0
M  V30 6482 H 646.411 -3.58426 1.72095 0
M  V30 6483 N 647.408 -1.11026 -1.11852 0
M  V30 6484 C 648.648 -0.866348 -1.85132 0
M  V30 6485 C 649.012 0.597236 -1.82475 0
M  V30 6486 O 650.213 0.957744 -2.51159 0
M  V30 6487 C 648.484 -1.40721 -3.28531 0
M  V30 6488 S 650.043 -1.29964 -4.19112 0
M  V30 6489 H 646.861 -0.312899 -0.638447 0
M  V30 6490 H 649.463 -1.41691 -1.34699 0
M  V30 6491 H 648.167 -2.46631 -3.28027 0
M  V30 6492 H 647.698 -0.85349 -3.8403 0
M  V30 6493 H 649.713 -0.261333 -4.95511 0
M  V30 6494 N 648.886 1.2938 -0.899927 0
M  V30 6495 C 649.849 2.25983 -0.382677 0
M  V30 6496 C 650.849 1.53366 0.483259 0
M  V30 6497 O 652.039 1.71798 0.28828 0
M  V30 6498 C 649.171 3.37878 0.452915 0
M  V30 6499 H 650.364 2.73252 -1.23586 0
M  V30 6500 H 647.917 1.40825 -0.678088 0
M  V30 6501 H 648.652 2.95949 1.32608 0
M  V30 6502 H 648.437 3.91742 -0.167562 0
M  V30 6503 H 649.927 4.09746 0.806107 0
M  V30 6504 N 650.364 0.662433 1.43002 0
M  V30 6505 C 651.641 0.109096 1.95296 0
M  V30 6506 C 652.021 -1.37313 1.60338 0
M  V30 6507 O 651.369 -2.1032 0.893187 0
M  V30 6508 C 651.579 0.365096 3.47085 0
M  V30 6509 C 652.927 0.274964 4.23709 0
M  V30 6510 O 653.951 0.29816 3.5495 0
M  V30 6511 O 652.81 0.206549 5.4611 0
M  V30 6512 H 649.904 -0.00429724 0.826989 0
M  V30 6513 H 652.45 0.736308 1.52894 0
M  V30 6514 H 651.222 1.39237 3.65689 0
M  V30 6515 H 650.845 -0.294733 3.96506 0
M  V30 6516 N 651.842 -1.52309 0.404946 0
M  V30 6517 C 653.253 -1.86585 -0.0655926 0
M  V30 6518 C 653.604 -1.3239 -1.44801 0
M  V30 6519 O 652.729 -0.6615 -2.06042 0
M  V30 6520 C 653.324 -3.38566 -0.125801 0
M  V30 6521 C 651.883 -3.72497 -0.540666 0
M  V30 6522 C 651.03 -2.75806 0.287487 0
M  V30 6523 H 653.981 -1.45995 0.622185 0
M  V30 6524 H 654.002 -3.68658 -0.941888 0
M  V30 6525 H 653.514 -3.77981 0.880473 0
M  V30 6526 H 651.615 -3.38659 -1.55373 0
M  V30 6527 H 651.728 -4.78234 -0.287956 0
M  V30 6528 H 650.092 -2.53474 -0.249561 0
M  V30 6529 H 650.875 -3.18059 1.29203 0
M  V30 6530 N 653.32 -0.135238 -1.57019 0
M  V30 6531 C 654.56 0.521686 -1.9763 0
M  V30 6532 C 654.924 1.62804 -1.01778 0
M  V30 6533 O 656.125 2.345 -1.31389 0
M  V30 6534 C 654.396 1.0257 -3.42365 0
M  V30 6535 S 655.955 1.68888 -4.04997 0
M  V30 6536 H 652.773 0.169064 -0.690607 0
M  V30 6537 H 655.375 -0.224168 -1.94211 0
M  V30 6538 H 654.079 0.209556 -4.09865 0
M  V30 6539 H 653.61 1.80645 -3.49472 0
M  V30 6540 H 655.625 2.97554 -3.97084 0
M  V30 6541 N 654.798 1.5699 0.138552 0
M  V30 6542 C 656.075 1.74741 0.87891 0
M  V30 6543 C 656.455 0.705522 1.98961 0
M  V30 6544 O 655.803 -0.274066 2.2685 0
M  V30 6545 C 656.013 3.1909 1.4136 0
M  V30 6546 C 657.361 3.81023 1.87368 0
M  V30 6547 O 658.385 3.22571 1.51084 0
M  V30 6548 O 657.244 4.83722 2.54312 0
M  V30 6549 H 654.338 0.714781 0.415953 0
M  V30 6550 H 656.884 1.69248 0.123817 0
M  V30 6551 H 655.656 3.86424 0.61579 0
M  V30 6552 H 655.279 3.29043 2.23196 0
M  V30 6553 N 656.276 -0.40816 1.52223 0
M  V30 6554 C 657.501 -1.18127 1.70472 0
M  V30 6555 C 657.926 -1.83491 0.41384 0
M  V30 6556 O 657.284 -1.70047 -0.628778 0
M  V30 6557 C 657.332 -2.21935 2.84213 0
M  V30 6558 O 656.436 -3.28099 2.4985 0
M  V30 6559 H 655.777 -0.344781 0.56747 0
M  V30 6560 H 658.307 -0.478328 1.9893 0
M  V30 6561 H 658.317 -2.66248 3.09153 0
M  V30 6562 H 656.992 -1.73744 3.7787 0
M  V30 6563 H 655.569 -2.89058 2.35584 0
M  V30 6564 O 657.793 -1.51699 -0.554045 0
M  V30 6565 H 658.484 -1.51323 -1.20918 0
M  V30 END ATOM
M  V30 BEGIN BOND
M  V30 END BOND
M  V30 END CTAB
M  END
$$$$
