drugbank_target|Q9HAZ1 Dual specificity protein kinase CLK4 (DB12010)
 OpenBabel12092121153D

  0  0  0     0  0            999 V3000
M  V30 BEGIN CTAB
M  V30 COUNTS 7954 8057 0 0 0
M  V30 BEGIN ATOM
M  V30 1 H -0.908 1.98254 -0.117106 0
M  V30 2 N 0 1.576 0 0
M  V30 3 C 0.933 2.03868 1.02534 0
M  V30 4 C 1.911 0.928543 1.3348 0
M  V30 5 O 3.095 1.19667 1.45644 0
M  V30 6 C 0.222 2.43627 2.35294 0
M  V30 7 C -0.732 3.65373 2.2001 0
M  V30 8 S 0.101 5.13292 1.52614 0
M  V30 9 C 1.257 5.56322 2.86805 0
M  V30 10 H 1.49 2.90518 0.631377 0
M  V30 11 H -0.977 1.52953 0.210867 0
M  V30 12 H 0.981 2.67203 3.11629 0
M  V30 13 H -0.358 1.57376 2.7183 0
M  V30 14 H -1.165 3.90944 3.18086 0
M  V30 15 H -1.563 3.418 1.51819 0
M  V30 16 H 0.729 5.58782 3.83104 0
M  V30 17 H 1.672 6.56266 2.65933 0
M  V30 18 H 2.08 4.83886 2.90714 0
M  V30 19 N 1.4781 -0.272755 1.55222 0
M  V30 20 C 2.8941 -0.619959 1.47067 0
M  V30 21 C 3.0941 -1.895 0.684978 0
M  V30 22 O 2.1501 -2.51675 0.203931 0
M  V30 23 C 3.4631 -0.746693 2.91282 0
M  V30 24 C 5.0111 -0.840731 3.01497 0
M  V30 25 C 5.4861 -0.99924 4.46967 0
M  V30 26 N 6.9771 -1.06476 4.50796 0
M  V30 27 C 7.7121 -1.20621 5.6057 0
M  V30 28 N 7.2081 -1.31483 6.80209 0
M  V30 29 N 9.0011 -1.23733 5.48312 0
M  V30 30 H 1.1521 0.564606 2.04758 0
M  V30 31 H 3.4151 0.191177 0.928523 0
M  V30 32 H 3.1211 0.119753 3.51496 0
M  V30 33 H 2.9951 -1.6269 3.40311 0
M  V30 34 H 5.3821 -1.69764 2.41379 0
M  V30 35 H 5.4631 0.0640874 2.5572 0
M  V30 36 H 5.1071 -0.146984 5.07687 0
M  V30 37 H 5.0371 -1.91871 4.90401 0
M  V30 38 H 7.5281 -0.993196 3.64615 0
M  V30 39 H 7.8411 -1.42111 7.59621 0
M  V30 40 H 6.1861 -1.28487 6.8302 0
M  V30 41 H 9.3771 -1.14877 4.53785 0
M  V30 42 H 9.5501 -1.34412 6.33906 0
M  V30 43 N 2.9562 -1.48159 -0.537278 0
M  V30 44 C 3.9062 -1.5854 -1.63857 0
M  V30 45 C 4.8902 -0.442969 -1.54682 0
M  V30 46 O 6.0822 -0.69401 -1.62827 0
M  V30 47 C 3.2112 -1.62144 -3.02596 0
M  V30 48 C 2.2972 -2.81841 -3.16901 0
M  V30 49 N 2.6882 -4.06337 -3.01204 0
M  V30 50 C 0.9862 -2.79021 -3.47942 0
M  V30 51 C 1.6872 -4.86606 -3.18731 0
M  V30 52 N 0.6632 -4.19288 -3.45974 0
M  V30 53 H 4.4652 -2.5255 -1.50319 0
M  V30 54 H 1.9792 -1.4443 -0.742555 0
M  V30 55 H 3.9762 -1.67674 -3.81695 0
M  V30 56 H 2.6362 -0.69245 -3.17231 0
M  V30 57 H 3.6472 -4.36888 -2.78117 0
M  V30 58 H 0.3242 -1.95347 -3.6898 0
M  V30 59 H 1.7142 -5.95385 -3.11394 0
M  V30 60 N 4.4343 0.785586 -1.36625 0
M  V30 61 C 5.6593 1.57963 -1.34397 0
M  V30 62 C 6.0843 1.87964 0.071526 0
M  V30 63 O 5.4423 1.48182 1.0446 0
M  V30 64 C 5.4903 2.87511 -2.17646 0
M  V30 65 O 4.5943 3.81281 -1.57158 0
M  V30 66 H 3.9353 0.479014 -0.459828 0
M  V30 67 H 6.4653 0.973411 -1.79961 0
M  V30 68 H 6.4753 3.36745 -2.30362 0
M  V30 69 H 5.1503 2.65002 -3.20541 0
M  V30 70 H 3.7273 3.39885 -1.53403 0
M  V30 71 N 5.9124 1.20967 1.01018 0
M  V30 72 C 6.8594 0.964281 2.09691 0
M  V30 73 C 7.8294 -0.107853 1.65749 0
M  V30 74 O 9.0144 0.0381987 1.90762 0
M  V30 75 C 6.1544 0.52943 3.41015 0
M  V30 76 C 5.2674 1.67043 3.98398 0
M  V30 77 C 4.4024 1.18525 5.17808 0
M  V30 78 C 3.4414 2.29892 5.67288 0
M  V30 79 N 2.5784 1.82546 6.77954 0
M  V30 80 H 7.4184 1.89463 2.30017 0
M  V30 81 H 4.9554 0.944289 1.1279 0
M  V30 82 H 6.9134 0.258588 4.16398 0
M  V30 83 H 5.5434 -0.363919 3.20742 0
M  V30 84 H 4.5954 2.05603 3.20049 0
M  V30 85 H 5.9074 2.50877 4.31117 0
M  V30 86 H 5.0614 0.870762 6.00419 0
M  V30 87 H 3.8004 0.316887 4.86669 0
M  V30 88 H 2.8054 2.6215 4.83278 0
M  V30 89 H 4.0304 3.17216 6.00459 0
M  V30 90 H 1.9764 0.980454 6.48632 0
M  V30 91 H 1.8934 2.59956 7.09901 0
M  V30 92 H 3.1614 1.54115 7.64113 0
M  V30 93 N 7.3905 -1.2043 1.01659 0
M  V30 94 C 8.8065 -1.41852 0.731442 0
M  V30 95 C 9.0065 -1.89358 -0.688898 0
M  V30 96 O 8.0625 -2.06247 -1.45666 0
M  V30 97 C 9.3755 -2.44019 1.75714 0
M  V30 98 C 10.9235 -2.57785 1.77527 0
M  V30 99 C 11.3985 -3.63194 2.79023 0
M  V30 100 N 12.8895 -3.70678 2.77763 0
M  V30 101 C 13.6245 -4.51897 3.52954 0
M  V30 102 N 13.1205 -5.36921 4.37821 0
M  V30 103 N 14.9135 -4.4643 3.41551 0
M  V30 104 H 7.0645 -0.879093 1.93354 0
M  V30 105 H 9.3275 -0.448425 0.835236 0
M  V30 106 H 9.0335 -2.1611 2.77469 0
M  V30 107 H 8.9075 -3.43007 1.56927 0
M  V30 108 H 11.2945 -2.85023 0.764569 0
M  V30 109 H 11.3755 -1.58992 2.00387 0
M  V30 110 H 11.0195 -3.36699 3.80258 0
M  V30 111 H 10.9495 -4.61609 2.53425 0
M  V30 112 H 13.4405 -3.09944 2.16201 0
M  V30 113 H 13.7535 -5.95981 4.91962 0
M  V30 114 H 12.0985 -5.36424 4.41899 0
M  V30 115 H 15.2895 -3.79042 2.74672 0
M  V30 116 H 15.4625 -5.09491 4.00404 0
M  V30 117 N 8.8686 -0.792821 -1.36206 0
M  V30 118 C 10.0966 -0.378825 -2.03402 0
M  V30 119 C 10.5116 1.00586 -1.59774 0
M  V30 120 O 9.8686 1.64574 -0.788764 0
M  V30 121 C 9.9196 -0.43683 -3.58851 0
M  V30 122 O 9.6406 -1.76691 -4.00889 0
M  V30 123 C 11.1416 -0.0138943 -4.43298 0
M  V30 124 H 8.3616 -0.155673 -0.652692 0
M  V30 125 H 10.9056 -1.07261 -1.74113 0
M  V30 126 H 9.0606 0.208575 -3.86838 0
M  V30 127 H 9.4746 -1.72011 -4.95492 0
M  V30 128 H 10.9486 -0.105615 -5.51899 0
M  V30 129 H 11.4256 1.03915 -4.2673 0
M  V30 130 H 12.0316 -0.63192 -4.20579 0
M  V30 131 N 10.3467 1.47872 -0.545128 0
M  V30 132 C 11.2967 2.26842 0.229456 0
M  V30 133 C 12.2807 1.33626 0.896267 0
M  V30 134 O 13.4727 1.58063 0.79657 0
M  V30 135 C 10.6017 3.19089 1.26638 0
M  V30 136 C 9.6877 4.19783 0.603598 0
M  V30 137 N 10.0787 5.0479 -0.319405 0
M  V30 138 C 8.3767 4.3765 0.858989 0
M  V30 139 C 9.0777 5.77433 -0.703241 0
M  V30 140 N 8.0537 5.43566 -0.0608309 0
M  V30 141 H 11.8557 2.89947 -0.480391 0
M  V30 142 H 9.3697 1.58263 -0.364209 0
M  V30 143 H 11.3667 3.74337 1.83515 0
M  V30 144 H 10.0267 2.5754 1.97745 0
M  V30 145 H 11.0377 5.13244 -0.692889 0
M  V30 146 H 7.7147 3.87281 1.55948 0
M  V30 147 H 9.1047 6.55824 -1.46098 0
M  V30 148 N 11.8248 0.280983 1.55075 0
M  V30 149 C 13.0648 -0.335234 2.01632 0
M  V30 150 C 13.4288 -1.5261 1.16508 0
M  V30 151 O 14.6298 -2.21235 1.52672 0
M  V30 152 C 12.9008 -0.702172 3.50434 0
M  V30 153 S 14.4598 -1.30409 4.18974 0
M  V30 154 H 11.2778 -0.103967 0.703358 0
M  V30 155 H 13.8798 0.404187 1.91276 0
M  V30 156 H 12.5838 0.17333 4.10034 0
M  V30 157 H 12.1148 -1.4729 3.64786 0
M  V30 158 H 14.1298 -2.59253 4.23087 0
M  V30 159 N 13.3029 -1.57598 0.00835791 0
M  V30 160 C 14.7139 -1.7892 -0.53333 0
M  V30 161 C 15.0649 -0.916609 -1.73473 0
M  V30 162 O 14.1899 -0.121336 -2.1606 0
M  V30 163 C 14.7849 -3.24488 -0.974313 0
M  V30 164 C 13.3439 -3.46878 -1.46125 0
M  V30 165 C 12.4909 -2.74157 -0.416302 0
M  V30 166 H 15.4419 -1.56958 0.234495 0
M  V30 167 H 15.4629 -3.3306 -1.83988 0
M  V30 168 H 14.9749 -3.87972 -0.099718 0
M  V30 169 H 13.0759 -2.8862 -2.35646 0
M  V30 170 H 13.1889 -4.55572 -1.48295 0
M  V30 171 H 11.5529 -2.39022 -0.87981 0
M  V30 172 H 12.3359 -3.40345 0.44947 0
M  V30 173 N 14.781 0.264519 -1.55364 0
M  V30 174 C 16.058 1.01677 -1.67096 0
M  V30 175 C 16.438 2.03996 -0.543015 0
M  V30 176 O 15.786 2.23907 0.45585 0
M  V30 177 C 15.996 1.66596 -3.0667 0
M  V30 178 C 17.344 2.17442 -3.64697 0
M  V30 179 O 18.368 1.76568 -3.09358 0
M  V30 180 O 17.227 2.92439 -4.61673 0
M  V30 181 H 14.321 0.472161 -0.678965 0
M  V30 182 H 16.867 0.259703 -1.67701 0
M  V30 183 H 15.639 0.924962 -3.80211 0
M  V30 184 H 15.262 2.48968 -3.10001 0
M  V30 185 N 16.2591 1.48442 0.529413 0
M  V30 186 C 17.5051 1.57699 1.28463 0
M  V30 187 C 17.8601 0.247913 1.90796 0
M  V30 188 O 17.1531 -0.749279 1.76342 0
M  V30 189 C 17.3471 2.6523 2.39558 0
M  V30 190 C 17.1761 4.08464 1.88114 0
M  V30 191 C 15.9461 4.75596 1.70693 0
M  V30 192 C 18.1441 4.94613 1.40935 0
M  V30 193 N 16.1261 6.03245 1.13881 0
M  V30 194 C 17.4971 6.12511 0.960734 0
M  V30 195 C 19.5521 4.80833 1.29243 0
M  V30 196 C 18.2551 7.18149 0.406792 0
M  V30 197 C 20.2811 5.86593 0.752487 0
M  V30 198 C 19.6431 7.037 0.313946 0
M  V30 199 H 15.7421 0.631608 0.46108 0
M  V30 200 H 18.3261 1.85325 0.596886 0
M  V30 201 H 16.4971 2.39425 3.05827 0
M  V30 202 H 18.2291 2.64169 3.06589 0
M  V30 203 H 14.9841 4.31938 1.94232 0
M  V30 204 H 15.4081 6.71324 0.874831 0
M  V30 205 H 20.0501 3.90635 1.61754 0
M  V30 206 H 17.7681 8.0807 0.0693671 0
M  V30 207 H 21.3541 5.77985 0.665192 0
M  V30 208 H 20.2341 7.8414 -0.0973632 0
M  V30 209 N 17.7372 -0.778329 1.37039 0
M  V30 210 C 19.0142 -1.52551 1.22424 0
M  V30 211 C 19.3942 -2.10288 -0.184964 0
M  V30 212 O 18.7422 -1.94953 -1.19187 0
M  V30 213 C 18.9522 -2.61164 2.31504 0
M  V30 214 C 20.3002 -3.28746 2.68721 0
M  V30 215 O 21.3242 -2.71455 2.30631 0
M  V30 216 O 20.1832 -4.3231 3.3432 0
M  V30 217 H 17.2772 -0.675343 0.477326 0
M  V30 218 H 19.8232 -0.815859 1.48801 0
M  V30 219 H 18.5952 -2.16574 3.25901 0
M  V30 220 H 18.2182 -3.39737 2.06554 0
M  V30 221 N 19.2153 -1.21501 -1.00376 0
M  V30 222 C 20.4403 -1.05977 -1.78279 0
M  V30 223 C 20.8653 0.385994 -1.84097 0
M  V30 224 O 20.2233 1.27849 -1.28547 0
M  V30 225 C 20.2713 -1.66302 -3.19963 0
M  V30 226 O 19.3753 -0.909333 -4.0225 0
M  V30 227 H 18.7163 -0.372906 -0.549397 0
M  V30 228 H 21.2463 -1.6107 -1.26165 0
M  V30 229 H 21.2563 -1.70574 -3.70632 0
M  V30 230 H 19.9313 -2.71515 -3.15043 0
M  V30 231 H 18.5083 -0.941795 -3.60811 0
M  V30 232 N 20.6934 1.19889 -1.02296 0
M  V30 233 C 22.1094 1.41462 -0.738954 0
M  V30 234 C 22.3094 1.89721 0.678846 0
M  V30 235 O 21.3654 2.07016 1.4457 0
M  V30 236 C 22.6784 2.43083 -1.77005 0
M  V30 237 C 24.2264 2.5684 -1.78892 0
M  V30 238 C 24.7014 3.61709 -2.80945 0
M  V30 239 N 26.1924 3.69199 -2.79725 0
M  V30 240 C 26.9274 4.50019 -3.55345 0
M  V30 241 N 26.4234 5.34592 -4.40662 0
M  V30 242 N 28.2164 4.44612 -3.43914 0
M  V30 243 H 20.3674 0.868827 -1.93817 0
M  V30 244 H 22.6304 0.44399 -0.837602 0
M  V30 245 H 22.3364 2.14636 -2.78612 0
M  V30 246 H 22.2104 3.4217 -1.58744 0
M  V30 247 H 24.5974 2.84614 -0.779674 0
M  V30 248 H 24.6784 1.57927 -2.01228 0
M  V30 249 H 24.3224 3.34678 -3.82038 0
M  V30 250 H 24.2524 4.60259 -2.5587 0
M  V30 251 H 26.7434 3.08794 -2.17842 0
M  V30 252 H 27.0564 5.93363 -4.95116 0
M  V30 253 H 25.4014 5.34073 -4.44737 0
M  V30 254 H 28.5924 3.7758 -2.76679 0
M  V30 255 H 28.7654 5.0736 -4.031 0
M  V30 256 N 22.1715 0.800033 1.35784 0
M  V30 257 C 23.0815 0.207204 2.33683 0
M  V30 258 C 24.0975 -0.64631 1.61551 0
M  V30 259 O 25.2735 -0.559604 1.93469 0
M  V30 260 C 22.3385 -0.639659 3.40748 0
M  V30 261 C 21.3995 0.233585 4.28664 0
M  V30 262 C 20.6325 -0.572954 5.30616 0
M  V30 263 O 20.8555 -1.80816 5.40982 0
M  V30 264 O 19.7895 0.0327285 6.01891 0
M  V30 265 H 23.6155 1.01692 2.86169 0
M  V30 266 H 21.2005 0.561691 1.38439 0
M  V30 267 H 23.0825 -1.12223 4.06182 0
M  V30 268 H 21.7575 -1.42708 2.90544 0
M  V30 269 H 20.6645 0.763147 3.66233 0
M  V30 270 H 21.9975 0.984784 4.82248 0
M  V30 271 N 23.6496 -1.47581 0.552962 0
M  V30 272 C 24.8746 -2.07378 0.0300593 0
M  V30 273 C 25.2996 -1.40355 -1.25229 0
M  V30 274 O 24.6576 -0.477099 -1.7491 0
M  V30 275 C 24.7056 -3.60274 -0.153231 0
M  V30 276 O 23.8096 -3.94041 -1.21678 0
M  V30 277 H 23.1506 -0.662158 0.0494182 0
M  V30 278 H 25.6806 -1.89662 0.767434 0
M  V30 279 H 25.6906 -4.0633 -0.368761 0
M  V30 280 H 24.3656 -4.08455 0.783397 0
M  V30 281 H 22.9426 -3.59735 -0.982079 0
M  V30 282 N 25.1277 -0.289203 -1.54924 0
M  V30 283 C 26.3737 0.316922 -2.00916 0
M  V30 284 C 26.7287 1.52424 -1.17408 0
M  V30 285 O 26.0217 1.90097 -0.239536 0
M  V30 286 C 26.2157 0.736119 -3.49737 0
M  V30 287 C 26.0447 -0.429036 -4.47649 0
M  V30 288 C 24.8147 -0.917311 -4.96904 0
M  V30 289 C 27.0127 -1.27016 -4.98369 0
M  V30 290 N 24.9947 -2.05046 -5.78644 0
M  V30 291 C 26.3657 -2.25097 -5.77695 0
M  V30 292 C 28.4207 -1.30188 -4.80578 0
M  V30 293 C 27.1237 -3.26114 -6.41126 0
M  V30 294 C 29.1497 -2.30057 -5.44819 0
M  V30 295 C 28.5117 -3.2687 -6.23968 0
M  V30 296 H 24.6107 0.0807535 -0.777819 0
M  V30 297 H 27.1947 -0.416434 -1.90194 0
M  V30 298 H 25.3657 1.43867 -3.60773 0
M  V30 299 H 27.0977 1.32078 -3.82541 0
M  V30 300 H 23.8527 -0.494248 -4.71014 0
M  V30 301 H 24.2767 -2.62108 -6.24202 0
M  V30 302 H 28.9187 -0.567163 -4.18979 0
M  V30 303 H 26.6367 -4.00512 -7.01866 0
M  V30 304 H 30.2227 -2.33271 -5.32988 0
M  V30 305 H 29.1027 -4.02883 -6.72796 0
M  V30 306 N 26.6058 1.57591 -0.0167156 0
M  V30 307 C 27.8538 1.90906 0.663285 0
M  V30 308 C 28.1748 0.892509 1.73376 0
M  V30 309 O 27.4448 -0.0677623 1.95783 0
M  V30 310 H 26.0248 0.704637 0.247983 0
M  V30 311 H 28.6868 1.94803 -0.0615909 0
M  V30 312 H 27.7828 2.9116 1.12393 0
M  V30 313 N 28.0839 -0.256276 1.55502 0
M  V30 314 C 29.0339 -1.31981 1.85916 0
M  V30 315 C 30.0179 -1.43927 0.719296 0
M  V30 316 O 31.2099 -1.47326 0.981019 0
M  V30 317 C 28.3389 -2.67703 2.14918 0
M  V30 318 C 27.4249 -2.59801 3.35208 0
M  V30 319 N 27.8159 -2.21524 4.54709 0
M  V30 320 C 26.1139 -2.90832 3.38131 0
M  V30 321 C 26.8149 -2.24024 5.36832 0
M  V30 322 N 25.7909 -2.63158 4.75656 0
M  V30 323 H 29.5929 -1.01423 2.75845 0
M  V30 324 H 27.1069 -0.464911 1.55603 0
M  V30 325 H 29.1039 -3.44445 2.34869 0
M  V30 326 H 27.7639 -2.99137 1.26282 0
M  V30 327 H 28.7749 -1.93223 4.80505 0
M  V30 328 H 25.4519 -3.26867 2.59739 0
M  V30 329 H 26.8419 -1.9685 6.42417 0
M  V30 330 N 29.562 -1.4872 -0.521534 0
M  V30 331 C 30.472 -1.66569 -1.65203 0
M  V30 332 C 31.488 -0.548197 -1.65139 0
M  V30 333 O 32.664 -0.820339 -1.83936 0
M  V30 334 C 29.729 -1.70917 -3.01642 0
M  V30 335 C 28.79 -2.94356 -3.12495 0
M  V30 336 C 28.023 -2.98487 -4.42426 0
M  V30 337 O 28.246 -2.10786 -5.30024 0
M  V30 338 O 27.18 -3.90746 -4.57822 0
M  V30 339 H 31.006 -2.62298 -1.5308 0
M  V30 340 H 28.591 -1.3222 -0.695565 0
M  V30 341 H 30.473 -1.7625 -3.82771 0
M  V30 342 H 29.148 -0.783633 -3.14071 0
M  V30 343 H 28.055 -2.94552 -2.3063 0
M  V30 344 H 29.388 -3.86322 -3.04986 0
M  V30 345 N 31.0401 0.771051 -1.3745 0
M  V30 346 C 32.2651 1.56529 -1.36065 0
M  V30 347 C 32.6901 1.88029 0.0515859 0
M  V30 348 O 32.0481 1.49282 1.02882 0
M  V30 349 C 32.0961 2.85187 -2.20683 0
M  V30 350 O 31.2001 3.79593 -1.61193 0
M  V30 351 H 30.5411 0.47411 -0.464883 0
M  V30 352 H 33.0711 0.954269 -1.80983 0
M  V30 353 H 33.0811 3.34283 -2.33921 0
M  V30 354 H 31.7561 2.61588 -3.23334 0
M  V30 355 H 30.3331 3.38239 -1.56999 0
M  V30 356 N 32.5182 1.22032 0.997298 0
M  V30 357 C 33.7482 1.06686 1.76923 0
M  V30 358 C 34.1562 -0.385838 1.85224 0
M  V30 359 O 33.4992 -1.27929 1.31833 0
M  V30 360 C 33.5612 1.59802 3.22031 0
M  V30 361 C 33.2252 3.08362 3.37286 0
M  V30 362 C 34.2222 4.05835 3.24952 0
M  V30 363 C 31.9072 3.47727 3.6248 0
M  V30 364 C 33.9012 5.4066 3.37588 0
M  V30 365 C 31.5882 4.82701 3.74757 0
M  V30 366 C 32.5862 5.78977 3.62319 0
M  V30 367 O 32.2742 7.11502 3.74193 0
M  V30 368 H 32.0062 0.374767 0.562606 0
M  V30 369 H 34.5602 1.61991 1.26286 0
M  V30 370 H 32.7902 0.989003 3.73839 0
M  V30 371 H 34.4792 1.40184 3.80924 0
M  V30 372 H 35.2452 3.76766 3.05405 0
M  V30 373 H 31.1242 2.73317 3.7124 0
M  V30 374 H 34.6682 6.15788 3.27796 0
M  V30 375 H 30.5652 5.11453 3.9381 0
M  V30 376 H 31.3332 7.19019 3.91093 0
M  V30 377 N 33.9963 -1.19345 1.0293 0
M  V30 378 C 35.4123 -1.41069 0.746446 0
M  V30 379 C 35.6123 -1.90078 -0.668776 0
M  V30 380 O 34.6683 -2.0778 -1.4347 0
M  V30 381 C 35.9813 -2.42141 1.78292 0
M  V30 382 C 37.5293 -2.55887 1.80252 0
M  V30 383 C 38.0043 -3.60214 2.8286 0
M  V30 384 N 39.4953 -3.67711 2.81679 0
M  V30 385 C 40.2303 -4.48128 3.57727 0
M  V30 386 N 39.7263 -5.32248 4.43491 0
M  V30 387 N 41.5193 -4.42782 3.46267 0
M  V30 388 H 33.6703 -0.858536 1.94275 0
M  V30 389 H 35.9333 -0.439541 0.839945 0
M  V30 390 H 35.6393 -2.13155 2.79746 0
M  V30 391 H 35.5133 -3.41323 1.60557 0
M  V30 392 H 37.9003 -2.84196 0.794757 0
M  V30 393 H 37.9813 -1.56858 2.02062 0
M  V30 394 H 37.6253 -3.32647 3.83807 0
M  V30 395 H 37.5553 -4.58895 2.58307 0
M  V30 396 H 40.0463 -3.07634 2.19476 0
M  V30 397 H 40.3593 -5.90729 4.98256 0
M  V30 398 H 38.7043 -5.31707 4.47564 0
M  V30 399 H 41.8953 -3.76107 2.78677 0
M  V30 400 H 42.0683 -5.05215 4.05785 0
M  V30 401 N 35.4744 -0.807222 -1.35358 0
M  V30 402 C 36.7224 -0.387122 -1.98358 0
M  V30 403 C 37.0434 1.04942 -1.64354 0
M  V30 404 O 36.3134 1.72615 -0.926339 0
M  V30 405 H 34.8934 -0.140154 -0.733734 0
M  V30 406 H 37.5554 -1.0332 -1.6526 0
M  V30 407 H 36.6514 -0.493352 -3.08176 0
M  V30 408 N 36.9525 1.47285 -0.560781 0
M  V30 409 C 38.1775 2.07359 -0.0410566 0
M  V30 410 C 38.6025 1.41017 1.24483 0
M  V30 411 O 37.9605 0.486368 1.74654 0
M  V30 412 C 38.0085 3.6035 0.134123 0
M  V30 413 O 37.1125 3.94681 1.19587 0
M  V30 414 H 36.4535 0.661887 -0.0529291 0
M  V30 415 H 38.9835 1.89252 -0.777482 0
M  V30 416 H 38.9935 4.0652 0.347207 0
M  V30 417 H 37.6685 4.08034 -0.805047 0
M  V30 418 H 36.2455 3.60251 0.962987 0
M  V30 419 N 38.4306 0.297415 1.54768 0
M  V30 420 C 39.3806 -0.595275 2.20092 0
M  V30 421 C 40.3646 -1.10163 1.17273 0
M  V30 422 O 41.5566 -1.043 1.43006 0
M  V30 423 C 38.6856 -1.7684 2.94249 0
M  V30 424 C 37.7716 -1.27818 4.0438 0
M  V30 425 N 38.1626 -0.505695 5.03266 0
M  V30 426 C 36.4606 -1.55923 4.17857 0
M  V30 427 C 37.1616 -0.245094 5.81183 0
M  V30 428 N 36.1376 -0.823881 5.3732 0
M  V30 429 H 39.9396 0.00250837 2.939 0
M  V30 430 H 37.4536 0.102007 1.62079 0
M  V30 431 H 39.4506 -2.41944 3.39513 0
M  V30 432 H 38.1106 -2.36992 2.21957 0
M  V30 433 H 39.1216 -0.150928 5.1768 0
M  V30 434 H 35.7986 -2.16849 3.56767 0
M  V30 435 H 37.1886 0.375084 6.70852 0
M  V30 436 N 39.9087 -1.5758 0.0250728 0
M  V30 437 C 40.8557 -2.09973 -0.958129 0
M  V30 438 C 41.8257 -1.00085 -1.3256 0
M  V30 439 O 43.0107 -1.27481 -1.41962 0
M  V30 440 C 40.1507 -2.62812 -2.2366 0
M  V30 441 C 39.2637 -3.86693 -1.92594 0
M  V30 442 C 38.3987 -4.27941 -3.14707 0
M  V30 443 C 37.4377 -5.44591 -2.79442 0
M  V30 444 N 36.5747 -5.81014 -3.94167 0
M  V30 445 H 41.4147 -2.937 -0.504428 0
M  V30 446 H 38.9517 -1.45172 -0.237392 0
M  V30 447 H 40.9097 -2.91536 -2.98434 0
M  V30 448 H 39.5397 -1.81922 -2.66654 0
M  V30 449 H 38.5917 -3.64723 -1.0808 0
M  V30 450 H 39.9037 -4.71547 -1.62619 0
M  V30 451 H 39.0577 -4.58079 -3.97804 0
M  V30 452 H 37.7967 -3.41845 -3.4784 0
M  V30 453 H 36.8017 -5.1415 -1.94755 0
M  V30 454 H 38.0267 -6.32382 -2.47528 0
M  V30 455 H 35.9727 -4.97874 -4.2715 0
M  V30 456 H 35.8897 -6.60498 -3.67801 0
M  V30 457 H 37.1577 -6.15756 -4.7798 0
M  V30 458 N 41.3868 0.248026 -1.55636 0
M  V30 459 C 42.8028 0.596483 -1.48035 0
M  V30 460 C 43.0028 1.88386 -0.715039 0
M  V30 461 O 42.0588 2.51319 -0.243944 0
M  V30 462 C 43.3718 0.700258 -2.92433 0
M  V30 463 C 44.9198 0.792659 -3.02797 0
M  V30 464 C 45.3948 0.928005 -4.485 0
M  V30 465 N 46.8858 0.992903 -4.52433 0
M  V30 466 C 47.6208 1.11687 -5.62418 0
M  V30 467 N 47.1168 1.20645 -6.82214 0
M  V30 468 N 48.9098 1.14994 -5.50212 0
M  V30 469 H 41.0608 -0.597109 -2.03834 0
M  V30 470 H 43.3238 -0.205925 -0.925364 0
M  V30 471 H 43.0298 -0.175658 -3.51261 0
M  V30 472 H 42.9038 1.57255 -3.42857 0
M  V30 473 H 45.2908 1.65903 -2.4405 0
M  V30 474 H 45.3718 -0.104762 -2.55585 0
M  V30 475 H 45.0158 0.0661971 -5.07857 0
M  V30 476 H 44.9458 1.84045 -4.93391 0
M  V30 477 H 47.4368 0.935064 -3.66149 0
M  V30 478 H 47.7498 1.30008 -7.61786 0
M  V30 479 H 46.0948 1.17605 -6.84977 0
M  V30 480 H 49.2858 1.07643 -4.55555 0
M  V30 481 H 49.4588 1.24311 -6.35965 0
M  V30 482 N 42.8649 1.48995 0.513639 0
M  V30 483 C 43.8119 1.6473 1.61656 0
M  V30 484 C 44.7819 0.488984 1.58739 0
M  V30 485 O 45.9669 0.714478 1.76918 0
M  V30 486 C 43.1069 1.7082 2.99858 0
M  V30 487 C 42.2199 2.9787 3.12885 0
M  V30 488 C 41.3549 2.95017 4.41744 0
M  V30 489 C 40.3939 4.16702 4.48359 0
M  V30 490 N 39.5309 4.11832 5.68629 0
M  V30 491 H 44.3709 2.58909 1.47547 0
M  V30 492 H 41.9079 1.28382 0.71808 0
M  V30 493 H 43.8659 1.72331 3.79944 0
M  V30 494 H 42.4959 0.801181 3.12699 0
M  V30 495 H 41.5479 3.06029 2.25944 0
M  V30 496 H 42.8599 3.8786 3.13633 0
M  V30 497 H 42.0139 2.95021 5.30139 0
M  V30 498 H 40.7529 2.02784 4.43542 0
M  V30 499 H 39.7579 4.16955 3.58369 0
M  V30 500 H 40.9829 5.10113 4.48287 0
M  V30 501 H 38.9289 3.22428 5.71293 0
M  V30 502 H 38.8459 4.95543 5.7094 0
M  V30 503 H 40.1139 4.1592 6.59266 0
M  V30 504 N 44.343 -0.763751 1.37857 0
M  V30 505 C 45.759 -1.06542 1.18832 0
M  V30 506 C 45.959 -2.01478 0.0299722 0
M  V30 507 O 45.015 -2.4458 -0.627447 0
M  V30 508 C 46.328 -1.65525 2.51042 0
M  V30 509 C 47.876 -1.77745 2.57635 0
M  V30 510 C 48.351 -2.4014 3.89996 0
M  V30 511 N 49.842 -2.47582 3.91481 0
M  V30 512 C 50.577 -2.96732 4.9065 0
M  V30 513 N 50.073 -3.45993 6.00217 0
M  V30 514 N 51.866 -2.95679 4.78048 0
M  V30 515 H 44.017 -0.133556 2.1198 0
M  V30 516 H 46.28 -0.121879 0.940133 0
M  V30 517 H 45.986 -1.03236 3.36207 0
M  V30 518 H 45.86 -2.64719 2.68707 0
M  V30 519 H 48.247 -2.39164 1.72872 0
M  V30 520 H 48.328 -0.772836 2.43846 0
M  V30 521 H 47.972 -1.79358 4.75177 0
M  V30 522 H 47.902 -3.41223 4.01092 0
M  V30 523 H 50.393 -2.1273 3.12337 0
M  V30 524 H 50.706 -3.81922 6.7183 0
M  V30 525 H 49.051 -3.44077 6.03851 0
M  V30 526 H 52.242 -2.56499 3.91568 0
M  V30 527 H 52.415 -3.33672 5.55488 0
M  V30 528 N 45.8211 -1.22559 -0.990812 0
M  V30 529 C 47.2371 -0.985996 -1.255 0
M  V30 530 C 47.4371 0.319173 -1.98956 0
M  V30 531 O 46.4931 1.04127 -2.3003 0
M  V30 532 C 47.8061 -2.18607 -2.06474 0
M  V30 533 C 49.3541 -2.22985 -2.19651 0
M  V30 534 C 49.8291 -3.4255 -3.04012 0
M  V30 535 N 51.3201 -3.42725 -3.11599 0
M  V30 536 C 52.0551 -4.31892 -3.7717 0
M  V30 537 N 51.5511 -5.31279 -4.44651 0
M  V30 538 N 53.3441 -4.19662 -3.73952 0
M  V30 539 H 45.4951 -2.06469 -0.49841 0
M  V30 540 H 47.7581 -0.904853 -0.282747 0
M  V30 541 H 47.4641 -3.13267 -1.59865 0
M  V30 542 H 47.3381 -2.18838 -3.07229 0
M  V30 543 H 49.7251 -1.28871 -2.65474 0
M  V30 544 H 49.8061 -2.26791 -1.18319 0
M  V30 545 H 49.4501 -4.36965 -2.58889 0
M  V30 546 H 49.3801 -3.35984 -4.0549 0
M  V30 547 H 51.8711 -2.70807 -2.63575 0
M  V30 548 H 52.1841 -5.95593 -4.92431 0
M  V30 549 H 50.5291 -5.3519 -4.43392 0
M  V30 550 H 53.7201 -3.41268 -3.20396 0
M  V30 551 H 53.8931 -4.89358 -4.24774 0
M  V30 552 N 47.2992 1.18797 -1.03562 0
M  V30 553 C 48.5242 1.9314 -0.755764 0
M  V30 554 C 48.9492 1.7537 0.68022 0
M  V30 555 O 48.3072 1.06046 1.47051 0
M  V30 556 C 48.3552 3.42747 -1.12058 0
M  V30 557 O 47.4592 4.11683 -0.243124 0
M  V30 558 H 46.8002 0.602724 -0.278604 0
M  V30 559 H 49.3302 1.50678 -1.3841 0
M  V30 560 H 49.3402 3.93437 -1.08035 0
M  V30 561 H 48.0152 3.55002 -2.16672 0
M  V30 562 H 46.5922 3.71323 -0.342539 0
M  V30 563 N 48.7773 0.814389 1.34928 0
M  V30 564 C 49.7273 0.202752 2.27097 0
M  V30 565 C 50.7113 -0.62799 1.48139 0
M  V30 566 O 51.9033 -0.483969 1.70255 0
M  V30 567 C 49.0323 -0.64146 3.37254 0
M  V30 568 C 48.1183 0.19944 4.23631 0
M  V30 569 N 48.5093 1.26628 4.89693 0
M  V30 570 C 46.8073 -0.0176433 4.45997 0
M  V30 571 C 47.5083 1.78031 5.53787 0
M  V30 572 N 46.4843 1.08553 5.32651 0
M  V30 573 H 50.2863 1.01893 2.75672 0
M  V30 574 H 47.8003 0.656332 1.48546 0
M  V30 575 H 49.7973 -1.09575 4.02243 0
M  V30 576 H 48.4573 -1.4559 2.9023 0
M  V30 577 H 49.4683 1.64901 4.90946 0
M  V30 578 H 46.1453 -0.800601 4.09752 0
M  V30 579 H 47.5353 2.67236 6.16469 0
M  V30 580 N 50.2554 -1.46986 0.568584 0
M  V30 581 C 51.4804 -2.07335 0.0520528 0
M  V30 582 C 51.9054 -1.41675 -1.23733 0
M  V30 583 O 51.2634 -0.495623 -1.74394 0
M  V30 584 C 51.3114 -3.60417 -0.11501 0
M  V30 585 O 50.4154 -3.95309 -1.17492 0
M  V30 586 H 49.7564 -0.661597 0.0564385 0
M  V30 587 H 52.2864 -1.88837 0.787507 0
M  V30 588 H 52.2964 -4.06698 -0.325644 0
M  V30 589 H 50.9714 -4.07601 0.826675 0
M  V30 590 H 49.5484 -3.60757 -0.943869 0
M  V30 591 N 51.7335 -0.305618 -1.54608 0
M  V30 592 C 52.9585 0.307562 -2.05107 0
M  V30 593 C 53.3835 1.46385 -1.18123 0
M  V30 594 O 52.7415 1.8034 -0.186324 0
M  V30 595 C 52.7895 0.73704 -3.52987 0
M  V30 596 O 51.8935 1.84134 -3.6901 0
M  V30 597 H 51.2345 0.0589143 -0.661381 0
M  V30 598 H 53.7645 -0.448807 -1.99617 0
M  V30 599 H 53.7745 1.02459 -3.94925 0
M  V30 600 H 52.4495 -0.108773 -4.15758 0
M  V30 601 H 51.0265 1.55398 -3.38978 0
M  V30 602 N 53.2116 1.57565 -0.0334293 0
M  V30 603 C 54.4396 1.9628 0.654347 0
M  V30 604 C 54.8546 0.910138 1.65414 0
M  V30 605 O 54.2116 -0.107595 1.82183 0
M  V30 606 C 54.2626 3.35067 1.35693 0
M  V30 607 O 53.9836 4.36296 0.397191 0
M  V30 608 C 55.4846 3.88439 2.13613 0
M  V30 609 H 52.7046 0.646369 0.180132 0
M  V30 610 H 55.2486 2.04282 -0.0944721 0
M  V30 611 H 53.4036 3.2827 2.05712 0
M  V30 612 H 53.8176 5.1678 0.896597 0
M  V30 613 H 55.2916 4.8788 2.58219 0
M  V30 614 H 55.7686 3.22914 2.97696 0
M  V30 615 H 56.3746 3.98516 1.48543 0
M  V30 616 N 54.6897 -0.239769 1.55765 0
M  V30 617 C 55.6217 -1.32001 1.87372 0
M  V30 618 C 56.6347 -1.43944 0.760522 0
M  V30 619 O 57.8237 -1.45167 1.0387 0
M  V30 620 C 54.9237 -2.69779 2.05115 0
M  V30 621 C 54.0967 -2.80014 3.36022 0
M  V30 622 C 53.1557 -3.98684 3.4342 0
M  V30 623 O 52.1817 -3.87877 4.16582 0
M  V30 624 N 53.3837 -5.12176 2.73232 0
M  V30 625 H 56.1487 -1.0522 2.80622 0
M  V30 626 H 53.7097 -0.429857 1.56089 0
M  V30 627 H 55.7017 -3.47517 2.07399 0
M  V30 628 H 54.2717 -2.89237 1.18577 0
M  V30 629 H 53.4917 -1.88896 3.45994 0
M  V30 630 H 54.7797 -2.83808 4.22292 0
M  V30 631 H 54.1777 -5.2385 2.13536 0
M  V30 632 H 52.7347 -5.88022 2.81199 0
M  V30 633 N 56.1678 -1.49265 -0.50573 0
M  V30 634 C 57.0778 -1.68312 -1.63427 0
M  V30 635 C 58.0938 -0.565682 -1.64548 0
M  V30 636 O 59.2698 -0.839801 -1.83055 0
M  V30 637 C 56.3348 -1.74107 -2.99813 0
M  V30 638 C 55.3958 -2.97653 -3.09356 0
M  V30 639 C 54.6288 -3.03163 -4.39236 0
M  V30 640 O 54.8518 -2.16396 -5.27758 0
M  V30 641 O 53.7858 -3.9558 -4.53652 0
M  V30 642 H 57.6118 -2.63907 -1.50289 0
M  V30 643 H 55.1968 -1.32951 -0.681502 0
M  V30 644 H 57.0788 -1.803 -3.80881 0
M  V30 645 H 55.7538 -0.816901 -3.13223 0
M  V30 646 H 54.6608 -2.96981 -2.27493 0
M  V30 647 H 55.9938 -3.89535 -3.00871 0
M  V30 648 N 57.6459 0.756429 -1.3826 0
M  V30 649 C 58.5939 1.89149 -1.35372 0
M  V30 650 C 59.5879 1.67691 -0.24004 0
M  V30 651 O 60.7939 1.75294 -0.408919 0
M  V30 652 H 57.1689 0.622271 -0.422236 0
M  V30 653 H 59.1399 1.88701 -2.31159 0
M  V30 654 C 57.8889 3.26599 -1.19284 0
M  V30 655 H 57.2119 3.43695 -2.0424 0
M  V30 656 H 58.6519 4.06274 -1.21316 0
M  V30 657 C 57.1109 3.3675 0.100454 0
M  V30 658 O 57.6409 3.86951 1.07851 0
M  V30 659 N 55.8469 2.90179 0.15633 0
M  V30 660 H 55.3939 2.49517 -0.640253 0
M  V30 661 H 55.3519 2.97352 1.02123 0
M  V30 662 N 59.124 1.23083 0.984299 0
M  V30 663 C 60.54 0.992637 1.24975 0
M  V30 664 C 60.74 -0.308618 1.99123 0
M  V30 665 O 59.796 -1.02905 2.30579 0
M  V30 666 C 61.109 2.19698 2.05312 0
M  V30 667 C 62.657 2.24147 2.18465 0
M  V30 668 C 63.132 3.44157 3.02192 0
M  V30 669 N 64.623 3.44372 3.09777 0
M  V30 670 C 65.358 4.33886 3.74874 0
M  V30 671 N 64.854 5.3363 4.41827 0
M  V30 672 N 66.647 4.21639 3.71721 0
M  V30 673 H 58.798 2.06731 0.487453 0
M  V30 674 H 61.061 0.906339 0.277944 0
M  V30 675 H 60.767 3.1411 1.58201 0
M  V30 676 H 60.641 2.20465 3.06064 0
M  V30 677 H 63.028 1.30277 2.64786 0
M  V30 678 H 63.109 2.27415 1.17115 0
M  V30 679 H 62.753 4.38332 2.56568 0
M  V30 680 H 62.683 3.3813 4.03702 0
M  V30 681 H 65.174 2.72201 2.62135 0
M  V30 682 H 65.487 5.98196 4.89266 0
M  V30 683 H 63.832 5.37534 4.40548 0
M  V30 684 H 67.023 3.42962 3.18582 0
M  V30 685 H 67.196 4.91604 4.22173 0
M  V30 686 N 60.6021 -1.18246 1.0419 0
M  V30 687 C 61.5521 -2.19843 0.604392 0
M  V30 688 C 62.5361 -1.56962 -0.353814 0
M  V30 689 O 63.7281 -1.76156 -0.17267 0
M  V30 690 C 60.8571 -3.43287 -0.0298975 0
M  V30 691 C 59.9431 -4.13288 0.951531 0
M  V30 692 N 60.3341 -4.59271 2.11906 0
M  V30 693 C 58.6321 -4.39165 0.7778 0
M  V30 694 C 59.3331 -5.13173 2.73912 0
M  V30 695 N 58.3091 -5.04763 2.01779 0
M  V30 696 H 62.1111 -2.53089 1.4941 0
M  V30 697 H 59.6251 -1.34465 0.910658 0
M  V30 698 H 61.6221 -4.15334 -0.361037 0
M  V30 699 H 60.2821 -3.11537 -0.915127 0
M  V30 700 H 61.2931 -4.5368 2.49789 0
M  V30 701 H 57.9701 -4.17461 -0.0572331 0
M  V30 702 H 59.3601 -5.58947 3.72864 0
M  V30 703 N 62.0802 -0.821533 -1.34494 0
M  V30 704 C 63.3202 -0.414785 -2.00147 0
M  V30 705 C 63.6842 1.00299 -1.6372 0
M  V30 706 O 64.8852 1.51255 -2.22206 0
M  V30 707 C 63.1562 -0.609403 -3.52166 0
M  V30 708 S 64.7152 -0.295297 -4.37805 0
M  V30 709 H 61.5332 -0.15679 -0.693497 0
M  V30 710 H 64.1352 -1.06705 -1.63812 0
M  V30 711 H 62.8392 -1.64096 -3.76166 0
M  V30 712 H 62.3702 0.0576414 -3.93358 0
M  V30 713 H 64.3852 0.891531 -4.88125 0
M  V30 714 N 63.5583 1.46682 -0.576371 0
M  V30 715 C 64.5053 2.30241 0.160499 0
M  V30 716 C 65.4753 1.40233 0.890162 0
M  V30 717 O 66.6603 1.69186 0.882084 0
M  V30 718 C 63.8003 3.24578 1.1723 0
M  V30 719 C 62.9133 4.29684 0.446736 0
M  V30 720 C 62.0483 5.11154 1.44551 0
M  V30 721 C 61.0873 6.08015 0.70599 0
M  V30 722 N 60.2243 6.82376 1.65251 0
M  V30 723 H 65.0643 2.92727 -0.558127 0
M  V30 724 H 62.6013 1.44272 -0.287056 0
M  V30 725 H 64.5593 3.77711 1.77172 0
M  V30 726 H 63.1893 2.63916 1.85872 0
M  V30 727 H 62.2413 3.79458 -0.267594 0
M  V30 728 H 63.5533 4.98626 -0.131686 0
M  V30 729 H 62.7073 5.68533 2.11791 0
M  V30 730 H 61.4463 4.42158 2.05786 0
M  V30 731 H 60.4513 5.49796 0.0197725 0
M  V30 732 H 61.6763 6.79028 0.09912 0
M  V30 733 H 59.6223 6.16094 2.25308 0
M  V30 734 H 59.5393 7.47556 1.12673 0
M  V30 735 H 60.8073 7.44316 2.31546 0
M  V30 736 N 65.0364 0.313813 1.54444 0
M  V30 737 C 66.4474 -0.176243 1.85866 0
M  V30 738 C 66.7984 -1.52405 1.23561 0
M  V30 739 O 65.9234 -2.09605 0.538016 0
M  V30 740 C 66.5184 -0.32657 3.37222 0
M  V30 741 C 65.0774 -0.760846 3.6863 0
M  V30 742 C 64.2244 0.123247 2.77026 0
M  V30 743 H 67.1754 0.534418 1.49431 0
M  V30 744 H 67.1964 -1.15908 3.62416 0
M  V30 745 H 66.7084 0.654531 3.82541 0
M  V30 746 H 64.8094 -1.75204 3.28838 0
M  V30 747 H 64.9224 -0.571353 4.75681 0
M  V30 748 H 63.2864 -0.399597 2.51546 0
M  V30 749 H 64.0694 1.10094 3.25168 0
M  V30 750 N 66.5145 -1.57545 0.0417849 0
M  V30 751 C 67.4645 -2.07483 -0.945247 0
M  V30 752 C 68.4485 -0.977983 -1.27767 0
M  V30 753 O 69.6405 -1.24142 -1.26166 0
M  V30 754 C 66.7695 -2.61576 -2.22335 0
M  V30 755 C 65.8555 -3.78213 -1.91874 0
M  V30 756 N 66.2465 -4.88344 -1.31733 0
M  V30 757 C 64.5445 -3.8694 -2.21796 0
M  V30 758 C 65.2455 -5.69462 -1.1869 0
M  V30 759 N 64.2215 -5.16771 -1.68666 0
M  V30 760 H 68.0235 -2.90029 -0.475441 0
M  V30 761 H 65.5375 -1.61581 -0.162911 0
M  V30 762 H 67.5345 -2.95651 -2.93932 0
M  V30 763 H 66.1945 -1.80465 -2.69931 0
M  V30 764 H 67.2055 -5.08335 -0.990729 0
M  V30 765 H 63.8825 -3.16757 -2.71977 0
M  V30 766 H 65.2725 -6.68023 -0.720793 0
M  V30 767 N 67.9926 0.231505 -1.5589 0
M  V30 768 C 68.9426 1.29007 -1.87993 0
M  V30 769 C 69.9266 1.42764 -0.742102 0
M  V30 770 O 71.1186 1.45747 -1.00433 0
M  V30 771 C 68.2476 2.6425 -2.1915 0
M  V30 772 C 67.3336 2.54435 -3.39299 0
M  V30 773 N 67.7246 2.14262 -4.58176 0
M  V30 774 C 66.0226 2.85416 -3.42715 0
M  V30 775 C 66.7236 2.15455 -5.40328 0
M  V30 776 N 65.6996 2.55558 -4.79783 0
M  V30 777 H 69.5016 0.970213 -2.77424 0
M  V30 778 H 67.0156 0.440097 -1.56323 0
M  V30 779 H 69.0126 3.40665 -2.40319 0
M  V30 780 H 67.6726 2.9709 -1.31025 0
M  V30 781 H 68.6836 1.85554 -4.83518 0
M  V30 782 H 65.3606 3.22693 -2.64906 0
M  V30 783 H 66.7506 1.86605 -6.45467 0
M  V30 784 N 69.4707 1.49531 0.497807 0
M  V30 785 C 70.4027 1.62559 1.61578 0
M  V30 786 C 71.4157 0.508134 1.54667 0
M  V30 787 O 72.6047 0.780309 1.60541 0
M  V30 788 C 69.7047 1.56925 3.00379 0
M  V30 789 C 68.8777 2.84257 3.3244 0
M  V30 790 C 67.9367 2.71632 4.50669 0
M  V30 791 O 66.9627 3.4557 4.52294 0
M  V30 792 N 68.1647 1.83391 5.5077 0
M  V30 793 H 70.9297 2.58981 1.50828 0
M  V30 794 H 68.4907 1.4666 0.685743 0
M  V30 795 H 70.4827 1.46129 3.77397 0
M  V30 796 H 69.0527 0.683483 3.05037 0
M  V30 797 H 68.2727 3.09381 2.44289 0
M  V30 798 H 69.5607 3.68666 3.5066 0
M  V30 799 H 68.9587 1.22583 5.52259 0
M  V30 800 H 67.5157 1.78515 6.26878 0
M  V30 801 N 70.9488 -0.749086 1.3866 0
M  V30 802 C 72.1958 -1.50833 1.35114 0
M  V30 803 C 72.5238 -1.94415 -0.0574049 0
M  V30 804 O 71.7788 -1.66065 -1.03541 0
M  V30 805 C 72.0778 -2.7712 2.25697 0
M  V30 806 C 71.7438 -2.52477 3.73585 0
M  V30 807 C 70.4058 -2.45466 4.13884 0
M  V30 808 C 72.7578 -2.31066 4.67181 0
M  V30 809 C 70.0858 -2.15064 5.45861 0
M  V30 810 C 72.4378 -2.02183 5.9942 0
M  V30 811 C 71.1018 -1.93631 6.38798 0
M  V30 812 H 70.3718 -0.551936 0.494416 0
M  V30 813 H 73.0188 -0.860979 1.71054 0
M  V30 814 H 71.3238 -3.46528 1.82827 0
M  V30 815 H 73.0208 -3.35096 2.20254 0
M  V30 816 H 69.6108 -2.58807 3.41638 0
M  V30 817 H 73.7948 -2.35459 4.3689 0
M  V30 818 H 69.0508 -2.06954 5.75308 0
M  V30 819 H 73.2248 -1.8462 6.71482 0
M  V30 820 H 70.8518 -1.69839 7.40985 0
M  V30 821 N 72.4269 -1.23603 -0.977757 0
M  V30 822 C 73.3739 -1.01954 -2.07061 0
M  V30 823 C 74.3439 0.0638697 -1.65977 0
M  V30 824 O 75.5289 -0.0887624 -1.90593 0
M  V30 825 C 72.6689 -0.619658 -3.39491 0
M  V30 826 C 71.7819 -1.77547 -3.93829 0
M  V30 827 C 70.9169 -1.32212 -5.14484 0
M  V30 828 C 69.9559 -2.44852 -5.60994 0
M  V30 829 N 69.0929 -2.00456 -6.72876 0
M  V30 830 H 73.9329 -1.95495 -2.24913 0
M  V30 831 H 71.4699 -0.973861 -1.10247 0
M  V30 832 H 73.4279 -0.368898 -4.15566 0
M  V30 833 H 72.0579 0.278752 -3.21594 0
M  V30 834 H 71.1099 -2.14016 -3.14486 0
M  V30 835 H 72.4219 -2.62219 -4.24314 0
M  V30 836 H 71.5759 -1.02965 -5.97899 0
M  V30 837 H 70.3149 -0.445808 -4.85658 0
M  V30 838 H 69.3199 -2.74871 -4.76157 0
M  V30 839 H 70.5449 -3.33024 -5.91837 0
M  V30 840 H 68.4909 -1.15208 -6.45804 0
M  V30 841 H 68.4079 -2.78687 -7.02759 0
M  V30 842 H 69.6759 -1.7432 -7.59758 0
M  V30 843 N 73.905 1.17692 -1.04816 0
M  V30 844 C 74.815 2.25229 -0.65643 0
M  V30 845 C 75.831 1.71018 0.320761 0
M  V30 846 O 77.007 2.00649 0.173805 0
M  V30 847 C 74.072 3.46684 -0.0332629 0
M  V30 848 C 73.133 4.15997 -1.06042 0
M  V30 849 C 72.366 5.31654 -0.466893 0
M  V30 850 O 72.589 5.65777 0.724758 0
M  V30 851 O 71.523 5.89831 -1.1993 0
M  V30 852 H 75.349 2.61016 -1.55255 0
M  V30 853 H 72.934 1.24919 -0.81949 0
M  V30 854 H 74.816 4.20234 0.313256 0
M  V30 855 H 73.491 3.12703 0.836566 0
M  V30 856 H 72.398 3.44482 -1.45886 0
M  V30 857 H 73.731 4.53996 -1.90127 0
M  V30 858 N 75.3831 0.828654 1.34056 0
M  V30 859 C 76.6081 0.431637 2.02859 0
M  V30 860 C 77.0331 -0.956339 1.61975 0
M  V30 861 O 76.3911 -1.62338 0.807228 0
M  V30 862 C 76.4391 0.548323 3.56407 0
M  V30 863 O 75.5431 -0.429556 4.10157 0
M  V30 864 H 74.8841 0.176886 0.640006 0
M  V30 865 H 77.4141 1.12066 1.71179 0
M  V30 866 H 77.4241 0.426196 4.05768 0
M  V30 867 H 76.0991 1.5606 3.8551 0
M  V30 868 H 74.6761 -0.265836 3.71951 0
M  V30 869 N 76.8612 -1.46375 0.584142 0
M  V30 870 C 78.1382 -1.956 0.0033388 0
M  V30 871 C 78.5182 -1.52679 -1.45782 0
M  V30 872 O 77.8662 -0.77816 -2.14842 0
M  V30 873 C 78.0762 -3.48551 0.176891 0
M  V30 874 C 79.4242 -4.24576 0.0454609 0
M  V30 875 O 80.4482 -3.56043 0.105801 0
M  V30 876 O 79.3072 -5.46427 -0.0890376 0
M  V30 877 H 76.4012 -0.825547 -0.0490066 0
M  V30 878 H 78.9472 -1.56652 0.65256 0
M  V30 879 H 77.7192 -3.72683 1.1926 0
M  V30 880 H 77.3422 -3.94332 -0.508695 0
M  V30 881 N 78.3393 -0.321999 -1.54275 0
M  V30 882 C 79.5793 0.281657 -2.0245 0
M  V30 883 C 79.9433 1.49468 -1.20513 0
M  V30 884 O 81.1443 2.17109 -1.58484 0
M  V30 885 C 79.4153 0.609014 -3.52173 0
M  V30 886 S 80.9743 1.19255 -4.22284 0
M  V30 887 H 77.7923 0.0852825 -0.705867 0
M  V30 888 H 80.3943 -0.454758 -1.90137 0
M  V30 889 H 79.0983 -0.281982 -4.0943 0
M  V30 890 H 78.6293 1.37567 -3.68563 0
M  V30 891 H 80.6443 2.47944 -4.29812 0
M  V30 892 N 79.8174 1.5752 -0.0501392 0
M  V30 893 C 80.7674 2.07981 0.934231 0
M  V30 894 C 81.7514 0.984745 1.27246 0
M  V30 895 O 82.9434 1.24809 1.25506 0
M  V30 896 C 80.0724 2.62751 2.20945 0
M  V30 897 C 79.1584 3.79225 1.89865 0
M  V30 898 N 79.5494 4.89036 1.29142 0
M  V30 899 C 77.8474 3.88111 2.19741 0
M  V30 900 C 78.5484 5.70084 1.15669 0
M  V30 901 N 77.5244 5.17659 1.65923 0
M  V30 902 H 81.3264 2.90277 0.460053 0
M  V30 903 H 78.8404 1.61665 0.15434 0
M  V30 904 H 80.8374 2.97205 2.9236 0
M  V30 905 H 79.4974 1.81894 2.6897 0
M  V30 906 H 80.5084 5.08854 0.963756 0
M  V30 907 H 77.1854 3.18194 2.70293 0
M  V30 908 H 78.5754 6.68395 0.685356 0
M  V30 909 N 81.2955 -0.223234 1.56011 0
M  V30 910 C 82.5255 -0.963413 1.82762 0
M  V30 911 C 82.9335 -1.78516 0.626804 0
M  V30 912 O 82.2765 -1.78974 -0.414014 0
M  V30 913 C 82.3385 -1.93126 3.0322 0
M  V30 914 C 82.0025 -1.2942 4.38291 0
M  V30 915 C 82.9995 -0.684916 5.15369 0
M  V30 916 C 80.6845 -1.30647 4.85012 0
M  V30 917 C 82.6785 -0.0963971 6.37327 0
M  V30 918 C 80.3655 -0.71411 6.06913 0
M  V30 919 C 81.3635 -0.110123 6.82911 0
M  V30 920 O 81.0515 0.47303 8.02507 0
M  V30 921 H 80.7835 -0.288011 0.611576 0
M  V30 922 H 83.3375 -0.244103 2.03944 0
M  V30 923 H 81.5675 -2.68952 2.77852 0
M  V30 924 H 83.2565 -2.53685 3.16857 0
M  V30 925 H 84.0225 -0.667774 4.80381 0
M  V30 926 H 79.9015 -1.76598 4.25833 0
M  V30 927 H 83.4455 0.375657 6.96588 0
M  V30 928 H 79.3425 -0.728659 6.41374 0
M  V30 929 H 80.1105 0.367186 8.17676 0
M  V30 930 N 82.7736 -1.49793 -0.48987 0
M  V30 931 C 83.7036 -1.70201 -1.59856 0
M  V30 932 C 84.6846 -0.55076 -1.60937 0
M  V30 933 O 85.8696 -0.787841 -1.77501 0
M  V30 934 C 82.9996 -1.77882 -2.98287 0
M  V30 935 C 81.9536 -2.92907 -3.12073 0
M  V30 936 C 81.2796 -2.85712 -4.51965 0
M  V30 937 C 82.5796 -4.3369 -2.91051 0
M  V30 938 H 84.2736 -2.63025 -1.43032 0
M  V30 939 H 81.8196 -1.26574 -0.686664 0
M  V30 940 H 83.7726 -1.90744 -3.75759 0
M  V30 941 H 82.4966 -0.816653 -3.16225 0
M  V30 942 H 81.1556 -2.79665 -2.37029 0
M  V30 943 H 80.8036 -1.8738 -4.66795 0
M  V30 944 H 80.5036 -3.62921 -4.62128 0
M  V30 945 H 82.0276 -3.00598 -5.31482 0
M  V30 946 H 83.4416 -4.47555 -3.58284 0
M  V30 947 H 81.8386 -5.12205 -3.12675 0
M  V30 948 H 82.9086 -4.47362 -1.87071 0
M  V30 949 N 84.2517 0.741722 -1.39055 0
M  V30 950 C 85.1617 1.88621 -1.39496 0
M  V30 951 C 86.1777 1.71557 -0.290578 0
M  V30 952 O 87.3537 1.94275 -0.530954 0
M  V30 953 C 84.4187 3.24134 -1.23037 0
M  V30 954 C 83.4797 3.5364 -2.43387 0
M  V30 955 C 82.7127 4.82687 -2.27703 0
M  V30 956 O 82.9357 5.55922 -1.27696 0
M  V30 957 O 81.8697 5.1194 -3.16545 0
M  V30 958 H 85.6957 1.91203 -2.35956 0
M  V30 959 H 83.2807 0.888625 -1.20099 0
M  V30 960 H 85.1627 4.0513 -1.15964 0
M  V30 961 H 83.8377 3.22337 -0.296691 0
M  V30 962 H 82.7447 2.72758 -2.56035 0
M  V30 963 H 84.0777 3.60209 -3.35425 0
M  V30 964 N 85.7298 1.2412 0.971189 0
M  V30 965 C 86.6928 1.03156 2.04674 0
M  V30 966 C 87.6928 -0.00990322 1.60797 0
M  V30 967 O 88.8828 0.230729 1.72665 0
M  V30 968 C 86.0148 0.562765 3.36223 0
M  V30 969 H 87.2078 1.98614 2.24705 0
M  V30 970 H 84.7608 1.06293 1.14593 0
M  V30 971 H 85.4958 -0.395176 3.21883 0
M  V30 972 H 85.2808 1.31441 3.69413 0
M  V30 973 H 86.7708 0.437015 4.15307 0
M  V30 974 N 87.2079 -1.17134 1.05439 0
M  V30 975 C 88.6239 -1.39454 0.776201 0
M  V30 976 C 88.8239 -1.91454 -0.628307 0
M  V30 977 O 87.8799 -2.10777 -1.39031 0
M  V30 978 C 89.1929 -2.38305 1.83388 0
M  V30 979 C 90.7409 -2.52006 1.85639 0
M  V30 980 C 91.2159 -3.54133 2.90437 0
M  V30 981 N 92.7069 -3.61653 2.89415 0
M  V30 982 C 93.4419 -4.4044 3.67152 0
M  V30 983 N 92.9379 -5.22721 4.54681 0
M  V30 984 N 94.7309 -4.35337 3.55581 0
M  V30 985 H 86.8819 -0.817134 1.96053 0
M  V30 986 H 89.1449 -0.421626 0.849079 0
M  V30 987 H 88.8509 -2.07173 2.84204 0
M  V30 988 H 88.7249 -3.37841 1.67761 0
M  V30 989 H 91.1119 -2.82447 0.85486 0
M  V30 990 H 91.1929 -1.52537 2.05344 0
M  V30 991 H 90.8369 -3.24431 3.90777 0
M  V30 992 H 90.7669 -4.53313 2.67983 0
M  V30 993 H 93.2579 -3.02909 2.25952 0
M  V30 994 H 93.5709 -5.80027 5.10674 0
M  V30 995 H 91.9159 -5.22093 4.58741 0
M  V30 996 H 95.1069 -3.70112 2.86592 0
M  V30 997 H 95.2799 -4.96494 4.1641 0
M  V30 998 N 88.686 -0.835752 -1.33615 0
M  V30 999 C 89.911 -0.442389 -2.02627 0
M  V30 1000 C 90.336 0.947735 -1.62479 0
M  V30 1001 O 89.694 1.61907 -0.815826 0
M  V30 1002 C 89.742 -0.567216 -3.56111 0
M  V30 1003 O 88.846 0.407799 -4.10379 0
M  V30 1004 H 88.187 -0.180278 -0.639059 0
M  V30 1005 H 90.717 -1.12972 -1.70583 0
M  V30 1006 H 90.727 -0.447708 -4.05536 0
M  V30 1007 H 89.402 -1.58103 -3.84677 0
M  V30 1008 H 87.979 0.246107 -3.72087 0
M  V30 1009 N 90.1641 1.46063 -0.591896 0
M  V30 1010 C 91.0941 2.33172 0.123673 0
M  V30 1011 C 92.0751 1.45897 0.87453 0
M  V30 1012 O 93.2601 1.74698 0.848181 0
M  V30 1013 C 90.3901 3.28336 1.13194 0
M  V30 1014 C 89.3441 4.25124 0.495324 0
M  V30 1015 C 88.6701 5.09863 1.61071 0
M  V30 1016 C 89.9701 5.19143 -0.573425 0
M  V30 1017 H 91.6641 2.93252 -0.603646 0
M  V30 1018 H 89.2101 1.41014 -0.291741 0
M  V30 1019 H 91.1631 3.88137 1.64097 0
M  V30 1020 H 89.8871 2.66383 1.88965 0
M  V30 1021 H 88.5461 3.66599 0.00729452 0
M  V30 1022 H 88.1941 4.44288 2.35832 0
M  V30 1023 H 87.8941 5.75417 1.19035 0
M  V30 1024 H 89.4181 5.72529 2.12233 0
M  V30 1025 H 90.8321 5.73106 -0.1491 0
M  V30 1026 H 89.2291 5.93089 -0.914636 0
M  V30 1027 H 90.2991 4.62519 -1.45617 0
M  V30 1028 N 91.6422 0.330177 1.54103 0
M  V30 1029 C 92.5902 -0.548226 2.26047 0
M  V30 1030 C 93.5842 -1.11309 1.27698 0
M  V30 1031 O 94.7902 -1.06036 1.45452 0
M  V30 1032 H 91.1652 -0.195456 0.726155 0
M  V30 1033 H 93.1362 0.0807567 2.98291 0
M  V30 1034 C 91.8852 -1.69415 3.03634 0
M  V30 1035 H 91.2082 -1.26876 3.79134 0
M  V30 1036 H 92.6482 -2.28423 3.5721 0
M  V30 1037 C 91.1072 -2.61569 2.12328 0
M  V30 1038 O 91.6372 -3.63462 1.7105 0
M  V30 1039 N 89.8432 -2.29952 1.77681 0
M  V30 1040 H 89.3902 -1.47134 2.11446 0
M  V30 1041 H 89.3482 -2.91871 1.16869 0
M  V30 1042 N 93.1203 -1.57491 0.0584922 0
M  V30 1043 C 94.0303 -2.15448 -0.928414 0
M  V30 1044 C 95.0463 -1.11416 -1.3365 0
M  V30 1045 O 96.2223 -1.4362 -1.41193 0
M  V30 1046 C 93.2873 -2.69393 -2.18239 0
M  V30 1047 C 92.3483 -3.88249 -1.83196 0
M  V30 1048 C 91.5813 -4.39613 -3.02616 0
M  V30 1049 O 91.8043 -3.90023 -4.16219 0
M  V30 1050 O 90.7383 -5.31111 -2.83204 0
M  V30 1051 H 94.5643 -3.00112 -0.465483 0
M  V30 1052 H 92.1493 -1.48499 -0.163826 0
M  V30 1053 H 94.0313 -3.04026 -2.91798 0
M  V30 1054 H 92.7063 -1.87796 -2.63656 0
M  V30 1055 H 91.6133 -3.58492 -1.06931 0
M  V30 1056 H 92.9463 -4.71098 -1.42573 0
M  V30 1057 N 94.5984 0.214957 -1.56127 0
M  V30 1058 C 96.0144 0.564948 -1.49267 0
M  V30 1059 C 96.2144 1.86827 -0.754838 0
M  V30 1060 O 95.2704 2.50745 -0.297198 0
M  V30 1061 C 96.5834 0.638071 -2.93852 0
M  V30 1062 C 98.1314 0.728253 -3.0441 0
M  V30 1063 C 98.6064 0.832663 -4.50367 0
M  V30 1064 N 100.097 0.896712 -4.54437 0
M  V30 1065 C 100.832 0.997324 -5.6466 0
M  V30 1066 N 100.328 1.06147 -6.8462 0
M  V30 1067 N 102.121 1.03297 -5.52527 0
M  V30 1068 H 94.2724 -0.640211 -2.02522 0
M  V30 1069 H 96.5354 -0.225507 -0.920788 0
M  V30 1070 H 96.2414 -0.250126 -3.50809 0
M  V30 1071 H 96.1154 1.49947 -3.46115 0
M  V30 1072 H 98.5024 1.60689 -2.47514 0
M  V30 1073 H 98.5834 -0.158952 -2.55306 0
M  V30 1074 H 98.2274 -0.0415417 -5.07883 0
M  V30 1075 H 98.1574 1.73538 -4.97184 0
M  V30 1076 H 100.648 0.857188 -3.6805 0
M  V30 1077 H 100.961 1.1382 -7.64372 0
M  V30 1078 H 99.3064 1.03049 -6.87318 0
M  V30 1079 H 102.497 0.979558 -4.57736 0
M  V30 1080 H 102.67 1.10793 -6.38458 0
M  V30 1081 N 96.0765 1.50051 0.48192 0
M  V30 1082 C 97.3535 1.51009 1.2432 0
M  V30 1083 C 97.7335 0.248587 2.09631 0
M  V30 1084 O 97.0815 -0.768409 2.15192 0
M  V30 1085 C 97.2915 2.79981 2.08355 0
M  V30 1086 C 98.6395 3.3022 2.66908 0
M  V30 1087 O 99.6635 2.81228 2.18607 0
M  V30 1088 O 98.5225 4.15595 3.54884 0
M  V30 1089 H 95.6165 0.605239 0.563573 0
M  V30 1090 H 98.1625 1.62332 0.494627 0
M  V30 1091 H 96.9345 3.63275 1.45419 0
M  V30 1092 H 96.5575 2.7161 2.90368 0
M  V30 1093 N 97.5546 -0.734337 1.39446 0
M  V30 1094 C 98.7846 -1.52137 1.39778 0
M  V30 1095 C 99.1926 -1.89198 -0.00929312 0
M  V30 1096 O 98.5356 -1.54666 -0.991168 0
M  V30 1097 C 98.5976 -2.83762 2.20724 0
M  V30 1098 C 98.2616 -2.69131 3.69347 0
M  V30 1099 C 99.2586 -2.37635 4.62413 0
M  V30 1100 C 96.9436 -2.85982 4.1294 0
M  V30 1101 C 98.9376 -2.23172 5.97054 0
M  V30 1102 C 96.6246 -2.71137 5.47657 0
M  V30 1103 C 97.6226 -2.39777 6.39528 0
M  V30 1104 O 97.3106 -2.25026 7.71763 0
M  V30 1105 H 97.0426 -0.476717 0.479288 0
M  V30 1106 H 99.5966 -0.915012 1.83893 0
M  V30 1107 H 97.8266 -3.4666 1.71359 0
M  V30 1108 H 99.5156 -3.45383 2.13226 0
M  V30 1109 H 100.282 -2.24267 4.30034 0
M  V30 1110 H 96.1606 -3.09383 3.41765 0
M  V30 1111 H 99.7046 -1.98617 6.68728 0
M  V30 1112 H 95.6016 -2.84083 5.79626 0
M  V30 1113 H 96.3696 -2.40091 7.82495 0
M  V30 1114 N 99.0327 -1.24633 -0.964593 0
M  V30 1115 C 100.449 -1.01239 -1.2338 0
M  V30 1116 C 100.649 0.2769 -1.99588 0
M  V30 1117 O 99.7047 0.992241 -2.32187 0
M  V30 1118 C 101.018 -2.22937 -2.01791 0
M  V30 1119 C 102.566 -2.27594 -2.14872 0
M  V30 1120 C 103.041 -3.48921 -2.96678 0
M  V30 1121 N 104.532 -3.49257 -3.04259 0
M  V30 1122 C 105.267 -4.39795 -3.67924 0
M  V30 1123 N 104.763 -5.40591 -4.33281 0
M  V30 1124 N 106.556 -4.275 -3.64966 0
M  V30 1125 H 98.7067 -2.0748 -0.454502 0
M  V30 1126 H 100.97 -0.910647 -0.26349 0
M  V30 1127 H 100.676 -3.16587 -1.53184 0
M  V30 1128 H 100.55 -2.25306 -3.02518 0
M  V30 1129 H 102.937 -1.34473 -2.6268 0
M  V30 1130 H 103.018 -2.2925 -1.13482 0
M  V30 1131 H 102.662 -4.42359 -2.49562 0
M  V30 1132 H 102.592 -3.4451 -3.98272 0
M  V30 1133 H 105.083 -2.76337 -2.57771 0
M  V30 1134 H 105.396 -6.05904 -4.79687 0
M  V30 1135 H 103.741 -5.44475 -4.3194 0
M  V30 1136 H 106.932 -3.47987 -3.13086 0
M  V30 1137 H 107.105 -4.98258 -4.14298 0
M  V30 1138 N 100.511 1.16574 -1.06058 0
M  V30 1139 C 101.788 1.83048 -0.689416 0
M  V30 1140 C 102.168 1.94122 0.829443 0
M  V30 1141 O 101.516 1.48249 1.7388 0
M  V30 1142 C 101.726 3.20186 -1.38859 0
M  V30 1143 C 103.074 3.95989 -1.53226 0
M  V30 1144 O 104.098 3.29696 -1.3483 0
M  V30 1145 O 102.957 5.14813 -1.83384 0
M  V30 1146 H 100.051 0.790258 -0.243764 0
M  V30 1147 H 102.597 1.23797 -1.16071 0
M  V30 1148 H 101.369 3.07146 -2.4244 0
M  V30 1149 H 100.992 3.87112 -0.907216 0
M  V30 1150 N 101.989 0.842826 1.3317 0
M  V30 1151 C 103.405 0.531128 1.50503 0
M  V30 1152 C 103.605 -0.940734 1.78192 0
M  V30 1153 O 102.661 -1.72436 1.84451 0
M  V30 1154 C 103.974 1.40789 2.65705 0
M  V30 1155 C 105.522 1.40708 2.79589 0
M  V30 1156 C 105.997 2.26878 3.97857 0
M  V30 1157 N 107.488 2.24609 4.05099 0
M  V30 1158 C 108.223 2.88019 4.95815 0
M  V30 1159 N 107.719 3.60496 5.9162 0
M  V30 1160 N 109.512 2.77469 4.88843 0
M  V30 1161 H 101.663 1.79557 1.1346 0
M  V30 1162 H 103.926 0.766267 0.558156 0
M  V30 1163 H 103.632 2.454 2.51936 0
M  V30 1164 H 103.506 1.08677 3.61205 0
M  V30 1165 H 105.893 0.368668 2.92788 0
M  V30 1166 H 105.974 1.76829 1.84838 0
M  V30 1167 H 105.618 3.3078 3.85418 0
M  V30 1168 H 105.548 1.88096 4.91861 0
M  V30 1169 H 108.039 1.71906 3.36536 0
M  V30 1170 H 108.352 4.06076 6.57512 0
M  V30 1171 H 106.697 3.64604 5.91683 0
M  V30 1172 H 109.888 2.20406 4.12963 0
M  V30 1173 H 110.061 3.2717 5.59342 0
M  V30 1174 N 103.467 -1.45747 0.599634 0
M  V30 1175 C 104.883 -1.57424 0.26264 0
M  V30 1176 C 105.083 -1.59222 -1.23493 0
M  V30 1177 O 104.139 -1.51825 -2.01756 0
M  V30 1178 C 105.452 -2.86061 0.926795 0
M  V30 1179 C 107 -2.99722 0.901967 0
M  V30 1180 C 107.475 -4.31119 1.54598 0
M  V30 1181 N 108.966 -4.37858 1.5111 0
M  V30 1182 C 109.701 -5.3818 1.97863 0
M  V30 1183 N 109.197 -6.45083 2.52666 0
M  V30 1184 N 110.99 -5.29487 1.88679 0
M  V30 1185 H 103.141 -1.42823 1.57211 0
M  V30 1186 H 105.404 -0.68235 0.658105 0
M  V30 1187 H 105.11 -2.90605 1.98095 0
M  V30 1188 H 104.984 -3.74563 0.445238 0
M  V30 1189 H 107.371 -2.9475 -0.143617 0
M  V30 1190 H 107.452 -2.12652 1.42171 0
M  V30 1191 H 107.096 -4.36849 2.59085 0
M  V30 1192 H 107.026 -5.16992 1.00132 0
M  V30 1193 H 109.517 -3.61209 1.11068 0
M  V30 1194 H 109.83 -7.17869 2.86155 0
M  V30 1195 H 108.175 -6.45856 2.56701 0
M  V30 1196 H 111.366 -4.44877 1.4561 0
M  V30 1197 H 111.539 -6.07524 2.25429 0
M  V30 1198 N 104.945 -0.338344 -1.53925 0
M  V30 1199 C 106.175 0.260919 -2.04946 0
M  V30 1200 C 106.583 1.45174 -1.2133 0
M  V30 1201 O 105.926 1.82122 -0.240262 0
M  V30 1202 C 105.988 0.744596 -3.51704 0
M  V30 1203 C 105.652 -0.325883 -4.55837 0
M  V30 1204 C 106.649 -1.16687 -5.06636 0
M  V30 1205 C 104.334 -0.478317 -5.00017 0
M  V30 1206 C 106.328 -2.14588 -6.00192 0
M  V30 1207 C 104.015 -1.46073 -5.93385 0
M  V30 1208 C 105.013 -2.29297 -6.4336 0
M  V30 1209 O 104.701 -3.25867 -7.34892 0
M  V30 1210 H 104.433 0.0551207 -0.673749 0
M  V30 1211 H 106.987 -0.486984 -1.99544 0
M  V30 1212 H 105.217 1.54366 -3.54553 0
M  V30 1213 H 106.906 1.26383 -3.85723 0
M  V30 1214 H 107.672 -1.06016 -4.73271 0
M  V30 1215 H 103.551 0.159613 -4.60724 0
M  V30 1216 H 107.095 -2.79585 -6.39123 0
M  V30 1217 H 102.992 -1.56802 -6.26166 0
M  V30 1218 H 103.76 -3.21278 -7.5281 0
M  V30 1219 N 106.423 1.57458 -0.0668435 0
M  V30 1220 C 107.669 1.93587 0.6043 0
M  V30 1221 C 108.002 0.946722 1.69561 0
M  V30 1222 O 107.277 -0.0248516 1.94484 0
M  V30 1223 C 107.56 3.40014 1.18585 0
M  V30 1224 C 107.413 4.49685 0.101529 0
M  V30 1225 C 108.732 3.87154 2.09284 0
M  V30 1226 H 105.851 0.703958 0.218202 0
M  V30 1227 H 108.493 1.89542 -0.131804 0
M  V30 1228 H 106.643 3.43592 1.81319 0
M  V30 1229 H 108.315 4.5823 -0.531279 0
M  V30 1230 H 106.558 4.30059 -0.568487 0
M  V30 1231 H 107.229 5.49266 0.54874 0
M  V30 1232 H 109.705 3.85551 1.56491 0
M  V30 1233 H 108.581 4.90231 2.46911 0
M  V30 1234 H 108.842 3.2481 2.99918 0
M  V30 1235 N 107.901 -0.206675 1.56239 0
M  V30 1236 C 109.178 -0.954051 1.70755 0
M  V30 1237 C 109.558 -2.01841 0.618353 0
M  V30 1238 O 108.906 -2.25444 -0.372434 0
M  V30 1239 C 109.116 -1.551 3.12642 0
M  V30 1240 C 110.464 -2.03757 3.72516 0
M  V30 1241 O 111.488 -1.64965 3.15698 0
M  V30 1242 O 110.347 -2.75103 4.72208 0
M  V30 1243 H 107.441 -0.446636 0.696021 0
M  V30 1244 H 109.987 -0.197283 1.68549 0
M  V30 1245 H 108.759 -0.783212 3.83382 0
M  V30 1246 H 108.382 -2.37291 3.19028 0
M  V30 1247 N 109.379 -1.50304 -0.473955 0
M  V30 1248 C 110.289 -1.7174 -1.5982 0
M  V30 1249 C 111.305 -0.600457 -1.63311 0
M  V30 1250 O 112.481 -0.878441 -1.81233 0
M  V30 1251 C 109.546 -1.80427 -2.96052 0
M  V30 1252 C 108.607 -3.04148 -3.02972 0
M  V30 1253 C 107.84 -3.12411 -4.32706 0
M  V30 1254 O 108.063 -2.27542 -5.23049 0
M  V30 1255 O 106.997 -4.05113 -4.45159 0
M  V30 1256 H 110.823 -2.67035 -1.44657 0
M  V30 1257 H 108.408 -1.34366 -0.653148 0
M  V30 1258 H 110.29 -1.88338 -3.7697 0
M  V30 1259 H 108.965 -0.883156 -3.11419 0
M  V30 1260 H 107.872 -3.0174 -2.21142 0
M  V30 1261 H 109.205 -3.95829 -2.92541 0
M  V30 1262 N 110.857 0.726932 -1.39834 0
M  V30 1263 C 112.087 1.51393 -1.40583 0
M  V30 1264 C 112.495 1.892 -0.000740625 0
M  V30 1265 O 111.838 1.55189 0.982951 0
M  V30 1266 C 111.9 2.82588 -2.22226 0
M  V30 1267 C 111.564 2.67169 -3.70769 0
M  V30 1268 C 112.561 2.3518 -4.63666 0
M  V30 1269 C 110.246 2.83788 -4.14451 0
M  V30 1270 C 112.24 2.20002 -5.98229 0
M  V30 1271 C 109.927 2.68229 -5.49087 0
M  V30 1272 C 110.925 2.36382 -6.4079 0
M  V30 1273 O 110.613 2.2093 -7.72946 0
M  V30 1274 H 110.345 0.474168 -0.48181 0
M  V30 1275 H 112.899 0.905247 -1.84376 0
M  V30 1276 H 111.129 3.45746 -1.73195 0
M  V30 1277 H 112.818 3.44247 -2.15055 0
M  V30 1278 H 113.584 2.21984 -4.31217 0
M  V30 1279 H 109.463 3.07566 -3.43401 0
M  V30 1280 H 113.007 1.95067 -6.69772 0
M  V30 1281 H 108.904 2.81006 -5.81125 0
M  V30 1282 H 109.672 2.35937 -7.83757 0
M  V30 1283 N 112.336 1.25143 0.95797 0
M  V30 1284 C 113.752 1.01892 1.22842 0
M  V30 1285 C 113.952 -0.266311 1.99732 0
M  V30 1286 O 113.008 -0.979913 2.3271 0
M  V30 1287 C 114.321 2.24004 2.00606 0
M  V30 1288 C 115.869 2.28731 2.13662 0
M  V30 1289 C 116.344 3.5049 2.94823 0
M  V30 1290 N 117.835 3.50866 3.02403 0
M  V30 1291 C 118.57 4.4174 3.65586 0
M  V30 1292 N 118.066 5.42882 4.30408 0
M  V30 1293 N 119.859 4.29429 3.62694 0
M  V30 1294 H 112.01 2.07718 0.443493 0
M  V30 1295 H 114.273 0.912031 0.258657 0
M  V30 1296 H 113.979 3.17395 1.51503 0
M  V30 1297 H 113.853 2.26907 3.01319 0
M  V30 1298 H 116.24 1.35865 2.61963 0
M  V30 1299 H 116.321 2.29848 1.12265 0
M  V30 1300 H 115.965 4.43676 2.47213 0
M  V30 1301 H 115.895 3.46617 3.96439 0
M  V30 1302 H 118.386 2.777 2.56302 0
M  V30 1303 H 118.699 6.0844 4.76467 0
M  V30 1304 H 117.044 5.46758 4.29047 0
M  V30 1305 H 120.235 3.49643 3.11236 0
M  V30 1306 H 120.408 5.00448 4.1165 0
M  V30 1307 N 113.814 -1.1601 1.06675 0
M  V30 1308 C 114.762 -2.22586 0.675157 0
M  V30 1309 C 115.756 -1.66525 -0.310766 0
M  V30 1310 O 116.962 -1.79145 -0.175215 0
M  V30 1311 H 113.337 -0.724855 0.200223 0
M  V30 1312 H 115.308 -2.52899 1.58381 0
M  V30 1313 C 114.057 -3.47604 0.0817162 0
M  V30 1314 H 113.38 -3.91058 0.831484 0
M  V30 1315 H 114.82 -4.23718 -0.154708 0
M  V30 1316 C 113.279 -3.15718 -1.17576 0
M  V30 1317 O 113.809 -3.31878 -2.26318 0
M  V30 1318 N 112.015 -2.69816 -1.07923 0
M  V30 1319 H 111.562 -2.56866 -0.194293 0
M  V30 1320 H 111.52 -2.48855 -1.92141 0
M  V30 1321 N 115.292 -0.849877 -1.32721 0
M  V30 1322 C 116.569 -0.372405 -1.92022 0
M  V30 1323 C 116.949 1.1435 -1.77447 0
M  V30 1324 O 116.297 1.96296 -1.16962 0
M  V30 1325 C 116.507 -0.831482 -3.3895 0
M  V30 1326 C 117.855 -0.845882 -4.16089 0
M  V30 1327 O 118.879 -0.775806 -3.47649 0
M  V30 1328 O 117.738 -0.943753 -5.38289 0
M  V30 1329 H 114.832 -0.107667 -0.819961 0
M  V30 1330 H 117.378 -0.93646 -1.41522 0
M  V30 1331 H 116.15 -1.87448 -3.4348 0
M  V30 1332 H 115.773 -0.24461 -3.96847 0
M  V30 1333 N 116.77 1.45427 -0.607355 0
M  V30 1334 C 118 2.06314 -0.108656 0
M  V30 1335 C 118.408 1.45269 1.21217 0
M  V30 1336 O 117.751 0.561115 1.74921 0
M  V30 1337 C 117.813 3.59345 0.105618 0
M  V30 1338 C 117.477 4.42723 -1.13337 0
M  V30 1339 C 118.474 4.77715 -2.05145 0
M  V30 1340 C 116.159 4.83478 -1.36213 0
M  V30 1341 C 118.153 5.52317 -3.18158 0
M  V30 1342 C 115.84 5.57835 -2.49527 0
M  V30 1343 C 116.838 5.92171 -3.40327 0
M  V30 1344 O 116.526 6.65019 -4.51669 0
M  V30 1345 H 116.258 0.672782 -0.0658842 0
M  V30 1346 H 118.812 1.87664 -0.834945 0
M  V30 1347 H 117.042 3.76394 0.886796 0
M  V30 1348 H 118.731 4.02076 0.555886 0
M  V30 1349 H 119.497 4.46787 -1.88697 0
M  V30 1350 H 115.376 4.56188 -0.664362 0
M  V30 1351 H 118.92 5.79036 -3.89054 0
M  V30 1352 H 114.817 5.88177 -2.65928 0
M  V30 1353 H 115.585 6.83469 -4.50348 0
M  V30 1354 N 118.248 0.346503 1.53744 0
M  V30 1355 C 119.488 -0.249413 2.02873 0
M  V30 1356 C 119.852 -1.47532 1.22876 0
M  V30 1357 O 121.053 -2.1456 1.61918 0
M  V30 1358 C 119.324 -0.552909 3.53097 0
M  V30 1359 S 120.883 -1.12521 4.24128 0
M  V30 1360 H 117.701 -0.074042 0.707134 0
M  V30 1361 H 120.303 0.48495 1.8939 0
M  V30 1362 H 119.007 0.347083 4.0893 0
M  V30 1363 H 118.538 -1.31686 3.70705 0
M  V30 1364 H 120.553 -2.41075 4.33702 0
M  V30 1365 N 119.726 -1.57421 0.075193 0
M  V30 1366 C 120.636 -2.1642 -0.905511 0
M  V30 1367 C 121.652 -1.12828 -1.32461 0
M  V30 1368 O 122.828 -1.45109 -1.39661 0
M  V30 1369 C 119.893 -2.71693 -2.15369 0
M  V30 1370 C 118.954 -3.90171 -1.79068 0
M  V30 1371 C 118.187 -4.42798 -2.97936 0
M  V30 1372 O 118.41 -3.94416 -4.12058 0
M  V30 1373 O 117.344 -5.34085 -2.77555 0
M  V30 1374 H 121.17 -3.00588 -0.433626 0
M  V30 1375 H 118.755 -1.48664 -0.148067 0
M  V30 1376 H 120.637 -3.07104 -2.88557 0
M  V30 1377 H 119.312 -1.90582 -2.61649 0
M  V30 1378 H 118.219 -3.59606 -1.03122 0
M  V30 1379 H 119.552 -4.72584 -1.37569 0
M  V30 1380 N 121.204 0.198386 -1.56346 0
M  V30 1381 C 122.452 0.91747 -1.80075 0
M  V30 1382 C 122.773 1.83929 -0.647692 0
M  V30 1383 O 122.043 1.93029 0.334166 0
M  V30 1384 H 120.623 0.341774 -0.664228 0
M  V30 1385 H 123.285 0.204684 -1.93822 0
M  V30 1386 H 122.381 1.51055 -2.7311 0
M  V30 1387 N 122.682 1.50554 0.465978 0
M  V30 1388 C 123.912 1.65323 1.23903 0
M  V30 1389 C 124.32 0.338051 1.86155 0
M  V30 1390 O 123.663 -0.690518 1.70228 0
M  V30 1391 C 123.725 2.69048 2.3844 0
M  V30 1392 C 123.389 4.12462 1.96784 0
M  V30 1393 C 124.386 4.98168 1.48745 0
M  V30 1394 C 122.071 4.58407 2.05349 0
M  V30 1395 C 124.065 6.27868 1.0982 0
M  V30 1396 C 121.752 5.88112 1.66035 0
M  V30 1397 C 122.75 6.72668 1.18349 0
M  V30 1398 O 122.438 7.99951 0.795825 0
M  V30 1399 H 122.17 0.558629 0.38067 0
M  V30 1400 H 124.724 1.97561 0.562022 0
M  V30 1401 H 122.954 2.32062 3.09328 0
M  V30 1402 H 124.643 2.72985 3.0039 0
M  V30 1403 H 125.409 4.63885 1.41546 0
M  V30 1404 H 121.288 3.92735 2.41414 0
M  V30 1405 H 124.832 6.93819 0.725293 0
M  V30 1406 H 120.729 6.21914 1.72895 0
M  V30 1407 H 121.497 8.13265 0.924222 0
M  V30 1408 N 124.16 -0.719506 1.40217 0
M  V30 1409 C 125.406 -1.48152 1.38488 0
M  V30 1410 C 125.739 -1.94195 -0.0141867 0
M  V30 1411 O 125.014 -1.67884 -0.982096 0
M  V30 1412 C 125.297 -2.71035 2.37091 0
M  V30 1413 C 125.15 -2.30912 3.86005 0
M  V30 1414 C 126.469 -3.73182 2.33288 0
M  V30 1415 H 123.588 -0.537395 0.504357 0
M  V30 1416 H 126.23 -0.821472 1.71324 0
M  V30 1417 H 124.38 -3.27352 2.0922 0
M  V30 1418 H 126.052 -1.80107 4.24687 0
M  V30 1419 H 124.295 -1.62958 4.02029 0
M  V30 1420 H 124.966 -3.18978 4.50508 0
M  V30 1421 H 127.442 -3.26485 2.57966 0
M  V30 1422 H 126.318 -4.56806 3.04334 0
M  V30 1423 H 126.579 -4.21202 1.34317 0
M  V30 1424 N 125.638 -1.25649 -0.95132 0
M  V30 1425 C 127.049 -1.09654 -1.51106 0
M  V30 1426 C 127.4 0.326615 -1.93462 0
M  V30 1427 O 126.525 1.21697 -1.78938 0
M  V30 1428 C 127.12 -1.98437 -2.74605 0
M  V30 1429 C 125.679 -1.86618 -3.2688 0
M  V30 1430 C 124.826 -1.9239 -1.99703 0
M  V30 1431 H 127.777 -1.38887 -0.767865 0
M  V30 1432 H 127.798 -1.5263 -3.48546 0
M  V30 1433 H 127.31 -3.02009 -2.43746 0
M  V30 1434 H 125.411 -0.859421 -3.62553 0
M  V30 1435 H 125.524 -2.71607 -3.94673 0
M  V30 1436 H 123.888 -1.36317 -2.15151 0
M  V30 1437 H 124.671 -2.97573 -1.71188 0
M  V30 1438 N 127.117 1.15442 -1.07289 0
M  V30 1439 C 128.533 1.38201 -0.798288 0
M  V30 1440 C 128.733 1.92429 0.597769 0
M  V30 1441 O 127.789 2.12962 1.3566 0
M  V30 1442 C 129.102 2.35357 -1.87156 0
M  V30 1443 C 130.65 2.49021 -1.89624 0
M  V30 1444 C 131.125 3.49468 -2.96034 0
M  V30 1445 N 132.616 3.57003 -2.95132 0
M  V30 1446 C 133.351 4.34543 -3.74112 0
M  V30 1447 N 132.847 5.15421 -4.6294 0
M  V30 1448 N 134.64 4.29625 -3.62462 0
M  V30 1449 H 126.791 0.78584 -1.97328 0
M  V30 1450 H 129.054 0.408065 -0.855679 0
M  V30 1451 H 128.76 2.02626 -2.87464 0
M  V30 1452 H 128.634 3.35129 -1.73114 0
M  V30 1453 H 131.021 2.81051 -0.899687 0
M  V30 1454 H 131.102 1.4925 -2.07745 0
M  V30 1455 H 130.746 3.18173 -3.95889 0
M  V30 1456 H 130.676 4.48992 -2.75161 0
M  V30 1457 H 133.167 2.99276 -2.30743 0
M  V30 1458 H 133.48 5.7183 -5.19837 0
M  V30 1459 H 131.825 5.14729 -4.66989 0
M  V30 1460 H 135.016 3.65505 -2.92444 0
M  V30 1461 H 135.189 4.89807 -4.24256 0
M  V30 1462 N 128.595 0.856903 1.32268 0
M  V30 1463 C 129.545 0.274899 2.26337 0
M  V30 1464 C 130.529 -0.580543 1.50062 0
M  V30 1465 O 131.721 -0.429559 1.71708 0
M  V30 1466 C 128.85 -0.533841 3.39124 0
M  V30 1467 C 127.936 0.334114 4.22782 0
M  V30 1468 N 128.327 1.42143 4.85416 0
M  V30 1469 C 126.625 0.124256 4.45827 0
M  V30 1470 C 127.326 1.95559 5.47843 0
M  V30 1471 N 126.302 1.25444 5.28928 0
M  V30 1472 H 130.104 1.10612 2.72291 0
M  V30 1473 H 127.618 0.703258 1.46383 0
M  V30 1474 H 129.615 -0.96722 4.05525 0
M  V30 1475 H 128.275 -1.36283 2.94715 0
M  V30 1476 H 129.286 1.80436 4.85451 0
M  V30 1477 H 125.963 -0.669837 4.12092 0
M  V30 1478 H 127.353 2.86714 6.07655 0
M  V30 1479 N 130.073 -1.45103 0.615059 0
M  V30 1480 C 131.303 -2.06254 0.119596 0
M  V30 1481 C 131.711 -1.4591 -1.20445 0
M  V30 1482 O 131.054 -0.570384 -1.7462 0
M  V30 1483 C 131.116 -3.59396 -0.0865591 0
M  V30 1484 C 130.78 -4.42116 1.15683 0
M  V30 1485 C 131.777 -4.7662 2.07676 0
M  V30 1486 C 129.462 -4.82749 1.38775 0
M  V30 1487 C 131.456 -5.50622 3.21082 0
M  V30 1488 C 129.143 -5.56504 2.52481 0
M  V30 1489 C 130.141 -5.90358 3.43463 0
M  V30 1490 O 129.829 -6.62615 4.55189 0
M  V30 1491 H 129.561 -0.672423 0.0694512 0
M  V30 1492 H 132.115 -1.87219 0.844885 0
M  V30 1493 H 130.345 -3.76859 -0.866823 0
M  V30 1494 H 132.034 -4.02365 -0.534555 0
M  V30 1495 H 132.8 -4.4578 1.91063 0
M  V30 1496 H 128.679 -4.55829 0.688545 0
M  V30 1497 H 132.223 -5.76965 3.92119 0
M  V30 1498 H 128.12 -5.86759 2.69043 0
M  V30 1499 H 128.888 -6.81071 4.53966 0
M  V30 1500 N 131.551 -0.354651 -1.53558 0
M  V30 1501 C 132.501 0.513179 -2.2215 0
M  V30 1502 C 133.485 1.05734 -1.21281 0
M  V30 1503 O 134.677 0.989202 -1.46778 0
M  V30 1504 C 131.806 1.65798 -3.00609 0
M  V30 1505 C 130.892 1.12722 -4.08845 0
M  V30 1506 N 131.283 0.318563 -5.04796 0
M  V30 1507 C 129.581 1.40307 -4.23356 0
M  V30 1508 C 130.282 0.0292224 -5.81693 0
M  V30 1509 N 129.258 0.623891 -5.40008 0
M  V30 1510 H 133.06 -0.111586 -2.93688 0
M  V30 1511 H 130.574 -0.162091 -1.61589 0
M  V30 1512 H 132.571 2.29176 -3.48258 0
M  V30 1513 H 131.231 2.28591 -2.306 0
M  V30 1514 H 132.242 -0.0413091 -5.17884 0
M  V30 1515 H 128.919 2.03458 -3.6457 0
M  V30 1516 H 130.309 -0.623808 -6.68998 0
M  V30 1517 N 133.029 1.57378 -0.0835403 0
M  V30 1518 C 134.445 1.57246 0.273109 0
M  V30 1519 C 134.645 1.09385 1.69225 0
M  V30 1520 O 133.701 0.765051 2.40631 0
M  V30 1521 C 135.014 3.00614 0.0720628 0
M  V30 1522 C 136.562 3.12684 0.1407 0
M  V30 1523 C 137.037 4.57989 -0.0322094 0
M  V30 1524 N 138.528 4.63194 0.0230085 0
M  V30 1525 C 139.263 5.73335 -0.0861941 0
M  V30 1526 N 138.759 6.9235 -0.24958 0
M  V30 1527 N 140.552 5.62093 -0.0282886 0
M  V30 1528 H 132.703 1.86801 -1.0109 0
M  V30 1529 H 134.966 0.861687 -0.395222 0
M  V30 1530 H 134.672 3.39786 -0.907662 0
M  V30 1531 H 134.546 3.68193 0.81936 0
M  V30 1532 H 136.933 2.73391 1.11092 0
M  V30 1533 H 137.014 2.47719 -0.637896 0
M  V30 1534 H 136.658 4.97973 -0.999247 0
M  V30 1535 H 136.588 5.21 0.765937 0
M  V30 1536 H 139.079 3.77613 0.14722 0
M  V30 1537 H 139.392 7.72117 -0.324733 0
M  V30 1538 H 137.737 6.94415 -0.285097 0
M  V30 1539 H 140.928 4.67997 0.0981408 0
M  V30 1540 H 141.101 6.47895 -0.116845 0
M  V30 1541 N 134.507 -0.190092 1.56449 0
M  V30 1542 C 135.784 -0.935886 1.71757 0
M  V30 1543 C 136.164 -2.01173 0.639726 0
M  V30 1544 O 135.512 -2.25827 -0.348502 0
M  V30 1545 C 135.722 -1.51775 3.1427 0
M  V30 1546 C 137.07 -1.99794 3.74656 0
M  V30 1547 O 138.094 -1.61607 3.1743 0
M  V30 1548 O 136.953 -2.70079 4.751 0
M  V30 1549 H 134.047 -0.439229 0.700719 0
M  V30 1550 H 136.593 -0.179395 1.68749 0
M  V30 1551 H 135.365 -0.742505 3.84191 0
M  V30 1552 H 134.988 -2.33894 3.21527 0
M  V30 1553 N 135.985 -1.50799 -0.457987 0
M  V30 1554 C 137.234 -1.6168 -1.20593 0
M  V30 1555 C 137.547 -0.32888 -1.92815 0
M  V30 1556 O 138.753 -0.316773 -2.69646 0
M  V30 1557 C 137.209 -2.8545 -2.19195 0
M  V30 1558 C 136.817 -4.21168 -1.52715 0
M  V30 1559 C 138.561 -3.05681 -2.94549 0
M  V30 1560 C 136.468 -5.3611 -2.4968 0
M  V30 1561 H 135.398 -0.602134 -0.453818 0
M  V30 1562 H 138.049 -1.77245 -0.475031 0
M  V30 1563 H 136.431 -2.63472 -2.95632 0
M  V30 1564 H 137.605 -4.53449 -0.819775 0
M  V30 1565 H 135.92 -4.06648 -0.895922 0
M  V30 1566 H 138.517 -3.88727 -3.67145 0
M  V30 1567 H 138.86 -2.17929 -3.54701 0
M  V30 1568 H 139.393 -3.27901 -2.25223 0
M  V30 1569 H 136.132 -6.26057 -1.94249 0
M  V30 1570 H 135.652 -5.0823 -3.18532 0
M  V30 1571 H 137.331 -5.6722 -3.11241 0
M  V30 1572 N 137.463 0.71206 -1.40597 0
M  V30 1573 C 138.373 1.8562 -1.43466 0
M  V30 1574 C 139.389 1.70902 -0.326902 0
M  V30 1575 O 140.565 1.93105 -0.572043 0
M  V30 1576 C 137.63 3.21451 -1.29884 0
M  V30 1577 C 136.691 3.48398 -2.50833 0
M  V30 1578 C 135.924 4.77749 -2.3789 0
M  V30 1579 O 136.147 5.53089 -1.39459 0
M  V30 1580 O 135.081 5.05111 -3.27333 0
M  V30 1581 H 138.907 1.86155 -2.39958 0
M  V30 1582 H 136.492 0.86295 -1.21957 0
M  V30 1583 H 138.374 4.02579 -1.24531 0
M  V30 1584 H 137.049 3.21636 -0.364997 0
M  V30 1585 H 135.956 2.67265 -2.61763 0
M  V30 1586 H 137.289 3.53014 -3.4299 0
M  V30 1587 N 138.941 1.26152 0.944643 0
M  V30 1588 C 140.166 1.14363 1.7302 0
M  V30 1589 C 140.591 -0.29772 1.85729 0
M  V30 1590 O 139.949 -1.2157 1.34501 0
M  V30 1591 C 139.997 1.81378 3.11664 0
M  V30 1592 O 139.101 1.10022 3.97453 0
M  V30 1593 H 138.442 0.398694 0.53098 0
M  V30 1594 H 140.972 1.66906 1.18337 0
M  V30 1595 H 140.982 1.88064 3.62072 0
M  V30 1596 H 139.657 2.86237 3.0173 0
M  V30 1597 H 138.234 1.11287 3.55907 0
M  V30 1598 N 140.419 -1.14872 1.07899 0
M  V30 1599 C 141.667 -1.85422 0.803941 0
M  V30 1600 C 141.988 -1.83051 -0.67211 0
M  V30 1601 O 141.258 -1.27532 -1.48703 0
M  V30 1602 H 139.838 -0.686537 0.294408 0
M  V30 1603 H 142.5 -1.39226 1.3639 0
M  V30 1604 H 141.596 -2.90399 1.14346 0
M  V30 1605 N 141.898 -0.863906 -1.31812 0
M  V30 1606 C 143.128 -0.485406 -2.00817 0
M  V30 1607 C 143.536 0.925007 -1.65046 0
M  V30 1608 O 142.879 1.61653 -0.872574 0
M  V30 1609 C 142.941 -0.555589 -3.55181 0
M  V30 1610 C 142.605 -1.92654 -4.14407 0
M  V30 1611 C 143.602 -2.89324 -4.31958 0
M  V30 1612 C 141.287 -2.2262 -4.50273 0
M  V30 1613 C 143.281 -4.14108 -4.84555 0
M  V30 1614 C 140.968 -3.47654 -5.02573 0
M  V30 1615 C 141.966 -4.43214 -5.19664 0
M  V30 1616 O 141.654 -5.66033 -5.70843 0
M  V30 1617 H 141.386 -0.188224 -0.649267 0
M  V30 1618 H 143.94 -1.16514 -1.69156 0
M  V30 1619 H 142.17 0.181037 -3.86276 0
M  V30 1620 H 143.859 -0.19138 -4.05449 0
M  V30 1621 H 144.625 -2.6748 -4.04573 0
M  V30 1622 H 140.504 -1.4902 -4.3625 0
M  V30 1623 H 144.048 -4.88703 -4.9781 0
M  V30 1624 H 139.945 -3.69345 -5.29391 0
M  V30 1625 H 140.713 -5.6812 -5.89222 0
M  V30 1626 N 143.376 1.44774 -0.622745 0
M  V30 1627 C 144.792 1.56986 -0.287652 0
M  V30 1628 C 144.992 1.61167 1.20944 0
M  V30 1629 O 144.048 1.55015 1.99315 0
M  V30 1630 C 145.361 2.84551 -0.972188 0
M  V30 1631 C 146.909 2.9825 -0.949536 0
M  V30 1632 C 147.384 4.28605 -1.61437 0
M  V30 1633 N 148.875 4.35399 -1.58057 0
M  V30 1634 C 149.61 5.34964 -2.064 0
M  V30 1635 N 149.106 6.40981 -2.62897 0
M  V30 1636 N 150.899 5.26419 -1.97078 0
M  V30 1637 H 143.05 1.40304 -1.59463 0
M  V30 1638 H 145.313 0.671794 -0.668878 0
M  V30 1639 H 145.019 2.87417 -2.02693 0
M  V30 1640 H 144.893 3.73807 -0.504771 0
M  V30 1641 H 147.28 2.94941 0.0967067 0
M  V30 1642 H 147.361 2.10364 -1.45536 0
M  V30 1643 H 147.005 4.32672 -2.66002 0
M  V30 1644 H 146.935 5.15334 -1.08344 0
M  V30 1645 H 149.426 3.59397 -1.16801 0
M  V30 1646 H 149.739 7.13225 -2.97539 0
M  V30 1647 H 148.084 6.4169 -2.66943 0
M  V30 1648 H 151.275 4.42504 -1.52669 0
M  V30 1649 H 151.448 6.03861 -2.35066 0
M  V30 1650 N 144.854 0.36279 1.53368 0
M  V30 1651 C 146.103 -0.22888 2.00397 0
M  V30 1652 C 146.416 -1.50096 1.25421 0
M  V30 1653 O 147.622 -2.17106 1.63025 0
M  V30 1654 C 146.078 -0.458417 3.56969 0
M  V30 1655 C 145.686 0.798877 4.4082 0
M  V30 1656 C 147.43 -1.00789 4.12361 0
M  V30 1657 C 145.337 0.539078 5.88938 0
M  V30 1658 H 144.267 -0.089305 0.748693 0
M  V30 1659 H 146.918 0.481099 1.77081 0
M  V30 1660 H 145.3 -1.22959 3.76427 0
M  V30 1661 H 146.474 1.57262 4.33134 0
M  V30 1662 H 144.789 1.27137 3.96516 0
M  V30 1663 H 147.386 -1.21754 5.20653 0
M  V30 1664 H 147.729 -1.9692 3.66781 0
M  V30 1665 H 148.262 -0.296961 3.9669 0
M  V30 1666 H 145.001 1.47064 6.3879 0
M  V30 1667 H 144.521 -0.196222 5.99479 0
M  V30 1668 H 146.2 0.163542 6.46793 0
M  V30 1669 N 146.332 -1.57332 0.0918853 0
M  V30 1670 C 147.282 -2.10385 -0.87876 0
M  V30 1671 C 148.266 -1.01814 -1.24591 0
M  V30 1672 O 149.458 -1.28093 -1.22152 0
M  V30 1673 C 146.587 -2.68517 -2.13901 0
M  V30 1674 C 145.673 -3.84126 -1.79744 0
M  V30 1675 N 146.064 -4.92288 -1.1613 0
M  V30 1676 C 144.362 -3.93801 -2.09373 0
M  V30 1677 C 145.063 -5.7295 -1.00513 0
M  V30 1678 N 144.039 -5.21876 -1.5214 0
M  V30 1679 H 147.841 -2.91395 -0.38293 0
M  V30 1680 H 145.355 -1.62017 -0.111423 0
M  V30 1681 H 147.352 -3.04852 -2.84378 0
M  V30 1682 H 146.012 -1.88961 -2.64053 0
M  V30 1683 H 147.023 -5.1123 -0.828504 0
M  V30 1684 H 143.7 -3.25249 -2.61762 0
M  V30 1685 H 145.09 -6.69978 -0.507902 0
M  V30 1686 N 147.81 0.181792 -1.56548 0
M  V30 1687 C 149.05 0.906711 -1.83189 0
M  V30 1688 C 149.414 1.79882 -0.671312 0
M  V30 1689 O 150.615 2.56054 -0.81792 0
M  V30 1690 C 148.886 1.69023 -3.14906 0
M  V30 1691 S 150.445 2.46535 -3.62996 0
M  V30 1692 H 147.263 0.303877 -0.642791 0
M  V30 1693 H 149.865 0.169107 -1.94767 0
M  V30 1694 H 148.569 1.02571 -3.97376 0
M  V30 1695 H 148.1 2.46941 -3.06241 0
M  V30 1696 H 150.115 3.71014 -3.29489 0
M  V30 1697 N 149.288 1.51039 0.449983 0
M  V30 1698 C 150.513 1.6715 1.22783 0
M  V30 1699 C 150.938 0.363081 1.84563 0
M  V30 1700 O 150.296 -0.675433 1.68249 0
M  V30 1701 C 150.344 2.77985 2.29689 0
M  V30 1702 O 149.448 2.40707 3.34864 0
M  V30 1703 H 148.789 0.557746 0.360299 0
M  V30 1704 H 151.319 1.97535 0.533005 0
M  V30 1705 H 151.329 3.01693 2.74673 0
M  V30 1706 H 150.004 3.72935 1.84098 0
M  V30 1707 H 148.581 2.27523 2.95445 0
M  V30 1708 N 150.766 -0.704594 1.40972 0
M  V30 1709 C 151.713 -1.81862 1.42109 0
M  V30 1710 C 152.683 -1.63781 0.276593 0
M  V30 1711 O 153.868 -1.84759 0.4763 0
M  V30 1712 C 151.008 -3.19669 1.30022 0
M  V30 1713 C 150.121 -3.49246 2.54267 0
M  V30 1714 C 149.256 -4.76618 2.3454 0
M  V30 1715 C 148.295 -4.99133 3.54306 0
M  V30 1716 N 147.432 -6.17726 3.33706 0
M  V30 1717 H 152.272 -1.80226 2.37324 0
M  V30 1718 H 149.809 -0.880238 1.17857 0
M  V30 1719 H 151.767 -3.99263 1.21018 0
M  V30 1720 H 150.397 -3.20506 0.384192 0
M  V30 1721 H 149.449 -2.64125 2.73756 0
M  V30 1722 H 150.761 -3.61788 3.43381 0
M  V30 1723 H 149.915 -5.64249 2.22952 0
M  V30 1724 H 148.654 -4.66305 1.42867 0
M  V30 1725 H 147.659 -4.09953 3.66359 0
M  V30 1726 H 148.884 -5.11311 4.4692 0
M  V30 1727 H 146.83 -6.08642 2.44725 0
M  V30 1728 H 146.747 -6.30995 4.16391 0
M  V30 1729 H 148.015 -7.08115 3.25873 0
M  V30 1730 N 152.244 -1.26651 -0.937939 0
M  V30 1731 C 153.469 -1.15279 -1.72411 0
M  V30 1732 C 153.894 0.287866 -1.85884 0
M  V30 1733 O 153.252 1.20855 -1.35143 0
M  V30 1734 C 153.3 -1.83028 -3.10698 0
M  V30 1735 O 152.404 -1.12128 -3.96864 0
M  V30 1736 H 151.745 -0.401504 -0.528858 0
M  V30 1737 H 154.275 -1.67531 -1.1745 0
M  V30 1738 H 154.285 -1.89981 -3.6107 0
M  V30 1739 H 152.96 -2.87833 -3.00208 0
M  V30 1740 H 151.537 -1.13173 -3.55312 0
M  V30 1741 N 153.722 1.14298 -1.08507 0
M  V30 1742 C 154.947 1.8976 -0.837001 0
M  V30 1743 C 155.372 1.78097 0.605228 0
M  V30 1744 O 154.73 1.12188 1.4242 0
M  V30 1745 C 154.778 3.37685 -1.26495 0
M  V30 1746 O 153.882 4.10281 -0.417514 0
M  V30 1747 H 153.223 0.590365 -0.303917 0
M  V30 1748 H 155.753 1.44672 -1.44676 0
M  V30 1749 H 155.763 3.88501 -1.24625 0
M  V30 1750 H 154.438 3.45492 -2.31534 0
M  V30 1751 H 153.015 3.69536 -0.499722 0
M  V30 1752 N 155.201 0.870884 1.31352 0
M  V30 1753 C 156.447 0.482987 1.96965 0
M  V30 1754 C 156.78 -0.962462 1.68672 0
M  V30 1755 O 156.055 -1.6779 0.98371 0
M  V30 1756 C 156.338 0.741752 3.52378 0
M  V30 1757 C 156.191 2.2368 3.9024 0
M  V30 1758 C 157.51 0.208838 4.39604 0
M  V30 1759 H 154.629 0.176955 0.715441 0
M  V30 1760 H 157.271 1.09229 1.55464 0
M  V30 1761 H 155.421 0.223149 3.87859 0
M  V30 1762 H 157.093 2.82273 3.64856 0
M  V30 1763 H 155.336 2.70901 3.38814 0
M  V30 1764 H 156.007 2.3685 4.98604 0
M  V30 1765 H 158.483 0.652529 4.10952 0
M  V30 1766 H 157.359 0.419336 5.47296 0
M  V30 1767 H 157.62 -0.889275 4.33064 0
M  V30 1768 N 156.679 -1.44442 0.630414 0
M  V30 1769 C 158.095 -1.56832 0.295973 0
M  V30 1770 C 158.295 -1.61806 -1.20088 0
M  V30 1771 O 157.351 -1.5607 -1.9849 0
M  V30 1772 C 158.664 -2.84031 0.987264 0
M  V30 1773 C 160.212 -2.97742 0.96534 0
M  V30 1774 C 160.687 -4.27743 1.63708 0
M  V30 1775 N 162.178 -4.34555 1.60364 0
M  V30 1776 C 162.913 -5.33862 2.09234 0
M  V30 1777 N 162.409 -6.39578 2.66292 0
M  V30 1778 N 164.202 -5.25366 1.99867 0
M  V30 1779 H 156.353 -1.39457 1.60205 0
M  V30 1780 H 158.616 -0.668237 0.672431 0
M  V30 1781 H 158.322 -2.86338 2.04215 0
M  V30 1782 H 158.196 -3.73534 0.524588 0
M  V30 1783 H 160.583 -2.94989 -0.0810639 0
M  V30 1784 H 160.664 -2.09589 1.4665 0
M  V30 1785 H 160.308 -4.31255 2.68293 0
M  V30 1786 H 160.238 -5.14752 1.11076 0
M  V30 1787 H 162.729 -3.58772 1.18705 0
M  V30 1788 H 163.042 -7.11637 3.01317 0
M  V30 1789 H 161.387 -6.40265 2.70343 0
M  V30 1790 H 164.578 -4.41688 1.55013 0
M  V30 1791 H 164.751 -6.02606 2.38265 0
M  V30 1792 N 158.157 -0.370918 -1.53173 0
M  V30 1793 C 159.382 0.220293 -2.06227 0
M  V30 1794 C 159.807 1.41243 -1.24225 0
M  V30 1795 O 159.165 1.79387 -0.262645 0
M  V30 1796 C 159.213 0.586663 -3.55796 0
M  V30 1797 O 158.317 1.68317 -3.76488 0
M  V30 1798 H 157.658 0.0308099 -0.663285 0
M  V30 1799 H 160.188 -0.533068 -1.97534 0
M  V30 1800 H 160.198 0.85617 -3.98916 0
M  V30 1801 H 158.873 -0.285013 -4.14922 0
M  V30 1802 H 157.45 1.40881 -3.45264 0
M  V30 1803 N 159.635 1.57281 -0.100228 0
M  V30 1804 C 161.051 1.57527 0.256416 0
M  V30 1805 C 161.251 1.11173 1.68056 0
M  V30 1806 O 160.307 0.79053 2.39806 0
M  V30 1807 C 161.62 3.00673 0.0401747 0
M  V30 1808 C 163.168 3.12815 0.107528 0
M  V30 1809 C 163.643 4.57929 -0.0807834 0
M  V30 1810 N 165.134 4.63193 -0.0261207 0
M  V30 1811 C 165.869 5.73212 -0.146999 0
M  V30 1812 N 165.365 6.92047 -0.322999 0
M  V30 1813 N 167.158 5.62031 -0.0879044 0
M  V30 1814 H 159.309 1.85718 -1.03065 0
M  V30 1815 H 161.572 0.857446 -0.404339 0
M  V30 1816 H 161.278 3.38804 -0.943649 0
M  V30 1817 H 161.152 3.69042 0.780262 0
M  V30 1818 H 163.539 2.74554 1.08186 0
M  V30 1819 H 163.62 2.47028 -0.664134 0
M  V30 1820 H 163.264 4.96886 -1.05201 0
M  V30 1821 H 163.194 5.21783 0.710635 0
M  V30 1822 H 165.685 3.77748 0.107161 0
M  V30 1823 H 165.998 7.7173 -0.406608 0
M  V30 1824 H 164.343 6.94074 -0.358733 0
M  V30 1825 H 167.534 4.68075 0.048498 0
M  V30 1826 H 167.707 6.47734 -0.185557 0
M  V30 1827 N 161.113 -0.173488 1.56642 0
M  V30 1828 C 162.529 -0.525174 1.50712 0
M  V30 1829 C 162.729 -1.8476 0.804107 0
M  V30 1830 O 161.785 -2.49869 0.363574 0
M  V30 1831 C 163.098 -0.559937 2.95441 0
M  V30 1832 C 164.646 -0.647288 3.06234 0
M  V30 1833 C 165.121 -0.712963 4.52417 0
M  V30 1834 N 166.612 -0.775911 4.56655 0
M  V30 1835 C 167.347 -0.847264 5.67106 0
M  V30 1836 N 166.843 -0.879585 6.87194 0
M  V30 1837 N 168.636 -0.886117 5.55071 0
M  V30 1838 H 160.787 0.693681 2.00753 0
M  V30 1839 H 163.05 0.249841 0.914485 0
M  V30 1840 H 162.756 0.343049 3.50023 0
M  V30 1841 H 162.63 -1.40718 3.49969 0
M  V30 1842 H 165.017 -1.5407 2.51687 0
M  V30 1843 H 165.098 0.226586 2.54794 0
M  V30 1844 H 164.742 0.176183 5.07594 0
M  V30 1845 H 164.672 -1.60295 5.0161 0
M  V30 1846 H 167.163 -0.759304 3.70193 0
M  V30 1847 H 167.476 -0.935144 7.67121 0
M  V30 1848 H 165.821 -0.847898 6.89808 0
M  V30 1849 H 169.012 -0.857853 4.60172 0
M  V30 1850 H 169.185 -0.938263 6.41171 0
M  V30 1851 N 162.591 -1.51276 -0.441967 0
M  V30 1852 C 163.816 -1.67799 -1.21895 0
M  V30 1853 C 164.241 -0.372864 -1.84367 0
M  V30 1854 O 163.599 0.666501 -1.68604 0
M  V30 1855 C 163.647 -2.79199 -2.28211 0
M  V30 1856 O 162.751 -2.42479 -3.33583 0
M  V30 1857 H 162.092 -0.559649 -0.357336 0
M  V30 1858 H 164.622 -1.97815 -0.522522 0
M  V30 1859 H 164.632 -3.03146 -2.73069 0
M  V30 1860 H 163.307 -3.73906 -1.82118 0
M  V30 1861 H 161.884 -2.29087 -2.94234 0
M  V30 1862 N 164.069 0.697108 -1.41344 0
M  V30 1863 C 165.294 1.49096 -1.44171 0
M  V30 1864 C 165.719 1.88038 -0.0481568 0
M  V30 1865 O 165.077 1.54525 0.948243 0
M  V30 1866 C 165.125 2.73088 -2.3549 0
M  V30 1867 O 164.229 3.70514 -1.81088 0
M  V30 1868 H 163.57 0.448801 -0.489361 0
M  V30 1869 H 166.1 0.856992 -1.85787 0
M  V30 1870 H 166.11 3.21413 -2.51312 0
M  V30 1871 H 164.785 2.44081 -3.36745 0
M  V30 1872 H 163.362 3.29441 -1.74708 0
M  V30 1873 N 165.547 1.27147 0.931209 0
M  V30 1874 C 166.958 1.12044 1.49342 0
M  V30 1875 C 167.309 -0.295795 1.93957 0
M  V30 1876 O 166.434 -1.18835 1.80852 0
M  V30 1877 C 167.029 2.02781 2.71414 0
M  V30 1878 C 165.588 1.91794 3.2387 0
M  V30 1879 C 164.735 1.95543 1.96617 0
M  V30 1880 H 167.686 1.40091 0.745672 0
M  V30 1881 H 167.707 1.58156 3.46074 0
M  V30 1882 H 167.219 3.05848 2.38911 0
M  V30 1883 H 165.32 0.916992 3.6114 0
M  V30 1884 H 165.433 2.77852 3.90302 0
M  V30 1885 H 163.797 1.39722 2.12955 0
M  V30 1886 H 164.58 3.00259 1.66432 0
M  V30 1887 N 167.025 -1.13721 1.09112 0
M  V30 1888 C 167.972 -2.19031 0.727591 0
M  V30 1889 C 168.942 -1.63555 -0.289656 0
M  V30 1890 O 170.127 -1.90023 -0.172026 0
M  V30 1891 C 167.267 -3.4477 0.15082 0
M  V30 1892 C 166.38 -4.14365 1.22172 0
M  V30 1893 C 165.515 -5.27709 0.608042 0
M  V30 1894 C 164.554 -5.89147 1.66047 0
M  V30 1895 N 163.691 -6.93929 1.06806 0
M  V30 1896 H 168.531 -2.49475 1.62991 0
M  V30 1897 H 166.068 -1.22499 0.81439 0
M  V30 1898 H 168.026 -4.16714 -0.201358 0
M  V30 1899 H 166.656 -3.14787 -0.714783 0
M  V30 1900 H 165.708 -3.40737 1.69122 0
M  V30 1901 H 167.02 -4.56114 2.01895 0
M  V30 1902 H 166.174 -6.06355 0.204523 0
M  V30 1903 H 164.913 -4.872 -0.220769 0
M  V30 1904 H 163.918 -5.09198 2.07357 0
M  V30 1905 H 165.143 -6.31729 2.49189 0
M  V30 1906 H 163.089 -6.55483 0.260476 0
M  V30 1907 H 163.006 -7.34202 1.8023 0
M  V30 1908 H 164.274 -7.76434 0.690644 0
M  V30 1909 N 168.503 -0.877838 -1.30888 0
M  V30 1910 C 169.919 -0.570844 -1.49042 0
M  V30 1911 C 170.119 0.893159 -1.80624 0
M  V30 1912 O 169.175 1.67485 -1.88958 0
M  V30 1913 C 170.488 -1.47784 -2.61878 0
M  V30 1914 C 172.036 -1.48071 -2.75761 0
M  V30 1915 C 172.511 -2.37347 -3.91702 0
M  V30 1916 N 174.002 -2.35271 -3.99001 0
M  V30 1917 C 174.737 -3.01063 -4.88004 0
M  V30 1918 N 174.233 -3.76055 -5.81854 0
M  V30 1919 N 176.026 -2.90332 -4.81315 0
M  V30 1920 H 168.177 -1.82502 -1.0866 0
M  V30 1921 H 170.44 -0.780797 -0.537644 0
M  V30 1922 H 170.146 -2.51993 -2.45341 0
M  V30 1923 H 170.02 -1.18215 -3.58197 0
M  V30 1924 H 172.407 -0.446166 -2.91708 0
M  V30 1925 H 172.488 -1.81668 -1.80085 0
M  V30 1926 H 172.132 -3.40883 -3.76512 0
M  V30 1927 H 172.062 -2.01071 -4.86701 0
M  V30 1928 H 174.553 -1.80768 -3.3186 0
M  V30 1929 H 174.866 -4.23366 -6.46514 0
M  V30 1930 H 173.211 -3.80163 -5.81808 0
M  V30 1931 H 176.402 -2.31278 -4.06974 0
M  V30 1932 H 176.575 -3.41885 -5.50471 0
M  V30 1933 N 169.982 1.44106 -0.638065 0
M  V30 1934 C 170.929 2.30715 0.062701 0
M  V30 1935 C 171.899 1.43882 0.829883 0
M  V30 1936 O 173.084 1.72775 0.809532 0
M  V30 1937 C 170.224 3.29258 1.03358 0
M  V30 1938 C 169.337 4.31192 0.26409 0
M  V30 1939 C 168.472 5.16825 1.22741 0
M  V30 1940 C 167.511 6.10462 0.447475 0
M  V30 1941 N 166.648 6.8877 1.36161 0
M  V30 1942 H 171.488 2.90096 -0.681781 0
M  V30 1943 H 169.025 1.42925 -0.347988 0
M  V30 1944 H 170.983 3.84886 1.60992 0
M  V30 1945 H 169.613 2.71562 1.74511 0
M  V30 1946 H 168.665 3.77981 -0.428295 0
M  V30 1947 H 169.977 4.97619 -0.343052 0
M  V30 1948 H 169.131 5.77004 1.87487 0
M  V30 1949 H 167.87 4.50488 1.86847 0
M  V30 1950 H 166.875 5.49386 -0.213433 0
M  V30 1951 H 168.1 6.78837 -0.188968 0
M  V30 1952 H 166.046 6.25096 1.98975 0
M  V30 1953 H 165.963 7.51663 0.808656 0
M  V30 1954 H 167.231 7.53467 1.99769 0
M  V30 1955 N 171.46 0.379036 1.52974 0
M  V30 1956 C 172.876 0.0285448 1.59574 0
M  V30 1957 C 173.076 -1.45542 1.39355 0
M  V30 1958 O 172.132 -2.2187 1.20541 0
M  V30 1959 C 173.445 0.496535 2.96572 0
M  V30 1960 C 174.993 0.451909 3.0972 0
M  V30 1961 C 175.468 0.895924 4.49152 0
M  V30 1962 N 176.959 0.851522 4.55306 0
M  V30 1963 C 177.694 1.16661 5.61407 0
M  V30 1964 N 177.19 1.55166 6.752 0
M  V30 1965 N 178.983 1.08853 5.51459 0
M  V30 1966 H 171.134 1.34525 1.64367 0
M  V30 1967 H 173.397 0.550733 0.771619 0
M  V30 1968 H 173.103 1.53258 3.16552 0
M  V30 1969 H 172.977 -0.109802 3.7704 0
M  V30 1970 H 175.364 -0.575029 2.89443 0
M  V30 1971 H 175.445 1.09392 2.3123 0
M  V30 1972 H 175.089 1.92104 4.70168 0
M  V30 1973 H 175.019 0.23103 5.26093 0
M  V30 1974 H 177.51 0.568038 3.73606 0
M  V30 1975 H 177.823 1.776 7.52116 0
M  V30 1976 H 176.168 1.59044 6.76557 0
M  V30 1977 H 179.359 0.786803 4.6144 0
M  V30 1978 H 179.532 1.33742 6.34048 0
M  V30 1979 N 172.938 -1.57226 0.108567 0
M  V30 1980 C 173.886 -2.16002 -0.862885 0
M  V30 1981 C 174.88 -1.10644 -1.28274 0
M  V30 1982 O 176.086 -1.28966 -1.2557 0
M  V30 1983 H 172.461 -0.691148 -0.296342 0
M  V30 1984 H 174.432 -2.96427 -0.342575 0
M  V30 1985 C 173.181 -2.76576 -2.10716 0
M  V30 1986 H 172.504 -3.5734 -1.793 0
M  V30 1987 H 173.944 -3.21253 -2.76717 0
M  V30 1988 C 172.403 -1.73137 -2.89007 0
M  V30 1989 O 172.933 -1.17842 -3.84026 0
M  V30 1990 N 171.139 -1.43317 -2.52801 0
M  V30 1991 H 170.686 -1.88473 -1.75601 0
M  V30 1992 H 170.644 -0.743485 -3.05483 0
M  V30 1993 N 174.416 0.165178 -1.56732 0
M  V30 1994 C 175.832 0.517174 -1.50988 0
M  V30 1995 C 176.032 1.84331 -0.813894 0
M  V30 1996 O 175.088 2.49672 -0.37682 0
M  V30 1997 C 176.401 0.544261 -2.95733 0
M  V30 1998 C 177.949 0.631039 -3.06573 0
M  V30 1999 C 178.424 0.68896 -4.52788 0
M  V30 2000 N 179.915 0.751683 -4.5706 0
M  V30 2001 C 180.65 0.817177 -5.67547 0
M  V30 2002 N 180.146 0.843129 -6.8765 0
M  V30 2003 N 181.939 0.856668 -5.55534 0
M  V30 2004 H 174.09 -0.704318 -2.00382 0
M  V30 2005 H 176.353 -0.254687 -0.913148 0
M  V30 2006 H 176.059 -0.361607 -3.49836 0
M  V30 2007 H 175.933 1.3886 -3.5071 0
M  V30 2008 H 178.32 1.52733 -2.52501 0
M  V30 2009 H 178.401 -0.240095 -2.54671 0
M  V30 2010 H 178.045 -0.2031 -5.07494 0
M  V30 2011 H 177.975 1.57633 -5.02454 0
M  V30 2012 H 180.466 0.739661 -3.70591 0
M  V30 2013 H 180.779 0.894448 -7.67606 0
M  V30 2014 H 179.124 0.811304 -6.90248 0
M  V30 2015 H 182.315 0.833437 -4.60621 0
M  V30 2016 H 182.488 0.904247 -6.4166 0
M  V30 2017 N 175.894 1.51508 0.433938 0
M  V30 2018 C 176.844 1.69451 1.52546 0
M  V30 2019 C 177.828 0.548474 1.51263 0
M  V30 2020 O 179.02 0.804529 1.57659 0
M  V30 2021 C 176.149 1.82604 2.90707 0
M  V30 2022 C 175.235 3.03002 2.96733 0
M  V30 2023 N 175.626 4.26121 2.72496 0
M  V30 2024 C 173.924 3.02327 3.27894 0
M  V30 2025 C 174.625 5.07407 2.84452 0
M  V30 2026 N 173.601 4.42126 3.16269 0
M  V30 2027 H 177.403 2.62305 1.32564 0
M  V30 2028 H 174.917 1.49202 0.641297 0
M  V30 2029 H 176.914 1.93569 3.69238 0
M  V30 2030 H 175.574 0.909339 3.11707 0
M  V30 2031 H 176.585 4.55009 2.4736 0
M  V30 2032 H 173.262 2.20301 3.54646 0
M  V30 2033 H 174.652 6.15422 2.69639 0
M  V30 2034 N 177.372 -0.689602 1.41712 0
M  V30 2035 C 178.612 -1.46184 1.42862 0
M  V30 2036 C 178.976 -1.91962 0.0382204 0
M  V30 2037 O 180.177 -2.68694 -0.0755019 0
M  V30 2038 C 178.448 -2.6371 2.4123 0
M  V30 2039 S 180.007 -3.52768 2.6096 0
M  V30 2040 H 176.825 -0.49947 0.506015 0
M  V30 2041 H 179.427 -0.804107 1.78198 0
M  V30 2042 H 178.131 -2.28293 3.41044 0
M  V30 2043 H 177.662 -3.3437 2.07269 0
M  V30 2044 H 179.677 -4.59146 1.88148 0
M  V30 2045 N 178.85 -1.27639 -0.924453 0
M  V30 2046 C 180.075 -1.17101 -1.71179 0
M  V30 2047 C 180.5 0.268134 -1.86179 0
M  V30 2048 O 179.858 1.19415 -1.36418 0
M  V30 2049 C 179.906 -1.86313 -3.08739 0
M  V30 2050 O 179.01 -1.16331 -3.95652 0
M  V30 2051 H 178.351 -0.407091 -0.524569 0
M  V30 2052 H 180.881 -1.68767 -1.15666 0
M  V30 2053 H 180.891 -1.938 -3.59034 0
M  V30 2054 H 179.566 -2.91001 -2.97138 0
M  V30 2055 H 178.143 -1.16935 -3.54091 0
M  V30 2056 N 180.328 1.1314 -1.09713 0
M  V30 2057 C 181.553 1.88862 -0.857081 0
M  V30 2058 C 181.978 1.78729 0.586304 0
M  V30 2059 O 181.336 1.13692 1.41222 0
M  V30 2060 C 181.384 3.36325 -1.30069 0
M  V30 2061 O 180.488 4.09815 -0.461007 0
M  V30 2062 H 179.829 0.587108 -0.310162 0
M  V30 2063 H 182.359 1.43129 -1.46203 0
M  V30 2064 H 182.369 3.87157 -1.28738 0
M  V30 2065 H 181.044 3.43017 -2.35185 0
M  V30 2066 H 179.621 3.68986 -0.538888 0
M  V30 2067 N 181.806 0.884767 1.30421 0
M  V30 2068 C 182.756 0.322846 2.25703 0
M  V30 2069 C 183.74 -0.548582 1.51259 0
M  V30 2070 O 184.932 -0.39304 1.72581 0
M  V30 2071 C 182.061 -0.461787 3.4018 0
M  V30 2072 C 181.147 0.423717 4.21978 0
M  V30 2073 N 181.538 1.52408 4.82292 0
M  V30 2074 C 179.836 0.218795 4.45463 0
M  V30 2075 C 180.537 2.07136 5.43571 0
M  V30 2076 N 179.513 1.36635 5.26148 0
M  V30 2077 H 183.315 1.16363 2.69883 0
M  V30 2078 H 180.829 0.73415 1.44859 0
M  V30 2079 H 182.826 -0.880985 4.07485 0
M  V30 2080 H 181.486 -1.30001 2.9754 0
M  V30 2081 H 182.497 1.90693 4.81515 0
M  V30 2082 H 179.174 -0.582275 4.1342 0
M  V30 2083 H 180.564 2.99538 6.01437 0
M  V30 2084 N 183.284 -1.43765 0.645699 0
M  V30 2085 C 184.216 -2.29027 -0.0890605 0
M  V30 2086 C 185.229 -1.42093 -0.794563 0
M  V30 2087 O 186.418 -1.66104 -0.653575 0
M  V30 2088 C 183.518 -3.18831 -1.14891 0
M  V30 2089 C 182.691 -4.34261 -0.523043 0
M  V30 2090 C 181.75 -5.04994 -1.47878 0
M  V30 2091 O 180.776 -5.6052 -0.990277 0
M  V30 2092 N 181.978 -5.07795 -2.81291 0
M  V30 2093 H 184.743 -2.92727 0.64272 0
M  V30 2094 H 182.304 -1.54373 0.487924 0
M  V30 2095 H 184.296 -3.63015 -1.78892 0
M  V30 2096 H 182.866 -2.56782 -1.78275 0
M  V30 2097 H 182.086 -3.93088 0.295896 0
M  V30 2098 H 183.374 -5.08728 -0.0858147 0
M  V30 2099 H 182.772 -4.64042 -3.23546 0
M  V30 2100 H 181.329 -5.55721 -3.40614 0
M  V30 2101 N 184.763 -0.387143 -1.52771 0
M  V30 2102 C 185.988 0.198407 -2.06449 0
M  V30 2103 C 186.413 1.39918 -1.25716 0
M  V30 2104 O 185.771 1.79099 -0.281657 0
M  V30 2105 C 185.819 0.548893 -3.56398 0
M  V30 2106 O 184.923 1.64315 -3.78252 0
M  V30 2107 H 184.264 0.0237731 -0.663574 0
M  V30 2108 H 186.794 -0.553989 -1.96957 0
M  V30 2109 H 186.804 0.813812 -3.99801 0
M  V30 2110 H 185.479 -0.329005 -4.14597 0
M  V30 2111 H 184.056 1.37211 -3.46738 0
M  V30 2112 N 186.241 1.57166 -0.116904 0
M  V30 2113 C 187.657 1.5779 0.239693 0
M  V30 2114 C 187.857 1.1295 1.66867 0
M  V30 2115 O 186.913 0.81592 2.38954 0
M  V30 2116 C 188.226 3.00699 0.00828202 0
M  V30 2117 C 189.774 3.12912 0.0743438 0
M  V30 2118 C 190.249 4.57817 -0.129348 0
M  V30 2119 N 191.74 4.63139 -0.075247 0
M  V30 2120 C 192.475 5.73023 -0.207788 0
M  V30 2121 N 191.971 6.91665 -0.396382 0
M  V30 2122 N 193.764 5.61906 -0.14751 0
M  V30 2123 H 185.915 1.84615 -1.05029 0
M  V30 2124 H 188.178 0.85311 -0.41341 0
M  V30 2125 H 187.884 3.37784 -0.979531 0
M  V30 2126 H 187.758 3.69848 0.741077 0
M  V30 2127 H 190.145 2.75686 1.05268 0
M  V30 2128 H 190.226 2.4631 -0.690297 0
M  V30 2129 H 189.87 4.95742 -1.10465 0
M  V30 2130 H 189.8 5.22507 0.655253 0
M  V30 2131 H 192.291 3.7784 0.0670898 0
M  V30 2132 H 192.604 7.71255 -0.488437 0
M  V30 2133 H 190.949 6.93654 -0.432329 0
M  V30 2134 H 194.14 4.681 -0.00115036 0
M  V30 2135 H 194.313 6.47501 -0.254247 0
M  V30 2136 N 187.719 -0.156864 1.56817 0
M  V30 2137 C 188.944 -0.890331 1.87318 0
M  V30 2138 C 189.369 -1.74394 0.704855 0
M  V30 2139 O 188.727 -1.77972 -0.345786 0
M  V30 2140 C 188.775 -1.73102 3.16336 0
M  V30 2141 O 187.879 -2.83422 2.99576 0
M  V30 2142 H 187.22 -0.24857 0.615718 0
M  V30 2143 H 189.75 -0.150649 2.04045 0
M  V30 2144 H 189.76 -2.12803 3.48107 0
M  V30 2145 H 188.435 -1.10412 4.00976 0
M  V30 2146 H 187.012 -2.47199 2.7919 0
M  V30 2147 N 189.197 -1.51736 -0.425897 0
M  V30 2148 C 190.144 -1.73875 -1.51776 0
M  V30 2149 C 191.114 -0.580702 -1.55618 0
M  V30 2150 O 192.299 -0.81641 -1.72451 0
M  V30 2151 C 189.439 -1.88012 -2.89388 0
M  V30 2152 C 188.552 -3.15606 -2.94986 0
M  V30 2153 C 187.687 -3.20271 -4.23793 0
M  V30 2154 C 186.726 -4.42134 -4.23302 0
M  V30 2155 N 185.863 -4.44284 -5.43651 0
M  V30 2156 H 190.703 -2.67071 -1.32201 0
M  V30 2157 H 188.24 -1.32351 -0.642008 0
M  V30 2158 H 190.198 -1.9419 -3.69251 0
M  V30 2159 H 188.828 -0.98213 -3.07496 0
M  V30 2160 H 187.88 -3.18681 -2.07717 0
M  V30 2161 H 189.192 -4.05486 -2.90486 0
M  V30 2162 H 188.346 -3.25428 -5.12036 0
M  V30 2163 H 187.085 -2.28299 -4.30965 0
M  V30 2164 H 186.09 -4.3714 -3.3345 0
M  V30 2165 H 187.315 -5.35382 -4.17783 0
M  V30 2166 H 185.261 -3.55188 -5.51523 0
M  V30 2167 H 185.178 -5.27988 -5.41078 0
M  V30 2168 H 186.446 -4.53649 -6.33895 0
M  V30 2169 N 190.675 0.682077 -1.42076 0
M  V30 2170 C 191.9 1.47558 -1.45744 0
M  V30 2171 C 192.325 1.87977 -0.0680981 0
M  V30 2172 O 191.683 1.55522 0.9318 0
M  V30 2173 C 191.731 2.70575 -2.38373 0
M  V30 2174 O 190.835 3.68573 -1.85007 0
M  V30 2175 H 190.176 0.443585 -0.494093 0
M  V30 2176 H 192.706 0.837238 -1.86686 0
M  V30 2177 H 192.716 3.18729 -2.54707 0
M  V30 2178 H 191.391 2.40495 -3.39315 0
M  V30 2179 H 189.968 3.2757 -1.78192 0
M  V30 2180 N 192.153 1.28127 0.917671 0
M  V30 2181 C 193.103 1.08361 2.00604 0
M  V30 2182 C 194.087 0.00847518 1.60898 0
M  V30 2183 O 195.279 0.228167 1.75523 0
M  V30 2184 C 192.408 0.743376 3.35155 0
M  V30 2185 C 191.494 1.85716 3.81275 0
M  V30 2186 N 191.885 3.09822 3.99805 0
M  V30 2187 C 190.183 1.74612 4.10398 0
M  V30 2188 C 190.884 3.82368 4.38372 0
M  V30 2189 N 189.86 3.10192 4.4641 0
M  V30 2190 H 193.662 2.02531 2.12975 0
M  V30 2191 H 191.176 1.18989 1.10523 0
M  V30 2192 H 193.173 0.582859 4.12805 0
M  V30 2193 H 191.833 -0.190595 3.2414 0
M  V30 2194 H 192.844 3.45475 3.85833 0
M  V30 2195 H 189.521 0.883657 4.08041 0
M  V30 2196 H 190.911 4.89082 4.60704 0
M  V30 2197 N 193.631 -1.12557 1.10312 0
M  V30 2198 C 195.047 -1.36036 0.834649 0
M  V30 2199 C 195.247 -1.93946 -0.546539 0
M  V30 2200 O 194.303 -2.16484 -1.29966 0
M  V30 2201 C 195.616 -2.30312 1.9333 0
M  V30 2202 C 197.164 -2.43906 1.9616 0
M  V30 2203 C 197.639 -3.41496 3.05195 0
M  V30 2204 N 199.13 -3.49053 3.04494 0
M  V30 2205 C 199.865 -4.24471 3.85502 0
M  V30 2206 N 199.361 -5.02966 4.76442 0
M  V30 2207 N 201.154 -4.19864 3.73725 0
M  V30 2208 H 193.305 -0.733246 1.99342 0
M  V30 2209 H 195.568 -0.385234 0.866198 0
M  V30 2210 H 195.274 -1.94933 2.92735 0
M  V30 2211 H 195.148 -3.30421 1.81939 0
M  V30 2212 H 197.535 -2.78567 0.973886 0
M  V30 2213 H 197.616 -1.4369 2.11629 0
M  V30 2214 H 197.26 -3.07565 4.04186 0
M  V30 2215 H 197.19 -4.41539 2.86968 0
M  V30 2216 H 199.681 -2.93053 2.38596 0
M  V30 2217 H 199.994 -5.57846 5.34815 0
M  V30 2218 H 198.339 -5.02167 4.80472 0
M  V30 2219 H 201.53 -3.57623 3.02032 0
M  V30 2220 H 201.703 -4.78386 4.37093 0
M  V30 2221 N 195.109 -0.891671 -1.2995 0
M  V30 2222 C 196.525 -0.58662 -1.48428 0
M  V30 2223 C 196.725 0.873951 -1.81561 0
M  V30 2224 O 195.781 1.65471 -1.90724 0
M  V30 2225 C 197.094 -1.50553 -2.60296 0
M  V30 2226 C 198.642 -1.50988 -2.74175 0
M  V30 2227 C 199.117 -2.41488 -3.89163 0
M  V30 2228 N 200.608 -2.39489 -3.96483 0
M  V30 2229 C 201.343 -3.06223 -4.84784 0
M  V30 2230 N 200.839 -3.82206 -5.77833 0
M  V30 2231 N 202.632 -2.95421 -4.78208 0
M  V30 2232 H 194.783 -1.83644 -1.06718 0
M  V30 2233 H 197.046 -0.786455 -0.529332 0
M  V30 2234 H 196.752 -2.54581 -2.42654 0
M  V30 2235 H 196.626 -1.22008 -3.56923 0
M  V30 2236 H 199.013 -0.47708 -2.91218 0
M  V30 2237 H 199.094 -1.83567 -1.78148 0
M  V30 2238 H 198.738 -3.44857 -3.72876 0
M  V30 2239 H 198.668 -2.06222 -4.84541 0
M  V30 2240 H 201.159 -1.84278 -3.29924 0
M  V30 2241 H 201.472 -4.302 -6.41988 0
M  V30 2242 H 199.817 -3.86313 -5.77743 0
M  V30 2243 H 203.008 -2.35581 -4.04499 0
M  V30 2244 H 203.181 -3.47704 -5.46814 0
M  V30 2245 N 196.587 1.43421 -0.653314 0
M  V30 2246 C 197.534 2.30768 0.0382271 0
M  V30 2247 C 198.504 1.44755 0.814576 0
M  V30 2248 O 199.689 1.73624 0.791162 0
M  V30 2249 C 196.829 3.30336 0.998599 0
M  V30 2250 C 195.942 4.31448 0.218342 0
M  V30 2251 C 195.077 5.18098 1.17252 0
M  V30 2252 C 194.116 6.10902 0.382702 0
M  V30 2253 N 193.253 6.90176 1.28848 0
M  V30 2254 H 198.093 2.89357 -0.712511 0
M  V30 2255 H 195.63 1.42548 -0.363128 0
M  V30 2256 H 197.588 3.86572 1.56901 0
M  V30 2257 H 196.218 2.73397 1.71621 0
M  V30 2258 H 195.27 3.77506 -0.46836 0
M  V30 2259 H 196.582 4.97227 -0.395812 0
M  V30 2260 H 195.736 5.7896 1.81356 0
M  V30 2261 H 194.475 4.52444 1.82058 0
M  V30 2262 H 193.48 5.49128 -0.27169 0
M  V30 2263 H 194.705 6.78598 -0.260957 0
M  V30 2264 H 192.651 6.27171 1.92334 0
M  V30 2265 H 192.568 7.52478 0.728887 0
M  V30 2266 H 193.836 7.55543 1.91766 0
M  V30 2267 N 198.065 0.39524 1.52563 0
M  V30 2268 C 199.481 0.0454682 1.59535 0
M  V30 2269 C 199.681 -1.44056 1.4089 0
M  V30 2270 O 198.737 -2.20579 1.22888 0
M  V30 2271 C 200.05 0.527963 2.96029 0
M  V30 2272 C 201.598 0.484733 3.09224 0
M  V30 2273 C 202.073 0.943512 4.48176 0
M  V30 2274 N 203.564 0.899765 4.54377 0
M  V30 2275 C 204.299 1.22609 5.60138 0
M  V30 2276 N 203.795 1.62319 6.73516 0
M  V30 2277 N 205.588 1.14696 5.50274 0
M  V30 2278 H 197.739 1.36261 1.62931 0
M  V30 2279 H 200.002 0.558887 0.765735 0
M  V30 2280 H 199.708 1.56607 3.14908 0
M  V30 2281 H 199.582 -0.0698056 3.77135 0
M  V30 2282 H 201.969 -0.544298 2.90037 0
M  V30 2283 H 202.05 1.11838 2.30056 0
M  V30 2284 H 201.694 1.9708 4.68104 0
M  V30 2285 H 201.624 0.286817 5.25818 0
M  V30 2286 H 204.115 0.607632 3.72983 0
M  V30 2287 H 204.428 1.85567 7.5019 0
M  V30 2288 H 202.773 1.66211 6.74833 0
M  V30 2289 H 205.964 0.835701 4.6058 0
M  V30 2290 H 206.137 1.40459 6.32594 0
M  V30 2291 N 199.544 -1.57102 0.125237 0
M  V30 2292 C 200.769 -2.0019 -0.542101 0
M  V30 2293 C 201.194 -1.00449 -1.59034 0
M  V30 2294 O 200.552 0.0229423 -1.81285 0
M  V30 2295 C 200.6 -3.42129 -1.13929 0
M  V30 2296 O 199.704 -3.45307 -2.2547 0
M  V30 2297 H 199.045 -0.650171 -0.134812 0
M  V30 2298 H 201.575 -2.03461 0.215553 0
M  V30 2299 H 201.585 -3.80471 -1.4733 0
M  V30 2300 H 200.26 -4.14237 -0.371531 0
M  V30 2301 H 198.837 -3.1879 -1.93462 0
M  V30 2302 N 201.022 0.148545 -1.56898 0
M  V30 2303 C 202.438 0.501131 -1.51528 0
M  V30 2304 C 202.638 1.83458 -0.833399 0
M  V30 2305 O 201.694 2.49259 -0.40328 0
M  V30 2306 C 203.007 0.512864 -2.96294 0
M  V30 2307 C 204.555 0.598487 -3.07225 0
M  V30 2308 C 205.03 0.640897 -4.53494 0
M  V30 2309 N 206.521 0.703163 -4.57832 0
M  V30 2310 C 207.256 0.756935 -5.68382 0
M  V30 2311 N 206.752 0.770147 -6.88506 0
M  V30 2312 N 208.545 0.797698 -5.56411 0
M  V30 2313 H 200.696 -0.725532 -1.99624 0
M  V30 2314 H 202.959 -0.264358 -0.910395 0
M  V30 2315 H 202.665 -0.398691 -3.49433 0
M  V30 2316 H 202.539 1.35133 -3.52163 0
M  V30 2317 H 204.926 1.50046 -2.54106 0
M  V30 2318 H 205.007 -0.267093 -2.54402 0
M  V30 2319 H 204.651 -0.256915 -5.0725 0
M  V30 2320 H 204.581 1.52295 -5.04097 0
M  V30 2321 H 207.072 0.700314 -3.71354 0
M  V30 2322 H 207.385 0.812983 -7.68512 0
M  V30 2323 H 205.73 0.738049 -6.9107 0
M  V30 2324 H 208.921 0.784535 -4.61479 0
M  V30 2325 H 209.094 0.83614 -6.42583 0
M  V30 2326 N 202.5 1.5196 0.417844 0
M  V30 2327 C 203.725 1.69717 1.1921 0
M  V30 2328 C 204.15 0.402148 1.83751 0
M  V30 2329 O 203.508 -0.639593 1.69643 0
M  V30 2330 C 203.556 2.82794 2.2374 0
M  V30 2331 O 202.66 2.47756 3.29683 0
M  V30 2332 H 202.001 0.565263 0.348387 0
M  V30 2333 H 204.531 1.98621 0.490985 0
M  V30 2334 H 204.541 3.07452 2.68212 0
M  V30 2335 H 203.216 3.76756 1.76146 0
M  V30 2336 H 201.793 2.33739 2.90552 0
M  V30 2337 N 203.978 -0.674533 1.42435 0
M  V30 2338 C 205.227 -1.43034 1.42212 0
M  V30 2339 C 205.54 -1.95555 0.0420788 0
M  V30 2340 O 206.746 -2.71374 -0.0827558 0
M  V30 2341 C 205.202 -2.58748 2.50155 0
M  V30 2342 C 204.81 -2.12925 3.94166 0
M  V30 2343 C 206.554 -3.36257 2.59098 0
M  V30 2344 C 204.461 -3.25723 4.93618 0
M  V30 2345 H 203.391 -0.537345 0.528939 0
M  V30 2346 H 206.042 -0.73024 1.68344 0
M  V30 2347 H 204.424 -3.31128 2.17188 0
M  V30 2348 H 205.598 -1.47697 4.36488 0
M  V30 2349 H 203.913 -1.48354 3.89076 0
M  V30 2350 H 206.51 -4.20264 3.30578 0
M  V30 2351 H 206.853 -3.82866 1.63461 0
M  V30 2352 H 207.386 -2.70947 2.9126 0
M  V30 2353 H 204.125 -2.84105 5.90732 0
M  V30 2354 H 203.645 -3.89732 4.55926 0
M  V30 2355 H 205.324 -3.91186 5.15347 0
M  V30 2356 N 205.456 -1.28612 -0.910864 0
M  V30 2357 C 206.366 -1.14643 -2.0468 0
M  V30 2358 C 207.382 -0.0723121 -1.7385 0
M  V30 2359 O 208.558 -0.282178 -1.99413 0
M  V30 2360 C 205.623 -0.812561 -3.37044 0
M  V30 2361 C 204.684 -1.96935 -3.81465 0
M  V30 2362 C 203.917 -1.65131 -5.07511 0
M  V30 2363 O 204.14 -0.567013 -5.67575 0
M  V30 2364 O 203.074 -2.49585 -5.47714 0
M  V30 2365 H 206.9 -2.1001 -2.19384 0
M  V30 2366 H 204.485 -1.07958 -1.03274 0
M  V30 2367 H 206.367 -0.640441 -4.16505 0
M  V30 2368 H 205.042 0.111426 -3.23508 0
M  V30 2369 H 203.949 -2.19664 -3.02818 0
M  V30 2370 H 205.282 -2.87414 -3.99567 0
M  V30 2371 N 206.934 1.1197 -1.10907 0
M  V30 2372 C 208.211 1.79959 -0.766432 0
M  V30 2373 C 208.591 1.97466 0.746363 0
M  V30 2374 O 207.939 1.55491 1.67436 0
M  V30 2375 C 208.149 3.14009 -1.52314 0
M  V30 2376 C 209.497 3.89134 -1.69883 0
M  V30 2377 O 210.521 3.2368 -1.48692 0
M  V30 2378 O 209.38 5.06572 -2.05054 0
M  V30 2379 H 206.474 0.779208 -0.277062 0
M  V30 2380 H 209.02 1.18762 -1.21217 0
M  V30 2381 H 207.792 2.96587 -2.55249 0
M  V30 2382 H 207.415 3.82915 -1.07059 0
M  V30 2383 N 208.412 0.89855 1.29475 0
M  V30 2384 C 209.689 0.443416 1.90508 0
M  V30 2385 C 210.069 -1.07685 1.81569 0
M  V30 2386 O 209.417 -1.9182 1.24166 0
M  V30 2387 C 209.627 0.956708 3.35631 0
M  V30 2388 C 210.975 0.999728 4.12663 0
M  V30 2389 O 211.999 0.904299 3.4453 0
M  V30 2390 O 210.858 1.14289 5.34416 0
M  V30 2391 H 207.952 0.138025 0.815401 0
M  V30 2392 H 210.498 0.98834 1.37949 0
M  V30 2393 H 209.27 2.00067 3.36287 0
M  V30 2394 H 208.893 0.391728 3.95666 0
M  V30 2395 N 209.89 -1.43072 0.660911 0
M  V30 2396 C 210.8 -2.34585 -0.0264163 0
M  V30 2397 C 211.816 -1.54316 -0.803898 0
M  V30 2398 O 212.992 -1.86939 -0.749391 0
M  V30 2399 C 210.057 -3.32689 -0.975639 0
M  V30 2400 C 209.118 -4.2886 -0.194236 0
M  V30 2401 C 208.351 -5.22278 -1.09825 0
M  V30 2402 O 208.574 -5.20299 -2.33763 0
M  V30 2403 O 207.508 -5.99228 -0.566513 0
M  V30 2404 H 211.334 -2.94869 0.727034 0
M  V30 2405 H 208.919 -1.43342 0.42111 0
M  V30 2406 H 210.801 -3.92995 -1.52094 0
M  V30 2407 H 209.476 -2.74898 -1.70918 0
M  V30 2408 H 208.383 -3.72011 0.394835 0
M  V30 2409 H 209.716 -4.89655 0.499899 0
M  V30 2410 N 211.368 -0.403325 -1.52352 0
M  V30 2411 C 212.278 0.432009 -2.30588 0
M  V30 2412 C 213.294 1.05884 -1.38075 0
M  V30 2413 O 214.47 1.06161 -1.71148 0
M  V30 2414 C 211.535 1.53669 -3.10784 0
M  V30 2415 C 210.596 0.933525 -4.19027 0
M  V30 2416 C 209.829 1.98557 -4.9539 0
M  V30 2417 O 210.052 3.20283 -4.71991 0
M  V30 2418 O 208.986 1.59504 -5.80381 0
M  V30 2419 H 212.812 -0.205739 -3.03002 0
M  V30 2420 H 210.397 -0.166675 -1.48467 0
M  V30 2421 H 212.279 2.17814 -3.60742 0
M  V30 2422 H 210.954 2.15915 -2.41169 0
M  V30 2423 H 209.861 0.254954 -3.7323 0
M  V30 2424 H 211.194 0.35508 -4.90918 0
M  V30 2425 N 212.846 1.57033 -0.133567 0
M  V30 2426 C 214.094 1.953 0.519848 0
M  V30 2427 C 214.415 1.01866 1.66278 0
M  V30 2428 O 213.685 0.0776513 1.95746 0
M  V30 2429 H 212.265 0.721091 0.195032 0
M  V30 2430 H 214.927 1.93809 -0.205921 0
M  V30 2431 H 214.023 2.98695 0.904854 0
M  V30 2432 N 214.325 -0.140222 1.56975 0
M  V30 2433 C 215.275 -1.17827 1.95194 0
M  V30 2434 C 216.259 -1.38195 0.824075 0
M  V30 2435 O 217.451 -1.39643 1.0876 0
M  V30 2436 C 214.58 -2.51024 2.34184 0
M  V30 2437 C 213.666 -2.3422 3.53556 0
M  V30 2438 N 214.057 -1.87185 4.69889 0
M  V30 2439 C 212.355 -2.64949 3.58773 0
M  V30 2440 C 213.056 -1.83586 5.5197 0
M  V30 2441 N 212.032 -2.2715 4.93866 0
M  V30 2442 H 215.834 -0.806817 2.82609 0
M  V30 2443 H 213.348 -0.348208 1.58623 0
M  V30 2444 H 215.345 -3.26074 2.59772 0
M  V30 2445 H 214.005 -2.88945 1.48124 0
M  V30 2446 H 215.016 -1.57048 4.93514 0
M  V30 2447 H 211.693 -3.067 2.8327 0
M  V30 2448 H 213.083 -1.48655 6.55249 0
M  V30 2449 N 215.803 -1.52179 -0.40978 0
M  V30 2450 C 216.733 -1.78435 -1.5061 0
M  V30 2451 C 217.714 -0.635295 -1.57791 0
M  V30 2452 O 218.899 -0.880823 -1.73076 0
M  V30 2453 C 216.029 -1.93444 -2.88439 0
M  V30 2454 C 214.983 -3.09038 -2.96108 0
M  V30 2455 C 214.309 -3.09268 -4.36185 0
M  V30 2456 C 215.609 -4.48508 -2.67652 0
M  V30 2457 H 217.303 -2.70237 -1.28889 0
M  V30 2458 H 214.849 -1.30036 -0.618605 0
M  V30 2459 H 216.802 -2.10394 -3.65119 0
M  V30 2460 H 215.526 -0.983129 -3.11452 0
M  V30 2461 H 214.185 -2.91837 -2.21872 0
M  V30 2462 H 213.833 -2.11861 -4.56206 0
M  V30 2463 H 213.533 -3.86907 -4.42241 0
M  V30 2464 H 215.057 -3.28348 -5.14801 0
M  V30 2465 H 216.471 -4.65918 -3.34056 0
M  V30 2466 H 214.868 -5.28059 -2.85085 0
M  V30 2467 H 215.938 -4.56649 -1.63095 0
M  V30 2468 N 217.281 0.66697 -1.42791 0
M  V30 2469 C 218.53 1.42278 -1.42968 0
M  V30 2470 C 218.843 1.9553 -0.0524489 0
M  V30 2471 O 220.049 2.71414 0.068363 0
M  V30 2472 C 218.505 2.57418 -2.51524 0
M  V30 2473 C 218.113 2.10832 -3.9529 0
M  V30 2474 C 219.857 3.34878 -2.60877 0
M  V30 2475 C 217.764 3.23101 -4.95338 0
M  V30 2476 H 216.694 0.534533 -0.531781 0
M  V30 2477 H 219.345 0.721302 -1.68729 0
M  V30 2478 H 217.727 3.29971 -2.18941 0
M  V30 2479 H 218.901 1.4538 -4.37266 0
M  V30 2480 H 217.216 1.46289 -3.89857 0
M  V30 2481 H 219.813 4.18505 -3.32802 0
M  V30 2482 H 220.156 3.81993 -1.6549 0
M  V30 2483 H 220.689 2.69398 -2.92693 0
M  V30 2484 H 217.428 2.80969 -5.9223 0
M  V30 2485 H 216.948 3.87309 -4.57987 0
M  V30 2486 H 218.627 3.88447 -5.17415 0
M  V30 2487 N 218.759 1.29093 0.90403 0
M  V30 2488 C 219.999 1.18076 1.66845 0
M  V30 2489 C 220.363 -0.26436 1.90171 0
M  V30 2490 O 221.564 -0.497423 2.64157 0
M  V30 2491 C 219.835 1.96722 2.98388 0
M  V30 2492 S 221.394 2.0219 3.89441 0
M  V30 2493 H 218.212 0.421104 0.572881 0
M  V30 2494 H 220.814 1.63322 1.07453 0
M  V30 2495 H 219.518 3.00866 2.7912 0
M  V30 2496 H 219.049 1.52064 3.62823 0
M  V30 2497 H 221.064 1.13545 4.83034 0
M  V30 2498 N 220.237 -1.11381 1.11499 0
M  V30 2499 C 221.169 -2.17207 0.731704 0
M  V30 2500 C 222.182 -1.61066 -0.236957 0
M  V30 2501 O 223.371 -1.78489 -0.0197591 0
M  V30 2502 C 220.471 -3.38846 0.0607624 0
M  V30 2503 C 219.644 -4.24451 1.0564 0
M  V30 2504 C 218.703 -5.24562 0.4149 0
M  V30 2505 O 217.729 -5.59071 1.069 0
M  V30 2506 N 218.931 -5.74651 -0.821943 0
M  V30 2507 H 221.696 -2.50699 1.64225 0
M  V30 2508 H 219.257 -1.26908 1.00529 0
M  V30 2509 H 221.249 -4.02911 -0.380139 0
M  V30 2510 H 219.819 -3.03411 -0.752376 0
M  V30 2511 H 219.039 -3.56833 1.67524 0
M  V30 2512 H 220.327 -4.78486 1.72998 0
M  V30 2513 H 219.725 -5.48797 -1.37252 0
M  V30 2514 H 218.282 -6.40549 -1.20582 0
M  V30 2515 N 221.715 -0.905404 -1.28997 0
M  V30 2516 C 222.94 -0.549175 -1.99997 0
M  V30 2517 C 223.365 0.860276 -1.67275 0
M  V30 2518 O 222.723 1.57355 -0.900502 0
M  V30 2519 C 222.771 -0.755185 -3.52604 0
M  V30 2520 O 221.875 0.189692 -4.11964 0
M  V30 2521 H 221.216 -0.213899 -0.628604 0
M  V30 2522 H 223.746 -1.21856 -1.64354 0
M  V30 2523 H 223.756 -0.662045 -4.02593 0
M  V30 2524 H 222.431 -1.78271 -3.75755 0
M  V30 2525 H 221.008 0.0485257 -3.72868 0
M  V30 2526 N 223.193 1.4272 -0.668489 0
M  V30 2527 C 224.441 2.01226 -0.187769 0
M  V30 2528 C 224.762 1.53092 1.2078 0
M  V30 2529 O 224.032 0.74993 1.80977 0
M  V30 2530 H 222.612 0.744041 -0.0664272 0
M  V30 2531 H 225.274 1.74723 -0.863583 0
M  V30 2532 H 224.37 3.11556 -0.184166 0
M  V30 2533 N 224.671 0.411399 1.52136 0
M  V30 2534 C 225.948 -0.222308 1.94333 0
M  V30 2535 C 226.328 -1.6242 1.34844 0
M  V30 2536 O 225.676 -2.22384 0.525145 0
M  V30 2537 C 225.886 -0.226345 3.48265 0
M  V30 2538 C 227.234 -0.444592 4.22266 0
M  V30 2539 O 228.258 -0.305602 3.54887 0
M  V30 2540 O 227.117 -0.718749 5.41753 0
M  V30 2541 H 224.211 -0.143907 0.814383 0
M  V30 2542 H 226.757 0.467506 1.63133 0
M  V30 2543 H 225.529 0.75475 3.83952 0
M  V30 2544 H 225.152 -0.960163 3.85832 0
M  V30 2545 N 226.149 -1.5696 0.141893 0
M  V30 2546 C 227.395 -1.9625 -0.511248 0
M  V30 2547 C 227.728 -1.02654 -1.64851 0
M  V30 2548 O 227.003 -0.0679676 -1.94381 0
M  V30 2549 C 227.286 -3.45285 -1.02227 0
M  V30 2550 C 227.139 -4.49658 0.113138 0
M  V30 2551 C 228.458 -3.96698 -1.90574 0
M  V30 2552 H 225.577 -0.713567 -0.184367 0
M  V30 2553 H 228.219 -1.88698 0.222087 0
M  V30 2554 H 226.369 -3.51852 -1.64719 0
M  V30 2555 H 228.041 -4.55174 0.749302 0
M  V30 2556 H 226.284 -4.26857 0.773026 0
M  V30 2557 H 226.955 -5.51258 -0.286053 0
M  V30 2558 H 229.431 -3.92578 -1.37918 0
M  V30 2559 H 228.307 -5.01453 -2.2324 0
M  V30 2560 H 228.568 -3.3875 -2.84079 0
M  V30 2561 N 227.627 0.131896 -1.57047 0
M  V30 2562 C 228.557 1.16384 -2.02428 0
M  V30 2563 C 229.538 1.43936 -0.90644 0
M  V30 2564 O 230.723 1.54599 -1.17528 0
M  V30 2565 C 227.853 2.49328 -2.4177 0
M  V30 2566 C 226.807 2.36266 -3.56879 0
M  V30 2567 C 226.133 3.74057 -3.8208 0
M  V30 2568 C 227.433 1.834 -4.89042 0
M  V30 2569 H 229.127 0.786433 -2.88887 0
M  V30 2570 H 226.673 0.376855 -1.38981 0
M  V30 2571 H 228.626 3.21759 -2.7212 0
M  V30 2572 H 227.35 2.88934 -1.52266 0
M  V30 2573 H 226.009 1.66286 -3.26718 0
M  V30 2574 H 225.657 4.11125 -2.89803 0
M  V30 2575 H 225.357 3.66174 -4.59554 0
M  V30 2576 H 226.881 4.48012 -4.1487 0
M  V30 2577 H 228.295 2.45636 -5.18011 0
M  V30 2578 H 226.692 1.8637 -5.70426 0
M  V30 2579 H 227.762 0.790662 -4.7841 0
M  V30 2580 N 229.106 1.52395 0.401703 0
M  V30 2581 C 230.522 1.41363 0.740864 0
M  V30 2582 C 230.722 0.523982 1.94568 0
M  V30 2583 O 229.778 -0.00741204 2.52499 0
M  V30 2584 C 231.091 2.84011 0.987847 0
M  V30 2585 C 232.639 2.93404 1.09011 0
M  V30 2586 C 233.114 4.37036 1.3698 0
M  V30 2587 N 234.605 4.40304 1.43829 0
M  V30 2588 C 235.34 5.48508 1.67112 0
M  V30 2589 N 234.836 6.66819 1.87949 0
M  V30 2590 N 236.629 5.36034 1.69187 0
M  V30 2591 H 228.78 2.08765 -0.391262 0
M  V30 2592 H 231.043 0.941265 -0.112798 0
M  V30 2593 H 230.749 3.51265 0.174835 0
M  V30 2594 H 230.623 3.25502 1.906 0
M  V30 2595 H 233.01 2.26325 1.8937 0
M  V30 2596 H 233.091 2.55359 0.15015 0
M  V30 2597 H 232.735 5.04676 0.571353 0
M  V30 2598 H 232.665 4.72623 2.3224 0
M  V30 2599 H 235.156 3.55024 1.29486 0
M  V30 2600 H 235.469 7.45063 2.05185 0
M  V30 2601 H 233.814 6.6987 1.85199 0
M  V30 2602 H 237.005 4.42579 1.52451 0
M  V30 2603 H 237.178 6.20434 1.86993 0
M  V30 2604 N 230.584 -0.659388 1.43143 0
M  V30 2605 C 231.547 -1.75432 1.47501 0
M  V30 2606 C 232.547 -1.56707 0.360512 0
M  V30 2607 O 233.737 -1.62717 0.622002 0
M  V30 2608 C 230.869 -3.14239 1.32162 0
M  V30 2609 H 232.062 -1.7295 2.45006 0
M  V30 2610 H 229.615 -0.870469 1.29817 0
M  V30 2611 H 230.35 -3.22336 0.356401 0
M  V30 2612 H 230.135 -3.29235 2.12948 0
M  V30 2613 H 231.625 -3.94094 1.3813 0
M  V30 2614 N 232.062 -1.29571 -0.897171 0
M  V30 2615 C 233.478 -1.07637 -1.17841 0
M  V30 2616 C 233.678 0.170713 -2.00776 0
M  V30 2617 O 232.734 0.867768 -2.3712 0
M  V30 2618 C 234.047 -2.3332 -1.8969 0
M  V30 2619 C 235.595 -2.38664 -2.02505 0
M  V30 2620 C 236.07 -3.64157 -2.77765 0
M  V30 2621 N 237.561 -3.64894 -2.85318 0
M  V30 2622 C 238.296 -4.58679 -3.44094 0
M  V30 2623 N 237.792 -5.62799 -4.04017 0
M  V30 2624 N 239.585 -4.46245 -3.41793 0
M  V30 2625 H 231.736 -2.09598 -0.343883 0
M  V30 2626 H 233.999 -0.923333 -0.214848 0
M  V30 2627 H 233.705 -3.24262 -1.36187 0
M  V30 2628 H 233.579 -2.41025 -2.9015 0
M  V30 2629 H 235.966 -1.48208 -2.55183 0
M  V30 2630 H 236.047 -2.34943 -1.01171 0
M  V30 2631 H 235.691 -4.54965 -2.25763 0
M  V30 2632 H 235.621 -3.65137 -3.7945 0
M  V30 2633 H 238.112 -2.89613 -2.42761 0
M  V30 2634 H 238.425 -6.3048 -4.46895 0
M  V30 2635 H 236.77 -5.66605 -4.02472 0
M  V30 2636 H 239.961 -3.64094 -2.94199 0
M  V30 2637 H 240.134 -5.19518 -3.87304 0
M  V30 2638 N 233.54 1.10788 -1.12088 0
M  V30 2639 C 234.77 1.86191 -0.895351 0
M  V30 2640 C 235.178 1.80763 0.558702 0
M  V30 2641 O 234.521 1.19188 1.39785 0
M  V30 2642 C 234.583 3.35659 -1.28737 0
M  V30 2643 C 234.247 3.64849 -2.75198 0
M  V30 2644 C 235.244 3.61757 -3.734 0
M  V30 2645 C 232.929 3.93641 -3.12013 0
M  V30 2646 C 234.923 3.87045 -5.06434 0
M  V30 2647 C 232.61 4.18585 -4.4523 0
M  V30 2648 C 233.608 4.15277 -5.42249 0
M  V30 2649 O 233.296 4.3959 -6.73065 0
M  V30 2650 H 233.028 0.595425 -0.32007 0
M  V30 2651 H 235.582 1.40992 -1.49367 0
M  V30 2652 H 233.812 3.81497 -0.63224 0
M  V30 2653 H 235.501 3.92441 -1.03656 0
M  V30 2654 H 236.267 3.39557 -3.46303 0
M  V30 2655 H 232.146 3.95348 -2.37109 0
M  V30 2656 H 235.69 3.84378 -5.82151 0
M  V30 2657 H 231.587 4.40264 -4.72057 0
M  V30 2658 H 232.355 4.57123 -6.78956 0
M  V30 2659 N 235.018 0.912232 1.28515 0
M  V30 2660 C 235.928 0.404506 2.31086 0
M  V30 2661 C 236.944 -0.50707 1.66448 0
M  V30 2662 O 238.12 -0.393624 1.97516 0
M  V30 2663 C 235.185 -0.348572 3.44943 0
M  V30 2664 C 234.246 0.59604 4.25142 0
M  V30 2665 C 233.479 -0.121194 5.33562 0
M  V30 2666 O 233.702 -1.34317 5.5436 0
M  V30 2667 O 232.636 0.542716 5.99448 0
M  V30 2668 H 236.462 1.25579 2.76521 0
M  V30 2669 H 234.047 0.676998 1.33181 0
M  V30 2670 H 235.929 -0.77395 4.14232 0
M  V30 2671 H 234.604 -1.17571 3.01594 0
M  V30 2672 H 233.511 1.07079 3.58448 0
M  V30 2673 H 234.844 1.38995 4.72167 0
M  V30 2674 N 236.496 -1.42363 0.676048 0
M  V30 2675 C 237.745 -2.00745 0.196037 0
M  V30 2676 C 238.058 -1.54083 -1.20489 0
M  V30 2677 O 239.264 -2.04891 -1.78134 0
M  V30 2678 C 237.72 -3.58651 0.299616 0
M  V30 2679 C 237.328 -4.143 1.70468 0
M  V30 2680 C 239.072 -4.24326 -0.121619 0
M  V30 2681 C 236.979 -5.64574 1.76096 0
M  V30 2682 H 235.909 -0.750787 0.0695301 0
M  V30 2683 H 238.56 -1.63072 0.841412 0
M  V30 2684 H 236.942 -3.93833 -0.413673 0
M  V30 2685 H 238.116 -3.90575 2.44515 0
M  V30 2686 H 236.431 -3.61081 2.07387 0
M  V30 2687 H 239.028 -5.34607 -0.0997362 0
M  V30 2688 H 239.371 -3.99897 -1.15708 0
M  V30 2689 H 239.904 -3.94108 0.540706 0
M  V30 2690 H 236.643 -5.93804 2.77628 0
M  V30 2691 H 236.163 -5.90286 1.06406 0
M  V30 2692 H 237.842 -6.29013 1.51496 0
M  V30 2693 N 237.974 -0.419461 -1.51915 0
M  V30 2694 C 239.22 0.153166 -2.02221 0
M  V30 2695 C 239.553 1.43907 -1.30401 0
M  V30 2696 O 238.828 1.90055 -0.413438 0
M  V30 2697 C 239.111 0.390291 -3.57979 0
M  V30 2698 C 238.964 -0.913014 -4.40436 0
M  V30 2699 C 240.283 1.16794 -4.2432 0
M  V30 2700 H 237.402 0.0541924 -0.735005 0
M  V30 2701 H 240.044 -0.554955 -1.81715 0
M  V30 2702 H 238.194 0.993491 -3.75582 0
M  V30 2703 H 239.866 -1.54882 -4.34522 0
M  V30 2704 H 238.109 -1.52168 -4.06236 0
M  V30 2705 H 238.78 -0.701361 -5.47526 0
M  V30 2706 H 241.256 0.657161 -4.10878 0
M  V30 2707 H 240.132 1.3026 -5.3322 0
M  V30 2708 H 240.393 2.19132 -3.83971 0
M  V30 2709 N 239.452 1.56882 -0.150215 0
M  V30 2710 C 240.729 1.87844 0.545327 0
M  V30 2711 C 241.109 1.0567 1.82749 0
M  V30 2712 O 240.457 0.144442 2.28043 0
M  V30 2713 C 240.667 3.39526 0.80767 0
M  V30 2714 C 242.015 4.08814 1.14703 0
M  V30 2715 O 243.039 3.44723 0.896917 0
M  V30 2716 O 241.898 5.22004 1.61784 0
M  V30 2717 H 238.992 0.778677 0.278553 0
M  V30 2718 H 241.538 1.68666 -0.187068 0
M  V30 2719 H 240.31 3.91173 -0.0996096 0
M  V30 2720 H 239.933 3.64243 1.59413 0
M  V30 2721 N 240.93 -0.123565 1.57115 0
M  V30 2722 C 242.158 -0.846461 1.88793 0
M  V30 2723 C 242.573 -1.73652 0.740976 0
M  V30 2724 O 241.93 -1.80207 -0.288393 0
M  V30 2725 C 241.981 -1.6837 3.19897 0
M  V30 2726 O 241.702 -0.829477 4.30176 0
M  V30 2727 C 243.203 -2.51214 3.65248 0
M  V30 2728 H 240.423 -0.243573 0.625231 0
M  V30 2729 H 242.967 -0.109324 2.04208 0
M  V30 2730 H 241.122 -2.37364 3.06165 0
M  V30 2731 H 241.536 -1.40651 5.0529 0
M  V30 2732 H 243.01 -3.05497 4.59756 0
M  V30 2733 H 243.487 -3.28359 2.9168 0
M  V30 2734 H 244.093 -1.8747 3.81752 0
M  V30 2735 N 242.408 -1.52605 -0.393616 0
M  V30 2736 C 243.338 -1.80022 -1.48709 0
M  V30 2737 C 244.319 -0.651995 -1.57108 0
M  V30 2738 O 245.504 -0.89913 -1.72132 0
M  V30 2739 C 242.634 -1.96492 -2.86371 0
M  V30 2740 C 241.588 -3.12161 -2.92813 0
M  V30 2741 C 240.914 -3.13877 -4.3288 0
M  V30 2742 C 242.214 -4.51322 -2.6288 0
M  V30 2743 H 243.908 -2.71589 -1.26015 0
M  V30 2744 H 241.454 -1.30684 -0.604778 0
M  V30 2745 H 243.407 -2.14255 -3.62867 0
M  V30 2746 H 242.131 -1.01611 -3.10391 0
M  V30 2747 H 240.79 -2.94173 -2.18764 0
M  V30 2748 H 240.438 -2.16687 -4.53933 0
M  V30 2749 H 240.138 -3.91576 -4.38112 0
M  V30 2750 H 241.662 -3.33789 -5.1129 0
M  V30 2751 H 243.076 -4.69435 -3.29096 0
M  V30 2752 H 241.473 -5.31053 -2.79468 0
M  V30 2753 H 242.543 -4.58353 -1.58242 0
M  V30 2754 N 243.887 0.651787 -1.4349 0
M  V30 2755 C 245.135 1.40888 -1.44897 0
M  V30 2756 C 245.456 1.94856 -0.0749086 0
M  V30 2757 O 244.726 1.74518 0.889956 0
M  V30 2758 H 243.306 0.522887 -0.533478 0
M  V30 2759 H 245.968 0.768609 -1.79104 0
M  V30 2760 H 245.064 2.25052 -2.16236 0
M  V30 2761 N 245.365 1.30045 0.890287 0
M  V30 2762 C 246.275 1.17885 2.02831 0
M  V30 2763 C 247.291 0.0999609 1.73713 0
M  V30 2764 O 248.467 0.313867 1.98939 0
M  V30 2765 C 245.532 0.866079 3.35708 0
M  V30 2766 C 244.593 2.02979 3.78283 0
M  V30 2767 C 243.826 1.73184 5.0482 0
M  V30 2768 O 244.049 0.657237 5.66601 0
M  V30 2769 O 242.983 2.58267 5.43674 0
M  V30 2770 H 246.809 2.13474 2.16015 0
M  V30 2771 H 244.394 1.09587 1.01543 0
M  V30 2772 H 246.276 0.706623 4.15433 0
M  V30 2773 H 244.951 -0.0599443 3.23644 0
M  V30 2774 H 243.858 2.24454 2.99285 0
M  V30 2775 H 245.191 2.93734 3.94944 0
M  V30 2776 N 246.843 -1.10192 1.12674 0
M  V30 2777 C 248.091 -1.81845 0.881861 0
M  V30 2778 C 248.412 -1.85737 -0.593867 0
M  V30 2779 O 247.682 -1.33724 -1.4316 0
M  V30 2780 H 246.262 -0.673432 0.323261 0
M  V30 2781 H 248.924 -1.33316 1.42172 0
M  V30 2782 H 248.02 -2.85288 1.2656 0
M  V30 2783 N 248.321 -0.919034 -1.28029 0
M  V30 2784 C 249.284 -0.416182 -2.2539 0
M  V30 2785 C 250.284 0.460438 -1.54067 0
M  V30 2786 O 251.474 0.262744 -1.72207 0
M  V30 2787 C 248.606 0.402707 -3.38513 0
M  V30 2788 H 249.799 -1.27629 -2.71387 0
M  V30 2789 H 247.352 -0.698919 -1.39803 0
M  V30 2790 H 248.087 1.282 -2.97885 0
M  V30 2791 H 247.872 -0.225698 -3.9145 0
M  V30 2792 H 249.362 0.745191 -4.10897 0
M  V30 2793 N 249.799 1.42003 -0.683588 0
M  V30 2794 C 251.046 2.01413 -0.209514 0
M  V30 2795 C 251.374 1.54088 1.1869 0
M  V30 2796 O 250.629 0.737591 1.81268 0
M  V30 2797 C 250.928 3.56827 -0.202357 0
M  V30 2798 C 250.594 4.23617 -1.54464 0
M  V30 2799 C 249.256 4.41577 -1.91215 0
M  V30 2800 C 251.608 4.61178 -2.42826 0
M  V30 2801 C 248.936 4.9437 -3.15935 0
M  V30 2802 C 251.288 5.15355 -3.66867 0
M  V30 2803 C 249.952 5.31528 -4.03776 0
M  V30 2804 H 249.222 0.737023 -0.0766668 0
M  V30 2805 H 251.869 1.70067 -0.880312 0
M  V30 2806 H 250.174 3.87892 0.551969 0
M  V30 2807 H 251.871 4.00588 0.181793 0
M  V30 2808 H 248.461 4.10004 -1.24877 0
M  V30 2809 H 252.645 4.46968 -2.15717 0
M  V30 2810 H 247.901 5.05076 -3.44541 0
M  V30 2811 H 252.075 5.43402 -4.35531 0
M  V30 2812 H 249.702 5.72199 -5.00492 0
M  V30 2813 N 251.277 0.427512 1.51691 0
M  V30 2814 C 252.525 -0.141948 2.01601 0
M  V30 2815 C 252.846 -1.44067 1.31414 0
M  V30 2816 O 252.116 -1.90763 0.445658 0
M  V30 2817 H 250.696 -0.0554468 0.744939 0
M  V30 2818 H 253.358 0.567968 1.86441 0
M  V30 2819 H 252.454 -0.324913 3.10404 0
M  V30 2820 N 252.755 -1.56801 0.158532 0
M  V30 2821 C 253.702 -2.17337 -0.776729 0
M  V30 2822 C 254.672 -1.1096 -1.23601 0
M  V30 2823 O 255.857 -1.39054 -1.30647 0
M  V30 2824 C 252.997 -2.80822 -2.00582 0
M  V30 2825 C 252.11 -4.01624 -1.59129 0
M  V30 2826 C 251.245 -4.53072 -2.77306 0
M  V30 2827 C 250.284 -5.66314 -2.32282 0
M  V30 2828 N 249.421 -6.12329 -3.43508 0
M  V30 2829 H 254.261 -2.96918 -0.253701 0
M  V30 2830 H 251.798 -1.46661 -0.113504 0
M  V30 2831 H 253.756 -3.15779 -2.72652 0
M  V30 2832 H 252.386 -2.03866 -2.50277 0
M  V30 2833 H 251.438 -3.72571 -0.767806 0
M  V30 2834 H 252.75 -4.83633 -1.2207 0
M  V30 2835 H 251.904 -4.90145 -3.57551 0
M  V30 2836 H 250.643 -3.70095 -3.17617 0
M  V30 2837 H 249.648 -5.28806 -1.5048 0
M  V30 2838 H 250.873 -6.51085 -1.93043 0
M  V30 2839 H 248.819 -5.32284 -3.83418 0
M  V30 2840 H 248.736 -6.89293 -3.105 0
M  V30 2841 H 250.004 -6.5405 -4.24075 0
M  V30 2842 N 254.233 0.115231 -1.57178 0
M  V30 2843 C 255.479 0.82357 -1.85325 0
M  V30 2844 C 255.812 1.79349 -0.744814 0
M  V30 2845 O 255.087 1.92899 0.249024 0
M  V30 2846 C 255.37 1.57014 -3.24066 0
M  V30 2847 C 255.223 0.619565 -4.45513 0
M  V30 2848 C 256.542 2.52545 -3.60429 0
M  V30 2849 H 253.661 0.297948 -0.674089 0
M  V30 2850 H 256.303 0.0877138 -1.89797 0
M  V30 2851 H 254.453 2.19742 -3.20383 0
M  V30 2852 H 256.125 0.000837639 -4.613 0
M  V30 2853 H 254.368 -0.0686174 -4.33746 0
M  V30 2854 H 255.039 1.17866 -5.3927 0
M  V30 2855 H 257.515 1.9992 -3.64926 0
M  V30 2856 H 256.391 3.01811 -4.58477 0
M  V30 2857 H 256.652 3.35383 -2.88047 0
M  V30 2858 N 255.711 1.52812 0.385517 0
M  V30 2859 C 256.957 1.68275 1.13188 0
M  V30 2860 C 257.29 0.423179 1.89533 0
M  V30 2861 O 256.565 -0.579113 1.85679 0
M  V30 2862 C 256.848 2.92001 2.1073 0
M  V30 2863 C 256.701 4.28067 1.38125 0
M  V30 2864 C 258.02 3.11283 3.11113 0
M  V30 2865 H 255.139 0.612352 0.410115 0
M  V30 2866 H 257.781 1.85415 0.414869 0
M  V30 2867 H 255.931 2.77519 2.71874 0
M  V30 2868 H 257.603 4.54324 0.799187 0
M  V30 2869 H 255.846 4.28388 0.683092 0
M  V30 2870 H 256.517 5.10733 2.09417 0
M  V30 2871 H 258.993 3.2482 2.6006 0
M  V30 2872 H 257.869 3.99325 3.76605 0
M  V30 2873 H 258.13 2.25656 3.80173 0
M  V30 2874 N 257.189 -0.644168 1.43834 0
M  V30 2875 C 258.099 -1.78563 1.52159 0
M  V30 2876 C 259.115 -1.69147 0.408069 0
M  V30 2877 O 260.291 -1.90156 0.663524 0
M  V30 2878 C 257.356 -3.14888 1.45073 0
M  V30 2879 C 256.417 -3.36034 2.6717 0
M  V30 2880 C 255.65 -4.65855 2.60413 0
M  V30 2881 O 255.873 -5.45805 1.65689 0
M  V30 2882 O 254.807 -4.88918 3.5106 0
M  V30 2883 H 258.633 -1.74494 2.48567 0
M  V30 2884 H 256.218 -0.80378 1.25935 0
M  V30 2885 H 258.1 -3.96179 1.43597 0
M  V30 2886 H 256.775 -3.19528 0.518037 0
M  V30 2887 H 255.682 -2.54472 2.74217 0
M  V30 2888 H 257.015 -3.36247 3.59442 0
M  V30 2889 N 258.668 -1.30515 -0.883378 0
M  V30 2890 C 259.908 -1.20716 -1.64946 0
M  V30 2891 C 260.272 0.234072 -1.90568 0
M  V30 2892 O 261.473 0.455335 -2.64915 0
M  V30 2893 C 259.744 -2.01444 -2.9522 0
M  V30 2894 S 261.303 -2.0836 -3.86175 0
M  V30 2895 H 258.121 -0.430165 -0.566109 0
M  V30 2896 H 260.723 -1.65011 -1.04841 0
M  V30 2897 H 259.427 -3.05268 -2.74298 0
M  V30 2898 H 258.958 -1.57817 -3.60357 0
M  V30 2899 H 260.973 -1.21215 -4.81167 0
M  V30 2900 N 260.146 1.09593 -1.13257 0
M  V30 2901 C 261.395 1.81105 -0.887917 0
M  V30 2902 C 261.708 1.86563 0.587672 0
M  V30 2903 O 262.914 2.54367 0.949204 0
M  V30 2904 C 261.37 3.25338 -1.53895 0
M  V30 2905 C 260.978 3.28151 -3.04994 0
M  V30 2906 C 262.722 4.01617 -1.37492 0
M  V30 2907 C 260.629 4.66897 -3.6299 0
M  V30 2908 H 259.559 0.678661 -0.328534 0
M  V30 2909 H 262.21 1.23183 -1.36008 0
M  V30 2910 H 260.592 3.8331 -0.994446 0
M  V30 2911 H 261.766 2.79953 -3.66009 0
M  V30 2912 H 260.081 2.65361 -3.20893 0
M  V30 2913 H 262.678 5.04119 -1.78235 0
M  V30 2914 H 263.021 4.15072 -0.31957 0
M  V30 2915 H 263.554 3.50082 -1.88912 0
M  V30 2916 H 260.293 4.58643 -4.68323 0
M  V30 2917 H 259.813 5.15426 -3.06752 0
M  V30 2918 H 261.492 5.3587 -3.62563 0
M  V30 2919 N 261.624 0.925811 1.2754 0
M  V30 2920 C 262.901 0.483726 1.89524 0
M  V30 2921 C 263.281 -1.03809 1.83812 0
M  V30 2922 O 262.629 -1.89143 1.28207 0
M  V30 2923 C 262.839 1.02769 3.33526 0
M  V30 2924 C 264.187 1.08703 4.10449 0
M  V30 2925 O 265.211 0.977175 3.42534 0
M  V30 2926 O 264.07 1.25599 5.31871 0
M  V30 2927 H 261.164 0.15529 0.812289 0
M  V30 2928 H 263.71 1.01738 1.35822 0
M  V30 2929 H 262.482 2.07155 3.31967 0
M  V30 2930 H 262.105 0.475567 3.94746 0
M  V30 2931 N 263.102 -1.41638 0.69111 0
M  V30 2932 C 264.052 -2.28 -0.000107832 0
M  V30 2933 C 265.036 -1.41964 -0.757304 0
M  V30 2934 O 266.228 -1.65274 -0.633532 0
M  V30 2935 C 263.357 -3.30209 -0.938983 0
M  V30 2936 C 262.443 -4.23725 -0.17827 0
M  V30 2937 N 262.834 -4.99017 0.825563 0
M  V30 2938 C 261.132 -4.44071 -0.414392 0
M  V30 2939 C 261.833 -5.67431 1.28052 0
M  V30 2940 N 260.809 -5.40197 0.607304 0
M  V30 2941 H 264.611 -2.83644 0.769617 0
M  V30 2942 H 262.125 -1.53797 0.521562 0
M  V30 2943 H 264.122 -3.90898 -1.44929 0
M  V30 2944 H 262.782 -2.76126 -1.70836 0
M  V30 2945 H 263.793 -5.03671 1.20566 0
M  V30 2946 H 260.47 -4.01004 -1.162 0
M  V30 2947 H 261.86 -6.37801 2.11327 0
M  V30 2948 N 264.58 -0.43555 -1.51462 0
M  V30 2949 C 265.828 0.131254 -2.01673 0
M  V30 2950 C 266.149 1.43368 -1.32177 0
M  V30 2951 O 265.419 1.90524 -0.455769 0
M  V30 2952 H 263.999 0.0514954 -0.745223 0
M  V30 2953 H 266.661 -0.577847 -1.86137 0
M  V30 2954 H 265.757 0.308446 -3.10572 0
M  V30 2955 N 266.058 1.56714 -0.166846 0
M  V30 2956 C 266.991 2.13577 0.80375 0
M  V30 2957 C 267.969 1.06464 1.22899 0
M  V30 2958 O 269.153 1.34413 1.32157 0
M  V30 2959 C 266.28 2.67168 2.0818 0
M  V30 2960 C 265.326 3.86612 1.80093 0
M  V30 2961 S 266.159 5.26565 0.97416 0
M  V30 2962 C 267.315 5.83558 2.26297 0
M  V30 2963 H 267.548 2.9557 0.320267 0
M  V30 2964 H 265.081 1.54326 0.0477555 0
M  V30 2965 H 267.039 2.98692 2.8159 0
M  V30 2966 H 265.7 1.85269 2.53642 0
M  V30 2967 H 264.893 4.22422 2.7491 0
M  V30 2968 H 264.495 3.55951 1.14781 0
M  V30 2969 H 266.787 5.962 3.21795 0
M  V30 2970 H 267.73 6.80731 1.94962 0
M  V30 2971 H 268.138 5.11944 2.37853 0
M  V30 2972 N 267.536 -0.106894 1.57237 0
M  V30 2973 C 268.813 -0.843526 1.76477 0
M  V30 2974 C 269.193 -1.97499 0.745464 0
M  V30 2975 O 268.541 -2.27357 -0.228306 0
M  V30 2976 C 268.751 -1.34903 3.21873 0
M  V30 2977 C 270.099 -1.79654 3.8472 0
M  V30 2978 O 271.123 -1.44554 3.2555 0
M  V30 2979 O 269.982 -2.44515 4.88748 0
M  V30 2980 H 267.076 -0.401468 0.723016 0
M  V30 2981 H 269.622 -0.0896927 1.69463 0
M  V30 2982 H 268.394 -0.53781 3.87586 0
M  V30 2983 H 268.017 -2.16522 3.33473 0
M  V30 2984 N 269.014 -1.53014 -0.377408 0
M  V30 2985 C 270.262 -1.6829 -1.11906 0
M  V30 2986 C 270.583 -0.431206 -1.90173 0
M  V30 2987 O 269.853 0.554595 -1.87886 0
M  V30 2988 H 268.433 -0.620371 -0.416112 0
M  V30 2989 H 271.095 -1.90167 -0.426893 0
M  V30 2990 H 270.191 -2.53862 -1.8155 0
M  V30 2991 N 270.492 0.636531 -1.44174 0
M  V30 2992 C 271.425 1.76139 -1.45087 0
M  V30 2993 C 272.403 1.59611 -0.310326 0
M  V30 2994 O 273.587 1.81568 -0.506477 0
M  V30 2995 C 270.714 3.13648 -1.27839 0
M  V30 2996 C 269.76 3.48838 -2.45386 0
M  V30 2997 S 270.593 3.46927 -4.07924 0
M  V30 2998 C 271.749 4.87064 -3.9309 0
M  V30 2999 H 271.982 1.75096 -2.40268 0
M  V30 3000 H 269.515 0.810666 -1.31406 0
M  V30 3001 H 271.473 3.93002 -1.18575 0
M  V30 3002 H 270.134 3.12235 -0.341787 0
M  V30 3003 H 269.327 4.48886 -2.29167 0
M  V30 3004 H 268.929 2.76935 -2.51362 0
M  V30 3005 H 271.221 5.76153 -3.56446 0
M  V30 3006 H 272.164 5.08337 -4.92949 0
M  V30 3007 H 272.572 4.61384 -3.25246 0
M  V30 3008 N 271.97 1.30982 0.876444 0
M  V30 3009 C 272.92 1.14688 1.97055 0
M  V30 3010 C 273.904 0.0596593 1.60789 0
M  V30 3011 O 275.096 0.283892 1.74708 0
M  V30 3012 C 272.225 0.849627 3.3262 0
M  V30 3013 C 271.311 1.97752 3.75173 0
M  V30 3014 N 271.702 3.22384 3.89746 0
M  V30 3015 C 270 1.8758 4.04635 0
M  V30 3016 C 270.701 3.96121 4.25985 0
M  V30 3017 N 269.677 3.24237 4.36315 0
M  V30 3018 H 273.479 2.09204 2.06424 0
M  V30 3019 H 270.993 1.22445 1.06682 0
M  V30 3020 H 272.99 0.713895 4.10742 0
M  V30 3021 H 271.65 -0.087376 3.24582 0
M  V30 3022 H 272.661 3.57575 3.74647 0
M  V30 3023 H 269.338 1.01303 4.05024 0
M  V30 3024 H 270.728 5.03491 4.44911 0
M  V30 3025 N 273.449 -1.08991 1.13837 0
M  V30 3026 C 274.695 -1.81526 0.90422 0
M  V30 3027 C 275.028 -1.85706 -0.568066 0
M  V30 3028 O 274.303 -1.32855 -1.42056 0
M  V30 3029 C 274.586 -3.27447 1.49835 0
M  V30 3030 C 274.439 -3.31512 3.04006 0
M  V30 3031 C 275.758 -4.24256 1.17025 0
M  V30 3032 H 272.877 -0.659029 0.329923 0
M  V30 3033 H 275.519 -1.27644 1.40737 0
M  V30 3034 H 273.669 -3.73462 1.07044 0
M  V30 3035 H 275.341 -2.93867 3.55584 0
M  V30 3036 H 273.584 -2.70963 3.38765 0
M  V30 3037 H 274.255 -4.34329 3.40679 0
M  V30 3038 H 276.731 -3.86549 1.54009 0
M  V30 3039 H 275.607 -5.24684 1.61237 0
M  V30 3040 H 275.868 -4.42019 0.0846274 0
M  V30 3041 N 274.927 -0.932562 -1.27047 0
M  V30 3042 C 275.89 -0.440064 -2.24936 0
M  V30 3043 C 276.89 0.444071 -1.54547 0
M  V30 3044 O 278.08 0.244465 -1.72476 0
M  V30 3045 C 275.212 0.36678 -3.38921 0
M  V30 3046 H 276.405 -1.305 -2.70018 0
M  V30 3047 H 273.958 -0.713707 -1.39054 0
M  V30 3048 H 274.693 1.25033 -2.99228 0
M  V30 3049 H 274.478 -0.267204 -3.91188 0
M  V30 3050 H 275.968 0.701567 -4.11665 0
M  V30 3051 N 276.405 1.4127 -0.698611 0
M  V30 3052 C 277.651 2.01478 -0.231207 0
M  V30 3053 C 277.984 1.55215 1.16713 0
M  V30 3054 O 277.259 0.764672 1.78838 0
M  V30 3055 C 277.542 3.58912 -0.292281 0
M  V30 3056 C 277.395 4.15293 -1.72778 0
M  V30 3057 C 278.714 4.38736 0.346194 0
M  V30 3058 H 275.833 0.732025 -0.0854878 0
M  V30 3059 H 278.475 1.67977 -0.887906 0
M  V30 3060 H 276.625 3.87582 0.26686 0
M  V30 3061 H 278.297 3.97486 -2.341 0
M  V30 3062 H 276.54 3.7022 -2.26096 0
M  V30 3063 H 277.211 5.24452 -1.72202 0
M  V30 3064 H 279.687 4.15897 -0.130035 0
M  V30 3065 H 278.563 5.48221 0.272932 0
M  V30 3066 H 278.824 4.18425 1.42734 0
M  V30 3067 N 277.883 0.443576 1.51229 0
M  V30 3068 C 278.83 -0.364716 2.279 0
M  V30 3069 C 279.8 -1.0114 1.31757 0
M  V30 3070 O 280.985 -1.02912 1.60667 0
M  V30 3071 C 278.125 -1.45644 3.12861 0
M  V30 3072 C 277.238 -0.827269 4.24005 0
M  V30 3073 C 276.373 -1.89456 4.96266 0
M  V30 3074 C 275.412 -1.24416 5.99322 0
M  V30 3075 N 274.549 -2.25309 6.64966 0
M  V30 3076 H 279.389 0.295464 2.96532 0
M  V30 3077 H 276.926 0.157554 1.46254 0
M  V30 3078 H 278.884 -2.10076 3.6045 0
M  V30 3079 H 277.514 -2.08616 2.46331 0
M  V30 3080 H 276.566 -0.0710839 3.80334 0
M  V30 3081 H 277.878 -0.312481 4.9782 0
M  V30 3082 H 277.032 -2.61535 5.47434 0
M  V30 3083 H 275.771 -2.4431 4.22095 0
M  V30 3084 H 274.776 -0.508868 5.4744 0
M  V30 3085 H 276.001 -0.702882 6.75453 0
M  V30 3086 H 273.947 -2.79231 5.93604 0
M  V30 3087 H 273.864 -1.78739 7.34567 0
M  V30 3088 H 275.132 -2.96853 7.20763 0
M  V30 3089 N 279.361 -1.56624 0.175154 0
M  V30 3090 C 280.61 -1.96173 -0.468921 0
M  V30 3091 C 280.923 -1.06401 -1.64128 0
M  V30 3092 O 282.129 -1.35648 -2.35185 0
M  V30 3093 C 280.585 -3.48833 -0.885633 0
M  V30 3094 C 280.193 -4.47237 0.261343 0
M  V30 3095 C 281.937 -3.97194 -1.49791 0
M  V30 3096 C 279.844 -5.9114 -0.175214 0
M  V30 3097 H 278.774 -0.732455 -0.178958 0
M  V30 3098 H 281.425 -1.81591 0.263997 0
M  V30 3099 H 279.807 -3.58848 -1.67464 0
M  V30 3100 H 280.981 -4.4894 1.03871 0
M  V30 3101 H 279.296 -4.08956 0.783827 0
M  V30 3102 H 281.893 -5.02167 -1.83665 0
M  V30 3103 H 282.236 -3.40351 -2.39722 0
M  V30 3104 H 282.769 -3.90212 -0.773267 0
M  V30 3105 H 279.508 -6.51865 0.689414 0
M  V30 3106 H 279.028 -5.92735 -0.91786 0
M  V30 3107 H 280.707 -6.44044 -0.617792 0
M  V30 3108 N 280.839 0.0985539 -1.57292 0
M  V30 3109 C 282.085 0.803867 -1.86188 0
M  V30 3110 C 282.418 1.78549 -0.763794 0
M  V30 3111 O 281.693 1.93153 0.22855 0
M  V30 3112 C 281.976 1.53568 -3.25713 0
M  V30 3113 C 281.829 0.572277 -4.46145 0
M  V30 3114 C 283.148 2.48708 -3.63087 0
M  V30 3115 H 280.267 0.290781 -0.677211 0
M  V30 3116 H 282.909 0.0675783 -1.8988 0
M  V30 3117 H 281.059 2.16332 -3.22696 0
M  V30 3118 H 282.731 -0.0480894 -4.61275 0
M  V30 3119 H 280.974 -0.114618 -4.33649 0
M  V30 3120 H 281.645 1.12139 -5.40489 0
M  V30 3121 H 284.121 1.96039 -3.67026 0
M  V30 3122 H 282.997 2.96932 -4.61652 0
M  V30 3123 H 283.258 3.32309 -2.91588 0
M  V30 3124 N 282.317 1.53212 0.369288 0
M  V30 3125 C 283.264 1.79388 1.45219 0
M  V30 3126 C 284.234 0.638059 1.53356 0
M  V30 3127 O 285.419 0.879852 1.69302 0
M  V30 3128 C 282.559 1.98623 2.82211 0
M  V30 3129 C 281.672 3.26337 2.8307 0
M  V30 3130 C 280.807 3.35779 4.11614 0
M  V30 3131 C 279.846 4.5754 4.06601 0
M  V30 3132 N 278.983 4.64155 5.26787 0
M  V30 3133 H 283.823 2.71794 1.22198 0
M  V30 3134 H 281.36 1.34642 0.592444 0
M  V30 3135 H 283.318 2.07761 3.61789 0
M  V30 3136 H 281.948 1.09558 3.03639 0
M  V30 3137 H 281 3.26171 1.95747 0
M  V30 3138 H 282.312 4.15988 2.75237 0
M  V30 3139 H 281.466 3.44208 4.99606 0
M  V30 3140 H 280.205 2.44137 4.22195 0
M  V30 3141 H 279.21 4.49215 3.16996 0
M  V30 3142 H 280.435 5.50519 3.97625 0
M  V30 3143 H 278.381 3.75413 5.3796 0
M  V30 3144 H 278.298 5.47706 5.21109 0
M  V30 3145 H 279.566 4.76863 6.16621 0
M  V30 3146 N 283.795 -0.628877 1.44509 0
M  V30 3147 C 284.743 -1.76193 1.51852 0
M  V30 3148 C 285.737 -1.64849 0.390042 0
M  V30 3149 O 286.943 -1.709 0.565082 0
M  V30 3150 H 283.318 -0.581728 0.476547 0
M  V30 3151 H 285.289 -1.67123 2.47209 0
M  V30 3152 C 284.038 -3.14533 1.48204 0
M  V30 3153 H 283.361 -3.23911 2.34354 0
M  V30 3154 H 284.801 -3.93701 1.57402 0
M  V30 3155 C 283.26 -3.36287 0.203142 0
M  V30 3156 O 283.79 -3.9509 -0.725745 0
M  V30 3157 N 281.996 -2.90408 0.105563 0
M  V30 3158 H 281.543 -2.42739 0.862301 0
M  V30 3159 H 281.501 -3.05339 -0.749371 0
M  V30 3160 N 285.273 -1.31445 -0.869486 0
M  V30 3161 C 286.519 -1.21337 -1.62496 0
M  V30 3162 C 286.852 0.227872 -1.92858 0
M  V30 3163 O 286.127 1.16094 -1.56053 0
M  V30 3164 C 286.41 -2.05814 -2.95487 0
M  V30 3165 C 286.263 -3.5824 -2.72 0
M  V30 3166 C 287.582 -1.9079 -3.96594 0
M  V30 3167 H 284.701 -0.442135 -0.589649 0
M  V30 3168 H 287.343 -1.6124 -1.00507 0
M  V30 3169 H 285.493 -1.71913 -3.48394 0
M  V30 3170 H 287.165 -4.0228 -2.25762 0
M  V30 3171 H 285.408 -3.81647 -2.06224 0
M  V30 3172 H 286.079 -4.12657 -3.66631 0
M  V30 3173 H 288.555 -2.20459 -3.52898 0
M  V30 3174 H 287.431 -2.52199 -4.87531 0
M  V30 3175 H 287.692 -0.871341 -4.33428 0
M  V30 3176 N 286.751 1.08385 -1.14413 0
M  V30 3177 C 287.999 1.80419 -0.910679 0
M  V30 3178 C 288.32 1.86658 0.564243 0
M  V30 3179 O 287.59 1.35985 1.41014 0
M  V30 3180 H 286.17 0.668204 -0.333934 0
M  V30 3181 H 288.832 1.31037 -1.44275 0
M  V30 3182 H 287.928 2.83238 -1.31082 0
M  V30 3183 N 288.23 0.939286 1.26551 0
M  V30 3184 C 289.646 0.641304 1.46149 0
M  V30 3185 C 289.846 -0.805964 1.84679 0
M  V30 3186 O 288.902 -1.58278 1.96734 0
M  V30 3187 C 290.215 1.6011 2.54529 0
M  V30 3188 C 291.763 1.6106 2.68382 0
M  V30 3189 C 292.238 2.55765 3.79932 0
M  V30 3190 N 293.729 2.5404 3.87322 0
M  V30 3191 C 294.464 3.24004 4.73085 0
M  V30 3192 N 293.96 4.03388 5.63249 0
M  V30 3193 N 295.753 3.12965 4.66914 0
M  V30 3194 H 287.904 1.87478 0.998285 0
M  V30 3195 H 290.167 0.805559 0.499779 0
M  V30 3196 H 289.873 2.63412 2.33039 0
M  V30 3197 H 289.747 1.35171 3.52149 0
M  V30 3198 H 292.134 0.584835 2.89247 0
M  V30 3199 H 292.215 1.90053 1.71212 0
M  V30 3200 H 291.859 3.58458 3.5982 0
M  V30 3201 H 291.789 2.24063 4.76554 0
M  V30 3202 H 294.28 1.96396 3.22858 0
M  V30 3203 H 294.593 4.5373 6.25579 0
M  V30 3204 H 292.938 4.07489 5.63008 0
M  V30 3205 H 296.129 2.50432 3.95476 0
M  V30 3206 H 296.302 3.67759 5.33533 0
M  V30 3207 N 289.708 -1.40897 0.706093 0
M  V30 3208 C 290.938 -2.05075 0.250523 0
M  V30 3209 C 291.346 -1.53275 -1.10921 0
M  V30 3210 O 290.689 -0.680281 -1.7064 0
M  V30 3211 C 290.751 -3.59219 0.142178 0
M  V30 3212 C 290.415 -4.33864 1.43566 0
M  V30 3213 C 291.412 -4.62448 2.37566 0
M  V30 3214 C 289.097 -4.72946 1.69195 0
M  V30 3215 C 291.091 -5.29088 3.5545 0
M  V30 3216 C 288.778 -5.3932 2.87362 0
M  V30 3217 C 289.776 -5.6732 3.80312 0
M  V30 3218 O 289.464 -6.32325 4.96408 0
M  V30 3219 H 289.196 -0.666645 0.112074 0
M  V30 3220 H 291.75 -1.81467 0.962239 0
M  V30 3221 H 289.98 -3.81609 -0.6254 0
M  V30 3222 H 291.669 -4.0495 -0.277584 0
M  V30 3223 H 292.435 -4.32727 2.19027 0
M  V30 3224 H 288.314 -4.50527 0.977042 0
M  V30 3225 H 291.858 -5.50859 4.28018 0
M  V30 3226 H 287.755 -5.68461 3.05814 0
M  V30 3227 H 288.523 -6.50821 4.9636 0
M  V30 3228 N 291.186 -0.45159 -1.50991 0
M  V30 3229 C 292.602 -0.104647 -1.59257 0
M  V30 3230 C 292.802 1.38728 -1.4614 0
M  V30 3231 O 291.858 2.15866 -1.30989 0
M  V30 3232 C 293.171 -0.637468 -2.93865 0
M  V30 3233 C 294.719 -0.599166 -3.07212 0
M  V30 3234 C 295.194 -1.1092 -4.44366 0
M  V30 3235 N 296.685 -1.06778 -4.50725 0
M  V30 3236 C 297.42 -1.43314 -5.55201 0
M  V30 3237 N 296.916 -1.87204 -6.67028 0
M  V30 3238 N 298.709 -1.3504 -5.45638 0
M  V30 3239 H 290.86 -1.42214 -1.57762 0
M  V30 3240 H 293.123 -0.586921 -0.744465 0
M  V30 3241 H 292.829 -1.68187 -3.08879 0
M  V30 3242 H 292.703 -0.0702139 -3.77135 0
M  V30 3243 H 295.09 0.436277 -2.91857 0
M  V30 3244 H 295.171 -1.20299 -2.25747 0
M  V30 3245 H 294.815 -2.14318 -4.60467 0
M  V30 3246 H 294.745 -0.481773 -5.24392 0
M  V30 3247 H 297.236 -0.745643 -3.70471 0
M  V30 3248 H 297.549 -2.13282 -7.42786 0
M  V30 3249 H 295.894 -1.91142 -6.68199 0
M  V30 3250 H 299.085 -1.00607 -4.57161 0
M  V30 3251 H 299.258 -1.63841 -6.26945 0
M  V30 3252 N 292.664 1.56529 -0.183458 0
M  V30 3253 C 293.574 2.22144 0.754272 0
M  V30 3254 C 294.59 1.21684 1.24374 0
M  V30 3255 O 295.766 1.54385 1.29333 0
M  V30 3256 C 292.831 2.85884 1.96141 0
M  V30 3257 C 291.892 4.01579 1.51765 0
M  V30 3258 C 291.125 4.6227 2.66725 0
M  V30 3259 O 291.348 4.21865 3.83909 0
M  V30 3260 O 290.282 5.51936 2.40104 0
M  V30 3261 H 294.108 3.02861 0.225527 0
M  V30 3262 H 291.693 1.49331 0.0453032 0
M  V30 3263 H 293.575 3.26253 2.66715 0
M  V30 3264 H 292.25 2.08154 2.47899 0
M  V30 3265 H 291.157 3.65856 0.781049 0
M  V30 3266 H 292.49 4.80938 1.04686 0
M  V30 3267 N 294.142 -0.090211 1.57342 0
M  V30 3268 C 295.105 -1.09335 2.01441 0
M  V30 3269 C 296.105 -1.32666 0.908641 0
M  V30 3270 O 297.295 -1.28697 1.174 0
M  V30 3271 C 294.427 -2.44136 2.3793 0
M  V30 3272 H 295.62 -0.713662 2.91285 0
M  V30 3273 H 293.173 -0.335404 1.52659 0
M  V30 3274 H 293.908 -2.86972 1.51055 0
M  V30 3275 H 293.693 -2.28548 3.18603 0
M  V30 3276 H 295.183 -3.16277 2.72688 0
M  V30 3277 N 295.62 -1.53406 -0.361157 0
M  V30 3278 C 296.583 -1.79479 -1.42548 0
M  V30 3279 C 297.583 -0.665327 -1.4639 0
M  V30 3280 O 298.773 -0.933549 -1.47073 0
M  V30 3281 C 295.905 -1.92087 -2.8163 0
M  V30 3282 H 297.098 -2.74538 -1.20701 0
M  V30 3283 H 294.651 -1.4455 -0.594546 0
M  V30 3284 H 295.386 -0.991099 -3.08784 0
M  V30 3285 H 295.171 -2.74241 -2.80239 0
M  V30 3286 H 296.661 -2.13836 -3.58697 0
M  V30 3287 N 297.098 0.621204 -1.44841 0
M  V30 3288 C 298.514 0.94048 -1.28946 0
M  V30 3289 C 298.714 2.00154 -0.23249 0
M  V30 3290 O 297.77 2.49651 0.378237 0
M  V30 3291 C 299.083 1.39433 -2.66419 0
M  V30 3292 C 300.631 1.50927 -2.74208 0
M  V30 3293 C 301.106 1.99692 -4.12174 0
M  V30 3294 N 302.597 2.06947 -4.144 0
M  V30 3295 C 303.332 2.45871 -5.1801 0
M  V30 3296 N 302.828 2.83862 -6.31977 0
M  V30 3297 N 304.621 2.46092 -5.05366 0
M  V30 3298 H 296.772 -0.0803548 -2.12248 0
M  V30 3299 H 299.035 0.0266913 -0.947624 0
M  V30 3300 H 298.741 0.688925 -3.44887 0
M  V30 3301 H 298.615 2.36347 -2.93973 0
M  V30 3302 H 301.002 2.20561 -1.96053 0
M  V30 3303 H 301.083 0.523627 -2.50383 0
M  V30 3304 H 300.727 1.30649 -4.90809 0
M  V30 3305 H 300.657 2.99146 -4.33381 0
M  V30 3306 H 303.148 1.80232 -3.32152 0
M  V30 3307 H 303.461 3.12405 -7.0684 0
M  V30 3308 H 301.806 2.8159 -6.35399 0
M  V30 3309 H 304.997 2.1581 -4.15384 0
M  V30 3310 H 305.17 2.76102 -5.86235 0
M  V30 3311 N 298.576 1.31904 0.862503 0
M  V30 3312 C 299.801 1.25135 1.65397 0
M  V30 3313 C 300.226 -0.179 1.87246 0
M  V30 3314 O 299.584 -1.1277 1.4196 0
M  V30 3315 C 299.632 2.00832 2.99498 0
M  V30 3316 O 298.736 1.35075 3.89652 0
M  V30 3317 H 298.077 0.431655 0.504549 0
M  V30 3318 H 300.607 1.74094 1.07483 0
M  V30 3319 H 300.617 2.10709 3.49379 0
M  V30 3320 H 299.292 3.04847 2.82916 0
M  V30 3321 H 297.869 1.33696 3.48109 0
M  V30 3322 N 300.054 -1.07777 1.14986 0
M  V30 3323 C 300.964 -2.18404 0.856546 0
M  V30 3324 C 301.98 -1.73211 -0.165485 0
M  V30 3325 O 303.156 -2.01399 0.00755219 0
M  V30 3326 C 300.221 -3.44977 0.34526 0
M  V30 3327 C 299.282 -4.0476 1.43065 0
M  V30 3328 C 298.515 -5.25291 0.943663 0
M  V30 3329 O 298.738 -5.70004 -0.212426 0
M  V30 3330 O 297.672 -5.76638 1.72547 0
M  V30 3331 H 301.498 -2.45978 1.78125 0
M  V30 3332 H 299.083 -1.17033 0.928631 0
M  V30 3333 H 300.965 -4.21348 0.0663671 0
M  V30 3334 H 299.64 -3.18965 -0.551631 0
M  V30 3335 H 298.547 -3.29949 1.76309 0
M  V30 3336 H 299.88 -4.35035 2.30229 0
M  V30 3337 N 301.532 -0.945985 -1.26051 0
M  V30 3338 C 302.781 -0.591836 -1.92822 0
M  V30 3339 C 303.094 0.873956 -1.7499 0
M  V30 3340 O 304.3 1.33769 -2.36259 0
M  V30 3341 C 302.756 -1.00776 -3.45503 0
M  V30 3342 C 302.364 -2.4955 -3.7206 0
M  V30 3343 C 304.108 -0.725735 -4.1825 0
M  V30 3344 C 302.015 -2.84988 -5.18205 0
M  V30 3345 H 300.945 -0.217635 -0.721908 0
M  V30 3346 H 303.596 -1.14927 -1.43052 0
M  V30 3347 H 301.978 -0.378812 -3.94184 0
M  V30 3348 H 303.152 -3.1739 -3.34066 0
M  V30 3349 H 301.467 -2.75133 -3.12555 0
M  V30 3350 H 304.064 -0.966771 -5.25887 0
M  V30 3351 H 304.407 0.337639 -4.14929 0
M  V30 3352 H 304.94 -1.31463 -3.7545 0
M  V30 3353 H 301.679 -3.90307 -5.26631 0
M  V30 3354 H 301.199 -2.21813 -5.57278 0
M  V30 3355 H 302.878 -2.73712 -5.86252 0
M  V30 3356 N 303.011 1.40521 -0.713556 0
M  V30 3357 C 303.943 2.29191 -0.0203126 0
M  V30 3358 C 304.956 1.45723 0.725864 0
M  V30 3359 O 306.145 1.69033 0.573581 0
M  V30 3360 C 303.245 3.2395 0.995486 0
M  V30 3361 C 302.418 4.36262 0.315256 0
M  V30 3362 C 301.477 5.11474 1.23616 0
M  V30 3363 O 300.503 5.64606 0.721719 0
M  V30 3364 N 301.705 5.20638 2.56743 0
M  V30 3365 H 304.47 2.89327 -0.781652 0
M  V30 3366 H 302.031 1.51869 -0.561022 0
M  V30 3367 H 304.023 3.71137 1.61368 0
M  V30 3368 H 302.593 2.64995 1.6582 0
M  V30 3369 H 301.813 3.91228 -0.483106 0
M  V30 3370 H 303.101 5.08558 -0.157004 0
M  V30 3371 H 302.499 4.7895 3.01037 0
M  V30 3372 H 301.056 5.71339 3.13712 0
M  V30 3373 N 304.489 0.459591 1.5075 0
M  V30 3374 C 305.735 -0.0994966 2.02556 0
M  V30 3375 C 306.068 -1.40399 1.3417 0
M  V30 3376 O 305.343 -1.88892 0.463683 0
M  V30 3377 C 305.626 -0.295242 3.58888 0
M  V30 3378 C 305.479 1.02947 4.37861 0
M  V30 3379 C 306.798 -1.05502 4.27267 0
M  V30 3380 H 303.917 -0.034686 0.736183 0
M  V30 3381 H 306.559 0.602938 1.8018 0
M  V30 3382 H 304.709 -0.893563 3.78084 0
M  V30 3383 H 306.381 1.66348 4.30263 0
M  V30 3384 H 304.624 1.62885 4.02058 0
M  V30 3385 H 305.295 0.846281 5.45474 0
M  V30 3386 H 307.771 -0.547993 4.12476 0
M  V30 3387 H 306.647 -1.16077 5.36486 0
M  V30 3388 H 306.908 -2.08875 3.89645 0
M  V30 3389 N 305.967 -1.56429 0.191757 0
M  V30 3390 C 306.897 -2.21937 -0.725696 0
M  V30 3391 C 307.878 -1.1814 -1.2238 0
M  V30 3392 O 309.063 -1.46636 -1.27325 0
M  V30 3393 C 306.193 -2.87611 -1.94672 0
M  V30 3394 C 305.147 -3.97623 -1.58366 0
M  V30 3395 C 304.473 -4.50446 -2.88102 0
M  V30 3396 C 305.773 -5.16197 -0.796133 0
M  V30 3397 H 307.467 -2.98861 -0.179606 0
M  V30 3398 H 305.013 -1.43749 -0.0849464 0
M  V30 3399 H 306.966 -3.3212 -2.59373 0
M  V30 3400 H 305.69 -2.08087 -2.51728 0
M  V30 3401 H 304.349 -3.53801 -0.960247 0
M  V30 3402 H 303.997 -3.67688 -3.43241 0
M  V30 3403 H 303.697 -5.24675 -2.64556 0
M  V30 3404 H 305.221 -4.97654 -3.53798 0
M  V30 3405 H 306.635 -5.57271 -1.34618 0
M  V30 3406 H 305.032 -5.96471 -0.658928 0
M  V30 3407 H 306.102 -4.84473 0.203478 0
M  V30 3408 N 307.445 0.0818655 -1.57387 0
M  V30 3409 C 308.355 1.11642 -2.06333 0
M  V30 3410 C 309.371 1.43033 -0.99083 0
M  V30 3411 O 310.547 1.53411 -1.30488 0
M  V30 3412 C 307.612 2.41342 -2.48907 0
M  V30 3413 C 306.673 2.17014 -3.7041 0
M  V30 3414 C 305.906 3.4053 -4.10944 0
M  V30 3415 O 306.129 4.4927 -3.51444 0
M  V30 3416 O 305.063 3.29336 -5.03807 0
M  V30 3417 H 308.889 0.730657 -2.9478 0
M  V30 3418 H 306.474 0.295301 -1.46452 0
M  V30 3419 H 308.356 3.17691 -2.76858 0
M  V30 3420 H 307.031 2.79319 -1.63593 0
M  V30 3421 H 305.938 1.38403 -3.47556 0
M  V30 3422 H 307.271 1.83923 -4.56545 0
M  V30 3423 N 308.923 1.53595 0.353017 0
M  V30 3424 C 309.873 1.77299 1.43349 0
M  V30 3425 C 310.857 0.627884 1.48143 0
M  V30 3426 O 312.049 0.88697 1.53173 0
M  V30 3427 C 309.178 1.97757 2.80619 0
M  V30 3428 C 308.264 3.18305 2.80254 0
M  V30 3429 N 308.655 4.39967 2.49526 0
M  V30 3430 C 306.953 3.19283 3.11407 0
M  V30 3431 C 307.654 5.21772 2.57156 0
M  V30 3432 N 306.63 4.58269 2.92388 0
M  V30 3433 H 310.432 2.68963 1.18474 0
M  V30 3434 H 307.946 1.52391 0.561306 0
M  V30 3435 H 309.943 2.1287 3.58458 0
M  V30 3436 H 308.603 1.07329 3.06448 0
M  V30 3437 H 309.614 4.67482 2.22893 0
M  V30 3438 H 306.291 2.3879 3.4247 0
M  V30 3439 H 307.681 6.2885 2.36638 0
M  V30 3440 N 310.401 -0.613514 1.45168 0
M  V30 3441 C 311.331 -1.7354 1.56225 0
M  V30 3442 C 312.312 -1.64981 0.41414 0
M  V30 3443 O 313.497 -1.83472 0.636526 0
M  V30 3444 C 310.627 -3.12128 1.52295 0
M  V30 3445 C 309.581 -3.35491 2.65762 0
M  V30 3446 C 308.907 -4.74291 2.46885 0
M  V30 3447 C 310.207 -3.26325 4.0781 0
M  V30 3448 H 311.901 -1.64543 2.50132 0
M  V30 3449 H 309.447 -0.790185 1.20383 0
M  V30 3450 H 311.4 -3.90404 1.58628 0
M  V30 3451 H 310.124 -3.2195 0.549139 0
M  V30 3452 H 308.783 -2.59603 2.58847 0
M  V30 3453 H 308.431 -4.80839 1.47657 0
M  V30 3454 H 308.131 -4.9088 3.22972 0
M  V30 3455 H 309.655 -5.54775 2.55063 0
M  V30 3456 H 311.069 -3.94483 4.16 0
M  V30 3457 H 309.466 -3.54445 4.8424 0
M  V30 3458 H 310.536 -2.23855 4.30136 0
M  V30 3459 N 311.879 -1.3236 -0.855495 0
M  V30 3460 C 312.827 -1.2118 -1.9854 0
M  V30 3461 C 313.821 -0.116788 -1.68997 0
M  V30 3462 O 315.027 -0.279657 -1.77814 0
M  V30 3463 H 311.402 -0.375608 -0.651477 0
M  V30 3464 H 313.373 -2.16743 -2.05098 0
M  V30 3465 C 312.122 -0.950849 -3.34446 0
M  V30 3466 H 311.445 -1.78563 -3.57708 0
M  V30 3467 H 312.885 -0.912863 -4.14057 0
M  V30 3468 C 311.344 0.346404 -3.35114 0
M  V30 3469 O 311.874 1.35855 -3.7803 0
M  V30 3470 N 310.08 0.36808 -2.88259 0
M  V30 3471 H 309.627 -0.456102 -2.5353 0
M  V30 3472 H 309.585 1.23591 -2.89089 0
M  V30 3473 N 313.357 1.07166 -1.15556 0
M  V30 3474 C 314.582 1.84053 -0.955988 0
M  V30 3475 C 315.007 1.81586 0.490739 0
M  V30 3476 O 314.365 1.21018 1.34997 0
M  V30 3477 C 314.413 3.28957 -1.47714 0
M  V30 3478 O 313.517 4.06795 -0.677593 0
M  V30 3479 H 312.858 0.569842 -0.340847 0
M  V30 3480 H 315.388 1.35178 -1.53584 0
M  V30 3481 H 315.398 3.79788 -1.4908 0
M  V30 3482 H 314.073 3.30068 -2.53037 0
M  V30 3483 H 312.65 3.6561 -0.733721 0
M  V30 3484 N 314.835 0.952656 1.25548 0
M  V30 3485 C 316.063 0.623496 1.97282 0
M  V30 3486 C 316.478 -0.803987 1.70826 0
M  V30 3487 O 315.835 -1.53755 0.983147 0
M  V30 3488 C 315.886 0.870209 3.5087 0
M  V30 3489 O 315.607 2.24156 3.76412 0
M  V30 3490 C 317.108 0.553164 4.39835 0
M  V30 3491 H 314.328 0.233931 0.628902 0
M  V30 3492 H 316.872 1.27649 1.59768 0
M  V30 3493 H 315.027 0.263652 3.86502 0
M  V30 3494 H 315.441 2.31021 4.70882 0
M  V30 3495 H 316.915 0.776342 5.46513 0
M  V30 3496 H 317.392 -0.512215 4.36203 0
M  V30 3497 H 317.998 1.13896 4.09766 0
M  V30 3498 N 316.313 -1.40141 0.720998 0
M  V30 3499 C 317.59 -1.94677 0.189757 0
M  V30 3500 C 317.97 -1.65879 -1.30566 0
M  V30 3501 O 317.318 -0.979391 -2.06447 0
M  V30 3502 C 317.528 -3.45279 0.508304 0
M  V30 3503 C 318.876 -4.22209 0.449934 0
M  V30 3504 O 319.9 -3.53413 0.444677 0
M  V30 3505 O 318.759 -5.44788 0.432189 0
M  V30 3506 H 315.853 -0.826459 0.0299026 0
M  V30 3507 H 318.399 -1.49719 0.7989 0
M  V30 3508 H 317.171 -3.59619 1.54239 0
M  V30 3509 H 316.794 -3.97386 -0.130525 0
M  V30 3510 N 317.792 -0.46758 -1.50504 0
M  V30 3511 C 319.203 -0.0116166 -1.86696 0
M  V30 3512 C 319.554 1.39202 -1.38265 0
M  V30 3513 O 318.679 2.0313 -0.746132 0
M  V30 3514 C 319.274 -0.0143044 -3.38797 0
M  V30 3515 C 317.833 0.386175 -3.74414 0
M  V30 3516 C 316.98 -0.401287 -2.74381 0
M  V30 3517 H 319.931 -0.682022 -1.43297 0
M  V30 3518 H 319.952 0.788641 -3.72237 0
M  V30 3519 H 319.464 -1.03602 -3.74016 0
M  V30 3520 H 317.565 1.41237 -3.44794 0
M  V30 3521 H 317.678 0.0899596 -4.79016 0
M  V30 3522 H 316.042 0.144536 -2.5429 0
M  V30 3523 H 316.825 -1.42244 -3.12444 0
M  V30 3524 N 319.27 1.56325 -0.20005 0
M  V30 3525 C 320.218 2.20666 0.735482 0
M  V30 3526 C 321.212 1.17934 1.21605 0
M  V30 3527 O 322.418 1.36068 1.17837 0
M  V30 3528 H 318.793 0.70725 0.255542 0
M  V30 3529 H 320.764 2.9792 0.169166 0
M  V30 3530 C 319.513 2.88391 1.94232 0
M  V30 3531 H 318.836 3.67185 1.58161 0
M  V30 3532 H 320.276 3.3684 2.57517 0
M  V30 3533 C 318.735 1.89692 2.78421 0
M  V30 3534 O 319.265 1.40032 3.76502 0
M  V30 3535 N 317.471 1.57813 2.44015 0
M  V30 3536 H 317.018 1.9839 1.64314 0
M  V30 3537 H 316.976 0.920325 3.00628 0
M  V30 3538 N 320.748 -0.0735177 1.57428 0
M  V30 3539 C 321.973 -0.789787 1.91774 0
M  V30 3540 C 322.398 -1.70413 0.796306 0
M  V30 3541 O 321.756 -1.79555 -0.250961 0
M  V30 3542 C 321.804 -1.5609 3.25067 0
M  V30 3543 O 320.908 -2.67144 3.14178 0
M  V30 3544 H 320.249 -0.215582 0.628029 0
M  V30 3545 H 322.779 -0.0422781 2.04556 0
M  V30 3546 H 322.789 -1.94052 3.58898 0
M  V30 3547 H 321.464 -0.890015 4.06265 0
M  V30 3548 H 320.041 -2.32052 2.91901 0
M  V30 3549 N 322.226 -1.5378 -0.344866 0
M  V30 3550 C 323.472 -1.71216 -1.08687 0
M  V30 3551 C 323.805 -0.473281 -1.88345 0
M  V30 3552 O 323.08 0.52968 -1.87149 0
M  V30 3553 C 323.363 -2.97486 -2.02914 0
M  V30 3554 C 323.216 -4.31579 -1.26727 0
M  V30 3555 C 324.535 -3.19422 -3.0275 0
M  V30 3556 H 321.654 -0.62301 -0.393735 0
M  V30 3557 H 324.296 -1.8645 -0.365563 0
M  V30 3558 H 322.446 -2.84629 -2.64421 0
M  V30 3559 H 324.118 -4.56284 -0.67845 0
M  V30 3560 H 322.361 -4.30049 -0.569273 0
M  V30 3561 H 323.032 -5.16106 -1.95803 0
M  V30 3562 H 325.508 -3.316 -2.51357 0
M  V30 3563 H 324.384 -4.09169 -3.65885 0
M  V30 3564 H 324.645 -2.35656 -3.74057 0
M  V30 3565 N 323.704 0.605807 -1.45491 0
M  V30 3566 C 324.951 1.36476 -1.49601 0
M  V30 3567 C 325.279 1.94007 -0.138452 0
M  V30 3568 O 324.534 1.75638 0.863114 0
M  V30 3569 C 324.833 2.53012 -2.52428 0
M  V30 3570 C 324.499 2.13617 -3.97087 0
M  V30 3571 C 323.161 2.02587 -4.36477 0
M  V30 3572 C 325.513 1.82899 -4.88055 0
M  V30 3573 C 322.841 1.59064 -5.64726 0
M  V30 3574 C 325.193 1.40861 -6.16718 0
M  V30 3575 C 323.857 1.28391 -6.55036 0
M  V30 3576 H 323.127 0.499402 -0.547429 0
M  V30 3577 H 325.774 0.684546 -1.78847 0
M  V30 3578 H 324.079 3.26379 -2.16758 0
M  V30 3579 H 325.776 3.1124 -2.52845 0
M  V30 3580 H 322.366 2.23129 -3.65939 0
M  V30 3581 H 326.55 1.90317 -4.58359 0
M  V30 3582 H 321.806 1.48034 -5.93208 0
M  V30 3583 H 325.98 1.16138 -6.86648 0
M  V30 3584 H 323.607 0.944403 -7.54311 0
M  V30 3585 N 325.182 1.32811 0.848464 0
M  V30 3586 C 326.598 1.11937 1.13764 0
M  V30 3587 C 326.798 -0.0960789 2.01271 0
M  V30 3588 O 325.854 -0.779165 2.40178 0
M  V30 3589 C 327.167 2.402 1.809 0
M  V30 3590 C 328.715 2.46016 1.93508 0
M  V30 3591 C 329.19 3.74215 2.64059 0
M  V30 3592 N 330.681 3.75232 2.71579 0
M  V30 3593 C 331.416 4.71134 3.26833 0
M  V30 3594 N 330.912 5.77406 3.8285 0
M  V30 3595 N 332.705 4.58623 3.24995 0
M  V30 3596 H 324.856 2.1073 0.265855 0
M  V30 3597 H 327.119 0.930671 0.180431 0
M  V30 3598 H 326.825 3.29093 1.24058 0
M  V30 3599 H 326.699 2.51628 2.81004 0
M  V30 3600 H 329.086 1.57577 2.49506 0
M  V30 3601 H 329.167 2.38536 0.923811 0
M  V30 3602 H 328.811 4.63031 2.08722 0
M  V30 3603 H 328.741 3.78968 3.65637 0
M  V30 3604 H 331.232 2.98423 2.31845 0
M  V30 3605 H 331.545 6.46632 4.23187 0
M  V30 3606 H 329.89 5.81152 3.81165 0
M  V30 3607 H 333.081 3.74762 2.80484 0
M  V30 3608 H 333.254 5.33535 3.67756 0
M  V30 3609 N 326.66 -1.06551 1.16123 0
M  V30 3610 C 327.9 -1.80889 0.951766 0
M  V30 3611 C 328.264 -1.85062 -0.511465 0
M  V30 3612 O 329.465 -2.55353 -0.83954 0
M  V30 3613 C 327.736 -3.21609 1.55893 0
M  V30 3614 S 329.295 -4.12593 1.49373 0
M  V30 3615 H 326.113 -0.623156 0.342341 0
M  V30 3616 H 328.715 -1.27943 1.47821 0
M  V30 3617 H 327.419 -3.16165 2.61664 0
M  V30 3618 H 326.95 -3.79631 1.0317 0
M  V30 3619 H 328.965 -4.93753 0.492196 0
M  V30 3620 N 328.138 -0.959301 -1.25041 0
M  V30 3621 C 329.384 -0.617525 -1.9317 0
M  V30 3622 C 329.717 0.843981 -1.74902 0
M  V30 3623 O 328.992 1.60615 -1.09696 0
M  V30 3624 C 329.275 -0.982736 -3.46431 0
M  V30 3625 C 329.128 -2.50032 -3.73904 0
M  V30 3626 C 330.447 -0.511176 -4.37121 0
M  V30 3627 H 327.566 -0.22582 -0.701552 0
M  V30 3628 H 330.208 -1.19679 -1.4757 0
M  V30 3629 H 328.358 -0.489806 -3.854 0
M  V30 3630 H 330.03 -3.06737 -3.44544 0
M  V30 3631 H 328.273 -2.93598 -3.19348 0
M  V30 3632 H 328.944 -2.70635 -4.81103 0
M  V30 3633 H 331.42 -0.934075 -4.0548 0
M  V30 3634 H 330.296 -0.795361 -5.43107 0
M  V30 3635 H 330.557 0.588834 -4.38161 0
M  V30 3636 N 329.616 1.39756 -0.72842 0
M  V30 3637 C 330.548 2.29157 -0.0446202 0
M  V30 3638 C 331.561 1.46484 0.710367 0
M  V30 3639 O 332.75 1.69632 0.55562 0
M  V30 3640 C 329.85 3.24987 0.961071 0
M  V30 3641 C 329.023 4.36572 0.268967 0
M  V30 3642 C 328.082 5.12756 1.18184 0
M  V30 3643 O 327.108 5.6534 0.661794 0
M  V30 3644 N 328.31 5.23331 2.51206 0
M  V30 3645 H 331.075 2.88482 -0.812295 0
M  V30 3646 H 328.636 1.51265 -0.577098 0
M  V30 3647 H 330.628 3.72827 1.57423 0
M  V30 3648 H 329.198 2.66739 1.63 0
M  V30 3649 H 328.418 3.90694 -0.524574 0
M  V30 3650 H 329.706 5.08363 -0.210934 0
M  V30 3651 H 329.104 4.82116 2.9594 0
M  V30 3652 H 327.661 5.74634 3.07634 0
M  V30 3653 N 331.094 0.475555 1.50254 0
M  V30 3654 C 332.027 -0.362381 2.25304 0
M  V30 3655 C 333.005 -0.992393 1.28803 0
M  V30 3656 O 334.189 -1.02746 1.58036 0
M  V30 3657 C 331.316 -1.50813 3.03271 0
M  V30 3658 C 330.362 -0.995044 4.1473 0
M  V30 3659 S 331.195 0.0938436 5.35418 0
M  V30 3660 C 332.351 -1.05567 6.16933 0
M  V30 3661 H 332.584 0.274686 2.96028 0
M  V30 3662 H 330.117 0.260495 1.52187 0
M  V30 3663 H 332.075 -2.16476 3.48781 0
M  V30 3664 H 330.736 -2.11672 2.32064 0
M  V30 3665 H 329.929 -1.85293 4.68703 0
M  V30 3666 H 329.531 -0.416052 3.71679 0
M  V30 3667 H 331.823 -1.96636 6.48337 0
M  V30 3668 H 332.766 -0.555109 7.05921 0
M  V30 3669 H 333.174 -1.31151 5.49053 0
M  V30 3670 N 332.573 -1.56217 0.208337 0
M  V30 3671 C 333.503 -2.22694 -0.702116 0
M  V30 3672 C 334.484 -1.19432 -1.2112 0
M  V30 3673 O 335.669 -1.47978 -1.25762 0
M  V30 3674 C 332.799 -2.8966 -1.9161 0
M  V30 3675 C 331.753 -3.9928 -1.5414 0
M  V30 3676 C 331.079 -4.53476 -2.83308 0
M  V30 3677 C 332.379 -5.17012 -0.741339 0
M  V30 3678 H 334.073 -2.99034 -0.147898 0
M  V30 3679 H 331.619 -1.43831 -0.0696951 0
M  V30 3680 H 333.572 -3.34852 -2.55836 0
M  V30 3681 H 332.296 -2.10746 -2.49507 0
M  V30 3682 H 330.955 -3.54799 -0.922668 0
M  V30 3683 H 330.603 -3.71308 -3.39322 0
M  V30 3684 H 330.303 -5.27451 -2.58976 0
M  V30 3685 H 331.827 -5.01378 -3.485 0
M  V30 3686 H 333.241 -5.58667 -1.28699 0
M  V30 3687 H 331.638 -5.97137 -0.595627 0
M  V30 3688 H 332.708 -4.8423 0.254851 0
M  V30 3689 N 334.051 0.0651679 -1.57465 0
M  V30 3690 C 334.961 1.09448 -2.07505 0
M  V30 3691 C 335.977 1.41974 -1.00595 0
M  V30 3692 O 337.153 1.52018 -1.32107 0
M  V30 3693 C 334.218 2.38689 -2.51453 0
M  V30 3694 C 333.279 2.13073 -3.72691 0
M  V30 3695 C 332.512 3.36152 -4.14533 0
M  V30 3696 O 332.735 4.45517 -3.56189 0
M  V30 3697 O 331.669 3.23974 -5.07272 0
M  V30 3698 H 335.495 0.69935 -2.95538 0
M  V30 3699 H 333.08 0.279752 -1.46757 0
M  V30 3700 H 334.962 3.14736 -2.80212 0
M  V30 3701 H 333.637 2.77568 -1.66546 0
M  V30 3702 H 332.544 1.34709 -3.49005 0
M  V30 3703 H 333.877 1.79071 -4.5847 0
M  V30 3704 N 335.529 1.53961 0.336706 0
M  V30 3705 C 336.775 1.7273 1.07406 0
M  V30 3706 C 337.13 0.488095 1.86106 0
M  V30 3707 O 336.423 -0.519379 1.84426 0
M  V30 3708 C 336.617 2.93493 2.03953 0
M  V30 3709 C 336.446 4.29039 1.34744 0
M  V30 3710 C 335.216 4.93416 1.08942 0
M  V30 3711 C 337.414 5.08501 0.770115 0
M  V30 3712 N 335.396 6.12821 0.363864 0
M  V30 3713 C 336.767 6.19752 0.175472 0
M  V30 3714 C 338.822 4.93349 0.671633 0
M  V30 3715 C 337.525 7.17503 -0.508081 0
M  V30 3716 C 339.551 5.914 0.0018076 0
M  V30 3717 C 338.913 7.01993 -0.581835 0
M  V30 3718 H 335.012 0.685026 0.377177 0
M  V30 3719 H 337.596 1.91403 0.356815 0
M  V30 3720 H 335.767 2.76308 2.72962 0
M  V30 3721 H 337.499 3.00949 2.70577 0
M  V30 3722 H 334.254 4.53099 1.37833 0
M  V30 3723 H 334.678 6.76998 0.0156092 0
M  V30 3724 H 339.32 4.08007 1.1086 0
M  V30 3725 H 337.038 8.02414 -0.956918 0
M  V30 3726 H 340.624 5.81753 -0.0738538 0
M  V30 3727 H 339.504 7.76561 -1.09192 0
M  V30 3728 N 337.007 -0.598083 1.45811 0
M  V30 3729 C 338.254 -1.35681 1.50323 0
M  V30 3730 C 338.582 -1.9393 0.148739 0
M  V30 3731 O 337.837 -1.76094 -0.853787 0
M  V30 3732 C 338.136 -2.51669 2.53766 0
M  V30 3733 C 337.802 -2.11508 3.98215 0
M  V30 3734 C 336.464 -2.0027 4.37545 0
M  V30 3735 C 338.816 -1.80308 4.89018 0
M  V30 3736 C 336.144 -1.56067 5.65562 0
M  V30 3737 C 338.496 -1.37589 6.17456 0
M  V30 3738 C 337.16 -1.24916 6.55708 0
M  V30 3739 H 336.43 -0.496492 0.550069 0
M  V30 3740 H 339.077 -0.675052 1.79207 0
M  V30 3741 H 337.382 -3.25225 2.18486 0
M  V30 3742 H 339.079 -3.09895 2.54492 0
M  V30 3743 H 335.669 -2.21185 3.67117 0
M  V30 3744 H 339.853 -1.87884 4.59362 0
M  V30 3745 H 335.109 -1.44886 5.93985 0
M  V30 3746 H 339.283 -1.12495 6.87254 0
M  V30 3747 H 336.91 -0.904386 7.54801 0
M  V30 3748 N 338.485 -1.33259 -0.841409 0
M  V30 3749 C 339.762 -1.15174 -1.58096 0
M  V30 3750 C 340.142 0.282858 -2.09196 0
M  V30 3751 O 339.49 1.28151 -1.89181 0
M  V30 3752 C 339.7 -2.1907 -2.71679 0
M  V30 3753 C 341.048 -2.53093 -3.40924 0
M  V30 3754 O 342.072 -2.17717 -2.81918 0
M  V30 3755 O 340.931 -3.1379 -4.47435 0
M  V30 3756 H 338.025 -0.445303 -0.696875 0
M  V30 3757 H 340.571 -1.44833 -0.884385 0
M  V30 3758 H 339.343 -3.15443 -2.31541 0
M  V30 3759 H 338.966 -1.90481 -3.49002 0
M  V30 3760 N 339.963 1.05934 -1.16686 0
M  V30 3761 C 340.913 2.11764 -0.844978 0
M  V30 3762 C 341.897 1.59922 0.177178 0
M  V30 3763 O 343.089 1.76983 -0.0241768 0
M  V30 3764 C 340.218 3.41493 -0.351812 0
M  V30 3765 C 339.304 4.00152 -1.40496 0
M  V30 3766 N 339.695 4.32874 -2.61636 0
M  V30 3767 C 337.993 4.278 -1.26106 0
M  V30 3768 C 338.694 4.79552 -3.29249 0
M  V30 3769 N 337.67 4.79211 -2.56628 0
M  V30 3770 H 341.472 2.34916 -1.76612 0
M  V30 3771 H 338.986 1.23511 -1.05446 0
M  V30 3772 H 340.983 4.16773 -0.102796 0
M  V30 3773 H 339.643 3.19778 0.56322 0
M  V30 3774 H 340.654 4.23109 -2.98663 0
M  V30 3775 H 337.331 4.15511 -0.407081 0
M  V30 3776 H 338.721 5.14045 -4.32675 0
M  V30 3777 N 341.441 0.965919 1.2453 0
M  V30 3778 C 342.391 0.465731 2.23193 0
M  V30 3779 C 343.375 -0.451277 1.54442 0
M  V30 3780 O 344.567 -0.282489 1.74731 0
M  V30 3781 C 341.696 -0.244511 3.42428 0
M  V30 3782 C 340.782 0.691222 4.18429 0
M  V30 3783 N 341.173 1.82771 4.71623 0
M  V30 3784 C 339.471 0.501649 4.4317 0
M  V30 3785 C 340.172 2.41285 5.29298 0
M  V30 3786 N 339.148 1.69819 5.16394 0
M  V30 3787 H 342.95 1.33291 2.61937 0
M  V30 3788 H 340.464 0.824789 1.39896 0
M  V30 3789 H 342.461 -0.620056 4.12263 0
M  V30 3790 H 341.121 -1.10815 3.05205 0
M  V30 3791 H 342.132 2.20929 4.68413 0
M  V30 3792 H 338.809 -0.318177 4.16286 0
M  V30 3793 H 340.199 3.37181 5.8117 0
M  V30 3794 N 342.919 -1.39368 0.735821 0
M  V30 3795 C 344.167 -2.00101 0.283562 0
M  V30 3796 C 344.488 -1.5868 -1.13338 0
M  V30 3797 O 343.758 -0.835423 -1.77193 0
M  V30 3798 H 342.338 -0.740024 0.101851 0
M  V30 3799 H 345 -1.70404 0.945962 0
M  V30 3800 H 344.096 -3.10323 0.332604 0
M  V30 3801 N 344.397 -0.483516 -1.5 0
M  V30 3802 C 345.347 0.32306 -2.257 0
M  V30 3803 C 346.331 0.950755 -1.29805 0
M  V30 3804 O 347.523 0.861247 -1.54634 0
M  V30 3805 C 344.652 1.39724 -3.13579 0
M  V30 3806 C 343.738 0.776663 -4.16928 0
M  V30 3807 N 344.129 -0.1104 -5.0568 0
M  V30 3808 C 342.427 1.03922 -4.33724 0
M  V30 3809 C 343.128 -0.46387 -5.79848 0
M  V30 3810 N 342.104 0.163987 -5.43353 0
M  V30 3811 H 345.906 -0.360086 -2.91686 0
M  V30 3812 H 343.42 -0.298456 -1.59634 0
M  V30 3813 H 345.417 1.98837 -3.66428 0
M  V30 3814 H 344.077 2.08225 -2.49143 0
M  V30 3815 H 345.088 -0.480069 -5.1567 0
M  V30 3816 H 341.765 1.71829 -3.80501 0
M  V30 3817 H 343.155 -1.18854 -6.61304 0
M  V30 3818 N 345.875 1.56104 -0.216619 0
M  V30 3819 C 347.121 1.98466 0.417033 0
M  V30 3820 C 347.454 1.10403 1.59765 0
M  V30 3821 O 346.729 0.160632 1.93836 0
M  V30 3822 C 347.012 3.49769 0.85637 0
M  V30 3823 C 346.865 4.48606 -0.327546 0
M  V30 3824 C 348.184 4.05339 1.7143 0
M  V30 3825 H 345.303 0.721551 0.150112 0
M  V30 3826 H 347.945 1.87423 -0.311864 0
M  V30 3827 H 346.095 3.5931 1.47745 0
M  V30 3828 H 347.767 4.5108 -0.965618 0
M  V30 3829 H 346.01 4.22682 -0.975805 0
M  V30 3830 H 346.681 5.51995 0.0227149 0
M  V30 3831 H 349.157 3.98712 1.19031 0
M  V30 3832 H 348.033 5.11533 1.99061 0
M  V30 3833 H 348.294 3.51918 2.67593 0
M  V30 3834 N 347.353 -0.0568162 1.57498 0
M  V30 3835 C 348.593 -0.758273 1.89815 0
M  V30 3836 C 348.957 -1.73978 0.812132 0
M  V30 3837 O 350.158 -2.48744 1.01881 0
M  V30 3838 C 348.429 -1.43465 3.27342 0
M  V30 3839 S 349.988 -2.1691 3.81439 0
M  V30 3840 H 346.806 -0.251836 0.664906 0
M  V30 3841 H 349.408 -0.0137997 1.95495 0
M  V30 3842 H 348.112 -0.706693 4.0427 0
M  V30 3843 H 347.643 -2.21825 3.24896 0
M  V30 3844 H 349.658 -3.43658 3.5793 0
M  V30 3845 N 348.832 -1.54138 -0.328536 0
M  V30 3846 C 350.081 -1.71318 -1.06456 0
M  V30 3847 C 350.394 -0.491109 -1.89334 0
M  V30 3848 O 351.6 -0.54416 -2.65991 0
M  V30 3849 C 350.056 -3.03 -1.94214 0
M  V30 3850 C 349.664 -4.32595 -1.16471 0
M  V30 3851 C 351.408 -3.29544 -2.67583 0
M  V30 3852 C 349.315 -5.55341 -2.03347 0
M  V30 3853 H 348.245 -0.638429 -0.401155 0
M  V30 3854 H 350.896 -1.80633 -0.323106 0
M  V30 3855 H 349.278 -2.87579 -2.72239 0
M  V30 3856 H 350.452 -4.58766 -0.432525 0
M  V30 3857 H 348.767 -4.12777 -0.548063 0
M  V30 3858 H 351.364 -4.18444 -3.3288 0
M  V30 3859 H 351.707 -2.47206 -3.34955 0
M  V30 3860 H 352.24 -3.45809 -1.96623 0
M  V30 3861 H 348.979 -6.40268 -1.40491 0
M  V30 3862 H 348.499 -5.33397 -2.74313 0
M  V30 3863 H 350.178 -5.91557 -2.62049 0
M  V30 3864 N 350.31 0.590341 -1.46126 0
M  V30 3865 C 351.556 1.35082 -1.51264 0
M  V30 3866 C 351.889 1.93534 -0.160711 0
M  V30 3867 O 351.164 1.76045 0.826956 0
M  V30 3868 C 351.447 2.48588 -2.6053 0
M  V30 3869 C 351.3 1.95221 -4.05227 0
M  V30 3870 C 352.619 3.50662 -2.6594 0
M  V30 3871 H 349.738 0.489803 -0.550692 0
M  V30 3872 H 352.38 0.663887 -1.78024 0
M  V30 3873 H 350.53 3.07186 -2.37843 0
M  V30 3874 H 352.202 1.41139 -4.39178 0
M  V30 3875 H 350.445 1.26101 -4.15068 0
M  V30 3876 H 351.116 2.77121 -4.77397 0
M  V30 3877 H 353.592 3.01934 -2.86313 0
M  V30 3878 H 352.468 4.27551 -3.44226 0
M  V30 3879 H 352.729 4.07399 -1.71694 0
M  V30 3880 N 351.788 1.33704 0.83433 0
M  V30 3881 C 353.035 1.25417 1.58987 0
M  V30 3882 C 353.363 -0.178869 1.93676 0
M  V30 3883 O 352.618 -1.13723 1.59265 0
M  V30 3884 C 352.917 2.07926 2.90692 0
M  V30 3885 C 352.583 3.57066 2.75345 0
M  V30 3886 C 351.245 3.97724 2.70867 0
M  V30 3887 C 353.597 4.51817 2.59828 0
M  V30 3888 C 350.925 5.31344 2.48778 0
M  V30 3889 C 353.277 5.85604 2.39272 0
M  V30 3890 C 351.941 6.25439 2.33199 0
M  V30 3891 H 351.211 0.458934 0.581774 0
M  V30 3892 H 353.858 1.65335 0.966261 0
M  V30 3893 H 352.163 1.608 3.57282 0
M  V30 3894 H 353.86 1.98868 3.48213 0
M  V30 3895 H 350.45 3.24785 2.79665 0
M  V30 3896 H 354.634 4.21311 2.62319 0
M  V30 3897 H 349.89 5.61241 2.42526 0
M  V30 3898 H 354.064 6.58623 2.2625 0
M  V30 3899 H 351.691 7.28914 2.15843 0
M  V30 3900 N 353.266 -1.05314 1.17247 0
M  V30 3901 C 354.176 -2.16538 0.90268 0
M  V30 3902 C 355.192 -1.73523 -0.128707 0
M  V30 3903 O 356.368 -2.01337 0.0502701 0
M  V30 3904 C 353.433 -3.44167 0.418356 0
M  V30 3905 C 352.494 -4.01635 1.51618 0
M  V30 3906 C 351.727 -5.23171 1.05487 0
M  V30 3907 O 351.95 -5.70327 -0.0914715 0
M  V30 3908 O 350.884 -5.72848 1.8474 0
M  V30 3909 H 354.71 -2.42145 1.83302 0
M  V30 3910 H 352.295 -1.15037 0.953246 0
M  V30 3911 H 354.177 -4.21112 0.155726 0
M  V30 3912 H 352.852 -3.20063 -0.48385 0
M  V30 3913 H 351.759 -3.26135 1.83268 0
M  V30 3914 H 353.092 -4.30053 2.39405 0
M  V30 3915 N 354.744 -0.972509 -1.24016 0
M  V30 3916 C 355.674 -0.525548 -2.27509 0
M  V30 3917 C 356.655 0.437262 -1.64384 0
M  V30 3918 O 357.84 0.332343 -1.91335 0
M  V30 3919 C 354.97 0.180448 -3.46831 0
M  V30 3920 C 353.924 -0.698859 -4.22256 0
M  V30 3921 C 353.25 0.138903 -5.3452 0
M  V30 3922 C 354.55 -1.98582 -4.83076 0
M  V30 3923 H 356.244 -1.39058 -2.65148 0
M  V30 3924 H 353.79 -0.67009 -1.27459 0
M  V30 3925 H 355.743 0.504387 -4.18371 0
M  V30 3926 H 354.467 1.07987 -3.08231 0
M  V30 3927 H 353.126 -1.00614 -3.52523 0
M  V30 3928 H 352.774 1.03862 -4.9216 0
M  V30 3929 H 352.474 -0.446259 -5.85903 0
M  V30 3930 H 353.998 0.457404 -6.08884 0
M  V30 3931 H 355.412 -1.72715 -5.46665 0
M  V30 3932 H 353.809 -2.5181 -5.44713 0
M  V30 3933 H 354.879 -2.67769 -4.04262 0
M  V30 3934 N 356.222 1.38976 -0.743202 0
M  V30 3935 C 357.152 2.33171 -0.123873 0
M  V30 3936 C 358.133 1.54336 0.71516 0
M  V30 3937 O 359.318 1.82696 0.658467 0
M  V30 3938 C 356.448 3.38474 0.777978 0
M  V30 3939 C 355.402 4.27979 0.0424758 0
M  V30 3940 C 354.728 5.2405 1.06189 0
M  V30 3941 C 356.028 5.10155 -1.1198 0
M  V30 3942 H 357.722 2.85213 -0.910709 0
M  V30 3943 H 355.268 1.37133 -0.439388 0
M  V30 3944 H 357.221 4.03328 1.22084 0
M  V30 3945 H 355.945 2.84891 1.59702 0
M  V30 3946 H 354.604 3.64616 -0.380853 0
M  V30 3947 H 354.252 4.66758 1.87472 0
M  V30 3948 H 353.952 5.84785 0.574485 0
M  V30 3949 H 355.476 5.9178 1.50428 0
M  V30 3950 H 356.89 5.68307 -0.75499 0
M  V30 3951 H 355.287 5.80073 -1.53738 0
M  V30 3952 H 356.357 4.44504 -1.93764 0
M  V30 3953 N 357.7 0.491464 1.49741 0
M  V30 3954 C 358.948 -0.0563141 2.02022 0
M  V30 3955 C 359.269 -1.38363 1.37407 0
M  V30 3956 O 358.539 -1.88702 0.526166 0
M  V30 3957 H 357.119 -0.0238014 0.746621 0
M  V30 3958 H 359.781 0.646533 1.83864 0
M  V30 3959 H 358.877 -0.192967 3.11503 0
M  V30 3960 N 359.178 -1.55987 0.224894 0
M  V30 3961 C 360.108 -2.23426 -0.678457 0
M  V30 3962 C 361.089 -1.20709 -1.19847 0
M  V30 3963 O 362.274 -1.49304 -1.24186 0
M  V30 3964 C 359.404 -2.91676 -1.88527 0
M  V30 3965 C 358.358 -4.00893 -1.49896 0
M  V30 3966 C 357.684 -4.56455 -2.78483 0
M  V30 3967 C 358.984 -5.17769 -0.686461 0
M  V30 3968 H 360.678 -2.99175 -0.116173 0
M  V30 3969 H 358.224 -1.43897 -0.054436 0
M  V30 3970 H 360.177 -3.37547 -2.5227 0
M  V30 3971 H 358.901 -2.1338 -2.47258 0
M  V30 3972 H 357.56 -3.55758 -0.884985 0
M  V30 3973 H 357.208 -3.74886 -3.35365 0
M  V30 3974 H 356.908 -5.30169 -2.53368 0
M  V30 3975 H 358.432 -5.05047 -3.43162 0
M  V30 3976 H 359.846 -5.60001 -1.22767 0
M  V30 3977 H 358.243 -5.97735 -0.532259 0
M  V30 3978 H 359.313 -4.83932 0.306196 0
M  V30 3979 N 360.656 0.0484629 -1.57525 0
M  V30 3980 C 361.881 0.759177 -1.93006 0
M  V30 3981 C 362.306 1.69125 -0.823317 0
M  V30 3982 O 361.664 1.79931 0.222364 0
M  V30 3983 C 361.712 1.50899 -3.27509 0
M  V30 3984 O 360.816 2.62112 -3.18388 0
M  V30 3985 H 360.157 0.205564 -0.631379 0
M  V30 3986 H 362.687 0.00972959 -2.04598 0
M  V30 3987 H 362.697 1.88317 -3.6194 0
M  V30 3988 H 361.372 0.825269 -4.0763 0
M  V30 3989 H 359.949 2.27379 -2.95556 0
M  V30 3990 N 362.134 1.5431 0.320358 0
M  V30 3991 C 363.362 1.76636 1.07738 0
M  V30 3992 C 363.777 0.51649 1.81598 0
M  V30 3993 O 363.134 -0.512942 1.75143 0
M  V30 3994 C 363.185 2.96158 2.07299 0
M  V30 3995 O 362.906 4.16313 1.36438 0
M  V30 3996 C 364.407 3.3072 2.95193 0
M  V30 3997 H 361.627 0.589597 0.320339 0
M  V30 3998 H 364.171 2.01207 0.36551 0
M  V30 3999 H 362.326 2.73851 2.74016 0
M  V30 4000 H 362.74 4.83565 2.03138 0
M  V30 4001 H 364.214 4.17643 3.60941 0
M  V30 4002 H 364.691 2.48026 3.62463 0
M  V30 4003 H 365.297 3.55117 2.34034 0
M  V30 4004 N 363.613 -0.582584 1.46437 0
M  V30 4005 C 364.843 -1.36484 1.55099 0
M  V30 4006 C 365.251 -1.88233 0.191056 0
M  V30 4007 O 364.594 -1.6429 -0.821858 0
M  V30 4008 C 364.656 -2.588 2.49525 0
M  V30 4009 C 364.32 -2.28517 3.95764 0
M  V30 4010 C 365.317 -1.87346 4.84972 0
M  V30 4011 C 363.002 -2.40658 4.40896 0
M  V30 4012 C 364.996 -1.5871 6.17325 0
M  V30 4013 C 362.683 -2.11635 5.73284 0
M  V30 4014 C 363.681 -1.70725 6.61318 0
M  V30 4015 O 363.369 -1.42057 7.91249 0
M  V30 4016 H 363.101 -0.423297 0.527063 0
M  V30 4017 H 365.655 -0.715188 1.92547 0
M  V30 4018 H 363.885 -3.26571 2.07095 0
M  V30 4019 H 365.574 -3.20868 2.48593 0
M  V30 4020 H 366.34 -1.77481 4.5136 0
M  V30 4021 H 362.219 -2.71463 3.72598 0
M  V30 4022 H 365.763 -1.26704 6.85997 0
M  V30 4023 H 361.66 -2.21124 6.06444 0
M  V30 4024 H 362.428 -1.55901 8.03515 0
M  V30 4025 N 365.091 -1.34144 -0.827227 0
M  V30 4026 C 366.368 -1.16844 -1.56865 0
M  V30 4027 C 366.748 0.260654 -2.09485 0
M  V30 4028 O 366.096 1.26138 -1.9053 0
M  V30 4029 C 366.306 -2.21939 -2.6934 0
M  V30 4030 C 367.654 -2.56695 -3.3822 0
M  V30 4031 O 368.678 -2.20695 -2.79593 0
M  V30 4032 O 367.537 -3.18518 -4.44082 0
M  V30 4033 H 364.631 -0.452669 -0.692112 0
M  V30 4034 H 367.177 -1.45763 -0.868973 0
M  V30 4035 H 365.949 -3.17882 -2.28182 0
M  V30 4036 H 365.572 -1.94172 -3.46962 0
M  V30 4037 N 366.569 1.04691 -1.17803 0
M  V30 4038 C 367.816 1.77782 -0.969532 0
M  V30 4039 C 368.144 1.87926 0.501401 0
M  V30 4040 O 367.399 1.37918 1.38842 0
M  V30 4041 C 367.698 3.21467 -1.56186 0
M  V30 4042 C 367.364 3.3137 -3.05786 0
M  V30 4043 C 366.026 3.3378 -3.46619 0
M  V30 4044 C 368.378 3.31976 -4.01797 0
M  V30 4045 C 365.706 3.34431 -4.82051 0
M  V30 4046 C 368.058 3.34167 -5.37136 0
M  V30 4047 C 366.722 3.34866 -5.77426 0
M  V30 4048 H 365.992 0.650549 -0.354777 0
M  V30 4049 H 368.639 1.23006 -1.46772 0
M  V30 4050 H 366.944 3.79203 -0.985515 0
M  V30 4051 H 368.641 3.76652 -1.37602 0
M  V30 4052 H 365.231 3.3021 -2.73238 0
M  V30 4053 H 369.415 3.29311 -3.71306 0
M  V30 4054 H 364.671 3.33285 -5.12573 0
M  V30 4055 H 368.845 3.33585 -6.11305 0
M  V30 4056 H 366.472 3.35124 -6.82346 0
M  V30 4057 N 368.047 0.979072 1.23499 0
M  V30 4058 C 369.296 0.642751 1.91185 0
M  V30 4059 C 369.609 -0.827253 1.77245 0
M  V30 4060 O 370.815 -1.27458 2.39722 0
M  V30 4061 C 369.271 1.09901 3.42709 0
M  V30 4062 C 368.879 2.59327 3.65313 0
M  V30 4063 C 370.623 0.836371 4.16179 0
M  V30 4064 C 368.53 2.98627 5.10467 0
M  V30 4065 H 367.46 0.236698 0.715884 0
M  V30 4066 H 370.111 1.1868 1.39955 0
M  V30 4067 H 368.493 0.48319 3.93041 0
M  V30 4068 H 369.667 3.26136 3.25533 0
M  V30 4069 H 367.982 2.83323 3.05151 0
M  V30 4070 H 370.579 1.10586 5.23139 0
M  V30 4071 H 370.922 -0.227509 4.15678 0
M  V30 4072 H 371.455 1.41371 3.71832 0
M  V30 4073 H 368.194 4.04133 5.16098 0
M  V30 4074 H 367.714 2.3651 5.51201 0
M  V30 4075 H 369.393 2.89159 5.78788 0
M  V30 4076 N 369.525 -1.3858 0.750561 0
M  V30 4077 C 370.472 -2.30483 0.120835 0
M  V30 4078 C 371.442 -1.50022 -0.712923 0
M  V30 4079 O 372.627 -1.78662 -0.669676 0
M  V30 4080 C 369.767 -3.36431 -0.768666 0
M  V30 4081 C 368.88 -4.31927 0.0793922 0
M  V30 4082 C 368.015 -5.24944 -0.81283 0
M  V30 4083 C 367.054 -6.12088 0.0390447 0
M  V30 4084 N 366.191 -6.97412 -0.809969 0
M  V30 4085 H 371.031 -2.83761 0.91015 0
M  V30 4086 H 368.568 -1.39707 0.460463 0
M  V30 4087 H 370.526 -3.96462 -1.29898 0
M  V30 4088 H 369.156 -2.8457 -1.5238 0
M  V30 4089 H 368.208 -3.73382 0.727303 0
M  V30 4090 H 369.52 -4.93319 0.737401 0
M  V30 4091 H 368.674 -5.90078 -1.41042 0
M  V30 4092 H 367.413 -4.63911 -1.50458 0
M  V30 4093 H 366.418 -5.45952 0.649328 0
M  V30 4094 H 367.643 -6.75189 0.727809 0
M  V30 4095 H 365.589 -6.38931 -1.48672 0
M  V30 4096 H 365.506 -7.55712 -0.208789 0
M  V30 4097 H 366.774 -7.66959 -1.39263 0
M  V30 4098 N 371.003 -0.499398 -1.49478 0
M  V30 4099 C 371.913 0.284489 -2.32869 0
M  V30 4100 C 372.929 0.968885 -1.44529 0
M  V30 4101 O 374.105 0.95062 -1.77553 0
M  V30 4102 C 371.17 1.33594 -3.19928 0
M  V30 4103 C 370.231 0.665149 -4.24116 0
M  V30 4104 C 369.464 1.6665 -5.07014 0
M  V30 4105 O 369.687 2.89618 -4.91404 0
M  V30 4106 O 368.621 1.22271 -5.8935 0
M  V30 4107 H 372.447 -0.39802 -3.01081 0
M  V30 4108 H 370.032 -0.260758 -1.47107 0
M  V30 4109 H 371.914 1.94431 -3.73864 0
M  V30 4110 H 370.589 2.0014 -2.54412 0
M  V30 4111 H 369.496 0.0170769 -3.74096 0
M  V30 4112 H 370.829 0.0421555 -4.92182 0
M  V30 4113 N 372.481 1.55866 -0.233164 0
M  V30 4114 C 373.429 2.22176 0.68851 0
M  V30 4115 C 374.423 1.20487 1.19076 0
M  V30 4116 O 375.629 1.38536 1.14925 0
M  V30 4117 H 372.004 0.712511 0.240483 0
M  V30 4118 H 373.975 2.98212 0.105935 0
M  V30 4119 C 372.724 2.92446 1.88071 0
M  V30 4120 H 372.047 3.70458 1.50337 0
M  V30 4121 H 373.487 3.42226 2.50314 0
M  V30 4122 C 371.946 1.95555 2.74335 0
M  V30 4123 O 372.476 1.47986 3.73447 0
M  V30 4124 N 370.682 1.62953 2.40613 0
M  V30 4125 H 370.229 2.01831 1.60069 0
M  V30 4126 H 370.187 0.983886 2.98609 0
M  V30 4127 N 373.959 -0.0401083 1.57549 0
M  V30 4128 C 375.184 -0.748931 1.93406 0
M  V30 4129 C 375.609 -1.68686 0.832274 0
M  V30 4130 O 374.967 -1.80047 -0.212818 0
M  V30 4131 C 375.015 -1.4916 3.28304 0
M  V30 4132 O 374.119 -2.6042 3.19774 0
M  V30 4133 H 373.46 -0.202212 0.63246 0
M  V30 4134 H 375.99 0.00112086 2.046 0
M  V30 4135 H 376 -1.86395 3.62934 0
M  V30 4136 H 374.675 -0.80364 4.08062 0
M  V30 4137 H 373.252 -2.25808 2.96758 0
M  V30 4138 N 375.437 -1.54477 -0.31217 0
M  V30 4139 C 376.684 -1.73227 -1.04875 0
M  V30 4140 C 377.012 -0.512042 -1.87639 0
M  V30 4141 O 376.267 0.506131 -1.89042 0
M  V30 4142 C 376.566 -2.967 -1.99258 0
M  V30 4143 C 376.232 -4.30974 -1.32559 0
M  V30 4144 C 374.894 -4.67477 -1.141 0
M  V30 4145 C 377.246 -5.14258 -0.847835 0
M  V30 4146 C 374.574 -5.84852 -0.465326 0
M  V30 4147 C 376.926 -6.32327 -0.185931 0
M  V30 4148 C 375.59 -6.67499 0.0107077 0
M  V30 4149 H 374.86 -0.633881 -0.383765 0
M  V30 4150 H 377.507 -1.88727 -0.324731 0
M  V30 4151 H 375.812 -2.75935 -2.7815 0
M  V30 4152 H 377.509 -3.08401 -2.563 0
M  V30 4153 H 374.099 -4.02262 -1.4793 0
M  V30 4154 H 378.283 -4.86565 -0.978192 0
M  V30 4155 H 373.539 -6.10654 -0.301883 0
M  V30 4156 H 377.713 -6.96135 0.192211 0
M  V30 4157 H 375.34 -7.58306 0.536287 0
M  V30 4158 N 376.915 0.57481 -1.46744 0
M  V30 4159 C 377.845 1.69337 -1.60771 0
M  V30 4160 C 378.826 1.63825 -0.457736 0
M  V30 4161 O 380.011 1.8172 -0.684947 0
M  V30 4162 C 377.141 3.0798 -1.60517 0
M  V30 4163 C 376.095 3.28327 -2.74564 0
M  V30 4164 C 375.421 4.67578 -2.59373 0
M  V30 4165 C 376.721 3.15398 -4.16319 0
M  V30 4166 H 378.415 1.57853 -2.54407 0
M  V30 4167 H 375.961 0.75799 -1.22436 0
M  V30 4168 H 377.914 3.86061 -1.68923 0
M  V30 4169 H 376.638 3.20381 -0.634305 0
M  V30 4170 H 375.297 2.52649 -2.65639 0
M  V30 4171 H 374.945 4.76755 -1.60353 0
M  V30 4172 H 374.645 4.82144 -3.35873 0
M  V30 4173 H 376.169 5.47817 -2.69682 0
M  V30 4174 H 377.583 3.83315 -4.26313 0
M  V30 4175 H 375.98 3.41482 -4.93468 0
M  V30 4176 H 377.05 2.12372 -4.3592 0
M  V30 4177 N 378.394 1.34581 0.820102 0
M  V30 4178 C 379.805 1.24298 1.39309 0
M  V30 4179 C 380.156 -0.130351 1.95767 0
M  V30 4180 O 379.281 -1.0308 1.90272 0
M  V30 4181 C 379.876 2.25054 2.53251 0
M  V30 4182 C 378.435 2.18552 3.0645 0
M  V30 4183 C 377.582 2.11503 1.79337 0
M  V30 4184 H 380.533 1.45906 0.624262 0
M  V30 4185 H 380.554 1.86917 3.31425 0
M  V30 4186 H 380.066 3.24996 2.1213 0
M  V30 4187 H 378.167 1.21976 3.52069 0
M  V30 4188 H 378.28 3.0993 3.65349 0
M  V30 4189 H 376.644 1.57268 2.00347 0
M  V30 4190 H 377.427 3.13284 1.40386 0
M  V30 4191 N 379.872 -1.04064 1.18357 0
M  V30 4192 C 381.119 -1.77265 0.978947 0
M  V30 4193 C 381.447 -1.88189 -0.491428 0
M  V30 4194 O 380.702 -1.38653 -1.38108 0
M  V30 4195 C 381.001 -3.20634 1.57888 0
M  V30 4196 C 380.667 -3.29743 3.07539 0
M  V30 4197 C 379.329 -3.31937 3.48384 0
M  V30 4198 C 381.681 -3.29841 4.03552 0
M  V30 4199 C 379.009 -3.3187 4.83818 0
M  V30 4200 C 381.361 -3.31313 5.38901 0
M  V30 4201 C 380.025 -3.31799 5.79194 0
M  V30 4202 H 379.295 -0.648659 0.358222 0
M  V30 4203 H 381.942 -1.22225 1.47422 0
M  V30 4204 H 380.247 -3.78675 1.00561 0
M  V30 4205 H 381.944 -3.75917 1.39598 0
M  V30 4206 H 378.534 -3.28757 2.74986 0
M  V30 4207 H 382.718 -3.27337 3.73047 0
M  V30 4208 H 377.974 -3.30562 5.14333 0
M  V30 4209 H 382.148 -3.30338 6.13066 0
M  V30 4210 H 379.775 -3.315 6.84114 0
M  V30 4211 N 381.35 -0.985608 -1.22978 0
M  V30 4212 C 382.282 -0.488154 -2.23941 0
M  V30 4213 C 383.295 0.41282 -1.57479 0
M  V30 4214 O 384.484 0.216121 -1.77187 0
M  V30 4215 C 381.584 0.312611 -3.37455 0
M  V30 4216 C 380.757 -0.582741 -4.33501 0
M  V30 4217 C 379.816 0.165064 -5.25941 0
M  V30 4218 O 378.842 -0.447077 -5.67442 0
M  V30 4219 N 380.044 1.44953 -5.62111 0
M  V30 4220 H 382.809 -1.3563 -2.67254 0
M  V30 4221 H 380.37 -0.859477 -1.37203 0
M  V30 4222 H 382.362 0.821357 -3.96277 0
M  V30 4223 H 380.932 1.0818 -2.93285 0
M  V30 4224 H 380.152 -1.27225 -3.73105 0
M  V30 4225 H 381.44 -1.19275 -4.94622 0
M  V30 4226 H 380.838 1.9683 -5.30353 0
M  V30 4227 H 379.395 1.90361 -6.23383 0
M  V30 4228 N 382.828 1.3818 -0.7579 0
M  V30 4229 C 384.077 1.99261 -0.312744 0
M  V30 4230 C 384.39 1.60846 1.11301 0
M  V30 4231 O 385.596 2.14929 1.65885 0
M  V30 4232 C 384.052 3.56294 -0.50821 0
M  V30 4233 C 383.66 4.03657 -1.94333 0
M  V30 4234 C 385.404 4.24313 -0.125982 0
M  V30 4235 C 383.311 5.53347 -2.08712 0
M  V30 4236 H 382.241 0.745456 -0.113185 0
M  V30 4237 H 384.892 1.57889 -0.935056 0
M  V30 4238 H 383.274 3.95575 0.183353 0
M  V30 4239 H 384.448 3.75655 -2.66871 0
M  V30 4240 H 382.763 3.48376 -2.28086 0
M  V30 4241 H 385.36 5.34279 -0.212125 0
M  V30 4242 H 385.703 4.05962 0.921964 0
M  V30 4243 H 386.236 3.90285 -0.769563 0
M  V30 4244 H 382.975 5.76607 -3.11777 0
M  V30 4245 H 382.495 5.83078 -1.4064 0
M  V30 4246 H 384.174 6.19111 -1.87912 0
M  V30 4247 N 384.306 0.507319 1.49211 0
M  V30 4248 C 385.583 -0.0982702 1.95353 0
M  V30 4249 C 385.963 -1.53516 1.449 0
M  V30 4250 O 385.311 -2.18594 0.66551 0
M  V30 4251 C 385.521 -0.00440283 3.49 0
M  V30 4252 C 386.869 -0.175147 4.24239 0
M  V30 4253 O 387.893 -0.0792891 3.56112 0
M  V30 4254 O 386.752 -0.37276 5.45227 0
M  V30 4255 H 383.846 -0.0918236 0.821887 0
M  V30 4256 H 386.392 0.570307 1.5983 0
M  V30 4257 H 385.164 0.997402 3.78375 0
M  V30 4258 H 384.787 -0.712845 3.91158 0
M  V30 4259 N 385.784 -1.5574 0.241426 0
M  V30 4260 C 386.734 -2.17803 -0.674233 0
M  V30 4261 C 387.718 -1.13225 -1.14319 0
M  V30 4262 O 388.91 -1.39153 -1.09387 0
M  V30 4263 C 386.039 -2.87682 -1.87333 0
M  V30 4264 C 385.125 -3.99509 -1.42313 0
M  V30 4265 N 385.516 -5.01115 -0.686798 0
M  V30 4266 C 383.814 -4.11964 -1.70885 0
M  V30 4267 C 384.515 -5.79922 -0.454456 0
M  V30 4268 N 383.491 -5.34001 -1.01705 0
M  V30 4269 H 387.293 -2.93718 -0.103447 0
M  V30 4270 H 384.807 -1.62342 0.0435095 0
M  V30 4271 H 386.804 -3.3057 -2.54026 0
M  V30 4272 H 385.464 -2.13269 -2.4484 0
M  V30 4273 H 386.475 -5.16799 -0.337459 0
M  V30 4274 H 383.152 -3.48718 -2.2957 0
M  V30 4275 H 384.542 -6.71768 0.132992 0
M  V30 4276 N 387.262 0.0317525 -1.57568 0
M  V30 4277 C 388.511 0.722131 -1.8833 0
M  V30 4278 C 388.824 1.76664 -0.839587 0
M  V30 4279 O 390.03 2.50942 -1.03635 0
M  V30 4280 C 388.486 1.33544 -3.34207 0
M  V30 4281 C 388.094 0.327415 -4.46802 0
M  V30 4282 C 389.838 2.00585 -3.7412 0
M  V30 4283 C 387.745 0.948915 -5.83738 0
M  V30 4284 H 386.675 0.273466 -0.702661 0
M  V30 4285 H 389.326 -0.0235811 -1.83485 0
M  V30 4286 H 387.708 2.13077 -3.33788 0
M  V30 4287 H 388.882 -0.441006 -4.58685 0
M  V30 4288 H 387.197 -0.240758 -4.15703 0
M  V30 4289 H 389.794 2.47932 -4.73744 0
M  V30 4290 H 390.137 2.82285 -3.05975 0
M  V30 4291 H 390.67 1.27831 -3.76702 0
M  V30 4292 H 387.409 0.171387 -6.55276 0
M  V30 4293 H 386.929 1.68724 -5.7558 0
M  V30 4294 H 388.608 1.45705 -6.3038 0
M  V30 4295 N 388.74 1.54641 0.303973 0
M  V30 4296 C 390.156 1.45788 0.649463 0
M  V30 4297 C 390.356 0.64666 1.90842 0
M  V30 4298 O 389.412 0.153183 2.52035 0
M  V30 4299 C 390.725 2.89718 0.805227 0
M  V30 4300 C 392.273 2.99742 0.901305 0
M  V30 4301 C 392.748 4.44863 1.08909 0
M  V30 4302 N 394.239 4.48559 1.15536 0
M  V30 4303 C 394.974 5.58026 1.3189 0
M  V30 4304 N 394.47 6.77422 1.45161 0
M  V30 4305 N 396.263 5.45708 1.34755 0
M  V30 4306 H 388.414 2.05854 -0.523237 0
M  V30 4307 H 390.677 0.932186 -0.172431 0
M  V30 4308 H 390.383 3.51666 -0.0489108 0
M  V30 4309 H 390.257 3.36964 1.69513 0
M  V30 4310 H 392.644 2.3791 1.74593 0
M  V30 4311 H 392.725 2.55797 -0.0125531 0
M  V30 4312 H 392.369 5.07288 0.249241 0
M  V30 4313 H 392.299 4.86436 2.01713 0
M  V30 4314 H 394.79 3.6254 1.06646 0
M  V30 4315 H 395.103 7.56604 1.57387 0
M  V30 4316 H 393.448 6.80292 1.42223 0
M  V30 4317 H 396.639 4.51378 1.23996 0
M  V30 4318 H 396.812 6.3107 1.47157 0
M  V30 4319 N 390.218 -0.567019 1.47046 0
M  V30 4320 C 391.15 -1.68985 1.54844 0
M  V30 4321 C 392.163 -1.56869 0.435431 0
M  V30 4322 O 393.352 -1.64006 0.70457 0
M  V30 4323 C 390.452 -3.07373 1.42742 0
M  V30 4324 C 389.625 -3.45339 2.6844 0
M  V30 4325 C 388.684 -4.62849 2.50314 0
M  V30 4326 O 387.71 -4.67922 3.24095 0
M  V30 4327 N 388.912 -5.58726 1.57499 0
M  V30 4328 H 391.677 -1.62745 2.51663 0
M  V30 4329 H 389.238 -0.753411 1.43302 0
M  V30 4330 H 391.23 -3.83803 1.28365 0
M  V30 4331 H 389.8 -3.07893 0.540445 0
M  V30 4332 H 389.02 -2.58455 2.97648 0
M  V30 4333 H 390.308 -3.67476 3.51907 0
M  V30 4334 H 389.706 -5.57376 0.966876 0
M  V30 4335 H 388.263 -6.34523 1.49078 0
M  V30 4336 N 391.696 -1.35014 -0.812953 0
M  V30 4337 C 392.629 -1.21761 -1.93001 0
M  V30 4338 C 393.607 -0.10694 -1.62248 0
M  V30 4339 O 394.791 -0.273891 -1.865 0
M  V30 4340 C 391.918 -0.873404 -3.27245 0
M  V30 4341 C 390.964 -1.99523 -3.76952 0
M  V30 4342 S 391.797 -3.61009 -3.95516 0
M  V30 4343 C 392.953 -3.28651 -5.32672 0
M  V30 4344 H 393.186 -2.16315 -2.03948 0
M  V30 4345 H 390.719 -1.20156 -0.969631 0
M  V30 4346 H 392.677 -0.68161 -4.04802 0
M  V30 4347 H 391.338 0.053971 -3.14054 0
M  V30 4348 H 390.531 -1.70838 -4.74163 0
M  V30 4349 H 390.133 -2.14503 -3.06373 0
M  V30 4350 H 392.425 -2.81085 -6.1644 0
M  V30 4351 H 393.368 -4.25039 -5.66346 0
M  V30 4352 H 393.776 -2.6458 -4.98656 0
M  V30 4353 N 393.175 1.03435 -1.18907 0
M  V30 4354 C 394.138 2.09756 -0.923844 0
M  V30 4355 C 395.138 1.60528 0.093416 0
M  V30 4356 O 396.328 1.73631 -0.140727 0
M  V30 4357 C 393.46 3.38692 -0.387354 0
M  V30 4358 H 394.653 2.34719 -1.86674 0
M  V30 4359 H 392.206 1.19959 -1.00197 0
M  V30 4360 H 392.941 3.19396 0.561845 0
M  V30 4361 H 392.726 3.75742 -1.12074 0
M  V30 4362 H 394.216 4.17016 -0.220694 0
M  V30 4363 N 394.653 0.992116 1.22453 0
M  V30 4364 C 395.883 0.684949 1.94915 0
M  V30 4365 C 396.291 -0.754292 1.73514 0
M  V30 4366 O 395.634 -1.52056 1.03076 0
M  V30 4367 C 395.696 0.910054 3.47791 0
M  V30 4368 C 395.36 2.33363 3.92926 0
M  V30 4369 C 396.357 3.31308 4.00663 0
M  V30 4370 C 394.042 2.66785 4.25595 0
M  V30 4371 C 396.036 4.6075 4.40441 0
M  V30 4372 C 393.723 3.96446 4.65053 0
M  V30 4373 C 394.721 4.9324 4.72444 0
M  V30 4374 O 394.409 6.20584 5.1101 0
M  V30 4375 H 394.141 0.25258 0.62704 0
M  V30 4376 H 396.695 1.32939 1.56577 0
M  V30 4377 H 394.925 0.208443 3.86138 0
M  V30 4378 H 396.614 0.598257 4.01467 0
M  V30 4379 H 397.38 3.0682 3.75615 0
M  V30 4380 H 393.259 1.92148 4.19047 0
M  V30 4381 H 396.803 5.363 4.46126 0
M  V30 4382 H 392.7 4.20724 4.89552 0
M  V30 4383 H 393.468 6.24509 5.29085 0
M  V30 4384 N 396.131 -1.37776 0.765217 0
M  V30 4385 C 397.063 -2.28958 0.105361 0
M  V30 4386 C 398.076 -1.48316 -0.67128 0
M  V30 4387 O 399.265 -1.71046 -0.51045 0
M  V30 4388 C 396.365 -3.27421 -0.874569 0
M  V30 4389 C 395.538 -4.37132 -0.153123 0
M  V30 4390 C 394.597 -5.1571 -1.04547 0
M  V30 4391 O 393.623 -5.66896 -0.511672 0
M  V30 4392 N 394.825 -5.29808 -2.37243 0
M  V30 4393 H 397.59 -2.86227 0.888495 0
M  V30 4394 H 395.151 -1.49682 0.617 0
M  V30 4395 H 397.143 -3.7687 -1.47483 0
M  V30 4396 H 395.713 -2.70967 -1.55871 0
M  V30 4397 H 394.933 -3.89166 0.627975 0
M  V30 4398 H 396.221 -5.07625 0.345643 0
M  V30 4399 H 395.619 -4.89793 -2.83054 0
M  V30 4400 H 394.176 -5.82589 -2.9229 0
M  V30 4401 N 397.609 -0.515225 -1.4894 0
M  V30 4402 C 398.858 0.0261361 -2.01683 0
M  V30 4403 C 399.171 1.36719 -1.39883 0
M  V30 4404 O 400.377 1.99606 -1.84037 0
M  V30 4405 C 398.833 0.0970111 -3.59769 0
M  V30 4406 C 398.441 -1.23825 -4.30548 0
M  V30 4407 C 400.185 0.587981 -4.20408 0
M  V30 4408 C 398.092 -1.12877 -5.80528 0
M  V30 4409 H 397.022 0.0135398 -0.753878 0
M  V30 4410 H 399.673 -0.656787 -1.71343 0
M  V30 4411 H 398.055 0.844694 -3.86886 0
M  V30 4412 H 399.229 -2.00034 -4.15118 0
M  V30 4413 H 397.544 -1.66379 -3.81716 0
M  V30 4414 H 400.141 0.68763 -5.3026 0
M  V30 4415 H 400.484 1.59026 -3.84729 0
M  V30 4416 H 401.017 -0.103582 -3.97665 0
M  V30 4417 H 397.756 -2.10575 -6.20756 0
M  V30 4418 H 397.276 -0.407799 -5.98412 0
M  V30 4419 H 398.955 -0.813332 -6.41868 0
M  V30 4420 N 399.087 1.5561 -0.249682 0
M  V30 4421 C 400.327 2.00916 0.37579 0
M  V30 4422 C 400.691 1.13409 1.54927 0
M  V30 4423 O 401.892 1.48183 2.24266 0
M  V30 4424 C 400.163 3.48949 0.772633 0
M  V30 4425 S 401.722 4.16261 1.38824 0
M  V30 4426 H 398.54 0.70112 0.118117 0
M  V30 4427 H 401.142 1.92052 -0.365567 0
M  V30 4428 H 399.846 4.103 -0.090683 0
M  V30 4429 H 399.377 3.61745 1.5461 0
M  V30 4430 H 401.392 4.17778 2.67724 0
M  V30 4431 N 400.565 -0.0233959 1.57583 0
M  V30 4432 C 401.497 -1.04994 2.03737 0
M  V30 4433 C 402.51 -1.32125 0.951152 0
M  V30 4434 O 403.699 -1.29512 1.22837 0
M  V30 4435 C 400.799 -2.39026 2.40249 0
M  V30 4436 C 399.972 -2.31171 3.7132 0
M  V30 4437 C 399.031 -3.47698 3.94959 0
M  V30 4438 O 398.057 -3.26937 4.65941 0
M  V30 4439 N 399.259 -4.6976 3.41037 0
M  V30 4440 H 402.024 -0.656507 2.92421 0
M  V30 4441 H 399.585 -0.211235 1.60516 0
M  V30 4442 H 401.577 -3.15712 2.53196 0
M  V30 4443 H 400.147 -2.70194 1.57207 0
M  V30 4444 H 399.367 -1.39547 3.68674 0
M  V30 4445 H 400.655 -2.23071 4.57293 0
M  V30 4446 H 400.053 -4.89528 2.83512 0
M  V30 4447 H 398.61 -5.43791 3.59353 0
M  V30 4448 N 402.043 -1.548 -0.295768 0
M  V30 4449 C 403.268 -1.78653 -1.05346 0
M  V30 4450 C 403.693 -0.546894 -1.79974 0
M  V30 4451 O 403.051 0.502763 -1.7419 0
M  V30 4452 C 403.099 -2.99679 -2.00561 0
M  V30 4453 O 402.203 -2.7317 -3.08953 0
M  V30 4454 H 401.544 -0.59116 -0.302367 0
M  V30 4455 H 404.074 -2.01895 -0.331598 0
M  V30 4456 H 404.084 -3.27793 -2.42932 0
M  V30 4457 H 402.759 -3.89562 -1.4565 0
M  V30 4458 H 401.336 -2.56089 -2.71059 0
M  V30 4459 N 403.521 0.559213 -1.47345 0
M  V30 4460 C 404.77 1.31281 -1.53128 0
M  V30 4461 C 405.083 1.94602 -0.197344 0
M  V30 4462 O 406.289 2.71173 -0.133154 0
M  V30 4463 C 404.745 2.38051 -2.69925 0
M  V30 4464 C 404.353 1.8093 -4.0984 0
M  V30 4465 C 406.097 3.14604 -2.84999 0
M  V30 4466 C 404.004 2.85468 -5.1794 0
M  V30 4467 H 402.934 0.493614 -0.569966 0
M  V30 4468 H 405.585 0.594155 -1.73615 0
M  V30 4469 H 403.967 3.12822 -2.42814 0
M  V30 4470 H 405.141 1.12544 -4.46845 0
M  V30 4471 H 403.456 1.16967 -3.99634 0
M  V30 4472 H 406.053 3.92666 -3.62929 0
M  V30 4473 H 406.396 3.68665 -1.93369 0
M  V30 4474 H 406.929 2.46945 -3.1187 0
M  V30 4475 H 403.668 2.36264 -6.1144 0
M  V30 4476 H 403.188 3.52269 -4.85455 0
M  V30 4477 H 404.867 3.48996 -5.44803 0
M  V30 4478 N 404.999 1.35443 0.805782 0
M  V30 4479 C 405.947 1.28465 1.93906 0
M  V30 4480 C 406.941 0.17943 1.68447 0
M  V30 4481 O 408.147 0.345459 1.76654 0
M  V30 4482 H 404.522 0.399528 0.637088 0
M  V30 4483 H 406.493 2.24206 1.96912 0
M  V30 4484 C 405.242 1.07432 3.30687 0
M  V30 4485 H 404.565 1.91716 3.50835 0
M  V30 4486 H 406.005 1.06591 4.10383 0
M  V30 4487 C 404.464 -0.22179 3.36169 0
M  V30 4488 O 404.994 -1.21731 3.82811 0
M  V30 4489 N 403.2 -0.260841 2.89427 0
M  V30 4490 H 402.747 0.549884 2.51663 0
M  V30 4491 H 402.705 -1.12777 2.93477 0
M  V30 4492 N 406.477 -1.02803 1.19454 0
M  V30 4493 C 407.724 -1.76217 0.997693 0
M  V30 4494 C 408.052 -1.887 -0.47144 0
M  V30 4495 O 407.307 -1.4011 -1.3663 0
M  V30 4496 C 407.606 -3.18941 1.6128 0
M  V30 4497 C 407.272 -3.26463 3.11019 0
M  V30 4498 C 405.934 -3.28223 3.51885 0
M  V30 4499 C 408.286 -3.25542 4.07028 0
M  V30 4500 C 405.614 -3.26719 4.8731 0
M  V30 4501 C 407.966 -3.25579 5.42385 0
M  V30 4502 C 406.63 -3.25637 5.82681 0
M  V30 4503 H 405.9 -0.644823 0.365082 0
M  V30 4504 H 408.547 -1.20655 1.4871 0
M  V30 4505 H 406.852 -3.77587 1.04572 0
M  V30 4506 H 408.549 -3.74415 1.43577 0
M  V30 4507 H 405.139 -3.25822 2.78457 0
M  V30 4508 H 409.323 -3.23362 3.76498 0
M  V30 4509 H 404.579 -3.25089 5.1781 0
M  V30 4510 H 408.753 -3.23817 6.16535 0
M  V30 4511 H 406.38 -3.24226 6.87591 0
M  V30 4512 N 407.956 -0.998596 -1.21925 0
M  V30 4513 C 408.886 -0.573688 -2.26343 0
M  V30 4514 C 409.867 0.402296 -1.65274 0
M  V30 4515 O 411.052 0.291683 -1.91997 0
M  V30 4516 C 408.182 0.106839 -3.47136 0
M  V30 4517 C 407.136 -0.788269 -4.20678 0
M  V30 4518 C 406.462 0.0254927 -5.34694 0
M  V30 4519 C 407.762 -2.08784 -4.78755 0
M  V30 4520 H 409.456 -1.44651 -2.62138 0
M  V30 4521 H 407.002 -0.696975 -1.26009 0
M  V30 4522 H 408.955 0.415531 -4.19346 0
M  V30 4523 H 407.679 1.01424 -3.10452 0
M  V30 4524 H 406.338 -1.08069 -3.50309 0
M  V30 4525 H 405.986 0.933989 -4.94253 0
M  V30 4526 H 405.686 -0.570437 -5.84825 0
M  V30 4527 H 407.21 0.328147 -6.09718 0
M  V30 4528 H 408.624 -1.84272 -5.42878 0
M  V30 4529 H 407.021 -2.63307 -5.39249 0
M  V30 4530 H 408.091 -2.76284 -3.98491 0
M  V30 4531 N 409.434 1.37368 -0.772513 0
M  V30 4532 C 410.384 2.27613 -0.132823 0
M  V30 4533 C 411.368 1.46138 0.673247 0
M  V30 4534 O 412.56 1.68686 0.536095 0
M  V30 4535 C 409.689 3.35122 0.744864 0
M  V30 4536 C 408.775 4.24044 -0.0690771 0
M  V30 4537 N 409.166 4.93355 -1.1151 0
M  V30 4538 C 407.464 4.45731 0.154782 0
M  V30 4539 C 408.165 5.59 -1.60917 0
M  V30 4540 N 407.141 5.35737 -0.921222 0
M  V30 4541 H 410.943 2.78675 -0.933681 0
M  V30 4542 H 408.457 1.50494 -0.610342 0
M  V30 4543 H 410.454 3.98683 1.21892 0
M  V30 4544 H 409.114 2.85616 1.54446 0
M  V30 4545 H 410.125 4.95785 -1.49726 0
M  V30 4546 H 406.802 4.07096 0.926224 0
M  V30 4547 H 408.192 6.24395 -2.48153 0
M  V30 4548 N 410.912 0.523116 1.48665 0
M  V30 4549 C 411.862 -0.263106 2.26477 0
M  V30 4550 C 412.846 -0.916005 1.32281 0
M  V30 4551 O 414.038 -0.819946 1.56863 0
M  V30 4552 C 411.167 -1.31361 3.17174 0
M  V30 4553 C 410.253 -0.665849 4.1884 0
M  V30 4554 N 410.644 0.244434 5.05209 0
M  V30 4555 C 408.942 -0.923863 4.36326 0
M  V30 4556 C 409.643 0.617443 5.78414 0
M  V30 4557 N 408.619 -0.0198686 5.43596 0
M  V30 4558 H 412.421 0.437295 2.90629 0
M  V30 4559 H 409.935 0.340675 1.58787 0
M  V30 4560 H 411.932 -1.89052 3.71571 0
M  V30 4561 H 410.592 -2.01546 2.54576 0
M  V30 4562 H 411.603 0.616621 5.14216 0
M  V30 4563 H 408.28 -1.6168 3.84923 0
M  V30 4564 H 409.67 1.36346 6.57921 0
M  V30 4565 N 412.39 -1.55475 0.257931 0
M  V30 4566 C 413.338 -2.23244 -0.653076 0
M  V30 4567 C 414.332 -1.22366 -1.17144 0
M  V30 4568 O 415.538 -1.40347 -1.12706 0
M  V30 4569 H 411.913 -0.716247 -0.229117 0
M  V30 4570 H 413.884 -2.98343 -0.0584788 0
M  V30 4571 C 412.633 -2.95401 -1.83395 0
M  V30 4572 H 411.956 -3.72802 -1.44424 0
M  V30 4573 H 413.396 -3.46165 -2.44838 0
M  V30 4574 C 411.855 -1.99895 -2.71189 0
M  V30 4575 O 412.385 -1.53909 -3.71046 0
M  V30 4576 N 410.591 -1.6676 -2.3799 0
M  V30 4577 H 410.138 -2.04352 -1.56837 0
M  V30 4578 H 410.096 -1.03127 -2.97005 0
M  V30 4579 N 413.868 0.0150385 -1.57593 0
M  V30 4580 C 414.815 1.01126 -2.07466 0
M  V30 4581 C 415.785 1.35064 -0.966794 0
M  V30 4582 O 416.97 1.4516 -1.23827 0
M  V30 4583 C 414.11 2.30276 -2.57035 0
M  V30 4584 C 413.223 2.02373 -3.81666 0
M  V30 4585 C 412.358 3.25496 -4.19793 0
M  V30 4586 C 411.397 2.93211 -5.37303 0
M  V30 4587 N 410.534 4.08826 -5.70794 0
M  V30 4588 H 415.374 0.57901 -2.92321 0
M  V30 4589 H 412.911 0.27426 -1.44521 0
M  V30 4590 H 414.869 3.05757 -2.83846 0
M  V30 4591 H 413.499 2.71197 -1.75077 0
M  V30 4592 H 412.551 1.17327 -3.61854 0
M  V30 4593 H 413.863 1.74567 -4.67256 0
M  V30 4594 H 413.017 4.09333 -4.47807 0
M  V30 4595 H 411.756 3.56428 -3.32882 0
M  V30 4596 H 410.761 2.07777 -5.09027 0
M  V30 4597 H 411.986 2.63542 -6.25877 0
M  V30 4598 H 409.932 4.39682 -4.86842 0
M  V30 4599 H 409.849 3.84491 -6.50924 0
M  V30 4600 H 411.117 4.93496 -6.03392 0
M  V30 4601 N 415.346 1.54954 0.287554 0
M  V30 4602 C 416.276 1.89839 1.35954 0
M  V30 4603 C 417.257 0.758675 1.52244 0
M  V30 4604 O 418.442 1.01557 1.65529 0
M  V30 4605 C 415.572 2.15753 2.72154 0
M  V30 4606 C 414.526 3.3159 2.70614 0
M  V30 4607 C 413.852 3.42952 4.10229 0
M  V30 4608 C 415.152 4.68359 2.31165 0
M  V30 4609 H 416.846 2.79625 1.07007 0
M  V30 4610 H 414.392 1.3454 0.513316 0
M  V30 4611 H 416.345 2.38743 3.47246 0
M  V30 4612 H 415.069 1.22752 3.02654 0
M  V30 4613 H 413.728 3.08545 1.97979 0
M  V30 4614 H 413.376 2.47443 4.37928 0
M  V30 4615 H 413.076 4.20826 4.10097 0
M  V30 4616 H 414.6 3.68218 4.87081 0
M  V30 4617 H 416.014 4.9099 2.95976 0
M  V30 4618 H 414.411 5.49044 2.42221 0
M  V30 4619 H 415.481 4.68165 1.26291 0
M  V30 4620 N 416.824 -0.551391 1.4764 0
M  V30 4621 C 418.052 -1.33357 1.58189 0
M  V30 4622 C 418.467 -1.87342 0.234199 0
M  V30 4623 O 417.824 -1.65301 -0.77343 0
M  V30 4624 C 417.875 -2.49942 2.61173 0
M  V30 4625 O 417.596 -1.98187 3.90709 0
M  V30 4626 C 419.097 -3.42072 2.8196 0
M  V30 4627 H 416.317 -0.40631 0.533998 0
M  V30 4628 H 418.861 -0.667367 1.93304 0
M  V30 4629 H 417.016 -3.12489 2.28975 0
M  V30 4630 H 417.43 -2.74342 4.47031 0
M  V30 4631 H 418.904 -4.20278 3.57869 0
M  V30 4632 H 419.381 -3.95978 1.89995 0
M  V30 4633 H 419.987 -2.85336 3.15378 0
M  V30 4634 N 418.302 -1.35869 -0.798587 0
M  V30 4635 C 419.252 -1.25982 -1.90033 0
M  V30 4636 C 420.236 -0.153303 -1.60168 0
M  V30 4637 O 421.428 -0.38527 -1.72756 0
M  V30 4638 C 418.557 -1.04211 -3.27101 0
M  V30 4639 C 417.643 -2.19289 -3.63006 0
M  V30 4640 N 418.034 -3.44559 -3.70287 0
M  V30 4641 C 416.332 -2.10852 -3.93011 0
M  V30 4642 C 417.033 -4.20283 -4.02166 0
M  V30 4643 N 416.009 -3.49124 -4.16669 0
M  V30 4644 H 419.811 -2.20883 -1.93876 0
M  V30 4645 H 417.325 -1.28457 -0.993614 0
M  V30 4646 H 419.322 -0.952155 -4.05881 0
M  V30 4647 H 417.982 -0.102013 -3.2454 0
M  V30 4648 H 418.993 -3.7881 -3.53162 0
M  V30 4649 H 415.67 -1.24744 -3.98428 0
M  V30 4650 H 417.06 -5.28575 -4.14799 0
M  V30 4651 N 419.78 1.02168 -1.19998 0
M  V30 4652 C 421.008 1.79296 -1.03249 0
M  V30 4653 C 421.423 1.84103 0.418502 0
M  V30 4654 O 420.78 1.29031 1.29063 0
M  V30 4655 C 420.831 3.24007 -1.60319 0
M  V30 4656 O 420.552 3.19512 -2.99739 0
M  V30 4657 C 422.053 4.17704 -1.48453 0
M  V30 4658 H 419.273 0.564016 -0.363493 0
M  V30 4659 H 421.817 1.28639 -1.58973 0
M  V30 4660 H 419.972 3.7183 -1.08727 0
M  V30 4661 H 420.386 4.10306 -3.26725 0
M  V30 4662 H 421.86 5.17104 -1.93153 0
M  V30 4663 H 422.337 4.37029 -0.436193 0
M  V30 4664 H 422.943 3.7576 -1.99211 0
M  V30 4665 N 421.258 1.00505 1.21394 0
M  V30 4666 C 422.535 0.603277 1.86064 0
M  V30 4667 C 422.915 -0.919095 1.90042 0
M  V30 4668 O 422.263 -1.80607 1.39977 0
M  V30 4669 C 422.473 1.23772 3.26315 0
M  V30 4670 C 423.821 1.34586 4.02705 0
M  V30 4671 O 424.845 1.19304 3.35626 0
M  V30 4672 O 423.704 1.59169 5.22807 0
M  V30 4673 H 420.798 0.206634 0.800769 0
M  V30 4674 H 423.344 1.1017 1.29076 0
M  V30 4675 H 422.116 2.27848 3.18121 0
M  V30 4676 H 421.739 0.725648 3.90922 0
M  V30 4677 N 422.737 -1.36956 0.779787 0
M  V30 4678 C 423.667 -2.32761 0.185651 0
M  V30 4679 C 424.648 -1.56177 -0.673989 0
M  V30 4680 O 425.833 -1.84378 -0.609797 0
M  V30 4681 C 422.963 -3.40418 -0.687964 0
M  V30 4682 C 421.917 -4.27941 0.0710102 0
M  V30 4683 C 421.243 -5.26681 -0.922573 0
M  V30 4684 C 422.543 -5.07006 1.25467 0
M  V30 4685 H 424.237 -2.82698 0.986008 0
M  V30 4686 H 421.783 -1.3592 0.475592 0
M  V30 4687 H 423.736 -4.06423 -1.11348 0
M  V30 4688 H 422.46 -2.89025 -1.52093 0
M  V30 4689 H 421.119 -3.63478 0.47739 0
M  V30 4690 H 420.767 -4.71565 -1.7503 0
M  V30 4691 H 420.467 -5.86103 -0.419237 0
M  V30 4692 H 421.991 -5.9556 -1.34686 0
M  V30 4693 H 423.405 -5.66105 0.905401 0
M  V30 4694 H 421.802 -5.75793 1.69063 0
M  V30 4695 H 422.872 -4.3921 2.05481 0
M  V30 4696 N 424.215 -0.530993 -1.48385 0
M  V30 4697 C 425.162 0.231223 -2.29639 0
M  V30 4698 C 426.132 0.932864 -1.37429 0
M  V30 4699 O 427.317 0.933692 -1.66394 0
M  V30 4700 C 424.457 1.27155 -3.2082 0
M  V30 4701 C 423.57 0.578655 -4.28107 0
M  V30 4702 C 422.705 1.602 -5.06467 0
M  V30 4703 C 421.744 0.892625 -6.05556 0
M  V30 4704 N 420.881 1.86157 -6.76971 0
M  V30 4705 H 425.721 -0.467848 -2.94305 0
M  V30 4706 H 423.258 -0.242556 -1.45086 0
M  V30 4707 H 425.216 1.88703 -3.72085 0
M  V30 4708 H 423.846 1.939 -2.58075 0
M  V30 4709 H 422.898 -0.150782 -3.80101 0
M  V30 4710 H 424.21 0.0217065 -4.98795 0
M  V30 4711 H 423.364 2.29173 -5.61751 0
M  V30 4712 H 422.103 2.19285 -4.35621 0
M  V30 4713 H 421.108 0.188829 -5.49476 0
M  V30 4714 H 422.333 0.307878 -6.78402 0
M  V30 4715 H 420.279 2.44147 -6.08875 0
M  V30 4716 H 420.196 1.35608 -7.43738 0
M  V30 4717 H 421.464 2.54325 -7.36844 0
M  V30 4718 N 425.693 1.55336 -0.266172 0
M  V30 4719 C 427.104 1.85236 0.233315 0
M  V30 4720 C 427.455 1.18816 1.56132 0
M  V30 4721 O 426.58 0.473307 2.11161 0
M  V30 4722 C 427.175 3.36059 0.430113 0
M  V30 4723 C 425.734 3.66116 0.873842 0
M  V30 4724 C 424.881 2.77274 -0.0380016 0
M  V30 4725 H 427.832 1.51004 -0.488214 0
M  V30 4726 H 427.853 3.58681 1.26998 0
M  V30 4727 H 427.365 3.84373 -0.536588 0
M  V30 4728 H 425.466 3.23295 1.85233 0
M  V30 4729 H 425.579 4.73699 0.717358 0
M  V30 4730 H 423.943 2.50198 0.476759 0
M  V30 4731 H 424.726 3.284 -1.00042 0
M  V30 4732 N 427.171 -0.0066808 1.57599 0
M  V30 4733 C 428.081 -1.01671 2.11424 0
M  V30 4734 C 429.097 -1.38143 1.05795 0
M  V30 4735 O 430.273 -1.47011 1.37658 0
M  V30 4736 C 427.338 -2.29192 2.60139 0
M  V30 4737 C 426.399 -1.99094 3.80342 0
M  V30 4738 C 425.632 -3.20535 4.26724 0
M  V30 4739 O 425.855 -4.3199 3.72479 0
M  V30 4740 O 424.789 -3.04924 5.18946 0
M  V30 4741 H 428.615 -0.589181 2.9793 0
M  V30 4742 H 426.2 -0.225091 1.47695 0
M  V30 4743 H 428.082 -3.0412 2.917 0
M  V30 4744 H 426.757 -2.71195 1.76733 0
M  V30 4745 H 425.664 -1.21663 3.53764 0
M  V30 4746 H 426.997 -1.61931 4.648 0
M  V30 4747 N 428.649 -1.55105 -0.279332 0
M  V30 4748 C 429.597 -1.88333 -1.36505 0
M  V30 4749 C 430.591 -0.759043 -1.51443 0
M  V30 4750 O 431.797 -0.943312 -1.53302 0
M  V30 4751 H 428.172 -0.59766 -0.456406 0
M  V30 4752 H 430.143 -2.79041 -1.05728 0
M  V30 4753 C 428.892 -2.16628 -2.7197 0
M  V30 4754 H 428.215 -3.02624 -2.61264 0
M  V30 4755 H 429.655 -2.43803 -3.46895 0
M  V30 4756 C 428.114 -0.971807 -3.22579 0
M  V30 4757 O 428.644 -0.203228 -4.01186 0
M  V30 4758 N 426.85 -0.771238 -2.80179 0
M  V30 4759 H 426.397 -1.39792 -2.1637 0
M  V30 4760 H 426.355 0.0263667 -3.14389 0
M  V30 4761 N 430.127 0.543554 -1.4793 0
M  V30 4762 C 431.376 1.29649 -1.54512 0
M  V30 4763 C 431.689 1.94382 -0.217973 0
M  V30 4764 O 432.895 2.71017 -0.161908 0
M  V30 4765 C 431.351 2.35175 -2.72435 0
M  V30 4766 C 430.959 1.76572 -4.11736 0
M  V30 4767 C 432.703 3.11564 -2.8832 0
M  V30 4768 C 430.61 2.79958 -5.20939 0
M  V30 4769 H 429.54 0.487541 -0.57517 0
M  V30 4770 H 432.191 0.575708 -1.74235 0
M  V30 4771 H 430.573 3.10229 -2.46118 0
M  V30 4772 H 431.747 1.07799 -4.48013 0
M  V30 4773 H 430.062 1.12722 -4.00852 0
M  V30 4774 H 432.659 3.88794 -3.67074 0
M  V30 4775 H 433.002 3.66594 -1.97268 0
M  V30 4776 H 433.535 2.43623 -3.14472 0
M  V30 4777 H 430.274 2.29766 -6.13912 0
M  V30 4778 H 429.794 3.47101 -4.89164 0
M  V30 4779 H 431.473 3.43198 -5.48474 0
M  V30 4780 N 431.605 1.3629 0.791371 0
M  V30 4781 C 432.535 1.33137 1.91825 0
M  V30 4782 C 433.516 0.203168 1.68882 0
M  V30 4783 O 434.701 0.400509 1.90025 0
M  V30 4784 C 431.831 1.11793 3.28816 0
M  V30 4785 C 430.785 2.21417 3.66277 0
M  V30 4786 C 430.111 1.85218 5.01596 0
M  V30 4787 C 431.411 3.63489 3.75064 0
M  V30 4788 H 433.105 2.2743 1.9472 0
M  V30 4789 H 430.651 1.09479 0.935437 0
M  V30 4790 H 432.604 1.08222 4.07266 0
M  V30 4791 H 431.328 0.139501 3.26302 0
M  V30 4792 H 429.987 2.2411 2.90121 0
M  V30 4793 H 429.635 0.859544 4.95602 0
M  V30 4794 H 429.335 2.58611 5.27631 0
M  V30 4795 H 430.859 1.832 5.82469 0
M  V30 4796 H 432.273 3.63034 4.43711 0
M  V30 4797 H 430.67 4.35771 4.12582 0
M  V30 4798 H 431.74 3.98536 2.76219 0
M  V30 4799 N 433.083 -1.0153 1.20538 0
M  V30 4800 C 434.33 -1.75149 1.01633 0
M  V30 4801 C 434.658 -1.89189 -0.451399 0
M  V30 4802 O 433.913 -1.41551 -1.35136 0
M  V30 4803 C 434.212 -3.17213 1.64654 0
M  V30 4804 C 433.878 -3.23146 3.14464 0
M  V30 4805 C 432.54 -3.24472 3.55347 0
M  V30 4806 C 434.892 -3.21207 4.10458 0
M  V30 4807 C 432.22 -3.21532 4.90748 0
M  V30 4808 C 434.572 -3.19808 5.45807 0
M  V30 4809 C 433.236 -3.19439 5.86102 0
M  V30 4810 H 432.506 -0.640914 0.3719 0
M  V30 4811 H 435.153 -1.19071 1.49981 0
M  V30 4812 H 433.458 -3.76457 1.08571 0
M  V30 4813 H 435.155 -3.72871 1.4754 0
M  V30 4814 H 431.745 -3.2285 2.81897 0
M  V30 4815 H 435.929 -3.19351 3.79906 0
M  V30 4816 H 431.185 -3.19578 5.21229 0
M  V30 4817 H 435.359 -3.1726 6.19935 0
M  V30 4818 H 432.986 -3.16915 6.90991 0
M  V30 4819 N 434.561 -1.01147 -1.20859 0
M  V30 4820 C 435.807 -0.698899 -1.90377 0
M  V30 4821 C 436.14 0.76904 -1.78324 0
M  V30 4822 O 435.415 1.55817 -1.16409 0
M  V30 4823 C 435.698 -1.12878 -3.41951 0
M  V30 4824 C 435.551 -2.65665 -3.62963 0
M  V30 4825 C 436.87 -0.696114 -4.3456 0
M  V30 4826 H 433.989 -0.255372 -0.691342 0
M  V30 4827 H 436.631 -1.25831 -1.42361 0
M  V30 4828 H 434.781 -0.652827 -3.82976 0
M  V30 4829 H 436.453 -3.21074 -3.31224 0
M  V30 4830 H 434.696 -3.06878 -3.06608 0
M  V30 4831 H 435.367 -2.90797 -4.69192 0
M  V30 4832 H 437.843 -1.10521 -4.01154 0
M  V30 4833 H 436.719 -1.025 -5.39245 0
M  V30 4834 H 436.98 0.402465 -4.40264 0
M  V30 4835 N 436.039 1.36541 -0.78704 0
M  V30 4836 C 436.986 2.30082 -0.181901 0
M  V30 4837 C 437.956 1.5186 0.672896 0
M  V30 4838 O 439.141 1.80374 0.622072 0
M  V30 4839 C 436.281 3.3835 0.679197 0
M  V30 4840 C 435.394 4.31565 -0.193882 0
M  V30 4841 C 434.529 5.26915 0.673364 0
M  V30 4842 C 433.568 6.11769 -0.201315 0
M  V30 4843 N 432.705 6.99315 0.624777 0
M  V30 4844 H 437.545 2.81248 -0.985064 0
M  V30 4845 H 435.082 1.38437 -0.497342 0
M  V30 4846 H 437.04 3.99767 1.19341 0
M  V30 4847 H 435.67 2.8851 1.44781 0
M  V30 4848 H 434.722 3.71323 -0.826044 0
M  V30 4849 H 436.034 4.91191 -0.867937 0
M  V30 4850 H 435.188 5.9361 1.25348 0
M  V30 4851 H 433.927 4.67737 1.38105 0
M  V30 4852 H 432.932 5.44039 -0.793849 0
M  V30 4853 H 434.157 6.73022 -0.906568 0
M  V30 4854 H 432.103 6.42648 1.3168 0
M  V30 4855 H 432.02 7.56 0.00835237 0
M  V30 4856 H 433.288 7.70382 1.18879 0
M  V30 4857 N 437.518 0.538854 1.48102 0
M  V30 4858 C 438.743 0.0102694 2.07397 0
M  V30 4859 C 439.168 -1.26562 1.39153 0
M  V30 4860 O 438.526 -1.75357 0.460387 0
M  V30 4861 C 438.574 -0.187602 3.60112 0
M  V30 4862 O 437.678 -1.25432 3.92862 0
M  V30 4863 H 437.019 0.0430975 0.6626 0
M  V30 4864 H 439.549 0.749301 1.90385 0
M  V30 4865 H 439.559 -0.407517 4.0596 0
M  V30 4866 H 438.234 0.744386 4.09184 0
M  V30 4867 H 436.811 -1.01636 3.58782 0
M  V30 4868 N 438.996 -1.55193 0.274407 0
M  V30 4869 C 440.273 -1.91584 -0.394331 0
M  V30 4870 C 440.653 -1.19858 -1.73774 0
M  V30 4871 O 440.001 -0.3252 -2.26174 0
M  V30 4872 C 440.211 -3.4487 -0.535311 0
M  V30 4873 C 441.559 -4.16636 -0.818534 0
M  V30 4874 O 442.583 -3.5076 -0.620146 0
M  V30 4875 O 441.442 -5.33209 -1.19792 0
M  V30 4876 H 438.536 -0.798349 -0.215794 0
M  V30 4877 H 441.082 -1.66646 0.320507 0
M  V30 4878 H 439.854 -3.89145 0.410141 0
M  V30 4879 H 439.477 -3.75759 -1.29964 0
M  V30 4880 N 440.474 -0.00167713 -1.576 0
M  V30 4881 C 441.704 0.692754 -1.94639 0
M  V30 4882 C 442.112 1.67744 -0.87513 0
M  V30 4883 O 441.455 1.8305 0.154382 0
M  V30 4884 C 441.517 1.47881 -3.27676 0
M  V30 4885 C 441.181 0.655518 -4.52274 0
M  V30 4886 C 442.178 -0.0575214 -5.19868 0
M  V30 4887 C 439.863 0.600994 -4.98692 0
M  V30 4888 C 441.857 -0.814052 -6.3218 0
M  V30 4889 C 439.544 -0.15926 -6.10892 0
M  V30 4890 C 440.542 -0.865515 -6.77494 0
M  V30 4891 O 440.23 -1.61336 -7.87544 0
M  V30 4892 H 439.962 0.197792 -0.646417 0
M  V30 4893 H 442.516 -0.049423 -2.05341 0
M  V30 4894 H 440.746 2.2655 -3.13388 0
M  V30 4895 H 442.435 2.05874 -3.49816 0
M  V30 4896 H 443.201 -0.0245611 -4.84994 0
M  V30 4897 H 439.08 1.14025 -4.46676 0
M  V30 4898 H 442.624 -1.36584 -6.84098 0
M  V30 4899 H 438.521 -0.194035 -6.45208 0
M  V30 4900 H 439.289 -1.53025 -8.04068 0
M  V30 4901 N 441.952 1.55251 0.271103 0
M  V30 4902 C 443.198 1.76207 1.00394 0
M  V30 4903 C 443.531 0.562604 1.85872 0
M  V30 4904 O 442.806 -0.439785 1.89463 0
M  V30 4905 C 443.089 3.06828 1.8849 0
M  V30 4906 C 442.942 4.37134 1.05992 0
M  V30 4907 C 444.261 3.33503 2.87165 0
M  V30 4908 H 441.38 0.641086 0.363562 0
M  V30 4909 H 444.022 1.87982 0.276189 0
M  V30 4910 H 442.172 2.96921 2.5054 0
M  V30 4911 H 443.844 4.59001 0.459978 0
M  V30 4912 H 442.087 4.32275 0.363443 0
M  V30 4913 H 442.758 5.2486 1.70955 0
M  V30 4914 H 445.234 3.43215 2.3525 0
M  V30 4915 H 444.11 4.2616 3.45946 0
M  V30 4916 H 444.371 2.53235 3.62387 0
M  V30 4917 N 443.43 -0.535701 1.48216 0
M  V30 4918 C 444.676 -1.29375 1.56173 0
M  V30 4919 C 445.009 -1.92804 0.232429 0
M  V30 4920 O 444.284 -1.78992 -0.761048 0
M  V30 4921 C 444.567 -2.38747 2.69577 0
M  V30 4922 C 444.42 -1.80046 4.12193 0
M  V30 4923 C 445.739 -3.40551 2.78771 0
M  V30 4924 H 442.858 -0.469027 0.568491 0
M  V30 4925 H 445.5 -0.597358 1.80365 0
M  V30 4926 H 443.65 -2.98147 2.4908 0
M  V30 4927 H 445.322 -1.24742 4.44114 0
M  V30 4928 H 443.565 -1.10609 4.19462 0
M  V30 4929 H 444.236 -2.59212 4.87353 0
M  V30 4930 H 446.712 -2.91099 2.97322 0
M  V30 4931 H 445.588 -4.1448 3.59857 0
M  V30 4932 H 445.849 -4.00746 1.86696 0
M  V30 4933 N 444.908 -1.36708 -0.784132 0
M  V30 4934 C 445.855 -1.31466 -1.89698 0
M  V30 4935 C 446.825 -0.18239 -1.65096 0
M  V30 4936 O 448.01 -0.369762 -1.87183 0
M  V30 4937 C 445.15 -1.1151 -3.26588 0
M  V30 4938 C 444.263 -2.33859 -3.63227 0
M  V30 4939 C 443.398 -2.06873 -4.89262 0
M  V30 4940 C 442.437 -3.25154 -5.18595 0
M  V30 4941 N 441.574 -2.978 -6.35814 0
M  V30 4942 H 446.414 -2.26619 -1.93515 0
M  V30 4943 H 443.951 -1.12625 -0.946256 0
M  V30 4944 H 445.909 -0.979653 -4.05535 0
M  V30 4945 H 444.539 -0.200103 -3.22179 0
M  V30 4946 H 443.591 -2.58188 -2.79362 0
M  V30 4947 H 444.903 -3.22109 -3.8085 0
M  V30 4948 H 444.057 -1.90289 -5.76086 0
M  V30 4949 H 442.796 -1.15942 -4.73718 0
M  V30 4950 H 441.801 -3.42292 -4.30251 0
M  V30 4951 H 443.026 -4.1692 -5.36055 0
M  V30 4952 H 440.972 -2.09485 -6.21653 0
M  V30 4953 H 440.889 -3.7959 -6.53794 0
M  V30 4954 H 442.157 -2.84805 -7.25607 0
M  V30 4955 N 446.386 1.0089 -1.21074 0
M  V30 4956 C 447.616 1.77933 -1.04993 0
M  V30 4957 C 448.024 1.84847 0.403495 0
M  V30 4958 O 447.367 1.30606 1.29181 0
M  V30 4959 C 447.429 3.23541 -1.56722 0
M  V30 4960 C 447.093 3.40214 -3.05129 0
M  V30 4961 C 448.09 3.2881 -4.02716 0
M  V30 4962 C 445.775 3.65781 -3.44252 0
M  V30 4963 C 447.769 3.42732 -5.37414 0
M  V30 4964 C 445.456 3.79346 -4.79103 0
M  V30 4965 C 446.454 3.67827 -5.75493 0
M  V30 4966 O 446.142 3.80965 -7.07899 0
M  V30 4967 H 445.874 0.566157 -0.369381 0
M  V30 4968 H 448.428 1.27826 -1.60779 0
M  V30 4969 H 446.658 3.74766 -0.953285 0
M  V30 4970 H 448.347 3.82245 -1.36543 0
M  V30 4971 H 449.113 3.08986 -3.73835 0
M  V30 4972 H 444.992 3.73831 -2.69762 0
M  V30 4973 H 448.536 3.33658 -6.12632 0
M  V30 4974 H 444.433 3.98672 -5.07672 0
M  V30 4975 H 445.201 3.97937 -7.15254 0
M  V30 4976 N 447.864 1.01787 1.20321 0
M  V30 4977 C 448.812 0.58254 2.25187 0
M  V30 4978 C 449.806 -0.379359 1.65098 0
M  V30 4979 O 451.012 -0.249142 1.78267 0
M  V30 4980 H 447.387 0.170078 0.732514 0
M  V30 4981 H 449.358 1.47788 2.59232 0
M  V30 4982 C 448.107 -0.0620885 3.47645 0
M  V30 4983 H 447.43 0.669069 3.94162 0
M  V30 4984 H 448.87 -0.329784 4.22716 0
M  V30 4985 C 447.329 -1.3053 3.10586 0
M  V30 4986 O 447.859 -2.39848 3.22236 0
M  V30 4987 N 446.065 -1.18988 2.65123 0
M  V30 4988 H 445.612 -0.300341 2.55843 0
M  V30 4989 H 445.57 -2.02267 2.40698 0
M  V30 4990 N 449.342 -1.36122 0.79427 0
M  V30 4991 C 450.567 -2.03891 0.379871 0
M  V30 4992 C 450.992 -1.59488 -0.997251 0
M  V30 4993 O 450.35 -0.765652 -1.64339 0
M  V30 4994 C 450.398 -3.57687 0.457442 0
M  V30 4995 O 449.502 -4.08931 -0.5338 0
M  V30 4996 H 448.843 -0.6443 0.160541 0
M  V30 4997 H 451.373 -1.73976 1.07673 0
M  V30 4998 H 451.383 -4.06721 0.322792 0
M  V30 4999 H 450.058 -3.89357 1.46199 0
M  V30 5000 H 448.635 -3.71154 -0.360409 0
M  V30 5001 N 450.82 -0.546701 -1.47814 0
M  V30 5002 C 451.767 0.206854 -2.29871 0
M  V30 5003 C 452.737 0.918235 -1.38411 0
M  V30 5004 O 453.922 0.915991 -1.67375 0
M  V30 5005 C 451.062 1.23746 -3.22151 0
M  V30 5006 C 450.175 0.533216 -4.28697 0
M  V30 5007 C 449.31 1.5482 -5.08138 0
M  V30 5008 C 448.349 0.828347 -6.06469 0
M  V30 5009 N 447.486 1.78966 -6.78908 0
M  V30 5010 H 452.326 -0.499037 -2.93792 0
M  V30 5011 H 449.863 -0.25793 -1.44821 0
M  V30 5012 H 451.821 1.84746 -3.74065 0
M  V30 5013 H 450.451 1.91151 -2.60117 0
M  V30 5014 H 449.503 -0.191089 -3.7992 0
M  V30 5015 H 450.815 -0.0311987 -4.9879 0
M  V30 5016 H 449.969 2.23202 -5.6415 0
M  V30 5017 H 448.708 2.14652 -4.37922 0
M  V30 5018 H 447.713 0.130539 -5.49645 0
M  V30 5019 H 448.938 0.235907 -6.7869 0
M  V30 5020 H 446.884 2.37675 -6.1143 0
M  V30 5021 H 446.801 1.27712 -7.45135 0
M  V30 5022 H 448.069 2.46496 -7.395 0
M  V30 5023 N 452.299 1.55045 -0.282633 0
M  V30 5024 C 453.232 2.18951 0.64311 0
M  V30 5025 C 454.21 1.15287 1.14664 0
M  V30 5026 O 455.394 1.43846 1.21822 0
M  V30 5027 C 452.521 2.81874 1.87789 0
M  V30 5028 C 451.567 3.98906 1.50919 0
M  V30 5029 S 452.4 5.3234 0.580884 0
M  V30 5030 C 453.556 5.98737 1.82387 0
M  V30 5031 H 453.789 2.97131 0.100138 0
M  V30 5032 H 451.322 1.54255 -0.0668514 0
M  V30 5033 H 453.28 3.18757 2.58658 0
M  V30 5034 H 451.941 2.03573 2.392 0
M  V30 5035 H 451.134 4.4165 2.42819 0
M  V30 5036 H 450.736 3.63485 0.88061 0
M  V30 5037 H 453.028 6.18427 2.76684 0
M  V30 5038 H 453.971 6.93318 1.4393 0
M  V30 5039 H 454.379 5.28177 1.99223 0
M  V30 5040 N 453.777 0.010035 1.57597 0
M  V30 5041 C 454.724 -0.978122 2.09049 0
M  V30 5042 C 455.694 -1.33509 0.988159 0
M  V30 5043 O 456.879 -1.43172 1.26121 0
M  V30 5044 C 454.019 -2.26158 2.60666 0
M  V30 5045 C 453.132 -1.96275 3.84838 0
M  V30 5046 C 452.267 -3.18776 4.24918 0
M  V30 5047 C 451.306 -2.84625 5.41899 0
M  V30 5048 N 450.443 -3.99693 5.77226 0
M  V30 5049 H 455.283 -0.532431 2.93205 0
M  V30 5050 H 452.82 -0.251234 1.44939 0
M  V30 5051 H 454.778 -3.01202 2.88675 0
M  V30 5052 H 453.408 -2.68378 1.79369 0
M  V30 5053 H 452.46 -1.11555 3.63675 0
M  V30 5054 H 453.772 -1.67111 4.69974 0
M  V30 5055 H 452.926 -4.02157 4.54262 0
M  V30 5056 H 451.665 -3.51087 3.38511 0
M  V30 5057 H 450.67 -1.99653 5.12268 0
M  V30 5058 H 451.895 -2.53551 6.29991 0
M  V30 5059 H 449.841 -4.31882 4.93776 0
M  V30 5060 H 449.758 -3.74087 6.56959 0
M  V30 5061 H 451.026 -4.83834 6.11167 0
M  V30 5062 N 455.255 -1.55392 -0.262866 0
M  V30 5063 C 456.671 -1.47459 -0.610582 0
M  V30 5064 C 456.871 -0.697031 -1.8906 0
M  V30 5065 O 455.927 -0.219952 -2.5154 0
M  V30 5066 C 457.24 -2.91751 -0.728131 0
M  V30 5067 C 458.788 -3.02027 -0.821517 0
M  V30 5068 C 459.263 -4.47594 -0.97076 0
M  V30 5069 N 460.754 -4.51465 -1.03603 0
M  V30 5070 C 461.489 -5.61326 -1.17049 0
M  V30 5071 N 460.985 -6.81032 -1.2715 0
M  V30 5072 N 462.778 -5.49089 -1.20239 0
M  V30 5073 H 454.929 -2.04395 0.577632 0
M  V30 5074 H 457.192 -0.927287 0.197086 0
M  V30 5075 H 456.898 -3.51413 0.142132 0
M  V30 5076 H 456.772 -3.4134 -1.6052 0
M  V30 5077 H 459.159 -2.42456 -1.68224 0
M  V30 5078 H 459.24 -2.55674 0.0803688 0
M  V30 5079 H 458.884 -5.07771 -0.114655 0
M  V30 5080 H 458.814 -4.91613 -1.88745 0
M  V30 5081 H 461.305 -3.6524 -0.96996 0
M  V30 5082 H 461.618 -7.60511 -1.37271 0
M  V30 5083 H 459.963 -6.83824 -1.24136 0
M  V30 5084 H 463.154 -4.54507 -1.11985 0
M  V30 5085 H 463.327 -6.34749 -1.30373 0
M  V30 5086 N 456.733 0.527833 -1.48498 0
M  V30 5087 C 458.01 1.28905 -1.47115 0
M  V30 5088 C 458.39 2.10297 -0.184007 0
M  V30 5089 O 457.738 2.12728 0.834218 0
M  V30 5090 C 457.948 2.16866 -2.73441 0
M  V30 5091 C 459.296 2.76936 -3.21857 0
M  V30 5092 O 460.32 2.27152 -2.74373 0
M  V30 5093 O 459.179 3.67496 -4.04486 0
M  V30 5094 H 456.273 0.581918 -0.587623 0
M  V30 5095 H 458.819 0.544311 -1.60734 0
M  V30 5096 H 457.591 1.56521 -3.58632 0
M  V30 5097 H 457.214 2.98583 -2.62553 0
M  V30 5098 N 458.211 1.37122 0.776871 0
M  V30 5099 C 459.121 1.34651 1.9211 0
M  V30 5100 C 460.137 0.246824 1.7224 0
M  V30 5101 O 461.313 0.48134 1.95563 0
M  V30 5102 C 458.378 1.14748 3.2716 0
M  V30 5103 C 457.439 2.34308 3.5972 0
M  V30 5104 C 456.672 2.15345 4.88326 0
M  V30 5105 O 456.895 1.13507 5.58992 0
M  V30 5106 O 455.829 3.03414 5.1983 0
M  V30 5107 H 459.655 2.31013 1.97146 0
M  V30 5108 H 457.24 1.17799 0.918901 0
M  V30 5109 H 459.122 1.05616 4.0795 0
M  V30 5110 H 457.797 0.214562 3.22988 0
M  V30 5111 H 456.704 2.49011 2.79185 0
M  V30 5112 H 458.037 3.26149 3.68629 0
M  V30 5113 N 459.689 -1.00246 1.21608 0
M  V30 5114 C 461.105 -1.26435 0.973975 0
M  V30 5115 C 461.305 -1.98642 -0.338143 0
M  V30 5116 O 460.361 -2.29026 -1.06317 0
M  V30 5117 C 461.674 -2.08551 2.16626 0
M  V30 5118 C 463.222 -2.21769 2.20879 0
M  V30 5119 C 463.697 -3.07267 3.39633 0
M  V30 5120 N 465.188 -3.14855 3.39736 0
M  V30 5121 C 465.923 -3.81274 4.28273 0
M  V30 5122 N 465.419 -4.497 5.27012 0
M  V30 5123 N 467.212 -3.7794 4.16074 0
M  V30 5124 H 459.363 -0.518089 2.05984 0
M  V30 5125 H 461.626 -0.291368 0.902113 0
M  V30 5126 H 461.332 -1.62847 3.11727 0
M  V30 5127 H 461.206 -3.09303 2.15897 0
M  V30 5128 H 463.593 -2.66691 1.26332 0
M  V30 5129 H 463.674 -1.20478 2.25652 0
M  V30 5130 H 463.318 -2.63047 4.34475 0
M  V30 5131 H 463.248 -4.08678 3.321 0
M  V30 5132 H 465.739 -2.66147 2.6828 0
M  V30 5133 H 466.052 -4.98092 5.90867 0
M  V30 5134 H 464.397 -4.48479 5.30935 0
M  V30 5135 H 467.588 -3.23638 3.38195 0
M  V30 5136 H 467.761 -4.29424 4.85282 0
M  V30 5137 N 461.167 -1.02423 -1.1978 0
M  V30 5138 C 462.395 -0.737456 -1.93311 0
M  V30 5139 C 462.81 0.703023 -1.75223 0
M  V30 5140 O 462.167 1.47761 -1.07112 0
M  V30 5141 C 462.218 -1.0733 -3.45199 0
M  V30 5142 O 461.939 -2.4572 -3.62702 0
M  V30 5143 C 463.44 -0.80866 -4.35862 0
M  V30 5144 H 460.66 -0.2702 -0.614193 0
M  V30 5145 H 463.204 -1.36747 -1.52054 0
M  V30 5146 H 461.359 -0.488545 -3.84307 0
M  V30 5147 H 461.773 -2.58081 -4.56612 0
M  V30 5148 H 463.247 -1.09365 -5.41057 0
M  V30 5149 H 463.724 0.257025 -4.38447 0
M  V30 5150 H 464.33 -1.37592 -4.02428 0
M  V30 5151 N 462.645 1.35699 -0.801477 0
M  V30 5152 C 463.575 2.32436 -0.222658 0
M  V30 5153 C 464.556 1.5723 0.649057 0
M  V30 5154 O 465.741 1.85324 0.580387 0
M  V30 5155 C 462.871 3.41469 0.633719 0
M  V30 5156 C 461.825 4.27774 -0.139083 0
M  V30 5157 C 461.151 5.28082 0.838666 0
M  V30 5158 C 462.451 5.04946 -1.33517 0
M  V30 5159 H 464.145 2.81094 -1.03086 0
M  V30 5160 H 461.691 1.35146 -0.497155 0
M  V30 5161 H 463.644 4.08143 1.04868 0
M  V30 5162 H 462.368 2.91408 1.47475 0
M  V30 5163 H 461.027 3.62673 -0.535156 0
M  V30 5164 H 460.675 4.7429 1.67506 0
M  V30 5165 H 460.375 5.86695 0.32594 0
M  V30 5166 H 461.899 5.97628 1.25194 0
M  V30 5167 H 463.313 5.64593 -0.995349 0
M  V30 5168 H 461.71 5.7303 -1.78202 0
M  V30 5169 H 462.78 4.35886 -2.12442 0
M  V30 5170 N 464.123 0.554532 1.47522 0
M  V30 5171 C 465.07 -0.19466 2.29978 0
M  V30 5172 C 466.04 -0.910882 1.38896 0
M  V30 5173 O 467.225 -0.907102 1.67858 0
M  V30 5174 C 464.365 -1.22035 3.22802 0
M  V30 5175 C 463.478 -0.510474 4.28973 0
M  V30 5176 C 462.613 -1.52123 5.08952 0
M  V30 5177 C 461.652 -0.796173 6.069 0
M  V30 5178 N 460.789 -1.75363 6.79847 0
M  V30 5179 H 465.629 0.51461 2.93523 0
M  V30 5180 H 463.166 0.265607 1.44682 0
M  V30 5181 H 465.124 -1.8276 3.7504 0
M  V30 5182 H 463.754 -1.89769 2.61127 0
M  V30 5183 H 462.806 0.211234 3.79813 0
M  V30 5184 H 464.118 0.0576503 4.98767 0
M  V30 5185 H 463.272 -2.20207 5.65326 0
M  V30 5186 H 462.011 -2.12327 4.39054 0
M  V30 5187 H 461.016 -0.101388 5.49707 0
M  V30 5188 H 462.241 -0.199911 6.78806 0
M  V30 5189 H 460.187 -2.3443 6.12682 0
M  V30 5190 H 460.104 -1.23759 7.45801 0
M  V30 5191 H 461.372 -2.4257 7.40797 0
M  V30 5192 N 465.601 -1.54893 0.290851 0
M  V30 5193 C 466.549 -2.24579 -0.605576 0
M  V30 5194 C 467.543 -1.24824 -1.14522 0
M  V30 5195 O 468.749 -1.42706 -1.09704 0
M  V30 5196 H 465.124 -0.720946 -0.213872 0
M  V30 5197 H 467.095 -2.984 0.0048173 0
M  V30 5198 C 465.844 -2.99224 -1.77088 0
M  V30 5199 H 465.167 -3.75782 -1.36484 0
M  V30 5200 H 466.607 -3.51281 -2.3744 0
M  V30 5201 C 465.066 -2.05602 -2.66888 0
M  V30 5202 O 465.596 -1.61745 -3.67698 0
M  V30 5203 N 463.802 -1.71771 -2.34399 0
M  V30 5204 H 463.349 -2.07633 -1.52468 0
M  V30 5205 H 463.307 -1.09403 -2.94751 0
M  V30 5206 N 467.08 -0.0183926 -1.57589 0
M  V30 5207 C 468.308 0.673046 -1.95647 0
M  V30 5208 C 468.723 1.66275 -0.894312 0
M  V30 5209 O 468.08 1.82072 0.124975 0
M  V30 5210 C 468.131 1.38884 -3.33756 0
M  V30 5211 O 467.852 0.438806 -4.35897 0
M  V30 5212 C 469.353 2.1731 -3.86383 0
M  V30 5213 H 466.573 0.186292 -0.644621 0
M  V30 5214 H 469.117 -0.0749748 -2.04363 0
M  V30 5215 H 467.272 2.08835 -3.26293 0
M  V30 5216 H 467.686 0.945869 -5.15901 0
M  V30 5217 H 469.16 2.62863 -4.85394 0
M  V30 5218 H 469.637 3.00764 -3.20059 0
M  V30 5219 H 470.243 1.52339 -3.97081 0
M  V30 5220 N 468.558 1.5553 0.254621 0
M  V30 5221 C 469.835 1.6774 1.00611 0
M  V30 5222 C 470.215 0.555993 2.03647 0
M  V30 5223 O 469.563 -0.441583 2.24193 0
M  V30 5224 C 469.773 3.07725 1.6464 0
M  V30 5225 C 471.121 3.66074 2.15116 0
M  V30 5226 O 472.145 3.10476 1.74595 0
M  V30 5227 O 471.004 4.63526 2.89493 0
M  V30 5228 H 468.098 0.681958 0.467828 0
M  V30 5229 H 470.644 1.67863 0.24902 0
M  V30 5230 H 469.416 3.80792 0.900734 0
M  V30 5231 H 469.039 3.1158 2.46989 0
M  V30 5232 N 470.036 -0.519951 1.48776 0
M  V30 5233 C 471.285 -1.27175 1.56555 0
M  V30 5234 C 471.598 -1.9401 0.248869 0
M  V30 5235 O 472.804 -2.70725 0.205004 0
M  V30 5236 C 471.26 -2.30811 2.76142 0
M  V30 5237 C 470.868 -1.7 4.14493 0
M  V30 5238 C 472.612 -3.06937 2.9324 0
M  V30 5239 C 470.519 -2.71635 5.25327 0
M  V30 5240 H 469.449 -0.478329 0.582853 0
M  V30 5241 H 472.1 -0.547916 1.75129 0
M  V30 5242 H 470.482 -3.06274 2.51023 0
M  V30 5243 H 471.656 -1.00658 4.49672 0
M  V30 5244 H 469.971 -1.06331 4.02595 0
M  V30 5245 H 472.568 -3.82905 3.73213 0
M  V30 5246 H 472.911 -3.63409 2.03075 0
M  V30 5247 H 473.444 -2.38589 3.18308 0
M  V30 5248 H 470.183 -2.1997 6.1749 0
M  V30 5249 H 469.703 -3.39275 4.94624 0
M  V30 5250 H 471.382 -3.34429 5.53865 0
M  V30 5251 N 471.514 -1.37532 -0.769588 0
M  V30 5252 C 472.461 -1.3347 -1.88293 0
M  V30 5253 C 473.431 -0.199891 -1.64893 0
M  V30 5254 O 474.616 -0.389594 -1.8678 0
M  V30 5255 C 471.756 -1.14968 -3.25387 0
M  V30 5256 C 470.869 -2.37698 -3.60727 0
M  V30 5257 C 470.004 -2.12051 -4.8704 0
M  V30 5258 C 469.043 -3.30636 -5.15117 0
M  V30 5259 N 468.18 -3.04527 -6.3262 0
M  V30 5260 H 473.02 -2.28658 -1.911 0
M  V30 5261 H 470.557 -1.13622 -0.934257 0
M  V30 5262 H 472.515 -1.02261 -4.04473 0
M  V30 5263 H 471.145 -0.234263 -3.21949 0
M  V30 5264 H 470.197 -2.61137 -2.76608 0
M  V30 5265 H 471.509 -3.26131 -3.77413 0
M  V30 5266 H 470.663 -1.96388 -5.74035 0
M  V30 5267 H 469.402 -1.20959 -4.72462 0
M  V30 5268 H 468.407 -3.46836 -4.26597 0
M  V30 5269 H 469.632 -4.22582 -5.31603 0
M  V30 5270 H 467.578 -2.16067 -6.19396 0
M  V30 5271 H 467.495 -3.86503 -6.49732 0
M  V30 5272 H 468.763 -2.92485 -7.22546 0
M  V30 5273 N 472.992 0.995999 -1.22138 0
M  V30 5274 C 474.238 1.73767 -1.04561 0
M  V30 5275 C 474.571 1.89633 0.418698 0
M  V30 5276 O 473.846 1.43723 1.3105 0
M  V30 5277 C 474.129 3.14505 -1.75382 0
M  V30 5278 C 473.982 3.06306 -3.29388 0
M  V30 5279 C 475.301 4.13615 -1.50369 0
M  V30 5280 H 472.42 0.630728 -0.38125 0
M  V30 5281 H 475.062 1.16057 -1.50435 0
M  V30 5282 H 473.212 3.63775 -1.36383 0
M  V30 5283 H 474.884 2.64681 -3.77812 0
M  V30 5284 H 473.127 2.43186 -3.59226 0
M  V30 5285 H 473.798 4.05884 -3.74116 0
M  V30 5286 H 476.274 3.73089 -1.84239 0
M  V30 5287 H 475.15 5.10212 -2.02421 0
M  V30 5288 H 475.411 4.39949 -0.435611 0
M  V30 5289 N 474.47 1.03057 1.19235 0
M  V30 5290 C 475.716 0.729098 1.89241 0
M  V30 5291 C 476.049 -0.740573 1.79525 0
M  V30 5292 O 475.324 -1.53946 1.18874 0
M  V30 5293 C 475.607 1.18304 3.40112 0
M  V30 5294 C 475.46 2.71406 3.5869 0
M  V30 5295 C 476.779 0.765161 4.33397 0
M  V30 5296 H 473.898 0.266338 0.687192 0
M  V30 5297 H 476.54 1.28079 1.40341 0
M  V30 5298 H 474.69 0.713672 3.81889 0
M  V30 5299 H 476.362 3.26303 3.26074 0
M  V30 5300 H 474.605 3.11717 3.01687 0
M  V30 5301 H 475.276 2.98225 4.64506 0
M  V30 5302 H 477.752 1.16889 3.99345 0
M  V30 5303 H 476.628 1.11065 5.37546 0
M  V30 5304 H 476.889 -0.332372 4.40849 0
M  V30 5305 N 475.948 -1.35272 0.808662 0
M  V30 5306 C 477.225 -1.93077 0.313181 0
M  V30 5307 C 477.605 -1.73847 -1.19752 0
M  V30 5308 O 476.953 -1.1087 -1.998 0
M  V30 5309 C 477.163 -3.41347 0.726859 0
M  V30 5310 C 478.511 -4.18493 0.717532 0
M  V30 5311 O 479.535 -3.4987 0.668535 0
M  V30 5312 O 478.394 -5.40937 0.777779 0
M  V30 5313 H 475.488 -0.822885 0.0824018 0
M  V30 5314 H 478.034 -1.44335 0.892499 0
M  V30 5315 H 476.806 -3.49082 1.76797 0
M  V30 5316 H 476.429 -3.97411 0.122461 0
M  V30 5317 N 477.426 -0.562348 -1.47226 0
M  V30 5318 C 478.673 -0.0402165 -2.0246 0
M  V30 5319 C 479.001 1.31169 -1.43614 0
M  V30 5320 O 478.256 1.86805 -0.5833 0
M  V30 5321 C 478.555 0.0969817 -3.57268 0
M  V30 5322 C 478.221 -1.1847 -4.35058 0
M  V30 5323 C 476.883 -1.53588 -4.56031 0
M  V30 5324 C 479.235 -2.03378 -4.79882 0
M  V30 5325 C 476.563 -2.73452 -5.19077 0
M  V30 5326 C 478.915 -3.2245 -5.44251 0
M  V30 5327 C 477.579 -3.57876 -5.63455 0
M  V30 5328 H 476.849 -0.0147163 -0.740854 0
M  V30 5329 H 479.496 -0.734895 -1.76838 0
M  V30 5330 H 477.801 0.87466 -3.81912 0
M  V30 5331 H 479.498 0.516408 -3.97661 0
M  V30 5332 H 476.088 -0.90126 -4.19017 0
M  V30 5333 H 480.272 -1.77553 -4.63453 0
M  V30 5334 H 475.528 -3.01062 -5.32139 0
M  V30 5335 H 479.702 -3.88526 -5.77945 0
M  V30 5336 H 477.329 -4.50849 -6.12078 0
M  V30 5337 N 478.904 1.54736 -0.299062 0
M  V30 5338 C 480.152 1.99706 0.31017 0
M  V30 5339 C 480.473 1.18896 1.54559 0
M  V30 5340 O 479.743 0.284445 1.93824 0
M  V30 5341 H 478.323 0.737686 0.117596 0
M  V30 5342 H 480.985 1.9054 -0.409943 0
M  V30 5343 H 480.081 3.06596 0.58355 0
M  V30 5344 N 480.382 0.0267497 1.57577 0
M  V30 5345 C 481.607 -0.666227 1.96408 0
M  V30 5346 C 482.032 -1.65004 0.903071 0
M  V30 5347 O 481.39 -1.80787 -0.136263 0
M  V30 5348 C 481.438 -1.35101 3.34335 0
M  V30 5349 O 480.542 -2.46623 3.30531 0
M  V30 5350 H 479.883 -0.175206 0.640468 0
M  V30 5351 H 482.413 0.0878977 2.04411 0
M  V30 5352 H 482.423 -1.70834 3.70513 0
M  V30 5353 H 481.098 -0.629844 4.11103 0
M  V30 5354 H 479.675 -2.13019 3.06068 0
M  V30 5355 N 481.861 -1.55662 -0.24637 0
M  V30 5356 C 482.824 -1.89558 -1.28842 0
M  V30 5357 C 483.824 -0.772082 -1.41052 0
M  V30 5358 O 485.014 -1.04007 -1.39743 0
M  V30 5359 C 482.146 -2.12449 -2.66605 0
M  V30 5360 H 483.339 -2.82735 -1.00004 0
M  V30 5361 H 480.892 -1.48562 -0.485684 0
M  V30 5362 H 481.627 -1.21742 -3.00582 0
M  V30 5363 H 481.412 -2.94273 -2.59125 0
M  V30 5364 H 482.902 -2.39854 -3.41847 0
M  V30 5365 N 483.339 0.512053 -1.4905 0
M  V30 5366 C 484.567 1.29116 -1.61669 0
M  V30 5367 C 484.982 1.86655 -0.283787 0
M  V30 5368 O 484.339 1.67293 0.729331 0
M  V30 5369 C 484.39 2.4293 -2.67707 0
M  V30 5370 O 484.111 1.87758 -3.95826 0
M  V30 5371 C 485.612 3.34476 -2.90931 0
M  V30 5372 H 482.832 0.392009 -0.544583 0
M  V30 5373 H 485.376 0.615881 -1.95006 0
M  V30 5374 H 483.531 3.06308 -2.37179 0
M  V30 5375 H 483.945 2.62393 -4.54148 0
M  V30 5376 H 485.419 4.10642 -3.68886 0
M  V30 5377 H 485.896 3.90801 -2.00427 0
M  V30 5378 H 486.502 2.76874 -3.22832 0
M  V30 5379 N 484.817 1.37938 0.762283 0
M  V30 5380 C 486.047 1.36685 1.54922 0
M  V30 5381 C 486.455 -0.0474099 1.89141 0
M  V30 5382 O 485.798 -1.02213 1.52638 0
M  V30 5383 C 485.86 2.14963 2.88152 0
M  V30 5384 C 485.524 3.6385 2.76518 0
M  V30 5385 C 486.521 4.57531 2.46904 0
M  V30 5386 C 484.206 4.07095 2.94243 0
M  V30 5387 C 486.2 5.92436 2.35156 0
M  V30 5388 C 483.887 5.42083 2.82116 0
M  V30 5389 C 484.885 6.34567 2.52614 0
M  V30 5390 O 484.573 7.67073 2.40529 0
M  V30 5391 H 484.305 0.469586 0.486276 0
M  V30 5392 H 486.859 1.82012 0.951876 0
M  V30 5393 H 485.089 1.6434 3.50042 0
M  V30 5394 H 486.778 2.06224 3.49609 0
M  V30 5395 H 487.544 4.25428 2.32886 0
M  V30 5396 H 483.423 3.35462 3.16206 0
M  V30 5397 H 486.967 6.64591 2.12049 0
M  V30 5398 H 482.864 5.73785 2.95704 0
M  V30 5399 H 483.632 7.77499 2.55807 0
M  V30 5400 N 486.295 -0.989507 1.22664 0
M  V30 5401 C 487.572 -1.70326 0.961688 0
M  V30 5402 C 487.952 -2.04537 -0.522279 0
M  V30 5403 O 487.3 -1.73136 -1.49118 0
M  V30 5404 C 487.51 -2.95135 1.86269 0
M  V30 5405 C 488.858 -3.67842 2.12078 0
M  V30 5406 O 489.882 -3.0515 1.83745 0
M  V30 5407 O 488.741 -4.80644 2.60083 0
M  V30 5408 H 485.835 -0.743589 0.361946 0
M  V30 5409 H 488.381 -1.04555 1.33665 0
M  V30 5410 H 487.153 -2.66382 2.8663 0
M  V30 5411 H 486.776 -3.68645 1.48952 0
M  V30 5412 N 487.773 -1.03688 -1.18687 0
M  V30 5413 C 489.05 -0.652397 -1.84399 0
M  V30 5414 C 489.43 0.868386 -1.92412 0
M  V30 5415 O 488.778 1.76832 -1.44716 0
M  V30 5416 C 488.988 -1.3238 -3.22919 0
M  V30 5417 C 490.336 -1.45216 -3.98996 0
M  V30 5418 O 491.36 -1.2816 -3.32345 0
M  V30 5419 O 490.219 -1.72975 -5.18403 0
M  V30 5420 H 487.313 -0.227793 -0.795009 0
M  V30 5421 H 489.859 -1.13553 -1.2611 0
M  V30 5422 H 488.631 -2.36202 -3.11968 0
M  V30 5423 H 488.254 -0.829039 -3.88861 0
M  V30 5424 N 489.251 1.34841 -0.815825 0
M  V30 5425 C 490.161 2.33425 -0.234462 0
M  V30 5426 C 491.177 1.62295 0.627413 0
M  V30 5427 O 492.353 1.94109 0.536987 0
M  V30 5428 C 489.418 3.41471 0.599849 0
M  V30 5429 C 488.479 4.28362 -0.283596 0
M  V30 5430 C 487.712 5.31248 0.51099 0
M  V30 5431 O 487.935 5.43056 1.7449 0
M  V30 5432 O 486.869 6.01812 -0.10297 0
M  V30 5433 H 490.695 2.84962 -1.05024 0
M  V30 5434 H 488.28 1.37774 -0.577809 0
M  V30 5435 H 490.162 4.07464 1.07475 0
M  V30 5436 H 488.837 2.9219 1.39308 0
M  V30 5437 H 487.744 3.65318 -0.805836 0
M  V30 5438 H 489.077 4.81066 -1.041 0
M  V30 5439 N 490.729 0.570148 1.46925 0
M  V30 5440 C 491.679 -0.190921 2.27199 0
M  V30 5441 C 492.663 -0.873457 1.35128 0
M  V30 5442 O 493.855 -0.769627 1.59392 0
M  V30 5443 C 490.984 -1.21204 3.21192 0
M  V30 5444 C 490.07 -0.532261 4.20747 0
M  V30 5445 N 490.461 0.405038 5.04176 0
M  V30 5446 C 488.759 -0.784582 4.39045 0
M  V30 5447 C 489.46 0.801149 5.76157 0
M  V30 5448 N 488.436 0.153082 5.43384 0
M  V30 5449 H 492.238 0.529535 2.8909 0
M  V30 5450 H 489.752 0.391019 1.57622 0
M  V30 5451 H 491.749 -1.77135 3.77398 0
M  V30 5452 H 490.409 -1.93345 2.6086 0
M  V30 5453 H 491.42 0.779903 5.11994 0
M  V30 5454 H 488.097 -1.49352 3.89872 0
M  V30 5455 H 489.487 1.57208 6.5325 0
M  V30 5456 N 492.207 -1.54576 0.307264 0
M  V30 5457 C 493.157 -2.20467 -0.581249 0
M  V30 5458 C 494.141 -1.17972 -1.09414 0
M  V30 5459 O 495.333 -1.43667 -1.03387 0
M  V30 5460 C 492.462 -2.95369 -1.74963 0
M  V30 5461 C 491.548 -4.05186 -1.25241 0
M  V30 5462 N 491.939 -5.03577 -0.47364 0
M  V30 5463 C 490.237 -4.18841 -1.53259 0
M  V30 5464 C 490.938 -5.81328 -0.208083 0
M  V30 5465 N 489.914 -5.37834 -0.789651 0
M  V30 5466 H 493.716 -2.93892 0.0212221 0
M  V30 5467 H 491.23 -1.62011 0.112325 0
M  V30 5468 H 493.227 -3.41046 -2.39777 0
M  V30 5469 H 491.887 -2.23461 -2.35574 0
M  V30 5470 H 492.898 -5.17766 -0.117963 0
M  V30 5471 H 489.575 -3.58141 -2.14573 0
M  V30 5472 H 490.965 -6.706 0.417793 0
M  V30 5473 N 493.685 -0.035106 -1.57561 0
M  V30 5474 C 494.91 0.655802 -1.96759 0
M  V30 5475 C 495.335 1.64523 -0.911809 0
M  V30 5476 O 494.693 1.80857 0.126673 0
M  V30 5477 C 494.741 1.33326 -3.35047 0
M  V30 5478 O 493.845 2.44866 -3.31835 0
M  V30 5479 H 493.186 0.171807 -0.641388 0
M  V30 5480 H 495.716 -0.0987369 -2.04362 0
M  V30 5481 H 495.726 1.68867 -3.71413 0
M  V30 5482 H 494.401 0.608033 -4.11431 0
M  V30 5483 H 492.978 2.11392 -3.07193 0
M  V30 5484 N 495.163 1.55791 0.238111 0
M  V30 5485 C 496.391 1.82098 0.982233 0
M  V30 5486 C 496.806 0.612025 1.78605 0
M  V30 5487 O 496.163 -0.419381 1.77616 0
M  V30 5488 C 496.214 3.0673 1.91309 0
M  V30 5489 O 495.935 4.2296 1.14179 0
M  V30 5490 C 497.436 3.45903 2.77248 0
M  V30 5491 H 494.656 0.605748 0.288635 0
M  V30 5492 H 497.2 2.02862 0.258341 0
M  V30 5493 H 495.355 2.87991 2.59114 0
M  V30 5494 H 495.769 4.93653 1.7722 0
M  V30 5495 H 497.243 4.36189 3.38295 0
M  V30 5496 H 497.72 2.66891 3.48806 0
M  V30 5497 H 498.326 3.67024 2.14881 0
M  V30 5498 N 496.642 -0.504142 1.49319 0
M  V30 5499 C 497.572 -1.61473 1.68667 0
M  V30 5500 C 498.553 -1.61455 0.535378 0
M  V30 5501 O 499.738 -1.78245 0.770868 0
M  V30 5502 C 496.868 -2.99971 1.75028 0
M  V30 5503 C 495.822 -3.14854 2.89916 0
M  V30 5504 C 495.148 -4.54671 2.81387 0
M  V30 5505 C 496.448 -2.95176 4.30893 0
M  V30 5506 H 498.142 -1.45535 2.61648 0
M  V30 5507 H 495.688 -0.698711 1.25913 0
M  V30 5508 H 497.641 -3.77562 1.8715 0
M  V30 5509 H 496.365 -3.1699 0.786441 0
M  V30 5510 H 495.024 -2.39687 2.77391 0
M  V30 5511 H 494.672 -4.68562 1.82917 0
M  V30 5512 H 494.372 -4.6557 3.58494 0
M  V30 5513 H 495.896 -5.34327 2.95512 0
M  V30 5514 H 497.31 -3.62538 4.44116 0
M  V30 5515 H 495.707 -3.17549 5.09198 0
M  V30 5516 H 496.777 -1.91332 4.45556 0
M  V30 5517 N 498.12 -1.38341 -0.754957 0
M  V30 5518 C 499.366 -1.34672 -1.51628 0
M  V30 5519 C 499.699 0.0636036 -1.94096 0
M  V30 5520 O 498.974 1.0245 -1.6533 0
M  V30 5521 C 499.257 -2.30116 -2.76981 0
M  V30 5522 C 499.11 -3.80003 -2.4066 0
M  V30 5523 C 500.429 -2.23715 -3.78998 0
M  V30 5524 H 497.548 -0.490517 -0.550056 0
M  V30 5525 H 500.19 -1.69178 -0.864807 0
M  V30 5526 H 498.34 -2.00821 -3.3257 0
M  V30 5527 H 500.012 -4.19966 -1.90856 0
M  V30 5528 H 498.255 -3.97751 -1.73137 0
M  V30 5529 H 498.926 -4.42244 -3.30339 0
M  V30 5530 H 501.402 -2.49574 -3.32945 0
M  V30 5531 H 500.278 -2.9261 -4.64403 0
M  V30 5532 H 500.539 -1.23554 -4.24484 0
M  V30 5533 N 499.598 0.982988 -1.23187 0
M  V30 5534 C 500.823 1.76455 -1.08988 0
M  V30 5535 C 501.248 1.84726 0.354691 0
M  V30 5536 O 500.606 1.30699 1.25649 0
M  V30 5537 C 500.654 3.17094 -1.71708 0
M  V30 5538 O 499.758 4.00648 -0.977477 0
M  V30 5539 H 499.099 0.542988 -0.382177 0
M  V30 5540 H 501.629 1.23413 -1.63188 0
M  V30 5541 H 501.639 3.67684 -1.76841 0
M  V30 5542 H 500.314 3.10389 -2.76823 0
M  V30 5543 H 498.891 3.59161 -1.0029 0
M  V30 5544 N 501.076 1.04316 1.18135 0
M  V30 5545 C 502.304 0.768117 1.92113 0
M  V30 5546 C 502.719 -0.675057 1.76319 0
M  V30 5547 O 502.076 -1.46038 1.09449 0
M  V30 5548 C 502.127 1.12808 3.43448 0
M  V30 5549 O 501.848 2.5146 3.58747 0
M  V30 5550 C 503.349 0.8779 4.3452 0
M  V30 5551 H 500.569 0.279937 0.609817 0
M  V30 5552 H 503.113 1.39149 1.49859 0
M  V30 5553 H 501.268 0.549623 3.83481 0
M  V30 5554 H 501.682 2.65313 4.52448 0
M  V30 5555 H 503.156 1.17959 5.39249 0
M  V30 5556 H 503.633 -0.187239 4.38801 0
M  V30 5557 H 504.239 1.43977 4.00188 0
M  V30 5558 N 502.554 -1.34406 0.822964 0
M  V30 5559 C 503.97 -1.51275 0.508727 0
M  V30 5560 C 504.17 -1.76776 -0.967083 0
M  V30 5561 O 503.226 -1.81871 -1.75155 0
M  V30 5562 C 504.539 -2.67765 1.36829 0
M  V30 5563 C 506.087 -2.81647 1.36542 0
M  V30 5564 C 506.562 -4.01181 2.20947 0
M  V30 5565 N 508.053 -4.08388 2.18571 0
M  V30 5566 C 508.788 -5.00036 2.80627 0
M  V30 5567 N 508.284 -5.96906 3.51674 0
M  V30 5568 N 510.077 -4.92908 2.70181 0
M  V30 5569 H 502.228 -1.16113 1.77852 0
M  V30 5570 H 504.491 -0.56947 0.757897 0
M  V30 5571 H 504.197 -2.55551 2.41633 0
M  V30 5572 H 504.071 -3.62779 1.03303 0
M  V30 5573 H 506.458 -2.93303 0.325163 0
M  V30 5574 H 506.539 -1.87443 1.74066 0
M  V30 5575 H 506.183 -3.90286 3.25022 0
M  V30 5576 H 506.113 -4.94599 1.80774 0
M  V30 5577 H 508.604 -3.39051 1.66891 0
M  V30 5578 H 508.917 -6.63468 3.96271 0
M  V30 5579 H 507.262 -5.9703 3.5578 0
M  V30 5580 H 510.453 -4.1619 2.14251 0
M  V30 5581 H 510.626 -5.64137 3.18831 0
M  V30 5582 N 504.032 -0.577932 -1.46621 0
M  V30 5583 C 504.982 0.178869 -2.27297 0
M  V30 5584 C 505.966 0.866279 -1.35589 0
M  V30 5585 O 507.158 0.761163 -1.59798 0
M  V30 5586 C 504.287 1.19499 -3.2183 0
M  V30 5587 C 503.373 0.50994 -4.21023 0
M  V30 5588 N 503.764 -0.43177 -5.03954 0
M  V30 5589 C 502.062 0.761287 -4.39455 0
M  V30 5590 C 502.763 -0.831693 -5.75724 0
M  V30 5591 N 501.739 -0.181897 -5.43296 0
M  V30 5592 H 505.541 -0.544859 -2.88805 0
M  V30 5593 H 503.055 -0.399373 -1.57413 0
M  V30 5594 H 505.052 1.75131 -3.78332 0
M  V30 5595 H 503.712 1.91959 -2.61881 0
M  V30 5596 H 504.723 -0.807045 -5.11573 0
M  V30 5597 H 501.4 1.47282 -3.90659 0
M  V30 5598 H 502.79 -1.6067 -6.52407 0
M  V30 5599 N 505.51 1.54411 -0.315457 0
M  V30 5600 C 506.74 2.04536 0.291315 0
M  V30 5601 C 507.148 1.19162 1.4696 0
M  V30 5602 O 506.491 0.213199 1.82459 0
M  V30 5603 C 506.553 3.5056 0.796725 0
M  V30 5604 C 506.217 4.5627 -0.258178 0
M  V30 5605 C 507.214 5.08312 -1.09153 0
M  V30 5606 C 504.899 5.00672 -0.404036 0
M  V30 5607 C 506.893 6.03312 -2.05655 0
M  V30 5608 C 504.58 5.95488 -1.37248 0
M  V30 5609 C 505.578 6.46693 -2.19721 0
M  V30 5610 O 505.266 7.39648 -3.14921 0
M  V30 5611 H 504.998 0.672856 0.0651165 0
M  V30 5612 H 507.552 2.00244 -0.457308 0
M  V30 5613 H 505.782 3.52223 1.59612 0
M  V30 5614 H 507.471 3.83804 1.32096 0
M  V30 5615 H 508.237 4.74793 -0.98979 0
M  V30 5616 H 504.116 4.60436 0.22799 0
M  V30 5617 H 507.66 6.43203 -2.70067 0
M  V30 5618 H 503.557 6.28424 -1.47489 0
M  V30 5619 H 504.325 7.57496 -3.10067 0
M  V30 5620 N 506.988 0.0434614 1.5754 0
M  V30 5621 C 508.404 -0.313039 1.565 0
M  V30 5622 C 508.604 -1.71954 1.05043 0
M  V30 5623 O 507.66 -2.425 0.703564 0
M  V30 5624 C 508.973 -0.148544 3.00333 0
M  V30 5625 C 510.521 -0.220231 3.12224 0
M  V30 5626 C 510.996 -0.0843565 4.57922 0
M  V30 5627 N 512.487 -0.140881 4.62986 0
M  V30 5628 C 513.222 -0.0597443 5.73369 0
M  V30 5629 N 512.718 0.0733004 6.92761 0
M  V30 5630 N 514.511 -0.11477 5.61983 0
M  V30 5631 H 506.662 0.96303 1.89313 0
M  V30 5632 H 508.925 0.373164 0.871466 0
M  V30 5633 H 508.631 0.820894 3.41986 0
M  V30 5634 H 508.505 -0.912798 3.65989 0
M  V30 5635 H 510.892 -1.18014 2.70475 0
M  V30 5636 H 510.973 0.574646 2.49262 0
M  V30 5637 H 510.617 0.872192 5.00355 0
M  V30 5638 H 510.547 -0.898281 5.18882 0
M  V30 5639 H 513.038 -0.243273 3.77116 0
M  V30 5640 H 513.351 0.128128 7.72694 0
M  V30 5641 H 511.696 0.10828 6.94916 0
M  V30 5642 H 514.887 -0.217212 4.67596 0
M  V30 5643 H 515.06 -0.0480779 6.47982 0
M  V30 5644 N 508.466 -1.55915 -0.229846 0
M  V30 5645 C 509.429 -1.90914 -1.26824 0
M  V30 5646 C 510.429 -0.786999 -1.40225 0
M  V30 5647 O 511.619 -1.05484 -1.38632 0
M  V30 5648 C 508.751 -2.15264 -2.64337 0
M  V30 5649 H 509.944 -2.8378 -0.969998 0
M  V30 5650 H 507.497 -1.49069 -0.4699 0
M  V30 5651 H 508.232 -1.24923 -2.99274 0
M  V30 5652 H 508.017 -2.97005 -2.55989 0
M  V30 5653 H 509.507 -2.43467 -3.39284 0
M  V30 5654 N 509.944 0.496216 -1.49584 0
M  V30 5655 C 511.355 1.07765 -1.52459 0
M  V30 5656 C 511.706 1.93679 -0.31353 0
M  V30 5657 O 510.831 2.08588 0.576186 0
M  V30 5658 C 511.426 1.96111 -2.76271 0
M  V30 5659 C 509.985 2.49409 -2.81908 0
M  V30 5660 C 509.132 1.27142 -2.46435 0
M  V30 5661 H 512.083 0.279914 -1.56212 0
M  V30 5662 H 512.104 2.80862 -2.56704 0
M  V30 5663 H 511.616 1.33555 -3.64396 0
M  V30 5664 H 509.717 3.1559 -1.98074 0
M  V30 5665 H 509.83 2.86234 -3.84196 0
M  V30 5666 H 508.194 1.59818 -1.98319 0
M  V30 5667 H 508.977 0.662866 -3.3684 0
M  V30 5668 N 511.423 1.38739 0.74761 0
M  V30 5669 C 512.333 1.38696 1.89211 0
M  V30 5670 C 513.349 0.283303 1.71678 0
M  V30 5671 O 514.525 0.522713 1.94498 0
M  V30 5672 C 511.59 1.21662 3.24653 0
M  V30 5673 C 510.651 2.41886 3.54669 0
M  V30 5674 C 509.884 2.25655 4.83648 0
M  V30 5675 O 510.107 1.25339 5.56459 0
M  V30 5676 O 509.041 3.14372 5.13277 0
M  V30 5677 H 512.867 2.35143 1.92202 0
M  V30 5678 H 510.452 1.19721 0.893708 0
M  V30 5679 H 512.334 1.14246 4.05618 0
M  V30 5680 H 511.009 0.283024 3.2246 0
M  V30 5681 H 509.916 2.54877 2.73841 0
M  V30 5682 H 511.249 3.33895 3.61628 0
M  V30 5683 N 512.901 -0.976442 1.23707 0
M  V30 5684 C 514.147 -1.72081 1.07312 0
M  V30 5685 C 514.48 -1.90275 -0.388476 0
M  V30 5686 O 513.755 -1.4579 -1.28746 0
M  V30 5687 C 514.038 -3.11675 1.80363 0
M  V30 5688 C 513.891 -3.01027 3.3422 0
M  V30 5689 C 515.21 -4.1117 1.5693 0
M  V30 5690 H 512.329 -0.624583 0.391236 0
M  V30 5691 H 514.971 -1.13649 1.52263 0
M  V30 5692 H 513.121 -3.61559 1.42153 0
M  V30 5693 H 514.793 -2.58637 3.81975 0
M  V30 5694 H 513.036 -2.3744 3.63049 0
M  V30 5695 H 513.707 -3.9988 3.80525 0
M  V30 5696 H 516.183 -3.7011 1.90151 0
M  V30 5697 H 515.059 -5.06928 2.10513 0
M  V30 5698 H 515.32 -4.392 0.505548 0
M  V30 5699 N 514.379 -1.04941 -1.1758 0
M  V30 5700 C 515.628 -0.753124 -1.87112 0
M  V30 5701 C 515.941 0.722507 -1.81767 0
M  V30 5702 O 517.147 1.13265 -2.46746 0
M  V30 5703 C 515.603 -1.29695 -3.35719 0
M  V30 5704 C 515.211 -2.80184 -3.49572 0
M  V30 5705 C 516.955 -1.07759 -4.10595 0
M  V30 5706 C 514.862 -3.2788 -4.92187 0
M  V30 5707 H 513.792 -0.278034 -0.700866 0
M  V30 5708 H 516.443 -1.26637 -1.32798 0
M  V30 5709 H 514.825 -0.711522 -3.89555 0
M  V30 5710 H 515.999 -3.44561 -3.05965 0
M  V30 5711 H 514.314 -3.00632 -2.88113 0
M  V30 5712 H 516.911 -1.40899 -5.15802 0
M  V30 5713 H 517.254 -0.0152302 -4.16297 0
M  V30 5714 H 517.787 -1.62809 -3.62957 0
M  V30 5715 H 514.526 -4.33535 -4.91658 0
M  V30 5716 H 514.046 -2.68245 -5.36475 0
M  V30 5717 H 515.725 -3.22412 -5.60945 0
M  V30 5718 N 515.857 1.33968 -0.830081 0
M  V30 5719 C 516.787 2.31911 -0.271911 0
M  V30 5720 C 517.768 1.58571 0.61556 0
M  V30 5721 O 518.953 1.86514 0.540946 0
M  V30 5722 C 516.083 3.42737 0.561146 0
M  V30 5723 C 515.037 4.27383 -0.229789 0
M  V30 5724 C 514.363 5.29742 0.726463 0
M  V30 5725 C 515.663 5.02 -1.44197 0
M  V30 5726 H 517.357 2.78844 -1.09025 0
M  V30 5727 H 514.903 1.34061 -0.52571 0
M  V30 5728 H 516.856 4.10276 0.961867 0
M  V30 5729 H 515.58 2.94471 1.41261 0
M  V30 5730 H 514.239 3.61456 -0.611964 0
M  V30 5731 H 513.887 4.77736 1.57408 0
M  V30 5732 H 513.587 5.87255 0.20142 0
M  V30 5733 H 515.111 6.00149 1.12489 0
M  V30 5734 H 516.525 5.62355 -1.11488 0
M  V30 5735 H 514.922 5.69122 -1.90317 0
M  V30 5736 H 515.992 4.31281 -2.2164 0
M  V30 5737 N 517.335 0.585699 1.46312 0
M  V30 5738 C 518.298 -0.135673 2.28798 0
M  V30 5739 C 519.298 -0.815988 1.38558 0
M  V30 5740 O 520.488 -0.667487 1.60904 0
M  V30 5741 C 517.62 -1.20163 3.1902 0
M  V30 5742 H 518.813 0.589257 2.94054 0
M  V30 5743 H 516.366 0.343794 1.52472 0
M  V30 5744 H 517.101 -1.95804 2.58517 0
M  V30 5745 H 516.886 -0.718282 3.85465 0
M  V30 5746 H 518.376 -1.70749 3.81096 0
M  V30 5747 N 518.813 -1.54241 0.323641 0
M  V30 5748 C 519.743 -2.27289 -0.534993 0
M  V30 5749 C 520.724 -1.28087 -1.11927 0
M  V30 5750 O 521.909 -1.56899 -1.14439 0
M  V30 5751 C 519.039 -3.03075 -1.69596 0
M  V30 5752 C 517.993 -4.09614 -1.24098 0
M  V30 5753 C 517.319 -4.73242 -2.4889 0
M  V30 5754 C 518.619 -5.21087 -0.355789 0
M  V30 5755 H 520.313 -2.99308 0.0743257 0
M  V30 5756 H 517.859 -1.43952 0.0371874 0
M  V30 5757 H 519.812 -3.52907 -2.30293 0
M  V30 5758 H 518.536 -2.28673 -2.33187 0
M  V30 5759 H 517.195 -3.60666 -0.656945 0
M  V30 5760 H 516.843 -3.95455 -3.10845 0
M  V30 5761 H 516.543 -5.45209 -2.19138 0
M  V30 5762 H 518.067 -5.25848 -3.10348 0
M  V30 5763 H 519.481 -5.66675 -0.869042 0
M  V30 5764 H 517.878 -5.9991 -0.151045 0
M  V30 5765 H 518.948 -4.81005 0.613339 0
M  V30 5766 N 520.291 -0.0518155 -1.57515 0
M  V30 5767 C 521.539 0.620595 -1.92336 0
M  V30 5768 C 521.86 1.71345 -0.930907 0
M  V30 5769 O 521.13 1.95885 0.0241341 0
M  V30 5770 H 519.71 0.232226 -0.709986 0
M  V30 5771 H 522.372 -0.104969 -1.94617 0
M  V30 5772 H 521.468 1.05879 -2.93592 0
M  V30 5773 N 521.769 1.56035 0.221574 0
M  V30 5774 C 523.015 1.80221 0.942973 0
M  V30 5775 C 523.37 0.624799 1.81973 0
M  V30 5776 O 522.663 -0.381145 1.87771 0
M  V30 5777 C 522.857 3.07813 1.8162 0
M  V30 5778 C 522.686 4.37852 1.02548 0
M  V30 5779 C 521.456 5.00138 0.720418 0
M  V30 5780 C 523.654 5.12813 0.390799 0
M  V30 5781 N 521.636 6.13831 -0.0917139 0
M  V30 5782 C 523.007 6.19346 -0.284728 0
M  V30 5783 C 525.062 4.96972 0.303828 0
M  V30 5784 C 523.765 7.11758 -1.03891 0
M  V30 5785 C 525.791 5.89784 -0.436883 0
M  V30 5786 C 525.153 6.95743 -1.10095 0
M  V30 5787 H 521.252 0.711117 0.325325 0
M  V30 5788 H 523.836 1.93522 0.213854 0
M  V30 5789 H 522.007 2.95795 2.51714 0
M  V30 5790 H 523.739 3.20191 2.47508 0
M  V30 5791 H 520.494 4.62075 1.03843 0
M  V30 5792 H 520.918 6.75249 -0.486615 0
M  V30 5793 H 525.56 4.15107 0.802896 0
M  V30 5794 H 523.278 7.93105 -1.54949 0
M  V30 5795 H 526.864 5.79603 -0.505181 0
M  V30 5796 H 525.744 7.66322 -1.66495 0
M  V30 5797 N 523.247 -0.488276 1.49845 0
M  V30 5798 C 524.472 -1.26997 1.63971 0
M  V30 5799 C 524.897 -1.85427 0.315994 0
M  V30 5800 O 524.255 -1.66475 -0.718032 0
M  V30 5801 C 524.303 -2.36689 2.72049 0
M  V30 5802 O 523.407 -3.40882 2.32107 0
M  V30 5803 H 522.748 -0.374376 0.548396 0
M  V30 5804 H 525.278 -0.583104 1.96115 0
M  V30 5805 H 525.288 -2.82262 2.94605 0
M  V30 5806 H 523.963 -1.93529 3.68129 0
M  V30 5807 H 522.54 -3.01139 2.19931 0
M  V30 5808 N 524.725 -1.39134 -0.740242 0
M  V30 5809 C 525.657 -1.33332 -1.86428 0
M  V30 5810 C 526.67 -0.243042 -1.60976 0
M  V30 5811 O 527.859 -0.501608 -1.71307 0
M  V30 5812 C 524.959 -1.04626 -3.22346 0
M  V30 5813 C 524.132 -2.24826 -3.75196 0
M  V30 5814 C 523.191 -1.92659 -4.89662 0
M  V30 5815 O 522.217 -2.6529 -5.03597 0
M  V30 5816 N 523.419 -0.889575 -5.73643 0
M  V30 5817 H 526.184 -2.30196 -1.91911 0
M  V30 5818 H 523.745 -1.33168 -0.920756 0
M  V30 5819 H 525.737 -0.811347 -3.96484 0
M  V30 5820 H 524.307 -0.165129 -3.12164 0
M  V30 5821 H 523.527 -2.64301 -2.9247 0
M  V30 5822 H 524.815 -3.05015 -4.07239 0
M  V30 5823 H 524.213 -0.287529 -5.64969 0
M  V30 5824 H 522.77 -0.714557 -6.47871 0
M  V30 5825 N 526.204 0.969867 -1.24223 0
M  V30 5826 C 527.615 1.52717 -1.07399 0
M  V30 5827 C 527.966 1.92956 0.355298 0
M  V30 5828 O 527.091 1.77112 1.2434 0
M  V30 5829 C 527.686 2.77521 -1.94339 0
M  V30 5830 C 526.245 3.29615 -1.81744 0
M  V30 5831 C 525.392 2.02537 -1.89405 0
M  V30 5832 H 528.343 0.788399 -1.37732 0
M  V30 5833 H 528.364 3.50773 -1.47439 0
M  V30 5834 H 527.876 2.48203 -2.98357 0
M  V30 5835 H 525.977 3.63789 -0.805505 0
M  V30 5836 H 526.09 3.98661 -2.65718 0
M  V30 5837 H 524.454 2.17151 -1.33108 0
M  V30 5838 H 525.237 1.75587 -2.94999 0
M  V30 5839 N 527.682 1.05563 1.17022 0
M  V30 5840 C 528.922 0.777033 1.89054 0
M  V30 5841 C 529.286 -0.683617 1.79418 0
M  V30 5842 O 530.487 -1.07648 2.46303 0
M  V30 5843 C 528.758 1.24886 3.34871 0
M  V30 5844 S 530.317 1.0982 4.24835 0
M  V30 5845 H 527.135 0.282082 0.652649 0
M  V30 5846 H 529.737 1.35103 1.41306 0
M  V30 5847 H 528.441 2.30699 3.3942 0
M  V30 5848 H 527.972 0.669292 3.87665 0
M  V30 5849 H 529.987 0.02462 4.96194 0
M  V30 5850 N 529.16 -1.33526 0.837174 0
M  V30 5851 C 530.437 -1.92369 0.354065 0
M  V30 5852 C 530.817 -1.76348 -1.16038 0
M  V30 5853 O 530.165 -1.15083 -1.97403 0
M  V30 5854 C 530.375 -3.39728 0.799101 0
M  V30 5855 C 531.723 -4.16877 0.806139 0
M  V30 5856 O 532.747 -3.48373 0.742597 0
M  V30 5857 O 531.606 -5.39166 0.892345 0
M  V30 5858 H 528.7 -0.820952 0.0998378 0
M  V30 5859 H 531.246 -1.42409 0.922913 0
M  V30 5860 H 530.018 -3.45254 1.84162 0
M  V30 5861 H 529.641 -3.97062 0.206731 0
M  V30 5862 N 530.638 -0.59345 -1.46 0
M  V30 5863 C 531.884 -0.0832754 -2.02629 0
M  V30 5864 C 532.217 1.27749 -1.46266 0
M  V30 5865 O 531.492 1.8395 -0.631866 0
M  V30 5866 C 531.775 -0.0290756 -3.60088 0
M  V30 5867 C 531.628 -1.41951 -4.26814 0
M  V30 5868 C 532.947 0.666055 -4.35031 0
M  V30 5869 H 530.066 -0.031736 -0.736316 0
M  V30 5870 H 532.708 -0.762711 -1.74019 0
M  V30 5871 H 530.858 0.549532 -3.84594 0
M  V30 5872 H 532.53 -2.04411 -4.13538 0
M  V30 5873 H 530.773 -1.98422 -3.8576 0
M  V30 5874 H 531.444 -1.33395 -5.3564 0
M  V30 5875 H 533.92 0.174401 -4.15734 0
M  V30 5876 H 532.796 0.673041 -5.44758 0
M  V30 5877 H 533.057 1.72946 -4.06869 0
M  V30 5878 N 532.116 1.54067 -0.331816 0
M  V30 5879 C 533.362 2.01713 0.261395 0
M  V30 5880 C 533.717 1.21566 1.49129 0
M  V30 5881 O 533.01 0.291867 1.89364 0
M  V30 5882 C 533.204 3.51634 0.639392 0
M  V30 5883 C 533.033 4.46295 -0.552321 0
M  V30 5884 C 531.803 4.94185 -1.05399 0
M  V30 5885 C 534.001 4.94677 -1.40711 0
M  V30 5886 N 531.983 5.7277 -2.20925 0
M  V30 5887 C 533.354 5.71267 -2.40943 0
M  V30 5888 C 535.409 4.76805 -1.43392 0
M  V30 5889 C 534.112 6.31889 -3.4367 0
M  V30 5890 C 536.138 5.38268 -2.44994 0
M  V30 5891 C 535.5 6.14716 -3.43952 0
M  V30 5892 H 531.599 0.77975 0.0592729 0
M  V30 5893 H 534.183 1.88974 -0.468726 0
M  V30 5894 H 532.354 3.64603 1.33863 0
M  V30 5895 H 534.086 3.86038 1.21478 0
M  V30 5896 H 530.841 4.69472 -0.623952 0
M  V30 5897 H 531.265 6.16737 -2.79222 0
M  V30 5898 H 535.907 4.17255 -0.682489 0
M  V30 5899 H 533.625 6.90554 -4.19715 0
M  V30 5900 H 537.211 5.26352 -2.4788 0
M  V30 5901 H 536.091 6.6143 -4.21283 0
M  V30 5902 N 533.594 0.0601682 1.57485 0
M  V30 5903 C 534.819 -0.624416 1.97777 0
M  V30 5904 C 535.244 -1.63051 0.937867 0
M  V30 5905 O 534.602 -1.81036 -0.0978845 0
M  V30 5906 C 534.65 -1.27979 3.37126 0
M  V30 5907 O 533.754 -2.39556 3.35688 0
M  V30 5908 H 533.095 -0.161581 0.64404 0
M  V30 5909 H 535.625 0.131237 2.04179 0
M  V30 5910 H 535.635 -1.62937 3.74053 0
M  V30 5911 H 534.31 -0.542501 4.12347 0
M  V30 5912 H 532.887 -2.06478 3.10517 0
M  V30 5913 N 535.072 -1.5615 -0.213296 0
M  V30 5914 C 536.321 -1.78743 -0.93455 0
M  V30 5915 C 536.634 -0.630199 -1.8517 0
M  V30 5916 O 537.84 -0.739966 -2.61222 0
M  V30 5917 C 536.296 -3.16571 -1.71203 0
M  V30 5918 C 535.904 -4.40043 -0.840617 0
M  V30 5919 C 537.648 -3.48485 -2.42401 0
M  V30 5920 C 535.555 -5.68895 -1.61592 0
M  V30 5921 H 534.485 -0.666426 -0.352692 0
M  V30 5922 H 537.136 -1.82532 -0.188227 0
M  V30 5923 H 535.518 -3.06981 -2.50157 0
M  V30 5924 H 536.692 -4.6071 -0.0910326 0
M  V30 5925 H 535.007 -4.15706 -0.240365 0
M  V30 5926 H 537.604 -4.41983 -3.00924 0
M  V30 5927 H 537.947 -2.71371 -3.15695 0
M  V30 5928 H 538.48 -3.59442 -1.7043 0
M  V30 5929 H 535.219 -6.48925 -0.926106 0
M  V30 5930 H 534.739 -5.52275 -2.33991 0
M  V30 5931 H 536.418 -6.09365 -2.17447 0
M  V30 5932 N 536.55 0.480323 -1.50102 0
M  V30 5933 C 537.798 1.23063 -1.60312 0
M  V30 5934 C 538.119 1.92659 -0.301226 0
M  V30 5935 O 537.389 1.83691 0.680753 0
M  V30 5936 H 535.969 0.457231 -0.590719 0
M  V30 5937 H 538.631 0.554893 -1.86834 0
M  V30 5938 H 537.727 1.9835 -2.40964 0
M  V30 5939 N 538.028 1.39524 0.732853 0
M  V30 5940 C 539.268 1.383 1.50508 0
M  V30 5941 C 539.632 -0.0208271 1.91989 0
M  V30 5942 O 540.833 -0.158091 2.68335 0
M  V30 5943 C 539.104 2.33007 2.71003 0
M  V30 5944 S 540.663 2.49989 3.60626 0
M  V30 5945 H 537.481 0.490417 0.514794 0
M  V30 5946 H 540.083 1.75641 0.858524 0
M  V30 5947 H 538.787 3.33862 2.38672 0
M  V30 5948 H 538.318 1.96889 3.40585 0
M  V30 5949 H 540.333 1.7394 4.64714 0
M  V30 5950 N 539.506 -0.963266 1.24736 0
M  V30 5951 C 540.755 -1.70115 1.08369 0
M  V30 5952 C 541.068 -1.91939 -0.376688 0
M  V30 5953 O 542.274 -2.6334 -0.660624 0
M  V30 5954 C 540.73 -3.06218 1.89099 0
M  V30 5955 C 540.338 -2.92221 3.39574 0
M  V30 5956 C 542.082 -3.83848 1.81275 0
M  V30 5957 C 539.989 -4.23662 4.12631 0
M  V30 5958 H 538.919 -0.637944 0.401924 0
M  V30 5959 H 541.57 -1.07304 1.48856 0
M  V30 5960 H 539.952 -3.69884 1.41429 0
M  V30 5961 H 541.126 -2.37541 3.94856 0
M  V30 5962 H 539.441 -2.28054 3.48397 0
M  V30 5963 H 542.038 -4.81188 2.33158 0
M  V30 5964 H 542.381 -4.08949 0.778895 0
M  V30 5965 H 542.914 -3.26918 2.26649 0
M  V30 5966 H 539.653 -4.03753 5.16395 0
M  V30 5967 H 539.173 -4.78141 3.62135 0
M  V30 5968 H 540.852 -4.92256 4.19873 0
M  V30 5969 N 540.985 -1.06182 -1.16461 0
M  V30 5970 C 541.915 -0.692861 -2.22984 0
M  V30 5971 C 542.896 0.314122 -1.67174 0
M  V30 5972 O 544.081 0.189499 -1.93273 0
M  V30 5973 C 541.211 -0.07732 -3.47214 0
M  V30 5974 C 540.165 -1.01015 -4.15909 0
M  V30 5975 C 539.491 -0.257973 -5.34077 0
M  V30 5976 C 540.791 -2.33868 -4.67015 0
M  V30 5977 H 542.485 -1.58343 -2.54102 0
M  V30 5978 H 540.031 -0.76279 -1.22137 0
M  V30 5979 H 541.984 0.19266 -4.20959 0
M  V30 5980 H 540.708 0.848254 -3.15392 0
M  V30 5981 H 539.367 -1.26486 -3.44088 0
M  V30 5982 H 539.015 0.670684 -4.98509 0
M  V30 5983 H 538.715 -0.879638 -5.80979 0
M  V30 5984 H 540.239 0.00448788 -6.106 0
M  V30 5985 H 541.653 -2.1279 -5.32347 0
M  V30 5986 H 540.05 -2.91522 -5.24533 0
M  V30 5987 H 541.12 -2.97019 -3.83286 0
M  V30 5988 N 542.463 1.3308 -0.844243 0
M  V30 5989 C 543.712 1.96868 -0.438833 0
M  V30 5990 C 544.025 1.67599 1.00846 0
M  V30 5991 O 545.231 2.25043 1.51881 0
M  V30 5992 C 543.687 3.5234 -0.73377 0
M  V30 5993 C 543.295 3.90481 -2.1961 0
M  V30 5994 C 545.039 4.22653 -0.395574 0
M  V30 5995 C 542.946 5.38954 -2.43481 0
M  V30 5996 H 541.876 0.736749 -0.160364 0
M  V30 5997 H 544.527 1.51623 -1.03358 0
M  V30 5998 H 542.909 3.95941 -0.068589 0
M  V30 5999 H 544.083 3.57922 -2.90221 0
M  V30 6000 H 542.398 3.33165 -2.4978 0
M  V30 6001 H 544.995 5.31848 -0.551477 0
M  V30 6002 H 545.338 4.11004 0.661921 0
M  V30 6003 H 545.871 3.84601 -1.01621 0
M  V30 6004 H 542.61 5.55612 -3.47816 0
M  V30 6005 H 542.13 5.72954 -1.77437 0
M  V30 6006 H 543.809 6.05907 -2.26905 0
M  V30 6007 N 543.941 0.601185 1.45683 0
M  V30 6008 C 544.851 -0.123395 2.34275 0
M  V30 6009 C 545.867 -0.86702 1.5086 0
M  V30 6010 O 547.043 -0.826049 1.8368 0
M  V30 6011 C 544.108 -1.11237 3.2837 0
M  V30 6012 C 543.169 -0.371405 4.2769 0
M  V30 6013 C 542.402 -1.31327 5.1729 0
M  V30 6014 O 542.625 -2.55078 5.10188 0
M  V30 6015 O 541.559 -0.813811 5.96373 0
M  V30 6016 H 545.385 0.604483 2.97623 0
M  V30 6017 H 542.97 0.361477 1.44961 0
M  V30 6018 H 544.852 -1.68214 3.8637 0
M  V30 6019 H 543.527 -1.82139 2.67595 0
M  V30 6020 H 542.434 0.24067 3.73325 0
M  V30 6021 H 543.767 0.296998 4.91303 0
M  V30 6022 N 545.419 -1.53889 0.339982 0
M  V30 6023 C 546.649 -2.04973 -0.258738 0
M  V30 6024 C 547.057 -1.21485 -1.45045 0
M  V30 6025 O 546.4 -0.2422 -1.82096 0
M  V30 6026 C 546.462 -3.51783 -0.740853 0
M  V30 6027 C 546.126 -4.55802 0.330734 0
M  V30 6028 C 547.123 -5.06512 1.17226 0
M  V30 6029 C 544.808 -4.99966 0.483637 0
M  V30 6030 C 546.802 -5.99963 2.15227 0
M  V30 6031 C 544.489 -5.93229 1.46704 0
M  V30 6032 C 545.487 -6.43115 2.29981 0
M  V30 6033 O 545.175 -7.34545 3.26649 0
M  V30 6034 H 544.907 -0.673807 -0.0544037 0
M  V30 6035 H 547.461 -1.99492 0.489107 0
M  V30 6036 H 545.691 -3.54717 -1.53988 0
M  V30 6037 H 547.38 -3.85857 -1.25973 0
M  V30 6038 H 548.146 -4.73158 1.0652 0
M  V30 6039 H 544.025 -4.6074 -0.15471 0
M  V30 6040 H 547.569 -6.38825 2.80265 0
M  V30 6041 H 543.466 -6.25998 1.57468 0
M  V30 6042 H 544.234 -7.52468 3.22078 0
M  V30 6043 N 546.897 -0.0685191 -1.57451 0
M  V30 6044 C 548.127 0.609577 -1.97402 0
M  V30 6045 C 548.535 1.63882 -0.945489 0
M  V30 6046 O 547.878 1.8354 0.0766052 0
M  V30 6047 C 547.94 1.3385 -3.33653 0
M  V30 6048 C 547.604 0.463103 -4.54648 0
M  V30 6049 C 548.601 -0.277964 -5.19156 0
M  V30 6050 C 546.286 0.388941 -5.00792 0
M  V30 6051 C 548.28 -1.08145 -6.28159 0
M  V30 6052 C 545.967 -0.418217 -6.09667 0
M  V30 6053 C 546.965 -1.15208 -6.73213 0
M  V30 6054 O 546.653 -1.94594 -7.79993 0
M  V30 6055 H 546.385 0.170197 -0.654224 0
M  V30 6056 H 548.939 -0.13647 -2.04946 0
M  V30 6057 H 547.169 2.13055 -3.22714 0
M  V30 6058 H 548.858 1.90851 -3.58233 0
M  V30 6059 H 549.624 -0.230241 -4.84453 0
M  V30 6060 H 545.503 0.949769 -4.5111 0
M  V30 6061 H 549.047 -1.65476 -6.7769 0
M  V30 6062 H 544.944 -0.467515 -6.43805 0
M  V30 6063 H 545.712 -1.8699 -7.96854 0
M  V30 6064 N 548.375 1.56261 0.205012 0
M  V30 6065 C 549.305 1.96779 1.257 0
M  V30 6066 C 550.286 0.838309 1.48008 0
M  V30 6067 O 551.471 1.10189 1.59913 0
M  V30 6068 C 548.601 2.29876 2.60335 0
M  V30 6069 C 547.555 3.45469 2.52656 0
M  V30 6070 C 546.881 3.64215 3.91473 0
M  V30 6071 C 548.181 4.79954 2.06014 0
M  V30 6072 H 549.875 2.84904 0.920338 0
M  V30 6073 H 547.421 1.37072 0.441277 0
M  V30 6074 H 549.374 2.56814 3.34102 0
M  V30 6075 H 548.098 1.38622 2.95722 0
M  V30 6076 H 546.757 3.18605 1.81345 0
M  V30 6077 H 546.405 2.70309 4.24196 0
M  V30 6078 H 546.105 4.41973 3.87213 0
M  V30 6079 H 547.629 3.93519 4.66878 0
M  V30 6080 H 549.043 5.05989 2.69533 0
M  V30 6081 H 547.44 5.61111 2.12777 0
M  V30 6082 H 548.51 4.74201 1.01297 0
M  V30 6083 N 549.853 -0.472356 1.50355 0
M  V30 6084 C 551.101 -1.22211 1.60962 0
M  V30 6085 C 551.422 -1.92497 0.311439 0
M  V30 6086 O 550.692 -1.8405 -0.671002 0
M  V30 6087 H 549.272 -0.454092 0.593135 0
M  V30 6088 H 551.934 -0.544977 1.87126 0
M  V30 6089 H 551.03 -1.9707 2.42012 0
M  V30 6090 N 551.331 -1.39911 -0.725443 0
M  V30 6091 C 552.578 -1.37654 -1.48518 0
M  V30 6092 C 552.906 0.0243982 -1.94485 0
M  V30 6093 O 552.161 1.00708 -1.67799 0
M  V30 6094 C 552.46 -2.30368 -2.7325 0
M  V30 6095 C 552.126 -3.77817 -2.461 0
M  V30 6096 C 550.788 -4.17991 -2.38405 0
M  V30 6097 C 553.14 -4.71036 -2.23103 0
M  V30 6098 C 550.468 -5.49433 -2.05768 0
M  V30 6099 C 552.82 -6.02766 -1.9198 0
M  V30 6100 C 551.484 -6.41993 -1.82761 0
M  V30 6101 H 550.754 -0.503713 -0.543465 0
M  V30 6102 H 553.401 -1.7249 -0.831822 0
M  V30 6103 H 551.706 -1.88683 -3.43375 0
M  V30 6104 H 553.403 -2.2591 -3.31309 0
M  V30 6105 H 549.993 -3.45982 -2.52972 0
M  V30 6106 H 554.177 -4.40823 -2.2801 0
M  V30 6107 H 549.433 -5.78738 -1.9716 0
M  V30 6108 H 553.607 -6.74519 -1.73197 0
M  V30 6109 H 551.234 -7.43761 -1.57237 0
M  V30 6110 N 552.809 0.956637 -1.25245 0
M  V30 6111 C 554.037 1.73571 -1.12608 0
M  V30 6112 C 554.452 1.86063 0.320324 0
M  V30 6113 O 553.809 1.35691 1.22042 0
M  V30 6114 C 553.86 3.15053 -1.77268 0
M  V30 6115 O 553.581 3.03174 -3.16255 0
M  V30 6116 C 555.082 4.09248 -1.70386 0
M  V30 6117 H 552.302 0.543955 -0.392879 0
M  V30 6118 H 554.846 1.20031 -1.65568 0
M  V30 6119 H 553.001 3.65543 -1.28284 0
M  V30 6120 H 553.415 3.9241 -3.48015 0
M  V30 6121 H 554.889 5.06138 -2.20291 0
M  V30 6122 H 555.366 4.34102 -0.667239 0
M  V30 6123 H 555.972 3.64672 -2.18849 0
M  V30 6124 N 554.287 1.06798 1.15896 0
M  V30 6125 C 555.533 0.788934 1.86825 0
M  V30 6126 C 555.866 -0.683084 1.8179 0
M  V30 6127 O 555.141 -1.50086 1.23711 0
M  V30 6128 C 555.424 1.29065 3.36176 0
M  V30 6129 C 555.277 2.8268 3.49874 0
M  V30 6130 C 556.596 0.902655 4.30744 0
M  V30 6131 H 553.715 0.288066 0.678371 0
M  V30 6132 H 556.357 1.32479 1.36195 0
M  V30 6133 H 554.507 0.834806 3.79425 0
M  V30 6134 H 556.179 3.36511 3.15528 0
M  V30 6135 H 554.422 3.21157 2.91617 0
M  V30 6136 H 555.093 3.12852 4.54783 0
M  V30 6137 H 557.569 1.29535 3.95424 0
M  V30 6138 H 556.445 1.28111 5.3374 0
M  V30 6139 H 556.706 -0.191951 4.41683 0
M  V30 6140 N 555.766 -1.3263 0.851289 0
M  V30 6141 C 557.013 -1.97368 0.453023 0
M  V30 6142 C 557.341 -1.67384 -0.990596 0
M  V30 6143 O 556.596 -0.952665 -1.70947 0
M  V30 6144 C 556.895 -3.51713 0.635015 0
M  V30 6145 C 556.561 -4.01676 2.04859 0
M  V30 6146 C 555.223 -4.15031 2.43522 0
M  V30 6147 C 557.575 -4.28206 2.97135 0
M  V30 6148 C 554.903 -4.52257 3.73739 0
M  V30 6149 C 557.255 -4.66889 4.26846 0
M  V30 6150 C 555.919 -4.7845 4.65448 0
M  V30 6151 H 555.189 -0.722219 0.165773 0
M  V30 6152 H 557.836 -1.58092 1.0807 0
M  V30 6153 H 556.141 -3.91726 -0.0759081 0
M  V30 6154 H 557.838 -3.99823 0.306964 0
M  V30 6155 H 554.428 -3.91764 1.73836 0
M  V30 6156 H 558.612 -4.174 2.68498 0
M  V30 6157 H 553.868 -4.59402 4.03435 0
M  V30 6158 H 558.042 -4.86372 4.98413 0
M  V30 6159 H 555.669 -5.07052 5.66395 0
M  V30 6160 N 557.244 -0.608902 -1.45362 0
M  V30 6161 C 558.176 0.147318 -2.28726 0
M  V30 6162 C 559.189 0.830468 -1.40025 0
M  V30 6163 O 560.378 0.695636 -1.64387 0
M  V30 6164 C 557.478 1.22968 -3.15804 0
M  V30 6165 C 556.651 0.633391 -4.3279 0
M  V30 6166 C 555.71 1.60682 -5.01067 0
M  V30 6167 O 554.736 1.13261 -5.57818 0
M  V30 6168 N 555.938 2.94123 -5.00472 0
M  V30 6169 H 558.703 -0.568014 -2.94268 0
M  V30 6170 H 556.264 -0.448479 -1.55564 0
M  V30 6171 H 558.256 1.88072 -3.58345 0
M  V30 6172 H 556.826 1.84752 -2.52162 0
M  V30 6173 H 556.046 -0.195762 -3.93714 0
M  V30 6174 H 557.334 0.215255 -5.08344 0
M  V30 6175 H 556.732 3.3525 -4.55657 0
M  V30 6176 H 555.289 3.54646 -5.46872 0
M  V30 6177 N 558.722 1.53707 -0.348139 0
M  V30 6178 C 559.95 2.05406 0.248224 0
M  V30 6179 C 560.365 1.22282 1.43849 0
M  V30 6180 O 559.722 0.259244 1.80649 0
M  V30 6181 C 559.773 3.55446 0.658793 0
M  V30 6182 O 559.494 4.35417 -0.484149 0
M  V30 6183 C 560.995 4.23335 1.31539 0
M  V30 6184 H 558.215 0.669344 0.0471075 0
M  V30 6185 H 560.759 1.98257 -0.501456 0
M  V30 6186 H 558.914 3.62803 1.35841 0
M  V30 6187 H 559.328 5.24268 -0.155949 0
M  V30 6188 H 560.802 5.29692 1.55338 0
M  V30 6189 H 561.279 3.75967 2.27036 0
M  V30 6190 H 561.885 4.20184 0.657683 0
M  V30 6191 N 560.2 0.0768682 1.57412 0
M  V30 6192 C 561.15 -0.898795 2.09537 0
M  V30 6193 C 562.134 -1.25556 1.0062 0
M  V30 6194 O 563.326 -1.23369 1.26921 0
M  V30 6195 C 560.455 -2.16453 2.66464 0
M  V30 6196 C 559.541 -1.83401 3.82393 0
M  V30 6197 N 559.932 -1.20823 4.91157 0
M  V30 6198 C 558.23 -2.13121 3.91785 0
M  V30 6199 C 558.931 -1.05976 5.71965 0
M  V30 6200 N 557.907 -1.57113 5.204 0
M  V30 6201 H 561.709 -0.410718 2.91016 0
M  V30 6202 H 559.223 -0.126878 1.61904 0
M  V30 6203 H 561.22 -2.87274 3.02125 0
M  V30 6204 H 559.88 -2.65844 1.86433 0
M  V30 6205 H 560.891 -0.877249 5.10416 0
M  V30 6206 H 557.568 -2.64854 3.22736 0
M  V30 6207 H 558.958 -0.571809 6.69462 0
M  V30 6208 N 561.678 -1.56367 -0.196722 0
M  V30 6209 C 562.955 -1.71359 -0.943159 0
M  V30 6210 C 563.335 -0.631192 -2.01443 0
M  V30 6211 O 562.683 0.358071 -2.25677 0
M  V30 6212 C 562.893 -3.13623 -1.53106 0
M  V30 6213 C 564.241 -3.73806 -2.01381 0
M  V30 6214 O 565.265 -3.16742 -1.62951 0
M  V30 6215 O 564.124 -4.73951 -2.7209 0
M  V30 6216 H 561.218 -0.698851 -0.442195 0
M  V30 6217 H 563.764 -1.68672 -0.186547 0
M  V30 6218 H 562.536 -3.83873 -0.758785 0
M  V30 6219 H 562.159 -3.20532 -2.35255 0
M  V30 6220 N 563.156 0.464375 -1.50603 0
M  V30 6221 C 564.381 1.24372 -1.65971 0
M  V30 6222 C 564.806 1.84901 -0.345453 0
M  V30 6223 O 564.164 1.67596 0.691457 0
M  V30 6224 C 564.212 2.32331 -2.7578 0
M  V30 6225 O 563.316 3.37146 -2.375 0
M  V30 6226 H 562.657 0.365604 -0.554283 0
M  V30 6227 H 565.187 0.55183 -1.97018 0
M  V30 6228 H 565.197 2.77539 -2.99059 0
M  V30 6229 H 563.872 1.87648 -3.71162 0
M  V30 6230 H 562.449 2.97602 -2.24694 0
M  V30 6231 N 564.634 1.40294 0.718013 0
M  V30 6232 C 565.581 1.40367 1.8321 0
M  V30 6233 C 566.551 0.260952 1.64037 0
M  V30 6234 O 567.736 0.458648 1.85205 0
M  V30 6235 C 564.876 1.26965 3.20895 0
M  V30 6236 C 563.989 2.50922 3.51656 0
M  V30 6237 C 563.124 2.29981 4.78834 0
M  V30 6238 C 562.163 3.49527 5.02491 0
M  V30 6239 N 561.3 3.27796 6.20882 0
M  V30 6240 H 566.14 2.35593 1.82482 0
M  V30 6241 H 563.677 1.17012 0.891444 0
M  V30 6242 H 565.635 1.17202 4.00399 0
M  V30 6243 H 564.265 0.353591 3.20858 0
M  V30 6244 H 563.317 2.71223 2.66725 0
M  V30 6245 H 564.629 3.39913 3.65048 0
M  V30 6246 H 563.783 2.17558 5.66351 0
M  V30 6247 H 562.522 1.38411 4.67647 0
M  V30 6248 H 561.527 3.6243 4.1343 0
M  V30 6249 H 562.752 4.42021 5.15553 0
M  V30 6250 H 560.698 2.38906 6.1095 0
M  V30 6251 H 560.615 4.10351 6.34939 0
M  V30 6252 H 561.883 3.19101 7.11193 0
M  V30 6253 N 566.112 -0.949982 1.2575 0
M  V30 6254 C 567.022 -2.08109 1.08295 0
M  V30 6255 C 568.038 -1.7399 0.0188181 0
M  V30 6256 O 569.214 -2.00187 0.220724 0
M  V30 6257 C 566.279 -3.39383 0.708534 0
M  V30 6258 C 565.34 -3.8734 1.85111 0
M  V30 6259 C 564.573 -5.12349 1.49447 0
M  V30 6260 O 564.796 -5.6905 0.392212 0
M  V30 6261 O 563.73 -5.5513 2.32624 0
M  V30 6262 H 567.556 -2.25738 2.03165 0
M  V30 6263 H 565.141 -1.06545 1.04731 0
M  V30 6264 H 567.023 -4.18277 0.512061 0
M  V30 6265 H 565.698 -3.23013 -0.210854 0
M  V30 6266 H 564.605 -3.09429 2.10248 0
M  V30 6267 H 565.938 -4.08216 2.74991 0
M  V30 6268 N 567.59 -1.07411 -1.15328 0
M  V30 6269 C 568.54 -0.664788 -2.18093 0
M  V30 6270 C 569.524 0.310395 -1.57878 0
M  V30 6271 O 570.716 0.124026 -1.76565 0
M  V30 6272 C 567.845 -0.0647822 -3.43239 0
M  V30 6273 C 566.931 -1.06514 -4.10506 0
M  V30 6274 N 567.322 -2.24491 -4.53252 0
M  V30 6275 C 565.62 -0.898613 -4.36853 0
M  V30 6276 C 566.321 -2.8796 -5.05424 0
M  V30 6277 N 565.297 -2.15622 -4.99007 0
M  V30 6278 H 569.099 -1.56333 -2.48872 0
M  V30 6279 H 566.613 -0.947393 -1.31902 0
M  V30 6280 H 568.61 0.246363 -4.16171 0
M  V30 6281 H 567.27 0.828866 -3.13943 0
M  V30 6282 H 568.281 -2.62205 -4.46619 0
M  V30 6283 H 564.958 -0.0579118 -4.1746 0
M  V30 6284 H 566.348 -3.88137 -5.48452 0
M  V30 6285 N 569.068 1.32177 -0.85831 0
M  V30 6286 C 569.998 2.31282 -0.321041 0
M  V30 6287 C 570.979 1.59841 0.581786 0
M  V30 6288 O 572.164 1.87619 0.501262 0
M  V30 6289 C 569.294 3.4385 0.48832 0
M  V30 6290 C 568.248 4.26799 -0.320391 0
M  V30 6291 C 567.574 5.31164 0.613934 0
M  V30 6292 C 568.874 4.98829 -1.54813 0
M  V30 6293 H 570.568 2.76469 -1.14915 0
M  V30 6294 H 568.114 1.32916 -0.554028 0
M  V30 6295 H 570.067 4.12224 0.874626 0
M  V30 6296 H 568.791 2.97401 1.34983 0
M  V30 6297 H 567.45 3.60077 -0.688497 0
M  V30 6298 H 567.098 4.80967 1.47239 0
M  V30 6299 H 566.798 5.8755 0.0768097 0
M  V30 6300 H 568.322 6.024 0.997336 0
M  V30 6301 H 569.736 5.59864 -1.23392 0
M  V30 6302 H 568.133 5.64957 -2.02346 0
M  V30 6303 H 569.203 4.26483 -2.30739 0
M  V30 6304 N 570.547 0.616602 1.45037 0
M  V30 6305 C 571.51 -0.0871112 2.29034 0
M  V30 6306 C 572.51 -0.786414 1.40258 0
M  V30 6307 O 573.7 -0.633207 1.62284 0
M  V30 6308 C 570.832 -1.13369 3.21497 0
M  V30 6309 H 572.025 0.651497 2.92738 0
M  V30 6310 H 569.578 0.376058 1.51709 0
M  V30 6311 H 570.313 -1.90277 2.62612 0
M  V30 6312 H 570.098 -0.636358 3.86902 0
M  V30 6313 H 571.588 -1.62627 3.84633 0
M  V30 6314 N 572.025 -1.5352 0.356285 0
M  V30 6315 C 572.958 -2.2177 -0.537913 0
M  V30 6316 C 573.936 -1.20626 -1.09033 0
M  V30 6317 O 575.12 -1.49494 -1.1482 0
M  V30 6318 C 572.247 -2.90513 -1.74126 0
M  V30 6319 C 571.293 -4.05652 -1.31715 0
M  V30 6320 S 572.126 -5.34505 -0.326236 0
M  V30 6321 C 573.282 -6.06757 -1.53612 0
M  V30 6322 H 573.515 -2.97271 0.0417411 0
M  V30 6323 H 571.048 -1.53761 0.140372 0
M  V30 6324 H 573.006 -3.30735 -2.43155 0
M  V30 6325 H 571.667 -2.14754 -2.29215 0
M  V30 6326 H 570.86 -4.52733 -2.21471 0
M  V30 6327 H 570.462 -3.67272 -0.706183 0
M  V30 6328 H 572.754 -6.30924 -2.46863 0
M  V30 6329 H 573.697 -6.99395 -1.10687 0
M  V30 6330 H 574.105 -5.3708 -1.73796 0
M  V30 6331 N 573.503 -0.0852151 -1.57369 0
M  V30 6332 C 574.436 0.913608 -2.09113 0
M  V30 6333 C 575.414 1.28264 -0.999358 0
M  V30 6334 O 576.598 1.3896 -1.27367 0
M  V30 6335 C 573.725 2.21777 -2.55993 0
M  V30 6336 C 572.771 1.99932 -3.76735 0
M  V30 6337 S 573.604 1.24637 -5.20794 0
M  V30 6338 C 574.76 2.56304 -5.71016 0
M  V30 6339 H 574.993 0.473369 -2.93507 0
M  V30 6340 H 572.526 0.127856 -1.5387 0
M  V30 6341 H 574.484 2.96726 -2.83662 0
M  V30 6342 H 573.145 2.62923 -1.71843 0
M  V30 6343 H 572.338 2.96482 -4.07571 0
M  V30 6344 H 571.94 1.33116 -3.49509 0
M  V30 6345 H 574.232 3.5233 -5.78679 0
M  V30 6346 H 575.175 2.3006 -6.69685 0
M  V30 6347 H 575.583 2.64125 -4.98897 0
M  V30 6348 N 574.981 1.5647 0.188427 0
M  V30 6349 C 575.891 1.98285 1.2538 0
M  V30 6350 C 576.907 0.891535 1.49424 0
M  V30 6351 O 578.083 1.19782 1.61908 0
M  V30 6352 C 575.148 2.31965 2.57669 0
M  V30 6353 C 574.209 3.54838 2.41638 0
M  V30 6354 C 573.442 3.86901 3.67618 0
M  V30 6355 O 573.665 3.20163 4.72072 0
M  V30 6356 O 572.599 4.80309 3.62749 0
M  V30 6357 H 576.425 2.89145 0.928912 0
M  V30 6358 H 574.01 1.44112 0.393955 0
M  V30 6359 H 575.892 2.54673 3.35737 0
M  V30 6360 H 574.567 1.44271 2.89771 0
M  V30 6361 H 573.474 3.37369 1.61658 0
M  V30 6362 H 574.807 4.43019 2.14465 0
M  V30 6363 N 576.459 -0.456382 1.50847 0
M  V30 6364 C 577.875 -0.791345 1.386 0
M  V30 6365 C 578.075 -1.9633 0.453498 0
M  V30 6366 O 577.131 -2.52308 -0.0984353 0
M  V30 6367 C 578.444 -1.08959 2.80265 0
M  V30 6368 C 579.992 -1.19517 2.89283 0
M  V30 6369 C 580.467 -1.52647 4.31814 0
M  V30 6370 N 581.958 -1.59609 4.34832 0
M  V30 6371 C 582.693 -1.86777 5.42127 0
M  V30 6372 N 582.189 -2.11866 6.59609 0
M  V30 6373 N 583.982 -1.88402 5.29586 0
M  V30 6374 H 576.133 0.315746 2.1004 0
M  V30 6375 H 578.396 0.0787916 0.94472 0
M  V30 6376 H 578.102 -0.301355 3.50407 0
M  V30 6377 H 577.976 -2.02211 3.18419 0
M  V30 6378 H 580.363 -1.97406 2.19351 0
M  V30 6379 H 580.444 -0.242111 2.54652 0
M  V30 6380 H 580.088 -0.752922 5.02288 0
M  V30 6381 H 580.018 -2.49127 4.63943 0
M  V30 6382 H 582.509 -1.42201 3.50125 0
M  V30 6383 H 582.822 -2.31912 7.37182 0
M  V30 6384 H 581.167 -2.09228 6.62758 0
M  V30 6385 H 584.358 -1.68307 4.36795 0
M  V30 6386 H 584.531 -2.09238 6.13289 0
M  V30 6387 N 577.937 -1.40673 -0.710563 0
M  V30 6388 C 579.186 -1.38525 -1.46607 0
M  V30 6389 C 579.499 0.0077024 -1.95598 0
M  V30 6390 O 580.705 0.151792 -2.71075 0
M  V30 6391 C 579.161 -2.43489 -2.6503 0
M  V30 6392 C 578.769 -3.88619 -2.22888 0
M  V30 6393 C 580.513 -2.50456 -3.42742 0
M  V30 6394 C 578.42 -4.85168 -3.3818 0
M  V30 6395 H 577.35 -0.515092 -0.550632 0
M  V30 6396 H 580.001 -1.66431 -0.772846 0
M  V30 6397 H 578.383 -2.0869 -3.36548 0
M  V30 6398 H 579.557 -4.32588 -1.58758 0
M  V30 6399 H 577.872 -3.85174 -1.58208 0
M  V30 6400 H 580.469 -3.19776 -4.28541 0
M  V30 6401 H 580.812 -1.53665 -3.86902 0
M  V30 6402 H 581.345 -2.84271 -2.78271 0
M  V30 6403 H 578.084 -5.8331 -2.99047 0
M  V30 6404 H 577.604 -4.4586 -4.01209 0
M  V30 6405 H 579.283 -5.05225 -4.04174 0
M  V30 6406 N 579.415 0.9433 -1.26252 0
M  V30 6407 C 580.345 2.05902 -1.10122 0
M  V30 6408 C 581.326 1.70099 -0.00700552 0
M  V30 6409 O 582.511 1.93377 -0.178641 0
M  V30 6410 C 579.641 3.39516 -0.731175 0
M  V30 6411 C 578.595 3.89372 -1.77688 0
M  V30 6412 C 577.921 5.19613 -1.26122 0
M  V30 6413 C 579.221 4.14489 -3.17799 0
M  V30 6414 H 580.915 2.19655 -2.03451 0
M  V30 6415 H 578.461 1.05548 -0.979576 0
M  V30 6416 H 580.414 4.17031 -0.605215 0
M  V30 6417 H 579.138 3.25733 0.23782 0
M  V30 6418 H 577.797 3.14036 -1.89148 0
M  V30 6419 H 577.445 5.02208 -0.282128 0
M  V30 6420 H 577.145 5.53939 -1.96023 0
M  V30 6421 H 578.669 5.99713 -1.14789 0
M  V30 6422 H 580.083 4.82625 -3.09428 0
M  V30 6423 H 578.48 4.60094 -3.85271 0
M  V30 6424 H 579.55 3.20347 -3.64014 0
M  V30 6425 N 580.893 1.08022 1.14757 0
M  V30 6426 C 582.141 0.805913 1.85336 0
M  V30 6427 C 582.462 -0.670162 1.83122 0
M  V30 6428 O 581.732 -1.48567 1.2769 0
M  V30 6429 H 580.312 0.295138 0.686223 0
M  V30 6430 H 582.974 1.36538 1.3908 0
M  V30 6431 H 582.07 1.14655 2.90277 0
M  V30 6432 N 582.371 -1.3172 0.865308 0
M  V30 6433 C 583.782 -1.79104 0.527126 0
M  V30 6434 C 584.133 -1.7135 -0.955695 0
M  V30 6435 O 583.258 -1.27845 -1.74598 0
M  V30 6436 C 583.853 -3.25207 0.950061 0
M  V30 6437 C 582.412 -3.70504 0.663611 0
M  V30 6438 C 581.559 -2.52605 1.14395 0
M  V30 6439 H 584.51 -1.18868 1.05148 0
M  V30 6440 H 584.531 -3.79535 0.270805 0
M  V30 6441 H 584.043 -3.30818 2.02931 0
M  V30 6442 H 582.144 -3.70398 -0.404474 0
M  V30 6443 H 582.257 -4.62845 1.23737 0
M  V30 6444 H 580.621 -2.4838 0.563859 0
M  V30 6445 H 581.404 -2.60964 2.23053 0
M  V30 6446 N 583.85 -0.624285 -1.44708 0
M  V30 6447 C 585.099 -0.123539 -2.01321 0
M  V30 6448 C 585.412 1.25966 -1.49639 0
M  V30 6449 O 586.618 1.85405 -1.98336 0
M  V30 6450 C 585.074 -0.170124 -3.59498 0
M  V30 6451 C 584.682 -1.55421 -4.20176 0
M  V30 6452 C 586.426 0.274513 -4.23611 0
M  V30 6453 C 584.332 -1.55628 -5.70556 0
M  V30 6454 H 583.263 -0.0424183 -0.752806 0
M  V30 6455 H 585.913 -0.782076 -1.65999 0
M  V30 6456 H 584.296 0.555385 -3.92086 0
M  V30 6457 H 585.47 -2.30276 -3.99136 0
M  V30 6458 H 583.784 -1.94235 -3.68323 0
M  V30 6459 H 586.382 0.292402 -5.339 0
M  V30 6460 H 586.725 1.3005 -3.95465 0
M  V30 6461 H 587.258 -0.398275 -3.95801 0
M  V30 6462 H 583.997 -2.56041 -6.03426 0
M  V30 6463 H 583.517 -0.850563 -5.93739 0
M  V30 6464 H 585.196 -1.28721 -6.34066 0
M  V30 6465 N 585.328 1.53329 -0.364422 0
M  V30 6466 C 586.739 1.86345 0.115039 0
M  V30 6467 C 587.09 1.28505 1.4826 0
M  V30 6468 O 586.215 0.606639 2.07723 0
M  V30 6469 C 586.81 3.38114 0.215522 0
M  V30 6470 C 585.369 3.70932 0.639237 0
M  V30 6471 C 584.516 2.76471 -0.214261 0
M  V30 6472 H 587.467 1.47593 -0.583258 0
M  V30 6473 H 587.488 3.66031 1.0393 0
M  V30 6474 H 587 3.80182 -0.779948 0
M  V30 6475 H 585.101 3.3442 1.64298 0
M  V30 6476 H 585.214 4.77302 0.41465 0
M  V30 6477 H 583.578 2.52724 0.316678 0
M  V30 6478 H 584.361 3.21373 -1.20725 0
M  V30 6479 N 586.806 0.0935595 1.57322 0
M  V30 6480 C 587.738 -0.895923 2.10964 0
M  V30 6481 C 588.751 -1.24705 1.04654 0
M  V30 6482 O 589.94 -1.20044 1.32105 0
M  V30 6483 C 587.04 -2.20546 2.57318 0
M  V30 6484 C 586.213 -2.0299 3.87445 0
M  V30 6485 C 585.272 -3.17443 4.19662 0
M  V30 6486 O 584.298 -2.91474 4.88909 0
M  V30 6487 N 585.5 -4.43168 3.74943 0
M  V30 6488 H 588.265 -0.437788 2.96485 0
M  V30 6489 H 585.826 -0.0915863 1.61641 0
M  V30 6490 H 587.818 -2.9606 2.75917 0
M  V30 6491 H 586.388 -2.57789 1.76816 0
M  V30 6492 H 585.608 -1.11815 3.78009 0
M  V30 6493 H 586.896 -1.88535 4.7258 0
M  V30 6494 H 586.294 -4.67149 3.19043 0
M  V30 6495 H 584.851 -5.15637 3.987 0
M  V30 6496 N 588.284 -1.56567 -0.180126 0
M  V30 6497 C 589.234 -1.92132 -1.22756 0
M  V30 6498 C 590.218 -0.788639 -1.40247 0
M  V30 6499 O 591.41 -1.05171 -1.42366 0
M  V30 6500 C 588.539 -2.27719 -2.56902 0
M  V30 6501 C 587.625 -3.47481 -2.43142 0
M  V30 6502 N 588.016 -4.64973 -1.99082 0
M  V30 6503 C 586.314 -3.51914 -2.73994 0
M  V30 6504 C 587.015 -5.47119 -1.97574 0
M  V30 6505 N 585.991 -4.87925 -2.39645 0
M  V30 6506 H 589.793 -2.80464 -0.878478 0
M  V30 6507 H 587.307 -1.57686 -0.388463 0
M  V30 6508 H 589.304 -2.51389 -3.32579 0
M  V30 6509 H 587.964 -1.40722 -2.92621 0
M  V30 6510 H 588.975 -4.89358 -1.69557 0
M  V30 6511 H 585.652 -2.75372 -3.13809 0
M  V30 6512 H 587.042 -6.51254 -1.65282 0
M  V30 6513 N 589.762 0.448376 -1.51087 0
M  V30 6514 C 590.695 1.56298 -1.66272 0
M  V30 6515 C 591.673 1.54381 -0.510419 0
M  V30 6516 O 592.857 1.73671 -0.732854 0
M  V30 6517 C 589.984 2.94883 -1.66618 0
M  V30 6518 C 589.03 3.14868 -2.87681 0
M  V30 6519 S 589.863 2.9234 -4.48662 0
M  V30 6520 C 591.019 4.33227 -4.51735 0
M  V30 6521 H 591.252 1.43182 -2.6055 0
M  V30 6522 H 588.785 0.637309 -1.40633 0
M  V30 6523 H 590.743 3.74771 -1.67502 0
M  V30 6524 H 589.404 3.05371 -0.735358 0
M  V30 6525 H 588.597 4.16166 -2.84292 0
M  V30 6526 H 588.199 2.42788 -2.84482 0
M  V30 6527 H 590.491 5.26247 -4.26697 0
M  V30 6528 H 591.434 4.41653 -5.53487 0
M  V30 6529 H 591.842 4.16367 -3.81181 0
M  V30 6530 N 591.24 1.41047 0.703093 0
M  V30 6531 C 592.489 1.39301 1.4587 0
M  V30 6532 C 592.802 0.00267077 1.956 0
M  V30 6533 O 594.008 -0.137414 2.71152 0
M  V30 6534 C 592.464 2.44891 2.63735 0
M  V30 6535 C 592.072 3.89796 2.20824 0
M  V30 6536 C 593.816 2.5227 3.41409 0
M  V30 6537 C 591.723 4.86955 3.35602 0
M  V30 6538 H 590.653 0.518005 0.547893 0
M  V30 6539 H 593.304 1.66839 0.764009 0
M  V30 6540 H 591.686 2.10472 3.35436 0
M  V30 6541 H 592.86 4.33424 1.56461 0
M  V30 6542 H 591.175 3.86008 1.56163 0
M  V30 6543 H 593.772 3.22044 4.26839 0
M  V30 6544 H 594.115 1.55714 3.86081 0
M  V30 6545 H 594.648 2.85742 2.7676 0
M  V30 6546 H 591.387 5.84888 2.9595 0
M  V30 6547 H 590.907 4.47982 3.98839 0
M  V30 6548 H 592.586 5.07361 4.01489 0
M  V30 6549 N 592.718 -0.936591 1.26751 0
M  V30 6550 C 593.65 -2.03991 1.045 0
M  V30 6551 C 594.663 -1.628 0.00394261 0
M  V30 6552 O 595.852 -1.76817 0.244526 0
M  V30 6553 C 592.952 -3.34218 0.561403 0
M  V30 6554 C 592.125 -4.04151 1.67274 0
M  V30 6555 C 591.184 -5.12651 1.1864 0
M  V30 6556 O 590.21 -5.37104 1.88437 0
M  V30 6557 N 591.412 -5.80488 0.037278 0
M  V30 6558 H 594.177 -2.23644 1.99508 0
M  V30 6559 H 591.738 -1.10638 1.18198 0
M  V30 6560 H 593.73 -4.04101 0.220136 0
M  V30 6561 H 592.3 -3.11203 -0.295211 0
M  V30 6562 H 591.52 -3.28121 2.18472 0
M  V30 6563 H 592.808 -4.47626 2.41885 0
M  V30 6564 H 592.206 -5.63064 -0.545494 0
M  V30 6565 H 590.763 -6.5134 -0.244877 0
M  V30 6566 N 594.196 -1.08629 -1.14182 0
M  V30 6567 C 595.143 -0.718299 -2.19338 0
M  V30 6568 C 596.113 0.296587 -1.63431 0
M  V30 6569 O 597.298 0.180079 -1.89948 0
M  V30 6570 C 594.438 -0.136203 -3.44831 0
M  V30 6571 C 593.551 -1.20414 -4.14879 0
M  V30 6572 C 592.686 -0.585666 -5.27962 0
M  V30 6573 C 591.725 -1.63548 -5.89846 0
M  V30 6574 N 590.862 -1.03864 -6.94375 0
M  V30 6575 H 595.702 -1.61932 -2.50164 0
M  V30 6576 H 593.239 -0.80919 -1.22844 0
M  V30 6577 H 595.197 0.219021 -4.16625 0
M  V30 6578 H 593.827 0.728121 -3.14481 0
M  V30 6579 H 592.879 -1.67676 -3.41451 0
M  V30 6580 H 594.191 -1.99959 -4.56966 0
M  V30 6581 H 593.345 -0.178818 -6.06436 0
M  V30 6582 H 592.084 0.24142 -4.87102 0
M  V30 6583 H 591.089 -2.05197 -5.10073 0
M  V30 6584 H 592.314 -2.46509 -6.3278 0
M  V30 6585 H 590.26 -0.232687 -6.55587 0
M  V30 6586 H 590.177 -1.77116 -7.3496 0
M  V30 6587 H 591.445 -0.657724 -7.7672 0
M  V30 6588 N 595.674 1.31259 -0.872281 0
M  V30 6589 C 596.902 2.00795 -0.498907 0
M  V30 6590 C 597.317 1.65464 0.909238 0
M  V30 6591 O 596.674 0.885073 1.59602 0
M  V30 6592 C 596.725 3.55625 -0.649092 0
M  V30 6593 O 596.446 3.89692 -2.00179 0
M  V30 6594 C 597.947 4.42434 -0.277034 0
M  V30 6595 H 595.167 0.642299 -0.194145 0
M  V30 6596 H 597.711 1.67438 -1.17408 0
M  V30 6597 H 595.866 3.87394 -0.0214402 0
M  V30 6598 H 596.28 4.84407 -2.01122 0
M  V30 6599 H 597.754 5.50299 -0.433064 0
M  V30 6600 H 598.231 4.32146 0.783989 0
M  V30 6601 H 598.837 4.16086 -0.880483 0
M  V30 6602 N 597.152 0.631951 1.44375 0
M  V30 6603 C 598.568 0.297642 1.568 0
M  V30 6604 C 598.768 -1.19916 1.61934 0
M  V30 6605 O 597.824 -1.98324 1.56281 0
M  V30 6606 C 599.137 0.990286 2.83926 0
M  V30 6607 C 600.685 0.968507 2.97639 0
M  V30 6608 C 601.16 1.64163 4.27568 0
M  V30 6609 N 602.651 1.60826 4.34384 0
M  V30 6610 C 603.386 2.09802 5.33639 0
M  V30 6611 N 602.882 2.66973 6.39294 0
M  V30 6612 N 604.675 2.00426 5.25153 0
M  V30 6613 H 596.826 1.60353 1.39286 0
M  V30 6614 H 599.089 0.673142 0.667521 0
M  V30 6615 H 598.795 2.04519 2.8612 0
M  V30 6616 H 598.669 0.528563 3.73478 0
M  V30 6617 H 601.056 -0.0779247 2.94997 0
M  V30 6618 H 601.137 1.46873 2.09433 0
M  V30 6619 H 600.781 2.68752 4.3097 0
M  V30 6620 H 600.711 1.11624 5.14634 0
M  V30 6621 H 603.202 1.19087 3.58646 0
M  V30 6622 H 603.515 3.02074 7.11316 0
M  V30 6623 H 601.86 2.71024 6.39977 0
M  V30 6624 H 605.051 1.55483 4.41523 0
M  V30 6625 H 605.224 2.38906 6.02352 0
M  V30 6626 N 598.631 -1.53133 0.372548 0
M  V30 6627 C 599.578 -2.25951 -0.470631 0
M  V30 6628 C 600.548 -1.26895 -1.07176 0
M  V30 6629 O 601.733 -1.55691 -1.10294 0
M  V30 6630 C 598.873 -3.05726 -1.6008 0
M  V30 6631 C 597.986 -4.19684 -1.02416 0
M  V30 6632 C 597.121 -4.86888 -2.124 0
M  V30 6633 C 596.16 -5.92866 -1.52238 0
M  V30 6634 N 595.297 -6.53732 -2.56084 0
M  V30 6635 H 600.137 -2.97587 0.156816 0
M  V30 6636 H 597.674 -1.4683 0.0891571 0
M  V30 6637 H 599.632 -3.50258 -2.26661 0
M  V30 6638 H 598.262 -2.36331 -2.1988 0
M  V30 6639 H 597.314 -3.79588 -0.248426 0
M  V30 6640 H 598.626 -4.95821 -0.544366 0
M  V30 6641 H 597.78 -5.34638 -2.86787 0
M  V30 6642 H 596.519 -4.10239 -2.63734 0
M  V30 6643 H 595.524 -5.4447 -0.763685 0
M  V30 6644 H 596.749 -6.71439 -1.0172 0
M  V30 6645 H 594.695 -5.79932 -3.06618 0
M  V30 6646 H 594.612 -7.25429 -2.12811 0
M  V30 6647 H 595.88 -7.0613 -3.30152 0
M  V30 6648 N 600.109 -0.101901 -1.5727 0
M  V30 6649 C 601.525 0.254739 -1.57554 0
M  V30 6650 C 601.725 1.67937 -1.11352 0
M  V30 6651 O 600.781 2.39722 -0.793081 0
M  V30 6652 C 602.094 0.036975 -3.00677 0
M  V30 6653 C 603.642 0.104199 -3.12827 0
M  V30 6654 C 604.117 -0.0856565 -4.5792 0
M  V30 6655 N 605.608 -0.0310498 -4.6319 0
M  V30 6656 C 606.343 -0.153099 -5.73196 0
M  V30 6657 N 605.839 -0.330364 -6.92012 0
M  V30 6658 N 607.632 -0.0938854 -5.62022 0
M  V30 6659 H 599.783 -1.03263 -1.85609 0
M  V30 6660 H 602.046 -0.405251 -0.857016 0
M  V30 6661 H 601.752 -0.947254 -3.38703 0
M  V30 6662 H 601.626 0.776335 -3.69124 0
M  V30 6663 H 604.013 1.07894 -2.74669 0
M  V30 6664 H 604.094 -0.666762 -2.46957 0
M  V30 6665 H 603.738 -1.05729 -4.96773 0
M  V30 6666 H 603.668 0.705082 -5.21858 0
M  V30 6667 H 606.159 0.103141 -3.77759 0
M  V30 6668 H 606.472 -0.41482 -7.71686 0
M  V30 6669 H 604.817 -0.366119 -6.94035 0
M  V30 6670 H 608.008 0.0435168 -4.6808 0
M  V30 6671 H 608.181 -0.19245 -6.47714 0
M  V30 6672 N 601.587 1.56661 0.17182 0
M  V30 6673 C 602.534 1.96371 1.21273 0
M  V30 6674 C 603.504 0.82756 1.44016 0
M  V30 6675 O 604.689 1.08764 1.56764 0
M  V30 6676 C 601.829 2.32838 2.54716 0
M  V30 6677 C 600.942 3.59628 2.39356 0
M  V30 6678 C 600.077 3.85311 3.65662 0
M  V30 6679 C 599.116 5.0545 3.45234 0
M  V30 6680 N 598.253 5.27268 4.63608 0
M  V30 6681 H 603.093 2.85106 0.86709 0
M  V30 6682 H 600.63 1.41073 0.416744 0
M  V30 6683 H 602.588 2.52004 3.3249 0
M  V30 6684 H 601.218 1.47214 2.87277 0
M  V30 6685 H 600.27 3.4838 1.52761 0
M  V30 6686 H 601.582 4.4756 2.20207 0
M  V30 6687 H 600.736 4.04841 4.51872 0
M  V30 6688 H 599.475 2.95753 3.8779 0
M  V30 6689 H 598.48 4.85819 2.5741 0
M  V30 6690 H 599.705 5.96538 3.24529 0
M  V30 6691 H 597.651 4.40662 4.85956 0
M  V30 6692 H 597.568 6.09422 4.4737 0
M  V30 6693 H 598.836 5.51277 5.51103 0
M  V30 6694 N 603.065 -0.440357 1.51323 0
M  V30 6695 C 604.295 -1.21079 1.67402 0
M  V30 6696 C 604.703 -1.85555 0.369599 0
M  V30 6697 O 604.046 -1.71375 -0.661525 0
M  V30 6698 C 604.108 -2.33839 2.73056 0
M  V30 6699 C 603.772 -1.89755 4.15743 0
M  V30 6700 C 604.769 -1.40268 5.0062 0
M  V30 6701 C 602.454 -1.97539 4.61826 0
M  V30 6702 C 604.448 -0.991474 6.29642 0
M  V30 6703 C 602.135 -1.56029 5.90845 0
M  V30 6704 C 603.133 -1.06915 6.7458 0
M  V30 6705 O 602.821 -0.659933 8.01187 0
M  V30 6706 H 602.553 -0.371133 0.56501 0
M  V30 6707 H 605.107 -0.528409 1.98487 0
M  V30 6708 H 603.337 -3.05345 2.37279 0
M  V30 6709 H 605.026 -2.95713 2.78044 0
M  V30 6710 H 605.792 -1.33652 4.66221 0
M  V30 6711 H 601.671 -2.34713 3.96776 0
M  V30 6712 H 605.215 -0.607425 6.9495 0
M  V30 6713 H 601.112 -1.62315 6.24759 0
M  V30 6714 H 601.88 -0.786052 8.14717 0
M  V30 6715 N 604.543 -1.41418 -0.695603 0
M  V30 6716 C 605.79 -1.40774 -1.45564 0
M  V30 6717 C 606.118 -0.0168604 -1.94493 0
M  V30 6718 O 605.373 0.971259 -1.69897 0
M  V30 6719 C 605.672 -2.36112 -2.68302 0
M  V30 6720 C 605.338 -3.82952 -2.38031 0
M  V30 6721 C 604 -4.22954 -2.29486 0
M  V30 6722 C 606.352 -4.75662 -2.13061 0
M  V30 6723 C 603.68 -5.53674 -1.94067 0
M  V30 6724 C 606.032 -6.06702 -1.79151 0
M  V30 6725 C 604.696 -6.45725 -1.69102 0
M  V30 6726 H 603.966 -0.515128 -0.532658 0
M  V30 6727 H 606.613 -1.74216 -0.795047 0
M  V30 6728 H 604.918 -1.95924 -3.39295 0
M  V30 6729 H 606.615 -2.32887 -3.26442 0
M  V30 6730 H 603.205 -3.5127 -2.45576 0
M  V30 6731 H 607.389 -4.45561 -2.18608 0
M  V30 6732 H 602.645 -5.8279 -1.8484 0
M  V30 6733 H 606.819 -6.78041 -1.5885 0
M  V30 6734 H 604.446 -7.46929 -1.41426 0
M  V30 6735 N 606.021 0.929856 -1.27246 0
M  V30 6736 C 606.971 2.01629 -1.06442 0
M  V30 6737 C 607.955 1.60899 0.00687842 0
M  V30 6738 O 609.147 1.75733 -0.211407 0
M  V30 6739 C 606.276 3.35849 -0.711361 0
M  V30 6740 C 605.362 3.8303 -1.82069 0
M  V30 6741 N 605.753 4.02743 -3.05993 0
M  V30 6742 C 604.051 4.12046 -1.70687 0
M  V30 6743 C 604.752 4.42001 -3.78167 0
M  V30 6744 N 603.728 4.4935 -3.05918 0
M  V30 6745 H 607.53 2.14898 -2.00489 0
M  V30 6746 H 605.044 1.11654 -1.17929 0
M  V30 6747 H 607.041 4.13343 -0.543442 0
M  V30 6748 H 605.701 3.23944 0.221517 0
M  V30 6749 H 606.712 3.89112 -3.41778 0
M  V30 6750 H 603.389 4.08866 -0.844681 0
M  V30 6751 H 604.779 4.6535 -4.84664 0
M  V30 6752 N 607.499 1.09233 1.13605 0
M  V30 6753 C 608.449 0.6994 2.17008 0
M  V30 6754 C 609.433 -0.285238 1.58352 0
M  V30 6755 O 610.625 -0.09592 1.7674 0
M  V30 6756 C 607.754 0.11938 3.43092 0
M  V30 6757 C 606.84 1.13031 4.0876 0
M  V30 6758 N 607.231 2.31673 4.49623 0
M  V30 6759 C 605.529 0.967999 4.35369 0
M  V30 6760 C 606.23 2.95964 5.00779 0
M  V30 6761 N 605.206 2.23534 4.95513 0
M  V30 6762 H 609.008 1.60272 2.46354 0
M  V30 6763 H 606.522 0.968257 1.30378 0
M  V30 6764 H 608.519 -0.180122 4.16511 0
M  V30 6765 H 607.179 -0.778816 3.15221 0
M  V30 6766 H 608.19 2.69277 4.42391 0
M  V30 6767 H 604.867 0.124319 4.17315 0
M  V30 6768 H 606.257 3.96813 5.42208 0
M  V30 6769 N 608.977 -1.30795 0.87923 0
M  V30 6770 C 609.925 -2.30231 0.331112 0
M  V30 6771 C 610.919 -1.59918 -0.558794 0
M  V30 6772 O 612.125 -1.74441 -0.443866 0
M  V30 6773 H 608.5 -0.746785 0.088409 0
M  V30 6774 H 610.471 -2.73925 1.18353 0
M  V30 6775 C 609.22 -3.44848 -0.444401 0
M  V30 6776 H 608.543 -3.99131 0.231106 0
M  V30 6777 H 609.983 -4.16516 -0.793109 0
M  V30 6778 C 608.442 -2.94329 -1.63926 0
M  V30 6779 O 608.972 -2.93875 -2.73862 0
M  V30 6780 N 607.178 -2.50413 -1.4745 0
M  V30 6781 H 606.725 -2.50982 -0.58015 0
M  V30 6782 H 606.683 -2.16969 -2.27534 0
M  V30 6783 N 610.455 -0.639598 -1.44038 0
M  V30 6784 C 611.387 0.0987684 -2.28987 0
M  V30 6785 C 612.4 0.80058 -1.41755 0
M  V30 6786 O 613.589 0.660611 -1.65826 0
M  V30 6787 C 610.689 1.16242 -3.18341 0
M  V30 6788 C 609.862 0.541447 -4.34036 0
M  V30 6789 C 608.921 1.50017 -5.04362 0
M  V30 6790 O 607.947 1.01403 -5.60095 0
M  V30 6791 N 609.149 2.83441 -5.06598 0
M  V30 6792 H 611.914 -0.630305 -2.92997 0
M  V30 6793 H 609.475 -0.481376 -1.54578 0
M  V30 6794 H 611.467 1.80429 -3.62253 0
M  V30 6795 H 610.037 1.79362 -2.56024 0
M  V30 6796 H 609.257 -0.27923 -3.9321 0
M  V30 6797 H 610.545 0.107379 -5.08687 0
M  V30 6798 H 609.943 3.2551 -4.62666 0
M  V30 6799 H 608.5 3.42966 -5.54272 0
M  V30 6800 N 611.933 1.52934 -0.380664 0
M  V30 6801 C 612.863 2.29118 0.450268 0
M  V30 6802 C 613.844 1.32153 1.07096 0
M  V30 6803 O 615.029 1.61038 1.08537 0
M  V30 6804 C 612.159 3.09161 1.58231 0
M  V30 6805 C 611.113 4.13938 1.0881 0
M  V30 6806 C 610.439 4.82153 2.31155 0
M  V30 6807 C 611.739 5.22048 0.162146 0
M  V30 6808 H 613.433 2.98826 -0.185361 0
M  V30 6809 H 610.979 1.43715 -0.0905886 0
M  V30 6810 H 612.932 3.61211 2.17036 0
M  V30 6811 H 611.656 2.3717 2.2454 0
M  V30 6812 H 610.315 3.62855 0.522633 0
M  V30 6813 H 609.963 4.06719 2.95953 0
M  V30 6814 H 609.663 5.52966 1.98752 0
M  V30 6815 H 611.187 5.37004 2.90618 0
M  V30 6816 H 612.601 5.6951 0.658126 0
M  V30 6817 H 610.998 6.00057 -0.0717122 0
M  V30 6818 H 612.068 4.78398 -0.791438 0
M  V30 6819 N 613.412 0.11024 1.57214 0
M  V30 6820 C 614.689 -0.592956 1.86396 0
M  V30 6821 C 615.069 -1.85379 1.00985 0
M  V30 6822 O 614.417 -2.28337 0.0863592 0
M  V30 6823 C 614.627 -0.893816 3.3736 0
M  V30 6824 C 615.975 -1.25069 4.05762 0
M  V30 6825 O 616.999 -0.984356 3.42329 0
M  V30 6826 O 615.858 -1.75017 5.17718 0
M  V30 6827 H 612.952 -0.29828 0.771335 0
M  V30 6828 H 615.498 0.144083 1.69087 0
M  V30 6829 H 614.27 2.6031e-05 3.913 0
M  V30 6830 H 613.893 -1.68631 3.60068 0
M  V30 6831 N 614.89 -1.56749 -0.16351 0
M  V30 6832 C 616.136 -1.83597 -0.875436 0
M  V30 6833 C 616.491 -0.691907 -1.79528 0
M  V30 6834 O 615.784 0.311193 -1.89056 0
M  V30 6835 C 615.978 -3.14342 -1.70071 0
M  V30 6836 C 615.807 -4.41356 -0.862265 0
M  V30 6837 C 614.577 -5.02467 -0.534299 0
M  V30 6838 C 616.775 -5.1391 -0.200203 0
M  V30 6839 N 614.757 -6.13068 0.31947 0
M  V30 6840 C 616.128 -6.17862 0.514398 0
M  V30 6841 C 618.183 -4.97757 -0.119171 0
M  V30 6842 C 616.886 -7.07412 1.30236 0
M  V30 6843 C 618.912 -5.87756 0.655477 0
M  V30 6844 C 618.274 -6.91178 1.35842 0
M  V30 6845 H 614.373 -0.722702 -0.298708 0
M  V30 6846 H 616.957 -1.94182 -0.141883 0
M  V30 6847 H 615.128 -3.04933 -2.40562 0
M  V30 6848 H 616.86 -3.29156 -2.35453 0
M  V30 6849 H 613.615 -4.65611 -0.866222 0
M  V30 6850 H 614.039 -6.72978 0.736893 0
M  V30 6851 H 618.681 -4.178 -0.648278 0
M  V30 6852 H 616.399 -7.86808 1.84278 0
M  V30 6853 H 619.985 -5.77328 0.719948 0
M  V30 6854 H 618.865 -7.59614 1.94822 0
M  V30 6855 N 616.368 0.432326 -1.51554 0
M  V30 6856 C 617.645 1.19288 -1.55015 0
M  V30 6857 C 618.025 2.08701 -0.317375 0
M  V30 6858 O 617.373 2.17602 0.697243 0
M  V30 6859 C 617.583 1.99037 -2.86679 0
M  V30 6860 C 618.931 2.55907 -3.38817 0
M  V30 6861 O 619.955 2.09243 -2.88263 0
M  V30 6862 O 618.814 3.41029 -4.27038 0
M  V30 6863 H 615.908 0.543369 -0.623441 0
M  V30 6864 H 618.454 0.440988 -1.6387 0
M  V30 6865 H 617.226 1.33397 -3.6786 0
M  V30 6866 H 616.849 2.81281 -2.8101 0
M  V30 6867 N 617.846 1.41785 0.688094 0
M  V30 6868 C 618.756 1.46596 1.83158 0
M  V30 6869 C 619.772 0.355862 1.70322 0
M  V30 6870 O 620.948 0.604737 1.92106 0
M  V30 6871 C 618.013 1.35322 3.192 0
M  V30 6872 C 617.074 2.56711 3.4409 0
M  V30 6873 C 616.307 2.45965 4.73642 0
M  V30 6874 O 616.53 1.48827 5.50642 0
M  V30 6875 O 615.464 3.35859 4.99482 0
M  V30 6876 H 619.29 2.43083 1.82056 0
M  V30 6877 H 616.875 1.23404 0.842126 0
M  V30 6878 H 618.757 1.31347 4.00407 0
M  V30 6879 H 617.432 0.419536 3.2097 0
M  V30 6880 H 616.339 2.66262 2.62784 0
M  V30 6881 H 617.672 3.48933 3.47141 0
M  V30 6882 N 619.324 -0.923095 1.27737 0
M  V30 6883 C 620.274 -2.01061 1.0751 0
M  V30 6884 C 621.258 -1.609 0.00165451 0
M  V30 6885 O 622.45 -1.75618 0.220724 0
M  V30 6886 C 619.579 -3.35467 0.729162 0
M  V30 6887 C 618.665 -3.82059 1.84098 0
M  V30 6888 N 619.056 -4.01115 3.08124 0
M  V30 6889 C 617.354 -4.11135 1.7287 0
M  V30 6890 C 618.055 -4.39989 3.80506 0
M  V30 6891 N 617.031 -4.47721 3.08297 0
M  V30 6892 H 620.833 -2.13832 2.01626 0
M  V30 6893 H 618.347 -1.11027 1.18519 0
M  V30 6894 H 620.344 -4.13049 0.565355 0
M  V30 6895 H 619.004 -3.24056 -0.204334 0
M  V30 6896 H 620.015 -3.87294 3.43836 0
M  V30 6897 H 616.692 -4.08412 0.866352 0
M  V30 6898 H 618.082 -4.62773 4.87125 0
M  V30 6899 N 620.802 -1.09834 -1.13024 0
M  V30 6900 C 622.027 -0.85909 -1.88771 0
M  V30 6901 C 622.452 0.584402 -1.78791 0
M  V30 6902 O 621.81 1.41101 -1.13842 0
M  V30 6903 C 621.858 -1.30427 -3.36186 0
M  V30 6904 O 620.962 -0.465368 -4.09766 0
M  V30 6905 H 620.303 -0.310786 -0.586778 0
M  V30 6906 H 622.833 -1.46355 -1.42973 0
M  V30 6907 H 622.843 -1.2915 -3.8702 0
M  V30 6908 H 621.518 -2.3555 -3.42767 0
M  V30 6909 H 620.095 -0.542814 -3.68928 0
M  V30 6910 N 622.28 1.30327 -0.886154 0
M  V30 6911 C 623.505 2.0079 -0.519425 0
M  V30 6912 C 623.93 1.65979 0.885013 0
M  V30 6913 O 623.288 0.877043 1.58675 0
M  V30 6914 C 623.336 3.53686 -0.702758 0
M  V30 6915 O 622.44 4.11637 0.250828 0
M  V30 6916 H 621.781 0.63171 -0.204544 0
M  V30 6917 H 624.311 1.66145 -1.19402 0
M  V30 6918 H 624.321 4.03531 -0.602207 0
M  V30 6919 H 622.996 3.78361 -1.72673 0
M  V30 6920 H 621.573 3.72755 0.103873 0
M  V30 6921 N 623.758 0.647228 1.43697 0
M  V30 6922 C 624.721 -0.0385101 2.29168 0
M  V30 6923 C 625.721 -0.756487 1.41894 0
M  V30 6924 O 626.911 -0.598641 1.63591 0
M  V30 6925 C 624.043 -1.06524 3.23829 0
M  V30 6926 H 625.236 0.713445 2.9129 0
M  V30 6927 H 622.789 0.408153 1.50877 0
M  V30 6928 H 623.524 -1.84664 2.66589 0
M  V30 6929 H 623.309 -0.554147 3.88164 0
M  V30 6930 H 624.799 -1.54432 3.87996 0
M  V30 6931 N 625.236 -1.5273 0.388769 0
M  V30 6932 C 626.484 -2.01174 -0.193208 0
M  V30 6933 C 626.805 -1.27705 -1.47365 0
M  V30 6934 O 626.075 -0.396966 -1.91836 0
M  V30 6935 H 624.655 -0.743287 -0.0743871 0
M  V30 6936 H 627.317 -1.87826 0.520336 0
M  V30 6937 H 626.413 -3.09477 -0.403803 0
M  V30 6938 N 626.714 -0.118576 -1.57153 0
M  V30 6939 C 628.13 0.238014 -1.57815 0
M  V30 6940 C 628.33 1.66747 -1.13127 0
M  V30 6941 O 627.386 2.38867 -0.818462 0
M  V30 6942 C 628.699 0.00508207 -3.007 0
M  V30 6943 C 630.247 0.0710139 -3.12919 0
M  V30 6944 C 630.722 -0.13422 -4.57803 0
M  V30 6945 N 632.213 -0.0801755 -4.63131 0
M  V30 6946 C 632.948 -0.213885 -5.73001 0
M  V30 6947 N 632.444 -0.403742 -6.91623 0
M  V30 6948 N 634.237 -0.15349 -5.6189 0
M  V30 6949 H 626.388 -1.05226 -1.84503 0
M  V30 6950 H 628.651 -0.414318 -0.852669 0
M  V30 6951 H 628.357 -0.983125 -3.3768 0
M  V30 6952 H 628.231 0.73714 -3.69927 0
M  V30 6953 H 630.618 1.04975 -2.75798 0
M  V30 6954 H 630.699 -0.692918 -2.46236 0
M  V30 6955 H 630.343 -1.10992 -4.95624 0
M  V30 6956 H 630.273 0.649692 -5.22577 0
M  V30 6957 H 632.764 0.0630689 -3.77847 0
M  V30 6958 H 633.077 -0.496645 -7.71202 0
M  V30 6959 H 631.422 -0.43971 -6.93608 0
M  V30 6960 H 634.613 -0.00613174 -4.681 0
M  V30 6961 H 634.786 -0.261138 -6.47474 0
M  V30 6962 N 628.193 1.56834 0.155195 0
M  V30 6963 C 629.423 1.86778 0.883044 0
M  V30 6964 C 629.831 0.703824 1.75622 0
M  V30 6965 O 629.174 -0.33581 1.80605 0
M  V30 6966 C 629.236 3.1133 1.79761 0
M  V30 6967 C 628.9 4.43504 1.10242 0
M  V30 6968 C 629.897 5.17859 0.460204 0
M  V30 6969 C 627.582 4.90233 1.09437 0
M  V30 6970 C 629.576 6.37144 -0.180782 0
M  V30 6971 C 627.263 6.09444 0.449569 0
M  V30 6972 C 628.261 6.82744 -0.186888 0
M  V30 6973 O 627.949 7.99692 -0.821486 0
M  V30 6974 H 627.681 0.62352 0.261149 0
M  V30 6975 H 630.235 2.04813 0.155204 0
M  V30 6976 H 628.465 2.89282 2.56618 0
M  V30 6977 H 630.154 3.27587 2.39669 0
M  V30 6978 H 630.92 4.8283 0.458289 0
M  V30 6979 H 626.799 4.33109 1.57917 0
M  V30 6980 H 630.343 6.94296 -0.678154 0
M  V30 6981 H 626.24 6.43936 0.449123 0
M  V30 6982 H 627.008 8.15306 -0.722337 0
M  V30 6983 N 629.671 -0.424282 1.51781 0
M  V30 6984 C 630.917 -1.17434 1.6534 0
M  V30 6985 C 631.25 -1.90549 0.374806 0
M  V30 6986 O 630.525 -1.84145 -0.626179 0
M  V30 6987 C 630.808 -2.18093 2.86544 0
M  V30 6988 C 630.661 -1.48975 4.24413 0
M  V30 6989 C 631.98 -3.18934 3.03264 0
M  V30 6990 H 629.099 -0.425566 0.601716 0
M  V30 6991 H 631.741 -0.461921 1.84299 0
M  V30 6992 H 629.891 -2.78849 2.7051 0
M  V30 6993 H 631.563 -0.914551 4.52143 0
M  V30 6994 H 629.806 -0.791893 4.26511 0
M  V30 6995 H 630.477 -2.22347 5.05238 0
M  V30 6996 H 632.953 -2.68243 3.18096 0
M  V30 6997 H 631.829 -3.86645 3.89611 0
M  V30 6998 H 632.09 -3.85793 2.15908 0
M  V30 6999 N 631.149 -1.42148 -0.680565 0
M  V30 7000 C 632.565 -1.24947 -0.992995 0
M  V30 7001 C 632.765 -0.149527 -2.00944 0
M  V30 7002 O 631.821 0.481145 -2.47873 0
M  V30 7003 C 633.134 -2.60426 -1.5033 0
M  V30 7004 C 634.682 -2.67733 -1.62137 0
M  V30 7005 C 635.157 -4.03564 -2.16565 0
M  V30 7006 N 636.648 -4.05488 -2.23905 0
M  V30 7007 C 637.383 -5.07401 -2.67081 0
M  V30 7008 N 636.879 -6.19698 -3.09751 0
M  V30 7009 N 638.672 -4.94758 -2.66778 0
M  V30 7010 H 630.823 -2.12399 -0.0074788 0
M  V30 7011 H 633.086 -0.94571 -0.0658529 0
M  V30 7012 H 632.792 -3.41743 -0.830947 0
M  V30 7013 H 632.666 -2.83949 -2.483 0
M  V30 7014 H 635.053 -1.86765 -2.2848 0
M  V30 7015 H 635.134 -2.48004 -0.626713 0
M  V30 7016 H 634.778 -4.84987 -1.50833 0
M  V30 7017 H 634.708 -4.20641 -3.1681 0
M  V30 7018 H 637.199 -3.24415 -1.93812 0
M  V30 7019 H 637.512 -6.93318 -3.41365 0
M  V30 7020 H 635.857 -6.23212 -3.07623 0
M  V30 7021 H 639.048 -4.06105 -2.32801 0
M  V30 7022 H 639.221 -5.74317 -3.00107 0
M  V30 7023 N 632.627 0.916307 -1.28225 0
M  V30 7024 C 634.043 1.19425 -1.05876 0
M  V30 7025 C 634.243 2.005 0.2005 0
M  V30 7026 O 633.299 2.35806 0.902873 0
M  V30 7027 C 634.612 1.93133 -2.30478 0
M  V30 7028 C 636.16 2.06026 -2.35632 0
M  V30 7029 C 636.635 2.83141 -3.59994 0
M  V30 7030 N 638.126 2.90704 -3.60618 0
M  V30 7031 C 638.861 3.50865 -4.53521 0
M  V30 7032 N 638.357 4.12327 -5.56739 0
M  V30 7033 N 640.15 3.48379 -4.41122 0
M  V30 7034 H 632.301 0.37496 -2.09064 0
M  V30 7035 H 634.564 0.228531 -0.920042 0
M  V30 7036 H 634.27 1.40985 -3.22205 0
M  V30 7037 H 634.144 2.93696 -2.36691 0
M  V30 7038 H 636.531 2.57355 -1.44404 0
M  V30 7039 H 636.612 1.04647 -2.33415 0
M  V30 7040 H 636.256 2.32492 -4.51564 0
M  V30 7041 H 636.186 3.84829 -3.59464 0
M  V30 7042 H 638.677 2.47034 -2.85977 0
M  V30 7043 H 638.99 4.56205 -6.23776 0
M  V30 7044 H 637.335 4.10839 -5.60568 0
M  V30 7045 H 640.526 2.99572 -3.59686 0
M  V30 7046 H 640.699 3.94974 -5.13712 0
M  V30 7047 N 634.105 1.10431 1.1244 0
M  V30 7048 C 635.521 0.836096 1.35947 0
M  V30 7049 C 635.721 -0.544475 1.94004 0
M  V30 7050 O 634.777 -1.29735 2.16622 0
M  V30 7051 C 636.09 1.93575 2.30107 0
M  V30 7052 C 637.638 1.9642 2.43697 0
M  V30 7053 C 638.113 3.05559 3.41171 0
M  V30 7054 N 639.604 3.04865 3.48728 0
M  V30 7055 C 640.339 3.85954 4.24061 0
M  V30 7056 N 639.835 4.76977 5.02458 0
M  V30 7057 N 641.628 3.74172 4.19466 0
M  V30 7058 H 633.779 1.9942 0.731124 0
M  V30 7059 H 636.042 0.866607 0.384312 0
M  V30 7060 H 635.748 2.92943 1.94621 0
M  V30 7061 H 635.622 1.8229 3.30227 0
M  V30 7062 H 638.009 0.97685 2.78463 0
M  V30 7063 H 638.09 2.11782 1.43465 0
M  V30 7064 H 637.734 4.04513 3.07135 0
M  V30 7065 H 637.664 2.87438 4.41234 0
M  V30 7066 H 640.155 2.38908 2.92799 0
M  V30 7067 H 640.468 5.35409 5.57277 0
M  V30 7068 H 638.813 4.81006 5.01655 0
M  V30 7069 H 642.004 3.02412 3.57302 0
M  V30 7070 H 642.177 4.37602 4.77921 0
M  V30 7071 N 635.583 -1.29855 0.893053 0
M  V30 7072 C 636.823 -1.97612 0.522399 0
M  V30 7073 C 637.187 -1.68903 -0.913 0
M  V30 7074 O 638.388 -2.30059 -1.39019 0
M  V30 7075 C 636.659 -3.48356 0.79893 0
M  V30 7076 S 638.218 -4.35568 0.531588 0
M  V30 7077 H 635.036 -0.684005 0.194058 0
M  V30 7078 H 637.638 -1.57803 1.15406 0
M  V30 7079 H 636.342 -3.66743 1.84196 0
M  V30 7080 H 635.873 -3.93094 0.155133 0
M  V30 7081 H 637.888 -4.92232 -0.626295 0
M  V30 7082 N 637.061 -0.65484 -1.43351 0
M  V30 7083 C 638.008 0.0357713 -2.30772 0
M  V30 7084 C 638.978 0.813035 -1.44841 0
M  V30 7085 O 640.163 0.789314 -1.73708 0
M  V30 7086 C 637.303 0.995084 -3.30442 0
M  V30 7087 C 636.416 0.21375 -4.31471 0
M  V30 7088 C 635.551 1.16701 -5.18222 0
M  V30 7089 C 634.59 0.376201 -6.10943 0
M  V30 7090 N 633.727 1.28113 -6.90313 0
M  V30 7091 H 638.567 -0.71559 -2.89281 0
M  V30 7092 H 636.104 -0.364645 -1.42509 0
M  V30 7093 H 638.062 1.5649 -3.86739 0
M  V30 7094 H 636.692 1.7133 -2.7358 0
M  V30 7095 H 635.744 -0.472377 -3.77456 0
M  V30 7096 H 637.056 -0.401103 -4.97185 0
M  V30 7097 H 636.21 1.8074 -5.79153 0
M  V30 7098 H 634.949 1.81577 -4.52638 0
M  V30 7099 H 633.954 -0.277534 -5.49099 0
M  V30 7100 H 635.179 -0.268178 -6.7857 0
M  V30 7101 H 633.125 1.91666 -6.27376 0
M  V30 7102 H 633.042 0.720879 -7.52555 0
M  V30 7103 H 634.31 1.90962 -7.55747 0
M  V30 7104 N 638.539 1.52521 -0.396863 0
M  V30 7105 C 639.95 1.86547 0.0754868 0
M  V30 7106 C 640.301 1.31621 1.45501 0
M  V30 7107 O 639.426 0.650563 2.0639 0
M  V30 7108 C 640.021 3.38495 0.143754 0
M  V30 7109 C 638.58 3.72205 0.560413 0
M  V30 7110 C 637.727 2.75954 -0.272856 0
M  V30 7111 H 640.678 1.46323 -0.614434 0
M  V30 7112 H 640.699 3.68153 0.961425 0
M  V30 7113 H 640.211 3.78442 -0.860415 0
M  V30 7114 H 638.312 3.3783 1.57167 0
M  V30 7115 H 638.425 4.78074 0.313314 0
M  V30 7116 H 636.789 2.53339 0.263 0
M  V30 7117 H 637.572 3.1874 -1.27515 0
M  V30 7118 N 640.017 0.126909 1.57088 0
M  V30 7119 C 640.947 -0.816847 2.18746 0
M  V30 7120 C 641.928 -1.27161 1.12979 0
M  V30 7121 O 643.113 -1.33279 1.41246 0
M  V30 7122 C 640.243 -2.06398 2.79315 0
M  V30 7123 C 639.197 -1.74673 3.90735 0
M  V30 7124 C 638.523 -3.06482 4.38147 0
M  V30 7125 C 639.823 -1.0089 5.12463 0
M  V30 7126 H 641.517 -0.303032 2.97863 0
M  V30 7127 H 639.063 -0.144314 1.43275 0
M  V30 7128 H 641.016 -2.72885 3.2111 0
M  V30 7129 H 639.74 -2.60118 1.975 0
M  V30 7130 H 638.399 -1.10572 3.49527 0
M  V30 7131 H 638.047 -3.58152 3.5318 0
M  V30 7132 H 637.747 -2.86025 5.13287 0
M  V30 7133 H 639.271 -3.74073 4.82599 0
M  V30 7134 H 640.685 -1.57546 5.51228 0
M  V30 7135 H 639.082 -0.905006 5.93237 0
M  V30 7136 H 640.152 0.00297335 4.849 0
M  V30 7137 N 641.495 -1.56914 -0.146875 0
M  V30 7138 C 642.442 -1.98275 -1.18134 0
M  V30 7139 C 643.412 -0.850367 -1.42681 0
M  V30 7140 O 644.597 -1.11244 -1.55014 0
M  V30 7141 C 641.737 -2.36861 -2.5098 0
M  V30 7142 C 640.85 -3.63391 -2.33605 0
M  V30 7143 C 639.985 -3.91079 -3.59486 0
M  V30 7144 C 639.024 -5.10879 -3.37149 0
M  V30 7145 N 638.161 -5.34577 -4.55161 0
M  V30 7146 H 643.001 -2.8645 -0.821622 0
M  V30 7147 H 640.538 -1.41718 -0.394248 0
M  V30 7148 H 642.496 -2.57262 -3.28439 0
M  V30 7149 H 641.126 -1.51766 -2.84898 0
M  V30 7150 H 640.178 -3.50766 -1.47199 0
M  V30 7151 H 641.49 -4.51007 -2.13059 0
M  V30 7152 H 640.644 -4.11979 -4.45374 0
M  V30 7153 H 639.383 -3.01885 -3.83036 0
M  V30 7154 H 638.388 -4.89853 -2.49649 0
M  V30 7155 H 639.613 -6.01626 -3.14997 0
M  V30 7156 H 637.559 -4.48337 -4.78884 0
M  V30 7157 H 637.476 -6.16463 -4.37618 0
M  V30 7158 H 638.744 -5.59975 -5.42263 0
M  V30 7159 N 642.974 0.416227 -1.52004 0
M  V30 7160 C 643.884 1.53147 -1.77717 0
M  V30 7161 C 644.9 1.609 -0.662368 0
M  V30 7162 O 646.076 1.77747 -0.946991 0
M  V30 7163 C 643.141 2.88948 -1.91598 0
M  V30 7164 C 642.202 2.9114 -3.15493 0
M  V30 7165 C 641.435 4.20464 -3.28703 0
M  V30 7166 O 641.658 5.13981 -2.47345 0
M  V30 7167 O 640.592 4.29368 -4.21813 0
M  V30 7168 H 644.418 1.34357 -2.72363 0
M  V30 7169 H 642.003 0.601373 -1.36762 0
M  V30 7170 H 643.885 3.69505 -2.02593 0
M  V30 7171 H 642.56 3.07821 -1.00141 0
M  V30 7172 H 641.467 2.09461 -3.09962 0
M  V30 7173 H 642.8 2.77216 -4.06709 0
M  V30 7174 N 644.452 1.42507 0.673017 0
M  V30 7175 C 645.699 1.43072 1.43306 0
M  V30 7176 C 646.027 0.0478004 1.94441 0
M  V30 7177 O 645.282 -0.944106 1.71421 0
M  V30 7178 C 645.581 2.40351 2.64511 0
M  V30 7179 C 645.247 3.8669 2.31908 0
M  V30 7180 C 643.909 4.26551 2.22728 0
M  V30 7181 C 646.261 4.78991 2.05467 0
M  V30 7182 C 643.589 5.56691 1.85234 0
M  V30 7183 C 645.941 6.09476 1.69477 0
M  V30 7184 C 644.605 6.48334 1.58808 0
M  V30 7185 H 643.875 0.523536 0.524395 0
M  V30 7186 H 646.522 1.75459 0.76723 0
M  V30 7187 H 644.827 2.01297 3.36135 0
M  V30 7188 H 646.524 2.38051 3.22696 0
M  V30 7189 H 643.114 3.55132 2.39956 0
M  V30 7190 H 647.298 4.48982 2.11492 0
M  V30 7191 H 642.554 5.85657 1.75545 0
M  V30 7192 H 646.728 6.80482 1.48043 0
M  V30 7193 H 644.355 7.49084 1.29525 0
M  V30 7194 N 645.93 -0.909495 1.28709 0
M  V30 7195 C 646.863 -2.01388 1.07323 0
M  V30 7196 C 647.841 -1.62596 -0.0119757 0
M  V30 7197 O 649.025 -1.88003 0.136796 0
M  V30 7198 C 646.152 -3.32755 0.631797 0
M  V30 7199 C 645.198 -3.90532 1.71428 0
M  V30 7200 S 646.031 -4.20853 3.31124 0
M  V30 7201 C 647.187 -5.55276 2.88825 0
M  V30 7202 H 647.42 -2.19219 2.00824 0
M  V30 7203 H 644.953 -1.05489 1.12745 0
M  V30 7204 H 646.911 -4.08702 0.38381 0
M  V30 7205 H 645.572 -3.12818 -0.283451 0
M  V30 7206 H 644.765 -4.85385 1.35712 0
M  V30 7207 H 644.367 -3.21237 1.91528 0
M  V30 7208 H 646.659 -6.35341 2.3526 0
M  V30 7209 H 647.602 -5.95907 3.82492 0
M  V30 7210 H 648.01 -5.16666 2.27412 0
M  V30 7211 N 647.408 -1.11026 -1.11852 0
M  V30 7212 C 648.338 -0.786812 -2.19844 0
M  V30 7213 C 649.319 0.242935 -1.68356 0
M  V30 7214 O 650.504 0.107355 -1.93903 0
M  V30 7215 C 647.634 -0.224516 -3.46574 0
M  V30 7216 C 646.588 -1.18564 -4.1125 0
M  V30 7217 C 645.914 -0.484261 -5.32503 0
M  V30 7218 C 647.214 -2.53465 -4.56676 0
M  V30 7219 H 648.908 -1.68978 -2.47158 0
M  V30 7220 H 646.454 -0.813906 -1.18792 0
M  V30 7221 H 648.407 0.0139435 -4.21398 0
M  V30 7222 H 647.131 0.713722 -3.18706 0
M  V30 7223 H 645.79 -1.40966 -3.38414 0
M  V30 7224 H 645.438 0.458646 -5.00905 0
M  V30 7225 H 645.138 -1.12526 -5.76725 0
M  V30 7226 H 646.662 -0.254492 -6.10069 0
M  V30 7227 H 648.076 -2.35177 -5.22843 0
M  V30 7228 H 646.473 -3.13507 -5.11697 0
M  V30 7229 H 647.543 -3.13008 -3.70343 0
M  V30 7230 N 648.886 1.2938 -0.899927 0
M  V30 7231 C 650.126 1.97332 -0.532871 0
M  V30 7232 C 650.49 1.69385 0.904029 0
M  V30 7233 O 651.691 2.30793 1.37797 0
M  V30 7234 C 649.962 3.47927 -0.817393 0
M  V30 7235 S 651.521 4.3528 -0.55468 0
M  V30 7236 H 648.339 0.682966 -0.197683 0
M  V30 7237 H 650.941 1.57189 -1.16241 0
M  V30 7238 H 649.645 3.65761 -1.86138 0
M  V30 7239 H 649.176 3.93006 -0.175978 0
M  V30 7240 H 651.191 4.92557 0.600182 0
M  V30 7241 N 650.364 0.662433 1.43002 0
M  V30 7242 C 651.314 -0.0460442 2.27954 0
M  V30 7243 C 652.298 -0.785753 1.40409 0
M  V30 7244 O 653.49 -0.666701 1.63964 0
M  V30 7245 C 650.619 -1.00532 3.2825 0
M  V30 7246 C 649.705 -0.263604 4.2328 0
M  V30 7247 N 650.096 0.724855 5.00579 0
M  V30 7248 C 648.394 -0.503778 4.43146 0
M  V30 7249 C 649.095 1.16594 5.69895 0
M  V30 7250 N 648.071 0.498345 5.41311 0
M  V30 7251 H 651.873 0.712314 2.85137 0
M  V30 7252 H 649.387 0.490469 1.54817 0
M  V30 7253 H 651.384 -1.52775 3.87899 0
M  V30 7254 H 650.044 -1.76364 2.72628 0
M  V30 7255 H 651.055 1.10393 5.05998 0
M  V30 7256 H 647.732 -1.24255 3.98581 0
M  V30 7257 H 649.122 1.98434 6.4193 0
M  V30 7258 N 651.842 -1.52309 0.404946 0
M  V30 7259 C 653.119 -1.94237 -0.230544 0
M  V30 7260 C 653.499 -1.34154 -1.6299 0
M  V30 7261 O 652.847 -0.515713 -2.22604 0
M  V30 7262 C 653.057 -3.48166 -0.241106 0
M  V30 7263 C 654.405 -4.22074 -0.462488 0
M  V30 7264 O 655.429 -3.54754 -0.320644 0
M  V30 7265 O 654.288 -5.41443 -0.741708 0
M  V30 7266 H 651.382 -0.813766 -0.147358 0
M  V30 7267 H 653.928 -1.6333 0.460587 0
M  V30 7268 H 652.7 -3.84269 0.738467 0
M  V30 7269 H 652.323 -3.85422 -0.97651 0
M  V30 7270 N 653.32 -0.135238 -1.57019 0
M  V30 7271 C 654.23 0.822226 -2.19719 0
M  V30 7272 C 655.246 1.28057 -1.17802 0
M  V30 7273 O 656.422 1.3402 -1.50335 0
M  V30 7274 C 653.487 2.0484 -2.79717 0
M  V30 7275 C 652.548 1.64042 -3.96723 0
M  V30 7276 C 651.781 2.80814 -4.53849 0
M  V30 7277 O 652.004 3.967 -4.0986 0
M  V30 7278 O 650.938 2.56963 -5.44292 0
M  V30 7279 H 654.764 0.318552 -3.02025 0
M  V30 7280 H 652.349 0.0912021 -1.49121 0
M  V30 7281 H 654.231 2.76622 -3.17897 0
M  V30 7282 H 652.906 2.54182 -2.00432 0
M  V30 7283 H 651.813 0.893182 -3.63281 0
M  V30 7284 H 653.146 1.19426 -4.77492 0
M  V30 7285 N 654.798 1.5699 0.138552 0
M  V30 7286 C 655.708 2.02174 1.19008 0
M  V30 7287 C 656.724 0.938622 1.46512 0
M  V30 7288 O 657.9 1.24872 1.58016 0
M  V30 7289 C 654.965 2.40045 2.50159 0
M  V30 7290 C 654.026 3.62346 2.30226 0
M  V30 7291 C 653.259 3.98401 3.55123 0
M  V30 7292 O 653.482 3.35019 4.61647 0
M  V30 7293 O 652.416 4.91606 3.47285 0
M  V30 7294 H 656.242 2.91954 0.836452 0
M  V30 7295 H 653.827 1.45293 0.347907 0
M  V30 7296 H 655.709 2.65225 3.27465 0
M  V30 7297 H 654.384 1.53417 2.85035 0
M  V30 7298 H 653.291 3.42341 1.50843 0
M  V30 7299 H 654.624 4.49617 2.00262 0
M  V30 7300 N 656.276 -0.40816 1.52223 0
M  V30 7301 C 657.226 -1.49648 1.72016 0
M  V30 7302 C 658.21 -1.50311 0.574069 0
M  V30 7303 O 659.402 -1.56271 0.831173 0
M  V30 7304 C 656.531 -2.87566 1.87512 0
M  V30 7305 C 655.617 -2.91547 3.07995 0
M  V30 7306 N 656.008 -2.65225 4.30685 0
M  V30 7307 C 654.306 -3.22715 3.07849 0
M  V30 7308 C 655.007 -2.75799 5.12162 0
M  V30 7309 N 653.983 -3.08719 4.4743 0
M  V30 7310 H 657.785 -1.28093 2.64517 0
M  V30 7311 H 655.299 -0.61588 1.50269 0
M  V30 7312 H 657.296 -3.65899 1.99809 0
M  V30 7313 H 655.956 -3.10118 0.962114 0
M  V30 7314 H 656.967 -2.39601 4.59142 0
M  V30 7315 H 653.644 -3.50856 2.26289 0
M  V30 7316 H 655.034 -2.59155 6.1991 0
M  V30 7317 N 657.755 -1.42862 -0.66545 0
M  V30 7318 C 658.665 -1.49491 -1.80803 0
M  V30 7319 C 659.681 -0.382914 -1.69734 0
M  V30 7320 O 660.857 -0.635223 -1.9112 0
M  V30 7321 C 657.922 -1.40383 -3.17007 0
M  V30 7322 C 656.983 -2.62152 -3.39963 0
M  V30 7323 C 656.216 -2.53469 -4.69669 0
M  V30 7324 O 656.439 -1.57568 -5.48205 0
M  V30 7325 O 655.373 -3.43763 -4.94075 0
M  V30 7326 H 659.199 -2.45949 -1.78165 0
M  V30 7327 H 656.784 -1.24728 -0.822387 0
M  V30 7328 H 658.666 -1.377 -3.98267 0
M  V30 7329 H 657.341 -0.470546 -3.20262 0
M  V30 7330 H 656.248 -2.70409 -2.58515 0
M  V30 7331 H 657.581 -3.54411 -3.41546 0
M  V30 7332 N 659.233 0.902656 -1.29189 0
M  V30 7333 C 660.18 2.00643 -1.14066 0
M  V30 7334 C 661.15 1.66064 -0.0347756 0
M  V30 7335 O 662.335 1.8973 -0.201752 0
M  V30 7336 C 659.475 3.35214 -0.820104 0
M  V30 7337 C 658.588 3.82594 -2.00614 0
M  V30 7338 C 657.723 5.05727 -1.62522 0
M  V30 7339 C 656.762 5.45469 -2.77724 0
M  V30 7340 N 655.899 6.59789 -2.40048 0
M  V30 7341 H 660.739 2.1291 -2.08502 0
M  V30 7342 H 658.276 1.04271 -1.03759 0
M  V30 7343 H 660.234 4.12643 -0.614949 0
M  V30 7344 H 658.864 3.22682 0.0873452 0
M  V30 7345 H 657.916 3.01226 -2.32308 0
M  V30 7346 H 659.228 4.07999 -2.86946 0
M  V30 7347 H 658.382 5.90732 -1.38277 0
M  V30 7348 H 657.121 4.82155 -0.733333 0
M  V30 7349 H 656.126 4.59 -3.02653 0
M  V30 7350 H 657.351 5.71024 -3.67572 0
M  V30 7351 H 655.297 6.37826 -1.53343 0
M  V30 7352 H 655.214 6.84975 -3.19914 0
M  V30 7353 H 656.482 7.4807 -2.19116 0
M  V30 7354 N 660.711 1.11618 1.11262 0
M  V30 7355 C 661.641 0.79846 2.19424 0
M  V30 7356 C 662.622 -0.234003 1.68483 0
M  V30 7357 O 663.807 -0.0970704 1.93957 0
M  V30 7358 C 660.937 0.242892 3.4645 0
M  V30 7359 C 659.891 1.20744 4.10615 0
M  V30 7360 C 659.217 0.512494 5.32238 0
M  V30 7361 C 660.517 2.55884 4.55325 0
M  V30 7362 H 662.211 1.70286 2.46258 0
M  V30 7363 H 659.757 0.820195 1.18359 0
M  V30 7364 H 661.71 0.00840447 4.21399 0
M  V30 7365 H 660.434 -0.696811 3.1908 0
M  V30 7366 H 659.093 1.42759 3.37662 0
M  V30 7367 H 658.741 -0.432075 5.01141 0
M  V30 7368 H 658.441 1.15583 5.7612 0
M  V30 7369 H 659.965 0.286842 6.09926 0
M  V30 7370 H 661.379 2.37946 5.21588 0
M  V30 7371 H 659.776 3.16216 5.10027 0
M  V30 7372 H 660.846 3.14968 3.68678 0
M  V30 7373 N 662.189 -1.289 0.906776 0
M  V30 7374 C 663.436 -1.95269 0.536326 0
M  V30 7375 C 663.764 -1.71435 -0.918711 0
M  V30 7376 O 663.019 -1.02431 -1.66752 0
M  V30 7377 C 663.318 -3.48704 0.783617 0
M  V30 7378 C 662.984 -3.92626 2.21711 0
M  V30 7379 C 661.646 -4.04329 2.60906 0
M  V30 7380 C 663.998 -4.15218 3.15029 0
M  V30 7381 C 661.326 -4.35998 3.92584 0
M  V30 7382 C 663.678 -4.48365 4.46264 0
M  V30 7383 C 662.342 -4.58278 4.85322 0
M  V30 7384 H 661.612 -0.714538 0.196256 0
M  V30 7385 H 664.259 -1.53366 1.14678 0
M  V30 7386 H 662.564 -3.91696 0.0903048 0
M  V30 7387 H 664.261 -3.98162 0.476267 0
M  V30 7388 H 660.851 -3.84038 1.90296 0
M  V30 7389 H 665.035 -4.05636 2.8596 0
M  V30 7390 H 660.291 -4.41878 4.22557 0
M  V30 7391 H 664.465 -4.64795 5.18593 0
M  V30 7392 H 662.092 -4.82573 5.87391 0
M  V30 7393 N 663.667 -0.670007 -1.42649 0
M  V30 7394 C 664.944 -0.119451 -1.95235 0
M  V30 7395 C 665.324 1.36461 -1.61064 0
M  V30 7396 O 664.672 2.09843 -0.904329 0
M  V30 7397 C 664.882 -0.383498 -3.46887 0
M  V30 7398 C 666.23 -0.297431 -4.23557 0
M  V30 7399 O 667.254 -0.31698 -3.54787 0
M  V30 7400 O 666.113 -0.235507 -5.45992 0
M  V30 7401 H 663.207 -8.85474e-05 -0.827 0
M  V30 7402 H 665.753 -0.744406 -1.52501 0
M  V30 7403 H 664.525 -1.41174 -3.64946 0
M  V30 7404 H 664.148 0.273702 -3.96657 0
M  V30 7405 N 665.145 1.52092 -0.413018 0
M  V30 7406 C 666.075 2.30021 0.401567 0
M  V30 7407 C 667.056 1.34395 1.04269 0
M  V30 7408 O 668.241 1.63304 1.05097 0
M  V30 7409 C 665.371 3.12447 1.51638 0
M  V30 7410 C 664.325 4.16153 1.00005 0
M  V30 7411 C 663.651 4.86948 2.20875 0
M  V30 7412 C 664.951 5.22275 0.0513757 0
M  V30 7413 H 666.645 2.98365 -0.248704 0
M  V30 7414 H 664.191 1.4349 -0.121052 0
M  V30 7415 H 666.144 3.65733 2.09326 0
M  V30 7416 H 664.868 2.41879 2.19458 0
M  V30 7417 H 663.527 3.63882 0.445549 0
M  V30 7418 H 663.175 4.12905 2.8726 0
M  V30 7419 H 662.875 5.57057 1.86978 0
M  V30 7420 H 664.399 5.43048 2.79162 0
M  V30 7421 H 665.813 5.70778 0.537176 0
M  V30 7422 H 664.21 5.9977 -0.198977 0
M  V30 7423 H 665.28 4.76611 -0.892736 0
M  V30 7424 N 666.623 0.143563 1.56945 0
M  V30 7425 C 667.869 -0.50916 1.96304 0
M  V30 7426 C 668.202 -1.64741 1.0283 0
M  V30 7427 O 667.477 -1.94374 0.0700361 0
M  V30 7428 C 667.76 -1.0186 3.45393 0
M  V30 7429 C 667.613 0.117923 4.49645 0
M  V30 7430 C 668.932 -1.90151 3.96901 0
M  V30 7431 H 666.051 -0.183608 0.713763 0
M  V30 7432 H 668.693 0.224095 1.88674 0
M  V30 7433 H 666.843 -1.64345 3.52027 0
M  V30 7434 H 668.515 0.754145 4.55094 0
M  V30 7435 H 666.758 0.777568 4.26774 0
M  V30 7436 H 667.429 -0.280187 5.51288 0
M  V30 7437 H 669.905 -1.375 3.92725 0
M  V30 7438 H 668.781 -2.22707 5.0169 0
M  V30 7439 H 669.042 -2.83718 3.39052 0
M  V30 7440 N 668.101 -1.57061 -0.130224 0
M  V30 7441 C 669.517 -1.52103 -0.483413 0
M  V30 7442 C 669.717 -0.854752 -1.82473 0
M  V30 7443 O 668.773 -0.432342 -2.48771 0
M  V30 7444 C 670.086 -2.96872 -0.47825 0
M  V30 7445 C 671.634 -3.07902 -0.562592 0
M  V30 7446 C 672.109 -4.54211 -0.587929 0
M  V30 7447 N 673.6 -4.58621 -0.649684 0
M  V30 7448 C 674.335 -5.69227 -0.690551 0
M  V30 7449 N 673.831 -6.89358 -0.689743 0
M  V30 7450 N 675.624 -5.57304 -0.732708 0
M  V30 7451 H 667.775 -1.98764 0.748779 0
M  V30 7452 H 670.038 -0.907248 0.274965 0
M  V30 7453 H 669.744 -3.48944 0.439444 0
M  V30 7454 H 669.618 -3.53716 -1.31013 0
M  V30 7455 H 672.005 -2.5584 -1.47071 0
M  V30 7456 H 672.086 -2.54073 0.296764 0
M  V30 7457 H 671.73 -5.06915 0.316096 0
M  V30 7458 H 671.66 -5.0584 -1.46401 0
M  V30 7459 H 674.151 -3.72146 -0.656927 0
M  V30 7460 H 674.464 -7.69408 -0.723239 0
M  V30 7461 H 672.809 -6.91884 -0.657347 0
M  V30 7462 H 676 -4.62363 -0.730625 0
M  V30 7463 H 676.173 -6.43515 -0.76109 0
M  V30 7464 N 669.579 0.400081 -1.52437 0
M  V30 7465 C 670.995 0.739359 -1.41441 0
M  V30 7466 C 671.195 1.94512 -0.526053 0
M  V30 7467 O 670.251 2.525 0.00472502 0
M  V30 7468 C 671.564 0.984824 -2.84116 0
M  V30 7469 C 673.112 1.08698 -2.93519 0
M  V30 7470 C 673.587 1.36515 -4.37181 0
M  V30 7471 N 675.078 1.43361 -4.40457 0
M  V30 7472 C 675.813 1.66528 -5.48686 0
M  V30 7473 N 675.309 1.87239 -6.67018 0
M  V30 7474 N 677.102 1.68617 -5.36213 0
M  V30 7475 H 669.253 -0.393484 -2.08723 0
M  V30 7476 H 671.516 -0.1138 -0.941145 0
M  V30 7477 H 671.222 0.171096 -3.51284 0
M  V30 7478 H 671.096 1.90253 -3.25705 0
M  V30 7479 H 673.483 1.89129 -2.26526 0
M  V30 7480 H 673.564 0.147432 -2.55375 0
M  V30 7481 H 673.208 0.565982 -5.04737 0
M  V30 7482 H 673.138 2.31737 -4.7287 0
M  V30 7483 H 675.629 1.29108 -3.55161 0
M  V30 7484 H 675.942 2.04392 -7.45281 0
M  V30 7485 H 674.287 1.84486 -6.70067 0
M  V30 7486 H 677.478 1.5198 -4.42741 0
M  V30 7487 H 677.651 1.86332 -6.20632 0
M  V30 7488 N 671.057 1.43213 0.657864 0
M  V30 7489 C 671.99 1.42456 1.78273 0
M  V30 7490 C 672.968 0.286598 1.60054 0
M  V30 7491 O 674.152 0.479467 1.823 0
M  V30 7492 C 671.279 1.23169 3.15511 0
M  V30 7493 C 670.325 2.40181 3.52442 0
M  V30 7494 S 671.158 4.02729 3.52944 0
M  V30 7495 C 672.314 3.85816 4.92846 0
M  V30 7496 H 672.547 2.37642 1.78644 0
M  V30 7497 H 670.08 1.30188 0.830084 0
M  V30 7498 H 672.038 1.12728 3.94719 0
M  V30 7499 H 670.699 0.295398 3.12708 0
M  V30 7500 H 669.892 2.22478 4.52239 0
M  V30 7501 H 669.494 2.47224 2.80636 0
M  V30 7502 H 671.786 3.47853 5.81381 0
M  V30 7503 H 672.729 4.85348 5.15599 0
M  V30 7504 H 673.137 3.18361 4.66162 0
M  V30 7505 N 672.536 -0.895792 1.29666 0
M  V30 7506 C 673.466 -2.01673 1.17688 0
M  V30 7507 C 674.447 -1.69955 0.0701317 0
M  V30 7508 O 675.632 -1.9258 0.250289 0
M  V30 7509 C 672.762 -3.36568 0.856681 0
M  V30 7510 C 671.716 -3.82509 1.92017 0
M  V30 7511 C 671.042 -5.14574 1.4532 0
M  V30 7512 C 672.342 -4.02409 3.32963 0
M  V30 7513 H 674.036 -2.11953 2.11463 0
M  V30 7514 H 671.582 -1.01839 1.01807 0
M  V30 7515 H 673.535 -4.14498 0.759577 0
M  V30 7516 H 672.259 -3.26391 -0.116763 0
M  V30 7517 H 670.918 -3.068 2.00673 0
M  V30 7518 H 670.566 -5.00815 0.468325 0
M  V30 7519 H 670.266 -5.46283 2.16447 0
M  V30 7520 H 671.79 -5.9504 1.36968 0
M  V30 7521 H 673.204 -4.70808 3.27127 0
M  V30 7522 H 671.601 -4.45478 4.02082 0
M  V30 7523 H 672.671 -3.06616 3.75652 0
M  V30 7524 N 674.014 -1.12206 -1.10668 0
M  V30 7525 C 674.924 -0.800686 -2.20513 0
M  V30 7526 C 675.94 0.209512 -1.72734 0
M  V30 7527 O 677.116 0.043705 -2.01353 0
M  V30 7528 C 674.181 -0.257353 -3.45744 0
M  V30 7529 C 673.242 -1.32718 -4.0827 0
M  V30 7530 C 672.475 -0.809674 -5.27522 0
M  V30 7531 O 672.698 0.35742 -5.69279 0
M  V30 7532 O 671.632 -1.57816 -5.80842 0
M  V30 7533 H 675.458 -1.71807 -2.50432 0
M  V30 7534 H 673.043 -0.898546 -1.19359 0
M  V30 7535 H 674.925 0.0408849 -4.2138 0
M  V30 7536 H 673.6 0.632627 -3.17458 0
M  V30 7537 H 672.507 -1.67855 -3.34329 0
M  V30 7538 H 673.84 -2.19083 -4.40753 0
M  V30 7539 N 675.492 1.28418 -0.913599 0
M  V30 7540 C 676.722 1.98817 -0.56172 0
M  V30 7541 C 677.13 1.68457 0.861321 0
M  V30 7542 O 676.473 0.933653 1.58204 0
M  V30 7543 C 676.535 3.52801 -0.690785 0
M  V30 7544 C 676.199 4.0675 -2.08334 0
M  V30 7545 C 677.196 4.20597 -3.05604 0
M  V30 7546 C 674.881 4.41445 -2.39648 0
M  V30 7547 C 676.875 4.68392 -4.32305 0
M  V30 7548 C 674.562 4.88934 -3.66588 0
M  V30 7549 C 675.56 5.02364 -4.6273 0
M  V30 7550 O 675.248 5.48817 -5.87414 0
M  V30 7551 H 674.98 0.641608 -0.212874 0
M  V30 7552 H 677.534 1.64584 -1.22887 0
M  V30 7553 H 675.764 3.86686 0.0334336 0
M  V30 7554 H 677.453 4.04422 -0.346031 0
M  V30 7555 H 678.219 3.94067 -2.8273 0
M  V30 7556 H 674.098 4.30242 -1.65567 0
M  V30 7557 H 677.642 4.7879 -5.07352 0
M  V30 7558 H 673.539 5.14904 -3.89287 0
M  V30 7559 H 674.307 5.67103 -5.90201 0
M  V30 7560 N 676.97 0.677563 1.42291 0
M  V30 7561 C 678.247 0.129803 1.95169 0
M  V30 7562 C 678.627 -1.35605 1.61786 0
M  V30 7563 O 677.975 -2.09361 0.915444 0
M  V30 7564 C 678.185 0.401889 3.46678 0
M  V30 7565 C 679.533 0.319889 4.23393 0
M  V30 7566 O 680.557 0.33579 3.54614 0
M  V30 7567 O 679.416 0.264459 5.4586 0
M  V30 7568 H 676.51 0.00447433 0.826988 0
M  V30 7569 H 679.056 0.752483 1.52105 0
M  V30 7570 H 677.828 1.43108 3.64192 0
M  V30 7571 H 677.451 -0.252662 3.96796 0
M  V30 7572 N 678.448 -1.51871 0.421078 0
M  V30 7573 C 679.859 -1.86644 -0.0457991 0
M  V30 7574 C 680.21 -1.33919 -1.43388 0
M  V30 7575 O 679.335 -0.683316 -2.05328 0
M  V30 7576 C 679.93 -3.38681 -0.0898844 0
M  V30 7577 C 678.489 -3.73049 -0.501127 0
M  V30 7578 C 677.636 -2.75485 0.316723 0
M  V30 7579 H 680.587 -1.45327 0.637635 0
M  V30 7580 H 680.608 -3.69636 -0.902734 0
M  V30 7581 H 680.12 -3.77025 0.920513 0
M  V30 7582 H 678.221 -3.40288 -1.51773 0
M  V30 7583 H 678.334 -4.78512 -0.237217 0
M  V30 7584 H 676.698 -2.53725 -0.222663 0
M  V30 7585 H 677.481 -3.16671 1.32569 0
M  V30 7586 N 679.926 -0.151884 -1.56866 0
M  V30 7587 C 681.154 0.504813 -2.00647 0
M  V30 7588 C 681.569 1.58098 -1.03201 0
M  V30 7589 O 680.926 1.82476 -0.0297814 0
M  V30 7590 C 680.977 1.10099 -3.44326 0
M  V30 7591 O 680.698 0.0678021 -4.38048 0
M  V30 7592 C 682.199 1.83782 -4.03409 0
M  V30 7593 H 679.419 0.130989 -0.65809 0
M  V30 7594 H 681.963 -0.247903 -2.02992 0
M  V30 7595 H 680.118 1.8043 -3.42817 0
M  V30 7596 H 680.532 0.505237 -5.22061 0
M  V30 7597 H 682.006 2.2078 -5.05925 0
M  V30 7598 H 682.483 2.72557 -3.44397 0
M  V30 7599 H 683.089 1.18138 -4.08563 0
M  V30 7600 N 681.404 1.57128 0.121893 0
M  V30 7601 C 682.336 1.96773 1.17529 0
M  V30 7602 C 683.349 0.866668 1.37814 0
M  V30 7603 O 684.538 1.14497 1.3694 0
M  V30 7604 C 681.638 2.24832 2.53582 0
M  V30 7605 C 680.811 3.56138 2.53939 0
M  V30 7606 C 679.87 3.72443 3.71716 0
M  V30 7607 O 678.896 4.44584 3.55434 0
M  V30 7608 N 680.098 3.10993 4.90167 0
M  V30 7609 H 682.863 2.87743 0.838086 0
M  V30 7610 H 680.424 1.58881 0.311199 0
M  V30 7611 H 682.416 2.32958 3.30927 0
M  V30 7612 H 680.986 1.40002 2.79496 0
M  V30 7613 H 680.206 3.59226 1.62329 0
M  V30 7614 H 681.494 4.42448 2.51231 0
M  V30 7615 H 680.892 2.52345 5.06299 0
M  V30 7616 H 679.449 3.24644 5.65198 0
M  V30 7617 N 682.882 -0.391992 1.52647 0
M  V30 7618 C 684.298 -0.731848 1.41831 0
M  V30 7619 C 684.498 -1.9423 0.536361 0
M  V30 7620 O 683.554 -2.52499 0.00866571 0
M  V30 7621 C 684.867 -0.969743 2.84634 0
M  V30 7622 C 686.415 -1.0714 2.94092 0
M  V30 7623 C 686.89 -1.34195 4.37899 0
M  V30 7624 N 688.381 -1.41023 4.41211 0
M  V30 7625 C 689.116 -1.63616 5.49561 0
M  V30 7626 N 688.612 -1.83699 6.68002 0
M  V30 7627 N 690.405 -1.65771 5.371 0
M  V30 7628 H 682.556 0.404547 2.08512 0
M  V30 7629 H 684.819 0.11879 0.940528 0
M  V30 7630 H 684.525 -0.152465 3.51369 0
M  V30 7631 H 684.399 -1.88523 3.26709 0
M  V30 7632 H 686.786 -1.87925 2.27526 0
M  V30 7633 H 686.867 -0.133887 2.55449 0
M  V30 7634 H 686.511 -0.539207 5.0503 0
M  V30 7635 H 686.441 -2.29226 4.74092 0
M  V30 7636 H 688.932 -1.27223 3.55841 0
M  V30 7637 H 689.245 -2.00437 7.46354 0
M  V30 7638 H 687.59 -1.8093 6.71036 0
M  V30 7639 H 690.781 -1.4963 4.43541 0
M  V30 7640 H 690.954 -1.83038 6.21612 0
M  V30 7641 N 684.36 -1.4356 -0.65026 0
M  V30 7642 C 685.609 -1.44619 -1.406 0
M  V30 7643 C 685.922 -0.0752645 -1.95455 0
M  V30 7644 O 687.128 0.0366832 -2.71475 0
M  V30 7645 C 685.584 -2.54511 -2.54465 0
M  V30 7646 C 685.192 -3.97723 -2.06204 0
M  V30 7647 C 686.936 -2.64768 -3.31811 0
M  V30 7648 C 684.843 -4.99075 -3.17298 0
M  V30 7649 H 683.773 -0.537983 -0.52829 0
M  V30 7650 H 686.424 -1.69559 -0.701561 0
M  V30 7651 H 684.806 -2.22777 -3.27393 0
M  V30 7652 H 685.98 -4.38932 -1.40267 0
M  V30 7653 H 684.295 -3.91538 -1.41729 0
M  V30 7654 H 686.892 -3.37664 -4.14593 0
M  V30 7655 H 687.235 -1.69936 -3.80036 0
M  V30 7656 H 687.768 -2.95817 -2.65964 0
M  V30 7657 H 684.507 -5.95469 -2.74038 0
M  V30 7658 H 684.027 -4.62476 -3.81937 0
M  V30 7659 H 685.706 -5.21913 -3.82382 0
M  V30 7660 N 685.838 0.888903 -1.30139 0
M  V30 7661 C 687.066 1.67358 -1.21651 0
M  V30 7662 C 687.481 1.87499 0.221246 0
M  V30 7663 O 686.838 1.41969 1.14677 0
M  V30 7664 C 686.889 3.05213 -1.93719 0
M  V30 7665 O 686.61 2.85984 -3.31881 0
M  V30 7666 C 688.111 3.9964 -1.9184 0
M  V30 7667 H 685.331 0.522365 -0.42116 0
M  V30 7668 H 687.875 1.11086 -1.71698 0
M  V30 7669 H 686.03 3.5823 -1.4748 0
M  V30 7670 H 686.444 3.73411 -3.68327 0
M  V30 7671 H 687.918 4.93749 -2.46811 0
M  V30 7672 H 688.395 4.29955 -0.896409 0
M  V30 7673 H 689.001 3.52558 -2.37872 0
M  V30 7674 N 687.317 1.12792 1.10072 0
M  V30 7675 C 688.247 0.821688 2.18565 0
M  V30 7676 C 689.228 -0.21612 1.68721 0
M  V30 7677 O 690.413 -0.0764932 1.94049 0
M  V30 7678 C 687.543 0.279624 3.46172 0
M  V30 7679 C 686.497 1.25092 4.09312 0
M  V30 7680 C 685.823 0.568916 5.31665 0
M  V30 7681 C 687.123 2.60699 4.52585 0
M  V30 7682 H 688.817 1.72888 2.44438 0
M  V30 7683 H 686.363 0.832702 1.17482 0
M  V30 7684 H 688.316 0.053099 4.21367 0
M  V30 7685 H 687.04 -0.662929 3.19801 0
M  V30 7686 H 685.699 1.46332 3.36129 0
M  V30 7687 H 685.347 -0.378898 5.01571 0
M  V30 7688 H 685.047 1.21687 5.74862 0
M  V30 7689 H 686.571 0.351517 6.09587 0
M  V30 7690 H 687.985 2.43465 5.19035 0
M  V30 7691 H 686.382 3.21608 5.06644 0
M  V30 7692 H 687.452 3.1886 3.65317 0
M  V30 7693 N 688.795 -1.27931 0.920396 0
M  V30 7694 C 690.072 -1.89728 0.475687 0
M  V30 7695 C 690.452 -1.8337 -1.04588 0
M  V30 7696 O 689.8 -1.27404 -1.89685 0
M  V30 7697 C 690.01 -3.33959 1.01354 0
M  V30 7698 C 691.358 -4.10907 1.06963 0
M  V30 7699 O 692.382 -3.42945 0.962646 0
M  V30 7700 O 691.241 -5.32399 1.23343 0
M  V30 7701 H 688.335 -0.81294 0.151845 0
M  V30 7702 H 690.881 -1.36252 1.01161 0
M  V30 7703 H 689.653 -3.32843 2.05746 0
M  V30 7704 H 689.276 -3.94944 0.458829 0
M  V30 7705 N 690.273 -0.685099 -1.4193 0
M  V30 7706 C 691.183 -0.013404 -2.34596 0
M  V30 7707 C 692.199 0.777589 -1.55658 0
M  V30 7708 O 693.375 0.717553 -1.88184 0
M  V30 7709 C 690.44 0.919031 -3.34297 0
M  V30 7710 C 689.501 0.121417 -4.29128 0
M  V30 7711 C 688.734 1.00944 -5.24067 0
M  V30 7712 O 688.957 2.24898 -5.24192 0
M  V30 7713 O 687.891 0.464724 -6.00103 0
M  V30 7714 H 691.717 -0.776978 -2.93593 0
M  V30 7715 H 689.302 -0.445379 -1.42607 0
M  V30 7716 H 691.184 1.45402 -3.9552 0
M  V30 7717 H 689.859 1.66228 -2.77759 0
M  V30 7718 H 688.766 -0.45792 -3.71287 0
M  V30 7719 H 690.099 -0.582937 -4.88736 0
M  V30 7720 N 691.751 1.51645 -0.429126 0
M  V30 7721 C 692.714 2.26116 0.374726 0
M  V30 7722 C 693.714 1.29242 0.956714 0
M  V30 7723 O 694.904 1.53022 0.832452 0
M  V30 7724 C 692.036 3.04669 1.52937 0
M  V30 7725 H 693.229 2.9861 -0.277818 0
M  V30 7726 H 690.782 1.55236 -0.182097 0
M  V30 7727 H 691.517 2.36571 2.21821 0
M  V30 7728 H 691.302 3.75814 1.11833 0
M  V30 7729 H 692.792 3.61102 2.09751 0
M  V30 7730 N 693.229 0.160201 1.56784 0
M  V30 7731 C 694.159 -0.770264 2.2043 0
M  V30 7732 C 695.14 -1.24736 1.15651 0
M  V30 7733 O 696.325 -1.30253 1.44041 0
M  V30 7734 C 693.455 -2.00427 2.83631 0
M  V30 7735 C 692.409 -1.66345 3.94352 0
M  V30 7736 C 691.735 -2.97119 4.4455 0
M  V30 7737 C 693.035 -0.899972 5.14488 0
M  V30 7738 H 694.729 -0.239783 2.98438 0
M  V30 7739 H 692.275 -0.113891 1.43549 0
M  V30 7740 H 694.228 -2.66012 3.26827 0
M  V30 7741 H 692.952 -2.5587 2.02973 0
M  V30 7742 H 691.611 -1.03133 3.51794 0
M  V30 7743 H 691.259 -3.5058 3.60698 0
M  V30 7744 H 690.959 -2.75073 5.19238 0
M  V30 7745 H 692.483 -3.63753 4.90425 0
M  V30 7746 H 693.897 -1.45818 5.54446 0
M  V30 7747 H 692.294 -0.778968 5.95023 0
M  V30 7748 H 693.364 0.105827 4.84785 0
M  V30 7749 N 694.707 -1.5719 -0.113559 0
M  V30 7750 C 695.639 -1.97393 -1.16484 0
M  V30 7751 C 696.652 -0.873964 -1.37352 0
M  V30 7752 O 697.841 -1.15222 -1.36331 0
M  V30 7753 C 694.941 -2.26174 -2.52386 0
M  V30 7754 C 694.114 -3.57479 -2.52046 0
M  V30 7755 C 693.173 -3.74409 -3.69735 0
M  V30 7756 O 692.199 -4.46463 -3.53071 0
M  V30 7757 N 693.401 -3.13588 -4.88511 0
M  V30 7758 H 696.166 -2.88184 -0.822814 0
M  V30 7759 H 693.727 -1.59044 -0.302769 0
M  V30 7760 H 695.719 -2.3471 -3.29687 0
M  V30 7761 H 694.289 -1.41483 -2.7875 0
M  V30 7762 H 693.509 -3.60081 -1.60421 0
M  V30 7763 H 694.797 -4.43775 -2.48881 0
M  V30 7764 H 694.195 -2.55026 -5.04953 0
M  V30 7765 H 692.752 -3.27637 -5.63469 0
M  V30 7766 N 696.185 0.383891 -1.52853 0
M  V30 7767 C 697.135 1.46892 -1.74375 0
M  V30 7768 C 698.119 1.49378 -0.597909 0
M  V30 7769 O 699.311 1.54929 -0.855929 0
M  V30 7770 C 696.44 2.84547 -1.92063 0
M  V30 7771 C 695.526 2.8661 -3.12594 0
M  V30 7772 N 695.917 2.58339 -4.3485 0
M  V30 7773 C 694.215 3.17777 -3.12944 0
M  V30 7774 C 694.916 2.67616 -5.16485 0
M  V30 7775 N 693.892 3.01561 -4.52285 0
M  V30 7776 H 697.694 1.23869 -2.66522 0
M  V30 7777 H 695.208 0.591895 -1.51229 0
M  V30 7778 H 697.205 3.62674 -2.05604 0
M  V30 7779 H 695.865 3.08549 -1.01133 0
M  V30 7780 H 696.876 2.32266 -4.62896 0
M  V30 7781 H 693.553 3.47211 -2.31842 0
M  V30 7782 H 694.943 2.4926 -6.23955 0
M  V30 7783 N 697.663 1.43903 0.642637 0
M  V30 7784 C 699.074 1.40975 1.22404 0
M  V30 7785 C 699.425 0.1192 1.95838 0
M  V30 7786 O 698.55 -0.780939 2.01818 0
M  V30 7787 C 699.145 2.5538 2.22636 0
M  V30 7788 C 697.704 2.55684 2.76229 0
M  V30 7789 C 696.851 2.32556 1.51039 0
M  V30 7790 H 699.802 1.5265 0.434006 0
M  V30 7791 H 699.823 2.27474 3.05017 0
M  V30 7792 H 699.335 3.49294 1.69161 0
M  V30 7793 H 697.436 1.65679 3.33738 0
M  V30 7794 H 697.549 3.53799 3.23053 0
M  V30 7795 H 695.913 1.81427 1.78764 0
M  V30 7796 H 696.696 3.28569 0.99484 0
M  V30 7797 N 699.141 -0.881989 1.30609 0
M  V30 7798 C 700.388 -1.63405 1.19604 0
M  V30 7799 C 700.716 -1.92905 -0.248574 0
M  V30 7800 O 699.971 -1.55062 -1.19391 0
M  V30 7801 C 700.27 -2.97999 1.97311 0
M  V30 7802 C 699.936 -2.88039 3.46907 0
M  V30 7803 C 698.598 -2.85029 3.877 0
M  V30 7804 C 700.95 -2.75948 4.42156 0
M  V30 7805 C 698.278 -2.67772 5.2203 0
M  V30 7806 C 700.63 -2.60228 5.76597 0
M  V30 7807 C 699.294 -2.55595 6.16626 0
M  V30 7808 H 698.564 -0.597941 0.437662 0
M  V30 7809 H 701.211 -1.02524 1.61744 0
M  V30 7810 H 699.516 -3.62847 1.47815 0
M  V30 7811 H 701.213 -3.55156 1.86186 0
M  V30 7812 H 697.803 -2.91192 3.14492 0
M  V30 7813 H 701.987 -2.77337 4.1158 0
M  V30 7814 H 697.243 -2.62601 5.52133 0
M  V30 7815 H 701.417 -2.49847 6.50038 0
M  V30 7816 H 699.044 -2.41981 7.20659 0
M  V30 7817 N 700.619 -1.13374 -1.09472 0
M  V30 7818 C 701.866 -0.89519 -1.81639 0
M  V30 7819 C 702.194 0.57868 -1.85692 0
M  V30 7820 O 701.449 1.44426 -1.32059 0
M  V30 7821 C 701.748 -1.42759 -3.2765 0
M  V30 7822 C 701.414 -2.91822 -3.43731 0
M  V30 7823 C 700.076 -3.32521 -3.47827 0
M  V30 7824 C 702.428 -3.87727 -3.48307 0
M  V30 7825 C 699.756 -4.6781 -3.54078 0
M  V30 7826 C 702.108 -5.22859 -3.56091 0
M  V30 7827 C 700.772 -5.63086 -3.58456 0
M  V30 7828 H 700.042 -0.327573 -0.664663 0
M  V30 7829 H 702.689 -1.4156 -1.28969 0
M  V30 7830 H 700.994 -0.827871 -3.82954 0
M  V30 7831 H 702.691 -1.2191 -3.8202 0
M  V30 7832 H 699.281 -2.5935 -3.41226 0
M  V30 7833 H 703.465 -3.57371 -3.44383 0
M  V30 7834 H 698.721 -4.98353 -3.54195 0
M  V30 7835 H 702.895 -5.96989 -3.58577 0
M  V30 7836 H 700.522 -6.67905 -3.63052 0
M  V30 7837 N 702.098 1.27442 -0.927168 0
M  V30 7838 C 703.375 1.89473 -0.485742 0
M  V30 7839 C 703.755 1.83922 1.03614 0
M  V30 7840 O 703.103 1.28409 1.89007 0
M  V30 7841 C 703.313 3.33417 -1.03123 0
M  V30 7842 C 704.661 4.10333 -1.0914 0
M  V30 7843 O 705.685 3.4243 -0.98082 0
M  V30 7844 O 704.544 5.31737 -1.26165 0
M  V30 7845 H 701.638 0.812124 -0.156154 0
M  V30 7846 H 704.184 1.35713 -1.01882 0
M  V30 7847 H 702.956 3.31747 -2.07508 0
M  V30 7848 H 702.579 3.94695 -0.479767 0
M  V30 7849 N 703.576 0.692616 1.41565 0
M  V30 7850 C 704.506 0.0397325 2.33466 0
M  V30 7851 C 705.487 -0.770334 1.51657 0
M  V30 7852 O 706.672 -0.723903 1.80203 0
M  V30 7853 C 703.802 -0.899495 3.3545 0
M  V30 7854 C 702.756 -0.196738 4.27548 0
M  V30 7855 C 702.082 -1.25012 5.19881 0
M  V30 7856 C 703.382 0.935158 5.1386 0
M  V30 7857 H 705.076 0.807296 2.88311 0
M  V30 7858 H 702.622 0.389665 1.38628 0
M  V30 7859 H 704.575 -1.36545 3.98665 0
M  V30 7860 H 703.299 -1.69869 2.78948 0
M  V30 7861 H 701.958 0.249158 3.65752 0
M  V30 7862 H 701.606 -2.04177 4.59696 0
M  V30 7863 H 701.306 -0.784931 5.82334 0
M  V30 7864 H 702.83 -1.71665 5.85972 0
M  V30 7865 H 704.244 0.549619 5.70659 0
M  V30 7866 H 702.641 1.32726 5.85238 0
M  V30 7867 H 703.711 1.77613 4.512 0
M  V30 7868 N 705.054 -1.51416 0.437162 0
M  V30 7869 C 705.984 -2.30631 -0.364922 0
M  V30 7870 C 706.965 -1.36037 -1.02118 0
M  V30 7871 O 708.15 -1.64956 -1.02485 0
M  V30 7872 C 705.28 -3.1482 -1.46648 0
M  V30 7873 C 704.234 -4.17691 -0.933717 0
M  V30 7874 C 703.56 -4.904 -2.13101 0
M  V30 7875 C 704.86 -5.2229 0.0317201 0
M  V30 7876 H 706.554 -2.97932 0.29614 0
M  V30 7877 H 704.1 -1.4328 0.143865 0
M  V30 7878 H 706.053 -3.69017 -2.03481 0
M  V30 7879 H 704.777 -2.4534 -2.15583 0
M  V30 7880 H 703.436 -3.64545 -0.387602 0
M  V30 7881 H 703.084 -4.17423 -2.80654 0
M  V30 7882 H 702.784 -5.59962 -1.78092 0
M  V30 7883 H 704.308 -5.4742 -2.70487 0
M  V30 7884 H 705.722 -5.7156 -0.446302 0
M  V30 7885 H 704.119 -5.99378 0.29437 0
M  V30 7886 H 705.189 -4.75131 0.968447 0
M  V30 7887 N 706.532 -0.168513 -1.56696 0
M  V30 7888 C 707.479 0.762875 -2.17828 0
M  V30 7889 C 708.449 1.22892 -1.11745 0
M  V30 7890 O 709.634 1.29759 -1.39883 0
M  V30 7891 C 706.774 1.9879 -2.82093 0
M  V30 7892 C 705.887 1.56568 -4.02629 0
M  V30 7893 C 705.022 2.74416 -4.54829 0
M  V30 7894 C 704.061 2.28671 -5.67782 0
M  V30 7895 N 703.198 3.39602 -6.14504 0
M  V30 7896 H 708.038 0.23479 -2.97074 0
M  V30 7897 H 705.575 0.104163 -1.46731 0
M  V30 7898 H 707.533 2.70636 -3.17509 0
M  V30 7899 H 706.163 2.48973 -2.05456 0
M  V30 7900 H 705.215 0.744067 -3.73052 0
M  V30 7901 H 706.527 1.18988 -4.844 0
M  V30 7902 H 705.681 3.54423 -4.92412 0
M  V30 7903 H 704.42 3.15254 -3.7211 0
M  V30 7904 H 703.425 1.4711 -5.29753 0
M  V30 7905 H 704.65 1.88894 -6.52301 0
M  V30 7906 H 702.596 3.80021 -5.34715 0
M  V30 7907 H 702.513 3.06105 -6.91257 0
M  V30 7908 H 703.781 4.19902 -6.56737 0
M  V30 7909 N 708.01 1.57248 0.105221 0
M  V30 7910 C 708.957 2.01338 1.12835 0
M  V30 7911 C 709.927 0.887897 1.40377 0
M  V30 7912 O 711.112 1.15315 1.5201 0
M  V30 7913 C 708.252 2.43432 2.44611 0
M  V30 7914 C 707.365 3.69457 2.23888 0
M  V30 7915 C 706.5 4.00473 3.48991 0
M  V30 7916 C 705.539 5.19638 3.23485 0
M  V30 7917 N 704.676 5.46457 4.40828 0
M  V30 7918 H 709.516 2.88527 0.745386 0
M  V30 7919 H 707.053 1.42714 0.356535 0
M  V30 7920 H 709.011 2.65879 3.21503 0
M  V30 7921 H 707.641 1.59266 2.80774 0
M  V30 7922 H 706.693 3.54545 1.37847 0
M  V30 7923 H 708.005 4.56497 2.01026 0
M  V30 7924 H 707.159 4.23642 4.34295 0
M  V30 7925 H 705.898 3.11935 3.74897 0
M  V30 7926 H 704.903 4.96299 2.36574 0
M  V30 7927 H 706.128 6.09766 2.98935 0
M  V30 7928 H 704.074 4.60876 4.66829 0
M  V30 7929 H 703.991 6.27849 4.2112 0
M  V30 7930 H 705.259 5.74155 5.27225 0
M  V30 7931 N 709.488 -0.375779 1.53054 0
M  V30 7932 C 710.435 -1.45978 1.78771 0
M  V30 7933 C 711.405 -1.53625 0.631552 0
M  V30 7934 O 712.59 -1.69674 0.872667 0
M  V30 7935 C 709.73 -2.8305 1.97425 0
M  V30 7936 C 708.843 -2.84451 3.25134 0
M  V30 7937 C 707.978 -4.13034 3.34031 0
M  V30 7938 C 707.017 -4.08536 4.55812 0
M  V30 7939 N 706.154 -5.2875 4.61918 0
M  V30 7940 H 710.994 -1.23349 2.71273 0
M  V30 7941 H 708.531 -0.598147 1.3439 0
M  V30 7942 H 710.489 -3.62666 2.06225 0
M  V30 7943 H 709.119 -3.04101 1.0827 0
M  V30 7944 H 708.171 -1.97127 3.25338 0
M  V30 7945 H 709.483 -2.76998 4.14818 0
M  V30 7946 H 708.637 -5.0106 3.42087 0
M  V30 7947 H 707.376 -4.23226 2.42345 0
M  V30 7948 H 706.381 -3.18897 4.47867 0
M  V30 7949 H 707.606 -3.99955 5.48828 0
M  V30 7950 H 705.552 -5.39547 3.73129 0
M  V30 7951 H 705.469 -5.23426 5.45492 0
M  V30 7952 H 706.737 -6.18637 4.74245 0
M  V30 7953 O 711.005 -1.5284 -0.521743 0
M  V30 7954 H 711.696 -1.53854 -1.17681 0
M  V30 END ATOM
M  V30 BEGIN BOND
M  V30 END BOND
M  V30 END CTAB
M  END
$$$$
