drugbank_target|Q9HBH9 MAP kinase-interacting serine/threonine-protein kinase 2 (DB12010)
 OpenBabel12092121173D

  0  0  0     0  0            999 V3000
M  V30 BEGIN CTAB
M  V30 COUNTS 7214 7292 0 0 0
M  V30 BEGIN ATOM
M  V30 1 H -0.908 1.98254 -0.117106 0
M  V30 2 N 0 1.576 0 0
M  V30 3 C 0.933 2.03868 1.02534 0
M  V30 4 C 1.911 0.928543 1.3348 0
M  V30 5 O 3.095 1.19667 1.45644 0
M  V30 6 C 0.222 2.43627 2.35294 0
M  V30 7 C -0.732 3.65373 2.2001 0
M  V30 8 S 0.101 5.13292 1.52614 0
M  V30 9 C 1.257 5.56322 2.86805 0
M  V30 10 H 1.49 2.90518 0.631377 0
M  V30 11 H -0.977 1.52953 0.210867 0
M  V30 12 H 0.981 2.67203 3.11629 0
M  V30 13 H -0.358 1.57376 2.7183 0
M  V30 14 H -1.165 3.90944 3.18086 0
M  V30 15 H -1.563 3.418 1.51819 0
M  V30 16 H 0.729 5.58782 3.83104 0
M  V30 17 H 1.672 6.56266 2.65933 0
M  V30 18 H 2.08 4.83886 2.90714 0
M  V30 19 N 1.4781 -0.272755 1.55222 0
M  V30 20 C 2.7241 -1.00581 1.761 0
M  V30 21 C 3.0571 -1.85932 0.560625 0
M  V30 22 O 2.3321 -1.89416 -0.441801 0
M  V30 23 C 2.6151 -1.88816 3.06628 0
M  V30 24 C 2.4681 -1.06457 4.37021 0
M  V30 25 C 3.7871 -2.8752 3.33197 0
M  V30 26 H 0.9061 -0.364244 0.640699 0
M  V30 27 H 3.5481 -0.278189 1.87952 0
M  V30 28 H 1.6981 -2.50856 2.96654 0
M  V30 29 H 3.3701 -0.464863 4.58952 0
M  V30 30 H 1.6131 -0.368043 4.32236 0
M  V30 31 H 2.2841 -1.71514 5.24678 0
M  V30 32 H 4.7601 -2.35615 3.42965 0
M  V30 33 H 3.6361 -3.46399 4.25792 0
M  V30 34 H 3.8971 -3.62657 2.52849 0
M  V30 35 N 2.9562 -1.48159 -0.537278 0
M  V30 36 C 3.8882 -1.58218 -1.65831 0
M  V30 37 C 4.9012 -0.466948 -1.5596 0
M  V30 38 O 6.0902 -0.73747 -1.62553 0
M  V30 39 C 3.1902 -1.48906 -3.04434 0
M  V30 40 C 2.3632 -2.75343 -3.3986 0
M  V30 41 C 1.4222 -2.59588 -4.57712 0
M  V30 42 O 0.4482 -3.33457 -4.61297 0
M  V30 43 N 1.6502 -1.68724 -5.55439 0
M  V30 44 H 4.4152 -2.54891 -1.57641 0
M  V30 45 H 1.9762 -1.4479 -0.724386 0
M  V30 46 H 3.9682 -1.36072 -3.81139 0
M  V30 47 H 2.5382 -0.602368 -3.06741 0
M  V30 48 H 1.7582 -3.02795 -2.52406 0
M  V30 49 H 3.0462 -3.5924 -3.60311 0
M  V30 50 H 2.4442 -1.07898 -5.55315 0
M  V30 51 H 1.0012 -1.61832 -6.3139 0
M  V30 52 N 4.4343 0.785586 -1.36625 0
M  V30 53 C 5.3813 1.89838 -1.31264 0
M  V30 54 C 6.3513 1.65115 -0.180633 0
M  V30 55 O 7.5363 1.87222 -0.36777 0
M  V30 56 C 4.6763 3.26706 -1.11163 0
M  V30 57 C 3.7893 3.63476 -2.33472 0
M  V30 58 C 2.9243 4.89481 -2.06353 0
M  V30 59 C 1.9633 5.18941 -3.24602 0
M  V30 60 N 1.1003 6.36131 -2.97123 0
M  V30 61 H 5.9403 1.93756 -2.26413 0
M  V30 62 H 3.4773 0.947454 -1.12524 0
M  V30 63 H 5.4353 4.05639 -0.975337 0
M  V30 64 H 4.0653 3.222 -0.196674 0
M  V30 65 H 3.1173 2.79636 -2.57891 0
M  V30 66 H 4.4293 3.81193 -3.21704 0
M  V30 67 H 3.5833 5.76288 -1.89675 0
M  V30 68 H 2.3223 4.73841 -1.15437 0
M  V30 69 H 1.3273 4.30615 -3.41834 0
M  V30 70 H 2.5523 5.36498 -4.16349 0
M  V30 71 H 0.4983 6.21875 -2.08823 0
M  V30 72 H 0.4153 6.54198 -3.78894 0
M  V30 73 H 1.6833 7.2591 -2.84033 0
M  V30 74 N 5.9124 1.20967 1.01018 0
M  V30 75 C 6.8594 0.964281 2.09691 0
M  V30 76 C 7.8294 -0.107853 1.65749 0
M  V30 77 O 9.0144 0.0381987 1.90762 0
M  V30 78 C 6.1544 0.52943 3.41015 0
M  V30 79 C 5.2674 1.67043 3.98398 0
M  V30 80 C 4.4024 1.18525 5.17808 0
M  V30 81 C 3.4414 2.29892 5.67288 0
M  V30 82 N 2.5784 1.82546 6.77954 0
M  V30 83 H 7.4184 1.89463 2.30017 0
M  V30 84 H 4.9554 0.944289 1.1279 0
M  V30 85 H 6.9134 0.258588 4.16398 0
M  V30 86 H 5.5434 -0.363919 3.20742 0
M  V30 87 H 4.5954 2.05603 3.20049 0
M  V30 88 H 5.9074 2.50877 4.31117 0
M  V30 89 H 5.0614 0.870762 6.00419 0
M  V30 90 H 3.8004 0.316887 4.86669 0
M  V30 91 H 2.8054 2.6215 4.83278 0
M  V30 92 H 4.0304 3.17216 6.00459 0
M  V30 93 H 1.9764 0.980454 6.48632 0
M  V30 94 H 1.8934 2.59956 7.09901 0
M  V30 95 H 3.1614 1.54115 7.64113 0
M  V30 96 N 7.3905 -1.2043 1.01659 0
M  V30 97 C 8.8015 -1.71517 0.737482 0
M  V30 98 C 9.1525 -1.81547 -0.743973 0
M  V30 99 O 8.2775 -1.47803 -1.58061 0
M  V30 100 C 8.8725 -3.11515 1.33206 0
M  V30 101 C 7.4315 -3.59912 1.10183 0
M  V30 102 C 6.5785 -2.37116 1.43776 0
M  V30 103 H 9.5295 -1.05444 1.18606 0
M  V30 104 H 9.5505 -3.73575 0.722636 0
M  V30 105 H 9.0625 -3.04182 2.41028 0
M  V30 106 H 7.1635 -3.72577 0.0412756 0
M  V30 107 H 7.2765 -4.44731 1.78188 0
M  V30 108 H 5.6405 -2.39857 0.856778 0
M  V30 109 H 6.4235 -2.32424 2.52654 0
M  V30 110 N 8.8686 -0.792821 -1.36206 0
M  V30 111 C 9.8316 -0.199459 -2.2833 0
M  V30 112 C 10.8316 0.605189 -1.48977 0
M  V30 113 O 12.0216 0.425685 -1.68919 0
M  V30 114 C 9.1536 0.723523 -3.33134 0
M  V30 115 H 10.3466 -1.01181 -2.82316 0
M  V30 116 H 7.8996 -0.562485 -1.45828 0
M  V30 117 H 8.6346 1.56008 -2.84309 0
M  V30 118 H 8.4196 0.148436 -3.91819 0
M  V30 119 H 9.9096 1.13344 -4.01924 0
M  V30 120 N 10.3467 1.47872 -0.545128 0
M  V30 121 C 11.2567 2.33633 0.212746 0
M  V30 122 C 12.2727 1.4744 0.923983 0
M  V30 123 O 13.4487 1.80393 0.895572 0
M  V30 124 C 10.5137 3.23884 1.23693 0
M  V30 125 C 9.5747 4.25961 0.534417 0
M  V30 126 C 8.8077 5.11899 1.5098 0
M  V30 127 O 9.0307 5.00077 2.7437 0
M  V30 128 O 7.9647 5.92831 1.0409 0
M  V30 129 H 11.7907 2.99714 -0.490416 0
M  V30 130 H 9.3757 1.46235 -0.305871 0
M  V30 131 H 11.2577 3.79666 1.82843 0
M  V30 132 H 9.9327 2.60446 1.92222 0
M  V30 133 H 8.8397 3.73972 -0.0979679 0
M  V30 134 H 10.1727 4.92079 -0.109213 0
M  V30 135 N 11.8248 0.280983 1.55075 0
M  V30 136 C 12.7548 -0.597469 2.25727 0
M  V30 137 C 13.7358 -1.15417 1.24952 0
M  V30 138 O 14.9208 -1.18722 1.53684 0
M  V30 139 C 12.0508 -1.7789 2.98283 0
M  V30 140 C 11.0048 -1.35347 4.06036 0
M  V30 141 C 10.3308 -2.61846 4.66198 0
M  V30 142 C 11.6308 -0.499354 5.19907 0
M  V30 143 H 13.3248 -0.00824265 2.99399 0
M  V30 144 H 10.8708 -0.0025244 1.44 0
M  V30 145 H 12.8238 -2.39937 3.46422 0
M  V30 146 H 11.5478 -2.39405 2.22155 0
M  V30 147 H 10.2068 -0.756156 3.58717 0
M  V30 148 H 9.8548 -3.21632 3.86732 0
M  V30 149 H 9.5548 -2.3409 5.38958 0
M  V30 150 H 11.0788 -3.24732 5.1709 0
M  V30 151 H 12.4928 -1.02498 5.64063 0
M  V30 152 H 10.8898 -0.316424 5.99265 0
M  V30 153 H 11.9598 0.480459 4.82514 0
M  V30 154 N 13.3029 -1.57598 0.00835791 0
M  V30 155 C 14.2349 -2.05811 -1.00868 0
M  V30 156 C 15.2479 -0.977579 -1.30182 0
M  V30 157 O 16.4369 -1.25421 -1.27011 0
M  V30 158 C 13.5369 -2.45016 -2.34137 0
M  V30 159 C 12.7099 -3.75903 -2.23643 0
M  V30 160 C 11.7689 -4.01884 -3.3967 0
M  V30 161 O 10.7949 -4.72433 -3.17483 0
M  V30 162 N 11.9969 -3.50432 -4.62793 0
M  V30 163 H 14.7619 -2.93684 -0.597458 0
M  V30 164 H 12.3229 -1.60909 -0.178852 0
M  V30 165 H 14.3149 -2.59506 -3.10546 0
M  V30 166 H 12.8849 -1.62618 -2.66972 0
M  V30 167 H 12.1049 -3.7141 -1.32091 0
M  V30 168 H 13.3929 -4.61695 -2.13812 0
M  V30 169 H 12.7909 -2.93317 -4.83716 0
M  V30 170 H 11.3479 -3.70236 -5.3644 0
M  V30 171 N 14.781 0.264519 -1.55364 0
M  V30 172 C 16.029 0.993021 -1.76021 0
M  V30 173 C 16.35 1.86511 -0.569099 0
M  V30 174 O 15.62 1.91438 0.415735 0
M  V30 175 H 14.2 0.369639 -0.649135 0
M  V30 176 H 16.862 0.286707 -1.9278 0
M  V30 177 H 15.958 1.62502 -2.66457 0
M  V30 178 N 16.2591 1.48442 0.529413 0
M  V30 179 C 17.5061 1.56488 1.28521 0
M  V30 180 C 17.8341 0.239042 1.93025 0
M  V30 181 O 17.0891 -0.770713 1.79885 0
M  V30 182 C 17.3881 2.6523 2.39558 0
M  V30 183 C 17.0541 4.07648 1.92702 0
M  V30 184 C 15.7161 4.46411 1.79641 0
M  V30 185 C 18.0681 4.96896 1.573 0
M  V30 186 C 15.3961 5.72226 1.29514 0
M  V30 187 C 17.7481 6.23202 1.08636 0
M  V30 188 C 16.4121 6.60821 0.941919 0
M  V30 189 H 15.6821 0.572631 0.470292 0
M  V30 190 H 18.3291 1.82161 0.59072 0
M  V30 191 H 16.6341 2.33419 3.14679 0
M  V30 192 H 18.3311 2.68671 2.97686 0
M  V30 193 H 14.9211 3.77036 2.03819 0
M  V30 194 H 19.1051 4.67626 1.66251 0
M  V30 195 H 14.3611 6.00097 1.17019 0
M  V30 196 H 18.5351 6.91753 0.803136 0
M  V30 197 H 16.1621 7.58198 0.5513 0
M  V30 198 N 17.7372 -0.778329 1.37039 0
M  V30 199 C 18.6872 -1.88142 1.28789 0
M  V30 200 C 19.6712 -1.59923 0.177063 0
M  V30 201 O 20.8632 -1.72165 0.410873 0
M  V30 202 C 17.9922 -3.25518 1.09055 0
M  V30 203 C 17.0782 -3.5971 2.24654 0
M  V30 204 N 17.4692 -3.65131 3.50018 0
M  V30 205 C 15.7672 -3.89837 2.16663 0
M  V30 206 C 16.4682 -3.95882 4.26207 0
M  V30 207 N 15.4442 -4.11441 3.55271 0
M  V30 208 H 19.2462 -1.90575 2.23737 0
M  V30 209 H 16.7602 -0.974435 1.29917 0
M  V30 210 H 18.7572 -4.04423 1.0123 0
M  V30 211 H 17.4172 -3.24353 0.15018 0
M  V30 212 H 18.4282 -3.475 3.84011 0
M  V30 213 H 15.1052 -3.96533 1.30645 0
M  V30 214 H 16.4952 -4.06907 5.34674 0
M  V30 215 N 19.2153 -1.21501 -1.00376 0
M  V30 216 C 20.6313 -0.972629 -1.26539 0
M  V30 217 C 20.8313 0.340257 -1.98606 0
M  V30 218 O 19.8873 1.06561 -2.28913 0
M  V30 219 C 21.2003 -2.16404 -2.08781 0
M  V30 220 C 22.7483 -2.20643 -2.22004 0
M  V30 221 C 23.2233 -3.39306 -3.07629 0
M  V30 222 N 24.7143 -3.39401 -3.15217 0
M  V30 223 C 25.4493 -4.27867 -3.81729 0
M  V30 224 N 24.9453 -5.26533 -4.5026 0
M  V30 225 N 26.7383 -4.15672 -3.78382 0
M  V30 226 H 18.8893 -2.05929 -0.520281 0
M  V30 227 H 21.1523 -0.901803 -0.292328 0
M  V30 228 H 20.8583 -3.11554 -1.63178 0
M  V30 229 H 20.7323 -2.15567 -3.09533 0
M  V30 230 H 23.1193 -1.26048 -2.66825 0
M  V30 231 H 23.2003 -2.25523 -1.20718 0
M  V30 232 H 22.8443 -4.34195 -2.63509 0
M  V30 233 H 22.7743 -3.31665 -4.09031 0
M  V30 234 H 25.2653 -2.67997 -2.66432 0
M  V30 235 H 25.5783 -5.90337 -4.98721 0
M  V30 236 H 23.9233 -5.30457 -4.49044 0
M  V30 237 H 27.1143 -3.3785 -3.23998 0
M  V30 238 H 27.2873 -4.84825 -4.2994 0
M  V30 239 N 20.6934 1.19889 -1.02296 0
M  V30 240 C 21.9184 1.9393 -0.735237 0
M  V30 241 C 22.3434 1.74639 0.698782 0
M  V30 242 O 21.7014 1.04481 1.48167 0
M  V30 243 C 21.7494 3.43916 -1.08417 0
M  V30 244 O 20.8534 4.11917 -0.199446 0
M  V30 245 H 20.1944 0.605645 -0.272196 0
M  V30 246 H 22.7244 1.52137 -1.36804 0
M  V30 247 H 22.7344 3.9456 -1.03856 0
M  V30 248 H 21.4094 3.5728 -2.12894 0
M  V30 249 H 19.9864 3.71666 -0.303136 0
M  V30 250 N 22.1715 0.800033 1.35784 0
M  V30 251 C 23.4185 0.377342 1.98953 0
M  V30 252 C 23.7465 -1.05378 1.6348 0
M  V30 253 O 23.0015 -1.74459 0.886707 0
M  V30 254 C 23.3005 0.500276 3.53881 0
M  V30 255 C 22.9665 1.89375 4.09204 0
M  V30 256 C 21.6285 2.27499 4.24025 0
M  V30 257 C 23.9805 2.8057 4.39238 0
M  V30 258 C 21.3085 3.562 4.66195 0
M  V30 259 C 23.6605 4.0871 4.82844 0
M  V30 260 C 22.3245 4.46843 4.95871 0
M  V30 261 H 21.5945 0.138079 0.728021 0
M  V30 262 H 24.2415 1.01955 1.62103 0
M  V30 263 H 22.5465 -0.225405 3.91151 0
M  V30 264 H 24.2435 0.154097 4.00704 0
M  V30 265 H 20.8335 1.58753 3.98115 0
M  V30 266 H 25.0175 2.52367 4.27346 0
M  V30 267 H 20.2735 3.85602 4.74469 0
M  V30 268 H 24.4475 4.79481 5.05046 0
M  V30 269 H 22.0745 5.46623 5.28306 0
M  V30 270 N 23.6496 -1.47581 0.552962 0
M  V30 271 C 24.5966 -2.29957 -0.197108 0
M  V30 272 C 25.5666 -1.38799 -0.912359 0
M  V30 273 O 26.7516 -1.67761 -0.908888 0
M  V30 274 C 23.8916 -3.22672 -1.22379 0
M  V30 275 C 23.0046 -4.28919 -0.515038 0
M  V30 276 C 22.1396 -5.0879 -1.52664 0
M  V30 277 C 21.1786 -6.06815 -0.802631 0
M  V30 278 N 20.3156 -6.7966 -1.76086 0
M  V30 279 H 25.1556 -2.93578 0.511486 0
M  V30 280 H 22.6926 -1.4471 0.264067 0
M  V30 281 H 24.6506 -3.74845 -1.83159 0
M  V30 282 H 23.2806 -2.60925 -1.90047 0
M  V30 283 H 22.3326 -3.79835 0.207192 0
M  V30 284 H 23.6446 -4.98773 0.0523425 0
M  V30 285 H 22.7986 -5.65091 -2.20809 0
M  V30 286 H 21.5376 -4.38828 -2.12794 0
M  V30 287 H 20.5426 -5.49695 -0.107238 0
M  V30 288 H 21.7676 -6.78784 -0.207135 0
M  V30 289 H 19.7136 -6.12432 -2.35081 0
M  V30 290 H 19.6306 -7.45669 -1.24552 0
M  V30 291 H 20.8986 -7.40538 -2.43359 0
M  V30 292 N 25.1277 -0.289203 -1.54924 0
M  V30 293 C 26.3757 0.322879 -1.99504 0
M  V30 294 C 26.6967 1.55313 -1.1791 0
M  V30 295 O 25.9667 1.94001 -0.272097 0
M  V30 296 H 24.5467 0.122291 -0.736922 0
M  V30 297 H 27.2087 -0.397802 -1.90797 0
M  V30 298 H 26.3047 0.603061 -3.06218 0
M  V30 299 N 26.6058 1.57591 -0.0167156 0
M  V30 300 C 27.5378 2.06343 0.997753 0
M  V30 301 C 28.5508 0.984469 1.29661 0
M  V30 302 O 29.7398 1.26093 1.26344 0
M  V30 303 C 26.8398 2.46255 2.32834 0
M  V30 304 C 26.0128 3.77083 2.21646 0
M  V30 305 C 25.0718 4.0368 3.37534 0
M  V30 306 O 24.0978 4.7411 3.14973 0
M  V30 307 N 25.2998 3.52881 4.60929 0
M  V30 308 H 28.0648 2.93997 0.581875 0
M  V30 309 H 25.6258 1.61002 0.170316 0
M  V30 310 H 27.6178 2.61149 3.09166 0
M  V30 311 H 26.1878 1.64032 2.66106 0
M  V30 312 H 25.4078 3.72106 1.30119 0
M  V30 313 H 26.6958 4.62822 2.11361 0
M  V30 314 H 26.0938 2.95878 4.82154 0
M  V30 315 H 24.6508 3.73076 5.34469 0
M  V30 316 N 28.0839 -0.256276 1.55502 0
M  V30 317 C 29.0319 -1.33694 1.90338 0
M  V30 318 C 30.0259 -1.50299 0.781441 0
M  V30 319 O 31.2319 -1.51885 0.965966 0
M  V30 320 H 27.6069 -0.447483 0.60437 0
M  V30 321 H 29.5779 -1.01574 2.8058 0
M  V30 322 C 28.3269 -2.68724 2.20642 0
M  V30 323 H 27.6499 -2.56743 3.06469 0
M  V30 324 H 29.0899 -3.43237 2.48926 0
M  V30 325 C 27.5489 -3.21101 1.01959 0
M  V30 326 O 28.0789 -4.0084 0.262762 0
M  V30 327 N 26.2849 -2.79003 0.812746 0
M  V30 328 H 25.8319 -2.14271 1.42989 0
M  V30 329 H 25.7899 -3.14393 0.0203076 0
M  V30 330 N 29.562 -1.4872 -0.521534 0
M  V30 331 C 30.973 -1.50607 -1.10337 0
M  V30 332 C 31.324 -0.280612 -1.94183 0
M  V30 333 O 30.449 0.611507 -2.0758 0
M  V30 334 C 31.044 -2.72903 -2.00772 0
M  V30 335 C 29.603 -2.77634 -2.54158 0
M  V30 336 C 28.75 -2.44241 -1.31307 0
M  V30 337 H 31.701 -1.55714 -0.306388 0
M  V30 338 H 31.722 -2.519 -2.85178 0
M  V30 339 H 31.234 -3.62077 -1.39721 0
M  V30 340 H 29.335 -1.92689 -3.18907 0
M  V30 341 H 29.448 -3.79283 -2.92714 0
M  V30 342 H 27.812 -1.95577 -1.63161 0
M  V30 343 H 28.595 -3.35666 -0.719943 0
M  V30 344 N 31.0401 0.771051 -1.3745 0
M  V30 345 C 32.2871 1.52963 -1.32697 0
M  V30 346 C 32.6151 1.94299 0.0883274 0
M  V30 347 O 31.8701 1.64397 1.0617 0
M  V30 348 C 32.1691 2.80676 -2.2126 0
M  V30 349 C 31.8351 2.58389 -3.69521 0
M  V30 350 C 30.4971 2.52019 -4.09927 0
M  V30 351 C 32.8491 2.38469 -4.63446 0
M  V30 352 C 30.1771 2.23721 -5.42371 0
M  V30 353 C 32.5291 2.11694 -5.96128 0
M  V30 354 C 31.1931 2.03769 -6.35637 0
M  V30 355 H 30.4631 0.559732 -0.485573 0
M  V30 356 H 33.1101 0.888083 -1.69662 0
M  V30 357 H 31.4151 3.49392 -1.77291 0
M  V30 358 H 33.1121 3.38557 -2.14895 0
M  V30 359 H 29.7021 2.6421 -3.37478 0
M  V30 360 H 33.8861 2.4238 -4.33089 0
M  V30 361 H 29.1421 2.16081 -5.71943 0
M  V30 362 H 33.3161 1.9528 -6.6846 0
M  V30 363 H 30.9431 1.81606 -7.38189 0
M  V30 364 N 32.5182 1.22032 0.997298 0
M  V30 365 C 33.4282 1.00271 2.12092 0
M  V30 366 C 34.4442 -0.047621 1.73935 0
M  V30 367 O 35.6202 0.144136 2.00884 0
M  V30 368 C 32.6852 0.578449 3.4184 0
M  V30 369 C 31.7462 1.70189 3.94125 0
M  V30 370 C 30.9792 1.29778 5.17681 0
M  V30 371 O 31.2022 0.174676 5.70132 0
M  V30 372 O 30.1362 2.11261 5.63607 0
M  V30 373 H 33.9622 1.94398 2.3333 0
M  V30 374 H 31.5472 1.00587 1.10465 0
M  V30 375 H 33.4292 0.351998 4.19927 0
M  V30 376 H 32.1042 -0.334019 3.21972 0
M  V30 377 H 31.0112 1.98282 3.1723 0
M  V30 378 H 32.3442 2.59206 4.18417 0
M  V30 379 N 33.9963 -1.19345 1.0293 0
M  V30 380 C 34.9263 -2.2481 0.631105 0
M  V30 381 C 35.9073 -1.66245 -0.360104 0
M  V30 382 O 37.0923 -1.92677 -0.242726 0
M  V30 383 C 34.2223 -3.47295 -0.0184607 0
M  V30 384 C 33.1763 -4.18536 0.895073 0
M  V30 385 C 32.5023 -5.34586 0.110592 0
M  V30 386 C 33.8023 -4.73287 2.209 0
M  V30 387 H 35.4963 -2.58372 1.51275 0
M  V30 388 H 33.0423 -1.24194 0.728818 0
M  V30 389 H 34.9953 -4.20268 -0.308675 0
M  V30 390 H 33.7193 -3.12933 -0.934907 0
M  V30 391 H 32.3783 -3.47446 1.16949 0
M  V30 392 H 32.0263 -4.96469 -0.807902 0
M  V30 393 H 31.7263 -5.83183 0.719087 0
M  V30 394 H 33.2503 -6.10355 -0.172871 0
M  V30 395 H 34.6643 -5.38013 1.98028 0
M  V30 396 H 33.0613 -5.32373 2.76946 0
M  V30 397 H 34.1313 -3.91331 2.86336 0
M  V30 398 N 35.4744 -0.807222 -1.35358 0
M  V30 399 C 36.4374 -0.223665 -2.28106 0
M  V30 400 C 37.4374 0.589354 -1.4961 0
M  V30 401 O 38.6274 0.407745 -1.69361 0
M  V30 402 C 35.7594 0.688149 -3.33882 0
M  V30 403 H 36.9524 -1.04169 -2.81227 0
M  V30 404 H 34.5054 -0.577921 -1.45223 0
M  V30 405 H 35.2404 1.52984 -2.85948 0
M  V30 406 H 35.0254 0.10687 -3.91954 0
M  V30 407 H 36.5154 1.09075 -4.03104 0
M  V30 408 N 36.9525 1.47285 -0.560781 0
M  V30 409 C 38.1995 2.02464 -0.038062 0
M  V30 410 C 38.5275 1.43474 1.31322 0
M  V30 411 O 37.7825 0.581311 1.86867 0
M  V30 412 C 38.0815 3.57258 0.100784 0
M  V30 413 C 37.7475 4.35184 -1.18007 0
M  V30 414 C 36.4095 4.56194 -1.53103 0
M  V30 415 C 38.7615 4.80098 -2.02867 0
M  V30 416 C 36.0895 5.19367 -2.729 0
M  V30 417 C 38.4415 5.44593 -3.21871 0
M  V30 418 C 37.1055 5.63835 -3.57276 0
M  V30 419 H 36.3755 0.740869 -0.0139279 0
M  V30 420 H 39.0225 1.76916 -0.733012 0
M  V30 421 H 37.3275 3.81819 0.878724 0
M  V30 422 H 39.0245 3.97606 0.520639 0
M  V30 423 H 35.6145 4.19113 -0.8968 0
M  V30 424 H 39.7985 4.63642 -1.7706 0
M  V30 425 H 35.0545 5.32459 -3.00496 0
M  V30 426 H 39.2285 5.78358 -3.87911 0
M  V30 427 H 36.8555 6.12557 -4.50197 0
M  V30 428 N 38.4306 0.297415 1.54768 0
M  V30 429 C 39.6556 -0.318435 2.04941 0
M  V30 430 C 40.0806 -1.4701 1.17345 0
M  V30 431 O 39.4386 -1.80436 0.176758 0
M  V30 432 C 39.4866 -0.755749 3.52592 0
M  V30 433 O 38.5906 -1.86088 3.68028 0
M  V30 434 H 37.9316 -0.062421 0.661059 0
M  V30 435 H 40.4616 0.438215 1.99852 0
M  V30 436 H 40.4716 -1.04552 3.94376 0
M  V30 437 H 39.1466 0.0867233 4.1581 0
M  V30 438 H 37.7236 -1.57193 3.38149 0
M  V30 439 N 39.9087 -1.5758 0.0250728 0
M  V30 440 C 40.8387 -2.13007 -0.956575 0
M  V30 441 C 41.8197 -1.0452 -1.342 0
M  V30 442 O 43.0047 -1.32332 -1.42133 0
M  V30 443 C 40.1347 -2.65386 -2.24026 0
M  V30 444 C 39.0887 -3.78623 -1.99571 0
M  V30 445 C 38.4147 -4.17414 -3.3417 0
M  V30 446 C 39.7147 -5.04867 -1.33814 0
M  V30 447 H 41.4087 -2.9528 -0.494991 0
M  V30 448 H 38.9547 -1.42042 -0.236651 0
M  V30 449 H 40.9077 -3.02794 -2.93076 0
M  V30 450 H 39.6317 -1.80268 -2.72343 0
M  V30 451 H 38.2907 -3.41646 -1.32941 0
M  V30 452 H 37.9387 -3.29284 -3.80238 0
M  V30 453 H 37.6387 -4.93719 -3.18615 0
M  V30 454 H 39.1627 -4.57402 -4.04495 0
M  V30 455 H 40.5767 -5.39888 -1.92857 0
M  V30 456 H 38.9737 -5.86144 -1.28669 0
M  V30 457 H 40.0437 -4.83904 -0.310561 0
M  V30 458 N 41.3868 0.248026 -1.55636 0
M  V30 459 C 42.6638 0.998988 -1.68165 0
M  V30 460 C 43.0438 2.03409 -0.564621 0
M  V30 461 O 42.3918 2.24378 0.432076 0
M  V30 462 C 42.6018 1.63334 -3.0842 0
M  V30 463 C 43.9498 2.13562 -3.66983 0
M  V30 464 O 44.9738 1.73277 -3.11213 0
M  V30 465 O 43.8328 2.87526 -4.64749 0
M  V30 466 H 40.9268 0.464933 -0.683935 0
M  V30 467 H 43.4728 0.241902 -1.67967 0
M  V30 468 H 42.2448 0.884583 -3.8117 0
M  V30 469 H 41.8678 2.45666 -3.12624 0
M  V30 470 N 42.8649 1.48995 0.513639 0
M  V30 471 C 43.7969 1.60836 1.63293 0
M  V30 472 C 44.8099 0.491701 1.55197 0
M  V30 473 O 45.9989 0.763238 1.6136 0
M  V30 474 C 43.0989 1.53731 3.02027 0
M  V30 475 C 42.2719 2.80715 3.35437 0
M  V30 476 C 41.3309 2.66837 4.53525 0
M  V30 477 O 40.3569 3.40753 4.55934 0
M  V30 478 N 41.5589 1.77539 5.52684 0
M  V30 479 H 44.3239 2.57366 1.53566 0
M  V30 480 H 41.8849 1.45925 0.701259 0
M  V30 481 H 43.8769 1.42118 3.78926 0
M  V30 482 H 42.4469 0.651092 3.05744 0
M  V30 483 H 41.6669 3.06772 2.47557 0
M  V30 484 H 42.9549 3.64927 3.54551 0
M  V30 485 H 42.3529 1.16719 5.53528 0
M  V30 486 H 40.9099 1.71856 6.28736 0
M  V30 487 N 44.343 -0.763751 1.37857 0
M  V30 488 C 45.754 -1.3405 1.29952 0
M  V30 489 C 46.105 -1.96138 -0.0492898 0
M  V30 490 O 45.23 -1.94372 -0.951239 0
M  V30 491 C 45.825 -2.43729 2.35333 0
M  V30 492 C 44.384 -2.97151 2.31037 0
M  V30 493 C 43.531 -1.70438 2.18738 0
M  V30 494 H 46.482 -0.563396 1.48363 0
M  V30 495 H 46.503 -3.23412 2.00462 0
M  V30 496 H 46.015 -1.9851 3.33489 0
M  V30 497 H 44.116 -3.46724 1.3643 0
M  V30 498 H 44.229 -3.52221 3.24772 0
M  V30 499 H 42.593 -1.93673 1.65418 0
M  V30 500 H 43.376 -1.27312 3.18821 0
M  V30 501 N 45.8211 -1.22559 -0.990812 0
M  V30 502 C 47.0981 -0.959875 -1.70428 0
M  V30 503 C 47.4781 0.524455 -2.04481 0
M  V30 504 O 46.8261 1.49302 -1.72977 0
M  V30 505 C 47.0361 -1.85955 -2.95333 0
M  V30 506 C 48.3841 -2.11687 -3.68068 0
M  V30 507 O 49.4081 -1.8342 -3.05345 0
M  V30 508 O 48.2671 -2.59572 -4.80921 0
M  V30 509 H 45.3611 -0.361154 -0.743974 0
M  V30 510 H 47.9071 -1.33554 -1.04697 0
M  V30 511 H 46.6791 -2.86346 -2.66687 0
M  V30 512 H 46.3021 -1.4856 -3.68803 0
M  V30 513 N 47.2992 1.18797 -1.03562 0
M  V30 514 C 48.2492 2.20161 -0.592724 0
M  V30 515 C 49.2332 1.56772 0.362133 0
M  V30 516 O 50.4252 1.76062 0.182009 0
M  V30 517 C 47.5542 3.43266 0.0481024 0
M  V30 518 C 46.6402 4.13786 -0.9296 0
M  V30 519 N 47.0312 4.60388 -2.09467 0
M  V30 520 C 45.3292 4.39572 -0.754499 0
M  V30 521 C 46.0302 5.14619 -2.71187 0
M  V30 522 N 45.0062 5.05826 -1.991 0
M  V30 523 H 48.8082 2.53877 -1.48066 0
M  V30 524 H 46.3222 1.34946 -0.903514 0
M  V30 525 H 48.3192 4.15136 0.383058 0
M  V30 526 H 46.9792 3.11048 0.931636 0
M  V30 527 H 47.9902 4.54999 -2.47379 0
M  V30 528 H 44.6672 4.17425 0.0793713 0
M  V30 529 H 46.0572 5.60917 -3.69895 0
M  V30 530 N 48.7773 0.814389 1.34928 0
M  V30 531 C 50.0253 0.397636 1.9815 0
M  V30 532 C 50.3463 -1.04069 1.64908 0
M  V30 533 O 49.6163 -1.72121 0.93548 0
M  V30 534 H 48.1963 0.144043 0.732981 0
M  V30 535 H 50.8583 1.04195 1.6471 0
M  V30 536 H 49.9543 0.509688 3.0791 0
M  V30 537 N 50.2554 -1.46986 0.568584 0
M  V30 538 C 51.5324 -1.95592 -0.0174074 0
M  V30 539 C 51.9124 -1.51124 -1.47393 0
M  V30 540 O 51.2604 -0.755329 -2.15655 0
M  V30 541 C 51.4704 -3.48719 0.139913 0
M  V30 542 C 52.8184 -4.246 0.000426376 0
M  V30 543 O 53.8424 -3.56135 0.0680316 0
M  V30 544 O 52.7014 -5.46302 -0.146988 0
M  V30 545 H 49.7954 -0.82498 -0.0577599 0
M  V30 546 H 52.3414 -1.57335 0.635909 0
M  V30 547 H 51.1134 -3.73927 1.15301 0
M  V30 548 H 50.7364 -3.93771 -0.550491 0
M  V30 549 N 51.7335 -0.305618 -1.54608 0
M  V30 550 C 52.9585 0.307562 -2.05107 0
M  V30 551 C 53.3835 1.46385 -1.18123 0
M  V30 552 O 52.7415 1.8034 -0.186324 0
M  V30 553 C 52.7895 0.73704 -3.52987 0
M  V30 554 O 51.8935 1.84134 -3.6901 0
M  V30 555 H 51.2345 0.0589143 -0.661381 0
M  V30 556 H 53.7645 -0.448807 -1.99617 0
M  V30 557 H 53.7745 1.02459 -3.94925 0
M  V30 558 H 52.4495 -0.108773 -4.15758 0
M  V30 559 H 51.0265 1.55398 -3.38978 0
M  V30 560 N 53.2116 1.57565 -0.0334293 0
M  V30 561 C 54.4886 1.83282 0.683163 0
M  V30 562 C 54.8686 0.91823 1.90084 0
M  V30 563 O 54.2166 -0.025113 2.28486 0
M  V30 564 C 54.4266 3.32599 1.0573 0
M  V30 565 C 55.7746 3.99179 1.44711 0
M  V30 566 O 56.7986 3.3712 1.15015 0
M  V30 567 O 55.6576 5.08565 2.0006 0
M  V30 568 H 52.7516 0.755869 0.335546 0
M  V30 569 H 55.2976 1.69589 -0.0614402 0
M  V30 570 H 54.0696 3.90834 0.190828 0
M  V30 571 H 53.6926 3.51415 1.85993 0
M  V30 572 N 54.6897 -0.239769 1.55765 0
M  V30 573 C 55.9367 -0.966801 1.7793 0
M  V30 574 C 56.2647 -1.85046 0.599015 0
M  V30 575 O 55.5197 -1.91197 -0.417395 0
M  V30 576 C 55.8187 -1.852 3.05672 0
M  V30 577 C 55.4847 -1.1231 4.36689 0
M  V30 578 C 54.1467 -0.921689 4.72291 0
M  V30 579 C 56.4987 -0.607019 5.17653 0
M  V30 580 C 53.8267 -0.191996 5.86386 0
M  V30 581 C 56.1787 0.109241 6.32506 0
M  V30 582 C 54.8427 0.322073 6.66723 0
M  V30 583 H 54.1127 -0.353778 0.651093 0
M  V30 584 H 56.7597 -0.23634 1.90036 0
M  V30 585 H 55.0647 -2.64975 2.8861 0
M  V30 586 H 56.7617 -2.41635 3.20021 0
M  V30 587 H 53.3517 -1.29004 4.08725 0
M  V30 588 H 57.5357 -0.750153 4.90598 0
M  V30 589 H 52.7917 -0.0166949 6.11398 0
M  V30 590 H 56.9657 0.516737 6.9448 0
M  V30 591 H 54.5927 0.88944 7.54979 0
M  V30 592 N 56.1678 -1.49265 -0.50573 0
M  V30 593 C 57.4158 -1.582 -1.25766 0
M  V30 594 C 57.7368 -0.268482 -1.93143 0
M  V30 595 O 57.0068 0.711833 -1.8251 0
M  V30 596 H 55.5868 -0.582873 -0.467191 0
M  V30 597 H 58.2488 -1.85865 -0.586525 0
M  V30 598 H 57.3448 -2.37563 -2.02412 0
M  V30 599 N 57.6459 0.756429 -1.3826 0
M  V30 600 C 58.5759 1.88374 -1.37976 0
M  V30 601 C 59.5569 1.68311 -0.246082 0
M  V30 602 O 60.7419 1.88944 -0.44874 0
M  V30 603 C 57.8719 3.25864 -1.20125 0
M  V30 604 C 56.8259 3.60523 -2.30666 0
M  V30 605 C 56.1519 4.9672 -1.97923 0
M  V30 606 C 57.4519 3.65692 -3.72916 0
M  V30 607 H 59.1459 1.88869 -2.32312 0
M  V30 608 H 56.6919 0.907272 -1.11824 0
M  V30 609 H 58.6449 4.0438 -1.18552 0
M  V30 610 H 57.3689 3.25841 -0.222498 0
M  V30 611 H 56.0279 2.84324 -2.3142 0
M  V30 612 H 55.6759 4.93253 -0.985393 0
M  V30 613 H 55.3759 5.20878 -2.71955 0
M  V30 614 H 56.8999 5.77618 -1.97964 0
M  V30 615 H 58.3139 4.34328 -3.74208 0
M  V30 616 H 56.7109 4.01358 -4.4613 0
M  V30 617 H 57.7809 2.65987 -4.05436 0
M  V30 618 N 59.124 1.23083 0.984299 0
M  V30 619 C 60.056 0.96636 2.07832 0
M  V30 620 C 61.069 -0.0582135 1.62696 0
M  V30 621 O 62.258 0.176843 1.77622 0
M  V30 622 C 59.358 0.433397 3.36117 0
M  V30 623 C 58.531 1.51722 4.10243 0
M  V30 624 C 57.59 0.989821 5.16807 0
M  V30 625 O 56.616 1.67794 5.43906 0
M  V30 626 N 57.818 -0.184367 5.80207 0
M  V30 627 H 60.583 1.90824 2.31098 0
M  V30 628 H 58.144 1.13888 1.1507 0
M  V30 629 H 60.136 0.065699 4.04647 0
M  V30 630 H 58.706 -0.413806 3.09849 0
M  V30 631 H 57.926 2.05786 3.36223 0
M  V30 632 H 59.214 2.24619 4.56534 0
M  V30 633 H 58.612 -0.760062 5.60571 0
M  V30 634 H 57.169 -0.493366 6.4993 0
M  V30 635 N 60.6021 -1.18246 1.0419 0
M  V30 636 C 61.8421 -1.89948 0.754916 0
M  V30 637 C 62.2061 -1.78608 -0.70451 0
M  V30 638 O 63.4071 -2.4503 -1.10516 0
M  V30 639 C 61.6781 -3.36305 1.20969 0
M  V30 640 S 63.2371 -4.26088 1.04854 0
M  V30 641 H 60.0551 -0.655897 0.274446 0
M  V30 642 H 62.6571 -1.42873 1.33445 0
M  V30 643 H 61.3611 -3.42089 2.26722 0
M  V30 644 H 60.8921 -3.8842 0.624004 0
M  V30 645 H 62.9071 -4.96189 -0.0332896 0
M  V30 646 N 62.0802 -0.821533 -1.34494 0
M  V30 647 C 63.3052 -0.420873 -2.03085 0
M  V30 648 C 63.7302 0.964915 -1.61465 0
M  V30 649 O 63.0882 1.62763 -0.798607 0
M  V30 650 C 63.1362 -0.529414 -3.56693 0
M  V30 651 O 62.2402 0.451302 -4.09923 0
M  V30 652 H 61.5812 -0.173489 -0.640935 0
M  V30 653 H 64.1112 -1.11157 -1.71771 0
M  V30 654 H 64.1212 -0.404671 -4.05988 0
M  V30 655 H 62.7962 -1.54014 -3.86332 0
M  V30 656 H 61.3732 0.285558 -3.71805 0
M  V30 657 N 63.5583 1.46682 -0.576371 0
M  V30 658 C 64.5213 2.28707 0.150239 0
M  V30 659 C 65.5213 1.38035 0.824794 0
M  V30 660 O 66.7113 1.60476 0.677719 0
M  V30 661 C 63.8433 3.18248 1.22192 0
M  V30 662 H 65.0363 2.94423 -0.570521 0
M  V30 663 H 62.5893 1.52688 -0.334078 0
M  V30 664 H 63.3243 2.57265 1.97447 0
M  V30 665 H 63.1093 3.85 0.742812 0
M  V30 666 H 64.5993 3.80001 1.73172 0
M  V30 667 N 65.0364 0.313813 1.54444 0
M  V30 668 C 66.4524 -0.0391619 1.59552 0
M  V30 669 C 66.6524 -1.51322 1.33056 0
M  V30 670 O 65.7084 -2.26782 1.11022 0
M  V30 671 C 67.0214 0.370302 2.98411 0
M  V30 672 C 68.5694 0.320139 3.11358 0
M  V30 673 C 69.0444 0.704617 4.52547 0
M  V30 674 N 70.5354 0.657645 4.58508 0
M  V30 675 C 71.2704 0.927453 5.6585 0
M  V30 676 N 70.7664 1.26389 6.81174 0
M  V30 677 N 72.5594 0.853662 5.5558 0
M  V30 678 H 64.7104 1.27433 1.69925 0
M  V30 679 H 66.9734 0.517511 0.794284 0
M  V30 680 H 66.6794 1.39694 3.22767 0
M  V30 681 H 66.5534 -0.269619 3.76235 0
M  V30 682 H 68.9404 -0.697275 2.86744 0
M  V30 683 H 69.0214 0.99486 2.35661 0
M  V30 684 H 68.6654 1.7199 4.77893 0
M  V30 685 H 68.5954 0.00768843 5.26599 0
M  V30 686 H 71.0864 0.409067 3.75679 0
M  V30 687 H 71.3994 1.4554 7.58972 0
M  V30 688 H 69.7444 1.30206 6.82694 0
M  V30 689 H 72.9354 0.590383 4.64362 0
M  V30 690 H 73.1084 1.0673 6.3915 0
M  V30 691 N 66.5145 -1.57545 0.0417849 0
M  V30 692 C 67.9255 -1.80011 -0.495259 0
M  V30 693 C 68.2765 -0.953199 -1.71489 0
M  V30 694 O 67.4015 -0.167138 -2.15754 0
M  V30 695 C 67.9965 -3.26482 -0.905265 0
M  V30 696 C 66.5555 -3.499 -1.38734 0
M  V30 697 C 65.7025 -2.74979 -0.358056 0
M  V30 698 H 68.6535 -1.56425 0.267736 0
M  V30 699 H 68.6745 -3.36887 -1.76882 0
M  V30 700 H 68.1865 -3.88096 -0.017401 0
M  V30 701 H 66.2875 -2.93553 -2.29471 0
M  V30 702 H 66.4005 -4.58615 -1.38598 0
M  V30 703 H 64.7645 -2.40834 -0.828912 0
M  V30 704 H 65.5475 -3.39315 0.521561 0
M  V30 705 N 67.9926 0.231505 -1.5589 0
M  V30 706 C 69.2696 0.981096 -1.69215 0
M  V30 707 C 69.6496 2.02799 -0.586164 0
M  V30 708 O 68.9976 2.24823 0.408253 0
M  V30 709 C 69.2076 1.60054 -3.10135 0
M  V30 710 C 70.5556 2.09658 -3.69227 0
M  V30 711 O 71.5796 1.69967 -3.13033 0
M  V30 712 O 70.4386 2.8258 -4.67772 0
M  V30 713 H 67.5326 0.457653 -0.688827 0
M  V30 714 H 70.0786 0.224073 -1.68214 0
M  V30 715 H 68.8506 0.844105 -3.82087 0
M  V30 716 H 68.4736 2.42336 -3.15212 0
M  V30 717 N 69.4707 1.49531 0.497807 0
M  V30 718 C 70.4037 1.61043 1.6168 0
M  V30 719 C 71.3817 0.459386 1.55976 0
M  V30 720 O 72.5657 0.675358 1.75986 0
M  V30 721 C 69.6927 1.56833 3.00202 0
M  V30 722 C 68.7387 2.77173 3.24156 0
M  V30 723 S 69.5717 4.38808 3.06933 0
M  V30 724 C 70.7277 4.37248 4.47845 0
M  V30 725 H 70.9607 2.55702 1.51671 0
M  V30 726 H 68.4937 1.38462 0.683201 0
M  V30 727 H 70.4517 1.55089 3.80076 0
M  V30 728 H 69.1127 0.634561 3.07623 0
M  V30 729 H 68.3057 2.70456 4.25288 0
M  V30 730 H 67.9077 2.76346 2.5201 0
M  V30 731 H 70.1997 4.09164 5.39992 0
M  V30 732 H 71.1427 5.38668 4.59612 0
M  V30 733 H 71.5507 3.67286 4.28674 0
M  V30 734 N 70.9488 -0.749086 1.3866 0
M  V30 735 C 72.3598 -1.32664 1.31366 0
M  V30 736 C 72.7108 -1.96179 -0.028484 0
M  V30 737 O 71.8358 -1.9537 -0.93057 0
M  V30 738 C 72.4308 -2.41219 2.37905 0
M  V30 739 C 70.9898 -2.94684 2.34176 0
M  V30 740 C 70.1368 -1.68108 2.20533 0
M  V30 741 H 73.0878 -0.547628 1.48952 0
M  V30 742 H 73.1088 -3.21268 2.0388 0
M  V30 743 H 72.6208 -1.94962 3.35576 0
M  V30 744 H 70.7218 -3.45258 1.401 0
M  V30 745 H 70.8348 -3.48757 3.2849 0
M  V30 746 H 69.1988 -1.91907 1.67463 0
M  V30 747 H 69.9818 -1.23923 3.20153 0
M  V30 748 N 72.4269 -1.23603 -0.977757 0
M  V30 749 C 73.3899 -1.02069 -2.05218 0
M  V30 750 C 74.3899 0.0184305 -1.60789 0
M  V30 751 O 75.5799 -0.221569 -1.72785 0
M  V30 752 C 72.7119 -0.544926 -3.36517 0
M  V30 753 H 73.9049 -1.9742 -2.25755 0
M  V30 754 H 71.4579 -1.05684 -1.15155 0
M  V30 755 H 72.1929 0.412241 -3.21669 0
M  V30 756 H 71.9779 -1.2948 -3.70105 0
M  V30 757 H 73.4679 -0.414985 -4.15533 0
M  V30 758 N 73.905 1.17692 -1.04816 0
M  V30 759 C 75.13 1.92327 -0.776207 0
M  V30 760 C 75.555 1.76082 0.661581 0
M  V30 761 O 74.913 1.076 1.45917 0
M  V30 762 C 74.961 3.41539 -1.15687 0
M  V30 763 O 74.065 4.11402 -0.286775 0
M  V30 764 H 73.406 0.599735 -0.284981 0
M  V30 765 H 75.936 1.49201 -1.4 0
M  V30 766 H 75.946 3.92269 -1.12202 0
M  V30 767 H 74.621 3.52684 -2.20425 0
M  V30 768 H 73.198 3.70939 -0.381903 0
M  V30 769 N 75.3831 0.828654 1.34056 0
M  V30 770 C 76.3151 0.212052 2.28217 0
M  V30 771 C 77.3281 -0.601362 1.51286 0
M  V30 772 O 78.5171 -0.430104 1.73241 0
M  V30 773 C 75.6171 -0.72088 3.31144 0
M  V30 774 C 74.7901 0.0509587 4.3737 0
M  V30 775 C 73.8491 -0.803766 5.20025 0
M  V30 776 O 72.8751 -0.246667 5.68665 0
M  V30 777 N 74.0771 -2.1227 5.40298 0
M  V30 778 H 76.8421 1.02105 2.81771 0
M  V30 779 H 74.4031 0.686153 1.46641 0
M  V30 780 H 76.3951 -1.29742 3.8334 0
M  V30 781 H 74.9651 -1.43061 2.77943 0
M  V30 782 H 74.1851 0.808831 3.85813 0
M  V30 783 H 75.4731 0.582065 5.0546 0
M  V30 784 H 74.8711 -2.59898 5.02464 0
M  V30 785 H 73.4281 -2.64796 5.95589 0
M  V30 786 N 76.8612 -1.46375 0.584142 0
M  V30 787 C 78.2722 -1.86031 0.157959 0
M  V30 788 C 78.6232 -1.48753 -1.27933 0
M  V30 789 O 77.7482 -0.903098 -1.96655 0
M  V30 790 C 78.3432 -3.37642 0.279892 0
M  V30 791 C 76.9022 -3.76289 -0.09143 0
M  V30 792 C 76.0492 -2.7039 0.615178 0
M  V30 793 H 79.0002 -1.37509 0.792274 0
M  V30 794 H 79.0212 -3.77275 -0.494364 0
M  V30 795 H 78.5332 -3.64742 1.32607 0
M  V30 796 H 76.6342 -3.54806 -1.13769 0
M  V30 797 H 76.7472 -4.78246 0.285886 0
M  V30 798 H 75.1112 -2.5464 0.0552833 0
M  V30 799 H 75.8942 -3.0033 1.66303 0
M  V30 800 N 78.3393 -0.321999 -1.54275 0
M  V30 801 C 79.5883 0.281931 -1.9972 0
M  V30 802 C 79.9013 1.53369 -1.21397 0
M  V30 803 O 81.1073 2.21352 -1.57211 0
M  V30 804 C 79.5633 0.5529 -3.55628 0
M  V30 805 C 79.1713 -0.681721 -4.42783 0
M  V30 806 C 80.9153 1.11687 -4.09544 0
M  V30 807 C 78.8223 -0.382742 -5.9016 0
M  V30 808 H 77.7523 0.109124 -0.746062 0
M  V30 809 H 80.4033 -0.43398 -1.78294 0
M  V30 810 H 78.7853 1.32896 -3.73035 0
M  V30 811 H 79.9593 -1.45723 -4.37151 0
M  V30 812 H 78.2743 -1.1658 -3.99748 0
M  V30 813 H 80.8713 1.35515 -5.17242 0
M  V30 814 H 81.2143 2.06575 -3.61431 0
M  V30 815 H 81.7473 0.402032 -3.95763 0
M  V30 816 H 78.4863 -1.30076 -6.42464 0
M  V30 817 H 78.0063 0.355094 -5.98748 0
M  V30 818 H 79.6853 0.00800157 -6.47 0
M  V30 819 N 79.8174 1.5752 -0.0501392 0
M  V30 820 C 81.0944 1.83996 0.663685 0
M  V30 821 C 81.4744 0.938339 1.89099 0
M  V30 822 O 80.8224 -0.00087759 2.285 0
M  V30 823 C 81.0324 3.33702 1.02196 0
M  V30 824 C 82.3804 4.00691 1.40469 0
M  V30 825 O 83.4044 3.38321 1.11433 0
M  V30 826 O 82.2634 5.10658 1.94654 0
M  V30 827 H 79.3574 0.759385 0.32751 0
M  V30 828 H 81.9034 1.69514 -0.0794238 0
M  V30 829 H 80.6754 3.91015 0.149364 0
M  V30 830 H 80.2984 3.53368 1.82255 0
M  V30 831 N 81.2955 -0.223234 1.56011 0
M  V30 832 C 82.5445 -0.945912 1.78144 0
M  V30 833 C 82.8575 -1.85567 0.618396 0
M  V30 834 O 84.0635 -2.61688 0.723318 0
M  V30 835 C 82.5195 -1.73216 3.15475 0
M  V30 836 C 82.1275 -0.868619 4.39499 0
M  V30 837 C 83.8715 -2.44615 3.46935 0
M  V30 838 C 81.7785 -1.65212 5.67855 0
M  V30 839 H 80.7085 -0.356929 0.664167 0
M  V30 840 H 83.3595 -0.199845 1.82409 0
M  V30 841 H 81.7415 -2.52107 3.05382 0
M  V30 842 H 82.9155 -0.120366 4.60643 0
M  V30 843 H 81.2305 -0.26683 4.15544 0
M  V30 844 H 83.8275 -3.03732 4.40058 0
M  V30 845 H 84.1705 -3.17417 2.69355 0
M  V30 846 H 84.7035 -1.72715 3.58349 0
M  V30 847 H 81.4425 -0.967407 6.48322 0
M  V30 848 H 80.9625 -2.37503 5.50774 0
M  V30 849 H 82.6415 -2.21322 6.07968 0
M  V30 850 N 82.7736 -1.49793 -0.48987 0
M  V30 851 C 84.1846 -1.52914 -1.07118 0
M  V30 852 C 84.5356 -0.321738 -1.93544 0
M  V30 853 O 83.6606 0.567338 -2.08831 0
M  V30 854 C 84.2556 -2.771 -1.94938 0
M  V30 855 C 82.8146 -2.82963 -2.48212 0
M  V30 856 C 81.9616 -2.46972 -1.26096 0
M  V30 857 H 84.9126 -1.56329 -0.273289 0
M  V30 858 H 84.9336 -2.57892 -2.79771 0
M  V30 859 H 84.4456 -3.64959 -1.32009 0
M  V30 860 H 82.5466 -1.99411 -3.14748 0
M  V30 861 H 82.6596 -3.85406 -2.84603 0
M  V30 862 H 81.0236 -1.98994 -1.58976 0
M  V30 863 H 81.8066 -3.37118 -0.648581 0
M  V30 864 N 84.2517 0.741722 -1.39055 0
M  V30 865 C 85.5287 1.49252 -1.26425 0
M  V30 866 C 85.9087 2.10705 0.129144 0
M  V30 867 O 85.2567 1.98045 1.13976 0
M  V30 868 C 85.4667 2.54934 -2.38347 0
M  V30 869 C 86.8147 3.21506 -2.77343 0
M  V30 870 O 87.8387 2.65245 -2.37747 0
M  V30 871 O 86.6977 4.23294 -3.45665 0
M  V30 872 H 83.7917 0.662451 -0.495064 0
M  V30 873 H 86.3377 0.776121 -1.50912 0
M  V30 874 H 85.1097 2.07857 -3.31529 0
M  V30 875 H 84.7327 3.34141 -2.15489 0
M  V30 876 N 85.7298 1.2412 0.971189 0
M  V30 877 C 86.6928 1.03156 2.04674 0
M  V30 878 C 87.6928 -0.00990322 1.60797 0
M  V30 879 O 88.8828 0.230729 1.72665 0
M  V30 880 C 86.0148 0.562765 3.36223 0
M  V30 881 H 87.2078 1.98614 2.24705 0
M  V30 882 H 84.7608 1.06293 1.14593 0
M  V30 883 H 85.4958 -0.395176 3.21883 0
M  V30 884 H 85.2808 1.31441 3.69413 0
M  V30 885 H 86.7708 0.437015 4.15307 0
M  V30 886 N 87.2079 -1.17134 1.05439 0
M  V30 887 C 88.1549 -2.21235 0.657539 0
M  V30 888 C 89.1249 -1.62551 -0.341543 0
M  V30 889 O 90.3099 -1.89379 -0.232393 0
M  V30 890 C 87.4499 -3.45076 0.0410575 0
M  V30 891 C 86.5629 -4.18042 1.08927 0
M  V30 892 C 85.6979 -5.29376 0.439848 0
M  V30 893 C 84.7369 -5.94132 1.4722 0
M  V30 894 N 83.8739 -6.96975 0.846756 0
M  V30 895 H 88.7139 -2.54534 1.54972 0
M  V30 896 H 86.2509 -1.25028 0.775006 0
M  V30 897 H 88.2089 -4.15862 -0.33383 0
M  V30 898 H 86.8389 -3.12353 -0.814568 0
M  V30 899 H 85.8909 -3.45945 1.58196 0
M  V30 900 H 87.2029 -4.62306 1.87282 0
M  V30 901 H 86.3569 -6.06699 0.0115125 0
M  V30 902 H 85.0959 -4.86251 -0.375656 0
M  V30 903 H 84.1009 -5.15538 1.91052 0
M  V30 904 H 85.3259 -6.39337 2.28965 0
M  V30 905 H 83.2719 -6.5598 0.0518075 0
M  V30 906 H 83.1889 -7.39565 1.5678 0
M  V30 907 H 84.4569 -7.78239 0.443277 0
M  V30 908 N 88.686 -0.835752 -1.33615 0
M  V30 909 C 89.633 -0.26473 -2.29277 0
M  V30 910 C 90.603 0.617712 -1.54187 0
M  V30 911 O 91.788 0.556641 -1.825 0
M  V30 912 C 88.928 0.556777 -3.40579 0
M  V30 913 C 88.041 -0.349339 -4.30585 0
M  V30 914 C 87.176 0.482969 -5.29 0
M  V30 915 C 86.215 -0.421732 -6.10645 0
M  V30 916 N 85.352 0.372262 -7.01112 0
M  V30 917 H 90.192 -1.08582 -2.77514 0
M  V30 918 H 87.729 -0.546927 -1.36554 0
M  V30 919 H 89.687 1.04852 -4.03809 0
M  V30 920 H 88.317 1.34286 -2.93542 0
M  V30 921 H 87.369 -0.959372 -3.68104 0
M  V30 922 H 88.681 -1.04445 -4.87742 0
M  V30 923 H 87.835 1.03866 -5.97743 0
M  V30 924 H 86.574 1.21153 -4.72412 0
M  V30 925 H 85.579 -0.989464 -5.40823 0
M  V30 926 H 86.804 -1.14861 -6.69316 0
M  V30 927 H 84.75 1.08426 -6.46977 0
M  V30 928 H 84.667 -0.264198 -7.55538 0
M  V30 929 H 85.935 0.910293 -7.74167 0
M  V30 930 N 90.1641 1.46063 -0.591896 0
M  V30 931 C 91.5801 1.57561 -0.254288 0
M  V30 932 C 91.7801 1.58565 1.24336 0
M  V30 933 O 90.8361 1.50753 2.02558 0
M  V30 934 C 92.1491 2.86549 -0.911611 0
M  V30 935 C 93.6971 3.00197 -0.886059 0
M  V30 936 C 94.1721 4.31933 -1.5231 0
M  V30 937 N 95.6631 4.38654 -1.48786 0
M  V30 938 C 96.3981 5.39222 -1.95006 0
M  V30 939 N 95.8941 6.46414 -2.49241 0
M  V30 940 N 97.6871 5.3048 -1.85868 0
M  V30 941 H 89.8381 1.43655 -1.56451 0
M  V30 942 H 92.1011 0.68583 -0.654478 0
M  V30 943 H 91.8071 2.91651 -1.96551 0
M  V30 944 H 91.6811 3.74794 -0.425368 0
M  V30 945 H 94.0681 2.9467 0.159246 0
M  V30 946 H 94.1491 2.13403 -1.41041 0
M  V30 947 H 93.7931 4.38217 -2.56765 0
M  V30 948 H 93.7231 5.17516 -0.973891 0
M  V30 949 H 96.2141 3.61793 -1.09151 0
M  V30 950 H 96.5271 7.19376 -2.82344 0
M  V30 951 H 94.8721 6.47208 -2.53272 0
M  V30 952 H 98.0631 4.45643 -1.43248 0
M  V30 953 H 98.2361 6.08711 -2.22204 0
M  V30 954 N 91.6422 0.330177 1.54103 0
M  V30 955 C 92.8902 -0.269871 2.0029 0
M  V30 956 C 93.2112 -1.52133 1.21986 0
M  V30 957 O 92.4812 -1.93212 0.323438 0
M  V30 958 H 91.0612 -0.10271 0.739905 0
M  V30 959 H 93.7232 0.448249 1.89675 0
M  V30 960 H 92.8192 -0.52166 3.07709 0
M  V30 961 N 93.1203 -1.57491 0.0584922 0
M  V30 962 C 94.0673 -2.11958 -0.913376 0
M  V30 963 C 95.0373 -1.02875 -1.30407 0
M  V30 964 O 96.2223 -1.30464 -1.39226 0
M  V30 965 C 93.3623 -2.67497 -2.18035 0
M  V30 966 C 92.4753 -3.90691 -1.84349 0
M  V30 967 C 91.6103 -4.3452 -3.05559 0
M  V30 968 C 90.6493 -5.50395 -2.67827 0
M  V30 969 N 89.7863 -5.89244 -3.81754 0
M  V30 970 H 94.6263 -2.94704 -0.442017 0
M  V30 971 H 92.1633 -1.45643 -0.206545 0
M  V30 972 H 94.1213 -2.978 -2.92183 0
M  V30 973 H 92.7513 -1.87537 -2.62735 0
M  V30 974 H 91.8033 -3.66934 -1.00319 0
M  V30 975 H 93.1153 -4.7489 -1.5258 0
M  V30 976 H 92.2693 -4.66414 -3.87998 0
M  V30 977 H 91.0083 -3.49147 -3.40511 0
M  V30 978 H 90.0133 -5.18165 -1.83806 0
M  V30 979 H 91.2383 -6.3749 -2.34059 0
M  V30 980 H 89.1843 -5.06823 -4.16493 0
M  V30 981 H 89.1013 -6.68151 -3.53708 0
M  V30 982 H 90.3693 -6.25756 -4.64811 0
M  V30 983 N 94.5984 0.214957 -1.56127 0
M  V30 984 C 95.5454 1.26642 -1.92952 0
M  V30 985 C 96.5154 1.46244 -0.78753 0
M  V30 986 O 97.7004 1.59704 -1.04399 0
M  V30 987 C 94.8404 2.6104 -2.25726 0
M  V30 988 C 93.9534 2.49183 -3.52891 0
M  V30 989 C 93.0884 3.76149 -3.7508 0
M  V30 990 C 92.1274 3.59041 -4.95738 0
M  V30 991 N 91.2644 4.77972 -5.14283 0
M  V30 992 H 96.1044 0.945384 -2.82607 0
M  V30 993 H 93.6414 0.455489 -1.3987 0
M  V30 994 H 95.5994 3.39313 -2.42739 0
M  V30 995 H 94.2294 2.91227 -1.39236 0
M  V30 996 H 93.2814 1.6231 -3.44034 0
M  V30 997 H 94.5934 2.32466 -4.41318 0
M  V30 998 H 93.7474 4.62865 -3.92226 0
M  V30 999 H 92.4864 3.95799 -2.84947 0
M  V30 1000 H 91.4914 2.7071 -4.78535 0
M  V30 1001 H 92.7164 3.40856 -5.87362 0
M  V30 1002 H 90.6624 4.97923 -4.27093 0
M  V30 1003 H 90.5794 4.64006 -5.96853 0
M  V30 1004 H 91.8474 5.66096 -5.35869 0
M  V30 1005 N 96.0765 1.50051 0.48192 0
M  V30 1006 C 97.0235 1.68122 1.58125 0
M  V30 1007 C 97.9935 0.522545 1.57666 0
M  V30 1008 O 99.1785 0.751844 1.75362 0
M  V30 1009 C 96.3185 1.77142 2.96167 0
M  V30 1010 C 95.4315 3.0444 3.06497 0
M  V30 1011 C 94.5665 3.04321 4.35387 0
M  V30 1012 C 93.6055 4.26118 4.3942 0
M  V30 1013 N 92.7425 4.238 5.59766 0
M  V30 1014 H 97.5825 2.6198 1.42022 0
M  V30 1015 H 95.1195 1.29877 0.690687 0
M  V30 1016 H 97.0775 1.80352 3.76203 0
M  V30 1017 H 95.7075 0.867329 3.1093 0
M  V30 1018 H 94.7595 3.10752 2.19402 0
M  V30 1019 H 96.0715 3.94426 3.05336 0
M  V30 1020 H 95.2255 3.062 5.23762 0
M  V30 1021 H 93.9645 2.12147 4.39141 0
M  V30 1022 H 92.9695 4.24463 3.49444 0
M  V30 1023 H 94.1945 5.19507 4.37366 0
M  V30 1024 H 92.1405 3.34474 5.64326 0
M  V30 1025 H 92.0575 5.07542 5.60301 0
M  V30 1026 H 93.3255 4.2981 6.50295 0
M  V30 1027 N 97.5546 -0.734337 1.39446 0
M  V30 1028 C 98.5016 -1.84835 1.38219 0
M  V30 1029 C 99.4716 -1.64331 0.24179 0
M  V30 1030 O 100.657 -1.85728 0.437002 0
M  V30 1031 C 97.7966 -3.22355 1.23212 0
M  V30 1032 C 96.9096 -3.5456 2.46801 0
M  V30 1033 C 96.0446 -4.81485 2.24377 0
M  V30 1034 C 95.0836 -5.06536 3.43639 0
M  V30 1035 N 94.2206 -6.24665 3.20528 0
M  V30 1036 H 99.0606 -1.85219 2.33448 0
M  V30 1037 H 96.5976 -0.905039 1.15963 0
M  V30 1038 H 98.5556 -4.0174 1.12522 0
M  V30 1039 H 97.1856 -3.21248 0.316121 0
M  V30 1040 H 96.2376 -2.69872 2.68092 0
M  V30 1041 H 97.5496 -3.6899 3.3563 0
M  V30 1042 H 96.7036 -5.68852 2.10933 0
M  V30 1043 H 95.4426 -4.6923 1.32944 0
M  V30 1044 H 94.4476 -4.17632 3.5758 0
M  V30 1045 H 95.6726 -5.20676 4.35974 0
M  V30 1046 H 93.6186 -6.13696 2.3176 0
M  V30 1047 H 93.5356 -6.39685 4.02913 0
M  V30 1048 H 94.8036 -7.14868 3.10779 0
M  V30 1049 N 99.0327 -1.24633 -0.964593 0
M  V30 1050 C 100.449 -1.01239 -1.2338 0
M  V30 1051 C 100.649 0.2769 -1.99588 0
M  V30 1052 O 99.7047 0.992241 -2.32187 0
M  V30 1053 C 101.018 -2.22937 -2.01791 0
M  V30 1054 C 102.566 -2.27594 -2.14872 0
M  V30 1055 C 103.041 -3.48921 -2.96678 0
M  V30 1056 N 104.532 -3.49257 -3.04259 0
M  V30 1057 C 105.267 -4.39795 -3.67924 0
M  V30 1058 N 104.763 -5.40591 -4.33281 0
M  V30 1059 N 106.556 -4.275 -3.64966 0
M  V30 1060 H 98.7067 -2.0748 -0.454502 0
M  V30 1061 H 100.97 -0.910647 -0.26349 0
M  V30 1062 H 100.676 -3.16587 -1.53184 0
M  V30 1063 H 100.55 -2.25306 -3.02518 0
M  V30 1064 H 102.937 -1.34473 -2.6268 0
M  V30 1065 H 103.018 -2.2925 -1.13482 0
M  V30 1066 H 102.662 -4.42359 -2.49562 0
M  V30 1067 H 102.592 -3.4451 -3.98272 0
M  V30 1068 H 105.083 -2.76337 -2.57771 0
M  V30 1069 H 105.396 -6.05904 -4.79687 0
M  V30 1070 H 103.741 -5.44475 -4.3194 0
M  V30 1071 H 106.932 -3.47987 -3.13086 0
M  V30 1072 H 107.105 -4.98258 -4.14298 0
M  V30 1073 N 100.511 1.16574 -1.06058 0
M  V30 1074 C 101.759 1.86677 -0.77434 0
M  V30 1075 C 102.08 1.81959 0.701147 0
M  V30 1076 O 101.35 1.2515 1.50713 0
M  V30 1077 H 99.9298 0.691134 -0.283449 0
M  V30 1078 H 102.592 1.41378 -1.34158 0
M  V30 1079 H 101.688 2.92181 -1.09711 0
M  V30 1080 N 101.989 0.842826 1.3317 0
M  V30 1081 C 103.405 0.531128 1.50503 0
M  V30 1082 C 103.605 -0.940734 1.78192 0
M  V30 1083 O 102.661 -1.72436 1.84451 0
M  V30 1084 C 103.974 1.40789 2.65705 0
M  V30 1085 C 105.522 1.40708 2.79589 0
M  V30 1086 C 105.997 2.26878 3.97857 0
M  V30 1087 N 107.488 2.24609 4.05099 0
M  V30 1088 C 108.223 2.88019 4.95815 0
M  V30 1089 N 107.719 3.60496 5.9162 0
M  V30 1090 N 109.512 2.77469 4.88843 0
M  V30 1091 H 101.663 1.79557 1.1346 0
M  V30 1092 H 103.926 0.766267 0.558156 0
M  V30 1093 H 103.632 2.454 2.51936 0
M  V30 1094 H 103.506 1.08677 3.61205 0
M  V30 1095 H 105.893 0.368668 2.92788 0
M  V30 1096 H 105.974 1.76829 1.84838 0
M  V30 1097 H 105.618 3.3078 3.85418 0
M  V30 1098 H 105.548 1.88096 4.91861 0
M  V30 1099 H 108.039 1.71906 3.36536 0
M  V30 1100 H 108.352 4.06076 6.57512 0
M  V30 1101 H 106.697 3.64604 5.91683 0
M  V30 1102 H 109.888 2.20406 4.12963 0
M  V30 1103 H 110.061 3.2717 5.59342 0
M  V30 1104 N 103.467 -1.45747 0.599634 0
M  V30 1105 C 104.43 -2.28917 -0.113835 0
M  V30 1106 C 105.43 -1.3933 -0.802729 0
M  V30 1107 O 106.62 -1.61534 -0.652103 0
M  V30 1108 C 103.752 -3.20152 -1.17114 0
M  V30 1109 H 104.945 -2.93478 0.617289 0
M  V30 1110 H 102.498 -1.52137 0.358327 0
M  V30 1111 H 103.233 -2.60374 -1.93329 0
M  V30 1112 H 103.018 -3.86133 -0.681468 0
M  V30 1113 H 104.508 -3.82708 -1.67105 0
M  V30 1114 N 104.945 -0.338344 -1.53925 0
M  V30 1115 C 106.173 0.261298 -2.05243 0
M  V30 1116 C 106.588 1.44625 -1.21363 0
M  V30 1117 O 105.945 1.80811 -0.247736 0
M  V30 1118 C 105.996 0.681412 -3.5502 0
M  V30 1119 O 105.717 -0.456414 -4.35716 0
M  V30 1120 C 107.218 1.34232 -4.22489 0
M  V30 1121 H 104.438 0.0513685 -0.669031 0
M  V30 1122 H 106.982 -0.488822 -1.98572 0
M  V30 1123 H 105.137 1.38148 -3.61931 0
M  V30 1124 H 105.551 -0.122564 -5.24357 0
M  V30 1125 H 107.025 1.58708 -5.28693 0
M  V30 1126 H 107.502 2.29426 -3.74514 0
M  V30 1127 H 108.108 0.684424 -4.19757 0
M  V30 1128 N 106.423 1.57458 -0.0668435 0
M  V30 1129 C 107.7 1.8469 0.644132 0
M  V30 1130 C 108.08 0.958343 1.88093 0
M  V30 1131 O 107.428 0.0233579 2.28488 0
M  V30 1132 C 107.638 3.34767 0.986509 0
M  V30 1133 C 108.986 4.02159 1.36212 0
M  V30 1134 O 110.01 3.39484 1.07839 0
M  V30 1135 O 108.869 5.12694 1.89227 0
M  V30 1136 H 105.963 0.762816 0.319437 0
M  V30 1137 H 108.509 1.6942 -0.0973986 0
M  V30 1138 H 107.281 3.91151 0.107883 0
M  V30 1139 H 106.904 3.55281 1.78497 0
M  V30 1140 N 107.901 -0.206675 1.56239 0
M  V30 1141 C 109.126 -0.949474 1.8439 0
M  V30 1142 C 109.551 -1.76549 0.649016 0
M  V30 1143 O 108.909 -1.76782 -0.402231 0
M  V30 1144 C 108.957 -1.83078 3.10668 0
M  V30 1145 O 108.061 -2.9281 2.90407 0
M  V30 1146 H 107.402 -0.268033 0.607499 0
M  V30 1147 H 109.932 -0.215488 2.03462 0
M  V30 1148 H 109.942 -2.2377 3.41161 0
M  V30 1149 H 108.617 -1.23112 3.97261 0
M  V30 1150 H 107.194 -2.55956 2.71184 0
M  V30 1151 N 109.379 -1.50304 -0.473955 0
M  V30 1152 C 110.626 -1.6115 -1.22625 0
M  V30 1153 C 110.954 -0.310517 -1.92005 0
M  V30 1154 O 110.209 0.703419 -1.82621 0
M  V30 1155 C 110.508 -2.73938 -2.29549 0
M  V30 1156 C 110.174 -4.14519 -1.7744 0
M  V30 1157 C 108.836 -4.5277 -1.62949 0
M  V30 1158 C 111.188 -5.02392 -1.3875 0
M  V30 1159 C 108.516 -5.76639 -1.08187 0
M  V30 1160 C 110.868 -6.26805 -0.854309 0
M  V30 1161 C 109.532 -6.63861 -0.696011 0
M  V30 1162 H 108.802 -0.589691 -0.448715 0
M  V30 1163 H 111.449 -1.84228 -0.522705 0
M  V30 1164 H 109.754 -2.44937 -3.05799 0
M  V30 1165 H 111.451 -2.79534 -2.87509 0
M  V30 1166 H 108.041 -3.8434 -1.89685 0
M  V30 1167 H 112.225 -4.73474 -1.4878 0
M  V30 1168 H 107.481 -6.04027 -0.946666 0
M  V30 1169 H 111.655 -6.94258 -0.545843 0
M  V30 1170 H 109.282 -7.59722 -0.26952 0
M  V30 1171 N 110.857 0.726932 -1.39834 0
M  V30 1172 C 112.082 1.52121 -1.40976 0
M  V30 1173 C 112.507 1.88098 -0.00826029 0
M  V30 1174 O 111.865 1.52479 0.980807 0
M  V30 1175 C 111.913 2.78021 -2.29644 0
M  V30 1176 O 111.017 3.74272 -1.73188 0
M  V30 1177 H 110.358 0.45908 -0.479731 0
M  V30 1178 H 112.888 0.896207 -1.83927 0
M  V30 1179 H 112.898 3.26671 -2.44438 0
M  V30 1180 H 111.573 2.51169 -3.31492 0
M  V30 1181 H 110.15 3.33073 -1.6768 0
M  V30 1182 N 112.336 1.25143 0.95797 0
M  V30 1183 C 113.584 1.09476 1.69881 0
M  V30 1184 C 113.905 -0.365502 1.91544 0
M  V30 1185 O 113.175 -1.25985 1.50015 0
M  V30 1186 H 111.755 0.402128 0.629525 0
M  V30 1187 H 114.417 1.57214 1.15194 0
M  V30 1188 H 113.513 1.60046 2.6794 0
M  V30 1189 N 113.814 -1.1601 1.06675 0
M  V30 1190 C 115.23 -1.38622 0.790948 0
M  V30 1191 C 115.43 -1.92109 -0.607965 0
M  V30 1192 O 114.486 -2.12239 -1.36787 0
M  V30 1193 C 115.799 -2.36347 1.85905 0
M  V30 1194 C 117.347 -2.50023 1.88301 0
M  V30 1195 C 117.822 -3.51033 2.94176 0
M  V30 1196 N 119.313 -3.58563 2.93235 0
M  V30 1197 C 120.048 -4.36521 3.71803 0
M  V30 1198 N 119.544 -5.17869 4.602 0
M  V30 1199 N 121.337 -4.31541 3.60178 0
M  V30 1200 H 113.488 -0.796294 1.96908 0
M  V30 1201 H 115.751 -0.412597 0.853503 0
M  V30 1202 H 115.457 -2.04147 2.86386 0
M  V30 1203 H 115.331 -3.36042 1.71334 0
M  V30 1204 H 117.718 -2.81524 0.884769 0
M  V30 1205 H 117.799 -1.5035 2.06951 0
M  V30 1206 H 117.443 -3.20268 3.94196 0
M  V30 1207 H 117.373 -4.50445 2.72776 0
M  V30 1208 H 119.864 -3.00496 2.29152 0
M  V30 1209 H 120.177 -5.74578 5.16797 0
M  V30 1210 H 118.522 -5.17199 4.64253 0
M  V30 1211 H 121.713 -3.67051 2.90502 0
M  V30 1212 H 121.886 -4.9205 4.21653 0
M  V30 1213 N 115.292 -0.849877 -1.32721 0
M  V30 1214 C 116.539 -0.450923 -1.97416 0
M  V30 1215 C 116.867 0.992376 -1.67279 0
M  V30 1216 O 116.122 1.71048 -0.950845 0
M  V30 1217 C 116.421 -0.631272 -3.51781 0
M  V30 1218 C 116.087 -2.04432 -4.01894 0
M  V30 1219 C 114.749 -2.4308 -4.1529 0
M  V30 1220 C 117.101 -2.96679 -4.28522 0
M  V30 1221 C 114.429 -3.73257 -4.52654 0
M  V30 1222 C 116.781 -4.26349 -4.67343 0
M  V30 1223 C 115.445 -4.64939 -4.78945 0
M  V30 1224 H 114.715 -0.165004 -0.722395 0
M  V30 1225 H 117.362 -1.07901 -1.58207 0
M  V30 1226 H 115.667 0.0800767 -3.91718 0
M  V30 1227 H 117.364 -0.302709 -3.99856 0
M  V30 1228 H 113.954 -1.73419 -3.91949 0
M  V30 1229 H 118.138 -2.68054 -4.17685 0
M  V30 1230 H 113.394 -4.02946 -4.59831 0
M  V30 1231 H 117.568 -4.97895 -4.86902 0
M  V30 1232 H 115.195 -5.65855 -5.07654 0
M  V30 1233 N 116.77 1.45427 -0.607355 0
M  V30 1234 C 117.68 2.34325 0.113463 0
M  V30 1235 C 118.696 1.51226 0.860617 0
M  V30 1236 O 119.872 1.84029 0.818255 0
M  V30 1237 C 116.937 3.28839 1.09844 0
M  V30 1238 C 115.998 4.27844 0.353271 0
M  V30 1239 C 115.231 5.17842 1.29133 0
M  V30 1240 O 115.454 5.11264 2.52913 0
M  V30 1241 O 114.388 5.96713 0.788523 0
M  V30 1242 H 118.214 2.97364 -0.617094 0
M  V30 1243 H 115.799 1.44807 -0.367619 0
M  V30 1244 H 117.681 3.8708 1.66575 0
M  V30 1245 H 116.356 2.68365 1.81003 0
M  V30 1246 H 115.263 3.7322 -0.256494 0
M  V30 1247 H 116.596 4.91173 -0.317822 0
M  V30 1248 N 118.248 0.346503 1.53744 0
M  V30 1249 C 119.525 -0.304532 1.93215 0
M  V30 1250 C 119.905 -1.67993 1.27834 0
M  V30 1251 O 119.253 -2.24411 0.430352 0
M  V30 1252 C 119.463 -0.373852 3.46992 0
M  V30 1253 C 120.811 -0.62329 4.2 0
M  V30 1254 O 121.835 -0.455847 3.53271 0
M  V30 1255 O 120.694 -0.947879 5.38217 0
M  V30 1256 H 117.788 -0.178318 0.807547 0
M  V30 1257 H 120.334 0.397895 1.64969 0
M  V30 1258 H 119.106 0.591224 3.86808 0
M  V30 1259 H 118.729 -1.12294 3.81413 0
M  V30 1260 N 119.726 -1.57421 0.075193 0
M  V30 1261 C 120.972 -1.93905 -0.594025 0
M  V30 1262 C 121.305 -0.955701 -1.69056 0
M  V30 1263 O 120.58 0.0145373 -1.94495 0
M  V30 1264 C 120.863 -3.40638 -1.1678 0
M  V30 1265 C 120.716 -4.49733 -0.0776792 0
M  V30 1266 C 122.035 -3.88259 -2.07228 0
M  V30 1267 H 119.154 -0.705105 -0.214466 0
M  V30 1268 H 121.796 -1.8947 0.141854 0
M  V30 1269 H 119.946 -3.44549 -1.79494 0
M  V30 1270 H 121.618 -4.57942 0.555573 0
M  V30 1271 H 119.861 -4.29751 0.591286 0
M  V30 1272 H 120.532 -5.49549 -0.519603 0
M  V30 1273 H 123.008 -3.86376 -1.54445 0
M  V30 1274 H 121.884 -4.91533 -2.44308 0
M  V30 1275 H 122.145 -3.26396 -2.98191 0
M  V30 1276 N 121.204 0.198386 -1.56346 0
M  V30 1277 C 122.434 0.934215 -1.84271 0
M  V30 1278 C 122.842 1.77496 -0.655125 0
M  V30 1279 O 122.185 1.7961 0.385488 0
M  V30 1280 C 122.247 1.88278 -3.06254 0
M  V30 1281 C 121.911 1.22431 -4.40295 0
M  V30 1282 C 122.908 0.602839 -5.16393 0
M  V30 1283 C 120.593 1.22915 -4.87029 0
M  V30 1284 C 122.587 -0.0050083 -6.374 0
M  V30 1285 C 120.274 0.617465 -6.07973 0
M  V30 1286 C 121.272 0.00146341 -6.83 0
M  V30 1287 O 120.96 -0.600642 -8.01653 0
M  V30 1288 H 120.692 0.278245 -0.616081 0
M  V30 1289 H 123.246 0.211626 -2.04307 0
M  V30 1290 H 121.476 2.64498 -2.82095 0
M  V30 1291 H 123.165 2.48612 -3.20853 0
M  V30 1292 H 123.931 0.591265 -4.81382 0
M  V30 1293 H 119.81 1.69801 -4.28589 0
M  V30 1294 H 123.354 -0.48643 -6.95902 0
M  V30 1295 H 119.251 0.62653 -6.42452 0
M  V30 1296 H 120.019 -0.497225 -8.16988 0
M  V30 1297 N 122.682 1.50554 0.465978 0
M  V30 1298 C 123.614 1.65949 1.58093 0
M  V30 1299 C 124.627 0.540827 1.53554 0
M  V30 1300 O 125.816 0.814187 1.5885 0
M  V30 1301 C 122.916 1.63261 2.96983 0
M  V30 1302 C 122.089 2.91245 3.26336 0
M  V30 1303 C 121.148 2.8113 4.44806 0
M  V30 1304 O 120.174 3.55086 4.44862 0
M  V30 1305 N 121.376 1.95032 5.46756 0
M  V30 1306 H 124.141 2.62122 1.45301 0
M  V30 1307 H 121.702 1.48082 0.65448 0
M  V30 1308 H 123.694 1.54101 3.74212 0
M  V30 1309 H 122.264 0.748032 3.03518 0
M  V30 1310 H 121.484 3.14493 2.37672 0
M  V30 1311 H 122.772 3.76022 3.42761 0
M  V30 1312 H 122.17 1.3427 5.49534 0
M  V30 1313 H 120.727 1.91772 6.2295 0
M  V30 1314 N 124.16 -0.719506 1.40217 0
M  V30 1315 C 125.09 -1.8465 1.42922 0
M  V30 1316 C 126.071 -1.67599 0.29062 0
M  V30 1317 O 127.256 -1.87688 0.498677 0
M  V30 1318 C 124.386 -3.22565 1.28722 0
M  V30 1319 C 123.34 -3.54281 2.40144 0
M  V30 1320 C 122.666 -4.91298 2.11023 0
M  V30 1321 C 123.966 -3.55676 3.82481 0
M  V30 1322 H 125.66 -1.82644 2.37237 0
M  V30 1323 H 123.206 -0.877305 1.1419 0
M  V30 1324 H 125.159 -4.01095 1.29232 0
M  V30 1325 H 123.883 -3.25137 0.308811 0
M  V30 1326 H 122.542 -2.78088 2.38877 0
M  V30 1327 H 122.19 -4.90468 1.11582 0
M  V30 1328 H 121.89 -5.13485 2.8567 0
M  V30 1329 H 123.414 -5.72166 2.13209 0
M  V30 1330 H 124.828 -4.24254 3.85592 0
M  V30 1331 H 123.225 -3.89388 4.56614 0
M  V30 1332 H 124.295 -2.55144 4.12346 0
M  V30 1333 N 125.638 -1.25649 -0.95132 0
M  V30 1334 C 126.57 -1.02112 -2.05197 0
M  V30 1335 C 127.583 0.0150571 -1.62793 0
M  V30 1336 O 128.772 -0.223874 -1.77091 0
M  V30 1337 C 125.872 -0.522361 -3.3485 0
M  V30 1338 C 125.045 -1.62546 -4.06076 0
M  V30 1339 C 124.104 -1.12649 -5.14001 0
M  V30 1340 O 123.13 -1.82156 -5.39266 0
M  V30 1341 N 124.332 0.03047 -5.80492 0
M  V30 1342 H 127.097 -1.96885 -2.25957 0
M  V30 1343 H 124.658 -1.16899 -1.1201 0
M  V30 1344 H 126.65 -0.172961 -4.0433 0
M  V30 1345 H 125.22 0.33151 -3.10837 0
M  V30 1346 H 124.44 -2.14628 -3.30649 0
M  V30 1347 H 125.728 -2.36644 -4.50419 0
M  V30 1348 H 125.126 0.611169 -5.62389 0
M  V30 1349 H 123.683 0.320875 -6.5101 0
M  V30 1350 N 127.117 1.15442 -1.07289 0
M  V30 1351 C 128.027 2.23786 -0.704057 0
M  V30 1352 C 129.043 1.7166 0.284413 0
M  V30 1353 O 130.219 2.00972 0.131205 0
M  V30 1354 C 127.284 3.46535 -0.106792 0
M  V30 1355 C 126.345 4.13654 -1.14842 0
M  V30 1356 C 125.578 5.30544 -0.57956 0
M  V30 1357 O 125.801 5.67187 0.604585 0
M  V30 1358 O 124.735 5.87154 -1.32414 0
M  V30 1359 H 128.561 2.57664 -1.60757 0
M  V30 1360 H 126.146 1.23152 -0.845803 0
M  V30 1361 H 128.028 4.20804 0.224048 0
M  V30 1362 H 126.703 3.14407 0.770049 0
M  V30 1363 H 125.61 3.4131 -1.5316 0
M  V30 1364 H 126.943 4.49861 -1.99714 0
M  V30 1365 N 128.595 0.856903 1.32268 0
M  V30 1366 C 129.872 0.382583 1.91822 0
M  V30 1367 C 130.252 -1.13407 1.78051 0
M  V30 1368 O 129.6 -1.95673 1.18001 0
M  V30 1369 C 129.81 0.849446 3.38505 0
M  V30 1370 C 131.158 0.867936 4.15634 0
M  V30 1371 O 132.182 0.794232 3.47232 0
M  V30 1372 O 131.041 0.972286 5.37781 0
M  V30 1373 H 128.135 0.112014 0.819379 0
M  V30 1374 H 130.681 0.943952 1.41024 0
M  V30 1375 H 129.453 1.89267 3.42482 0
M  V30 1376 H 129.076 0.265652 3.96712 0
M  V30 1377 N 130.073 -1.45103 0.615059 0
M  V30 1378 C 131.319 -2.02483 0.113347 0
M  V30 1379 C 131.652 -1.48146 -1.25564 0
M  V30 1380 O 130.927 -0.659104 -1.82992 0
M  V30 1381 C 131.21 -3.60005 0.0825278 0
M  V30 1382 C 131.063 -4.2466 1.48271 0
M  V30 1383 C 132.382 -4.35972 -0.601401 0
M  V30 1384 H 129.501 -0.735764 0.0426632 0
M  V30 1385 H 132.143 -1.72868 0.788461 0
M  V30 1386 H 130.293 -3.85367 -0.492378 0
M  V30 1387 H 131.965 -4.10458 2.10527 0
M  V30 1388 H 130.208 -3.82772 2.04127 0
M  V30 1389 H 130.879 -5.336 1.41332 0
M  V30 1390 H 133.355 -4.15947 -0.112666 0
M  V30 1391 H 132.231 -5.45697 -0.592097 0
M  V30 1392 H 132.492 -4.09391 -1.66887 0
M  V30 1393 N 131.551 -0.354651 -1.53558 0
M  V30 1394 C 132.481 0.489091 -2.2832 0
M  V30 1395 C 133.462 1.09324 -1.30316 0
M  V30 1396 O 134.647 1.11255 -1.59173 0
M  V30 1397 C 131.777 1.63456 -3.0643 0
M  V30 1398 C 130.731 1.1582 -4.12031 0
M  V30 1399 C 130.057 2.39305 -4.7816 0
M  V30 1400 C 131.357 0.250731 -5.21698 0
M  V30 1401 H 133.051 -0.134614 -2.99097 0
M  V30 1402 H 130.597 -0.0661826 -1.43848 0
M  V30 1403 H 132.55 2.23136 -3.57475 0
M  V30 1404 H 131.274 2.28533 -2.33325 0
M  V30 1405 H 129.933 0.584146 -3.61916 0
M  V30 1406 H 129.581 3.02814 -4.01637 0
M  V30 1407 H 129.281 2.08109 -5.49513 0
M  V30 1408 H 130.805 2.99691 -5.31994 0
M  V30 1409 H 132.219 0.754695 -5.68311 0
M  V30 1410 H 130.616 0.0301468 -6.00092 0
M  V30 1411 H 131.686 -0.710125 -4.79672 0
M  V30 1412 N 133.029 1.57378 -0.0835403 0
M  V30 1413 C 134.277 1.93547 0.581718 0
M  V30 1414 C 134.598 0.96524 1.69435 0
M  V30 1415 O 133.868 0.0153369 1.95894 0
M  V30 1416 H 132.448 0.714521 0.217874 0
M  V30 1417 H 135.11 1.94366 -0.144158 0
M  V30 1418 H 134.206 2.95665 0.999423 0
M  V30 1419 N 134.507 -0.190092 1.56449 0
M  V30 1420 C 135.417 -1.25591 1.98152 0
M  V30 1421 C 136.433 -1.49519 0.889944 0
M  V30 1422 O 137.609 -1.62036 1.19609 0
M  V30 1423 C 134.674 -2.57916 2.3169 0
M  V30 1424 C 133.735 -2.42015 3.5458 0
M  V30 1425 C 132.968 -3.6803 3.8651 0
M  V30 1426 O 133.191 -4.72413 3.1966 0
M  V30 1427 O 132.125 -3.6326 4.79923 0
M  V30 1428 H 135.951 -0.931988 2.89046 0
M  V30 1429 H 133.536 -0.395488 1.4407 0
M  V30 1430 H 135.418 -3.36008 2.54316 0
M  V30 1431 H 134.093 -2.89925 1.43963 0
M  V30 1432 H 133 -1.62017 3.37196 0
M  V30 1433 H 134.333 -2.14937 4.4279 0
M  V30 1434 N 135.985 -1.50799 -0.457987 0
M  V30 1435 C 137.233 -1.62121 -1.2067 0
M  V30 1436 C 137.554 -0.329793 -1.92191 0
M  V30 1437 O 136.824 0.653409 -1.84682 0
M  V30 1438 H 135.404 -0.597441 -0.448411 0
M  V30 1439 H 138.066 -1.87637 -0.527096 0
M  V30 1440 H 137.162 -2.43882 -1.94751 0
M  V30 1441 N 137.463 0.71206 -1.40597 0
M  V30 1442 C 138.426 1.80785 -1.40888 0
M  V30 1443 C 139.426 1.57937 -0.302103 0
M  V30 1444 O 140.616 1.64913 -0.561182 0
M  V30 1445 C 137.748 3.18927 -1.20409 0
M  V30 1446 H 138.941 1.81924 -2.38419 0
M  V30 1447 H 136.494 0.91805 -1.26497 0
M  V30 1448 H 137.229 3.23436 -0.236522 0
M  V30 1449 H 137.014 3.36911 -2.00582 0
M  V30 1450 H 138.504 3.98949 -1.23408 0
M  V30 1451 N 138.941 1.26152 0.944643 0
M  V30 1452 C 139.891 1.04081 2.02857 0
M  V30 1453 C 140.875 -0.0256555 1.6088 0
M  V30 1454 O 142.067 0.190884 1.75968 0
M  V30 1455 C 139.196 0.672118 3.36656 0
M  V30 1456 C 138.282 1.77586 3.85128 0
M  V30 1457 N 138.673 3.01272 4.06287 0
M  V30 1458 C 136.971 1.65867 4.1401 0
M  V30 1459 C 137.672 3.72983 4.46384 0
M  V30 1460 N 136.648 3.00653 4.52889 0
M  V30 1461 H 140.45 1.97968 2.17223 0
M  V30 1462 H 137.964 1.16618 1.13022 0
M  V30 1463 H 139.961 0.495166 4.13949 0
M  V30 1464 H 138.621 -0.259307 3.23663 0
M  V30 1465 H 139.632 3.37213 3.93075 0
M  V30 1466 H 136.309 0.796907 4.09824 0
M  V30 1467 H 137.699 4.792 4.70975 0
M  V30 1468 N 140.419 -1.14872 1.07899 0
M  V30 1469 C 141.382 -2.17986 0.708161 0
M  V30 1470 C 142.382 -1.58775 -0.25442 0
M  V30 1471 O 143.572 -1.74166 -0.034645 0
M  V30 1472 C 140.704 -3.40871 0.0446929 0
M  V30 1473 H 141.897 -2.52306 1.62116 0
M  V30 1474 H 139.45 -1.2943 0.876218 0
M  V30 1475 H 140.185 -3.12124 -0.880281 0
M  V30 1476 H 139.97 -3.8511 0.737091 0
M  V30 1477 H 141.46 -4.17121 -0.19991 0
M  V30 1478 N 141.898 -0.863906 -1.31812 0
M  V30 1479 C 143.314 -0.555004 -1.49639 0
M  V30 1480 C 143.514 0.912266 -1.79666 0
M  V30 1481 O 142.57 1.69479 -1.87171 0
M  V30 1482 C 143.883 -1.44998 -2.63431 0
M  V30 1483 C 145.431 -1.45138 -2.77316 0
M  V30 1484 C 145.906 -2.33179 -3.94197 0
M  V30 1485 N 147.397 -2.31025 -4.01474 0
M  V30 1486 C 148.132 -2.95871 -4.9117 0
M  V30 1487 N 147.628 -3.69863 -5.8581 0
M  V30 1488 N 149.421 -2.85211 -4.84367 0
M  V30 1489 H 141.572 -1.81339 -1.10589 0
M  V30 1490 H 143.835 -0.77505 -0.545895 0
M  V30 1491 H 143.541 -2.49377 -2.48 0
M  V30 1492 H 143.415 -1.14409 -3.59431 0
M  V30 1493 H 145.802 -0.415201 -2.92164 0
M  V30 1494 H 145.883 -1.79747 -1.82001 0
M  V30 1495 H 145.527 -3.3687 -3.80107 0
M  V30 1496 H 145.457 -1.95897 -4.88807 0
M  V30 1497 H 147.948 -1.77238 -3.33759 0
M  V30 1498 H 148.261 -4.16486 -6.50968 0
M  V30 1499 H 146.606 -3.73971 -5.85808 0
M  V30 1500 H 149.797 -2.26948 -4.09405 0
M  V30 1501 H 149.97 -3.36027 -5.54066 0
M  V30 1502 N 143.376 1.44774 -0.622745 0
M  V30 1503 C 144.622 2.0242 -0.124083 0
M  V30 1504 C 144.955 1.4881 1.24777 0
M  V30 1505 O 144.23 0.668799 1.8264 0
M  V30 1506 C 144.513 3.59957 -0.101619 0
M  V30 1507 C 144.366 4.23867 -1.50521 0
M  V30 1508 C 145.685 4.36284 0.578272 0
M  V30 1509 H 142.804 0.735528 -0.0465645 0
M  V30 1510 H 145.446 1.72447 -0.797617 0
M  V30 1511 H 143.596 3.85623 0.471934 0
M  V30 1512 H 145.268 4.09336 -2.12701 0
M  V30 1513 H 143.511 3.81684 -2.06154 0
M  V30 1514 H 144.182 5.32843 -1.4416 0
M  V30 1515 H 146.658 4.16001 0.0906057 0
M  V30 1516 H 145.534 5.46004 0.563149 0
M  V30 1517 H 145.795 4.10271 1.64713 0
M  V30 1518 N 144.854 0.36279 1.53368 0
M  V30 1519 C 145.786 -0.519668 2.23231 0
M  V30 1520 C 146.799 -1.04844 1.24546 0
M  V30 1521 O 147.988 -0.955296 1.50786 0
M  V30 1522 C 145.088 -1.72995 2.9142 0
M  V30 1523 C 144.261 -1.33316 4.16588 0
M  V30 1524 C 143.32 -2.40521 4.68013 0
M  V30 1525 O 142.346 -2.03027 5.3176 0
M  V30 1526 N 143.548 -3.72065 4.45587 0
M  V30 1527 H 146.313 0.078751 2.99597 0
M  V30 1528 H 143.874 0.187833 1.60807 0
M  V30 1529 H 145.866 -2.44184 3.22733 0
M  V30 1530 H 144.436 -2.2353 2.18525 0
M  V30 1531 H 143.656 -0.451236 3.91609 0
M  V30 1532 H 144.944 -1.04432 4.97967 0
M  V30 1533 H 144.342 -4.05304 3.94646 0
M  V30 1534 H 142.899 -4.39366 4.81457 0
M  V30 1535 N 146.332 -1.57332 0.0918853 0
M  V30 1536 C 147.56 -1.98574 -0.581048 0
M  V30 1537 C 147.975 -0.970903 -1.61923 0
M  V30 1538 O 147.332 0.0399054 -1.82456 0
M  V30 1539 C 147.383 -3.39872 -1.23164 0
M  V30 1540 O 147.104 -4.37469 -0.234989 0
M  V30 1541 C 148.605 -3.96099 -1.99049 0
M  V30 1542 H 145.825 -0.65261 -0.156018 0
M  V30 1543 H 148.369 -2.0379 0.170225 0
M  V30 1544 H 146.524 -3.35679 -1.93386 0
M  V30 1545 H 146.938 -5.19751 -0.70418 0
M  V30 1546 H 148.412 -4.97127 -2.39934 0
M  V30 1547 H 148.889 -3.3374 -2.85507 0
M  V30 1548 H 149.495 -4.03755 -1.3365 0
M  V30 1549 N 147.81 0.181792 -1.56548 0
M  V30 1550 C 149.05 0.906711 -1.83189 0
M  V30 1551 C 149.414 1.79882 -0.671312 0
M  V30 1552 O 150.615 2.56054 -0.81792 0
M  V30 1553 C 148.886 1.69023 -3.14906 0
M  V30 1554 S 150.445 2.46535 -3.62996 0
M  V30 1555 H 147.263 0.303877 -0.642791 0
M  V30 1556 H 149.865 0.169107 -1.94767 0
M  V30 1557 H 148.569 1.02571 -3.97376 0
M  V30 1558 H 148.1 2.46941 -3.06241 0
M  V30 1559 H 150.115 3.71014 -3.29489 0
M  V30 1560 N 149.288 1.51039 0.449983 0
M  V30 1561 C 150.537 1.62317 1.19733 0
M  V30 1562 C 150.85 0.339101 1.92638 0
M  V30 1563 O 152.056 0.331069 2.69474 0
M  V30 1564 C 150.512 2.86608 2.17678 0
M  V30 1565 C 150.12 4.21972 1.50479 0
M  V30 1566 C 151.864 3.07239 2.92924 0
M  V30 1567 C 149.771 5.37426 2.46834 0
M  V30 1568 H 148.701 0.604532 0.450619 0
M  V30 1569 H 151.352 1.77494 0.465625 0
M  V30 1570 H 149.734 2.65037 2.94231 0
M  V30 1571 H 150.908 4.53878 0.795716 0
M  V30 1572 H 149.223 4.07117 0.874344 0
M  V30 1573 H 151.82 3.90668 3.65079 0
M  V30 1574 H 152.163 2.19807 3.5354 0
M  V30 1575 H 152.696 3.29091 2.23481 0
M  V30 1576 H 149.435 6.27079 1.90926 0
M  V30 1577 H 148.955 5.09912 3.15832 0
M  V30 1578 H 150.634 5.68862 3.08228 0
M  V30 1579 N 150.766 -0.704594 1.40972 0
M  V30 1580 C 151.714 -1.83994 1.42299 0
M  V30 1581 C 152.708 -1.66684 0.302111 0
M  V30 1582 O 153.914 -1.73655 0.473697 0
M  V30 1583 H 150.289 -0.606171 0.44504 0
M  V30 1584 H 152.26 -1.79992 2.38003 0
M  V30 1585 C 151.009 -3.21946 1.31323 0
M  V30 1586 H 150.332 -3.35878 2.16855 0
M  V30 1587 H 151.772 -4.01491 1.36311 0
M  V30 1588 C 150.231 -3.36891 0.0245977 0
M  V30 1589 O 150.761 -3.90687 -0.934153 0
M  V30 1590 N 148.967 -2.90559 -0.0485243 0
M  V30 1591 H 148.514 -2.46968 0.732419 0
M  V30 1592 H 148.472 -3.00937 -0.910171 0
M  V30 1593 N 152.244 -1.26651 -0.937939 0
M  V30 1594 C 153.174 -1.10993 -2.05433 0
M  V30 1595 C 154.155 -0.0142161 -1.70094 0
M  V30 1596 O 155.34 -0.186837 -1.93299 0
M  V30 1597 C 152.47 -0.745561 -3.39203 0
M  V30 1598 C 151.424 -1.79337 -3.88616 0
M  V30 1599 C 150.75 -1.28324 -5.19073 0
M  V30 1600 C 152.05 -3.19553 -4.13138 0
M  V30 1601 H 153.744 -2.0438 -2.1879 0
M  V30 1602 H 151.29 -0.984041 -1.05131 0
M  V30 1603 H 153.243 -0.622888 -4.16771 0
M  V30 1604 H 151.967 0.22401 -3.25831 0
M  V30 1605 H 150.626 -1.90477 -3.13231 0
M  V30 1606 H 150.274 -0.303414 -5.02084 0
M  V30 1607 H 149.974 -1.98369 -5.53103 0
M  V30 1608 H 151.498 -1.1733 -5.99221 0
M  V30 1609 H 152.912 -3.11471 -4.81309 0
M  V30 1610 H 151.309 -3.87218 -4.58457 0
M  V30 1611 H 152.379 -3.65368 -3.18801 0
M  V30 1612 N 153.722 1.14298 -1.08507 0
M  V30 1613 C 154.971 1.84708 -0.810305 0
M  V30 1614 C 155.284 1.83903 0.666271 0
M  V30 1615 O 156.49 2.50112 1.05624 0
M  V30 1616 C 154.946 3.31572 -1.39957 0
M  V30 1617 C 154.554 3.40791 -2.90801 0
M  V30 1618 C 156.298 4.07087 -1.20334 0
M  V30 1619 C 154.205 4.81872 -3.4286 0
M  V30 1620 H 153.135 0.691985 -0.299454 0
M  V30 1621 H 155.786 1.28841 -1.30661 0
M  V30 1622 H 154.168 3.87183 -0.830976 0
M  V30 1623 H 155.342 2.95225 -3.53806 0
M  V30 1624 H 153.657 2.78732 -3.0935 0
M  V30 1625 H 156.254 5.11225 -1.56693 0
M  V30 1626 H 156.597 4.16054 -0.143237 0
M  V30 1627 H 157.13 3.57779 -1.73893 0
M  V30 1628 H 153.869 4.78094 -4.48449 0
M  V30 1629 H 153.389 5.27972 -2.84615 0
M  V30 1630 H 155.068 5.50765 -3.39509 0
M  V30 1631 N 155.201 0.870884 1.31352 0
M  V30 1632 C 156.429 0.49677 2.00848 0
M  V30 1633 C 156.844 -0.910998 1.65367 0
M  V30 1634 O 156.201 -1.59696 0.883374 0
M  V30 1635 C 156.252 0.645308 3.55694 0
M  V30 1636 O 155.973 1.99764 3.89905 0
M  V30 1637 C 157.474 0.272326 4.42463 0
M  V30 1638 H 154.694 0.193462 0.642506 0
M  V30 1639 H 157.238 1.1723 1.67563 0
M  V30 1640 H 155.393 0.0173176 3.87396 0
M  V30 1641 H 155.807 2.00607 4.84621 0
M  V30 1642 H 157.281 0.427208 5.50344 0
M  V30 1643 H 157.758 -0.788587 4.32062 0
M  V30 1644 H 158.364 0.876054 4.1618 0
M  V30 1645 N 156.679 -1.44442 0.630414 0
M  V30 1646 C 157.904 -2.06927 0.139944 0
M  V30 1647 C 158.329 -1.46795 -1.17613 0
M  V30 1648 O 157.687 -0.569144 -1.72135 0
M  V30 1649 C 157.735 -3.6058 0.0379581 0
M  V30 1650 O 156.839 -3.99937 -1.0062 0
M  V30 1651 H 156.18 -0.658608 0.0844483 0
M  V30 1652 H 158.71 -1.85327 0.866891 0
M  V30 1653 H 158.72 -4.07714 -0.152856 0
M  V30 1654 H 157.395 -4.03728 0.998809 0
M  V30 1655 H 155.972 -3.64436 -0.79001 0
M  V30 1656 N 158.157 -0.370918 -1.53173 0
M  V30 1657 C 159.089 0.507823 -2.23503 0
M  V30 1658 C 160.102 1.04182 -1.251 0
M  V30 1659 O 161.291 0.947286 -1.5129 0
M  V30 1660 C 158.391 1.71447 -2.92334 0
M  V30 1661 C 157.564 1.31105 -4.17289 0
M  V30 1662 C 156.623 2.38035 -4.69282 0
M  V30 1663 O 155.649 2.00204 -5.32829 0
M  V30 1664 N 156.851 3.69697 -4.47554 0
M  V30 1665 H 159.616 -0.0946382 -2.99551 0
M  V30 1666 H 157.177 -0.196358 -1.60705 0
M  V30 1667 H 159.169 2.42469 -3.24023 0
M  V30 1668 H 157.739 2.22368 -2.19707 0
M  V30 1669 H 156.959 0.430462 -3.91843 0
M  V30 1670 H 158.247 1.0179 -4.98514 0
M  V30 1671 H 157.645 4.03205 -3.9679 0
M  V30 1672 H 156.202 4.36807 -4.8378 0
M  V30 1673 N 159.635 1.57281 -0.100228 0
M  V30 1674 C 160.545 2.17833 0.870965 0
M  V30 1675 C 161.561 1.14921 1.30649 0
M  V30 1676 O 162.737 1.47313 1.37335 0
M  V30 1677 C 159.802 2.75085 2.1102 0
M  V30 1678 C 158.863 3.9297 1.72838 0
M  V30 1679 C 158.096 4.47482 2.90854 0
M  V30 1680 O 158.319 4.00922 4.05731 0
M  V30 1681 O 157.253 5.38433 2.69023 0
M  V30 1682 H 161.079 3.0124 0.38575 0
M  V30 1683 H 158.664 1.48881 0.124397 0
M  V30 1684 H 160.546 3.11656 2.83634 0
M  V30 1685 H 159.221 1.94721 2.58584 0
M  V30 1686 H 158.128 3.61201 0.973883 0
M  V30 1687 H 159.461 4.74713 1.30033 0
M  V30 1688 N 161.113 -0.173488 1.56642 0
M  V30 1689 C 162.343 -0.904781 1.85734 0
M  V30 1690 C 162.751 -1.76431 0.68328 0
M  V30 1691 O 162.094 -1.802 -0.356865 0
M  V30 1692 C 162.156 -1.83382 3.09211 0
M  V30 1693 C 161.82 -1.15411 4.42187 0
M  V30 1694 C 162.817 -0.520609 5.17287 0
M  V30 1695 C 160.502 -1.15151 4.88923 0
M  V30 1696 C 162.496 0.106412 6.37311 0
M  V30 1697 C 160.183 -0.520664 6.08878 0
M  V30 1698 C 161.181 0.107196 6.82916 0
M  V30 1699 O 160.869 0.728102 8.00596 0
M  V30 1700 H 160.601 -0.268408 0.62043 0
M  V30 1701 H 163.155 -0.179096 2.04618 0
M  V30 1702 H 161.385 -2.59976 2.86268 0
M  V30 1703 H 163.074 -2.43476 3.24768 0
M  V30 1704 H 163.84 -0.514606 4.82262 0
M  V30 1705 H 159.719 -1.62961 4.31236 0
M  V30 1706 H 163.263 0.597081 6.9504 0
M  V30 1707 H 159.16 -0.524242 6.43368 0
M  V30 1708 H 159.928 0.627138 8.16094 0
M  V30 1709 N 162.591 -1.51276 -0.441967 0
M  V30 1710 C 163.554 -1.7167 -1.51862 0
M  V30 1711 C 164.554 -0.586793 -1.49711 0
M  V30 1712 O 165.744 -0.854276 -1.51815 0
M  V30 1713 C 162.876 -1.76889 -2.91416 0
M  V30 1714 H 164.069 -2.67754 -1.35084 0
M  V30 1715 H 161.622 -1.41196 -0.670333 0
M  V30 1716 H 162.357 -0.826026 -3.13604 0
M  V30 1717 H 162.142 -2.59001 -2.94382 0
M  V30 1718 H 163.632 -1.94522 -3.69528 0
M  V30 1719 N 164.069 0.697108 -1.41344 0
M  V30 1720 C 165.315 1.4593 -1.40827 0
M  V30 1721 C 165.648 1.94193 -0.0167098 0
M  V30 1722 O 164.923 1.69425 0.955263 0
M  V30 1723 C 165.206 2.67229 -2.41373 0
M  V30 1724 C 165.059 2.24741 -3.8963 0
M  V30 1725 C 166.378 3.69423 -2.39196 0
M  V30 1726 H 163.497 0.529303 -0.512842 0
M  V30 1727 H 166.139 0.794112 -1.72609 0
M  V30 1728 H 164.289 3.23982 -2.14401 0
M  V30 1729 H 165.961 1.73327 -4.27499 0
M  V30 1730 H 164.204 1.56542 -4.0457 0
M  V30 1731 H 164.875 3.1177 -4.55525 0
M  V30 1732 H 167.351 3.2234 -2.63128 0
M  V30 1733 H 166.227 4.51907 -3.11563 0
M  V30 1734 H 166.488 4.19012 -1.41001 0
M  V30 1735 N 165.547 1.27147 0.931209 0
M  V30 1736 C 166.494 1.09568 2.03134 0
M  V30 1737 C 167.464 -0.00222433 1.661 0
M  V30 1738 O 168.649 0.159439 1.90133 0
M  V30 1739 C 165.789 0.745231 3.36957 0
M  V30 1740 C 164.902 1.92041 3.86968 0
M  V30 1741 C 164.037 1.51216 5.09222 0
M  V30 1742 C 163.076 2.65504 5.5152 0
M  V30 1743 N 162.213 2.25291 6.64972 0
M  V30 1744 H 167.053 2.03708 2.17502 0
M  V30 1745 H 164.59 1.01411 1.06556 0
M  V30 1746 H 166.548 0.522878 4.1391 0
M  V30 1747 H 165.178 -0.159202 3.22407 0
M  V30 1748 H 164.23 2.25541 3.06326 0
M  V30 1749 H 165.542 2.77787 4.1429 0
M  V30 1750 H 164.696 1.25084 5.93666 0
M  V30 1751 H 163.435 0.625749 4.83669 0
M  V30 1752 H 162.44 2.92354 4.65628 0
M  V30 1753 H 163.665 3.54761 5.7907 0
M  V30 1754 H 161.611 1.39098 6.41083 0
M  V30 1755 H 161.528 3.04577 6.91931 0
M  V30 1756 H 162.796 2.02398 7.52765 0
M  V30 1757 N 167.025 -1.13721 1.09112 0
M  V30 1758 C 168.274 -1.84275 0.82009 0
M  V30 1759 C 168.587 -1.84253 -0.656509 0
M  V30 1760 O 169.793 -2.50668 -1.04296 0
M  V30 1761 C 168.249 -3.30825 1.41714 0
M  V30 1762 C 167.857 -3.39244 2.92605 0
M  V30 1763 C 169.601 -4.06443 1.22492 0
M  V30 1764 C 167.508 -4.80047 3.45411 0
M  V30 1765 H 166.438 -0.690387 0.30312 0
M  V30 1766 H 169.089 -1.28146 1.31343 0
M  V30 1767 H 167.471 -3.86737 0.851498 0
M  V30 1768 H 168.645 -2.93344 3.55367 0
M  V30 1769 H 166.96 -2.77088 3.10823 0
M  V30 1770 H 169.557 -5.10387 1.59402 0
M  V30 1771 H 169.9 -4.15972 0.165299 0
M  V30 1772 H 170.433 -3.56852 1.75788 0
M  V30 1773 H 167.172 -4.75709 4.50978 0
M  V30 1774 H 166.692 -5.26455 2.87411 0
M  V30 1775 H 168.371 -5.48957 3.42425 0
M  V30 1776 N 168.503 -0.877838 -1.30888 0
M  V30 1777 C 169.752 -0.488793 -1.95688 0
M  V30 1778 C 170.065 0.965485 -1.70111 0
M  V30 1779 O 171.271 1.46104 -2.28836 0
M  V30 1780 C 169.727 -0.823201 -3.50359 0
M  V30 1781 C 169.335 -2.29477 -3.84765 0
M  V30 1782 C 171.079 -0.503009 -4.21509 0
M  V30 1783 C 168.986 -2.57118 -5.32583 0
M  V30 1784 H 167.916 -0.179062 -0.732429 0
M  V30 1785 H 170.567 -1.07183 -1.48943 0
M  V30 1786 H 168.949 -0.169331 -3.95638 0
M  V30 1787 H 170.123 -2.99236 -3.5042 0
M  V30 1788 H 168.438 -2.58178 -3.267 0
M  V30 1789 H 171.035 -0.68665 -5.30273 0
M  V30 1790 H 171.378 0.557109 -4.12555 0
M  V30 1791 H 171.911 -1.11376 -3.8189 0
M  V30 1792 H 168.65 -3.61843 -5.4658 0
M  V30 1793 H 168.17 -1.91961 -5.68253 0
M  V30 1794 H 169.849 -2.42251 -5.99936 0
M  V30 1795 N 169.982 1.44106 -0.638065 0
M  V30 1796 C 170.892 2.34513 0.0637334 0
M  V30 1797 C 171.908 1.53018 0.828346 0
M  V30 1798 O 173.084 1.85723 0.779036 0
M  V30 1799 C 170.149 3.31095 1.02844 0
M  V30 1800 C 169.21 4.28497 0.26244 0
M  V30 1801 C 168.443 5.20465 1.1812 0
M  V30 1802 O 168.666 5.16514 2.42011 0
M  V30 1803 O 167.6 5.98251 0.661774 0
M  V30 1804 H 171.426 2.95989 -0.68003 0
M  V30 1805 H 169.011 1.43994 -0.398252 0
M  V30 1806 H 170.893 3.90526 1.58327 0
M  V30 1807 H 169.568 2.72144 1.7527 0
M  V30 1808 H 168.475 3.72592 -0.335602 0
M  V30 1809 H 169.808 4.90388 -0.421936 0
M  V30 1810 N 171.46 0.379036 1.52974 0
M  V30 1811 C 172.407 -0.461048 2.26148 0
M  V30 1812 C 173.377 -1.06637 1.27349 0
M  V30 1813 O 174.562 -1.09633 1.56157 0
M  V30 1814 C 171.702 -1.58782 3.06402 0
M  V30 1815 C 170.815 -1.00636 4.20115 0
M  V30 1816 C 169.95 -2.10334 4.87784 0
M  V30 1817 C 168.989 -1.49724 5.93506 0
M  V30 1818 N 168.126 -2.5331 6.54812 0
M  V30 1819 H 172.966 0.169429 2.97518 0
M  V30 1820 H 170.503 0.0953806 1.4679 0
M  V30 1821 H 172.461 -2.25174 3.51215 0
M  V30 1822 H 171.091 -2.18876 2.37261 0
M  V30 1823 H 170.143 -0.232332 3.7969 0
M  V30 1824 H 171.455 -0.523343 4.96047 0
M  V30 1825 H 170.609 -2.84519 5.35849 0
M  V30 1826 H 169.348 -2.61992 4.11353 0
M  V30 1827 H 168.353 -0.740598 5.44789 0
M  V30 1828 H 169.578 -0.988732 6.71864 0
M  V30 1829 H 167.524 -3.04156 5.81227 0
M  V30 1830 H 167.441 -2.09734 7.26325 0
M  V30 1831 H 168.709 -3.27155 7.07524 0
M  V30 1832 N 172.938 -1.57226 0.108567 0
M  V30 1833 C 173.87 -2.11809 -0.875752 0
M  V30 1834 C 174.883 -1.05839 -1.23701 0
M  V30 1835 O 176.072 -1.33245 -1.18778 0
M  V30 1836 C 173.172 -2.59411 -2.18081 0
M  V30 1837 C 172.345 -3.89364 -1.99284 0
M  V30 1838 C 171.404 -4.22672 -3.13424 0
M  V30 1839 O 170.43 -4.91668 -2.86795 0
M  V30 1840 N 171.632 -3.79154 -4.3957 0
M  V30 1841 H 174.397 -2.9689 -0.409477 0
M  V30 1842 H 171.958 -1.61721 -0.076158 0
M  V30 1843 H 173.95 -2.7873 -2.93414 0
M  V30 1844 H 172.52 -1.79268 -2.5609 0
M  V30 1845 H 171.74 -3.79059 -1.08203 0
M  V30 1846 H 173.028 -4.74358 -1.84017 0
M  V30 1847 H 172.426 -3.23486 -4.64083 0
M  V30 1848 H 170.983 -4.03602 -5.11809 0
M  V30 1849 N 174.416 0.165178 -1.56732 0
M  V30 1850 C 175.827 0.727046 -1.71962 0
M  V30 1851 C 176.178 1.82508 -0.720078 0
M  V30 1852 O 175.303 2.16082 0.117242 0
M  V30 1853 C 175.898 1.32559 -3.11791 0
M  V30 1854 C 174.457 1.83422 -3.28684 0
M  V30 1855 C 173.604 0.715567 -2.67908 0
M  V30 1856 H 176.555 -0.0602896 -1.58585 0
M  V30 1857 H 176.576 2.19533 -3.10782 0
M  V30 1858 H 176.088 0.526195 -3.84516 0
M  V30 1859 H 174.189 2.65986 -2.60926 0
M  V30 1860 H 174.302 1.97543 -4.36478 0
M  V30 1861 H 172.666 1.13758 -2.27884 0
M  V30 1862 H 173.449 -0.0720836 -3.43224 0
M  V30 1863 N 175.894 1.51508 0.433938 0
M  V30 1864 C 177.142 1.6402 1.18075 0
M  V30 1865 C 177.463 0.360328 1.91642 0
M  V30 1866 O 176.733 -0.623945 1.85698 0
M  V30 1867 H 175.313 0.6045 0.43885 0
M  V30 1868 H 177.975 1.88452 0.497178 0
M  V30 1869 H 177.071 2.46949 1.90847 0
M  V30 1870 N 177.372 -0.689602 1.41712 0
M  V30 1871 C 178.322 -1.79571 1.40493 0
M  V30 1872 C 179.306 -1.58473 0.278409 0
M  V30 1873 O 180.498 -1.69204 0.519532 0
M  V30 1874 C 177.627 -3.17923 1.29536 0
M  V30 1875 C 176.713 -3.44695 2.47075 0
M  V30 1876 N 177.104 -3.42132 3.72531 0
M  V30 1877 C 175.402 -3.75269 2.41017 0
M  V30 1878 C 176.103 -3.67976 4.50521 0
M  V30 1879 N 175.079 -3.88014 3.80718 0
M  V30 1880 H 178.881 -1.75961 2.35404 0
M  V30 1881 H 176.395 -0.889839 1.35851 0
M  V30 1882 H 178.392 -3.97167 1.26745 0
M  V30 1883 H 177.052 -3.22741 0.356153 0
M  V30 1884 H 178.063 -3.22375 4.05333 0
M  V30 1885 H 174.74 -3.87421 1.55599 0
M  V30 1886 H 176.13 -3.7208 5.59469 0
M  V30 1887 N 178.85 -1.27639 -0.924453 0
M  V30 1888 C 180.099 -1.13549 -1.66702 0
M  V30 1889 C 180.412 0.317487 -1.93006 0
M  V30 1890 O 181.618 0.579333 -2.65247 0
M  V30 1891 C 180.074 -1.98426 -3.00259 0
M  V30 1892 C 179.682 -3.484 -2.81641 0
M  V30 1893 C 181.426 -1.92993 -3.78092 0
M  V30 1894 C 179.333 -4.25464 -4.10773 0
M  V30 1895 H 178.263 -0.421351 -0.625283 0
M  V30 1896 H 180.914 -1.52085 -1.02676 0
M  V30 1897 H 179.296 -1.52736 -3.6536 0
M  V30 1898 H 180.47 -4.01973 -2.25287 0
M  V30 1899 H 178.785 -3.55245 -2.17232 0
M  V30 1900 H 181.382 -2.47844 -4.7379 0
M  V30 1901 H 181.725 -0.904281 -4.0636 0
M  V30 1902 H 182.258 -2.36595 -3.19793 0
M  V30 1903 H 178.997 -5.28566 -3.87683 0
M  V30 1904 H 178.517 -3.76667 -4.66779 0
M  V30 1905 H 180.196 -4.34812 -4.79111 0
M  V30 1906 N 180.328 1.1314 -1.09713 0
M  V30 1907 C 181.744 1.36477 -0.827423 0
M  V30 1908 C 181.944 1.93654 0.556817 0
M  V30 1909 O 181 2.15791 1.31112 0
M  V30 1910 C 182.313 2.31334 -1.92106 0
M  V30 1911 C 183.861 2.44943 -1.94864 0
M  V30 1912 C 184.336 3.4311 -3.0338 0
M  V30 1913 N 185.827 3.50662 -3.02639 0
M  V30 1914 C 186.562 4.2651 -3.83246 0
M  V30 1915 N 186.058 5.05485 -4.73768 0
M  V30 1916 N 187.851 4.2184 -3.71493 0
M  V30 1917 H 180.002 0.743807 -1.9895 0
M  V30 1918 H 182.265 0.389823 -0.864143 0
M  V30 1919 H 181.971 1.96483 -2.91698 0
M  V30 1920 H 181.845 3.31381 -1.80184 0
M  V30 1921 H 184.232 2.79079 -0.959099 0
M  V30 1922 H 184.313 1.4481 -2.10864 0
M  V30 1923 H 183.957 3.09704 -4.02549 0
M  V30 1924 H 183.887 4.43055 -2.84622 0
M  V30 1925 H 186.378 2.94315 -2.37039 0
M  V30 1926 H 186.691 5.60675 -5.3185 0
M  V30 1927 H 185.036 5.04708 -4.77802 0
M  V30 1928 H 188.227 3.5922 -3.00131 0
M  V30 1929 H 188.4 4.80697 -4.3455 0
M  V30 1930 N 181.806 0.884767 1.30421 0
M  V30 1931 C 183.031 0.517288 2.00845 0
M  V30 1932 C 183.456 -0.886779 1.65885 0
M  V30 1933 O 182.814 -1.58768 0.875354 0
M  V30 1934 C 182.862 0.698994 3.5376 0
M  V30 1935 O 181.966 -0.255208 4.1161 0
M  V30 1936 H 181.307 0.203872 0.631927 0
M  V30 1937 H 183.837 1.19225 1.66272 0
M  V30 1938 H 183.847 0.597912 4.03595 0
M  V30 1939 H 182.522 1.72271 3.78544 0
M  V30 1940 H 181.099 -0.10784 3.72744 0
M  V30 1941 N 183.284 -1.43765 0.645699 0
M  V30 1942 C 184.7 -1.56509 0.312591 0
M  V30 1943 C 184.9 -1.6307 -1.18365 0
M  V30 1944 O 183.956 -1.58167 -1.96824 0
M  V30 1945 C 185.269 -2.82968 1.01733 0
M  V30 1946 C 186.817 -2.96701 0.996865 0
M  V30 1947 C 187.292 -4.25982 1.68236 0
M  V30 1948 N 188.783 -4.32829 1.64964 0
M  V30 1949 C 189.518 -5.31613 2.14885 0
M  V30 1950 N 189.014 -6.36718 2.73061 0
M  V30 1951 N 190.807 -5.23217 2.05428 0
M  V30 1952 H 182.958 -1.3775 1.61675 0
M  V30 1953 H 185.221 -0.661067 0.679481 0
M  V30 1954 H 184.927 -2.84156 2.0724 0
M  V30 1955 H 184.801 -3.72957 0.564177 0
M  V30 1956 H 187.188 -2.95058 -0.0497719 0
M  V30 1957 H 187.269 -2.08022 1.48865 0
M  V30 1958 H 186.913 -4.28386 2.72852 0
M  V30 1959 H 186.843 -5.13545 1.16529 0
M  V30 1960 H 189.334 -3.57493 1.22503 0
M  V30 1961 H 189.647 -7.08401 3.08848 0
M  V30 1962 H 187.992 -6.37362 2.77118 0
M  V30 1963 H 191.183 -4.40019 1.59689 0
M  V30 1964 H 191.356 -6.00045 2.44643 0
M  V30 1965 N 184.763 -0.387143 -1.52771 0
M  V30 1966 C 186.009 0.196025 -2.0185 0
M  V30 1967 C 186.342 1.46641 -1.27319 0
M  V30 1968 O 185.617 1.90889 -0.373032 0
M  V30 1969 C 185.9 0.466136 -3.5707 0
M  V30 1970 C 185.753 -0.819385 -4.42274 0
M  V30 1971 C 187.072 1.25768 -4.21747 0
M  V30 1972 H 184.191 0.0697708 -0.73369 0
M  V30 1973 H 186.833 -0.516286 -1.82851 0
M  V30 1974 H 184.983 1.07293 -3.7339 0
M  V30 1975 H 186.655 -1.4563 -4.37709 0
M  V30 1976 H 184.898 -1.43517 -4.09372 0
M  V30 1977 H 185.569 -0.585065 -5.48891 0
M  V30 1978 H 188.045 0.744167 -4.09391 0
M  V30 1979 H 186.921 1.41541 -5.30337 0
M  V30 1980 H 187.182 2.27228 -3.79236 0
M  V30 1981 N 186.241 1.57166 -0.116904 0
M  V30 1982 C 187.488 1.95123 0.541603 0
M  V30 1983 C 187.816 1.00006 1.6682 0
M  V30 1984 O 187.071 0.0235658 1.95686 0
M  V30 1985 C 187.37 3.39508 1.11664 0
M  V30 1986 C 187.036 4.50762 0.111606 0
M  V30 1987 C 185.698 4.80918 -0.164758 0
M  V30 1988 C 188.05 5.18036 -0.573438 0
M  V30 1989 C 185.378 5.75666 -1.13249 0
M  V30 1990 C 187.73 6.13824 -1.52978 0
M  V30 1991 C 186.394 6.42374 -1.81415 0
M  V30 1992 H 185.664 0.714005 0.198187 0
M  V30 1993 H 188.311 1.9048 -0.197365 0
M  V30 1994 H 186.616 3.40835 1.93232 0
M  V30 1995 H 188.313 3.66189 1.63422 0
M  V30 1996 H 184.903 4.27272 0.337192 0
M  V30 1997 H 189.087 4.94896 -0.373092 0
M  V30 1998 H 184.343 5.96092 -1.35958 0
M  V30 1999 H 188.517 6.65039 -2.06629 0
M  V30 2000 H 186.144 7.15599 -2.56557 0
M  V30 2001 N 187.719 -0.156864 1.56817 0
M  V30 2002 C 189.135 -0.50916 1.5126 0
M  V30 2003 C 189.335 -1.83897 0.823658 0
M  V30 2004 O 188.391 -2.49469 0.390055 0
M  V30 2005 C 189.704 -0.52857 2.96018 0
M  V30 2006 C 191.252 -0.614771 3.06903 0
M  V30 2007 C 191.727 -0.664938 4.53147 0
M  V30 2008 N 193.218 -0.727433 4.57452 0
M  V30 2009 C 193.953 -0.787067 5.67973 0
M  V30 2010 N 193.449 -0.806649 6.88088 0
M  V30 2011 N 195.242 -0.827195 5.5598 0
M  V30 2012 H 187.393 0.714935 2.00006 0
M  V30 2013 H 189.656 0.259526 0.911784 0
M  V30 2014 H 189.362 0.380154 3.49639 0
M  V30 2015 H 189.236 -1.36998 3.51442 0
M  V30 2016 H 191.623 -1.51392 2.53307 0
M  V30 2017 H 191.704 0.253597 2.5454 0
M  V30 2018 H 191.348 0.230011 5.07379 0
M  V30 2019 H 191.278 -1.54966 5.03282 0
M  V30 2020 H 193.769 -0.719998 3.70978 0
M  V30 2021 H 194.082 -0.853727 7.6807 0
M  V30 2022 H 192.427 -0.774687 6.90669 0
M  V30 2023 H 195.618 -0.808998 4.61056 0
M  V30 2024 H 195.791 -0.870206 6.4213 0
M  V30 2025 N 189.197 -1.51736 -0.425897 0
M  V30 2026 C 190.107 -1.76738 -1.54275 0
M  V30 2027 C 191.123 -0.65211 -1.61318 0
M  V30 2028 O 192.299 -0.935654 -1.78346 0
M  V30 2029 C 189.364 -1.89755 -2.90162 0
M  V30 2030 C 188.425 -3.13633 -2.93143 0
M  V30 2031 C 187.658 -3.2602 -4.22548 0
M  V30 2032 O 187.881 -2.44067 -5.15546 0
M  V30 2033 O 186.815 -4.19071 -4.32046 0
M  V30 2034 H 190.641 -2.71502 -1.36089 0
M  V30 2035 H 188.226 -1.36376 -0.610069 0
M  V30 2036 H 190.108 -2.00236 -3.70788 0
M  V30 2037 H 188.783 -0.981785 -3.08452 0
M  V30 2038 H 187.69 -3.08622 -2.11431 0
M  V30 2039 H 189.023 -4.04936 -2.798 0
M  V30 2040 N 190.675 0.682077 -1.42076 0
M  V30 2041 C 191.921 1.44428 -1.42367 0
M  V30 2042 C 192.254 1.94164 -0.0373056 0
M  V30 2043 O 191.529 1.70429 0.937239 0
M  V30 2044 C 191.812 2.64654 -2.44194 0
M  V30 2045 C 191.665 2.20596 -3.91991 0
M  V30 2046 C 192.984 3.66865 -2.431 0
M  V30 2047 H 190.103 0.523834 -0.518428 0
M  V30 2048 H 192.745 0.77576 -1.73442 0
M  V30 2049 H 190.895 3.2169 -2.17826 0
M  V30 2050 H 192.567 1.68783 -4.29313 0
M  V30 2051 H 190.81 1.52242 -4.06208 0
M  V30 2052 H 191.481 3.06921 -4.58807 0
M  V30 2053 H 193.957 3.19531 -2.66532 0
M  V30 2054 H 192.833 4.48577 -3.16339 0
M  V30 2055 H 193.094 4.17493 -1.45437 0
M  V30 2056 N 192.153 1.28127 0.917671 0
M  V30 2057 C 193.063 1.13556 2.05286 0
M  V30 2058 C 194.079 0.0630914 1.73886 0
M  V30 2059 O 195.255 0.271598 1.9956 0
M  V30 2060 C 192.32 0.794676 3.3747 0
M  V30 2061 C 191.381 1.94909 3.82504 0
M  V30 2062 C 190.614 1.62437 5.0838 0
M  V30 2063 O 190.837 0.536905 5.67867 0
M  V30 2064 O 189.771 2.46677 5.4903 0
M  V30 2065 H 193.597 2.08844 2.20495 0
M  V30 2066 H 191.182 1.07409 1.03845 0
M  V30 2067 H 193.064 0.618344 4.16839 0
M  V30 2068 H 191.739 -0.128581 3.23445 0
M  V30 2069 H 190.646 2.18055 3.03978 0
M  V30 2070 H 191.979 2.85291 4.01086 0
M  V30 2071 N 193.631 -1.12557 1.10312 0
M  V30 2072 C 194.564 -2.1737 0.694674 0
M  V30 2073 C 195.542 -1.59745 -0.303373 0
M  V30 2074 O 196.726 -1.87408 -0.202578 0
M  V30 2075 C 193.853 -3.38691 0.0248052 0
M  V30 2076 C 192.899 -4.14943 0.986121 0
M  V30 2077 S 193.732 -4.73413 2.50281 0
M  V30 2078 C 194.888 -5.9807 1.84562 0
M  V30 2079 H 195.121 -2.5168 1.58255 0
M  V30 2080 H 192.654 -1.23998 0.919992 0
M  V30 2081 H 194.612 -4.08959 -0.355361 0
M  V30 2082 H 193.273 -3.02664 -0.839851 0
M  V30 2083 H 192.466 -5.01854 0.464651 0
M  V30 2084 H 192.068 -3.50377 1.30813 0
M  V30 2085 H 194.36 -6.67232 1.17507 0
M  V30 2086 H 195.303 -6.54841 2.69423 0
M  V30 2087 H 195.711 -5.49073 1.31069 0
M  V30 2088 N 195.109 -0.891671 -1.2995 0
M  V30 2089 C 196.039 -0.379797 -2.30391 0
M  V30 2090 C 197.02 0.540919 -1.6127 0
M  V30 2091 O 198.205 0.453352 -1.88834 0
M  V30 2092 C 195.335 0.400654 -3.44981 0
M  V30 2093 C 194.289 -0.428905 -4.25846 0
M  V30 2094 C 193.615 0.478557 -5.32554 0
M  V30 2095 C 194.915 -1.67458 -4.94727 0
M  V30 2096 H 196.609 -1.21914 -2.73454 0
M  V30 2097 H 194.155 -0.587675 -1.31462 0
M  V30 2098 H 196.108 0.769434 -4.14316 0
M  V30 2099 H 194.832 1.27371 -3.0074 0
M  V30 2100 H 193.491 -0.779911 -3.58208 0
M  V30 2101 H 193.139 1.34951 -4.84559 0
M  V30 2102 H 192.839 -0.0727433 -5.87555 0
M  V30 2103 H 194.363 0.843705 -6.04743 0
M  V30 2104 H 195.777 -1.376 -5.56542 0
M  V30 2105 H 194.174 -2.16659 -5.59624 0
M  V30 2106 H 195.244 -2.41518 -4.20473 0
M  V30 2107 N 196.587 1.43421 -0.653314 0
M  V30 2108 C 197.817 2.05864 -0.174238 0
M  V30 2109 C 198.225 1.49052 1.16534 0
M  V30 2110 O 197.568 0.616481 1.73047 0
M  V30 2111 C 197.63 3.59499 -0.00875873 0
M  V30 2112 C 197.294 4.38893 -1.27364 0
M  V30 2113 C 198.291 4.70947 -2.20239 0
M  V30 2114 C 195.976 4.789 -1.51525 0
M  V30 2115 C 197.97 5.41916 -3.35568 0
M  V30 2116 C 195.657 5.49614 -2.67147 0
M  V30 2117 C 196.655 5.81044 -3.58994 0
M  V30 2118 O 196.343 6.50313 -4.72597 0
M  V30 2119 H 196.075 0.670345 -0.0872549 0
M  V30 2120 H 198.629 1.84913 -0.894226 0
M  V30 2121 H 196.859 3.79025 0.7666 0
M  V30 2122 H 198.548 4.0364 0.427687 0
M  V30 2123 H 199.314 4.40558 -2.02815 0
M  V30 2124 H 195.193 4.53843 -0.809158 0
M  V30 2125 H 198.737 5.66365 -4.07279 0
M  V30 2126 H 194.634 5.79419 -2.84505 0
M  V30 2127 H 195.402 6.68795 -4.71864 0
M  V30 2128 N 198.065 0.39524 1.52563 0
M  V30 2129 C 198.997 -0.472201 2.24283 0
M  V30 2130 C 200.01 -1.02178 1.26742 0
M  V30 2131 O 201.199 -0.923097 1.52778 0
M  V30 2132 C 198.299 -1.66775 2.95024 0
M  V30 2133 C 197.472 -1.2445 4.19322 0
M  V30 2134 C 196.531 -2.30539 4.7301 0
M  V30 2135 O 195.557 -1.91702 5.35947 0
M  V30 2136 N 196.759 -3.6253 4.53379 0
M  V30 2137 H 199.524 0.142282 2.99362 0
M  V30 2138 H 197.085 0.2219 1.60372 0
M  V30 2139 H 199.077 -2.37283 3.27839 0
M  V30 2140 H 197.647 -2.18845 2.23217 0
M  V30 2141 H 196.867 -0.368069 3.92478 0
M  V30 2142 H 198.155 -0.938457 5.0007 0
M  V30 2143 H 197.553 -3.96841 4.03154 0
M  V30 2144 H 196.11 -4.29055 4.90668 0
M  V30 2145 N 199.544 -1.57102 0.125237 0
M  V30 2146 C 200.784 -1.97294 -0.534259 0
M  V30 2147 C 201.148 -1.0074 -1.63449 0
M  V30 2148 O 202.349 -1.29893 -2.35332 0
M  V30 2149 C 200.62 -3.41705 -1.04748 0
M  V30 2150 S 202.179 -4.03913 -1.71463 0
M  V30 2151 H 198.997 -0.689517 -0.173458 0
M  V30 2152 H 201.599 -1.94349 0.211797 0
M  V30 2153 H 200.303 -4.09723 -0.235649 0
M  V30 2154 H 199.834 -3.48315 -1.82867 0
M  V30 2155 H 201.849 -3.95182 -3.00077 0
M  V30 2156 N 201.022 0.148545 -1.56898 0
M  V30 2157 C 201.954 1.20852 -1.9475 0
M  V30 2158 C 202.967 1.39265 -0.843152 0
M  V30 2159 O 204.156 1.38864 -1.12156 0
M  V30 2160 C 201.256 2.57362 -2.20495 0
M  V30 2161 C 200.429 2.59947 -3.51776 0
M  V30 2162 C 199.488 3.77984 -3.6608 0
M  V30 2163 O 198.514 3.62929 -4.38487 0
M  V30 2164 N 199.716 4.95375 -3.02629 0
M  V30 2165 H 202.481 0.886804 -2.86279 0
M  V30 2166 H 200.042 0.338121 -1.5833 0
M  V30 2167 H 202.034 3.34833 -2.27307 0
M  V30 2168 H 200.604 2.81832 -1.35238 0
M  V30 2169 H 199.824 1.68403 -3.56419 0
M  V30 2170 H 201.112 2.58704 -4.38121 0
M  V30 2171 H 200.51 5.10509 -2.43715 0
M  V30 2172 H 199.067 5.70627 -3.15004 0
M  V30 2173 N 202.5 1.5196 0.417844 0
M  V30 2174 C 203.748 1.65263 1.16329 0
M  V30 2175 C 204.069 0.380634 1.91249 0
M  V30 2176 O 203.339 -0.604214 1.86349 0
M  V30 2177 H 201.919 0.60912 0.432414 0
M  V30 2178 H 204.581 1.88969 0.477162 0
M  V30 2179 H 203.677 2.4896 1.88217 0
M  V30 2180 N 203.978 -0.674533 1.42435 0
M  V30 2181 C 204.928 -1.7807 1.4239 0
M  V30 2182 C 205.912 -1.58169 0.295202 0
M  V30 2183 O 207.104 -1.68643 0.537449 0
M  V30 2184 C 204.233 -3.16532 1.32901 0
M  V30 2185 C 203.319 -3.42055 2.50717 0
M  V30 2186 N 203.71 -3.38162 3.76139 0
M  V30 2187 C 202.008 -3.72692 2.44983 0
M  V30 2188 C 202.709 -3.63177 4.54398 0
M  V30 2189 N 201.685 -3.83954 3.84812 0
M  V30 2190 H 205.487 -1.73454 2.37257 0
M  V30 2191 H 203.001 -0.875381 1.36788 0
M  V30 2192 H 204.998 -3.958 1.30951 0
M  V30 2193 H 203.658 -3.22345 0.390363 0
M  V30 2194 H 204.669 -3.18057 4.0873 0
M  V30 2195 H 201.346 -3.85749 1.59699 0
M  V30 2196 H 202.736 -3.66125 5.63384 0
M  V30 2197 N 205.456 -1.28612 -0.910864 0
M  V30 2198 C 206.872 -1.06381 -1.18976 0
M  V30 2199 C 207.072 0.191998 -2.00583 0
M  V30 2200 O 206.128 0.892869 -2.36187 0
M  V30 2201 C 207.441 -2.31295 -1.92154 0
M  V30 2202 C 208.989 -2.36503 -2.05025 0
M  V30 2203 C 209.464 -3.61191 -2.81612 0
M  V30 2204 N 210.955 -3.61847 -2.89172 0
M  V30 2205 C 211.69 -4.55004 -3.4894 0
M  V30 2206 N 211.186 -5.58482 -4.09963 0
M  V30 2207 N 212.979 -4.42594 -3.46506 0
M  V30 2208 H 205.13 -2.09221 -0.366094 0
M  V30 2209 H 207.393 -0.921003 -0.224629 0
M  V30 2210 H 207.099 -3.228 -1.39618 0
M  V30 2211 H 206.973 -2.37934 -2.9269 0
M  V30 2212 H 209.36 -1.45494 -2.5674 0
M  V30 2213 H 209.441 -2.33857 -1.03657 0
M  V30 2214 H 209.085 -4.52545 -2.30576 0
M  V30 2215 H 209.015 -3.61092 -3.83302 0
M  V30 2216 H 211.506 -2.87022 -2.45819 0
M  V30 2217 H 211.819 -6.25704 -4.53557 0
M  V30 2218 H 210.164 -5.62305 -4.08459 0
M  V30 2219 H 213.355 -3.60953 -2.98045 0
M  V30 2220 H 213.528 -5.15381 -3.92793 0
M  V30 2221 N 206.934 1.1197 -1.10907 0
M  V30 2222 C 207.882 2.19927 -0.757303 0
M  V30 2223 C 208.876 1.67564 0.248747 0
M  V30 2224 O 210.082 1.79672 0.108605 0
M  V30 2225 H 206.457 0.716925 -0.226987 0
M  V30 2226 H 208.428 2.46847 -1.67658 0
M  V30 2227 C 207.177 3.47061 -0.210671 0
M  V30 2228 H 206.5 3.87703 -0.976049 0
M  V30 2229 H 207.94 4.24 -0.0026584 0
M  V30 2230 C 206.399 3.19864 1.05777 0
M  V30 2231 O 206.929 3.40049 2.13845 0
M  V30 2232 N 205.135 2.73636 0.978349 0
M  V30 2233 H 204.682 2.5741 0.0988246 0
M  V30 2234 H 204.64 2.55815 1.82773 0
M  V30 2235 N 208.412 0.89855 1.29475 0
M  V30 2236 C 209.658 0.524658 1.95896 0
M  V30 2237 C 209.991 -0.926468 1.70676 0
M  V30 2238 O 209.266 -1.65665 1.01908 0
M  V30 2239 C 209.549 0.81633 3.50725 0
M  V30 2240 C 209.402 2.31907 3.85408 0
M  V30 2241 C 210.721 0.302038 4.39062 0
M  V30 2242 H 207.84 0.19209 0.711527 0
M  V30 2243 H 210.482 1.12502 1.53112 0
M  V30 2244 H 208.632 0.305369 3.87298 0
M  V30 2245 H 210.304 2.89949 3.58786 0
M  V30 2246 H 208.547 2.78027 3.32992 0
M  V30 2247 H 209.218 2.47373 4.93468 0
M  V30 2248 H 211.694 0.739551 4.09475 0
M  V30 2249 H 210.57 0.535331 5.46283 0
M  V30 2250 H 210.831 -0.797216 4.34853 0
M  V30 2251 N 209.89 -1.43072 0.660911 0
M  V30 2252 C 210.82 -2.33497 -0.0122829 0
M  V30 2253 C 211.801 -1.49903 -0.803925 0
M  V30 2254 O 212.986 -1.78546 -0.763864 0
M  V30 2255 C 210.116 -3.33363 -0.973994 0
M  V30 2256 C 209.07 -4.27003 -0.291928 0
M  V30 2257 C 208.396 -5.16967 -1.36562 0
M  V30 2258 C 209.696 -5.15816 0.820462 0
M  V30 2259 H 211.39 -2.90038 0.742873 0
M  V30 2260 H 208.936 -1.39461 0.358688 0
M  V30 2261 H 210.889 -3.95524 -1.45392 0
M  V30 2262 H 209.613 -2.75095 -1.7604 0
M  V30 2263 H 208.272 -3.66217 0.167623 0
M  V30 2264 H 207.92 -4.55034 -2.14366 0
M  V30 2265 H 207.62 -5.80441 -0.914454 0
M  V30 2266 H 209.144 -5.82003 -1.84675 0
M  V30 2267 H 210.558 -5.71742 0.422366 0
M  V30 2268 H 208.955 -5.8805 1.19656 0
M  V30 2269 H 210.025 -4.55045 1.67518 0
M  V30 2270 N 211.368 -0.403325 -1.52352 0
M  V30 2271 C 212.278 0.432009 -2.30588 0
M  V30 2272 C 213.294 1.05884 -1.38075 0
M  V30 2273 O 214.47 1.06161 -1.71148 0
M  V30 2274 C 211.535 1.53669 -3.10784 0
M  V30 2275 C 210.596 0.933525 -4.19027 0
M  V30 2276 C 209.829 1.98557 -4.9539 0
M  V30 2277 O 210.052 3.20283 -4.71991 0
M  V30 2278 O 208.986 1.59504 -5.80381 0
M  V30 2279 H 212.812 -0.205739 -3.03002 0
M  V30 2280 H 210.397 -0.166675 -1.48467 0
M  V30 2281 H 212.279 2.17814 -3.60742 0
M  V30 2282 H 210.954 2.15915 -2.41169 0
M  V30 2283 H 209.861 0.254954 -3.7323 0
M  V30 2284 H 211.194 0.35508 -4.90918 0
M  V30 2285 N 212.846 1.57033 -0.133567 0
M  V30 2286 C 213.776 2.1909 0.807567 0
M  V30 2287 C 214.757 1.13517 1.26681 0
M  V30 2288 O 215.942 1.41809 1.32679 0
M  V30 2289 C 213.072 2.80188 2.05212 0
M  V30 2290 C 212.026 3.91471 1.73015 0
M  V30 2291 C 211.352 4.39443 3.04622 0
M  V30 2292 C 212.652 5.12886 0.987168 0
M  V30 2293 H 214.346 2.97988 0.290403 0
M  V30 2294 H 211.892 1.43335 0.138239 0
M  V30 2295 H 213.845 3.22264 2.71521 0
M  V30 2296 H 212.569 1.98601 2.59278 0
M  V30 2297 H 211.228 3.49993 1.0909 0
M  V30 2298 H 210.876 3.54695 3.56651 0
M  V30 2299 H 210.576 5.14495 2.83847 0
M  V30 2300 H 212.1 4.8418 3.72024 0
M  V30 2301 H 213.514 5.51891 1.55208 0
M  V30 2302 H 211.911 5.93615 0.87985 0
M  V30 2303 H 212.981 4.84894 -0.0235286 0
M  V30 2304 N 214.325 -0.140222 1.56975 0
M  V30 2305 C 215.574 -0.850152 1.82908 0
M  V30 2306 C 215.887 -1.82028 0.715892 0
M  V30 2307 O 217.093 -2.57485 0.861016 0
M  V30 2308 C 215.549 -1.5625 3.24213 0
M  V30 2309 C 215.157 -0.63443 4.43485 0
M  V30 2310 C 216.901 -2.25881 3.59413 0
M  V30 2311 C 214.808 -1.34879 5.75814 0
M  V30 2312 H 213.738 -0.321221 0.682153 0
M  V30 2313 H 216.389 -0.102874 1.83211 0
M  V30 2314 H 214.771 -2.35565 3.18316 0
M  V30 2315 H 215.945 0.12398 4.60633 0
M  V30 2316 H 214.26 -0.0461836 4.16374 0
M  V30 2317 H 216.857 -2.79978 4.5554 0
M  V30 2318 H 217.2 -3.02693 2.85802 0
M  V30 2319 H 217.733 -1.53477 3.67001 0
M  V30 2320 H 214.472 -0.622385 6.52539 0
M  V30 2321 H 213.992 -2.07974 5.6259 0
M  V30 2322 H 215.671 -1.88784 6.18845 0
M  V30 2323 N 215.803 -1.52179 -0.40978 0
M  V30 2324 C 216.713 -1.78364 -1.52392 0
M  V30 2325 C 217.729 -0.669183 -1.60617 0
M  V30 2326 O 218.905 -0.954518 -1.77344 0
M  V30 2327 C 215.97 -1.92822 -2.88133 0
M  V30 2328 C 215.031 -3.16725 -2.898 0
M  V30 2329 C 214.264 -3.30483 -4.19067 0
M  V30 2330 O 214.487 -2.49522 -5.12928 0
M  V30 2331 O 213.421 -4.2363 -4.27576 0
M  V30 2332 H 217.247 -2.72931 -1.33201 0
M  V30 2333 H 214.832 -1.37016 -0.59557 0
M  V30 2334 H 216.714 -2.04157 -3.68643 0
M  V30 2335 H 215.389 -1.01444 -3.07393 0
M  V30 2336 H 214.296 -3.10848 -2.08146 0
M  V30 2337 H 215.629 -4.07881 -2.75489 0
M  V30 2338 N 217.281 0.66697 -1.42791 0
M  V30 2339 C 218.528 1.42699 -1.43678 0
M  V30 2340 C 218.856 1.94419 -0.0560425 0
M  V30 2341 O 218.111 1.7182 0.936831 0
M  V30 2342 C 218.41 2.6349 -2.4147 0
M  V30 2343 C 218.076 2.30267 -3.8767 0
M  V30 2344 C 216.738 2.20918 -4.27491 0
M  V30 2345 C 219.09 2.03435 -4.79858 0
M  V30 2346 C 216.418 1.82873 -5.57471 0
M  V30 2347 C 218.77 1.66892 -6.10188 0
M  V30 2348 C 217.434 1.56058 -6.49001 0
M  V30 2349 H 216.704 0.522171 -0.525755 0
M  V30 2350 H 219.351 0.759785 -1.75783 0
M  V30 2351 H 217.656 3.35279 -2.0272 0
M  V30 2352 H 219.353 3.21684 -2.39417 0
M  V30 2353 H 215.943 2.38449 -3.56146 0
M  V30 2354 H 220.127 2.09586 -4.49875 0
M  V30 2355 H 215.383 1.7306 -5.86396 0
M  V30 2356 H 219.557 1.45157 -6.81104 0
M  V30 2357 H 217.184 1.26348 -7.49627 0
M  V30 2358 N 218.759 1.29093 0.90403 0
M  V30 2359 C 220.006 1.16813 1.65411 0
M  V30 2360 C 220.334 -0.28128 1.92455 0
M  V30 2361 O 219.589 -1.22006 1.53013 0
M  V30 2362 C 219.888 1.92224 3.01305 0
M  V30 2363 C 219.554 3.41968 2.93885 0
M  V30 2364 C 218.216 3.82807 2.91569 0
M  V30 2365 C 220.568 4.37409 2.83413 0
M  V30 2366 C 217.896 5.1741 2.76594 0
M  V30 2367 C 220.248 5.72097 2.69977 0
M  V30 2368 C 218.912 6.12199 2.66024 0
M  V30 2369 H 218.182 0.42745 0.605283 0
M  V30 2370 H 220.829 1.59981 1.05254 0
M  V30 2371 H 219.134 1.41635 3.65304 0
M  V30 2372 H 220.831 1.80131 3.58265 0
M  V30 2373 H 217.421 3.09504 2.96488 0
M  V30 2374 H 221.605 4.06813 2.84283 0
M  V30 2375 H 216.861 5.47596 2.71935 0
M  V30 2376 H 221.035 6.45704 2.60844 0
M  V30 2377 H 218.662 7.16448 2.54178 0
M  V30 2378 N 220.237 -1.11381 1.11499 0
M  V30 2379 C 221.147 -2.21019 0.786628 0
M  V30 2380 C 222.163 -1.72597 -0.220507 0
M  V30 2381 O 223.339 -2.01321 -0.0565251 0
M  V30 2382 C 220.404 -3.459 0.235333 0
M  V30 2383 C 219.465 -4.09107 1.30115 0
M  V30 2384 C 218.698 -5.28027 0.776068 0
M  V30 2385 O 218.921 -5.6904 -0.393661 0
M  V30 2386 O 217.855 -5.81835 1.54114 0
M  V30 2387 H 221.681 -2.51521 1.70209 0
M  V30 2388 H 219.266 -1.19928 0.890928 0
M  V30 2389 H 221.148 -4.21346 -0.067715 0
M  V30 2390 H 219.823 -3.17049 -0.652828 0
M  V30 2391 H 218.73 -3.35391 1.65722 0
M  V30 2392 H 220.063 -4.42139 2.16273 0
M  V30 2393 N 221.715 -0.905404 -1.28997 0
M  V30 2394 C 222.625 -0.392246 -2.31298 0
M  V30 2395 C 223.641 0.515889 -1.66176 0
M  V30 2396 O 224.817 0.404093 -1.97304 0
M  V30 2397 C 221.882 0.36686 -3.44754 0
M  V30 2398 C 220.943 -0.573485 -4.25452 0
M  V30 2399 C 220.176 0.149488 -5.33491 0
M  V30 2400 O 220.399 1.37255 -5.5364 0
M  V30 2401 O 219.333 -0.510919 -5.99728 0
M  V30 2402 H 223.159 -1.2411 -2.77183 0
M  V30 2403 H 220.744 -0.669926 -1.33538 0
M  V30 2404 H 222.626 0.795907 -4.13816 0
M  V30 2405 H 221.301 1.19169 -3.00966 0
M  V30 2406 H 220.208 -1.05176 -3.59011 0
M  V30 2407 H 221.541 -1.36489 -4.72897 0
M  V30 2408 N 223.193 1.4272 -0.668489 0
M  V30 2409 C 224.103 2.34596 0.0139753 0
M  V30 2410 C 225.119 1.5474 0.795703 0
M  V30 2411 O 226.295 1.87334 0.739466 0
M  V30 2412 C 223.36 3.33202 0.957982 0
M  V30 2413 C 222.421 4.28957 0.17149 0
M  V30 2414 C 221.654 5.22853 1.07053 0
M  V30 2415 O 221.877 5.21531 2.31001 0
M  V30 2416 O 220.811 5.9952 0.534727 0
M  V30 2417 H 224.637 2.9448 -0.742661 0
M  V30 2418 H 222.222 1.43117 -0.428705 0
M  V30 2419 H 224.104 3.93796 1.50008 0
M  V30 2420 H 222.779 2.758 1.69458 0
M  V30 2421 H 221.686 3.71796 -0.414558 0
M  V30 2422 H 223.019 4.89383 -0.52586 0
M  V30 2423 N 224.671 0.411399 1.52136 0
M  V30 2424 C 225.948 -0.222308 1.94333 0
M  V30 2425 C 226.328 -1.6242 1.34844 0
M  V30 2426 O 225.676 -2.22384 0.525145 0
M  V30 2427 C 225.886 -0.226345 3.48265 0
M  V30 2428 C 227.234 -0.444592 4.22266 0
M  V30 2429 O 228.258 -0.305602 3.54887 0
M  V30 2430 O 227.117 -0.718749 5.41753 0
M  V30 2431 H 224.211 -0.143907 0.814383 0
M  V30 2432 H 226.757 0.467506 1.63133 0
M  V30 2433 H 225.529 0.75475 3.83952 0
M  V30 2434 H 225.152 -0.960163 3.85832 0
M  V30 2435 N 226.149 -1.5696 0.141893 0
M  V30 2436 C 227.565 -1.58151 -0.21456 0
M  V30 2437 C 227.765 -1.1559 -1.65049 0
M  V30 2438 O 226.821 -0.853832 -2.37626 0
M  V30 2439 C 228.134 -3.00674 0.0395576 0
M  V30 2440 C 229.682 -3.1299 -0.0245529 0
M  V30 2441 C 230.157 -4.57554 0.202167 0
M  V30 2442 N 231.648 -4.62961 0.148919 0
M  V30 2443 C 232.383 -5.7262 0.298924 0
M  V30 2444 N 231.879 -6.90947 0.50637 0
M  V30 2445 N 233.672 -5.61601 0.236886 0
M  V30 2446 H 225.823 -1.8292 1.07953 0
M  V30 2447 H 228.086 -0.846425 0.42693 0
M  V30 2448 H 227.792 -3.36183 1.03315 0
M  V30 2449 H 227.666 -3.70981 -0.682143 0
M  V30 2450 H 230.053 -2.77326 -1.00869 0
M  V30 2451 H 230.134 -2.4518 0.729396 0
M  V30 2452 H 229.778 -4.93922 1.18338 0
M  V30 2453 H 229.708 -5.23484 -0.572044 0
M  V30 2454 H 232.199 -3.77899 -0.00697015 0
M  V30 2455 H 232.512 -7.7038 0.611076 0
M  V30 2456 H 230.857 -6.92878 0.542628 0
M  V30 2457 H 234.048 -4.68039 0.0756209 0
M  V30 2458 H 234.221 -6.47015 0.357227 0
M  V30 2459 N 227.627 0.131896 -1.57047 0
M  V30 2460 C 228.874 0.841932 -1.84168 0
M  V30 2461 C 229.202 1.8048 -0.725066 0
M  V30 2462 O 228.457 1.93618 0.284692 0
M  V30 2463 C 228.756 1.63703 -3.17704 0
M  V30 2464 C 228.422 0.81961 -4.43388 0
M  V30 2465 C 227.084 0.594148 -4.77518 0
M  V30 2466 C 229.436 0.248977 -5.20605 0
M  V30 2467 C 226.764 -0.212409 -5.86315 0
M  V30 2468 C 229.116 -0.544701 -6.30251 0
M  V30 2469 C 227.78 -0.780599 -6.6292 0
M  V30 2470 H 227.05 0.308085 -0.673917 0
M  V30 2471 H 229.697 0.104867 -1.91213 0
M  V30 2472 H 228.002 2.44464 -3.06177 0
M  V30 2473 H 229.699 2.19015 -3.35907 0
M  V30 2474 H 226.289 1.00542 -4.16641 0
M  V30 2475 H 230.473 0.410408 -4.946 0
M  V30 2476 H 225.729 -0.404524 -6.1006 0
M  V30 2477 H 229.903 -0.993922 -6.89271 0
M  V30 2478 H 227.53 -1.40742 -7.47058 0
M  V30 2479 N 229.106 1.52395 0.401703 0
M  V30 2480 C 230.336 1.70429 1.1678 0
M  V30 2481 C 230.744 0.416702 1.84554 0
M  V30 2482 O 230.087 -0.617697 1.73003 0
M  V30 2483 C 230.149 2.78919 2.26814 0
M  V30 2484 C 229.813 4.20437 1.79113 0
M  V30 2485 C 230.81 5.04028 1.27482 0
M  V30 2486 C 228.495 4.66704 1.85722 0
M  V30 2487 C 230.489 6.31961 0.830913 0
M  V30 2488 C 228.176 5.94625 1.40942 0
M  V30 2489 C 229.174 6.77082 0.897128 0
M  V30 2490 O 228.862 8.02607 0.455822 0
M  V30 2491 H 228.594 0.574272 0.356634 0
M  V30 2492 H 231.148 1.99767 0.477724 0
M  V30 2493 H 229.378 2.44973 2.99207 0
M  V30 2494 H 231.067 2.8548 2.88541 0
M  V30 2495 H 231.833 4.69471 1.21744 0
M  V30 2496 H 227.712 4.0262 2.24539 0
M  V30 2497 H 231.256 6.96271 0.430368 0
M  V30 2498 H 227.153 6.28688 1.46362 0
M  V30 2499 H 227.921 8.16453 0.578457 0
M  V30 2500 N 230.584 -0.659388 1.43143 0
M  V30 2501 C 231.514 -1.78422 1.50625 0
M  V30 2502 C 232.495 -1.66216 0.361443 0
M  V30 2503 O 233.68 -1.85404 0.577834 0
M  V30 2504 C 230.81 -3.16815 1.42287 0
M  V30 2505 C 229.764 -3.43777 2.54954 0
M  V30 2506 C 229.09 -4.81905 2.31671 0
M  V30 2507 C 230.39 -3.39134 3.97222 0
M  V30 2508 H 232.084 -1.72417 2.44771 0
M  V30 2509 H 229.63 -0.828084 1.17808 0
M  V30 2510 H 231.583 -3.95253 1.46127 0
M  V30 2511 H 230.307 -3.23534 0.446435 0
M  V30 2512 H 228.966 -2.67707 2.50457 0
M  V30 2513 H 228.614 -4.85294 1.32284 0
M  V30 2514 H 228.314 -5.00906 3.07192 0
M  V30 2515 H 229.838 -5.62609 2.37284 0
M  V30 2516 H 231.252 -4.07518 4.03239 0
M  V30 2517 H 229.649 -3.69671 4.72719 0
M  V30 2518 H 230.719 -2.37426 4.22797 0
M  V30 2519 N 232.062 -1.29571 -0.897171 0
M  V30 2520 C 233.308 -1.17863 -1.65034 0
M  V30 2521 C 233.641 0.268729 -1.92332 0
M  V30 2522 O 232.916 1.19378 -1.53555 0
M  V30 2523 C 233.199 -1.995 -2.99786 0
M  V30 2524 C 233.052 -3.5239 -2.79538 0
M  V30 2525 C 234.371 -1.82335 -4.00552 0
M  V30 2526 H 231.49 -0.429528 -0.598895 0
M  V30 2527 H 234.132 -1.59072 -1.03905 0
M  V30 2528 H 232.282 -1.64485 -3.51962 0
M  V30 2529 H 233.954 -3.97401 -2.34244 0
M  V30 2530 H 232.197 -3.77187 -2.14273 0
M  V30 2531 H 232.868 -4.04787 -3.75302 0
M  V30 2532 H 235.344 -2.12924 -3.57495 0
M  V30 2533 H 234.22 -2.41801 -4.92771 0
M  V30 2534 H 234.481 -0.779209 -4.35179 0
M  V30 2535 N 233.54 1.10788 -1.12088 0
M  V30 2536 C 234.787 1.82671 -0.873931 0
M  V30 2537 C 235.115 1.85004 0.600311 0
M  V30 2538 O 234.37 1.30365 1.45957 0
M  V30 2539 C 234.669 3.29294 -1.38926 0
M  V30 2540 C 234.335 3.47113 -2.87791 0
M  V30 2541 C 232.997 3.51684 -3.28439 0
M  V30 2542 C 235.349 3.52808 -3.83635 0
M  V30 2543 C 232.677 3.59513 -4.63646 0
M  V30 2544 C 235.029 3.62169 -5.18668 0
M  V30 2545 C 233.693 3.65003 -5.58864 0
M  V30 2546 H 232.963 0.668441 -0.319794 0
M  V30 2547 H 235.61 1.30613 -1.40045 0
M  V30 2548 H 233.915 3.83894 -0.783122 0
M  V30 2549 H 235.612 3.83416 -1.17443 0
M  V30 2550 H 232.202 3.4423 -2.5535 0
M  V30 2551 H 236.386 3.4853 -3.53328 0
M  V30 2552 H 231.642 3.59987 -4.94185 0
M  V30 2553 H 235.816 3.6552 -5.92763 0
M  V30 2554 H 233.443 3.70822 -6.63623 0
M  V30 2555 N 235.018 0.912232 1.28515 0
M  V30 2556 C 235.928 0.404506 2.31086 0
M  V30 2557 C 236.944 -0.50707 1.66448 0
M  V30 2558 O 238.12 -0.393624 1.97516 0
M  V30 2559 C 235.185 -0.348572 3.44943 0
M  V30 2560 C 234.246 0.59604 4.25142 0
M  V30 2561 C 233.479 -0.121194 5.33562 0
M  V30 2562 O 233.702 -1.34317 5.5436 0
M  V30 2563 O 232.636 0.542716 5.99448 0
M  V30 2564 H 236.462 1.25579 2.76521 0
M  V30 2565 H 234.047 0.676998 1.33181 0
M  V30 2566 H 235.929 -0.77395 4.14232 0
M  V30 2567 H 234.604 -1.17571 3.01594 0
M  V30 2568 H 233.511 1.07079 3.58448 0
M  V30 2569 H 234.844 1.38995 4.72167 0
M  V30 2570 N 236.496 -1.42363 0.676048 0
M  V30 2571 C 237.443 -2.308 -0.00150904 0
M  V30 2572 C 238.413 -1.46032 -0.791444 0
M  V30 2573 O 239.598 -1.74861 -0.76344 0
M  V30 2574 C 236.738 -3.31883 -0.945919 0
M  V30 2575 C 235.851 -4.31741 -0.149675 0
M  V30 2576 C 234.986 -5.19898 -1.08995 0
M  V30 2577 C 234.025 -6.11434 -0.285465 0
M  V30 2578 N 233.162 -6.92138 -1.17851 0
M  V30 2579 H 238.002 -2.88187 0.758455 0
M  V30 2580 H 235.539 -1.41952 0.38576 0
M  V30 2581 H 237.497 -3.89019 -1.50731 0
M  V30 2582 H 236.127 -2.76093 -1.6725 0
M  V30 2583 H 235.179 -3.76713 0.528359 0
M  V30 2584 H 236.491 -4.96534 0.474866 0
M  V30 2585 H 235.645 -5.81772 -1.72123 0
M  V30 2586 H 234.384 -4.55284 -1.74837 0
M  V30 2587 H 233.389 -5.48627 0.359018 0
M  V30 2588 H 234.614 -6.78097 0.368883 0
M  V30 2589 H 232.56 -6.30152 -1.82332 0
M  V30 2590 H 232.477 -7.53542 -0.609082 0
M  V30 2591 H 233.745 -7.58499 -1.79722 0
M  V30 2592 N 237.974 -0.419461 -1.51915 0
M  V30 2593 C 238.907 0.445751 -2.23804 0
M  V30 2594 C 239.885 1.03951 -1.25031 0
M  V30 2595 O 241.069 1.08541 -1.54114 0
M  V30 2596 C 238.196 1.61964 -2.97465 0
M  V30 2597 C 237.242 1.14828 -4.10751 0
M  V30 2598 S 238.075 0.104938 -5.35397 0
M  V30 2599 C 239.231 1.28391 -6.1259 0
M  V30 2600 H 239.464 -0.164627 -2.96844 0
M  V30 2601 H 236.997 -0.203833 -1.53049 0
M  V30 2602 H 238.955 2.29271 -3.40507 0
M  V30 2603 H 237.616 2.20139 -2.24048 0
M  V30 2604 H 236.809 2.02561 -4.61503 0
M  V30 2605 H 236.411 0.553712 -3.69878 0
M  V30 2606 H 238.703 2.20563 -6.40592 0
M  V30 2607 H 239.646 0.816724 -7.03374 0
M  V30 2608 H 240.054 1.51439 -5.43807 0
M  V30 2609 N 239.452 1.56882 -0.150215 0
M  V30 2610 C 240.868 1.58263 0.20617 0
M  V30 2611 C 241.068 1.16464 1.64434 0
M  V30 2612 O 240.124 0.866422 2.3717 0
M  V30 2613 C 241.437 3.00649 -0.0555025 0
M  V30 2614 C 242.985 3.12999 0.00795388 0
M  V30 2615 C 243.46 4.5744 -0.226429 0
M  V30 2616 N 244.951 4.62875 -0.173469 0
M  V30 2617 C 245.686 5.72454 -0.329288 0
M  V30 2618 N 245.182 6.90669 -0.543005 0
M  V30 2619 N 246.975 5.61467 -0.266666 0
M  V30 2620 H 239.126 1.82345 -1.08922 0
M  V30 2621 H 241.389 0.844149 -0.431413 0
M  V30 2622 H 241.095 3.3563 -1.05096 0
M  V30 2623 H 240.969 3.71337 0.66246 0
M  V30 2624 H 243.356 2.77857 0.993966 0
M  V30 2625 H 243.437 2.4479 -0.742388 0
M  V30 2626 H 243.081 4.93287 -1.20956 0
M  V30 2627 H 243.011 5.2378 0.544274 0
M  V30 2628 H 245.502 3.77898 -0.0130709 0
M  V30 2629 H 245.815 7.70045 -0.651922 0
M  V30 2630 H 244.16 6.92581 -0.579366 0
M  V30 2631 H 247.351 4.67992 -0.100441 0
M  V30 2632 H 247.524 6.46816 -0.391535 0
M  V30 2633 N 240.93 -0.123565 1.57115 0
M  V30 2634 C 242.178 -0.83051 1.84247 0
M  V30 2635 C 242.499 -1.80629 0.73471 0
M  V30 2636 O 241.769 -1.94403 -0.241688 0
M  V30 2637 H 240.349 -0.309694 0.679778 0
M  V30 2638 H 243.011 -0.111976 1.94578 0
M  V30 2639 H 242.107 -1.37852 2.80006 0
M  V30 2640 N 242.408 -1.52605 -0.393616 0
M  V30 2641 C 243.656 -1.67093 -1.13685 0
M  V30 2642 C 243.977 -0.411011 -1.90619 0
M  V30 2643 O 243.247 0.574491 -1.87287 0
M  V30 2644 H 241.827 -0.615923 -0.422668 0
M  V30 2645 H 244.489 -1.89704 -0.447039 0
M  V30 2646 H 243.585 -2.51922 -1.84232 0
M  V30 2647 N 243.887 0.651787 -1.4349 0
M  V30 2648 C 245.112 1.44434 -1.48841 0
M  V30 2649 C 245.537 1.8779 -0.107955 0
M  V30 2650 O 244.895 1.57464 0.898602 0
M  V30 2651 C 244.943 2.65458 -2.44059 0
M  V30 2652 O 244.047 3.64566 -1.92784 0
M  V30 2653 H 243.388 0.433005 -0.503391 0
M  V30 2654 H 245.918 0.797451 -1.88419 0
M  V30 2655 H 245.928 3.13255 -2.6141 0
M  V30 2656 H 244.603 2.33244 -3.4434 0
M  V30 2657 H 243.18 3.23716 -1.851 0
M  V30 2658 N 245.365 1.30045 0.890287 0
M  V30 2659 C 246.614 1.17929 1.63633 0
M  V30 2660 C 246.927 -0.266204 1.9378 0
M  V30 2661 O 248.133 -0.508804 2.6669 0
M  V30 2662 C 246.589 2.06317 2.94892 0
M  V30 2663 C 246.197 3.55745 2.72305 0
M  V30 2664 C 247.941 2.0295 3.72843 0
M  V30 2665 C 245.848 4.36205 3.99348 0
M  V30 2666 H 244.778 0.437782 0.613892 0
M  V30 2667 H 247.429 1.54754 0.986075 0
M  V30 2668 H 245.811 1.6237 3.61182 0
M  V30 2669 H 246.985 4.07805 2.1455 0
M  V30 2670 H 245.3 3.6088 2.07737 0
M  V30 2671 H 247.897 2.60319 4.67053 0
M  V30 2672 H 248.24 1.0117 4.0382 0
M  V30 2673 H 248.773 2.4499 3.13408 0
M  V30 2674 H 245.512 5.38659 3.73533 0
M  V30 2675 H 245.032 3.8891 4.56628 0
M  V30 2676 H 246.711 4.47362 4.67415 0
M  V30 2677 N 246.843 -1.10192 1.12674 0
M  V30 2678 C 247.773 -2.18652 0.819362 0
M  V30 2679 C 248.754 -1.68698 -0.217915 0
M  V30 2680 O 249.939 -1.94041 -0.0785581 0
M  V30 2681 C 247.069 -3.46202 0.27594 0
M  V30 2682 C 246.023 -4.09444 1.24656 0
M  V30 2683 C 245.349 -5.31725 0.563258 0
M  V30 2684 C 246.649 -4.52863 2.60217 0
M  V30 2685 H 248.343 -2.44622 1.72628 0
M  V30 2686 H 245.889 -1.17571 0.831451 0
M  V30 2687 H 247.842 -4.21372 0.0486149 0
M  V30 2688 H 246.566 -3.1973 -0.666331 0
M  V30 2689 H 245.225 -3.36284 1.45974 0
M  V30 2690 H 244.873 -5.0153 -0.384235 0
M  V30 2691 H 244.573 -5.74991 1.21075 0
M  V30 2692 H 246.097 -6.09624 0.34503 0
M  V30 2693 H 247.511 -5.19294 2.42913 0
M  V30 2694 H 245.908 -5.06986 3.21068 0
M  V30 2695 H 246.978 -3.65656 3.18471 0
M  V30 2696 N 248.321 -0.919034 -1.28029 0
M  V30 2697 C 249.546 -0.570357 -1.99403 0
M  V30 2698 C 249.971 0.842486 -1.68178 0
M  V30 2699 O 249.329 1.56391 -0.917141 0
M  V30 2700 C 249.377 -0.792541 -3.51783 0
M  V30 2701 O 248.481 0.145988 -4.12142 0
M  V30 2702 H 247.822 -0.220555 -0.6263 0
M  V30 2703 H 250.352 -1.23592 -1.63053 0
M  V30 2704 H 250.362 -0.704708 -4.01868 0
M  V30 2705 H 249.037 -1.82247 -3.73844 0
M  V30 2706 H 247.614 0.00897528 -3.72899 0
M  V30 2707 N 249.799 1.42003 -0.683588 0
M  V30 2708 C 250.749 2.27997 0.0121992 0
M  V30 2709 C 251.733 1.4156 0.764822 0
M  V30 2710 O 252.925 1.64935 0.642287 0
M  V30 2711 C 250.054 3.29706 0.956482 0
M  V30 2712 C 249.14 4.23625 0.200739 0
M  V30 2713 N 249.531 4.99448 -0.799087 0
M  V30 2714 C 247.829 4.43845 0.437937 0
M  V30 2715 C 248.53 5.68102 -1.25041 0
M  V30 2716 N 247.506 5.40511 -0.578648 0
M  V30 2717 H 251.308 2.84048 -0.754564 0
M  V30 2718 H 248.822 1.54071 -0.513398 0
M  V30 2719 H 250.819 3.90124 1.47 0
M  V30 2720 H 249.479 2.75216 1.72297 0
M  V30 2721 H 250.49 5.04303 -1.17893 0
M  V30 2722 H 247.167 4.00382 1.18325 0
M  V30 2723 H 248.557 6.38913 -2.07942 0
M  V30 2724 N 251.277 0.427512 1.51691 0
M  V30 2725 C 252.526 -0.143679 2.01188 0
M  V30 2726 C 252.839 -1.44642 1.31674 0
M  V30 2727 O 254.045 -2.09997 1.72086 0
M  V30 2728 C 252.501 -0.306602 3.58592 0
M  V30 2729 C 252.109 0.985125 4.37035 0
M  V30 2730 C 253.853 -0.832091 4.16265 0
M  V30 2731 C 251.76 0.788382 5.86122 0
M  V30 2732 H 250.69 -0.0574701 0.751807 0
M  V30 2733 H 253.341 0.555772 1.74881 0
M  V30 2734 H 251.723 -1.06882 3.81303 0
M  V30 2735 H 252.897 1.75492 4.26074 0
M  V30 2736 H 251.212 1.4384 3.90767 0
M  V30 2737 H 253.809 -0.995617 5.25349 0
M  V30 2738 H 254.152 -1.81186 3.74803 0
M  V30 2739 H 254.685 -0.128444 3.97593 0
M  V30 2740 H 251.424 1.74025 6.31978 0
M  V30 2741 H 250.944 0.0582143 5.99772 0
M  V30 2742 H 252.623 0.437722 6.45518 0
M  V30 2743 N 252.755 -1.56801 0.158532 0
M  V30 2744 C 253.705 -2.13923 -0.788738 0
M  V30 2745 C 254.689 -1.07006 -1.2016 0
M  V30 2746 O 255.881 -1.33159 -1.1661 0
M  V30 2747 C 253.01 -2.77348 -2.02319 0
M  V30 2748 C 252.096 -3.91404 -1.6329 0
M  V30 2749 N 252.487 -4.9677 -0.951463 0
M  V30 2750 C 250.785 -4.02326 -1.92482 0
M  V30 2751 C 251.486 -5.76698 -0.761221 0
M  V30 2752 N 250.462 -5.27859 -1.29869 0
M  V30 2753 H 254.264 -2.92757 -0.258995 0
M  V30 2754 H 251.778 -1.62344 -0.0426055 0
M  V30 2755 H 253.775 -3.16639 -2.71192 0
M  V30 2756 H 252.435 -1.99991 -2.558 0
M  V30 2757 H 253.446 -5.14284 -0.610928 0
M  V30 2758 H 250.123 -3.36059 -2.47732 0
M  V30 2759 H 251.513 -6.71529 -0.223284 0
M  V30 2760 N 254.233 0.115231 -1.57178 0
M  V30 2761 C 255.18 1.14115 -2.00615 0
M  V30 2762 C 256.15 1.40939 -0.878941 0
M  V30 2763 O 257.335 1.52741 -1.14345 0
M  V30 2764 C 254.475 2.46156 -2.4187 0
M  V30 2765 C 253.588 2.26236 -3.68024 0
M  V30 2766 C 252.723 3.51534 -3.98243 0
M  V30 2767 C 251.762 3.26787 -5.17568 0
M  V30 2768 N 250.899 4.44298 -5.43639 0
M  V30 2769 H 255.739 0.763743 -2.88047 0
M  V30 2770 H 253.276 0.365615 -1.42484 0
M  V30 2771 H 255.234 3.23189 -2.63827 0
M  V30 2772 H 253.864 2.81783 -1.57475 0
M  V30 2773 H 252.916 1.40102 -3.5366 0
M  V30 2774 H 254.228 2.03929 -4.55208 0
M  V30 2775 H 253.382 4.36984 -4.20868 0
M  V30 2776 H 252.121 3.76876 -3.09541 0
M  V30 2777 H 251.126 2.39729 -4.94783 0
M  V30 2778 H 252.351 3.02812 -6.0785 0
M  V30 2779 H 250.297 4.69754 -4.57895 0
M  V30 2780 H 250.214 4.25109 -6.25154 0
M  V30 2781 H 251.482 5.3087 -5.70786 0
M  V30 2782 N 255.711 1.52812 0.385517 0
M  V30 2783 C 257.127 1.4214 0.725829 0
M  V30 2784 C 257.327 0.544589 1.94001 0
M  V30 2785 O 256.383 0.0193693 2.52493 0
M  V30 2786 C 257.696 2.85042 0.957668 0
M  V30 2787 C 259.244 2.94543 1.05892 0
M  V30 2788 C 259.719 4.38464 1.32337 0
M  V30 2789 N 261.21 4.41804 1.39151 0
M  V30 2790 C 261.945 5.5025 1.61285 0
M  V30 2791 N 261.441 6.68775 1.80866 0
M  V30 2792 N 263.234 5.37798 1.63492 0
M  V30 2793 H 255.385 2.08338 -0.413383 0
M  V30 2794 H 257.648 0.940016 -0.122775 0
M  V30 2795 H 257.354 3.51431 0.137568 0
M  V30 2796 H 257.228 3.27505 1.87137 0
M  V30 2797 H 259.615 2.28321 1.86959 0
M  V30 2798 H 259.696 2.55504 0.123057 0
M  V30 2799 H 259.34 5.05254 0.517793 0
M  V30 2800 H 259.27 4.75059 2.27214 0
M  V30 2801 H 261.761 3.56377 1.25713 0
M  V30 2802 H 262.074 7.47197 1.97271 0
M  V30 2803 H 260.419 6.71797 1.78083 0
M  V30 2804 H 263.61 4.44171 1.47749 0
M  V30 2805 H 263.783 6.22382 1.80402 0
M  V30 2806 N 257.189 -0.644168 1.43834 0
M  V30 2807 C 258.605 -0.960875 1.27434 0
M  V30 2808 C 258.805 -2.00499 0.200618 0
M  V30 2809 O 257.861 -2.49018 -0.417906 0
M  V30 2810 C 259.174 -1.43653 2.64167 0
M  V30 2811 C 260.722 -1.55271 2.71772 0
M  V30 2812 C 261.197 -2.06224 4.08944 0
M  V30 2813 N 262.688 -2.13513 4.11055 0
M  V30 2814 C 263.423 -2.54081 5.14033 0
M  V30 2815 N 262.919 -2.9388 6.27381 0
M  V30 2816 N 264.712 -2.54101 5.01387 0
M  V30 2817 H 256.863 0.0465779 2.12349 0
M  V30 2818 H 259.126 -0.0417638 0.94708 0
M  V30 2819 H 258.832 -0.743706 3.43747 0
M  V30 2820 H 258.706 -2.40993 2.90176 0
M  V30 2821 H 261.093 -2.23653 1.92519 0
M  V30 2822 H 261.174 -0.563395 2.49519 0
M  V30 2823 H 260.818 -1.38441 4.88668 0
M  V30 2824 H 260.748 -3.06003 4.28567 0
M  V30 2825 H 263.239 -1.85493 3.29242 0
M  V30 2826 H 263.552 -3.2361 7.01781 0
M  V30 2827 H 261.897 -2.91663 6.30839 0
M  V30 2828 H 265.088 -2.22391 4.11898 0
M  V30 2829 H 265.261 -2.85394 5.81768 0
M  V30 2830 N 258.668 -1.30515 -0.883378 0
M  V30 2831 C 259.618 -1.13641 -1.9766 0
M  V30 2832 C 260.602 -0.0511314 -1.60819 0
M  V30 2833 O 261.794 -0.274623 -1.74857 0
M  V30 2834 C 258.923 -0.831976 -3.33066 0
M  V30 2835 C 258.009 -1.95759 -3.76217 0
M  V30 2836 N 258.4 -3.20313 -3.9145 0
M  V30 2837 C 256.698 -1.85431 -4.05625 0
M  V30 2838 C 257.399 -3.93856 -4.2808 0
M  V30 2839 N 256.375 -3.21919 -4.38029 0
M  V30 2840 H 260.177 -2.08106 -2.07531 0
M  V30 2841 H 257.691 -1.21877 -1.0733 0
M  V30 2842 H 259.688 -0.692102 -4.11115 0
M  V30 2843 H 258.348 0.104588 -3.24532 0
M  V30 2844 H 259.359 -3.55583 -3.76538 0
M  V30 2845 H 256.036 -0.991531 -4.05555 0
M  V30 2846 H 257.426 -5.01125 -4.47575 0
M  V30 2847 N 260.146 1.09593 -1.13257 0
M  V30 2848 C 261.393 1.81734 -0.893257 0
M  V30 2849 C 261.721 1.8563 0.580656 0
M  V30 2850 O 260.976 1.31906 1.44566 0
M  V30 2851 C 261.275 3.27802 -1.42411 0
M  V30 2852 C 260.941 3.44041 -2.91456 0
M  V30 2853 C 259.603 3.48181 -3.3215 0
M  V30 2854 C 261.955 3.48719 -3.87356 0
M  V30 2855 C 259.283 3.54575 -4.67433 0
M  V30 2856 C 261.635 3.56648 -5.2248 0
M  V30 2857 C 260.299 3.59055 -5.62704 0
M  V30 2858 H 259.569 0.665011 -0.326866 0
M  V30 2859 H 262.216 1.2912 -1.41422 0
M  V30 2860 H 260.521 3.83042 -0.823795 0
M  V30 2861 H 262.218 3.82149 -1.21503 0
M  V30 2862 H 258.808 3.41502 -2.58987 0
M  V30 2863 H 262.992 3.44763 -3.57004 0
M  V30 2864 H 258.248 3.54725 -4.97976 0
M  V30 2865 H 262.422 3.59212 -5.96607 0
M  V30 2866 H 260.049 3.63763 -6.67518 0
M  V30 2867 N 261.624 0.925811 1.2754 0
M  V30 2868 C 262.572 0.413897 2.28888 0
M  V30 2869 C 263.566 -0.500779 1.61829 0
M  V30 2870 O 264.772 -0.38069 1.75928 0
M  V30 2871 H 261.147 0.115274 0.743112 0
M  V30 2872 H 263.118 1.28151 2.69481 0
M  V30 2873 C 261.867 -0.319792 3.46226 0
M  V30 2874 H 261.19 0.374846 3.98039 0
M  V30 2875 H 262.63 -0.642435 4.19105 0
M  V30 2876 C 261.089 -1.53209 3.00048 0
M  V30 2877 O 261.619 -2.6309 3.03557 0
M  V30 2878 N 259.825 -1.38326 2.55566 0
M  V30 2879 H 259.372 -0.489292 2.5291 0
M  V30 2880 H 259.33 -2.19564 2.25031 0
M  V30 2881 N 263.102 -1.41638 0.69111 0
M  V30 2882 C 264.012 -2.34588 0.0233487 0
M  V30 2883 C 265.028 -1.55987 -0.770984 0
M  V30 2884 O 266.204 -1.88486 -0.709569 0
M  V30 2885 C 263.269 -3.34684 -0.904851 0
M  V30 2886 C 262.33 -4.29176 -0.103225 0
M  V30 2887 C 261.563 -5.2449 -0.987216 0
M  V30 2888 O 261.786 -5.2514 -2.22674 0
M  V30 2889 O 260.72 -6.00295 -0.439281 0
M  V30 2890 H 264.546 -2.93261 0.789416 0
M  V30 2891 H 262.131 -1.42417 0.45142 0
M  V30 2892 H 264.013 -3.96133 -1.43724 0
M  V30 2893 H 262.688 -2.78461 -1.65049 0
M  V30 2894 H 261.595 -3.71089 0.473655 0
M  V30 2895 H 262.928 -4.88484 0.60365 0
M  V30 2896 N 264.58 -0.43555 -1.51462 0
M  V30 2897 C 265.51 0.367376 -2.30592 0
M  V30 2898 C 266.491 1.02263 -1.35928 0
M  V30 2899 O 267.676 1.02661 -1.64847 0
M  V30 2900 C 264.806 1.46983 -3.14664 0
M  V30 2901 C 263.76 0.938161 -4.17591 0
M  V30 2902 C 263.086 2.13622 -4.90173 0
M  V30 2903 C 264.386 -0.0261621 -5.22293 0
M  V30 2904 H 266.08 -0.292969 -2.97963 0
M  V30 2905 H 263.626 -0.14234 -1.43295 0
M  V30 2906 H 265.579 2.03873 -3.688 0
M  V30 2907 H 264.303 2.15843 -2.4511 0
M  V30 2908 H 262.962 0.391481 -3.64504 0
M  V30 2909 H 262.61 2.81098 -4.17124 0
M  V30 2910 H 262.31 1.78688 -5.59772 0
M  V30 2911 H 263.834 2.7107 -5.47132 0
M  V30 2912 H 265.248 0.452384 -5.71512 0
M  V30 2913 H 263.645 -0.287992 -5.99409 0
M  V30 2914 H 264.715 -0.963391 -4.75233 0
M  V30 2915 N 266.058 1.56714 -0.166846 0
M  V30 2916 C 266.968 2.21331 0.777791 0
M  V30 2917 C 267.984 1.20358 1.25658 0
M  V30 2918 O 269.16 1.53005 1.30964 0
M  V30 2919 C 266.225 2.83787 1.99163 0
M  V30 2920 C 265.286 3.99947 1.56016 0
M  V30 2921 C 264.519 4.59415 2.71613 0
M  V30 2922 O 264.742 4.17769 3.88362 0
M  V30 2923 O 263.676 5.49359 2.45945 0
M  V30 2924 H 267.502 3.02605 0.257636 0
M  V30 2925 H 265.087 1.49275 0.0611393 0
M  V30 2926 H 266.969 3.23405 2.70161 0
M  V30 2927 H 265.644 2.05513 2.50092 0
M  V30 2928 H 264.551 3.65007 0.819809 0
M  V30 2929 H 265.884 4.79801 1.09782 0
M  V30 2930 N 267.536 -0.106894 1.57237 0
M  V30 2931 C 268.499 -1.11466 2.0027 0
M  V30 2932 C 269.499 -1.33623 0.894519 0
M  V30 2933 O 270.689 -1.29935 1.16028 0
M  V30 2934 C 267.821 -2.46646 2.35327 0
M  V30 2935 H 269.014 -0.744516 2.90512 0
M  V30 2936 H 266.567 -0.351576 1.52295 0
M  V30 2937 H 267.302 -2.88558 1.48003 0
M  V30 2938 H 267.087 -2.31915 3.16161 0
M  V30 2939 H 268.577 -3.19151 2.69318 0
M  V30 2940 N 269.014 -1.53014 -0.377408 0
M  V30 2941 C 270.239 -1.72818 -1.14668 0
M  V30 2942 C 270.664 -0.450725 -1.8262 0
M  V30 2943 O 270.022 0.59439 -1.7128 0
M  V30 2944 C 270.07 -2.88627 -2.16164 0
M  V30 2945 O 269.174 -2.56409 -3.22998 0
M  V30 2946 H 268.515 -0.574301 -0.333278 0
M  V30 2947 H 271.045 -1.99853 -0.438152 0
M  V30 2948 H 271.055 -3.14455 -2.59966 0
M  V30 2949 H 269.73 -3.81294 -1.66095 0
M  V30 2950 H 268.307 -2.4136 -2.84253 0
M  V30 2951 N 270.492 0.636531 -1.44174 0
M  V30 2952 C 271.738 1.39826 -1.4689 0
M  V30 2953 C 272.071 1.93947 -0.0990585 0
M  V30 2954 O 271.346 1.73325 0.882544 0
M  V30 2955 C 271.629 2.56751 -2.5249 0
M  V30 2956 C 271.482 2.08014 -3.98811 0
M  V30 2957 C 272.801 3.58946 -2.54649 0
M  V30 2958 H 269.92 0.507075 -0.53483 0
M  V30 2959 H 272.562 0.720188 -1.75822 0
M  V30 2960 H 270.712 3.14597 -2.2795 0
M  V30 2961 H 272.384 1.5504 -4.34466 0
M  V30 2962 H 270.627 1.39242 -4.10846 0
M  V30 2963 H 271.298 2.92169 -4.68339 0
M  V30 2964 H 273.774 3.1089 -2.76563 0
M  V30 2965 H 272.65 4.38286 -3.3045 0
M  V30 2966 H 272.911 4.12655 -1.58646 0
M  V30 2967 N 271.97 1.30982 0.876444 0
M  V30 2968 C 273.216 1.20474 1.63138 0
M  V30 2969 C 273.549 -0.238096 1.92735 0
M  V30 2970 O 272.824 -1.1692 1.55435 0
M  V30 2971 C 273.107 2.04244 2.96574 0
M  V30 2972 C 272.96 3.56793 2.73896 0
M  V30 2973 C 274.279 1.88684 3.97601 0
M  V30 2974 H 271.398 0.439001 0.591985 0
M  V30 2975 H 274.04 1.60704 1.01361 0
M  V30 2976 H 272.19 1.70063 3.493 0
M  V30 2977 H 273.862 4.01077 2.27892 0
M  V30 2978 H 272.105 3.80548 2.08245 0
M  V30 2979 H 272.776 4.10706 3.68815 0
M  V30 2980 H 275.252 2.18584 3.54062 0
M  V30 2981 H 274.128 2.4961 4.88862 0
M  V30 2982 H 274.389 0.848343 4.33884 0
M  V30 2983 N 273.449 -1.08991 1.13837 0
M  V30 2984 C 274.695 -1.81526 0.90422 0
M  V30 2985 C 275.028 -1.85706 -0.568066 0
M  V30 2986 O 274.303 -1.32855 -1.42056 0
M  V30 2987 C 274.586 -3.27447 1.49835 0
M  V30 2988 C 274.439 -3.31512 3.04006 0
M  V30 2989 C 275.758 -4.24256 1.17025 0
M  V30 2990 H 272.877 -0.659029 0.329923 0
M  V30 2991 H 275.519 -1.27644 1.40737 0
M  V30 2992 H 273.669 -3.73462 1.07044 0
M  V30 2993 H 275.341 -2.93867 3.55584 0
M  V30 2994 H 273.584 -2.70963 3.38765 0
M  V30 2995 H 274.255 -4.34329 3.40679 0
M  V30 2996 H 276.731 -3.86549 1.54009 0
M  V30 2997 H 275.607 -5.24684 1.61237 0
M  V30 2998 H 275.868 -4.42019 0.0846274 0
M  V30 2999 N 274.927 -0.932562 -1.27047 0
M  V30 3000 C 275.859 -0.392734 -2.2581 0
M  V30 3001 C 276.872 0.479241 -1.55586 0
M  V30 3002 O 278.061 0.291078 -1.76111 0
M  V30 3003 C 275.161 0.455456 -3.35826 0
M  V30 3004 C 274.334 -0.398355 -4.35582 0
M  V30 3005 C 273.393 0.387985 -5.24768 0
M  V30 3006 O 272.419 -0.206003 -5.68827 0
M  V30 3007 N 273.621 1.68664 -5.55457 0
M  V30 3008 H 276.386 -1.24173 -2.72766 0
M  V30 3009 H 273.947 -0.800511 -1.40725 0
M  V30 3010 H 275.939 0.988692 -3.92437 0
M  V30 3011 H 274.509 1.20522 -2.88432 0
M  V30 3012 H 273.729 -1.11286 -3.78165 0
M  V30 3013 H 275.017 -0.981889 -4.99236 0
M  V30 3014 H 274.415 2.19147 -5.21528 0
M  V30 3015 H 272.972 2.1663 -6.14748 0
M  V30 3016 N 276.405 1.4127 -0.698611 0
M  V30 3017 C 277.682 1.94955 -0.158762 0
M  V30 3018 C 278.062 1.63781 1.33188 0
M  V30 3019 O 277.41 0.946423 2.07979 0
M  V30 3020 C 277.62 3.46044 -0.453309 0
M  V30 3021 C 278.968 4.22872 -0.382707 0
M  V30 3022 O 279.992 3.54076 -0.388396 0
M  V30 3023 O 278.851 5.45407 -0.345463 0
M  V30 3024 H 275.945 0.82683 -0.0167505 0
M  V30 3025 H 278.491 1.50971 -0.77498 0
M  V30 3026 H 277.263 3.62028 -1.48498 0
M  V30 3027 H 276.886 3.97128 0.19373 0
M  V30 3028 N 277.883 0.443576 1.51229 0
M  V30 3029 C 279.129 -0.120975 2.02439 0
M  V30 3030 C 279.462 -1.41815 1.32674 0
M  V30 3031 O 278.737 -1.89373 0.443622 0
M  V30 3032 C 279.02 -0.333291 3.58554 0
M  V30 3033 C 278.873 0.982968 4.38928 0
M  V30 3034 C 280.192 -1.10028 4.26124 0
M  V30 3035 H 277.311 -0.0424923 0.735774 0
M  V30 3036 H 279.953 0.583794 1.80809 0
M  V30 3037 H 278.103 -0.933614 3.77115 0
M  V30 3038 H 279.775 1.61775 4.32003 0
M  V30 3039 H 278.018 1.58611 4.03763 0
M  V30 3040 H 278.689 0.788379 5.46341 0
M  V30 3041 H 281.165 -0.591711 4.11871 0
M  V30 3042 H 280.041 -1.21761 5.35225 0
M  V30 3043 H 280.302 -2.12996 3.87408 0
M  V30 3044 N 279.361 -1.56624 0.175154 0
M  V30 3045 C 280.324 -2.16934 -0.739738 0
M  V30 3046 C 281.324 -1.11842 -1.15533 0
M  V30 3047 O 282.514 -1.37335 -1.07167 0
M  V30 3048 C 279.646 -2.75531 -2.00738 0
M  V30 3049 H 280.839 -2.99131 -0.214639 0
M  V30 3050 H 278.392 -1.56123 -0.0744197 0
M  V30 3051 H 279.127 -1.97078 -2.57548 0
M  V30 3052 H 278.912 -3.52444 -1.71831 0
M  V30 3053 H 280.402 -3.21904 -2.66021 0
M  V30 3054 N 280.839 0.0985539 -1.57292 0
M  V30 3055 C 282.064 0.820196 -1.90493 0
M  V30 3056 C 282.489 1.71658 -0.769094 0
M  V30 3057 O 281.847 1.79133 0.279495 0
M  V30 3058 C 281.895 1.61242 -3.22542 0
M  V30 3059 O 280.999 2.72108 -3.09888 0
M  V30 3060 H 280.34 0.225547 -0.62452 0
M  V30 3061 H 282.87 0.0748159 -2.04463 0
M  V30 3062 H 282.88 1.99737 -3.55766 0
M  V30 3063 H 281.555 0.954535 -4.04798 0
M  V30 3064 H 280.132 2.36667 -2.88172 0
M  V30 3065 N 282.317 1.53212 0.369288 0
M  V30 3066 C 283.28 1.7872 1.43498 0
M  V30 3067 C 284.28 0.657554 1.46741 0
M  V30 3068 O 285.47 0.925736 1.47566 0
M  V30 3069 C 282.602 1.90591 2.82645 0
M  V30 3070 H 283.795 2.73894 1.22156 0
M  V30 3071 H 281.348 1.44233 0.602203 0
M  V30 3072 H 282.083 0.974709 3.09306 0
M  V30 3073 H 281.868 2.72751 2.8169 0
M  V30 3074 H 283.358 2.11931 3.59826 0
M  V30 3075 N 283.795 -0.628877 1.44509 0
M  V30 3076 C 284.725 -1.75187 1.54376 0
M  V30 3077 C 285.706 -1.65411 0.396618 0
M  V30 3078 O 286.891 -1.84137 0.617031 0
M  V30 3079 C 284.021 -3.13725 1.48976 0
M  V30 3080 C 282.975 -3.38291 2.62189 0
M  V30 3081 C 282.301 -4.76883 2.41841 0
M  V30 3082 C 283.601 -3.30632 4.04326 0
M  V30 3083 H 285.295 -1.67187 2.48373 0
M  V30 3084 H 282.841 -0.802909 1.19538 0
M  V30 3085 H 284.794 -3.92064 1.54478 0
M  V30 3086 H 283.518 -3.22515 0.514961 0
M  V30 3087 H 282.177 -2.62334 2.56079 0
M  V30 3088 H 281.825 -4.82378 1.42548 0
M  V30 3089 H 281.525 -4.94278 3.17747 0
M  V30 3090 H 283.049 -5.57449 2.49165 0
M  V30 3091 H 284.463 -3.98873 4.11793 0
M  V30 3092 H 282.86 -3.59561 4.80454 0
M  V30 3093 H 283.93 -2.28404 4.27738 0
M  V30 3094 N 285.273 -1.31445 -0.869486 0
M  V30 3095 C 286.55 -1.11795 -1.60503 0
M  V30 3096 C 286.93 0.327168 -2.08549 0
M  V30 3097 O 286.278 1.32135 -1.8642 0
M  V30 3098 C 286.488 -2.13258 -2.76265 0
M  V30 3099 C 287.836 -2.45805 -3.46215 0
M  V30 3100 O 288.86 -2.11688 -2.86473 0
M  V30 3101 O 287.719 -3.04228 -4.5399 0
M  V30 3102 H 284.813 -0.430421 -0.706163 0
M  V30 3103 H 287.359 -1.42925 -0.914907 0
M  V30 3104 H 286.131 -3.10461 -2.3818 0
M  V30 3105 H 285.754 -1.83035 -3.52964 0
M  V30 3106 N 286.751 1.08385 -1.14413 0
M  V30 3107 C 287.998 1.80776 -0.912482 0
M  V30 3108 C 288.326 1.86236 0.560934 0
M  V30 3109 O 287.581 1.33431 1.43159 0
M  V30 3110 C 287.88 3.26273 -1.45879 0
M  V30 3111 C 287.546 3.4093 -2.95089 0
M  V30 3112 C 286.208 3.44638 -3.35824 0
M  V30 3113 C 288.56 3.44591 -3.91033 0
M  V30 3114 C 285.888 3.49597 -4.71167 0
M  V30 3115 C 288.24 3.51086 -5.26233 0
M  V30 3116 C 286.904 3.53067 -5.6648 0
M  V30 3117 H 286.174 0.661507 -0.333901 0
M  V30 3118 H 288.821 1.27613 -1.42784 0
M  V30 3119 H 287.126 3.82146 -0.864376 0
M  V30 3120 H 288.823 3.80839 -1.2555 0
M  V30 3121 H 285.413 3.38736 -2.62594 0
M  V30 3122 H 289.597 3.40957 -3.60641 0
M  V30 3123 H 284.853 3.49424 -5.0171 0
M  V30 3124 H 289.027 3.52864 -6.00383 0
M  V30 3125 H 286.654 3.56662 -6.71339 0
M  V30 3126 N 288.23 0.939286 1.26551 0
M  V30 3127 C 289.16 0.465044 2.28822 0
M  V30 3128 C 290.141 -0.480692 1.63167 0
M  V30 3129 O 291.326 -0.382955 1.90387 0
M  V30 3130 C 288.456 -0.27234 3.46231 0
M  V30 3131 C 287.41 0.58666 4.2396 0
M  V30 3132 C 286.736 -0.280573 5.33963 0
M  V30 3133 C 288.036 1.85704 4.88171 0
M  V30 3134 H 289.73 1.31979 2.68741 0
M  V30 3135 H 287.276 0.636061 1.29191 0
M  V30 3136 H 289.229 -0.615133 4.16886 0
M  V30 3137 H 287.953 -1.16121 3.0526 0
M  V30 3138 H 286.612 0.91232 3.55067 0
M  V30 3139 H 286.26 -1.16874 4.89234 0
M  V30 3140 H 285.96 0.29076 5.8688 0
M  V30 3141 H 287.484 -0.618678 6.07458 0
M  V30 3142 H 288.898 1.58161 5.51052 0
M  V30 3143 H 287.295 2.37279 5.51197 0
M  V30 3144 H 288.365 2.56957 4.11219 0
M  V30 3145 N 289.708 -1.40897 0.706093 0
M  V30 3146 C 290.658 -2.27987 0.0240746 0
M  V30 3147 C 291.642 -1.42759 -0.742204 0
M  V30 3148 O 292.834 -1.65936 -0.615966 0
M  V30 3149 C 289.963 -3.31186 -0.903907 0
M  V30 3150 C 289.049 -4.2389 -0.133318 0
M  V30 3151 N 289.44 -4.98113 0.878444 0
M  V30 3152 C 287.738 -4.44485 -0.367269 0
M  V30 3153 C 288.439 -5.6604 1.34064 0
M  V30 3154 N 287.415 -5.39522 0.664565 0
M  V30 3155 H 291.217 -2.82812 0.799658 0
M  V30 3156 H 288.731 -1.53235 0.537845 0
M  V30 3157 H 290.728 -3.92413 -1.40775 0
M  V30 3158 H 289.388 -2.77922 -1.67897 0
M  V30 3159 H 290.399 -5.02364 1.25901 0
M  V30 3160 H 287.076 -4.02213 -1.1194 0
M  V30 3161 H 288.466 -6.35524 2.1808 0
M  V30 3162 N 291.186 -0.45159 -1.50991 0
M  V30 3163 C 292.134 0.366864 -2.29689 0
M  V30 3164 C 293.128 1.00809 -1.36139 0
M  V30 3165 O 294.334 0.941427 -1.53418 0
M  V30 3166 H 290.709 0.137133 -0.739391 0
M  V30 3167 H 292.68 -0.317538 -2.96706 0
M  V30 3168 C 291.429 1.44751 -3.16137 0
M  V30 3169 H 290.752 0.963473 -3.88017 0
M  V30 3170 H 292.192 1.99315 -3.74232 0
M  V30 3171 C 290.651 2.43869 -2.32442 0
M  V30 3172 O 291.181 3.4872 -1.99392 0
M  V30 3173 N 289.387 2.15105 -1.95392 0
M  V30 3174 H 288.934 1.29866 -2.22469 0
M  V30 3175 H 288.892 2.81661 -1.39693 0
M  V30 3176 N 292.664 1.56529 -0.183458 0
M  V30 3177 C 293.611 2.18546 0.742055 0
M  V30 3178 C 294.581 1.12912 1.2182 0
M  V30 3179 O 295.766 1.41115 1.28418 0
M  V30 3180 C 292.906 2.83977 1.96089 0
M  V30 3181 C 292.019 4.04105 1.52719 0
M  V30 3182 C 291.154 4.57427 2.70063 0
M  V30 3183 C 290.193 5.69938 2.23243 0
M  V30 3184 N 289.33 6.17717 3.33722 0
M  V30 3185 H 294.17 2.97284 0.206432 0
M  V30 3186 H 291.707 1.46823 0.0901571 0
M  V30 3187 H 293.665 3.20077 2.67594 0
M  V30 3188 H 292.295 2.07822 2.47002 0
M  V30 3189 H 291.347 3.73745 0.708436 0
M  V30 3190 H 292.659 4.85513 1.1436 0
M  V30 3191 H 291.813 4.95772 3.49708 0
M  V30 3192 H 290.552 3.75101 3.11689 0
M  V30 3193 H 289.557 5.31133 1.42048 0
M  V30 3194 H 290.782 6.54073 1.82661 0
M  V30 3195 H 288.728 5.38317 3.74902 0
M  V30 3196 H 288.645 6.94146 2.99495 0
M  V30 3197 H 289.913 6.60713 4.13616 0
M  V30 3198 N 294.142 -0.090211 1.57342 0
M  V30 3199 C 295.39 -0.791241 1.85967 0
M  V30 3200 C 295.711 -1.7903 0.772859 0
M  V30 3201 O 294.981 -1.94872 -0.200398 0
M  V30 3202 H 293.561 -0.295205 0.686195 0
M  V30 3203 H 296.223 -0.0706782 1.94772 0
M  V30 3204 H 295.319 -1.31882 2.82867 0
M  V30 3205 N 295.62 -1.53406 -0.361157 0
M  V30 3206 C 296.869 -1.69022 -1.10066 0
M  V30 3207 C 297.182 -0.450838 -1.90333 0
M  V30 3208 O 298.388 -0.487617 -2.67085 0
M  V30 3209 C 296.844 -2.98812 -2.00598 0
M  V30 3210 C 296.452 -4.30027 -1.25621 0
M  V30 3211 C 298.196 -3.23795 -2.74513 0
M  V30 3212 C 296.103 -5.50903 -2.1508 0
M  V30 3213 H 295.033 -0.629776 -0.414606 0
M  V30 3214 H 297.684 -1.79907 -0.361348 0
M  V30 3215 H 296.066 -2.8174 -2.78278 0
M  V30 3216 H 297.24 -4.57745 -0.529739 0
M  V30 3217 H 295.555 -4.11522 -0.635496 0
M  V30 3218 H 298.152 -4.11289 -3.41681 0
M  V30 3219 H 298.495 -2.40045 -3.40123 0
M  V30 3220 H 299.028 -3.41561 -2.03914 0
M  V30 3221 H 295.767 -6.37143 -1.54041 0
M  V30 3222 H 295.287 -5.27459 -2.85565 0
M  V30 3223 H 296.966 -5.85865 -2.74538 0
M  V30 3224 N 297.098 0.621204 -1.44841 0
M  V30 3225 C 298.061 1.71459 -1.521 0
M  V30 3226 C 299.061 1.55696 -0.401933 0
M  V30 3227 O 300.251 1.61011 -0.664925 0
M  V30 3228 C 297.383 3.10624 -1.40447 0
M  V30 3229 H 298.576 1.66394 -2.49506 0
M  V30 3230 H 296.129 0.835745 -1.3208 0
M  V30 3231 H 296.864 3.21277 -0.441737 0
M  V30 3232 H 296.649 3.23473 -2.21602 0
M  V30 3233 H 298.139 3.90293 -1.4853 0
M  V30 3234 N 298.576 1.31904 0.862503 0
M  V30 3235 C 299.526 1.16772 1.95827 0
M  V30 3236 C 300.51 0.0767098 1.60717 0
M  V30 3237 O 301.702 0.302407 1.74398 0
M  V30 3238 C 298.831 0.884858 3.317 0
M  V30 3239 C 297.917 2.0172 3.73055 0
M  V30 3240 N 298.308 3.265 3.86305 0
M  V30 3241 C 296.606 1.91861 4.02623 0
M  V30 3242 C 297.307 4.00616 4.2176 0
M  V30 3243 N 296.283 3.28847 4.32852 0
M  V30 3244 H 300.085 2.11382 2.04193 0
M  V30 3245 H 297.599 1.2357 1.05377 0
M  V30 3246 H 299.596 0.757419 4.09962 0
M  V30 3247 H 298.256 -0.0529448 3.24657 0
M  V30 3248 H 299.267 3.61529 3.70833 0
M  V30 3249 H 295.944 1.05593 4.03926 0
M  V30 3250 H 297.334 5.08182 4.39546 0
M  V30 3251 N 300.054 -1.07777 1.14986 0
M  V30 3252 C 301.47 -1.32373 0.891596 0
M  V30 3253 C 301.67 -1.9609 -0.463788 0
M  V30 3254 O 300.726 -2.21801 -1.20667 0
M  V30 3255 C 302.039 -2.21905 2.02925 0
M  V30 3256 C 303.587 -2.35367 2.06329 0
M  V30 3257 C 304.062 -3.28245 3.19405 0
M  V30 3258 N 305.553 -3.35824 3.19024 0
M  V30 3259 C 306.288 -4.07739 4.03158 0
M  V30 3260 N 305.784 -4.82306 4.97346 0
M  V30 3261 N 307.577 -4.03635 3.91197 0
M  V30 3262 H 299.728 -0.648039 2.02273 0
M  V30 3263 H 301.991 -0.348149 0.881757 0
M  V30 3264 H 301.697 -1.82342 3.0074 0
M  V30 3265 H 301.571 -3.22407 1.95789 0
M  V30 3266 H 303.958 -2.74186 1.09116 0
M  V30 3267 H 304.039 -1.34585 2.17533 0
M  V30 3268 H 303.683 -2.90146 4.16867 0
M  V30 3269 H 303.613 -4.28971 3.05437 0
M  V30 3270 H 306.104 -2.8267 2.50811 0
M  V30 3271 H 306.417 -5.34661 5.57994 0
M  V30 3272 H 304.762 -4.81337 5.01338 0
M  V30 3273 H 307.953 -3.44491 3.16928 0
M  V30 3274 H 308.126 -4.59417 4.5699 0
M  V30 3275 N 301.532 -0.945985 -1.26051 0
M  V30 3276 C 302.809 -0.513816 -1.88731 0
M  V30 3277 C 303.189 1.00872 -1.8544 0
M  V30 3278 O 302.537 1.8708 -1.312 0
M  V30 3279 C 302.747 -1.08062 -3.31849 0
M  V30 3280 C 304.095 -1.1522 -4.08668 0
M  V30 3281 O 305.119 -1.03155 -3.40936 0
M  V30 3282 O 303.978 -1.34044 -5.29806 0
M  V30 3283 H 301.072 -0.168193 -0.809716 0
M  V30 3284 H 303.618 -1.03886 -1.34186 0
M  V30 3285 H 302.39 -2.1241 -3.2863 0
M  V30 3286 H 302.013 -0.538307 -3.93939 0
M  V30 3287 N 303.011 1.40521 -0.713556 0
M  V30 3288 C 303.941 2.33381 -0.0743864 0
M  V30 3289 C 304.922 1.52784 0.747735 0
M  V30 3290 O 306.107 1.81258 0.697071 0
M  V30 3291 C 303.237 3.36748 0.849598 0
M  V30 3292 C 302.191 4.27793 0.133247 0
M  V30 3293 C 301.517 5.21679 1.17281 0
M  V30 3294 C 302.817 5.12415 -1.01134 0
M  V30 3295 H 304.511 2.87081 -0.850007 0
M  V30 3296 H 302.057 1.38034 -0.410201 0
M  V30 3297 H 304.01 4.00648 1.30612 0
M  V30 3298 H 302.734 2.81439 1.65709 0
M  V30 3299 H 301.393 3.65342 -0.303426 0
M  V30 3300 H 301.041 4.62677 1.9733 0
M  V30 3301 H 300.741 5.83435 0.698397 0
M  V30 3302 H 302.265 5.88456 1.62947 0
M  V30 3303 H 303.679 5.69781 -0.634274 0
M  V30 3304 H 302.076 5.83203 -1.41399 0
M  V30 3305 H 303.146 4.48514 -1.84292 0
M  V30 3306 N 304.489 0.459591 1.5075 0
M  V30 3307 C 305.436 -0.340524 2.28274 0
M  V30 3308 C 306.406 -0.997371 1.32822 0
M  V30 3309 O 307.591 -1.01202 1.61749 0
M  V30 3310 C 304.731 -1.42317 3.14388 0
M  V30 3311 C 303.844 -0.782251 4.24859 0
M  V30 3312 C 302.979 -1.84182 4.98247 0
M  V30 3313 C 302.018 -1.18053 6.00608 0
M  V30 3314 N 301.155 -2.18244 6.67319 0
M  V30 3315 H 305.995 0.326899 2.96202 0
M  V30 3316 H 303.532 0.173057 1.46078 0
M  V30 3317 H 305.49 -2.06241 3.62658 0
M  V30 3318 H 304.12 -2.05992 2.4853 0
M  V30 3319 H 303.172 -0.0307404 3.80388 0
M  V30 3320 H 304.484 -0.259663 4.98124 0
M  V30 3321 H 303.638 -2.55714 5.50177 0
M  V30 3322 H 302.377 -2.39819 4.24662 0
M  V30 3323 H 301.382 -0.450776 5.47949 0
M  V30 3324 H 302.607 -0.631202 6.7616 0
M  V30 3325 H 300.553 -2.72919 5.96533 0
M  V30 3326 H 300.47 -1.70938 7.36421 0
M  V30 3327 H 301.738 -2.89191 7.23871 0
M  V30 3328 N 305.967 -1.56429 0.191757 0
M  V30 3329 C 307.378 -1.83912 -0.321428 0
M  V30 3330 C 307.729 -1.11231 -1.61623 0
M  V30 3331 O 306.854 -0.37202 -2.13178 0
M  V30 3332 C 307.449 -3.33624 -0.589961 0
M  V30 3333 C 306.008 -3.6153 -1.04753 0
M  V30 3334 C 305.155 -2.7714 -0.0943327 0
M  V30 3335 H 308.106 -1.53161 0.415612 0
M  V30 3336 H 308.127 -3.52213 -1.43966 0
M  V30 3337 H 307.639 -3.86495 0.352588 0
M  V30 3338 H 305.74 -3.14089 -2.00447 0
M  V30 3339 H 305.853 -4.69737 -0.942549 0
M  V30 3340 H 304.217 -2.47638 -0.595589 0
M  V30 3341 H 305 -3.32799 0.842601 0
M  V30 3342 N 307.445 0.0818655 -1.57387 0
M  V30 3343 C 308.355 1.11642 -2.06333 0
M  V30 3344 C 309.371 1.43033 -0.99083 0
M  V30 3345 O 310.547 1.53411 -1.30488 0
M  V30 3346 C 307.612 2.41342 -2.48907 0
M  V30 3347 C 306.673 2.17014 -3.7041 0
M  V30 3348 C 305.906 3.4053 -4.10944 0
M  V30 3349 O 306.129 4.4927 -3.51444 0
M  V30 3350 O 305.063 3.29336 -5.03807 0
M  V30 3351 H 308.889 0.730657 -2.9478 0
M  V30 3352 H 306.474 0.295301 -1.46452 0
M  V30 3353 H 308.356 3.17691 -2.76858 0
M  V30 3354 H 307.031 2.79319 -1.63593 0
M  V30 3355 H 305.938 1.38403 -3.47556 0
M  V30 3356 H 307.271 1.83923 -4.56545 0
M  V30 3357 N 308.923 1.53595 0.353017 0
M  V30 3358 C 309.871 1.81605 1.45335 0
M  V30 3359 C 310.865 0.685923 1.54892 0
M  V30 3360 O 312.071 0.869095 1.57628 0
M  V30 3361 H 308.446 0.575204 0.484401 0
M  V30 3362 H 310.417 2.73679 1.18921 0
M  V30 3363 C 309.166 2.03406 2.81995 0
M  V30 3364 H 308.489 2.89814 2.75405 0
M  V30 3365 H 309.929 2.26975 3.58132 0
M  V30 3366 C 308.388 0.816794 3.26849 0
M  V30 3367 O 308.918 0.0115856 4.01698 0
M  V30 3368 N 307.124 0.636682 2.8354 0
M  V30 3369 H 306.671 1.2931 2.22793 0
M  V30 3370 H 306.629 -0.176336 3.13905 0
M  V30 3371 N 310.401 -0.613514 1.45168 0
M  V30 3372 C 311.65 -1.36874 1.4815 0
M  V30 3373 C 311.963 -1.952 0.124982 0
M  V30 3374 O 313.169 -2.71481 0.0324176 0
M  V30 3375 C 311.625 -2.47905 2.60904 0
M  V30 3376 C 311.233 -1.96016 4.02842 0
M  V30 3377 C 312.977 -3.24965 2.73126 0
M  V30 3378 C 310.884 -3.04494 5.06988 0
M  V30 3379 H 309.814 -0.514428 0.551253 0
M  V30 3380 H 312.465 -0.658182 1.7129 0
M  V30 3381 H 310.847 -3.21618 2.31037 0
M  V30 3382 H 312.021 -1.29051 4.4236 0
M  V30 3383 H 310.336 -1.31719 3.95018 0
M  V30 3384 H 312.933 -4.05865 3.48106 0
M  V30 3385 H 313.276 -3.75588 1.79553 0
M  V30 3386 H 313.809 -2.5835 3.0249 0
M  V30 3387 H 310.548 -2.58795 6.0225 0
M  V30 3388 H 310.068 -3.70044 4.72046 0
M  V30 3389 H 311.747 -3.68976 5.31475 0
M  V30 3390 N 311.879 -1.3236 -0.855495 0
M  V30 3391 C 312.809 -1.23833 -1.97958 0
M  V30 3392 C 313.79 -0.122361 -1.69659 0
M  V30 3393 O 314.975 -0.30939 -1.9172 0
M  V30 3394 C 312.105 -0.959772 -3.33775 0
M  V30 3395 C 311.059 -2.03689 -3.76424 0
M  V30 3396 C 310.385 -1.61075 -5.09862 0
M  V30 3397 C 311.685 -3.4518 -3.9198 0
M  V30 3398 H 313.379 -2.1788 -2.0535 0
M  V30 3399 H 310.925 -1.04891 -0.986605 0
M  V30 3400 H 312.878 -0.886678 -4.11966 0
M  V30 3401 H 311.602 0.0163404 -3.26596 0
M  V30 3402 H 310.261 -2.10012 -3.00484 0
M  V30 3403 H 309.909 -0.622107 -4.99138 0
M  V30 3404 H 309.609 -2.33143 -5.39368 0
M  V30 3405 H 311.133 -1.55201 -5.90546 0
M  V30 3406 H 312.547 -3.4145 -4.60526 0
M  V30 3407 H 310.944 -4.1559 -4.32903 0
M  V30 3408 H 312.014 -3.84903 -2.94919 0
M  V30 3409 N 313.357 1.07166 -1.15556 0
M  V30 3410 C 314.597 1.81391 -0.94216 0
M  V30 3411 C 314.961 1.84788 0.521272 0
M  V30 3412 O 316.162 2.54904 0.85307 0
M  V30 3413 C 314.433 3.22431 -1.54185 0
M  V30 3414 S 315.992 4.13379 -1.47183 0
M  V30 3415 H 312.81 0.624963 -0.339031 0
M  V30 3416 H 315.412 1.28725 -1.4714 0
M  V30 3417 H 314.116 3.17548 -2.59984 0
M  V30 3418 H 313.647 3.80172 -1.01156 0
M  V30 3419 H 315.662 4.94007 -0.466004 0
M  V30 3420 N 314.835 0.952656 1.25548 0
M  V30 3421 C 315.745 0.47782 2.29682 0
M  V30 3422 C 316.761 -0.453859 1.67977 0
M  V30 3423 O 317.937 -0.330587 1.98668 0
M  V30 3424 C 315.002 -0.238655 3.45878 0
M  V30 3425 C 314.063 0.730994 4.23031 0
M  V30 3426 C 313.296 0.0486165 5.33678 0
M  V30 3427 O 313.519 -1.16612 5.58353 0
M  V30 3428 O 312.453 0.733152 5.97418 0
M  V30 3429 H 316.279 1.34312 2.72386 0
M  V30 3430 H 313.864 0.719026 1.30959 0
M  V30 3431 H 315.746 -0.641774 4.16484 0
M  V30 3432 H 314.421 -1.07916 3.05181 0
M  V30 3433 H 313.328 1.18428 3.5486 0
M  V30 3434 H 314.661 1.53946 4.67506 0
M  V30 3435 N 316.313 -1.40141 0.720998 0
M  V30 3436 C 317.263 -2.27949 0.0482544 0
M  V30 3437 C 318.247 -1.43538 -0.727021 0
M  V30 3438 O 319.439 -1.6658 -0.598332 0
M  V30 3439 C 316.568 -3.32126 -0.868729 0
M  V30 3440 C 315.654 -4.24008 -0.0883515 0
M  V30 3441 N 316.045 -4.97154 0.931226 0
M  V30 3442 C 314.343 -4.4485 -0.320105 0
M  V30 3443 C 315.044 -5.64587 1.4006 0
M  V30 3444 N 314.02 -5.38787 0.721752 0
M  V30 3445 H 317.822 -2.81948 0.829609 0
M  V30 3446 H 315.336 -1.52656 0.554067 0
M  V30 3447 H 317.333 -3.93884 -1.36605 0
M  V30 3448 H 315.993 -2.79687 -1.6494 0
M  V30 3449 H 317.004 -5.01 1.31222 0
M  V30 3450 H 313.681 -4.03378 -1.07668 0
M  V30 3451 H 315.071 -6.33175 2.24808 0
M  V30 3452 N 317.792 -0.46758 -1.50504 0
M  V30 3453 C 319.203 -0.0116166 -1.86696 0
M  V30 3454 C 319.554 1.39202 -1.38265 0
M  V30 3455 O 318.679 2.0313 -0.746132 0
M  V30 3456 C 319.274 -0.0143044 -3.38797 0
M  V30 3457 C 317.833 0.386175 -3.74414 0
M  V30 3458 C 316.98 -0.401287 -2.74381 0
M  V30 3459 H 319.931 -0.682022 -1.43297 0
M  V30 3460 H 319.952 0.788641 -3.72237 0
M  V30 3461 H 319.464 -1.03602 -3.74016 0
M  V30 3462 H 317.565 1.41237 -3.44794 0
M  V30 3463 H 317.678 0.0899596 -4.79016 0
M  V30 3464 H 316.042 0.144536 -2.5429 0
M  V30 3465 H 316.825 -1.42244 -3.12444 0
M  V30 3466 N 319.27 1.56325 -0.20005 0
M  V30 3467 C 320.218 2.20666 0.735482 0
M  V30 3468 C 321.212 1.17934 1.21605 0
M  V30 3469 O 322.418 1.36068 1.17837 0
M  V30 3470 H 318.793 0.70725 0.255542 0
M  V30 3471 H 320.764 2.9792 0.169166 0
M  V30 3472 C 319.513 2.88391 1.94232 0
M  V30 3473 H 318.836 3.67185 1.58161 0
M  V30 3474 H 320.276 3.3684 2.57517 0
M  V30 3475 C 318.735 1.89692 2.78421 0
M  V30 3476 O 319.265 1.40032 3.76502 0
M  V30 3477 N 317.471 1.57813 2.44015 0
M  V30 3478 H 317.018 1.9839 1.64314 0
M  V30 3479 H 316.976 0.920325 3.00628 0
M  V30 3480 N 320.748 -0.0735177 1.57428 0
M  V30 3481 C 321.68 -1.11423 2.00294 0
M  V30 3482 C 322.693 -1.35084 0.908637 0
M  V30 3483 O 323.882 -1.33355 1.18654 0
M  V30 3484 C 320.982 -2.46548 2.32523 0
M  V30 3485 C 320.155 -2.42867 3.63778 0
M  V30 3486 C 319.214 -3.60087 3.83697 0
M  V30 3487 O 318.24 -3.41595 4.55304 0
M  V30 3488 N 319.442 -4.80372 3.25919 0
M  V30 3489 H 322.207 -0.749206 2.90184 0
M  V30 3490 H 319.768 -0.262195 1.59763 0
M  V30 3491 H 321.76 -3.23607 2.43024 0
M  V30 3492 H 320.33 -2.75059 1.48531 0
M  V30 3493 H 319.55 -1.51206 3.64047 0
M  V30 3494 H 320.838 -2.37506 4.49965 0
M  V30 3495 H 320.236 -4.983 2.67795 0
M  V30 3496 H 318.793 -5.54948 3.41871 0
M  V30 3497 N 322.226 -1.5378 -0.344866 0
M  V30 3498 C 323.472 -1.71216 -1.08687 0
M  V30 3499 C 323.805 -0.473281 -1.88345 0
M  V30 3500 O 323.08 0.52968 -1.87149 0
M  V30 3501 C 323.363 -2.97486 -2.02914 0
M  V30 3502 C 323.216 -4.31579 -1.26727 0
M  V30 3503 C 324.535 -3.19422 -3.0275 0
M  V30 3504 H 321.654 -0.62301 -0.393735 0
M  V30 3505 H 324.296 -1.8645 -0.365563 0
M  V30 3506 H 322.446 -2.84629 -2.64421 0
M  V30 3507 H 324.118 -4.56284 -0.67845 0
M  V30 3508 H 322.361 -4.30049 -0.569273 0
M  V30 3509 H 323.032 -5.16106 -1.95803 0
M  V30 3510 H 325.508 -3.316 -2.51357 0
M  V30 3511 H 324.384 -4.09169 -3.65885 0
M  V30 3512 H 324.645 -2.35656 -3.74057 0
M  V30 3513 N 323.704 0.605807 -1.45491 0
M  V30 3514 C 324.929 1.39625 -1.53361 0
M  V30 3515 C 325.354 1.87351 -0.167645 0
M  V30 3516 O 324.712 1.60243 0.848051 0
M  V30 3517 C 324.76 2.57559 -2.5238 0
M  V30 3518 O 323.864 3.58248 -2.04285 0
M  V30 3519 H 323.205 0.416771 -0.516912 0
M  V30 3520 H 325.735 0.737103 -1.90861 0
M  V30 3521 H 325.745 3.0478 -2.71244 0
M  V30 3522 H 324.42 2.22171 -3.51586 0
M  V30 3523 H 322.997 3.17664 -1.95305 0
M  V30 3524 N 325.182 1.32811 0.848464 0
M  V30 3525 C 326.593 1.21315 1.41914 0
M  V30 3526 C 326.944 -0.171847 1.95446 0
M  V30 3527 O 326.069 -1.07093 1.88043 0
M  V30 3528 C 326.664 2.19631 2.57968 0
M  V30 3529 C 325.223 2.12003 3.11017 0
M  V30 3530 C 324.37 2.07651 1.83783 0
M  V30 3531 H 327.321 1.44549 0.655071 0
M  V30 3532 H 327.342 1.79845 3.35315 0
M  V30 3533 H 326.854 3.20423 2.18976 0
M  V30 3534 H 324.955 1.14481 3.54577 0
M  V30 3535 H 325.068 3.02111 3.71841 0
M  V30 3536 H 323.432 1.52983 2.03638 0
M  V30 3537 H 324.215 3.10235 1.47 0
M  V30 3538 N 326.66 -1.06551 1.16123 0
M  V30 3539 C 327.906 -1.79567 0.94252 0
M  V30 3540 C 328.239 -1.86869 -0.528547 0
M  V30 3541 O 327.514 -1.35838 -1.39206 0
M  V30 3542 C 327.797 -3.24195 1.56747 0
M  V30 3543 C 327.65 -3.24989 3.10969 0
M  V30 3544 C 328.969 -4.21678 1.25998 0
M  V30 3545 H 326.088 -0.651883 0.343828 0
M  V30 3546 H 328.73 -1.2463 1.43413 0
M  V30 3547 H 326.88 -3.71107 1.14942 0
M  V30 3548 H 328.552 -2.86258 3.61737 0
M  V30 3549 H 326.795 -2.63716 3.44436 0
M  V30 3550 H 327.466 -4.27005 3.49815 0
M  V30 3551 H 329.942 -3.83196 1.62174 0
M  V30 3552 H 328.818 -5.21146 1.7233 0
M  V30 3553 H 329.079 -4.4174 0.178367 0
M  V30 3554 N 328.138 -0.959301 -1.25041 0
M  V30 3555 C 329.085 -0.482057 -2.2571 0
M  V30 3556 C 330.055 0.467939 -1.59372 0
M  V30 3557 O 331.24 0.380159 -1.86974 0
M  V30 3558 C 328.38 0.229623 -3.44335 0
M  V30 3559 C 327.493 -0.758156 -4.25295 0
M  V30 3560 C 326.628 -0.0234403 -5.31195 0
M  V30 3561 C 325.667 -1.00184 -6.03846 0
M  V30 3562 N 324.804 -0.29769 -7.01469 0
M  V30 3563 H 329.644 -1.34538 -2.65901 0
M  V30 3564 H 327.181 -0.674592 -1.3072 0
M  V30 3565 H 329.139 0.658856 -4.11965 0
M  V30 3566 H 327.769 1.05696 -3.05005 0
M  V30 3567 H 326.821 -1.30586 -3.57284 0
M  V30 3568 H 328.133 -1.50458 -4.75567 0
M  V30 3569 H 327.287 0.464201 -6.04922 0
M  V30 3570 H 326.026 0.755741 -4.81809 0
M  V30 3571 H 325.031 -1.50044 -5.2893 0
M  V30 3572 H 326.256 -1.78133 -6.55321 0
M  V30 3573 H 324.202 0.462668 -6.54366 0
M  V30 3574 H 324.119 -0.983128 -7.4958 0
M  V30 3575 H 325.387 0.16826 -7.79318 0
M  V30 3576 N 329.616 1.39756 -0.72842 0
M  V30 3577 C 330.865 1.99879 -0.270407 0
M  V30 3578 C 331.178 1.58449 1.14688 0
M  V30 3579 O 332.384 2.11362 1.70407 0
M  V30 3580 C 330.84 3.57292 -0.43252 0
M  V30 3581 C 330.448 4.07688 -1.85727 0
M  V30 3582 C 332.192 4.24485 -0.0359507 0
M  V30 3583 C 330.099 5.5765 -1.96928 0
M  V30 3584 H 329.029 0.747689 -0.0973472 0
M  V30 3585 H 331.68 1.59837 -0.901355 0
M  V30 3586 H 330.062 3.95097 0.267219 0
M  V30 3587 H 331.236 3.81231 -2.58843 0
M  V30 3588 H 329.551 3.53135 -2.20646 0
M  V30 3589 H 332.148 5.34609 -0.0987484 0
M  V30 3590 H 332.491 4.03915 1.00787 0
M  V30 3591 H 333.024 3.9183 -0.686604 0
M  V30 3592 H 329.763 5.8309 -2.99476 0
M  V30 3593 H 329.283 5.8593 -1.28241 0
M  V30 3594 H 330.962 6.22957 -1.74737 0
M  V30 3595 N 331.094 0.475555 1.50254 0
M  V30 3596 C 332.334 -0.0765802 2.04256 0
M  V30 3597 C 332.698 -1.36587 1.34937 0
M  V30 3598 O 333.899 -2.00066 1.79519 0
M  V30 3599 C 332.17 -0.251668 3.56513 0
M  V30 3600 S 333.729 -0.761716 4.32138 0
M  V30 3601 H 330.547 -0.0138456 0.710865 0
M  V30 3602 H 333.149 0.643714 1.84598 0
M  V30 3603 H 331.853 0.692404 4.04517 0
M  V30 3604 H 331.384 -0.997946 3.80532 0
M  V30 3605 H 333.399 -2.03451 4.52573 0
M  V30 3606 N 332.573 -1.56217 0.208337 0
M  V30 3607 C 333.85 -1.89739 -0.475234 0
M  V30 3608 C 334.23 -1.1238 -1.78701 0
M  V30 3609 O 333.578 -0.228979 -2.2735 0
M  V30 3610 C 333.788 -3.42289 -0.681101 0
M  V30 3611 C 335.136 -4.12789 -0.994507 0
M  V30 3612 O 336.16 -3.47814 -0.768357 0
M  V30 3613 O 335.019 -5.27649 -1.42299 0
M  V30 3614 H 332.113 -0.788478 -0.249461 0
M  V30 3615 H 334.659 -1.67855 0.249538 0
M  V30 3616 H 333.431 -3.90534 0.244722 0
M  V30 3617 H 333.054 -3.69909 -1.45785 0
M  V30 3618 N 334.051 0.0651679 -1.57465 0
M  V30 3619 C 335.298 0.763063 -1.87573 0
M  V30 3620 C 335.626 1.77242 -0.800961 0
M  V30 3621 O 334.881 1.94651 0.202316 0
M  V30 3622 C 335.18 1.50081 -3.24362 0
M  V30 3623 C 334.846 0.630816 -4.46466 0
M  V30 3624 C 333.508 0.391082 -4.79608 0
M  V30 3625 C 335.86 0.0279465 -5.21193 0
M  V30 3626 C 333.188 -0.460894 -5.84887 0
M  V30 3627 C 335.54 -0.811522 -6.27373 0
M  V30 3628 C 334.204 -1.06106 -6.59013 0
M  V30 3629 H 333.474 0.279224 -0.686378 0
M  V30 3630 H 336.121 0.0236726 -1.91485 0
M  V30 3631 H 334.426 2.31258 -3.16271 0
M  V30 3632 H 336.123 2.04571 -3.44894 0
M  V30 3633 H 332.713 0.8278 -4.2053 0
M  V30 3634 H 336.897 0.200262 -4.95896 0
M  V30 3635 H 332.153 -0.662907 -6.07796 0
M  V30 3636 H 336.327 -1.28537 -6.84435 0
M  V30 3637 H 333.954 -1.723 -7.40417 0
M  V30 3638 N 335.529 1.53961 0.336706 0
M  V30 3639 C 336.806 1.62171 1.09361 0
M  V30 3640 C 337.186 0.447263 2.06307 0
M  V30 3641 O 336.534 -0.559802 2.21537 0
M  V30 3642 C 336.744 2.98565 1.80721 0
M  V30 3643 C 338.092 3.54157 2.34218 0
M  V30 3644 O 339.116 3.00784 1.90807 0
M  V30 3645 O 337.975 4.47528 3.13657 0
M  V30 3646 H 335.069 0.6562 0.503319 0
M  V30 3647 H 337.615 1.66307 0.33765 0
M  V30 3648 H 336.387 3.75482 1.10132 0
M  V30 3649 H 336.01 2.9805 2.63158 0
M  V30 3650 N 337.007 -0.598083 1.45811 0
M  V30 3651 C 337.937 -1.71873 1.58057 0
M  V30 3652 C 338.918 -1.64533 0.431615 0
M  V30 3653 O 340.103 -1.82787 0.65595 0
M  V30 3654 C 337.233 -3.10495 1.55597 0
M  V30 3655 C 336.187 -3.32654 2.69305 0
M  V30 3656 C 335.513 -4.71646 2.51902 0
M  V30 3657 C 336.813 -3.21981 4.11248 0
M  V30 3658 H 338.507 -1.61881 2.51863 0
M  V30 3659 H 336.053 -0.777372 1.21214 0
M  V30 3660 H 338.006 -3.88699 1.6276 0
M  V30 3661 H 336.73 -3.2135 0.583255 0
M  V30 3662 H 335.389 -2.56843 2.61586 0
M  V30 3663 H 335.037 -4.79246 1.52748 0
M  V30 3664 H 334.737 -4.87426 3.2816 0
M  V30 3665 H 336.261 -5.52038 2.60933 0
M  V30 3666 H 337.675 -3.90049 4.20161 0
M  V30 3667 H 336.072 -3.49289 4.87972 0
M  V30 3668 H 337.142 -2.1928 4.32486 0
M  V30 3669 N 338.485 -1.33259 -0.841409 0
M  V30 3670 C 339.733 -1.24326 -1.59334 0
M  V30 3671 C 340.054 0.191564 -1.94057 0
M  V30 3672 O 339.324 1.11967 -1.60749 0
M  V30 3673 H 337.904 -0.457174 -0.590763 0
M  V30 3674 H 340.566 -1.66947 -1.00571 0
M  V30 3675 H 339.662 -1.8352 -2.52442 0
M  V30 3676 N 339.963 1.05934 -1.16686 0
M  V30 3677 C 341.188 1.83029 -0.975455 0
M  V30 3678 C 341.613 1.82096 0.471452 0
M  V30 3679 O 340.971 1.22443 1.33706 0
M  V30 3680 C 341.019 3.27372 -1.51195 0
M  V30 3681 O 340.123 4.06054 -0.720701 0
M  V30 3682 H 339.464 0.566194 -0.346872 0
M  V30 3683 H 341.994 1.33541 -1.55009 0
M  V30 3684 H 342.004 3.78186 -1.53099 0
M  V30 3685 H 340.679 3.27366 -2.56523 0
M  V30 3686 H 339.256 3.64812 -0.772458 0
M  V30 3687 N 341.441 0.965919 1.2453 0
M  V30 3688 C 342.689 0.625593 1.92174 0
M  V30 3689 C 343.01 -0.841652 1.75901 0
M  V30 3690 O 342.28 -1.60061 1.12948 0
M  V30 3691 H 340.86 0.228388 0.71123 0
M  V30 3692 H 343.522 1.2266 1.51461 0
M  V30 3693 H 342.618 0.864653 2.99884 0
M  V30 3694 N 342.919 -1.39368 0.735821 0
M  V30 3695 C 344.168 -1.99733 0.281004 0
M  V30 3696 C 344.481 -1.59055 -1.13846 0
M  V30 3697 O 345.687 -2.12262 -1.69284 0
M  V30 3698 C 344.143 -3.57057 0.451462 0
M  V30 3699 C 343.751 -4.06697 1.87886 0
M  V30 3700 C 345.495 -4.2446 0.0584616 0
M  V30 3701 C 343.402 -5.56598 1.99883 0
M  V30 3702 H 342.332 -0.747163 0.101311 0
M  V30 3703 H 344.983 -1.59357 0.909819 0
M  V30 3704 H 343.365 -3.95234 -0.246263 0
M  V30 3705 H 344.539 -3.79853 2.60861 0
M  V30 3706 H 342.854 -3.5196 2.22515 0
M  V30 3707 H 345.451 -5.34549 0.127099 0
M  V30 3708 H 345.794 -4.04444 -0.986433 0
M  V30 3709 H 346.327 -3.9146 0.707374 0
M  V30 3710 H 343.066 -5.81494 3.02564 0
M  V30 3711 H 342.586 -5.85242 1.31346 0
M  V30 3712 H 344.265 -6.22022 1.78039 0
M  V30 3713 N 344.397 -0.483516 -1.5 0
M  V30 3714 C 345.344 0.304164 -2.28787 0
M  V30 3715 C 346.314 0.976114 -1.34392 0
M  V30 3716 O 347.499 0.986156 -1.63339 0
M  V30 3717 C 344.639 1.37298 -3.16612 0
M  V30 3718 C 343.752 0.714561 -4.26049 0
M  V30 3719 C 342.887 1.76232 -5.01114 0
M  V30 3720 C 341.926 1.08483 -6.0241 0
M  V30 3721 N 341.063 2.076 -6.70706 0
M  V30 3722 H 345.903 -0.373981 -2.95644 0
M  V30 3723 H 343.44 -0.196275 -1.45785 0
M  V30 3724 H 345.398 2.00445 -3.65893 0
M  V30 3725 H 344.028 2.02012 -2.51776 0
M  V30 3726 H 343.08 -0.0297798 -3.80388 0
M  V30 3727 H 344.392 0.180383 -4.98474 0
M  V30 3728 H 343.546 2.46929 -5.54176 0
M  V30 3729 H 342.285 2.33033 -4.28424 0
M  V30 3730 H 341.29 0.363545 -5.48597 0
M  V30 3731 H 342.515 0.523551 -6.77079 0
M  V30 3732 H 340.461 2.63394 -6.00799 0
M  V30 3733 H 340.378 1.59201 -7.39047 0
M  V30 3734 H 341.646 2.77639 -7.2838 0
M  V30 3735 N 345.875 1.56104 -0.216619 0
M  V30 3736 C 346.805 2.23063 0.690296 0
M  V30 3737 C 347.786 1.20072 1.20485 0
M  V30 3738 O 348.971 1.48643 1.24976 0
M  V30 3739 C 346.101 2.90672 1.90072 0
M  V30 3740 C 345.055 4.00092 1.5202 0
M  V30 3741 C 344.381 4.54972 2.80899 0
M  V30 3742 C 345.681 5.17398 0.71391 0
M  V30 3743 H 347.375 2.99109 0.132038 0
M  V30 3744 H 344.921 1.43866 0.0620664 0
M  V30 3745 H 346.874 3.36204 2.54057 0
M  V30 3746 H 345.598 2.12066 2.48386 0
M  V30 3747 H 344.257 3.55283 0.903839 0
M  V30 3748 H 343.905 3.73102 3.37348 0
M  V30 3749 H 343.605 5.28817 2.56176 0
M  V30 3750 H 345.129 5.0322 3.45836 0
M  V30 3751 H 346.543 5.59342 1.25735 0
M  V30 3752 H 344.94 5.97444 0.563951 0
M  V30 3753 H 346.01 4.84088 -0.280527 0
M  V30 3754 N 347.353 -0.0568162 1.57498 0
M  V30 3755 C 348.301 -1.08452 2.05769 0
M  V30 3756 C 349.295 -1.39164 0.965903 0
M  V30 3757 O 350.501 -1.38395 1.15095 0
M  V30 3758 H 346.876 -0.367148 0.656282 0
M  V30 3759 H 348.847 -0.651368 2.91204 0
M  V30 3760 C 347.596 -2.38543 2.52968 0
M  V30 3761 H 346.919 -2.15765 3.36579 0
M  V30 3762 H 348.359 -3.08863 2.90481 0
M  V30 3763 C 346.818 -3.05562 1.41893 0
M  V30 3764 O 347.348 -3.94262 0.769442 0
M  V30 3765 N 345.554 -2.6643 1.16032 0
M  V30 3766 H 345.101 -1.94387 1.6903 0
M  V30 3767 H 345.059 -3.11593 0.419219 0
M  V30 3768 N 348.832 -1.54138 -0.328536 0
M  V30 3769 C 350.08 -1.71765 -1.06496 0
M  V30 3770 C 350.401 -0.49149 -1.88704 0
M  V30 3771 O 349.671 0.494539 -1.89555 0
M  V30 3772 H 348.251 -0.633295 -0.396164 0
M  V30 3773 H 350.913 -1.91429 -0.366176 0
M  V30 3774 H 350.009 -2.5951 -1.73381 0
M  V30 3775 N 350.31 0.590341 -1.46126 0
M  V30 3776 C 351.587 1.35029 -1.41515 0
M  V30 3777 C 351.967 2.10888 -0.0946472 0
M  V30 3778 O 351.315 2.08998 0.923693 0
M  V30 3779 C 351.525 2.28269 -2.63997 0
M  V30 3780 C 352.873 2.90338 -3.09821 0
M  V30 3781 O 353.897 2.38585 -2.64492 0
M  V30 3782 O 352.756 3.84321 -3.88535 0
M  V30 3783 H 349.85 0.606317 -0.562413 0
M  V30 3784 H 352.396 0.611994 -1.58281 0
M  V30 3785 H 351.168 1.71591 -3.51671 0
M  V30 3786 H 350.791 3.0945 -2.49652 0
M  V30 3787 N 351.788 1.33704 0.83433 0
M  V30 3788 C 353.028 1.26754 1.60352 0
M  V30 3789 C 353.392 -0.163182 1.91305 0
M  V30 3790 O 354.593 -0.3567 2.66423 0
M  V30 3791 C 352.864 2.12262 2.8754 0
M  V30 3792 S 354.423 2.22549 3.78176 0
M  V30 3793 H 351.241 0.450879 0.549753 0
M  V30 3794 H 353.843 1.68788 0.986444 0
M  V30 3795 H 352.547 3.15238 2.62779 0
M  V30 3796 H 352.078 1.71082 3.54252 0
M  V30 3797 H 354.093 1.3899 4.76336 0
M  V30 3798 N 353.266 -1.05314 1.17247 0
M  V30 3799 C 354.491 -1.82509 0.985148 0
M  V30 3800 C 354.916 -1.82343 -0.461788 0
M  V30 3801 O 354.274 -1.23151 -1.33055 0
M  V30 3802 C 354.322 -3.26566 1.52929 0
M  V30 3803 O 353.426 -4.05666 0.742225 0
M  V30 3804 H 352.767 -0.564347 0.349869 0
M  V30 3805 H 355.297 -1.32718 1.55715 0
M  V30 3806 H 355.307 -3.77369 1.55103 0
M  V30 3807 H 353.982 -3.26001 2.58256 0
M  V30 3808 H 352.559 -3.64397 0.791794 0
M  V30 3809 N 354.744 -0.972509 -1.24016 0
M  V30 3810 C 356.155 -0.67517 -1.74064 0
M  V30 3811 C 356.506 0.808939 -1.78747 0
M  V30 3812 O 355.631 1.63286 -1.42009 0
M  V30 3813 C 356.226 -1.21889 -3.16115 0
M  V30 3814 C 354.785 -0.971358 -3.6365 0
M  V30 3815 C 353.932 -1.35134 -2.42145 0
M  V30 3816 H 356.883 -1.14727 -1.09651 0
M  V30 3817 H 356.904 -0.587489 -3.75937 0
M  V30 3818 H 356.416 -2.29906 -3.12674 0
M  V30 3819 H 354.517 0.0930686 -3.72484 0
M  V30 3820 H 354.63 -1.62039 -4.50866 0
M  V30 3821 H 352.994 -0.769751 -2.4279 0
M  V30 3822 H 353.777 -2.4411 -2.41381 0
M  V30 3823 N 356.222 1.38976 -0.743202 0
M  V30 3824 C 357.471 1.99581 -0.291592 0
M  V30 3825 C 357.784 1.59656 1.13001 0
M  V30 3826 O 358.99 2.13157 1.68156 0
M  V30 3827 C 357.446 3.56813 -0.470391 0
M  V30 3828 C 357.054 4.05695 -1.90041 0
M  V30 3829 C 358.798 4.24423 -0.0809709 0
M  V30 3830 C 356.705 5.5553 -2.02832 0
M  V30 3831 H 355.635 0.746615 -0.105272 0
M  V30 3832 H 358.286 1.58872 -0.918258 0
M  V30 3833 H 356.668 3.95359 0.225299 0
M  V30 3834 H 357.842 3.78464 -2.62872 0
M  V30 3835 H 356.157 3.50775 -2.24379 0
M  V30 3836 H 358.754 5.34474 -0.155445 0
M  V30 3837 H 359.097 4.04962 0.96497 0
M  V30 3838 H 359.63 3.9108 -0.728124 0
M  V30 3839 H 356.369 5.79881 -3.05643 0
M  V30 3840 H 355.889 5.84537 -1.34448 0
M  V30 3841 H 357.568 6.21069 -1.81335 0
M  V30 3842 N 357.7 0.491464 1.49741 0
M  V30 3843 C 358.925 -0.0557177 2.07325 0
M  V30 3844 C 359.35 -1.30925 1.35056 0
M  V30 3845 O 358.708 -1.76733 0.404365 0
M  V30 3846 C 358.756 -0.302074 3.59333 0
M  V30 3847 O 357.86 -1.37868 3.88672 0
M  V30 3848 H 357.201 0.0219956 0.663636 0
M  V30 3849 H 359.731 0.688352 1.92673 0
M  V30 3850 H 359.741 -0.536464 4.04458 0
M  V30 3851 H 358.416 0.61383 4.11345 0
M  V30 3852 H 356.993 -1.12999 3.55367 0
M  V30 3853 N 359.178 -1.55987 0.224894 0
M  V30 3854 C 360.406 -2.02784 -0.410665 0
M  V30 3855 C 360.821 -1.10464 -1.53112 0
M  V30 3856 O 360.178 -0.114871 -1.82138 0
M  V30 3857 C 360.229 -3.49087 -0.939165 0
M  V30 3858 O 359.95 -4.37887 0.136614 0
M  V30 3859 C 361.451 -4.11543 -1.64763 0
M  V30 3860 H 358.671 -0.663484 -0.100148 0
M  V30 3861 H 361.215 -2.01614 0.342326 0
M  V30 3862 H 359.37 -3.50861 -1.64242 0
M  V30 3863 H 359.784 -5.23849 -0.261155 0
M  V30 3864 H 361.258 -5.15673 -1.96939 0
M  V30 3865 H 361.735 -3.56736 -2.56195 0
M  V30 3866 H 362.341 -4.13629 -0.989503 0
M  V30 3867 N 360.656 0.0484629 -1.57525 0
M  V30 3868 C 362.067 0.597486 -1.76881 0
M  V30 3869 C 362.418 1.76664 -0.853475 0
M  V30 3870 O 361.543 2.16357 -0.0433656 0
M  V30 3871 C 362.138 1.09066 -3.20765 0
M  V30 3872 C 360.697 1.58535 -3.41385 0
M  V30 3873 C 359.844 0.514868 -2.72478 0
M  V30 3874 H 362.795 -0.177758 -1.57701 0
M  V30 3875 H 362.816 1.95875 -3.2621 0
M  V30 3876 H 362.328 0.239521 -3.8736 0
M  V30 3877 H 360.429 2.45898 -2.79937 0
M  V30 3878 H 360.542 1.64622 -4.49929 0
M  V30 3879 H 358.906 0.965407 -2.35695 0
M  V30 3880 H 359.689 -0.32648 -3.41744 0
M  V30 3881 N 362.134 1.5431 0.320358 0
M  V30 3882 C 363.044 1.86946 1.41734 0
M  V30 3883 C 364.06 0.761689 1.56443 0
M  V30 3884 O 365.236 1.05629 1.71477 0
M  V30 3885 C 362.301 2.09293 2.76401 0
M  V30 3886 C 361.362 3.33082 2.70841 0
M  V30 3887 C 360.595 3.54353 3.99086 0
M  V30 3888 O 360.818 2.79002 4.97508 0
M  V30 3889 O 359.752 4.47838 4.0215 0
M  V30 3890 H 363.578 2.80232 1.17062 0
M  V30 3891 H 361.163 1.40255 0.514673 0
M  V30 3892 H 363.045 2.25303 3.56113 0
M  V30 3893 H 361.72 1.19194 3.00956 0
M  V30 3894 H 360.627 3.22454 1.89668 0
M  V30 3895 H 361.96 4.23249 2.5124 0
M  V30 3896 N 363.613 -0.582584 1.46437 0
M  V30 3897 C 364.543 -1.70187 1.59871 0
M  V30 3898 C 365.524 -1.64066 0.449042 0
M  V30 3899 O 366.709 -1.82081 0.6753 0
M  V30 3900 C 363.839 -3.08827 1.58881 0
M  V30 3901 C 362.793 -3.29779 2.72819 0
M  V30 3902 C 362.119 -4.68947 2.5689 0
M  V30 3903 C 363.419 -3.17601 4.1464 0
M  V30 3904 H 365.113 -1.592 2.53566 0
M  V30 3905 H 362.659 -0.764472 1.22032 0
M  V30 3906 H 364.612 -3.86951 1.66873 0
M  V30 3907 H 363.336 -3.20713 0.617306 0
M  V30 3908 H 361.995 -2.54054 2.64296 0
M  V30 3909 H 361.643 -4.77599 1.57823 0
M  V30 3910 H 361.343 -4.83919 3.33312 0
M  V30 3911 H 362.867 -5.4924 2.66773 0
M  V30 3912 H 364.281 -3.8557 4.24274 0
M  V30 3913 H 362.678 -3.44094 4.9165 0
M  V30 3914 H 363.748 -2.14681 4.34788 0
M  V30 3915 N 365.091 -1.34144 -0.827227 0
M  V30 3916 C 366.021 -1.28005 -1.95287 0
M  V30 3917 C 367.002 -0.158321 -1.69362 0
M  V30 3918 O 368.187 -0.349987 -1.9102 0
M  V30 3919 C 365.317 -1.03036 -3.31664 0
M  V30 3920 C 364.271 -2.11628 -3.72019 0
M  V30 3921 C 363.597 -1.71854 -5.0633 0
M  V30 3922 C 364.897 -3.53417 -3.8457 0
M  V30 3923 H 366.591 -2.22187 -2.00682 0
M  V30 3924 H 364.137 -1.0696 -0.964135 0
M  V30 3925 H 366.09 -0.973863 -4.09993 0
M  V30 3926 H 364.814 -0.0529391 -3.26557 0
M  V30 3927 H 363.473 -2.16339 -2.95961 0
M  V30 3928 H 363.121 -0.727841 -4.97706 0
M  V30 3929 H 362.821 -2.44531 -5.34302 0
M  V30 3930 H 364.345 -1.67692 -5.87122 0
M  V30 3931 H 365.759 -3.51142 -4.5318 0
M  V30 3932 H 364.156 -4.24679 -4.2399 0
M  V30 3933 H 365.226 -3.91072 -2.86689 0
M  V30 3934 N 366.569 1.04691 -1.17803 0
M  V30 3935 C 367.797 1.81446 -0.99423 0
M  V30 3936 C 368.212 1.83174 0.457459 0
M  V30 3937 O 367.569 1.26265 1.31771 0
M  V30 3938 C 367.62 3.27334 -1.5341 0
M  V30 3939 O 367.341 3.25798 -2.92895 0
M  V30 3940 C 368.842 4.20759 -1.39559 0
M  V30 3941 H 366.062 0.571599 -0.351447 0
M  V30 3942 H 368.606 1.31982 -1.56208 0
M  V30 3943 H 366.761 3.74052 -1.00815 0
M  V30 3944 H 367.175 4.17144 -3.17949 0
M  V30 3945 H 368.649 5.21084 -1.82141 0
M  V30 3946 H 369.126 4.37856 -0.343394 0
M  V30 3947 H 369.732 3.79901 -1.91195 0
M  V30 3948 N 368.047 0.979072 1.23499 0
M  V30 3949 C 369.458 0.684391 1.73704 0
M  V30 3950 C 369.809 -0.799448 1.79174 0
M  V30 3951 O 368.934 -1.62531 1.42873 0
M  V30 3952 C 369.529 1.23564 3.15464 0
M  V30 3953 C 368.088 0.99063 3.6313 0
M  V30 3954 C 367.235 1.36416 2.41425 0
M  V30 3955 H 370.186 1.15307 1.09041 0
M  V30 3956 H 370.207 0.607417 3.7562 0
M  V30 3957 H 369.719 2.31561 3.1145 0
M  V30 3958 H 367.82 -0.0733136 3.72528 0
M  V30 3959 H 367.933 1.64427 4.5 0
M  V30 3960 H 366.297 0.782616 2.42378 0
M  V30 3961 H 367.08 2.45387 2.40083 0
M  V30 3962 N 369.525 -1.3858 0.750561 0
M  V30 3963 C 370.765 -2.02032 0.310258 0
M  V30 3964 C 371.129 -1.58288 -1.08668 0
M  V30 3965 O 372.33 -2.14049 -1.62593 0
M  V30 3966 C 370.601 -3.54856 0.425647 0
M  V30 3967 S 372.16 -4.38748 0.0674797 0
M  V30 3968 H 368.978 -0.700705 0.120554 0
M  V30 3969 H 371.58 -1.69134 0.980512 0
M  V30 3970 H 370.284 -3.84182 1.44335 0
M  V30 3971 H 369.815 -3.92527 -0.261894 0
M  V30 3972 H 371.83 -4.82835 -1.14388 0
M  V30 3973 N 371.003 -0.499398 -1.49478 0
M  V30 3974 C 372.251 0.0455996 -2.02049 0
M  V30 3975 C 372.572 1.37633 -1.38138 0
M  V30 3976 O 371.842 1.8842 -0.536166 0
M  V30 3977 H 370.422 0.0198416 -0.746736 0
M  V30 3978 H 373.084 -0.656274 -1.83519 0
M  V30 3979 H 372.18 0.176445 -3.11601 0
M  V30 3980 N 372.481 1.55866 -0.233164 0
M  V30 3981 C 373.706 2.03449 0.402906 0
M  V30 3982 C 374.131 1.11166 1.51736 0
M  V30 3983 O 373.489 0.101996 1.81013 0
M  V30 3984 C 373.537 3.49165 0.9009 0
M  V30 3985 O 372.641 3.60019 2.01147 0
M  V30 3986 H 371.982 0.657913 0.0897025 0
M  V30 3987 H 374.512 2.01493 -0.355201 0
M  V30 3988 H 374.522 3.89716 1.2077 0
M  V30 3989 H 373.197 4.15813 0.0852889 0
M  V30 3990 H 371.774 3.3136 1.71042 0
M  V30 3991 N 373.959 -0.0401083 1.57549 0
M  V30 3992 C 374.922 -1.02871 2.04817 0
M  V30 3993 C 375.922 -1.29708 0.950388 0
M  V30 3994 O 377.112 -1.24897 1.21435 0
M  V30 3995 C 374.244 -2.36443 2.45576 0
M  V30 3996 H 375.437 -0.620631 2.93408 0
M  V30 3997 H 372.99 -0.286667 1.53649 0
M  V30 3998 H 373.725 -2.82021 1.60108 0
M  V30 3999 H 373.51 -2.18296 3.25713 0
M  V30 4000 H 375 -3.07441 2.82612 0
M  V30 4001 N 375.437 -1.54477 -0.31217 0
M  V30 4002 C 376.347 -1.87695 -1.4074 0
M  V30 4003 C 377.363 -0.769975 -1.56036 0
M  V30 4004 O 378.539 -1.06537 -1.70915 0
M  V30 4005 C 375.604 -2.10755 -2.75287 0
M  V30 4006 C 374.665 -3.34514 -2.69071 0
M  V30 4007 C 373.898 -3.56465 -3.97201 0
M  V30 4008 O 374.121 -2.81637 -4.96021 0
M  V30 4009 O 373.055 -4.49964 -3.9977 0
M  V30 4010 H 376.881 -2.80849 -1.15574 0
M  V30 4011 H 374.466 -1.40526 -0.507228 0
M  V30 4012 H 376.348 -2.27188 -3.54913 0
M  V30 4013 H 375.023 -1.20788 -3.0032 0
M  V30 4014 H 373.93 -3.23456 -1.87955 0
M  V30 4015 H 375.263 -4.24575 -2.48992 0
M  V30 4016 N 376.915 0.57481 -1.46744 0
M  V30 4017 C 378.145 1.35659 -1.55821 0
M  V30 4018 C 378.553 1.88129 -0.201036 0
M  V30 4019 O 377.896 1.64723 0.813134 0
M  V30 4020 C 377.958 2.57473 -2.50894 0
M  V30 4021 C 377.622 2.26415 -3.9697 0
M  V30 4022 C 378.619 1.84771 -4.85958 0
M  V30 4023 C 376.304 2.38316 -4.42166 0
M  V30 4024 C 378.298 1.55434 -6.18158 0
M  V30 4025 C 375.985 2.08591 -5.74398 0
M  V30 4026 C 376.983 1.67216 -6.62214 0
M  V30 4027 O 376.671 1.37859 -7.91991 0
M  V30 4028 H 376.403 0.420496 -0.529301 0
M  V30 4029 H 378.957 0.704967 -1.92923 0
M  V30 4030 H 377.187 3.25468 -2.08824 0
M  V30 4031 H 378.876 3.19546 -2.50291 0
M  V30 4032 H 379.642 1.75085 -4.52295 0
M  V30 4033 H 375.521 2.69483 -3.74032 0
M  V30 4034 H 379.065 1.23065 -6.86659 0
M  V30 4035 H 374.962 2.17905 -6.07608 0
M  V30 4036 H 375.73 1.51638 -8.04331 0
M  V30 4037 N 378.394 1.34581 0.820102 0
M  V30 4038 C 379.327 1.20735 1.93644 0
M  V30 4039 C 380.305 0.0983343 1.62302 0
M  V30 4040 O 381.489 0.263997 1.86642 0
M  V30 4041 C 378.616 0.856037 3.27704 0
M  V30 4042 C 377.662 1.97521 3.78005 0
M  V30 4043 S 378.495 3.58906 3.97425 0
M  V30 4044 C 379.651 3.25822 5.34407 0
M  V30 4045 H 379.884 2.15231 2.05093 0
M  V30 4046 H 377.417 1.1964 0.97599 0
M  V30 4047 H 379.375 0.660133 4.05157 0
M  V30 4048 H 378.036 -0.0706253 3.14021 0
M  V30 4049 H 377.229 1.68321 4.75062 0
M  V30 4050 H 376.831 2.12875 3.07507 0
M  V30 4051 H 379.123 2.77812 6.17922 0
M  V30 4052 H 380.066 4.22029 5.68592 0
M  V30 4053 H 380.474 2.61932 5.00052 0
M  V30 4054 N 379.872 -1.04064 1.18357 0
M  V30 4055 C 380.835 -2.10243 0.912707 0
M  V30 4056 C 381.835 -1.60477 -0.101928 0
M  V30 4057 O 383.025 -1.73703 0.131517 0
M  V30 4058 C 380.157 -3.38893 0.369387 0
M  V30 4059 H 381.35 -2.35706 1.85426 0
M  V30 4060 H 378.903 -1.20489 0.995594 0
M  V30 4061 H 379.638 -3.19094 -0.578776 0
M  V30 4062 H 379.423 -3.76331 1.1008 0
M  V30 4063 H 380.913 -4.17128 0.198575 0
M  V30 4064 N 381.35 -0.985608 -1.22978 0
M  V30 4065 C 382.761 -0.693593 -1.73338 0
M  V30 4066 C 383.112 0.789935 -1.79595 0
M  V30 4067 O 382.237 1.61771 -1.43733 0
M  V30 4068 C 382.832 -1.25235 -3.14804 0
M  V30 4069 C 381.391 -1.00987 -3.626 0
M  V30 4070 C 380.538 -1.37695 -2.40698 0
M  V30 4071 H 383.489 -1.15884 -1.08428 0
M  V30 4072 H 383.51 -0.627329 -3.75293 0
M  V30 4073 H 383.022 -2.33209 -3.10218 0
M  V30 4074 H 381.123 0.0535565 -3.72562 0
M  V30 4075 H 381.236 -1.66812 -4.49122 0
M  V30 4076 H 379.6 -0.795459 -2.4196 0
M  V30 4077 H 380.383 -2.46657 -2.38779 0
M  V30 4078 N 382.828 1.3818 -0.7579 0
M  V30 4079 C 383.738 2.3421 -0.135247 0
M  V30 4080 C 384.754 1.59487 0.695683 0
M  V30 4081 O 385.93 1.91657 0.618832 0
M  V30 4082 C 382.995 3.3862 0.744139 0
M  V30 4083 C 382.056 4.2918 -0.101658 0
M  V30 4084 C 381.289 5.28603 0.735851 0
M  V30 4085 O 381.512 5.35166 1.97366 0
M  V30 4086 O 380.446 6.01707 0.152372 0
M  V30 4087 H 384.272 2.8916 -0.928436 0
M  V30 4088 H 381.857 1.40101 -0.518855 0
M  V30 4089 H 383.739 4.02539 1.2466 0
M  V30 4090 H 382.414 2.86019 1.51575 0
M  V30 4091 H 381.321 3.68407 -0.650167 0
M  V30 4092 H 382.654 4.85048 -0.836024 0
M  V30 4093 N 384.306 0.507319 1.49211 0
M  V30 4094 C 385.552 -0.0350047 2.0277 0
M  V30 4095 C 385.885 -1.3606 1.38569 0
M  V30 4096 O 385.16 -1.87321 0.523542 0
M  V30 4097 C 385.443 -0.180916 3.59645 0
M  V30 4098 C 385.296 1.16825 4.34364 0
M  V30 4099 C 386.615 -0.918558 4.30407 0
M  V30 4100 H 383.734 -0.0112473 0.736914 0
M  V30 4101 H 386.376 0.659956 1.7817 0
M  V30 4102 H 384.526 -0.772826 3.80736 0
M  V30 4103 H 386.198 1.79952 4.24753 0
M  V30 4104 H 384.441 1.75594 3.96673 0
M  V30 4105 H 385.112 1.01939 5.42506 0
M  V30 4106 H 387.588 -0.41649 4.1401 0
M  V30 4107 H 386.464 -0.989505 5.39907 0
M  V30 4108 H 386.725 -1.96373 3.96093 0
M  V30 4109 N 385.784 -1.5574 0.241426 0
M  V30 4110 C 387.03 -1.99104 -0.385406 0
M  V30 4111 C 387.363 -1.1293 -1.57988 0
M  V30 4112 O 386.638 -0.191449 -1.93555 0
M  V30 4113 C 386.921 -3.51087 -0.800616 0
M  V30 4114 C 386.774 -4.48028 0.398874 0
M  V30 4115 C 388.093 -4.08015 -1.64959 0
M  V30 4116 H 385.212 -0.723848 -0.138614 0
M  V30 4117 H 387.854 -1.86903 0.341642 0
M  V30 4118 H 386.004 -3.61615 -1.4201 0
M  V30 4119 H 387.676 -4.49487 1.03726 0
M  V30 4120 H 385.919 -4.21077 1.04293 0
M  V30 4121 H 386.59 -5.51962 0.0651056 0
M  V30 4122 H 389.066 -4.00555 -1.12672 0
M  V30 4123 H 387.942 -5.14635 -1.90898 0
M  V30 4124 H 388.203 -3.56131 -2.61961 0
M  V30 4125 N 387.262 0.0317525 -1.57568 0
M  V30 4126 C 388.172 1.05021 -2.0978 0
M  V30 4127 C 389.188 1.39809 -1.03583 0
M  V30 4128 O 390.364 1.49182 -1.35302 0
M  V30 4129 C 387.429 2.33301 -2.56459 0
M  V30 4130 C 386.49 2.0512 -3.77127 0
M  V30 4131 C 385.723 3.27283 -4.2157 0
M  V30 4132 O 385.946 4.37861 -3.65559 0
M  V30 4133 O 384.88 3.13141 -5.14029 0
M  V30 4134 H 388.706 0.636505 -2.96955 0
M  V30 4135 H 386.291 0.248559 -1.47318 0
M  V30 4136 H 388.173 3.08722 -2.86825 0
M  V30 4137 H 386.848 2.73973 -1.72397 0
M  V30 4138 H 385.755 1.27276 -3.51784 0
M  V30 4139 H 387.088 1.69305 -4.62165 0
M  V30 4140 N 388.74 1.54641 0.303973 0
M  V30 4141 C 389.703 1.84646 1.35789 0
M  V30 4142 C 390.703 0.7192 1.4382 0
M  V30 4143 O 391.893 0.987491 1.43507 0
M  V30 4144 C 389.025 2.02407 2.74307 0
M  V30 4145 H 390.218 2.78829 1.10429 0
M  V30 4146 H 387.771 1.46658 0.540487 0
M  V30 4147 H 388.506 1.10502 3.04893 0
M  V30 4148 H 388.291 2.84453 2.69868 0
M  V30 4149 H 389.781 2.27002 3.50514 0
M  V30 4150 N 390.218 -0.567019 1.47046 0
M  V30 4151 C 391.465 -1.32462 1.53167 0
M  V30 4152 C 391.793 -1.93571 0.189841 0
M  V30 4153 O 391.048 -1.77865 -0.816243 0
M  V30 4154 C 391.347 -2.4623 2.59047 0
M  V30 4155 C 391.013 -2.03014 4.02612 0
M  V30 4156 C 389.675 -1.90944 4.41694 0
M  V30 4157 C 392.027 -1.69895 4.92732 0
M  V30 4158 C 389.355 -1.44035 5.68745 0
M  V30 4159 C 391.707 -1.2446 6.20236 0
M  V30 4160 C 390.371 -1.10979 6.5821 0
M  V30 4161 H 389.641 -0.484713 0.560477 0
M  V30 4162 H 392.288 -0.636888 1.80599 0
M  V30 4163 H 390.593 -3.20517 2.25335 0
M  V30 4164 H 392.29 -3.04427 2.61008 0
M  V30 4165 H 388.88 -2.13348 3.71726 0
M  V30 4166 H 393.064 -1.78098 4.63244 0
M  V30 4167 H 388.32 -1.32254 5.96925 0
M  V30 4168 H 392.494 -0.978924 6.89485 0
M  V30 4169 H 390.121 -0.744078 7.5655 0
M  V30 4170 N 391.696 -1.35014 -0.812953 0
M  V30 4171 C 392.921 -1.31187 -1.60639 0
M  V30 4172 C 393.346 0.109382 -1.87782 0
M  V30 4173 O 392.704 1.07424 -1.46047 0
M  V30 4174 C 392.752 -2.11809 -2.91838 0
M  V30 4175 O 391.856 -1.49444 -3.8437 0
M  V30 4176 H 391.197 -0.450084 -0.488181 0
M  V30 4177 H 393.727 -1.77963 -1.00947 0
M  V30 4178 H 393.737 -2.23531 -3.41318 0
M  V30 4179 H 392.412 -3.15137 -2.71407 0
M  V30 4180 H 390.989 -1.46524 -3.42907 0
M  V30 4181 N 393.175 1.03435 -1.18907 0
M  V30 4182 C 394.085 2.15075 -0.937015 0
M  V30 4183 C 395.101 1.73706 0.101085 0
M  V30 4184 O 396.277 2.01232 -0.0822948 0
M  V30 4185 C 393.342 3.43458 -0.473057 0
M  V30 4186 C 392.403 3.99172 -1.57989 0
M  V30 4187 C 391.636 5.21427 -1.13797 0
M  V30 4188 O 391.859 5.704 0.000725941 0
M  V30 4189 O 390.793 5.69837 -1.9383 0
M  V30 4190 H 394.619 2.39198 -1.87131 0
M  V30 4191 H 392.204 1.13506 -0.971427 0
M  V30 4192 H 394.086 4.20811 -0.222702 0
M  V30 4193 H 392.761 3.20793 0.432869 0
M  V30 4194 H 391.668 3.23178 -1.88433 0
M  V30 4195 H 393.001 4.2619 -2.46217 0
M  V30 4196 N 394.653 0.992116 1.22453 0
M  V30 4197 C 395.563 0.55065 2.28046 0
M  V30 4198 C 396.579 -0.400189 1.69335 0
M  V30 4199 O 397.755 -0.267215 1.99619 0
M  V30 4200 C 394.82 -0.128496 3.46462 0
M  V30 4201 C 393.881 0.865208 4.20491 0
M  V30 4202 C 393.114 0.218377 5.33253 0
M  V30 4203 O 393.337 -0.987894 5.6178 0
M  V30 4204 O 392.271 0.922845 5.94783 0
M  V30 4205 H 396.097 1.4291 2.67975 0
M  V30 4206 H 393.682 0.760326 1.28606 0
M  V30 4207 H 395.564 -0.508947 4.18315 0
M  V30 4208 H 394.239 -0.981526 3.0846 0
M  V30 4209 H 393.146 1.29658 3.50913 0
M  V30 4210 H 394.479 1.68741 4.62371 0
M  V30 4211 N 396.131 -1.37776 0.765217 0
M  V30 4212 C 397.094 -2.28686 0.153416 0
M  V30 4213 C 398.094 -1.47727 -0.635081 0
M  V30 4214 O 399.284 -1.68027 -0.459632 0
M  V30 4215 C 396.416 -3.31608 -0.790495 0
M  V30 4216 H 397.609 -2.84297 0.954723 0
M  V30 4217 H 395.162 -1.46932 0.53299 0
M  V30 4218 H 395.897 -2.81109 -1.61705 0
M  V30 4219 H 395.682 -3.9144 -0.227348 0
M  V30 4220 H 397.172 -3.99559 -1.21419 0
M  V30 4221 N 397.609 -0.515225 -1.4894 0
M  V30 4222 C 398.834 0.022727 -2.07388 0
M  V30 4223 C 399.259 1.2876 -1.37122 0
M  V30 4224 O 398.617 1.76067 -0.432431 0
M  V30 4225 C 398.665 0.244869 -3.59768 0
M  V30 4226 O 397.769 1.31667 -3.90817 0
M  V30 4227 H 397.11 -0.0325506 -0.663202 0
M  V30 4228 H 399.64 -0.718918 -1.91553 0
M  V30 4229 H 399.65 0.47205 -4.0526 0
M  V30 4230 H 398.325 -0.679194 -4.10317 0
M  V30 4231 H 396.902 1.07331 -3.5712 0
M  V30 4232 N 399.087 1.5561 -0.249682 0
M  V30 4233 C 400.336 1.98187 0.37479 0
M  V30 4234 C 400.649 1.14111 1.58865 0
M  V30 4235 O 401.855 1.46714 2.28445 0
M  V30 4236 C 400.311 3.52661 0.718192 0
M  V30 4237 C 399.919 4.45481 -0.474428 0
M  V30 4238 C 401.663 4.03888 1.3067 0
M  V30 4239 C 399.57 5.91303 -0.107026 0
M  V30 4240 H 398.5 0.740159 0.143808 0
M  V30 4241 H 401.151 1.80125 -0.350336 0
M  V30 4242 H 399.533 3.66429 1.50152 0
M  V30 4243 H 400.707 4.43473 -1.25172 0
M  V30 4244 H 399.022 4.04751 -0.978052 0
M  V30 4245 H 401.619 5.10358 1.59496 0
M  V30 4246 H 401.962 3.51401 2.23211 0
M  V30 4247 H 402.495 3.93457 0.586211 0
M  V30 4248 H 399.234 6.47833 -0.999642 0
M  V30 4249 H 398.754 5.9644 0.634013 0
M  V30 4250 H 400.433 6.46258 0.309807 0
M  V30 4251 N 400.565 -0.0233959 1.57583 0
M  V30 4252 C 401.795 -0.723631 1.93513 0
M  V30 4253 C 402.203 -1.69115 0.848333 0
M  V30 4254 O 401.546 -1.82781 -0.183484 0
M  V30 4255 C 401.608 -1.53075 3.25282 0
M  V30 4256 C 401.272 -0.727388 4.51174 0
M  V30 4257 C 402.269 -0.0251924 5.19894 0
M  V30 4258 C 399.954 -0.680256 4.97672 0
M  V30 4259 C 401.948 0.713374 6.33395 0
M  V30 4260 C 399.635 0.0620523 6.11068 0
M  V30 4261 C 400.633 0.757622 6.78785 0
M  V30 4262 O 400.321 1.48787 7.90011 0
M  V30 4263 H 400.053 -0.208051 0.643188 0
M  V30 4264 H 402.607 0.0167489 2.05393 0
M  V30 4265 H 400.837 -2.31508 3.09744 0
M  V30 4266 H 402.526 -2.11413 3.46496 0
M  V30 4267 H 403.292 -0.0526003 4.84971 0
M  V30 4268 H 399.171 -1.21116 4.44805 0
M  V30 4269 H 402.715 1.25683 6.86185 0
M  V30 4270 H 398.612 0.0913634 6.45435 0
M  V30 4271 H 399.38 1.40213 8.06401 0
M  V30 4272 N 402.043 -1.548 -0.295768 0
M  V30 4273 C 403.32 -1.65014 -1.05023 0
M  V30 4274 C 403.7 -0.501805 -2.05049 0
M  V30 4275 O 403.048 0.500869 -2.22943 0
M  V30 4276 C 403.258 -3.03252 -1.72741 0
M  V30 4277 C 404.606 -3.60242 -2.24746 0
M  V30 4278 O 405.63 -3.05737 -1.82765 0
M  V30 4279 O 404.489 -4.55687 -3.01681 0
M  V30 4280 H 401.583 -0.669314 -0.485744 0
M  V30 4281 H 404.129 -1.67144 -0.293438 0
M  V30 4282 H 402.901 -3.7827 -1.00138 0
M  V30 4283 H 402.524 -3.04922 -2.55163 0
M  V30 4284 N 403.521 0.559213 -1.47345 0
M  V30 4285 C 404.468 1.66645 -1.59682 0
M  V30 4286 C 405.438 1.60168 -0.43994 0
M  V30 4287 O 406.623 1.79031 -0.659736 0
M  V30 4288 C 403.763 3.04969 -1.61518 0
M  V30 4289 C 402.876 3.21897 -2.88108 0
M  V30 4290 C 402.011 4.50608 -2.81294 0
M  V30 4291 C 401.05 4.60961 -4.02717 0
M  V30 4292 N 400.187 5.81024 -3.94151 0
M  V30 4293 H 405.027 1.55439 -2.54249 0
M  V30 4294 H 402.564 0.757219 -1.26113 0
M  V30 4295 H 404.522 3.85064 -1.60566 0
M  V30 4296 H 403.152 3.15015 -0.704645 0
M  V30 4297 H 402.204 2.35248 -2.98936 0
M  V30 4298 H 403.516 3.25412 -3.78032 0
M  V30 4299 H 402.67 5.3896 -2.7858 0
M  V30 4300 H 401.409 4.49568 -1.89049 0
M  V30 4301 H 400.414 3.71021 -4.05738 0
M  V30 4302 H 401.639 4.63761 -4.96087 0
M  V30 4303 H 399.585 5.80938 -3.04708 0
M  V30 4304 H 399.502 5.85909 -4.77752 0
M  V30 4305 H 400.77 6.71744 -3.9545 0
M  V30 4306 N 404.999 1.35443 0.805782 0
M  V30 4307 C 406.415 1.15499 1.10146 0
M  V30 4308 C 406.615 -0.0319975 2.01475 0
M  V30 4309 O 405.671 -0.70236 2.42535 0
M  V30 4310 C 406.984 2.45833 1.73166 0
M  V30 4311 C 408.532 2.52047 1.85583 0
M  V30 4312 C 409.007 3.82427 2.52019 0
M  V30 4313 N 410.498 3.83682 2.59504 0
M  V30 4314 C 411.233 4.81294 3.11679 0
M  V30 4315 N 410.729 5.89294 3.64287 0
M  V30 4316 N 412.522 4.6873 3.1024 0
M  V30 4317 H 404.673 2.11469 0.198678 0
M  V30 4318 H 406.936 0.93594 0.150731 0
M  V30 4319 H 406.642 3.32874 1.13526 0
M  V30 4320 H 406.516 2.6044 2.72857 0
M  V30 4321 H 408.903 1.65435 2.44367 0
M  V30 4322 H 408.984 2.41354 0.847455 0
M  V30 4323 H 408.628 4.69437 1.93885 0
M  V30 4324 H 408.558 3.90409 3.53395 0
M  V30 4325 H 411.049 3.05648 2.22234 0
M  V30 4326 H 411.362 6.59768 4.02401 0
M  V30 4327 H 409.707 5.92985 3.62483 0
M  V30 4328 H 412.898 3.83496 2.68419 0
M  V30 4329 H 413.071 5.44965 3.50596 0
M  V30 4330 N 406.477 -1.02803 1.19454 0
M  V30 4331 C 407.717 -1.77769 1.00883 0
M  V30 4332 C 408.081 -1.86596 -0.45233 0
M  V30 4333 O 409.282 -2.57895 -0.757877 0
M  V30 4334 C 407.553 -3.16486 1.66046 0
M  V30 4335 S 409.112 -4.07632 1.62424 0
M  V30 4336 H 405.93 -0.611949 0.361993 0
M  V30 4337 H 408.532 -1.23175 1.51816 0
M  V30 4338 H 407.236 -3.0768 2.7159 0
M  V30 4339 H 406.767 -3.76156 1.15196 0
M  V30 4340 H 408.782 -4.91937 0.64903 0
M  V30 4341 N 407.956 -0.998596 -1.21925 0
M  V30 4342 C 409.233 -0.593401 -1.86382 0
M  V30 4343 C 409.613 0.92916 -1.89552 0
M  V30 4344 O 408.961 1.81347 -1.39017 0
M  V30 4345 C 409.171 -1.22039 -3.26967 0
M  V30 4346 C 410.519 -1.32449 -4.03413 0
M  V30 4347 O 411.543 -1.17522 -3.36254 0
M  V30 4348 O 410.402 -1.56395 -5.23644 0
M  V30 4349 H 407.496 -0.202385 -0.801854 0
M  V30 4350 H 410.042 -1.09484 -1.29659 0
M  V30 4351 H 408.814 -2.26158 -3.19325 0
M  V30 4352 H 408.437 -0.704906 -3.91301 0
M  V30 4353 N 409.434 1.37368 -0.772513 0
M  V30 4354 C 410.364 2.32856 -0.173304 0
M  V30 4355 C 411.345 1.55818 0.682262 0
M  V30 4356 O 412.53 1.84052 0.619566 0
M  V30 4357 C 409.66 3.40048 0.706007 0
M  V30 4358 C 408.614 4.27973 -0.0483144 0
M  V30 4359 C 407.94 5.26184 0.950491 0
M  V30 4360 C 409.24 5.07665 -1.22776 0
M  V30 4361 H 410.934 2.83217 -0.971002 0
M  V30 4362 H 408.48 1.3617 -0.468377 0
M  V30 4363 H 410.433 4.05827 1.13501 0
M  V30 4364 H 409.157 2.88214 1.53623 0
M  V30 4365 H 407.816 3.63726 -0.458107 0
M  V30 4366 H 407.464 4.7063 1.77529 0
M  V30 4367 H 407.164 5.85872 0.450314 0
M  V30 4368 H 408.688 5.94838 1.37842 0
M  V30 4369 H 410.102 5.66578 -0.875366 0
M  V30 4370 H 408.499 5.76681 -1.66007 0
M  V30 4371 H 409.569 4.40294 -2.03149 0
M  V30 4372 N 410.912 0.523116 1.48665 0
M  V30 4373 C 412.158 -0.00540031 2.03399 0
M  V30 4374 C 412.513 -1.3264 1.39372 0
M  V30 4375 O 411.806 -1.84184 0.527916 0
M  V30 4376 C 412 -0.191671 3.56886 0
M  V30 4377 C 411.829 1.10972 4.35793 0
M  V30 4378 C 410.599 1.66769 4.76987 0
M  V30 4379 C 412.797 2.01861 4.73029 0
M  V30 4380 N 410.779 2.91268 5.40404 0
M  V30 4381 C 412.15 3.10937 5.36394 0
M  V30 4382 C 414.205 2.02271 4.54962 0
M  V30 4383 C 412.908 4.20478 5.83601 0
M  V30 4384 C 414.934 3.10802 5.03146 0
M  V30 4385 C 414.296 4.18597 5.6653 0
M  V30 4386 H 410.395 0.0393531 0.781009 0
M  V30 4387 H 412.979 0.702876 1.8157 0
M  V30 4388 H 411.15 -0.869025 3.78553 0
M  V30 4389 H 412.882 -0.719177 3.98259 0
M  V30 4390 H 409.637 1.20996 4.57883 0
M  V30 4391 H 410.061 3.54635 5.76683 0
M  V30 4392 H 414.703 1.2023 4.05345 0
M  V30 4393 H 412.421 5.03303 6.32228 0
M  V30 4394 H 416.007 3.12166 4.90962 0
M  V30 4395 H 414.887 5.01193 6.03138 0
M  V30 4396 N 412.39 -1.55475 0.257931 0
M  V30 4397 C 413.615 -2.04064 -0.370488 0
M  V30 4398 C 414.04 -1.13565 -1.49948 0
M  V30 4399 O 413.398 -0.130781 -1.80828 0
M  V30 4400 C 413.446 -3.50554 -0.845237 0
M  V30 4401 O 412.55 -3.63173 -1.95394 0
M  V30 4402 H 411.891 -0.659257 -0.0792243 0
M  V30 4403 H 414.421 -2.00903 0.387212 0
M  V30 4404 H 414.431 -3.91588 -1.14555 0
M  V30 4405 H 413.106 -4.15896 -0.0191259 0
M  V30 4406 H 411.683 -3.34039 -1.65748 0
M  V30 4407 N 413.868 0.0150385 -1.57593 0
M  V30 4408 C 414.798 1.01047 -2.10503 0
M  V30 4409 C 415.779 1.36816 -1.01071 0
M  V30 4410 O 416.964 1.45455 -1.28672 0
M  V30 4411 C 414.094 2.30708 -2.59598 0
M  V30 4412 C 413.048 2.09142 -3.73421 0
M  V30 4413 C 412.374 3.44685 -4.08774 0
M  V30 4414 C 413.674 1.46619 -5.01298 0
M  V30 4415 H 415.368 0.569978 -2.93925 0
M  V30 4416 H 412.914 0.272724 -1.41394 0
M  V30 4417 H 414.867 3.00687 -2.95238 0
M  V30 4418 H 413.591 2.76843 -1.73279 0
M  V30 4419 H 412.25 1.41592 -3.38153 0
M  V30 4420 H 411.898 3.88495 -3.195 0
M  V30 4421 H 411.598 3.31077 -4.8545 0
M  V30 4422 H 413.122 4.16004 -4.4696 0
M  V30 4423 H 414.536 2.06535 -5.34805 0
M  V30 4424 H 412.933 1.43544 -5.82679 0
M  V30 4425 H 414.003 0.433611 -4.82957 0
M  V30 4426 N 415.346 1.54954 0.287554 0
M  V30 4427 C 416.594 1.74528 1.01904 0
M  V30 4428 C 416.915 0.541349 1.87335 0
M  V30 4429 O 416.185 -0.444108 1.908 0
M  V30 4430 H 414.765 0.643576 0.379235 0
M  V30 4431 H 417.427 1.92333 0.315294 0
M  V30 4432 H 416.523 2.64015 1.6644 0
M  V30 4433 N 416.824 -0.551391 1.4764 0
M  V30 4434 C 418.07 -1.31024 1.54792 0
M  V30 4435 C 418.403 -1.9304 0.211967 0
M  V30 4436 O 417.678 -1.78175 -0.77999 0
M  V30 4437 C 417.961 -2.41593 2.67029 0
M  V30 4438 C 417.814 -1.84408 4.10261 0
M  V30 4439 C 419.133 -3.43488 2.75143 0
M  V30 4440 H 416.252 -0.475031 0.563485 0
M  V30 4441 H 418.894 -0.616454 1.79722 0
M  V30 4442 H 417.044 -3.00772 2.45904 0
M  V30 4443 H 418.716 -1.29445 4.42766 0
M  V30 4444 H 416.959 -1.15051 4.18265 0
M  V30 4445 H 417.63 -2.64367 4.84576 0
M  V30 4446 H 420.106 -2.94236 2.94218 0
M  V30 4447 H 418.982 -4.18274 3.55441 0
M  V30 4448 H 419.243 -4.02703 1.82435 0
M  V30 4449 N 418.302 -1.35869 -0.798587 0
M  V30 4450 C 419.551 -1.28921 -1.5512 0
M  V30 4451 C 419.864 0.13208 -1.95154 0
M  V30 4452 O 421.07 0.323879 -2.69561 0
M  V30 4453 C 419.526 -2.26141 -2.79979 0
M  V30 4454 C 419.134 -3.73658 -2.47151 0
M  V30 4455 C 420.878 -2.28152 -3.57976 0
M  V30 4456 C 418.785 -4.62679 -3.6835 0
M  V30 4457 H 417.715 -0.479031 -0.582276 0
M  V30 4458 H 420.366 -1.61179 -0.877125 0
M  V30 4459 H 418.748 -1.86865 -3.49138 0
M  V30 4460 H 419.922 -4.21616 -1.85947 0
M  V30 4461 H 418.237 -3.74333 -1.82383 0
M  V30 4462 H 420.834 -2.91875 -4.4801 0
M  V30 4463 H 421.177 -1.28748 -3.95891 0
M  V30 4464 H 421.71 -2.65998 -2.95787 0
M  V30 4465 H 418.449 -5.63111 -3.35538 0
M  V30 4466 H 417.969 -4.19442 -4.28752 0
M  V30 4467 H 419.648 -4.78498 -4.35487 0
M  V30 4468 N 419.78 1.02168 -1.19998 0
M  V30 4469 C 420.71 2.12488 -0.96804 0
M  V30 4470 C 421.691 1.69799 0.101185 0
M  V30 4471 O 422.876 1.94121 -0.0552993 0
M  V30 4472 C 420.006 3.43479 -0.513776 0
M  V30 4473 C 418.96 3.99884 -1.52566 0
M  V30 4474 C 418.286 5.26582 -0.928214 0
M  V30 4475 C 419.586 4.33861 -2.90795 0
M  V30 4476 H 421.28 2.32149 -1.89069 0
M  V30 4477 H 418.826 1.11564 -0.910468 0
M  V30 4478 H 420.779 4.20036 -0.338774 0
M  V30 4479 H 419.503 3.23561 0.444493 0
M  V30 4480 H 418.162 3.25429 -1.68794 0
M  V30 4481 H 417.81 5.02986 0.0378289 0
M  V30 4482 H 417.51 5.65284 -1.60397 0
M  V30 4483 H 419.034 6.05799 -0.764167 0
M  V30 4484 H 420.448 5.01327 -2.78109 0
M  V30 4485 H 418.845 4.83664 -3.55231 0
M  V30 4486 H 419.915 3.42848 -3.42904 0
M  V30 4487 N 421.258 1.00505 1.21394 0
M  V30 4488 C 422.488 0.705584 1.94178 0
M  V30 4489 C 422.896 -0.735846 1.74304 0
M  V30 4490 O 422.239 -1.50954 1.04683 0
M  V30 4491 C 422.301 0.94689 3.46806 0
M  V30 4492 C 421.965 2.37517 3.90429 0
M  V30 4493 C 422.962 3.35539 3.97127 0
M  V30 4494 C 420.647 2.71284 4.22742 0
M  V30 4495 C 422.641 4.65395 4.3553 0
M  V30 4496 C 420.328 4.01356 4.60822 0
M  V30 4497 C 421.326 4.98223 4.67186 0
M  V30 4498 O 421.014 6.25969 5.04399 0
M  V30 4499 H 420.746 0.259216 0.624326 0
M  V30 4500 H 423.3 1.34592 1.55159 0
M  V30 4501 H 421.53 0.249386 3.85895 0
M  V30 4502 H 423.219 0.640804 4.0081 0
M  V30 4503 H 423.985 3.10786 3.7234 0
M  V30 4504 H 419.864 1.96581 4.16985 0
M  V30 4505 H 423.408 5.41002 4.40412 0
M  V30 4506 H 419.305 4.25893 4.85063 0
M  V30 4507 H 420.073 6.30085 5.22431 0
M  V30 4508 N 422.737 -1.36956 0.779787 0
M  V30 4509 C 423.986 -1.98738 0.344405 0
M  V30 4510 C 424.299 -1.62596 -1.08728 0
M  V30 4511 O 425.505 -2.1754 -1.62445 0
M  V30 4512 C 423.961 -3.5544 0.564829 0
M  V30 4513 C 423.569 -4.00514 2.0073 0
M  V30 4514 C 425.313 -4.24059 0.193471 0
M  V30 4515 C 423.22 -5.49957 2.17489 0
M  V30 4516 H 422.15 -0.743561 0.12503 0
M  V30 4517 H 424.801 -1.56381 0.960057 0
M  V30 4518 H 423.183 -3.95817 -0.120397 0
M  V30 4519 H 424.357 -3.71362 2.72814 0
M  V30 4520 H 422.672 -3.44703 2.336 0
M  V30 4521 H 425.269 -5.33874 0.297097 0
M  V30 4522 H 425.612 -4.07378 -0.857263 0
M  V30 4523 H 426.145 -3.89012 0.831556 0
M  V30 4524 H 422.884 -5.71574 3.2091 0
M  V30 4525 H 422.404 -5.80767 1.49899 0
M  V30 4526 H 424.083 -6.16043 1.97738 0
M  V30 4527 N 424.215 -0.530993 -1.48385 0
M  V30 4528 C 425.145 0.219985 -2.32461 0
M  V30 4529 C 426.126 0.934111 -1.42156 0
M  V30 4530 O 427.311 0.919694 -1.71042 0
M  V30 4531 C 424.441 1.26674 -3.23375 0
M  V30 4532 C 423.395 0.67069 -4.22712 0
M  V30 4533 C 422.721 1.82017 -5.02766 0
M  V30 4534 C 424.021 -0.358268 -5.2107 0
M  V30 4535 H 425.715 -0.48187 -2.95497 0
M  V30 4536 H 423.261 -0.233182 -1.42099 0
M  V30 4537 H 425.214 1.80006 -3.81019 0
M  V30 4538 H 423.938 1.99818 -2.58341 0
M  V30 4539 H 422.597 0.158878 -3.66256 0
M  V30 4540 H 422.245 2.54002 -4.34157 0
M  V30 4541 H 421.945 1.42727 -5.70003 0
M  V30 4542 H 423.469 2.35725 -5.63264 0
M  V30 4543 H 424.883 0.0880081 -5.73232 0
M  V30 4544 H 423.28 -0.66861 -5.96364 0
M  V30 4545 H 424.35 -1.26367 -4.68145 0
M  V30 4546 N 425.693 1.55336 -0.266172 0
M  V30 4547 C 426.623 2.25146 0.618981 0
M  V30 4548 C 427.604 1.23845 1.16604 0
M  V30 4549 O 428.789 1.52544 1.20183 0
M  V30 4550 C 425.919 2.96572 1.80728 0
M  V30 4551 C 424.873 4.04726 1.39215 0
M  V30 4552 C 424.199 4.63678 2.66283 0
M  V30 4553 C 425.499 5.19407 0.548942 0
M  V30 4554 H 427.193 2.99377 0.0368116 0
M  V30 4555 H 424.739 1.43991 0.0162651 0
M  V30 4556 H 426.692 3.44116 2.43232 0
M  V30 4557 H 425.416 2.19861 2.41514 0
M  V30 4558 H 424.075 3.57979 0.790351 0
M  V30 4559 H 423.723 3.83646 3.25308 0
M  V30 4560 H 423.423 5.367 2.39222 0
M  V30 4561 H 424.947 5.13967 3.29651 0
M  V30 4562 H 426.361 5.63059 1.07876 0
M  V30 4563 H 424.758 5.98936 0.373593 0
M  V30 4564 H 425.828 4.8295 -0.434394 0
M  V30 4565 N 427.171 -0.0066808 1.57599 0
M  V30 4566 C 428.396 -0.707738 1.94951 0
M  V30 4567 C 428.821 -1.66882 0.867868 0
M  V30 4568 O 428.179 -1.80457 -0.17458 0
M  V30 4569 C 428.227 -1.42162 3.31394 0
M  V30 4570 O 427.331 -2.53578 3.25226 0
M  V30 4571 H 426.672 -0.188752 0.636607 0
M  V30 4572 H 429.202 0.0445193 2.04552 0
M  V30 4573 H 429.212 -1.78655 3.66806 0
M  V30 4574 H 427.887 -0.716903 4.09675 0
M  V30 4575 H 426.464 -2.19463 3.01481 0
M  V30 4576 N 428.649 -1.55105 -0.279332 0
M  V30 4577 C 429.897 -1.75066 -1.00977 0
M  V30 4578 C 430.218 -0.551276 -1.87045 0
M  V30 4579 O 429.488 0.433984 -1.91032 0
M  V30 4580 H 428.068 -0.645578 -0.375816 0
M  V30 4581 H 430.73 -1.92497 -0.305089 0
M  V30 4582 H 429.826 -2.64894 -1.65038 0
M  V30 4583 N 430.127 0.543554 -1.4793 0
M  V30 4584 C 431.357 1.32324 -1.58663 0
M  V30 4585 C 431.765 1.8766 -0.240896 0
M  V30 4586 O 431.108 1.66411 0.778011 0
M  V30 4587 C 431.17 2.52094 -2.56299 0
M  V30 4588 C 430.834 2.17944 -4.01683 0
M  V30 4589 C 431.831 1.74422 -4.89768 0
M  V30 4590 C 429.516 2.28884 -4.47121 0
M  V30 4591 C 431.51 1.42287 -6.21316 0
M  V30 4592 C 429.197 1.96361 -5.78693 0
M  V30 4593 C 430.195 1.53132 -6.65612 0
M  V30 4594 O 429.883 1.21029 -7.94737 0
M  V30 4595 H 429.615 0.409174 -0.538101 0
M  V30 4596 H 432.169 0.663887 -1.94375 0
M  V30 4597 H 430.399 3.20965 -2.15681 0
M  V30 4598 H 432.088 3.14165 -2.57012 0
M  V30 4599 H 432.854 1.65452 -4.55907 0
M  V30 4600 H 428.733 2.61488 -3.79664 0
M  V30 4601 H 432.277 1.08472 -6.89115 0
M  V30 4602 H 428.174 2.04967 -6.12094 0
M  V30 4603 H 428.942 1.34543 -8.07366 0
M  V30 4604 N 431.605 1.3629 0.791371 0
M  V30 4605 C 433.016 1.27225 1.36641 0
M  V30 4606 C 433.367 -0.0887968 1.95999 0
M  V30 4607 O 432.492 -0.990207 1.92416 0
M  V30 4608 C 433.087 2.30375 2.48421 0
M  V30 4609 C 431.646 2.25004 3.01746 0
M  V30 4610 C 430.793 2.15259 1.7481 0
M  V30 4611 H 433.744 1.47198 0.593173 0
M  V30 4612 H 433.765 1.93905 3.27385 0
M  V30 4613 H 433.277 3.29422 2.05189 0
M  V30 4614 H 431.378 1.29417 3.49403 0
M  V30 4615 H 431.491 3.1761 3.58693 0
M  V30 4616 H 429.855 1.61482 1.96966 0
M  V30 4617 H 430.638 3.16191 1.33709 0
M  V30 4618 N 433.083 -1.0153 1.20538 0
M  V30 4619 C 434.494 -1.56598 1.01657 0
M  V30 4620 C 434.845 -1.91505 -0.426668 0
M  V30 4621 O 433.97 -1.72375 -1.30827 0
M  V30 4622 C 434.565 -2.84542 1.83905 0
M  V30 4623 C 433.124 -3.36133 1.69386 0
M  V30 4624 C 432.271 -2.09427 1.81757 0
M  V30 4625 H 435.222 -0.838974 1.34711 0
M  V30 4626 H 435.243 -3.56004 1.34319 0
M  V30 4627 H 434.755 -2.59105 2.8894 0
M  V30 4628 H 432.856 -3.66528 0.669933 0
M  V30 4629 H 432.969 -4.08248 2.50739 0
M  V30 4630 H 431.333 -2.21941 1.24957 0
M  V30 4631 H 432.116 -1.86414 2.88279 0
M  V30 4632 N 434.561 -1.01147 -1.20859 0
M  V30 4633 C 435.808 -0.697865 -1.90095 0
M  V30 4634 C 436.136 0.772014 -1.78522 0
M  V30 4635 O 435.391 1.57595 -1.16027 0
M  V30 4636 C 435.69 -1.0727 -3.40922 0
M  V30 4637 C 435.356 -2.53792 -3.72693 0
M  V30 4638 C 434.018 -2.93829 -3.81075 0
M  V30 4639 C 436.37 -3.48674 -3.87397 0
M  V30 4640 C 433.698 -4.27696 -4.01613 0
M  V30 4641 C 436.05 -4.82223 -4.09444 0
M  V30 4642 C 434.714 -5.21973 -4.16054 0
M  V30 4643 H 433.984 -0.255367 -0.695607 0
M  V30 4644 H 436.631 -1.27111 -1.43231 0
M  V30 4645 H 434.936 -0.417799 -3.89566 0
M  V30 4646 H 436.633 -0.807818 -3.92779 0
M  V30 4647 H 433.223 -2.21768 -3.66765 0
M  V30 4648 H 437.407 -3.18904 -3.80281 0
M  V30 4649 H 432.663 -4.58055 -4.04964 0
M  V30 4650 H 436.837 -5.55672 -4.19763 0
M  V30 4651 H 434.464 -6.25717 -4.31721 0
M  V30 4652 N 436.039 1.36541 -0.78704 0
M  V30 4653 C 437.285 1.99599 -0.358872 0
M  V30 4654 C 437.618 1.62323 1.06606 0
M  V30 4655 O 436.893 0.876858 1.73613 0
M  V30 4656 C 437.176 3.56327 -0.519944 0
M  V30 4657 C 437.029 4.03464 -1.98839 0
M  V30 4658 C 438.348 4.4005 0.0664737 0
M  V30 4659 H 435.467 0.725107 -0.131869 0
M  V30 4660 H 438.109 1.6199 -0.992936 0
M  V30 4661 H 436.259 3.88495 0.0198321 0
M  V30 4662 H 437.931 3.81793 -2.58905 0
M  V30 4663 H 436.174 3.55092 -2.49183 0
M  V30 4664 H 436.845 5.12439 -2.05207 0
M  V30 4665 H 439.321 4.14228 -0.394267 0
M  V30 4666 H 438.197 5.48847 -0.0762682 0
M  V30 4667 H 438.458 4.26655 1.15835 0
M  V30 4668 N 437.518 0.538854 1.48102 0
M  V30 4669 C 438.766 0.00798599 2.02098 0
M  V30 4670 C 439.087 -1.33922 1.41739 0
M  V30 4671 O 438.357 -1.86932 0.585934 0
M  V30 4672 H 436.937 -3.62179e-05 0.747 0
M  V30 4673 H 439.599 0.7047 1.81714 0
M  V30 4674 H 438.695 -0.0937672 3.11959 0
M  V30 4675 N 438.996 -1.55193 0.274407 0
M  V30 4676 C 440.412 -1.59401 -0.0797543 0
M  V30 4677 C 440.612 -1.29162 -1.54659 0
M  V30 4678 O 439.668 -1.05215 -2.29534 0
M  V30 4679 C 440.981 -2.99257 0.294238 0
M  V30 4680 C 442.529 -3.12072 0.240796 0
M  V30 4681 C 443.004 -4.54194 0.589218 0
M  V30 4682 N 444.495 -4.60033 0.540744 0
M  V30 4683 C 445.23 -5.68027 0.783147 0
M  V30 4684 N 444.726 -6.8417 1.09013 0
M  V30 4685 N 446.519 -5.57572 0.711993 0
M  V30 4686 H 438.67 -1.73113 1.23067 0
M  V30 4687 H 440.933 -0.807197 0.497129 0
M  V30 4688 H 440.639 -3.26217 1.31435 0
M  V30 4689 H 440.513 -3.75427 -0.365281 0
M  V30 4690 H 442.9 -2.84877 -0.770024 0
M  V30 4691 H 442.981 -2.38117 0.934563 0
M  V30 4692 H 442.625 -4.82115 1.59772 0
M  V30 4693 H 442.555 -5.26448 -0.126331 0
M  V30 4694 H 445.046 -3.76599 0.313327 0
M  V30 4695 H 445.359 -7.6243 1.26178 0
M  V30 4696 H 443.704 -6.85787 1.12789 0
M  V30 4697 H 446.895 -4.65714 0.472014 0
M  V30 4698 H 447.068 -6.41659 0.90429 0
M  V30 4699 N 440.474 -0.00167713 -1.576 0
M  V30 4700 C 441.714 0.687302 -1.92498 0
M  V30 4701 C 442.078 1.70844 -0.876144 0
M  V30 4702 O 443.279 2.44792 -1.11043 0
M  V30 4703 C 441.55 1.31217 -3.32441 0
M  V30 4704 S 443.109 2.02604 -3.89226 0
M  V30 4705 H 439.927 0.226985 -0.673794 0
M  V30 4706 H 442.529 -0.0587666 -1.95412 0
M  V30 4707 H 441.233 0.556164 -4.06614 0
M  V30 4708 H 440.764 2.09613 -3.32905 0
M  V30 4709 H 442.779 3.30137 -3.70438 0
M  V30 4710 N 441.952 1.55251 0.271103 0
M  V30 4711 C 443.2 1.75599 1.00047 0
M  V30 4712 C 443.521 0.561188 1.8675 0
M  V30 4713 O 442.791 -0.423846 1.9126 0
M  V30 4714 H 441.371 0.647562 0.372387 0
M  V30 4715 H 444.033 1.92656 0.294876 0
M  V30 4716 H 443.129 2.65766 1.6363 0
M  V30 4717 N 443.43 -0.535701 1.48216 0
M  V30 4718 C 444.655 -1.32149 1.59848 0
M  V30 4719 C 445.08 -1.86338 0.256842 0
M  V30 4720 O 444.438 -1.64107 -0.770632 0
M  V30 4721 C 444.486 -2.45224 2.64381 0
M  V30 4722 O 443.59 -3.48093 2.21144 0
M  V30 4723 H 442.931 -0.391634 0.536208 0
M  V30 4724 H 445.461 -0.645202 1.94161 0
M  V30 4725 H 445.471 -2.91491 2.85476 0
M  V30 4726 H 444.146 -2.05143 3.61786 0
M  V30 4727 H 442.723 -3.07984 2.10239 0
M  V30 4728 N 444.908 -1.36708 -0.784132 0
M  V30 4729 C 446.185 -1.21776 -1.53069 0
M  V30 4730 C 446.565 0.193876 -2.10208 0
M  V30 4731 O 445.913 1.20012 -1.94446 0
M  V30 4732 C 446.123 -2.30395 -2.62143 0
M  V30 4733 C 447.471 -2.67325 -3.29882 0
M  V30 4734 O 448.495 -2.29478 -2.7243 0
M  V30 4735 O 447.354 -3.32485 -4.33724 0
M  V30 4736 H 444.448 -0.474459 -0.677361 0
M  V30 4737 H 446.994 -1.48454 -0.82216 0
M  V30 4738 H 445.766 -3.2498 -2.17953 0
M  V30 4739 H 445.389 -2.05112 -3.40609 0
M  V30 4740 N 446.386 1.0089 -1.21074 0
M  V30 4741 C 447.626 1.76142 -1.03699 0
M  V30 4742 C 447.99 1.87292 0.422587 0
M  V30 4743 O 449.191 2.59068 0.716752 0
M  V30 4744 C 447.462 3.13805 -1.7106 0
M  V30 4745 S 449.021 4.04996 -1.68889 0
M  V30 4746 H 445.839 0.606113 -0.371683 0
M  V30 4747 H 448.441 1.20744 -1.53756 0
M  V30 4748 H 447.145 3.0332 -2.76451 0
M  V30 4749 H 446.676 3.74276 -1.21166 0
M  V30 4750 H 448.691 4.90842 -0.727211 0
M  V30 4751 N 447.864 1.01787 1.20321 0
M  V30 4752 C 449.112 0.706538 1.89347 0
M  V30 4753 C 449.433 -0.766289 1.79313 0
M  V30 4754 O 448.703 -1.55126 1.19635 0
M  V30 4755 H 447.283 0.258348 0.700903 0
M  V30 4756 H 449.945 1.28974 1.46122 0
M  V30 4757 H 449.041 0.991066 2.95946 0
M  V30 4758 N 449.342 -1.36122 0.79427 0
M  V30 4759 C 450.588 -1.99846 0.378542 0
M  V30 4760 C 450.943 -1.61898 -1.03955 0
M  V30 4761 O 450.236 -0.866013 -1.70912 0
M  V30 4762 C 450.43 -3.5409 0.48527 0
M  V30 4763 C 450.259 -4.0702 1.91219 0
M  V30 4764 C 449.029 -4.36944 2.53787 0
M  V30 4765 C 451.227 -4.26435 2.87502 0
M  V30 4766 N 449.209 -4.75727 3.88017 0
M  V30 4767 C 450.58 -4.68077 4.06576 0
M  V30 4768 C 452.635 -4.08616 2.84495 0
M  V30 4769 C 451.338 -4.93765 5.23057 0
M  V30 4770 C 453.364 -4.35453 4.00169 0
M  V30 4771 C 452.726 -4.77355 5.17988 0
M  V30 4772 H 448.825 -0.759549 0.186034 0
M  V30 4773 H 451.409 -1.65043 1.0329 0
M  V30 4774 H 449.58 -3.88151 -0.139023 0
M  V30 4775 H 451.312 -4.04675 0.0453192 0
M  V30 4776 H 448.067 -4.26822 2.05231 0
M  V30 4777 H 448.491 -4.99396 4.57092 0
M  V30 4778 H 453.133 -3.75373 1.94564 0
M  V30 4779 H 450.851 -5.25887 6.1357 0
M  V30 4780 H 454.437 -4.2323 3.99208 0
M  V30 4781 H 453.317 -4.97718 6.06008 0
M  V30 4782 N 450.82 -0.546701 -1.47814 0
M  V30 4783 C 452.097 0.0464413 -1.95545 0
M  V30 4784 C 452.477 1.4962 -1.48919 0
M  V30 4785 O 451.825 2.16752 -0.723232 0
M  V30 4786 C 452.035 -0.0881298 -3.48889 0
M  V30 4787 C 453.383 0.0626059 -4.24554 0
M  V30 4788 O 454.407 -0.0151555 -3.56197 0
M  V30 4789 O 453.266 0.228071 -5.46024 0
M  V30 4790 H 450.36 0.0700004 -0.824032 0
M  V30 4791 H 452.906 -0.612482 -1.58262 0
M  V30 4792 H 451.678 -1.09737 -3.75597 0
M  V30 4793 H 451.301 0.608886 -3.9291 0
M  V30 4794 N 452.299 1.55045 -0.282633 0
M  V30 4795 C 453.715 1.59441 0.0712997 0
M  V30 4796 C 453.915 1.2998 1.53972 0
M  V30 4797 O 452.971 1.06431 2.28973 0
M  V30 4798 C 454.284 2.99097 -0.310104 0
M  V30 4799 C 455.832 3.1194 -0.257343 0
M  V30 4800 C 456.307 4.53875 -0.613297 0
M  V30 4801 N 457.798 4.5974 -0.565134 0
M  V30 4802 C 458.533 5.67603 -0.81326 0
M  V30 4803 N 458.029 6.83582 -1.1264 0
M  V30 4804 N 459.822 5.57187 -0.741553 0
M  V30 4805 H 451.973 1.72458 -1.23984 0
M  V30 4806 H 454.236 0.804549 -0.501403 0
M  V30 4807 H 453.942 3.25516 -1.33163 0
M  V30 4808 H 453.816 3.75616 0.345366 0
M  V30 4809 H 456.203 2.85281 0.754905 0
M  V30 4810 H 456.284 2.37618 -0.947178 0
M  V30 4811 H 455.928 4.81261 -1.62327 0
M  V30 4812 H 455.858 5.26508 0.09841 0
M  V30 4813 H 458.349 3.76427 -0.333294 0
M  V30 4814 H 458.662 7.6175 -1.30219 0
M  V30 4815 H 457.007 6.85179 -1.16425 0
M  V30 4816 H 460.198 4.65457 -0.496705 0
M  V30 4817 H 460.371 6.41171 -0.938306 0
M  V30 4818 N 453.777 0.010035 1.57597 0
M  V30 4819 C 455.025 -0.671371 1.90623 0
M  V30 4820 C 455.346 -1.73753 0.885151 0
M  V30 4821 O 454.616 -1.95752 -0.0760611 0
M  V30 4822 H 453.196 -0.250968 0.703579 0
M  V30 4823 H 455.858 0.0533325 1.94827 0
M  V30 4824 H 454.954 -1.13626 2.90681 0
M  V30 4825 N 455.255 -1.55392 -0.262866 0
M  V30 4826 C 456.165 -1.92077 -1.34698 0
M  V30 4827 C 457.181 -0.819227 -1.53508 0
M  V30 4828 O 458.357 -1.11921 -1.67439 0
M  V30 4829 C 455.422 -2.19407 -2.68443 0
M  V30 4830 C 454.483 -3.42905 -2.58292 0
M  V30 4831 C 453.716 -3.68921 -3.85659 0
M  V30 4832 O 453.939 -2.97275 -4.8681 0
M  V30 4833 O 452.873 -4.62455 -3.85252 0
M  V30 4834 H 456.699 -2.84384 -1.06581 0
M  V30 4835 H 454.284 -1.42069 -0.462264 0
M  V30 4836 H 456.166 -2.38365 -3.47506 0
M  V30 4837 H 454.841 -1.30282 -2.96325 0
M  V30 4838 H 453.748 -3.29272 -1.7757 0
M  V30 4839 H 455.081 -4.32282 -2.35358 0
M  V30 4840 N 456.733 0.527833 -1.48498 0
M  V30 4841 C 457.696 1.61439 -1.62696 0
M  V30 4842 C 458.696 1.52824 -0.500136 0
M  V30 4843 O 459.886 1.56456 -0.765976 0
M  V30 4844 C 457.018 3.01063 -1.59918 0
M  V30 4845 H 458.211 1.50189 -2.59583 0
M  V30 4846 H 455.764 0.750055 -1.37127 0
M  V30 4847 H 456.499 3.17818 -0.645163 0
M  V30 4848 H 456.284 3.08725 -2.41726 0
M  V30 4849 H 457.774 3.80057 -1.73051 0
M  V30 4850 N 458.211 1.37122 0.776871 0
M  V30 4851 C 459.451 1.33441 1.54831 0
M  V30 4852 C 459.815 -0.0818963 1.91825 0
M  V30 4853 O 461.016 -0.24338 2.67696 0
M  V30 4854 C 459.287 2.24267 2.78279 0
M  V30 4855 S 460.846 2.38389 3.68397 0
M  V30 4856 H 457.664 0.473791 0.530135 0
M  V30 4857 H 460.266 1.7282 0.913968 0
M  V30 4858 H 458.97 3.261 2.49173 0
M  V30 4859 H 458.501 1.85953 3.46677 0
M  V30 4860 H 460.516 1.59068 4.70013 0
M  V30 4861 N 459.689 -1.00246 1.21608 0
M  V30 4862 C 461.1 -1.55511 1.03312 0
M  V30 4863 C 461.451 -1.91946 -0.406332 0
M  V30 4864 O 460.576 -1.73753 -1.28992 0
M  V30 4865 C 461.171 -2.82576 1.86913 0
M  V30 4866 C 459.73 -3.34318 1.72941 0
M  V30 4867 C 458.877 -2.07487 1.83968 0
M  V30 4868 H 461.828 -0.824638 1.35593 0
M  V30 4869 H 461.849 -3.54559 1.38087 0
M  V30 4870 H 461.361 -2.56026 2.91672 0
M  V30 4871 H 459.462 -3.65797 0.70877 0
M  V30 4872 H 459.575 -4.05566 2.55055 0
M  V30 4873 H 457.939 -2.20603 1.27304 0
M  V30 4874 H 458.722 -1.83346 2.9024 0
M  V30 4875 N 461.167 -1.02423 -1.1978 0
M  V30 4876 C 462.13 -0.605703 -2.21052 0
M  V30 4877 C 463.13 0.328209 -1.57415 0
M  V30 4878 O 464.32 0.115853 -1.73814 0
M  V30 4879 C 461.452 0.114366 -3.40708 0
M  V30 4880 H 462.645 -1.5017 -2.59594 0
M  V30 4881 H 460.198 -0.814888 -1.33376 0
M  V30 4882 H 460.933 1.02492 -3.07678 0
M  V30 4883 H 460.718 -0.556641 -3.88129 0
M  V30 4884 H 462.208 0.394272 -4.15735 0
M  V30 4885 N 462.645 1.35699 -0.801477 0
M  V30 4886 C 463.885 2.00741 -0.385027 0
M  V30 4887 C 464.249 1.62213 1.02718 0
M  V30 4888 O 465.45 2.19936 1.54537 0
M  V30 4889 C 463.721 3.53032 -0.557057 0
M  V30 4890 S 465.28 4.38195 -0.230272 0
M  V30 4891 H 462.098 0.695748 -0.146477 0
M  V30 4892 H 464.7 1.65378 -1.04261 0
M  V30 4893 H 463.404 3.7856 -1.58494 0
M  V30 4894 H 462.935 3.93229 0.116029 0
M  V30 4895 H 464.95 4.86748 0.963895 0
M  V30 4896 N 464.123 0.554532 1.47522 0
M  V30 4897 C 465.055 -0.232106 2.28022 0
M  V30 4898 C 466.068 -0.881865 1.36847 0
M  V30 4899 O 467.257 -0.756168 1.61692 0
M  V30 4900 C 464.357 -1.34604 3.11022 0
M  V30 4901 C 463.53 -0.793582 4.30141 0
M  V30 4902 C 462.589 -1.79168 4.94758 0
M  V30 4903 O 461.615 -1.33886 5.5323 0
M  V30 4904 N 462.817 -3.12495 4.89211 0
M  V30 4905 H 465.582 0.458407 2.96173 0
M  V30 4906 H 463.143 0.390433 1.57122 0
M  V30 4907 H 465.135 -2.01243 3.51118 0
M  V30 4908 H 463.705 -1.93983 2.45131 0
M  V30 4909 H 462.925 0.0495025 3.94169 0
M  V30 4910 H 464.213 -0.403776 5.07195 0
M  V30 4911 H 463.611 -3.51931 4.42901 0
M  V30 4912 H 462.168 -3.74698 5.33333 0
M  V30 4913 N 465.601 -1.54893 0.290851 0
M  V30 4914 C 466.549 -2.24579 -0.605576 0
M  V30 4915 C 467.543 -1.24824 -1.14522 0
M  V30 4916 O 468.749 -1.42706 -1.09704 0
M  V30 4917 H 465.124 -0.720946 -0.213872 0
M  V30 4918 H 467.095 -2.984 0.0048173 0
M  V30 4919 C 465.844 -2.99224 -1.77088 0
M  V30 4920 H 465.167 -3.75782 -1.36484 0
M  V30 4921 H 466.607 -3.51281 -2.3744 0
M  V30 4922 C 465.066 -2.05602 -2.66888 0
M  V30 4923 O 465.596 -1.61745 -3.67698 0
M  V30 4924 N 463.802 -1.71771 -2.34399 0
M  V30 4925 H 463.349 -2.07633 -1.52468 0
M  V30 4926 H 463.307 -1.09403 -2.94751 0
M  V30 4927 N 467.08 -0.0183926 -1.57589 0
M  V30 4928 C 468.013 1.00148 -2.0505 0
M  V30 4929 C 468.991 1.32387 -0.944058 0
M  V30 4930 O 470.175 1.44237 -1.21358 0
M  V30 4931 C 467.302 2.32435 -2.46357 0
M  V30 4932 C 466.348 2.15731 -3.67916 0
M  V30 4933 S 467.181 1.46613 -5.15039 0
M  V30 4934 C 468.337 2.80293 -5.59631 0
M  V30 4935 H 468.57 0.597429 -2.91235 0
M  V30 4936 H 466.103 0.193002 -1.53189 0
M  V30 4937 H 468.061 3.0849 -2.70822 0
M  V30 4938 H 466.722 2.69975 -1.60537 0
M  V30 4939 H 465.915 3.13502 -3.9463 0
M  V30 4940 H 465.517 1.4782 -3.43548 0
M  V30 4941 H 467.809 3.76557 -5.63215 0
M  V30 4942 H 468.752 2.58256 -6.59325 0
M  V30 4943 H 469.16 2.85047 -4.87246 0
M  V30 4944 N 468.558 1.5553 0.254621 0
M  V30 4945 C 469.488 1.9268 1.31897 0
M  V30 4946 C 470.469 0.790797 1.506 0
M  V30 4947 O 471.654 1.05045 1.63337 0
M  V30 4948 C 468.784 2.21477 2.67517 0
M  V30 4949 C 467.738 3.37256 2.63519 0
M  V30 4950 C 467.064 3.51576 4.02862 0
M  V30 4951 C 468.364 4.73157 2.21179 0
M  V30 4952 H 470.058 2.81832 1.01051 0
M  V30 4953 H 467.604 1.35599 0.484662 0
M  V30 4954 H 469.557 2.46055 3.42104 0
M  V30 4955 H 468.281 1.29144 2.99982 0
M  V30 4956 H 466.94 3.12675 1.9139 0
M  V30 4957 H 466.588 2.56676 4.32581 0
M  V30 4958 H 466.288 4.2943 4.01078 0
M  V30 4959 H 467.812 3.78467 4.79161 0
M  V30 4960 H 469.226 4.97158 2.85494 0
M  V30 4961 H 467.623 5.54058 2.30521 0
M  V30 4962 H 468.693 4.70739 1.16332 0
M  V30 4963 N 470.036 -0.519951 1.48776 0
M  V30 4964 C 471.283 -1.27522 1.57303 0
M  V30 4965 C 471.611 -1.92869 0.251328 0
M  V30 4966 O 470.866 -1.80372 -0.759243 0
M  V30 4967 C 471.165 -2.37864 2.6675 0
M  V30 4968 C 470.831 -1.90103 4.08867 0
M  V30 4969 C 469.493 -1.76795 4.47546 0
M  V30 4970 C 471.845 -1.54133 4.97888 0
M  V30 4971 C 469.173 -1.25868 5.73039 0
M  V30 4972 C 471.525 -1.04665 6.23881 0
M  V30 4973 C 470.189 -0.899823 6.61407 0
M  V30 4974 H 469.459 -0.466636 0.575614 0
M  V30 4975 H 472.106 -0.579109 1.82534 0
M  V30 4976 H 470.411 -3.13186 2.35418 0
M  V30 4977 H 472.108 -2.95969 2.70561 0
M  V30 4978 H 468.698 -2.01414 3.78326 0
M  V30 4979 H 472.882 -1.6327 4.68675 0
M  V30 4980 H 468.138 -1.13196 6.0083 0
M  V30 4981 H 472.312 -0.759074 6.92251 0
M  V30 4982 H 469.939 -0.503011 7.58534 0
M  V30 4983 N 471.514 -1.37532 -0.769588 0
M  V30 4984 C 472.424 -1.35668 -1.91393 0
M  V30 4985 C 473.44 -0.255954 -1.72107 0
M  V30 4986 O 474.616 -0.491704 -1.95305 0
M  V30 4987 C 471.681 -1.16481 -3.26547 0
M  V30 4988 C 470.742 -2.36212 -3.58472 0
M  V30 4989 C 469.975 -2.17932 -4.87177 0
M  V30 4990 O 470.198 -1.1647 -5.58382 0
M  V30 4991 O 469.132 -3.06167 -5.18214 0
M  V30 4992 H 472.958 -2.32055 -1.95918 0
M  V30 4993 H 470.543 -1.18284 -0.912641 0
M  V30 4994 H 472.425 -1.07778 -4.07384 0
M  V30 4995 H 471.1 -0.231687 -3.2287 0
M  V30 4996 H 470.007 -2.50488 -2.77861 0
M  V30 4997 H 471.34 -3.281 -3.66894 0
M  V30 4998 N 472.992 0.995999 -1.22138 0
M  V30 4999 C 474.217 1.77601 -1.0711 0
M  V30 5000 C 474.642 1.84339 0.374264 0
M  V30 5001 O 474 1.29359 1.27028 0
M  V30 5002 C 474.048 3.18897 -1.68336 0
M  V30 5003 O 473.152 4.01663 -0.934928 0
M  V30 5004 H 472.493 0.547011 -0.376397 0
M  V30 5005 H 475.023 1.25137 -1.6187 0
M  V30 5006 H 475.033 3.69539 -1.72931 0
M  V30 5007 H 473.708 3.13308 -2.73516 0
M  V30 5008 H 472.285 3.60204 -0.964751 0
M  V30 5009 N 474.47 1.03057 1.19235 0
M  V30 5010 C 475.719 0.72326 1.88287 0
M  V30 5011 C 476.032 -0.751333 1.80594 0
M  V30 5012 O 477.238 -1.17176 2.44912 0
M  V30 5013 C 475.694 1.24338 3.3774 0
M  V30 5014 C 475.302 2.74587 3.53986 0
M  V30 5015 C 477.046 1.01213 4.12257 0
M  V30 5016 C 474.953 3.20009 4.97341 0
M  V30 5017 H 473.883 0.266848 0.705201 0
M  V30 5018 H 476.534 1.24509 1.34795 0
M  V30 5019 H 474.916 0.649457 3.90638 0
M  V30 5020 H 476.09 3.39649 3.11408 0
M  V30 5021 H 474.405 2.9601 2.9286 0
M  V30 5022 H 477.002 1.32675 5.17978 0
M  V30 5023 H 477.345 -0.051001 4.16269 0
M  V30 5024 H 477.878 1.57014 3.65501 0
M  V30 5025 H 474.617 4.25659 4.98493 0
M  V30 5026 H 474.137 2.59676 5.40674 0
M  V30 5027 H 475.816 3.13447 5.66003 0
M  V30 5028 N 475.948 -1.35272 0.808662 0
M  V30 5029 C 476.88 -2.28507 0.178149 0
M  V30 5030 C 477.893 -1.50377 -0.623754 0
M  V30 5031 O 479.082 -1.72583 -0.455774 0
M  V30 5032 C 476.182 -3.30038 -0.769959 0
M  V30 5033 C 475.355 -4.37398 -0.0139749 0
M  V30 5034 C 474.414 -5.18775 -0.880875 0
M  V30 5035 O 473.44 -5.68236 -0.331059 0
M  V30 5036 N 474.642 -5.37087 -2.20267 0
M  V30 5037 H 477.407 -2.83255 0.979106 0
M  V30 5038 H 474.968 -1.47643 0.664308 0
M  V30 5039 H 476.96 -3.81371 -1.35418 0
M  V30 5040 H 475.53 -2.75789 -1.47171 0
M  V30 5041 H 474.75 -3.86971 0.751468 0
M  V30 5042 H 476.038 -5.06268 0.506965 0
M  V30 5043 H 475.436 -4.9855 -2.67328 0
M  V30 5044 H 473.993 -5.91593 -2.73608 0
M  V30 5045 N 477.426 -0.562348 -1.47226 0
M  V30 5046 C 478.336 0.185466 -2.33866 0
M  V30 5047 C 479.352 0.906713 -1.48508 0
M  V30 5048 O 480.528 0.874458 -1.81425 0
M  V30 5049 C 477.593 1.19904 -3.25306 0
M  V30 5050 C 476.654 0.484669 -4.26555 0
M  V30 5051 C 475.887 1.44996 -5.13626 0
M  V30 5052 O 476.11 2.68515 -5.03245 0
M  V30 5053 O 475.044 0.971642 -5.94006 0
M  V30 5054 H 478.87 -0.525361 -2.99121 0
M  V30 5055 H 476.455 -0.322916 -1.45868 0
M  V30 5056 H 478.337 1.78399 -3.81774 0
M  V30 5057 H 477.012 1.8917 -2.62672 0
M  V30 5058 H 475.919 -0.141605 -3.73832 0
M  V30 5059 H 477.252 -0.166634 -4.91918 0
M  V30 5060 N 478.904 1.54736 -0.299062 0
M  V30 5061 C 480.152 1.99706 0.31017 0
M  V30 5062 C 480.473 1.18896 1.54559 0
M  V30 5063 O 479.743 0.284445 1.93824 0
M  V30 5064 H 478.323 0.737686 0.117596 0
M  V30 5065 H 480.985 1.9054 -0.409943 0
M  V30 5066 H 480.081 3.06596 0.58355 0
M  V30 5067 N 480.382 0.0267497 1.57577 0
M  V30 5068 C 481.329 -0.955894 2.10075 0
M  V30 5069 C 482.299 -1.32453 1.00226 0
M  V30 5070 O 483.484 -1.41826 1.27632 0
M  V30 5071 C 480.624 -2.2338 2.6305 0
M  V30 5072 C 479.737 -1.92183 3.86898 0
M  V30 5073 C 478.872 -3.14251 4.28275 0
M  V30 5074 C 477.911 -2.78862 5.44888 0
M  V30 5075 N 477.048 -3.93548 5.81433 0
M  V30 5076 H 481.888 -0.501303 2.93753 0
M  V30 5077 H 479.425 -0.235847 1.45197 0
M  V30 5078 H 481.383 -2.98124 2.91853 0
M  V30 5079 H 480.013 -2.6646 1.82205 0
M  V30 5080 H 479.065 -1.07692 3.64838 0
M  V30 5081 H 480.377 -1.62117 4.7172 0
M  V30 5082 H 479.531 -3.97317 4.58502 0
M  V30 5083 H 478.27 -3.47476 3.42215 0
M  V30 5084 H 477.275 -1.94208 5.14357 0
M  V30 5085 H 478.5 -2.46855 6.32645 0
M  V30 5086 H 476.446 -4.2662 4.98328 0
M  V30 5087 H 476.363 -3.67098 6.6089 0
M  V30 5088 H 477.631 -4.77325 6.16264 0
M  V30 5089 N 481.861 -1.55662 -0.24637 0
M  V30 5090 C 483.091 -1.81312 -0.990438 0
M  V30 5091 C 483.499 -0.600234 -1.79426 0
M  V30 5092 O 482.842 0.440537 -1.78339 0
M  V30 5093 C 482.904 -3.0032 -1.97607 0
M  V30 5094 C 482.568 -4.36322 -1.35912 0
M  V30 5095 C 483.565 -5.14295 -0.761348 0
M  V30 5096 C 481.25 -4.83019 -1.37833 0
M  V30 5097 C 483.244 -6.37114 -0.190998 0
M  V30 5098 C 480.931 -6.05786 -0.804128 0
M  V30 5099 C 481.929 -6.82672 -0.211489 0
M  V30 5100 O 481.617 -8.03121 0.353845 0
M  V30 5101 H 481.349 -0.607233 -0.297058 0
M  V30 5102 H 483.903 -2.0356 -0.274351 0
M  V30 5103 H 482.133 -2.73829 -2.73047 0
M  V30 5104 H 483.822 -3.13057 -2.58361 0
M  V30 5105 H 484.588 -4.79337 -0.739013 0
M  V30 5106 H 480.467 -4.23165 -1.829 0
M  V30 5107 H 484.011 -6.97069 0.272206 0
M  V30 5108 H 479.908 -6.40222 -0.823792 0
M  V30 5109 H 480.676 -8.18131 0.245761 0
M  V30 5110 N 483.339 0.512053 -1.4905 0
M  V30 5111 C 484.249 1.64139 -1.67617 0
M  V30 5112 C 485.265 1.64786 -0.558701 0
M  V30 5113 O 486.441 1.8341 -0.832034 0
M  V30 5114 C 483.506 3.00548 -1.72835 0
M  V30 5115 C 482.567 3.10615 -2.96339 0
M  V30 5116 C 481.8 4.40517 -3.01298 0
M  V30 5117 O 482.023 5.28671 -2.14157 0
M  V30 5118 O 480.957 4.55325 -3.93653 0
M  V30 5119 H 484.783 1.51407 -2.63267 0
M  V30 5120 H 482.368 0.687131 -1.32661 0
M  V30 5121 H 484.25 3.81641 -1.78683 0
M  V30 5122 H 482.925 3.13566 -0.803616 0
M  V30 5123 H 481.832 2.2875 -2.96014 0
M  V30 5124 H 483.165 3.0252 -3.88256 0
M  V30 5125 N 484.817 1.37938 0.762283 0
M  V30 5126 C 486.064 1.33668 1.52115 0
M  V30 5127 C 486.392 -0.0759538 1.94352 0
M  V30 5128 O 485.647 -1.05121 1.6507 0
M  V30 5129 C 485.946 2.23042 2.79261 0
M  V30 5130 C 485.612 3.71159 2.56031 0
M  V30 5131 C 484.274 4.11523 2.49404 0
M  V30 5132 C 486.626 4.64955 2.35513 0
M  V30 5133 C 483.954 5.43784 2.20263 0
M  V30 5134 C 486.306 5.97464 2.07894 0
M  V30 5135 C 484.97 6.36922 1.99718 0
M  V30 5136 H 484.24 0.489127 0.556629 0
M  V30 5137 H 486.887 1.70224 0.877262 0
M  V30 5138 H 485.192 1.79512 3.48256 0
M  V30 5139 H 486.889 2.17047 3.37182 0
M  V30 5140 H 483.479 3.39153 2.62056 0
M  V30 5141 H 487.663 4.34623 2.39617 0
M  V30 5142 H 482.919 5.73307 2.12435 0
M  V30 5143 H 487.093 6.6969 1.91019 0
M  V30 5144 H 484.72 7.39331 1.76902 0
M  V30 5145 N 486.295 -0.989507 1.22664 0
M  V30 5146 C 487.706 -1.54406 1.04955 0
M  V30 5147 C 488.057 -1.92366 -0.385951 0
M  V30 5148 O 487.182 -1.75111 -1.27142 0
M  V30 5149 C 487.777 -2.80578 1.89899 0
M  V30 5150 C 486.336 -3.32464 1.76478 0
M  V30 5151 C 485.483 -2.05524 1.86159 0
M  V30 5152 H 488.434 -0.810211 1.3646 0
M  V30 5153 H 488.455 -3.53075 1.4184 0
M  V30 5154 H 487.967 -2.52918 2.94371 0
M  V30 5155 H 486.068 -3.65024 0.747528 0
M  V30 5156 H 486.181 -4.02838 2.59342 0
M  V30 5157 H 484.545 -2.19241 1.29636 0
M  V30 5158 H 485.328 -1.80258 2.92168 0
M  V30 5159 N 487.773 -1.03688 -1.18687 0
M  V30 5160 C 489.05 -0.652397 -1.84399 0
M  V30 5161 C 489.43 0.868386 -1.92412 0
M  V30 5162 O 488.778 1.76832 -1.44716 0
M  V30 5163 C 488.988 -1.3238 -3.22919 0
M  V30 5164 C 490.336 -1.45216 -3.98996 0
M  V30 5165 O 491.36 -1.2816 -3.32345 0
M  V30 5166 O 490.219 -1.72975 -5.18403 0
M  V30 5167 H 487.313 -0.227793 -0.795009 0
M  V30 5168 H 489.859 -1.13553 -1.2611 0
M  V30 5169 H 488.631 -2.36202 -3.11968 0
M  V30 5170 H 488.254 -0.829039 -3.88861 0
M  V30 5171 N 489.251 1.34841 -0.815825 0
M  V30 5172 C 490.198 2.29644 -0.230664 0
M  V30 5173 C 491.168 1.53253 0.640533 0
M  V30 5174 O 492.353 1.81653 0.583672 0
M  V30 5175 C 489.493 3.39715 0.607275 0
M  V30 5176 C 488.606 4.31056 -0.28538 0
M  V30 5177 C 487.741 5.28225 0.561446 0
M  V30 5178 C 486.78 6.11204 -0.331035 0
M  V30 5179 N 485.917 7.00483 0.476302 0
M  V30 5180 H 490.757 2.79095 -1.0445 0
M  V30 5181 H 488.294 1.37351 -0.526595 0
M  V30 5182 H 490.252 4.02208 1.10835 0
M  V30 5183 H 488.882 2.91517 1.38629 0
M  V30 5184 H 487.934 3.69487 -0.904621 0
M  V30 5185 H 489.246 4.89239 -0.97193 0
M  V30 5186 H 488.4 5.96135 1.12728 0
M  V30 5187 H 487.139 4.70562 1.28153 0
M  V30 5188 H 486.144 5.42232 -0.909069 0
M  V30 5189 H 487.369 6.70947 -1.04912 0
M  V30 5190 H 485.315 6.45296 1.18019 0
M  V30 5191 H 485.232 7.55847 -0.152008 0
M  V30 5192 H 486.5 7.7273 1.02512 0
M  V30 5193 N 490.729 0.570148 1.46925 0
M  V30 5194 C 492.006 -0.0153259 1.95594 0
M  V30 5195 C 492.386 -1.47232 1.51281 0
M  V30 5196 O 491.734 -2.15574 0.757624 0
M  V30 5197 C 491.944 0.143624 3.48704 0
M  V30 5198 C 493.292 0.00494484 4.246 0
M  V30 5199 O 494.316 0.0718214 3.56128 0
M  V30 5200 O 493.175 -0.141175 5.46318 0
M  V30 5201 H 490.269 -0.0568819 0.825041 0
M  V30 5202 H 492.815 0.637583 1.57267 0
M  V30 5203 H 491.587 1.15699 3.73804 0
M  V30 5204 H 491.21 -0.5463 3.93829 0
M  V30 5205 N 492.207 -1.54576 0.307264 0
M  V30 5206 C 493.453 -2.01272 -0.293453 0
M  V30 5207 C 493.808 -1.19178 -1.51044 0
M  V30 5208 O 493.101 -0.261704 -1.89804 0
M  V30 5209 C 493.295 -3.50572 -0.695253 0
M  V30 5210 C 493.124 -4.47118 0.481249 0
M  V30 5211 C 491.894 -4.958 0.97524 0
M  V30 5212 C 494.092 -4.96853 1.32823 0
M  V30 5213 N 492.074 -5.76212 2.11785 0
M  V30 5214 C 493.445 -5.75028 2.31824 0
M  V30 5215 C 495.5 -4.79026 1.35788 0
M  V30 5216 C 494.203 -6.37276 3.33574 0
M  V30 5217 C 496.229 -5.42097 2.364 0
M  V30 5218 C 495.591 -6.2011 3.34129 0
M  V30 5219 H 491.69 -0.778709 -0.0716705 0
M  V30 5220 H 494.274 -1.89695 0.438602 0
M  V30 5221 H 492.445 -3.62427 -1.39647 0
M  V30 5222 H 494.177 -3.84056 -1.27604 0
M  V30 5223 H 490.932 -4.70405 0.549184 0
M  V30 5224 H 491.356 -6.21101 2.69375 0
M  V30 5225 H 495.998 -4.18288 0.616021 0
M  V30 5226 H 493.716 -6.97144 4.08676 0
M  V30 5227 H 497.302 -5.30229 2.39475 0
M  V30 5228 H 496.182 -6.68049 4.10707 0
M  V30 5229 N 493.685 -0.035106 -1.57561 0
M  V30 5230 C 494.648 0.929819 -2.09492 0
M  V30 5231 C 495.648 1.25026 -1.01119 0
M  V30 5232 O 496.838 1.18961 -1.27255 0
M  V30 5233 C 493.97 2.24457 -2.56577 0
M  V30 5234 H 495.163 0.479935 -2.96035 0
M  V30 5235 H 492.716 0.213033 -1.54841 0
M  V30 5236 H 493.451 2.74061 -1.73382 0
M  V30 5237 H 493.236 2.02508 -3.35757 0
M  V30 5238 H 494.726 2.93607 -2.96959 0
M  V30 5239 N 495.163 1.55791 0.238111 0
M  V30 5240 C 496.113 1.87444 1.29803 0
M  V30 5241 C 497.097 0.736043 1.43078 0
M  V30 5242 O 498.289 0.998146 1.46171 0
M  V30 5243 C 495.418 2.18028 2.65177 0
M  V30 5244 C 494.504 3.38217 2.55871 0
M  V30 5245 N 494.895 4.57264 2.16202 0
M  V30 5246 C 493.193 3.41502 2.86866 0
M  V30 5247 C 493.894 5.3941 2.17744 0
M  V30 5248 N 492.87 4.78695 2.57589 0
M  V30 5249 H 496.672 2.7701 0.981965 0
M  V30 5250 H 494.186 1.56135 0.44672 0
M  V30 5251 H 496.183 2.38873 3.4168 0
M  V30 5252 H 494.843 1.29765 2.97643 0
M  V30 5253 H 495.854 4.82727 1.87602 0
M  V30 5254 H 492.531 2.63536 3.23813 0
M  V30 5255 H 493.921 6.44671 1.89339 0
M  V30 5256 N 496.642 -0.504142 1.49319 0
M  V30 5257 C 497.891 -1.25507 1.57895 0
M  V30 5258 C 498.204 -1.93735 0.269433 0
M  V30 5259 O 499.41 -2.70492 0.233706 0
M  V30 5260 C 497.866 -2.27869 2.78574 0
M  V30 5261 C 497.474 -1.65594 4.16272 0
M  V30 5262 C 499.218 -3.0381 2.96479 0
M  V30 5263 C 497.125 -2.66048 5.28178 0
M  V30 5264 H 496.055 -0.47212 0.587894 0
M  V30 5265 H 498.706 -0.52931 1.757 0
M  V30 5266 H 497.088 -3.03594 2.54257 0
M  V30 5267 H 498.262 -0.958826 4.50714 0
M  V30 5268 H 496.577 -1.02055 4.037 0
M  V30 5269 H 499.174 -3.78925 3.77253 0
M  V30 5270 H 499.517 -3.61235 2.06918 0
M  V30 5271 H 500.05 -2.352 3.20821 0
M  V30 5272 H 496.789 -2.13408 6.19788 0
M  V30 5273 H 496.309 -3.34009 4.98195 0
M  V30 5274 H 497.988 -3.28536 5.57381 0
M  V30 5275 N 498.12 -1.38341 -0.754957 0
M  V30 5276 C 499.345 -1.37882 -1.5493 0
M  V30 5277 C 499.77 0.0296385 -1.88077 0
M  V30 5278 O 499.128 1.01133 -1.50472 0
M  V30 5279 C 499.176 -2.23996 -2.82592 0
M  V30 5280 O 498.28 -1.65612 -3.77686 0
M  V30 5281 H 497.621 -0.470384 -0.468652 0
M  V30 5282 H 500.151 -1.82084 -0.933082 0
M  V30 5283 H 500.161 -2.37806 -3.3153 0
M  V30 5284 H 498.836 -3.26365 -2.57796 0
M  V30 5285 H 497.413 -1.60936 -3.36384 0
M  V30 5286 N 499.598 0.982988 -1.23187 0
M  V30 5287 C 500.838 1.73903 -1.07412 0
M  V30 5288 C 501.202 1.88146 0.382764 0
M  V30 5289 O 502.403 2.6053 0.661638 0
M  V30 5290 C 500.674 3.10105 -1.77678 0
M  V30 5291 S 502.233 4.01323 -1.77441 0
M  V30 5292 H 499.051 0.598093 -0.384456 0
M  V30 5293 H 501.653 1.17456 -1.56283 0
M  V30 5294 H 500.357 2.97388 -2.82822 0
M  V30 5295 H 499.888 3.71622 -1.29077 0
M  V30 5296 H 501.903 4.89189 -0.831162 0
M  V30 5297 N 501.076 1.04316 1.18135 0
M  V30 5298 C 502.039 0.640794 2.2006 0
M  V30 5299 C 503.039 -0.303124 1.57917 0
M  V30 5300 O 504.229 -0.0881855 1.73977 0
M  V30 5301 C 501.361 -0.060148 3.40847 0
M  V30 5302 H 502.554 1.54281 2.57172 0
M  V30 5303 H 500.107 0.836004 1.32063 0
M  V30 5304 H 500.842 -0.975845 3.0927 0
M  V30 5305 H 500.627 0.618319 3.87194 0
M  V30 5306 H 502.117 -0.328082 4.16309 0
M  V30 5307 N 502.554 -1.34406 0.822964 0
M  V30 5308 C 503.517 -2.2783 0.250271 0
M  V30 5309 C 504.517 -1.50288 -0.571854 0
M  V30 5310 O 505.707 -1.69825 -0.387952 0
M  V30 5311 C 502.839 -3.34663 -0.649137 0
M  V30 5312 H 504.032 -2.79992 1.07444 0
M  V30 5313 H 501.585 -1.44539 0.594829 0
M  V30 5314 H 502.32 -2.87714 -1.49637 0
M  V30 5315 H 502.105 -3.92052 -0.0611199 0
M  V30 5316 H 503.595 -4.04349 -1.04363 0
M  V30 5317 N 504.032 -0.577932 -1.46621 0
M  V30 5318 C 504.979 0.158048 -2.30258 0
M  V30 5319 C 505.949 0.888669 -1.40328 0
M  V30 5320 O 507.134 0.880283 -1.6928 0
M  V30 5321 C 504.274 1.16884 -3.24703 0
M  V30 5322 C 503.387 0.442163 -4.29731 0
M  V30 5323 C 502.522 1.44007 -5.11308 0
M  V30 5324 C 501.561 0.69952 -6.0809 0
M  V30 5325 N 500.698 1.64525 -6.82551 0
M  V30 5326 H 505.538 -0.561242 -2.92667 0
M  V30 5327 H 503.075 -0.288591 -1.44241 0
M  V30 5328 H 505.033 1.7677 -3.779 0
M  V30 5329 H 503.663 1.85591 -2.64113 0
M  V30 5330 H 502.715 -0.271632 -3.79429 0
M  V30 5331 H 504.027 -0.136992 -4.98612 0
M  V30 5332 H 503.181 2.11186 -5.68758 0
M  V30 5333 H 501.92 2.05315 -4.42377 0
M  V30 5334 H 500.925 0.0139217 -5.49798 0
M  V30 5335 H 502.15 0.091894 -6.79038 0
M  V30 5336 H 500.096 2.24653 -6.16334 0
M  V30 5337 H 500.013 1.11878 -7.47676 0
M  V30 5338 H 501.281 2.30754 -7.44562 0
M  V30 5339 N 505.51 1.54411 -0.315457 0
M  V30 5340 C 506.787 1.92562 0.343398 0
M  V30 5341 C 507.167 1.24423 1.70535 0
M  V30 5342 O 506.515 0.385051 2.25232 0
M  V30 5343 C 506.725 3.46168 0.443687 0
M  V30 5344 C 508.073 4.18659 0.707783 0
M  V30 5345 O 509.097 3.52281 0.52693 0
M  V30 5346 O 507.956 5.36198 1.05612 0
M  V30 5347 H 505.05 0.80379 0.194552 0
M  V30 5348 H 507.596 1.65738 -0.364577 0
M  V30 5349 H 506.368 3.8792 -0.513172 0
M  V30 5350 H 505.991 3.79073 1.19956 0
M  V30 5351 N 506.988 0.0434614 1.5754 0
M  V30 5352 C 507.918 -0.931651 2.14109 0
M  V30 5353 C 508.899 -1.32971 1.06079 0
M  V30 5354 O 510.084 -1.40579 1.33982 0
M  V30 5355 C 507.214 -2.20914 2.67982 0
M  V30 5356 C 506.168 -1.95139 3.80926 0
M  V30 5357 C 505.494 -3.29276 4.21285 0
M  V30 5358 C 506.794 -1.27913 5.06395 0
M  V30 5359 H 508.488 -0.460497 2.95837 0
M  V30 5360 H 506.034 -0.220058 1.42309 0
M  V30 5361 H 507.987 -2.89522 3.06194 0
M  V30 5362 H 506.711 -2.70221 1.83434 0
M  V30 5363 H 505.37 -1.28945 3.43175 0
M  V30 5364 H 505.018 -3.76369 3.33699 0
M  V30 5365 H 504.718 -3.12831 4.97404 0
M  V30 5366 H 506.242 -3.99129 4.62091 0
M  V30 5367 H 507.656 -1.86544 5.42102 0
M  V30 5368 H 506.053 -1.2182 5.87605 0
M  V30 5369 H 507.123 -0.254066 4.84234 0
M  V30 5370 N 508.466 -1.55915 -0.229846 0
M  V30 5371 C 509.715 -1.77742 -0.953455 0
M  V30 5372 C 510.028 -0.610524 -1.85828 0
M  V30 5373 O 511.234 -0.712219 -2.61992 0
M  V30 5374 C 509.69 -3.14738 -1.74551 0
M  V30 5375 C 509.298 -4.39126 -0.887242 0
M  V30 5376 C 511.042 -3.45895 -2.46084 0
M  V30 5377 C 508.949 -5.67149 -1.67617 0
M  V30 5378 H 507.879 -0.662648 -0.359741 0
M  V30 5379 H 510.53 -1.82322 -0.207576 0
M  V30 5380 H 508.912 -3.04311 -2.53399 0
M  V30 5381 H 510.086 -4.60588 -0.139892 0
M  V30 5382 H 508.401 -4.15427 -0.284443 0
M  V30 5383 H 510.998 -4.38767 -3.05594 0
M  V30 5384 H 511.341 -2.68007 -3.18556 0
M  V30 5385 H 511.874 -3.57614 -1.74233 0
M  V30 5386 H 508.613 -6.47906 -0.994881 0
M  V30 5387 H 508.133 -5.49763 -2.39836 0
M  V30 5388 H 509.812 -6.07025 -2.23898 0
M  V30 5389 N 509.944 0.496216 -1.49584 0
M  V30 5390 C 511.169 1.27865 -1.63295 0
M  V30 5391 C 511.594 1.85592 -0.306156 0
M  V30 5392 O 510.952 1.66092 0.726851 0
M  V30 5393 C 511 2.38128 -2.7079 0
M  V30 5394 O 510.104 3.42108 -2.30296 0
M  V30 5395 H 509.445 0.377279 -0.546403 0
M  V30 5396 H 511.975 0.593497 -1.95803 0
M  V30 5397 H 511.985 2.8382 -2.93104 0
M  V30 5398 H 510.66 1.95479 -3.67098 0
M  V30 5399 H 509.237 3.02301 -2.18331 0
M  V30 5400 N 511.423 1.38739 0.74761 0
M  V30 5401 C 512.37 1.36449 1.86146 0
M  V30 5402 C 513.34 0.226098 1.64554 0
M  V30 5403 O 514.525 0.41926 1.86137 0
M  V30 5404 C 511.665 1.2013 3.23516 0
M  V30 5405 C 510.778 2.43407 3.56899 0
M  V30 5406 C 509.913 2.19773 4.83605 0
M  V30 5407 C 508.952 3.3879 5.09792 0
M  V30 5408 N 508.089 3.14553 6.27695 0
M  V30 5409 H 512.929 2.3167 1.87438 0
M  V30 5410 H 510.466 1.15094 0.916063 0
M  V30 5411 H 512.424 1.08683 4.02795 0
M  V30 5412 H 511.054 0.285453 3.21535 0
M  V30 5413 H 510.106 2.65504 2.72418 0
M  V30 5414 H 511.418 3.32094 3.72176 0
M  V30 5415 H 510.572 2.05496 5.70838 0
M  V30 5416 H 509.311 1.28461 4.70478 0
M  V30 5417 H 508.316 3.53579 4.21025 0
M  V30 5418 H 509.541 4.30986 5.24812 0
M  V30 5419 H 507.487 2.25893 6.1588 0
M  V30 5420 H 507.404 3.96791 6.435 0
M  V30 5421 H 508.672 3.03943 7.17801 0
M  V30 5422 N 512.901 -0.976442 1.23707 0
M  V30 5423 C 513.831 -2.08749 1.04624 0
M  V30 5424 C 514.812 -1.70057 -0.0380956 0
M  V30 5425 O 515.997 -1.93782 0.127308 0
M  V30 5426 C 513.127 -3.41335 0.640902 0
M  V30 5427 C 512.081 -3.93947 1.67302 0
M  V30 5428 C 511.407 -5.22774 1.12301 0
M  V30 5429 C 512.707 -4.22769 3.06697 0
M  V30 5430 H 514.401 -2.24972 1.97555 0
M  V30 5431 H 511.947 -1.08108 0.951247 0
M  V30 5432 H 513.9 -4.18489 0.494434 0
M  V30 5433 H 512.624 -3.24988 -0.324099 0
M  V30 5434 H 511.283 -3.18941 1.80755 0
M  V30 5435 H 510.931 -5.0278 0.148877 0
M  V30 5436 H 510.631 -5.58942 1.81267 0
M  V30 5437 H 512.155 -6.02546 0.988479 0
M  V30 5438 H 513.569 -4.90659 2.96524 0
M  V30 5439 H 511.966 -4.70147 3.72937 0
M  V30 5440 H 513.036 -3.29885 3.55392 0
M  V30 5441 N 514.379 -1.04941 -1.1758 0
M  V30 5442 C 515.309 -0.669172 -2.23706 0
M  V30 5443 C 516.29 0.331835 -1.66832 0
M  V30 5444 O 517.475 0.209988 -1.93061 0
M  V30 5445 C 514.605 -0.0404889 -3.47276 0
M  V30 5446 C 513.559 -0.965983 -4.16957 0
M  V30 5447 C 512.885 -0.201312 -5.34321 0
M  V30 5448 C 514.185 -2.28902 -4.69469 0
M  V30 5449 H 515.879 -1.55639 -2.55767 0
M  V30 5450 H 513.425 -0.749793 -1.22939 0
M  V30 5451 H 515.378 0.237298 -4.20731 0
M  V30 5452 H 514.102 0.881658 -3.14475 0
M  V30 5453 H 512.761 -1.22829 -3.45411 0
M  V30 5454 H 512.409 0.723519 -4.97769 0
M  V30 5455 H 512.109 -0.817968 -5.81879 0
M  V30 5456 H 513.633 0.0692499 -6.10561 0
M  V30 5457 H 515.047 -2.07132 -5.34574 0
M  V30 5458 H 513.444 -2.85942 -5.27596 0
M  V30 5459 H 514.514 -2.92937 -3.86414 0
M  V30 5460 N 515.857 1.33968 -0.830081 0
M  V30 5461 C 517.103 1.98357 -0.422191 0
M  V30 5462 C 517.436 1.65633 1.01387 0
M  V30 5463 O 516.711 0.931648 1.70735 0
M  V30 5464 C 516.994 3.54492 -0.633043 0
M  V30 5465 C 516.847 3.96934 -2.11574 0
M  V30 5466 C 518.166 4.40039 -0.0735584 0
M  V30 5467 H 515.285 0.720544 -0.154871 0
M  V30 5468 H 517.927 1.58749 -1.04397 0
M  V30 5469 H 516.077 3.88361 -0.103775 0
M  V30 5470 H 517.749 3.73363 -2.7092 0
M  V30 5471 H 515.992 3.46984 -2.60354 0
M  V30 5472 H 516.663 5.05651 -2.21406 0
M  V30 5473 H 519.139 4.12764 -0.52585 0
M  V30 5474 H 518.015 5.48327 -0.250841 0
M  V30 5475 H 518.276 4.30124 1.02202 0
M  V30 5476 N 517.335 0.585699 1.46312 0
M  V30 5477 C 518.751 0.247607 1.57668 0
M  V30 5478 C 518.951 -1.25007 1.58037 0
M  V30 5479 O 518.007 -2.03196 1.49893 0
M  V30 5480 C 519.32 0.899456 2.86933 0
M  V30 5481 C 520.868 0.873326 3.00569 0
M  V30 5482 C 521.343 1.50477 4.32574 0
M  V30 5483 N 522.834 1.46925 4.3928 0
M  V30 5484 C 523.569 1.92719 5.40044 0
M  V30 5485 N 523.065 2.46499 6.47464 0
M  V30 5486 N 524.858 1.83617 5.31264 0
M  V30 5487 H 517.009 1.55841 1.44317 0
M  V30 5488 H 519.272 0.651564 0.688599 0
M  V30 5489 H 518.978 1.95313 2.92482 0
M  V30 5490 H 518.852 0.409476 3.74971 0
M  V30 5491 H 521.239 -0.171736 2.946 0
M  V30 5492 H 521.32 1.40136 2.13999 0
M  V30 5493 H 520.964 2.54905 4.39302 0
M  V30 5494 H 520.894 0.951944 5.17924 0
M  V30 5495 H 523.385 1.07616 3.62253 0
M  V30 5496 H 523.698 2.79291 7.20567 0
M  V30 5497 H 522.043 2.50526 6.48276 0
M  V30 5498 H 525.234 1.41358 4.46246 0
M  V30 5499 H 525.407 2.19622 6.09648 0
M  V30 5500 N 518.813 -1.54241 0.323641 0
M  V30 5501 C 520.09 -1.92741 -0.333181 0
M  V30 5502 C 520.47 -1.25326 -1.69872 0
M  V30 5503 O 519.818 -0.396991 -2.25025 0
M  V30 5504 C 520.028 -3.46399 -0.425322 0
M  V30 5505 C 521.376 -4.19029 -0.68557 0
M  V30 5506 O 522.4 -3.52555 -0.50824 0
M  V30 5507 O 521.259 -5.36751 -1.02767 0
M  V30 5508 H 518.353 -0.804811 -0.190286 0
M  V30 5509 H 520.899 -1.65542 0.373361 0
M  V30 5510 H 519.671 -3.87643 0.533737 0
M  V30 5511 H 519.294 -3.79704 -1.17944 0
M  V30 5512 N 520.291 -0.0518155 -1.57515 0
M  V30 5513 C 521.254 0.907547 -2.10467 0
M  V30 5514 C 522.254 1.23947 -1.02439 0
M  V30 5515 O 523.444 1.17604 -1.2851 0
M  V30 5516 C 520.576 2.21723 -2.58944 0
M  V30 5517 H 521.769 0.44851 -2.96527 0
M  V30 5518 H 519.322 0.196598 -1.55059 0
M  V30 5519 H 520.057 2.72206 -1.76279 0
M  V30 5520 H 519.842 1.98935 -3.37886 0
M  V30 5521 H 521.332 2.90441 -3.00056 0
M  V30 5522 N 521.769 1.56035 0.221574 0
M  V30 5523 C 522.716 1.92413 1.27459 0
M  V30 5524 C 523.686 0.781323 1.46576 0
M  V30 5525 O 524.871 1.03721 1.60145 0
M  V30 5526 C 522.011 2.24617 2.61995 0
M  V30 5527 C 521.124 3.51831 2.50677 0
M  V30 5528 C 520.259 3.73482 3.77736 0
M  V30 5529 C 519.298 4.94211 3.6114 0
M  V30 5530 N 518.435 5.12252 4.80148 0
M  V30 5531 H 523.275 2.82203 0.957355 0
M  V30 5532 H 520.812 1.39676 0.461415 0
M  V30 5533 H 522.77 2.41298 3.40339 0
M  V30 5534 H 521.4 1.38 2.91815 0
M  V30 5535 H 520.452 3.43343 1.63767 0
M  V30 5536 H 521.764 4.40328 2.34334 0
M  V30 5537 H 520.918 3.9026 4.64523 0
M  V30 5538 H 519.657 2.83266 3.97003 0
M  V30 5539 H 518.662 4.77384 2.72736 0
M  V30 5540 H 519.887 5.85912 3.43343 0
M  V30 5541 H 517.833 4.24978 4.99729 0
M  V30 5542 H 517.75 5.94881 4.66532 0
M  V30 5543 H 519.018 5.33465 5.68362 0
M  V30 5544 N 523.247 -0.488276 1.49845 0
M  V30 5545 C 524.179 -1.60539 1.63584 0
M  V30 5546 C 525.192 -1.5434 0.517972 0
M  V30 5547 O 526.381 -1.60041 0.790516 0
M  V30 5548 C 523.481 -2.99374 1.58835 0
M  V30 5549 C 522.654 -3.30624 2.86368 0
M  V30 5550 C 521.713 -4.4893 2.74496 0
M  V30 5551 O 520.739 -4.50085 3.48443 0
M  V30 5552 N 521.941 -5.49591 1.86894 0
M  V30 5553 H 524.706 -1.49176 2.59936 0
M  V30 5554 H 522.267 -0.67639 1.47094 0
M  V30 5555 H 524.259 -3.76459 1.48529 0
M  V30 5556 H 522.829 -3.04595 0.702892 0
M  V30 5557 H 522.049 -2.42314 3.1093 0
M  V30 5558 H 523.337 -3.48305 3.70892 0
M  V30 5559 H 522.735 -5.51467 1.26097 0
M  V30 5560 H 521.292 -6.25728 1.82503 0
M  V30 5561 N 524.725 -1.39134 -0.740242 0
M  V30 5562 C 526.141 -1.20623 -1.0451 0
M  V30 5563 C 526.341 -0.0641651 -2.01398 0
M  V30 5564 O 525.397 0.585843 -2.4561 0
M  V30 5565 C 526.71 -2.53815 -1.6124 0
M  V30 5566 C 528.258 -2.60615 -1.73346 0
M  V30 5567 C 528.733 -3.94015 -2.33486 0
M  V30 5568 N 530.224 -3.95627 -2.40902 0
M  V30 5569 C 530.959 -4.95616 -2.88361 0
M  V30 5570 N 530.455 -6.06003 -3.35756 0
M  V30 5571 N 532.248 -4.82998 -2.87523 0
M  V30 5572 H 524.399 -2.12176 -0.0975576 0
M  V30 5573 H 526.662 -0.942066 -0.105904 0
M  V30 5574 H 526.368 -3.37911 -0.975144 0
M  V30 5575 H 526.242 -2.73162 -2.6012 0
M  V30 5576 H 528.629 -1.76906 -2.36195 0
M  V30 5577 H 528.71 -2.45123 -0.731336 0
M  V30 5578 H 528.354 -4.78153 -1.71267 0
M  V30 5579 H 528.284 -4.06825 -3.34366 0
M  V30 5580 H 530.775 -3.15903 -2.07398 0
M  V30 5581 H 531.088 -6.78215 -3.70464 0
M  V30 5582 H 529.433 -6.09604 -3.33778 0
M  V30 5583 H 532.624 -3.95866 -2.49816 0
M  V30 5584 H 532.797 -5.61072 -3.24196 0
M  V30 5585 N 526.204 0.969867 -1.24223 0
M  V30 5586 C 527.134 2.08191 -1.05729 0
M  V30 5587 C 528.115 1.70075 0.0290765 0
M  V30 5588 O 529.3 1.93712 -0.137583 0
M  V30 5589 C 526.43 3.40991 -0.658995 0
M  V30 5590 C 525.384 3.93054 -1.69389 0
M  V30 5591 C 524.71 5.22171 -1.15072 0
M  V30 5592 C 526.01 4.21137 -3.08935 0
M  V30 5593 H 527.704 2.23921 -1.98746 0
M  V30 5594 H 525.25 1.07602 -0.956967 0
M  V30 5595 H 527.203 4.18221 -0.51662 0
M  V30 5596 H 525.927 3.25155 0.30686 0
M  V30 5597 H 524.586 3.17977 -1.82444 0
M  V30 5598 H 524.234 5.02694 -0.175539 0
M  V30 5599 H 523.934 5.57973 -1.84229 0
M  V30 5600 H 525.458 6.02013 -1.02042 0
M  V30 5601 H 526.872 4.8908 -2.99121 0
M  V30 5602 H 525.269 4.68163 -3.75425 0
M  V30 5603 H 526.339 3.27996 -3.57137 0
M  V30 5604 N 527.682 1.05563 1.17022 0
M  V30 5605 C 528.907 0.788437 1.91829 0
M  V30 5606 C 529.332 -0.650356 1.76499 0
M  V30 5607 O 528.69 -1.45229 1.08527 0
M  V30 5608 C 528.738 1.1786 3.40795 0
M  V30 5609 O 527.842 0.312965 4.11211 0
M  V30 5610 H 527.183 0.288794 0.597908 0
M  V30 5611 H 529.713 1.40948 1.48307 0
M  V30 5612 H 529.723 1.14697 3.91546 0
M  V30 5613 H 528.398 2.22666 3.51273 0
M  V30 5614 H 526.975 0.405515 3.70689 0
M  V30 5615 N 529.16 -1.33526 0.837174 0
M  V30 5616 C 530.123 -2.27551 0.274421 0
M  V30 5617 C 531.123 -1.50886 -0.555881 0
M  V30 5618 O 532.313 -1.70227 -0.369918 0
M  V30 5619 C 529.445 -3.35332 -0.613605 0
M  V30 5620 H 530.638 -2.78837 1.10408 0
M  V30 5621 H 528.191 -1.439 0.610126 0
M  V30 5622 H 528.926 -2.89285 -1.46577 0
M  V30 5623 H 528.711 -3.92095 -0.0195341 0
M  V30 5624 H 530.201 -4.05433 -1.00068 0
M  V30 5625 N 530.638 -0.59345 -1.46 0
M  V30 5626 C 531.601 0.123538 -2.28867 0
M  V30 5627 C 532.601 0.808628 -1.38989 0
M  V30 5628 O 533.791 0.658945 -1.61256 0
M  V30 5629 C 530.923 1.1847 -3.19653 0
M  V30 5630 H 532.116 -0.604843 -2.93737 0
M  V30 5631 H 529.669 -0.351875 -1.52288 0
M  V30 5632 H 530.404 1.94431 -2.59552 0
M  V30 5633 H 530.189 0.69783 -3.8584 0
M  V30 5634 H 531.679 1.68726 -3.81997 0
M  V30 5635 N 532.116 1.54067 -0.331816 0
M  V30 5636 C 533.048 2.22139 0.564538 0
M  V30 5637 C 534.061 1.22408 1.07332 0
M  V30 5638 O 535.25 1.4883 0.985481 0
M  V30 5639 C 532.35 2.87876 1.78831 0
M  V30 5640 C 531.523 4.13817 1.41682 0
M  V30 5641 C 530.582 4.63072 2.49901 0
M  V30 5642 O 529.608 5.27562 2.13699 0
M  V30 5643 N 530.81 4.38001 3.80967 0
M  V30 5644 H 533.575 2.99694 -0.0183736 0
M  V30 5645 H 531.136 1.61153 -0.155396 0
M  V30 5646 H 533.128 3.17747 2.50637 0
M  V30 5647 H 531.698 2.13977 2.27887 0
M  V30 5648 H 530.918 3.9062 0.530044 0
M  V30 5649 H 532.206 4.95762 1.14443 0
M  V30 5650 H 531.604 3.864 4.13173 0
M  V30 5651 H 530.161 4.72507 4.48977 0
M  V30 5652 N 533.594 0.0601682 1.57485 0
M  V30 5653 C 534.84 -0.612501 1.93329 0
M  V30 5654 C 535.173 -1.6996 0.939526 0
M  V30 5655 O 534.448 -1.94472 -0.0330957 0
M  V30 5656 C 534.731 -1.20025 3.39508 0
M  V30 5657 C 534.584 -0.12059 4.49638 0
M  V30 5658 C 535.903 -2.10923 3.86264 0
M  V30 5659 H 533.022 -0.221185 0.703027 0
M  V30 5660 H 535.664 0.123768 1.89596 0
M  V30 5661 H 533.814 -1.82774 3.42821 0
M  V30 5662 H 535.486 0.51185 4.58452 0
M  V30 5663 H 533.729 0.550251 4.30296 0
M  V30 5664 H 534.4 -0.572019 5.49028 0
M  V30 5665 H 536.876 -1.58124 3.84884 0
M  V30 5666 H 535.752 -2.48987 4.8918 0
M  V30 5667 H 536.013 -3.01292 3.23536 0
M  V30 5668 N 535.072 -1.5615 -0.213296 0
M  V30 5669 C 536.002 -1.96109 -1.26742 0
M  V30 5670 C 536.983 -0.830448 -1.48451 0
M  V30 5671 O 538.168 -1.09339 -1.60495 0
M  V30 5672 C 535.298 -2.28492 -2.61551 0
M  V30 5673 C 534.252 -3.44124 -2.54485 0
M  V30 5674 C 533.578 -3.62134 -3.93399 0
M  V30 5675 C 534.878 -4.78855 -2.08556 0
M  V30 5676 H 536.572 -2.84412 -0.935434 0
M  V30 5677 H 534.118 -1.36836 -0.44854 0
M  V30 5678 H 536.071 -2.55039 -3.3546 0
M  V30 5679 H 534.795 -1.37052 -2.96453 0
M  V30 5680 H 533.454 -3.17639 -1.83033 0
M  V30 5681 H 533.102 -2.68055 -4.25623 0
M  V30 5682 H 532.802 -4.39913 -3.89551 0
M  V30 5683 H 534.326 -3.91038 -4.68958 0
M  V30 5684 H 535.74 -5.04552 -2.72213 0
M  V30 5685 H 534.137 -5.59975 -2.1575 0
M  V30 5686 H 535.207 -4.73657 -1.03811 0
M  V30 5687 N 536.55 0.480323 -1.50102 0
M  V30 5688 C 537.482 1.59669 -1.64433 0
M  V30 5689 C 538.495 1.54063 -0.52615 0
M  V30 5690 O 539.684 1.59619 -0.798992 0
M  V30 5691 C 536.784 2.98527 -1.6042 0
M  V30 5692 C 535.957 3.291 -2.88117 0
M  V30 5693 C 535.016 4.47468 -2.76873 0
M  V30 5694 O 534.042 4.4823 -3.50825 0
M  V30 5695 N 535.244 5.48593 -1.89806 0
M  V30 5696 H 538.009 1.47795 -2.60723 0
M  V30 5697 H 535.57 0.66858 -1.4745 0
M  V30 5698 H 537.562 3.75666 -1.50523 0
M  V30 5699 H 536.132 3.04218 -0.719036 0
M  V30 5700 H 535.352 2.40662 -3.12211 0
M  V30 5701 H 536.64 3.46334 -3.72734 0
M  V30 5702 H 536.038 5.50791 -1.2902 0
M  V30 5703 H 534.595 6.24752 -1.85819 0
M  V30 5704 N 538.028 1.39524 0.732853 0
M  V30 5705 C 538.978 1.34905 1.83806 0
M  V30 5706 C 539.962 0.229546 1.59254 0
M  V30 5707 O 541.154 0.467255 1.70721 0
M  V30 5708 C 538.283 1.19699 3.21756 0
M  V30 5709 C 537.369 2.36359 3.5213 0
M  V30 5710 N 537.76 3.61834 3.53426 0
M  V30 5711 C 536.058 2.29363 3.82503 0
M  V30 5712 C 536.759 4.38992 3.81655 0
M  V30 5713 N 535.735 3.68606 3.99538 0
M  V30 5714 H 539.537 2.29882 1.83116 0
M  V30 5715 H 537.051 1.33051 0.931194 0
M  V30 5716 H 539.048 1.14472 4.00876 0
M  V30 5717 H 537.708 0.256739 3.23683 0
M  V30 5718 H 538.719 3.95228 3.34686 0
M  V30 5719 H 535.396 1.43612 3.92023 0
M  V30 5720 H 536.786 5.47763 3.89108 0
M  V30 5721 N 539.506 -0.963266 1.24736 0
M  V30 5722 C 540.917 -1.52145 1.08207 0
M  V30 5723 C 541.268 -1.93142 -0.345061 0
M  V30 5724 O 540.393 -1.77769 -1.23399 0
M  V30 5725 C 540.988 -2.76486 1.95808 0
M  V30 5726 C 539.547 -3.28646 1.8349 0
M  V30 5727 C 538.694 -2.01529 1.90476 0
M  V30 5728 H 541.645 -0.781083 1.38148 0
M  V30 5729 H 541.666 -3.49986 1.49297 0
M  V30 5730 H 541.178 -2.46617 2.99669 0
M  V30 5731 H 539.279 -3.63357 0.824787 0
M  V30 5732 H 539.392 -3.97246 2.67829 0
M  V30 5733 H 537.756 -2.16442 1.34258 0
M  V30 5734 H 538.539 -1.7402 2.95926 0
M  V30 5735 N 540.985 -1.06182 -1.16461 0
M  V30 5736 C 542.231 -0.788825 -1.87481 0
M  V30 5737 C 542.586 0.677298 -1.80085 0
M  V30 5738 O 541.879 1.48976 -1.20486 0
M  V30 5739 C 542.073 -1.21633 -3.36066 0
M  V30 5740 C 541.902 -2.72247 -3.57927 0
M  V30 5741 C 540.672 -3.39696 -3.74079 0
M  V30 5742 C 542.87 -3.70461 -3.56739 0
M  V30 5743 N 540.852 -4.79072 -3.83879 0
M  V30 5744 C 542.223 -4.95616 -3.72511 0
M  V30 5745 C 544.278 -3.63788 -3.39945 0
M  V30 5746 C 542.981 -6.14895 -3.73225 0
M  V30 5747 C 545.007 -4.82517 -3.41953 0
M  V30 5748 C 544.369 -6.065 -3.58242 0
M  V30 5749 H 540.468 -0.341034 -0.703719 0
M  V30 5750 H 543.052 -1.35575 -1.39741 0
M  V30 5751 H 541.223 -0.67725 -3.8245 0
M  V30 5752 H 542.955 -0.892119 -3.94745 0
M  V30 5753 H 539.71 -2.90097 -3.74354 0
M  V30 5754 H 540.134 -5.51573 -3.92551 0
M  V30 5755 H 544.776 -2.68888 -3.26281 0
M  V30 5756 H 542.494 -7.10129 -3.85672 0
M  V30 5757 H 546.08 -4.79017 -3.30203 0
M  V30 5758 H 544.96 -6.96833 -3.59712 0
M  V30 5759 N 542.463 1.3308 -0.844243 0
M  V30 5760 C 543.709 1.97898 -0.443206 0
M  V30 5761 C 544.042 1.66699 0.99625 0
M  V30 5762 O 543.317 0.949704 1.69738 0
M  V30 5763 C 543.6 3.53801 -0.670606 0
M  V30 5764 C 543.453 3.94667 -2.15772 0
M  V30 5765 C 544.772 4.39936 -0.120226 0
M  V30 5766 H 541.891 0.718861 -0.162504 0
M  V30 5767 H 544.533 1.57633 -1.06075 0
M  V30 5768 H 542.683 3.88229 -0.14496 0
M  V30 5769 H 544.355 3.70469 -2.74865 0
M  V30 5770 H 542.598 3.44203 -2.6402 0
M  V30 5771 H 543.269 5.03275 -2.26757 0
M  V30 5772 H 545.745 4.12183 -0.5696 0
M  V30 5773 H 544.621 5.4803 -0.308984 0
M  V30 5774 H 544.882 4.31184 0.976347 0
M  V30 5775 N 543.941 0.601185 1.45683 0
M  V30 5776 C 544.873 -0.159446 2.28645 0
M  V30 5777 C 545.886 -0.837882 1.39583 0
M  V30 5778 O 547.075 -0.704344 1.64016 0
M  V30 5779 C 544.175 -1.24641 3.15147 0
M  V30 5780 C 543.348 -0.656334 4.32448 0
M  V30 5781 C 542.407 -1.63337 5.00208 0
M  V30 5782 O 541.433 -1.16217 5.57209 0
M  V30 5783 N 542.635 -2.96773 4.98905 0
M  V30 5784 H 545.4 0.5524 2.94565 0
M  V30 5785 H 542.961 0.440223 1.558 0
M  V30 5786 H 544.953 -1.8997 3.57342 0
M  V30 5787 H 543.523 -1.86087 2.51178 0
M  V30 5788 H 542.743 0.174879 3.93812 0
M  V30 5789 H 544.031 -0.242211 5.08223 0
M  V30 5790 H 543.429 -3.37662 4.53873 0
M  V30 5791 H 541.986 -3.57541 5.44984 0
M  V30 5792 N 545.419 -1.53889 0.339982 0
M  V30 5793 C 546.667 -2.00458 -0.257112 0
M  V30 5794 C 546.988 -1.22953 -1.51353 0
M  V30 5795 O 546.258 -0.335734 -1.93002 0
M  V30 5796 H 544.838 -0.740544 -0.0979965 0
M  V30 5797 H 547.5 -1.89386 0.460317 0
M  V30 5798 H 546.596 -3.08035 -0.502057 0
M  V30 5799 N 546.897 -0.0685191 -1.57451 0
M  V30 5800 C 548.137 0.605038 -1.9524 0
M  V30 5801 C 548.501 1.66974 -0.947816 0
M  V30 5802 O 549.702 2.39862 -1.21325 0
M  V30 5803 C 547.973 1.16999 -3.37707 0
M  V30 5804 S 549.532 1.85913 -3.97469 0
M  V30 5805 H 546.35 0.198203 -0.682815 0
M  V30 5806 H 548.952 -0.141594 -1.94987 0
M  V30 5807 H 547.656 0.383205 -4.08607 0
M  V30 5808 H 547.187 1.95305 -3.41496 0
M  V30 5809 H 549.202 3.14128 -3.84107 0
M  V30 5810 N 548.375 1.56261 0.205012 0
M  V30 5811 C 549.338 1.92908 1.23771 0
M  V30 5812 C 550.338 0.809208 1.38955 0
M  V30 5813 O 551.528 1.07676 1.36936 0
M  V30 5814 C 548.66 2.19442 2.60879 0
M  V30 5815 H 549.853 2.85287 0.924728 0
M  V30 5816 H 547.406 1.49798 0.446125 0
M  V30 5817 H 548.141 1.29668 2.97248 0
M  V30 5818 H 547.926 3.0104 2.51232 0
M  V30 5819 H 549.416 2.48833 3.35368 0
M  V30 5820 N 549.853 -0.472356 1.50355 0
M  V30 5821 C 551.264 -1.05326 1.54154 0
M  V30 5822 C 551.615 -1.93155 0.344303 0
M  V30 5823 O 550.74 -2.09479 -0.542928 0
M  V30 5824 C 551.335 -1.91691 2.79356 0
M  V30 5825 C 549.894 -2.44892 2.8584 0
M  V30 5826 C 549.041 -1.23205 2.48426 0
M  V30 5827 H 551.992 -0.255027 1.56637 0
M  V30 5828 H 552.013 -2.76742 2.6114 0
M  V30 5829 H 551.525 -1.27741 3.66475 0
M  V30 5830 H 549.626 -3.12399 2.0307 0
M  V30 5831 H 549.739 -2.80086 3.88701 0
M  V30 5832 H 548.103 -1.56643 2.00836 0
M  V30 5833 H 548.886 -0.609194 3.37852 0
M  V30 5834 N 551.331 -1.39911 -0.725443 0
M  V30 5835 C 552.241 -1.41688 -1.8698 0
M  V30 5836 C 553.257 -0.310579 -1.71206 0
M  V30 5837 O 554.433 -0.55359 -1.93642 0
M  V30 5838 C 551.498 -1.26811 -3.22676 0
M  V30 5839 C 550.559 -2.47497 -3.50776 0
M  V30 5840 C 549.792 -2.3332 -4.79997 0
M  V30 5841 O 550.015 -1.34175 -5.54394 0
M  V30 5842 O 548.949 -3.22498 -5.08211 0
M  V30 5843 H 552.775 -2.38171 -1.88436 0
M  V30 5844 H 550.36 -1.21128 -0.874548 0
M  V30 5845 H 552.242 -1.20684 -4.03749 0
M  V30 5846 H 550.917 -0.334289 -3.21969 0
M  V30 5847 H 549.824 -2.59201 -2.69751 0
M  V30 5848 H 551.157 -3.39606 -3.5627 0
M  V30 5849 N 552.809 0.956637 -1.25245 0
M  V30 5850 C 553.757 2.0743 -1.0524 0
M  V30 5851 C 554.751 1.69392 0.0160725 0
M  V30 5852 O 555.957 1.7946 -0.139382 0
M  V30 5853 H 552.332 0.678921 -0.323373 0
M  V30 5854 H 554.303 2.2146 -1.99995 0
M  V30 5855 C 553.052 3.40872 -0.685702 0
M  V30 5856 H 552.375 3.70607 -1.49968 0
M  V30 5857 H 553.815 4.19939 -0.585415 0
M  V30 5858 C 552.274 3.31367 0.608082 0
M  V30 5859 O 552.804 3.66214 1.65076 0
M  V30 5860 N 551.01 2.84486 0.592955 0
M  V30 5861 H 550.557 2.56326 -0.25592 0
M  V30 5862 H 550.515 2.78509 1.45877 0
M  V30 5863 N 554.287 1.06798 1.15896 0
M  V30 5864 C 555.515 0.808694 1.90441 0
M  V30 5865 C 555.93 -0.637506 1.77711 0
M  V30 5866 O 555.287 -1.43684 1.12522 0
M  V30 5867 C 555.338 1.20068 3.40978 0
M  V30 5868 O 555.059 2.59013 3.53333 0
M  V30 5869 C 556.56 0.96987 4.3256 0
M  V30 5870 H 553.78 0.292809 0.603742 0
M  V30 5871 H 556.324 1.42296 1.46874 0
M  V30 5872 H 554.479 0.630842 3.82229 0
M  V30 5873 H 554.893 2.7485 4.46719 0
M  V30 5874 H 556.367 1.29371 5.36626 0
M  V30 5875 H 556.844 -0.0941209 4.39099 0
M  V30 5876 H 557.45 1.52433 3.97044 0
M  V30 5877 N 555.766 -1.3263 0.851289 0
M  V30 5878 C 556.696 -2.31449 0.308771 0
M  V30 5879 C 557.677 -1.59531 -0.590255 0
M  V30 5880 O 558.862 -1.87351 -0.511205 0
M  V30 5881 C 555.992 -3.43586 -0.506548 0
M  V30 5882 C 554.946 -4.26963 0.297753 0
M  V30 5883 C 554.272 -5.30831 -0.642094 0
M  V30 5884 C 555.572 -4.99643 1.52166 0
M  V30 5885 H 557.266 -2.77074 1.13447 0
M  V30 5886 H 554.812 -1.33207 0.546971 0
M  V30 5887 H 556.765 -4.11754 -0.896474 0
M  V30 5888 H 555.489 -2.96681 -1.36558 0
M  V30 5889 H 554.148 -3.60437 0.669391 0
M  V30 5890 H 553.796 -4.8018 -1.49788 0
M  V30 5891 H 553.496 -5.87501 -0.107968 0
M  V30 5892 H 555.02 -6.01862 -1.02927 0
M  V30 5893 H 556.434 -5.6051 1.20421 0
M  V30 5894 H 554.831 -5.66022 1.99347 0
M  V30 5895 H 555.901 -4.27701 2.28474 0
M  V30 5896 N 557.244 -0.608902 -1.45362 0
M  V30 5897 C 558.655 -0.189511 -1.85736 0
M  V30 5898 C 559.006 1.2539 -1.50903 0
M  V30 5899 O 558.131 1.95094 -0.936347 0
M  V30 5900 C 558.726 -0.33716 -3.37118 0
M  V30 5901 C 557.285 0.0275487 -3.7639 0
M  V30 5902 C 556.432 -0.660983 -2.69307 0
M  V30 5903 H 559.383 -0.815499 -1.36144 0
M  V30 5904 H 559.404 0.430257 -3.7806 0
M  V30 5905 H 558.916 -1.38779 -3.62439 0
M  V30 5906 H 557.017 1.0773 -3.56686 0
M  V30 5907 H 557.13 -0.367018 -4.77692 0
M  V30 5908 H 555.494 -0.0984958 -2.54509 0
M  V30 5909 H 556.277 -1.71377 -2.97464 0
M  V30 5910 N 558.722 1.53707 -0.348139 0
M  V30 5911 C 559.95 2.05406 0.248224 0
M  V30 5912 C 560.365 1.22282 1.43849 0
M  V30 5913 O 559.722 0.259244 1.80649 0
M  V30 5914 C 559.773 3.55446 0.658793 0
M  V30 5915 O 559.494 4.35417 -0.484149 0
M  V30 5916 C 560.995 4.23335 1.31539 0
M  V30 5917 H 558.215 0.669344 0.0471075 0
M  V30 5918 H 560.759 1.98257 -0.501456 0
M  V30 5919 H 558.914 3.62803 1.35841 0
M  V30 5920 H 559.328 5.24268 -0.155949 0
M  V30 5921 H 560.802 5.29692 1.55338 0
M  V30 5922 H 561.279 3.75967 2.27036 0
M  V30 5923 H 561.885 4.20184 0.657683 0
M  V30 5924 N 560.2 0.0768682 1.57412 0
M  V30 5925 C 561.611 -0.455037 1.8107 0
M  V30 5926 C 561.962 -1.69323 0.991162 0
M  V30 5927 O 561.087 -2.15328 0.215156 0
M  V30 5928 C 561.682 -0.832316 3.28417 0
M  V30 5929 C 560.241 -1.30906 3.52903 0
M  V30 5930 C 559.388 -0.296714 2.75708 0
M  V30 5931 H 562.339 0.302514 1.5579 0
M  V30 5932 H 562.36 -1.69333 3.40744 0
M  V30 5933 H 561.872 0.0690532 3.88039 0
M  V30 5934 H 559.973 -2.22875 2.98592 0
M  V30 5935 H 560.086 -1.28348 4.61588 0
M  V30 5936 H 558.45 -0.775059 2.42621 0
M  V30 5937 H 559.233 0.597015 3.38069 0
M  V30 5938 N 561.678 -1.56367 -0.196722 0
M  V30 5939 C 562.611 -1.89475 -1.2718 0
M  V30 5940 C 563.589 -0.754667 -1.44026 0
M  V30 5941 O 564.773 -1.00551 -1.59442 0
M  V30 5942 C 561.9 -2.12352 -2.63864 0
M  V30 5943 C 560.946 -3.35053 -2.63897 0
M  V30 5944 S 561.779 -4.90228 -2.15492 0
M  V30 5945 C 562.935 -5.16171 -3.54004 0
M  V30 5946 H 563.168 -2.80365 -0.989075 0
M  V30 5947 H 560.701 -1.49125 -0.40014 0
M  V30 5948 H 562.659 -2.26214 -3.42545 0
M  V30 5949 H 561.32 -1.22214 -2.89349 0
M  V30 5950 H 560.513 -3.48182 -3.64397 0
M  V30 5951 H 560.115 -3.20176 -1.93296 0
M  V30 5952 H 562.407 -5.06591 -4.49857 0
M  V30 5953 H 563.35 -6.17938 -3.45771 0
M  V30 5954 H 563.758 -4.43814 -3.48841 0
M  V30 5955 N 563.156 0.464375 -1.50603 0
M  V30 5956 C 564.402 1.21776 -1.62168 0
M  V30 5957 C 564.735 1.91476 -0.324154 0
M  V30 5958 O 564.01 1.8242 0.674782 0
M  V30 5959 C 564.293 2.25614 -2.80661 0
M  V30 5960 C 564.146 1.60175 -4.20314 0
M  V30 5961 C 565.465 3.26862 -2.94702 0
M  V30 5962 H 562.584 0.44137 -0.590222 0
M  V30 5963 H 565.226 0.510623 -1.8301 0
M  V30 5964 H 563.376 2.85923 -2.63021 0
M  V30 5965 H 565.048 1.03411 -4.4956 0
M  V30 5966 H 563.291 0.904697 -4.24261 0
M  V30 5967 H 563.962 2.35665 -4.99165 0
M  V30 5968 H 566.438 2.76582 -3.10872 0
M  V30 5969 H 565.314 3.96839 -3.79223 0
M  V30 5970 H 565.575 3.91382 -2.05603 0
M  V30 5971 N 564.634 1.40294 0.718013 0
M  V30 5972 C 565.564 1.43118 1.84498 0
M  V30 5973 C 566.545 0.292403 1.67568 0
M  V30 5974 O 567.73 0.500675 1.87635 0
M  V30 5975 C 564.86 1.29065 3.22427 0
M  V30 5976 C 563.814 2.40521 3.54025 0
M  V30 5977 C 563.14 2.11546 4.91073 0
M  V30 5978 C 564.44 3.82859 3.55269 0
M  V30 5979 H 566.134 2.37432 1.82391 0
M  V30 5980 H 563.68 1.14283 0.87609 0
M  V30 5981 H 565.633 1.29658 4.00957 0
M  V30 5982 H 564.357 0.312271 3.25104 0
M  V30 5983 H 563.016 2.39173 2.77834 0
M  V30 5984 H 562.664 1.12104 4.90348 0
M  V30 5985 H 562.364 2.86216 5.1318 0
M  V30 5986 H 563.888 2.13817 5.71939 0
M  V30 5987 H 565.302 3.86044 4.23843 0
M  V30 5988 H 563.699 4.57029 3.88902 0
M  V30 5989 H 564.769 4.12617 2.54706 0
M  V30 5990 N 566.112 -0.949982 1.2575 0
M  V30 5991 C 567.044 -2.05088 1.02331 0
M  V30 5992 C 568.057 -1.62795 -0.0133247 0
M  V30 5993 O 569.246 -1.77067 0.225759 0
M  V30 5994 C 566.346 -3.34794 0.525924 0
M  V30 5995 C 565.519 -4.05903 1.62978 0
M  V30 5996 C 564.578 -5.1388 1.13196 0
M  V30 5997 O 563.604 -5.39072 1.82729 0
M  V30 5998 N 564.806 -5.80495 -0.0242926 0
M  V30 5999 H 567.571 -2.25747 1.97125 0
M  V30 6000 H 565.132 -1.11886 1.17018 0
M  V30 6001 H 567.124 -4.04312 0.177263 0
M  V30 6002 H 565.694 -3.10872 -0.328202 0
M  V30 6003 H 564.914 -3.3042 2.1498 0
M  V30 6004 H 566.202 -4.50166 2.37124 0
M  V30 6005 H 565.6 -5.62454 -0.605184 0
M  V30 6006 H 564.157 -6.51043 -0.313947 0
M  V30 6007 N 567.59 -1.07411 -1.15328 0
M  V30 6008 C 569.006 -0.799759 -1.38116 0
M  V30 6009 C 569.206 0.59572 -1.92493 0
M  V30 6010 O 568.262 1.35433 -2.13106 0
M  V30 6011 C 569.575 -1.87407 -2.35158 0
M  V30 6012 C 571.123 -1.89889 -2.48819 0
M  V30 6013 C 571.598 -2.96406 -3.49153 0
M  V30 6014 N 573.089 -2.95512 -3.56689 0
M  V30 6015 C 573.824 -3.74575 -4.34144 0
M  V30 6016 N 573.32 -4.63488 -5.14928 0
M  V30 6017 N 575.113 -3.62919 -4.29239 0
M  V30 6018 H 567.264 -1.97411 -0.78374 0
M  V30 6019 H 569.527 -0.856113 -0.407154 0
M  V30 6020 H 569.233 -2.8768 -2.0232 0
M  V30 6021 H 569.107 -1.73471 -3.34944 0
M  V30 6022 H 571.494 -0.902677 -2.80955 0
M  V30 6023 H 571.575 -2.07904 -1.49029 0
M  V30 6024 H 571.219 -3.96227 -3.17752 0
M  V30 6025 H 571.149 -2.75638 -4.48699 0
M  V30 6026 H 573.64 -2.31061 -2.99031 0
M  V30 6027 H 573.953 -5.20445 -5.71276 0
M  V30 6028 H 572.298 -4.67537 -5.14232 0
M  V30 6029 H 575.489 -2.92833 -3.65194 0
M  V30 6030 H 575.662 -4.24777 -4.89355 0
M  V30 6031 N 569.068 1.32177 -0.85831 0
M  V30 6032 C 570.016 2.30729 -0.294442 0
M  V30 6033 C 571.01 1.59009 0.584165 0
M  V30 6034 O 572.216 1.73713 0.471562 0
M  V30 6035 H 568.591 0.748097 -0.0765171 0
M  V30 6036 H 570.562 2.75774 -1.1398 0
M  V30 6037 C 569.311 3.44098 0.499208 0
M  V30 6038 H 568.634 3.99449 -0.167579 0
M  V30 6039 H 570.074 4.15202 0.859273 0
M  V30 6040 C 568.533 2.91684 1.68588 0
M  V30 6041 O 569.063 2.89481 2.78503 0
M  V30 6042 N 567.269 2.48036 1.51415 0
M  V30 6043 H 566.816 2.50027 0.620006 0
M  V30 6044 H 566.774 2.13322 2.30957 0
M  V30 6045 N 570.547 0.616602 1.45037 0
M  V30 6046 C 571.772 0.120192 2.07051 0
M  V30 6047 C 572.197 -1.19008 1.45666 0
M  V30 6048 O 571.555 -1.7267 0.552692 0
M  V30 6049 C 571.603 0.00354901 3.606 0
M  V30 6050 O 570.707 -1.04431 3.98958 0
M  V30 6051 H 570.048 0.0781599 0.659384 0
M  V30 6052 H 572.578 0.849167 1.86146 0
M  V30 6053 H 572.588 -0.191754 4.07549 0
M  V30 6054 H 571.263 0.960239 4.04663 0
M  V30 6055 H 569.84 -0.824749 3.63665 0
M  V30 6056 N 572.025 -1.5352 0.356285 0
M  V30 6057 C 573.265 -2.03027 -0.23649 0
M  V30 6058 C 573.629 -1.23813 -1.46746 0
M  V30 6059 O 574.83 -1.63281 -2.13525 0
M  V30 6060 C 573.101 -3.53442 -0.530415 0
M  V30 6061 S 574.66 -4.24836 -1.09819 0
M  V30 6062 H 571.478 -0.707591 -0.0695378 0
M  V30 6063 H 574.08 -1.89077 0.496999 0
M  V30 6064 H 572.784 -4.087 0.373114 0
M  V30 6065 H 572.315 -3.71536 -1.29323 0
M  V30 6066 H 574.33 -4.35228 -2.38309 0
M  V30 6067 N 573.503 -0.0852151 -1.57369 0
M  V30 6068 C 574.466 0.8627 -2.12344 0
M  V30 6069 C 575.466 1.21746 -1.05046 0
M  V30 6070 O 576.656 1.14852 -1.30976 0
M  V30 6071 C 573.788 2.1618 -2.63589 0
M  V30 6072 H 574.981 0.385511 -2.97412 0
M  V30 6073 H 572.534 0.163663 -1.55441 0
M  V30 6074 H 573.269 2.68406 -1.82013 0
M  V30 6075 H 573.054 1.91723 -3.4203 0
M  V30 6076 H 574.544 2.84011 -3.06149 0
M  V30 6077 N 574.981 1.5647 0.188427 0
M  V30 6078 C 575.928 1.95073 1.23349 0
M  V30 6079 C 576.898 0.812238 1.44886 0
M  V30 6080 O 578.083 1.07095 1.57909 0
M  V30 6081 C 575.223 2.30124 2.57171 0
M  V30 6082 C 574.336 3.57069 2.43157 0
M  V30 6083 C 573.471 3.81411 3.69729 0
M  V30 6084 C 572.51 5.0176 3.50575 0
M  V30 6085 N 571.647 5.22321 4.69175 0
M  V30 6086 H 576.487 2.84171 0.89728 0
M  V30 6087 H 574.024 1.40623 0.431683 0
M  V30 6088 H 575.982 2.48463 3.35145 0
M  V30 6089 H 574.612 1.44159 2.88822 0
M  V30 6090 H 573.664 3.4674 1.56447 0
M  V30 6091 H 574.976 4.452 2.24942 0
M  V30 6092 H 574.13 4.00026 4.56141 0
M  V30 6093 H 572.869 2.91624 3.90905 0
M  V30 6094 H 571.874 4.83061 2.62549 0
M  V30 6095 H 573.099 5.93063 3.30837 0
M  V30 6096 H 571.045 4.35483 4.90602 0
M  V30 6097 H 570.962 6.04643 4.53809 0
M  V30 6098 H 572.23 5.45401 5.56919 0
M  V30 6099 N 576.459 -0.456382 1.50847 0
M  V30 6100 C 577.736 -1.21739 1.53098 0
M  V30 6101 C 578.116 -2.09179 0.284132 0
M  V30 6102 O 577.464 -2.16466 -0.731773 0
M  V30 6103 C 577.674 -2.03573 2.83477 0
M  V30 6104 C 579.022 -2.61264 3.34703 0
M  V30 6105 O 580.046 -2.13802 2.84898 0
M  V30 6106 O 578.905 -3.47779 4.21559 0
M  V30 6107 H 575.999 -0.553219 0.614718 0
M  V30 6108 H 578.545 -0.467003 1.63148 0
M  V30 6109 H 577.317 -1.39232 3.65691 0
M  V30 6110 H 576.94 -2.85716 2.76499 0
M  V30 6111 N 577.937 -1.40673 -0.710563 0
M  V30 6112 C 578.867 -1.44095 -1.83736 0
M  V30 6113 C 579.848 -0.301286 -1.67411 0
M  V30 6114 O 581.033 -0.510618 -1.87367 0
M  V30 6115 C 578.163 -1.30773 -3.21738 0
M  V30 6116 C 577.117 -2.42395 -3.52745 0
M  V30 6117 C 576.443 -2.14147 -4.89944 0
M  V30 6118 C 577.743 -3.84738 -3.53234 0
M  V30 6119 H 579.437 -2.38396 -1.81129 0
M  V30 6120 H 576.983 -1.14746 -0.870017 0
M  V30 6121 H 578.936 -1.31783 -4.00264 0
M  V30 6122 H 577.66 -0.329507 -3.24934 0
M  V30 6123 H 576.319 -2.40643 -2.76562 0
M  V30 6124 H 575.967 -1.14703 -4.89747 0
M  V30 6125 H 575.667 -2.88934 -5.11655 0
M  V30 6126 H 577.191 -2.16848 -5.70797 0
M  V30 6127 H 578.605 -3.88286 -4.2179 0
M  V30 6128 H 577.002 -4.59085 -3.86473 0
M  V30 6129 H 578.072 -4.13962 -2.52514 0
M  V30 6130 N 579.415 0.9433 -1.26252 0
M  V30 6131 C 580.643 1.72367 -1.14443 0
M  V30 6132 C 581.058 1.86392 0.300572 0
M  V30 6133 O 580.415 1.36978 1.20596 0
M  V30 6134 C 580.466 3.13155 -1.806 0
M  V30 6135 O 580.187 2.99803 -3.19452 0
M  V30 6136 C 581.688 4.07417 -1.74717 0
M  V30 6137 H 578.908 0.539758 -0.398626 0
M  V30 6138 H 581.452 1.18268 -1.66832 0
M  V30 6139 H 579.607 3.64162 -1.32154 0
M  V30 6140 H 580.021 3.88697 -3.52158 0
M  V30 6141 H 581.495 5.03773 -2.25647 0
M  V30 6142 H 581.972 4.3337 -0.713244 0
M  V30 6143 H 582.578 3.6233 -2.22704 0
M  V30 6144 N 580.893 1.08022 1.14757 0
M  V30 6145 C 582.118 0.82895 1.90114 0
M  V30 6146 C 582.543 -0.612772 1.77839 0
M  V30 6147 O 581.901 -1.42895 1.11583 0
M  V30 6148 C 581.949 1.25062 3.38219 0
M  V30 6149 O 581.053 0.400119 4.10454 0
M  V30 6150 H 580.394 0.301412 0.591648 0
M  V30 6151 H 582.924 1.44062 1.45284 0
M  V30 6152 H 582.934 1.22977 3.89025 0
M  V30 6153 H 581.609 2.30067 3.46471 0
M  V30 6154 H 580.186 0.484052 3.69745 0
M  V30 6155 N 582.371 -1.3172 0.865308 0
M  V30 6156 C 583.618 -1.96876 0.473931 0
M  V30 6157 C 583.946 -1.68425 -0.972786 0
M  V30 6158 O 583.201 -0.970742 -1.69927 0
M  V30 6159 C 583.5 -3.5102 0.672283 0
M  V30 6160 C 583.166 -3.9948 2.09108 0
M  V30 6161 C 581.828 -4.12425 2.4791 0
M  V30 6162 C 584.18 -4.2503 3.0166 0
M  V30 6163 C 581.508 -4.48267 3.78515 0
M  V30 6164 C 583.86 -4.62335 4.31774 0
M  V30 6165 C 582.524 -4.73486 4.70497 0
M  V30 6166 H 581.794 -0.72042 0.173424 0
M  V30 6167 H 584.441 -1.56937 1.0974 0
M  V30 6168 H 582.746 -3.91785 -0.034356 0
M  V30 6169 H 584.443 -3.99475 0.349353 0
M  V30 6170 H 581.033 -3.89898 1.77981 0
M  V30 6171 H 585.217 -4.14529 2.7291 0
M  V30 6172 H 580.473 -4.55097 4.08285 0
M  V30 6173 H 584.647 -4.81058 5.03543 0
M  V30 6174 H 582.274 -5.01016 5.71741 0
M  V30 6175 N 583.85 -0.624285 -1.44708 0
M  V30 6176 C 584.812 0.0749638 -2.29077 0
M  V30 6177 C 585.812 0.778965 -1.40673 0
M  V30 6178 O 587.003 0.624591 -1.62618 0
M  V30 6179 C 584.135 1.11663 -3.22094 0
M  V30 6180 H 585.327 -0.667013 -2.92388 0
M  V30 6181 H 582.88 -0.384098 -1.51507 0
M  V30 6182 H 583.615 1.88881 -2.63618 0
M  V30 6183 H 583.401 0.61583 -3.87234 0
M  V30 6184 H 584.891 1.60585 -3.8549 0
M  V30 6185 N 585.328 1.53329 -0.364422 0
M  V30 6186 C 586.291 2.24323 0.470292 0
M  V30 6187 C 587.291 1.25068 1.01067 0
M  V30 6188 O 588.481 1.49354 0.896605 0
M  V30 6189 C 585.613 2.97908 1.65722 0
M  V30 6190 H 586.806 2.9952 -0.150917 0
M  V30 6191 H 584.359 1.55868 -0.116092 0
M  V30 6192 H 585.094 2.2695 2.31655 0
M  V30 6193 H 584.879 3.70732 1.27671 0
M  V30 6194 H 586.369 3.5188 2.24878 0
M  V30 6195 N 586.806 0.0935595 1.57322 0
M  V30 6196 C 587.716 -0.880192 2.17462 0
M  V30 6197 C 588.732 -1.31135 1.14366 0
M  V30 6198 O 589.908 -1.37958 1.46729 0
M  V30 6199 C 586.973 -2.12184 2.74188 0
M  V30 6200 C 586.034 -1.74503 3.92234 0
M  V30 6201 C 585.267 -2.92748 4.46245 0
M  V30 6202 O 585.49 -4.07427 3.99198 0
M  V30 6203 O 584.424 -2.71303 5.37288 0
M  V30 6204 H 588.25 -0.398516 3.01074 0
M  V30 6205 H 585.835 -0.130707 1.48827 0
M  V30 6206 H 587.717 -2.84953 3.10451 0
M  V30 6207 H 586.392 -2.59407 1.93623 0
M  V30 6208 H 585.299 -0.989186 3.60785 0
M  V30 6209 H 586.632 -1.32044 4.74157 0
M  V30 6210 N 588.284 -1.56567 -0.180126 0
M  V30 6211 C 589.247 -1.94852 -1.20686 0
M  V30 6212 C 590.247 -0.831212 -1.3765 0
M  V30 6213 O 591.437 -1.09841 -1.35206 0
M  V30 6214 C 588.569 -2.23565 -2.57355 0
M  V30 6215 H 589.762 -2.86722 -0.879225 0
M  V30 6216 H 587.315 -1.50489 -0.422237 0
M  V30 6217 H 588.05 -1.34381 -2.95148 0
M  V30 6218 H 587.835 -3.04999 -2.46411 0
M  V30 6219 H 589.325 -2.54137 -3.31367 0
M  V30 6220 N 589.762 0.448376 -1.51087 0
M  V30 6221 C 591.011 1.19561 -1.62444 0
M  V30 6222 C 591.324 1.92602 -0.341151 0
M  V30 6223 O 592.53 2.69439 -0.333936 0
M  V30 6224 C 590.986 2.17373 -2.8684 0
M  V30 6225 C 590.594 1.5003 -4.22131 0
M  V30 6226 C 592.338 2.92597 -3.0755 0
M  V30 6227 C 590.245 2.46262 -5.37689 0
M  V30 6228 H 589.175 0.449975 -0.605011 0
M  V30 6229 H 591.826 0.463735 -1.77544 0
M  V30 6230 H 590.208 2.93948 -2.65349 0
M  V30 6231 H 591.382 0.790886 -4.53962 0
M  V30 6232 H 589.697 0.870011 -4.0721 0
M  V30 6233 H 592.294 3.64663 -3.91056 0
M  V30 6234 H 592.637 3.53306 -2.20183 0
M  V30 6235 H 593.17 2.23131 -3.29329 0
M  V30 6236 H 589.909 1.90258 -6.27281 0
M  V30 6237 H 589.429 3.15289 -5.10248 0
M  V30 6238 H 591.108 3.07623 -5.6919 0
M  V30 6239 N 591.24 1.41047 0.703093 0
M  V30 6240 C 592.203 1.42036 1.79884 0
M  V30 6241 C 593.203 0.312153 1.57741 0
M  V30 6242 O 594.393 0.571672 1.64553 0
M  V30 6243 C 591.525 1.22437 3.18154 0
M  V30 6244 H 592.718 2.39572 1.80403 0
M  V30 6245 H 590.271 1.27079 0.909977 0
M  V30 6246 H 591.006 0.257112 3.23279 0
M  V30 6247 H 590.791 2.02723 3.35627 0
M  V30 6248 H 592.281 1.25946 3.98155 0
M  V30 6249 N 592.718 -0.936591 1.26751 0
M  V30 6250 C 593.651 -2.03619 1.03027 0
M  V30 6251 C 594.629 -1.62534 -0.0464619 0
M  V30 6252 O 595.813 -1.88251 0.0968873 0
M  V30 6253 C 592.94 -3.3402 0.561072 0
M  V30 6254 C 591.986 -3.9408 1.63105 0
M  V30 6255 S 592.819 -4.27782 3.22122 0
M  V30 6256 C 593.975 -5.61277 2.76982 0
M  V30 6257 H 594.208 -2.23429 1.96129 0
M  V30 6258 H 591.741 -1.07857 1.10482 0
M  V30 6259 H 593.699 -4.09424 0.297031 0
M  V30 6260 H 592.36 -3.12147 -0.349741 0
M  V30 6261 H 591.553 -4.88154 1.25386 0
M  V30 6262 H 591.155 -3.25227 1.84671 0
M  V30 6263 H 593.447 -6.40189 2.21731 0
M  V30 6264 H 594.39 -6.03887 3.69766 0
M  V30 6265 H 594.798 -5.21374 2.16402 0
M  V30 6266 N 594.196 -1.08629 -1.14182 0
M  V30 6267 C 595.144 -0.71284 -2.21408 0
M  V30 6268 C 596.138 0.282457 -1.67029 0
M  V30 6269 O 597.344 0.144783 -1.79417 0
M  V30 6270 H 593.719 -0.212497 -0.721352 0
M  V30 6271 H 595.69 -1.6265 -2.50175 0
M  V30 6272 C 594.439 -0.140704 -3.47415 0
M  V30 6273 H 593.762 -0.897739 -3.8959 0
M  V30 6274 H 595.202 0.0827677 -4.23919 0
M  V30 6275 C 593.661 1.122 -3.17668 0
M  V30 6276 O 594.191 2.20652 -3.35672 0
M  V30 6277 N 592.397 1.03328 -2.71609 0
M  V30 6278 H 591.944 0.150666 -2.57159 0
M  V30 6279 H 591.902 1.8789 -2.52081 0
M  V30 6280 N 595.674 1.31259 -0.872281 0
M  V30 6281 C 597.09 1.49283 -0.564521 0
M  V30 6282 C 597.29 1.80243 0.900807 0
M  V30 6283 O 596.346 1.88246 1.68284 0
M  V30 6284 C 597.659 2.62503 -1.46673 0
M  V30 6285 C 599.207 2.76386 -1.46901 0
M  V30 6286 C 599.682 3.92705 -2.35684 0
M  V30 6287 N 601.173 3.99995 -2.33577 0
M  V30 6288 C 601.908 4.89276 -2.98992 0
M  V30 6289 N 601.404 5.83443 -3.73585 0
M  V30 6290 N 603.197 4.82541 -2.88289 0
M  V30 6291 H 595.348 1.09432 -1.82039 0
M  V30 6292 H 597.611 0.540949 -0.77851 0
M  V30 6293 H 597.317 2.46407 -2.50951 0
M  V30 6294 H 597.191 3.58695 -1.16696 0
M  V30 6295 H 599.578 2.91894 -0.433796 0
M  V30 6296 H 599.659 1.80853 -1.80903 0
M  V30 6297 H 599.303 3.77954 -3.39283 0
M  V30 6298 H 599.233 4.87549 -1.99006 0
M  V30 6299 H 601.724 3.32624 -1.7936 0
M  V30 6300 H 602.037 6.48303 -4.20622 0
M  V30 6301 H 600.382 5.83415 -3.77694 0
M  V30 6302 H 603.573 4.07951 -2.2955 0
M  V30 6303 H 603.746 5.51916 -3.39549 0
M  V30 6304 N 597.152 0.631951 1.44375 0
M  V30 6305 C 598.084 -0.110911 2.28931 0
M  V30 6306 C 599.097 -0.808086 1.41329 0
M  V30 6307 O 600.286 -0.669396 1.65473 0
M  V30 6308 C 597.386 -1.17928 3.1772 0
M  V30 6309 C 596.559 -0.564458 4.33743 0
M  V30 6310 C 595.618 -1.5269 5.0356 0
M  V30 6311 O 594.644 -1.04372 5.59549 0
M  V30 6312 N 595.846 -2.86123 5.05088 0
M  V30 6313 H 598.611 0.614758 2.93327 0
M  V30 6314 H 596.172 0.473171 1.54831 0
M  V30 6315 H 598.164 -1.82348 3.61291 0
M  V30 6316 H 596.734 -1.80717 2.55069 0
M  V30 6317 H 595.954 0.258373 3.93352 0
M  V30 6318 H 597.242 -0.134355 5.08623 0
M  V30 6319 H 596.64 -3.27959 4.60933 0
M  V30 6320 H 595.197 -3.45901 5.52445 0
M  V30 6321 N 598.631 -1.53133 0.372548 0
M  V30 6322 C 599.561 -2.28876 -0.462412 0
M  V30 6323 C 600.542 -1.31583 -1.07796 0
M  V30 6324 O 601.727 -1.60461 -1.09389 0
M  V30 6325 C 598.857 -3.08317 -1.59868 0
M  V30 6326 C 597.811 -4.13355 -1.11003 0
M  V30 6327 C 597.137 -4.8092 -2.33708 0
M  V30 6328 C 598.437 -5.21955 -0.18983 0
M  V30 6329 H 600.131 -2.9892 0.169511 0
M  V30 6330 H 597.677 -1.43761 0.0829658 0
M  V30 6331 H 599.63 -3.60055 -2.18949 0
M  V30 6332 H 598.354 -2.35976 -2.25794 0
M  V30 6333 H 597.013 -3.62573 -0.541869 0
M  V30 6334 H 596.661 -4.05144 -2.98106 0
M  V30 6335 H 596.361 -5.51904 -2.01682 0
M  V30 6336 H 597.885 -5.35455 -2.93462 0
M  V30 6337 H 599.299 -5.69153 -0.688319 0
M  V30 6338 H 597.696 -6.00087 0.0398887 0
M  V30 6339 H 598.766 -4.78811 0.766057 0
M  V30 6340 N 600.109 -0.101901 -1.5727 0
M  V30 6341 C 601.072 0.840129 -2.13247 0
M  V30 6342 C 602.072 1.20625 -1.06331 0
M  V30 6343 O 603.262 1.13456 -1.32186 0
M  V30 6344 C 600.394 2.13372 -2.65867 0
M  V30 6345 H 601.587 0.353945 -2.97804 0
M  V30 6346 H 599.14 0.147167 -1.55606 0
M  V30 6347 H 599.875 2.66461 -1.84849 0
M  V30 6348 H 599.66 1.88085 -3.44044 0
M  V30 6349 H 601.15 2.80748 -3.09145 0
M  V30 6350 N 601.587 1.56661 0.17182 0
M  V30 6351 C 602.519 1.92934 1.2373 0
M  V30 6352 C 603.532 0.822385 1.40502 0
M  V30 6353 O 604.721 1.10083 1.40514 0
M  V30 6354 C 601.821 2.16651 2.60607 0
M  V30 6355 C 600.994 3.47878 2.6514 0
M  V30 6356 C 600.053 3.60429 3.83377 0
M  V30 6357 O 599.079 4.33051 3.69398 0
M  V30 6358 N 600.281 2.95241 4.99813 0
M  V30 6359 H 603.046 2.84931 0.929205 0
M  V30 6360 H 600.607 1.5781 0.361588 0
M  V30 6361 H 602.599 2.22312 3.38171 0
M  V30 6362 H 601.169 1.3104 2.83809 0
M  V30 6363 H 600.389 3.53879 1.73675 0
M  V30 6364 H 601.677 4.34232 2.6518 0
M  V30 6365 H 601.075 2.3611 5.14071 0
M  V30 6366 H 599.632 3.06499 5.75241 0
M  V30 6367 N 603.065 -0.440357 1.51323 0
M  V30 6368 C 604.015 -1.53263 1.68803 0
M  V30 6369 C 604.999 -1.51494 0.542057 0
M  V30 6370 O 606.191 -1.57999 0.797839 0
M  V30 6371 C 603.32 -2.91479 1.8137 0
M  V30 6372 C 602.406 -2.98015 3.01742 0
M  V30 6373 N 602.797 -2.743 4.24962 0
M  V30 6374 C 601.095 -3.29173 3.00934 0
M  V30 6375 C 601.796 -2.86601 5.06197 0
M  V30 6376 N 600.772 -3.1814 4.40781 0
M  V30 6377 H 604.574 -1.33675 2.61741 0
M  V30 6378 H 602.088 -0.647616 1.48929 0
M  V30 6379 H 604.085 -3.70055 1.92002 0
M  V30 6380 H 602.745 -3.12089 0.896117 0
M  V30 6381 H 603.756 -2.49287 4.53957 0
M  V30 6382 H 600.433 -3.55577 2.18796 0
M  V30 6383 H 601.823 -2.72246 6.14274 0
M  V30 6384 N 604.543 -1.41418 -0.695603 0
M  V30 6385 C 605.82 -1.31264 -1.45014 0
M  V30 6386 C 606.2 0.0597994 -2.11015 0
M  V30 6387 O 605.548 1.07403 -2.01685 0
M  V30 6388 C 605.758 -2.466 -2.4696 0
M  V30 6389 C 607.106 -2.87763 -3.12214 0
M  V30 6390 O 608.13 -2.46339 -2.57285 0
M  V30 6391 O 606.989 -3.59395 -4.11701 0
M  V30 6392 H 604.083 -0.516576 -0.645816 0
M  V30 6393 H 606.629 -1.53382 -0.726084 0
M  V30 6394 H 605.401 -3.38183 -1.96845 0
M  V30 6395 H 605.024 -2.26358 -3.26876 0
M  V30 6396 N 606.021 0.929856 -1.27246 0
M  V30 6397 C 606.931 2.0636 -1.11592 0
M  V30 6398 C 607.947 1.73938 -0.046496 0
M  V30 6399 O 609.123 1.9981 -0.252544 0
M  V30 6400 C 606.188 3.38213 -0.762437 0
M  V30 6401 C 605.249 3.84346 -1.9125 0
M  V30 6402 C 604.482 5.09906 -1.57579 0
M  V30 6403 O 604.705 5.68354 -0.482694 0
M  V30 6404 O 603.639 5.51359 -2.41426 0
M  V30 6405 H 607.465 2.22478 -2.0673 0
M  V30 6406 H 605.05 1.04865 -1.06413 0
M  V30 6407 H 606.932 4.1741 -0.57854 0
M  V30 6408 H 605.607 3.23307 0.159439 0
M  V30 6409 H 604.514 3.06045 -2.15144 0
M  V30 6410 H 605.847 4.0379 -2.81451 0
M  V30 6411 N 607.499 1.09233 1.13605 0
M  V30 6412 C 608.776 0.739633 1.81077 0
M  V30 6413 C 609.156 -0.775595 1.96336 0
M  V30 6414 O 608.504 -1.69726 1.52988 0
M  V30 6415 C 608.714 1.47636 3.16235 0
M  V30 6416 C 610.062 1.64087 3.91613 0
M  V30 6417 O 611.086 1.43871 3.25852 0
M  V30 6418 O 609.945 1.97511 5.0956 0
M  V30 6419 H 607.039 0.265464 0.783236 0
M  V30 6420 H 609.585 1.19441 1.20549 0
M  V30 6421 H 608.357 2.50818 3.00344 0
M  V30 6422 H 607.98 1.01362 3.84462 0
M  V30 6423 N 608.977 -1.30795 0.87923 0
M  V30 6424 C 609.907 -2.30742 0.357796 0
M  V30 6425 C 610.888 -1.60747 -0.556283 0
M  V30 6426 O 612.073 -1.88393 -0.47135 0
M  V30 6427 C 609.203 -3.44583 -0.433555 0
M  V30 6428 C 608.157 -4.26235 0.388251 0
M  V30 6429 C 607.483 -5.32073 -0.529352 0
M  V30 6430 C 608.783 -4.96303 1.62729 0
M  V30 6431 H 610.477 -2.74605 1.19299 0
M  V30 6432 H 608.023 -1.32017 0.575104 0
M  V30 6433 H 609.976 -4.13563 -0.808934 0
M  V30 6434 H 608.7 -2.99511 -1.30234 0
M  V30 6435 H 607.359 -3.58936 0.745695 0
M  V30 6436 H 607.007 -4.83249 -1.39569 0
M  V30 6437 H 606.707 -5.87598 0.0166741 0
M  V30 6438 H 608.231 -6.0391 -0.901373 0
M  V30 6439 H 609.645 -5.5783 1.32283 0
M  V30 6440 H 608.042 -5.61666 2.11309 0
M  V30 6441 H 609.112 -4.22758 2.37494 0
M  V30 6442 N 610.455 -0.639598 -1.44038 0
M  V30 6443 C 611.418 0.0506628 -2.29144 0
M  V30 6444 C 612.418 0.764001 -1.41491 0
M  V30 6445 O 613.608 0.607309 -1.63271 0
M  V30 6446 C 610.74 1.0824 -3.2326 0
M  V30 6447 H 611.933 -0.697987 -2.91664 0
M  V30 6448 H 609.486 -0.400146 -1.51091 0
M  V30 6449 H 610.221 1.86075 -2.65606 0
M  V30 6450 H 610.006 0.574725 -3.87865 0
M  V30 6451 H 611.496 1.56487 -3.87171 0
M  V30 6452 N 611.933 1.52934 -0.380664 0
M  V30 6453 C 612.843 2.29921 0.466192 0
M  V30 6454 C 613.859 1.36488 1.07922 0
M  V30 6455 O 615.035 1.69553 1.0869 0
M  V30 6456 C 612.1 3.08468 1.58266 0
M  V30 6457 C 611.161 4.17595 0.995627 0
M  V30 6458 C 610.394 4.92387 2.05889 0
M  V30 6459 O 610.617 4.67184 3.27254 0
M  V30 6460 O 609.551 5.77949 1.68102 0
M  V30 6461 H 613.377 3.03274 -0.160735 0
M  V30 6462 H 610.962 1.48698 -0.144617 0
M  V30 6463 H 612.844 3.57469 2.23145 0
M  V30 6464 H 611.519 2.37937 2.19471 0
M  V30 6465 H 610.426 3.72811 0.310332 0
M  V30 6466 H 611.759 4.90336 0.427918 0
M  V30 6467 N 613.412 0.11024 1.57214 0
M  V30 6468 C 614.322 -0.857077 2.18383 0
M  V30 6469 C 615.338 -1.29915 1.1575 0
M  V30 6470 O 616.514 -1.36394 1.48184 0
M  V30 6471 C 613.579 -2.09264 2.76423 0
M  V30 6472 C 612.64 -1.70333 3.94063 0
M  V30 6473 C 611.873 -2.87999 4.49324 0
M  V30 6474 O 612.096 -4.0317 4.03497 0
M  V30 6475 O 611.03 -2.6559 5.40135 0
M  V30 6476 H 614.856 -0.366561 3.0148 0
M  V30 6477 H 612.441 -0.114914 1.48957 0
M  V30 6478 H 614.323 -2.81644 3.13456 0
M  V30 6479 H 612.998 -2.57339 1.96363 0
M  V30 6480 H 611.905 -0.950864 3.61814 0
M  V30 6481 H 613.238 -1.27007 4.75531 0
M  V30 6482 N 614.89 -1.56749 -0.16351 0
M  V30 6483 C 615.8 -2.00255 -1.2221 0
M  V30 6484 C 616.816 -0.915194 -1.47987 0
M  V30 6485 O 617.992 -1.22342 -1.59982 0
M  V30 6486 C 615.057 -2.36035 -2.53946 0
M  V30 6487 C 614.118 -3.58637 -2.35962 0
M  V30 6488 C 613.351 -3.92701 -3.61416 0
M  V30 6489 O 613.574 -3.27632 -4.66919 0
M  V30 6490 O 612.508 -4.86019 -3.55062 0
M  V30 6491 H 616.334 -2.90586 -0.882794 0
M  V30 6492 H 613.919 -1.44721 -0.370978 0
M  V30 6493 H 615.801 -2.59982 -3.31643 0
M  V30 6494 H 614.476 -1.48863 -2.8744 0
M  V30 6495 H 613.383 -3.39898 -1.5627 0
M  V30 6496 H 614.716 -4.46374 -2.0739 0
M  V30 6497 N 616.368 0.432326 -1.51554 0
M  V30 6498 C 617.331 1.50765 -1.72634 0
M  V30 6499 C 618.331 1.49334 -0.596314 0
M  V30 6500 O 619.521 1.51268 -0.863925 0
M  V30 6501 C 616.653 2.90284 -1.7874 0
M  V30 6502 H 617.846 1.33377 -2.68609 0
M  V30 6503 H 615.399 0.661329 -1.4162 0
M  V30 6504 H 616.134 3.13071 -0.845977 0
M  V30 6505 H 615.919 2.92727 -2.6087 0
M  V30 6506 H 617.409 3.68282 -1.96871 0
M  V30 6507 N 617.846 1.41785 0.688094 0
M  V30 6508 C 618.809 1.43936 1.78368 0
M  V30 6509 C 619.809 0.328866 1.57401 0
M  V30 6510 O 620.999 0.589093 1.63937 0
M  V30 6511 C 618.131 1.25804 3.16838 0
M  V30 6512 H 619.324 2.41472 1.77852 0
M  V30 6513 H 616.877 1.28037 0.896448 0
M  V30 6514 H 617.612 0.291386 3.22988 0
M  V30 6515 H 617.397 2.06272 3.33458 0
M  V30 6516 H 618.887 1.30162 3.96797 0
M  V30 6517 N 619.324 -0.923095 1.27737 0
M  V30 6518 C 620.572 -1.66797 1.14119 0
M  V30 6519 C 620.893 -1.92479 -0.312541 0
M  V30 6520 O 620.163 -1.53432 -1.218 0
M  V30 6521 H 618.743 -0.618196 0.419336 0
M  V30 6522 H 621.405 -1.10815 1.60331 0
M  V30 6523 H 620.501 -2.63424 1.67374 0
M  V30 6524 N 620.802 -1.09834 -1.13024 0
M  V30 6525 C 621.734 -0.699379 -2.18269 0
M  V30 6526 C 622.747 0.260841 -1.60697 0
M  V30 6527 O 623.936 0.0462538 -1.7844 0
M  V30 6528 C 621.036 -0.0104537 -3.38898 0
M  V30 6529 C 620.209 -0.993275 -4.25973 0
M  V30 6530 C 619.268 -0.336982 -5.2512 0
M  V30 6531 O 618.294 -0.985892 -5.60597 0
M  V30 6532 N 619.496 0.90716 -5.73368 0
M  V30 6533 H 622.261 -1.60486 -2.5311 0
M  V30 6534 H 619.822 -0.986337 -1.28386 0
M  V30 6535 H 621.814 0.43991 -4.02302 0
M  V30 6536 H 620.384 0.797335 -3.0226 0
M  V30 6537 H 619.604 -1.62208 -3.5928 0
M  V30 6538 H 620.892 -1.65876 -4.81002 0
M  V30 6539 H 620.29 1.45384 -5.46699 0
M  V30 6540 H 618.847 1.30077 -6.38689 0
M  V30 6541 N 622.28 1.30327 -0.886154 0
M  V30 6542 C 623.528 1.9571 -0.504195 0
M  V30 6543 C 623.849 1.70294 0.950003 0
M  V30 6544 O 623.119 1.02718 1.66811 0
M  V30 6545 H 621.699 0.72412 -0.183465 0
M  V30 6546 H 624.361 1.58835 -1.12949 0
M  V30 6547 H 623.457 3.04704 -0.675431 0
M  V30 6548 N 623.758 0.647228 1.43697 0
M  V30 6549 C 624.69 -0.0866232 2.29036 0
M  V30 6550 C 625.703 -0.793051 1.42178 0
M  V30 6551 O 626.892 -0.651807 1.66174 0
M  V30 6552 C 623.992 -1.14552 3.18953 0
M  V30 6553 C 623.165 -0.518422 4.34317 0
M  V30 6554 C 622.224 -1.4734 5.05151 0
M  V30 6555 O 621.25 -0.984312 5.60625 0
M  V30 6556 N 622.452 -2.8075 5.08094 0
M  V30 6557 H 625.217 0.645834 2.92659 0
M  V30 6558 H 622.778 0.489567 1.54321 0
M  V30 6559 H 624.77 -1.78505 3.63205 0
M  V30 6560 H 623.34 -1.78001 2.56971 0
M  V30 6561 H 622.56 0.300079 3.93056 0
M  V30 6562 H 623.848 -0.080401 5.08736 0
M  V30 6563 H 623.246 -3.23052 4.64386 0
M  V30 6564 H 621.803 -3.40022 5.56083 0
M  V30 6565 N 625.236 -1.5273 0.388769 0
M  V30 6566 C 626.647 -1.86505 -0.0853788 0
M  V30 6567 C 626.998 -1.30847 -1.46197 0
M  V30 6568 O 626.123 -0.639609 -2.06732 0
M  V30 6569 C 626.718 -3.38414 -0.161703 0
M  V30 6570 C 625.277 -3.71902 -0.580144 0
M  V30 6571 C 624.424 -2.76095 0.258218 0
M  V30 6572 H 627.375 -1.46647 0.606665 0
M  V30 6573 H 627.396 -3.67638 -0.980936 0
M  V30 6574 H 626.908 -3.78893 0.840333 0
M  V30 6575 H 625.009 -3.36992 -1.58957 0
M  V30 6576 H 625.122 -4.77902 -0.338663 0
M  V30 6577 H 623.486 -2.53195 -0.276432 0
M  V30 6578 H 624.269 -3.19411 1.25822 0
M  V30 6579 N 626.714 -0.118576 -1.57153 0
M  V30 6580 C 627.96 0.540326 -1.95469 0
M  V30 6581 C 628.293 1.66356 -1.00196 0
M  V30 6582 O 627.568 1.94461 -0.039104 0
M  V30 6583 C 627.851 1.07342 -3.43729 0
M  V30 6584 C 627.704 -0.0463732 -4.49776 0
M  V30 6585 C 629.023 1.96442 -3.93826 0
M  V30 6586 H 626.142 0.19494 -0.710751 0
M  V30 6587 H 628.784 -0.19405 -1.89006 0
M  V30 6588 H 626.934 1.69925 -3.49368 0
M  V30 6589 H 628.606 -0.681648 -4.56236 0
M  V30 6590 H 626.849 -0.709574 -4.27957 0
M  V30 6591 H 627.52 0.367856 -5.50773 0
M  V30 6592 H 629.996 1.43731 -3.90488 0
M  V30 6593 H 628.872 2.3066 -4.98084 0
M  V30 6594 H 629.133 2.89077 -3.34495 0
M  V30 6595 N 628.193 1.56834 0.155195 0
M  V30 6596 C 629.123 2.00678 1.19376 0
M  V30 6597 C 630.104 0.884973 1.45266 0
M  V30 6598 O 631.289 1.1522 1.56326 0
M  V30 6599 C 628.419 2.38042 2.5289 0
M  V30 6600 C 627.373 3.53332 2.41538 0
M  V30 6601 C 626.699 3.76485 3.79688 0
M  V30 6602 C 627.999 4.86265 1.9064 0
M  V30 6603 H 629.693 2.87688 0.829232 0
M  V30 6604 H 627.239 1.38407 0.397445 0
M  V30 6605 H 629.192 2.67314 3.25763 0
M  V30 6606 H 627.916 1.4796 2.91162 0
M  V30 6607 H 626.575 3.24213 1.71117 0
M  V30 6608 H 626.223 2.83667 4.15382 0
M  V30 6609 H 625.923 4.54068 3.72956 0
M  V30 6610 H 627.447 4.08174 4.54122 0
M  V30 6611 H 628.861 5.14308 2.53299 0
M  V30 6612 H 627.258 5.67597 1.94818 0
M  V30 6613 H 628.328 4.77184 0.861596 0
M  V30 6614 N 629.671 -0.424282 1.51781 0
M  V30 6615 C 630.917 -1.17434 1.6534 0
M  V30 6616 C 631.25 -1.90549 0.374806 0
M  V30 6617 O 630.525 -1.84145 -0.626179 0
M  V30 6618 C 630.808 -2.18093 2.86544 0
M  V30 6619 C 630.661 -1.48975 4.24413 0
M  V30 6620 C 631.98 -3.18934 3.03264 0
M  V30 6621 H 629.099 -0.425566 0.601716 0
M  V30 6622 H 631.741 -0.461921 1.84299 0
M  V30 6623 H 629.891 -2.78849 2.7051 0
M  V30 6624 H 631.563 -0.914551 4.52143 0
M  V30 6625 H 629.806 -0.791893 4.26511 0
M  V30 6626 H 630.477 -2.22347 5.05238 0
M  V30 6627 H 632.953 -2.68243 3.18096 0
M  V30 6628 H 631.829 -3.86645 3.89611 0
M  V30 6629 H 632.09 -3.85793 2.15908 0
M  V30 6630 N 631.149 -1.42148 -0.680565 0
M  V30 6631 C 632.565 -1.24947 -0.992995 0
M  V30 6632 C 632.765 -0.149527 -2.00944 0
M  V30 6633 O 631.821 0.481145 -2.47873 0
M  V30 6634 C 633.134 -2.60426 -1.5033 0
M  V30 6635 C 634.682 -2.67733 -1.62137 0
M  V30 6636 C 635.157 -4.03564 -2.16565 0
M  V30 6637 N 636.648 -4.05488 -2.23905 0
M  V30 6638 C 637.383 -5.07401 -2.67081 0
M  V30 6639 N 636.879 -6.19698 -3.09751 0
M  V30 6640 N 638.672 -4.94758 -2.66778 0
M  V30 6641 H 630.823 -2.12399 -0.0074788 0
M  V30 6642 H 633.086 -0.94571 -0.0658529 0
M  V30 6643 H 632.792 -3.41743 -0.830947 0
M  V30 6644 H 632.666 -2.83949 -2.483 0
M  V30 6645 H 635.053 -1.86765 -2.2848 0
M  V30 6646 H 635.134 -2.48004 -0.626713 0
M  V30 6647 H 634.778 -4.84987 -1.50833 0
M  V30 6648 H 634.708 -4.20641 -3.1681 0
M  V30 6649 H 637.199 -3.24415 -1.93812 0
M  V30 6650 H 637.512 -6.93318 -3.41365 0
M  V30 6651 H 635.857 -6.23212 -3.07623 0
M  V30 6652 H 639.048 -4.06105 -2.32801 0
M  V30 6653 H 639.221 -5.74317 -3.00107 0
M  V30 6654 N 632.627 0.916307 -1.28225 0
M  V30 6655 C 633.59 1.99996 -1.11957 0
M  V30 6656 C 634.59 1.60688 -0.0600152 0
M  V30 6657 O 635.78 1.71499 -0.30558 0
M  V30 6658 C 632.912 3.33458 -0.708411 0
M  V30 6659 H 634.105 2.15858 -2.08196 0
M  V30 6660 H 631.658 1.09863 -1.11175 0
M  V30 6661 H 632.393 3.23297 0.254859 0
M  V30 6662 H 632.178 3.63349 -1.47377 0
M  V30 6663 H 633.668 4.13014 -0.617164 0
M  V30 6664 N 634.105 1.10431 1.1244 0
M  V30 6665 C 635.333 0.868872 1.87772 0
M  V30 6666 C 635.748 -0.580645 1.7965 0
M  V30 6667 O 635.105 -1.40031 1.17036 0
M  V30 6668 C 635.156 1.30855 3.36986 0
M  V30 6669 O 634.877 2.70123 3.44914 0
M  V30 6670 C 636.378 1.107 4.29256 0
M  V30 6671 H 633.598 0.311868 0.59412 0
M  V30 6672 H 636.142 1.46897 1.42273 0
M  V30 6673 H 634.297 0.752126 3.80029 0
M  V30 6674 H 634.711 2.88923 4.37748 0
M  V30 6675 H 636.185 1.46378 5.32238 0
M  V30 6676 H 636.662 0.0456228 4.39176 0
M  V30 6677 H 637.268 1.64988 3.91994 0
M  V30 6678 N 635.583 -1.29855 0.893053 0
M  V30 6679 C 636.808 -2.00512 0.530066 0
M  V30 6680 C 637.233 -1.66446 -0.876199 0
M  V30 6681 O 636.591 -0.885446 -1.58207 0
M  V30 6682 C 636.639 -3.53308 0.721505 0
M  V30 6683 O 635.743 -4.11764 -0.228994 0
M  V30 6684 H 635.084 -0.630617 0.207891 0
M  V30 6685 H 637.614 -1.6551 1.20282 0
M  V30 6686 H 637.624 -4.03206 0.623599 0
M  V30 6687 H 636.299 -3.77439 1.74678 0
M  V30 6688 H 634.876 -3.72805 -0.0841034 0
M  V30 6689 N 637.061 -0.65484 -1.43351 0
M  V30 6690 C 638.477 -0.32255 -1.56307 0
M  V30 6691 C 638.677 1.17324 -1.63821 0
M  V30 6692 O 637.733 1.95813 -1.59417 0
M  V30 6693 C 639.046 -1.03533 -2.82314 0
M  V30 6694 C 640.594 -1.01574 -2.9606 0
M  V30 6695 C 641.069 -1.70945 -4.24902 0
M  V30 6696 N 642.56 -1.67716 -4.3177 0
M  V30 6697 C 643.295 -2.18265 -5.30234 0
M  V30 6698 N 642.791 -2.7711 -6.34966 0
M  V30 6699 N 644.584 -2.08756 -5.21898 0
M  V30 6700 H 636.735 -1.62549 -1.36717 0
M  V30 6701 H 638.998 -0.683676 -0.656727 0
M  V30 6702 H 638.704 -2.09045 -2.8283 0
M  V30 6703 H 638.578 -0.587913 -3.7259 0
M  V30 6704 H 640.965 0.0309834 -2.95084 0
M  V30 6705 H 641.046 -1.50186 -2.07069 0
M  V30 6706 H 640.69 -2.75574 -4.26639 0
M  V30 6707 H 640.62 -1.19797 -5.12793 0
M  V30 6708 H 643.111 -1.24777 -3.56706 0
M  V30 6709 H 643.424 -3.13353 -7.06421 0
M  V30 6710 H 641.769 -2.81171 -6.35585 0
M  V30 6711 H 644.96 -1.62488 -4.38994 0
M  V30 6712 H 645.133 -2.48459 -5.98475 0
M  V30 6713 N 638.539 1.52521 -0.396863 0
M  V30 6714 C 639.779 2.03583 0.182578 0
M  V30 6715 C 640.143 1.2766 1.43412 0
M  V30 6716 O 641.344 1.68884 2.09121 0
M  V30 6717 C 639.615 3.54724 0.436519 0
M  V30 6718 S 641.174 4.27598 0.985163 0
M  V30 6719 H 637.992 0.709186 0.0507529 0
M  V30 6720 H 640.594 1.87693 -0.546955 0
M  V30 6721 H 639.298 4.07567 -0.481343 0
M  V30 6722 H 638.829 3.74834 1.19427 0
M  V30 6723 H 640.844 4.41393 2.26686 0
M  V30 6724 N 640.017 0.126909 1.57088 0
M  V30 6725 C 640.947 -0.816847 2.18746 0
M  V30 6726 C 641.928 -1.27161 1.12979 0
M  V30 6727 O 643.113 -1.33279 1.41246 0
M  V30 6728 C 640.243 -2.06398 2.79315 0
M  V30 6729 C 639.197 -1.74673 3.90735 0
M  V30 6730 C 638.523 -3.06482 4.38147 0
M  V30 6731 C 639.823 -1.0089 5.12463 0
M  V30 6732 H 641.517 -0.303032 2.97863 0
M  V30 6733 H 639.063 -0.144314 1.43275 0
M  V30 6734 H 641.016 -2.72885 3.2111 0
M  V30 6735 H 639.74 -2.60118 1.975 0
M  V30 6736 H 638.399 -1.10572 3.49527 0
M  V30 6737 H 638.047 -3.58152 3.5318 0
M  V30 6738 H 637.747 -2.86025 5.13287 0
M  V30 6739 H 639.271 -3.74073 4.82599 0
M  V30 6740 H 640.685 -1.57546 5.51228 0
M  V30 6741 H 639.082 -0.905006 5.93237 0
M  V30 6742 H 640.152 0.00297335 4.849 0
M  V30 6743 N 641.495 -1.56914 -0.146875 0
M  V30 6744 C 642.427 -1.94878 -1.20645 0
M  V30 6745 C 643.44 -0.844633 -1.39175 0
M  V30 6746 O 644.629 -1.12304 -1.38744 0
M  V30 6747 C 641.729 -2.20769 -2.57127 0
M  V30 6748 C 640.902 -3.52053 -2.59572 0
M  V30 6749 C 639.961 -3.66482 -3.77594 0
M  V30 6750 O 638.987 -4.38873 -3.62462 0
M  V30 6751 N 640.189 -3.03156 -4.95052 0
M  V30 6752 H 642.954 -2.86374 -0.883757 0
M  V30 6753 H 640.515 -1.58366 -0.336436 0
M  V30 6754 H 642.507 -2.27664 -3.34591 0
M  V30 6755 H 641.077 -1.35538 -2.81688 0
M  V30 6756 H 640.297 -3.56598 -1.68023 0
M  V30 6757 H 641.585 -4.38396 -2.58238 0
M  V30 6758 H 640.983 -2.44258 -5.10249 0
M  V30 6759 H 639.54 -3.15611 -5.70292 0
M  V30 6760 N 642.974 0.416227 -1.52004 0
M  V30 6761 C 643.904 1.51365 -1.77795 0
M  V30 6762 C 644.885 1.58059 -0.628601 0
M  V30 6763 O 646.07 1.73447 -0.873478 0
M  V30 6764 C 643.2 2.89256 -1.92219 0
M  V30 6765 C 642.154 2.97415 -3.0778 0
M  V30 6766 C 641.48 4.37492 -3.07417 0
M  V30 6767 C 642.78 2.69551 -4.47369 0
M  V30 6768 H 644.474 1.30033 -2.69688 0
M  V30 6769 H 642.02 0.624112 -1.29772 0
M  V30 6770 H 643.973 3.66008 -2.08845 0
M  V30 6771 H 642.697 3.11866 -0.969917 0
M  V30 6772 H 641.356 2.23107 -2.90893 0
M  V30 6773 H 641.004 4.571 -2.09925 0
M  V30 6774 H 640.704 4.43877 -3.85029 0
M  V30 6775 H 642.228 5.16188 -3.26162 0
M  V30 6776 H 643.642 3.36028 -4.64497 0
M  V30 6777 H 642.039 2.87321 -5.26846 0
M  V30 6778 H 643.109 1.65029 -4.55953 0
M  V30 6779 N 644.452 1.42507 0.673017 0
M  V30 6780 C 645.677 1.4668 1.46627 0
M  V30 6781 C 646.102 0.080066 1.8793 0
M  V30 6782 O 645.46 -0.921879 1.56112 0
M  V30 6783 C 645.508 2.40091 2.69051 0
M  V30 6784 O 644.612 1.8735 3.67387 0
M  V30 6785 H 643.953 0.496908 0.44043 0
M  V30 6786 H 646.483 1.87215 0.825334 0
M  V30 6787 H 646.493 2.56731 3.17101 0
M  V30 6788 H 645.168 3.4084 2.3833 0
M  V30 6789 H 643.745 1.80274 3.26429 0
M  V30 6790 N 645.93 -0.909495 1.28709 0
M  V30 6791 C 647.341 -1.47419 1.14563 0
M  V30 6792 C 647.692 -1.94432 -0.262832 0
M  V30 6793 O 646.817 -1.82842 -1.15748 0
M  V30 6794 C 647.412 -2.67933 2.07358 0
M  V30 6795 C 645.971 -3.20568 1.97264 0
M  V30 6796 C 645.118 -1.93269 1.98852 0
M  V30 6797 H 648.069 -0.721787 1.41336 0
M  V30 6798 H 648.09 -3.43339 1.64007 0
M  V30 6799 H 647.602 -2.33685 3.09859 0
M  V30 6800 H 645.703 -3.59531 0.978157 0
M  V30 6801 H 645.816 -3.85529 2.84436 0
M  V30 6802 H 644.18 -2.10553 1.43317 0
M  V30 6803 H 644.963 -1.61312 3.0304 0
M  V30 6804 N 647.408 -1.11026 -1.11852 0
M  V30 6805 C 648.819 -0.873203 -1.65021 0
M  V30 6806 C 649.17 0.595364 -1.86949 0
M  V30 6807 O 648.295 1.45645 -1.60051 0
M  V30 6808 C 648.89 -1.57859 -2.99777 0
M  V30 6809 C 647.449 -1.38807 -3.49871 0
M  V30 6810 C 646.596 -1.62403 -2.24768 0
M  V30 6811 H 649.547 -1.26712 -0.955503 0
M  V30 6812 H 649.568 -1.02111 -3.66543 0
M  V30 6813 H 649.08 -2.6474 -2.83786 0
M  V30 6814 H 647.181 -0.341163 -3.71035 0
M  V30 6815 H 647.294 -2.13421 -4.28938 0
M  V30 6816 H 645.658 -1.04714 -2.32179 0
M  V30 6817 H 646.441 -2.70549 -2.11324 0
M  V30 6818 N 648.886 1.2938 -0.899927 0
M  V30 6819 C 650.111 2.00228 -0.540692 0
M  V30 6820 C 650.536 1.66909 0.867359 0
M  V30 6821 O 649.894 0.893824 1.57735 0
M  V30 6822 C 649.942 3.52921 -0.740232 0
M  V30 6823 O 649.046 4.11879 0.207154 0
M  V30 6824 H 648.387 0.629505 -0.211233 0
M  V30 6825 H 650.917 1.6487 -1.21158 0
M  V30 6826 H 650.927 4.0287 -0.644973 0
M  V30 6827 H 649.602 3.76508 -1.76677 0
M  V30 6828 H 648.179 3.72845 0.0643315 0
M  V30 6829 N 650.364 0.662433 1.43002 0
M  V30 6830 C 651.296 -0.062326 2.29115 0
M  V30 6831 C 652.309 -0.777926 1.43011 0
M  V30 6832 O 653.498 -0.634146 1.66856 0
M  V30 6833 C 650.598 -1.11163 3.2015 0
M  V30 6834 C 649.771 -0.472327 4.34842 0
M  V30 6835 C 648.83 -1.41974 5.06685 0
M  V30 6836 O 647.856 -0.924795 5.61637 0
M  V30 6837 N 649.058 -2.75345 5.11043 0
M  V30 6838 H 651.823 0.676838 2.91957 0
M  V30 6839 H 649.384 0.505907 1.53793 0
M  V30 6840 H 651.376 -1.74643 3.65078 0
M  V30 6841 H 649.946 -1.75266 2.58845 0
M  V30 6842 H 649.166 0.341751 3.92716 0
M  V30 6843 H 650.454 -0.0264381 5.08793 0
M  V30 6844 H 649.852 -3.18108 4.67786 0
M  V30 6845 H 648.409 -3.34105 5.59658 0
M  V30 6846 N 651.842 -1.52309 0.404946 0
M  V30 6847 C 653.067 -2.06666 -0.1743 0
M  V30 6848 C 653.492 -1.27341 -1.38441 0
M  V30 6849 O 652.85 -0.302539 -1.78758 0
M  V30 6850 C 652.898 -3.57014 -0.507262 0
M  V30 6851 O 652.002 -3.80144 -1.59889 0
M  V30 6852 H 651.343 -0.663807 -0.0160273 0
M  V30 6853 H 653.873 -1.96297 0.576937 0
M  V30 6854 H 653.883 -4.00724 -0.767098 0
M  V30 6855 H 652.558 -4.14184 0.377368 0
M  V30 6856 H 651.135 -3.48316 -1.33155 0
M  V30 6857 N 653.32 -0.135238 -1.57019 0
M  V30 6858 C 654.267 0.808908 -2.1616 0
M  V30 6859 C 655.237 1.25234 -1.09113 0
M  V30 6860 O 656.422 1.32697 -1.37099 0
M  V30 6861 C 653.562 2.04729 -2.77813 0
M  V30 6862 C 652.675 1.65074 -3.99218 0
M  V30 6863 C 651.81 2.84002 -4.48906 0
M  V30 6864 C 650.849 2.40663 -5.62803 0
M  V30 6865 N 649.986 3.5256 -6.07162 0
M  V30 6866 H 654.826 0.297751 -2.96509 0
M  V30 6867 H 652.363 0.135264 -1.46477 0
M  V30 6868 H 654.321 2.7731 -3.11697 0
M  V30 6869 H 652.951 2.53275 -2.00128 0
M  V30 6870 H 652.003 0.823029 -3.7139 0
M  V30 6871 H 653.315 1.29236 -4.81767 0
M  V30 6872 H 652.469 3.64788 -4.84783 0
M  V30 6873 H 651.208 3.23076 -3.65339 0
M  V30 6874 H 650.213 1.58314 -5.26514 0
M  V30 6875 H 651.438 2.02687 -6.48147 0
M  V30 6876 H 649.384 3.91278 -5.26534 0
M  V30 6877 H 649.301 3.20699 -6.84608 0
M  V30 6878 H 650.569 4.33738 -6.47682 0
M  V30 6879 N 654.798 1.5699 0.138552 0
M  V30 6880 C 655.728 2.01933 1.17241 0
M  V30 6881 C 656.709 0.90033 1.44319 0
M  V30 6882 O 657.894 1.16872 1.55095 0
M  V30 6883 C 655.024 2.40711 2.50351 0
M  V30 6884 C 653.978 3.55874 2.37776 0
M  V30 6885 C 653.304 3.80491 3.75674 0
M  V30 6886 C 654.604 4.8826 1.85472 0
M  V30 6887 H 656.298 2.88551 0.798672 0
M  V30 6888 H 653.844 1.3882 0.382743 0
M  V30 6889 H 655.797 2.70754 3.22909 0
M  V30 6890 H 654.521 1.5104 2.89576 0
M  V30 6891 H 653.18 3.2601 1.67669 0
M  V30 6892 H 652.828 2.88057 4.12349 0
M  V30 6893 H 652.528 4.57998 3.68119 0
M  V30 6894 H 654.052 4.12967 4.49767 0
M  V30 6895 H 655.466 5.16965 2.4783 0
M  V30 6896 H 653.863 5.69631 1.88787 0
M  V30 6897 H 654.933 4.78071 0.810935 0
M  V30 6898 N 656.276 -0.40816 1.52223 0
M  V30 6899 C 657.239 -1.48 1.7501 0
M  V30 6900 C 658.239 -1.48367 0.619996 0
M  V30 6901 O 659.429 -1.49874 0.887881 0
M  V30 6902 C 656.561 -2.87403 1.83336 0
M  V30 6903 H 657.754 -1.29086 2.70697 0
M  V30 6904 H 655.307 -0.638715 1.42654 0
M  V30 6905 H 656.042 -3.11686 0.895677 0
M  V30 6906 H 655.827 -2.8854 2.65494 0
M  V30 6907 H 657.317 -3.65103 2.02705 0
M  V30 6908 N 657.755 -1.42862 -0.66545 0
M  V30 6909 C 658.687 -1.43026 -1.79098 0
M  V30 6910 C 659.7 -0.32803 -1.59461 0
M  V30 6911 O 660.889 -0.591709 -1.68407 0
M  V30 6912 C 657.989 -1.21566 -3.16346 0
M  V30 6913 C 657.162 -2.44399 -3.62751 0
M  V30 6914 C 656.221 -2.18344 -4.78761 0
M  V30 6915 O 655.247 -2.91611 -4.88827 0
M  V30 6916 N 656.449 -1.1924 -5.68122 0
M  V30 6917 H 659.214 -2.40045 -1.79439 0
M  V30 6918 H 656.775 -1.37861 -0.848872 0
M  V30 6919 H 658.767 -1.02037 -3.91625 0
M  V30 6920 H 657.337 -0.330368 -3.10849 0
M  V30 6921 H 656.557 -2.79433 -2.78048 0
M  V30 6922 H 657.845 -3.26173 -3.90498 0
M  V30 6923 H 657.243 -0.586603 -5.6265 0
M  V30 6924 H 655.8 -1.05698 -6.43173 0
M  V30 6925 N 659.233 0.902656 -1.29189 0
M  V30 6926 C 660.649 1.18296 -1.07137 0
M  V30 6927 C 660.849 2.00701 0.179223 0
M  V30 6928 O 659.905 2.3675 0.877812 0
M  V30 6929 C 661.218 1.90677 -2.32514 0
M  V30 6930 C 662.766 2.03515 -2.37804 0
M  V30 6931 C 663.241 2.79307 -3.62976 0
M  V30 6932 N 664.732 2.86862 -3.63681 0
M  V30 6933 C 665.467 3.46035 -4.57217 0
M  V30 6934 N 664.963 4.06399 -5.61081 0
M  V30 6935 N 666.756 3.43681 -4.44792 0
M  V30 6936 H 658.907 0.352765 -2.0945 0
M  V30 6937 H 661.17 0.21876 -0.922414 0
M  V30 6938 H 660.876 1.3756 -3.23682 0
M  V30 6939 H 660.75 2.91169 -2.39793 0
M  V30 6940 H 663.137 2.55809 -1.47125 0
M  V30 6941 H 663.218 1.02166 -2.34512 0
M  V30 6942 H 662.862 2.2769 -4.54004 0
M  V30 6943 H 662.792 3.80995 -3.63525 0
M  V30 6944 H 665.283 2.43987 -2.88581 0
M  V30 6945 H 665.596 4.49564 -6.2858 0
M  V30 6946 H 663.941 4.0487 -5.64894 0
M  V30 6947 H 667.132 2.9574 -3.62843 0
M  V30 6948 H 667.305 3.89503 -5.17872 0
M  V30 6949 N 660.711 1.11618 1.11262 0
M  V30 6950 C 662.127 0.850468 1.35053 0
M  V30 6951 C 662.327 -0.523868 1.94571 0
M  V30 6952 O 661.383 -1.2743 2.17986 0
M  V30 6953 C 662.696 1.96005 2.28041 0
M  V30 6954 C 664.244 1.98993 2.416 0
M  V30 6955 C 664.719 3.0916 3.37911 0
M  V30 6956 N 666.21 3.08547 3.45475 0
M  V30 6957 C 666.945 3.9043 4.19943 0
M  V30 6958 N 666.441 4.8228 4.97371 0
M  V30 6959 N 668.234 3.786 4.15474 0
M  V30 6960 H 660.385 2.00184 0.709932 0
M  V30 6961 H 662.648 0.870635 0.375099 0
M  V30 6962 H 662.354 2.9499 1.91503 0
M  V30 6963 H 662.228 1.85782 3.28275 0
M  V30 6964 H 664.615 1.00633 2.77411 0
M  V30 6965 H 664.696 2.13292 1.4121 0
M  V30 6966 H 664.34 4.07748 3.02827 0
M  V30 6967 H 664.27 2.92102 4.3816 0
M  V30 6968 H 666.761 2.42 2.90249 0
M  V30 6969 H 667.074 5.41289 5.51567 0
M  V30 6970 H 665.419 4.863 4.96525 0
M  V30 6971 H 668.61 3.06185 3.54074 0
M  V30 6972 H 668.783 4.42647 4.73253 0
M  V30 6973 N 662.189 -1.289 0.906776 0
M  V30 6974 C 663.121 -2.26556 0.347159 0
M  V30 6975 C 664.134 -1.54589 -0.51049 0
M  V30 6976 O 665.323 -1.75489 -0.326501 0
M  V30 6977 C 662.423 -3.3484 -0.523024 0
M  V30 6978 C 661.596 -4.36296 0.310515 0
M  V30 6979 C 660.655 -5.23879 -0.493634 0
M  V30 6980 O 659.681 -5.69127 0.0913569 0
M  V30 6981 N 660.883 -5.51946 -1.7982 0
M  V30 6982 H 663.648 -2.75212 1.18652 0
M  V30 6983 H 661.209 -1.42309 0.771996 0
M  V30 6984 H 663.201 -3.90366 -1.06756 0
M  V30 6985 H 661.771 -2.85946 -1.26309 0
M  V30 6986 H 660.991 -3.80331 1.03644 0
M  V30 6987 H 662.279 -5.01113 0.881106 0
M  V30 6988 H 661.677 -5.17006 -2.2961 0
M  V30 6989 H 660.234 -6.10258 -2.28971 0
M  V30 6990 N 663.667 -0.670007 -1.42649 0
M  V30 6991 C 665.083 -0.33911 -1.55956 0
M  V30 6992 C 665.283 1.1558 -1.65056 0
M  V30 6993 O 664.339 1.94111 -1.61485 0
M  V30 6994 C 665.652 -1.06522 -2.812 0
M  V30 6995 C 667.2 -1.04708 -2.94966 0
M  V30 6996 C 667.675 -1.75442 -4.23065 0
M  V30 6997 N 669.166 -1.72286 -4.29967 0
M  V30 6998 C 669.901 -2.23877 -5.27889 0
M  V30 6999 N 669.397 -2.83829 -6.31991 0
M  V30 7000 N 671.19 -2.14279 -5.19654 0
M  V30 7001 H 663.341 -1.6399 -1.34986 0
M  V30 7002 H 665.604 -0.690603 -0.649439 0
M  V30 7003 H 665.31 -2.12033 -2.80597 0
M  V30 7004 H 665.184 -0.627398 -3.71946 0
M  V30 7005 H 667.571 -0.000315966 -2.951 0
M  V30 7006 H 667.652 -1.52374 -2.05465 0
M  V30 7007 H 667.296 -2.80084 -4.23693 0
M  V30 7008 H 667.226 -1.25229 -5.11493 0
M  V30 7009 H 669.717 -1.28554 -3.55362 0
M  V30 7010 H 670.03 -3.20827 -7.03057 0
M  V30 7011 H 668.375 -2.87896 -6.32567 0
M  V30 7012 H 671.566 -1.67135 -4.37245 0
M  V30 7013 H 671.739 -2.54792 -5.95806 0
M  V30 7014 N 665.145 1.52092 -0.413018 0
M  V30 7015 C 666.108 2.25706 0.398687 0
M  V30 7016 C 667.108 1.28221 0.970368 0
M  V30 7017 O 668.298 1.52131 0.848635 0
M  V30 7018 C 665.43 3.03029 1.5616 0
M  V30 7019 H 666.623 2.98888 -0.246131 0
M  V30 7020 H 664.176 1.5542 -0.165622 0
M  V30 7021 H 664.911 2.34205 2.24317 0
M  V30 7022 H 664.696 3.74606 1.15812 0
M  V30 7023 H 666.186 3.58857 2.13569 0
M  V30 7024 N 666.623 0.143563 1.56945 0
M  V30 7025 C 667.848 -0.518701 2.00809 0
M  V30 7026 C 668.273 -1.5785 1.02298 0
M  V30 7027 O 667.631 -1.813 -0.0017839 0
M  V30 7028 C 667.679 -1.09929 3.43436 0
M  V30 7029 O 666.783 -2.21425 3.47915 0
M  V30 7030 H 666.124 -0.127215 0.6517 0
M  V30 7031 H 668.654 0.239283 2.03196 0
M  V30 7032 H 668.664 -1.4288 3.82164 0
M  V30 7033 H 667.339 -0.323162 4.14643 0
M  V30 7034 H 665.916 -1.89728 3.21026 0
M  V30 7035 N 668.101 -1.57061 -0.130224 0
M  V30 7036 C 669.031 -2.02552 -1.16168 0
M  V30 7037 C 670.012 -0.907971 -1.4384 0
M  V30 7038 O 671.197 -1.17693 -1.54473 0
M  V30 7039 C 668.327 -2.42035 -2.49071 0
M  V30 7040 C 667.281 -3.5713 -2.35886 0
M  V30 7041 C 666.607 -3.82478 -3.7365 0
M  V30 7042 C 667.907 -4.89236 -1.8288 0
M  V30 7043 H 669.601 -2.8897 -0.783359 0
M  V30 7044 H 667.147 -1.39021 -0.375376 0
M  V30 7045 H 669.1 -2.72462 -3.21469 0
M  V30 7046 H 667.824 -1.52573 -2.88771 0
M  V30 7047 H 666.483 -3.26895 -1.65938 0
M  V30 7048 H 666.131 -2.9024 -4.10816 0
M  V30 7049 H 665.831 -4.59944 -3.65685 0
M  V30 7050 H 667.355 -4.15347 -4.47571 0
M  V30 7051 H 668.769 -5.18272 -2.45085 0
M  V30 7052 H 667.166 -5.70624 -1.85763 0
M  V30 7053 H 668.236 -4.78494 -0.785571 0
M  V30 7054 N 669.579 0.400081 -1.52437 0
M  V30 7055 C 670.804 1.17221 -1.71096 0
M  V30 7056 C 671.229 1.83269 -0.423565 0
M  V30 7057 O 670.587 1.70378 0.619751 0
M  V30 7058 C 670.635 2.20425 -2.85386 0
M  V30 7059 O 669.739 3.26769 -2.51586 0
M  V30 7060 H 669.08 0.341766 -0.569291 0
M  V30 7061 H 671.61 0.467772 -1.99181 0
M  V30 7062 H 671.62 2.64605 -3.10561 0
M  V30 7063 H 670.295 1.71737 -3.78786 0
M  V30 7064 H 668.872 2.87804 -2.37114 0
M  V30 7065 N 671.057 1.43213 0.657864 0
M  V30 7066 C 672.282 1.48227 1.45064 0
M  V30 7067 C 672.707 0.0999939 1.87834 0
M  V30 7068 O 672.065 -0.905269 1.57081 0
M  V30 7069 C 672.113 2.42931 2.6649 0
M  V30 7070 O 671.217 1.91237 3.6538 0
M  V30 7071 H 670.558 0.501551 0.435135 0
M  V30 7072 H 673.088 1.8808 0.805431 0
M  V30 7073 H 673.098 2.6008 3.1436 0
M  V30 7074 H 671.773 3.43348 2.34701 0
M  V30 7075 H 670.35 1.83726 3.24498 0
M  V30 7076 N 672.536 -0.895792 1.29666 0
M  V30 7077 C 673.499 -1.98189 1.15124 0
M  V30 7078 C 674.499 -1.60572 0.0855717 0
M  V30 7079 O 675.689 -1.70991 0.332826 0
M  V30 7080 C 672.821 -3.32289 0.761372 0
M  V30 7081 H 674.014 -2.12518 2.11603 0
M  V30 7082 H 671.567 -1.0808 1.12908 0
M  V30 7083 H 672.302 -3.23662 -0.203393 0
M  V30 7084 H 672.087 -3.60958 1.53139 0
M  V30 7085 H 673.577 -4.1198 0.682792 0
M  V30 7086 N 674.014 -1.12206 -1.10668 0
M  V30 7087 C 675.425 -0.890657 -1.64086 0
M  V30 7088 C 675.776 0.575502 -1.8757 0
M  V30 7089 O 674.901 1.4394 -1.61587 0
M  V30 7090 C 675.496 -1.61029 -2.98085 0
M  V30 7091 C 674.055 -1.4251 -3.48379 0
M  V30 7092 C 673.202 -1.64778 -2.23033 0
M  V30 7093 H 676.153 -1.27718 -0.94201 0
M  V30 7094 H 676.174 -1.05993 -3.65439 0
M  V30 7095 H 675.686 -2.67735 -2.80962 0
M  V30 7096 H 673.787 -0.380497 -3.70652 0
M  V30 7097 H 673.9 -2.17959 -4.26651 0
M  V30 7098 H 672.264 -1.07171 -2.31055 0
M  V30 7099 H 673.047 -2.72776 -2.08443 0
M  V30 7100 N 675.492 1.28418 -0.913599 0
M  V30 7101 C 676.738 1.9527 -0.547484 0
M  V30 7102 C 677.071 1.71745 0.906486 0
M  V30 7103 O 676.346 1.03834 1.64465 0
M  V30 7104 C 676.629 3.49748 -0.857205 0
M  V30 7105 C 676.482 3.82675 -2.3639 0
M  V30 7106 C 677.801 4.3868 -0.353258 0
M  V30 7107 H 674.92 0.709236 -0.200381 0
M  V30 7108 H 677.562 1.51789 -1.14281 0
M  V30 7109 H 675.712 3.86915 -0.350548 0
M  V30 7110 H 677.384 3.55378 -2.94116 0
M  V30 7111 H 675.627 3.29724 -2.81894 0
M  V30 7112 H 676.298 4.90547 -2.53115 0
M  V30 7113 H 678.774 4.08584 -0.787288 0
M  V30 7114 H 677.65 5.45621 -0.599049 0
M  V30 7115 H 677.911 4.35753 0.746413 0
M  V30 7116 N 676.97 0.677563 1.42291 0
M  V30 7117 C 678.216 0.201272 2.01799 0
M  V30 7118 C 678.549 -1.19004 1.53465 0
M  V30 7119 O 677.824 -1.79953 0.738039 0
M  V30 7120 C 678.107 0.238968 3.59306 0
M  V30 7121 C 677.96 1.66594 4.17812 0
M  V30 7122 C 679.279 -0.411287 4.38174 0
M  V30 7123 H 676.398 0.0746114 0.733214 0
M  V30 7124 H 679.04 0.862872 1.69276 0
M  V30 7125 H 677.19 -0.324368 3.87144 0
M  V30 7126 H 678.862 2.28173 4.00917 0
M  V30 7127 H 677.105 2.20576 3.73536 0
M  V30 7128 H 677.776 1.64398 5.26951 0
M  V30 7129 H 680.252 0.0682804 4.16044 0
M  V30 7130 H 679.128 -0.354286 5.47755 0
M  V30 7131 H 679.389 -1.4893 4.1626 0
M  V30 7132 N 678.448 -1.51871 0.421078 0
M  V30 7133 C 679.378 -2.30231 -0.389363 0
M  V30 7134 C 680.359 -1.34946 -1.03555 0
M  V30 7135 O 681.544 -1.63859 -1.04229 0
M  V30 7136 C 678.674 -3.13247 -1.49979 0
M  V30 7137 C 677.628 -4.16677 -0.977966 0
M  V30 7138 C 676.954 -4.88112 -2.1829 0
M  V30 7139 C 678.254 -5.22295 -0.0236775 0
M  V30 7140 H 679.948 -2.98229 0.264524 0
M  V30 7141 H 677.494 -1.43424 0.12866 0
M  V30 7142 H 679.447 -3.66838 -2.07383 0
M  V30 7143 H 678.171 -2.4304 -2.18173 0
M  V30 7144 H 676.83 -3.64114 -0.426245 0
M  V30 7145 H 676.478 -4.14423 -2.85066 0
M  V30 7146 H 676.178 -5.58041 -1.84021 0
M  V30 7147 H 677.702 -5.44521 -2.76278 0
M  V30 7148 H 679.116 -5.71055 -0.506899 0
M  V30 7149 H 677.513 -5.99656 0.230782 0
M  V30 7150 H 678.583 -4.76131 0.917999 0
M  V30 7151 N 679.926 -0.151884 -1.56866 0
M  V30 7152 C 681.172 0.498742 -1.96572 0
M  V30 7153 C 681.505 1.64194 -1.03702 0
M  V30 7154 O 680.78 1.94334 -0.0803432 0
M  V30 7155 C 681.063 1.00027 -3.45929 0
M  V30 7156 C 680.916 -0.141767 -4.49577 0
M  V30 7157 C 682.235 1.88044 -3.97904 0
M  V30 7158 H 679.354 0.17982 -0.714726 0
M  V30 7159 H 681.996 -0.234097 -1.88552 0
M  V30 7160 H 680.146 1.62476 -3.52894 0
M  V30 7161 H 681.818 -0.778269 -4.54687 0
M  V30 7162 H 680.061 -0.80019 -4.26356 0
M  V30 7163 H 680.732 0.250947 -5.51429 0
M  V30 7164 H 683.208 1.35416 -3.93449 0
M  V30 7165 H 682.084 2.20043 -5.02864 0
M  V30 7166 H 682.345 2.81916 -3.40552 0
M  V30 7167 N 681.404 1.57128 0.121893 0
M  V30 7168 C 682.652 1.84335 0.828548 0
M  V30 7169 C 682.973 0.736632 1.80551 0
M  V30 7170 O 682.243 -0.23962 1.94429 0
M  V30 7171 H 680.823 0.680108 0.30897 0
M  V30 7172 H 683.485 1.9459 0.109906 0
M  V30 7173 H 682.581 2.80152 1.37554 0
M  V30 7174 N 682.882 -0.391992 1.52647 0
M  V30 7175 C 684.159 -1.15136 1.58123 0
M  V30 7176 C 684.539 -2.07786 0.372597 0
M  V30 7177 O 683.887 -2.19374 -0.639304 0
M  V30 7178 C 684.097 -1.91367 2.91856 0
M  V30 7179 C 685.445 -2.46833 3.45483 0
M  V30 7180 O 686.469 -2.01527 2.9371 0
M  V30 7181 O 685.328 -3.29587 4.3593 0
M  V30 7182 H 682.422 -0.526649 0.637629 0
M  V30 7183 H 684.968 -0.397386 1.64982 0
M  V30 7184 H 683.74 -1.23597 3.71268 0
M  V30 7185 H 683.363 -2.73732 2.88369 0
M  V30 7186 N 684.36 -1.4356 -0.65026 0
M  V30 7187 C 685.31 -1.45392 -1.75628 0
M  V30 7188 C 686.294 -0.322006 -1.57645 0
M  V30 7189 O 687.486 -0.565996 -1.67707 0
M  V30 7190 C 684.615 -1.38254 -3.1423 0
M  V30 7191 C 683.701 -2.56487 -3.3775 0
M  V30 7192 N 684.092 -3.81824 -3.31729 0
M  V30 7193 C 682.39 -2.51274 -3.6848 0
M  V30 7194 C 683.091 -4.60497 -3.55412 0
M  V30 7195 N 682.067 -3.91274 -3.77367 0
M  V30 7196 H 685.869 -2.40167 -1.69402 0
M  V30 7197 H 683.383 -1.38254 -0.852037 0
M  V30 7198 H 685.38 -1.3765 -3.9352 0
M  V30 7199 H 684.04 -0.445019 -3.21636 0
M  V30 7200 H 685.051 -4.14069 -3.11074 0
M  V30 7201 H 681.728 -1.66223 -3.82983 0
M  V30 7202 H 683.118 -5.69518 -3.5651 0
M  V30 7203 N 685.838 0.888903 -1.30139 0
M  V30 7204 C 686.801 1.97576 -1.16174 0
M  V30 7205 C 687.801 1.60525 -0.094086 0
M  V30 7206 O 688.991 1.70812 -0.341889 0
M  V30 7207 C 686.123 3.3188 -0.778983 0
M  V30 7208 H 687.316 2.11393 -2.12728 0
M  V30 7209 H 684.869 1.0748 -1.1348 0
M  V30 7210 H 685.604 3.23765 0.186225 0
M  V30 7211 H 685.389 3.60141 -1.55051 0
M  V30 7212 H 686.879 4.11612 -0.704631 0
M  V30 7213 O 687.355 1.24817 1.02483 0
M  V30 7214 H 688.046 1.02783 1.64181 0
M  V30 END ATOM
M  V30 BEGIN BOND
M  V30 END BOND
M  V30 END CTAB
M  END
$$$$
