drugbank_target|Q9HBG4 V-type proton ATPase 116 kDa subunit a isoform 4 (DB01133)
 OpenBabel12092121233D

  0  0  0     0  0            999 V3000
M  V30 BEGIN CTAB
M  V30 COUNTS 13552 13716 0 0 0
M  V30 BEGIN ATOM
M  V30 1 H -0.908 1.98254 -0.117106 0
M  V30 2 N 0 1.576 0 0
M  V30 3 C 0.933 2.03868 1.02534 0
M  V30 4 C 1.911 0.928543 1.3348 0
M  V30 5 O 3.095 1.19667 1.45644 0
M  V30 6 C 0.222 2.43627 2.35294 0
M  V30 7 C -0.732 3.65373 2.2001 0
M  V30 8 S 0.101 5.13292 1.52614 0
M  V30 9 C 1.257 5.56322 2.86805 0
M  V30 10 H 1.49 2.90518 0.631377 0
M  V30 11 H -0.977 1.52953 0.210867 0
M  V30 12 H 0.981 2.67203 3.11629 0
M  V30 13 H -0.358 1.57376 2.7183 0
M  V30 14 H -1.165 3.90944 3.18086 0
M  V30 15 H -1.563 3.418 1.51819 0
M  V30 16 H 0.729 5.58782 3.83104 0
M  V30 17 H 1.672 6.56266 2.65933 0
M  V30 18 H 2.08 4.83886 2.90714 0
M  V30 19 N 1.4781 -0.272755 1.55222 0
M  V30 20 C 2.7241 -1.00581 1.761 0
M  V30 21 C 3.0571 -1.85932 0.560625 0
M  V30 22 O 2.3321 -1.89416 -0.441801 0
M  V30 23 C 2.6151 -1.88816 3.06628 0
M  V30 24 C 2.4681 -1.06457 4.37021 0
M  V30 25 C 3.7871 -2.8752 3.33197 0
M  V30 26 H 0.9061 -0.364244 0.640699 0
M  V30 27 H 3.5481 -0.278189 1.87952 0
M  V30 28 H 1.6981 -2.50856 2.96654 0
M  V30 29 H 3.3701 -0.464863 4.58952 0
M  V30 30 H 1.6131 -0.368043 4.32236 0
M  V30 31 H 2.2841 -1.71514 5.24678 0
M  V30 32 H 4.7601 -2.35615 3.42965 0
M  V30 33 H 3.6361 -3.46399 4.25792 0
M  V30 34 H 3.8971 -3.62657 2.52849 0
M  V30 35 N 2.9562 -1.48159 -0.537278 0
M  V30 36 C 4.1812 -1.59707 -1.32319 0
M  V30 37 C 4.6062 -0.254859 -1.86365 0
M  V30 38 O 3.9642 0.772378 -1.64024 0
M  V30 39 C 4.0122 -2.6412 -2.45505 0
M  V30 40 O 3.1162 -2.20774 -3.48328 0
M  V30 41 H 2.4572 -0.535791 -0.392204 0
M  V30 42 H 4.9872 -1.94092 -0.647268 0
M  V30 43 H 4.9972 -2.85166 -2.91795 0
M  V30 44 H 3.6722 -3.61567 -2.05528 0
M  V30 45 H 2.2492 -2.09911 -3.08207 0
M  V30 46 N 4.4343 0.785586 -1.36625 0
M  V30 47 C 5.6803 1.54591 -1.31261 0
M  V30 48 C 6.0133 1.93906 0.106823 0
M  V30 49 O 5.2883 1.63007 1.06108 0
M  V30 50 C 5.5713 2.82038 -2.23889 0
M  V30 51 C 5.4243 2.49066 -3.74548 0
M  V30 52 C 6.7433 3.83887 -2.15217 0
M  V30 53 H 3.8623 0.560846 -0.478143 0
M  V30 54 H 6.5043 0.902278 -1.67209 0
M  V30 55 H 4.6543 3.36961 -1.93363 0
M  V30 56 H 6.3263 2.00164 -4.15611 0
M  V30 57 H 4.5693 1.81954 -3.93796 0
M  V30 58 H 5.2403 3.40109 -4.34776 0
M  V30 59 H 7.7163 3.38421 -2.42096 0
M  V30 60 H 6.5923 4.70806 -2.82193 0
M  V30 61 H 6.8533 4.27131 -1.14068 0
M  V30 62 N 5.9124 1.20967 1.01018 0
M  V30 63 C 7.1594 1.02374 1.74716 0
M  V30 64 C 7.4874 -0.443375 1.89379 0
M  V30 65 O 6.7424 -1.34535 1.42123 0
M  V30 66 C 7.0414 1.65997 3.16512 0
M  V30 67 C 6.7074 3.15831 3.2181 0
M  V30 68 C 5.3694 3.56719 3.22963 0
M  V30 69 C 7.7214 4.11816 3.19464 0
M  V30 70 C 5.0494 4.92107 3.19449 0
M  V30 71 C 7.4014 5.47158 3.17491 0
M  V30 72 C 6.0654 5.87451 3.16951 0
M  V30 73 H 5.3354 0.374614 0.639332 0
M  V30 74 H 7.9824 1.50485 1.18434 0
M  V30 75 H 6.2874 1.10166 3.75993 0
M  V30 76 H 7.9844 1.49119 3.72242 0
M  V30 77 H 4.5744 2.83263 3.21652 0
M  V30 78 H 8.7584 3.81257 3.17737 0
M  V30 79 H 4.0144 5.22579 3.17366 0
M  V30 80 H 8.1884 6.21274 3.14629 0
M  V30 81 H 5.8154 6.92329 3.13983 0
M  V30 82 N 7.3905 -1.2043 1.01659 0
M  V30 83 C 8.8065 -1.41852 0.731442 0
M  V30 84 C 9.0065 -1.89358 -0.688898 0
M  V30 85 O 8.0625 -2.06247 -1.45666 0
M  V30 86 C 9.3755 -2.44019 1.75714 0
M  V30 87 C 10.9235 -2.57785 1.77527 0
M  V30 88 C 11.3985 -3.63194 2.79023 0
M  V30 89 N 12.8895 -3.70678 2.77763 0
M  V30 90 C 13.6245 -4.51897 3.52954 0
M  V30 91 N 13.1205 -5.36921 4.37821 0
M  V30 92 N 14.9135 -4.4643 3.41551 0
M  V30 93 H 7.0645 -0.879093 1.93354 0
M  V30 94 H 9.3275 -0.448425 0.835236 0
M  V30 95 H 9.0335 -2.1611 2.77469 0
M  V30 96 H 8.9075 -3.43007 1.56927 0
M  V30 97 H 11.2945 -2.85023 0.764569 0
M  V30 98 H 11.3755 -1.58992 2.00387 0
M  V30 99 H 11.0195 -3.36699 3.80258 0
M  V30 100 H 10.9495 -4.61609 2.53425 0
M  V30 101 H 13.4405 -3.09944 2.16201 0
M  V30 102 H 13.7535 -5.95981 4.91962 0
M  V30 103 H 12.0985 -5.36424 4.41899 0
M  V30 104 H 15.2895 -3.79042 2.74672 0
M  V30 105 H 15.4625 -5.09491 4.00404 0
M  V30 106 N 8.8686 -0.792821 -1.36206 0
M  V30 107 C 10.0936 -0.377701 -2.03932 0
M  V30 108 C 10.5186 0.998947 -1.59382 0
M  V30 109 O 9.8766 1.64421 -0.763903 0
M  V30 110 C 9.9246 -0.453635 -3.57735 0
M  V30 111 O 9.0286 0.538151 -4.08874 0
M  V30 112 H 8.3696 -0.159855 -0.644471 0
M  V30 113 H 10.8996 -1.07488 -1.7409 0
M  V30 114 H 10.9096 -0.318464 -4.06755 0
M  V30 115 H 9.5846 -1.45784 -3.89512 0
M  V30 116 H 8.1616 0.364359 -3.71116 0
M  V30 117 N 10.3467 1.47872 -0.545128 0
M  V30 118 C 11.2567 2.33633 0.212746 0
M  V30 119 C 12.2727 1.4744 0.923983 0
M  V30 120 O 13.4487 1.80393 0.895572 0
M  V30 121 C 10.5137 3.23884 1.23693 0
M  V30 122 C 9.5747 4.25961 0.534417 0
M  V30 123 C 8.8077 5.11899 1.5098 0
M  V30 124 O 9.0307 5.00077 2.7437 0
M  V30 125 O 7.9647 5.92831 1.0409 0
M  V30 126 H 11.7907 2.99714 -0.490416 0
M  V30 127 H 9.3757 1.46235 -0.305871 0
M  V30 128 H 11.2577 3.79666 1.82843 0
M  V30 129 H 9.9327 2.60446 1.92222 0
M  V30 130 H 8.8397 3.73972 -0.0979679 0
M  V30 131 H 10.1727 4.92079 -0.109213 0
M  V30 132 N 11.8248 0.280983 1.55075 0
M  V30 133 C 12.7348 -0.61388 2.26426 0
M  V30 134 C 13.7508 -1.16521 1.29224 0
M  V30 135 O 14.9268 -1.19426 1.62171 0
M  V30 136 C 11.9918 -1.7788 2.9759 0
M  V30 137 C 11.0528 -1.26355 4.10284 0
M  V30 138 C 10.2858 -2.37295 4.78045 0
M  V30 139 O 10.5088 -3.56777 4.45047 0
M  V30 140 O 9.4428 -2.05119 5.65871 0
M  V30 141 H 13.2688 -0.0356932 3.03679 0
M  V30 142 H 10.8538 0.0481686 1.49322 0
M  V30 143 H 12.7358 -2.45791 3.42293 0
M  V30 144 H 11.4108 -2.34397 2.23249 0
M  V30 145 H 10.3178 -0.550735 3.70024 0
M  V30 146 H 11.6508 -0.744065 4.86543 0
M  V30 147 N 13.3029 -1.57598 0.00835791 0
M  V30 148 C 14.2359 -2.04409 -1.01451 0
M  V30 149 C 15.2139 -0.935609 -1.32985 0
M  V30 150 O 16.3979 -1.20437 -1.45007 0
M  V30 151 C 13.5249 -2.44872 -2.33999 0
M  V30 152 C 12.5709 -3.66535 -2.18069 0
M  V30 153 S 13.4039 -5.14095 -1.4989 0
M  V30 154 C 14.5599 -5.57835 -2.8385 0
M  V30 155 H 14.7929 -2.90849 -0.615961 0
M  V30 156 H 12.3259 -1.53063 -0.202752 0
M  V30 157 H 14.2839 -2.68852 -3.10208 0
M  V30 158 H 12.9449 -1.58815 -2.70992 0
M  V30 159 H 12.1379 -3.92626 -3.16008 0
M  V30 160 H 11.7399 -3.426 -1.50004 0
M  V30 161 H 14.0319 -5.60806 -3.80136 0
M  V30 162 H 14.9749 -6.57667 -2.62449 0
M  V30 163 H 15.3829 -4.85421 -2.88144 0
M  V30 164 N 14.781 0.264519 -1.55364 0
M  V30 165 C 16.021 1.00254 -1.78125 0
M  V30 166 C 16.385 1.83187 -0.575017 0
M  V30 167 O 17.586 2.60029 -0.681042 0
M  V30 168 C 15.857 1.85478 -3.05504 0
M  V30 169 S 17.416 2.6543 -3.49417 0
M  V30 170 H 14.234 0.337522 -0.625779 0
M  V30 171 H 16.836 0.272111 -1.93597 0
M  V30 172 H 15.54 1.23491 -3.9138 0
M  V30 173 H 15.071 2.62827 -2.92721 0
M  V30 174 H 17.086 3.87958 -3.09359 0
M  V30 175 N 16.2591 1.48442 0.529413 0
M  V30 176 C 17.1891 1.65902 1.64313 0
M  V30 177 C 18.1701 0.507897 1.6234 0
M  V30 178 O 19.3551 0.740503 1.79528 0
M  V30 179 C 16.4851 1.69911 3.02898 0
M  V30 180 C 15.4391 2.8453 3.19729 0
M  V30 181 C 14.7651 2.73629 4.59381 0
M  V30 182 C 16.0651 4.25821 3.02447 0
M  V30 183 H 17.7591 2.5914 1.49955 0
M  V30 184 H 15.3051 1.24709 0.719982 0
M  V30 185 H 17.2581 1.80715 3.80684 0
M  V30 186 H 15.9821 0.732524 3.18279 0
M  V30 187 H 14.6411 2.73283 2.44361 0
M  V30 188 H 14.2891 1.74938 4.71599 0
M  V30 189 H 13.9891 3.50541 4.71588 0
M  V30 190 H 15.5131 2.86401 5.39265 0
M  V30 191 H 16.9271 4.37898 3.70024 0
M  V30 192 H 15.3241 5.03735 3.26146 0
M  V30 193 H 16.3941 4.42244 1.98867 0
M  V30 194 N 17.7372 -0.778329 1.37039 0
M  V30 195 C 18.9622 -1.57248 1.35233 0
M  V30 196 C 19.3872 -1.87999 -0.0615568 0
M  V30 197 O 18.7452 -1.48734 -1.03672 0
M  V30 198 C 18.7932 -2.86353 2.19167 0
M  V30 199 O 17.8972 -3.80442 1.59178 0
M  V30 200 H 17.2382 -0.476569 0.462362 0
M  V30 201 H 19.7682 -0.963853 1.80474 0
M  V30 202 H 19.7782 -3.35519 2.32145 0
M  V30 203 H 18.4532 -2.63299 3.21942 0
M  V30 204 H 17.0302 -3.39067 1.55203 0
M  V30 205 N 19.2153 -1.21501 -1.00376 0
M  V30 206 C 20.1473 -0.933174 -2.09343 0
M  V30 207 C 21.1603 0.0840896 -1.62583 0
M  V30 208 O 22.3493 -0.148563 -1.77881 0
M  V30 209 C 19.4493 -0.379869 -3.36764 0
M  V30 210 C 18.6223 -1.45176 -4.12605 0
M  V30 211 C 17.6813 -0.907476 -5.18316 0
M  V30 212 O 16.7073 -1.5912 -5.46507 0
M  V30 213 N 17.9093 0.276649 -5.7984 0
M  V30 214 H 20.6743 -1.87124 -2.34104 0
M  V30 215 H 18.2353 -1.12043 -1.16867 0
M  V30 216 H 20.2273 -0.00131488 -4.047 0
M  V30 217 H 18.7973 0.463048 -3.09151 0
M  V30 218 H 18.0173 -2.00411 -3.39454 0
M  V30 219 H 19.3053 -2.17328 -4.6005 0
M  V30 220 H 18.7033 0.849147 -5.59291 0
M  V30 221 H 17.2603 0.596702 -6.49063 0
M  V30 222 N 20.6934 1.19889 -1.02296 0
M  V30 223 C 21.6234 2.25141 -0.619174 0
M  V30 224 C 22.6044 1.66051 0.368915 0
M  V30 225 O 23.7894 1.92546 0.252941 0
M  V30 226 C 20.9194 3.4728 0.0368783 0
M  V30 227 C 19.8734 4.19005 -0.872865 0
M  V30 228 C 19.1994 5.34637 -0.0822402 0
M  V30 229 C 20.4994 4.74452 -2.18387 0
M  V30 230 H 22.1934 2.59171 -1.49903 0
M  V30 231 H 19.7394 1.24579 -0.722222 0
M  V30 232 H 21.6924 4.20098 0.330958 0
M  V30 233 H 20.4164 3.12433 0.95149 0
M  V30 234 H 19.0754 3.48061 -1.15105 0
M  V30 235 H 18.7234 4.96034 0.83422 0
M  V30 236 H 18.4234 5.83557 -0.688149 0
M  V30 237 H 19.9474 6.10255 0.205238 0
M  V30 238 H 21.3614 5.39055 -1.95172 0
M  V30 239 H 19.7584 5.33834 -2.74119 0
M  V30 240 H 20.8284 3.92844 -2.84257 0
M  V30 241 N 22.1715 0.800033 1.35784 0
M  V30 242 C 23.4185 0.377342 1.98953 0
M  V30 243 C 23.7465 -1.05378 1.6348 0
M  V30 244 O 23.0015 -1.74459 0.886707 0
M  V30 245 C 23.3005 0.500276 3.53881 0
M  V30 246 C 22.9665 1.89375 4.09204 0
M  V30 247 C 21.6285 2.27499 4.24025 0
M  V30 248 C 23.9805 2.8057 4.39238 0
M  V30 249 C 21.3085 3.562 4.66195 0
M  V30 250 C 23.6605 4.0871 4.82844 0
M  V30 251 C 22.3245 4.46843 4.95871 0
M  V30 252 H 21.5945 0.138079 0.728021 0
M  V30 253 H 24.2415 1.01955 1.62103 0
M  V30 254 H 22.5465 -0.225405 3.91151 0
M  V30 255 H 24.2435 0.154097 4.00704 0
M  V30 256 H 20.8335 1.58753 3.98115 0
M  V30 257 H 25.0175 2.52367 4.27346 0
M  V30 258 H 20.2735 3.85602 4.74469 0
M  V30 259 H 24.4475 4.79481 5.05046 0
M  V30 260 H 22.0745 5.46623 5.28306 0
M  V30 261 N 23.6496 -1.47581 0.552962 0
M  V30 262 C 24.5796 -2.32762 -0.185451 0
M  V30 263 C 25.5606 -1.43527 -0.912905 0
M  V30 264 O 26.7456 -1.72388 -0.894201 0
M  V30 265 C 23.8756 -3.25219 -1.21859 0
M  V30 266 C 22.8296 -4.23661 -0.607864 0
M  V30 267 C 22.1556 -5.05413 -1.74533 0
M  V30 268 C 23.4556 -5.20481 0.435582 0
M  V30 269 H 25.1496 -2.94749 0.525684 0
M  V30 270 H 22.6956 -1.41738 0.254251 0
M  V30 271 H 24.6486 -3.8365 -1.7433 0
M  V30 272 H 23.3726 -2.61279 -1.95961 0
M  V30 273 H 22.0316 -3.66451 -0.104489 0
M  V30 274 H 21.6796 -4.3788 -2.47529 0
M  V30 275 H 21.3796 -5.72059 -1.34249 0
M  V30 276 H 22.9036 -5.66701 -2.27338 0
M  V30 277 H 24.3176 -5.733 -0.00290157 0
M  V30 278 H 22.7146 -5.95305 0.757067 0
M  V30 279 H 23.7846 -4.66217 1.33303 0
M  V30 280 N 25.1277 -0.289203 -1.54924 0
M  V30 281 C 26.0597 0.625583 -2.20497 0
M  V30 282 C 27.0727 1.10667 -1.19402 0
M  V30 283 O 28.2617 1.02615 -1.46056 0
M  V30 284 C 25.3617 1.86702 -2.82835 0
M  V30 285 C 24.5347 1.5304 -4.09753 0
M  V30 286 C 23.5937 2.62576 -4.56005 0
M  V30 287 O 22.6197 2.28167 -5.21468 0
M  V30 288 N 23.8217 3.92901 -4.27328 0
M  V30 289 H 26.5867 0.0642801 -2.99631 0
M  V30 290 H 24.1477 -0.110896 -1.6152 0
M  V30 291 H 26.1397 2.59304 -3.10715 0
M  V30 292 H 24.7097 2.33702 -2.07611 0
M  V30 293 H 23.9297 0.637564 -3.8901 0
M  V30 294 H 25.2177 1.28072 -4.92418 0
M  V30 295 H 24.6157 4.23671 -3.74859 0
M  V30 296 H 23.1727 4.61837 -4.59946 0
M  V30 297 N 26.6058 1.57591 -0.0167156 0
M  V30 298 C 27.8518 1.91567 0.665582 0
M  V30 299 C 28.1848 0.892298 1.72487 0
M  V30 300 O 27.4598 -0.0867127 1.94307 0
M  V30 301 C 27.7428 3.36069 1.29342 0
M  V30 302 C 27.5958 4.49135 0.244541 0
M  V30 303 C 28.9148 3.803 2.21495 0
M  V30 304 H 26.0338 0.69666 0.240488 0
M  V30 305 H 28.6758 1.89866 -0.0714356 0
M  V30 306 H 26.8258 3.3765 1.92158 0
M  V30 307 H 28.4978 4.59689 -0.385228 0
M  V30 308 H 26.7408 4.3165 -0.431379 0
M  V30 309 H 27.4118 5.47242 0.723207 0
M  V30 310 H 29.8878 3.80377 1.68678 0
M  V30 311 H 28.7638 4.82127 2.62382 0
M  V30 312 H 29.0248 3.15104 3.101 0
M  V30 313 N 28.0839 -0.256276 1.55502 0
M  V30 314 C 28.9939 -1.33882 1.92647 0
M  V30 315 C 30.0099 -1.53159 0.825727 0
M  V30 316 O 31.1859 -1.66963 1.12629 0
M  V30 317 C 28.2509 -2.6751 2.20543 0
M  V30 318 C 27.3119 -2.56836 3.43997 0
M  V30 319 C 26.5449 -3.84092 3.70553 0
M  V30 320 O 26.7679 -4.85545 2.99336 0
M  V30 321 O 25.7019 -3.83288 4.64084 0
M  V30 322 H 29.5279 -1.05374 2.84833 0
M  V30 323 H 27.1129 -0.456237 1.42263 0
M  V30 324 H 28.9949 -3.46492 2.39835 0
M  V30 325 H 27.6699 -2.9577 1.31536 0
M  V30 326 H 26.5769 -1.76172 3.30021 0
M  V30 327 H 27.9099 -2.33523 4.33275 0
M  V30 328 N 29.562 -1.4872 -0.521534 0
M  V30 329 C 30.525 -1.63379 -1.60748 0
M  V30 330 C 31.525 -0.50661 -1.52611 0
M  V30 331 O 32.715 -0.772601 -1.5613 0
M  V30 332 C 29.847 -1.61192 -3.00383 0
M  V30 333 H 31.04 -2.60217 -1.49087 0
M  V30 334 H 28.593 -1.37444 -0.744235 0
M  V30 335 H 29.328 -0.65863 -3.17541 0
M  V30 336 H 29.113 -2.43032 -3.07698 0
M  V30 337 H 30.603 -1.7466 -3.7932 0
M  V30 338 N 31.0401 0.771051 -1.3745 0
M  V30 339 C 32.0031 1.86598 -1.33093 0
M  V30 340 C 33.0031 1.59076 -0.234845 0
M  V30 341 O 34.1931 1.67145 -0.490732 0
M  V30 342 C 31.3251 3.23747 -1.06773 0
M  V30 343 H 32.5181 1.91873 -2.30488 0
M  V30 344 H 30.0711 0.970876 -1.2249 0
M  V30 345 H 30.8061 3.24148 -0.099129 0
M  V30 346 H 30.5911 3.45115 -1.86112 0
M  V30 347 H 32.0811 4.03824 -1.06377 0
M  V30 348 N 32.5182 1.22032 0.997298 0
M  V30 349 C 33.7482 1.06686 1.76923 0
M  V30 350 C 34.1562 -0.385838 1.85224 0
M  V30 351 O 33.4992 -1.27929 1.31833 0
M  V30 352 C 33.5612 1.59802 3.22031 0
M  V30 353 C 33.2252 3.08362 3.37286 0
M  V30 354 C 34.2222 4.05835 3.24952 0
M  V30 355 C 31.9072 3.47727 3.6248 0
M  V30 356 C 33.9012 5.4066 3.37588 0
M  V30 357 C 31.5882 4.82701 3.74757 0
M  V30 358 C 32.5862 5.78977 3.62319 0
M  V30 359 O 32.2742 7.11502 3.74193 0
M  V30 360 H 32.0062 0.374767 0.562606 0
M  V30 361 H 34.5602 1.61991 1.26286 0
M  V30 362 H 32.7902 0.989003 3.73839 0
M  V30 363 H 34.4792 1.40184 3.80924 0
M  V30 364 H 35.2452 3.76766 3.05405 0
M  V30 365 H 31.1242 2.73317 3.7124 0
M  V30 366 H 34.6682 6.15788 3.27796 0
M  V30 367 H 30.5652 5.11453 3.9381 0
M  V30 368 H 31.3332 7.19019 3.91093 0
M  V30 369 N 33.9963 -1.19345 1.0293 0
M  V30 370 C 35.2363 -1.90738 0.734727 0
M  V30 371 C 35.6003 -1.7785 -0.723414 0
M  V30 372 O 36.8013 -2.43844 -1.13108 0
M  V30 373 C 35.0723 -3.37569 1.17396 0
M  V30 374 S 36.6313 -4.27176 1.00329 0
M  V30 375 H 33.4493 -0.658771 0.267474 0
M  V30 376 H 36.0513 -1.4428 1.31922 0
M  V30 377 H 34.7553 -3.44475 2.23081 0
M  V30 378 H 34.2863 -3.8906 0.582772 0
M  V30 379 H 36.3013 -4.96126 -0.0859152 0
M  V30 380 N 35.4744 -0.807222 -1.35358 0
M  V30 381 C 36.7144 -0.393534 -2.00576 0
M  V30 382 C 37.0784 1.0203 -1.62647 0
M  V30 383 O 38.2794 1.53603 -2.20589 0
M  V30 384 C 36.5504 -0.572017 -3.52793 0
M  V30 385 S 38.1094 -0.248845 -4.38094 0
M  V30 386 H 34.9274 -0.149425 -0.695121 0
M  V30 387 H 37.5294 -1.04961 -1.64935 0
M  V30 388 H 36.2334 -1.60097 -3.77885 0
M  V30 389 H 35.7644 0.099359 -3.93275 0
M  V30 390 H 37.7794 0.943253 -4.87152 0
M  V30 391 N 36.9525 1.47285 -0.560781 0
M  V30 392 C 38.1985 2.02764 -0.0381184 0
M  V30 393 C 38.5315 1.43384 1.30976 0
M  V30 394 O 37.8065 0.590733 1.85312 0
M  V30 395 C 38.0895 3.60064 0.0511427 0
M  V30 396 C 37.9425 4.2987 -1.32408 0
M  V30 397 C 39.2615 4.33439 0.762795 0
M  V30 398 H 36.3805 0.736841 -0.0153264 0
M  V30 399 H 39.0225 1.75675 -0.723759 0
M  V30 400 H 37.1725 3.83274 0.635065 0
M  V30 401 H 38.8445 4.17989 -1.95148 0
M  V30 402 H 37.0875 3.90085 -1.8978 0
M  V30 403 H 37.7585 5.38478 -1.21431 0
M  V30 404 H 40.2345 4.15243 0.266965 0
M  V30 405 H 39.1105 5.43124 0.794221 0
M  V30 406 H 39.3715 4.02915 1.81966 0
M  V30 407 N 38.4306 0.297415 1.54768 0
M  V30 408 C 39.3936 -0.567375 2.22066 0
M  V30 409 C 40.3936 -1.06409 1.20556 0
M  V30 410 O 41.5836 -0.960691 1.45315 0
M  V30 411 C 38.7156 -1.78517 2.90421 0
M  V30 412 H 39.9086 0.0205534 2.99893 0
M  V30 413 H 37.4616 0.0482163 1.56226 0
M  V30 414 H 38.1966 -2.41303 2.16664 0
M  V30 415 H 37.9816 -1.43669 3.64831 0
M  V30 416 H 39.4716 -2.39964 3.41771 0
M  V30 417 N 39.9087 -1.5758 0.0250728 0
M  V30 418 C 40.8187 -2.1343 -0.973905 0
M  V30 419 C 41.8347 -1.08556 -1.35984 0
M  V30 420 O 43.0107 -1.40592 -1.44207 0
M  V30 421 C 40.0757 -2.64703 -2.23904 0
M  V30 422 C 39.1367 -3.84276 -1.91391 0
M  V30 423 C 38.3697 -4.33095 -3.11873 0
M  V30 424 O 38.5927 -3.81107 -4.24398 0
M  V30 425 O 37.5267 -5.24984 -2.94406 0
M  V30 426 H 41.3527 -2.99057 -0.529036 0
M  V30 427 H 38.9377 -1.48118 -0.195288 0
M  V30 428 H 40.8197 -2.97769 -2.98181 0
M  V30 429 H 39.4947 -1.82161 -2.6758 0
M  V30 430 H 38.4017 -3.56143 -1.14511 0
M  V30 431 H 39.7347 -4.67968 -1.52534 0
M  V30 432 N 41.3868 0.248026 -1.55636 0
M  V30 433 C 42.3168 1.31079 -1.93237 0
M  V30 434 C 43.2978 1.50264 -0.797174 0
M  V30 435 O 44.4828 1.62891 -1.05737 0
M  V30 436 C 41.6128 2.66575 -2.22609 0
M  V30 437 C 40.5668 2.62087 -3.3837 0
M  V30 438 C 39.8928 4.01369 -3.53281 0
M  V30 439 C 41.1928 2.19171 -4.7409 0
M  V30 440 H 42.8868 0.998556 -2.82257 0
M  V30 441 H 40.4328 0.47891 -1.35803 0
M  V30 442 H 42.3858 3.41057 -2.47503 0
M  V30 443 H 41.1098 2.99432 -1.30414 0
M  V30 444 H 39.7688 1.90063 -3.13483 0
M  V30 445 H 39.4168 4.31489 -2.58508 0
M  V30 446 H 39.1168 3.99254 -4.31127 0
M  V30 447 H 40.6408 4.77552 -3.80495 0
M  V30 448 H 42.0548 2.83384 -4.98363 0
M  V30 449 H 40.4518 2.2817 -5.5503 0
M  V30 450 H 41.5218 1.14336 -4.71227 0
M  V30 451 N 42.8649 1.48995 0.513639 0
M  V30 452 C 44.1129 1.57531 1.26604 0
M  V30 453 C 44.4339 0.258236 1.93283 0
M  V30 454 O 43.7039 -0.721502 1.8213 0
M  V30 455 H 42.2839 0.580387 0.470276 0
M  V30 456 H 44.9459 1.85552 0.596373 0
M  V30 457 H 44.0419 2.36486 2.03669 0
M  V30 458 N 44.343 -0.763751 1.37857 0
M  V30 459 C 45.253 -1.90817 1.36478 0
M  V30 460 C 46.269 -1.71997 0.263248 0
M  V30 461 O 47.445 -1.95095 0.499979 0
M  V30 462 C 44.51 -3.2605 1.17864 0
M  V30 463 C 43.571 -3.57467 2.3773 0
M  V30 464 C 42.804 -4.86249 2.19995 0
M  V30 465 O 43.027 -5.57884 1.18836 0
M  V30 466 O 41.961 -5.16911 3.08361 0
M  V30 467 H 45.787 -1.94933 2.32884 0
M  V30 468 H 43.372 -0.907619 1.1867 0
M  V30 469 H 45.254 -4.06924 1.09504 0
M  V30 470 H 43.929 -3.22769 0.245372 0
M  V30 471 H 42.836 -2.76796 2.51664 0
M  V30 472 H 44.169 -3.655 3.29652 0
M  V30 473 N 45.8211 -1.22559 -0.990812 0
M  V30 474 C 46.7511 -1.0218 -2.09956 0
M  V30 475 C 47.7321 0.0579394 -1.70001 0
M  V30 476 O 48.9171 -0.104684 -1.93918 0
M  V30 477 C 46.0471 -0.601023 -3.4206 0
M  V30 478 C 45.0011 -1.62694 -3.95872 0
M  V30 479 C 44.3271 -1.06193 -5.24049 0
M  V30 480 C 45.6271 -3.01743 -4.2632 0
M  V30 481 H 47.3211 -1.94916 -2.27262 0
M  V30 482 H 44.8671 -0.938566 -1.09211 0
M  V30 483 H 46.8201 -0.445561 -4.19038 0
M  V30 484 H 45.5441 0.362005 -3.24588 0
M  V30 485 H 44.2031 -1.77021 -3.21028 0
M  V30 486 H 43.8511 -0.0901903 -5.02919 0
M  V30 487 H 43.5511 -1.74732 -5.61019 0
M  V30 488 H 45.0751 -0.918092 -6.03658 0
M  V30 489 H 46.4891 -2.90777 -4.94087 0
M  V30 490 H 44.8861 -3.67425 -4.74467 0
M  V30 491 H 45.9561 -3.51518 -3.34011 0
M  V30 492 N 47.2992 1.18797 -1.03562 0
M  V30 493 C 48.5472 1.88278 -0.734569 0
M  V30 494 C 48.8682 1.8043 0.739586 0
M  V30 495 O 48.1382 1.21925 1.53333 0
M  V30 496 H 46.7182 0.696991 -0.268725 0
M  V30 497 H 49.3802 1.44192 -1.31129 0
M  V30 498 H 48.4762 2.94443 -1.03489 0
M  V30 499 N 48.7773 0.814389 1.34928 0
M  V30 500 C 49.7073 0.244827 2.32213 0
M  V30 501 C 50.6883 -0.634024 1.57842 0
M  V30 502 O 51.8733 -0.562676 1.8587 0
M  V30 503 C 49.0033 -0.601106 3.42058 0
M  V30 504 C 47.9573 0.179896 4.27622 0
M  V30 505 C 47.2833 -0.788237 5.28858 0
M  V30 506 C 48.5833 1.38329 5.03649 0
M  V30 507 H 50.2773 1.05763 2.80097 0
M  V30 508 H 47.8233 0.510029 1.34665 0
M  V30 509 H 49.7763 -1.00968 4.09125 0
M  V30 510 H 48.5003 -1.44688 2.92802 0
M  V30 511 H 47.1593 0.569739 3.62146 0
M  V30 512 H 46.8073 -1.62973 4.75866 0
M  V30 513 H 46.5073 -0.269942 5.8698 0
M  V30 514 H 48.0313 -1.19485 5.98795 0
M  V30 515 H 49.4453 1.04918 5.63618 0
M  V30 516 H 47.8423 1.83662 5.71304 0
M  V30 517 H 48.9123 2.16592 4.33839 0
M  V30 518 N 50.2554 -1.46986 0.568584 0
M  V30 519 C 51.5014 -2.02741 0.0488709 0
M  V30 520 C 51.8344 -1.44077 -1.30214 0
M  V30 521 O 51.1094 -0.600552 -1.84996 0
M  V30 522 C 51.3924 -3.60086 -0.032047 0
M  V30 523 C 51.2454 -4.29162 1.34686 0
M  V30 524 C 52.5644 -4.33838 -0.739798 0
M  V30 525 H 49.6834 -0.736749 0.0192338 0
M  V30 526 H 52.3254 -1.75289 0.733065 0
M  V30 527 H 50.4754 -3.83606 -0.61473 0
M  V30 528 H 52.1474 -4.16948 1.97362 0
M  V30 529 H 50.3904 -3.89073 1.91846 0
M  V30 530 H 51.0614 -5.37826 1.24285 0
M  V30 531 H 53.5374 -4.15378 -0.244939 0
M  V30 532 H 52.4134 -5.43537 -0.765406 0
M  V30 533 H 52.6744 -4.03875 -1.79827 0
M  V30 534 N 51.7335 -0.305618 -1.54608 0
M  V30 535 C 52.6655 0.602161 -2.21149 0
M  V30 536 C 53.6785 1.09394 -1.20569 0
M  V30 537 O 54.8675 1.0106 -1.47136 0
M  V30 538 C 51.9675 1.83692 -2.84799 0
M  V30 539 C 51.1405 1.48686 -4.11353 0
M  V30 540 C 50.1995 2.57725 -4.58764 0
M  V30 541 O 49.2255 2.22623 -5.23858 0
M  V30 542 N 50.4275 3.88346 -4.31471 0
M  V30 543 H 53.1925 0.0324966 -2.99682 0
M  V30 544 H 50.7535 -0.128021 -1.61393 0
M  V30 545 H 52.7455 2.55994 -3.13448 0
M  V30 546 H 51.3155 2.31486 -2.10078 0
M  V30 547 H 50.5355 0.596269 -3.89664 0
M  V30 548 H 51.8235 1.22842 -4.93748 0
M  V30 549 H 51.2215 4.19671 -3.79331 0
M  V30 550 H 49.7785 4.56932 -4.64818 0
M  V30 551 N 53.2116 1.57565 -0.0334293 0
M  V30 552 C 54.4586 1.91978 0.644272 0
M  V30 553 C 54.7866 0.910231 1.71887 0
M  V30 554 O 54.0416 -0.0801961 1.95536 0
M  V30 555 C 54.3406 3.33112 1.29504 0
M  V30 556 C 54.0066 4.49537 0.350388 0
M  V30 557 C 52.6686 4.81115 0.0903974 0
M  V30 558 C 55.0206 5.20347 -0.298032 0
M  V30 559 C 52.3486 5.8086 -0.825746 0
M  V30 560 C 54.7006 6.2107 -1.20226 0
M  V30 561 C 53.3646 6.51088 -1.4711 0
M  V30 562 H 52.6346 0.702496 0.235756 0
M  V30 563 H 55.2816 1.91259 -0.0961176 0
M  V30 564 H 53.5866 3.30113 2.11028 0
M  V30 565 H 55.2836 3.57011 1.82603 0
M  V30 566 H 51.8736 4.24883 0.563205 0
M  V30 567 H 56.0576 4.96178 -0.110234 0
M  V30 568 H 51.3136 6.02461 -1.04169 0
M  V30 569 H 55.4876 6.75057 -1.71086 0
M  V30 570 H 53.1146 7.28193 -2.18264 0
M  V30 571 N 54.6897 -0.239769 1.55765 0
M  V30 572 C 55.6367 -1.29696 1.90913 0
M  V30 573 C 56.6067 -1.47478 0.764164 0
M  V30 574 O 57.7917 -1.61345 1.01845 0
M  V30 575 C 54.9317 -2.64598 2.21544 0
M  V30 576 C 54.0447 -2.54765 3.48882 0
M  V30 577 C 53.1797 -3.82069 3.69049 0
M  V30 578 C 52.2187 -3.66883 4.89963 0
M  V30 579 N 51.3557 -4.86094 5.06614 0
M  V30 580 H 56.1957 -0.990224 2.81067 0
M  V30 581 H 53.7327 -0.477684 1.39128 0
M  V30 582 H 55.6907 -3.43132 2.3731 0
M  V30 583 H 54.3207 -2.93405 1.34585 0
M  V30 584 H 53.3727 -1.67763 3.41409 0
M  V30 585 H 54.6847 -2.39457 4.37563 0
M  V30 586 H 53.8387 -4.69046 3.84812 0
M  V30 587 H 52.5777 -4.00282 2.78614 0
M  V30 588 H 51.5827 -2.78289 4.74168 0
M  V30 589 H 52.8077 -3.50157 5.81865 0
M  V30 590 H 50.7537 -5.04655 4.19117 0
M  V30 591 H 50.6707 -4.73443 5.89396 0
M  V30 592 H 51.9387 -5.74549 5.26795 0
M  V30 593 N 56.1678 -1.49265 -0.50573 0
M  V30 594 C 57.4448 -1.49012 -1.26707 0
M  V30 595 C 57.8248 -0.215205 -2.1 0
M  V30 596 O 57.1728 0.802547 -2.13943 0
M  V30 597 C 57.3828 -2.7663 -2.12783 0
M  V30 598 C 58.7308 -3.25932 -2.72127 0
M  V30 599 O 59.7548 -2.77715 -2.23054 0
M  V30 600 O 58.6138 -4.09897 -3.61451 0
M  V30 601 H 55.7078 -0.596197 -0.57313 0
M  V30 602 H 58.2538 -1.61524 -0.52039 0
M  V30 603 H 57.0258 -3.60916 -1.5118 0
M  V30 604 H 56.6488 -2.66956 -2.94653 0
M  V30 605 N 57.6459 0.756429 -1.3826 0
M  V30 606 C 58.5759 1.88374 -1.37976 0
M  V30 607 C 59.5569 1.68311 -0.246082 0
M  V30 608 O 60.7419 1.88944 -0.44874 0
M  V30 609 C 57.8719 3.25864 -1.20125 0
M  V30 610 C 56.8259 3.60523 -2.30666 0
M  V30 611 C 56.1519 4.9672 -1.97923 0
M  V30 612 C 57.4519 3.65692 -3.72916 0
M  V30 613 H 59.1459 1.88869 -2.32312 0
M  V30 614 H 56.6919 0.907272 -1.11824 0
M  V30 615 H 58.6449 4.0438 -1.18552 0
M  V30 616 H 57.3689 3.25841 -0.222498 0
M  V30 617 H 56.0279 2.84324 -2.3142 0
M  V30 618 H 55.6759 4.93253 -0.985393 0
M  V30 619 H 55.3759 5.20878 -2.71955 0
M  V30 620 H 56.8999 5.77618 -1.97964 0
M  V30 621 H 58.3139 4.34328 -3.74208 0
M  V30 622 H 56.7109 4.01358 -4.4613 0
M  V30 623 H 57.7809 2.65987 -4.05436 0
M  V30 624 N 59.124 1.23083 0.984299 0
M  V30 625 C 60.072 1.00593 2.09723 0
M  V30 626 C 61.066 -0.0538014 1.69315 0
M  V30 627 O 62.272 0.0993719 1.79725 0
M  V30 628 H 58.647 0.30817 0.685956 0
M  V30 629 H 60.618 1.95012 2.2586 0
M  V30 630 C 59.367 0.609601 3.42314 0
M  V30 631 H 58.69 1.41675 3.73856 0
M  V30 632 H 60.13 0.491726 4.21139 0
M  V30 633 C 58.589 -0.681745 3.2993 0
M  V30 634 O 59.119 -1.73192 3.62446 0
M  V30 635 N 57.325 -0.656178 2.83095 0
M  V30 636 H 56.872 0.198759 2.56832 0
M  V30 637 H 56.83 -1.52044 2.75191 0
M  V30 638 N 60.6021 -1.18246 1.0419 0
M  V30 639 C 61.5351 -2.20746 0.578474 0
M  V30 640 C 62.5131 -1.57912 -0.387624 0
M  V30 641 O 63.6971 -1.86071 -0.301634 0
M  V30 642 C 60.8241 -3.38346 -0.154762 0
M  V30 643 C 59.8701 -4.19587 0.764782 0
M  V30 644 S 60.7031 -4.86014 2.24835 0
M  V30 645 C 61.8591 -6.07012 1.526 0
M  V30 646 H 62.0921 -2.59715 1.44691 0
M  V30 647 H 59.6251 -1.287 0.85297 0
M  V30 648 H 61.5831 -4.065 -0.571641 0
M  V30 649 H 60.2441 -2.97786 -0.999105 0
M  V30 650 H 59.4371 -5.03611 0.197976 0
M  V30 651 H 59.0391 -3.56818 1.12057 0
M  V30 652 H 61.3311 -6.72523 0.819733 0
M  V30 653 H 62.2741 -6.68202 2.34333 0
M  V30 654 H 62.6821 -5.55249 1.01779 0
M  V30 655 N 62.0802 -0.821533 -1.34494 0
M  V30 656 C 63.0282 -0.230702 -2.31453 0
M  V30 657 C 64.0222 0.627793 -1.57338 0
M  V30 658 O 65.2282 0.519288 -1.72347 0
M  V30 659 H 61.6032 -0.0558577 -0.749923 0
M  V30 660 H 63.5742 -1.06332 -2.78812 0
M  V30 661 C 62.3232 0.59391 -3.4259 0
M  V30 662 H 61.6462 -0.0573588 -3.99759 0
M  V30 663 H 63.0862 0.973446 -4.12674 0
M  V30 664 C 61.5452 1.76568 -2.86924 0
M  V30 665 O 62.0752 2.8638 -2.81691 0
M  V30 666 N 60.2812 1.58198 -2.43766 0
M  V30 667 H 59.8282 0.68872 -2.48222 0
M  V30 668 H 59.7862 2.36752 -2.06871 0
M  V30 669 N 63.5583 1.46682 -0.576371 0
M  V30 670 C 64.8043 2.02712 -0.0596221 0
M  V30 671 C 65.1373 1.44765 1.29448 0
M  V30 672 O 64.4123 0.610355 1.84675 0
M  V30 673 C 64.6953 3.60098 0.0129503 0
M  V30 674 C 64.5483 4.28441 -1.3696 0
M  V30 675 C 65.8673 4.34224 0.71678 0
M  V30 676 H 62.9863 0.736637 -0.0231407 0
M  V30 677 H 65.6283 1.74898 -0.742351 0
M  V30 678 H 63.7783 3.83926 0.594378 0
M  V30 679 H 65.4503 4.15896 -1.9957 0
M  V30 680 H 63.6933 3.8805 -1.93907 0
M  V30 681 H 64.3643 5.3716 -1.27135 0
M  V30 682 H 66.8403 4.15503 0.222908 0
M  V30 683 H 65.7163 5.43936 0.73657 0
M  V30 684 H 65.9773 4.04823 1.77682 0
M  V30 685 N 65.0364 0.313813 1.54444 0
M  V30 686 C 65.9844 -0.572171 2.25453 0
M  V30 687 C 66.9784 -1.12657 1.2651 0
M  V30 688 O 68.1844 -1.07573 1.44319 0
M  V30 689 H 64.5594 -0.203146 0.724041 0
M  V30 690 H 66.5304 0.0491145 2.9836 0
M  V30 691 C 65.2794 -1.72626 3.0182 0
M  V30 692 H 64.6024 -1.30891 3.77767 0
M  V30 693 H 66.0424 -2.32199 3.54767 0
M  V30 694 C 64.5014 -2.63806 2.09542 0
M  V30 695 O 65.0314 -3.65256 1.67185 0
M  V30 696 N 63.2374 -2.31824 1.75232 0
M  V30 697 H 62.7844 -1.49368 2.09873 0
M  V30 698 H 62.7424 -2.93095 1.13767 0
M  V30 699 N 66.5145 -1.57545 0.0417849 0
M  V30 700 C 67.7395 -1.97035 -0.647455 0
M  V30 701 C 68.1645 -0.918775 -1.64135 0
M  V30 702 O 67.5225 0.119006 -1.80909 0
M  V30 703 C 67.5705 -3.35609 -1.31905 0
M  V30 704 O 66.6745 -3.3287 -2.43457 0
M  V30 705 H 66.0155 -0.64211 -0.169086 0
M  V30 706 H 68.5455 -2.04318 0.107399 0
M  V30 707 H 68.5555 -3.72126 -1.67291 0
M  V30 708 H 67.2305 -4.11685 -0.590586 0
M  V30 709 H 65.8075 -3.08087 -2.10088 0
M  V30 710 N 67.9926 0.231505 -1.5589 0
M  V30 711 C 69.2396 0.957352 -1.78441 0
M  V30 712 C 69.5676 1.84726 -0.60882 0
M  V30 713 O 68.8226 1.91416 0.40725 0
M  V30 714 C 69.1216 1.83577 -3.0665 0
M  V30 715 C 68.7876 1.09993 -4.37278 0
M  V30 716 C 67.4496 0.896629 -4.72773 0
M  V30 717 C 69.8016 0.579558 -5.17968 0
M  V30 718 C 67.1296 0.160896 -5.86479 0
M  V30 719 C 69.4816 -0.142783 -6.32439 0
M  V30 720 C 68.1456 -0.357427 -6.66542 0
M  V30 721 H 67.4156 0.35032 -0.65296 0
M  V30 722 H 70.0626 0.226259 -1.90159 0
M  V30 723 H 68.3676 2.63441 -2.90011 0
M  V30 724 H 70.0646 2.39934 -3.21298 0
M  V30 725 H 66.6546 1.26835 -4.09403 0
M  V30 726 H 70.8386 0.724125 -4.90989 0
M  V30 727 H 66.0946 -0.0157293 -6.11398 0
M  V30 728 H 70.2686 -0.553559 -6.94196 0
M  V30 729 H 67.8956 -0.929466 -7.54497 0
M  V30 730 N 69.4707 1.49531 0.497807 0
M  V30 731 C 70.4027 1.62559 1.61578 0
M  V30 732 C 71.4157 0.508134 1.54667 0
M  V30 733 O 72.6047 0.780309 1.60541 0
M  V30 734 C 69.7047 1.56925 3.00379 0
M  V30 735 C 68.8777 2.84257 3.3244 0
M  V30 736 C 67.9367 2.71632 4.50669 0
M  V30 737 O 66.9627 3.4557 4.52294 0
M  V30 738 N 68.1647 1.83391 5.5077 0
M  V30 739 H 70.9297 2.58981 1.50828 0
M  V30 740 H 68.4907 1.4666 0.685743 0
M  V30 741 H 70.4827 1.46129 3.77397 0
M  V30 742 H 69.0527 0.683483 3.05037 0
M  V30 743 H 68.2727 3.09381 2.44289 0
M  V30 744 H 69.5607 3.68666 3.5066 0
M  V30 745 H 68.9587 1.22583 5.52259 0
M  V30 746 H 67.5157 1.78515 6.26878 0
M  V30 747 N 70.9488 -0.749086 1.3866 0
M  V30 748 C 72.3648 -1.05276 1.19955 0
M  V30 749 C 72.5648 -2.01435 0.05134 0
M  V30 750 O 71.6208 -2.45232 -0.60147 0
M  V30 751 C 72.9338 -1.62853 2.52783 0
M  V30 752 C 74.4818 -1.75002 2.59506 0
M  V30 753 C 74.9568 -2.35991 3.92521 0
M  V30 754 N 76.4478 -2.43416 3.94085 0
M  V30 755 C 77.1828 -2.91511 4.9377 0
M  V30 756 N 76.6788 -3.39608 6.03853 0
M  V30 757 N 78.4718 -2.90592 4.81157 0
M  V30 758 H 70.6228 -0.111066 2.12109 0
M  V30 759 H 72.8858 -0.111901 0.941373 0
M  V30 760 H 72.5918 -0.99664 3.37283 0
M  V30 761 H 72.4658 -2.61854 2.715 0
M  V30 762 H 74.8528 -2.37317 1.75398 0
M  V30 763 H 74.9338 -0.74693 2.44652 0
M  V30 764 H 74.5778 -1.74308 4.77053 0
M  V30 765 H 74.5078 -3.3695 4.04688 0
M  V30 766 H 76.9988 -2.09405 3.14576 0
M  V30 767 H 77.3118 -3.74775 6.75843 0
M  V30 768 H 75.6568 -3.37653 6.07466 0
M  V30 769 H 78.8478 -2.52332 3.94267 0
M  V30 770 H 79.0208 -3.27762 5.58996 0
M  V30 771 N 72.4269 -1.23603 -0.977757 0
M  V30 772 C 73.3739 -1.01954 -2.07061 0
M  V30 773 C 74.3439 0.0638697 -1.65977 0
M  V30 774 O 75.5289 -0.0887624 -1.90593 0
M  V30 775 C 72.6689 -0.619658 -3.39491 0
M  V30 776 C 71.7819 -1.77547 -3.93829 0
M  V30 777 C 70.9169 -1.32212 -5.14484 0
M  V30 778 C 69.9559 -2.44852 -5.60994 0
M  V30 779 N 69.0929 -2.00456 -6.72876 0
M  V30 780 H 73.9329 -1.95495 -2.24913 0
M  V30 781 H 71.4699 -0.973861 -1.10247 0
M  V30 782 H 73.4279 -0.368898 -4.15566 0
M  V30 783 H 72.0579 0.278752 -3.21594 0
M  V30 784 H 71.1099 -2.14016 -3.14486 0
M  V30 785 H 72.4219 -2.62219 -4.24314 0
M  V30 786 H 71.5759 -1.02965 -5.97899 0
M  V30 787 H 70.3149 -0.445808 -4.85658 0
M  V30 788 H 69.3199 -2.74871 -4.76157 0
M  V30 789 H 70.5449 -3.33024 -5.91837 0
M  V30 790 H 68.4909 -1.15208 -6.45804 0
M  V30 791 H 68.4079 -2.78687 -7.02759 0
M  V30 792 H 69.6759 -1.7432 -7.59758 0
M  V30 793 N 73.905 1.17692 -1.04816 0
M  V30 794 C 75.152 1.87859 -0.75599 0
M  V30 795 C 75.48 1.80812 0.716752 0
M  V30 796 O 74.735 1.20819 1.53952 0
M  V30 797 C 75.034 3.37462 -1.17703 0
M  V30 798 C 74.7 3.64713 -2.65133 0
M  V30 799 C 73.362 3.71859 -3.05408 0
M  V30 800 C 75.714 3.76492 -3.60421 0
M  V30 801 C 73.042 3.88271 -4.39843 0
M  V30 802 C 75.394 3.94421 -4.94585 0
M  V30 803 C 74.058 3.99806 -5.3452 0
M  V30 804 H 73.328 0.687425 -0.276636 0
M  V30 805 H 75.975 1.39255 -1.31455 0
M  V30 806 H 74.28 3.88097 -0.537395 0
M  V30 807 H 75.977 3.90109 -0.928218 0
M  V30 808 H 72.567 3.59772 -2.32942 0
M  V30 809 H 76.751 3.70295 -3.30447 0
M  V30 810 H 72.007 3.90687 -4.70291 0
M  V30 811 H 76.181 4.02477 -5.68318 0
M  V30 812 H 73.808 4.12276 -6.38696 0
M  V30 813 N 75.3831 0.828654 1.34056 0
M  V30 814 C 76.6291 0.42008 1.98402 0
M  V30 815 C 76.9621 -1.01564 1.65525 0
M  V30 816 O 76.2371 -1.70834 0.929831 0
M  V30 817 C 76.5201 0.62927 3.54559 0
M  V30 818 C 76.3731 2.11152 3.97159 0
M  V30 819 C 77.6921 0.0688756 4.40046 0
M  V30 820 H 74.8111 0.154104 0.720709 0
M  V30 821 H 77.4531 1.04228 1.5886 0
M  V30 822 H 75.6031 0.0996418 3.88372 0
M  V30 823 H 77.2751 2.70522 3.73651 0
M  V30 824 H 75.5181 2.59985 3.47261 0
M  V30 825 H 76.1891 2.20868 5.05887 0
M  V30 826 H 78.6651 0.521458 4.1282 0
M  V30 827 H 77.5411 0.245006 5.48353 0
M  V30 828 H 77.8021 -1.0266 4.30015 0
M  V30 829 N 76.8612 -1.46375 0.584142 0
M  V30 830 C 77.8092 -2.32042 -0.161047 0
M  V30 831 C 78.8032 -1.44569 -0.882966 0
M  V30 832 O 80.0092 -1.61186 -0.801191 0
M  V30 833 H 76.3842 -0.748659 -0.0708033 0
M  V30 834 H 78.3552 -2.92704 0.580269 0
M  V30 835 C 77.1042 -3.27762 -1.1605 0
M  V30 836 H 76.4272 -3.95051 -0.614419 0
M  V30 837 H 77.8672 -3.90481 -1.65228 0
M  V30 838 C 76.3262 -2.53218 -2.22221 0
M  V30 839 O 76.8562 -2.29628 -3.29597 0
M  V30 840 N 75.0622 -2.13756 -1.96868 0
M  V30 841 H 74.6092 -2.33142 -1.09557 0
M  V30 842 H 74.5672 -1.642 -2.68115 0
M  V30 843 N 78.3393 -0.321999 -1.54275 0
M  V30 844 C 79.2493 0.553631 -2.27974 0
M  V30 845 C 80.2653 1.13054 -1.32268 0
M  V30 846 O 81.4413 1.15084 -1.6528 0
M  V30 847 C 78.5063 1.69927 -3.02201 0
M  V30 848 C 77.5673 1.15433 -4.1349 0
M  V30 849 C 76.8003 2.24537 -4.84168 0
M  V30 850 O 77.0233 3.44852 -4.5435 0
M  V30 851 O 75.9573 1.90044 -5.7111 0
M  V30 852 H 79.7833 -0.0448345 -3.03667 0
M  V30 853 H 77.3683 -0.0877418 -1.49142 0
M  V30 854 H 79.2503 2.3663 -3.48689 0
M  V30 855 H 77.9253 2.28395 -2.29385 0
M  V30 856 H 76.8323 0.452436 -3.71354 0
M  V30 857 H 78.1653 0.614805 -4.88345 0
M  V30 858 N 79.8174 1.5752 -0.0501392 0
M  V30 859 C 81.0634 1.92936 0.624798 0
M  V30 860 C 81.3964 0.928685 1.70555 0
M  V30 861 O 80.6714 -0.0454779 1.94447 0
M  V30 862 C 80.9544 3.38737 1.22185 0
M  V30 863 C 80.8074 4.49552 0.149218 0
M  V30 864 C 82.1264 3.84913 2.13378 0
M  V30 865 H 79.2454 0.701604 0.225657 0
M  V30 866 H 81.8874 1.89671 -0.111693 0
M  V30 867 H 80.0374 3.4165 1.84953 0
M  V30 868 H 81.7094 4.58768 -0.482648 0
M  V30 869 H 79.9524 4.30638 -0.522841 0
M  V30 870 H 80.6234 5.48653 0.606966 0
M  V30 871 H 83.0994 3.8387 1.60572 0
M  V30 872 H 81.9754 4.87584 2.52097 0
M  V30 873 H 82.2364 3.21611 3.03346 0
M  V30 874 N 81.2955 -0.223234 1.56011 0
M  V30 875 C 82.7115 -0.572856 1.48965 0
M  V30 876 C 82.9115 -1.87225 0.74492 0
M  V30 877 O 81.9675 -2.50899 0.283896 0
M  V30 878 C 83.2805 -0.653646 2.9351 0
M  V30 879 C 84.8285 -0.744386 3.0402 0
M  V30 880 C 85.3035 -0.856535 4.49919 0
M  V30 881 N 86.7945 -0.9208 4.53955 0
M  V30 882 C 87.5295 -1.02726 5.64123 0
M  V30 883 N 87.0255 -1.09777 6.84047 0
M  V30 884 N 88.8185 -1.06226 5.51971 0
M  V30 885 H 80.9695 0.629462 2.02858 0
M  V30 886 H 83.2325 0.220621 0.921971 0
M  V30 887 H 82.9385 0.231518 3.50937 0
M  V30 888 H 82.8125 -1.51781 3.45315 0
M  V30 889 H 85.1995 -1.61999 2.46658 0
M  V30 890 H 85.2805 0.14541 2.55386 0
M  V30 891 H 84.9245 0.0146069 5.07898 0
M  V30 892 H 84.8545 -1.76172 4.96257 0
M  V30 893 H 87.3455 -0.876694 3.6759 0
M  V30 894 H 87.6585 -1.17872 7.63758 0
M  V30 895 H 86.0035 -1.06693 6.86762 0
M  V30 896 H 89.1945 -1.00382 4.5721 0
M  V30 897 H 89.3675 -1.14177 6.37862 0
M  V30 898 N 82.7736 -1.49793 -0.48987 0
M  V30 899 C 84.1896 -1.36803 -0.822022 0
M  V30 900 C 84.3896 -0.409652 -1.97292 0
M  V30 901 O 83.4456 0.154614 -2.52026 0
M  V30 902 C 84.7586 -2.77768 -1.15175 0
M  V30 903 C 86.3066 -2.86549 -1.25931 0
M  V30 904 C 86.7816 -4.28306 -1.62228 0
M  V30 905 N 88.2726 -4.31169 -1.69256 0
M  V30 906 C 89.0076 -5.37832 -1.98807 0
M  V30 907 N 88.5036 -6.54726 -2.26507 0
M  V30 908 N 90.2966 -5.25258 -2.00152 0
M  V30 909 H 82.4476 -2.10691 0.268881 0
M  V30 910 H 84.7106 -0.946241 0.057728 0
M  V30 911 H 84.4166 -3.49648 -0.379335 0
M  V30 912 H 84.2906 -3.13836 -2.09253 0
M  V30 913 H 86.6776 -2.14899 -2.02243 0
M  V30 914 H 86.7586 -2.54049 -0.298776 0
M  V30 915 H 86.4026 -5.00486 -0.864622 0
M  V30 916 H 86.3326 -4.58279 -2.594 0
M  V30 917 H 88.8236 -3.4687 -1.49965 0
M  V30 918 H 89.1366 -7.31833 -2.48276 0
M  V30 919 H 87.4816 -6.57933 -2.23939 0
M  V30 920 H 90.6726 -4.32938 -1.77996 0
M  V30 921 H 90.8456 -6.08476 -2.22848 0
M  V30 922 N 84.2517 0.741722 -1.39055 0
M  V30 923 C 85.4917 1.51385 -1.37338 0
M  V30 924 C 85.8557 1.91972 0.0330513 0
M  V30 925 O 87.0567 2.68229 0.175174 0
M  V30 926 C 85.3277 2.72481 -2.31276 0
M  V30 927 S 86.8867 3.62211 -2.47687 0
M  V30 928 H 83.7047 0.517906 -0.487129 0
M  V30 929 H 86.3067 0.86969 -1.7509 0
M  V30 930 H 85.0107 2.40793 -3.32336 0
M  V30 931 H 84.5417 3.41832 -1.94716 0
M  V30 932 H 86.5567 4.65812 -1.70978 0
M  V30 933 N 85.7298 1.2412 0.971189 0
M  V30 934 C 86.6398 1.04747 2.09917 0
M  V30 935 C 87.6558 -0.0107162 1.73997 0
M  V30 936 O 88.8318 0.186714 2.00533 0
M  V30 937 C 85.8968 0.650828 3.40537 0
M  V30 938 C 84.9578 1.7851 3.90426 0
M  V30 939 C 84.1908 1.40729 5.14812 0
M  V30 940 O 84.4138 0.29557 5.69634 0
M  V30 941 O 83.3478 2.23168 5.58999 0
M  V30 942 H 87.1738 1.99304 2.29154 0
M  V30 943 H 84.7588 1.02908 1.08307 0
M  V30 944 H 86.6408 0.440992 4.19086 0
M  V30 945 H 85.3158 -0.265649 3.22608 0
M  V30 946 H 84.2228 2.04966 3.12953 0
M  V30 947 H 85.5558 2.68023 4.12825 0
M  V30 948 N 87.2079 -1.17134 1.05439 0
M  V30 949 C 88.4329 -1.91913 0.786396 0
M  V30 950 C 88.8579 -1.7643 -0.652234 0
M  V30 951 O 88.2159 -1.08372 -1.45345 0
M  V30 952 C 88.2639 -3.40921 1.17497 0
M  V30 953 O 87.3679 -4.11244 0.308589 0
M  V30 954 H 86.7089 -0.598215 0.288158 0
M  V30 955 H 89.2389 -1.48457 1.4079 0
M  V30 956 H 89.2489 -3.91668 1.14281 0
M  V30 957 H 87.9239 -3.5151 2.22292 0
M  V30 958 H 86.5009 -3.70731 0.40157 0
M  V30 959 N 88.686 -0.835752 -1.33615 0
M  V30 960 C 89.616 -0.281739 -2.31794 0
M  V30 961 C 90.597 0.608833 -1.58831 0
M  V30 962 O 91.782 0.533035 -1.86741 0
M  V30 963 C 88.912 0.546612 -3.42971 0
M  V30 964 C 87.866 -0.247904 -4.27281 0
M  V30 965 C 87.192 0.704001 -5.30045 0
M  V30 966 C 88.492 -1.46324 -5.01385 0
M  V30 967 H 90.186 -1.10206 -2.78379 0
M  V30 968 H 87.732 -0.531388 -1.33837 0
M  V30 969 H 89.685 0.944467 -4.1068 0
M  V30 970 H 88.409 1.40011 -2.95067 0
M  V30 971 H 87.068 -0.627281 -3.61194 0
M  V30 972 H 86.716 1.55381 -4.78399 0
M  V30 973 H 86.416 0.176524 -5.87335 0
M  V30 974 H 87.94 1.09944 -6.0062 0
M  V30 975 H 89.354 -1.13871 -5.61877 0
M  V30 976 H 87.751 -1.92728 -5.6831 0
M  V30 977 H 88.821 -2.23467 -4.30338 0
M  V30 978 N 90.1641 1.46063 -0.591896 0
M  V30 979 C 91.0741 2.34192 0.13831 0
M  V30 980 C 92.0901 1.50305 0.876608 0
M  V30 981 O 93.2661 1.8315 0.837728 0
M  V30 982 C 90.3311 3.27656 1.13326 0
M  V30 983 C 89.3921 4.27445 0.39863 0
M  V30 984 C 88.6251 5.16443 1.34618 0
M  V30 985 O 88.8481 5.08553 2.58321 0
M  V30 986 O 87.7821 5.95843 0.851768 0
M  V30 987 H 91.6081 2.98002 -0.58552 0
M  V30 988 H 89.1931 1.45188 -0.352239 0
M  V30 989 H 91.0751 3.85291 1.70671 0
M  V30 990 H 89.7501 2.6643 1.83839 0
M  V30 991 H 88.6571 3.73471 -0.216895 0
M  V30 992 H 89.9901 4.91482 -0.265709 0
M  V30 993 N 91.6422 0.330177 1.54103 0
M  V30 994 C 93.0582 -0.0222371 1.59585 0
M  V30 995 C 93.2582 -1.49902 1.34654 0
M  V30 996 O 92.3142 -2.25592 1.13421 0
M  V30 997 C 93.6272 0.401932 2.98002 0
M  V30 998 C 95.1752 0.353145 3.11001 0
M  V30 999 C 95.6502 0.752576 4.51775 0
M  V30 1000 N 97.1412 0.706239 4.57784 0
M  V30 1001 C 97.8762 0.987417 5.64834 0
M  V30 1002 N 97.3722 1.33607 6.79795 0
M  V30 1003 N 99.1652 0.91254 5.54643 0
M  V30 1004 H 91.3162 1.29228 1.68564 0
M  V30 1005 H 93.5792 0.525906 0.78875 0
M  V30 1006 H 93.2852 1.4311 3.21267 0
M  V30 1007 H 93.1592 -0.229699 3.765 0
M  V30 1008 H 95.5462 -0.666822 2.87467 0
M  V30 1009 H 95.6272 1.0198 2.34593 0
M  V30 1010 H 95.2712 1.77049 4.76042 0
M  V30 1011 H 95.2012 0.0635409 5.26562 0
M  V30 1012 H 97.6922 0.44889 3.75224 0
M  V30 1013 H 98.0052 1.53582 7.57385 0
M  V30 1014 H 96.3502 1.37439 6.81275 0
M  V30 1015 H 99.5412 0.639601 4.6371 0
M  V30 1016 H 99.7142 1.13503 6.37982 0
M  V30 1017 N 93.1203 -1.57491 0.0584922 0
M  V30 1018 C 94.3693 -1.92155 -0.613146 0
M  V30 1019 C 94.6823 -0.939334 -1.71569 0
M  V30 1020 O 95.8883 -1.17829 -2.44599 0
M  V30 1021 C 94.3443 -3.41303 -1.14195 0
M  V30 1022 C 93.9523 -4.47944 -0.0711265 0
M  V30 1023 C 95.6963 -3.84988 -1.78841 0
M  V30 1024 C 93.6033 -5.88212 -0.613225 0
M  V30 1025 H 92.5333 -0.717162 -0.232796 0
M  V30 1026 H 95.1843 -1.83049 0.12857 0
M  V30 1027 H 93.5663 -3.45437 -1.93621 0
M  V30 1028 H 94.7403 -4.55408 0.702836 0
M  V30 1029 H 93.0553 -4.13644 0.478313 0
M  V30 1030 H 95.6523 -4.87159 -2.20408 0
M  V30 1031 H 95.9953 -3.21632 -2.64308 0
M  V30 1032 H 96.5283 -3.83401 -1.06059 0
M  V30 1033 H 93.2673 -6.55183 0.203978 0
M  V30 1034 H 92.7873 -5.84294 -1.35501 0
M  V30 1035 H 94.4663 -6.37687 -1.09383 0
M  V30 1036 N 94.5984 0.214957 -1.56127 0
M  V30 1037 C 95.5284 1.2695 -1.95974 0
M  V30 1038 C 96.5094 1.48539 -0.828868 0
M  V30 1039 O 97.6944 1.60611 -1.09168 0
M  V30 1040 C 94.8244 2.61794 -2.28214 0
M  V30 1041 C 93.7784 2.54851 -3.43853 0
M  V30 1042 C 93.1044 3.93785 -3.61715 0
M  V30 1043 C 94.4044 2.09065 -4.78632 0
M  V30 1044 H 96.0984 0.93846 -2.84312 0
M  V30 1045 H 93.6444 0.449996 -1.36788 0
M  V30 1046 H 95.5974 3.35731 -2.54682 0
M  V30 1047 H 94.3214 2.96599 -1.36736 0
M  V30 1048 H 92.9804 1.8337 -3.17444 0
M  V30 1049 H 92.6284 4.25908 -2.67602 0
M  V30 1050 H 92.3284 3.90019 -4.39498 0
M  V30 1051 H 93.8524 4.69374 -3.90539 0
M  V30 1052 H 95.2664 2.7275 -5.04262 0
M  V30 1053 H 93.6634 2.16346 -5.59745 0
M  V30 1054 H 94.7334 1.04315 -4.73547 0
M  V30 1055 N 96.0765 1.50051 0.48192 0
M  V30 1056 C 97.4925 1.37237 0.814756 0
M  V30 1057 C 97.6925 0.420109 1.97072 0
M  V30 1058 O 96.7485 -0.141246 2.52105 0
M  V30 1059 C 98.0615 2.78375 1.13701 0
M  V30 1060 C 99.6095 2.87213 1.2441 0
M  V30 1061 C 100.084 4.29161 1.59954 0
M  V30 1062 N 101.575 4.32061 1.66967 0
M  V30 1063 C 102.31 5.38879 1.95952 0
M  V30 1064 N 101.806 6.55918 2.23031 0
M  V30 1065 N 103.599 5.26312 1.97363 0
M  V30 1066 H 95.7505 2.10546 -0.28005 0
M  V30 1067 H 98.0135 0.945921 -0.0627454 0
M  V30 1068 H 97.7195 3.49845 0.360787 0
M  V30 1069 H 97.5935 3.14941 2.07586 0
M  V30 1070 H 99.9805 2.15969 2.01101 0
M  V30 1071 H 100.061 2.54204 0.285299 0
M  V30 1072 H 99.7055 5.00938 0.838067 0
M  V30 1073 H 99.6355 4.59648 2.56966 0
M  V30 1074 H 102.126 3.47661 1.48123 0
M  V30 1075 H 102.439 7.33139 2.44391 0
M  V30 1076 H 100.784 6.59112 2.20447 0
M  V30 1077 H 103.975 4.33876 1.75697 0
M  V30 1078 H 104.148 6.09649 2.19618 0
M  V30 1079 N 97.5546 -0.734337 1.39446 0
M  V30 1080 C 98.8016 -1.49391 1.36706 0
M  V30 1081 C 99.1296 -1.94465 -0.0367813 0
M  V30 1082 O 98.3846 -1.67154 -1.01774 0
M  V30 1083 C 98.6836 -2.74711 2.28623 0
M  V30 1084 C 98.3496 -2.48501 3.76242 0
M  V30 1085 C 97.0116 -2.41062 4.16464 0
M  V30 1086 C 99.3636 -2.26098 4.69606 0
M  V30 1087 C 96.6916 -2.09262 5.48112 0
M  V30 1088 C 99.0436 -1.95814 6.01531 0
M  V30 1089 C 97.7076 -1.86845 6.40816 0
M  V30 1090 H 96.9776 -0.546661 0.500243 0
M  V30 1091 H 99.6246 -0.842788 1.71957 0
M  V30 1092 H 97.9296 -3.44569 1.86492 0
M  V30 1093 H 99.6266 -3.32741 2.23796 0
M  V30 1094 H 96.2166 -2.55169 3.44364 0
M  V30 1095 H 100.401 -2.30812 4.39363 0
M  V30 1096 H 95.6566 -2.00841 5.77471 0
M  V30 1097 H 99.8306 -1.77488 6.73403 0
M  V30 1098 H 97.4576 -1.6197 7.42745 0
M  V30 1099 N 99.0327 -1.24633 -0.964593 0
M  V30 1100 C 99.9627 -1.06611 -2.07741 0
M  V30 1101 C 100.944 0.0218666 -1.70086 0
M  V30 1102 O 102.129 -0.145793 -1.93652 0
M  V30 1103 C 99.2587 -0.673444 -3.40708 0
M  V30 1104 C 98.2127 -1.71054 -3.92332 0
M  V30 1105 C 97.5387 -1.17285 -5.21678 0
M  V30 1106 C 98.8387 -3.10718 -4.19824 0
M  V30 1107 H 100.533 -1.99693 -2.23076 0
M  V30 1108 H 98.0787 -0.96152 -1.07195 0
M  V30 1109 H 100.032 -0.534345 -4.17998 0
M  V30 1110 H 98.7557 0.293073 -3.25282 0
M  V30 1111 H 97.4147 -1.83791 -3.17201 0
M  V30 1112 H 97.0627 -0.196847 -5.02615 0
M  V30 1113 H 96.7627 -1.86592 -5.57187 0
M  V30 1114 H 98.2867 -1.04593 -6.01575 0
M  V30 1115 H 99.7007 -3.01192 -4.87808 0
M  V30 1116 H 98.0977 -3.77406 -4.66567 0
M  V30 1117 H 99.1677 -3.58524 -3.26479 0
M  V30 1118 N 100.511 1.16574 -1.06058 0
M  V30 1119 C 101.421 2.2452 -0.680282 0
M  V30 1120 C 102.437 1.71348 0.302604 0
M  V30 1121 O 103.613 2.00822 0.152513 0
M  V30 1122 C 100.678 3.46629 -0.0700315 0
M  V30 1123 C 99.7388 4.14849 -1.10448 0
M  V30 1124 C 98.9718 5.31129 -0.523256 0
M  V30 1125 O 99.1948 5.66514 0.664709 0
M  V30 1126 O 98.1288 5.88526 -1.26179 0
M  V30 1127 H 101.955 2.59355 -1.58015 0
M  V30 1128 H 99.5398 1.24043 -0.832694 0
M  V30 1129 H 101.422 4.20543 0.268667 0
M  V30 1130 H 100.097 3.13573 0.803353 0
M  V30 1131 H 99.0038 3.42916 -1.49532 0
M  V30 1132 H 100.337 4.51954 -1.94931 0
M  V30 1133 N 101.989 0.842826 1.3317 0
M  V30 1134 C 103.266 0.362216 1.92217 0
M  V30 1135 C 103.646 -1.15289 1.76838 0
M  V30 1136 O 102.994 -1.96914 1.15919 0
M  V30 1137 C 103.204 0.813495 3.39387 0
M  V30 1138 C 104.552 0.823804 4.16532 0
M  V30 1139 O 105.576 0.757358 3.48055 0
M  V30 1140 O 104.435 0.915193 5.38782 0
M  V30 1141 H 101.529 0.103317 0.820521 0
M  V30 1142 H 104.075 0.928942 1.42017 0
M  V30 1143 H 102.847 1.85624 3.4447 0
M  V30 1144 H 102.47 0.223561 3.96971 0
M  V30 1145 N 103.467 -1.45747 0.599634 0
M  V30 1146 C 104.377 -2.34262 -0.125888 0
M  V30 1147 C 105.393 -1.50768 -0.868625 0
M  V30 1148 O 106.569 -1.83592 -0.828003 0
M  V30 1149 C 103.634 -3.28252 -1.11587 0
M  V30 1150 C 102.695 -4.27651 -0.375956 0
M  V30 1151 C 101.928 -5.1715 -1.31877 0
M  V30 1152 O 102.151 -5.09916 -2.55621 0
M  V30 1153 O 101.085 -5.96286 -0.820157 0
M  V30 1154 H 104.911 -2.97688 0.601315 0
M  V30 1155 H 102.496 -1.44999 0.359934 0
M  V30 1156 H 104.378 -3.86191 -1.68626 0
M  V30 1157 H 103.053 -2.67401 -1.82424 0
M  V30 1158 H 101.96 -3.7335 0.236698 0
M  V30 1159 H 103.293 -4.91334 0.29177 0
M  V30 1160 N 104.945 -0.338344 -1.53925 0
M  V30 1161 C 105.878 0.563758 -2.21127 0
M  V30 1162 C 106.856 1.10433 -1.19345 0
M  V30 1163 O 108.04 1.16557 -1.48144 0
M  V30 1164 C 105.167 1.77505 -2.88461 0
M  V30 1165 C 104.213 1.3644 -4.04087 0
M  V30 1166 S 105.046 0.388593 -5.34088 0
M  V30 1167 C 106.202 1.60683 -6.04923 0
M  V30 1168 H 106.435 -0.00704546 -2.97299 0
M  V30 1169 H 103.968 -0.122418 -1.53914 0
M  V30 1170 H 105.926 2.46999 -3.27875 0
M  V30 1171 H 104.587 2.31706 -2.12064 0
M  V30 1172 H 103.78 2.26739 -4.50117 0
M  V30 1173 H 103.382 0.748998 -3.66423 0
M  V30 1174 H 105.674 2.54209 -6.28 0
M  V30 1175 H 106.617 1.18842 -6.98056 0
M  V30 1176 H 107.025 1.80052 -5.35015 0
M  V30 1177 N 106.423 1.57458 -0.0668435 0
M  V30 1178 C 107.355 2.09413 0.931601 0
M  V30 1179 C 108.368 1.02522 1.26464 0
M  V30 1180 O 109.557 1.30049 1.22269 0
M  V30 1181 C 106.657 2.53537 2.24882 0
M  V30 1182 C 105.83 3.83944 2.09537 0
M  V30 1183 C 104.889 4.14214 3.2452 0
M  V30 1184 O 103.915 4.83891 2.9973 0
M  V30 1185 N 105.117 3.67367 4.49469 0
M  V30 1186 H 107.882 2.95699 0.488048 0
M  V30 1187 H 105.443 1.61462 0.119009 0
M  V30 1188 H 107.435 2.70853 3.00701 0
M  V30 1189 H 106.005 1.72415 2.60753 0
M  V30 1190 H 105.225 3.76057 1.18215 0
M  V30 1191 H 106.513 4.69312 1.96529 0
M  V30 1192 H 105.911 3.11068 4.72497 0
M  V30 1193 H 104.468 3.89891 5.2233 0
M  V30 1194 N 107.901 -0.206675 1.56239 0
M  V30 1195 C 108.849 -1.27571 1.94495 0
M  V30 1196 C 109.843 -1.47737 0.828862 0
M  V30 1197 O 111.049 -1.48735 1.0138 0
M  V30 1198 H 107.424 -0.428029 0.6183 0
M  V30 1199 H 109.395 -0.925961 2.8367 0
M  V30 1200 C 108.144 -2.61568 2.29079 0
M  V30 1201 H 107.467 -2.46863 3.14482 0
M  V30 1202 H 108.907 -3.35144 2.5972 0
M  V30 1203 C 107.366 -3.17695 1.12123 0
M  V30 1204 O 107.896 -3.99801 0.390153 0
M  V30 1205 N 106.102 -2.76276 0.901097 0
M  V30 1206 H 105.649 -2.09613 1.49733 0
M  V30 1207 H 105.607 -3.1417 0.120319 0
M  V30 1208 N 109.379 -1.50304 -0.473955 0
M  V30 1209 C 110.289 -1.7174 -1.5982 0
M  V30 1210 C 111.305 -0.600457 -1.63311 0
M  V30 1211 O 112.481 -0.878441 -1.81233 0
M  V30 1212 C 109.546 -1.80427 -2.96052 0
M  V30 1213 C 108.607 -3.04148 -3.02972 0
M  V30 1214 C 107.84 -3.12411 -4.32706 0
M  V30 1215 O 108.063 -2.27542 -5.23049 0
M  V30 1216 O 106.997 -4.05113 -4.45159 0
M  V30 1217 H 110.823 -2.67035 -1.44657 0
M  V30 1218 H 108.408 -1.34366 -0.653148 0
M  V30 1219 H 110.29 -1.88338 -3.7697 0
M  V30 1220 H 108.965 -0.883156 -3.11419 0
M  V30 1221 H 107.872 -3.0174 -2.21142 0
M  V30 1222 H 109.205 -3.95829 -2.92541 0
M  V30 1223 N 110.857 0.726932 -1.39834 0
M  V30 1224 C 112.106 1.48214 -1.36805 0
M  V30 1225 C 112.419 1.95576 0.0305291 0
M  V30 1226 O 113.625 2.7088 0.183417 0
M  V30 1227 C 112.081 2.67854 -2.40379 0
M  V30 1228 C 111.689 2.27408 -3.85992 0
M  V30 1229 C 113.433 3.45641 -2.46439 0
M  V30 1230 C 111.34 3.43819 -4.81189 0
M  V30 1231 H 110.27 0.556606 -0.508631 0
M  V30 1232 H 112.921 0.792216 -1.65518 0
M  V30 1233 H 111.303 3.3896 -2.04749 0
M  V30 1234 H 112.477 1.63795 -4.30706 0
M  V30 1235 H 110.792 1.62692 -3.83302 0
M  V30 1236 H 113.389 4.32244 -3.14753 0
M  V30 1237 H 113.732 3.88669 -1.49139 0
M  V30 1238 H 114.265 2.8157 -2.81004 0
M  V30 1239 H 111.004 3.05834 -5.79781 0
M  V30 1240 H 110.524 4.06385 -4.41148 0
M  V30 1241 H 112.203 4.10043 -5.00474 0
M  V30 1242 N 112.336 1.25143 0.95797 0
M  V30 1243 C 113.582 1.09855 1.70469 0
M  V30 1244 C 113.915 -0.360187 1.90831 0
M  V30 1245 O 113.19 -1.26568 1.47685 0
M  V30 1246 C 113.473 1.8497 3.08963 0
M  V30 1247 C 113.326 3.38652 2.96032 0
M  V30 1248 C 114.645 1.63016 4.08795 0
M  V30 1249 H 111.764 0.400465 0.618706 0
M  V30 1250 H 114.406 1.53933 1.11376 0
M  V30 1251 H 112.556 1.47505 3.59409 0
M  V30 1252 H 114.228 3.85772 2.52938 0
M  V30 1253 H 112.471 3.66534 2.32025 0
M  V30 1254 H 113.142 3.8642 3.94187 0
M  V30 1255 H 115.618 1.95625 3.67247 0
M  V30 1256 H 114.494 2.18015 5.03747 0
M  V30 1257 H 114.755 0.570692 4.38401 0
M  V30 1258 N 113.814 -1.1601 1.06675 0
M  V30 1259 C 115.06 -1.86909 0.786945 0
M  V30 1260 C 115.393 -1.81717 -0.685018 0
M  V30 1261 O 114.668 -1.23551 -1.50218 0
M  V30 1262 C 114.951 -3.36313 1.28707 0
M  V30 1263 C 114.804 -3.50175 2.82308 0
M  V30 1264 C 116.123 -4.3084 0.898071 0
M  V30 1265 H 113.242 -0.678677 0.287343 0
M  V30 1266 H 115.884 -1.36336 1.32334 0
M  V30 1267 H 114.034 -3.79513 0.830768 0
M  V30 1268 H 115.706 -3.15886 3.36175 0
M  V30 1269 H 113.949 -2.91959 3.20847 0
M  V30 1270 H 114.62 -4.55116 3.12368 0
M  V30 1271 H 117.096 -3.95561 1.29114 0
M  V30 1272 H 115.972 -5.33876 1.27543 0
M  V30 1273 H 116.233 -4.41662 -0.196651 0
M  V30 1274 N 115.292 -0.849877 -1.32721 0
M  V30 1275 C 116.224 -0.248332 -2.27851 0
M  V30 1276 C 117.237 0.577218 -1.52224 0
M  V30 1277 O 118.426 0.402489 -1.73903 0
M  V30 1278 C 115.526 0.668107 -3.32249 0
M  V30 1279 C 114.699 -0.120534 -4.37234 0
M  V30 1280 C 113.758 0.720932 -5.21238 0
M  V30 1281 O 112.784 0.156166 -5.68986 0
M  V30 1282 N 113.986 2.03647 -5.43607 0
M  V30 1283 H 116.751 -1.06575 -2.80111 0
M  V30 1284 H 114.312 -0.709395 -1.45531 0
M  V30 1285 H 116.304 1.23627 -3.85355 0
M  V30 1286 H 114.874 1.38621 -2.80184 0
M  V30 1287 H 114.094 -0.870108 -3.84477 0
M  V30 1288 H 115.382 -0.662406 -5.0447 0
M  V30 1289 H 114.78 2.51871 -5.06535 0
M  V30 1290 H 113.337 2.55287 -5.99727 0
M  V30 1291 N 116.77 1.45427 -0.607355 0
M  V30 1292 C 117.7 2.3329 0.0989352 0
M  V30 1293 C 118.681 1.46816 0.859007 0
M  V30 1294 O 119.866 1.75588 0.829604 0
M  V30 1295 C 116.996 3.29518 1.09705 0
M  V30 1296 C 115.95 4.25626 0.450206 0
M  V30 1297 C 115.276 5.11542 1.55655 0
M  V30 1298 C 116.576 5.18505 -0.628455 0
M  V30 1299 H 118.27 2.92595 -0.634716 0
M  V30 1300 H 115.816 1.40696 -0.306681 0
M  V30 1301 H 117.769 3.89855 1.59971 0
M  V30 1302 H 116.493 2.68372 1.86129 0
M  V30 1303 H 115.152 3.66586 -0.0315886 0
M  V30 1304 H 114.8 4.46765 2.31107 0
M  V30 1305 H 114.5 5.76647 1.12925 0
M  V30 1306 H 116.024 5.74748 2.06148 0
M  V30 1307 H 117.438 5.72916 -0.209877 0
M  V30 1308 H 115.835 5.92085 -0.977489 0
M  V30 1309 H 116.905 4.60948 -1.50514 0
M  V30 1310 N 118.248 0.346503 1.53744 0
M  V30 1311 C 119.178 -0.501193 2.28058 0
M  V30 1312 C 120.159 -1.10014 1.29734 0
M  V30 1313 O 121.344 -1.12097 1.58581 0
M  V30 1314 C 118.474 -1.65078 3.05559 0
M  V30 1315 C 117.428 -1.18003 4.11411 0
M  V30 1316 C 116.754 -2.41837 4.76884 0
M  V30 1317 C 118.054 -0.278394 5.21558 0
M  V30 1318 H 119.748 0.11875 2.99164 0
M  V30 1319 H 117.294 0.0585531 1.43881 0
M  V30 1320 H 119.247 -2.25028 3.56287 0
M  V30 1321 H 117.971 -2.29767 2.32109 0
M  V30 1322 H 116.63 -0.603331 3.61601 0
M  V30 1323 H 116.278 -3.0494 4.00026 0
M  V30 1324 H 115.978 -2.1102 5.48402 0
M  V30 1325 H 117.502 -3.02508 5.30397 0
M  V30 1326 H 118.916 -0.784823 5.67903 0
M  V30 1327 H 117.313 -0.0619707 6.00068 0
M  V30 1328 H 118.383 0.684677 4.80042 0
M  V30 1329 N 119.726 -1.57421 0.075193 0
M  V30 1330 C 120.636 -2.1642 -0.905511 0
M  V30 1331 C 121.652 -1.12828 -1.32461 0
M  V30 1332 O 122.828 -1.45109 -1.39661 0
M  V30 1333 C 119.893 -2.71693 -2.15369 0
M  V30 1334 C 118.954 -3.90171 -1.79068 0
M  V30 1335 C 118.187 -4.42798 -2.97936 0
M  V30 1336 O 118.41 -3.94416 -4.12058 0
M  V30 1337 O 117.344 -5.34085 -2.77555 0
M  V30 1338 H 121.17 -3.00588 -0.433626 0
M  V30 1339 H 118.755 -1.48664 -0.148067 0
M  V30 1340 H 120.637 -3.07104 -2.88557 0
M  V30 1341 H 119.312 -1.90582 -2.61649 0
M  V30 1342 H 118.219 -3.59606 -1.03122 0
M  V30 1343 H 119.552 -4.72584 -1.37569 0
M  V30 1344 N 121.204 0.198386 -1.56346 0
M  V30 1345 C 122.151 1.24589 -1.94284 0
M  V30 1346 C 123.121 1.454 -0.802997 0
M  V30 1347 O 124.306 1.58588 -1.06087 0
M  V30 1348 C 121.446 2.58631 -2.28482 0
M  V30 1349 C 120.559 2.45426 -3.55514 0
M  V30 1350 C 119.694 3.7215 -3.79049 0
M  V30 1351 C 118.733 3.53763 -4.99518 0
M  V30 1352 N 117.87 4.72491 -5.19323 0
M  V30 1353 H 122.71 0.915356 -2.83593 0
M  V30 1354 H 120.247 0.440629 -1.40346 0
M  V30 1355 H 122.205 3.3672 -2.46324 0
M  V30 1356 H 120.835 2.89734 -1.42317 0
M  V30 1357 H 119.887 1.58652 -3.45737 0
M  V30 1358 H 121.199 2.27772 -4.43758 0
M  V30 1359 H 120.353 4.58679 -3.97113 0
M  V30 1360 H 119.092 3.92754 -2.89129 0
M  V30 1361 H 118.097 2.65619 -4.8138 0
M  V30 1362 H 119.322 3.34607 -5.90944 0
M  V30 1363 H 117.268 4.93365 -4.3235 0
M  V30 1364 H 117.185 4.5765 -6.01741 0
M  V30 1365 H 118.453 5.6038 -5.41843 0
M  V30 1366 N 122.682 1.50554 0.465978 0
M  V30 1367 C 123.907 1.65838 1.24549 0
M  V30 1368 C 124.332 0.343486 1.84937 0
M  V30 1369 O 123.69 -0.69324 1.67523 0
M  V30 1370 C 123.738 2.75533 2.32624 0
M  V30 1371 O 122.842 2.37142 3.37398 0
M  V30 1372 H 122.183 0.553893 0.366194 0
M  V30 1373 H 124.713 1.96959 0.553927 0
M  V30 1374 H 124.723 2.98763 2.77857 0
M  V30 1375 H 123.398 3.70962 1.88043 0
M  V30 1376 H 121.975 2.24377 2.97841 0
M  V30 1377 N 124.16 -0.719506 1.40217 0
M  V30 1378 C 125.571 -1.29848 1.34151 0
M  V30 1379 C 125.922 -1.96196 0.0131349 0
M  V30 1380 O 125.047 -1.973 -0.88892 0
M  V30 1381 C 125.642 -2.36118 2.42968 0
M  V30 1382 C 124.201 -2.8965 2.40374 0
M  V30 1383 C 123.348 -1.63393 2.24049 0
M  V30 1384 H 126.299 -0.51591 1.5008 0
M  V30 1385 H 126.32 -3.16871 2.10649 0
M  V30 1386 H 125.832 -1.878 3.39636 0
M  V30 1387 H 123.933 -3.42208 1.47392 0
M  V30 1388 H 124.046 -3.4171 3.35814 0
M  V30 1389 H 122.41 -1.88312 1.71495 0
M  V30 1390 H 123.193 -1.17104 3.2271 0
M  V30 1391 N 125.638 -1.25649 -0.95132 0
M  V30 1392 C 126.568 -1.08808 -2.06599 0
M  V30 1393 C 127.549 0.00382547 -1.701 0
M  V30 1394 O 128.734 -0.166325 -1.93486 0
M  V30 1395 C 125.864 -0.709542 -3.39975 0
M  V30 1396 C 124.818 -1.75206 -3.90496 0
M  V30 1397 C 124.144 -1.22811 -5.20405 0
M  V30 1398 C 125.444 -3.15153 -4.16504 0
M  V30 1399 H 127.138 -2.02048 -2.20946 0
M  V30 1400 H 124.684 -0.972835 -1.06169 0
M  V30 1401 H 126.637 -0.578649 -4.17408 0
M  V30 1402 H 125.361 0.258556 -3.25575 0
M  V30 1403 H 124.02 -1.87145 -3.15234 0
M  V30 1404 H 123.668 -0.250145 -5.02378 0
M  V30 1405 H 123.368 -1.92492 -5.55176 0
M  V30 1406 H 124.892 -1.10968 -6.00432 0
M  V30 1407 H 126.306 -3.06349 -4.84586 0
M  V30 1408 H 124.703 -3.82333 -4.62538 0
M  V30 1409 H 125.773 -3.61966 -3.22658 0
M  V30 1410 N 127.117 1.15442 -1.07289 0
M  V30 1411 C 128.345 1.90096 -0.81676 0
M  V30 1412 C 128.76 1.7798 0.629966 0
M  V30 1413 O 128.117 1.1313 1.43206 0
M  V30 1414 C 128.168 3.40466 -1.21512 0
M  V30 1415 O 127.889 3.52232 -2.60508 0
M  V30 1416 C 129.39 4.32145 -0.988198 0
M  V30 1417 H 126.61 0.602495 -0.295366 0
M  V30 1418 H 129.154 1.4627 -1.42918 0
M  V30 1419 H 127.309 3.81958 -0.647039 0
M  V30 1420 H 127.723 4.45549 -2.76742 0
M  V30 1421 H 129.197 5.36072 -1.31645 0
M  V30 1422 H 129.674 4.39135 0.0755063 0
M  V30 1423 H 130.28 3.96395 -1.54115 0
M  V30 1424 N 128.595 0.856903 1.32268 0
M  V30 1425 C 130.006 0.515711 1.79436 0
M  V30 1426 C 130.357 -0.966586 1.70738 0
M  V30 1427 O 129.482 -1.75409 1.26731 0
M  V30 1428 C 130.077 0.929335 3.25805 0
M  V30 1429 C 128.636 0.640006 3.70919 0
M  V30 1430 C 127.783 1.12784 2.53328 0
M  V30 1431 H 130.734 1.04389 1.19535 0
M  V30 1432 H 130.755 0.246633 3.797 0
M  V30 1433 H 130.267 2.00821 3.32103 0
M  V30 1434 H 128.368 -0.428051 3.70133 0
M  V30 1435 H 128.481 1.20788 4.63624 0
M  V30 1436 H 126.845 0.548033 2.48734 0
M  V30 1437 H 127.628 2.21387 2.62379 0
M  V30 1438 N 130.073 -1.45103 0.615059 0
M  V30 1439 C 131.003 -2.33339 -0.0865619 0
M  V30 1440 C 131.984 -1.4727 -0.851209 0
M  V30 1441 O 133.169 -1.76026 -0.820281 0
M  V30 1442 C 130.299 -3.30095 -1.07956 0
M  V30 1443 C 129.253 -4.25858 -0.427628 0
M  V30 1444 C 128.579 -5.12361 -1.5294 0
M  V30 1445 C 129.879 -5.18165 0.655944 0
M  V30 1446 H 131.573 -2.92254 0.650224 0
M  V30 1447 H 129.119 -1.40532 0.314138 0
M  V30 1448 H 131.072 -3.90698 -1.57901 0
M  V30 1449 H 129.796 -2.69355 -1.84703 0
M  V30 1450 H 128.455 -3.66564 0.0510292 0
M  V30 1451 H 128.103 -4.47984 -2.28734 0
M  V30 1452 H 127.803 -5.77238 -1.09865 0
M  V30 1453 H 129.327 -5.75833 -2.03098 0
M  V30 1454 H 130.741 -5.72796 0.240257 0
M  V30 1455 H 129.138 -5.91559 1.00888 0
M  V30 1456 H 130.208 -4.60144 1.52957 0
M  V30 1457 N 131.551 -0.354651 -1.53558 0
M  V30 1458 C 132.962 0.126902 -1.86268 0
M  V30 1459 C 133.313 1.49075 -1.27558 0
M  V30 1460 O 132.438 2.08105 -0.5934 0
M  V30 1461 C 133.033 0.237046 -3.3797 0
M  V30 1462 C 131.592 0.662842 -3.70518 0
M  V30 1463 C 130.739 -0.196652 -2.76602 0
M  V30 1464 H 133.69 -0.573849 -1.47962 0
M  V30 1465 H 133.711 1.06259 -3.65362 0
M  V30 1466 H 133.223 -0.755725 -3.80671 0
M  V30 1467 H 131.324 1.66424 -3.33367 0
M  V30 1468 H 131.437 0.445034 -4.77029 0
M  V30 1469 H 129.801 0.332763 -2.52517 0
M  V30 1470 H 130.584 -1.18676 -3.22135 0
M  V30 1471 N 133.029 1.57378 -0.0835403 0
M  V30 1472 C 134.445 1.57246 0.273109 0
M  V30 1473 C 134.645 1.09385 1.69225 0
M  V30 1474 O 133.701 0.765051 2.40631 0
M  V30 1475 C 135.014 3.00614 0.0720628 0
M  V30 1476 C 136.562 3.12684 0.1407 0
M  V30 1477 C 137.037 4.57989 -0.0322094 0
M  V30 1478 N 138.528 4.63194 0.0230085 0
M  V30 1479 C 139.263 5.73335 -0.0861941 0
M  V30 1480 N 138.759 6.9235 -0.24958 0
M  V30 1481 N 140.552 5.62093 -0.0282886 0
M  V30 1482 H 132.703 1.86801 -1.0109 0
M  V30 1483 H 134.966 0.861687 -0.395222 0
M  V30 1484 H 134.672 3.39786 -0.907662 0
M  V30 1485 H 134.546 3.68193 0.81936 0
M  V30 1486 H 136.933 2.73391 1.11092 0
M  V30 1487 H 137.014 2.47719 -0.637896 0
M  V30 1488 H 136.658 4.97973 -0.999247 0
M  V30 1489 H 136.588 5.21 0.765937 0
M  V30 1490 H 139.079 3.77613 0.14722 0
M  V30 1491 H 139.392 7.72117 -0.324733 0
M  V30 1492 H 137.737 6.94415 -0.285097 0
M  V30 1493 H 140.928 4.67997 0.0981408 0
M  V30 1494 H 141.101 6.47895 -0.116845 0
M  V30 1495 N 134.507 -0.190092 1.56449 0
M  V30 1496 C 135.417 -1.25591 1.98152 0
M  V30 1497 C 136.433 -1.49519 0.889944 0
M  V30 1498 O 137.609 -1.62036 1.19609 0
M  V30 1499 C 134.674 -2.57916 2.3169 0
M  V30 1500 C 133.735 -2.42015 3.5458 0
M  V30 1501 C 132.968 -3.6803 3.8651 0
M  V30 1502 O 133.191 -4.72413 3.1966 0
M  V30 1503 O 132.125 -3.6326 4.79923 0
M  V30 1504 H 135.951 -0.931988 2.89046 0
M  V30 1505 H 133.536 -0.395488 1.4407 0
M  V30 1506 H 135.418 -3.36008 2.54316 0
M  V30 1507 H 134.093 -2.89925 1.43963 0
M  V30 1508 H 133 -1.62017 3.37196 0
M  V30 1509 H 134.333 -2.14937 4.4279 0
M  V30 1510 N 135.985 -1.50799 -0.457987 0
M  V30 1511 C 136.918 -1.65273 -1.57353 0
M  V30 1512 C 137.896 -0.500578 -1.54703 0
M  V30 1513 O 139.08 -0.721781 -1.74134 0
M  V30 1514 C 136.207 -1.64737 -2.95938 0
M  V30 1515 C 135.253 -2.8567 -3.16693 0
M  V30 1516 S 136.086 -4.46791 -2.95191 0
M  V30 1517 C 137.242 -4.48968 -4.36095 0
M  V30 1518 H 137.475 -2.59633 -1.44838 0
M  V30 1519 H 135.008 -1.40225 -0.64625 0
M  V30 1520 H 136.966 -1.65112 -3.7583 0
M  V30 1521 H 135.627 -0.715899 -3.05833 0
M  V30 1522 H 134.82 -2.81637 -4.17967 0
M  V30 1523 H 134.422 -2.8293 -2.44594 0
M  V30 1524 H 136.714 -4.23337 -5.28954 0
M  V30 1525 H 137.657 -5.50664 -4.45168 0
M  V30 1526 H 138.065 -3.78522 -4.18786 0
M  V30 1527 N 137.463 0.71206 -1.40597 0
M  V30 1528 C 138.712 1.46754 -1.38369 0
M  V30 1529 C 139.025 1.95598 0.0097839 0
M  V30 1530 O 140.231 2.71059 0.154677 0
M  V30 1531 C 138.687 2.65289 -2.43207 0
M  V30 1532 C 138.295 2.23301 -3.88382 0
M  V30 1533 C 140.039 3.43008 -2.50091 0
M  V30 1534 C 137.946 3.38696 -4.84808 0
M  V30 1535 H 136.876 0.55118 -0.514506 0
M  V30 1536 H 139.527 0.774616 -1.66349 0
M  V30 1537 H 137.909 3.36769 -2.08332 0
M  V30 1538 H 139.083 1.59218 -4.32419 0
M  V30 1539 H 137.398 1.58618 -3.85006 0
M  V30 1540 H 139.995 4.28881 -3.1932 0
M  V30 1541 H 140.338 3.87065 -1.53253 0
M  V30 1542 H 140.871 2.78574 -2.83974 0
M  V30 1543 H 137.61 2.99668 -5.82992 0
M  V30 1544 H 137.13 4.01683 -4.45433 0
M  V30 1545 H 138.809 4.04712 -5.04794 0
M  V30 1546 N 138.941 1.26152 0.944643 0
M  V30 1547 C 140.169 1.14259 1.72489 0
M  V30 1548 C 140.584 -0.302555 1.8636 0
M  V30 1549 O 139.941 -1.20741 1.36849 0
M  V30 1550 C 139.992 1.80266 3.13347 0
M  V30 1551 O 139.713 3.19133 3.00143 0
M  V30 1552 C 141.214 1.74283 4.07603 0
M  V30 1553 H 138.434 0.398051 0.540181 0
M  V30 1554 H 140.978 1.66706 1.18446 0
M  V30 1555 H 139.133 1.31766 3.64303 0
M  V30 1556 H 139.547 3.51744 3.89071 0
M  V30 1557 H 141.021 2.25111 5.04013 0
M  V30 1558 H 141.498 0.708631 4.33446 0
M  V30 1559 H 142.104 2.22319 3.62567 0
M  V30 1560 N 140.419 -1.14872 1.07899 0
M  V30 1561 C 141.349 -2.2193 0.725887 0
M  V30 1562 C 142.33 -1.67622 -0.28927 0
M  V30 1563 O 143.515 -1.93533 -0.160787 0
M  V30 1564 C 140.645 -3.47061 0.128856 0
M  V30 1565 C 139.599 -4.14363 1.07178 0
M  V30 1566 C 138.925 -5.33636 0.337229 0
M  V30 1567 C 140.225 -4.63492 2.40775 0
M  V30 1568 H 141.919 -2.51724 1.62097 0
M  V30 1569 H 139.465 -1.20991 0.780838 0
M  V30 1570 H 141.418 -4.21199 -0.130147 0
M  V30 1571 H 140.142 -3.16617 -0.80134 0
M  V30 1572 H 138.801 -3.42173 1.3158 0
M  V30 1573 H 138.449 -4.99449 -0.596606 0
M  V30 1574 H 138.149 -5.79609 0.965788 0
M  V30 1575 H 139.673 -6.10539 0.0861567 0
M  V30 1576 H 141.087 -5.2913 2.20669 0
M  V30 1577 H 139.484 -5.20148 2.99276 0
M  V30 1578 H 140.554 -3.78834 3.02676 0
M  V30 1579 N 141.898 -0.863906 -1.31812 0
M  V30 1580 C 142.808 -0.318461 -2.32428 0
M  V30 1581 C 143.824 0.568496 -1.64451 0
M  V30 1582 O 145 0.46666 -1.95919 0
M  V30 1583 C 142.065 0.476355 -3.43412 0
M  V30 1584 C 141.126 -0.43784 -4.27061 0
M  V30 1585 C 140.359 0.319138 -5.32745 0
M  V30 1586 O 140.582 1.54799 -5.48993 0
M  V30 1587 O 139.516 -0.319861 -6.01049 0
M  V30 1588 H 143.342 -1.15229 -2.80991 0
M  V30 1589 H 140.927 -0.627103 -1.35602 0
M  V30 1590 H 142.809 0.927156 -4.11074 0
M  V30 1591 H 141.484 1.28683 -2.97022 0
M  V30 1592 H 140.391 -0.937013 -3.62175 0
M  V30 1593 H 141.724 -1.21375 -4.77 0
M  V30 1594 N 143.376 1.44774 -0.622745 0
M  V30 1595 C 144.604 2.06487 -0.130722 0
M  V30 1596 C 145.019 1.46476 1.19123 0
M  V30 1597 O 144.376 0.584502 1.72887 0
M  V30 1598 C 144.427 3.615 -0.000807207 0
M  V30 1599 O 144.148 4.19274 -1.27048 0
M  V30 1600 C 145.649 4.40229 0.520898 0
M  V30 1601 H 142.869 0.666704 -0.0758106 0
M  V30 1602 H 145.413 1.85779 -0.854774 0
M  V30 1603 H 143.568 3.81498 0.673643 0
M  V30 1604 H 143.982 5.12622 -1.1099 0
M  V30 1605 H 145.456 5.49144 0.560838 0
M  V30 1606 H 145.933 4.1108 1.54627 0
M  V30 1607 H 146.539 4.25131 -0.120018 0
M  V30 1608 N 144.854 0.36279 1.53368 0
M  V30 1609 C 146.1 -0.228113 2.01513 0
M  V30 1610 C 146.433 -1.48648 1.2497 0
M  V30 1611 O 145.708 -1.91459 0.342616 0
M  V30 1612 C 145.991 -0.522884 3.56284 0
M  V30 1613 C 145.844 0.74892 4.43521 0
M  V30 1614 C 147.163 -1.32461 4.19693 0
M  V30 1615 H 144.282 -0.0814343 0.732487 0
M  V30 1616 H 146.924 0.48713 1.83649 0
M  V30 1617 H 145.074 -1.1322 3.71636 0
M  V30 1618 H 146.746 1.38648 4.39971 0
M  V30 1619 H 144.989 1.36986 4.11603 0
M  V30 1620 H 145.66 0.497667 5.49752 0
M  V30 1621 H 148.136 -0.809203 4.08156 0
M  V30 1622 H 147.012 -1.49961 5.28018 0
M  V30 1623 H 147.273 -2.33232 3.75573 0
M  V30 1624 N 146.332 -1.57332 0.0918853 0
M  V30 1625 C 147.262 -2.16872 -0.865371 0
M  V30 1626 C 148.243 -1.10118 -1.29646 0
M  V30 1627 O 149.428 -1.38242 -1.36392 0
M  V30 1628 C 146.558 -2.74649 -2.12569 0
M  V30 1629 C 145.512 -3.86747 -1.83333 0
M  V30 1630 C 144.838 -4.31212 -3.16166 0
M  V30 1631 C 146.138 -5.10089 -1.1228 0
M  V30 1632 H 147.832 -2.97114 -0.369307 0
M  V30 1633 H 145.378 -1.42918 -0.176194 0
M  V30 1634 H 147.331 -3.14952 -2.7997 0
M  V30 1635 H 146.055 -1.91657 -2.64452 0
M  V30 1636 H 144.714 -3.46978 -1.18331 0
M  V30 1637 H 144.362 -3.45115 -3.6593 0
M  V30 1638 H 144.062 -5.06788 -2.97388 0
M  V30 1639 H 145.586 -4.74146 -3.84731 0
M  V30 1640 H 147 -5.47582 -1.69785 0
M  V30 1641 H 145.397 -5.91073 -1.03693 0
M  V30 1642 H 146.467 -4.84786 -0.105041 0
M  V30 1643 N 147.81 0.181792 -1.56548 0
M  V30 1644 C 148.72 1.24538 -1.98815 0
M  V30 1645 C 149.736 1.49045 -0.897861 0
M  V30 1646 O 150.912 1.61399 -1.20467 0
M  V30 1647 C 147.977 2.56683 -2.33055 0
M  V30 1648 C 147.038 2.40131 -3.55859 0
M  V30 1649 C 146.271 3.65975 -3.88456 0
M  V30 1650 O 146.494 4.70711 -3.22161 0
M  V30 1651 O 145.428 3.6071 -4.81842 0
M  V30 1652 H 149.254 0.916647 -2.89536 0
M  V30 1653 H 146.839 0.387842 -1.44278 0
M  V30 1654 H 148.721 3.34655 -2.56094 0
M  V30 1655 H 147.396 2.89157 -1.45498 0
M  V30 1656 H 146.303 1.60226 -3.38051 0
M  V30 1657 H 147.636 2.12585 -4.43924 0
M  V30 1658 N 149.288 1.51039 0.449983 0
M  V30 1659 C 150.235 1.71439 1.54523 0
M  V30 1660 C 151.205 0.555871 1.56522 0
M  V30 1661 O 152.39 0.788871 1.73728 0
M  V30 1662 C 149.53 1.83384 2.92343 0
M  V30 1663 C 148.643 3.10873 2.9997 0
M  V30 1664 C 147.778 3.13488 4.28834 0
M  V30 1665 C 146.817 4.35343 4.30282 0
M  V30 1666 N 145.954 4.35579 5.5065 0
M  V30 1667 H 150.794 2.64934 1.36433 0
M  V30 1668 H 148.331 1.31312 0.662982 0
M  V30 1669 H 150.289 1.88291 3.72293 0
M  V30 1670 H 148.919 0.933086 3.0902 0
M  V30 1671 H 147.971 3.15336 2.12761 0
M  V30 1672 H 149.283 4.00814 2.96901 0
M  V30 1673 H 148.437 3.17241 5.17149 0
M  V30 1674 H 147.176 2.21414 4.34543 0
M  V30 1675 H 146.181 4.3178 3.40362 0
M  V30 1676 H 147.406 5.28668 4.26248 0
M  V30 1677 H 145.352 3.46369 5.57104 0
M  V30 1678 H 145.269 5.19313 5.49409 0
M  V30 1679 H 146.537 4.43507 6.41032 0
M  V30 1680 N 150.766 -0.704594 1.40972 0
M  V30 1681 C 151.696 -1.83124 1.44872 0
M  V30 1682 C 152.677 -1.67281 0.30838 0
M  V30 1683 O 153.862 -1.87149 0.518556 0
M  V30 1684 C 150.992 -3.21181 1.32136 0
M  V30 1685 C 149.946 -3.51714 2.43888 0
M  V30 1686 C 149.272 -4.89032 2.16222 0
M  V30 1687 C 150.572 -3.516 3.86232 0
M  V30 1688 H 152.266 -1.80117 2.39161 0
M  V30 1689 H 149.812 -0.865145 1.15114 0
M  V30 1690 H 151.765 -3.99702 1.33479 0
M  V30 1691 H 150.489 -3.24791 0.343279 0
M  V30 1692 H 149.148 -2.75539 2.41813 0
M  V30 1693 H 148.796 -4.89256 1.16778 0
M  V30 1694 H 148.496 -5.10426 2.911 0
M  V30 1695 H 150.02 -5.69873 2.19265 0
M  V30 1696 H 151.434 -4.2014 3.9007 0
M  V30 1697 H 149.831 -3.84523 4.60719 0
M  V30 1698 H 150.901 -2.50757 4.15029 0
M  V30 1699 N 152.244 -1.26651 -0.937939 0
M  V30 1700 C 153.154 -1.10276 -2.07066 0
M  V30 1701 C 154.17 -0.0354197 -1.73964 0
M  V30 1702 O 155.346 -0.239816 -1.99967 0
M  V30 1703 C 152.411 -0.740887 -3.38691 0
M  V30 1704 C 151.472 -1.88799 -3.85556 0
M  V30 1705 C 150.705 -1.54329 -5.10899 0
M  V30 1706 O 150.928 -0.446494 -5.6865 0
M  V30 1707 O 149.862 -2.37911 -5.52885 0
M  V30 1708 H 153.688 -2.05309 -2.23789 0
M  V30 1709 H 151.273 -1.05743 -1.0554 0
M  V30 1710 H 153.155 -0.55195 -4.1777 0
M  V30 1711 H 151.83 0.180022 -3.23199 0
M  V30 1712 H 150.737 -2.13191 -3.07409 0
M  V30 1713 H 152.07 -2.78874 -4.05574 0
M  V30 1714 N 153.722 1.14298 -1.08507 0
M  V30 1715 C 154.97 1.84993 -0.813763 0
M  V30 1716 C 155.291 1.83405 0.662393 0
M  V30 1717 O 154.561 1.28319 1.48024 0
M  V30 1718 H 153.141 0.684966 -0.298045 0
M  V30 1719 H 155.803 1.385 -1.37126 0
M  V30 1720 H 154.899 2.89788 -1.15884 0
M  V30 1721 N 155.201 0.870884 1.31352 0
M  V30 1722 C 156.111 0.330783 2.32256 0
M  V30 1723 C 157.127 -0.559767 1.6475 0
M  V30 1724 O 158.303 -0.456263 1.96164 0
M  V30 1725 C 155.368 -0.458137 3.4366 0
M  V30 1726 C 154.429 0.460482 4.26823 0
M  V30 1727 C 153.662 -0.290881 5.32907 0
M  V30 1728 O 153.885 -1.51885 5.49806 0
M  V30 1729 O 152.819 0.351732 6.00871 0
M  V30 1730 H 156.645 1.16718 2.80376 0
M  V30 1731 H 154.23 0.634285 1.35267 0
M  V30 1732 H 156.112 -0.905343 4.1156 0
M  V30 1733 H 154.787 -1.27106 2.97701 0
M  V30 1734 H 153.694 0.956207 3.61673 0
M  V30 1735 H 155.027 1.23903 4.7635 0
M  V30 1736 N 156.679 -1.44442 0.630414 0
M  V30 1737 C 157.609 -2.33418 -0.0618083 0
M  V30 1738 C 158.59 -1.48165 -0.835541 0
M  V30 1739 O 159.775 -1.76886 -0.801564 0
M  V30 1740 C 156.905 -3.31222 -1.04449 0
M  V30 1741 C 155.859 -4.26288 -0.382436 0
M  V30 1742 C 155.185 -5.13954 -1.47497 0
M  V30 1743 C 156.485 -5.1744 0.710865 0
M  V30 1744 H 158.179 -2.91548 0.681184 0
M  V30 1745 H 155.725 -1.40191 0.329026 0
M  V30 1746 H 157.678 -3.92351 -1.53748 0
M  V30 1747 H 156.402 -2.71299 -1.81836 0
M  V30 1748 H 155.061 -3.6649 0.0899054 0
M  V30 1749 H 154.709 -4.50385 -2.2397 0
M  V30 1750 H 154.409 -5.7837 -1.03737 0
M  V30 1751 H 155.933 -5.77955 -1.96979 0
M  V30 1752 H 157.347 -5.72509 0.300996 0
M  V30 1753 H 155.744 -5.90455 1.07156 0
M  V30 1754 H 156.814 -4.58496 1.57829 0
M  V30 1755 N 158.157 -0.370918 -1.53173 0
M  V30 1756 C 159.089 0.507823 -2.23503 0
M  V30 1757 C 160.102 1.04182 -1.251 0
M  V30 1758 O 161.291 0.947286 -1.5129 0
M  V30 1759 C 158.391 1.71447 -2.92334 0
M  V30 1760 C 157.564 1.31105 -4.17289 0
M  V30 1761 C 156.623 2.38035 -4.69282 0
M  V30 1762 O 155.649 2.00204 -5.32829 0
M  V30 1763 N 156.851 3.69697 -4.47554 0
M  V30 1764 H 159.616 -0.0946382 -2.99551 0
M  V30 1765 H 157.177 -0.196358 -1.60705 0
M  V30 1766 H 159.169 2.42469 -3.24023 0
M  V30 1767 H 157.739 2.22368 -2.19707 0
M  V30 1768 H 156.959 0.430462 -3.91843 0
M  V30 1769 H 158.247 1.0179 -4.98514 0
M  V30 1770 H 157.645 4.03205 -3.9679 0
M  V30 1771 H 156.202 4.36807 -4.8378 0
M  V30 1772 N 159.635 1.57281 -0.100228 0
M  V30 1773 C 160.545 2.17833 0.870965 0
M  V30 1774 C 161.561 1.14921 1.30649 0
M  V30 1775 O 162.737 1.47313 1.37335 0
M  V30 1776 C 159.802 2.75085 2.1102 0
M  V30 1777 C 158.863 3.9297 1.72838 0
M  V30 1778 C 158.096 4.47482 2.90854 0
M  V30 1779 O 158.319 4.00922 4.05731 0
M  V30 1780 O 157.253 5.38433 2.69023 0
M  V30 1781 H 161.079 3.0124 0.38575 0
M  V30 1782 H 158.664 1.48881 0.124397 0
M  V30 1783 H 160.546 3.11656 2.83634 0
M  V30 1784 H 159.221 1.94721 2.58584 0
M  V30 1785 H 158.128 3.61201 0.973883 0
M  V30 1786 H 159.461 4.74713 1.30033 0
M  V30 1787 N 161.113 -0.173488 1.56642 0
M  V30 1788 C 162.076 -1.19859 1.95362 0
M  V30 1789 C 163.076 -1.37296 0.83704 0
M  V30 1790 O 164.266 -1.34739 1.10413 0
M  V30 1791 C 161.398 -2.56405 2.24654 0
M  V30 1792 H 162.591 -0.867062 2.87092 0
M  V30 1793 H 160.144 -0.415853 1.50666 0
M  V30 1794 H 160.879 -2.94576 1.35631 0
M  V30 1795 H 160.664 -2.45115 3.06041 0
M  V30 1796 H 162.154 -3.30287 2.5554 0
M  V30 1797 N 162.591 -1.51276 -0.441967 0
M  V30 1798 C 163.539 -1.72823 -1.55676 0
M  V30 1799 C 164.533 -0.59445 -1.58627 0
M  V30 1800 O 165.739 -0.775715 -1.62427 0
M  V30 1801 H 162.114 -0.545983 -0.517113 0
M  V30 1802 H 164.085 -2.6628 -1.34675 0
M  V30 1803 C 162.834 -1.86619 -2.93375 0
M  V30 1804 H 162.157 -2.73264 -2.91834 0
M  V30 1805 H 163.597 -2.05709 -3.70756 0
M  V30 1806 C 162.056 -0.624842 -3.31055 0
M  V30 1807 O 162.586 0.222636 -4.01083 0
M  V30 1808 N 160.792 -0.470288 -2.86769 0
M  V30 1809 H 160.339 -1.161 -2.29953 0
M  V30 1810 H 160.297 0.359051 -3.12343 0
M  V30 1811 N 164.069 0.697108 -1.41344 0
M  V30 1812 C 165.001 1.8224 -1.39001 0
M  V30 1813 C 166.014 1.60152 -0.292428 0
M  V30 1814 O 167.203 1.69684 -0.554048 0
M  V30 1815 C 164.303 3.18976 -1.14489 0
M  V30 1816 C 163.476 3.68105 -2.36258 0
M  V30 1817 C 162.535 4.83506 -2.07625 0
M  V30 1818 O 161.561 4.95201 -2.8065 0
M  V30 1819 N 162.763 5.70637 -1.06555 0
M  V30 1820 H 165.528 1.84742 -2.35988 0
M  V30 1821 H 163.089 0.87937 -1.35936 0
M  V30 1822 H 165.081 3.93801 -0.932885 0
M  V30 1823 H 163.651 3.11508 -0.261043 0
M  V30 1824 H 162.871 2.84204 -2.7317 0
M  V30 1825 H 164.159 3.97667 -3.17393 0
M  V30 1826 H 163.557 5.63817 -0.461125 0
M  V30 1827 H 162.114 6.45368 -0.913444 0
M  V30 1828 N 165.547 1.27147 0.931209 0
M  V30 1829 C 166.495 1.09398 2.05268 0
M  V30 1830 C 167.489 0.0180591 1.6939 0
M  V30 1831 O 168.695 0.17551 1.79142 0
M  V30 1832 H 165.07 0.336986 0.672268 0
M  V30 1833 H 167.041 2.04416 2.17386 0
M  V30 1834 C 165.79 0.75424 3.39421 0
M  V30 1835 H 165.113 1.57404 3.67511 0
M  V30 1836 H 166.553 0.669903 4.18674 0
M  V30 1837 C 165.012 -0.541197 3.32525 0
M  V30 1838 O 165.542 -1.57664 3.69466 0
M  V30 1839 N 163.748 -0.535517 2.85623 0
M  V30 1840 H 163.295 0.307511 2.55758 0
M  V30 1841 H 163.253 -1.40236 2.81392 0
M  V30 1842 N 167.025 -1.13721 1.09112 0
M  V30 1843 C 167.957 -2.1871 0.685467 0
M  V30 1844 C 168.97 -1.60527 -0.271068 0
M  V30 1845 O 170.159 -1.78407 -0.0576148 0
M  V30 1846 C 167.259 -3.38898 -0.0111255 0
M  V30 1847 C 166.432 -4.26597 0.966131 0
M  V30 1848 C 165.491 -5.25324 0.303539 0
M  V30 1849 O 164.517 -5.61213 0.950177 0
M  V30 1850 N 165.719 -5.72779 -0.943651 0
M  V30 1851 H 168.484 -2.54126 1.58871 0
M  V30 1852 H 166.045 -1.29012 0.978143 0
M  V30 1853 H 168.037 -4.02014 -0.465517 0
M  V30 1854 H 166.607 -3.01747 -0.816565 0
M  V30 1855 H 165.827 -3.60306 1.59917 0
M  V30 1856 H 167.115 -4.82048 1.6281 0
M  V30 1857 H 166.513 -5.45762 -1.48862 0
M  V30 1858 H 165.07 -6.37847 -1.34142 0
M  V30 1859 N 168.503 -0.877838 -1.30888 0
M  V30 1860 C 169.435 -0.296607 -2.27273 0
M  V30 1861 C 170.448 0.544799 -1.53414 0
M  V30 1862 O 171.637 0.365511 -1.74718 0
M  V30 1863 C 168.737 0.597481 -3.33592 0
M  V30 1864 C 167.91 -0.213251 -4.3688 0
M  V30 1865 C 166.969 0.610208 -5.2265 0
M  V30 1866 O 165.995 0.035441 -5.69189 0
M  V30 1867 N 167.197 1.92071 -5.47804 0
M  V30 1868 H 169.962 -1.12492 -2.77787 0
M  V30 1869 H 167.523 -0.740105 -1.43993 0
M  V30 1870 H 169.515 1.15425 -3.87891 0
M  V30 1871 H 168.085 1.32647 -2.83061 0
M  V30 1872 H 167.305 -0.951466 -3.82545 0
M  V30 1873 H 168.593 -0.769262 -5.02951 0
M  V30 1874 H 167.991 2.4107 -5.11763 0
M  V30 1875 H 166.548 2.42508 -6.05007 0
M  V30 1876 N 169.982 1.44106 -0.638065 0
M  V30 1877 C 170.945 2.29138 0.0531013 0
M  V30 1878 C 171.945 1.41409 0.765506 0
M  V30 1879 O 173.135 1.63206 0.609046 0
M  V30 1880 C 170.267 3.23144 1.08584 0
M  V30 1881 H 171.46 2.91739 -0.694883 0
M  V30 1882 H 169.013 1.51134 -0.398538 0
M  V30 1883 H 169.748 2.65408 1.86357 0
M  V30 1884 H 169.533 3.87804 0.578852 0
M  V30 1885 H 171.023 3.87004 1.56899 0
M  V30 1886 N 171.46 0.379036 1.52974 0
M  V30 1887 C 172.39 -0.452706 2.29069 0
M  V30 1888 C 173.371 -1.07237 1.32039 0
M  V30 1889 O 174.556 -1.08708 1.60923 0
M  V30 1890 C 171.686 -1.5856 3.08992 0
M  V30 1891 C 170.64 -1.0925 4.13822 0
M  V30 1892 C 169.966 -2.31668 4.81907 0
M  V30 1893 C 171.266 -0.167702 5.22031 0
M  V30 1894 H 172.96 0.182181 2.98845 0
M  V30 1895 H 170.506 0.0890592 1.43724 0
M  V30 1896 H 172.459 -2.1742 3.6098 0
M  V30 1897 H 171.183 -2.24792 2.36931 0
M  V30 1898 H 169.842 -0.526494 3.628 0
M  V30 1899 H 169.49 -2.96386 4.06404 0
M  V30 1900 H 169.19 -1.9934 5.52754 0
M  V30 1901 H 170.714 -2.91189 5.36695 0
M  V30 1902 H 172.128 -0.664186 5.6944 0
M  V30 1903 H 170.525 0.0653265 6.00064 0
M  V30 1904 H 171.595 0.786347 4.78482 0
M  V30 1905 N 172.938 -1.57226 0.108567 0
M  V30 1906 C 173.885 -2.14756 -0.845481 0
M  V30 1907 C 174.855 -1.06971 -1.27068 0
M  V30 1908 O 176.04 -1.34827 -1.35005 0
M  V30 1909 C 173.18 -2.74298 -2.09415 0
M  V30 1910 C 172.293 -3.96358 -1.71826 0
M  V30 1911 C 171.428 -4.44021 -2.9158 0
M  V30 1912 C 170.467 -5.58637 -2.50181 0
M  V30 1913 N 169.604 -6.01091 -3.62814 0
M  V30 1914 H 174.444 -2.95961 -0.348035 0
M  V30 1915 H 171.981 -1.46226 -0.160106 0
M  V30 1916 H 173.939 -3.06945 -2.82561 0
M  V30 1917 H 172.569 -1.95801 -2.56636 0
M  V30 1918 H 171.621 -3.69939 -0.885947 0
M  V30 1919 H 172.933 -4.79504 -1.37394 0
M  V30 1920 H 172.087 -4.78522 -3.72963 0
M  V30 1921 H 170.826 -3.59803 -3.29231 0
M  V30 1922 H 169.831 -5.23751 -1.67228 0
M  V30 1923 H 171.056 -6.44613 -2.13659 0
M  V30 1924 H 169.002 -5.19817 -4.00158 0
M  V30 1925 H 168.919 -6.79066 -3.32273 0
M  V30 1926 H 170.187 -6.40227 -4.44668 0
M  V30 1927 N 174.416 0.165178 -1.56732 0
M  V30 1928 C 175.348 1.22911 -1.93457 0
M  V30 1929 C 176.361 1.40152 -0.828333 0
M  V30 1930 O 177.55 1.40046 -1.10677 0
M  V30 1931 C 174.65 2.59686 -2.17753 0
M  V30 1932 C 173.823 2.63663 -3.48999 0
M  V30 1933 C 172.882 3.81845 -3.62051 0
M  V30 1934 O 171.908 3.67559 -4.34613 0
M  V30 1935 N 173.11 4.98557 -2.97357 0
M  V30 1936 H 175.875 0.917118 -2.85323 0
M  V30 1937 H 173.436 0.354895 -1.57962 0
M  V30 1938 H 175.428 3.37225 -2.23743 0
M  V30 1939 H 173.998 2.83251 -1.32242 0
M  V30 1940 H 173.218 1.72173 -3.54612 0
M  V30 1941 H 174.506 2.63336 -4.35352 0
M  V30 1942 H 173.904 5.13065 -2.38287 0
M  V30 1943 H 172.461 5.73936 -3.08934 0
M  V30 1944 N 175.894 1.51508 0.433938 0
M  V30 1945 C 177.119 1.68443 1.21003 0
M  V30 1946 C 177.544 0.382636 1.84167 0
M  V30 1947 O 176.902 -0.65755 1.68956 0
M  V30 1948 C 176.95 2.80405 2.26727 0
M  V30 1949 O 176.054 2.44245 3.32292 0
M  V30 1950 H 175.395 0.561536 0.354363 0
M  V30 1951 H 177.925 1.9809 0.512024 0
M  V30 1952 H 177.935 3.0459 2.71457 0
M  V30 1953 H 176.61 3.74867 1.80132 0
M  V30 1954 H 175.187 2.30644 2.93015 0
M  V30 1955 N 177.372 -0.689602 1.41712 0
M  V30 1956 C 178.619 -1.44966 1.4139 0
M  V30 1957 C 178.947 -1.94484 0.025105 0
M  V30 1958 O 178.202 -1.70307 -0.964048 0
M  V30 1959 C 178.501 -2.67298 2.37247 0
M  V30 1960 C 178.167 -2.36405 3.83958 0
M  V30 1961 C 176.829 -2.27691 4.23923 0
M  V30 1962 C 179.181 -2.11043 4.76561 0
M  V30 1963 C 176.509 -1.91719 5.54492 0
M  V30 1964 C 178.861 -1.76578 6.07456 0
M  V30 1965 C 177.525 -1.66363 6.46436 0
M  V30 1966 H 176.795 -0.53047 0.517381 0
M  V30 1967 H 179.442 -0.787655 1.74552 0
M  V30 1968 H 177.747 -3.38461 1.9736 0
M  V30 1969 H 179.444 -3.25452 2.34269 0
M  V30 1970 H 176.034 -2.44085 3.52308 0
M  V30 1971 H 180.218 -2.16717 4.46483 0
M  V30 1972 H 175.474 -1.82367 5.83568 0
M  V30 1973 H 179.648 -1.55974 6.78708 0
M  V30 1974 H 177.275 -1.38258 7.47522 0
M  V30 1975 N 178.85 -1.27639 -0.924453 0
M  V30 1976 C 179.78 -1.13166 -2.04244 0
M  V30 1977 C 180.761 -0.032256 -1.70069 0
M  V30 1978 O 181.946 -0.207328 -1.9309 0
M  V30 1979 C 179.076 -0.781496 -3.38393 0
M  V30 1980 C 178.03 -1.83449 -3.86692 0
M  V30 1981 C 177.356 -1.33822 -5.17683 0
M  V30 1982 C 178.656 -3.23917 -4.09726 0
M  V30 1983 H 180.35 -2.06689 -2.1661 0
M  V30 1984 H 177.896 -0.995136 -1.04082 0
M  V30 1985 H 179.849 -0.667057 -4.16087 0
M  V30 1986 H 178.573 0.189439 -3.2605 0
M  V30 1987 H 177.232 -1.93789 -3.11193 0
M  V30 1988 H 176.88 -0.35665 -5.01734 0
M  V30 1989 H 176.58 -2.04224 -5.50968 0
M  V30 1990 H 178.104 -1.23679 -5.97943 0
M  V30 1991 H 179.518 -3.16559 -4.77978 0
M  V30 1992 H 177.915 -3.92059 -4.54324 0
M  V30 1993 H 178.985 -3.68729 -3.14908 0
M  V30 1994 N 180.328 1.1314 -1.09713 0
M  V30 1995 C 181.238 2.22242 -0.751367 0
M  V30 1996 C 182.254 1.72224 0.247938 0
M  V30 1997 O 183.43 2.01205 0.0885463 0
M  V30 1998 C 180.495 3.46231 -0.180274 0
M  V30 1999 C 179.556 4.11125 -1.2359 0
M  V30 2000 C 178.789 5.29195 -0.691966 0
M  V30 2001 O 179.012 5.68342 0.48414 0
M  V30 2002 O 177.946 5.84214 -1.44838 0
M  V30 2003 H 181.772 2.54197 -1.66186 0
M  V30 2004 H 179.357 1.21331 -0.871735 0
M  V30 2005 H 181.239 4.21185 0.134739 0
M  V30 2006 H 179.914 3.1597 0.703185 0
M  V30 2007 H 178.821 3.37985 -1.60366 0
M  V30 2008 H 180.154 4.45524 -2.09211 0
M  V30 2009 N 181.806 0.884767 1.30421 0
M  V30 2010 C 182.736 0.367574 2.30589 0
M  V30 2011 C 183.717 -0.549464 1.60981 0
M  V30 2012 O 184.902 -0.46336 1.88591 0
M  V30 2013 C 182.032 -0.418944 3.44764 0
M  V30 2014 C 180.986 0.406316 4.26067 0
M  V30 2015 C 180.312 -0.506793 5.32293 0
M  V30 2016 C 181.612 1.64832 4.95608 0
M  V30 2017 H 183.306 1.20462 2.74097 0
M  V30 2018 H 180.852 0.580695 1.31772 0
M  V30 2019 H 182.805 -0.791395 4.13902 0
M  V30 2020 H 181.529 -1.28964 3.0006 0
M  V30 2021 H 180.188 0.760903 3.58617 0
M  V30 2022 H 179.836 -1.37519 4.83836 0
M  V30 2023 H 179.536 0.0415828 5.87585 0
M  V30 2024 H 181.06 -0.875764 6.04287 0
M  V30 2025 H 182.474 1.34646 5.57264 0
M  V30 2026 H 180.871 2.13688 5.60765 0
M  V30 2027 H 181.941 2.39284 4.21748 0
M  V30 2028 N 183.284 -1.43765 0.645699 0
M  V30 2029 C 184.512 -2.06253 0.163556 0
M  V30 2030 C 184.927 -1.48352 -1.16778 0
M  V30 2031 O 184.284 -0.611932 -1.71935 0
M  V30 2032 C 184.335 -3.61453 0.0583186 0
M  V30 2033 O 184.056 -4.172 1.33702 0
M  V30 2034 C 185.557 -4.41002 -0.450795 0
M  V30 2035 H 182.777 -0.665413 0.0864077 0
M  V30 2036 H 185.321 -1.84396 0.884222 0
M  V30 2037 H 183.476 -3.82522 -0.612865 0
M  V30 2038 H 183.89 -5.10791 1.19131 0
M  V30 2039 H 185.364 -5.49966 -0.473403 0
M  V30 2040 H 185.841 -4.13488 -1.48068 0
M  V30 2041 H 186.447 -4.24886 0.187637 0
M  V30 2042 N 184.763 -0.387143 -1.52771 0
M  V30 2043 C 185.673 0.456442 -2.30117 0
M  V30 2044 C 186.689 1.07342 -1.36944 0
M  V30 2045 O 187.865 1.07971 -1.70013 0
M  V30 2046 C 184.93 1.56957 -3.09136 0
M  V30 2047 C 183.991 0.977916 -4.18014 0
M  V30 2048 C 183.224 2.038 -4.93256 0
M  V30 2049 O 183.447 3.25271 -4.68567 0
M  V30 2050 O 182.381 1.6565 -5.78657 0
M  V30 2051 H 186.207 -0.17359 -3.03203 0
M  V30 2052 H 183.792 -0.150919 -1.48636 0
M  V30 2053 H 185.674 2.21628 -3.58412 0
M  V30 2054 H 184.349 2.18461 -2.38865 0
M  V30 2055 H 183.256 0.294525 -3.72939 0
M  V30 2056 H 184.589 0.407128 -4.90513 0
M  V30 2057 N 186.241 1.57166 -0.116904 0
M  V30 2058 C 187.171 2.18222 0.830759 0
M  V30 2059 C 188.152 1.12167 1.27877 0
M  V30 2060 O 189.337 1.40394 1.34176 0
M  V30 2061 C 186.467 2.77996 2.08172 0
M  V30 2062 C 185.421 3.89614 1.77157 0
M  V30 2063 C 184.747 4.36187 3.09265 0
M  V30 2064 C 186.047 5.1181 1.04151 0
M  V30 2065 H 187.741 2.97664 0.321992 0
M  V30 2066 H 185.287 1.4318 0.153434 0
M  V30 2067 H 187.24 3.19366 2.74924 0
M  V30 2068 H 185.964 1.9584 2.6137 0
M  V30 2069 H 184.623 3.48816 1.12796 0
M  V30 2070 H 184.271 3.50893 3.60393 0
M  V30 2071 H 183.971 5.11455 2.89288 0
M  V30 2072 H 185.495 4.80207 3.77139 0
M  V30 2073 H 186.909 5.50214 1.61052 0
M  V30 2074 H 185.306 5.92648 0.942762 0
M  V30 2075 H 186.376 4.84892 0.0279022 0
M  V30 2076 N 187.719 -0.156864 1.56817 0
M  V30 2077 C 188.666 -1.19394 1.97519 0
M  V30 2078 C 189.636 -1.4322 0.841265 0
M  V30 2079 O 190.821 -1.55719 1.10255 0
M  V30 2080 C 187.961 -2.52483 2.35258 0
M  V30 2081 C 187.074 -2.35914 3.61896 0
M  V30 2082 C 186.209 -3.61969 3.88782 0
M  V30 2083 C 185.248 -3.40395 5.08722 0
M  V30 2084 N 184.385 -4.58556 5.31668 0
M  V30 2085 H 189.225 -0.839845 2.85921 0
M  V30 2086 H 186.762 -0.403264 1.41464 0
M  V30 2087 H 188.72 -3.30071 2.55165 0
M  V30 2088 H 187.35 -2.85859 1.49949 0
M  V30 2089 H 186.402 -1.49429 3.49821 0
M  V30 2090 H 187.714 -2.15926 4.49641 0
M  V30 2091 H 186.868 -4.47989 4.09135 0
M  V30 2092 H 185.607 -3.84951 2.9944 0
M  V30 2093 H 184.612 -2.52763 4.88253 0
M  V30 2094 H 185.837 -3.18822 5.99608 0
M  V30 2095 H 183.783 -4.81729 4.45279 0
M  V30 2096 H 183.7 -4.41535 6.13664 0
M  V30 2097 H 184.968 -5.45817 5.5651 0
M  V30 2098 N 189.197 -1.51736 -0.425897 0
M  V30 2099 C 190.427 -1.68549 -1.19476 0
M  V30 2100 C 190.835 -0.387288 -1.85194 0
M  V30 2101 O 190.178 0.645142 -1.71999 0
M  V30 2102 C 190.24 -2.75275 -2.31223 0
M  V30 2103 C 189.904 -4.17534 -1.8578 0
M  V30 2104 C 190.901 -5.01936 -1.35485 0
M  V30 2105 C 188.586 -4.6369 -1.93123 0
M  V30 2106 C 190.58 -6.30559 -0.931347 0
M  V30 2107 C 188.267 -5.92307 -1.50384 0
M  V30 2108 C 189.265 -6.75569 -1.00473 0
M  V30 2109 O 188.953 -8.0178 -0.583452 0
M  V30 2110 H 188.685 -0.568525 -0.365725 0
M  V30 2111 H 191.239 -1.98982 -0.509444 0
M  V30 2112 H 189.469 -2.40182 -3.03067 0
M  V30 2113 H 191.158 -2.80853 -2.93047 0
M  V30 2114 H 191.924 -4.67475 -1.29197 0
M  V30 2115 H 187.803 -3.98997 -2.30916 0
M  V30 2116 H 191.347 -6.95498 -0.541084 0
M  V30 2117 H 187.244 -6.2628 -1.56346 0
M  V30 2118 H 188.012 -8.1543 -0.708275 0
M  V30 2119 N 190.675 0.682077 -1.42076 0
M  V30 2120 C 191.605 1.80796 -1.47767 0
M  V30 2121 C 192.586 1.6677 -0.334954 0
M  V30 2122 O 193.771 1.863 -0.548264 0
M  V30 2123 C 190.901 3.19038 -1.37229 0
M  V30 2124 C 189.855 3.47789 -2.49453 0
M  V30 2125 C 189.181 4.8553 -2.23975 0
M  V30 2126 C 190.481 3.45411 -3.91776 0
M  V30 2127 H 192.175 1.7629 -2.41997 0
M  V30 2128 H 189.721 0.846721 -1.16476 0
M  V30 2129 H 191.674 3.97528 -1.39821 0
M  V30 2130 H 190.398 3.24204 -0.394907 0
M  V30 2131 H 189.057 2.71657 -2.46166 0
M  V30 2132 H 188.705 4.87337 -1.24547 0
M  V30 2133 H 188.405 5.0573 -2.99184 0
M  V30 2134 H 189.929 5.66312 -2.28304 0
M  V30 2135 H 191.343 4.13882 -3.96705 0
M  V30 2136 H 189.74 3.77145 -4.66778 0
M  V30 2137 H 190.81 2.44122 -4.18966 0
M  V30 2138 N 192.153 1.28127 0.917671 0
M  V30 2139 C 193.083 1.14248 2.03641 0
M  V30 2140 C 194.064 0.0412748 1.7005 0
M  V30 2141 O 195.249 0.217566 1.92977 0
M  V30 2142 C 192.379 0.799431 3.37974 0
M  V30 2143 C 191.333 1.85497 3.85713 0
M  V30 2144 C 190.659 1.36565 5.16966 0
M  V30 2145 C 191.959 3.26085 4.08002 0
M  V30 2146 H 193.653 2.07835 2.15511 0
M  V30 2147 H 191.199 1.00064 1.03553 0
M  V30 2148 H 193.152 0.689114 4.15727 0
M  V30 2149 H 191.876 -0.172145 3.26146 0
M  V30 2150 H 190.535 1.95437 3.10161 0
M  V30 2151 H 190.183 0.383253 5.01538 0
M  V30 2152 H 189.883 2.07143 5.49878 0
M  V30 2153 H 191.407 1.26848 5.97279 0
M  V30 2154 H 192.821 3.19089 4.76293 0
M  V30 2155 H 191.218 3.94462 4.52238 0
M  V30 2156 H 192.288 3.70394 3.12948 0
M  V30 2157 N 193.631 -1.12557 1.10312 0
M  V30 2158 C 194.578 -2.18247 0.750781 0
M  V30 2159 C 195.548 -1.63853 -0.272293 0
M  V30 2160 O 196.733 -1.90195 -0.151862 0
M  V30 2161 C 193.873 -3.44591 0.187379 0
M  V30 2162 C 192.986 -4.13046 1.2656 0
M  V30 2163 C 192.121 -5.27034 0.663978 0
M  V30 2164 C 191.16 -5.87353 1.72287 0
M  V30 2165 N 190.297 -6.92757 1.1416 0
M  V30 2166 H 195.137 -2.47732 1.65628 0
M  V30 2167 H 192.674 -1.21629 0.827337 0
M  V30 2168 H 194.632 -4.16904 -0.157148 0
M  V30 2169 H 193.262 -3.15527 -0.681355 0
M  V30 2170 H 192.314 -3.38924 1.72727 0
M  V30 2171 H 193.626 -4.53947 2.06721 0
M  V30 2172 H 192.78 -6.06104 0.268824 0
M  V30 2173 H 191.519 -4.87407 -0.169082 0
M  V30 2174 H 190.524 -5.06971 2.12746 0
M  V30 2175 H 191.749 -6.29051 2.55875 0
M  V30 2176 H 189.695 -6.5517 0.329984 0
M  V30 2177 H 189.612 -7.3225 1.88007 0
M  V30 2178 H 190.88 -7.75658 0.772956 0
M  V30 2179 N 195.109 -0.891671 -1.2995 0
M  V30 2180 C 196.056 -0.361736 -2.27948 0
M  V30 2181 C 197.026 0.551761 -1.56668 0
M  V30 2182 O 198.211 0.478736 -1.84696 0
M  V30 2183 C 195.351 0.411825 -3.42634 0
M  V30 2184 C 194.464 -0.531651 -4.28716 0
M  V30 2185 C 193.599 0.258167 -5.30572 0
M  V30 2186 C 192.638 -0.680349 -6.08307 0
M  V30 2187 N 191.775 0.0745613 -7.0206 0
M  V30 2188 H 196.615 -1.20254 -2.72659 0
M  V30 2189 H 194.152 -0.604352 -1.34112 0
M  V30 2190 H 196.11 0.876304 -4.07893 0
M  V30 2191 H 194.74 1.21715 -2.98974 0
M  V30 2192 H 193.792 -1.11463 -3.63703 0
M  V30 2193 H 195.104 -1.25038 -4.82874 0
M  V30 2194 H 194.258 0.784204 -6.0161 0
M  V30 2195 H 192.997 1.01008 -4.77126 0
M  V30 2196 H 192.002 -1.21796 -5.3614 0
M  V30 2197 H 193.227 -1.43145 -6.63842 0
M  V30 2198 H 191.173 0.808883 -6.50994 0
M  V30 2199 H 191.09 -0.584409 -7.53738 0
M  V30 2200 H 192.358 0.581123 -7.77331 0
M  V30 2201 N 196.587 1.43421 -0.653314 0
M  V30 2202 C 197.815 2.06163 -0.174491 0
M  V30 2203 C 198.23 1.48969 1.1599 0
M  V30 2204 O 197.587 0.621042 1.71608 0
M  V30 2205 C 197.638 3.61417 -0.0774865 0
M  V30 2206 O 197.359 4.16485 -1.35912 0
M  V30 2207 C 198.86 4.41235 0.427402 0
M  V30 2208 H 196.08 0.664946 -0.0899353 0
M  V30 2209 H 198.624 1.83924 -0.893988 0
M  V30 2210 H 196.779 3.82841 0.59257 0
M  V30 2211 H 197.193 5.10153 -1.21839 0
M  V30 2212 H 198.667 5.5021 0.44423 0
M  V30 2213 H 199.144 4.14268 1.45873 0
M  V30 2214 H 199.75 4.2478 -0.210167 0
M  V30 2215 N 198.065 0.39524 1.52563 0
M  V30 2216 C 198.997 -0.472201 2.24283 0
M  V30 2217 C 200.01 -1.02178 1.26742 0
M  V30 2218 O 201.199 -0.923097 1.52778 0
M  V30 2219 C 198.299 -1.66775 2.95024 0
M  V30 2220 C 197.472 -1.2445 4.19322 0
M  V30 2221 C 196.531 -2.30539 4.7301 0
M  V30 2222 O 195.557 -1.91702 5.35947 0
M  V30 2223 N 196.759 -3.6253 4.53379 0
M  V30 2224 H 199.524 0.142282 2.99362 0
M  V30 2225 H 197.085 0.2219 1.60372 0
M  V30 2226 H 199.077 -2.37283 3.27839 0
M  V30 2227 H 197.647 -2.18845 2.23217 0
M  V30 2228 H 196.867 -0.368069 3.92478 0
M  V30 2229 H 198.155 -0.938457 5.0007 0
M  V30 2230 H 197.553 -3.96841 4.03154 0
M  V30 2231 H 196.11 -4.29055 4.90668 0
M  V30 2232 N 199.544 -1.57102 0.125237 0
M  V30 2233 C 200.821 -1.86953 -0.575142 0
M  V30 2234 C 201.201 -1.02749 -1.84407 0
M  V30 2235 O 200.549 -0.108144 -2.28244 0
M  V30 2236 C 200.759 -3.38198 -0.861583 0
M  V30 2237 C 202.107 -4.06937 -1.21192 0
M  V30 2238 O 203.131 -3.43252 -0.951645 0
M  V30 2239 O 201.99 -5.19364 -1.70068 0
M  V30 2240 H 199.084 -0.774147 -0.290906 0
M  V30 2241 H 201.63 -1.68942 0.160211 0
M  V30 2242 H 200.402 -3.91282 0.0373647 0
M  V30 2243 H 200.025 -3.61661 -1.65188 0
M  V30 2244 N 201.022 0.148545 -1.56898 0
M  V30 2245 C 202.269 0.861418 -1.83264 0
M  V30 2246 C 202.597 1.81239 -0.705883 0
M  V30 2247 O 201.852 1.93305 0.305212 0
M  V30 2248 C 202.151 1.67064 -3.1595 0
M  V30 2249 C 201.817 0.866591 -4.42494 0
M  V30 2250 C 200.479 0.644762 -4.76861 0
M  V30 2251 C 202.831 0.30418 -5.20312 0
M  V30 2252 C 200.159 -0.15021 -5.86508 0
M  V30 2253 C 202.511 -0.477824 -6.30793 0
M  V30 2254 C 201.175 -0.710244 -6.63711 0
M  V30 2255 H 200.445 0.315215 -0.670612 0
M  V30 2256 H 203.092 0.125142 -1.91091 0
M  V30 2257 H 201.397 2.47698 -3.03567 0
M  V30 2258 H 203.094 2.22566 -3.33565 0
M  V30 2259 H 199.684 1.04955 -4.15551 0
M  V30 2260 H 203.868 0.462844 -4.94137 0
M  V30 2261 H 199.124 -0.339796 -6.10455 0
M  V30 2262 H 203.298 -0.92076 -6.90286 0
M  V30 2263 H 200.925 -1.3281 -7.48509 0
M  V30 2264 N 202.5 1.5196 0.417844 0
M  V30 2265 C 203.747 1.65591 1.16559 0
M  V30 2266 C 204.075 0.381565 1.90721 0
M  V30 2267 O 203.33 -0.635156 1.85106 0
M  V30 2268 C 203.629 2.82269 2.19223 0
M  V30 2269 C 203.295 4.20819 1.61933 0
M  V30 2270 C 201.957 4.58506 1.46033 0
M  V30 2271 C 204.309 5.07196 1.20008 0
M  V30 2272 C 201.637 5.80257 0.867113 0
M  V30 2273 C 203.989 6.29544 0.621086 0
M  V30 2274 C 202.653 6.65987 0.449144 0
M  V30 2275 H 201.923 0.605939 0.42652 0
M  V30 2276 H 204.57 1.86041 0.45397 0
M  V30 2277 H 202.875 2.56118 2.96498 0
M  V30 2278 H 204.572 2.90012 2.76936 0
M  V30 2279 H 201.162 3.91116 1.7529 0
M  V30 2280 H 205.346 4.7867 1.31105 0
M  V30 2281 H 200.602 6.07124 0.721833 0
M  V30 2282 H 204.776 6.95805 0.287798 0
M  V30 2283 H 202.403 7.60199 -0.012632 0
M  V30 2284 N 203.978 -0.674533 1.42435 0
M  V30 2285 C 204.888 -1.81751 1.48337 0
M  V30 2286 C 205.904 -1.69975 0.372099 0
M  V30 2287 O 207.08 -1.91521 0.62304 0
M  V30 2288 C 204.145 -3.17895 1.38361 0
M  V30 2289 C 203.206 -3.41625 2.59982 0
M  V30 2290 C 202.439 -4.71274 2.50473 0
M  V30 2291 O 202.662 -5.49197 1.54075 0
M  V30 2292 O 201.596 -4.96254 3.4061 0
M  V30 2293 H 205.422 -1.79728 2.44809 0
M  V30 2294 H 203.007 -0.830312 1.24202 0
M  V30 2295 H 204.889 -3.99136 1.35161 0
M  V30 2296 H 203.564 -3.20555 0.450144 0
M  V30 2297 H 202.471 -2.60231 2.68757 0
M  V30 2298 H 203.804 -3.43796 3.52229 0
M  V30 2299 N 205.456 -1.28612 -0.910864 0
M  V30 2300 C 206.684 -1.18792 -1.69399 0
M  V30 2301 C 207.099 0.253039 -1.87097 0
M  V30 2302 O 206.456 1.17071 -1.40003 0
M  V30 2303 C 206.507 -1.88511 -3.08457 0
M  V30 2304 O 206.228 -3.26979 -2.91576 0
M  V30 2305 C 207.729 -1.85029 -4.02839 0
M  V30 2306 H 204.949 -0.412233 -0.529438 0
M  V30 2307 H 207.493 -1.69788 -1.13984 0
M  V30 2308 H 205.648 -1.41379 -3.60681 0
M  V30 2309 H 206.062 -3.61936 -3.79608 0
M  V30 2310 H 207.536 -2.38395 -4.97867 0
M  V30 2311 H 208.013 -0.823303 -4.31414 0
M  V30 2312 H 208.619 -2.31853 -3.56545 0
M  V30 2313 N 206.934 1.1197 -1.10907 0
M  V30 2314 C 207.844 2.21433 -0.774896 0
M  V30 2315 C 208.86 1.72478 0.229657 0
M  V30 2316 O 210.036 2.01288 0.0672008 0
M  V30 2317 C 207.101 3.4602 -0.216986 0
M  V30 2318 C 206.162 4.09791 -1.27944 0
M  V30 2319 C 205.395 5.28431 -0.748055 0
M  V30 2320 O 205.618 5.68823 0.423833 0
M  V30 2321 O 204.552 5.82644 -1.51027 0
M  V30 2322 H 208.378 2.5242 -1.68873 0
M  V30 2323 H 205.963 1.20399 -0.884555 0
M  V30 2324 H 207.845 4.21304 0.090059 0
M  V30 2325 H 206.52 3.16698 0.669633 0
M  V30 2326 H 205.427 3.36265 -1.63941 0
M  V30 2327 H 206.76 4.4328 -2.13925 0
M  V30 2328 N 208.412 0.89855 1.29475 0
M  V30 2329 C 209.64 0.539261 1.99749 0
M  V30 2330 C 210.055 -0.875716 1.67262 0
M  V30 2331 O 209.412 -1.57786 0.917049 0
M  V30 2332 C 209.463 0.72061 3.54245 0
M  V30 2333 O 209.184 2.07989 3.8558 0
M  V30 2334 C 210.685 0.366118 4.41786 0
M  V30 2335 H 207.905 0.207047 0.638258 0
M  V30 2336 H 210.449 1.20758 1.65039 0
M  V30 2337 H 208.604 0.0994862 3.87272 0
M  V30 2338 H 209.018 2.10841 4.80257 0
M  V30 2339 H 210.492 0.543848 5.49314 0
M  V30 2340 H 210.969 -0.696763 4.33638 0
M  V30 2341 H 211.575 0.964135 4.14228 0
M  V30 2342 N 209.89 -1.43072 0.660911 0
M  V30 2343 C 210.838 -2.32569 -0.0378199 0
M  V30 2344 C 211.832 -1.49046 -0.805092 0
M  V30 2345 O 213.038 -1.65206 -0.714624 0
M  V30 2346 H 209.413 -0.75136 -0.031019 0
M  V30 2347 H 211.384 -2.89216 0.734609 0
M  V30 2348 C 210.133 -3.33453 -0.985124 0
M  V30 2349 H 209.456 -3.97752 -0.404147 0
M  V30 2350 H 210.896 -3.98691 -1.44297 0
M  V30 2351 C 209.355 -2.64642 -2.08486 0
M  V30 2352 O 209.885 -2.46776 -3.16961 0
M  V30 2353 N 208.091 -2.23891 -1.8526 0
M  V30 2354 H 207.638 -2.38621 -0.970449 0
M  V30 2355 H 207.596 -1.78181 -2.59034 0
M  V30 2356 N 211.368 -0.403325 -1.52352 0
M  V30 2357 C 212.298 0.416205 -2.29761 0
M  V30 2358 C 213.279 1.05123 -1.33728 0
M  V30 2359 O 214.464 1.06134 -1.62632 0
M  V30 2360 C 211.594 1.53624 -3.11475 0
M  V30 2361 C 210.548 1.02653 -4.15507 0
M  V30 2362 C 209.874 2.23971 -4.85532 0
M  V30 2363 C 211.174 0.08463 -5.22231 0
M  V30 2364 H 212.868 -0.229701 -2.98518 0
M  V30 2365 H 210.414 -0.111913 -1.43564 0
M  V30 2366 H 212.367 2.1165 -3.64393 0
M  V30 2367 H 211.091 2.20994 -2.40477 0
M  V30 2368 H 209.75 0.46871 -3.63591 0
M  V30 2369 H 209.398 2.89883 -4.11068 0
M  V30 2370 H 209.098 1.90521 -5.55856 0
M  V30 2371 H 210.622 2.82614 -5.41259 0
M  V30 2372 H 212.036 0.573509 -5.70424 0
M  V30 2373 H 210.433 -0.160783 -5.99885 0
M  V30 2374 H 211.503 -0.86237 -4.7717 0
M  V30 2375 N 212.846 1.57033 -0.133567 0
M  V30 2376 C 213.809 2.14897 0.796995 0
M  V30 2377 C 214.809 1.0874 1.18458 0
M  V30 2378 O 215.999 1.34446 1.1077 0
M  V30 2379 C 213.131 2.70112 2.07973 0
M  V30 2380 H 214.324 2.98457 0.293873 0
M  V30 2381 H 211.877 1.55871 0.115787 0
M  V30 2382 H 212.612 1.9018 2.62682 0
M  V30 2383 H 212.397 3.47764 1.81115 0
M  V30 2384 H 213.887 3.14738 2.74462 0
M  V30 2385 N 214.325 -0.140222 1.56975 0
M  V30 2386 C 215.602 -0.880769 1.74648 0
M  V30 2387 C 215.982 -1.99036 0.703404 0
M  V30 2388 O 215.33 -2.26821 -0.27648 0
M  V30 2389 C 215.54 -1.417 3.18939 0
M  V30 2390 C 216.888 -1.87774 3.80823 0
M  V30 2391 O 217.912 -1.51427 3.2241 0
M  V30 2392 O 216.771 -2.54827 4.83452 0
M  V30 2393 H 213.865 -0.416713 0.714338 0
M  V30 2394 H 216.411 -0.125618 1.69234 0
M  V30 2395 H 215.183 -0.619902 3.86359 0
M  V30 2396 H 214.806 -2.23546 3.28805 0
M  V30 2397 N 215.803 -1.52179 -0.40978 0
M  V30 2398 C 217.08 -1.56769 -1.16974 0
M  V30 2399 C 217.46 -0.348322 -2.08206 0
M  V30 2400 O 216.808 0.664862 -2.18613 0
M  V30 2401 C 217.018 -2.89603 -1.9476 0
M  V30 2402 C 218.366 -3.42579 -2.50849 0
M  V30 2403 O 219.39 -2.91338 -2.04941 0
M  V30 2404 O 218.249 -4.32054 -3.34652 0
M  V30 2405 H 215.343 -0.631439 -0.534054 0
M  V30 2406 H 217.889 -1.64507 -0.416613 0
M  V30 2407 H 216.661 -3.698 -1.27921 0
M  V30 2408 H 216.284 -2.85155 -2.77079 0
M  V30 2409 N 217.281 0.66697 -1.42791 0
M  V30 2410 C 218.528 1.42699 -1.43678 0
M  V30 2411 C 218.856 1.94419 -0.0560425 0
M  V30 2412 O 218.111 1.7182 0.936831 0
M  V30 2413 C 218.41 2.6349 -2.4147 0
M  V30 2414 C 218.076 2.30267 -3.8767 0
M  V30 2415 C 216.738 2.20918 -4.27491 0
M  V30 2416 C 219.09 2.03435 -4.79858 0
M  V30 2417 C 216.418 1.82873 -5.57471 0
M  V30 2418 C 218.77 1.66892 -6.10188 0
M  V30 2419 C 217.434 1.56058 -6.49001 0
M  V30 2420 H 216.704 0.522171 -0.525755 0
M  V30 2421 H 219.351 0.759785 -1.75783 0
M  V30 2422 H 217.656 3.35279 -2.0272 0
M  V30 2423 H 219.353 3.21684 -2.39417 0
M  V30 2424 H 215.943 2.38449 -3.56146 0
M  V30 2425 H 220.127 2.09586 -4.49875 0
M  V30 2426 H 215.383 1.7306 -5.86396 0
M  V30 2427 H 219.557 1.45157 -6.81104 0
M  V30 2428 H 217.184 1.26348 -7.49627 0
M  V30 2429 N 218.759 1.29093 0.90403 0
M  V30 2430 C 220.006 1.16813 1.65411 0
M  V30 2431 C 220.334 -0.28128 1.92455 0
M  V30 2432 O 219.589 -1.22006 1.53013 0
M  V30 2433 C 219.888 1.92224 3.01305 0
M  V30 2434 C 219.554 3.41968 2.93885 0
M  V30 2435 C 218.216 3.82807 2.91569 0
M  V30 2436 C 220.568 4.37409 2.83413 0
M  V30 2437 C 217.896 5.1741 2.76594 0
M  V30 2438 C 220.248 5.72097 2.69977 0
M  V30 2439 C 218.912 6.12199 2.66024 0
M  V30 2440 H 218.182 0.42745 0.605283 0
M  V30 2441 H 220.829 1.59981 1.05254 0
M  V30 2442 H 219.134 1.41635 3.65304 0
M  V30 2443 H 220.831 1.80131 3.58265 0
M  V30 2444 H 217.421 3.09504 2.96488 0
M  V30 2445 H 221.605 4.06813 2.84283 0
M  V30 2446 H 216.861 5.47596 2.71935 0
M  V30 2447 H 221.035 6.45704 2.60844 0
M  V30 2448 H 218.662 7.16448 2.54178 0
M  V30 2449 N 220.237 -1.11381 1.11499 0
M  V30 2450 C 221.465 -1.86934 0.88675 0
M  V30 2451 C 221.88 -1.80195 -0.563476 0
M  V30 2452 O 221.237 -1.18367 -1.38908 0
M  V30 2453 C 221.288 -3.35722 1.34064 0
M  V30 2454 O 221.009 -3.4232 2.73401 0
M  V30 2455 C 222.51 -4.2818 1.14791 0
M  V30 2456 H 219.73 -0.591117 0.317523 0
M  V30 2457 H 222.274 -1.40865 1.48248 0
M  V30 2458 H 220.429 -3.79294 0.788355 0
M  V30 2459 H 220.843 -4.34971 2.93087 0
M  V30 2460 H 222.317 -5.30817 1.5145 0
M  V30 2461 H 222.794 -4.39113 0.0875279 0
M  V30 2462 H 223.4 -3.90402 1.68721 0
M  V30 2463 N 221.715 -0.905404 -1.28997 0
M  V30 2464 C 222.625 -0.392246 -2.31298 0
M  V30 2465 C 223.641 0.515889 -1.66176 0
M  V30 2466 O 224.817 0.404093 -1.97304 0
M  V30 2467 C 221.882 0.36686 -3.44754 0
M  V30 2468 C 220.943 -0.573485 -4.25452 0
M  V30 2469 C 220.176 0.149488 -5.33491 0
M  V30 2470 O 220.399 1.37255 -5.5364 0
M  V30 2471 O 219.333 -0.510919 -5.99728 0
M  V30 2472 H 223.159 -1.2411 -2.77183 0
M  V30 2473 H 220.744 -0.669926 -1.33538 0
M  V30 2474 H 222.626 0.795907 -4.13816 0
M  V30 2475 H 221.301 1.19169 -3.00966 0
M  V30 2476 H 220.208 -1.05176 -3.59011 0
M  V30 2477 H 221.541 -1.36489 -4.72897 0
M  V30 2478 N 223.193 1.4272 -0.668489 0
M  V30 2479 C 224.47 1.95248 -0.117373 0
M  V30 2480 C 224.85 1.60919 1.36632 0
M  V30 2481 O 224.198 0.902095 2.09939 0
M  V30 2482 C 224.408 3.46927 -0.379806 0
M  V30 2483 C 225.756 4.23588 -0.292923 0
M  V30 2484 O 226.78 3.5482 -0.313204 0
M  V30 2485 O 225.639 5.46017 -0.229697 0
M  V30 2486 H 222.733 0.827 0.00079152 0
M  V30 2487 H 225.279 1.52581 -0.742783 0
M  V30 2488 H 224.051 3.65096 -1.40786 0
M  V30 2489 H 223.674 3.96627 0.277923 0
M  V30 2490 N 224.671 0.411399 1.52136 0
M  V30 2491 C 225.899 -0.163076 2.06256 0
M  V30 2492 C 226.314 -1.3867 1.28125 0
M  V30 2493 O 225.671 -1.79423 0.333721 0
M  V30 2494 C 225.722 -0.511252 3.57867 0
M  V30 2495 O 225.443 0.66378 4.33042 0
M  V30 2496 C 226.944 -1.13921 4.28412 0
M  V30 2497 H 224.164 -0.0193897 0.67072 0
M  V30 2498 H 226.708 0.583007 1.96013 0
M  V30 2499 H 224.863 -1.20723 3.6811 0
M  V30 2500 H 225.277 0.372601 5.23175 0
M  V30 2501 H 226.751 -1.33302 5.35663 0
M  V30 2502 H 227.228 -2.11296 3.85033 0
M  V30 2503 H 227.834 -0.483373 4.22544 0
M  V30 2504 N 226.149 -1.5696 0.141893 0
M  V30 2505 C 227.374 -2.00754 -0.520838 0
M  V30 2506 C 227.799 -1.0213 -1.57959 0
M  V30 2507 O 227.157 0.00371324 -1.813 0
M  V30 2508 C 227.205 -3.43318 -1.10294 0
M  V30 2509 O 226.309 -3.47679 -2.21795 0
M  V30 2510 H 225.65 -0.651564 -0.127908 0
M  V30 2511 H 228.18 -2.03221 0.23712 0
M  V30 2512 H 228.19 -3.82012 -1.43287 0
M  V30 2513 H 226.865 -4.14608 -0.327574 0
M  V30 2514 H 225.442 -3.20824 -1.9007 0
M  V30 2515 N 227.627 0.131896 -1.57047 0
M  V30 2516 C 228.875 0.840269 -1.83804 0
M  V30 2517 C 229.196 1.81017 -0.72512 0
M  V30 2518 O 228.466 1.94272 0.251995 0
M  V30 2519 H 227.046 0.313294 -0.678127 0
M  V30 2520 H 229.708 0.122294 -1.94516 0
M  V30 2521 H 228.804 1.39335 -2.79271 0
M  V30 2522 N 229.106 1.52395 0.401703 0
M  V30 2523 C 230.036 1.79231 1.49661 0
M  V30 2524 C 231.017 0.643654 1.57452 0
M  V30 2525 O 232.202 0.889989 1.72606 0
M  V30 2526 C 229.332 1.94971 2.87409 0
M  V30 2527 C 228.286 3.10604 2.94465 0
M  V30 2528 C 227.612 3.11577 4.34538 0
M  V30 2529 C 228.912 4.49921 2.6527 0
M  V30 2530 H 230.606 2.70917 1.27454 0
M  V30 2531 H 228.152 1.30362 0.6117 0
M  V30 2532 H 230.105 2.12328 3.63999 0
M  V30 2533 H 228.829 0.999632 3.10926 0
M  V30 2534 H 227.488 2.93009 2.20321 0
M  V30 2535 H 227.136 2.14277 4.55076 0
M  V30 2536 H 226.836 3.89247 4.40183 0
M  V30 2537 H 228.36 3.31073 5.13053 0
M  V30 2538 H 229.774 4.67683 3.31581 0
M  V30 2539 H 228.171 5.29564 2.82281 0
M  V30 2540 H 229.241 4.57507 1.60671 0
M  V30 2541 N 230.584 -0.659388 1.43143 0
M  V30 2542 C 231.514 -1.78422 1.50625 0
M  V30 2543 C 232.495 -1.66216 0.361443 0
M  V30 2544 O 233.68 -1.85404 0.577834 0
M  V30 2545 C 230.81 -3.16815 1.42287 0
M  V30 2546 C 229.764 -3.43777 2.54954 0
M  V30 2547 C 229.09 -4.81905 2.31671 0
M  V30 2548 C 230.39 -3.39134 3.97222 0
M  V30 2549 H 232.084 -1.72417 2.44771 0
M  V30 2550 H 229.63 -0.828084 1.17808 0
M  V30 2551 H 231.583 -3.95253 1.46127 0
M  V30 2552 H 230.307 -3.23534 0.446435 0
M  V30 2553 H 228.966 -2.67707 2.50457 0
M  V30 2554 H 228.614 -4.85294 1.32284 0
M  V30 2555 H 228.314 -5.00906 3.07192 0
M  V30 2556 H 229.838 -5.62609 2.37284 0
M  V30 2557 H 231.252 -4.07518 4.03239 0
M  V30 2558 H 229.649 -3.69671 4.72719 0
M  V30 2559 H 230.719 -2.37426 4.22797 0
M  V30 2560 N 232.062 -1.29571 -0.897171 0
M  V30 2561 C 232.972 -1.16808 -2.03453 0
M  V30 2562 C 233.988 -0.0907471 -1.73763 0
M  V30 2563 O 235.164 -0.303312 -1.99103 0
M  V30 2564 C 232.229 -0.848264 -3.36163 0
M  V30 2565 C 231.29 -2.0097 -3.79354 0
M  V30 2566 C 230.523 -1.70505 -5.05731 0
M  V30 2567 O 230.746 -0.62718 -5.66941 0
M  V30 2568 O 229.68 -2.5538 -5.45036 0
M  V30 2569 H 233.506 -2.12325 -2.17144 0
M  V30 2570 H 231.091 -1.09047 -1.02123 0
M  V30 2571 H 232.973 -0.684581 -4.15802 0
M  V30 2572 H 231.648 0.0771071 -3.23608 0
M  V30 2573 H 230.555 -2.22863 -3.00471 0
M  V30 2574 H 231.888 -2.91636 -3.96496 0
M  V30 2575 N 233.54 1.10788 -1.12088 0
M  V30 2576 C 234.47 2.19083 -0.807755 0
M  V30 2577 C 235.451 1.6858 0.226859 0
M  V30 2578 O 236.636 1.93997 0.0888475 0
M  V30 2579 C 233.766 3.46344 -0.257576 0
M  V30 2580 C 232.72 4.101 -1.22483 0
M  V30 2581 C 232.046 5.32016 -0.535052 0
M  V30 2582 C 233.346 4.54236 -2.57811 0
M  V30 2583 H 235.04 2.45534 -1.71328 0
M  V30 2584 H 232.586 1.1801 -0.825205 0
M  V30 2585 H 234.539 4.21392 -0.0262679 0
M  V30 2586 H 233.263 3.19373 0.683278 0
M  V30 2587 H 231.922 3.37054 -1.44189 0
M  V30 2588 H 231.57 5.01319 0.410827 0
M  V30 2589 H 231.27 5.75625 -1.18024 0
M  V30 2590 H 232.794 6.09799 -0.312695 0
M  V30 2591 H 234.208 5.20575 -2.40155 0
M  V30 2592 H 232.605 5.08682 -3.18375 0
M  V30 2593 H 233.675 3.6734 -3.16528 0
M  V30 2594 N 235.018 0.912232 1.28515 0
M  V30 2595 C 235.965 0.397954 2.27343 0
M  V30 2596 C 236.935 -0.526766 1.57526 0
M  V30 2597 O 238.12 -0.449292 1.85435 0
M  V30 2598 C 235.26 -0.357263 3.43246 0
M  V30 2599 C 234.373 0.599788 4.27816 0
M  V30 2600 C 233.508 -0.173725 5.30916 0
M  V30 2601 C 232.547 0.777039 6.07148 0
M  V30 2602 N 231.684 0.0371398 7.0209 0
M  V30 2603 H 236.524 1.24577 2.70711 0
M  V30 2604 H 234.061 0.625612 1.33133 0
M  V30 2605 H 236.019 -0.8113 4.09236 0
M  V30 2606 H 234.649 -1.16943 3.00872 0
M  V30 2607 H 233.701 1.17235 3.61884 0
M  V30 2608 H 235.013 1.32704 4.80823 0
M  V30 2609 H 234.167 -0.688394 6.02782 0
M  V30 2610 H 232.906 -0.934041 4.78672 0
M  V30 2611 H 231.911 1.3031 5.34134 0
M  V30 2612 H 233.136 1.53689 6.61481 0
M  V30 2613 H 231.082 -0.705213 6.52198 0
M  V30 2614 H 230.999 0.704249 7.52713 0
M  V30 2615 H 232.267 -0.457383 7.78157 0
M  V30 2616 N 236.496 -1.42363 0.676048 0
M  V30 2617 C 237.459 -2.29199 0.00766941 0
M  V30 2618 C 238.459 -1.43389 -0.727745 0
M  V30 2619 O 239.649 -1.64764 -0.56556 0
M  V30 2620 C 236.781 -3.2591 -0.999785 0
M  V30 2621 H 237.974 -2.89794 0.771988 0
M  V30 2622 H 235.527 -1.50024 0.438468 0
M  V30 2623 H 236.262 -2.70256 -1.79255 0
M  V30 2624 H 236.047 -3.89202 -0.475829 0
M  V30 2625 H 237.537 -3.91028 -1.46583 0
M  V30 2626 N 237.974 -0.419461 -1.51915 0
M  V30 2627 C 239.22 0.153166 -2.02221 0
M  V30 2628 C 239.553 1.43907 -1.30401 0
M  V30 2629 O 238.828 1.90055 -0.413438 0
M  V30 2630 C 239.111 0.390291 -3.57979 0
M  V30 2631 C 238.964 -0.913014 -4.40436 0
M  V30 2632 C 240.283 1.16794 -4.2432 0
M  V30 2633 H 237.402 0.0541924 -0.735005 0
M  V30 2634 H 240.044 -0.554955 -1.81715 0
M  V30 2635 H 238.194 0.993491 -3.75582 0
M  V30 2636 H 239.866 -1.54882 -4.34522 0
M  V30 2637 H 238.109 -1.52168 -4.06236 0
M  V30 2638 H 238.78 -0.701361 -5.47526 0
M  V30 2639 H 241.256 0.657161 -4.10878 0
M  V30 2640 H 240.132 1.3026 -5.3322 0
M  V30 2641 H 240.393 2.19132 -3.83971 0
M  V30 2642 N 239.452 1.56882 -0.150215 0
M  V30 2643 C 240.863 1.82995 0.370076 0
M  V30 2644 C 241.214 1.06907 1.64515 0
M  V30 2645 O 240.339 0.315369 2.1409 0
M  V30 2646 C 240.934 3.31942 0.678208 0
M  V30 2647 C 239.493 3.58625 1.14301 0
M  V30 2648 C 238.64 2.76792 0.167778 0
M  V30 2649 H 241.591 1.54209 -0.374858 0
M  V30 2650 H 241.612 3.48272 1.53254 0
M  V30 2651 H 241.124 3.87294 -0.249991 0
M  V30 2652 H 239.225 3.08664 2.08704 0
M  V30 2653 H 239.338 4.67073 1.06676 0
M  V30 2654 H 237.702 2.45972 0.661037 0
M  V30 2655 H 238.485 3.34916 -0.754069 0
M  V30 2656 N 240.93 -0.123565 1.57115 0
M  V30 2657 C 241.893 -1.13583 1.99076 0
M  V30 2658 C 242.893 -1.34564 0.880296 0
M  V30 2659 O 244.083 -1.31158 1.14644 0
M  V30 2660 C 241.215 -2.49128 2.32698 0
M  V30 2661 H 242.408 -0.775287 2.89706 0
M  V30 2662 H 239.961 -0.36771 1.51913 0
M  V30 2663 H 240.696 -2.90111 1.44934 0
M  V30 2664 H 240.481 -2.35255 3.13684 0
M  V30 2665 H 241.971 -3.2199 2.65918 0
M  V30 2666 N 242.408 -1.52605 -0.393616 0
M  V30 2667 C 243.638 -1.71046 -1.15874 0
M  V30 2668 C 244.046 -0.426483 -1.84331 0
M  V30 2669 O 243.389 0.608513 -1.73329 0
M  V30 2670 C 243.451 -2.80118 -2.25332 0
M  V30 2671 C 243.115 -4.21381 -1.76881 0
M  V30 2672 C 244.112 -5.04697 -1.24808 0
M  V30 2673 C 241.797 -4.67683 -1.83244 0
M  V30 2674 C 243.791 -6.32393 -0.797387 0
M  V30 2675 C 241.478 -5.95364 -1.37787 0
M  V30 2676 C 242.476 -6.77549 -0.861208 0
M  V30 2677 O 242.164 -8.02837 -0.413252 0
M  V30 2678 H 241.896 -0.576155 -0.353583 0
M  V30 2679 H 244.45 -2.00018 -0.467123 0
M  V30 2680 H 242.68 -2.46557 -2.97904 0
M  V30 2681 H 244.369 -2.87006 -2.87023 0
M  V30 2682 H 245.135 -4.70111 -1.19252 0
M  V30 2683 H 241.014 -4.03805 -2.22401 0
M  V30 2684 H 244.558 -6.9649 -0.393437 0
M  V30 2685 H 240.455 -6.29455 -1.43026 0
M  V30 2686 H 241.223 -8.16749 -0.53515 0
M  V30 2687 N 243.887 0.651787 -1.4349 0
M  V30 2688 C 244.82 1.77668 -1.43211 0
M  V30 2689 C 245.798 1.59931 -0.29338 0
M  V30 2690 O 246.982 1.82095 -0.487191 0
M  V30 2691 C 244.109 3.14986 -1.24505 0
M  V30 2692 C 243.155 3.51421 -2.41673 0
M  V30 2693 S 243.988 3.51234 -4.04222 0
M  V30 2694 C 245.144 4.91206 -3.87902 0
M  V30 2695 H 245.377 1.77635 -2.38397 0
M  V30 2696 H 242.91 0.824558 -1.30539 0
M  V30 2697 H 244.868 3.94237 -1.144 0
M  V30 2698 H 243.529 3.1258 -0.308651 0
M  V30 2699 H 242.722 4.51291 -2.24393 0
M  V30 2700 H 242.324 2.79585 -2.48411 0
M  V30 2701 H 244.616 5.79902 -3.50315 0
M  V30 2702 H 245.559 5.13537 -4.8753 0
M  V30 2703 H 245.967 4.64808 -3.20334 0
M  V30 2704 N 245.365 1.30045 0.890287 0
M  V30 2705 C 246.593 1.21472 1.67487 0
M  V30 2706 C 247.008 -0.223241 1.87476 0
M  V30 2707 O 246.365 -1.14828 1.41847 0
M  V30 2708 C 246.416 1.93394 3.05419 0
M  V30 2709 O 246.137 3.31576 2.86337 0
M  V30 2710 C 247.638 1.91414 3.99844 0
M  V30 2711 H 244.858 0.420604 0.522813 0
M  V30 2712 H 247.402 1.7158 1.11268 0
M  V30 2713 H 245.557 1.47099 3.58386 0
M  V30 2714 H 245.971 3.67929 3.73802 0
M  V30 2715 H 247.445 2.46285 4.94012 0
M  V30 2716 H 247.922 0.891833 4.3005 0
M  V30 2717 H 248.528 2.37496 3.52811 0
M  V30 2718 N 246.843 -1.10192 1.12674 0
M  V30 2719 C 248.091 -1.81845 0.881861 0
M  V30 2720 C 248.412 -1.85737 -0.593867 0
M  V30 2721 O 247.682 -1.33724 -1.4316 0
M  V30 2722 H 246.262 -0.673432 0.323261 0
M  V30 2723 H 248.924 -1.33316 1.42172 0
M  V30 2724 H 248.02 -2.85288 1.2656 0
M  V30 2725 N 248.321 -0.919034 -1.28029 0
M  V30 2726 C 249.268 -0.410005 -2.27129 0
M  V30 2727 C 250.238 0.518405 -1.57803 0
M  V30 2728 O 251.423 0.439451 -1.8567 0
M  V30 2729 C 248.563 0.339054 -3.4343 0
M  V30 2730 C 247.676 -0.622468 -4.27492 0
M  V30 2731 C 246.811 0.145567 -5.31001 0
M  V30 2732 C 245.85 -0.809226 -6.06727 0
M  V30 2733 N 244.987 -0.0743728 -7.02061 0
M  V30 2734 H 249.827 -1.26011 -2.70047 0
M  V30 2735 H 247.364 -0.632663 -1.328 0
M  V30 2736 H 249.322 0.789586 -4.0966 0
M  V30 2737 H 247.952 1.15346 -3.01488 0
M  V30 2738 H 247.004 -1.19153 -3.61257 0
M  V30 2739 H 248.316 -1.35252 -4.80113 0
M  V30 2740 H 247.47 0.656417 -6.03139 0
M  V30 2741 H 246.209 0.908643 -4.79161 0
M  V30 2742 H 245.214 -1.3314 -5.33436 0
M  V30 2743 H 246.439 -1.57194 -6.60656 0
M  V30 2744 H 244.385 0.670616 -6.52563 0
M  V30 2745 H 244.302 -0.744157 -7.52329 0
M  V30 2746 H 245.57 0.416109 -7.78389 0
M  V30 2747 N 249.799 1.42003 -0.683588 0
M  V30 2748 C 250.729 2.33487 -0.024866 0
M  V30 2749 C 251.71 1.51163 0.779975 0
M  V30 2750 O 252.895 1.79739 0.735362 0
M  V30 2751 C 250.025 3.3487 0.920836 0
M  V30 2752 C 248.979 4.27414 0.223958 0
M  V30 2753 C 248.305 5.19074 1.2832 0
M  V30 2754 C 249.605 5.14445 -0.90242 0
M  V30 2755 H 251.299 2.88819 -0.788921 0
M  V30 2756 H 248.845 1.38873 -0.38083 0
M  V30 2757 H 250.798 3.97787 1.39081 0
M  V30 2758 H 249.522 2.77861 1.71642 0
M  V30 2759 H 248.181 3.65904 -0.225864 0
M  V30 2760 H 247.829 4.58387 2.071 0
M  V30 2761 H 247.529 5.81822 0.821995 0
M  V30 2762 H 249.053 5.84867 1.75392 0
M  V30 2763 H 250.467 5.70998 -0.513272 0
M  V30 2764 H 248.864 5.86072 -1.28997 0
M  V30 2765 H 249.934 4.52322 -1.74737 0
M  V30 2766 N 251.277 0.427512 1.51691 0
M  V30 2767 C 252.525 -0.141948 2.01601 0
M  V30 2768 C 252.846 -1.44067 1.31414 0
M  V30 2769 O 252.116 -1.90763 0.445658 0
M  V30 2770 H 250.696 -0.0554468 0.744939 0
M  V30 2771 H 253.358 0.567968 1.86441 0
M  V30 2772 H 252.454 -0.324913 3.10404 0
M  V30 2773 N 252.755 -1.56801 0.158532 0
M  V30 2774 C 254.002 -1.9649 -0.489679 0
M  V30 2775 C 254.33 -1.04394 -1.6411 0
M  V30 2776 O 253.585 -0.0754401 -1.95555 0
M  V30 2777 C 253.884 -3.4235 -1.02623 0
M  V30 2778 C 253.55 -4.50899 0.00794526 0
M  V30 2779 C 252.212 -4.80312 0.292207 0
M  V30 2780 C 254.564 -5.16333 0.710584 0
M  V30 2781 C 251.892 -5.72461 1.28472 0
M  V30 2782 C 254.244 -6.09553 1.69199 0
M  V30 2783 C 252.908 -6.37339 1.98383 0
M  V30 2784 H 252.178 -0.719009 -0.179186 0
M  V30 2785 H 254.825 -1.8989 0.247798 0
M  V30 2786 H 253.13 -3.45838 -1.84128 0
M  V30 2787 H 254.827 -3.70393 -1.53656 0
M  V30 2788 H 251.417 -4.28015 -0.22379 0
M  V30 2789 H 255.601 -4.93732 0.504174 0
M  V30 2790 H 250.857 -5.92278 1.51714 0
M  V30 2791 H 255.031 -6.59327 2.24189 0
M  V30 2792 H 252.658 -7.08546 2.7544 0
M  V30 2793 N 254.233 0.115231 -1.57178 0
M  V30 2794 C 255.482 0.820945 -1.84237 0
M  V30 2795 C 255.795 1.80866 -0.744761 0
M  V30 2796 O 257.001 2.56083 -0.901871 0
M  V30 2797 C 255.457 1.51072 -3.26658 0
M  V30 2798 C 255.065 0.563795 -4.44438 0
M  V30 2799 C 256.809 2.20134 -3.62962 0
M  V30 2800 C 254.716 1.25701 -5.77887 0
M  V30 2801 H 253.646 0.310328 -0.687177 0
M  V30 2802 H 256.297 0.0737134 -1.83352 0
M  V30 2803 H 254.679 2.30471 -3.22024 0
M  V30 2804 H 255.853 -0.197247 -4.60378 0
M  V30 2805 H 254.168 -0.0200638 -4.16395 0
M  V30 2806 H 256.765 2.72696 -4.59936 0
M  V30 2807 H 257.108 2.98107 -2.90582 0
M  V30 2808 H 257.641 1.47619 -3.69396 0
M  V30 2809 H 254.38 0.518493 -6.53446 0
M  V30 2810 H 253.9 1.98997 -5.65827 0
M  V30 2811 H 255.579 1.78915 -6.2177 0
M  V30 2812 N 255.711 1.52812 0.385517 0
M  V30 2813 C 256.674 1.77188 1.45386 0
M  V30 2814 C 257.674 0.641953 1.4743 0
M  V30 2815 O 258.864 0.910033 1.4854 0
M  V30 2816 C 255.996 1.87582 2.8465 0
M  V30 2817 H 257.189 2.72583 1.25054 0
M  V30 2818 H 254.742 1.43586 0.617467 0
M  V30 2819 H 255.477 0.941849 3.10322 0
M  V30 2820 H 255.262 2.69748 2.84567 0
M  V30 2821 H 256.752 2.08102 3.62054 0
M  V30 2822 N 257.189 -0.644168 1.43834 0
M  V30 2823 C 258.437 -1.40117 1.45642 0
M  V30 2824 C 258.758 -1.94814 0.0852413 0
M  V30 2825 O 258.028 -1.74988 -0.880688 0
M  V30 2826 H 256.608 -0.52005 0.536243 0
M  V30 2827 H 259.27 -0.7591 1.7951 0
M  V30 2828 H 258.366 -2.23902 2.17427 0
M  V30 2829 N 258.668 -1.30515 -0.883378 0
M  V30 2830 C 259.914 -1.19607 -1.63774 0
M  V30 2831 C 260.247 0.248314 -1.92606 0
M  V30 2832 O 259.522 1.17742 -1.54813 0
M  V30 2833 C 259.805 -2.02669 -2.97653 0
M  V30 2834 C 259.658 -3.55335 -2.75784 0
M  V30 2835 C 260.977 -1.86573 -3.98596 0
M  V30 2836 H 258.096 -0.435856 -0.594305 0
M  V30 2837 H 260.738 -1.60165 -1.02212 0
M  V30 2838 H 258.888 -1.68208 -3.50197 0
M  V30 2839 H 260.56 -3.99863 -2.30016 0
M  V30 2840 H 258.803 -3.79438 -2.1026 0
M  V30 2841 H 259.474 -4.08745 -3.70988 0
M  V30 2842 H 261.95 -2.16703 -3.55217 0
M  V30 2843 H 260.826 -2.47014 -4.90179 0
M  V30 2844 H 261.087 -0.825321 -4.34328 0
M  V30 2845 N 260.146 1.09593 -1.13257 0
M  V30 2846 C 261.395 1.81105 -0.887917 0
M  V30 2847 C 261.708 1.86563 0.587672 0
M  V30 2848 O 262.914 2.54367 0.949204 0
M  V30 2849 C 261.37 3.25338 -1.53895 0
M  V30 2850 C 260.978 3.28151 -3.04994 0
M  V30 2851 C 262.722 4.01617 -1.37492 0
M  V30 2852 C 260.629 4.66897 -3.6299 0
M  V30 2853 H 259.559 0.678661 -0.328534 0
M  V30 2854 H 262.21 1.23183 -1.36008 0
M  V30 2855 H 260.592 3.8331 -0.994446 0
M  V30 2856 H 261.766 2.79953 -3.66009 0
M  V30 2857 H 260.081 2.65361 -3.20893 0
M  V30 2858 H 262.678 5.04119 -1.78235 0
M  V30 2859 H 263.021 4.15072 -0.31957 0
M  V30 2860 H 263.554 3.50082 -1.88912 0
M  V30 2861 H 260.293 4.58643 -4.68323 0
M  V30 2862 H 259.813 5.15426 -3.06752 0
M  V30 2863 H 261.492 5.3587 -3.62563 0
M  V30 2864 N 261.624 0.925811 1.2754 0
M  V30 2865 C 262.572 0.413897 2.28888 0
M  V30 2866 C 263.566 -0.500779 1.61829 0
M  V30 2867 O 264.772 -0.38069 1.75928 0
M  V30 2868 H 261.147 0.115274 0.743112 0
M  V30 2869 H 263.118 1.28151 2.69481 0
M  V30 2870 C 261.867 -0.319792 3.46226 0
M  V30 2871 H 261.19 0.374846 3.98039 0
M  V30 2872 H 262.63 -0.642435 4.19105 0
M  V30 2873 C 261.089 -1.53209 3.00048 0
M  V30 2874 O 261.619 -2.6309 3.03557 0
M  V30 2875 N 259.825 -1.38326 2.55566 0
M  V30 2876 H 259.372 -0.489292 2.5291 0
M  V30 2877 H 259.33 -2.19564 2.25031 0
M  V30 2878 N 263.102 -1.41638 0.69111 0
M  V30 2879 C 264.518 -1.55435 0.362224 0
M  V30 2880 C 264.718 -1.66754 -1.13117 0
M  V30 2881 O 263.774 -1.64348 -1.91692 0
M  V30 2882 C 265.087 -2.79588 1.10684 0
M  V30 2883 C 266.635 -2.9338 1.09075 0
M  V30 2884 C 267.11 -4.20414 1.81703 0
M  V30 2885 N 268.601 -4.27362 1.7865 0
M  V30 2886 C 269.336 -5.24507 2.31689 0
M  V30 2887 N 268.832 -6.27708 2.93179 0
M  V30 2888 N 270.625 -5.16416 2.2197 0
M  V30 2889 H 262.776 -1.32536 1.65976 0
M  V30 2890 H 265.039 -0.639115 0.700168 0
M  V30 2891 H 264.745 -2.77419 2.16175 0
M  V30 2892 H 264.619 -3.70973 0.682545 0
M  V30 2893 H 267.006 -2.95067 0.0441238 0
M  V30 2894 H 267.087 -2.0318 1.55407 0
M  V30 2895 H 266.731 -4.19488 2.86343 0
M  V30 2896 H 266.661 -5.09578 1.32808 0
M  V30 2897 H 269.152 -3.53415 1.33815 0
M  V30 2898 H 269.465 -6.98217 3.31229 0
M  V30 2899 H 267.81 -6.28223 2.97255 0
M  V30 2900 H 271.001 -4.34716 1.73607 0
M  V30 2901 H 271.174 -5.91958 2.63609 0
M  V30 2902 N 264.58 -0.43555 -1.51462 0
M  V30 2903 C 265.49 0.383001 -2.31453 0
M  V30 2904 C 266.506 1.02931 -1.4029 0
M  V30 2905 O 267.682 1.02507 -1.73362 0
M  V30 2906 C 264.747 1.47043 -3.13973 0
M  V30 2907 C 263.808 0.844433 -4.20913 0
M  V30 2908 C 263.041 1.88004 -4.9949 0
M  V30 2909 O 263.264 3.10199 -4.78678 0
M  V30 2910 O 262.198 1.47157 -5.83634 0
M  V30 2911 H 266.024 -0.269964 -3.02498 0
M  V30 2912 H 263.609 -0.19813 -1.4808 0
M  V30 2913 H 265.491 2.10113 -3.65281 0
M  V30 2914 H 264.166 2.10751 -2.45695 0
M  V30 2915 H 263.073 0.175729 -3.73687 0
M  V30 2916 H 264.406 0.250869 -4.9156 0
M  V30 2917 N 266.058 1.56714 -0.166846 0
M  V30 2918 C 267.474 1.58473 0.189372 0
M  V30 2919 C 267.674 1.18201 1.63189 0
M  V30 2920 O 266.73 0.891528 2.36237 0
M  V30 2921 C 268.043 3.00573 -0.0873872 0
M  V30 2922 C 269.591 3.1299 -0.0252443 0
M  V30 2923 C 270.066 4.57174 -0.274934 0
M  V30 2924 N 271.557 4.62665 -0.222553 0
M  V30 2925 C 272.292 5.72072 -0.389985 0
M  V30 2926 N 271.788 6.90054 -0.616229 0
M  V30 2927 N 273.581 5.61153 -0.326202 0
M  V30 2928 H 265.732 1.8118 -1.10849 0
M  V30 2929 H 267.995 0.839525 -0.440342 0
M  V30 2930 H 267.701 3.34497 -1.0865 0
M  V30 2931 H 267.575 3.72019 0.623037 0
M  V30 2932 H 269.962 2.78895 0.96444 0
M  V30 2933 H 270.043 2.43989 -0.768309 0
M  V30 2934 H 269.687 4.91976 -1.26181 0
M  V30 2935 H 269.617 5.24328 0.48869 0
M  V30 2936 H 272.108 3.77863 -0.0531512 0
M  V30 2937 H 272.421 7.69311 -0.733559 0
M  V30 2938 H 270.766 6.91927 -0.652791 0
M  V30 2939 H 273.957 4.67859 -0.150072 0
M  V30 2940 H 274.13 6.46364 -0.460116 0
M  V30 2941 N 267.536 -0.106894 1.57237 0
M  V30 2942 C 268.469 -1.16125 1.96444 0
M  V30 2943 C 269.447 -1.3947 0.835871 0
M  V30 2944 O 270.631 -1.53425 1.09513 0
M  V30 2945 C 267.758 -2.51277 2.27107 0
M  V30 2946 C 266.804 -2.44285 3.4961 0
M  V30 2947 S 267.637 -1.87077 5.01759 0
M  V30 2948 C 268.793 -3.23877 5.35588 0
M  V30 2949 H 269.026 -0.826971 2.85567 0
M  V30 2950 H 266.559 -0.314124 1.51171 0
M  V30 2951 H 268.517 -3.29035 2.45451 0
M  V30 2952 H 267.178 -2.81879 1.38576 0
M  V30 2953 H 266.371 -3.4387 3.68469 0
M  V30 2954 H 265.973 -1.74652 3.30715 0
M  V30 2955 H 268.265 -4.20122 5.31511 0
M  V30 2956 H 269.208 -3.09833 6.36717 0
M  V30 2957 H 269.616 -3.22864 4.63054 0
M  V30 2958 N 269.014 -1.53014 -0.377408 0
M  V30 2959 C 269.977 -1.77957 -1.44444 0
M  V30 2960 C 270.977 -0.649763 -1.47087 0
M  V30 2961 O 272.167 -0.917897 -1.48055 0
M  V30 2962 C 269.299 -1.89089 -2.83651 0
M  V30 2963 H 270.492 -2.73243 -1.23606 0
M  V30 2964 H 268.045 -1.43912 -0.609844 0
M  V30 2965 H 268.78 -0.958293 -3.09818 0
M  V30 2966 H 268.565 -2.71254 -2.83132 0
M  V30 2967 H 270.055 -2.1002 -3.60945 0
M  V30 2968 N 270.492 0.636531 -1.44174 0
M  V30 2969 C 271.717 1.42847 -1.50364 0
M  V30 2970 C 272.142 1.87665 -0.127867 0
M  V30 2971 O 271.5 1.58408 0.88185 0
M  V30 2972 C 271.548 2.62854 -2.4686 0
M  V30 2973 O 270.652 3.62501 -1.9664 0
M  V30 2974 H 269.993 0.427642 -0.507955 0
M  V30 2975 H 272.523 0.777422 -1.89255 0
M  V30 2976 H 272.533 3.10465 -2.64718 0
M  V30 2977 H 271.208 2.29578 -3.46795 0
M  V30 2978 H 269.785 3.21735 -1.88523 0
M  V30 2979 N 271.97 1.30982 0.876444 0
M  V30 2980 C 273.217 1.20296 1.62896 0
M  V30 2981 C 273.545 -0.240395 1.93009 0
M  V30 2982 O 272.8 -1.18733 1.55567 0
M  V30 2983 C 273.099 1.98572 2.9716 0
M  V30 2984 C 272.765 3.48125 2.86566 0
M  V30 2985 C 271.427 3.88905 2.83383 0
M  V30 2986 C 273.779 4.43322 2.74071 0
M  V30 2987 C 271.107 5.2316 2.65556 0
M  V30 2988 C 273.459 5.77695 2.57781 0
M  V30 2989 C 272.123 6.17704 2.52979 0
M  V30 2990 H 271.393 0.440193 0.59608 0
M  V30 2991 H 274.04 1.62177 1.01837 0
M  V30 2992 H 272.345 1.49352 3.62217 0
M  V30 2993 H 274.042 1.8769 3.54364 0
M  V30 2994 H 270.632 3.15723 2.89856 0
M  V30 2995 H 274.816 4.12752 2.75589 0
M  V30 2996 H 270.072 5.53241 2.60259 0
M  V30 2997 H 274.246 6.51091 2.47089 0
M  V30 2998 H 271.873 7.21678 2.38924 0
M  V30 2999 N 273.449 -1.08991 1.13837 0
M  V30 3000 C 274.359 -2.19301 0.833333 0
M  V30 3001 C 275.375 -1.73026 -0.183847 0
M  V30 3002 O 276.551 -2.01395 -0.0138092 0
M  V30 3003 C 273.616 -3.45323 0.308651 0
M  V30 3004 C 272.677 -4.06255 1.38764 0
M  V30 3005 C 271.91 -5.26262 0.887896 0
M  V30 3006 O 272.133 -5.69747 -0.27287 0
M  V30 3007 O 271.067 -5.78435 1.66421 0
M  V30 3008 H 274.893 -2.47854 1.75506 0
M  V30 3009 H 272.478 -1.18012 0.916166 0
M  V30 3010 H 274.36 -4.21394 0.0216739 0
M  V30 3011 H 273.035 -3.18362 -0.585431 0
M  V30 3012 H 271.942 -3.318 1.72799 0
M  V30 3013 H 273.275 -4.37452 2.25602 0
M  V30 3014 N 274.927 -0.932562 -1.27047 0
M  V30 3015 C 276.343 -0.633544 -1.46487 0
M  V30 3016 C 276.543 0.815746 -1.84249 0
M  V30 3017 O 275.599 1.59319 -1.95892 0
M  V30 3018 C 276.912 -1.58758 -2.55375 0
M  V30 3019 C 278.46 -1.59634 -2.69232 0
M  V30 3020 C 278.935 -2.53747 -3.81283 0
M  V30 3021 N 280.426 -2.51982 -3.88664 0
M  V30 3022 C 281.161 -3.21491 -4.74796 0
M  V30 3023 N 280.657 -4.00395 -5.65381 0
M  V30 3024 N 282.45 -3.10485 -4.68568 0
M  V30 3025 H 274.601 -1.86946 -1.00821 0
M  V30 3026 H 276.864 -0.802897 -0.504044 0
M  V30 3027 H 276.57 -2.62172 -2.34432 0
M  V30 3028 H 276.444 -1.33301 -3.52861 0
M  V30 3029 H 278.831 -0.569488 -2.89553 0
M  V30 3030 H 278.912 -1.89142 -1.72218 0
M  V30 3031 H 278.556 -3.56545 -3.61715 0
M  V30 3032 H 278.486 -2.21532 -4.77735 0
M  V30 3033 H 280.977 -1.94681 -3.23895 0
M  V30 3034 H 281.29 -4.50406 -6.27976 0
M  V30 3035 H 279.635 -4.04498 -5.65161 0
M  V30 3036 H 282.826 -2.48331 -3.96799 0
M  V30 3037 H 282.999 -3.64925 -5.35475 0
M  V30 3038 N 276.405 1.4127 -0.698611 0
M  V30 3039 C 277.335 2.33447 -0.049629 0
M  V30 3040 C 278.316 1.51982 0.763898 0
M  V30 3041 O 279.501 1.80509 0.716257 0
M  V30 3042 C 276.631 3.35828 0.885267 0
M  V30 3043 C 275.585 4.27627 0.178613 0
M  V30 3044 C 274.911 5.20406 1.22807 0
M  V30 3045 C 276.211 5.13459 -0.956933 0
M  V30 3046 H 277.905 2.87966 -0.81951 0
M  V30 3047 H 275.451 1.38461 -0.395538 0
M  V30 3048 H 277.404 3.9924 1.34854 0
M  V30 3049 H 276.128 2.79666 1.68685 0
M  V30 3050 H 274.787 3.65643 -0.26466 0
M  V30 3051 H 274.435 4.60558 2.02226 0
M  V30 3052 H 274.135 5.82661 0.760239 0
M  V30 3053 H 275.659 5.86695 1.69179 0
M  V30 3054 H 277.073 5.70421 -0.573805 0
M  V30 3055 H 275.47 5.8467 -1.35205 0
M  V30 3056 H 276.54 4.50443 -1.79524 0
M  V30 3057 N 277.883 0.443576 1.51229 0
M  V30 3058 C 278.813 -0.355142 2.30783 0
M  V30 3059 C 279.794 -1.0154 1.36468 0
M  V30 3060 O 280.979 -1.01785 1.65389 0
M  V30 3061 C 278.109 -1.45312 3.15439 0
M  V30 3062 C 277.063 -0.916002 4.18083 0
M  V30 3063 C 276.389 -2.1102 4.91299 0
M  V30 3064 C 277.689 0.0538602 5.22272 0
M  V30 3065 H 279.383 0.308767 2.97804 0
M  V30 3066 H 276.929 0.149937 1.43217 0
M  V30 3067 H 278.882 -2.01914 3.69876 0
M  V30 3068 H 277.606 -2.14541 2.46252 0
M  V30 3069 H 276.265 -0.372145 3.64706 0
M  V30 3070 H 275.913 -2.78882 4.18609 0
M  V30 3071 H 275.613 -1.75717 5.60712 0
M  V30 3072 H 277.137 -2.68164 5.48562 0
M  V30 3073 H 278.551 -0.422069 5.71744 0
M  V30 3074 H 276.948 0.319776 5.99247 0
M  V30 3075 H 278.018 0.98858 4.74716 0
M  V30 3076 N 279.361 -1.56624 0.175154 0
M  V30 3077 C 280.607 -1.98061 -0.462976 0
M  V30 3078 C 280.962 -1.05949 -1.60601 0
M  V30 3079 O 280.255 -0.0999027 -1.91339 0
M  V30 3080 C 280.449 -3.43419 -0.989864 0
M  V30 3081 C 280.278 -4.49587 0.100583 0
M  V30 3082 C 279.048 -5.02281 0.551539 0
M  V30 3083 C 281.246 -5.06322 0.902369 0
M  V30 3084 N 279.228 -5.92088 1.62189 0
M  V30 3085 C 280.599 -5.92607 1.82256 0
M  V30 3086 C 282.654 -4.88811 0.947019 0
M  V30 3087 C 281.357 -6.63254 2.78364 0
M  V30 3088 C 283.383 -5.60182 1.89606 0
M  V30 3089 C 282.745 -6.46197 2.80372 0
M  V30 3090 H 278.844 -0.769833 -0.137409 0
M  V30 3091 H 281.428 -1.9273 0.276256 0
M  V30 3092 H 279.599 -3.49288 -1.6986 0
M  V30 3093 H 281.331 -3.7186 -1.59694 0
M  V30 3094 H 278.086 -4.73367 0.148537 0
M  V30 3095 H 278.51 -6.41696 2.15767 0
M  V30 3096 H 283.152 -4.22004 0.259304 0
M  V30 3097 H 280.87 -7.29271 3.48122 0
M  V30 3098 H 284.456 -5.48617 1.93676 0
M  V30 3099 H 283.336 -7.00453 3.52612 0
M  V30 3100 N 280.839 0.0985539 -1.57292 0
M  V30 3101 C 282.255 0.45267 -1.53046 0
M  V30 3102 C 282.455 1.80713 -0.891342 0
M  V30 3103 O 281.511 2.4785 -0.482375 0
M  V30 3104 C 282.824 0.418341 -2.97776 0
M  V30 3105 C 284.372 0.500443 -3.08973 0
M  V30 3106 C 284.847 0.496297 -4.55303 0
M  V30 3107 N 286.338 0.557151 -4.59837 0
M  V30 3108 C 287.073 0.575726 -5.70502 0
M  V30 3109 N 286.569 0.550714 -6.90608 0
M  V30 3110 N 288.362 0.620277 -5.58667 0
M  V30 3111 H 280.513 -0.788673 -1.97215 0
M  V30 3112 H 282.776 -0.293188 -0.901524 0
M  V30 3113 H 282.482 -0.509659 -3.47988 0
M  V30 3114 H 282.356 1.2386 -3.56284 0
M  V30 3115 H 284.743 1.41886 -2.58751 0
M  V30 3116 H 284.824 -0.347894 -2.53423 0
M  V30 3117 H 284.468 -0.418162 -5.06176 0
M  V30 3118 H 284.398 1.3618 -5.08687 0
M  V30 3119 H 286.889 0.581816 -3.73394 0
M  V30 3120 H 287.202 0.568075 -7.70709 0
M  V30 3121 H 285.547 0.517816 -6.93068 0
M  V30 3122 H 288.738 0.637322 -4.63741 0
M  V30 3123 H 288.911 0.631283 -6.44918 0
M  V30 3124 N 282.317 1.53212 0.369288 0
M  V30 3125 C 283.566 1.68436 1.10961 0
M  V30 3126 C 283.879 0.440738 1.9057 0
M  V30 3127 O 285.085 0.473446 2.6734 0
M  V30 3128 C 283.541 2.97744 2.0218 0
M  V30 3129 C 283.149 4.29355 1.279 0
M  V30 3130 C 284.893 3.22334 2.76226 0
M  V30 3131 C 282.8 5.49755 2.17999 0
M  V30 3132 H 281.73 0.627568 0.41794 0
M  V30 3133 H 284.381 1.79713 0.370884 0
M  V30 3134 H 282.763 2.8026 2.79768 0
M  V30 3135 H 283.937 4.57458 0.554007 0
M  V30 3136 H 282.252 4.11179 0.657311 0
M  V30 3137 H 284.849 4.09471 3.43857 0
M  V30 3138 H 285.192 2.38238 3.41392 0
M  V30 3139 H 285.725 3.40475 2.05723 0
M  V30 3140 H 282.464 6.36318 1.57417 0
M  V30 3141 H 281.984 5.25937 2.88359 0
M  V30 3142 H 283.663 5.84401 2.77641 0
M  V30 3143 N 283.795 -0.628877 1.44509 0
M  V30 3144 C 285.035 -1.39993 1.48934 0
M  V30 3145 C 285.399 -1.91627 0.119604 0
M  V30 3146 O 286.6 -2.68772 0.0385283 0
M  V30 3147 C 284.871 -2.53241 2.52198 0
M  V30 3148 S 286.43 -3.41383 2.75687 0
M  V30 3149 H 283.248 -0.477558 0.526744 0
M  V30 3150 H 285.85 -0.727804 1.81448 0
M  V30 3151 H 284.554 -2.13622 3.50419 0
M  V30 3152 H 284.085 -3.25278 2.21264 0
M  V30 3153 H 286.1 -4.50752 2.07453 0
M  V30 3154 N 285.273 -1.31445 -0.869486 0
M  V30 3155 C 286.689 -1.10113 -1.15531 0
M  V30 3156 C 286.889 0.128087 -2.01092 0
M  V30 3157 O 285.945 0.817276 -2.38908 0
M  V30 3158 C 287.258 -2.37291 -1.84698 0
M  V30 3159 C 288.806 -2.42906 -1.97397 0
M  V30 3160 C 289.281 -3.69967 -2.69979 0
M  V30 3161 N 290.772 -3.70864 -2.77514 0
M  V30 3162 C 291.507 -4.65875 -3.34287 0
M  V30 3163 N 291.003 -5.71242 -3.91988 0
M  V30 3164 N 292.796 -4.53394 -3.3225 0
M  V30 3165 H 284.947 -2.1028 -0.299347 0
M  V30 3166 H 287.21 -0.927683 -0.195214 0
M  V30 3167 H 286.916 -3.27078 -1.29278 0
M  V30 3168 H 286.79 -2.47125 -2.84972 0
M  V30 3169 H 289.177 -1.53588 -2.51982 0
M  V30 3170 H 289.258 -2.37036 -0.961643 0
M  V30 3171 H 288.902 -4.59652 -2.16062 0
M  V30 3172 H 288.832 -3.73103 -3.7162 0
M  V30 3173 H 291.323 -2.94697 -2.36563 0
M  V30 3174 H 291.636 -6.39817 -4.33421 0
M  V30 3175 H 289.981 -5.75015 -3.90362 0
M  V30 3176 H 293.172 -3.70252 -2.8641 0
M  V30 3177 H 293.345 -5.27617 -3.76197 0
M  V30 3178 N 286.751 1.08385 -1.14413 0
M  V30 3179 C 287.999 1.80419 -0.910679 0
M  V30 3180 C 288.32 1.86658 0.564243 0
M  V30 3181 O 287.59 1.35985 1.41014 0
M  V30 3182 H 286.17 0.668204 -0.333934 0
M  V30 3183 H 288.832 1.31037 -1.44275 0
M  V30 3184 H 287.928 2.83238 -1.31082 0
M  V30 3185 N 288.23 0.939286 1.26551 0
M  V30 3186 C 289.178 0.43815 2.28436 0
M  V30 3187 C 290.172 -0.483587 1.62351 0
M  V30 3188 O 291.378 -0.362009 1.76322 0
M  V30 3189 H 287.753 0.123149 0.741848 0
M  V30 3190 H 289.724 1.31002 2.68106 0
M  V30 3191 C 288.473 -0.283052 3.46546 0
M  V30 3192 H 287.796 0.417043 3.97619 0
M  V30 3193 H 289.236 -0.597948 4.19763 0
M  V30 3194 C 287.695 -1.50018 3.01656 0
M  V30 3195 O 288.225 -2.59855 3.0633 0
M  V30 3196 N 286.431 -1.35608 2.57019 0
M  V30 3197 H 285.978 -0.46244 2.53415 0
M  V30 3198 H 285.936 -2.17165 2.27347 0
M  V30 3199 N 289.708 -1.40897 0.706093 0
M  V30 3200 C 290.954 -2.01352 0.241889 0
M  V30 3201 C 291.287 -1.55832 -1.15888 0
M  V30 3202 O 290.562 -0.774145 -1.7843 0
M  V30 3203 C 290.845 -3.58752 0.311311 0
M  V30 3204 C 290.698 -4.1437 1.74978 0
M  V30 3205 C 292.017 -4.38914 -0.322922 0
M  V30 3206 H 289.136 -0.731562 0.0893687 0
M  V30 3207 H 291.778 -1.67504 0.896802 0
M  V30 3208 H 289.928 -3.87718 -0.246302 0
M  V30 3209 H 291.6 -3.96239 2.36205 0
M  V30 3210 H 289.843 -3.69016 2.28057 0
M  V30 3211 H 290.514 -5.23532 1.74981 0
M  V30 3212 H 292.99 -4.15822 0.152089 0
M  V30 3213 H 291.866 -5.48358 -0.243855 0
M  V30 3214 H 292.127 -4.19176 -1.40513 0
M  V30 3215 N 291.186 -0.45159 -1.50991 0
M  V30 3216 C 292.416 0.108177 -2.06317 0
M  V30 3217 C 292.824 1.35774 -1.31765 0
M  V30 3218 O 292.167 1.79838 -0.374694 0
M  V30 3219 C 292.229 0.481659 -3.56259 0
M  V30 3220 C 291.893 -0.663114 -4.52163 0
M  V30 3221 C 292.89 -1.53947 -4.96585 0
M  V30 3222 C 290.575 -0.8479 -4.95092 0
M  V30 3223 C 292.569 -2.58518 -5.82621 0
M  V30 3224 C 290.256 -1.89686 -5.80915 0
M  V30 3225 C 291.254 -2.76388 -6.24579 0
M  V30 3226 O 290.942 -3.79482 -7.08695 0
M  V30 3227 H 290.674 0.00499183 -0.675982 0
M  V30 3228 H 293.228 -0.633659 -1.95381 0
M  V30 3229 H 291.458 1.27641 -3.65027 0
M  V30 3230 H 293.147 0.974233 -3.94035 0
M  V30 3231 H 293.913 -1.4083 -4.64103 0
M  V30 3232 H 289.792 -0.18258 -4.60638 0
M  V30 3233 H 293.336 -3.26224 -6.16623 0
M  V30 3234 H 289.233 -2.02817 -6.12809 0
M  V30 3235 H 290.001 -3.76234 -7.26905 0
M  V30 3236 N 292.664 1.56529 -0.183458 0
M  V30 3237 C 293.594 2.21549 0.737456 0
M  V30 3238 C 294.575 1.17489 1.23005 0
M  V30 3239 O 295.76 1.45959 1.281 0
M  V30 3240 C 292.89 2.86575 1.96194 0
M  V30 3241 C 291.844 3.96778 1.60473 0
M  V30 3242 C 291.17 4.48911 2.90487 0
M  V30 3243 C 292.47 5.15767 0.823497 0
M  V30 3244 H 294.164 2.98761 0.195453 0
M  V30 3245 H 291.71 1.43702 0.0925686 0
M  V30 3246 H 293.663 3.30739 2.61131 0
M  V30 3247 H 292.387 2.06749 2.52828 0
M  V30 3248 H 291.046 3.53286 0.978997 0
M  V30 3249 H 290.694 3.65862 3.45186 0
M  V30 3250 H 290.394 5.23265 2.67335 0
M  V30 3251 H 291.918 4.95771 3.56432 0
M  V30 3252 H 293.332 5.56549 1.37571 0
M  V30 3253 H 291.729 5.96114 0.690551 0
M  V30 3254 H 292.799 4.84574 -0.177782 0
M  V30 3255 N 294.142 -0.090211 1.57342 0
M  V30 3256 C 295.089 -1.10909 2.02405 0
M  V30 3257 C 296.059 -1.39523 0.901252 0
M  V30 3258 O 297.244 -1.50903 1.1676 0
M  V30 3259 C 294.384 -2.42277 2.45755 0
M  V30 3260 C 293.497 -2.20352 3.71576 0
M  V30 3261 C 292.632 -3.45154 4.03785 0
M  V30 3262 C 291.671 -3.18512 5.22701 0
M  V30 3263 N 290.808 -4.35593 5.50639 0
M  V30 3264 H 295.648 -0.71782 2.89225 0
M  V30 3265 H 293.185 -0.342901 1.43048 0
M  V30 3266 H 295.143 -3.18951 2.68935 0
M  V30 3267 H 293.773 -2.79242 1.61938 0
M  V30 3268 H 292.825 -1.34458 3.55844 0
M  V30 3269 H 294.137 -1.96661 4.58395 0
M  V30 3270 H 293.291 -4.30233 4.27767 0
M  V30 3271 H 292.03 -3.71904 3.15498 0
M  V30 3272 H 291.035 -2.31827 4.98534 0
M  V30 3273 H 292.26 -2.93103 6.12591 0
M  V30 3274 H 290.206 -4.6241 4.6531 0
M  V30 3275 H 290.123 -4.1511 6.31838 0
M  V30 3276 H 291.391 -5.21723 5.7916 0
M  V30 3277 N 295.62 -1.53406 -0.361157 0
M  V30 3278 C 296.867 -1.69802 -1.10333 0
M  V30 3279 C 297.195 -0.452087 -1.89173 0
M  V30 3280 O 296.45 0.566017 -1.87336 0
M  V30 3281 C 296.749 -2.90211 -2.08596 0
M  V30 3282 C 296.415 -4.26539 -1.46203 0
M  V30 3283 C 295.077 -4.6361 -1.28915 0
M  V30 3284 C 297.429 -5.113 -1.01101 0
M  V30 3285 C 294.757 -5.83075 -0.651157 0
M  V30 3286 C 297.109 -6.31415 -0.387007 0
M  V30 3287 C 295.773 -6.67195 -0.201657 0
M  V30 3288 H 295.043 -0.621351 -0.403737 0
M  V30 3289 H 297.69 -1.87598 -0.384609 0
M  V30 3290 H 295.995 -2.66946 -2.86788 0
M  V30 3291 H 297.692 -3.00091 -2.65982 0
M  V30 3292 H 294.282 -3.97352 -1.60653 0
M  V30 3293 H 298.466 -4.83206 -1.13249 0
M  V30 3294 H 293.722 -6.09385 -0.496006 0
M  V30 3295 H 297.896 -6.96394 -0.0293563 0
M  V30 3296 H 295.523 -7.59628 0.294766 0
M  V30 3297 N 297.098 0.621204 -1.44841 0
M  V30 3298 C 298.323 1.41244 -1.51871 0
M  V30 3299 C 298.748 1.87519 -0.147764 0
M  V30 3300 O 298.106 1.59334 0.865 0
M  V30 3301 C 298.154 2.60221 -2.49634 0
M  V30 3302 O 297.258 3.60395 -2.00473 0
M  V30 3303 H 296.599 0.42223 -0.512463 0
M  V30 3304 H 299.129 0.757305 -1.90069 0
M  V30 3305 H 299.139 3.0764 -2.67996 0
M  V30 3306 H 297.814 2.25887 -3.4921 0
M  V30 3307 H 296.391 3.19717 -1.91925 0
M  V30 3308 N 298.576 1.31904 0.862503 0
M  V30 3309 C 299.486 1.22161 2.00285 0
M  V30 3310 C 300.502 0.136785 1.73462 0
M  V30 3311 O 301.678 0.355994 1.98229 0
M  V30 3312 C 298.743 0.937093 3.33796 0
M  V30 3313 C 297.804 2.10957 3.73893 0
M  V30 3314 C 297.037 1.83853 5.01033 0
M  V30 3315 O 297.26 0.777274 5.65079 0
M  V30 3316 O 296.194 2.69741 5.38074 0
M  V30 3317 H 300.02 2.18008 2.11439 0
M  V30 3318 H 297.605 1.11716 0.991957 0
M  V30 3319 H 299.487 0.794583 4.13841 0
M  V30 3320 H 298.162 0.00871894 3.23699 0
M  V30 3321 H 297.069 2.30752 2.94456 0
M  V30 3322 H 298.402 3.02046 3.88625 0
M  V30 3323 N 300.054 -1.07777 1.14986 0
M  V30 3324 C 300.987 -2.14228 0.786243 0
M  V30 3325 C 301.965 -1.60888 -0.235347 0
M  V30 3326 O 303.149 -1.88099 -0.122909 0
M  V30 3327 C 300.276 -3.38281 0.168433 0
M  V30 3328 C 299.322 -4.10387 1.16123 0
M  V30 3329 S 300.155 -4.62371 2.70135 0
M  V30 3330 C 301.311 -5.89704 2.09762 0
M  V30 3331 H 301.544 -2.44741 1.68787 0
M  V30 3332 H 299.077 -1.19984 0.971756 0
M  V30 3333 H 301.035 -4.10098 -0.181588 0
M  V30 3334 H 299.696 -3.05953 -0.710725 0
M  V30 3335 H 298.889 -4.99431 0.677086 0
M  V30 3336 H 298.491 -3.44513 1.45556 0
M  V30 3337 H 300.783 -6.61648 1.45701 0
M  V30 3338 H 301.726 -6.42824 2.96955 0
M  V30 3339 H 302.134 -5.4302 1.54239 0
M  V30 3340 N 301.532 -0.945985 -1.26051 0
M  V30 3341 C 302.809 -0.513816 -1.88731 0
M  V30 3342 C 303.189 1.00872 -1.8544 0
M  V30 3343 O 302.537 1.8708 -1.312 0
M  V30 3344 C 302.747 -1.08062 -3.31849 0
M  V30 3345 C 304.095 -1.1522 -4.08668 0
M  V30 3346 O 305.119 -1.03155 -3.40936 0
M  V30 3347 O 303.978 -1.34044 -5.29806 0
M  V30 3348 H 301.072 -0.168193 -0.809716 0
M  V30 3349 H 303.618 -1.03886 -1.34186 0
M  V30 3350 H 302.39 -2.1241 -3.2863 0
M  V30 3351 H 302.013 -0.538307 -3.93939 0
M  V30 3352 N 303.011 1.40521 -0.713556 0
M  V30 3353 C 303.974 2.29098 -0.0684347 0
M  V30 3354 C 304.974 1.45268 0.689472 0
M  V30 3355 O 306.164 1.66205 0.521677 0
M  V30 3356 C 303.296 3.28446 0.913024 0
M  V30 3357 H 304.489 2.87645 -0.84855 0
M  V30 3358 H 302.042 1.48809 -0.47809 0
M  V30 3359 H 302.777 2.74913 1.72027 0
M  V30 3360 H 302.562 3.90327 0.372472 0
M  V30 3361 H 304.052 3.94777 1.36165 0
M  V30 3362 N 304.489 0.459591 1.5075 0
M  V30 3363 C 305.9 0.00171547 1.867 0
M  V30 3364 C 306.251 -1.39934 1.37525 0
M  V30 3365 O 305.376 -2.03523 0.735349 0
M  V30 3366 C 305.971 -0.00366298 3.388 0
M  V30 3367 C 304.53 -0.406026 3.74204 0
M  V30 3368 C 303.677 0.38673 2.7459 0
M  V30 3369 H 306.628 0.674413 1.43657 0
M  V30 3370 H 306.649 -0.808371 3.71814 0
M  V30 3371 H 306.161 1.01617 3.74561 0
M  V30 3372 H 304.262 -1.43063 3.4404 0
M  V30 3373 H 304.375 -0.115362 4.78961 0
M  V30 3374 H 302.739 -0.158019 2.54209 0
M  V30 3375 H 303.522 1.40585 3.13194 0
M  V30 3376 N 305.967 -1.56429 0.191757 0
M  V30 3377 C 306.897 -2.21937 -0.725696 0
M  V30 3378 C 307.878 -1.1814 -1.2238 0
M  V30 3379 O 309.063 -1.46636 -1.27325 0
M  V30 3380 C 306.193 -2.87611 -1.94672 0
M  V30 3381 C 305.147 -3.97623 -1.58366 0
M  V30 3382 C 304.473 -4.50446 -2.88102 0
M  V30 3383 C 305.773 -5.16197 -0.796133 0
M  V30 3384 H 307.467 -2.98861 -0.179606 0
M  V30 3385 H 305.013 -1.43749 -0.0849464 0
M  V30 3386 H 306.966 -3.3212 -2.59373 0
M  V30 3387 H 305.69 -2.08087 -2.51728 0
M  V30 3388 H 304.349 -3.53801 -0.960247 0
M  V30 3389 H 303.997 -3.67688 -3.43241 0
M  V30 3390 H 303.697 -5.24675 -2.64556 0
M  V30 3391 H 305.221 -4.97654 -3.53798 0
M  V30 3392 H 306.635 -5.57271 -1.34618 0
M  V30 3393 H 305.032 -5.96471 -0.658928 0
M  V30 3394 H 306.102 -4.84473 0.203478 0
M  V30 3395 N 307.445 0.0818655 -1.57387 0
M  V30 3396 C 308.355 1.11642 -2.06333 0
M  V30 3397 C 309.371 1.43033 -0.99083 0
M  V30 3398 O 310.547 1.53411 -1.30488 0
M  V30 3399 C 307.612 2.41342 -2.48907 0
M  V30 3400 C 306.673 2.17014 -3.7041 0
M  V30 3401 C 305.906 3.4053 -4.10944 0
M  V30 3402 O 306.129 4.4927 -3.51444 0
M  V30 3403 O 305.063 3.29336 -5.03807 0
M  V30 3404 H 308.889 0.730657 -2.9478 0
M  V30 3405 H 306.474 0.295301 -1.46452 0
M  V30 3406 H 308.356 3.17691 -2.76858 0
M  V30 3407 H 307.031 2.79319 -1.63593 0
M  V30 3408 H 305.938 1.38403 -3.47556 0
M  V30 3409 H 307.271 1.83923 -4.56545 0
M  V30 3410 N 308.923 1.53595 0.353017 0
M  V30 3411 C 310.2 1.61002 1.11075 0
M  V30 3412 C 310.58 0.425356 2.0677 0
M  V30 3413 O 309.928 -0.583267 2.2093 0
M  V30 3414 C 310.138 2.96631 1.83877 0
M  V30 3415 C 311.486 3.51653 2.37961 0
M  V30 3416 O 312.51 2.98743 1.93987 0
M  V30 3417 O 311.369 4.44177 3.18386 0
M  V30 3418 H 308.463 0.650825 0.510251 0
M  V30 3419 H 311.009 1.6594 0.35527 0
M  V30 3420 H 309.781 3.74293 1.14108 0
M  V30 3421 H 309.404 2.95242 2.66304 0
M  V30 3422 N 310.401 -0.613514 1.45168 0
M  V30 3423 C 311.812 -1.19539 1.43413 0
M  V30 3424 C 312.163 -1.95558 0.158632 0
M  V30 3425 O 311.288 -2.0335 -0.740119 0
M  V30 3426 C 311.883 -2.17445 2.59813 0
M  V30 3427 C 310.442 -2.71022 2.61197 0
M  V30 3428 C 309.589 -1.46323 2.35552 0
M  V30 3429 H 312.54 -0.403163 1.53494 0
M  V30 3430 H 312.561 -3.00373 2.33574 0
M  V30 3431 H 312.073 -1.62089 3.52631 0
M  V30 3432 H 310.174 -3.30332 1.7237 0
M  V30 3433 H 310.287 -3.15859 3.60236 0
M  V30 3434 H 308.651 -1.75072 1.84992 0
M  V30 3435 H 309.434 -0.92844 3.30507 0
M  V30 3436 N 311.879 -1.3236 -0.855495 0
M  V30 3437 C 313.125 -1.23054 -1.612 0
M  V30 3438 C 313.458 0.207404 -1.93089 0
M  V30 3439 O 312.733 1.14432 -1.57275 0
M  V30 3440 C 313.016 -2.08937 -2.93287 0
M  V30 3441 C 312.869 -3.61105 -2.68185 0
M  V30 3442 C 314.188 -1.94986 -3.94549 0
M  V30 3443 H 311.307 -0.448364 -0.584926 0
M  V30 3444 H 313.949 -1.62297 -0.987917 0
M  V30 3445 H 312.099 -1.75599 -3.46551 0
M  V30 3446 H 313.771 -4.04652 -2.21483 0
M  V30 3447 H 312.014 -3.83813 -2.02164 0
M  V30 3448 H 312.685 -4.16522 -3.62234 0
M  V30 3449 H 315.161 -2.24189 -3.5054 0
M  V30 3450 H 314.037 -2.57356 -4.84829 0
M  V30 3451 H 314.298 -0.917263 -4.3248 0
M  V30 3452 N 313.357 1.07166 -1.15556 0
M  V30 3453 C 314.585 1.83514 -0.955519 0
M  V30 3454 C 315 1.82163 0.49621 0
M  V30 3455 O 314.357 1.23441 1.34419 0
M  V30 3456 C 314.408 3.30515 -1.46432 0
M  V30 3457 O 314.129 3.31937 -2.85918 0
M  V30 3458 C 315.63 4.23625 -1.30603 0
M  V30 3459 H 312.85 0.578926 -0.339244 0
M  V30 3460 H 315.394 1.35265 -1.53374 0
M  V30 3461 H 313.549 3.76106 -0.928584 0
M  V30 3462 H 313.963 4.23794 -3.09029 0
M  V30 3463 H 315.437 5.24831 -1.71047 0
M  V30 3464 H 315.914 4.38485 -0.250441 0
M  V30 3465 H 316.52 3.83871 -1.83094 0
M  V30 3466 N 314.835 0.952656 1.25548 0
M  V30 3467 C 315.782 0.47008 2.25962 0
M  V30 3468 C 316.752 -0.476384 1.59122 0
M  V30 3469 O 317.937 -0.39007 1.8677 0
M  V30 3470 C 315.077 -0.247881 3.44209 0
M  V30 3471 C 314.19 0.735591 4.25691 0
M  V30 3472 C 313.325 -0.0047306 5.312 0
M  V30 3473 C 312.364 0.969805 6.04368 0
M  V30 3474 N 311.501 0.260486 7.01617 0
M  V30 3475 H 316.341 1.33126 2.66611 0
M  V30 3476 H 313.878 0.66765 1.31076 0
M  V30 3477 H 315.836 -0.680695 4.1161 0
M  V30 3478 H 314.466 -1.07312 3.0444 0
M  V30 3479 H 313.518 1.28689 3.57971 0
M  V30 3480 H 314.83 1.47934 4.76358 0
M  V30 3481 H 313.984 -0.496275 6.04667 0
M  V30 3482 H 312.723 -0.781282 4.81401 0
M  V30 3483 H 311.728 1.47237 5.29718 0
M  V30 3484 H 312.953 1.74655 6.56256 0
M  V30 3485 H 310.899 -0.497364 6.54112 0
M  V30 3486 H 310.816 0.943362 7.50091 0
M  V30 3487 H 312.084 -0.209587 7.79218 0
M  V30 3488 N 316.313 -1.40141 0.720998 0
M  V30 3489 C 317.223 -2.34486 0.0731031 0
M  V30 3490 C 318.239 -1.57587 -0.737723 0
M  V30 3491 O 319.415 -1.89949 -0.669429 0
M  V30 3492 C 316.48 -3.36528 -0.833656 0
M  V30 3493 C 315.541 -4.29298 -0.0121673 0
M  V30 3494 C 314.774 -5.26466 -0.875742 0
M  V30 3495 O 314.997 -5.29745 -2.11485 0
M  V30 3496 O 313.931 -6.01092 -0.31185 0
M  V30 3497 H 317.757 -2.9152 0.851444 0
M  V30 3498 H 315.342 -1.41427 0.481527 0
M  V30 3499 H 317.224 -3.99093 -1.35289 0
M  V30 3500 H 315.899 -2.81899 -1.59105 0
M  V30 3501 H 314.806 -3.70001 0.552262 0
M  V30 3502 H 316.139 -4.87094 0.707129 0
M  V30 3503 N 317.792 -0.46758 -1.50504 0
M  V30 3504 C 318.702 0.33382 -2.32213 0
M  V30 3505 C 319.718 0.999323 -1.42441 0
M  V30 3506 O 320.894 0.988068 -1.75497 0
M  V30 3507 C 317.959 1.4035 -3.17022 0
M  V30 3508 C 317.02 0.754961 -4.2261 0
M  V30 3509 C 316.253 1.77367 -5.03365 0
M  V30 3510 O 316.476 2.99976 -4.8515 0
M  V30 3511 O 315.41 1.34744 -5.86624 0
M  V30 3512 H 319.236 -0.334067 -3.01857 0
M  V30 3513 H 316.821 -0.229496 -1.47627 0
M  V30 3514 H 318.703 2.02318 -3.69656 0
M  V30 3515 H 317.378 2.05492 -2.5011 0
M  V30 3516 H 316.285 0.0964244 -3.73976 0
M  V30 3517 H 317.618 0.146545 -4.91982 0
M  V30 3518 N 319.27 1.56325 -0.20005 0
M  V30 3519 C 320.519 1.96895 0.437652 0
M  V30 3520 C 320.832 1.08999 1.62415 0
M  V30 3521 O 322.038 1.39372 2.32997 0
M  V30 3522 C 320.494 3.50198 0.830025 0
M  V30 3523 C 320.102 4.46765 -0.332461 0
M  V30 3524 C 321.846 3.99526 1.43453 0
M  V30 3525 C 319.753 5.91344 0.0811468 0
M  V30 3526 H 318.683 0.735209 0.167282 0
M  V30 3527 H 321.334 1.81148 -0.292853 0
M  V30 3528 H 319.716 3.61467 1.61734 0
M  V30 3529 H 320.89 4.47231 -1.11 0
M  V30 3530 H 319.205 4.07657 -0.848789 0
M  V30 3531 H 321.802 5.05025 1.75652 0
M  V30 3532 H 322.145 3.44122 2.34277 0
M  V30 3533 H 322.678 3.91393 0.71109 0
M  V30 3534 H 319.417 6.50685 -0.793033 0
M  V30 3535 H 318.937 5.94121 0.823445 0
M  V30 3536 H 320.616 6.44945 0.515252 0
M  V30 3537 N 320.748 -0.0735177 1.57428 0
M  V30 3538 C 321.68 -1.11423 2.00294 0
M  V30 3539 C 322.693 -1.35084 0.908637 0
M  V30 3540 O 323.882 -1.33355 1.18654 0
M  V30 3541 C 320.982 -2.46548 2.32523 0
M  V30 3542 C 320.155 -2.42867 3.63778 0
M  V30 3543 C 319.214 -3.60087 3.83697 0
M  V30 3544 O 318.24 -3.41595 4.55304 0
M  V30 3545 N 319.442 -4.80372 3.25919 0
M  V30 3546 H 322.207 -0.749206 2.90184 0
M  V30 3547 H 319.768 -0.262195 1.59763 0
M  V30 3548 H 321.76 -3.23607 2.43024 0
M  V30 3549 H 320.33 -2.75059 1.48531 0
M  V30 3550 H 319.55 -1.51206 3.64047 0
M  V30 3551 H 320.838 -2.37506 4.49965 0
M  V30 3552 H 320.236 -4.983 2.67795 0
M  V30 3553 H 318.793 -5.54948 3.41871 0
M  V30 3554 N 322.226 -1.5378 -0.344866 0
M  V30 3555 C 323.173 -1.81676 -1.42346 0
M  V30 3556 C 324.143 -0.662376 -1.52321 0
M  V30 3557 O 325.328 -0.906675 -1.67881 0
M  V30 3558 C 322.468 -2.03087 -2.79015 0
M  V30 3559 C 321.581 -3.30799 -2.77842 0
M  V30 3560 C 320.716 -3.42285 -4.0622 0
M  V30 3561 C 319.755 -4.6395 -3.9927 0
M  V30 3562 N 318.892 -4.72477 -5.19336 0
M  V30 3563 H 323.732 -2.73703 -1.17858 0
M  V30 3564 H 321.269 -1.35568 -0.570949 0
M  V30 3565 H 323.227 -2.1349 -3.58438 0
M  V30 3566 H 321.857 -1.14375 -3.01858 0
M  V30 3567 H 320.909 -3.29244 -1.90533 0
M  V30 3568 H 322.221 -4.20314 -2.68584 0
M  V30 3569 H 321.375 -3.52113 -4.94066 0
M  V30 3570 H 320.114 -2.50823 -4.18258 0
M  V30 3571 H 319.119 -4.54201 -3.09809 0
M  V30 3572 H 320.344 -5.56775 -3.88817 0
M  V30 3573 H 318.29 -3.83924 -5.3192 0
M  V30 3574 H 318.207 -5.55927 -5.12329 0
M  V30 3575 H 319.475 -4.86613 -6.08957 0
M  V30 3576 N 323.704 0.605807 -1.45491 0
M  V30 3577 C 324.652 1.73754 -1.54636 0
M  V30 3578 C 325.646 1.64207 -0.416219 0
M  V30 3579 O 326.852 1.69979 -0.592199 0
M  V30 3580 H 323.227 0.574073 -0.485741 0
M  V30 3581 H 325.198 1.63169 -2.49837 0
M  V30 3582 C 323.947 3.12135 -1.53189 0
M  V30 3583 H 323.27 3.20141 -2.39478 0
M  V30 3584 H 324.71 3.91147 -1.63645 0
M  V30 3585 C 323.169 3.35921 -0.256616 0
M  V30 3586 O 323.699 3.96194 0.662798 0
M  V30 3587 N 321.905 2.90204 -0.151751 0
M  V30 3588 H 321.452 2.41336 -0.90081 0
M  V30 3589 H 321.41 3.06492 0.700699 0
M  V30 3590 N 325.182 1.32811 0.848464 0
M  V30 3591 C 326.431 1.23075 1.59798 0
M  V30 3592 C 326.744 -0.204419 1.94529 0
M  V30 3593 O 327.95 -0.423701 2.68173 0
M  V30 3594 C 326.406 2.15594 2.88179 0
M  V30 3595 C 326.014 3.64228 2.60849 0
M  V30 3596 C 327.758 2.14709 3.66197 0
M  V30 3597 C 325.665 4.48689 3.85269 0
M  V30 3598 H 324.595 0.457091 0.599653 0
M  V30 3599 H 327.246 1.57813 0.936342 0
M  V30 3600 H 325.628 1.73778 3.55833 0
M  V30 3601 H 326.802 4.14424 2.01467 0
M  V30 3602 H 325.117 3.67306 1.96151 0
M  V30 3603 H 327.714 2.75046 4.58534 0
M  V30 3604 H 328.057 1.13966 4.00397 0
M  V30 3605 H 328.59 2.54837 3.05455 0
M  V30 3606 H 325.329 5.5027 3.56207 0
M  V30 3607 H 324.849 4.03241 4.44024 0
M  V30 3608 H 326.528 4.62006 4.52946 0
M  V30 3609 N 326.66 -1.06551 1.16123 0
M  V30 3610 C 327.907 -1.79302 0.941126 0
M  V30 3611 C 328.235 -1.87105 -0.531235 0
M  V30 3612 O 327.49 -1.35692 -1.41018 0
M  V30 3613 C 327.789 -3.23911 1.51052 0
M  V30 3614 C 327.455 -3.36193 3.00475 0
M  V30 3615 C 326.117 -3.39252 3.41265 0
M  V30 3616 C 328.469 -3.38326 3.96465 0
M  V30 3617 C 325.797 -3.42057 4.76669 0
M  V30 3618 C 328.149 -3.4267 5.31752 0
M  V30 3619 C 326.813 -3.4401 5.72026 0
M  V30 3620 H 326.083 -0.656111 0.344382 0
M  V30 3621 H 328.73 -1.25325 1.44796 0
M  V30 3622 H 327.035 -3.80723 0.925063 0
M  V30 3623 H 328.732 -3.78793 1.31593 0
M  V30 3624 H 325.322 -3.34516 2.6795 0
M  V30 3625 H 329.506 -3.35176 3.6602 0
M  V30 3626 H 324.762 -3.41398 5.07206 0
M  V30 3627 H 328.936 -3.43268 6.05921 0
M  V30 3628 H 326.563 -3.45937 6.76928 0
M  V30 3629 N 328.138 -0.959301 -1.25041 0
M  V30 3630 C 329.387 -0.612254 -1.92183 0
M  V30 3631 C 329.7 0.855347 -1.75907 0
M  V30 3632 O 330.906 1.31256 -2.37664 0
M  V30 3633 C 329.362 -1.04435 -3.44414 0
M  V30 3634 C 328.97 -2.53482 -3.69393 0
M  V30 3635 C 330.714 -0.770055 -4.17457 0
M  V30 3636 C 328.621 -2.90468 -5.15153 0
M  V30 3637 H 327.551 -0.225279 -0.719559 0
M  V30 3638 H 330.202 -1.16438 -1.41825 0
M  V30 3639 H 328.584 -0.4206 -3.9376 0
M  V30 3640 H 329.758 -3.20916 -3.30681 0
M  V30 3641 H 328.073 -2.78432 -3.0962 0
M  V30 3642 H 330.67 -1.02249 -5.24832 0
M  V30 3643 H 331.013 0.293611 -4.15263 0
M  V30 3644 H 331.546 -1.35437 -3.74034 0
M  V30 3645 H 328.285 -3.95871 -5.22462 0
M  V30 3646 H 327.805 -2.27711 -5.54894 0
M  V30 3647 H 329.484 -2.79914 -5.83315 0
M  V30 3648 N 329.616 1.39756 -0.72842 0
M  V30 3649 C 330.865 1.99879 -0.270407 0
M  V30 3650 C 331.178 1.58449 1.14688 0
M  V30 3651 O 332.384 2.11362 1.70407 0
M  V30 3652 C 330.84 3.57292 -0.43252 0
M  V30 3653 C 330.448 4.07688 -1.85727 0
M  V30 3654 C 332.192 4.24485 -0.0359507 0
M  V30 3655 C 330.099 5.5765 -1.96928 0
M  V30 3656 H 329.029 0.747689 -0.0973472 0
M  V30 3657 H 331.68 1.59837 -0.901355 0
M  V30 3658 H 330.062 3.95097 0.267219 0
M  V30 3659 H 331.236 3.81231 -2.58843 0
M  V30 3660 H 329.551 3.53135 -2.20646 0
M  V30 3661 H 332.148 5.34609 -0.0987484 0
M  V30 3662 H 332.491 4.03915 1.00787 0
M  V30 3663 H 333.024 3.9183 -0.686604 0
M  V30 3664 H 329.763 5.8309 -2.99476 0
M  V30 3665 H 329.283 5.8593 -1.28241 0
M  V30 3666 H 330.962 6.22957 -1.74737 0
M  V30 3667 N 331.094 0.475555 1.50254 0
M  V30 3668 C 332.341 -0.0778919 2.0235 0
M  V30 3669 C 332.669 -1.39319 1.35722 0
M  V30 3670 O 331.924 -1.89888 0.473395 0
M  V30 3671 C 332.223 -0.305114 3.56095 0
M  V30 3672 C 331.889 0.92903 4.41225 0
M  V30 3673 C 330.551 1.26739 4.6421 0
M  V30 3674 C 332.903 1.75054 4.90923 0
M  V30 3675 C 330.231 2.42724 5.34137 0
M  V30 3676 C 332.583 2.9017 5.62125 0
M  V30 3677 C 331.247 3.24416 5.83362 0
M  V30 3678 H 330.517 -0.0285027 0.740452 0
M  V30 3679 H 333.164 0.630543 1.80821 0
M  V30 3680 H 331.469 -1.09584 3.76163 0
M  V30 3681 H 333.166 -0.747377 3.93974 0
M  V30 3682 H 329.756 0.655428 4.23559 0
M  V30 3683 H 333.94 1.50231 4.73016 0
M  V30 3684 H 329.196 2.69525 5.48786 0
M  V30 3685 H 333.37 3.54169 5.99614 0
M  V30 3686 H 330.997 4.14396 6.37323 0
M  V30 3687 N 332.573 -1.56217 0.208337 0
M  V30 3688 C 333.803 -2.02043 -0.431523 0
M  V30 3689 C 334.211 -1.08755 -1.54819 0
M  V30 3690 O 333.554 -0.0870009 -1.83494 0
M  V30 3691 C 333.616 -3.44239 -1.03633 0
M  V30 3692 C 333.28 -4.56965 -0.0567502 0
M  V30 3693 C 334.277 -5.14624 0.738773 0
M  V30 3694 C 331.962 -5.02266 0.0581736 0
M  V30 3695 C 333.956 -6.16045 1.63605 0
M  V30 3696 C 331.643 -6.03528 0.959001 0
M  V30 3697 C 332.641 -6.60293 1.7465 0
M  V30 3698 O 332.329 -7.59586 2.6322 0
M  V30 3699 H 332.061 -0.666772 -0.111313 0
M  V30 3700 H 334.615 -2.02919 0.318277 0
M  V30 3701 H 332.845 -3.40391 -1.83497 0
M  V30 3702 H 334.534 -3.73793 -1.58221 0
M  V30 3703 H 335.3 -4.80483 0.660364 0
M  V30 3704 H 331.179 -4.57771 -0.544633 0
M  V30 3705 H 334.723 -6.60279 2.25116 0
M  V30 3706 H 330.62 -6.37092 1.03848 0
M  V30 3707 H 331.388 -7.77057 2.57148 0
M  V30 3708 N 334.051 0.0651679 -1.57465 0
M  V30 3709 C 334.983 1.10359 -2.00882 0
M  V30 3710 C 335.996 1.346 -0.915788 0
M  V30 3711 O 337.185 1.32723 -1.1936 0
M  V30 3712 C 334.285 2.45312 -2.33828 0
M  V30 3713 C 333.458 2.40934 -3.65061 0
M  V30 3714 C 332.517 3.58047 -3.85602 0
M  V30 3715 O 331.543 3.39175 -4.57109 0
M  V30 3716 N 332.745 4.78637 -3.28462 0
M  V30 3717 H 335.51 0.733807 -2.90578 0
M  V30 3718 H 333.071 0.253719 -1.599 0
M  V30 3719 H 335.063 3.22314 -2.44737 0
M  V30 3720 H 333.633 2.74267 -1.49988 0
M  V30 3721 H 332.853 1.49273 -3.64844 0
M  V30 3722 H 334.141 2.35117 -4.51218 0
M  V30 3723 H 333.539 4.96872 -2.70433 0
M  V30 3724 H 332.096 5.53127 -3.44809 0
M  V30 3725 N 335.529 1.53961 0.336706 0
M  V30 3726 C 336.777 1.71197 1.07405 0
M  V30 3727 C 337.098 0.481475 1.88962 0
M  V30 3728 O 336.368 -0.504585 1.8929 0
M  V30 3729 H 334.948 0.631185 0.399517 0
M  V30 3730 H 337.61 1.91232 0.376323 0
M  V30 3731 H 336.706 2.58587 1.74755 0
M  V30 3732 N 337.007 -0.598083 1.45811 0
M  V30 3733 C 337.917 -1.73632 1.57763 0
M  V30 3734 C 338.933 -1.67763 0.461676 0
M  V30 3735 O 340.109 -1.87949 0.723685 0
M  V30 3736 C 337.174 -3.10114 1.55018 0
M  V30 3737 C 336.235 -3.27364 2.77726 0
M  V30 3738 C 335.468 -4.57334 2.75102 0
M  V30 3739 O 335.691 -5.40258 1.8297 0
M  V30 3740 O 334.625 -4.77502 3.66437 0
M  V30 3741 H 338.451 -1.66498 2.53992 0
M  V30 3742 H 336.036 -0.763308 1.28429 0
M  V30 3743 H 337.918 -3.9141 1.56129 0
M  V30 3744 H 336.593 -3.17718 0.619431 0
M  V30 3745 H 335.5 -2.45619 2.82174 0
M  V30 3746 H 336.833 -3.24641 3.69958 0
M  V30 3747 N 338.485 -1.33259 -0.841409 0
M  V30 3748 C 339.417 -1.19136 -1.95804 0
M  V30 3749 C 340.43 -0.122965 -1.62335 0
M  V30 3750 O 341.619 -0.373154 -1.74556 0
M  V30 3751 C 338.719 -0.804268 -3.29218 0
M  V30 3752 C 337.892 -1.96376 -3.90839 0
M  V30 3753 C 336.951 -1.55806 -5.02604 0
M  V30 3754 O 335.977 -2.27203 -5.21888 0
M  V30 3755 N 337.179 -0.461609 -5.78662 0
M  V30 3756 H 339.944 -2.15326 -2.08458 0
M  V30 3757 H 337.505 -1.25971 -1.017 0
M  V30 3758 H 339.497 -0.51501 -4.0141 0
M  V30 3759 H 338.067 0.0668809 -3.12528 0
M  V30 3760 H 337.287 -2.41879 -3.11269 0
M  V30 3761 H 338.575 -2.73966 -4.28742 0
M  V30 3762 H 337.973 0.132343 -5.65545 0
M  V30 3763 H 336.53 -0.232013 -6.51387 0
M  V30 3764 N 339.963 1.05934 -1.16686 0
M  V30 3765 C 340.893 2.1546 -0.899949 0
M  V30 3766 C 341.874 1.69391 0.155154 0
M  V30 3767 O 343.059 1.94199 0.00648693 0
M  V30 3768 C 340.189 3.44939 -0.404241 0
M  V30 3769 C 339.143 4.04536 -1.39767 0
M  V30 3770 C 338.469 5.29268 -0.760216 0
M  V30 3771 C 339.769 4.42893 -2.76845 0
M  V30 3772 H 341.463 2.38046 -1.81588 0
M  V30 3773 H 339.009 1.14404 -0.874514 0
M  V30 3774 H 340.962 4.20901 -0.204971 0
M  V30 3775 H 339.686 3.21983 0.547206 0
M  V30 3776 H 338.345 3.30635 -1.58355 0
M  V30 3777 H 337.993 5.02611 0.197831 0
M  V30 3778 H 337.693 5.70101 -1.42332 0
M  V30 3779 H 339.217 6.07924 -0.57105 0
M  V30 3780 H 340.631 5.09921 -2.62019 0
M  V30 3781 H 339.028 4.94721 -3.39663 0
M  V30 3782 H 340.098 3.53584 -3.31823 0
M  V30 3783 N 341.441 0.965919 1.2453 0
M  V30 3784 C 342.857 0.67216 1.44756 0
M  V30 3785 C 343.057 -0.766609 1.86347 0
M  V30 3786 O 342.113 -1.5407 2.00047 0
M  V30 3787 C 343.426 1.65473 2.51076 0
M  V30 3788 C 344.974 1.66716 2.64905 0
M  V30 3789 C 345.449 2.63766 3.74421 0
M  V30 3790 N 346.94 2.62198 3.81846 0
M  V30 3791 C 347.675 3.33966 4.66106 0
M  V30 3792 N 347.171 4.15245 5.54566 0
M  V30 3793 N 348.964 3.22799 4.60171 0
M  V30 3794 H 341.115 1.89553 0.958293 0
M  V30 3795 H 343.378 0.815979 0.482579 0
M  V30 3796 H 343.084 2.68296 2.27399 0
M  V30 3797 H 342.958 1.4261 3.49202 0
M  V30 3798 H 345.345 0.646057 2.87941 0
M  V30 3799 H 345.426 1.93642 1.67142 0
M  V30 3800 H 345.07 3.6601 3.52135 0
M  V30 3801 H 345 2.34121 4.71694 0
M  V30 3802 H 347.491 2.032 3.18619 0
M  V30 3803 H 347.804 4.66898 6.15814 0
M  V30 3804 H 346.149 4.1934 5.54237 0
M  V30 3805 H 349.34 2.58764 3.90075 0
M  V30 3806 H 349.513 3.78994 5.25612 0
M  V30 3807 N 342.919 -1.39368 0.735821 0
M  V30 3808 C 343.851 -2.2913 0.0567723 0
M  V30 3809 C 344.864 -1.46859 -0.702589 0
M  V30 3810 O 346.053 -1.69925 -0.546616 0
M  V30 3811 C 343.153 -3.25492 -0.943823 0
M  V30 3812 C 342.326 -4.36709 -0.24581 0
M  V30 3813 C 341.385 -5.13376 -1.15463 0
M  V30 3814 O 340.411 -5.65683 -0.631803 0
M  V30 3815 N 341.613 -5.24656 -2.48427 0
M  V30 3816 H 344.378 -2.88047 0.827582 0
M  V30 3817 H 341.939 -1.50957 0.585112 0
M  V30 3818 H 343.931 -3.73657 -1.55443 0
M  V30 3819 H 342.501 -2.676 -1.61583 0
M  V30 3820 H 341.721 -3.9041 0.545286 0
M  V30 3821 H 343.009 -5.08244 0.237891 0
M  V30 3822 H 342.407 -4.83679 -2.93379 0
M  V30 3823 H 340.964 -5.76258 -3.04582 0
M  V30 3824 N 344.397 -0.483516 -1.5 0
M  V30 3825 C 345.344 0.304164 -2.28787 0
M  V30 3826 C 346.314 0.976114 -1.34392 0
M  V30 3827 O 347.499 0.986156 -1.63339 0
M  V30 3828 C 344.639 1.37298 -3.16612 0
M  V30 3829 C 343.752 0.714561 -4.26049 0
M  V30 3830 C 342.887 1.76232 -5.01114 0
M  V30 3831 C 341.926 1.08483 -6.0241 0
M  V30 3832 N 341.063 2.076 -6.70706 0
M  V30 3833 H 345.903 -0.373981 -2.95644 0
M  V30 3834 H 343.44 -0.196275 -1.45785 0
M  V30 3835 H 345.398 2.00445 -3.65893 0
M  V30 3836 H 344.028 2.02012 -2.51776 0
M  V30 3837 H 343.08 -0.0297798 -3.80388 0
M  V30 3838 H 344.392 0.180383 -4.98474 0
M  V30 3839 H 343.546 2.46929 -5.54176 0
M  V30 3840 H 342.285 2.33033 -4.28424 0
M  V30 3841 H 341.29 0.363545 -5.48597 0
M  V30 3842 H 342.515 0.523551 -6.77079 0
M  V30 3843 H 340.461 2.63394 -6.00799 0
M  V30 3844 H 340.378 1.59201 -7.39047 0
M  V30 3845 H 341.646 2.77639 -7.2838 0
M  V30 3846 N 345.875 1.56104 -0.216619 0
M  V30 3847 C 347.124 1.97348 0.416744 0
M  V30 3848 C 347.437 1.10715 1.6125 0
M  V30 3849 O 348.643 1.41836 2.31506 0
M  V30 3850 C 347.099 3.51059 0.792835 0
M  V30 3851 C 346.707 4.46387 -0.379828 0
M  V30 3852 C 348.451 4.01026 1.39208 0
M  V30 3853 C 346.358 5.91397 0.0184223 0
M  V30 3854 H 345.288 0.736942 0.159475 0
M  V30 3855 H 347.939 1.80827 -0.31205 0
M  V30 3856 H 346.321 3.63162 1.57891 0
M  V30 3857 H 347.495 4.46029 -1.15737 0
M  V30 3858 H 345.81 4.06734 -0.891979 0
M  V30 3859 H 348.407 5.0686 1.70286 0
M  V30 3860 H 348.75 3.46587 2.30614 0
M  V30 3861 H 349.283 3.92125 0.669537 0
M  V30 3862 H 346.022 6.49807 -0.862002 0
M  V30 3863 H 345.542 5.94961 0.760384 0
M  V30 3864 H 347.221 6.45455 0.446818 0
M  V30 3865 N 347.353 -0.0568162 1.57498 0
M  V30 3866 C 348.3 -1.06591 2.04712 0
M  V30 3867 C 349.27 -1.3758 0.930644 0
M  V30 3868 O 350.455 -1.48392 1.19935 0
M  V30 3869 C 347.595 -2.3701 2.50839 0
M  V30 3870 C 346.708 -2.12421 3.76167 0
M  V30 3871 C 345.843 -3.36511 4.11015 0
M  V30 3872 C 344.882 -3.07353 5.2934 0
M  V30 3873 N 344.019 -4.23816 5.59754 0
M  V30 3874 H 348.859 -0.65631 2.90683 0
M  V30 3875 H 346.396 -0.312481 1.43743 0
M  V30 3876 H 348.354 -3.13175 2.7564 0
M  V30 3877 H 346.984 -2.75744 1.67825 0
M  V30 3878 H 346.036 -1.2688 3.58616 0
M  V30 3879 H 347.348 -1.86894 4.62463 0
M  V30 3880 H 346.502 -4.21062 4.36797 0
M  V30 3881 H 345.241 -3.65128 3.23315 0
M  V30 3882 H 344.246 -2.212 5.03339 0
M  V30 3883 H 345.471 -2.80043 6.1867 0
M  V30 3884 H 343.417 -4.52436 4.75014 0
M  V30 3885 H 343.334 -4.01614 6.40501 0
M  V30 3886 H 344.602 -5.0932 5.90096 0
M  V30 3887 N 348.832 -1.54138 -0.328536 0
M  V30 3888 C 349.779 -1.83176 -1.40411 0
M  V30 3889 C 350.749 -0.678494 -1.5161 0
M  V30 3890 O 351.934 -0.92443 -1.6691 0
M  V30 3891 C 349.074 -2.06035 -2.76846 0
M  V30 3892 C 348.187 -3.33727 -2.74318 0
M  V30 3893 C 347.322 -3.46574 -4.02567 0
M  V30 3894 C 346.361 -4.68159 -3.94327 0
M  V30 3895 N 345.498 -4.77959 -5.14296 0
M  V30 3896 H 350.338 -2.74938 -1.14948 0
M  V30 3897 H 347.875 -1.36166 -0.556538 0
M  V30 3898 H 349.833 -2.1728 -3.56153 0
M  V30 3899 H 348.463 -1.1757 -3.00628 0
M  V30 3900 H 347.515 -3.31246 -1.8703 0
M  V30 3901 H 348.827 -4.23139 -2.64111 0
M  V30 3902 H 347.981 -3.57333 -4.90304 0
M  V30 3903 H 346.72 -2.55245 -4.15574 0
M  V30 3904 H 345.725 -4.57461 -3.04974 0
M  V30 3905 H 346.95 -5.60868 -3.82889 0
M  V30 3906 H 344.896 -3.89544 -5.27818 0
M  V30 3907 H 344.813 -5.6133 -5.06404 0
M  V30 3908 H 346.081 -4.93044 -6.03761 0
M  V30 3909 N 350.31 0.590341 -1.46126 0
M  V30 3910 C 351.559 1.34499 -1.50309 0
M  V30 3911 C 351.872 1.94977 -0.156021 0
M  V30 3912 O 353.078 2.71395 -0.0756037 0
M  V30 3913 C 351.534 2.43723 -2.64815 0
M  V30 3914 C 351.142 1.89582 -4.0591 0
M  V30 3915 C 352.886 3.20579 -2.78262 0
M  V30 3916 C 350.793 2.9639 -5.11769 0
M  V30 3917 H 349.723 0.505593 -0.559368 0
M  V30 3918 H 352.374 0.630848 -1.72315 0
M  V30 3919 H 350.756 3.17902 -2.36124 0
M  V30 3920 H 351.93 1.21997 -4.44357 0
M  V30 3921 H 350.245 1.25418 -3.97063 0
M  V30 3922 H 352.842 4.00276 -3.54519 0
M  V30 3923 H 353.185 3.72684 -1.85505 0
M  V30 3924 H 353.718 2.53505 -3.06562 0
M  V30 3925 H 350.457 2.49181 -6.06291 0
M  V30 3926 H 349.977 3.62487 -4.77873 0
M  V30 3927 H 351.656 3.60474 -5.37278 0
M  V30 3928 N 351.788 1.33704 0.83433 0
M  V30 3929 C 353.028 1.26754 1.60352 0
M  V30 3930 C 353.392 -0.163182 1.91305 0
M  V30 3931 O 354.593 -0.3567 2.66423 0
M  V30 3932 C 352.864 2.12262 2.8754 0
M  V30 3933 S 354.423 2.22549 3.78176 0
M  V30 3934 H 351.241 0.450879 0.549753 0
M  V30 3935 H 353.843 1.68788 0.986444 0
M  V30 3936 H 352.547 3.15238 2.62779 0
M  V30 3937 H 352.078 1.71082 3.54252 0
M  V30 3938 H 354.093 1.3899 4.76336 0
M  V30 3939 N 353.266 -1.05314 1.17247 0
M  V30 3940 C 354.543 -1.75184 0.87005 0
M  V30 3941 C 354.923 -2.01481 -0.629965 0
M  V30 3942 O 354.271 -1.64988 -1.58086 0
M  V30 3943 C 354.481 -3.04594 1.70363 0
M  V30 3944 C 355.829 -3.78567 1.92281 0
M  V30 3945 O 356.853 -3.14461 1.67311 0
M  V30 3946 O 355.712 -4.93755 2.3424 0
M  V30 3947 H 352.806 -0.761729 0.322021 0
M  V30 3948 H 355.352 -1.11493 1.27935 0
M  V30 3949 H 354.124 -2.81201 2.72106 0
M  V30 3950 H 353.747 -3.76022 1.29202 0
M  V30 3951 N 354.744 -0.972509 -1.24016 0
M  V30 3952 C 355.992 -0.635776 -1.91839 0
M  V30 3953 C 356.313 0.832312 -1.76345 0
M  V30 3954 O 355.583 1.5946 -1.13795 0
M  V30 3955 H 354.163 -0.232157 -0.710009 0
M  V30 3956 H 356.825 -1.23462 -1.50809 0
M  V30 3957 H 355.921 -0.880545 -2.99421 0
M  V30 3958 N 356.222 1.38976 -0.743202 0
M  V30 3959 C 357.469 2.00343 -0.294752 0
M  V30 3960 C 357.797 1.58983 1.12047 0
M  V30 3961 O 357.052 0.813809 1.77977 0
M  V30 3962 C 357.351 3.55647 -0.353517 0
M  V30 3963 C 357.017 4.16685 -1.72292 0
M  V30 3964 C 355.679 4.3307 -2.09771 0
M  V30 3965 C 358.031 4.50464 -2.62168 0
M  V30 3966 C 355.359 4.80526 -3.36618 0
M  V30 3967 C 357.711 4.99332 -3.88395 0
M  V30 3968 C 356.375 5.13924 -4.25956 0
M  V30 3969 H 355.645 0.733108 -0.107857 0
M  V30 3970 H 358.292 1.6618 -0.951651 0
M  V30 3971 H 356.597 3.89884 0.386954 0
M  V30 3972 H 358.294 4.00998 0.0117269 0
M  V30 3973 H 354.884 4.04339 -1.42155 0
M  V30 3974 H 359.068 4.37416 -2.3448 0
M  V30 3975 H 354.324 4.90008 -3.65653 0
M  V30 3976 H 358.498 5.2444 -4.58187 0
M  V30 3977 H 356.125 5.50457 -5.2431 0
M  V30 3978 N 357.7 0.491464 1.49741 0
M  V30 3979 C 359.116 0.146835 1.58923 0
M  V30 3980 C 359.316 -1.34804 1.49767 0
M  V30 3981 O 358.372 -2.12317 1.36667 0
M  V30 3982 C 359.685 0.715157 2.92072 0
M  V30 3983 C 361.233 0.680407 3.05515 0
M  V30 3984 C 361.708 1.22663 4.41269 0
M  V30 3985 N 363.199 1.18691 4.47735 0
M  V30 3986 C 363.934 1.57984 5.51207 0
M  V30 3987 N 363.43 2.04824 6.6183 0
M  V30 3988 N 365.223 1.49459 5.41866 0
M  V30 3989 H 357.374 1.46347 1.53936 0
M  V30 3990 H 359.637 0.606453 0.728642 0
M  V30 3991 H 359.343 1.76317 3.04311 0
M  V30 3992 H 359.217 0.17018 3.76816 0
M  V30 3993 H 361.604 -0.358743 2.92911 0
M  V30 3994 H 361.685 1.26242 2.22478 0
M  V30 3995 H 361.329 2.26451 4.54623 0
M  V30 3996 H 361.259 0.620637 5.2293 0
M  V30 3997 H 363.75 0.843605 3.68364 0
M  V30 3998 H 364.063 2.32901 7.3687 0
M  V30 3999 H 362.408 2.08791 6.62896 0
M  V30 4000 H 365.599 1.12692 4.54333 0
M  V30 4001 H 365.772 1.80406 6.22381 0
M  V30 4002 N 359.178 -1.55987 0.224894 0
M  V30 4003 C 360.141 -2.19178 -0.670348 0
M  V30 4004 C 361.141 -1.15461 -1.11917 0
M  V30 4005 O 362.331 -1.40675 -1.02743 0
M  V30 4006 C 359.463 -2.81777 -1.9187 0
M  V30 4007 H 360.656 -2.99662 -0.119364 0
M  V30 4008 H 358.209 -1.5628 -0.0247128 0
M  V30 4009 H 358.944 -2.05172 -2.51147 0
M  V30 4010 H 358.729 -3.57732 -1.60531 0
M  V30 4011 H 360.219 -3.30205 -2.55645 0
M  V30 4012 N 360.656 0.0484629 -1.57525 0
M  V30 4013 C 361.884 0.755421 -1.92616 0
M  V30 4014 C 362.299 1.69919 -0.822984 0
M  V30 4015 O 361.656 1.81378 0.202085 0
M  V30 4016 C 361.707 1.52915 -3.27566 0
M  V30 4017 O 361.428 0.62329 -4.33644 0
M  V30 4018 C 362.929 2.33502 -3.76818 0
M  V30 4019 H 360.149 0.213465 -0.63614 0
M  V30 4020 H 362.693 0.0117698 -2.04497 0
M  V30 4021 H 360.848 2.22486 -3.17142 0
M  V30 4022 H 361.262 1.16383 -5.11425 0
M  V30 4023 H 362.736 2.83214 -4.73808 0
M  V30 4024 H 363.213 3.14068 -3.07014 0
M  V30 4025 H 363.819 1.69043 -3.90262 0
M  V30 4026 N 362.134 1.5431 0.320358 0
M  V30 4027 C 363.38 1.72924 1.05949 0
M  V30 4028 C 363.713 0.503185 1.87568 0
M  V30 4029 O 362.988 -0.499839 1.87968 0
M  V30 4030 C 363.271 3.00676 1.98156 0
M  V30 4031 C 363.124 4.3354 1.19845 0
M  V30 4032 C 364.443 3.24198 2.9763 0
M  V30 4033 H 361.562 0.629195 0.383774 0
M  V30 4034 H 364.204 1.87008 0.335854 0
M  V30 4035 H 362.354 2.888 2.59859 0
M  V30 4036 H 364.026 4.57305 0.605773 0
M  V30 4037 H 362.269 4.309 0.500784 0
M  V30 4038 H 362.94 5.19156 1.87567 0
M  V30 4039 H 365.416 3.35557 2.4605 0
M  V30 4040 H 364.292 4.14938 3.59329 0
M  V30 4041 H 364.553 2.41577 3.7026 0
M  V30 4042 N 363.613 -0.582584 1.46437 0
M  V30 4043 C 364.843 -1.36484 1.55099 0
M  V30 4044 C 365.251 -1.88233 0.191056 0
M  V30 4045 O 364.594 -1.6429 -0.821858 0
M  V30 4046 C 364.656 -2.588 2.49525 0
M  V30 4047 C 364.32 -2.28517 3.95764 0
M  V30 4048 C 365.317 -1.87346 4.84972 0
M  V30 4049 C 363.002 -2.40658 4.40896 0
M  V30 4050 C 364.996 -1.5871 6.17325 0
M  V30 4051 C 362.683 -2.11635 5.73284 0
M  V30 4052 C 363.681 -1.70725 6.61318 0
M  V30 4053 O 363.369 -1.42057 7.91249 0
M  V30 4054 H 363.101 -0.423297 0.527063 0
M  V30 4055 H 365.655 -0.715188 1.92547 0
M  V30 4056 H 363.885 -3.26571 2.07095 0
M  V30 4057 H 365.574 -3.20868 2.48593 0
M  V30 4058 H 366.34 -1.77481 4.5136 0
M  V30 4059 H 362.219 -2.71463 3.72598 0
M  V30 4060 H 365.763 -1.26704 6.85997 0
M  V30 4061 H 361.66 -2.21124 6.06444 0
M  V30 4062 H 362.428 -1.55901 8.03515 0
M  V30 4063 N 365.091 -1.34144 -0.827227 0
M  V30 4064 C 366.502 -1.23557 -1.39966 0
M  V30 4065 C 366.853 0.140731 -1.95695 0
M  V30 4066 O 365.978 1.04087 -1.89723 0
M  V30 4067 C 366.573 -2.23708 -2.54441 0
M  V30 4068 C 365.132 -2.16924 -3.07605 0
M  V30 4069 C 364.279 -2.10549 -1.80456 0
M  V30 4070 H 367.23 -1.45573 -0.631991 0
M  V30 4071 H 367.251 -1.85157 -3.32411 0
M  V30 4072 H 366.763 -3.23866 -2.13851 0
M  V30 4073 H 364.864 -1.20107 -3.52711 0
M  V30 4074 H 364.977 -3.07988 -3.66988 0
M  V30 4075 H 363.341 -1.56203 -2.01178 0
M  V30 4076 H 364.124 -3.12535 -1.42046 0
M  V30 4077 N 366.569 1.04691 -1.17803 0
M  V30 4078 C 367.809 1.79352 -0.980423 0
M  V30 4079 C 368.173 1.85853 0.481958 0
M  V30 4080 O 369.374 2.56656 0.798809 0
M  V30 4081 C 367.645 3.19088 -1.6099 0
M  V30 4082 S 369.204 4.10164 -1.55918 0
M  V30 4083 H 366.022 0.617631 -0.352211 0
M  V30 4084 H 368.624 1.25575 -1.49837 0
M  V30 4085 H 367.328 3.11962 -2.66661 0
M  V30 4086 H 366.859 3.77941 -1.09197 0
M  V30 4087 H 368.874 4.92907 -0.570685 0
M  V30 4088 N 368.047 0.979072 1.23499 0
M  V30 4089 C 369.458 0.684391 1.73704 0
M  V30 4090 C 369.809 -0.799448 1.79174 0
M  V30 4091 O 368.934 -1.62531 1.42873 0
M  V30 4092 C 369.529 1.23564 3.15464 0
M  V30 4093 C 368.088 0.99063 3.6313 0
M  V30 4094 C 367.235 1.36416 2.41425 0
M  V30 4095 H 370.186 1.15307 1.09041 0
M  V30 4096 H 370.207 0.607417 3.7562 0
M  V30 4097 H 369.719 2.31561 3.1145 0
M  V30 4098 H 367.82 -0.0733136 3.72528 0
M  V30 4099 H 367.933 1.64427 4.5 0
M  V30 4100 H 366.297 0.782616 2.42378 0
M  V30 4101 H 367.08 2.45387 2.40083 0
M  V30 4102 N 369.525 -1.3858 0.750561 0
M  V30 4103 C 370.435 -2.34278 0.122825 0
M  V30 4104 C 371.451 -1.59116 -0.704131 0
M  V30 4105 O 372.627 -1.91326 -0.628987 0
M  V30 4106 C 369.692 -3.38221 -0.762086 0
M  V30 4107 C 368.753 -4.29227 0.078896 0
M  V30 4108 C 367.986 -5.28205 -0.763874 0
M  V30 4109 O 368.209 -5.34112 -2.00201 0
M  V30 4110 O 367.143 -6.01618 -0.18428 0
M  V30 4111 H 370.969 -2.89649 0.913088 0
M  V30 4112 H 368.554 -1.40374 0.511417 0
M  V30 4113 H 370.436 -4.01872 -1.26793 0
M  V30 4114 H 369.111 -2.85211 -1.5309 0
M  V30 4115 H 368.018 -3.68747 0.630621 0
M  V30 4116 H 369.351 -4.85484 0.810289 0
M  V30 4117 N 371.003 -0.499398 -1.49478 0
M  V30 4118 C 372.414 -0.051215 -1.8663 0
M  V30 4119 C 372.765 1.36238 -1.41186 0
M  V30 4120 O 371.89 2.01502 -0.789051 0
M  V30 4121 C 372.485 -0.0861651 -3.3869 0
M  V30 4122 C 371.044 0.30667 -3.75149 0
M  V30 4123 C 370.191 -0.459397 -2.73468 0
M  V30 4124 H 373.142 -0.712264 -1.41818 0
M  V30 4125 H 373.163 0.709507 -3.73826 0
M  V30 4126 H 372.675 -1.11512 -3.71735 0
M  V30 4127 H 370.776 1.33892 -3.47712 0
M  V30 4128 H 370.889 -0.0116669 -4.79099 0
M  V30 4129 H 369.253 0.0905645 -2.54539 0
M  V30 4130 H 370.036 -1.4884 -3.09357 0
M  V30 4131 N 372.481 1.55866 -0.233164 0
M  V30 4132 C 373.444 2.1953 0.658715 0
M  V30 4133 C 374.444 1.16053 1.11303 0
M  V30 4134 O 375.634 1.41218 1.01996 0
M  V30 4135 C 372.766 2.82791 1.90373 0
M  V30 4136 H 373.959 2.99721 0.10347 0
M  V30 4137 H 371.512 1.56291 0.0164245 0
M  V30 4138 H 372.247 2.06501 2.50056 0
M  V30 4139 H 372.032 3.58578 1.58632 0
M  V30 4140 H 373.522 3.31556 2.53891 0
M  V30 4141 N 373.959 -0.0401083 1.57549 0
M  V30 4142 C 375.205 -0.734211 1.89043 0
M  V30 4143 C 375.538 -1.75591 0.829535 0
M  V30 4144 O 374.813 -1.93868 -0.156706 0
M  V30 4145 C 375.096 -1.41374 3.31188 0
M  V30 4146 C 374.949 -0.406299 4.47961 0
M  V30 4147 C 376.268 -2.35061 3.72068 0
M  V30 4148 H 373.387 -0.265447 0.687537 0
M  V30 4149 H 376.029 0.00294087 1.9 0
M  V30 4150 H 374.179 -2.04206 3.30503 0
M  V30 4151 H 375.851 0.219255 4.60779 0
M  V30 4152 H 374.094 0.275485 4.32924 0
M  V30 4153 H 374.765 -0.920022 5.44279 0
M  V30 4154 H 377.241 -1.82282 3.74049 0
M  V30 4155 H 376.117 -2.79593 4.72355 0
M  V30 4156 H 376.378 -3.21258 3.0372 0
M  V30 4157 N 375.437 -1.54477 -0.31217 0
M  V30 4158 C 376.347 -1.87695 -1.4074 0
M  V30 4159 C 377.363 -0.769975 -1.56036 0
M  V30 4160 O 378.539 -1.06537 -1.70915 0
M  V30 4161 C 375.604 -2.10755 -2.75287 0
M  V30 4162 C 374.665 -3.34514 -2.69071 0
M  V30 4163 C 373.898 -3.56465 -3.97201 0
M  V30 4164 O 374.121 -2.81637 -4.96021 0
M  V30 4165 O 373.055 -4.49964 -3.9977 0
M  V30 4166 H 376.881 -2.80849 -1.15574 0
M  V30 4167 H 374.466 -1.40526 -0.507228 0
M  V30 4168 H 376.348 -2.27188 -3.54913 0
M  V30 4169 H 375.023 -1.20788 -3.0032 0
M  V30 4170 H 373.93 -3.23456 -1.87955 0
M  V30 4171 H 375.263 -4.24575 -2.48992 0
M  V30 4172 N 376.915 0.57481 -1.46744 0
M  V30 4173 C 378.331 0.898981 -1.31873 0
M  V30 4174 C 378.531 1.99313 -0.29605 0
M  V30 4175 O 377.587 2.50728 0.298621 0
M  V30 4176 C 378.9 1.30886 -2.7072 0
M  V30 4177 C 380.448 1.42127 -2.78871 0
M  V30 4178 C 380.923 1.86478 -4.18318 0
M  V30 4179 N 382.414 1.93658 -4.20774 0
M  V30 4180 C 383.149 2.29267 -5.2557 0
M  V30 4181 N 382.645 2.63612 -6.40688 0
M  V30 4182 N 384.438 2.29889 -5.1294 0
M  V30 4183 H 376.589 -0.147839 -2.11885 0
M  V30 4184 H 378.852 -0.00347013 -0.947994 0
M  V30 4185 H 378.558 0.578853 -3.46904 0
M  V30 4186 H 378.432 2.26874 -3.01343 0
M  V30 4187 H 380.819 2.14213 -2.0297 0
M  V30 4188 H 380.9 0.443705 -2.51922 0
M  V30 4189 H 380.544 1.14968 -4.94717 0
M  V30 4190 H 380.474 2.85207 -4.42679 0
M  V30 4191 H 382.965 1.69574 -3.37718 0
M  V30 4192 H 383.278 2.89759 -7.16421 0
M  V30 4193 H 381.623 2.61232 -6.44036 0
M  V30 4194 H 384.814 2.02485 -4.22039 0
M  V30 4195 H 384.987 2.57312 -5.94722 0
M  V30 4196 N 378.394 1.34581 0.820102 0
M  V30 4197 C 379.81 1.14325 1.11364 0
M  V30 4198 C 380.01 -0.0533648 2.01429 0
M  V30 4199 O 379.066 -0.728044 2.41776 0
M  V30 4200 C 380.379 2.43983 1.75764 0
M  V30 4201 C 381.927 2.50065 1.88246 0
M  V30 4202 C 382.402 3.79732 2.56061 0
M  V30 4203 N 383.893 3.80908 2.63558 0
M  V30 4204 C 384.628 4.77961 3.16766 0
M  V30 4205 N 384.124 5.85397 3.70517 0
M  V30 4206 N 385.917 4.65413 3.15194 0
M  V30 4207 H 378.068 2.11246 0.221096 0
M  V30 4208 H 380.331 0.934289 0.160649 0
M  V30 4209 H 380.037 3.31651 1.1705 0
M  V30 4210 H 379.911 2.57531 2.75604 0
M  V30 4211 H 382.298 1.62834 2.46108 0
M  V30 4212 H 382.379 2.40442 0.873006 0
M  V30 4213 H 382.023 4.67354 1.98853 0
M  V30 4214 H 381.953 3.86639 3.57516 0
M  V30 4215 H 384.444 3.03274 2.25463 0
M  V30 4216 H 384.757 6.55463 4.09376 0
M  V30 4217 H 383.102 5.89107 3.68752 0
M  V30 4218 H 386.293 3.80627 2.72471 0
M  V30 4219 H 386.466 5.41216 3.56356 0
M  V30 4220 N 379.872 -1.04064 1.18357 0
M  V30 4221 C 380.782 -2.15569 0.925596 0
M  V30 4222 C 381.798 -1.7365 -0.110295 0
M  V30 4223 O 382.974 -2.01273 0.0716218 0
M  V30 4224 C 380.039 -3.43704 0.454836 0
M  V30 4225 C 379.1 -4.00004 1.55869 0
M  V30 4226 C 378.333 -5.22023 1.1103 0
M  V30 4227 O 378.556 -5.70392 -0.0309756 0
M  V30 4228 O 377.49 -5.70856 1.90805 0
M  V30 4229 H 381.316 -2.40187 1.8586 0
M  V30 4230 H 378.901 -1.1402 0.965394 0
M  V30 4231 H 380.783 -4.20923 0.200382 0
M  V30 4232 H 379.458 -3.20559 -0.449876 0
M  V30 4233 H 378.365 -3.24172 1.86716 0
M  V30 4234 H 379.698 -4.2749 2.43953 0
M  V30 4235 N 381.35 -0.985608 -1.22978 0
M  V30 4236 C 382.283 -0.47487 -2.23204 0
M  V30 4237 C 383.261 0.460865 -1.55932 0
M  V30 4238 O 384.445 0.388105 -1.84461 0
M  V30 4239 C 381.572 0.312427 -3.37256 0
M  V30 4240 C 380.618 -0.568219 -4.22698 0
M  V30 4241 S 381.451 -2.01919 -4.95973 0
M  V30 4242 C 382.607 -1.24118 -6.1347 0
M  V30 4243 H 382.84 -1.32419 -2.66181 0
M  V30 4244 H 380.373 -0.792005 -1.32539 0
M  V30 4245 H 382.331 0.760645 -4.03391 0
M  V30 4246 H 380.992 1.13693 -2.92801 0
M  V30 4247 H 380.185 0.0371657 -5.03986 0
M  V30 4248 H 379.787 -0.952897 -3.61657 0
M  V30 4249 H 382.079 -0.505121 -6.75614 0
M  V30 4250 H 383.022 -2.02907 -6.78406 0
M  V30 4251 H 383.43 -0.757669 -5.59392 0
M  V30 4252 N 382.828 1.3818 -0.7579 0
M  V30 4253 C 383.758 2.33027 -0.148597 0
M  V30 4254 C 384.739 1.55085 0.69875 0
M  V30 4255 O 385.924 1.83384 0.639053 0
M  V30 4256 C 383.054 3.3928 0.742034 0
M  V30 4257 C 382.008 4.28 -0.00291946 0
M  V30 4258 C 381.334 5.25146 1.00625 0
M  V30 4259 C 382.634 5.08938 -1.17385 0
M  V30 4260 H 384.328 2.84231 -0.940909 0
M  V30 4261 H 381.874 1.36659 -0.453908 0
M  V30 4262 H 383.827 4.046 1.17799 0
M  V30 4263 H 382.551 2.86569 1.56671 0
M  V30 4264 H 381.21 3.64192 -0.419504 0
M  V30 4265 H 380.858 4.68721 1.8251 0
M  V30 4266 H 380.558 5.85361 0.512428 0
M  V30 4267 H 382.082 5.93342 1.44143 0
M  V30 4268 H 383.496 5.67474 -0.815224 0
M  V30 4269 H 381.893 5.7841 -1.59882 0
M  V30 4270 H 382.963 4.42424 -1.98468 0
M  V30 4271 N 384.306 0.507319 1.49211 0
M  V30 4272 C 385.216 -0.272136 2.33016 0
M  V30 4273 C 386.232 -0.961206 1.45041 0
M  V30 4274 O 387.408 -0.941191 1.78055 0
M  V30 4275 C 384.473 -1.31895 3.20631 0
M  V30 4276 C 383.534 -0.642648 4.24463 0
M  V30 4277 C 382.767 -1.63959 5.07891 0
M  V30 4278 O 382.99 -2.87007 4.92933 0
M  V30 4279 O 381.924 -1.19143 5.8999 0
M  V30 4280 H 385.75 0.413982 3.00865 0
M  V30 4281 H 383.335 0.268556 1.46966 0
M  V30 4282 H 385.217 -1.92446 3.7489 0
M  V30 4283 H 383.892 -1.98788 2.5547 0
M  V30 4284 H 382.799 0.00276252 3.741 0
M  V30 4285 H 384.132 -0.0160534 4.92197 0
M  V30 4286 N 385.784 -1.5574 0.241426 0
M  V30 4287 C 387.009 -2.0366 -0.392111 0
M  V30 4288 C 387.434 -1.11969 -1.51144 0
M  V30 4289 O 386.792 -0.111594 -1.80956 0
M  V30 4290 C 386.84 -3.49638 -0.882371 0
M  V30 4291 O 385.944 -3.6108 -1.99235 0
M  V30 4292 H 385.285 -0.658379 -0.0862122 0
M  V30 4293 H 387.815 -2.01302 0.365881 0
M  V30 4294 H 387.825 -3.90351 -1.18702 0
M  V30 4295 H 386.5 -4.15852 -0.0632361 0
M  V30 4296 H 385.077 -3.32262 -1.69282 0
M  V30 4297 N 387.262 0.0317525 -1.57568 0
M  V30 4298 C 388.508 0.724175 -1.8943 0
M  V30 4299 C 388.841 1.75149 -0.838836 0
M  V30 4300 O 388.116 1.93948 0.146422 0
M  V30 4301 C 388.399 1.39615 -3.31933 0
M  V30 4302 C 388.252 0.382537 -4.4817 0
M  V30 4303 C 389.571 2.33084 -3.73309 0
M  V30 4304 H 386.69 0.261797 -0.688935 0
M  V30 4305 H 389.332 -0.013017 -1.89996 0
M  V30 4306 H 387.482 2.02451 -3.31581 0
M  V30 4307 H 389.154 -0.243689 -4.60656 0
M  V30 4308 H 387.397 -0.29844 -4.32772 0
M  V30 4309 H 388.068 0.891145 -5.44759 0
M  V30 4310 H 390.544 1.80295 -3.7501 0
M  V30 4311 H 389.42 2.77084 -4.73831 0
M  V30 4312 H 389.681 3.19643 -3.05419 0
M  V30 4313 N 388.74 1.54641 0.303973 0
M  V30 4314 C 389.688 1.86137 1.39484 0
M  V30 4315 C 390.682 0.734854 1.52631 0
M  V30 4316 O 391.888 0.918803 1.54784 0
M  V30 4317 H 388.263 0.590324 0.465856 0
M  V30 4318 H 390.234 2.77324 1.10154 0
M  V30 4319 C 388.983 2.12274 2.75382 0
M  V30 4320 H 388.306 2.98429 2.66046 0
M  V30 4321 H 389.746 2.38254 3.5073 0
M  V30 4322 C 388.205 0.920365 3.24085 0
M  V30 4323 O 388.735 0.139377 4.01458 0
M  V30 4324 N 386.941 0.726566 2.81371 0
M  V30 4325 H 386.488 1.36332 2.18567 0
M  V30 4326 H 386.446 -0.0763799 3.14307 0
M  V30 4327 N 390.218 -0.567019 1.47046 0
M  V30 4328 C 391.464 -1.32658 1.53394 0
M  V30 4329 C 391.797 -1.93254 0.19148 0
M  V30 4330 O 391.072 -1.77338 -0.798844 0
M  V30 4331 C 391.355 -2.44412 2.64452 0
M  V30 4332 C 391.208 -1.88749 4.08282 0
M  V30 4333 C 392.527 -3.46387 2.71485 0
M  V30 4334 H 389.646 -0.48098 0.558415 0
M  V30 4335 H 392.288 -0.635481 1.79058 0
M  V30 4336 H 390.438 -3.03363 2.427 0
M  V30 4337 H 392.11 -1.34134 4.41368 0
M  V30 4338 H 390.353 -1.19481 4.17021 0
M  V30 4339 H 391.024 -2.69491 4.81745 0
M  V30 4340 H 393.5 -2.9734 2.91081 0
M  V30 4341 H 392.376 -4.2202 3.50985 0
M  V30 4342 H 392.637 -4.04616 1.78153 0
M  V30 4343 N 391.696 -1.35014 -0.812953 0
M  V30 4344 C 393.112 -1.14914 -1.10757 0
M  V30 4345 C 393.312 0.0426818 -2.01455 0
M  V30 4346 O 392.368 0.715212 -2.42159 0
M  V30 4347 C 393.681 -2.44911 -1.74468 0
M  V30 4348 C 395.229 -2.5106 -1.86917 0
M  V30 4349 C 395.704 -3.81085 -2.54044 0
M  V30 4350 N 397.195 -3.82301 -2.61535 0
M  V30 4351 C 397.93 -4.79634 -3.14227 0
M  V30 4352 N 397.426 -5.87353 -3.67407 0
M  V30 4353 N 399.219 -4.67078 -3.12721 0
M  V30 4354 H 391.37 -2.1136 -0.20989 0
M  V30 4355 H 393.633 -0.935128 -0.155692 0
M  V30 4356 H 393.339 -3.32267 -1.15289 0
M  V30 4357 H 393.213 -2.58989 -2.74234 0
M  V30 4358 H 395.6 -1.64137 -2.45241 0
M  V30 4359 H 395.681 -2.40901 -0.860242 0
M  V30 4360 H 395.325 -4.68402 -1.96372 0
M  V30 4361 H 395.255 -3.88529 -3.55461 0
M  V30 4362 H 397.746 -3.04465 -2.23851 0
M  V30 4363 H 398.059 -6.57624 -4.05894 0
M  V30 4364 H 396.404 -5.91054 -3.65623 0
M  V30 4365 H 399.595 -3.82067 -2.70449 0
M  V30 4366 H 399.768 -5.43098 -3.53481 0
M  V30 4367 N 393.175 1.03435 -1.18907 0
M  V30 4368 C 394.105 2.13503 -0.945448 0
M  V30 4369 C 395.086 1.69682 0.119189 0
M  V30 4370 O 396.271 1.94169 -0.034707 0
M  V30 4371 C 393.401 3.44004 -0.477316 0
M  V30 4372 C 392.355 4.0148 -1.48316 0
M  V30 4373 C 391.681 5.27537 -0.872311 0
M  V30 4374 C 392.981 4.36921 -2.86177 0
M  V30 4375 H 394.675 2.34141 -1.86597 0
M  V30 4376 H 392.221 1.12523 -0.898584 0
M  V30 4377 H 394.174 4.20372 -0.294204 0
M  V30 4378 H 392.898 3.23072 0.478786 0
M  V30 4379 H 391.557 3.27201 -1.65332 0
M  V30 4380 H 391.205 5.02917 0.0911752 0
M  V30 4381 H 390.905 5.66954 -1.54393 0
M  V30 4382 H 392.429 6.06576 -0.699871 0
M  V30 4383 H 393.843 5.04248 -2.72776 0
M  V30 4384 H 392.24 4.87405 -3.50081 0
M  V30 4385 H 393.31 3.46466 -3.39248 0
M  V30 4386 N 394.653 0.992116 1.22453 0
M  V30 4387 C 395.563 0.55065 2.28046 0
M  V30 4388 C 396.579 -0.400189 1.69335 0
M  V30 4389 O 397.755 -0.267215 1.99619 0
M  V30 4390 C 394.82 -0.128496 3.46462 0
M  V30 4391 C 393.881 0.865208 4.20491 0
M  V30 4392 C 393.114 0.218377 5.33253 0
M  V30 4393 O 393.337 -0.987894 5.6178 0
M  V30 4394 O 392.271 0.922845 5.94783 0
M  V30 4395 H 396.097 1.4291 2.67975 0
M  V30 4396 H 393.682 0.760326 1.28606 0
M  V30 4397 H 395.564 -0.508947 4.18315 0
M  V30 4398 H 394.239 -0.981526 3.0846 0
M  V30 4399 H 393.146 1.29658 3.50913 0
M  V30 4400 H 394.479 1.68741 4.62371 0
M  V30 4401 N 396.131 -1.37776 0.765217 0
M  V30 4402 C 397.408 -1.93975 0.251596 0
M  V30 4403 C 397.788 -1.69949 -1.25222 0
M  V30 4404 O 397.136 -1.04457 -2.03226 0
M  V30 4405 C 397.346 -3.43487 0.617895 0
M  V30 4406 C 398.694 -4.20564 0.584029 0
M  V30 4407 O 399.718 -3.5182 0.556888 0
M  V30 4408 O 398.577 -5.43138 0.605291 0
M  V30 4409 H 395.671 -0.82509 0.0561806 0
M  V30 4410 H 398.217 -1.47101 0.846128 0
M  V30 4411 H 396.989 -3.5453 1.65602 0
M  V30 4412 H 396.612 -3.976 -0.00403411 0
M  V30 4413 N 397.609 -0.515225 -1.4894 0
M  V30 4414 C 398.539 0.244628 -2.32215 0
M  V30 4415 C 399.52 0.949136 -1.41157 0
M  V30 4416 O 400.705 0.937783 -1.70057 0
M  V30 4417 C 397.835 1.30096 -3.22013 0
M  V30 4418 C 396.789 0.715486 -4.21977 0
M  V30 4419 C 396.115 1.87339 -5.00808 0
M  V30 4420 C 397.415 -0.302982 -5.2142 0
M  V30 4421 H 399.109 -0.450501 -2.95991 0
M  V30 4422 H 396.655 -0.218098 -1.42339 0
M  V30 4423 H 398.608 1.84037 -3.79089 0
M  V30 4424 H 397.332 2.02547 -2.56207 0
M  V30 4425 H 395.991 0.197715 -3.66066 0
M  V30 4426 H 395.639 2.58592 -4.31438 0
M  V30 4427 H 395.339 1.48764 -5.68457 0
M  V30 4428 H 396.863 2.41686 -5.60732 0
M  V30 4429 H 398.277 0.148802 -5.73107 0
M  V30 4430 H 396.674 -0.60532 -5.97039 0
M  V30 4431 H 397.744 -1.21395 -4.69459 0
M  V30 4432 N 399.087 1.5561 -0.249682 0
M  V30 4433 C 400.336 1.98187 0.37479 0
M  V30 4434 C 400.649 1.14111 1.58865 0
M  V30 4435 O 401.855 1.46714 2.28445 0
M  V30 4436 C 400.311 3.52661 0.718192 0
M  V30 4437 C 399.919 4.45481 -0.474428 0
M  V30 4438 C 401.663 4.03888 1.3067 0
M  V30 4439 C 399.57 5.91303 -0.107026 0
M  V30 4440 H 398.5 0.740159 0.143808 0
M  V30 4441 H 401.151 1.80125 -0.350336 0
M  V30 4442 H 399.533 3.66429 1.50152 0
M  V30 4443 H 400.707 4.43473 -1.25172 0
M  V30 4444 H 399.022 4.04751 -0.978052 0
M  V30 4445 H 401.619 5.10358 1.59496 0
M  V30 4446 H 401.962 3.51401 2.23211 0
M  V30 4447 H 402.495 3.93457 0.586211 0
M  V30 4448 H 399.234 6.47833 -0.999642 0
M  V30 4449 H 398.754 5.9644 0.634013 0
M  V30 4450 H 400.433 6.46258 0.309807 0
M  V30 4451 N 400.565 -0.0233959 1.57583 0
M  V30 4452 C 401.793 -0.724682 1.93794 0
M  V30 4453 C 402.208 -1.68588 0.849912 0
M  V30 4454 O 401.565 -1.81676 -0.173204 0
M  V30 4455 C 401.616 -1.47684 3.29957 0
M  V30 4456 O 401.337 -0.554222 4.3458 0
M  V30 4457 C 402.838 -2.27477 3.80485 0
M  V30 4458 H 400.058 -0.203317 0.639455 0
M  V30 4459 H 402.602 0.0207653 2.04489 0
M  V30 4460 H 400.757 -2.17412 3.20641 0
M  V30 4461 H 401.171 -1.08232 5.13212 0
M  V30 4462 H 402.645 -2.7564 4.78254 0
M  V30 4463 H 403.122 -3.09144 3.11972 0
M  V30 4464 H 403.728 -1.62813 3.92902 0
M  V30 4465 N 402.043 -1.548 -0.295768 0
M  V30 4466 C 403.289 -1.74588 -1.03184 0
M  V30 4467 C 403.622 -0.532962 -1.86744 0
M  V30 4468 O 402.897 0.469872 -1.88739 0
M  V30 4469 C 403.18 -3.03791 -1.93347 0
M  V30 4470 C 403.033 -4.35392 -1.12933 0
M  V30 4471 C 404.352 -3.28892 -2.92435 0
M  V30 4472 H 401.471 -0.635221 -0.373715 0
M  V30 4473 H 404.113 -1.87519 -0.30606 0
M  V30 4474 H 402.263 -2.92898 -2.55232 0
M  V30 4475 H 403.935 -4.58211 -0.532943 0
M  V30 4476 H 402.178 -4.31642 -0.432168 0
M  V30 4477 H 402.849 -5.22074 -1.79284 0
M  V30 4478 H 405.325 -3.39429 -2.4068 0
M  V30 4479 H 404.201 -4.20603 -3.52682 0
M  V30 4480 H 404.462 -2.47437 -3.6637 0
M  V30 4481 N 403.521 0.559213 -1.47345 0
M  V30 4482 C 404.77 1.31281 -1.53128 0
M  V30 4483 C 405.083 1.94602 -0.197344 0
M  V30 4484 O 406.289 2.71173 -0.133154 0
M  V30 4485 C 404.745 2.38051 -2.69925 0
M  V30 4486 C 404.353 1.8093 -4.0984 0
M  V30 4487 C 406.097 3.14604 -2.84999 0
M  V30 4488 C 404.004 2.85468 -5.1794 0
M  V30 4489 H 402.934 0.493614 -0.569966 0
M  V30 4490 H 405.585 0.594155 -1.73615 0
M  V30 4491 H 403.967 3.12822 -2.42814 0
M  V30 4492 H 405.141 1.12544 -4.46845 0
M  V30 4493 H 403.456 1.16967 -3.99634 0
M  V30 4494 H 406.053 3.92666 -3.62929 0
M  V30 4495 H 406.396 3.68665 -1.93369 0
M  V30 4496 H 406.929 2.46945 -3.1187 0
M  V30 4497 H 403.668 2.36264 -6.1144 0
M  V30 4498 H 403.188 3.52269 -4.85455 0
M  V30 4499 H 404.867 3.48996 -5.44803 0
M  V30 4500 N 404.999 1.35443 0.805782 0
M  V30 4501 C 406.227 1.31878 1.59423 0
M  V30 4502 C 406.642 -0.103562 1.88516 0
M  V30 4503 O 405.999 -1.05575 1.48863 0
M  V30 4504 C 406.05 2.12426 2.92502 0
M  V30 4505 O 405.771 3.49115 2.6467 0
M  V30 4506 C 407.272 2.16455 3.86862 0
M  V30 4507 H 404.492 0.453002 0.495005 0
M  V30 4508 H 407.036 1.78309 1.00131 0
M  V30 4509 H 405.191 1.69593 3.48306 0
M  V30 4510 H 405.605 3.90957 3.49647 0
M  V30 4511 H 407.079 2.77204 4.77349 0
M  V30 4512 H 407.556 1.16352 4.23508 0
M  V30 4513 H 408.162 2.59453 3.36993 0
M  V30 4514 N 406.477 -1.02803 1.19454 0
M  V30 4515 C 407.409 -2.11181 0.890807 0
M  V30 4516 C 408.422 -1.6238 -0.116829 0
M  V30 4517 O 409.611 -1.78144 0.112694 0
M  V30 4518 C 406.711 -3.37461 0.311942 0
M  V30 4519 C 405.884 -4.15446 1.36834 0
M  V30 4520 C 404.943 -5.20039 0.802864 0
M  V30 4521 O 403.969 -5.49602 1.48077 0
M  V30 4522 N 405.171 -5.79165 -0.393417 0
M  V30 4523 H 407.936 -2.37827 1.82369 0
M  V30 4524 H 405.497 -1.19101 1.09666 0
M  V30 4525 H 407.489 -4.0462 -0.0802225 0
M  V30 4526 H 406.059 -3.08156 -0.52524 0
M  V30 4527 H 405.279 -3.43423 1.93531 0
M  V30 4528 H 406.567 -4.64335 2.08015 0
M  V30 4529 H 405.965 -5.57466 -0.961658 0
M  V30 4530 H 404.522 -6.47729 -0.727351 0
M  V30 4531 N 407.956 -0.998596 -1.21925 0
M  V30 4532 C 409.184 -0.696286 -1.94832 0
M  V30 4533 C 409.599 0.740032 -1.73692 0
M  V30 4534 O 408.956 1.5 -1.03953 0
M  V30 4535 C 409.007 -0.999833 -3.47398 0
M  V30 4536 O 408.728 -2.37972 -3.67833 0
M  V30 4537 C 410.229 -0.716025 -4.37479 0
M  V30 4538 H 407.449 -0.257111 -0.619786 0
M  V30 4539 H 409.993 -1.33491 -1.54921 0
M  V30 4540 H 408.148 -0.406918 -3.85257 0
M  V30 4541 H 408.562 -2.48338 -4.61983 0
M  V30 4542 H 410.036 -0.978642 -5.43256 0
M  V30 4543 H 410.513 0.349968 -4.37803 0
M  V30 4544 H 411.119 -1.29025 -4.05256 0
M  V30 4545 N 409.434 1.37368 -0.772513 0
M  V30 4546 C 410.344 2.34053 -0.160081 0
M  V30 4547 C 411.36 1.60216 0.678728 0
M  V30 4548 O 412.536 1.92303 0.59847 0
M  V30 4549 C 409.601 3.3939 0.708182 0
M  V30 4550 C 408.662 4.29048 -0.147172 0
M  V30 4551 C 407.895 5.29354 0.679744 0
M  V30 4552 O 408.118 5.3723 1.91678 0
M  V30 4553 O 407.052 6.01835 0.0885444 0
M  V30 4554 H 410.878 2.88159 -0.959053 0
M  V30 4555 H 408.463 1.39543 -0.533685 0
M  V30 4556 H 410.345 4.03839 1.20384 0
M  V30 4557 H 409.02 2.8761 1.48533 0
M  V30 4558 H 407.927 3.67697 -0.689205 0
M  V30 4559 H 409.26 4.84134 -0.887423 0
M  V30 4560 N 410.912 0.523116 1.48665 0
M  V30 4561 C 412.137 -0.0117284 2.07397 0
M  V30 4562 C 412.562 -1.28031 1.37803 0
M  V30 4563 O 411.92 -1.75836 0.441762 0
M  V30 4564 C 411.968 -0.225786 3.59892 0
M  V30 4565 O 411.072 -1.29592 3.91509 0
M  V30 4566 H 410.413 0.0360673 0.66302 0
M  V30 4567 H 412.943 0.729066 1.9117 0
M  V30 4568 H 412.953 -0.450552 4.05505 0
M  V30 4569 H 411.628 0.700944 4.09951 0
M  V30 4570 H 410.205 -1.05436 3.57684 0
M  V30 4571 N 412.39 -1.55475 0.257931 0
M  V30 4572 C 413.34 -2.18506 -0.651094 0
M  V30 4573 C 414.324 -1.14431 -1.13112 0
M  V30 4574 O 415.516 -1.40305 -1.07905 0
M  V30 4575 C 412.645 -2.89653 -1.84272 0
M  V30 4576 C 411.731 -4.00996 -1.38068 0
M  V30 4577 N 412.122 -5.01816 -0.633609 0
M  V30 4578 C 410.42 -4.13753 -1.66506 0
M  V30 4579 C 411.121 -5.80371 -0.392922 0
M  V30 4580 N 410.097 -5.3505 -0.960359 0
M  V30 4581 H 413.899 -2.93811 -0.0722883 0
M  V30 4582 H 411.413 -1.62286 0.0607256 0
M  V30 4583 H 413.41 -3.33245 -2.50506 0
M  V30 4584 H 412.07 -2.15854 -2.42564 0
M  V30 4585 H 413.081 -5.17128 -0.282626 0
M  V30 4586 H 409.758 -3.51133 -2.25858 0
M  V30 4587 H 411.148 -6.7159 0.204235 0
M  V30 4588 N 413.868 0.0150385 -1.57593 0
M  V30 4589 C 415.284 0.370907 -1.5523 0
M  V30 4590 C 415.484 1.75735 -0.985882 0
M  V30 4591 O 414.54 2.44944 -0.613077 0
M  V30 4592 C 415.853 0.259908 -2.99575 0
M  V30 4593 C 417.401 0.335959 -3.11192 0
M  V30 4594 C 417.876 0.254253 -4.57294 0
M  V30 4595 N 419.367 0.312618 -4.62144 0
M  V30 4596 C 420.102 0.272505 -5.72752 0
M  V30 4597 N 419.598 0.183864 -6.92556 0
M  V30 4598 N 421.391 0.323267 -5.6117 0
M  V30 4599 H 413.542 -0.892104 -1.92757 0
M  V30 4600 H 415.805 -0.340563 -0.884715 0
M  V30 4601 H 415.511 -0.693403 -3.44797 0
M  V30 4602 H 415.385 1.048 -3.62349 0
M  V30 4603 H 417.772 1.27971 -2.65909 0
M  V30 4604 H 417.853 -0.481739 -2.51223 0
M  V30 4605 H 417.497 -0.685887 -5.03247 0
M  V30 4606 H 417.427 1.09024 -5.15191 0
M  V30 4607 H 419.918 0.38307 -3.75953 0
M  V30 4608 H 420.231 0.15874 -7.72637 0
M  V30 4609 H 418.576 0.149708 -6.94839 0
M  V30 4610 H 421.767 0.390607 -4.66467 0
M  V30 4611 H 421.94 0.288539 -6.47357 0
M  V30 4612 N 415.346 1.54954 0.287554 0
M  V30 4613 C 416.278 1.83224 1.37701 0
M  V30 4614 C 417.291 0.715898 1.46215 0
M  V30 4615 O 418.48 0.993565 1.48292 0
M  V30 4616 C 415.58 1.96723 2.75959 0
M  V30 4617 C 414.753 3.27253 2.90215 0
M  V30 4618 C 413.812 3.30998 4.09056 0
M  V30 4619 O 412.838 4.04457 4.00503 0
M  V30 4620 N 414.04 2.57353 5.20336 0
M  V30 4621 H 416.805 2.77254 1.138 0
M  V30 4622 H 414.366 1.54694 0.477652 0
M  V30 4623 H 416.358 1.96615 3.5373 0
M  V30 4624 H 414.928 1.09626 2.92747 0
M  V30 4625 H 414.148 3.40022 1.99447 0
M  V30 4626 H 415.436 4.13365 2.96659 0
M  V30 4627 H 414.834 1.97327 5.30169 0
M  V30 4628 H 413.391 2.62984 5.96391 0
M  V30 4629 N 416.824 -0.551391 1.4764 0
M  V30 4630 C 418.24 -0.877887 1.33287 0
M  V30 4631 C 418.44 -1.98817 0.327721 0
M  V30 4632 O 417.496 -2.51171 -0.258695 0
M  V30 4633 C 418.809 -1.26563 2.72768 0
M  V30 4634 C 420.357 -1.37673 2.81097 0
M  V30 4635 C 420.832 -1.79799 4.21232 0
M  V30 4636 N 422.323 -1.8694 4.23802 0
M  V30 4637 C 423.058 -2.20876 5.29151 0
M  V30 4638 N 422.554 -2.53386 6.448 0
M  V30 4639 N 424.347 -2.217 5.16532 0
M  V30 4640 H 416.498 0.18153 2.11623 0
M  V30 4641 H 418.761 0.0185514 0.947818 0
M  V30 4642 H 418.467 -0.523591 3.47781 0
M  V30 4643 H 418.341 -2.22052 3.04915 0
M  V30 4644 H 420.728 -2.10956 2.06353 0
M  V30 4645 H 420.809 -0.40357 2.52596 0
M  V30 4646 H 420.453 -1.07083 4.96483 0
M  V30 4647 H 420.383 -2.78128 4.4716 0
M  V30 4648 H 422.874 -1.64179 3.40373 0
M  V30 4649 H 423.187 -2.78325 7.20941 0
M  V30 4650 H 421.532 -2.50953 6.48111 0
M  V30 4651 H 424.723 -1.95745 4.25207 0
M  V30 4652 H 424.896 -2.47818 5.98741 0
M  V30 4653 N 418.302 -1.35869 -0.798587 0
M  V30 4654 C 419.232 -1.32118 -1.92528 0
M  V30 4655 C 420.213 -0.194209 -1.68988 0
M  V30 4656 O 421.398 -0.390426 -1.90235 0
M  V30 4657 C 418.528 -1.10047 -3.29404 0
M  V30 4658 C 417.482 -2.19471 -3.67446 0
M  V30 4659 C 416.808 -1.82555 -5.02571 0
M  V30 4660 C 418.108 -3.61495 -3.76987 0
M  V30 4661 H 419.802 -2.26394 -1.95924 0
M  V30 4662 H 417.348 -1.08981 -0.94123 0
M  V30 4663 H 419.301 -1.06061 -4.07835 0
M  V30 4664 H 418.025 -0.122195 -3.26371 0
M  V30 4665 H 416.684 -2.22568 -2.91306 0
M  V30 4666 H 416.332 -0.833249 -4.9605 0
M  V30 4667 H 416.032 -2.5581 -5.28995 0
M  V30 4668 H 417.556 -1.80108 -5.83432 0
M  V30 4669 H 418.97 -3.60676 -4.4563 0
M  V30 4670 H 417.367 -4.33577 -4.14887 0
M  V30 4671 H 418.437 -3.97065 -2.78329 0
M  V30 4672 N 419.78 1.02168 -1.19998 0
M  V30 4673 C 420.71 2.12488 -0.96804 0
M  V30 4674 C 421.691 1.69799 0.101185 0
M  V30 4675 O 422.876 1.94121 -0.0552993 0
M  V30 4676 C 420.006 3.43479 -0.513776 0
M  V30 4677 C 418.96 3.99884 -1.52566 0
M  V30 4678 C 418.286 5.26582 -0.928214 0
M  V30 4679 C 419.586 4.33861 -2.90795 0
M  V30 4680 H 421.28 2.32149 -1.89069 0
M  V30 4681 H 418.826 1.11564 -0.910468 0
M  V30 4682 H 420.779 4.20036 -0.338774 0
M  V30 4683 H 419.503 3.23561 0.444493 0
M  V30 4684 H 418.162 3.25429 -1.68794 0
M  V30 4685 H 417.81 5.02986 0.0378289 0
M  V30 4686 H 417.51 5.65284 -1.60397 0
M  V30 4687 H 419.034 6.05799 -0.764167 0
M  V30 4688 H 420.448 5.01327 -2.78109 0
M  V30 4689 H 418.845 4.83664 -3.55231 0
M  V30 4690 H 419.915 3.42848 -3.42904 0
M  V30 4691 N 421.258 1.00505 1.21394 0
M  V30 4692 C 422.19 0.52372 2.23136 0
M  V30 4693 C 423.203 -0.387714 1.58116 0
M  V30 4694 O 424.392 -0.187905 1.77508 0
M  V30 4695 C 421.492 -0.258885 3.3791 0
M  V30 4696 C 420.665 0.651634 4.32519 0
M  V30 4697 C 419.724 -0.0813705 5.26137 0
M  V30 4698 O 418.75 0.537295 5.66658 0
M  V30 4699 N 419.952 -1.35992 5.64346 0
M  V30 4700 H 422.717 1.39865 2.65062 0
M  V30 4701 H 420.278 0.881196 1.35818 0
M  V30 4702 H 422.27 -0.758208 3.97534 0
M  V30 4703 H 420.84 -1.035 2.94968 0
M  V30 4704 H 420.06 1.33145 3.71034 0
M  V30 4705 H 421.348 1.27129 4.92662 0
M  V30 4706 H 420.746 -1.88368 5.33417 0
M  V30 4707 H 419.303 -1.8042 6.26332 0
M  V30 4708 N 422.737 -1.36956 0.779787 0
M  V30 4709 C 423.647 -2.33965 0.172491 0
M  V30 4710 C 424.663 -1.60574 -0.670222 0
M  V30 4711 O 425.839 -1.92617 -0.588263 0
M  V30 4712 C 422.904 -3.39761 -0.690173 0
M  V30 4713 C 421.965 -4.28964 0.169924 0
M  V30 4714 C 421.198 -5.29707 -0.651662 0
M  V30 4715 O 421.421 -5.38238 -1.88827 0
M  V30 4716 O 420.355 -6.01873 -0.0566264 0
M  V30 4717 H 424.181 -2.87647 0.974321 0
M  V30 4718 H 421.766 -1.39258 0.541078 0
M  V30 4719 H 423.648 -4.04471 -1.1824 0
M  V30 4720 H 422.323 -2.88394 -1.47006 0
M  V30 4721 H 421.23 -3.67326 0.708696 0
M  V30 4722 H 422.563 -4.83656 0.913085 0
M  V30 4723 N 424.215 -0.530993 -1.48385 0
M  V30 4724 C 425.178 0.220497 -2.28137 0
M  V30 4725 C 426.178 0.866851 -1.35434 0
M  V30 4726 O 427.368 0.726746 -1.58316 0
M  V30 4727 C 424.5 1.31921 -3.1434 0
M  V30 4728 H 425.693 -0.479714 -2.96038 0
M  V30 4729 H 423.246 -0.286968 -1.53643 0
M  V30 4730 H 423.981 2.05264 -2.51072 0
M  V30 4731 H 423.766 0.86085 -3.82533 0
M  V30 4732 H 425.256 1.84776 -3.74497 0
M  V30 4733 N 425.693 1.55336 -0.266172 0
M  V30 4734 C 426.656 2.20878 0.612001 0
M  V30 4735 C 427.656 1.18388 1.08816 0
M  V30 4736 O 428.846 1.4335 0.989774 0
M  V30 4737 C 425.978 2.86765 1.84332 0
M  V30 4738 H 427.171 2.99873 0.0398718 0
M  V30 4739 H 424.724 1.56291 -0.0167309 0
M  V30 4740 H 425.459 2.11759 2.45619 0
M  V30 4741 H 425.244 3.61862 1.5099 0
M  V30 4742 H 426.734 3.36867 2.46801 0
M  V30 4743 N 427.171 -0.0066808 1.57599 0
M  V30 4744 C 428.134 -0.985035 2.06953 0
M  V30 4745 C 429.134 -1.27663 0.977687 0
M  V30 4746 O 430.324 -1.22293 1.24057 0
M  V30 4747 C 427.456 -2.3118 2.50536 0
M  V30 4748 H 428.649 -0.558255 2.94658 0
M  V30 4749 H 426.202 -0.254011 1.54222 0
M  V30 4750 H 426.937 -2.78561 1.66054 0
M  V30 4751 H 426.722 -2.11338 3.3027 0
M  V30 4752 H 428.212 -3.01377 2.8907 0
M  V30 4753 N 428.649 -1.55105 -0.279332 0
M  V30 4754 C 429.597 -1.88333 -1.36505 0
M  V30 4755 C 430.591 -0.759043 -1.51443 0
M  V30 4756 O 431.797 -0.943312 -1.53302 0
M  V30 4757 H 428.172 -0.59766 -0.456406 0
M  V30 4758 H 430.143 -2.79041 -1.05728 0
M  V30 4759 C 428.892 -2.16628 -2.7197 0
M  V30 4760 H 428.215 -3.02624 -2.61264 0
M  V30 4761 H 429.655 -2.43803 -3.46895 0
M  V30 4762 C 428.114 -0.971807 -3.22579 0
M  V30 4763 O 428.644 -0.203228 -4.01186 0
M  V30 4764 N 426.85 -0.771238 -2.80179 0
M  V30 4765 H 426.397 -1.39792 -2.1637 0
M  V30 4766 H 426.355 0.0263667 -3.14389 0
M  V30 4767 N 430.127 0.543554 -1.4793 0
M  V30 4768 C 431.373 1.29961 -1.56466 0
M  V30 4769 C 431.728 1.91024 -0.229696 0
M  V30 4770 O 431.021 1.75619 0.766072 0
M  V30 4771 C 431.215 2.42078 -2.62932 0
M  V30 4772 C 431.044 1.92003 -4.06651 0
M  V30 4773 C 429.814 1.75223 -4.73946 0
M  V30 4774 C 432.012 1.45648 -4.93245 0
M  V30 4775 N 429.994 1.19632 -6.02131 0
M  V30 4776 C 431.365 1.01914 -6.11566 0
M  V30 4777 C 433.42 1.33826 -4.79578 0
M  V30 4778 C 432.123 0.475301 -7.17728 0
M  V30 4779 C 434.149 0.808427 -5.85848 0
M  V30 4780 C 433.511 0.381081 -7.03368 0
M  V30 4781 H 429.61 0.467086 -0.62718 0
M  V30 4782 H 432.194 0.614543 -1.84747 0
M  V30 4783 H 430.365 3.08098 -2.36496 0
M  V30 4784 H 432.097 3.09096 -2.61231 0
M  V30 4785 H 428.852 1.98345 -4.30065 0
M  V30 4786 H 429.276 0.93885 -6.70458 0
M  V30 4787 H 433.918 1.65474 -3.89074 0
M  V30 4788 H 431.636 0.146472 -8.07967 0
M  V30 4789 H 435.222 0.720315 -5.77324 0
M  V30 4790 H 434.102 -0.0225344 -7.84197 0
M  V30 4791 N 431.605 1.3629 0.791371 0
M  V30 4792 C 432.555 1.26988 1.89362 0
M  V30 4793 C 433.539 0.161795 1.60084 0
M  V30 4794 O 434.731 0.394426 1.72549 0
M  V30 4795 C 431.86 1.05944 3.26544 0
M  V30 4796 C 430.946 2.21211 3.61838 0
M  V30 4797 N 431.337 3.46518 3.68455 0
M  V30 4798 C 429.635 2.12933 3.91887 0
M  V30 4799 C 430.336 4.2241 3.99931 0
M  V30 4800 N 429.312 3.51329 4.14812 0
M  V30 4801 H 433.114 2.21908 1.92702 0
M  V30 4802 H 430.628 1.28982 0.986787 0
M  V30 4803 H 432.625 0.973666 4.05371 0
M  V30 4804 H 431.285 0.119223 3.24481 0
M  V30 4805 H 432.296 3.80677 3.51148 0
M  V30 4806 H 428.973 1.26855 3.97761 0
M  V30 4807 H 430.363 5.30767 4.1199 0
M  V30 4808 N 433.083 -1.0153 1.20538 0
M  V30 4809 C 434.308 -1.79283 1.04271 0
M  V30 4810 C 434.733 -1.8372 -0.403544 0
M  V30 4811 O 434.091 -1.27321 -1.2907 0
M  V30 4812 C 434.139 -3.21535 1.63241 0
M  V30 4813 O 433.243 -4.03099 0.870908 0
M  V30 4814 H 432.584 -0.55293 0.367647 0
M  V30 4815 H 435.114 -1.27696 1.59859 0
M  V30 4816 H 435.124 -3.72243 1.6703 0
M  V30 4817 H 433.799 -3.1762 2.68497 0
M  V30 4818 H 432.376 -3.61693 0.907323 0
M  V30 4819 N 434.561 -1.01147 -1.20859 0
M  V30 4820 C 435.807 -0.708598 -1.90658 0
M  V30 4821 C 436.162 0.753069 -1.7705 0
M  V30 4822 O 435.455 1.53952 -1.14059 0
M  V30 4823 C 435.649 -1.0727 -3.40922 0
M  V30 4824 C 435.478 -2.56821 -3.69152 0
M  V30 4825 C 434.248 -3.23524 -3.8815 0
M  V30 4826 C 436.446 -3.54997 -3.72131 0
M  V30 4827 N 434.428 -4.62359 -4.03853 0
M  V30 4828 C 435.799 -4.79371 -3.93196 0
M  V30 4829 C 437.854 -3.49042 -3.55069 0
M  V30 4830 C 436.557 -5.98512 -3.98969 0
M  V30 4831 C 438.583 -4.67579 -3.6211 0
M  V30 4832 C 437.945 -5.9076 -3.83643 0
M  V30 4833 H 434.044 -0.31088 -0.71755 0
M  V30 4834 H 436.628 -1.29526 -1.45366 0
M  V30 4835 H 434.799 -0.51443 -3.84978 0
M  V30 4836 H 436.531 -0.723891 -3.98173 0
M  V30 4837 H 433.286 -2.73958 -3.86321 0
M  V30 4838 H 433.71 -5.34427 -4.15592 0
M  V30 4839 H 438.352 -2.54808 -3.37391 0
M  V30 4840 H 436.07 -6.93132 -4.15444 0
M  V30 4841 H 439.656 -4.64581 -3.50222 0
M  V30 4842 H 438.536 -6.8095 -3.88944 0
M  V30 4843 N 436.039 1.36541 -0.78704 0
M  V30 4844 C 436.969 2.32659 -0.197992 0
M  V30 4845 C 437.95 1.56533 0.665697 0
M  V30 4846 O 439.135 1.84698 0.60001 0
M  V30 4847 C 436.265 3.40778 0.669901 0
M  V30 4848 C 435.219 4.27897 -0.0937039 0
M  V30 4849 C 434.545 5.27163 0.894629 0
M  V30 4850 C 435.845 5.06334 -1.28154 0
M  V30 4851 H 437.539 2.82171 -1.00099 0
M  V30 4852 H 435.085 1.35665 -0.482793 0
M  V30 4853 H 437.038 4.07008 1.09191 0
M  V30 4854 H 435.762 2.89827 1.50558 0
M  V30 4855 H 434.421 3.6322 -0.49666 0
M  V30 4856 H 434.069 4.72486 1.72527 0
M  V30 4857 H 433.769 5.86317 0.388149 0
M  V30 4858 H 435.293 5.96266 1.31525 0
M  V30 4859 H 436.707 5.65617 -0.93541 0
M  V30 4860 H 435.104 5.74888 -1.72115 0
M  V30 4861 H 436.174 4.38114 -2.07807 0
M  V30 4862 N 437.518 0.538854 1.48102 0
M  V30 4863 C 438.767 0.0059532 2.01699 0
M  V30 4864 C 439.08 -1.34476 1.42041 0
M  V30 4865 O 440.286 -1.96653 1.87189 0
M  V30 4866 C 438.742 -0.0397627 3.59878 0
M  V30 4867 C 438.35 1.30659 4.28523 0
M  V30 4868 C 440.094 -0.521024 4.2129 0
M  V30 4869 C 438.001 1.22098 5.78659 0
M  V30 4870 H 436.931 -0.00154456 0.753998 0
M  V30 4871 H 439.582 0.683963 1.70277 0
M  V30 4872 H 437.964 -0.783037 3.88181 0
M  V30 4873 H 439.138 2.06613 4.11883 0
M  V30 4874 H 437.453 1.7243 3.79021 0
M  V30 4875 H 440.05 -0.603184 5.31287 0
M  V30 4876 H 440.393 -1.52885 3.8721 0
M  V30 4877 H 440.926 0.166834 3.9745 0
M  V30 4878 H 437.665 2.20424 6.17328 0
M  V30 4879 H 437.185 0.50295 5.97688 0
M  V30 4880 H 438.864 0.915345 6.40492 0
M  V30 4881 N 438.996 -1.55193 0.274407 0
M  V30 4882 C 439.943 -2.225 -0.613374 0
M  V30 4883 C 440.913 -1.19823 -1.15029 0
M  V30 4884 O 442.098 -1.48362 -1.19973 0
M  V30 4885 C 439.238 -2.94927 -1.79199 0
M  V30 4886 C 438.351 -4.12322 -1.28899 0
M  V30 4887 C 437.486 -4.72394 -2.42934 0
M  V30 4888 C 436.525 -5.81984 -1.89634 0
M  V30 4889 N 435.662 -6.36123 -2.9714 0
M  V30 4890 H 440.502 -2.97982 -0.032756 0
M  V30 4891 H 438.039 -1.47099 -0.00440146 0
M  V30 4892 H 439.997 -3.35134 -2.48478 0
M  V30 4893 H 438.627 -2.2187 -2.34465 0
M  V30 4894 H 437.679 -3.7724 -0.489327 0
M  V30 4895 H 438.991 -4.91355 -0.858587 0
M  V30 4896 H 438.145 -5.15317 -3.20208 0
M  V30 4897 H 436.884 -3.92636 -2.8929 0
M  V30 4898 H 435.889 -5.38511 -1.1084 0
M  V30 4899 H 437.114 -6.6361 -1.44215 0
M  V30 4900 H 435.06 -5.59259 -3.42878 0
M  V30 4901 H 434.977 -7.10427 -2.58515 0
M  V30 4902 H 436.245 -6.83704 -3.74391 0
M  V30 4903 N 440.474 -0.00167713 -1.576 0
M  V30 4904 C 441.72 0.683832 -1.90923 0
M  V30 4905 C 442.053 1.7333 -0.875799 0
M  V30 4906 O 441.328 1.94215 0.10525 0
M  V30 4907 C 441.611 1.32543 -3.3482 0
M  V30 4908 C 441.464 0.287387 -4.48881 0
M  V30 4909 C 442.783 2.25114 -3.78169 0
M  V30 4910 H 439.902 0.247125 -0.694333 0
M  V30 4911 H 442.544 -0.0533149 -1.89925 0
M  V30 4912 H 440.694 1.95372 -3.35801 0
M  V30 4913 H 442.366 -0.341346 -4.60035 0
M  V30 4914 H 440.609 -0.39017 -4.32042 0
M  V30 4915 H 441.28 0.775393 -5.46527 0
M  V30 4916 H 443.756 1.723 -3.7875 0
M  V30 4917 H 442.632 2.66971 -4.79602 0
M  V30 4918 H 442.893 3.13092 -3.12131 0
M  V30 4919 N 441.952 1.55251 0.271103 0
M  V30 4920 C 442.884 1.84675 1.35749 0
M  V30 4921 C 443.897 0.731366 1.45447 0
M  V30 4922 O 445.086 1.00924 1.4723 0
M  V30 4923 C 442.186 1.99638 2.73857 0
M  V30 4924 C 441.359 3.30312 2.86727 0
M  V30 4925 C 440.418 3.35318 4.05522 0
M  V30 4926 O 439.444 4.08682 3.96191 0
M  V30 4927 N 440.646 2.62857 5.17577 0
M  V30 4928 H 443.411 2.78445 1.10853 0
M  V30 4929 H 440.972 1.55191 0.461218 0
M  V30 4930 H 442.964 2.00355 3.51625 0
M  V30 4931 H 441.534 1.12725 2.91568 0
M  V30 4932 H 440.754 3.42118 1.95829 0
M  V30 4933 H 442.042 4.16488 2.92258 0
M  V30 4934 H 441.44 2.02939 5.28046 0
M  V30 4935 H 439.997 2.69295 5.93568 0
M  V30 4936 N 443.43 -0.535701 1.48216 0
M  V30 4937 C 444.377 -1.64083 1.62312 0
M  V30 4938 C 445.347 -1.59448 0.465365 0
M  V30 4939 O 446.532 -1.77959 0.688135 0
M  V30 4940 C 443.672 -3.0236 1.66349 0
M  V30 4941 C 442.785 -3.17273 2.93193 0
M  V30 4942 C 441.92 -4.46075 2.88427 0
M  V30 4943 C 440.959 -4.54496 4.1 0
M  V30 4944 N 440.096 -5.7468 4.03345 0
M  V30 4945 H 444.936 -1.51374 2.5669 0
M  V30 4946 H 442.473 -0.737059 1.27302 0
M  V30 4947 H 444.431 -3.82461 1.66672 0
M  V30 4948 H 443.061 -3.13854 0.754672 0
M  V30 4949 H 442.113 -2.30462 3.02641 0
M  V30 4950 H 443.425 -3.19357 3.83162 0
M  V30 4951 H 442.579 -5.3446 2.87119 0
M  V30 4952 H 441.318 -4.46504 1.96177 0
M  V30 4953 H 440.323 -3.64519 4.11589 0
M  V30 4954 H 441.548 -4.5581 5.03402 0
M  V30 4955 H 439.494 -5.76017 3.13912 0
M  V30 4956 H 439.411 -5.78234 4.87013 0
M  V30 4957 H 440.679 -6.65367 4.06087 0
M  V30 4958 N 444.908 -1.36708 -0.784132 0
M  V30 4959 C 445.841 -1.25827 -1.90375 0
M  V30 4960 C 446.819 -0.141331 -1.61985 0
M  V30 4961 O 448.003 -0.313389 -1.85877 0
M  V30 4962 C 445.13 -0.942621 -3.25319 0
M  V30 4963 C 444.176 -2.07474 -3.72635 0
M  V30 4964 S 445.009 -3.69317 -3.8777 0
M  V30 4965 C 446.165 -3.39876 -5.25581 0
M  V30 4966 H 446.398 -2.20593 -1.99314 0
M  V30 4967 H 443.931 -1.22186 -0.943926 0
M  V30 4968 H 445.889 -0.767321 -4.03265 0
M  V30 4969 H 444.55 -0.0126566 -3.14097 0
M  V30 4970 H 443.743 -1.80858 -4.70432 0
M  V30 4971 H 443.345 -2.20953 -3.01754 0
M  V30 4972 H 445.637 -2.94097 -6.10339 0
M  V30 4973 H 446.58 -4.36956 -5.57203 0
M  V30 4974 H 446.988 -2.75098 -4.92931 0
M  V30 4975 N 446.386 1.0089 -1.21074 0
M  V30 4976 C 447.333 2.09588 -0.966512 0
M  V30 4977 C 448.303 1.65761 0.106089 0
M  V30 4978 O 449.488 1.90758 -0.0402287 0
M  V30 4979 C 446.628 3.40958 -0.533058 0
M  V30 4980 C 445.741 3.9822 -1.67467 0
M  V30 4981 C 444.876 5.17682 -1.19076 0
M  V30 4982 C 443.915 5.67043 -2.30496 0
M  V30 4983 N 443.052 6.77759 -1.83267 0
M  V30 4984 H 447.892 2.29815 -1.89708 0
M  V30 4985 H 445.429 1.12689 -0.945489 0
M  V30 4986 H 447.387 4.1637 -0.263019 0
M  V30 4987 H 446.017 3.20781 0.360505 0
M  V30 4988 H 445.069 3.1983 -2.05944 0
M  V30 4989 H 446.381 4.3085 -2.51336 0
M  V30 4990 H 445.535 6.00326 -0.877151 0
M  V30 4991 H 444.274 4.86635 -0.322066 0
M  V30 4992 H 443.279 4.82999 -2.62664 0
M  V30 4993 H 444.504 6.00121 -3.17855 0
M  V30 4994 H 442.45 6.48527 -0.987356 0
M  V30 4995 H 442.367 7.09624 -2.60711 0
M  V30 4996 H 443.635 7.63949 -1.54928 0
M  V30 4997 N 447.864 1.01787 1.20321 0
M  V30 4998 C 448.827 0.593972 2.2137 0
M  V30 4999 C 449.827 -0.336553 1.57239 0
M  V30 5000 O 451.017 -0.125069 1.7375 0
M  V30 5001 C 448.149 -0.132433 3.40643 0
M  V30 5002 H 449.342 1.48791 2.60387 0
M  V30 5003 H 446.895 0.807803 1.33807 0
M  V30 5004 H 447.63 -1.04123 3.0713 0
M  V30 5005 H 447.415 0.53605 3.88418 0
M  V30 5006 H 448.905 -0.416314 4.1552 0
M  V30 5007 N 449.342 -1.36122 0.79427 0
M  V30 5008 C 450.588 -1.99406 0.369452 0
M  V30 5009 C 450.921 -1.62886 -1.05743 0
M  V30 5010 O 450.196 -0.886053 -1.73145 0
M  V30 5011 C 450.479 -3.56046 0.538833 0
M  V30 5012 C 450.332 -4.02404 2.00976 0
M  V30 5013 C 451.651 -4.40079 -0.0431359 0
M  V30 5014 H 448.77 -0.724397 0.135712 0
M  V30 5015 H 451.412 -1.61461 1.00151 0
M  V30 5016 H 449.562 -3.885 0.000771004 0
M  V30 5017 H 451.234 -3.80415 2.60926 0
M  V30 5018 H 449.477 -3.53765 2.51063 0
M  V30 5019 H 450.148 -5.11344 2.07922 0
M  V30 5020 H 452.624 -4.14013 0.416228 0
M  V30 5021 H 451.5 -5.48799 0.105374 0
M  V30 5022 H 451.761 -4.27264 -1.13571 0
M  V30 5023 N 450.82 -0.546701 -1.47814 0
M  V30 5024 C 452.05 -0.0232519 -2.06587 0
M  V30 5025 C 452.458 1.2712 -1.40133 0
M  V30 5026 O 451.801 1.77091 -0.488305 0
M  V30 5027 C 451.863 0.254117 -3.58601 0
M  V30 5028 C 451.527 -0.949331 -4.47031 0
M  V30 5029 C 452.524 -1.85216 -4.85789 0
M  V30 5030 C 450.209 -1.16104 -4.88697 0
M  V30 5031 C 452.203 -2.95047 -5.65001 0
M  V30 5032 C 449.89 -2.26247 -5.67676 0
M  V30 5033 C 450.888 -3.1555 -6.05737 0
M  V30 5034 O 450.576 -4.23784 -6.83127 0
M  V30 5035 H 450.308 -0.0380082 -0.674931 0
M  V30 5036 H 452.862 -0.756631 -1.90956 0
M  V30 5037 H 451.092 1.04168 -3.72406 0
M  V30 5038 H 452.781 0.72167 -3.99433 0
M  V30 5039 H 453.547 -1.70061 -4.54207 0
M  V30 5040 H 449.426 -0.475159 -4.58545 0
M  V30 5041 H 452.97 -3.64778 -5.94628 0
M  V30 5042 H 448.867 -2.41379 -5.98671 0
M  V30 5043 H 449.635 -4.21701 -7.01506 0
M  V30 5044 N 452.299 1.55045 -0.282633 0
M  V30 5045 C 453.249 2.19514 0.616249 0
M  V30 5046 C 454.233 1.16216 1.11277 0
M  V30 5047 O 455.425 1.42004 1.05659 0
M  V30 5048 C 452.554 2.92548 1.7964 0
M  V30 5049 C 451.64 4.03142 1.31671 0
M  V30 5050 N 452.031 5.0276 0.553695 0
M  V30 5051 C 450.329 4.1635 1.59903 0
M  V30 5052 C 451.03 5.80923 0.30054 0
M  V30 5053 N 450.006 5.3651 0.875116 0
M  V30 5054 H 453.808 2.93889 0.0255363 0
M  V30 5055 H 451.322 1.62169 -0.0865362 0
M  V30 5056 H 453.319 3.37188 2.45173 0
M  V30 5057 H 451.979 2.19685 2.39099 0
M  V30 5058 H 452.99 5.17512 0.20032 0
M  V30 5059 H 449.667 3.54682 2.20243 0
M  V30 5060 H 451.057 6.7118 -0.311053 0
M  V30 5061 N 453.777 0.010035 1.57597 0
M  V30 5062 C 455.026 -0.671945 1.90178 0
M  V30 5063 C 455.339 -1.74376 0.886131 0
M  V30 5064 O 456.545 -2.48107 1.10252 0
M  V30 5065 C 455.001 -1.24636 3.3763 0
M  V30 5066 C 454.609 -0.208838 4.47513 0
M  V30 5067 C 456.353 -1.90595 3.79307 0
M  V30 5068 C 454.26 -0.793814 5.86048 0
M  V30 5069 H 453.19 -0.25474 0.709665 0
M  V30 5070 H 455.841 0.0722206 1.83358 0
M  V30 5071 H 454.223 -2.04152 3.3932 0
M  V30 5072 H 455.397 0.562463 4.57354 0
M  V30 5073 H 453.712 0.350889 4.14919 0
M  V30 5074 H 456.309 -2.35284 4.80151 0
M  V30 5075 H 456.652 -2.74074 3.13352 0
M  V30 5076 H 457.185 -1.17798 3.79958 0
M  V30 5077 H 453.924 0.00240855 6.555 0
M  V30 5078 H 453.444 -1.53404 5.79851 0
M  V30 5079 H 455.123 -1.2894 6.34022 0
M  V30 5080 N 455.255 -1.55392 -0.262866 0
M  V30 5081 C 456.185 -1.91978 -1.32917 0
M  V30 5082 C 457.166 -0.7828 -1.51017 0
M  V30 5083 O 458.351 -1.04178 -1.63892 0
M  V30 5084 C 455.481 -2.20055 -2.68687 0
M  V30 5085 C 454.435 -3.35854 -2.65304 0
M  V30 5086 C 453.761 -3.49435 -4.04721 0
M  V30 5087 C 455.061 -4.71977 -2.23685 0
M  V30 5088 H 456.755 -2.81292 -1.02544 0
M  V30 5089 H 454.301 -1.3534 -0.491846 0
M  V30 5090 H 456.254 -2.44237 -3.43404 0
M  V30 5091 H 454.978 -1.27551 -3.00663 0
M  V30 5092 H 453.637 -3.11655 -1.93045 0
M  V30 5093 H 453.285 -2.54379 -4.33936 0
M  V30 5094 H 452.985 -4.27297 -4.0335 0
M  V30 5095 H 454.509 -3.7592 -4.81161 0
M  V30 5096 H 455.923 -4.95637 -2.88127 0
M  V30 5097 H 454.32 -5.52828 -2.33456 0
M  V30 5098 H 455.39 -4.70115 -1.18827 0
M  V30 5099 N 456.733 0.527833 -1.48498 0
M  V30 5100 C 457.681 1.65313 -1.63628 0
M  V30 5101 C 458.675 1.6177 -0.502676 0
M  V30 5102 O 459.881 1.66601 -0.681469 0
M  V30 5103 H 456.256 0.547518 -0.515488 0
M  V30 5104 H 458.227 1.49696 -2.58135 0
M  V30 5105 C 456.976 3.03576 -1.6952 0
M  V30 5106 H 456.299 3.06997 -2.56111 0
M  V30 5107 H 457.739 3.81923 -1.84149 0
M  V30 5108 C 456.198 3.34089 -0.43432 0
M  V30 5109 O 456.728 3.99151 0.451852 0
M  V30 5110 N 454.934 2.88991 -0.305368 0
M  V30 5111 H 454.481 2.36222 -1.02747 0
M  V30 5112 H 454.439 3.09776 0.537249 0
M  V30 5113 N 458.211 1.37122 0.776871 0
M  V30 5114 C 459.144 1.26835 1.89705 0
M  V30 5115 C 460.122 0.14992 1.61907 0
M  V30 5116 O 461.306 0.323242 1.85708 0
M  V30 5117 C 458.433 0.95986 3.24814 0
M  V30 5118 C 457.479 2.09447 3.7153 0
M  V30 5119 S 458.312 3.71368 3.85806 0
M  V30 5120 C 459.468 3.42659 5.23771 0
M  V30 5121 H 459.701 2.21647 1.98141 0
M  V30 5122 H 457.234 1.22685 0.937433 0
M  V30 5123 H 459.192 0.788696 4.02852 0
M  V30 5124 H 457.853 0.0293137 3.14086 0
M  V30 5125 H 457.046 1.8335 4.69467 0
M  V30 5126 H 456.648 2.2255 3.00578 0
M  V30 5127 H 458.94 2.9733 6.0877 0
M  V30 5128 H 459.883 4.39905 5.54878 0
M  V30 5129 H 460.291 2.77708 4.91466 0
M  V30 5130 N 459.689 -1.00246 1.21608 0
M  V30 5131 C 460.929 -1.75589 1.04631 0
M  V30 5132 C 461.293 -1.87513 -0.412648 0
M  V30 5133 O 462.494 -2.59444 -0.703003 0
M  V30 5134 C 460.765 -3.12893 1.72722 0
M  V30 5135 S 462.324 -4.04095 1.71034 0
M  V30 5136 H 459.142 -0.604133 0.374892 0
M  V30 5137 H 461.744 -1.19927 1.54395 0
M  V30 5138 H 460.448 -3.0185 2.78055 0
M  V30 5139 H 459.979 -3.73628 1.23149 0
M  V30 5140 H 461.994 -4.9045 0.753231 0
M  V30 5141 N 461.167 -1.02423 -1.1978 0
M  V30 5142 C 462.115 -0.594474 -2.24875 0
M  V30 5143 C 463.109 0.370598 -1.65296 0
M  V30 5144 O 464.315 0.239684 -1.78397 0
M  V30 5145 H 460.69 -0.173961 -0.731602 0
M  V30 5146 H 462.661 -1.4916 -2.58445 0
M  V30 5147 C 461.41 0.0436512 -3.47673 0
M  V30 5148 H 460.733 -0.689963 -3.93801 0
M  V30 5149 H 462.173 0.307362 -4.22884 0
M  V30 5150 C 460.632 1.28881 -3.11274 0
M  V30 5151 O 461.162 2.38135 -3.23503 0
M  V30 5152 N 459.368 1.1758 -2.6575 0
M  V30 5153 H 458.915 0.286769 -2.55999 0
M  V30 5154 H 458.873 2.00988 -2.41767 0
M  V30 5155 N 462.645 1.35699 -0.801477 0
M  V30 5156 C 463.894 1.98165 -0.375979 0
M  V30 5157 C 464.207 1.64306 1.06127 0
M  V30 5158 O 465.413 2.20097 1.58964 0
M  V30 5159 C 463.869 3.54497 -0.621305 0
M  V30 5160 C 463.477 3.9727 -2.07076 0
M  V30 5161 C 465.221 4.23697 -0.26091 0
M  V30 5162 C 463.128 5.46427 -2.26211 0
M  V30 5163 H 462.058 0.741478 -0.136844 0
M  V30 5164 H 464.709 1.54834 -0.984814 0
M  V30 5165 H 463.091 3.95958 0.0574112 0
M  V30 5166 H 464.265 3.66974 -2.78687 0
M  V30 5167 H 462.58 3.40943 -2.39054 0
M  V30 5168 H 465.177 5.33334 -0.381994 0
M  V30 5169 H 465.52 4.0869 0.792344 0
M  V30 5170 H 466.053 3.87639 -0.893339 0
M  V30 5171 H 462.792 5.66396 -3.29963 0
M  V30 5172 H 462.312 5.78309 -1.59119 0
M  V30 5173 H 463.991 6.12819 -2.07513 0
M  V30 5174 N 464.123 0.554532 1.47522 0
M  V30 5175 C 465.4 -0.0360704 1.95567 0
M  V30 5176 C 465.78 -1.48828 1.49711 0
M  V30 5177 O 465.128 -2.16366 0.734717 0
M  V30 5178 C 465.338 0.106631 3.48837 0
M  V30 5179 C 466.686 -0.0400899 4.24581 0
M  V30 5180 O 467.71 0.0340453 3.56184 0
M  V30 5181 O 466.569 -0.199111 5.46137 0
M  V30 5182 H 463.663 -0.0656294 0.824392 0
M  V30 5183 H 466.209 0.620867 1.57935 0
M  V30 5184 H 464.981 1.11727 3.7501 0
M  V30 5185 H 464.604 -0.58804 3.93227 0
M  V30 5186 N 465.601 -1.54893 0.290851 0
M  V30 5187 C 466.847 -2.0023 -0.321867 0
M  V30 5188 C 467.18 -1.179 -1.54316 0
M  V30 5189 O 466.455 -0.25293 -1.92848 0
M  V30 5190 C 466.738 -3.53456 -0.688515 0
M  V30 5191 C 466.591 -4.46532 0.541209 0
M  V30 5192 C 467.91 -4.13057 -1.51895 0
M  V30 5193 H 465.029 -0.727891 -0.115515 0
M  V30 5194 H 467.671 -1.85722 0.400931 0
M  V30 5195 H 465.821 -3.6595 -1.30433 0
M  V30 5196 H 467.493 -4.4596 1.17973 0
M  V30 5197 H 465.736 -4.17545 1.17636 0
M  V30 5198 H 466.407 -5.51475 0.240675 0
M  V30 5199 H 468.883 -4.03937 -0.99872 0
M  V30 5200 H 467.759 -5.20448 -1.74429 0
M  V30 5201 H 468.02 -3.64284 -2.50498 0
M  V30 5202 N 467.08 -0.0183926 -1.57589 0
M  V30 5203 C 468.308 0.673046 -1.95647 0
M  V30 5204 C 468.723 1.66275 -0.894312 0
M  V30 5205 O 468.08 1.82072 0.124975 0
M  V30 5206 C 468.131 1.38884 -3.33756 0
M  V30 5207 O 467.852 0.438806 -4.35897 0
M  V30 5208 C 469.353 2.1731 -3.86383 0
M  V30 5209 H 466.573 0.186292 -0.644621 0
M  V30 5210 H 469.117 -0.0749748 -2.04363 0
M  V30 5211 H 467.272 2.08835 -3.26293 0
M  V30 5212 H 467.686 0.945869 -5.15901 0
M  V30 5213 H 469.16 2.62863 -4.85394 0
M  V30 5214 H 469.637 3.00764 -3.20059 0
M  V30 5215 H 470.243 1.52339 -3.97081 0
M  V30 5216 N 468.558 1.5553 0.254621 0
M  V30 5217 C 469.49 1.86104 1.33783 0
M  V30 5218 C 470.503 0.746752 1.44663 0
M  V30 5219 O 471.692 1.0248 1.46151 0
M  V30 5220 C 468.792 2.02532 2.71724 0
M  V30 5221 C 467.965 3.33335 2.83208 0
M  V30 5222 C 467.024 3.396 4.01943 0
M  V30 5223 O 466.05 4.12862 3.91834 0
M  V30 5224 N 467.252 2.68332 5.1476 0
M  V30 5225 H 470.017 2.79605 1.07893 0
M  V30 5226 H 467.578 1.55672 0.444732 0
M  V30 5227 H 469.57 2.04074 3.4948 0
M  V30 5228 H 468.14 1.15811 2.90356 0
M  V30 5229 H 467.36 3.44176 1.92189 0
M  V30 5230 H 468.648 4.19565 2.87824 0
M  V30 5231 H 468.046 2.08528 5.25864 0
M  V30 5232 H 466.603 2.75575 5.90679 0
M  V30 5233 N 470.036 -0.519951 1.48776 0
M  V30 5234 C 470.968 -1.63973 1.60142 0
M  V30 5235 C 471.981 -1.55404 0.485117 0
M  V30 5236 O 473.17 -1.61682 0.756391 0
M  V30 5237 C 470.27 -3.02676 1.52449 0
M  V30 5238 C 469.443 -3.36624 2.79291 0
M  V30 5239 C 468.502 -4.54652 2.64912 0
M  V30 5240 O 467.528 -4.57374 3.38818 0
M  V30 5241 N 468.73 -5.53432 1.75195 0
M  V30 5242 H 471.495 -1.54656 2.56713 0
M  V30 5243 H 469.056 -0.707439 1.45626 0
M  V30 5244 H 471.048 -3.79525 1.4051 0
M  V30 5245 H 469.618 -3.06018 0.638125 0
M  V30 5246 H 468.838 -2.48855 3.0572 0
M  V30 5247 H 470.126 -3.56094 3.6342 0
M  V30 5248 H 469.524 -5.54018 1.14371 0
M  V30 5249 H 468.081 -6.29459 1.69189 0
M  V30 5250 N 471.514 -1.37532 -0.769588 0
M  V30 5251 C 472.754 -1.34261 -1.54122 0
M  V30 5252 C 473.118 0.0717222 -1.91866 0
M  V30 5253 O 474.319 0.22918 -2.67821 0
M  V30 5254 C 472.59 -2.2574 -2.77086 0
M  V30 5255 S 474.149 -2.40339 -3.67127 0
M  V30 5256 H 470.967 -0.476595 -0.527615 0
M  V30 5257 H 473.569 -1.73303 -0.90479 0
M  V30 5258 H 472.273 -3.27417 -2.4744 0
M  V30 5259 H 471.804 -1.87789 -3.45686 0
M  V30 5260 H 473.819 -1.61558 -4.69163 0
M  V30 5261 N 472.992 0.995999 -1.22138 0
M  V30 5262 C 474.238 1.73767 -1.04561 0
M  V30 5263 C 474.571 1.89633 0.418698 0
M  V30 5264 O 473.846 1.43723 1.3105 0
M  V30 5265 C 474.129 3.14505 -1.75382 0
M  V30 5266 C 473.982 3.06306 -3.29388 0
M  V30 5267 C 475.301 4.13615 -1.50369 0
M  V30 5268 H 472.42 0.630728 -0.38125 0
M  V30 5269 H 475.062 1.16057 -1.50435 0
M  V30 5270 H 473.212 3.63775 -1.36383 0
M  V30 5271 H 474.884 2.64681 -3.77812 0
M  V30 5272 H 473.127 2.43186 -3.59226 0
M  V30 5273 H 473.798 4.05884 -3.74116 0
M  V30 5274 H 476.274 3.73089 -1.84239 0
M  V30 5275 H 475.15 5.10212 -2.02421 0
M  V30 5276 H 475.411 4.39949 -0.435611 0
M  V30 5277 N 474.47 1.03057 1.19235 0
M  V30 5278 C 475.719 0.72326 1.88287 0
M  V30 5279 C 476.032 -0.751333 1.80594 0
M  V30 5280 O 477.238 -1.17176 2.44912 0
M  V30 5281 C 475.694 1.24338 3.3774 0
M  V30 5282 C 475.302 2.74587 3.53986 0
M  V30 5283 C 477.046 1.01213 4.12257 0
M  V30 5284 C 474.953 3.20009 4.97341 0
M  V30 5285 H 473.883 0.266848 0.705201 0
M  V30 5286 H 476.534 1.24509 1.34795 0
M  V30 5287 H 474.916 0.649457 3.90638 0
M  V30 5288 H 476.09 3.39649 3.11408 0
M  V30 5289 H 474.405 2.9601 2.9286 0
M  V30 5290 H 477.002 1.32675 5.17978 0
M  V30 5291 H 477.345 -0.051001 4.16269 0
M  V30 5292 H 477.878 1.57014 3.65501 0
M  V30 5293 H 474.617 4.25659 4.98493 0
M  V30 5294 H 474.137 2.59676 5.40674 0
M  V30 5295 H 475.816 3.13447 5.66003 0
M  V30 5296 N 475.948 -1.35272 0.808662 0
M  V30 5297 C 476.911 -2.28082 0.226093 0
M  V30 5298 C 477.911 -1.49673 -0.587762 0
M  V30 5299 O 479.101 -1.69404 -0.405943 0
M  V30 5300 C 476.233 -3.33955 -0.684596 0
M  V30 5301 H 477.426 -2.81116 1.04469 0
M  V30 5302 H 474.979 -1.45162 0.579466 0
M  V30 5303 H 475.714 -2.86111 -1.5268 0
M  V30 5304 H 475.499 -3.91965 -0.102699 0
M  V30 5305 H 476.989 -4.03219 -1.08646 0
M  V30 5306 N 477.426 -0.562348 -1.47226 0
M  V30 5307 C 478.336 0.185466 -2.33866 0
M  V30 5308 C 479.352 0.906713 -1.48508 0
M  V30 5309 O 480.528 0.874458 -1.81425 0
M  V30 5310 C 477.593 1.19904 -3.25306 0
M  V30 5311 C 476.654 0.484669 -4.26555 0
M  V30 5312 C 475.887 1.44996 -5.13626 0
M  V30 5313 O 476.11 2.68515 -5.03245 0
M  V30 5314 O 475.044 0.971642 -5.94006 0
M  V30 5315 H 478.87 -0.525361 -2.99121 0
M  V30 5316 H 476.455 -0.322916 -1.45868 0
M  V30 5317 H 478.337 1.78399 -3.81774 0
M  V30 5318 H 477.012 1.8917 -2.62672 0
M  V30 5319 H 475.919 -0.141605 -3.73832 0
M  V30 5320 H 477.252 -0.166634 -4.91918 0
M  V30 5321 N 478.904 1.54736 -0.299062 0
M  V30 5322 C 480.153 1.99279 0.311549 0
M  V30 5323 C 480.466 1.19107 1.55154 0
M  V30 5324 O 481.672 1.53908 2.23662 0
M  V30 5325 C 480.128 3.54768 0.605632 0
M  V30 5326 C 479.736 4.43746 -0.615914 0
M  V30 5327 C 481.48 4.07841 1.17754 0
M  V30 5328 C 479.387 5.90663 -0.29509 0
M  V30 5329 H 478.317 0.744359 0.120187 0
M  V30 5330 H 480.968 1.78919 -0.407464 0
M  V30 5331 H 479.35 3.71021 1.38419 0
M  V30 5332 H 480.524 4.39267 -1.39218 0
M  V30 5333 H 478.839 4.01434 -1.10633 0
M  V30 5334 H 481.436 5.15174 1.43179 0
M  V30 5335 H 481.779 3.58324 2.11918 0
M  V30 5336 H 482.312 3.95123 0.460739 0
M  V30 5337 H 479.051 6.44325 -1.20524 0
M  V30 5338 H 478.571 5.98155 0.44394 0
M  V30 5339 H 480.25 6.46916 0.104048 0
M  V30 5340 N 480.382 0.0267497 1.57577 0
M  V30 5341 C 481.628 -0.647596 1.92815 0
M  V30 5342 C 481.983 -1.69872 0.903396 0
M  V30 5343 O 481.276 -1.91429 -0.0808881 0
M  V30 5344 C 481.47 -1.30914 3.3256 0
M  V30 5345 C 481.299 -0.323621 4.48534 0
M  V30 5346 C 480.069 0.0756607 5.05243 0
M  V30 5347 C 482.267 0.42112 5.12573 0
M  V30 5348 N 480.249 1.0566 6.04739 0
M  V30 5349 C 481.62 1.25589 6.07147 0
M  V30 5350 C 483.675 0.482077 4.95561 0
M  V30 5351 C 482.378 2.1461 6.86538 0
M  V30 5352 C 484.404 1.35962 5.75559 0
M  V30 5353 C 483.766 2.18217 6.69747 0
M  V30 5354 H 479.865 -0.209357 0.753454 0
M  V30 5355 H 482.449 0.0933695 1.94476 0
M  V30 5356 H 480.62 -2.02026 3.31723 0
M  V30 5357 H 482.352 -1.94033 3.55153 0
M  V30 5358 H 479.107 -0.298294 4.7266 0
M  V30 5359 H 479.531 1.54324 6.59176 0
M  V30 5360 H 484.173 -0.139609 4.22569 0
M  V30 5361 H 481.891 2.77835 7.58837 0
M  V30 5362 H 485.477 1.41105 5.6443 0
M  V30 5363 H 484.357 2.85022 7.3057 0
M  V30 5364 N 481.861 -1.55662 -0.24637 0
M  V30 5365 C 483.108 -1.77519 -0.974335 0
M  V30 5366 C 483.436 -0.591165 -1.85298 0
M  V30 5367 O 482.691 0.425497 -1.91018 0
M  V30 5368 C 482.99 -3.04885 -1.86494 0
M  V30 5369 C 482.656 -4.36209 -1.14161 0
M  V30 5370 C 481.318 -4.71896 -0.941701 0
M  V30 5371 C 483.67 -5.17391 -0.628957 0
M  V30 5372 C 480.998 -5.86299 -0.216852 0
M  V30 5373 C 483.35 -6.32546 0.0824273 0
M  V30 5374 C 482.014 -6.66853 0.293807 0
M  V30 5375 H 481.284 -0.649588 -0.356535 0
M  V30 5376 H 483.931 -1.89934 -0.244394 0
M  V30 5377 H 482.236 -2.87484 -2.66196 0
M  V30 5378 H 483.933 -3.18994 -2.42989 0
M  V30 5379 H 480.523 -4.08174 -1.30736 0
M  V30 5380 H 484.707 -4.90276 -0.770943 0
M  V30 5381 H 479.963 -6.11385 -0.0426124 0
M  V30 5382 H 484.137 -6.94693 0.487292 0
M  V30 5383 H 481.764 -7.55349 0.857428 0
M  V30 5384 N 483.339 0.512053 -1.4905 0
M  V30 5385 C 484.75 1.09376 -1.51307 0
M  V30 5386 C 485.101 1.94 -0.292971 0
M  V30 5387 O 484.226 2.07965 0.598277 0
M  V30 5388 C 484.821 1.99031 -2.74176 0
M  V30 5389 C 483.38 2.52385 -2.79247 0
M  V30 5390 C 482.527 1.29749 -2.45073 0
M  V30 5391 H 485.478 0.296467 -1.55906 0
M  V30 5392 H 485.499 2.83569 -2.53711 0
M  V30 5393 H 485.011 1.37412 -3.62959 0
M  V30 5394 H 483.112 3.17673 -1.94716 0
M  V30 5395 H 483.225 2.90293 -3.81139 0
M  V30 5396 H 481.589 1.61912 -1.96612 0
M  V30 5397 H 482.372 0.698555 -3.36118 0
M  V30 5398 N 484.817 1.37938 0.762283 0
M  V30 5399 C 486.063 1.33866 1.52341 0
M  V30 5400 C 486.396 -0.0738961 1.94059 0
M  V30 5401 O 485.671 -1.03326 1.64785 0
M  V30 5402 C 485.954 2.28644 2.78197 0
M  V30 5403 C 485.807 3.78722 2.42672 0
M  V30 5404 C 487.126 2.21702 3.80179 0
M  V30 5405 H 484.245 0.487593 0.55265 0
M  V30 5406 H 486.887 1.68717 0.873767 0
M  V30 5407 H 485.037 1.99055 3.33631 0
M  V30 5408 H 486.709 4.18948 1.93081 0
M  V30 5409 H 484.952 3.96827 1.75244 0
M  V30 5410 H 485.623 4.40486 3.3268 0
M  V30 5411 H 488.099 2.47805 3.34263 0
M  V30 5412 H 486.975 2.90143 4.65949 0
M  V30 5413 H 487.236 1.21301 4.25133 0
M  V30 5414 N 486.295 -0.989507 1.22664 0
M  V30 5415 C 487.258 -2.06183 1.00106 0
M  V30 5416 C 488.258 -1.60765 -0.0337726 0
M  V30 5417 O 489.448 -1.72989 0.205072 0
M  V30 5418 C 486.58 -3.37021 0.51279 0
M  V30 5419 H 487.773 -2.27629 1.95256 0
M  V30 5420 H 485.326 -1.16158 1.0458 0
M  V30 5421 H 486.061 -3.21261 -0.442917 0
M  V30 5422 H 485.846 -3.71323 1.25942 0
M  V30 5423 H 487.336 -4.1591 0.375315 0
M  V30 5424 N 487.773 -1.03688 -1.18687 0
M  V30 5425 C 489.05 -0.652397 -1.84399 0
M  V30 5426 C 489.43 0.868386 -1.92412 0
M  V30 5427 O 488.778 1.76832 -1.44716 0
M  V30 5428 C 488.988 -1.3238 -3.22919 0
M  V30 5429 C 490.336 -1.45216 -3.98996 0
M  V30 5430 O 491.36 -1.2816 -3.32345 0
M  V30 5431 O 490.219 -1.72975 -5.18403 0
M  V30 5432 H 487.313 -0.227793 -0.795009 0
M  V30 5433 H 489.859 -1.13553 -1.2611 0
M  V30 5434 H 488.631 -2.36202 -3.11968 0
M  V30 5435 H 488.254 -0.829039 -3.88861 0
M  V30 5436 N 489.251 1.34841 -0.815825 0
M  V30 5437 C 490.214 2.27959 -0.238185 0
M  V30 5438 C 491.214 1.49983 0.579816 0
M  V30 5439 O 492.404 1.69617 0.396953 0
M  V30 5440 C 489.536 3.34314 0.666876 0
M  V30 5441 H 490.729 2.80558 -1.05958 0
M  V30 5442 H 488.282 1.44852 -0.587156 0
M  V30 5443 H 489.017 2.86916 1.5116 0
M  V30 5444 H 488.802 3.92014 0.0819106 0
M  V30 5445 H 490.292 4.0379 1.06506 0
M  V30 5446 N 490.729 0.570148 1.46925 0
M  V30 5447 C 491.957 0.0561966 2.06824 0
M  V30 5448 C 492.372 -1.24326 1.42086 0
M  V30 5449 O 491.729 -1.74882 0.521794 0
M  V30 5450 C 491.78 -0.129517 3.61268 0
M  V30 5451 O 491.501 1.1185 4.23581 0
M  V30 5452 C 493.002 -0.679266 4.38065 0
M  V30 5453 H 490.222 0.0517261 0.669003 0
M  V30 5454 H 492.766 0.787243 1.8874 0
M  V30 5455 H 490.921 -0.810739 3.78822 0
M  V30 5456 H 491.335 0.924375 5.1629 0
M  V30 5457 H 492.809 -0.758445 5.46765 0
M  V30 5458 H 493.286 -1.69346 4.05239 0
M  V30 5459 H 493.892 -0.0333237 4.25287 0
M  V30 5460 N 492.207 -1.54576 0.307264 0
M  V30 5461 C 493.623 -1.59534 -0.0459251 0
M  V30 5462 C 493.823 -1.32414 -1.51884 0
M  V30 5463 O 492.879 -1.1006 -2.27251 0
M  V30 5464 C 494.192 -2.98566 0.357649 0
M  V30 5465 C 495.74 -3.11491 0.306937 0
M  V30 5466 C 496.215 -4.52842 0.685427 0
M  V30 5467 N 497.706 -4.58782 0.638203 0
M  V30 5468 C 498.441 -5.66238 0.903458 0
M  V30 5469 N 497.937 -6.81703 1.23501 0
M  V30 5470 N 499.73 -5.55937 0.830102 0
M  V30 5471 H 491.881 -1.70464 1.26712 0
M  V30 5472 H 494.144 -0.79647 0.514139 0
M  V30 5473 H 493.85 -3.23356 1.38325 0
M  V30 5474 H 493.724 -3.76117 -0.285565 0
M  V30 5475 H 496.111 -2.86446 -0.709424 0
M  V30 5476 H 496.192 -2.36081 0.984861 0
M  V30 5477 H 495.836 -4.78618 1.69963 0
M  V30 5478 H 495.766 -5.26598 -0.0146346 0
M  V30 5479 H 498.257 -3.75849 0.393138 0
M  V30 5480 H 498.57 -7.59582 1.42322 0
M  V30 5481 H 496.915 -6.8324 1.27311 0
M  V30 5482 H 500.106 -4.64608 0.570693 0
M  V30 5483 H 500.279 -6.39597 1.04019 0
M  V30 5484 N 493.685 -0.035106 -1.57561 0
M  V30 5485 C 494.934 0.641604 -1.91223 0
M  V30 5486 C 495.247 1.72944 -0.913761 0
M  V30 5487 O 496.453 2.46321 -1.14185 0
M  V30 5488 C 494.909 1.19249 -3.3957 0
M  V30 5489 C 494.517 0.137616 -4.47789 0
M  V30 5490 C 496.261 1.84537 -3.82291 0
M  V30 5491 C 494.168 0.700478 -5.87237 0
M  V30 5492 H 493.098 0.243417 -0.713627 0
M  V30 5493 H 495.749 -0.101382 -1.8322 0
M  V30 5494 H 494.131 1.98728 -3.42525 0
M  V30 5495 H 495.305 -0.635153 -4.56402 0
M  V30 5496 H 493.62 -0.416855 -4.14308 0
M  V30 5497 H 496.217 2.27616 -4.83834 0
M  V30 5498 H 496.56 2.69054 -3.17672 0
M  V30 5499 H 497.093 1.11739 -3.81784 0
M  V30 5500 H 493.832 -0.106693 -6.55413 0
M  V30 5501 H 493.352 1.4416 -5.82218 0
M  V30 5502 H 495.031 1.18837 -6.35993 0
M  V30 5503 N 495.163 1.55791 0.238111 0
M  V30 5504 C 496.11 1.9105 1.29493 0
M  V30 5505 C 497.08 0.765733 1.47397 0
M  V30 5506 O 498.265 1.02017 1.61236 0
M  V30 5507 C 495.405 2.21826 2.64362 0
M  V30 5508 C 494.518 3.49153 2.54394 0
M  V30 5509 C 493.653 3.69455 3.81676 0
M  V30 5510 C 492.692 4.90353 3.66361 0
M  V30 5511 N 491.829 5.07131 4.85554 0
M  V30 5512 H 496.669 2.81172 0.987233 0
M  V30 5513 H 494.206 1.39179 0.476203 0
M  V30 5514 H 496.164 2.37675 3.4288 0
M  V30 5515 H 494.794 1.34897 2.93262 0
M  V30 5516 H 493.846 3.41587 1.67399 0
M  V30 5517 H 495.158 4.37818 2.38991 0
M  V30 5518 H 494.312 3.85311 4.68636 0
M  V30 5519 H 493.051 2.7904 3.99985 0
M  V30 5520 H 492.056 4.74464 2.77784 0
M  V30 5521 H 493.281 5.82237 3.49538 0
M  V30 5522 H 491.227 4.19654 5.04209 0
M  V30 5523 H 491.144 5.89899 4.72816 0
M  V30 5524 H 492.412 5.27407 5.73988 0
M  V30 5525 N 496.642 -0.504142 1.49319 0
M  V30 5526 C 498.058 -0.835039 1.36012 0
M  V30 5527 C 498.258 -1.97674 0.390808 0
M  V30 5528 O 497.314 -2.51867 -0.178655 0
M  V30 5529 C 498.627 -1.17821 2.76656 0
M  V30 5530 C 500.175 -1.2866 2.85334 0
M  V30 5531 C 500.65 -1.66307 4.26739 0
M  V30 5532 N 502.141 -1.73362 4.29534 0
M  V30 5533 C 502.876 -2.0393 5.35911 0
M  V30 5534 N 502.372 -2.32744 6.52535 0
M  V30 5535 N 504.165 -2.05155 5.23324 0
M  V30 5536 H 496.316 0.248764 2.10938 0
M  V30 5537 H 498.579 0.0486962 0.946748 0
M  V30 5538 H 498.285 -0.412682 3.4927 0
M  V30 5539 H 498.159 -2.12239 3.11825 0
M  V30 5540 H 500.546 -2.04285 2.1296 0
M  V30 5541 H 500.627 -0.323004 2.53752 0
M  V30 5542 H 500.271 -0.91234 4.99639 0
M  V30 5543 H 500.201 -2.63761 4.55782 0
M  V30 5544 H 502.692 -1.53268 3.45424 0
M  V30 5545 H 503.005 -2.55248 7.2943 0
M  V30 5546 H 501.35 -2.30207 6.55767 0
M  V30 5547 H 504.541 -1.82119 4.3122 0
M  V30 5548 H 504.714 -2.28644 6.06322 0
M  V30 5549 N 498.12 -1.38341 -0.754957 0
M  V30 5550 C 499.083 -1.35262 -1.85032 0
M  V30 5551 C 500.083 -0.253393 -1.58791 0
M  V30 5552 O 501.273 -0.510205 -1.66561 0
M  V30 5553 C 498.405 -1.10544 -3.22479 0
M  V30 5554 H 499.598 -2.32712 -1.8917 0
M  V30 5555 H 497.151 -1.23614 -0.956515 0
M  V30 5556 H 497.886 -0.136952 -3.24011 0
M  V30 5557 H 497.671 -1.90127 -3.4292 0
M  V30 5558 H 499.161 -1.11082 -4.02555 0
M  V30 5559 N 499.598 0.982988 -1.23187 0
M  V30 5560 C 500.528 2.09301 -1.03515 0
M  V30 5561 C 501.509 1.70035 0.0471136 0
M  V30 5562 O 502.694 1.93847 -0.117029 0
M  V30 5563 C 499.824 3.4167 -0.622791 0
M  V30 5564 C 498.778 3.94828 -1.65211 0
M  V30 5565 C 498.104 5.23362 -1.09527 0
M  V30 5566 C 499.404 4.2439 -3.04451 0
M  V30 5567 H 501.098 2.26016 -1.96359 0
M  V30 5568 H 498.644 1.08611 -0.945501 0
M  V30 5569 H 500.597 4.18746 -0.472233 0
M  V30 5570 H 499.321 3.24811 0.341329 0
M  V30 5571 H 497.98 3.19895 -1.79061 0
M  V30 5572 H 497.628 5.02852 -0.122211 0
M  V30 5573 H 497.328 5.59895 -1.783 0
M  V30 5574 H 498.852 6.03062 -0.956511 0
M  V30 5575 H 500.266 4.92225 -2.93917 0
M  V30 5576 H 498.663 4.72118 -3.70438 0
M  V30 5577 H 499.733 3.31765 -3.53638 0
M  V30 5578 N 501.076 1.04316 1.18135 0
M  V30 5579 C 501.986 0.646876 2.25505 0
M  V30 5580 C 503.002 -0.328008 1.7088 0
M  V30 5581 O 504.178 -0.182309 2.00573 0
M  V30 5582 C 501.243 0.0185664 3.46695 0
M  V30 5583 C 500.304 1.04277 4.16443 0
M  V30 5584 C 499.537 0.444352 5.31847 0
M  V30 5585 O 499.76 -0.748735 5.65465 0
M  V30 5586 O 498.694 1.17428 5.90334 0
M  V30 5587 H 502.52 1.54147 2.61672 0
M  V30 5588 H 500.105 0.814188 1.25265 0
M  V30 5589 H 501.987 -0.331068 4.20097 0
M  V30 5590 H 500.662 -0.849814 3.12346 0
M  V30 5591 H 499.569 1.44425 3.45098 0
M  V30 5592 H 500.902 1.882 4.54798 0
M  V30 5593 N 502.554 -1.34406 0.822964 0
M  V30 5594 C 503.486 -2.28305 0.202375 0
M  V30 5595 C 504.499 -1.5103 -0.60777 0
M  V30 5596 O 505.688 -1.73057 -0.437444 0
M  V30 5597 C 502.788 -3.30836 -0.734911 0
M  V30 5598 C 501.961 -4.37388 0.0324177 0
M  V30 5599 C 501.02 -5.1968 -0.825803 0
M  V30 5600 O 500.046 -5.68556 -0.270771 0
M  V30 5601 N 501.248 -5.39393 -2.14558 0
M  V30 5602 H 504.013 -2.82201 1.00909 0
M  V30 5603 H 501.574 -1.4693 0.67993 0
M  V30 5604 H 503.566 -3.82786 -1.31365 0
M  V30 5605 H 502.136 -2.77334 -1.44238 0
M  V30 5606 H 501.356 -3.86152 0.792469 0
M  V30 5607 H 502.644 -5.05702 0.560633 0
M  V30 5608 H 502.042 -5.01357 -2.62025 0
M  V30 5609 H 500.599 -5.94461 -2.67318 0
M  V30 5610 N 504.032 -0.577932 -1.46621 0
M  V30 5611 C 505.28 -0.061566 -2.02006 0
M  V30 5612 C 505.601 1.30117 -1.4524 0
M  V30 5613 O 504.871 1.85313 -0.63529 0
M  V30 5614 H 503.451 -0.0197692 -0.746738 0
M  V30 5615 H 506.113 -0.752631 -1.79782 0
M  V30 5616 H 505.209 0.0110238 -3.12098 0
M  V30 5617 N 505.51 1.54411 -0.315457 0
M  V30 5618 C 506.443 2.20265 0.596522 0
M  V30 5619 C 507.421 1.17693 1.12192 0
M  V30 5620 O 508.605 1.46397 1.18744 0
M  V30 5621 C 505.732 2.85794 1.81767 0
M  V30 5622 C 504.778 4.02017 1.42424 0
M  V30 5623 S 505.611 5.33452 0.467836 0
M  V30 5624 C 506.767 6.02471 1.69645 0
M  V30 5625 H 507 2.97277 0.0370896 0
M  V30 5626 H 504.533 1.54079 -0.0995562 0
M  V30 5627 H 506.491 3.24172 2.51839 0
M  V30 5628 H 505.152 2.08601 2.34828 0
M  V30 5629 H 504.345 4.46701 2.33396 0
M  V30 5630 H 503.947 3.65271 0.803311 0
M  V30 5631 H 506.239 6.24157 2.63504 0
M  V30 5632 H 507.182 6.96215 1.29192 0
M  V30 5633 H 507.59 5.32284 1.87974 0
M  V30 5634 N 506.988 0.0434614 1.5754 0
M  V30 5635 C 507.898 -0.94893 2.14552 0
M  V30 5636 C 508.914 -1.34707 1.10136 0
M  V30 5637 O 510.09 -1.42557 1.42266 0
M  V30 5638 C 507.155 -2.208 2.67298 0
M  V30 5639 C 506.216 -1.86893 3.86484 0
M  V30 5640 C 505.449 -3.06797 4.36705 0
M  V30 5641 O 505.672 -4.19921 3.86034 0
M  V30 5642 O 504.606 -2.8826 5.28384 0
M  V30 5643 H 508.432 -0.494099 2.99654 0
M  V30 5644 H 506.017 -0.177989 1.48336 0
M  V30 5645 H 507.899 -2.94686 3.01228 0
M  V30 5646 H 506.574 -2.65436 1.85272 0
M  V30 5647 H 505.481 -1.10347 3.57455 0
M  V30 5648 H 506.814 -1.47062 4.69716 0
M  V30 5649 N 508.466 -1.55915 -0.229846 0
M  V30 5650 C 509.396 -1.94754 -1.28815 0
M  V30 5651 C 510.377 -0.814657 -1.49323 0
M  V30 5652 O 511.562 -1.07631 -1.61645 0
M  V30 5653 C 508.692 -2.25705 -2.63959 0
M  V30 5654 C 507.646 -3.41406 -2.5812 0
M  V30 5655 C 506.972 -3.57941 -3.97218 0
M  V30 5656 C 508.272 -4.76616 -2.13623 0
M  V30 5657 H 509.966 -2.83404 -0.965547 0
M  V30 5658 H 507.512 -1.36353 -0.463028 0
M  V30 5659 H 509.465 -2.51467 -3.38146 0
M  V30 5660 H 508.189 -1.339 -2.9789 0
M  V30 5661 H 506.848 -3.1568 -1.86391 0
M  V30 5662 H 506.496 -2.63526 -4.28443 0
M  V30 5663 H 506.196 -4.35757 -3.94195 0
M  V30 5664 H 507.72 -3.86042 -4.73079 0
M  V30 5665 H 509.134 -5.01637 -2.77549 0
M  V30 5666 H 507.531 -5.57655 -2.21677 0
M  V30 5667 H 508.601 -4.7253 -1.08829 0
M  V30 5668 N 509.944 0.496216 -1.49584 0
M  V30 5669 C 511.169 1.27865 -1.63295 0
M  V30 5670 C 511.594 1.85592 -0.306156 0
M  V30 5671 O 510.952 1.66092 0.726851 0
M  V30 5672 C 511 2.38128 -2.7079 0
M  V30 5673 O 510.104 3.42108 -2.30296 0
M  V30 5674 H 509.445 0.377279 -0.546403 0
M  V30 5675 H 511.975 0.593497 -1.95803 0
M  V30 5676 H 511.985 2.8382 -2.93104 0
M  V30 5677 H 510.66 1.95479 -3.67098 0
M  V30 5678 H 509.237 3.02301 -2.18331 0
M  V30 5679 N 511.423 1.38739 0.74761 0
M  V30 5680 C 512.671 1.35007 1.50391 0
M  V30 5681 C 512.992 -0.0574274 1.94915 0
M  V30 5682 O 512.262 -1.00628 1.6808 0
M  V30 5683 H 510.842 0.496784 0.557866 0
M  V30 5684 H 513.504 1.73479 0.888319 0
M  V30 5685 H 512.6 2.00474 2.392 0
M  V30 5686 N 512.901 -0.976442 1.23707 0
M  V30 5687 C 514.126 -1.75875 1.09922 0
M  V30 5688 C 514.551 -1.84911 -0.34489 0
M  V30 5689 O 513.909 -1.31363 -1.24954 0
M  V30 5690 C 513.957 -3.16179 1.73388 0
M  V30 5691 O 513.061 -4.00124 0.99871 0
M  V30 5692 H 512.402 -0.540954 0.385052 0
M  V30 5693 H 514.932 -1.22546 1.6384 0
M  V30 5694 H 514.942 -3.66741 1.78788 0
M  V30 5695 H 513.617 -3.08917 2.78466 0
M  V30 5696 H 512.194 -3.58624 1.02193 0
M  V30 5697 N 514.379 -1.04941 -1.1758 0
M  V30 5698 C 515.604 -0.778253 -1.92245 0
M  V30 5699 C 516.029 0.659707 -1.76152 0
M  V30 5700 O 515.387 1.45803 -1.07755 0
M  V30 5701 C 515.435 -1.16051 -3.41416 0
M  V30 5702 O 514.539 -0.291153 -4.11371 0
M  V30 5703 H 513.88 -0.285619 -0.599431 0
M  V30 5704 H 516.41 -1.40159 -1.49052 0
M  V30 5705 H 516.42 -1.12619 -3.92149 0
M  V30 5706 H 515.095 -2.208 -3.52449 0
M  V30 5707 H 513.672 -0.385851 -3.70898 0
M  V30 5708 N 515.857 1.33968 -0.830081 0
M  V30 5709 C 516.79 2.27303 -0.202182 0
M  V30 5710 C 517.768 1.49235 0.645581 0
M  V30 5711 O 518.952 1.78433 0.607762 0
M  V30 5712 C 516.079 3.31025 0.716932 0
M  V30 5713 C 515.125 4.26466 -0.0542271 0
M  V30 5714 S 515.958 5.16707 -1.40622 0
M  V30 5715 C 517.114 6.23962 -0.492167 0
M  V30 5716 H 517.347 2.8021 -0.99346 0
M  V30 5717 H 514.88 1.41124 -0.626359 0
M  V30 5718 H 516.838 3.91271 1.24165 0
M  V30 5719 H 515.499 2.76951 1.4818 0
M  V30 5720 H 514.692 4.99858 0.644785 0
M  V30 5721 H 514.294 3.7051 -0.509722 0
M  V30 5722 H 516.586 6.76774 0.31347 0
M  V30 5723 H 517.529 6.97927 -1.19599 0
M  V30 5724 H 517.937 5.64447 -0.0774176 0
M  V30 5725 N 517.335 0.585699 1.46312 0
M  V30 5726 C 518.298 -0.135673 2.28798 0
M  V30 5727 C 519.298 -0.815988 1.38558 0
M  V30 5728 O 520.488 -0.667487 1.60904 0
M  V30 5729 C 517.62 -1.20163 3.1902 0
M  V30 5730 H 518.813 0.589257 2.94054 0
M  V30 5731 H 516.366 0.343794 1.52472 0
M  V30 5732 H 517.101 -1.95804 2.58517 0
M  V30 5733 H 516.886 -0.718282 3.85465 0
M  V30 5734 H 518.376 -1.70749 3.81096 0
M  V30 5735 N 518.813 -1.54241 0.323641 0
M  V30 5736 C 520.224 -1.85975 -0.164405 0
M  V30 5737 C 520.575 -1.24529 -1.51615 0
M  V30 5738 O 519.7 -0.551351 -2.09258 0
M  V30 5739 C 520.295 -3.37424 -0.305091 0
M  V30 5740 C 518.854 -3.69107 -0.737358 0
M  V30 5741 C 518.001 -2.76942 0.140884 0
M  V30 5742 H 520.952 -1.49088 0.543922 0
M  V30 5743 H 520.973 -3.63147 -1.13598 0
M  V30 5744 H 520.485 -3.82116 0.678876 0
M  V30 5745 H 518.586 -3.29947 -1.73107 0
M  V30 5746 H 518.699 -4.76035 -0.541053 0
M  V30 5747 H 517.063 -2.51795 -0.383572 0
M  V30 5748 H 517.846 -3.24461 1.12162 0
M  V30 5749 N 520.291 -0.0518155 -1.57515 0
M  V30 5750 C 521.54 0.621286 -1.91893 0
M  V30 5751 C 521.853 1.71966 -0.932052 0
M  V30 5752 O 523.059 2.45096 -1.16791 0
M  V30 5753 C 521.515 1.15641 -3.40816 0
M  V30 5754 C 521.123 0.0901146 -4.47909 0
M  V30 5755 C 522.867 1.80472 -3.84227 0
M  V30 5756 C 520.774 0.638154 -5.87947 0
M  V30 5757 H 519.704 0.235835 -0.716169 0
M  V30 5758 H 522.355 -0.120809 -1.83102 0
M  V30 5759 H 520.737 1.95084 -3.44613 0
M  V30 5760 H 521.911 -0.683525 -4.55702 0
M  V30 5761 H 520.226 -0.460774 -4.13843 0
M  V30 5762 H 522.823 2.22471 -4.86221 0
M  V30 5763 H 523.166 2.65669 -3.20508 0
M  V30 5764 H 523.699 1.07683 -3.82948 0
M  V30 5765 H 520.438 -0.176202 -6.55263 0
M  V30 5766 H 519.958 1.37976 -5.83714 0
M  V30 5767 H 521.637 1.12085 -6.37217 0
M  V30 5768 N 521.769 1.56035 0.221574 0
M  V30 5769 C 522.702 1.87427 1.30178 0
M  V30 5770 C 523.68 0.731658 1.45209 0
M  V30 5771 O 524.864 0.980016 1.61022 0
M  V30 5772 C 521.991 2.08127 2.67209 0
M  V30 5773 C 521.037 3.30813 2.69194 0
M  V30 5774 S 521.87 4.86738 2.23263 0
M  V30 5775 C 523.026 5.10474 3.62171 0
M  V30 5776 H 523.259 2.78756 1.03355 0
M  V30 5777 H 520.792 1.48469 0.423813 0
M  V30 5778 H 522.75 2.20736 3.46101 0
M  V30 5779 H 521.411 1.17595 2.91256 0
M  V30 5780 H 520.604 3.42341 3.6989 0
M  V30 5781 H 520.206 3.1706 1.98366 0
M  V30 5782 H 522.498 4.9937 4.5786 0
M  V30 5783 H 523.441 6.12359 3.55558 0
M  V30 5784 H 523.849 4.38208 3.55857 0
M  V30 5785 N 523.247 -0.488276 1.49845 0
M  V30 5786 C 524.475 -1.26527 1.63702 0
M  V30 5787 C 524.89 -1.8618 0.313447 0
M  V30 5788 O 524.247 -1.68432 -0.702624 0
M  V30 5789 C 524.298 -2.3864 2.71538 0
M  V30 5790 O 524.019 -1.81437 3.98763 0
M  V30 5791 C 525.52 -3.29805 2.96215 0
M  V30 5792 H 522.74 -0.383295 0.55075 0
M  V30 5793 H 525.284 -0.584779 1.95961 0
M  V30 5794 H 523.439 -3.02496 2.42023 0
M  V30 5795 H 523.853 -2.55135 4.58265 0
M  V30 5796 H 525.327 -4.04722 3.75372 0
M  V30 5797 H 525.804 -3.87563 2.06619 0
M  V30 5798 H 526.41 -2.71703 3.27196 0
M  V30 5799 N 524.725 -1.39134 -0.740242 0
M  V30 5800 C 525.953 -1.39334 -1.5295 0
M  V30 5801 C 526.368 0.0135008 -1.88795 0
M  V30 5802 O 525.725 0.983524 -1.5373 0
M  V30 5803 C 525.776 -2.2614 -2.82034 0
M  V30 5804 O 525.497 -3.61345 -2.47712 0
M  V30 5805 C 526.998 -2.34666 -3.76094 0
M  V30 5806 H 524.218 -0.476103 -0.472828 0
M  V30 5807 H 526.762 -1.82883 -0.9151 0
M  V30 5808 H 524.917 -1.86018 -3.39818 0
M  V30 5809 H 525.331 -4.07194 -3.30595 0
M  V30 5810 H 526.805 -2.99663 -4.63579 0
M  V30 5811 H 527.282 -1.36426 -4.17474 0
M  V30 5812 H 527.888 -2.75236 -3.2423 0
M  V30 5813 N 526.204 0.969867 -1.24223 0
M  V30 5814 C 527.45 1.7151 -1.08223 0
M  V30 5815 C 527.783 1.90478 0.37838 0
M  V30 5816 O 527.058 1.4647 1.27971 0
M  V30 5817 C 527.341 3.10714 -1.82013 0
M  V30 5818 C 527.194 2.9925 -3.35811 0
M  V30 5819 C 528.513 4.10332 -1.59108 0
M  V30 5820 H 525.632 0.622499 -0.394543 0
M  V30 5821 H 528.274 1.1284 -1.52863 0
M  V30 5822 H 526.424 3.608 -1.44068 0
M  V30 5823 H 528.096 2.56608 -3.83341 0
M  V30 5824 H 526.339 2.35512 -3.64303 0
M  V30 5825 H 527.01 3.97857 -3.82641 0
M  V30 5826 H 529.486 3.69097 -1.92111 0
M  V30 5827 H 528.362 5.05804 -2.13198 0
M  V30 5828 H 528.623 4.38926 -0.528832 0
M  V30 5829 N 527.682 1.05563 1.17022 0
M  V30 5830 C 528.614 0.617888 2.20714 0
M  V30 5831 C 529.627 -0.320303 1.59618 0
M  V30 5832 O 530.816 -0.112449 1.78145 0
M  V30 5833 C 527.916 -0.115333 3.38704 0
M  V30 5834 C 527.089 0.834493 4.29366 0
M  V30 5835 C 526.148 0.141855 5.26009 0
M  V30 5836 O 525.174 0.777151 5.6387 0
M  V30 5837 N 526.376 -1.11934 5.69606 0
M  V30 5838 H 529.141 1.50981 2.58892 0
M  V30 5839 H 526.702 0.938008 1.31958 0
M  V30 5840 H 528.694 -0.588918 4.00392 0
M  V30 5841 H 527.264 -0.908967 2.99093 0
M  V30 5842 H 526.484 1.48762 3.65053 0
M  V30 5843 H 527.772 1.4791 4.86827 0
M  V30 5844 H 527.17 -1.65574 5.40927 0
M  V30 5845 H 525.727 -1.53692 6.33421 0
M  V30 5846 N 529.16 -1.33526 0.837174 0
M  V30 5847 C 530.385 -2.0258 0.444545 0
M  V30 5848 C 530.81 -1.6258 -0.946006 0
M  V30 5849 O 530.168 -0.817548 -1.6182 0
M  V30 5850 C 530.216 -3.5605 0.571006 0
M  V30 5851 O 529.32 -4.10422 -0.403431 0
M  V30 5852 H 528.661 -0.638866 0.180958 0
M  V30 5853 H 531.191 -1.70462 1.13154 0
M  V30 5854 H 531.201 -4.05488 0.452024 0
M  V30 5855 H 529.876 -3.84509 1.58512 0
M  V30 5856 H 528.453 -3.72113 -0.242147 0
M  V30 5857 N 530.638 -0.59345 -1.46 0
M  V30 5858 C 531.585 0.133618 -2.30413 0
M  V30 5859 C 532.555 0.873736 -1.41262 0
M  V30 5860 O 533.74 0.862279 -1.70204 0
M  V30 5861 C 530.88 1.13434 -3.25924 0
M  V30 5862 C 529.993 0.39656 -4.30176 0
M  V30 5863 C 529.128 1.38575 -5.12806 0
M  V30 5864 C 528.167 0.634984 -6.08797 0
M  V30 5865 N 527.304 1.57276 -6.84258 0
M  V30 5866 H 532.144 -0.592252 -2.92055 0
M  V30 5867 H 529.681 -0.303874 -1.43927 0
M  V30 5868 H 531.639 1.72752 -3.79753 0
M  V30 5869 H 530.269 1.82779 -2.66067 0
M  V30 5870 H 529.321 -0.311861 -3.79119 0
M  V30 5871 H 530.633 -0.189869 -4.98438 0
M  V30 5872 H 529.787 2.05141 -5.70966 0
M  V30 5873 H 528.526 2.00611 -4.44529 0
M  V30 5874 H 527.531 -0.0443925 -5.49782 0
M  V30 5875 H 528.756 0.0198678 -6.79097 0
M  V30 5876 H 526.702 2.18103 -6.18682 0
M  V30 5877 H 526.619 1.03941 -7.48821 0
M  V30 5878 H 527.887 2.22844 -7.46968 0
M  V30 5879 N 532.116 1.54067 -0.331816 0
M  V30 5880 C 533.344 2.05131 0.269996 0
M  V30 5881 C 533.759 1.20749 1.45138 0
M  V30 5882 O 533.116 0.240069 1.80914 0
M  V30 5883 C 533.167 3.54728 0.696456 0
M  V30 5884 O 532.888 4.35906 -0.43794 0
M  V30 5885 C 534.389 4.21916 1.36021 0
M  V30 5886 H 531.609 0.668807 0.0542042 0
M  V30 5887 H 534.153 1.98777 -0.4804 0
M  V30 5888 H 532.308 3.61342 1.39681 0
M  V30 5889 H 532.722 5.24404 -0.100334 0
M  V30 5890 H 534.196 5.28015 1.60947 0
M  V30 5891 H 534.673 3.73538 2.31011 0
M  V30 5892 H 535.279 4.19463 0.702212 0
M  V30 5893 N 533.594 0.0601682 1.57485 0
M  V30 5894 C 534.557 -0.896373 2.10945 0
M  V30 5895 C 535.557 -1.23402 1.03095 0
M  V30 5896 O 536.747 -1.16921 1.29132 0
M  V30 5897 C 533.879 -2.20346 2.60116 0
M  V30 5898 H 535.072 -0.432778 2.96761 0
M  V30 5899 H 532.625 -0.188372 1.55161 0
M  V30 5900 H 533.36 -2.71268 1.7772 0
M  V30 5901 H 533.145 -1.9714 3.38937 0
M  V30 5902 H 534.635 -2.88846 3.01592 0
M  V30 5903 N 535.072 -1.5615 -0.213296 0
M  V30 5904 C 536.483 -1.69645 -0.779582 0
M  V30 5905 C 536.834 -0.663615 -1.84636 0
M  V30 5906 O 535.959 0.183633 -2.15619 0
M  V30 5907 C 536.554 -3.07567 -1.42084 0
M  V30 5908 C 535.113 -3.22889 -1.93442 0
M  V30 5909 C 534.26 -2.65581 -0.797612 0
M  V30 5910 H 537.211 -1.58696 0.0114951 0
M  V30 5911 H 537.232 -3.03884 -2.28986 0
M  V30 5912 H 536.744 -3.82716 -0.644187 0
M  V30 5913 H 534.845 -2.52623 -2.73884 0
M  V30 5914 H 534.958 -4.30197 -2.10872 0
M  V30 5915 H 533.322 -2.24278 -1.20712 0
M  V30 5916 H 534.105 -3.43284 -0.033494 0
M  V30 5917 N 536.55 0.480323 -1.50102 0
M  V30 5918 C 537.961 1.06142 -1.53593 0
M  V30 5919 C 538.312 1.93335 -0.334055 0
M  V30 5920 O 537.437 2.09188 0.55403 0
M  V30 5921 C 538.032 1.9317 -2.78336 0
M  V30 5922 C 536.591 2.46405 -2.84538 0
M  V30 5923 C 535.738 1.24521 -2.4777 0
M  V30 5924 H 538.689 0.26333 -1.565 0
M  V30 5925 H 538.71 2.78123 -2.59669 0
M  V30 5926 H 538.222 1.29683 -3.65792 0
M  V30 5927 H 536.323 3.13472 -2.01411 0
M  V30 5928 H 536.436 2.82143 -3.87211 0
M  V30 5929 H 534.8 1.57706 -2.00003 0
M  V30 5930 H 535.583 0.627102 -3.37524 0
M  V30 5931 N 538.028 1.39524 0.732853 0
M  V30 5932 C 539.256 1.40143 1.52209 0
M  V30 5933 C 539.671 -0.00348836 1.888 0
M  V30 5934 O 539.028 -0.975357 1.5425 0
M  V30 5935 C 539.079 2.27632 2.8083 0
M  V30 5936 O 538.8 3.62654 2.45792 0
M  V30 5937 C 540.301 2.36658 3.74844 0
M  V30 5938 H 537.521 0.478604 0.470297 0
M  V30 5939 H 540.065 1.83366 0.905388 0
M  V30 5940 H 538.22 1.87818 3.38826 0
M  V30 5941 H 538.634 4.08941 3.28431 0
M  V30 5942 H 540.108 3.02118 4.61984 0
M  V30 5943 H 540.585 1.38638 4.16745 0
M  V30 5944 H 541.191 2.76951 3.22766 0
M  V30 5945 N 539.506 -0.963266 1.24736 0
M  V30 5946 C 540.753 -1.7068 1.0897 0
M  V30 5947 C 541.081 -1.90934 -0.370751 0
M  V30 5948 O 540.336 -1.47155 -1.29011 0
M  V30 5949 C 540.635 -3.09944 1.7796 0
M  V30 5950 C 540.301 -3.09518 3.27887 0
M  V30 5951 C 538.963 -3.09109 3.68789 0
M  V30 5952 C 541.315 -3.03509 4.23712 0
M  V30 5953 C 538.643 -3.00429 5.03944 0
M  V30 5954 C 540.995 -2.96371 5.5888 0
M  V30 5955 C 539.659 -2.94293 5.99123 0
M  V30 5956 H 538.929 -0.624564 0.398749 0
M  V30 5957 H 541.576 -1.12603 1.54896 0
M  V30 5958 H 539.881 -3.71513 1.2444 0
M  V30 5959 H 541.578 -3.66278 1.63222 0
M  V30 5960 H 538.168 -3.10603 2.95337 0
M  V30 5961 H 542.352 -3.0295 3.93109 0
M  V30 5962 H 537.608 -2.97183 5.34314 0
M  V30 5963 H 541.782 -2.90681 6.32833 0
M  V30 5964 H 539.409 -2.87322 7.03811 0
M  V30 5965 N 540.985 -1.06182 -1.16461 0
M  V30 5966 C 541.933 -0.665716 -2.2287 0
M  V30 5967 C 542.927 0.317822 -1.66392 0
M  V30 5968 O 544.133 0.182807 -1.79069 0
M  V30 5969 H 540.508 -0.197148 -0.725697 0
M  V30 5970 H 542.479 -1.57307 -2.53569 0
M  V30 5971 C 541.228 -0.0669803 -3.47635 0
M  V30 5972 H 540.551 -0.814899 -3.91407 0
M  V30 5973 H 541.991 0.172669 -4.23648 0
M  V30 5974 C 540.45 1.18913 -3.15216 0
M  V30 5975 O 540.98 2.27723 -3.30916 0
M  V30 5976 N 539.186 1.09066 -2.69357 0
M  V30 5977 H 538.733 0.20518 -2.56782 0
M  V30 5978 H 538.691 1.93195 -2.48039 0
M  V30 5979 N 542.463 1.3308 -0.844243 0
M  V30 5980 C 543.879 1.50447 -0.532729 0
M  V30 5981 C 544.079 1.78292 0.938837 0
M  V30 5982 O 543.135 1.84635 1.72239 0
M  V30 5983 C 544.448 2.65555 -1.41072 0
M  V30 5984 C 545.996 2.7944 -1.41005 0
M  V30 5985 C 546.471 3.97616 -2.27301 0
M  V30 5986 N 547.962 4.0486 -2.2504 0
M  V30 5987 C 548.697 4.95508 -2.88547 0
M  V30 5988 N 548.193 5.91236 -3.61126 0
M  V30 5989 N 549.986 4.88548 -2.77989 0
M  V30 5990 H 542.137 1.13269 -1.79677 0
M  V30 5991 H 544.4 0.55734 -0.766861 0
M  V30 5992 H 544.106 2.51675 -2.45668 0
M  V30 5993 H 543.98 3.61089 -1.09061 0
M  V30 5994 H 546.367 2.92749 -0.371784 0
M  V30 5995 H 546.448 1.8465 -1.77026 0
M  V30 5996 H 546.092 3.85066 -3.3119 0
M  V30 5997 H 546.022 4.91661 -1.88619 0
M  V30 5998 H 548.513 3.36353 -1.72264 0
M  V30 5999 H 548.826 6.57079 -4.06776 0
M  V30 6000 H 547.171 5.91295 -3.65234 0
M  V30 6001 H 550.362 4.12729 -2.20846 0
M  V30 6002 H 550.535 5.58994 -3.27765 0
M  V30 6003 N 543.941 0.601185 1.45683 0
M  V30 6004 C 545.169 0.100054 2.06658 0
M  V30 6005 C 545.584 -1.21285 1.44691 0
M  V30 6006 O 544.941 -1.73735 0.558772 0
M  V30 6007 C 544.992 -0.0528579 3.61461 0
M  V30 6008 O 544.713 1.20809 4.21114 0
M  V30 6009 C 546.214 -0.586193 4.39407 0
M  V30 6010 H 543.434 0.065905 0.667756 0
M  V30 6011 H 545.978 0.827101 1.87028 0
M  V30 6012 H 544.133 -0.730203 3.80456 0
M  V30 6013 H 544.547 1.03368 5.14213 0
M  V30 6014 H 546.021 -0.642297 5.4825 0
M  V30 6015 H 546.498 -1.60713 4.0874 0
M  V30 6016 H 547.104 0.0568935 4.25262 0
M  V30 6017 N 545.419 -1.53889 0.339982 0
M  V30 6018 C 546.367 -2.26391 -0.533822 0
M  V30 6019 C 547.361 -1.28404 -1.10493 0
M  V30 6020 O 548.567 -1.46124 -1.05108 0
M  V30 6021 H 544.942 -0.727385 -0.190828 0
M  V30 6022 H 546.913 -2.98233 0.0997484 0
M  V30 6023 C 545.662 -3.04707 -1.67479 0
M  V30 6024 H 544.985 -3.79934 -1.2446 0
M  V30 6025 H 546.425 -3.58657 -2.26144 0
M  V30 6026 C 544.884 -2.13989 -2.60212 0
M  V30 6027 O 545.414 -1.73361 -3.62366 0
M  V30 6028 N 543.62 -1.79141 -2.28816 0
M  V30 6029 H 543.167 -2.12378 -1.45785 0
M  V30 6030 H 543.125 -1.18725 -2.91121 0
M  V30 6031 N 546.897 -0.0685191 -1.57451 0
M  V30 6032 C 547.844 0.899861 -2.12535 0
M  V30 6033 C 548.814 1.29749 -1.03703 0
M  V30 6034 O 549.999 1.38392 -1.31348 0
M  V30 6035 C 547.139 2.16328 -2.6888 0
M  V30 6036 C 546.252 1.81857 -3.91857 0
M  V30 6037 C 545.387 3.02786 -4.36457 0
M  V30 6038 C 544.426 2.64317 -5.5209 0
M  V30 6039 N 543.563 3.77994 -5.91663 0
M  V30 6040 H 548.403 0.423243 -2.94979 0
M  V30 6041 H 545.94 0.197268 -1.45771 0
M  V30 6042 H 547.898 2.90281 -2.99655 0
M  V30 6043 H 546.528 2.61536 -1.89206 0
M  V30 6044 H 545.58 0.979808 -3.67565 0
M  V30 6045 H 546.892 1.49553 -4.75852 0
M  V30 6046 H 546.046 3.85021 -4.68875 0
M  V30 6047 H 544.785 3.38281 -3.51308 0
M  V30 6048 H 543.79 1.80503 -5.19325 0
M  V30 6049 H 545.015 2.29995 -6.38967 0
M  V30 6050 H 542.961 4.13258 -5.09464 0
M  V30 6051 H 542.878 3.49447 -6.7039 0
M  V30 6052 H 544.146 4.60818 -6.28703 0
M  V30 6053 N 548.375 1.56261 0.205012 0
M  V30 6054 C 549.622 1.8004 0.926927 0
M  V30 6055 C 549.95 0.640086 1.83666 0
M  V30 6056 O 549.205 -0.374702 1.92079 0
M  V30 6057 C 549.504 3.09722 1.78345 0
M  V30 6058 C 549.17 4.39082 1.02555 0
M  V30 6059 C 547.832 4.74226 0.816256 0
M  V30 6060 C 550.184 5.18877 0.491559 0
M  V30 6061 C 547.512 5.86668 0.0613287 0
M  V30 6062 C 549.864 6.32105 -0.250107 0
M  V30 6063 C 548.528 6.6584 -0.470508 0
M  V30 6064 H 547.798 0.658812 0.339187 0
M  V30 6065 H 550.445 1.90515 0.19395 0
M  V30 6066 H 548.75 2.9444 2.5848 0
M  V30 6067 H 550.447 3.25324 2.34446 0
M  V30 6068 H 547.037 4.11497 1.19868 0
M  V30 6069 H 551.221 4.92147 0.640684 0
M  V30 6070 H 546.477 6.11283 -0.119501 0
M  V30 6071 H 550.651 6.93157 -0.671307 0
M  V30 6072 H 548.278 7.5281 -1.05739 0
M  V30 6073 N 549.853 -0.472356 1.50355 0
M  V30 6074 C 551.081 -1.24784 1.65035 0
M  V30 6075 C 551.496 -1.85837 0.333176 0
M  V30 6076 O 550.853 -1.69168 -0.68472 0
M  V30 6077 C 550.904 -2.35747 2.74054 0
M  V30 6078 O 550.625 -1.77197 4.00665 0
M  V30 6079 C 552.126 -3.26645 2.99696 0
M  V30 6080 H 549.346 -0.377432 0.554785 0
M  V30 6081 H 551.89 -0.563962 1.9657 0
M  V30 6082 H 550.045 -2.99912 2.45217 0
M  V30 6083 H 550.459 -2.5026 4.60945 0
M  V30 6084 H 551.933 -4.00718 3.79644 0
M  V30 6085 H 552.41 -3.8535 2.10718 0
M  V30 6086 H 553.016 -2.68218 3.3006 0
M  V30 6087 N 551.331 -1.39911 -0.725443 0
M  V30 6088 C 552.294 -1.39156 -1.82121 0
M  V30 6089 C 553.294 -0.287018 -1.58218 0
M  V30 6090 O 554.484 -0.545421 -1.65441 0
M  V30 6091 C 551.616 -1.1736 -3.20062 0
M  V30 6092 H 552.809 -2.36672 -1.84191 0
M  V30 6093 H 550.362 -1.25615 -0.930079 0
M  V30 6094 H 551.097 -0.205648 -3.23647 0
M  V30 6095 H 550.882 -1.97358 -3.3881 0
M  V30 6096 H 552.372 -1.19596 -4.00108 0
M  V30 6097 N 552.809 0.956637 -1.25245 0
M  V30 6098 C 554.057 1.69764 -1.09657 0
M  V30 6099 C 554.378 1.91583 0.363464 0
M  V30 6100 O 553.648 1.50149 1.25825 0
M  V30 6101 H 552.228 0.629097 -0.402798 0
M  V30 6102 H 554.89 1.15026 -1.57337 0
M  V30 6103 H 553.986 2.67769 -1.60331 0
M  V30 6104 N 554.287 1.06798 1.15896 0
M  V30 6105 C 555.534 0.787767 1.86549 0
M  V30 6106 C 555.862 -0.685959 1.82002 0
M  V30 6107 O 555.117 -1.5188 1.23414 0
M  V30 6108 C 555.416 1.23414 3.35416 0
M  V30 6109 C 555.082 2.71285 3.6016 0
M  V30 6110 C 553.744 3.11676 3.66622 0
M  V30 6111 C 556.096 3.6676 3.7032 0
M  V30 6112 C 553.424 4.4637 3.8075 0
M  V30 6113 C 555.776 5.01209 3.8597 0
M  V30 6114 C 554.44 5.41229 3.90676 0
M  V30 6115 H 553.71 0.288264 0.682631 0
M  V30 6116 H 556.357 1.338 1.37003 0
M  V30 6117 H 554.662 0.60319 3.87129 0
M  V30 6118 H 556.359 0.994298 3.88477 0
M  V30 6119 H 552.949 2.39015 3.55767 0
M  V30 6120 H 557.133 3.36685 3.64633 0
M  V30 6121 H 552.389 4.76855 3.82648 0
M  V30 6122 H 556.563 5.75067 3.92773 0
M  V30 6123 H 554.19 6.45602 4.01375 0
M  V30 6124 N 555.766 -1.3263 0.851289 0
M  V30 6125 C 556.698 -2.27824 0.250757 0
M  V30 6126 C 557.711 -1.52285 -0.575598 0
M  V30 6127 O 558.9 -1.73946 -0.400638 0
M  V30 6128 C 556 -3.3232 -0.664571 0
M  V30 6129 C 555.173 -4.37221 0.125187 0
M  V30 6130 C 554.232 -5.21314 -0.715385 0
M  V30 6131 O 553.258 -5.69002 -0.150111 0
M  V30 6132 N 554.46 -5.43823 -2.03069 0
M  V30 6133 H 557.225 -2.79997 1.06873 0
M  V30 6134 H 554.786 -1.45455 0.710943 0
M  V30 6135 H 556.778 -3.85486 -1.23216 0
M  V30 6136 H 555.348 -2.80331 -1.38323 0
M  V30 6137 H 554.568 -3.84384 0.874199 0
M  V30 6138 H 555.856 -5.04399 0.667774 0
M  V30 6139 H 555.254 -5.06803 -2.51332 0
M  V30 6140 H 553.811 -5.99998 -2.54648 0
M  V30 6141 N 557.244 -0.608902 -1.45362 0
M  V30 6142 C 558.192 0.121639 -2.32282 0
M  V30 6143 C 559.186 0.858301 -1.46046 0
M  V30 6144 O 560.392 0.773718 -1.62523 0
M  V30 6145 H 556.767 0.058086 -0.749753 0
M  V30 6146 H 558.738 -0.629866 -2.91677 0
M  V30 6147 C 557.487 1.1047 -3.29684 0
M  V30 6148 H 556.81 0.547278 -3.96036 0
M  V30 6149 H 558.25 1.58576 -3.9323 0
M  V30 6150 C 556.709 2.17891 -2.56954 0
M  V30 6151 O 557.239 3.25652 -2.35189 0
M  V30 6152 N 555.445 1.93211 -2.17066 0
M  V30 6153 H 554.992 1.05584 -2.34967 0
M  V30 6154 H 554.95 2.6529 -1.68727 0
M  V30 6155 N 558.722 1.53707 -0.348139 0
M  V30 6156 C 559.971 2.0017 0.247992 0
M  V30 6157 C 560.284 1.23983 1.51286 0
M  V30 6158 O 561.49 1.60946 2.18652 0
M  V30 6159 C 559.946 3.56515 0.492459 0
M  V30 6160 C 559.554 4.41562 -0.756777 0
M  V30 6161 C 561.298 4.11381 1.0472 0
M  V30 6162 C 559.205 5.89426 -0.482856 0
M  V30 6163 H 558.135 0.747806 0.0964452 0
M  V30 6164 H 560.786 1.77532 -0.464179 0
M  V30 6165 H 559.168 3.75236 1.26545 0
M  V30 6166 H 560.342 4.34615 -1.53122 0
M  V30 6167 H 558.657 3.97711 -1.23348 0
M  V30 6168 H 561.254 5.19468 1.26717 0
M  V30 6169 H 561.597 3.64885 2.00411 0
M  V30 6170 H 562.13 3.96389 0.334801 0
M  V30 6171 H 558.869 6.40164 -1.40962 0
M  V30 6172 H 558.389 5.99264 0.253416 0
M  V30 6173 H 560.068 6.4692 -0.101816 0
M  V30 6174 N 560.2 0.0768682 1.57412 0
M  V30 6175 C 561.446 -0.591961 1.93968 0
M  V30 6176 C 561.779 -1.68954 0.9575 0
M  V30 6177 O 561.054 -1.94496 -0.0124675 0
M  V30 6178 C 561.337 -1.16418 3.40762 0
M  V30 6179 C 561.19 -0.0728933 4.49741 0
M  V30 6180 C 562.509 -2.06814 3.88479 0
M  V30 6181 H 559.628 -0.213716 0.705333 0
M  V30 6182 H 562.27 0.14387 1.89455 0
M  V30 6183 H 560.42 -1.79128 3.4474 0
M  V30 6184 H 562.092 0.560446 4.57883 0
M  V30 6185 H 560.335 0.595859 4.29688 0
M  V30 6186 H 561.006 -0.513755 5.49604 0
M  V30 6187 H 563.482 -1.54033 3.8654 0
M  V30 6188 H 562.358 -2.43785 4.91793 0
M  V30 6189 H 562.619 -2.97844 3.26713 0
M  V30 6190 N 561.678 -1.56367 -0.196722 0
M  V30 6191 C 562.955 -1.71359 -0.943159 0
M  V30 6192 C 563.335 -0.631192 -2.01443 0
M  V30 6193 O 562.683 0.358071 -2.25677 0
M  V30 6194 C 562.893 -3.13623 -1.53106 0
M  V30 6195 C 564.241 -3.73806 -2.01381 0
M  V30 6196 O 565.265 -3.16742 -1.62951 0
M  V30 6197 O 564.124 -4.73951 -2.7209 0
M  V30 6198 H 561.218 -0.698851 -0.442195 0
M  V30 6199 H 563.764 -1.68672 -0.186547 0
M  V30 6200 H 562.536 -3.83873 -0.758785 0
M  V30 6201 H 562.159 -3.20532 -2.35255 0
M  V30 6202 N 563.156 0.464375 -1.50603 0
M  V30 6203 C 564.119 1.54393 -1.69397 0
M  V30 6204 C 565.119 1.50566 -0.564504 0
M  V30 6205 O 566.309 1.53066 -0.831645 0
M  V30 6206 C 563.441 2.9401 -1.72543 0
M  V30 6207 H 564.634 1.39044 -2.65719 0
M  V30 6208 H 562.187 0.69122 -1.40185 0
M  V30 6209 H 562.922 3.14795 -0.77938 0
M  V30 6210 H 562.707 2.98195 -2.54602 0
M  V30 6211 H 564.197 3.72375 -1.89015 0
M  V30 6212 N 564.634 1.40294 0.718013 0
M  V30 6213 C 565.864 1.41544 1.50495 0
M  V30 6214 C 566.272 0.0127877 1.89196 0
M  V30 6215 O 565.615 -0.97305 1.55812 0
M  V30 6216 C 565.677 2.24021 2.81167 0
M  V30 6217 C 565.341 3.72463 2.64803 0
M  V30 6218 C 566.338 4.65154 2.32223 0
M  V30 6219 C 564.023 4.1625 2.81143 0
M  V30 6220 C 566.017 5.99618 2.16189 0
M  V30 6221 C 563.704 5.50784 2.64727 0
M  V30 6222 C 564.702 6.42283 2.32297 0
M  V30 6223 O 564.39 7.74337 2.16004 0
M  V30 6224 H 564.122 0.484819 0.471091 0
M  V30 6225 H 566.676 1.84948 0.893488 0
M  V30 6226 H 564.906 1.75393 3.44636 0
M  V30 6227 H 566.595 2.17243 3.42871 0
M  V30 6228 H 567.361 4.32622 2.19234 0
M  V30 6229 H 563.24 3.45352 3.05373 0
M  V30 6230 H 566.784 6.71 1.90799 0
M  V30 6231 H 562.681 5.82902 2.773 0
M  V30 6232 H 563.449 7.85244 2.30942 0
M  V30 6233 N 566.112 -0.949982 1.2575 0
M  V30 6234 C 567.36 -1.6918 1.10555 0
M  V30 6235 C 567.681 -1.91773 -0.353298 0
M  V30 6236 O 566.951 -1.50814 -1.25027 0
M  V30 6237 H 565.531 -0.626952 0.406129 0
M  V30 6238 H 568.193 -1.1419 1.57945 0
M  V30 6239 H 567.289 -2.66915 1.61749 0
M  V30 6240 N 567.59 -1.07411 -1.15328 0
M  V30 6241 C 568.836 -0.798831 -1.86404 0
M  V30 6242 C 569.169 0.673433 -1.8215 0
M  V30 6243 O 568.444 1.49428 -1.24505 0
M  V30 6244 C 568.727 -1.30846 -3.35487 0
M  V30 6245 C 568.58 -2.84532 -3.4837 0
M  V30 6246 C 569.899 -0.925486 -4.30259 0
M  V30 6247 H 567.018 -0.291659 -0.676834 0
M  V30 6248 H 569.66 -1.332 -1.35491 0
M  V30 6249 H 567.81 -0.854916 -3.78977 0
M  V30 6250 H 569.482 -3.3818 -3.13739 0
M  V30 6251 H 567.725 -3.22699 -2.8991 0
M  V30 6252 H 568.396 -3.15259 -4.53118 0
M  V30 6253 H 570.872 -1.3163 -3.94731 0
M  V30 6254 H 569.748 -1.3094 -5.33053 0
M  V30 6255 H 570.009 0.168525 -4.41779 0
M  V30 6256 N 569.068 1.32177 -0.85831 0
M  V30 6257 C 570.316 1.96735 -0.462568 0
M  V30 6258 C 570.637 1.6824 0.985911 0
M  V30 6259 O 569.907 0.991564 1.68952 0
M  V30 6260 H 568.487 0.727849 -0.168064 0
M  V30 6261 H 571.149 1.61195 -1.09554 0
M  V30 6262 H 570.245 3.06068 -0.610647 0
M  V30 6263 N 570.547 0.616602 1.45037 0
M  V30 6264 C 571.772 0.120192 2.07051 0
M  V30 6265 C 572.197 -1.19008 1.45666 0
M  V30 6266 O 571.555 -1.7267 0.552692 0
M  V30 6267 C 571.603 0.00354901 3.606 0
M  V30 6268 O 570.707 -1.04431 3.98958 0
M  V30 6269 H 570.048 0.0781599 0.659384 0
M  V30 6270 H 572.578 0.849167 1.86146 0
M  V30 6271 H 572.588 -0.191754 4.07549 0
M  V30 6272 H 571.263 0.960239 4.04663 0
M  V30 6273 H 569.84 -0.824749 3.63665 0
M  V30 6274 N 572.025 -1.5352 0.356285 0
M  V30 6275 C 573.255 -2.05236 -0.236983 0
M  V30 6276 C 573.663 -1.23016 -1.43749 0
M  V30 6277 O 573.006 -0.2615 -1.81829 0
M  V30 6278 C 573.068 -3.52549 -0.7035 0
M  V30 6279 C 572.732 -4.55425 0.379059 0
M  V30 6280 C 573.729 -5.0524 1.22592 0
M  V30 6281 C 571.414 -4.99425 0.536638 0
M  V30 6282 C 573.408 -5.97647 2.21578 0
M  V30 6283 C 571.095 -5.9164 1.52988 0
M  V30 6284 C 572.093 -6.4064 2.3679 0
M  V30 6285 O 571.781 -7.31039 3.34421 0
M  V30 6286 H 571.513 -0.674346 -0.047254 0
M  V30 6287 H 574.067 -1.98962 0.510238 0
M  V30 6288 H 572.297 -3.56331 -1.50217 0
M  V30 6289 H 573.986 -3.87171 -1.21873 0
M  V30 6290 H 574.752 -4.72002 1.11532 0
M  V30 6291 H 570.631 -4.60879 -0.105834 0
M  V30 6292 H 574.175 -6.35816 2.87025 0
M  V30 6293 H 570.072 -6.24293 1.64099 0
M  V30 6294 H 570.84 -7.49009 3.30041 0
M  V30 6295 N 573.503 -0.0852151 -1.57369 0
M  V30 6296 C 574.919 0.271436 -1.57275 0
M  V30 6297 C 575.119 1.69109 -1.09565 0
M  V30 6298 O 574.175 2.40549 -0.767611 0
M  V30 6299 C 575.488 0.0688638 -3.00621 0
M  V30 6300 C 577.036 0.137373 -3.12698 0
M  V30 6301 C 577.511 -0.0370832 -4.57985 0
M  V30 6302 N 579.002 0.0180794 -4.63196 0
M  V30 6303 C 579.737 -0.0922953 -5.73326 0
M  V30 6304 N 579.233 -0.256948 -6.92323 0
M  V30 6305 N 581.026 -0.0342702 -5.6209 0
M  V30 6306 H 573.177 -1.01288 -1.86693 0
M  V30 6307 H 575.44 -0.396138 -0.861266 0
M  V30 6308 H 575.146 -0.911277 -3.39689 0
M  V30 6309 H 575.02 0.815442 -3.6828 0
M  V30 6310 H 577.407 1.10801 -2.73509 0
M  V30 6311 H 577.488 -0.640532 -2.47651 0
M  V30 6312 H 577.132 -1.00455 -4.97867 0
M  V30 6313 H 577.062 0.760392 -5.21081 0
M  V30 6314 H 579.553 0.143202 -3.77629 0
M  V30 6315 H 579.866 -0.332949 -7.72082 0
M  V30 6316 H 578.211 -0.292487 -6.94384 0
M  V30 6317 H 581.402 0.0931605 -4.68007 0
M  V30 6318 H 581.575 -0.12374 -6.47882 0
M  V30 6319 N 574.981 1.5647 0.188427 0
M  V30 6320 C 575.891 1.98285 1.2538 0
M  V30 6321 C 576.907 0.891535 1.49424 0
M  V30 6322 O 578.083 1.19782 1.61908 0
M  V30 6323 C 575.148 2.31965 2.57669 0
M  V30 6324 C 574.209 3.54838 2.41638 0
M  V30 6325 C 573.442 3.86901 3.67618 0
M  V30 6326 O 573.665 3.20163 4.72072 0
M  V30 6327 O 572.599 4.80309 3.62749 0
M  V30 6328 H 576.425 2.89145 0.928912 0
M  V30 6329 H 574.01 1.44112 0.393955 0
M  V30 6330 H 575.892 2.54673 3.35737 0
M  V30 6331 H 574.567 1.44271 2.89771 0
M  V30 6332 H 573.474 3.37369 1.61658 0
M  V30 6333 H 574.807 4.43019 2.14465 0
M  V30 6334 N 576.459 -0.456382 1.50847 0
M  V30 6335 C 577.708 -1.2042 1.61808 0
M  V30 6336 C 578.021 -1.9278 0.330932 0
M  V30 6337 O 579.227 -2.69612 0.319643 0
M  V30 6338 C 577.683 -2.18891 2.85683 0
M  V30 6339 C 577.291 -1.52267 4.2133 0
M  V30 6340 C 579.035 -2.94224 3.05994 0
M  V30 6341 C 576.942 -2.4911 5.36375 0
M  V30 6342 H 575.872 -0.453177 0.602616 0
M  V30 6343 H 578.523 -0.473144 1.77295 0
M  V30 6344 H 576.905 -2.95351 2.63787 0
M  V30 6345 H 578.079 -0.814949 4.53536 0
M  V30 6346 H 576.394 -0.891594 4.06743 0
M  V30 6347 H 578.991 -3.66732 3.89117 0
M  V30 6348 H 579.334 -3.54469 2.18306 0
M  V30 6349 H 579.867 -2.24874 3.28141 0
M  V30 6350 H 576.606 -1.93582 6.26264 0
M  V30 6351 H 576.126 -3.17991 5.08569 0
M  V30 6352 H 577.805 -3.10637 5.67551 0
M  V30 6353 N 577.937 -1.40673 -0.710563 0
M  V30 6354 C 578.885 -1.41517 -1.84596 0
M  V30 6355 C 579.879 -0.295043 -1.66811 0
M  V30 6356 O 581.085 -0.466331 -1.73854 0
M  V30 6357 H 577.46 -0.442467 -0.608052 0
M  V30 6358 H 579.431 -2.37238 -1.80999 0
M  V30 6359 C 578.18 -1.29957 -3.225 0
M  V30 6360 H 577.503 -2.15429 -3.36794 0
M  V30 6361 H 578.943 -1.34608 -4.02066 0
M  V30 6362 C 577.402 -0.0103164 -3.36898 0
M  V30 6363 O 577.932 0.950707 -3.90288 0
M  V30 6364 N 576.138 0.0608409 -2.90536 0
M  V30 6365 H 575.685 -0.721943 -2.47277 0
M  V30 6366 H 575.643 0.92292 -3.00549 0
M  V30 6367 N 579.415 0.9433 -1.26252 0
M  V30 6368 C 580.826 1.50404 -1.10614 0
M  V30 6369 C 581.177 1.93666 0.31429 0
M  V30 6370 O 580.302 1.79709 1.20555 0
M  V30 6371 C 580.897 2.73336 -2.00182 0
M  V30 6372 C 579.456 3.25686 -1.88695 0
M  V30 6373 C 578.603 1.98474 -1.93658 0
M  V30 6374 H 581.554 0.759006 -1.39373 0
M  V30 6375 H 581.575 3.47567 -1.54847 0
M  V30 6376 H 581.087 2.41818 -3.03555 0
M  V30 6377 H 579.188 3.61998 -0.882489 0
M  V30 6378 H 579.301 3.92935 -2.74115 0
M  V30 6379 H 577.665 2.14278 -1.37684 0
M  V30 6380 H 578.448 1.6929 -2.98657 0
M  V30 6381 N 580.893 1.08022 1.14757 0
M  V30 6382 C 581.856 0.71048 2.1791 0
M  V30 6383 C 582.856 -0.252731 1.58801 0
M  V30 6384 O 584.046 -0.0327915 1.74169 0
M  V30 6385 C 581.178 0.0483203 3.40866 0
M  V30 6386 H 582.371 1.62384 2.52134 0
M  V30 6387 H 579.924 0.877595 1.29337 0
M  V30 6388 H 580.659 -0.876959 3.12218 0
M  V30 6389 H 580.444 0.741189 3.85031 0
M  V30 6390 H 581.934 -0.195471 4.17142 0
M  V30 6391 N 582.371 -1.3172 0.865308 0
M  V30 6392 C 583.782 -1.79104 0.527126 0
M  V30 6393 C 584.133 -1.7135 -0.955695 0
M  V30 6394 O 583.258 -1.27845 -1.74598 0
M  V30 6395 C 583.853 -3.25207 0.950061 0
M  V30 6396 C 582.412 -3.70504 0.663611 0
M  V30 6397 C 581.559 -2.52605 1.14395 0
M  V30 6398 H 584.51 -1.18868 1.05148 0
M  V30 6399 H 584.531 -3.79535 0.270805 0
M  V30 6400 H 584.043 -3.30818 2.02931 0
M  V30 6401 H 582.144 -3.70398 -0.404474 0
M  V30 6402 H 582.257 -4.62845 1.23737 0
M  V30 6403 H 580.621 -2.4838 0.563859 0
M  V30 6404 H 581.404 -2.60964 2.23053 0
M  V30 6405 N 583.85 -0.624285 -1.44708 0
M  V30 6406 C 585.08 -0.132726 -2.06173 0
M  V30 6407 C 585.488 1.19513 -1.46674 0
M  V30 6408 O 584.831 1.74254 -0.581491 0
M  V30 6409 C 584.893 0.0636732 -3.59444 0
M  V30 6410 C 584.557 -1.18496 -4.4137 0
M  V30 6411 C 585.553 -2.10706 -4.75288 0
M  V30 6412 C 583.239 -1.41846 -4.81856 0
M  V30 6413 C 585.233 -3.24582 -5.48567 0
M  V30 6414 C 582.92 -2.5602 -5.54885 0
M  V30 6415 C 583.918 -3.47215 -5.88159 0
M  V30 6416 O 583.606 -4.59399 -6.59703 0
M  V30 6417 H 583.338 -0.0737313 -0.671967 0
M  V30 6418 H 585.892 -0.856789 -1.86677 0
M  V30 6419 H 584.122 0.842809 -3.77404 0
M  V30 6420 H 585.811 0.508924 -4.02697 0
M  V30 6421 H 586.577 -1.93898 -4.44554 0
M  V30 6422 H 582.456 -0.717556 -4.55381 0
M  V30 6423 H 586 -3.95785 -5.74456 0
M  V30 6424 H 581.897 -2.72774 -5.85034 0
M  V30 6425 H 582.665 -4.58293 -6.78166 0
M  V30 6426 N 585.328 1.53329 -0.364422 0
M  V30 6427 C 586.556 2.05657 0.226424 0
M  V30 6428 C 586.971 1.23801 1.42544 0
M  V30 6429 O 586.328 0.27839 1.80364 0
M  V30 6430 C 586.379 3.56125 0.621056 0
M  V30 6431 O 586.1 4.34879 -0.530304 0
M  V30 6432 C 587.601 4.24706 1.27041 0
M  V30 6433 H 584.821 0.669806 0.0400056 0
M  V30 6434 H 587.365 1.97714 -0.522456 0
M  V30 6435 H 585.52 3.64223 1.31985 0
M  V30 6436 H 585.934 5.24073 -0.211546 0
M  V30 6437 H 587.408 5.3131 1.49711 0
M  V30 6438 H 587.885 3.78354 2.23036 0
M  V30 6439 H 588.491 4.20858 0.613079 0
M  V30 6440 N 586.806 0.0935595 1.57322 0
M  V30 6441 C 588.055 -0.570191 1.93473 0
M  V30 6442 C 588.368 -1.69434 0.977318 0
M  V30 6443 O 589.574 -2.41914 1.23248 0
M  V30 6444 C 588.03 -1.06564 3.43762 0
M  V30 6445 C 587.638 0.0286723 4.47991 0
M  V30 6446 C 589.382 -1.70221 3.88877 0
M  V30 6447 C 587.289 -0.482046 5.89432 0
M  V30 6448 H 586.219 -0.216764 0.72217 0
M  V30 6449 H 588.87 0.169313 1.82717 0
M  V30 6450 H 587.252 -1.85878 3.49664 0
M  V30 6451 H 588.426 0.804106 4.5373 0
M  V30 6452 H 586.741 0.570336 4.12476 0
M  V30 6453 H 589.338 -2.09502 4.91948 0
M  V30 6454 H 589.681 -2.57078 3.27439 0
M  V30 6455 H 590.214 -0.974919 3.85668 0
M  V30 6456 H 586.953 0.349871 6.54566 0
M  V30 6457 H 586.473 -1.22452 5.87167 0
M  V30 6458 H 588.152 -0.951508 6.39965 0
M  V30 6459 N 588.284 -1.56567 -0.180126 0
M  V30 6460 C 589.533 -1.80685 -0.896426 0
M  V30 6461 C 589.846 -0.669335 -1.83791 0
M  V30 6462 O 591.052 -0.795209 -2.59593 0
M  V30 6463 C 589.508 -3.20132 -1.6445 0
M  V30 6464 C 589.116 -4.41727 -0.747088 0
M  V30 6465 C 590.86 -3.53549 -2.34955 0
M  V30 6466 C 588.767 -5.72195 -1.49489 0
M  V30 6467 H 587.697 -0.673758 -0.338477 0
M  V30 6468 H 590.348 -1.8289 -0.149467 0
M  V30 6469 H 588.73 -3.12218 -2.43589 0
M  V30 6470 H 589.904 -4.608 0.00671129 0
M  V30 6471 H 588.219 -4.16122 -0.152134 0
M  V30 6472 H 590.816 -4.48267 -2.91481 0
M  V30 6473 H 591.159 -2.78006 -3.09868 0
M  V30 6474 H 591.692 -3.62976 -1.62768 0
M  V30 6475 H 588.431 -6.50743 -0.788251 0
M  V30 6476 H 587.951 -5.57115 -2.22224 0
M  V30 6477 H 589.63 -6.1384 -2.04472 0
M  V30 6478 N 589.762 0.448376 -1.51087 0
M  V30 6479 C 590.99 1.22143 -1.66999 0
M  V30 6480 C 591.405 1.85283 -0.362699 0
M  V30 6481 O 590.762 1.70236 0.65772 0
M  V30 6482 C 590.813 2.31357 -2.7777 0
M  V30 6483 O 590.534 1.70801 -4.03434 0
M  V30 6484 C 592.035 3.21836 -3.04855 0
M  V30 6485 H 589.255 0.368558 -0.560719 0
M  V30 6486 H 591.799 0.532618 -1.97442 0
M  V30 6487 H 589.954 2.95973 -2.49958 0
M  V30 6488 H 590.368 2.42895 -4.64868 0
M  V30 6489 H 591.842 3.94627 -3.85971 0
M  V30 6490 H 592.319 3.81949 -2.16821 0
M  V30 6491 H 592.925 2.62933 -3.34285 0
M  V30 6492 N 591.24 1.41047 0.703093 0
M  V30 6493 C 592.487 1.4 1.46309 0
M  V30 6494 C 592.815 0.00654574 1.94499 0
M  V30 6495 O 592.07 -0.980255 1.6938 0
M  V30 6496 C 592.369 2.34686 2.6955 0
M  V30 6497 C 592.035 3.81684 2.40058 0
M  V30 6498 C 590.697 4.21731 2.31725 0
M  V30 6499 C 593.049 4.74525 2.15581 0
M  V30 6500 C 590.377 5.52637 1.97001 0
M  V30 6501 C 592.729 6.05744 1.82366 0
M  V30 6502 C 591.393 6.44819 1.72524 0
M  V30 6503 H 590.663 0.512295 0.535382 0
M  V30 6504 H 593.31 1.73792 0.804275 0
M  V30 6505 H 591.615 1.94122 3.40329 0
M  V30 6506 H 593.312 2.31152 3.27673 0
M  V30 6507 H 589.902 3.49963 2.47435 0
M  V30 6508 H 594.086 4.44395 2.20968 0
M  V30 6509 H 589.342 5.81802 1.87928 0
M  V30 6510 H 593.516 6.77189 1.62444 0
M  V30 6511 H 591.143 7.46168 1.45385 0
M  V30 6512 N 592.718 -0.936591 1.26751 0
M  V30 6513 C 594.129 -1.49816 1.1141 0
M  V30 6514 C 594.48 -1.9383 -0.304015 0
M  V30 6515 O 593.605 -1.80346 -1.196 0
M  V30 6516 C 594.2 -2.72271 2.01629 0
M  V30 6517 C 592.759 -3.2468 1.9042 0
M  V30 6518 C 591.906 -1.97444 1.94708 0
M  V30 6519 H 594.857 -0.751604 1.39773 0
M  V30 6520 H 594.878 -3.46741 1.56688 0
M  V30 6521 H 594.39 -2.40205 3.04833 0
M  V30 6522 H 592.491 -3.61525 0.901674 0
M  V30 6523 H 592.604 -3.91476 2.76195 0
M  V30 6524 H 590.968 -2.13545 1.38818 0
M  V30 6525 H 591.751 -1.67703 2.9955 0
M  V30 6526 N 594.196 -1.08629 -1.14182 0
M  V30 6527 C 595.443 -0.817345 -1.85272 0
M  V30 6528 C 595.771 0.656917 -1.83071 0
M  V30 6529 O 595.026 1.49897 -1.25815 0
M  V30 6530 C 595.325 -1.28734 -3.3341 0
M  V30 6531 C 594.991 -2.76981 -3.55798 0
M  V30 6532 C 593.653 -3.17469 -3.61617 0
M  V30 6533 C 596.005 -3.72605 -3.64438 0
M  V30 6534 C 593.333 -4.52371 -3.736 0
M  V30 6535 C 595.685 -5.07286 -3.77947 0
M  V30 6536 C 594.349 -5.47376 -3.82016 0
M  V30 6537 H 593.619 -0.299088 -0.677958 0
M  V30 6538 H 596.266 -1.35962 -1.34857 0
M  V30 6539 H 594.571 -0.664702 -3.8612 0
M  V30 6540 H 596.268 -1.05598 -3.86846 0
M  V30 6541 H 592.858 -2.44644 -3.51919 0
M  V30 6542 H 597.042 -3.42443 -3.5923 0
M  V30 6543 H 592.298 -4.82882 -3.75013 0
M  V30 6544 H 596.472 -5.81243 -3.83575 0
M  V30 6545 H 594.099 -6.51906 -3.91054 0
M  V30 6546 N 595.674 1.31259 -0.872281 0
M  V30 6547 C 596.604 2.30929 -0.345554 0
M  V30 6548 C 597.585 1.60449 0.5648 0
M  V30 6549 O 598.77 1.8814 0.481335 0
M  V30 6550 C 595.9 3.44348 0.451823 0
M  V30 6551 C 594.854 4.26435 -0.365641 0
M  V30 6552 C 594.18 5.31785 0.557562 0
M  V30 6553 C 595.48 4.97159 -1.60095 0
M  V30 6554 H 597.174 2.75234 -1.17841 0
M  V30 6555 H 594.72 1.3232 -0.568094 0
M  V30 6556 H 596.673 4.13128 0.830854 0
M  V30 6557 H 595.397 2.98816 1.31821 0
M  V30 6558 H 594.056 3.59326 -0.726649 0
M  V30 6559 H 593.704 4.82502 1.4213 0
M  V30 6560 H 593.404 5.87598 0.0144878 0
M  V30 6561 H 594.928 6.03424 0.933387 0
M  V30 6562 H 596.342 5.58523 -1.29323 0
M  V30 6563 H 594.739 5.62779 -2.08327 0
M  V30 6564 H 595.809 4.24012 -2.35249 0
M  V30 6565 N 597.152 0.631951 1.44375 0
M  V30 6566 C 598.399 0.136767 2.02038 0
M  V30 6567 C 598.727 -1.24168 1.49709 0
M  V30 6568 O 597.982 -1.83809 0.671763 0
M  V30 6569 C 598.281 0.0735861 3.57324 0
M  V30 6570 C 597.947 1.39092 4.28911 0
M  V30 6571 C 596.609 1.75171 4.48184 0
M  V30 6572 C 598.961 2.26042 4.69632 0
M  V30 6573 C 596.289 2.97907 5.05439 0
M  V30 6574 C 598.641 3.4805 5.28246 0
M  V30 6575 C 597.305 3.84351 5.45738 0
M  V30 6576 H 596.575 0.0500466 0.739308 0
M  V30 6577 H 599.222 0.818429 1.7313 0
M  V30 6578 H 597.527 -0.691449 3.8565 0
M  V30 6579 H 599.224 -0.326091 3.99672 0
M  V30 6580 H 595.814 1.10015 4.1424 0
M  V30 6581 H 599.998 1.99463 4.54454 0
M  V30 6582 H 595.254 3.26108 5.17169 0
M  V30 6583 H 599.428 4.15658 5.5875 0
M  V30 6584 H 597.055 4.79538 5.8987 0
M  V30 6585 N 598.631 -1.53133 0.372548 0
M  V30 6586 C 599.594 -2.24569 -0.458389 0
M  V30 6587 C 600.594 -1.25603 -1.00402 0
M  V30 6588 O 601.784 -1.49827 -0.888672 0
M  V30 6589 C 598.916 -2.98783 -1.6414 0
M  V30 6590 H 600.109 -2.99436 0.166799 0
M  V30 6591 H 597.662 -1.55805 0.124357 0
M  V30 6592 H 598.397 -2.28176 -2.30448 0
M  V30 6593 H 598.182 -3.71404 -1.25704 0
M  V30 6594 H 599.672 -3.53068 -2.23008 0
M  V30 6595 N 600.109 -0.101901 -1.5727 0
M  V30 6596 C 601.355 0.561027 -1.94885 0
M  V30 6597 C 601.688 1.6741 -0.984258 0
M  V30 6598 O 600.963 1.94491 -0.0184767 0
M  V30 6599 C 601.246 1.10982 -3.42571 0
M  V30 6600 C 601.099 0.00133418 -4.498 0
M  V30 6601 C 602.418 2.00608 -3.9172 0
M  V30 6602 H 599.537 0.202467 -0.708644 0
M  V30 6603 H 602.179 -0.173992 -1.89202 0
M  V30 6604 H 600.329 1.73621 -3.47546 0
M  V30 6605 H 602.001 -0.63322 -4.56933 0
M  V30 6606 H 600.244 -0.664143 -4.28686 0
M  V30 6607 H 600.915 0.426253 -5.50352 0
M  V30 6608 H 603.391 1.47864 -3.88941 0
M  V30 6609 H 602.267 2.3593 -4.95609 0
M  V30 6610 H 602.528 2.92608 -3.3141 0
M  V30 6611 N 601.587 1.56661 0.17182 0
M  V30 6612 C 602.52 1.91474 1.24149 0
M  V30 6613 C 603.498 0.777485 1.42807 0
M  V30 6614 O 604.682 1.03075 1.57822 0
M  V30 6615 C 601.809 2.16523 2.60453 0
M  V30 6616 C 600.855 3.39209 2.58533 0
M  V30 6617 S 601.688 4.93594 2.07665 0
M  V30 6618 C 602.844 5.21737 3.45747 0
M  V30 6619 H 603.077 2.81903 0.944346 0
M  V30 6620 H 600.61 1.49743 0.376364 0
M  V30 6621 H 602.568 2.31635 3.38903 0
M  V30 6622 H 601.229 1.26802 2.87368 0
M  V30 6623 H 600.422 3.53935 3.58812 0
M  V30 6624 H 600.024 3.2321 1.88178 0
M  V30 6625 H 602.316 5.13684 4.41741 0
M  V30 6626 H 603.259 6.23361 3.35896 0
M  V30 6627 H 603.667 4.49307 3.41736 0
M  V30 6628 N 603.065 -0.440357 1.51323 0
M  V30 6629 C 604.312 -1.19004 1.63842 0
M  V30 6630 C 604.64 -1.91266 0.35321 0
M  V30 6631 O 603.895 -1.84143 -0.662565 0
M  V30 6632 C 604.194 -2.2339 2.78984 0
M  V30 6633 C 603.86 -1.68162 4.18369 0
M  V30 6634 C 602.522 -1.52823 4.56288 0
M  V30 6635 C 604.874 -1.27524 5.05358 0
M  V30 6636 C 602.202 -0.953157 5.78906 0
M  V30 6637 C 604.554 -0.714474 6.28552 0
M  V30 6638 C 603.218 -0.547961 6.65247 0
M  V30 6639 H 602.488 -0.435468 0.59954 0
M  V30 6640 H 605.135 -0.481538 1.85347 0
M  V30 6641 H 603.44 -3.00267 2.51688 0
M  V30 6642 H 605.137 -2.81211 2.85869 0
M  V30 6643 H 601.727 -1.81077 3.8847 0
M  V30 6644 H 605.911 -1.38197 4.76671 0
M  V30 6645 H 601.167 -0.811882 6.05986 0
M  V30 6646 H 605.341 -0.391059 6.95301 0
M  V30 6647 H 602.968 -0.100222 7.60134 0
M  V30 6648 N 604.543 -1.41418 -0.695603 0
M  V30 6649 C 605.791 -1.40496 -1.45277 0
M  V30 6650 C 606.112 -0.0149538 -1.94994 0
M  V30 6651 O 605.382 0.9432 -1.71699 0
M  V30 6652 H 603.962 -0.517147 -0.539044 0
M  V30 6653 H 606.624 -1.76656 -0.823321 0
M  V30 6654 H 605.72 -2.09214 -2.31595 0
M  V30 6655 N 606.021 0.929856 -1.27246 0
M  V30 6656 C 607.298 1.65544 -1.04186 0
M  V30 6657 C 607.678 2.06796 0.424097 0
M  V30 6658 O 607.026 1.80053 1.40688 0
M  V30 6659 C 607.236 2.85912 -2.00138 0
M  V30 6660 C 608.584 3.57305 -2.29387 0
M  V30 6661 O 609.608 2.96036 -1.98094 0
M  V30 6662 O 608.467 4.67688 -2.82719 0
M  V30 6663 H 605.561 0.725473 -0.397011 0
M  V30 6664 H 608.107 0.980583 -1.38501 0
M  V30 6665 H 606.879 2.52403 -2.99013 0
M  V30 6666 H 606.502 3.61118 -1.66371 0
M  V30 6667 N 607.499 1.09233 1.13605 0
M  V30 6668 C 608.739 0.836786 1.86487 0
M  V30 6669 C 609.103 -0.626191 1.81502 0
M  V30 6670 O 610.304 -0.99758 2.49603 0
M  V30 6671 C 608.575 1.35476 3.30728 0
M  V30 6672 S 610.134 1.2328 4.21126 0
M  V30 6673 H 606.952 0.302702 0.643345 0
M  V30 6674 H 609.554 1.3953 1.36936 0
M  V30 6675 H 608.258 2.41381 3.31909 0
M  V30 6676 H 607.789 0.792286 3.85339 0
M  V30 6677 H 609.804 0.182468 4.95864 0
M  V30 6678 N 608.977 -1.30795 0.87923 0
M  V30 6679 C 610.225 -1.95974 0.493809 0
M  V30 6680 C 610.546 -1.69787 -0.959021 0
M  V30 6681 O 609.816 -1.01832 -1.67353 0
M  V30 6682 H 608.396 -0.725083 0.179622 0
M  V30 6683 H 611.058 -1.59432 1.12105 0
M  V30 6684 H 610.154 -3.05058 0.659263 0
M  V30 6685 N 610.455 -0.639598 -1.44038 0
M  V30 6686 C 611.405 0.0823038 -2.27851 0
M  V30 6687 C 612.389 0.807991 -1.39141 0
M  V30 6688 O 613.581 0.692702 -1.62882 0
M  V30 6689 C 610.71 1.05742 -3.26609 0
M  V30 6690 C 609.796 0.330911 -4.22807 0
M  V30 6691 N 610.187 -0.645126 -5.01669 0
M  V30 6692 C 608.485 0.574214 -4.42288 0
M  V30 6693 C 609.186 -1.07513 -5.71678 0
M  V30 6694 N 608.162 -0.412164 -5.42035 0
M  V30 6695 H 611.964 -0.666861 -2.86234 0
M  V30 6696 H 609.478 -0.465777 -1.55577 0
M  V30 6697 H 611.475 1.58927 -3.85419 0
M  V30 6698 H 610.135 1.80679 -2.69787 0
M  V30 6699 H 611.146 -1.02329 -5.0769 0
M  V30 6700 H 607.823 1.30581 -3.96554 0
M  V30 6701 H 609.213 -1.88196 -6.45005 0
M  V30 6702 N 611.933 1.52934 -0.380664 0
M  V30 6703 C 613.181 2.01069 0.203874 0
M  V30 6704 C 613.502 1.26922 1.4804 0
M  V30 6705 O 612.772 0.386787 1.92044 0
M  V30 6706 H 611.352 0.742882 0.0783279 0
M  V30 6707 H 614.014 1.88099 -0.510368 0
M  V30 6708 H 613.11 3.09258 0.42021 0
M  V30 6709 N 613.412 0.11024 1.57214 0
M  V30 6710 C 614.64 -0.557834 1.99238 0
M  V30 6711 C 615.055 -1.60778 0.989734 0
M  V30 6712 O 614.412 -1.82491 -0.0186092 0
M  V30 6713 C 614.463 -1.19189 3.41286 0
M  V30 6714 O 614.184 -0.183919 4.37714 0
M  V30 6715 C 615.685 -1.94413 3.98395 0
M  V30 6716 H 612.905 -0.148392 0.654386 0
M  V30 6717 H 615.449 0.193996 2.03578 0
M  V30 6718 H 613.604 -1.89456 3.37913 0
M  V30 6719 H 614.018 -0.643475 5.20538 0
M  V30 6720 H 615.492 -2.34116 4.99894 0
M  V30 6721 H 615.969 -2.81592 3.3705 0
M  V30 6722 H 616.575 -1.28928 4.05287 0
M  V30 6723 N 614.89 -1.56749 -0.16351 0
M  V30 6724 C 616.136 -1.82704 -0.880168 0
M  V30 6725 C 616.469 -0.689311 -1.81555 0
M  V30 6726 O 615.744 0.308224 -1.92042 0
M  V30 6727 C 616.027 -3.19084 -1.66905 0
M  V30 6728 C 615.88 -4.43397 -0.756269 0
M  V30 6729 C 617.199 -3.52493 -2.63509 0
M  V30 6730 H 614.318 -0.664608 -0.318535 0
M  V30 6731 H 616.96 -1.89438 -0.146036 0
M  V30 6732 H 615.11 -3.13475 -2.2949 0
M  V30 6733 H 616.782 -4.61079 -0.14269 0
M  V30 6734 H 615.025 -4.33752 -0.0647944 0
M  V30 6735 H 615.696 -5.3539 -1.34393 0
M  V30 6736 H 618.172 -3.58606 -2.11047 0
M  V30 6737 H 617.048 -4.48979 -3.15767 0
M  V30 6738 H 617.309 -2.77597 -3.44082 0
M  V30 6739 N 616.368 0.432326 -1.51554 0
M  V30 6740 C 617.301 1.54525 -1.6792 0
M  V30 6741 C 618.279 1.53831 -0.526764 0
M  V30 6742 O 619.463 1.72884 -0.751233 0
M  V30 6743 C 616.59 2.931 -1.69736 0
M  V30 6744 C 615.636 3.11799 -2.91005 0
M  V30 6745 S 616.469 2.87565 -4.51737 0
M  V30 6746 C 617.625 4.28412 -4.56305 0
M  V30 6747 H 617.858 1.4041 -2.62054 0
M  V30 6748 H 615.391 0.622357 -1.41301 0
M  V30 6749 H 617.349 3.72974 -1.71467 0
M  V30 6750 H 616.01 3.04574 -0.767705 0
M  V30 6751 H 615.203 4.13127 -2.8869 0
M  V30 6752 H 614.805 2.39757 -2.87041 0
M  V30 6753 H 617.097 5.21692 -4.32254 0
M  V30 6754 H 618.04 4.35758 -5.58141 0
M  V30 6755 H 618.448 4.12301 -3.85576 0
M  V30 6756 N 617.846 1.41785 0.688094 0
M  V30 6757 C 618.776 1.47 1.8142 0
M  V30 6758 C 619.757 0.327881 1.6691 0
M  V30 6759 O 620.942 0.540362 1.86531 0
M  V30 6760 C 618.072 1.35876 3.19617 0
M  V30 6761 C 617.026 2.47976 3.48844 0
M  V30 6762 C 616.352 2.21915 4.86475 0
M  V30 6763 C 617.652 3.90309 3.47068 0
M  V30 6764 H 619.346 2.41247 1.77314 0
M  V30 6765 H 616.892 1.16116 0.851651 0
M  V30 6766 H 618.845 1.38134 3.98117 0
M  V30 6767 H 617.569 0.38116 3.24368 0
M  V30 6768 H 616.228 2.45013 2.72698 0
M  V30 6769 H 615.876 1.2248 4.8786 0
M  V30 6770 H 615.576 2.97037 5.06994 0
M  V30 6771 H 617.1 2.25901 5.67275 0
M  V30 6772 H 618.514 3.94947 4.1556 0
M  V30 6773 H 616.911 4.65175 3.7912 0
M  V30 6774 H 617.981 4.17927 2.45896 0
M  V30 6775 N 619.324 -0.923095 1.27737 0
M  V30 6776 C 620.254 -2.04124 1.13383 0
M  V30 6777 C 621.235 -1.70066 0.0340658 0
M  V30 6778 O 622.42 -1.93068 0.209383 0
M  V30 6779 C 619.55 -3.3831 0.785097 0
M  V30 6780 C 618.504 -3.86496 1.8386 0
M  V30 6781 C 617.83 -5.1754 1.34373 0
M  V30 6782 C 619.13 -4.09381 3.24353 0
M  V30 6783 H 620.824 -2.1639 2.06919 0
M  V30 6784 H 618.37 -1.03976 0.996243 0
M  V30 6785 H 620.323 -4.16016 0.671485 0
M  V30 6786 H 619.047 -3.2607 -0.185969 0
M  V30 6787 H 617.706 -3.10987 1.9412 0
M  V30 6788 H 617.354 -5.01696 0.361989 0
M  V30 6789 H 617.054 -5.50751 2.04811 0
M  V30 6790 H 618.578 -5.97811 1.24315 0
M  V30 6791 H 619.992 -4.77641 3.17067 0
M  V30 6792 H 618.389 -4.53906 3.92542 0
M  V30 6793 H 619.459 -3.14515 3.69064 0
M  V30 6794 N 620.802 -1.09834 -1.13024 0
M  V30 6795 C 621.765 -0.745058 -2.16752 0
M  V30 6796 C 622.765 0.227435 -1.59183 0
M  V30 6797 O 623.955 0.0050786 -1.74199 0
M  V30 6798 C 621.087 -0.102543 -3.40746 0
M  V30 6799 H 622.28 -1.66375 -2.49518 0
M  V30 6800 H 619.833 -0.898061 -1.27924 0
M  V30 6801 H 620.568 0.827177 -3.13573 0
M  V30 6802 H 620.353 -0.80235 -3.83803 0
M  V30 6803 H 621.843 0.129082 -4.174 0
M  V30 6804 N 622.28 1.30327 -0.886154 0
M  V30 6805 C 623.243 2.26376 -0.358687 0
M  V30 6806 C 624.243 1.52845 0.499498 0
M  V30 6807 O 625.433 1.71483 0.306485 0
M  V30 6808 C 622.565 3.37379 0.488726 0
M  V30 6809 H 623.758 2.74547 -1.20681 0
M  V30 6810 H 621.311 1.41536 -0.663113 0
M  V30 6811 H 622.046 2.94526 1.35739 0
M  V30 6812 H 621.831 3.91897 -0.126003 0
M  V30 6813 H 623.321 4.08868 0.84952 0
M  V30 6814 N 623.758 0.647228 1.43697 0
M  V30 6815 C 624.688 -0.0345631 2.33474 0
M  V30 6816 C 625.669 -0.818193 1.4913 0
M  V30 6817 O 626.854 -0.780867 1.77809 0
M  V30 6818 C 623.984 -1.00576 3.32418 0
M  V30 6819 C 622.938 -0.33266 4.26705 0
M  V30 6820 C 622.264 -1.41489 5.1564 0
M  V30 6821 C 623.564 0.771204 5.16575 0
M  V30 6822 H 625.258 0.715163 2.90733 0
M  V30 6823 H 622.804 0.345364 1.39797 0
M  V30 6824 H 624.757 -1.49159 3.94119 0
M  V30 6825 H 623.481 -1.78657 2.73403 0
M  V30 6826 H 622.14 0.13267 3.6636 0
M  V30 6827 H 621.788 -2.18698 4.52968 0
M  V30 6828 H 621.488 -0.969799 5.79542 0
M  V30 6829 H 623.012 -1.9022 5.80214 0
M  V30 6830 H 624.426 0.36779 5.72119 0
M  V30 6831 H 622.823 1.1404 5.89165 0
M  V30 6832 H 623.893 1.63169 4.56622 0
M  V30 6833 N 625.236 -1.5273 0.388769 0
M  V30 6834 C 626.482 -2.02545 -0.186351 0
M  V30 6835 C 626.837 -1.27017 -1.44514 0
M  V30 6836 O 626.13 -0.361948 -1.8815 0
M  V30 6837 C 626.324 -3.53765 -0.508445 0
M  V30 6838 C 626.153 -4.43938 0.71758 0
M  V30 6839 C 624.923 -4.89933 1.23668 0
M  V30 6840 C 627.121 -4.89113 1.58974 0
M  V30 6841 N 625.103 -5.64176 2.42031 0
M  V30 6842 C 626.474 -5.61931 2.61979 0
M  V30 6843 C 628.529 -4.71155 1.60989 0
M  V30 6844 C 627.232 -6.18698 3.66886 0
M  V30 6845 C 629.258 -5.28804 2.64803 0
M  V30 6846 C 628.62 -6.01527 3.6653 0
M  V30 6847 H 624.719 -0.781413 -0.0302921 0
M  V30 6848 H 627.303 -1.87104 0.538539 0
M  V30 6849 H 625.474 -3.6932 -1.20239 0
M  V30 6850 H 627.206 -3.9028 -1.07067 0
M  V30 6851 H 623.961 -4.66833 0.797763 0
M  V30 6852 H 624.385 -6.05949 3.01919 0
M  V30 6853 H 629.027 -4.14435 0.836881 0
M  V30 6854 H 626.745 -6.74501 4.45055 0
M  V30 6855 H 630.331 -5.1679 2.67245 0
M  V30 6856 H 629.211 -6.45339 4.45542 0
M  V30 6857 N 626.714 -0.118576 -1.57153 0
M  V30 6858 C 627.647 0.869046 -2.11004 0
M  V30 6859 C 628.625 1.26115 -1.02634 0
M  V30 6860 O 629.809 1.36228 -1.30285 0
M  V30 6861 C 626.936 2.16297 -2.6064 0
M  V30 6862 C 625.982 1.91896 -3.80891 0
M  V30 6863 S 626.815 1.13562 -5.2332 0
M  V30 6864 C 627.971 2.44135 -5.76324 0
M  V30 6865 H 628.204 0.411005 -2.94445 0
M  V30 6866 H 625.737 0.0951891 -1.54106 0
M  V30 6867 H 627.695 2.90642 -2.89892 0
M  V30 6868 H 626.356 2.59219 -1.77382 0
M  V30 6869 H 625.549 2.8777 -4.13768 0
M  V30 6870 H 625.151 1.25672 -3.52253 0
M  V30 6871 H 627.443 3.39976 -5.86022 0
M  V30 6872 H 628.386 2.15803 -6.74414 0
M  V30 6873 H 628.794 2.53483 -5.04387 0
M  V30 6874 N 628.193 1.56834 0.155195 0
M  V30 6875 C 629.442 1.82088 0.867567 0
M  V30 6876 C 629.755 0.69849 1.82703 0
M  V30 6877 O 630.961 0.836407 2.58295 0
M  V30 6878 C 629.417 3.22707 1.59336 0
M  V30 6879 C 629.025 4.42859 0.676719 0
M  V30 6880 C 630.769 3.57242 2.293 0
M  V30 6881 C 628.676 5.74501 1.40367 0
M  V30 6882 H 627.606 0.679057 0.327715 0
M  V30 6883 H 630.257 1.83105 0.120351 0
M  V30 6884 H 628.639 3.16054 2.38591 0
M  V30 6885 H 629.813 4.60731 -0.0800196 0
M  V30 6886 H 628.128 4.16311 0.0859129 0
M  V30 6887 H 630.725 4.52847 2.84312 0
M  V30 6888 H 631.068 2.82901 3.05406 0
M  V30 6889 H 631.601 3.6552 1.56972 0
M  V30 6890 H 628.34 6.51915 0.684623 0
M  V30 6891 H 627.86 5.60579 2.13332 0
M  V30 6892 H 629.539 6.17016 1.94681 0
M  V30 6893 N 629.671 -0.424282 1.51781 0
M  V30 6894 C 630.601 -1.52305 1.7699 0
M  V30 6895 C 631.582 -1.5839 0.620209 0
M  V30 6896 O 632.767 -1.73908 0.864268 0
M  V30 6897 C 629.897 -2.90271 1.90683 0
M  V30 6898 C 628.851 -2.99043 3.06198 0
M  V30 6899 C 628.177 -4.39116 3.05092 0
M  V30 6900 C 629.477 -2.7192 4.45934 0
M  V30 6901 H 631.171 -1.31461 2.68995 0
M  V30 6902 H 628.717 -0.630985 1.29439 0
M  V30 6903 H 630.67 -3.6711 2.06901 0
M  V30 6904 H 629.394 -3.12376 0.953365 0
M  V30 6905 H 628.053 -2.24646 2.89706 0
M  V30 6906 H 627.701 -4.58207 2.07498 0
M  V30 6907 H 627.401 -4.45912 3.82669 0
M  V30 6908 H 628.925 -5.17911 3.2342 0
M  V30 6909 H 630.339 -3.38487 4.62709 0
M  V30 6910 H 628.736 -2.90111 5.25315 0
M  V30 6911 H 629.806 -1.67445 4.55072 0
M  V30 6912 N 631.149 -1.42148 -0.680565 0
M  V30 6913 C 632.097 -1.45401 -1.81552 0
M  V30 6914 C 633.091 -0.33036 -1.66147 0
M  V30 6915 O 634.297 -0.503103 -1.72826 0
M  V30 6916 H 630.672 -0.455265 -0.59853 0
M  V30 6917 H 632.643 -2.41024 -1.75926 0
M  V30 6918 C 631.392 -1.36769 -3.19671 0
M  V30 6919 H 630.715 -2.22525 -3.32149 0
M  V30 6920 H 632.155 -1.43106 -3.9912 0
M  V30 6921 C 630.614 -0.0817752 -3.36801 0
M  V30 6922 O 631.144 0.867707 -3.92216 0
M  V30 6923 N 629.35 -0.000799811 -2.906 0
M  V30 6924 H 628.897 -0.774231 -2.4569 0
M  V30 6925 H 628.855 0.858961 -3.02439 0
M  V30 6926 N 632.627 0.916307 -1.28225 0
M  V30 6927 C 633.537 2.05165 -1.13775 0
M  V30 6928 C 634.553 1.73879 -0.0649418 0
M  V30 6929 O 635.729 1.99531 -0.273722 0
M  V30 6930 C 632.794 3.37385 -0.798267 0
M  V30 6931 C 631.855 3.82296 -1.95316 0
M  V30 6932 C 631.088 5.08206 -1.62978 0
M  V30 6933 O 631.311 5.6781 -0.542948 0
M  V30 6934 O 630.245 5.48768 -2.47261 0
M  V30 6935 H 634.071 2.20273 -2.09078 0
M  V30 6936 H 631.656 1.0373 -1.07519 0
M  V30 6937 H 633.538 4.16773 -0.62278 0
M  V30 6938 H 632.213 3.23458 0.125139 0
M  V30 6939 H 631.12 3.03746 -2.18378 0
M  V30 6940 H 632.453 4.00782 -2.85718 0
M  V30 6941 N 634.105 1.10431 1.1244 0
M  V30 6942 C 635.521 0.836096 1.35947 0
M  V30 6943 C 635.721 -0.544475 1.94004 0
M  V30 6944 O 634.777 -1.29735 2.16622 0
M  V30 6945 C 636.09 1.93575 2.30107 0
M  V30 6946 C 637.638 1.9642 2.43697 0
M  V30 6947 C 638.113 3.05559 3.41171 0
M  V30 6948 N 639.604 3.04865 3.48728 0
M  V30 6949 C 640.339 3.85954 4.24061 0
M  V30 6950 N 639.835 4.76977 5.02458 0
M  V30 6951 N 641.628 3.74172 4.19466 0
M  V30 6952 H 633.779 1.9942 0.731124 0
M  V30 6953 H 636.042 0.866607 0.384312 0
M  V30 6954 H 635.748 2.92943 1.94621 0
M  V30 6955 H 635.622 1.8229 3.30227 0
M  V30 6956 H 638.009 0.97685 2.78463 0
M  V30 6957 H 638.09 2.11782 1.43465 0
M  V30 6958 H 637.734 4.04513 3.07135 0
M  V30 6959 H 637.664 2.87438 4.41234 0
M  V30 6960 H 640.155 2.38908 2.92799 0
M  V30 6961 H 640.468 5.35409 5.57277 0
M  V30 6962 H 638.813 4.81006 5.01655 0
M  V30 6963 H 642.004 3.02412 3.57302 0
M  V30 6964 H 642.177 4.37602 4.77921 0
M  V30 6965 N 635.583 -1.29855 0.893053 0
M  V30 6966 C 636.999 -1.48366 0.588199 0
M  V30 6967 C 637.199 -1.81654 -0.872018 0
M  V30 6968 O 636.255 -1.909 -1.65268 0
M  V30 6969 C 637.568 -2.60136 1.5083 0
M  V30 6970 C 639.116 -2.74014 1.51279 0
M  V30 6971 C 639.591 -3.88905 2.41902 0
M  V30 6972 N 641.082 -3.96228 2.39911 0
M  V30 6973 C 641.817 -4.84458 3.06738 0
M  V30 6974 N 641.313 -5.77426 3.8282 0
M  V30 6975 N 643.106 -4.77894 2.95929 0
M  V30 6976 H 635.257 -1.06522 1.83757 0
M  V30 6977 H 637.52 -0.528495 0.787018 0
M  V30 6978 H 637.226 -2.42383 2.54839 0
M  V30 6979 H 637.1 -3.56793 1.22388 0
M  V30 6980 H 639.487 -2.91167 0.480179 0
M  V30 6981 H 639.568 -1.77952 1.83757 0
M  V30 6982 H 639.212 -3.72508 3.45253 0
M  V30 6983 H 639.142 -4.84322 2.06737 0
M  V30 6984 H 641.633 -3.29728 1.84629 0
M  V30 6985 H 641.946 -6.41529 4.30883 0
M  V30 6986 H 640.291 -5.77332 3.86927 0
M  V30 6987 H 643.482 -4.04248 2.36012 0
M  V30 6988 H 643.655 -5.46444 3.48286 0
M  V30 6989 N 637.061 -0.65484 -1.43351 0
M  V30 6990 C 637.991 0.0221809 -2.33489 0
M  V30 6991 C 638.972 0.810272 -1.49561 0
M  V30 6992 O 640.157 0.771426 -1.78221 0
M  V30 6993 C 637.287 0.988117 -3.32947 0
M  V30 6994 C 636.241 0.310026 -4.26876 0
M  V30 6995 C 635.567 1.38752 -5.16384 0
M  V30 6996 C 636.867 -0.798589 -5.16159 0
M  V30 6997 H 638.561 -0.730571 -2.9035 0
M  V30 6998 H 636.107 -0.352773 -1.39612 0
M  V30 6999 H 638.06 1.47067 -3.94904 0
M  V30 7000 H 636.784 1.77205 -2.74346 0
M  V30 7001 H 635.443 -0.152097 -3.66284 0
M  V30 7002 H 635.091 2.16293 -4.54121 0
M  V30 7003 H 634.791 0.939051 -5.80048 0
M  V30 7004 H 636.315 1.87141 -5.81215 0
M  V30 7005 H 637.729 -0.398126 -5.71916 0
M  V30 7006 H 636.126 -1.17163 -5.88552 0
M  V30 7007 H 637.196 -1.65588 -4.55751 0
M  V30 7008 N 638.539 1.52521 -0.396863 0
M  V30 7009 C 639.469 2.29582 0.425941 0
M  V30 7010 C 640.45 1.33281 1.05689 0
M  V30 7011 O 641.635 1.62181 1.06823 0
M  V30 7012 C 638.765 3.10821 1.54943 0
M  V30 7013 C 637.719 4.15069 1.04413 0
M  V30 7014 C 637.045 4.84578 2.26028 0
M  V30 7015 C 638.345 5.22191 0.106767 0
M  V30 7016 H 640.039 2.98612 -0.217045 0
M  V30 7017 H 637.585 1.43611 -0.105826 0
M  V30 7018 H 639.538 3.63492 2.13193 0
M  V30 7019 H 638.262 2.39538 2.22011 0
M  V30 7020 H 636.921 3.63389 0.484118 0
M  V30 7021 H 636.569 4.09835 2.91623 0
M  V30 7022 H 636.269 5.55043 1.92876 0
M  V30 7023 H 637.793 5.40056 2.84906 0
M  V30 7024 H 639.207 5.70176 0.597685 0
M  V30 7025 H 637.604 5.99947 -0.135352 0
M  V30 7026 H 638.674 4.77531 -0.842134 0
M  V30 7027 N 640.017 0.126909 1.57088 0
M  V30 7028 C 641.242 -0.53997 2.00248 0
M  V30 7029 C 641.667 -1.58927 1.00618 0
M  V30 7030 O 641.025 -1.81288 -0.0210131 0
M  V30 7031 C 641.073 -1.13565 3.4225 0
M  V30 7032 O 640.177 -2.25103 3.45547 0
M  V30 7033 H 639.518 -0.13412 0.650314 0
M  V30 7034 H 642.048 0.217718 2.03438 0
M  V30 7035 H 642.058 -1.46925 3.80627 0
M  V30 7036 H 640.733 -0.367122 4.14277 0
M  V30 7037 H 639.31 -1.93123 3.18995 0
M  V30 7038 N 641.495 -1.56914 -0.146875 0
M  V30 7039 C 642.427 -1.94878 -1.20645 0
M  V30 7040 C 643.44 -0.844633 -1.39175 0
M  V30 7041 O 644.629 -1.12304 -1.38744 0
M  V30 7042 C 641.729 -2.20769 -2.57127 0
M  V30 7043 C 640.902 -3.52053 -2.59572 0
M  V30 7044 C 639.961 -3.66482 -3.77594 0
M  V30 7045 O 638.987 -4.38873 -3.62462 0
M  V30 7046 N 640.189 -3.03156 -4.95052 0
M  V30 7047 H 642.954 -2.86374 -0.883757 0
M  V30 7048 H 640.515 -1.58366 -0.336436 0
M  V30 7049 H 642.507 -2.27664 -3.34591 0
M  V30 7050 H 641.077 -1.35538 -2.81688 0
M  V30 7051 H 640.297 -3.56598 -1.68023 0
M  V30 7052 H 641.585 -4.38396 -2.58238 0
M  V30 7053 H 640.983 -2.44258 -5.10249 0
M  V30 7054 H 639.54 -3.15611 -5.70292 0
M  V30 7055 N 642.974 0.416227 -1.52004 0
M  V30 7056 C 643.921 1.50666 -1.74838 0
M  V30 7057 C 644.891 1.55245 -0.590599 0
M  V30 7058 O 646.076 1.71928 -0.827374 0
M  V30 7059 C 643.216 2.88185 -1.89851 0
M  V30 7060 C 642.329 2.92971 -3.17478 0
M  V30 7061 C 641.464 4.21745 -3.22962 0
M  V30 7062 C 640.503 4.20478 -4.4482 0
M  V30 7063 N 639.64 5.40811 -4.47736 0
M  V30 7064 H 644.48 1.30498 -2.67907 0
M  V30 7065 H 642.017 0.633568 -1.32757 0
M  V30 7066 H 643.975 3.68007 -1.96537 0
M  V30 7067 H 642.605 3.06865 -1.00169 0
M  V30 7068 H 641.657 2.05684 -3.19997 0
M  V30 7069 H 642.969 2.87899 -4.07328 0
M  V30 7070 H 642.123 5.09954 -3.28682 0
M  V30 7071 H 640.862 4.29503 -2.31038 0
M  V30 7072 H 639.867 3.30659 -4.39254 0
M  V30 7073 H 641.092 4.14366 -5.38031 0
M  V30 7074 H 639.038 5.4925 -3.58692 0
M  V30 7075 H 638.955 5.37705 -5.31422 0
M  V30 7076 H 640.223 6.30993 -4.57676 0
M  V30 7077 N 644.452 1.42507 0.673017 0
M  V30 7078 C 645.68 1.46473 1.46128 0
M  V30 7079 C 646.095 0.0765912 1.88645 0
M  V30 7080 O 645.452 -0.909057 1.58248 0
M  V30 7081 C 645.503 2.39339 2.70923 0
M  V30 7082 O 645.224 3.72752 2.3019 0
M  V30 7083 C 646.725 2.52343 3.64469 0
M  V30 7084 H 643.945 0.49812 0.449575 0
M  V30 7085 H 646.489 1.87041 0.826802 0
M  V30 7086 H 644.644 2.02019 3.30556 0
M  V30 7087 H 645.058 4.22503 3.10791 0
M  V30 7088 H 646.532 3.2144 4.48754 0
M  V30 7089 H 647.009 1.56189 4.1049 0
M  V30 7090 H 647.615 2.90392 3.10729 0
M  V30 7091 N 645.93 -0.909495 1.28709 0
M  V30 7092 C 647.207 -1.63865 1.06806 0
M  V30 7093 C 647.587 -2.07445 -0.391143 0
M  V30 7094 O 646.935 -1.82269 -1.37805 0
M  V30 7095 C 647.145 -2.82692 2.04661 0
M  V30 7096 C 648.493 -3.5361 2.35042 0
M  V30 7097 O 649.517 -2.92847 2.02779 0
M  V30 7098 O 648.376 -4.63131 2.90124 0
M  V30 7099 H 645.47 -0.719065 0.408502 0
M  V30 7100 H 648.016 -0.958424 1.40044 0
M  V30 7101 H 646.788 -2.47614 3.0299 0
M  V30 7102 H 646.411 -3.58426 1.72095 0
M  V30 7103 N 647.408 -1.11026 -1.11852 0
M  V30 7104 C 648.356 -0.759643 -2.19846 0
M  V30 7105 C 649.35 0.246964 -1.6759 0
M  V30 7106 O 650.556 0.106693 -1.79684 0
M  V30 7107 H 646.931 -0.22775 -0.716683 0
M  V30 7108 H 648.902 -1.6792 -2.46669 0
M  V30 7109 C 647.651 -0.214364 -3.47039 0
M  V30 7110 H 646.974 -0.980175 -3.87599 0
M  V30 7111 H 648.414 -0.00717047 -4.23999 0
M  V30 7112 C 646.873 1.05436 -3.19976 0
M  V30 7113 O 647.403 2.13483 -3.40276 0
M  V30 7114 N 645.609 0.975436 -2.7374 0
M  V30 7115 H 645.156 0.0960853 -2.57421 0
M  V30 7116 H 645.114 1.82501 -2.5601 0
M  V30 7117 N 648.886 1.2938 -0.899927 0
M  V30 7118 C 649.796 2.31462 -0.382437 0
M  V30 7119 C 650.812 1.65956 0.522929 0
M  V30 7120 O 651.988 1.97131 0.412454 0
M  V30 7121 C 649.053 3.44595 0.381472 0
M  V30 7122 C 648.114 4.25692 -0.555444 0
M  V30 7123 C 647.347 5.33422 0.172102 0
M  V30 7124 O 647.57 5.53053 1.396 0
M  V30 7125 O 646.504 5.99939 -0.485491 0
M  V30 7126 H 650.33 2.77706 -1.22934 0
M  V30 7127 H 647.915 1.33821 -0.664259 0
M  V30 7128 H 649.797 4.13474 0.813442 0
M  V30 7129 H 648.472 3.00458 1.20443 0
M  V30 7130 H 647.379 3.59453 -1.03653 0
M  V30 7131 H 648.712 4.73471 -1.34483 0
M  V30 7132 N 650.364 0.662433 1.43002 0
M  V30 7133 C 651.613 0.176873 2.00923 0
M  V30 7134 C 651.926 -1.21954 1.52927 0
M  V30 7135 O 653.132 -1.80081 2.03182 0
M  V30 7136 C 651.588 0.265379 3.5892 0
M  V30 7137 C 651.196 1.66507 4.15908 0
M  V30 7138 C 652.94 -0.162103 4.2419 0
M  V30 7139 C 650.847 1.707 5.66229 0
M  V30 7140 H 649.777 0.0623627 0.751417 0
M  V30 7141 H 652.428 0.825813 1.63868 0
M  V30 7142 H 650.81 -0.451235 3.93421 0
M  V30 7143 H 651.984 2.40777 3.92891 0
M  V30 7144 H 650.299 2.03932 3.63044 0
M  V30 7145 H 652.896 -0.150745 5.34487 0
M  V30 7146 H 653.239 -1.19519 3.98774 0
M  V30 7147 H 653.772 0.503075 3.94606 0
M  V30 7148 H 650.511 2.7195 5.96426 0
M  V30 7149 H 650.031 1.00768 5.91275 0
M  V30 7150 H 651.71 1.45487 6.3043 0
M  V30 7151 N 651.842 -1.52309 0.404946 0
M  V30 7152 C 653.088 -2.02731 -0.164857 0
M  V30 7153 C 653.443 -1.28543 -1.43159 0
M  V30 7154 O 652.736 -0.381883 -1.87756 0
M  V30 7155 C 652.93 -3.54284 -0.470895 0
M  V30 7156 C 652.759 -4.43152 0.764625 0
M  V30 7157 C 651.529 -4.88594 1.28858 0
M  V30 7158 C 653.727 -4.874 1.64152 0
M  V30 7159 N 651.709 -5.61577 2.48001 0
M  V30 7160 C 653.08 -5.59121 2.67924 0
M  V30 7161 C 655.135 -4.69421 1.65978 0
M  V30 7162 C 653.838 -6.14772 3.73427 0
M  V30 7163 C 655.864 -5.25966 2.70396 0
M  V30 7164 C 655.226 -5.97606 3.7289 0
M  V30 7165 H 651.325 -0.78169 -0.0220025 0
M  V30 7166 H 653.909 -1.86522 0.558354 0
M  V30 7167 H 652.08 -3.70574 -1.16315 0
M  V30 7168 H 653.812 -3.91394 -1.02921 0
M  V30 7169 H 650.567 -4.6596 0.847232 0
M  V30 7170 H 650.991 -6.02712 3.08329 0
M  V30 7171 H 655.633 -4.13524 0.88079 0
M  V30 7172 H 653.351 -6.69743 4.52184 0
M  V30 7173 H 656.937 -5.13926 2.72711 0
M  V30 7174 H 655.817 -6.40577 4.52361 0
M  V30 7175 N 653.32 -0.135238 -1.57019 0
M  V30 7176 C 654.268 0.826099 -2.17436 0
M  V30 7177 C 655.262 1.26378 -1.12805 0
M  V30 7178 O 656.468 1.23363 -1.31079 0
M  V30 7179 H 652.843 0.284568 -0.696078 0
M  V30 7180 H 654.814 0.292212 -2.96966 0
M  V30 7181 C 653.563 2.05991 -2.80112 0
M  V30 7182 H 652.886 1.73209 -3.60331 0
M  V30 7183 H 654.326 2.71225 -3.25903 0
M  V30 7184 C 652.785 2.86027 -1.78017 0
M  V30 7185 O 653.315 3.81971 -1.24344 0
M  V30 7186 N 651.521 2.50332 -1.47588 0
M  V30 7187 H 651.068 1.72377 -1.91426 0
M  V30 7188 H 651.026 3.04177 -0.795228 0
M  V30 7189 N 654.798 1.5699 0.138552 0
M  V30 7190 C 656.026 1.87976 0.864437 0
M  V30 7191 C 656.441 0.724372 1.74351 0
M  V30 7192 O 655.798 -0.305575 1.79924 0
M  V30 7193 C 655.849 3.18276 1.71414 0
M  V30 7194 O 655.57 4.29365 0.870487 0
M  V30 7195 C 657.071 3.62834 2.54688 0
M  V30 7196 H 654.291 0.622878 0.249528 0
M  V30 7197 H 656.835 2.04094 0.128805 0
M  V30 7198 H 654.99 3.03886 2.40274 0
M  V30 7199 H 655.404 5.03924 1.45466 0
M  V30 7200 H 656.878 4.5682 3.0987 0
M  V30 7201 H 657.355 2.88533 3.31127 0
M  V30 7202 H 657.961 3.79946 1.91105 0
M  V30 7203 N 656.276 -0.40816 1.52223 0
M  V30 7204 C 657.523 -1.15502 1.66329 0
M  V30 7205 C 657.851 -1.90474 0.393701 0
M  V30 7206 O 657.106 -1.85507 -0.623356 0
M  V30 7207 C 657.405 -2.17422 2.83659 0
M  V30 7208 C 657.071 -1.5925 4.21841 0
M  V30 7209 C 655.733 -1.4311 4.59427 0
M  V30 7210 C 658.085 -1.16776 5.0795 0
M  V30 7211 C 655.413 -0.830148 5.80797 0
M  V30 7212 C 657.765 -0.580988 6.29926 0
M  V30 7213 C 656.429 -0.406729 6.6626 0
M  V30 7214 H 655.699 -0.422653 0.608642 0
M  V30 7215 H 658.346 -0.442114 1.86327 0
M  V30 7216 H 656.651 -2.94861 2.58001 0
M  V30 7217 H 658.348 -2.75084 2.9177 0
M  V30 7218 H 654.938 -1.72796 3.92224 0
M  V30 7219 H 659.122 -1.28055 4.79495 0
M  V30 7220 H 654.378 -0.68316 6.07571 0
M  V30 7221 H 658.552 -0.243488 6.95974 0
M  V30 7222 H 656.179 0.0610366 7.60175 0
M  V30 7223 N 657.755 -1.42862 -0.66545 0
M  V30 7224 C 659.002 -1.4383 -1.42546 0
M  V30 7225 C 659.33 -0.0581114 -1.94413 0
M  V30 7226 O 658.585 0.935002 -1.71919 0
M  V30 7227 C 658.884 -2.4175 -2.63233 0
M  V30 7228 C 658.55 -3.87915 -2.29854 0
M  V30 7229 C 657.212 -4.27726 -2.20463 0
M  V30 7230 C 659.564 -4.80074 -2.02924 0
M  V30 7231 C 656.892 -5.57666 -1.82279 0
M  V30 7232 C 659.244 -6.10366 -1.66242 0
M  V30 7233 C 657.908 -6.49167 -1.55367 0
M  V30 7234 H 657.178 -0.52631 -0.521612 0
M  V30 7235 H 659.825 -1.75863 -0.757914 0
M  V30 7236 H 658.13 -2.03077 -3.35063 0
M  V30 7237 H 659.827 -2.39759 -3.21429 0
M  V30 7238 H 656.417 -3.564 -2.3807 0
M  V30 7239 H 660.601 -4.50097 -2.09108 0
M  V30 7240 H 655.857 -5.8658 -1.72436 0
M  V30 7241 H 660.031 -6.81258 -1.44432 0
M  V30 7242 H 657.658 -7.49761 -1.2555 0
M  V30 7243 N 659.233 0.902656 -1.29189 0
M  V30 7244 C 660.183 1.99326 -1.10695 0
M  V30 7245 C 661.167 1.60877 -0.0272521 0
M  V30 7246 O 662.359 1.75245 -0.248635 0
M  V30 7247 C 659.488 3.34265 -0.78244 0
M  V30 7248 C 658.574 3.79081 -1.90153 0
M  V30 7249 N 658.965 3.96162 -3.14466 0
M  V30 7250 C 657.263 4.08333 -1.79389 0
M  V30 7251 C 657.964 4.3388 -3.87458 0
M  V30 7252 N 656.94 4.42759 -3.15381 0
M  V30 7253 H 660.742 2.10597 -2.05003 0
M  V30 7254 H 658.256 1.09127 -1.20271 0
M  V30 7255 H 660.253 4.12097 -0.630996 0
M  V30 7256 H 658.913 3.2434 0.152754 0
M  V30 7257 H 659.924 3.81775 -3.49954 0
M  V30 7258 H 656.601 4.06982 -0.931217 0
M  V30 7259 H 657.991 4.54965 -4.94425 0
M  V30 7260 N 660.711 1.11618 1.11262 0
M  V30 7261 C 661.959 0.864469 1.82678 0
M  V30 7262 C 662.28 -0.611564 1.85162 0
M  V30 7263 O 661.55 -1.44429 1.32352 0
M  V30 7264 H 660.13 0.316821 0.676486 0
M  V30 7265 H 662.792 1.40894 1.34666 0
M  V30 7266 H 661.888 1.23832 2.86482 0
M  V30 7267 N 662.189 -1.289 0.906776 0
M  V30 7268 C 663.605 -1.47733 0.603902 0
M  V30 7269 C 663.805 -1.82568 -0.852702 0
M  V30 7270 O 662.861 -1.92642 -1.63234 0
M  V30 7271 C 664.174 -2.58522 1.53581 0
M  V30 7272 C 665.722 -2.72394 1.54177 0
M  V30 7273 C 666.197 -3.86318 2.46013 0
M  V30 7274 N 667.688 -3.93661 2.441 0
M  V30 7275 C 668.423 -4.81177 3.11859 0
M  V30 7276 N 667.919 -5.73333 3.88923 0
M  V30 7277 N 669.712 -4.74728 3.00981 0
M  V30 7278 H 661.863 -1.04567 1.84877 0
M  V30 7279 H 664.126 -0.520118 0.792579 0
M  V30 7280 H 663.832 -2.39667 2.57396 0
M  V30 7281 H 663.706 -3.55475 1.26165 0
M  V30 7282 H 666.093 -2.90641 0.511034 0
M  V30 7283 H 666.174 -1.75993 1.85634 0
M  V30 7284 H 665.818 -3.68826 3.49185 0
M  V30 7285 H 665.748 -4.82102 2.11862 0
M  V30 7286 H 668.239 -3.27751 1.88115 0
M  V30 7287 H 668.552 -6.36923 4.37663 0
M  V30 7288 H 666.897 -5.73196 3.93029 0
M  V30 7289 H 670.088 -4.01722 2.40286 0
M  V30 7290 H 670.261 -5.42719 3.54062 0
M  V30 7291 N 663.667 -0.670007 -1.42649 0
M  V30 7292 C 664.897 -0.198252 -2.05647 0
M  V30 7293 C 665.305 1.14786 -1.50402 0
M  V30 7294 O 664.648 1.72316 -0.636634 0
M  V30 7295 C 664.71 -0.0507132 -3.59464 0
M  V30 7296 C 664.374 -1.32478 -4.37377 0
M  V30 7297 C 665.371 -2.2572 -4.68344 0
M  V30 7298 C 663.056 -1.57104 -4.77099 0
M  V30 7299 C 665.05 -3.4187 -5.37963 0
M  V30 7300 C 662.737 -2.73543 -5.46459 0
M  V30 7301 C 663.735 -3.65751 -5.76815 0
M  V30 7302 O 663.423 -4.80154 -6.44753 0
M  V30 7303 H 663.155 -0.0950721 -0.669281 0
M  V30 7304 H 665.709 -0.915745 -1.83857 0
M  V30 7305 H 663.939 0.722314 -3.79894 0
M  V30 7306 H 665.628 0.380552 -4.04112 0
M  V30 7307 H 666.394 -2.07943 -4.38161 0
M  V30 7308 H 662.273 -0.862069 -4.52868 0
M  V30 7309 H 665.817 -4.13861 -5.61574 0
M  V30 7310 H 661.714 -2.91248 -5.7606 0
M  V30 7311 H 662.482 -4.79637 -6.63243 0
M  V30 7312 N 665.145 1.52092 -0.413018 0
M  V30 7313 C 666.075 2.30021 0.401567 0
M  V30 7314 C 667.056 1.34395 1.04269 0
M  V30 7315 O 668.241 1.63304 1.05097 0
M  V30 7316 C 665.371 3.12447 1.51638 0
M  V30 7317 C 664.325 4.16153 1.00005 0
M  V30 7318 C 663.651 4.86948 2.20875 0
M  V30 7319 C 664.951 5.22275 0.0513757 0
M  V30 7320 H 666.645 2.98365 -0.248704 0
M  V30 7321 H 664.191 1.4349 -0.121052 0
M  V30 7322 H 666.144 3.65733 2.09326 0
M  V30 7323 H 664.868 2.41879 2.19458 0
M  V30 7324 H 663.527 3.63882 0.445549 0
M  V30 7325 H 663.175 4.12905 2.8726 0
M  V30 7326 H 662.875 5.57057 1.86978 0
M  V30 7327 H 664.399 5.43048 2.79162 0
M  V30 7328 H 665.813 5.70778 0.537176 0
M  V30 7329 H 664.21 5.9977 -0.198977 0
M  V30 7330 H 665.28 4.76611 -0.892736 0
M  V30 7331 N 666.623 0.143563 1.56945 0
M  V30 7332 C 667.872 -0.50835 1.95189 0
M  V30 7333 C 668.185 -1.66239 1.03073 0
M  V30 7334 O 669.391 -2.3787 1.30882 0
M  V30 7335 C 667.847 -0.955735 3.46978 0
M  V30 7336 C 667.455 0.171183 4.47673 0
M  V30 7337 C 669.199 -1.57763 3.94095 0
M  V30 7338 C 667.106 -0.294279 5.90667 0
M  V30 7339 H 666.036 -0.193679 0.728701 0
M  V30 7340 H 668.687 0.227357 1.82086 0
M  V30 7341 H 667.069 -1.7466 3.55401 0
M  V30 7342 H 668.243 0.948049 4.50942 0
M  V30 7343 H 666.558 0.701273 4.10452 0
M  V30 7344 H 669.155 -1.93745 4.98364 0
M  V30 7345 H 669.498 -2.46531 3.35452 0
M  V30 7346 H 670.031 -0.851728 3.88575 0
M  V30 7347 H 666.77 0.557939 6.53121 0
M  V30 7348 H 666.29 -1.0371 5.90766 0
M  V30 7349 H 667.969 -0.747426 6.42668 0
M  V30 7350 N 668.101 -1.57061 -0.130224 0
M  V30 7351 C 669.031 -2.02552 -1.16168 0
M  V30 7352 C 670.012 -0.907971 -1.4384 0
M  V30 7353 O 671.197 -1.17693 -1.54473 0
M  V30 7354 C 668.327 -2.42035 -2.49071 0
M  V30 7355 C 667.281 -3.5713 -2.35886 0
M  V30 7356 C 666.607 -3.82478 -3.7365 0
M  V30 7357 C 667.907 -4.89236 -1.8288 0
M  V30 7358 H 669.601 -2.8897 -0.783359 0
M  V30 7359 H 667.147 -1.39021 -0.375376 0
M  V30 7360 H 669.1 -2.72462 -3.21469 0
M  V30 7361 H 667.824 -1.52573 -2.88771 0
M  V30 7362 H 666.483 -3.26895 -1.65938 0
M  V30 7363 H 666.131 -2.9024 -4.10816 0
M  V30 7364 H 665.831 -4.59944 -3.65685 0
M  V30 7365 H 667.355 -4.15347 -4.47571 0
M  V30 7366 H 668.769 -5.18272 -2.45085 0
M  V30 7367 H 667.166 -5.70624 -1.85763 0
M  V30 7368 H 668.236 -4.78494 -0.785571 0
M  V30 7369 N 669.579 0.400081 -1.52437 0
M  V30 7370 C 670.509 1.4947 -1.7939 0
M  V30 7371 C 671.49 1.57383 -0.645329 0
M  V30 7372 O 672.675 1.72511 -0.891826 0
M  V30 7373 C 669.805 2.87201 -1.95276 0
M  V30 7374 C 668.759 2.94134 -3.10917 0
M  V30 7375 C 668.085 4.34207 -3.1204 0
M  V30 7376 C 669.385 2.64791 -4.50203 0
M  V30 7377 H 671.079 1.27165 -2.71052 0
M  V30 7378 H 668.625 0.610312 -1.30427 0
M  V30 7379 H 670.578 3.63772 -2.12715 0
M  V30 7380 H 669.302 3.10819 -1.00294 0
M  V30 7381 H 667.961 2.20009 -2.93243 0
M  V30 7382 H 667.609 4.54848 -2.14761 0
M  V30 7383 H 667.309 4.39768 -3.89715 0
M  V30 7384 H 668.833 5.127 -3.31619 0
M  V30 7385 H 670.247 3.31083 -4.68035 0
M  V30 7386 H 668.644 2.81717 -5.29864 0
M  V30 7387 H 669.714 1.60184 -4.57678 0
M  V30 7388 N 671.057 1.43213 0.657864 0
M  V30 7389 C 671.99 1.42456 1.78273 0
M  V30 7390 C 672.968 0.286598 1.60054 0
M  V30 7391 O 674.152 0.479467 1.823 0
M  V30 7392 C 671.279 1.23169 3.15511 0
M  V30 7393 C 670.325 2.40181 3.52442 0
M  V30 7394 S 671.158 4.02729 3.52944 0
M  V30 7395 C 672.314 3.85816 4.92846 0
M  V30 7396 H 672.547 2.37642 1.78644 0
M  V30 7397 H 670.08 1.30188 0.830084 0
M  V30 7398 H 672.038 1.12728 3.94719 0
M  V30 7399 H 670.699 0.295398 3.12708 0
M  V30 7400 H 669.892 2.22478 4.52239 0
M  V30 7401 H 669.494 2.47224 2.80636 0
M  V30 7402 H 671.786 3.47853 5.81381 0
M  V30 7403 H 672.729 4.85348 5.15599 0
M  V30 7404 H 673.137 3.18361 4.66162 0
M  V30 7405 N 672.536 -0.895792 1.29666 0
M  V30 7406 C 673.784 -1.64339 1.17631 0
M  V30 7407 C 674.105 -1.93099 -0.271643 0
M  V30 7408 O 673.375 -1.55981 -1.18518 0
M  V30 7409 H 671.955 -0.609162 0.432354 0
M  V30 7410 H 674.617 -1.07389 1.62646 0
M  V30 7411 H 673.713 -2.59815 1.72924 0
M  V30 7412 N 674.014 -1.12206 -1.10668 0
M  V30 7413 C 675.263 -0.870595 -1.81944 0
M  V30 7414 C 675.576 0.605447 -1.85994 0
M  V30 7415 O 676.782 0.973433 -2.53449 0
M  V30 7416 C 675.238 -1.50783 -3.26791 0
M  V30 7417 C 674.846 -3.01849 -3.31046 0
M  V30 7418 C 676.59 -1.33653 -4.02911 0
M  V30 7419 C 674.497 -3.58518 -4.70339 0
M  V30 7420 H 673.427 -0.322043 -0.681765 0
M  V30 7421 H 676.078 -1.34827 -1.24475 0
M  V30 7422 H 674.46 -0.957825 -3.84242 0
M  V30 7423 H 675.634 -3.63321 -2.83433 0
M  V30 7424 H 673.949 -3.18346 -2.68411 0
M  V30 7425 H 676.546 -1.73416 -5.05797 0
M  V30 7426 H 676.889 -0.279949 -4.15358 0
M  V30 7427 H 677.422 -1.85562 -3.51868 0
M  V30 7428 H 674.161 -4.63925 -4.63091 0
M  V30 7429 H 673.681 -3.01819 -5.18329 0
M  V30 7430 H 675.36 -3.57434 -5.39305 0
M  V30 7431 N 675.492 1.28418 -0.913599 0
M  V30 7432 C 676.739 1.94981 -0.546674 0
M  V30 7433 C 677.067 1.7192 0.909606 0
M  V30 7434 O 676.322 1.03314 1.66207 0
M  V30 7435 C 676.621 3.48283 -0.802099 0
M  V30 7436 C 676.287 3.91444 -2.2379 0
M  V30 7437 C 674.949 4.02939 -2.63046 0
M  V30 7438 C 677.301 4.13542 -3.17227 0
M  V30 7439 C 674.629 4.3391 -3.94891 0
M  V30 7440 C 676.981 4.45992 -4.48636 0
M  V30 7441 C 675.645 4.55698 -4.87746 0
M  V30 7442 H 674.915 0.713487 -0.200042 0
M  V30 7443 H 677.562 1.52756 -1.15489 0
M  V30 7444 H 675.867 3.91643 -0.111076 0
M  V30 7445 H 677.564 3.97903 -0.497375 0
M  V30 7446 H 674.154 3.83024 -1.9233 0
M  V30 7447 H 678.338 4.04114 -2.88107 0
M  V30 7448 H 673.594 4.39631 -4.24894 0
M  V30 7449 H 677.768 4.62038 -5.21051 0
M  V30 7450 H 675.395 4.79451 -5.89942 0
M  V30 7451 N 676.97 0.677563 1.42291 0
M  V30 7452 C 678.195 0.207901 2.06355 0
M  V30 7453 C 678.62 -1.12723 1.50583 0
M  V30 7454 O 677.978 -1.70171 0.62543 0
M  V30 7455 C 678.026 0.156489 3.6026 0
M  V30 7456 O 677.13 -0.874162 4.03029 0
M  V30 7457 H 676.471 0.106056 0.655475 0
M  V30 7458 H 679.001 0.927354 1.82377 0
M  V30 7459 H 679.011 -0.0187258 4.07996 0
M  V30 7460 H 677.686 1.13101 4.00226 0
M  V30 7461 H 676.263 -0.669764 3.66836 0
M  V30 7462 N 678.448 -1.51871 0.421078 0
M  V30 7463 C 679.697 -2.01125 -0.152206 0
M  V30 7464 C 680.01 -1.3106 -1.45199 0
M  V30 7465 O 681.216 -1.71195 -2.10724 0
M  V30 7466 C 679.672 -3.58458 -0.3218 0
M  V30 7467 C 679.28 -4.37448 0.96659 0
M  V30 7468 C 681.024 -4.15908 -0.84973 0
M  V30 7469 C 678.931 -5.86451 0.763529 0
M  V30 7470 H 677.861 -0.751556 -0.0606565 0
M  V30 7471 H 680.512 -1.75115 0.548354 0
M  V30 7472 H 678.894 -3.80847 -1.08498 0
M  V30 7473 H 680.068 -4.26814 1.73684 0
M  V30 7474 H 678.383 -3.91373 1.42183 0
M  V30 7475 H 680.98 -5.24922 -1.01788 0
M  V30 7476 H 681.323 -3.74031 -1.82774 0
M  V30 7477 H 681.856 -3.97535 -0.145297 0
M  V30 7478 H 678.595 -6.3271 1.71344 0
M  V30 7479 H 678.115 -5.99791 0.0327889 0
M  V30 7480 H 679.794 -6.45697 0.410354 0
M  V30 7481 N 679.926 -0.151884 -1.56866 0
M  V30 7482 C 681.156 0.504081 -2.00356 0
M  V30 7483 C 681.564 1.58639 -1.03103 0
M  V30 7484 O 680.907 1.83688 -0.0207931 0
M  V30 7485 C 680.969 1.15975 -3.40279 0
M  V30 7486 C 680.633 0.221453 -4.56463 0
M  V30 7487 C 681.63 -0.552766 -5.16953 0
M  V30 7488 C 679.315 0.122936 -5.0215 0
M  V30 7489 C 681.309 -1.4129 -6.21543 0
M  V30 7490 C 678.996 -0.740801 -6.06593 0
M  V30 7491 C 679.994 -1.50732 -6.6616 0
M  V30 7492 O 679.682 -2.35666 -7.68581 0
M  V30 7493 H 679.414 0.135279 -0.662326 0
M  V30 7494 H 681.968 -0.244916 -2.03935 0
M  V30 7495 H 680.198 1.95649 -3.33554 0
M  V30 7496 H 681.887 1.71594 -3.67846 0
M  V30 7497 H 682.653 -0.486716 -4.82552 0
M  V30 7498 H 678.532 0.70931 -4.5551 0
M  V30 7499 H 682.076 -2.01166 -6.67966 0
M  V30 7500 H 677.973 -0.808125 -6.40421 0
M  V30 7501 H 678.741 -2.28967 -7.85822 0
M  V30 7502 N 681.404 1.57128 0.121893 0
M  V30 7503 C 682.632 1.88883 0.844451 0
M  V30 7504 C 683.047 0.742824 1.73573 0
M  V30 7505 O 682.404 -0.286475 1.80238 0
M  V30 7506 C 682.455 3.20076 1.68029 0
M  V30 7507 O 682.176 4.30264 0.824898 0
M  V30 7508 C 683.677 3.65515 2.50826 0
M  V30 7509 H 680.897 0.62549 0.242907 0
M  V30 7510 H 683.441 2.04219 0.107151 0
M  V30 7511 H 681.596 3.06418 2.37038 0
M  V30 7512 H 682.01 5.05439 1.40113 0
M  V30 7513 H 683.484 4.60081 3.05008 0
M  V30 7514 H 683.961 2.92029 3.28048 0
M  V30 7515 H 684.567 3.81952 1.87064 0
M  V30 7516 N 682.882 -0.391992 1.52647 0
M  V30 7517 C 684.13 -1.13507 1.67214 0
M  V30 7518 C 684.451 -1.90575 0.41304 0
M  V30 7519 O 683.721 -1.87348 -0.572498 0
M  V30 7520 H 682.301 -0.422013 0.616372 0
M  V30 7521 H 684.963 -0.44502 1.89751 0
M  V30 7522 H 684.059 -1.83964 2.52118 0
M  V30 7523 N 684.36 -1.4356 -0.65026 0
M  V30 7524 C 685.29 -1.51758 -1.77459 0
M  V30 7525 C 686.271 -0.372019 -1.65982 0
M  V30 7526 O 687.456 -0.589627 -1.85033 0
M  V30 7527 C 684.586 -1.44302 -3.15902 0
M  V30 7528 C 683.54 -2.57138 -3.42146 0
M  V30 7529 C 682.866 -2.34735 -4.8042 0
M  V30 7530 C 684.166 -3.99373 -3.36598 0
M  V30 7531 H 685.86 -2.45863 -1.70855 0
M  V30 7532 H 683.406 -1.18333 -0.820566 0
M  V30 7533 H 685.359 -1.48641 -3.94314 0
M  V30 7534 H 684.083 -0.467026 -3.23244 0
M  V30 7535 H 682.742 -2.52157 -2.66106 0
M  V30 7536 H 682.39 -1.35372 -4.84441 0
M  V30 7537 H 682.09 -3.10375 -4.9894 0
M  V30 7538 H 683.614 -2.40862 -5.61086 0
M  V30 7539 H 685.028 -4.05826 -4.04942 0
M  V30 7540 H 683.425 -4.75063 -3.66654 0
M  V30 7541 H 684.495 -4.243 -2.34729 0
M  V30 7542 N 685.838 0.888903 -1.30139 0
M  V30 7543 C 687.087 1.63507 -1.18103 0
M  V30 7544 C 687.4 1.93808 0.264141 0
M  V30 7545 O 688.606 2.66744 0.505966 0
M  V30 7546 C 687.062 2.94673 -2.0663 0
M  V30 7547 C 686.67 2.71926 -3.56034 0
M  V30 7548 C 688.414 3.72626 -2.03346 0
M  V30 7549 C 686.321 3.98884 -4.3663 0
M  V30 7550 H 685.251 0.613426 -0.438435 0
M  V30 7551 H 687.902 0.984427 -1.54859 0
M  V30 7552 H 686.284 3.61009 -1.62754 0
M  V30 7553 H 687.458 2.14116 -4.08033 0
M  V30 7554 H 685.773 2.07353 -3.61101 0
M  V30 7555 H 688.37 4.66775 -2.60816 0
M  V30 7556 H 688.713 4.03712 -1.016 0
M  V30 7557 H 689.246 3.13147 -2.45324 0
M  V30 7558 H 685.985 3.72959 -5.39056 0
M  V30 7559 H 685.505 4.56214 -3.89396 0
M  V30 7560 H 687.184 4.66938 -4.47859 0
M  V30 7561 N 687.317 1.12792 1.10072 0
M  V30 7562 C 688.547 0.907189 1.85617 0
M  V30 7563 C 688.955 -0.547181 1.81115 0
M  V30 7564 O 688.298 -1.39024 1.20075 0
M  V30 7565 C 688.36 1.30872 3.34832 0
M  V30 7566 C 688.024 2.77516 3.6309 0
M  V30 7567 C 689.021 3.75696 3.59373 0
M  V30 7568 C 686.706 3.14513 3.91646 0
M  V30 7569 C 688.7 5.08888 3.83812 0
M  V30 7570 C 686.387 4.47886 4.15742 0
M  V30 7571 C 687.385 5.44882 4.11816 0
M  V30 7572 O 687.073 6.7585 4.35295 0
M  V30 7573 H 686.805 0.323855 0.593375 0
M  V30 7574 H 689.359 1.50262 1.40038 0
M  V30 7575 H 687.589 0.656518 3.81086 0
M  V30 7576 H 689.278 1.06153 3.91773 0
M  V30 7577 H 690.044 3.48458 3.37345 0
M  V30 7578 H 685.923 2.39622 3.93831 0
M  V30 7579 H 689.467 5.84586 3.80663 0
M  V30 7580 H 685.364 4.74851 4.37249 0
M  V30 7581 H 686.132 6.81853 4.52791 0
M  V30 7582 N 688.795 -1.27931 0.920396 0
M  V30 7583 C 689.743 -2.29061 0.404191 0
M  V30 7584 C 690.737 -1.61615 -0.507634 0
M  V30 7585 O 691.943 -1.75765 -0.388144 0
M  V30 7586 H 688.318 -0.743594 0.112123 0
M  V30 7587 H 690.289 -2.70021 1.27008 0
M  V30 7588 C 689.038 -3.46088 -0.334466 0
M  V30 7589 H 688.361 -3.98194 0.35797 0
M  V30 7590 H 689.801 -4.18829 -0.660196 0
M  V30 7591 C 688.26 -2.99396 -1.54479 0
M  V30 7592 O 688.79 -3.02439 -2.64374 0
M  V30 7593 N 686.996 -2.54978 -1.39408 0
M  V30 7594 H 686.543 -2.52701 -0.500009 0
M  V30 7595 H 686.501 -2.24098 -2.20516 0
M  V30 7596 N 690.273 -0.685099 -1.4193 0
M  V30 7597 C 691.55 -0.140152 -1.95097 0
M  V30 7598 C 691.93 1.34745 -1.62502 0
M  V30 7599 O 691.278 2.08872 -0.926534 0
M  V30 7600 C 691.488 -0.420268 -3.4646 0
M  V30 7601 C 692.836 -0.342338 -4.23218 0
M  V30 7602 O 693.86 -0.354592 -3.54431 0
M  V30 7603 O 692.719 -0.293404 -5.45712 0
M  V30 7604 H 689.813 -0.00885998 -0.826953 0
M  V30 7605 H 692.359 -0.760539 -1.51703 0
M  V30 7606 H 691.131 -1.45037 -3.63428 0
M  V30 7607 H 690.754 0.231616 -3.96925 0
M  V30 7608 N 691.751 1.51645 -0.429126 0
M  V30 7609 C 692.991 2.03924 0.139354 0
M  V30 7610 C 693.355 1.30673 1.40672 0
M  V30 7611 O 694.556 1.73282 2.05491 0
M  V30 7612 C 692.827 3.5557 0.361179 0
M  V30 7613 S 694.386 4.29591 0.894241 0
M  V30 7614 H 691.204 0.710103 0.0356986 0
M  V30 7615 H 693.806 1.86491 -0.586644 0
M  V30 7616 H 692.51 4.06455 -0.567686 0
M  V30 7617 H 692.041 3.77283 1.11449 0
M  V30 7618 H 694.056 4.46102 2.17272 0
M  V30 7619 N 693.229 0.160201 1.56784 0
M  V30 7620 C 694.476 -0.487588 1.96542 0
M  V30 7621 C 694.804 -1.63999 1.04569 0
M  V30 7622 O 694.059 -1.95546 0.0775211 0
M  V30 7623 C 694.358 -1.02259 3.42459 0
M  V30 7624 C 694.024 0.0127436 4.50898 0
M  V30 7625 C 692.686 0.297318 4.80281 0
M  V30 7626 C 695.038 0.716078 5.16257 0
M  V30 7627 C 692.366 1.29081 5.72324 0
M  V30 7628 C 694.718 1.69847 6.09372 0
M  V30 7629 C 693.382 1.99061 6.37127 0
M  V30 7630 H 692.652 -0.178421 0.719199 0
M  V30 7631 H 695.299 0.249818 1.89864 0
M  V30 7632 H 693.604 -1.8376 3.46034 0
M  V30 7633 H 695.301 -1.53261 3.70556 0
M  V30 7634 H 691.891 -0.219235 4.28039 0
M  V30 7635 H 696.075 0.509428 4.93679 0
M  V30 7636 H 691.331 1.52344 5.92116 0
M  V30 7637 H 695.505 2.2489 6.59088 0
M  V30 7638 H 693.132 2.76194 7.08252 0
M  V30 7639 N 694.707 -1.5719 -0.113559 0
M  V30 7640 C 695.932 -1.89702 -0.838336 0
M  V30 7641 C 696.357 -0.752679 -1.72384 0
M  V30 7642 O 695.715 0.296575 -1.78858 0
M  V30 7643 C 695.763 -3.20989 -1.64312 0
M  V30 7644 O 694.867 -3.07278 -2.75053 0
M  V30 7645 H 694.208 -0.622339 -0.231496 0
M  V30 7646 H 696.738 -2.04382 -0.0943228 0
M  V30 7647 H 696.748 -3.53843 -2.03123 0
M  V30 7648 H 695.423 -4.03869 -0.993119 0
M  V30 7649 H 694 -2.85901 -2.39406 0
M  V30 7650 N 696.185 0.383891 -1.52853 0
M  V30 7651 C 697.132 1.46924 -1.77995 0
M  V30 7652 C 698.102 1.53958 -0.623396 0
M  V30 7653 O 699.287 1.70134 -0.863657 0
M  V30 7654 C 696.427 2.84093 -1.95921 0
M  V30 7655 C 695.54 2.86171 -3.23621 0
M  V30 7656 C 694.675 4.14799 -3.31836 0
M  V30 7657 C 693.714 4.10948 -4.53639 0
M  V30 7658 N 692.851 5.31192 -4.59107 0
M  V30 7659 H 697.691 1.24786 -2.70615 0
M  V30 7660 H 695.228 0.605265 -1.34071 0
M  V30 7661 H 697.186 3.63755 -2.04299 0
M  V30 7662 H 695.816 3.04671 -1.06656 0
M  V30 7663 H 694.868 1.9885 -3.24288 0
M  V30 7664 H 696.18 2.79194 -4.13343 0
M  V30 7665 H 695.334 5.02867 -3.39425 0
M  V30 7666 H 694.073 4.24505 -2.40097 0
M  V30 7667 H 693.078 3.21268 -4.46169 0
M  V30 7668 H 694.303 4.0286 -5.467 0
M  V30 7669 H 692.249 5.41518 -3.70262 0
M  V30 7670 H 692.166 5.26311 -5.42708 0
M  V30 7671 H 693.434 6.21143 -4.70958 0
M  V30 7672 N 697.663 1.43903 0.642637 0
M  V30 7673 C 698.888 1.49758 1.43483 0
M  V30 7674 C 699.313 0.119911 1.87717 0
M  V30 7675 O 698.671 -0.888558 1.58033 0
M  V30 7676 C 698.719 2.45744 2.63898 0
M  V30 7677 O 697.823 1.95101 3.63331 0
M  V30 7678 H 697.164 0.506138 0.429791 0
M  V30 7679 H 699.694 1.88923 0.785438 0
M  V30 7680 H 699.704 2.63399 3.11584 0
M  V30 7681 H 698.379 3.45818 2.31046 0
M  V30 7682 H 696.956 1.87158 3.22531 0
M  V30 7683 N 699.141 -0.881989 1.30609 0
M  V30 7684 C 700.071 -2.00413 1.1982 0
M  V30 7685 C 701.052 -1.69871 0.0881538 0
M  V30 7686 O 702.237 -1.92304 0.2707 0
M  V30 7687 C 699.367 -3.35641 0.89233 0
M  V30 7688 C 698.321 -3.80451 1.96064 0
M  V30 7689 C 697.647 -5.13003 1.5077 0
M  V30 7690 C 698.947 -3.98855 3.37213 0
M  V30 7691 H 700.641 -2.09698 2.13699 0
M  V30 7692 H 698.187 -1.00754 1.02882 0
M  V30 7693 H 700.14 -4.13669 0.803497 0
M  V30 7694 H 698.864 -3.26497 -0.0821381 0
M  V30 7695 H 697.523 -3.04654 2.03916 0
M  V30 7696 H 697.171 -5.0029 0.521417 0
M  V30 7697 H 696.871 -5.43956 2.22229 0
M  V30 7698 H 698.395 -5.93554 1.43271 0
M  V30 7699 H 699.809 -4.67312 3.32103 0
M  V30 7700 H 698.206 -4.41188 4.06784 0
M  V30 7701 H 699.276 -3.02614 3.78883 0
M  V30 7702 N 700.619 -1.13374 -1.09472 0
M  V30 7703 C 701.567 -0.806105 -2.18185 0
M  V30 7704 C 702.561 0.21136 -1.68076 0
M  V30 7705 O 703.767 0.0685558 -1.79869 0
M  V30 7706 H 700.142 -0.242901 -0.71169 0
M  V30 7707 H 702.113 -1.73115 -2.43051 0
M  V30 7708 C 700.862 -0.287928 -3.46506 0
M  V30 7709 H 700.185 -1.06217 -3.85432 0
M  V30 7710 H 701.625 -0.0971054 -4.23889 0
M  V30 7711 C 700.084 0.986256 -3.22141 0
M  V30 7712 O 700.614 2.06217 -3.44728 0
M  V30 7713 N 698.82 0.917153 -2.75747 0
M  V30 7714 H 698.367 0.0414609 -2.57567 0
M  V30 7715 H 698.325 1.77029 -2.59823 0
M  V30 7716 N 702.098 1.27442 -0.927168 0
M  V30 7717 C 703.347 1.93679 -0.563146 0
M  V30 7718 C 703.66 1.73673 0.899837 0
M  V30 7719 O 704.866 2.34247 1.37262 0
M  V30 7720 C 703.322 3.46961 -0.95636 0
M  V30 7721 C 702.93 3.75724 -2.43999 0
M  V30 7722 C 704.674 4.19282 -0.663565 0
M  V30 7723 C 702.581 5.22378 -2.77263 0
M  V30 7724 H 701.511 0.725059 -0.206894 0
M  V30 7725 H 704.162 1.44743 -1.12791 0
M  V30 7726 H 702.544 3.94703 -0.320254 0
M  V30 7727 H 703.718 3.38741 -3.12396 0
M  V30 7728 H 702.033 3.16605 -2.70463 0
M  V30 7729 H 704.63 5.27265 -0.888596 0
M  V30 7730 H 704.973 4.14382 0.399198 0
M  V30 7731 H 705.506 3.7736 -1.25875 0
M  V30 7732 H 702.245 5.32367 -3.82446 0
M  V30 7733 H 701.765 5.6051 -2.13516 0
M  V30 7734 H 703.444 5.9025 -2.64979 0
M  V30 7735 N 703.576 0.692616 1.41565 0
M  V30 7736 C 704.823 0.222335 2.01276 0
M  V30 7737 C 705.151 -1.17706 1.5484 0
M  V30 7738 O 704.406 -1.80795 0.749118 0
M  V30 7739 C 704.705 0.225073 3.56691 0
M  V30 7740 C 704.371 1.57158 4.22625 0
M  V30 7741 C 703.033 1.94022 4.40351 0
M  V30 7742 C 705.385 2.45758 4.59622 0
M  V30 7743 C 702.713 3.19076 4.92349 0
M  V30 7744 C 705.065 3.70141 5.13009 0
M  V30 7745 C 703.729 4.07152 5.28946 0
M  V30 7746 H 702.999 0.0813581 0.73652 0
M  V30 7747 H 705.646 0.891123 1.69503 0
M  V30 7748 H 703.951 -0.527259 3.88236 0
M  V30 7749 H 705.648 -0.156283 4.00695 0
M  V30 7750 H 702.238 1.27486 4.09201 0
M  V30 7751 H 706.422 2.18558 4.45585 0
M  V30 7752 H 701.678 3.4775 5.02872 0
M  V30 7753 H 705.852 4.38983 5.40617 0
M  V30 7754 H 703.479 5.04125 5.69001 0
M  V30 7755 N 705.054 -1.51416 0.437162 0
M  V30 7756 C 706.302 -2.01687 -0.129108 0
M  V30 7757 C 706.623 -1.32329 -1.43227 0
M  V30 7758 O 705.893 -0.457796 -1.90476 0
M  V30 7759 H 704.473 -0.745277 -0.0507023 0
M  V30 7760 H 707.135 -1.86075 0.579828 0
M  V30 7761 H 706.231 -3.10605 -0.305141 0
M  V30 7762 N 706.532 -0.168513 -1.56696 0
M  V30 7763 C 707.757 0.486688 -2.01609 0
M  V30 7764 C 708.182 1.56203 -1.04796 0
M  V30 7765 O 707.54 1.8128 -0.0270596 0
M  V30 7766 C 707.588 1.04451 -3.45141 0
M  V30 7767 O 706.692 2.15862 -3.51393 0
M  V30 7768 H 706.033 0.116831 -0.653641 0
M  V30 7769 H 708.563 -0.271579 -2.0279 0
M  V30 7770 H 708.573 1.36782 -3.84389 0
M  V30 7771 H 707.248 0.257155 -4.15104 0
M  V30 7772 H 705.825 1.84597 -3.24004 0
M  V30 7773 N 708.01 1.57248 0.105221 0
M  V30 7774 C 709.235 1.90143 0.828264 0
M  V30 7775 C 709.66 0.761811 1.71983 0
M  V30 7776 O 709.018 -0.287086 1.79013 0
M  V30 7777 C 709.066 3.21856 1.62608 0
M  V30 7778 O 708.17 3.08732 2.7342 0
M  V30 7779 H 707.511 0.623558 0.228192 0
M  V30 7780 H 710.041 2.0443 0.0834826 0
M  V30 7781 H 710.051 3.54916 2.01243 0
M  V30 7782 H 708.726 4.0439 0.971687 0
M  V30 7783 H 707.303 2.87167 2.37886 0
M  V30 7784 N 709.488 -0.375779 1.53054 0
M  V30 7785 C 710.734 -1.11767 1.6994 0
M  V30 7786 C 711.089 -1.87288 0.440574 0
M  V30 7787 O 710.382 -1.83045 -0.566146 0
M  V30 7788 C 710.576 -2.11356 2.88207 0
M  V30 7789 C 710.405 -1.45619 4.25471 0
M  V30 7790 C 709.175 -1.21464 4.90484 0
M  V30 7791 C 711.373 -0.899276 5.06377 0
M  V30 7792 N 709.355 -0.519705 6.11696 0
M  V30 7793 C 710.726 -0.333138 6.19104 0
M  V30 7794 C 712.781 -0.79697 4.9148 0
M  V30 7795 C 711.484 0.325316 7.18564 0
M  V30 7796 C 713.51 -0.152315 5.91204 0
M  V30 7797 C 712.872 0.402994 7.03246 0
M  V30 7798 H 708.971 -0.394489 0.675206 0
M  V30 7799 H 711.555 -0.40541 1.90432 0
M  V30 7800 H 709.726 -2.79905 2.69272 0
M  V30 7801 H 711.458 -2.78148 2.93966 0
M  V30 7802 H 708.213 -1.49319 4.49445 0
M  V30 7803 H 708.637 -0.187896 6.76739 0
M  V30 7804 H 713.279 -1.21208 4.05054 0
M  V30 7805 H 710.997 0.752399 8.0459 0
M  V30 7806 H 714.583 -0.074223 5.81753 0
M  V30 7807 H 713.463 0.89394 7.79088 0
M  V30 7808 N 710.966 -1.44241 -0.634997 0
M  V30 7809 C 712.191 -1.50516 -1.42687 0
M  V30 7810 C 712.616 -0.129864 -1.87651 0
M  V30 7811 O 711.974 0.880164 -1.58502 0
M  V30 7812 C 712.022 -2.4714 -2.62591 0
M  V30 7813 O 711.126 -1.97025 -3.62291 0
M  V30 7814 H 710.467 -0.50841 -0.427101 0
M  V30 7815 H 712.997 -1.89337 -0.775408 0
M  V30 7816 H 713.007 -2.65048 -3.10183 0
M  V30 7817 H 711.682 -3.47039 -2.29209 0
M  V30 7818 H 710.259 -1.88866 -3.21534 0
M  V30 7819 N 712.444 0.87505 -1.31075 0
M  V30 7820 C 713.69 1.63009 -1.20647 0
M  V30 7821 C 714.023 1.9276 0.236045 0
M  V30 7822 O 713.298 1.55559 1.16754 0
M  V30 7823 C 713.581 2.96357 -2.0456 0
M  V30 7824 C 713.434 2.73516 -3.57084 0
M  V30 7825 C 714.753 3.974 -1.89107 0
M  V30 7826 H 711.872 0.591518 -0.439631 0
M  V30 7827 H 714.514 1.0119 -1.60812 0
M  V30 7828 H 712.664 3.49119 -1.70435 0
M  V30 7829 H 714.336 2.27465 -4.01319 0
M  V30 7830 H 712.579 2.0784 -3.80769 0
M  V30 7831 H 713.25 3.68377 -4.11099 0
M  V30 7832 H 715.726 3.5383 -2.18961 0
M  V30 7833 H 714.602 4.88596 -2.5013 0
M  V30 7834 H 714.863 4.33794 -0.85296 0
M  V30 7835 N 713.922 1.13953 1.08869 0
M  V30 7836 C 714.854 0.779906 2.15523 0
M  V30 7837 C 715.867 -0.20102 1.61554 0
M  V30 7838 O 717.056 0.0200049 1.78489 0
M  V30 7839 C 714.156 0.136226 3.38626 0
M  V30 7840 C 713.329 1.15069 4.21993 0
M  V30 7841 C 712.388 0.531645 5.23507 0
M  V30 7842 O 711.414 1.19327 5.56552 0
M  V30 7843 N 712.616 -0.693734 5.7634 0
M  V30 7844 H 715.381 1.69769 2.46979 0
M  V30 7845 H 712.942 1.03331 1.24637 0
M  V30 7846 H 714.934 -0.290295 4.03658 0
M  V30 7847 H 713.504 -0.684603 3.05011 0
M  V30 7848 H 712.724 1.75431 3.53012 0
M  V30 7849 H 714.012 1.83614 4.74514 0
M  V30 7850 H 713.41 -1.24994 5.51718 0
M  V30 7851 H 711.967 -1.06283 6.43076 0
M  V30 7852 N 715.4 -1.26948 0.933913 0
M  V30 7853 C 716.811 -1.76058 0.621324 0
M  V30 7854 C 717.162 -1.76175 -0.863522 0
M  V30 7855 O 716.287 -1.36921 -1.67576 0
M  V30 7856 C 716.882 -3.19713 1.12111 0
M  V30 7857 C 715.441 -3.66465 0.859074 0
M  V30 7858 C 714.588 -2.46186 1.27624 0
M  V30 7859 H 717.539 -1.13127 1.11301 0
M  V30 7860 H 717.56 -3.77566 0.471608 0
M  V30 7861 H 717.072 -3.19596 2.20182 0
M  V30 7862 H 715.173 -3.72021 -0.207566 0
M  V30 7863 H 715.286 -4.55636 1.48098 0
M  V30 7864 H 713.65 -2.45042 0.694727 0
M  V30 7865 H 714.433 -2.48774 2.36572 0
M  V30 7866 N 716.879 -0.700114 -1.41195 0
M  V30 7867 C 717.812 0.0129614 -2.28196 0
M  V30 7868 C 718.79 0.783367 -1.42486 0
M  V30 7869 O 719.974 0.773238 -1.71911 0
M  V30 7870 C 717.101 1.02575 -3.22794 0
M  V30 7871 C 716.147 0.347977 -4.25078 0
M  V30 7872 S 716.98 -0.912938 -5.27661 0
M  V30 7873 C 718.136 0.0981362 -6.25823 0
M  V30 7874 H 718.369 -0.724927 -2.88326 0
M  V30 7875 H 715.902 -0.490554 -1.464 0
M  V30 7876 H 717.86 1.60491 -3.77826 0
M  V30 7877 H 716.521 1.73624 -2.61751 0
M  V30 7878 H 715.714 1.11305 -4.91556 0
M  V30 7879 H 715.316 -0.15823 -3.73665 0
M  V30 7880 H 717.608 0.949965 -6.70807 0
M  V30 7881 H 718.551 -0.532838 -7.06092 0
M  V30 7882 H 718.959 0.454944 -5.62664 0
M  V30 7883 N 718.357 1.51182 -0.445186 0
M  V30 7884 C 719.604 2.02152 0.118645 0
M  V30 7885 C 719.932 1.32888 1.42025 0
M  V30 7886 O 719.187 0.435041 1.90803 0
M  V30 7887 C 719.486 3.55408 0.376797 0
M  V30 7888 C 719.152 4.43008 -0.839945 0
M  V30 7889 C 717.814 4.66669 -1.17361 0
M  V30 7890 C 720.166 4.9435 -1.65127 0
M  V30 7891 C 717.494 5.38919 -2.31913 0
M  V30 7892 C 719.846 5.67857 -2.78786 0
M  V30 7893 C 718.51 5.89779 -3.12597 0
M  V30 7894 H 717.78 0.739727 0.0434152 0
M  V30 7895 H 720.427 1.82055 -0.593984 0
M  V30 7896 H 718.732 3.73879 1.1714 0
M  V30 7897 H 720.429 3.92388 0.826602 0
M  V30 7898 H 717.019 4.24793 -0.569958 0
M  V30 7899 H 721.203 4.75947 -1.4067 0
M  V30 7900 H 716.459 5.54105 -2.58413 0
M  V30 7901 H 720.633 6.06628 -3.42017 0
M  V30 7902 H 718.26 6.45542 -4.01471 0
M  V30 7903 N 719.835 0.176821 1.56605 0
M  V30 7904 C 721.251 -0.179278 1.5859 0
M  V30 7905 C 721.451 -1.62433 1.19238 0
M  V30 7906 O 720.507 -2.35665 0.906552 0
M  V30 7907 C 721.82 0.106524 3.00511 0
M  V30 7908 C 723.368 0.0451731 3.12967 0
M  V30 7909 C 723.843 0.304038 4.5699 0
M  V30 7910 N 725.334 0.252008 4.62514 0
M  V30 7911 C 726.069 0.426404 5.71812 0
M  V30 7912 N 725.565 0.660155 6.89648 0
M  V30 7913 N 727.358 0.361926 5.60934 0
M  V30 7914 H 719.509 1.12001 1.8047 0
M  V30 7915 H 721.772 0.445679 0.836704 0
M  V30 7916 H 721.478 1.10778 3.33798 0
M  V30 7917 H 721.352 -0.599337 3.72408 0
M  V30 7918 H 723.739 -0.946662 2.79504 0
M  V30 7919 H 723.82 0.78383 2.43495 0
M  V30 7920 H 723.464 1.29311 4.91163 0
M  V30 7921 H 723.394 -0.455294 5.24628 0
M  V30 7922 H 725.885 0.0772102 3.77821 0
M  V30 7923 H 726.198 0.782529 7.68828 0
M  V30 7924 H 724.543 0.696835 6.91498 0
M  V30 7925 H 727.734 0.17986 4.67754 0
M  V30 7926 H 727.907 0.501263 6.46058 0
M  V30 7927 N 721.313 -1.57302 -0.09688 0
M  V30 7928 C 722.261 -2.02942 -1.13654 0
M  V30 7929 C 723.255 -0.930173 -1.41577 0
M  V30 7930 O 724.461 -1.11535 -1.41279 0
M  V30 7931 H 720.836 -0.646726 -0.383731 0
M  V30 7932 H 722.807 -2.89452 -0.725267 0
M  V30 7933 C 721.556 -2.46815 -2.44903 0
M  V30 7934 H 720.879 -3.30979 -2.24261 0
M  V30 7935 H 722.319 -2.82527 -3.16156 0
M  V30 7936 C 720.778 -1.34071 -3.09074 0
M  V30 7937 O 721.308 -0.668856 -3.96092 0
M  V30 7938 N 719.514 -1.09214 -2.69296 0
M  V30 7939 H 719.061 -1.64029 -1.98626 0
M  V30 7940 H 719.019 -0.339785 -3.12559 0
M  V30 7941 N 722.791 0.367657 -1.53252 0
M  V30 7942 C 724.039 1.10832 -1.68999 0
M  V30 7943 C 724.36 1.89894 -0.443306 0
M  V30 7944 O 723.63 1.88235 0.54262 0
M  V30 7945 H 722.21 0.412153 -0.623008 0
M  V30 7946 H 724.872 0.414775 -1.90435 0
M  V30 7947 H 723.968 1.7993 -2.55013 0
M  V30 7948 N 724.269 1.44576 0.627338 0
M  V30 7949 C 725.497 1.51048 1.41394 0
M  V30 7950 C 725.912 0.136568 1.88305 0
M  V30 7951 O 725.269 -0.858251 1.6106 0
M  V30 7952 C 725.32 2.47837 2.63172 0
M  V30 7953 O 725.041 3.79887 2.18215 0
M  V30 7954 C 726.542 2.63811 3.56257 0
M  V30 7955 H 723.762 0.512171 0.4335 0
M  V30 7956 H 726.306 1.89576 0.766878 0
M  V30 7957 H 724.461 2.12433 3.23961 0
M  V30 7958 H 724.875 4.32177 2.97192 0
M  V30 7959 H 726.349 3.35554 4.38301 0
M  V30 7960 H 726.826 1.69169 4.05313 0
M  V30 7961 H 727.432 3.0013 3.01333 0
M  V30 7962 N 725.747 -0.868086 1.31537 0
M  V30 7963 C 726.993 -1.62359 1.2252 0
M  V30 7964 C 727.348 -1.91204 -0.214169 0
M  V30 7965 O 726.641 -1.5339 -1.14813 0
M  V30 7966 C 726.835 -2.95889 2.0046 0
M  V30 7967 C 726.664 -2.80082 3.5183 0
M  V30 7968 C 725.434 -2.7917 4.21179 0
M  V30 7969 C 727.632 -2.54805 4.46743 0
M  V30 7970 N 725.614 -2.54433 5.58692 0
M  V30 7971 C 726.985 -2.39349 5.71937 0
M  V30 7972 C 729.04 -2.40165 4.36148 0
M  V30 7973 C 727.743 -2.1074 6.87736 0
M  V30 7974 C 729.769 -2.12945 5.51732 0
M  V30 7975 C 729.131 -1.98278 6.75918 0
M  V30 7976 H 725.23 -0.598381 0.503452 0
M  V30 7977 H 727.814 -1.02156 1.65748 0
M  V30 7978 H 725.985 -3.54095 1.59598 0
M  V30 7979 H 727.717 -3.60734 1.83447 0
M  V30 7980 H 724.472 -2.91621 3.73168 0
M  V30 7981 H 724.896 -2.45029 6.31102 0
M  V30 7982 H 729.538 -2.50231 3.408 0
M  V30 7983 H 727.256 -1.99412 7.8311 0
M  V30 7984 H 730.842 -2.02415 5.45454 0
M  V30 7985 H 729.722 -1.77514 7.63845 0
M  V30 7986 N 727.225 -1.14528 -1.08264 0
M  V30 7987 C 728.173 -0.829201 -2.17318 0
M  V30 7988 C 729.167 0.193521 -1.68291 0
M  V30 7989 O 730.373 0.0494744 -1.79932 0
M  V30 7990 H 726.748 -0.250435 -0.709074 0
M  V30 7991 H 728.719 -1.75683 -2.41201 0
M  V30 7992 C 727.468 -0.324663 -3.46181 0
M  V30 7993 H 726.791 -1.10299 -3.84284 0
M  V30 7994 H 728.231 -0.142059 -4.23762 0
M  V30 7995 C 726.69 0.952033 -3.23169 0
M  V30 7996 O 727.22 2.02549 -3.46896 0
M  V30 7997 N 725.426 0.887854 -2.76705 0
M  V30 7998 H 724.973 0.0141402 -2.57596 0
M  V30 7999 H 724.931 1.74263 -2.61686 0
M  V30 8000 N 728.703 1.26451 -0.940633 0
M  V30 8001 C 729.931 1.97868 -0.604642 0
M  V30 8002 C 730.346 1.70051 0.820251 0
M  V30 8003 O 729.703 0.96843 1.54686 0
M  V30 8004 C 729.754 3.51684 -0.836689 0
M  V30 8005 O 729.475 3.78533 -2.20554 0
M  V30 8006 C 730.976 4.40343 -0.511169 0
M  V30 8007 H 728.196 0.631105 -0.227919 0
M  V30 8008 H 730.74 1.60979 -1.26119 0
M  V30 8009 H 728.895 3.86736 -0.226759 0
M  V30 8010 H 729.309 4.73065 -2.26517 0
M  V30 8011 H 730.783 5.47229 -0.724157 0
M  V30 8012 H 731.26 4.35694 0.553815 0
M  V30 8013 H 731.866 4.10834 -1.0998 0
M  V30 8014 N 730.181 0.707592 1.40822 0
M  V30 8015 C 731.131 0.0265008 2.27985 0
M  V30 8016 C 732.115 -0.740685 1.42838 0
M  V30 8017 O 733.307 -0.6142 1.66002 0
M  V30 8018 C 730.436 -0.900382 3.31282 0
M  V30 8019 C 729.522 -0.128807 4.23904 0
M  V30 8020 N 729.913 0.883744 4.9802 0
M  V30 8021 C 728.211 -0.362539 4.44524 0
M  V30 8022 C 728.912 1.34666 5.65898 0
M  V30 8023 N 727.888 0.670306 5.39451 0
M  V30 8024 H 731.69 0.802667 2.82727 0
M  V30 8025 H 729.204 0.539475 1.53178 0
M  V30 8026 H 731.201 -1.40357 3.92563 0
M  V30 8027 H 729.861 -1.67601 2.781 0
M  V30 8028 H 730.872 1.26435 5.0223 0
M  V30 8029 H 727.549 -1.11512 4.02332 0
M  V30 8030 H 728.939 2.18756 6.35292 0
M  V30 8031 N 731.66 -1.50943 0.453197 0
M  V30 8032 C 732.906 -2.02512 -0.108082 0
M  V30 8033 C 733.239 -1.33574 -1.40967 0
M  V30 8034 O 732.514 -0.455671 -1.89087 0
M  V30 8035 C 732.797 -3.58759 -0.310453 0
M  V30 8036 C 732.65 -4.38293 1.0109 0
M  V30 8037 C 733.969 -4.26816 -1.07313 0
M  V30 8038 H 731.088 -0.73603 -0.0378064 0
M  V30 8039 H 733.73 -1.80433 0.595295 0
M  V30 8040 H 731.88 -3.77702 -0.909582 0
M  V30 8041 H 733.552 -4.30964 1.64523 0
M  V30 8042 H 731.795 -4.02745 1.61179 0
M  V30 8043 H 732.466 -5.45828 0.82315 0
M  V30 8044 H 734.942 -4.1224 -0.565473 0
M  V30 8045 H 733.818 -5.35989 -1.1835 0
M  V30 8046 H 734.079 -3.88757 -2.10525 0
M  V30 8047 N 733.138 -0.185124 -1.56509 0
M  V30 8048 C 734.071 0.77877 -2.145 0
M  V30 8049 C 735.049 1.21649 -1.07891 0
M  V30 8050 O 736.233 1.30579 -1.35946 0
M  V30 8051 C 733.36 2.05048 -2.69579 0
M  V30 8052 C 732.406 1.75569 -3.88687 0
M  V30 8053 S 733.239 0.912642 -5.27666 0
M  V30 8054 C 734.395 2.19471 -5.8616 0
M  V30 8055 H 734.628 0.285751 -2.95924 0
M  V30 8056 H 732.161 0.0297417 -1.54371 0
M  V30 8057 H 734.119 2.78085 -3.01958 0
M  V30 8058 H 732.78 2.51462 -1.88216 0
M  V30 8059 H 731.973 2.69962 -4.25601 0
M  V30 8060 H 731.575 1.10619 -3.57267 0
M  V30 8061 H 733.867 3.14815 -5.99915 0
M  V30 8062 H 734.81 1.87005 -6.8296 0
M  V30 8063 H 735.218 2.31862 -5.14685 0
M  V30 8064 N 734.616 1.57351 0.0885366 0
M  V30 8065 C 735.526 2.05858 1.12516 0
M  V30 8066 C 736.542 0.984758 1.43452 0
M  V30 8067 O 737.718 1.29836 1.53963 0
M  V30 8068 C 734.783 2.47882 2.42395 0
M  V30 8069 C 733.844 3.69487 2.18582 0
M  V30 8070 C 733.077 4.09497 3.42268 0
M  V30 8071 O 733.3 3.49536 4.50755 0
M  V30 8072 O 732.234 5.02406 3.31469 0
M  V30 8073 H 736.06 2.94467 0.743146 0
M  V30 8074 H 733.645 1.46326 0.301507 0
M  V30 8075 H 735.527 2.75509 3.18862 0
M  V30 8076 H 734.202 1.62408 2.8001 0
M  V30 8077 H 733.109 3.46967 1.39875 0
M  V30 8078 H 734.442 4.55761 1.85857 0
M  V30 8079 N 736.094 -0.359525 1.53444 0
M  V30 8080 C 737.004 -1.46445 1.83278 0
M  V30 8081 C 738.02 -1.5833 0.721629 0
M  V30 8082 O 739.196 -1.7411 1.01231 0
M  V30 8083 C 736.261 -2.81638 2.02191 0
M  V30 8084 C 735.322 -2.7923 3.26082 0
M  V30 8085 C 734.555 -4.07974 3.44082 0
M  V30 8086 O 734.778 -5.04447 2.66251 0
M  V30 8087 O 733.712 -4.13417 4.37458 0
M  V30 8088 H 737.538 -1.24156 2.77162 0
M  V30 8089 H 735.123 -0.550201 1.389 0
M  V30 8090 H 737.005 -3.61732 2.16167 0
M  V30 8091 H 735.68 -3.03892 1.11496 0
M  V30 8092 H 734.587 -1.97813 3.17523 0
M  V30 8093 H 735.92 -2.6193 4.16718 0
M  V30 8094 N 737.572 -1.44907 -0.619662 0
M  V30 8095 C 738.797 -1.52021 -1.41083 0
M  V30 8096 C 739.222 -0.14976 -1.87503 0
M  V30 8097 O 738.58 0.863303 -1.59426 0
M  V30 8098 C 738.628 -2.49911 -2.59955 0
M  V30 8099 O 737.732 -2.00857 -3.60181 0
M  V30 8100 H 737.073 -0.512912 -0.421684 0
M  V30 8101 H 739.603 -1.90149 -0.755282 0
M  V30 8102 H 739.613 -2.68323 -3.07354 0
M  V30 8103 H 738.288 -3.4945 -2.25516 0
M  V30 8104 H 736.865 -1.92265 -3.19513 0
M  V30 8105 N 739.05 0.861098 -1.31996 0
M  V30 8106 C 739.98 1.98482 -1.22993 0
M  V30 8107 C 740.961 1.6971 -0.115168 0
M  V30 8108 O 742.146 1.91849 -0.30126 0
M  V30 8109 C 739.276 3.34179 -0.945615 0
M  V30 8110 C 738.23 3.77284 -2.02091 0
M  V30 8111 C 737.556 5.1054 -1.58912 0
M  V30 8112 C 738.856 3.93439 -3.43515 0
M  V30 8113 H 740.55 2.06271 -2.17008 0
M  V30 8114 H 738.096 0.991043 -1.04472 0
M  V30 8115 H 740.049 4.12338 -0.869206 0
M  V30 8116 H 738.773 3.26586 0.0301849 0
M  V30 8117 H 737.432 3.01371 -2.08737 0
M  V30 8118 H 737.08 4.99397 -0.600942 0
M  V30 8119 H 736.78 5.40352 -2.30854 0
M  V30 8120 H 738.304 5.91199 -1.52696 0
M  V30 8121 H 739.718 4.6197 -3.39495 0
M  V30 8122 H 738.115 4.34661 -4.13751 0
M  V30 8123 H 739.185 2.96548 -3.8365 0
M  V30 8124 N 740.528 1.15101 1.07655 0
M  V30 8125 C 741.758 0.946357 1.83651 0
M  V30 8126 C 742.166 -0.508641 1.82235 0
M  V30 8127 O 741.509 -1.36445 1.22997 0
M  V30 8128 C 741.571 1.37945 3.31981 0
M  V30 8129 C 741.235 2.85155 3.57122 0
M  V30 8130 C 742.232 3.83234 3.51323 0
M  V30 8131 C 739.917 3.2275 3.84887 0
M  V30 8132 C 741.911 5.16914 3.72932 0
M  V30 8133 C 739.598 4.56604 4.06148 0
M  V30 8134 C 740.596 5.53495 4.00165 0
M  V30 8135 O 740.284 6.84931 4.20861 0
M  V30 8136 H 740.016 0.336368 0.586372 0
M  V30 8137 H 742.57 1.53198 1.36819 0
M  V30 8138 H 740.8 0.737205 3.79608 0
M  V30 8139 H 742.489 1.14439 3.89434 0
M  V30 8140 H 743.255 3.55535 3.29878 0
M  V30 8141 H 739.134 2.47921 3.88659 0
M  V30 8142 H 742.678 5.92529 3.68178 0
M  V30 8143 H 738.575 4.84019 4.27078 0
M  V30 8144 H 739.343 6.91304 4.38226 0
M  V30 8145 N 742.006 -1.2595 0.947325 0
M  V30 8146 C 742.936 -2.28521 0.479604 0
M  V30 8147 C 743.917 -1.63469 -0.470293 0
M  V30 8148 O 745.102 -1.90627 -0.370824 0
M  V30 8149 C 742.232 -3.46397 -0.250289 0
M  V30 8150 C 741.186 -4.23578 0.613643 0
M  V30 8151 C 740.512 -5.34131 -0.246568 0
M  V30 8152 C 741.812 -4.86979 1.88809 0
M  V30 8153 H 743.506 -2.67895 1.33688 0
M  V30 8154 H 741.052 -1.28783 0.644274 0
M  V30 8155 H 743.005 -4.17269 -0.588576 0
M  V30 8156 H 741.729 -3.05993 -1.14175 0
M  V30 8157 H 740.388 -3.54478 0.93491 0
M  V30 8158 H 740.036 -4.89968 -1.13756 0
M  V30 8159 H 739.736 -5.86683 0.328123 0
M  V30 8160 H 741.26 -6.07839 -0.579986 0
M  V30 8161 H 742.674 -5.50034 1.61666 0
M  V30 8162 H 741.071 -5.49675 2.40784 0
M  V30 8163 H 742.141 -4.09575 2.5957 0
M  V30 8164 N 743.484 -0.715051 -1.40445 0
M  V30 8165 C 744.416 -0.0227516 -2.29189 0
M  V30 8166 C 745.429 0.724313 -1.458 0
M  V30 8167 O 746.618 0.571781 -1.69094 0
M  V30 8168 C 743.718 0.992038 -3.24055 0
M  V30 8169 C 742.891 0.310613 -4.36296 0
M  V30 8170 C 741.95 1.23071 -5.11605 0
M  V30 8171 O 740.976 0.71571 -5.64682 0
M  V30 8172 N 742.178 2.56188 -5.2091 0
M  V30 8173 H 744.943 -0.78473 -2.89244 0
M  V30 8174 H 742.504 -0.562637 -1.51809 0
M  V30 8175 H 744.496 1.60973 -3.71308 0
M  V30 8176 H 743.066 1.65538 -2.65171 0
M  V30 8177 H 742.286 -0.487269 -3.91177 0
M  V30 8178 H 743.574 -0.162415 -5.08541 0
M  V30 8179 H 742.972 3.00527 -4.7927 0
M  V30 8180 H 741.529 3.13103 -5.71673 0
M  V30 8181 N 744.962 1.50701 -0.461195 0
M  V30 8182 C 745.892 2.31182 0.328184 0
M  V30 8183 C 746.873 1.37644 0.999408 0
M  V30 8184 O 748.058 1.66565 0.99848 0
M  V30 8185 C 745.188 3.17113 1.41621 0
M  V30 8186 C 744.142 4.19124 0.867148 0
M  V30 8187 C 743.468 4.93728 2.05272 0
M  V30 8188 C 744.768 5.22174 -0.114808 0
M  V30 8189 H 746.462 2.97423 -0.343501 0
M  V30 8190 H 744.008 1.43033 -0.166641 0
M  V30 8191 H 745.961 3.72208 1.97584 0
M  V30 8192 H 744.685 2.48739 2.11652 0
M  V30 8193 H 743.344 3.65116 0.329557 0
M  V30 8194 H 742.992 4.21835 2.73978 0
M  V30 8195 H 742.692 5.62724 1.69161 0
M  V30 8196 H 744.216 5.51654 2.61744 0
M  V30 8197 H 745.63 5.72198 0.355316 0
M  V30 8198 H 744.027 5.98833 -0.389689 0
M  V30 8199 H 745.097 4.7353 -1.04391 0
M  V30 8200 N 746.441 0.193421 1.56409 0
M  V30 8201 C 747.718 -0.493318 1.89277 0
M  V30 8202 C 748.098 -1.79765 1.10669 0
M  V30 8203 O 747.446 -2.27558 0.207274 0
M  V30 8204 C 747.656 -0.713732 3.41624 0
M  V30 8205 C 749.004 -1.03385 4.11821 0
M  V30 8206 O 750.028 -0.801511 3.47065 0
M  V30 8207 O 748.887 -1.47327 5.26267 0
M  V30 8208 H 745.981 -0.256973 0.786062 0
M  V30 8209 H 748.527 0.23351 1.68086 0
M  V30 8210 H 747.299 0.207446 3.9075 0
M  V30 8211 H 746.922 -1.49308 3.68501 0
M  V30 8212 N 747.919 -1.57396 -0.0801906 0
M  V30 8213 C 749.33 -1.75642 -0.633002 0
M  V30 8214 C 749.681 -0.817708 -1.78348 0
M  V30 8215 O 748.806 0.000233743 -2.164 0
M  V30 8216 C 749.401 -3.18502 -1.15507 0
M  V30 8217 C 747.96 -3.38121 -1.65381 0
M  V30 8218 C 747.107 -2.71386 -0.569661 0
M  V30 8219 H 750.058 -1.58027 0.145949 0
M  V30 8220 H 750.079 -3.22198 -2.02408 0
M  V30 8221 H 749.591 -3.86799 -0.317515 0
M  V30 8222 H 747.692 -2.74926 -2.51488 0
M  V30 8223 H 747.805 -4.46521 -1.73654 0
M  V30 8224 H 746.169 -2.33702 -1.0127 0
M  V30 8225 H 746.952 -3.42332 0.257561 0
M  V30 8226 N 749.397 0.351382 -1.53633 0
M  V30 8227 C 750.36 1.41403 -1.80383 0
M  V30 8228 C 751.36 1.45963 -0.674635 0
M  V30 8229 O 752.55 1.46476 -0.942895 0
M  V30 8230 C 749.682 2.80401 -1.93876 0
M  V30 8231 H 750.875 1.18951 -2.75301 0
M  V30 8232 H 748.428 0.58533 -1.44926 0
M  V30 8233 H 749.163 3.08147 -1.01074 0
M  V30 8234 H 748.948 2.78488 -2.7602 0
M  V30 8235 H 750.438 3.57329 -2.16116 0
M  V30 8236 N 750.875 1.45233 0.611969 0
M  V30 8237 C 752.124 1.48296 1.36716 0
M  V30 8238 C 752.437 0.12706 1.95187 0
M  V30 8239 O 753.643 0.0353066 2.71477 0
M  V30 8240 C 752.099 2.61168 2.47627 0
M  V30 8241 C 751.707 4.03051 1.95587 0
M  V30 8242 C 753.451 2.73472 3.24674 0
M  V30 8243 C 751.358 5.07312 3.03954 0
M  V30 8244 H 750.288 0.5518 0.513841 0
M  V30 8245 H 752.939 1.7136 0.656359 0
M  V30 8246 H 751.321 2.31379 3.21372 0
M  V30 8247 H 752.495 4.42497 1.2858 0
M  V30 8248 H 750.81 3.95158 1.31298 0
M  V30 8249 H 753.407 3.48537 4.05494 0
M  V30 8250 H 753.75 1.79953 3.75397 0
M  V30 8251 H 754.283 3.02765 2.58028 0
M  V30 8252 H 751.022 6.02525 2.58154 0
M  V30 8253 H 750.542 4.7244 3.69541 0
M  V30 8254 H 752.221 5.31867 3.6841 0
M  V30 8255 N 752.353 -0.854086 1.3245 0
M  V30 8256 C 753.764 -1.42427 1.20712 0
M  V30 8257 C 754.115 -1.95371 -0.18013 0
M  V30 8258 O 753.24 -1.87587 -1.07889 0
M  V30 8259 C 753.835 -2.58897 2.18536 0
M  V30 8260 C 752.394 -3.11913 2.10683 0
M  V30 8261 C 751.541 -1.84661 2.06871 0
M  V30 8262 H 754.492 -0.661192 1.4427 0
M  V30 8263 H 754.513 -3.36074 1.78422 0
M  V30 8264 H 754.025 -2.20333 3.19492 0
M  V30 8265 H 752.126 -3.55059 1.12977 0
M  V30 8266 H 752.239 -3.73119 3.00532 0
M  V30 8267 H 750.603 -2.04285 1.52118 0
M  V30 8268 H 751.386 -1.48314 3.09609 0
M  V30 8269 N 753.831 -1.1567 -1.07043 0
M  V30 8270 C 755.079 -0.931673 -1.79344 0
M  V30 8271 C 755.4 0.542421 -1.87304 0
M  V30 8272 O 754.67 1.39418 -1.37621 0
M  V30 8273 H 753.25 -0.34171 -0.664262 0
M  V30 8274 H 755.912 -1.45795 -1.29344 0
M  V30 8275 H 755.008 -1.34379 -2.81689 0
M  V30 8276 N 755.309 1.25446 -0.953992 0
M  V30 8277 C 756.555 1.9343 -0.60933 0
M  V30 8278 C 756.888 1.74542 0.851388 0
M  V30 8279 O 756.163 1.09014 1.61078 0
M  V30 8280 C 756.446 3.46844 -0.968041 0
M  V30 8281 C 756.299 3.74961 -2.48444 0
M  V30 8282 C 757.618 4.37334 -0.492641 0
M  V30 8283 H 754.737 0.702502 -0.222844 0
M  V30 8284 H 757.379 1.48076 -1.19053 0
M  V30 8285 H 755.529 3.85604 -0.473465 0
M  V30 8286 H 757.201 3.45841 -3.05273 0
M  V30 8287 H 755.444 3.20589 -2.92241 0
M  V30 8288 H 756.115 4.82246 -2.68594 0
M  V30 8289 H 758.591 4.05873 -0.916878 0
M  V30 8290 H 757.467 5.43439 -0.772331 0
M  V30 8291 H 757.728 4.37908 0.607403 0
M  V30 8292 N 756.787 0.722489 1.40064 0
M  V30 8293 C 758.017 0.274439 2.04769 0
M  V30 8294 C 758.425 -1.09125 1.54559 0
M  V30 8295 O 757.768 -1.69834 0.700149 0
M  V30 8296 C 757.83 0.184091 3.59028 0
M  V30 8297 C 757.494 1.48619 4.32159 0
M  V30 8298 C 758.491 2.42947 4.59644 0
M  V30 8299 C 756.176 1.74703 4.7094 0
M  V30 8300 C 758.17 3.616 5.24904 0
M  V30 8301 C 755.857 2.93636 5.3593 0
M  V30 8302 C 756.855 3.86907 5.62843 0
M  V30 8303 O 756.543 5.03753 6.26489 0
M  V30 8304 H 756.275 0.119847 0.665292 0
M  V30 8305 H 758.829 0.983352 1.80331 0
M  V30 8306 H 757.059 -0.580821 3.82313 0
M  V30 8307 H 758.748 -0.230306 4.05246 0
M  V30 8308 H 759.514 2.24062 4.30141 0
M  V30 8309 H 755.393 1.02955 4.49356 0
M  V30 8310 H 758.937 4.34418 5.45827 0
M  V30 8311 H 754.834 3.12428 5.64853 0
M  V30 8312 H 755.602 5.03922 6.44984 0
M  V30 8313 N 758.265 -1.50454 0.469181 0
M  V30 8314 C 759.512 -2.02315 -0.086469 0
M  V30 8315 C 759.84 -1.3513 -1.39893 0
M  V30 8316 O 759.095 -0.465341 -1.90087 0
M  V30 8317 C 759.394 -3.55963 -0.320207 0
M  V30 8318 C 759.06 -4.41615 0.910318 0
M  V30 8319 C 757.722 -4.64743 1.2477 0
M  V30 8320 C 760.074 -4.91661 1.72971 0
M  V30 8321 C 757.402 -5.35161 2.40457 0
M  V30 8322 C 759.754 -5.6335 2.87785 0
M  V30 8323 C 758.418 -5.84732 3.2194 0
M  V30 8324 H 757.688 -0.740324 -0.0316412 0
M  V30 8325 H 760.335 -1.81087 0.622872 0
M  V30 8326 H 758.64 -3.75695 -1.11177 0
M  V30 8327 H 760.337 -3.93653 -0.764071 0
M  V30 8328 H 756.927 -4.23833 0.637467 0
M  V30 8329 H 761.111 -4.73649 1.48224 0
M  V30 8330 H 756.367 -5.49924 2.67196 0
M  V30 8331 H 760.541 -6.0111 3.51624 0
M  V30 8332 H 758.168 -6.39074 4.1169 0
M  V30 8333 N 759.743 -0.201713 -1.56304 0
M  V30 8334 C 760.991 0.434447 -1.97375 0
M  V30 8335 C 761.312 1.61692 -1.08998 0
M  V30 8336 O 760.582 1.95223 -0.162682 0
M  V30 8337 H 759.162 0.163497 -0.728888 0
M  V30 8338 H 761.824 -0.289988 -1.92731 0
M  V30 8339 H 760.92 0.774136 -3.02347 0
M  V30 8340 N 761.222 1.57436 0.0718424 0
M  V30 8341 C 762.17 2.04725 1.10411 0
M  V30 8342 C 763.164 0.952579 1.4008 0
M  V30 8343 O 764.37 1.13769 1.39487 0
M  V30 8344 H 760.745 0.652749 0.373393 0
M  V30 8345 H 762.716 2.90569 0.679126 0
M  V30 8346 C 761.465 2.5068 2.40946 0
M  V30 8347 H 760.788 3.34505 2.18967 0
M  V30 8348 H 762.228 2.87521 3.11621 0
M  V30 8349 C 760.687 1.38971 3.06902 0
M  V30 8350 O 761.217 0.731786 3.94978 0
M  V30 8351 N 759.423 1.13485 2.67525 0
M  V30 8352 H 758.97 1.67168 1.95991 0
M  V30 8353 H 758.928 0.389467 3.11978 0
M  V30 8354 N 762.7 -0.34323 1.53817 0
M  V30 8355 C 764.111 -0.918823 1.62525 0
M  V30 8356 C 764.462 -1.89542 0.506765 0
M  V30 8357 O 763.587 -2.13326 -0.363441 0
M  V30 8358 C 764.182 -1.67326 2.94597 0
M  V30 8359 C 762.741 -2.19786 3.05567 0
M  V30 8360 C 761.888 -1.01708 2.57974 0
M  V30 8361 H 764.839 -0.121358 1.58235 0
M  V30 8362 H 764.86 -2.53615 2.83654 0
M  V30 8363 H 764.372 -0.962223 3.75983 0
M  V30 8364 H 762.473 -2.94065 2.28816 0
M  V30 8365 H 762.586 -2.46135 4.1104 0
M  V30 8366 H 760.95 -1.39058 2.13389 0
M  V30 8367 H 761.733 -0.320671 3.41799 0
M  V30 8368 N 764.178 -1.45556 -0.604258 0
M  V30 8369 C 765.408 -1.53056 -1.38771 0
M  V30 8370 C 765.816 -0.163092 -1.88496 0
M  V30 8371 O 765.159 0.846157 -1.63052 0
M  V30 8372 C 765.221 -2.45656 -2.62476 0
M  V30 8373 C 764.885 -3.92328 -2.34367 0
M  V30 8374 C 765.882 -4.82137 -1.94525 0
M  V30 8375 C 763.567 -4.37275 -2.47177 0
M  V30 8376 C 765.561 -6.14901 -1.67856 0
M  V30 8377 C 763.248 -5.70079 -2.20122 0
M  V30 8378 C 764.246 -6.58711 -1.80524 0
M  V30 8379 O 763.934 -7.89053 -1.53788 0
M  V30 8380 H 763.666 -0.520721 -0.431075 0
M  V30 8381 H 766.22 -1.91464 -0.743693 0
M  V30 8382 H 764.45 -2.02225 -3.29609 0
M  V30 8383 H 766.139 -2.43802 -3.24523 0
M  V30 8384 H 766.905 -4.48675 -1.84162 0
M  V30 8385 H 762.784 -3.68527 -2.76964 0
M  V30 8386 H 766.328 -6.8404 -1.36874 0
M  V30 8387 H 762.225 -6.03095 -2.30102 0
M  V30 8388 H 762.993 -8.01113 -1.67812 0
M  V30 8389 N 765.656 0.84705 -1.32902 0
M  V30 8390 C 767.067 1.41785 -1.21466 0
M  V30 8391 C 767.418 1.95464 0.169767 0
M  V30 8392 O 766.543 1.88157 1.06892 0
M  V30 8393 C 767.138 2.57734 -2.19906 0
M  V30 8394 C 765.697 3.10791 -2.12334 0
M  V30 8395 C 764.844 1.83562 -2.07847 0
M  V30 8396 H 767.795 0.653532 -1.44619 0
M  V30 8397 H 767.816 3.35123 -1.80202 0
M  V30 8398 H 767.328 2.18635 -3.20656 0
M  V30 8399 H 765.429 3.54455 -1.14858 0
M  V30 8400 H 765.542 3.71519 -3.02506 0
M  V30 8401 H 763.906 2.03475 -1.53199 0
M  V30 8402 H 764.689 1.4667 -3.10392 0
M  V30 8403 N 767.134 1.16236 1.06428 0
M  V30 8404 C 768.381 0.943034 1.79201 0
M  V30 8405 C 768.709 -0.529243 1.87161 0
M  V30 8406 O 767.964 -1.40874 1.35842 0
M  V30 8407 C 768.263 1.51396 3.2375 0
M  V30 8408 C 767.929 3.00833 3.35873 0
M  V30 8409 C 766.591 3.41626 3.38888 0
M  V30 8410 C 768.943 3.96825 3.37904 0
M  V30 8411 C 766.271 4.77033 3.4155 0
M  V30 8412 C 768.623 5.32116 3.42104 0
M  V30 8413 C 767.287 5.72392 3.43401 0
M  V30 8414 H 766.557 0.34508 0.655744 0
M  V30 8415 H 769.204 1.44929 1.25171 0
M  V30 8416 H 767.509 0.929114 3.80624 0
M  V30 8417 H 769.206 1.31996 3.78653 0
M  V30 8418 H 765.796 2.68306 3.3423 0
M  V30 8419 H 769.98 3.66376 3.34787 0
M  V30 8420 H 765.236 5.07569 3.40858 0
M  V30 8421 H 769.41 6.06286 3.42623 0
M  V30 8422 H 767.037 6.77296 3.45216 0
M  V30 8423 N 768.612 -1.24939 0.960631 0
M  V30 8424 C 769.86 -1.92437 0.617441 0
M  V30 8425 C 770.181 -1.75543 -0.849101 0
M  V30 8426 O 769.451 -1.12269 -1.60538 0
M  V30 8427 H 768.031 -0.712192 0.225371 0
M  V30 8428 H 770.693 -1.5198 1.22017 0
M  V30 8429 H 769.789 -3.00247 0.851933 0
M  V30 8430 N 770.09 -0.729906 -1.39679 0
M  V30 8431 C 771.339 -0.272534 -1.9985 0
M  V30 8432 C 771.652 1.14519 -1.58571 0
M  V30 8433 O 772.858 1.70182 -2.11543 0
M  V30 8434 C 771.314 -0.436322 -3.57245 0
M  V30 8435 C 770.922 -1.86161 -4.0749 0
M  V30 8436 C 772.666 -0.0404679 -4.24481 0
M  V30 8437 C 770.573 -1.97522 -5.5744 0
M  V30 8438 H 769.503 -0.0981428 -0.747585 0
M  V30 8439 H 772.154 -0.903056 -1.59741 0
M  V30 8440 H 770.536 0.263015 -3.95126 0
M  V30 8441 H 771.71 -2.59248 -3.80955 0
M  V30 8442 H 770.025 -2.21021 -3.529 0
M  V30 8443 H 772.622 -0.104437 -5.34598 0
M  V30 8444 H 772.965 1.00357 -4.04023 0
M  V30 8445 H 773.498 -0.690774 -3.91757 0
M  V30 8446 H 770.237 -3.00096 -5.82771 0
M  V30 8447 H 769.757 -1.28864 -5.85794 0
M  V30 8448 H 771.436 -1.754 -6.22771 0
M  V30 8449 N 771.568 1.50203 -0.477153 0
M  V30 8450 C 772.845 1.95115 0.137609 0
M  V30 8451 C 773.225 1.41778 1.56404 0
M  V30 8452 O 772.573 0.621333 2.1989 0
M  V30 8453 C 772.783 3.4892 0.0747168 0
M  V30 8454 C 774.131 4.238 0.260585 0
M  V30 8455 O 775.155 3.5588 0.151021 0
M  V30 8456 O 774.014 5.44366 0.482534 0
M  V30 8457 H 771.108 0.81987 0.108364 0
M  V30 8458 H 773.654 1.60946 -0.537989 0
M  V30 8459 H 772.426 3.80308 -0.920966 0
M  V30 8460 H 772.049 3.89642 0.791509 0
M  V30 8461 N 773.046 0.209999 1.56195 0
M  V30 8462 C 774.457 -0.299943 1.84275 0
M  V30 8463 C 774.808 -1.60314 1.1311 0
M  V30 8464 O 773.933 -2.1273 0.396874 0
M  V30 8465 C 774.528 -0.550986 3.3429 0
M  V30 8466 C 773.087 -1.00526 3.62728 0
M  V30 8467 C 772.234 -0.0619828 2.77231 0
M  V30 8468 H 775.185 0.433458 1.52666 0
M  V30 8469 H 775.206 -1.39846 3.53869 0
M  V30 8470 H 774.718 0.397669 3.86057 0
M  V30 8471 H 772.819 -1.96768 3.16407 0
M  V30 8472 H 772.932 -0.887664 4.70805 0
M  V30 8473 H 771.296 -0.566648 2.48317 0
M  V30 8474 H 772.079 0.881383 3.31793 0
M  V30 8475 N 774.524 -1.57472 -0.0634922 0
M  V30 8476 C 775.773 -1.86837 -0.759928 0
M  V30 8477 C 776.086 -0.803823 -1.7832 0
M  V30 8478 O 777.292 -0.985578 -2.52979 0
M  V30 8479 C 775.748 -3.31448 -1.4025 0
M  V30 8480 C 775.356 -4.46052 -0.417368 0
M  V30 8481 C 777.1 -3.70003 -2.08082 0
M  V30 8482 C 775.007 -5.81707 -1.06633 0
M  V30 8483 H 773.937 -0.697009 -0.287567 0
M  V30 8484 H 776.588 -1.83495 -0.0133914 0
M  V30 8485 H 774.97 -3.29427 -2.19759 0
M  V30 8486 H 776.144 -4.5948 0.348503 0
M  V30 8487 H 774.459 -4.16104 0.156955 0
M  V30 8488 H 777.056 -4.68653 -2.57426 0
M  V30 8489 H 777.399 -3.00226 -2.88393 0
M  V30 8490 H 777.932 -3.7405 -1.35394 0
M  V30 8491 H 774.671 -6.54798 -0.303374 0
M  V30 8492 H 774.191 -5.72064 -1.80286 0
M  V30 8493 H 775.87 -6.27317 -1.58376 0
M  V30 8494 N 776.003 0.335068 -1.53997 0
M  V30 8495 C 777.249 1.07222 -1.72844 0
M  V30 8496 C 777.604 1.86054 -0.490075 0
M  V30 8497 O 776.897 1.84481 0.517416 0
M  V30 8498 C 777.091 2.0364 -2.9371 0
M  V30 8499 C 776.92 1.34287 -4.29182 0
M  V30 8500 C 775.69 1.08417 -4.93532 0
M  V30 8501 C 777.888 0.764703 -5.08583 0
M  V30 8502 N 775.87 0.357342 -6.12859 0
M  V30 8503 C 777.241 0.168876 -6.1977 0
M  V30 8504 C 779.296 0.666383 -4.9342 0
M  V30 8505 C 777.999 -0.515716 -7.17449 0
M  V30 8506 C 780.025 -0.0044859 -5.914 0
M  V30 8507 C 779.387 -0.589305 -7.01931 0
M  V30 8508 H 775.486 0.376448 -0.685427 0
M  V30 8509 H 778.07 0.354778 -1.9144 0
M  V30 8510 H 776.241 2.72668 -2.76599 0
M  V30 8511 H 777.973 2.70256 -3.01237 0
M  V30 8512 H 774.728 1.37351 -4.53246 0
M  V30 8513 H 775.152 0.00840481 -6.76999 0
M  V30 8514 H 779.794 1.10426 -4.08125 0
M  V30 8515 H 777.512 -0.965457 -8.02312 0
M  V30 8516 H 781.098 -0.0800446 -5.81745 0
M  V30 8517 H 779.978 -1.10019 -7.76444 0
M  V30 8518 N 777.481 1.45874 0.596531 0
M  V30 8519 C 778.429 1.55739 1.72766 0
M  V30 8520 C 779.423 0.426666 1.63939 0
M  V30 8521 O 780.629 0.60301 1.69599 0
M  V30 8522 H 777.004 0.489386 0.570968 0
M  V30 8523 H 778.975 2.50871 1.61575 0
M  V30 8524 C 777.724 1.55174 3.11153 0
M  V30 8525 H 777.047 2.41511 3.1861 0
M  V30 8526 H 778.487 1.66133 3.90097 0
M  V30 8527 C 776.946 0.278001 3.35751 0
M  V30 8528 O 777.476 -0.637557 3.96608 0
M  V30 8529 N 775.682 0.170227 2.90101 0
M  V30 8530 H 775.229 0.916159 2.40758 0
M  V30 8531 H 775.187 -0.68117 3.06932 0
M  V30 8532 N 778.959 -0.83999 1.33349 0
M  V30 8533 C 779.889 -1.965 1.26135 0
M  V30 8534 C 780.87 -1.69505 0.142152 0
M  V30 8535 O 782.055 -1.91346 0.331743 0
M  V30 8536 C 779.185 -3.32632 0.99866 0
M  V30 8537 C 778.139 -3.74021 2.08068 0
M  V30 8538 C 777.465 -5.07947 1.67014 0
M  V30 8539 C 778.765 -3.87925 3.49731 0
M  V30 8540 H 780.459 -2.02793 2.20262 0
M  V30 8541 H 778.005 -0.974297 1.06035 0
M  V30 8542 H 779.958 -4.10903 0.934696 0
M  V30 8543 H 778.682 -3.26593 0.0217759 0
M  V30 8544 H 777.341 -2.98012 2.13505 0
M  V30 8545 H 776.989 -4.98378 0.680316 0
M  V30 8546 H 776.689 -5.36611 2.39422 0
M  V30 8547 H 778.213 -5.88695 1.62082 0
M  V30 8548 H 779.627 -4.5651 3.46802 0
M  V30 8549 H 778.024 -4.28023 4.20614 0
M  V30 8550 H 779.094 -2.90407 3.88319 0
M  V30 8551 N 780.437 -1.16799 -1.0581 0
M  V30 8552 C 781.4 -0.881396 -2.11575 0
M  V30 8553 C 782.4 0.12574 -1.60308 0
M  V30 8554 O 783.59 -0.105716 -1.73879 0
M  V30 8555 C 780.722 -0.319037 -3.39404 0
M  V30 8556 H 781.915 -1.81907 -2.38432 0
M  V30 8557 H 779.468 -0.977597 -1.21954 0
M  V30 8558 H 780.203 0.626082 -3.18199 0
M  V30 8559 H 779.988 -1.04481 -3.77923 0
M  V30 8560 H 781.478 -0.13663 -4.17376 0
M  V30 8561 N 781.915 1.24427 -0.967243 0
M  V30 8562 C 783.14 1.9708 -0.646069 0
M  V30 8563 C 783.565 1.71272 0.777665 0
M  V30 8564 O 782.923 0.976179 1.52776 0
M  V30 8565 C 782.971 3.48501 -0.926266 0
M  V30 8566 O 782.075 4.12398 -0.0114653 0
M  V30 8567 H 781.416 0.617423 -0.244304 0
M  V30 8568 H 783.946 1.58215 -1.29727 0
M  V30 8569 H 783.956 3.98885 -0.857619 0
M  V30 8570 H 782.631 3.66613 -1.96386 0
M  V30 8571 H 781.208 3.72661 -0.133396 0
M  V30 8572 N 783.393 0.737304 1.3929 0
M  V30 8573 C 784.341 0.0879867 2.32434 0
M  V30 8574 C 785.335 -0.723324 1.53181 0
M  V30 8575 O 786.541 -0.624251 1.68829 0
M  V30 8576 H 782.916 0.00965277 0.751938 0
M  V30 8577 H 784.887 0.889915 2.84821 0
M  V30 8578 C 783.636 -0.803384 3.38291 0
M  V30 8579 H 782.959 -0.18849 3.99355 0
M  V30 8580 H 784.399 -1.22528 4.0591 0
M  V30 8581 C 782.858 -1.93872 2.75527 0
M  V30 8582 O 783.388 -3.03154 2.63553 0
M  V30 8583 N 781.594 -1.72883 2.3358 0
M  V30 8584 H 781.141 -0.840005 2.43519 0
M  V30 8585 H 781.099 -2.49021 1.91927 0
M  V30 8586 N 784.871 -1.49948 0.485112 0
M  V30 8587 C 785.818 -2.28819 -0.301729 0
M  V30 8588 C 786.788 -1.34496 -0.974683 0
M  V30 8589 O 787.973 -1.63444 -0.984418 0
M  V30 8590 C 785.113 -3.16758 -1.36961 0
M  V30 8591 C 784.226 -4.26125 -0.710027 0
M  V30 8592 C 783.361 -5.01302 -1.75699 0
M  V30 8593 C 782.4 -6.02525 -1.07841 0
M  V30 8594 N 781.537 -6.70927 -2.06886 0
M  V30 8595 H 786.377 -2.95604 0.377127 0
M  V30 8596 H 783.914 -1.45764 0.197826 0
M  V30 8597 H 785.872 -3.66106 -2.00056 0
M  V30 8598 H 784.502 -2.51991 -2.01744 0
M  V30 8599 H 783.554 -3.80385 0.0338278 0
M  V30 8600 H 784.866 -4.98493 -0.175079 0
M  V30 8601 H 784.02 -5.54438 -2.46339 0
M  V30 8602 H 782.759 -4.28672 -2.32577 0
M  V30 8603 H 781.764 -5.48635 -0.357706 0
M  V30 8604 H 782.989 -6.77134 -0.516345 0
M  V30 8605 H 780.935 -6.01079 -2.62755 0
M  V30 8606 H 780.852 -7.39216 -1.58414 0
M  V30 8607 H 782.12 -7.28675 -2.76863 0
M  V30 8608 N 786.349 -0.21828 -1.56081 0
M  V30 8609 C 787.279 0.687922 -2.23136 0
M  V30 8610 C 788.26 1.20357 -1.202 0
M  V30 8611 O 789.445 1.24817 -1.48776 0
M  V30 8612 C 786.575 1.89762 -2.90874 0
M  V30 8613 C 785.529 1.51595 -4.00254 0
M  V30 8614 C 784.855 2.80415 -4.55271 0
M  V30 8615 C 786.155 0.708404 -5.17474 0
M  V30 8616 H 787.849 0.128854 -2.99123 0
M  V30 8617 H 785.395 0.0605354 -1.43873 0
M  V30 8618 H 787.348 2.53699 -3.36474 0
M  V30 8619 H 786.072 2.4816 -2.1233 0
M  V30 8620 H 784.731 0.900058 -3.55379 0
M  V30 8621 H 784.379 3.36951 -3.73461 0
M  V30 8622 H 784.079 2.55613 -5.2909 0
M  V30 8623 H 785.603 3.453 -5.03587 0
M  V30 8624 H 787.017 1.2514 -5.59476 0
M  V30 8625 H 785.414 0.557593 -5.97504 0
M  V30 8626 H 786.484 -0.285679 -4.84058 0
M  V30 8627 N 787.827 1.57504 0.0551401 0
M  V30 8628 C 789.055 1.92294 0.76358 0
M  V30 8629 C 789.47 0.815774 1.70266 0
M  V30 8630 O 788.827 -0.209772 1.8129 0
M  V30 8631 C 788.878 3.26914 1.54302 0
M  V30 8632 O 788.599 4.33375 0.641666 0
M  V30 8633 C 790.1 3.75825 2.35097 0
M  V30 8634 H 787.32 0.635229 0.216159 0
M  V30 8635 H 789.864 2.0449 0.0204385 0
M  V30 8636 H 788.019 3.16196 2.23828 0
M  V30 8637 H 788.433 5.10927 1.1855 0
M  V30 8638 H 789.907 4.72603 2.8522 0
M  V30 8639 H 790.384 3.0568 3.15367 0
M  V30 8640 H 790.99 3.89542 1.70696 0
M  V30 8641 N 789.305 -0.326896 1.54172 0
M  V30 8642 C 790.552 -1.06523 1.72218 0
M  V30 8643 C 790.88 -1.88119 0.494114 0
M  V30 8644 O 790.135 -1.8855 -0.524147 0
M  V30 8645 C 790.434 -2.0208 2.94785 0
M  V30 8646 C 790.1 -1.36665 4.2969 0
M  V30 8647 C 788.762 -1.18556 4.66367 0
M  V30 8648 C 791.114 -0.896868 5.13425 0
M  V30 8649 C 788.442 -0.521113 5.84381 0
M  V30 8650 C 790.794 -0.246261 6.3212 0
M  V30 8651 C 789.458 -0.052987 6.67479 0
M  V30 8652 H 788.728 -0.389796 0.63019 0
M  V30 8653 H 791.375 -0.342725 1.88408 0
M  V30 8654 H 789.68 -2.8077 2.73268 0
M  V30 8655 H 791.377 -2.59231 3.05941 0
M  V30 8656 H 787.967 -1.51762 4.00832 0
M  V30 8657 H 792.151 -1.02458 4.85609 0
M  V30 8658 H 787.407 -0.36014 6.10338 0
M  V30 8659 H 791.581 0.125775 6.96286 0
M  V30 8660 H 789.208 0.463903 7.58783 0
M  V30 8661 N 790.784 -1.46188 -0.588786 0
M  V30 8662 C 791.714 -1.59148 -1.70863 0
M  V30 8663 C 792.695 -0.442083 -1.64255 0
M  V30 8664 O 793.88 -0.667575 -1.82365 0
M  V30 8665 C 791.01 -1.5757 -3.09498 0
M  V30 8666 C 789.964 -2.71418 -3.30932 0
M  V30 8667 C 789.29 -2.549 -4.70032 0
M  V30 8668 C 790.59 -4.1329 -3.19356 0
M  V30 8669 H 792.284 -2.52889 -1.60274 0
M  V30 8670 H 789.83 -1.21707 -0.769638 0
M  V30 8671 H 791.783 -1.65231 -3.87655 0
M  V30 8672 H 790.507 -0.603705 -3.20972 0
M  V30 8673 H 789.166 -2.63216 -2.55172 0
M  V30 8674 H 788.814 -1.55797 -4.78264 0
M  V30 8675 H 788.514 -3.31257 -4.85327 0
M  V30 8676 H 790.038 -2.64443 -5.50366 0
M  V30 8677 H 791.452 -4.22636 -3.87365 0
M  V30 8678 H 789.849 -4.90187 -3.46175 0
M  V30 8679 H 790.919 -4.33874 -2.16522 0
M  V30 8680 N 792.262 0.832906 -1.33792 0
M  V30 8681 C 793.21 1.96455 -1.24532 0
M  V30 8682 C 794.204 1.68774 -0.145455 0
M  V30 8683 O 795.41 1.77314 -0.309797 0
M  V30 8684 H 791.785 0.645008 -0.386611 0
M  V30 8685 H 793.756 2.01389 -2.20193 0
M  V30 8686 C 792.505 3.32784 -1.00748 0
M  V30 8687 H 791.828 3.54626 -1.84609 0
M  V30 8688 H 793.268 4.12447 -0.98301 0
M  V30 8689 C 791.727 3.35654 0.289475 0
M  V30 8690 O 792.257 3.80281 1.29419 0
M  V30 8691 N 790.463 2.88843 0.3191 0
M  V30 8692 H 790.01 2.52719 -0.499069 0
M  V30 8693 H 789.968 2.91145 1.18667 0
M  V30 8694 N 793.74 1.17359 1.05189 0
M  V30 8695 C 794.965 0.98709 1.82404 0
M  V30 8696 C 795.39 -0.459848 1.82392 0
M  V30 8697 O 794.748 -1.32924 1.23292 0
M  V30 8698 C 794.796 1.53276 3.26403 0
M  V30 8699 O 793.9 0.746541 4.05587 0
M  V30 8700 H 793.241 0.35047 0.563974 0
M  V30 8701 H 795.771 1.55856 1.32552 0
M  V30 8702 H 795.781 1.55504 3.77203 0
M  V30 8703 H 794.456 2.58603 3.25726 0
M  V30 8704 H 793.033 0.795671 3.64312 0
M  V30 8705 N 795.218 -1.23913 0.973828 0
M  V30 8706 C 796.448 -1.95911 0.655938 0
M  V30 8707 C 796.856 -1.72375 -0.779967 0
M  V30 8708 O 796.199 -1.00807 -1.5357 0
M  V30 8709 C 796.261 -3.49103 0.858324 0
M  V30 8710 C 795.925 -3.96347 2.27504 0
M  V30 8711 C 796.922 -4.05537 3.25324 0
M  V30 8712 C 794.607 -4.29509 2.60437 0
M  V30 8713 C 796.601 -4.47233 4.5416 0
M  V30 8714 C 794.288 -4.70887 3.89498 0
M  V30 8715 C 795.286 -4.79714 4.86172 0
M  V30 8716 O 794.974 -5.20166 6.1293 0
M  V30 8717 H 794.706 -0.630721 0.243244 0
M  V30 8718 H 797.26 -1.58534 1.30599 0
M  V30 8719 H 795.49 -3.86405 0.151097 0
M  V30 8720 H 797.179 -4.02311 0.538592 0
M  V30 8721 H 797.945 -3.80128 3.0121 0
M  V30 8722 H 793.824 -4.21853 1.85906 0
M  V30 8723 H 797.368 -4.54038 5.29618 0
M  V30 8724 H 793.265 -4.95744 4.1341 0
M  V30 8725 H 794.033 -5.38298 6.16586 0
M  V30 8726 N 796.696 -0.74468 -1.38897 0
M  V30 8727 C 797.643 -0.111064 -2.30533 0
M  V30 8728 C 798.613 0.719276 -1.49719 0
M  V30 8729 O 799.798 0.677244 -1.78376 0
M  V30 8730 C 796.938 0.78292 -3.36102 0
M  V30 8731 C 796.051 -0.0610817 -4.31957 0
M  V30 8732 C 795.186 0.835075 -5.24595 0
M  V30 8733 C 794.225 -0.0130974 -6.12099 0
M  V30 8734 N 793.362 0.839525 -6.97063 0
M  V30 8735 H 798.202 -0.898113 -2.84144 0
M  V30 8736 H 795.739 -0.454537 -1.39901 0
M  V30 8737 H 797.697 1.31578 -3.95908 0
M  V30 8738 H 796.327 1.53585 -2.83922 0
M  V30 8739 H 795.379 -0.711469 -3.73687 0
M  V30 8740 H 796.691 -0.716482 -4.93627 0
M  V30 8741 H 795.845 1.43542 -5.89475 0
M  V30 8742 H 794.584 1.52423 -4.63269 0
M  V30 8743 H 793.589 -0.626179 -5.46223 0
M  V30 8744 H 794.814 -0.699181 -6.75491 0
M  V30 8745 H 792.76 1.5138 -6.38295 0
M  V30 8746 H 792.677 0.240823 -7.55616 0
M  V30 8747 H 793.945 1.42513 -7.66362 0
M  V30 8748 N 798.174 1.49689 -0.493057 0
M  V30 8749 C 799.107 2.25712 0.336062 0
M  V30 8750 C 800.085 1.29953 0.977294 0
M  V30 8751 O 801.269 1.59225 1.00895 0
M  V30 8752 C 798.396 3.0501 1.47263 0
M  V30 8753 C 797.442 4.15863 0.946575 0
M  V30 8754 S 798.275 5.35272 -0.156323 0
M  V30 8755 C 799.431 6.18123 0.983601 0
M  V30 8756 H 799.664 2.95688 -0.309215 0
M  V30 8757 H 797.197 1.51872 -0.278238 0
M  V30 8758 H 799.155 3.51284 2.12391 0
M  V30 8759 H 797.816 2.34519 2.08949 0
M  V30 8760 H 797.009 4.70834 1.7981 0
M  V30 8761 H 796.611 3.72139 0.372647 0
M  V30 8762 H 798.903 6.50588 1.89056 0
M  V30 8763 H 799.846 7.06521 0.472687 0
M  V30 8764 H 800.254 5.50547 1.24735 0
M  V30 8765 N 799.652 0.226554 1.55963 0
M  V30 8766 C 800.599 -0.681504 2.20509 0
M  V30 8767 C 801.569 -1.1866 1.16229 0
M  V30 8768 O 802.754 -1.24478 1.44602 0
M  V30 8769 C 799.894 -1.88183 2.89277 0
M  V30 8770 C 799.007 -1.41517 4.08163 0
M  V30 8771 C 798.142 -2.57346 4.647 0
M  V30 8772 C 797.181 -2.07441 5.75877 0
M  V30 8773 N 796.318 -3.16561 6.26685 0
M  V30 8774 H 801.158 -0.124372 2.9774 0
M  V30 8775 H 798.695 -0.0496333 1.47016 0
M  V30 8776 H 800.653 -2.58666 3.27335 0
M  V30 8777 H 799.283 -2.41177 2.14555 0
M  V30 8778 H 798.335 -0.605099 3.75557 0
M  V30 8779 H 799.647 -1.00928 4.88482 0
M  V30 8780 H 798.801 -3.35903 5.05227 0
M  V30 8781 H 797.54 -3.01227 3.83554 0
M  V30 8782 H 796.545 -1.27347 5.34848 0
M  V30 8783 H 797.77 -1.64554 6.58862 0
M  V30 8784 H 795.716 -3.59914 5.48451 0
M  V30 8785 H 795.633 -2.80239 7.02141 0
M  V30 8786 H 796.901 -3.95238 6.71868 0
M  V30 8787 N 801.13 -1.57531 -0.0467866 0
M  V30 8788 C 802.063 -2.00734 -1.08541 0
M  V30 8789 C 803.041 -0.888508 -1.36177 0
M  V30 8790 O 804.225 -1.1529 -1.49132 0
M  V30 8791 C 801.352 -2.36535 -2.42423 0
M  V30 8792 C 800.398 -3.58681 -2.3076 0
M  V30 8793 S 801.231 -5.08536 -1.67785 0
M  V30 8794 C 802.387 -5.47562 -3.03194 0
M  V30 8795 H 802.62 -2.88516 -0.717345 0
M  V30 8796 H 800.153 -1.5226 -0.256181 0
M  V30 8797 H 802.111 -2.57834 -3.19424 0
M  V30 8798 H 800.772 -1.49236 -2.76382 0
M  V30 8799 H 799.965 -3.81329 -3.29552 0
M  V30 8800 H 799.567 -3.37142 -1.61899 0
M  V30 8801 H 801.859 -5.47163 -3.99524 0
M  V30 8802 H 802.802 -6.48082 -2.85299 0
M  V30 8803 H 803.21 -4.75042 -3.04951 0
M  V30 8804 N 802.608 0.318715 -1.54344 0
M  V30 8805 C 803.833 1.07987 -1.77069 0
M  V30 8806 C 804.258 1.80766 -0.520117 0
M  V30 8807 O 803.616 1.73424 0.528566 0
M  V30 8808 C 803.664 2.04987 -2.96669 0
M  V30 8809 O 802.768 3.12974 -2.68554 0
M  V30 8810 H 802.109 0.311109 -0.586606 0
M  V30 8811 H 804.639 0.361533 -2.0138 0
M  V30 8812 H 804.649 2.47771 -3.2415 0
M  V30 8813 H 803.324 1.51417 -3.87357 0
M  V30 8814 H 801.901 2.74831 -2.52037 0
M  V30 8815 N 804.086 1.46499 0.581025 0
M  V30 8816 C 805.332 1.52121 1.34116 0
M  V30 8817 C 805.665 0.173031 1.93428 0
M  V30 8818 O 804.94 -0.815729 1.76568 0
M  V30 8819 C 805.223 2.62108 2.46924 0
M  V30 8820 C 805.076 4.06462 1.92636 0
M  V30 8821 C 806.395 2.68167 3.48962 0
M  V30 8822 H 803.514 0.5538 0.486287 0
M  V30 8823 H 806.156 1.78443 0.652538 0
M  V30 8824 H 804.306 2.39794 3.05665 0
M  V30 8825 H 805.978 4.40068 1.3834 0
M  V30 8826 H 804.221 4.15862 1.23455 0
M  V30 8827 H 804.892 4.79152 2.74076 0
M  V30 8828 H 807.368 2.8823 3.00104 0
M  V30 8829 H 806.244 3.46942 4.2535 0
M  V30 8830 H 806.505 1.74284 4.06297 0
M  V30 8831 N 805.565 -0.825799 1.34232 0
M  V30 8832 C 806.814 -1.57686 1.2577 0
M  V30 8833 C 807.127 -1.94848 -0.171372 0
M  V30 8834 O 808.333 -2.68854 -0.378123 0
M  V30 8835 C 806.789 -2.84478 2.20454 0
M  V30 8836 C 806.397 -2.54629 3.68603 0
M  V30 8837 C 808.141 -3.625 2.20893 0
M  V30 8838 C 806.048 -3.77597 4.55164 0
M  V30 8839 H 804.978 -0.591809 0.467203 0
M  V30 8840 H 807.629 -0.909421 1.59379 0
M  V30 8841 H 806.011 -3.52832 1.79793 0
M  V30 8842 H 807.185 -1.94404 4.17784 0
M  V30 8843 H 805.5 -1.89888 3.70582 0
M  V30 8844 H 808.097 -4.538 2.82789 0
M  V30 8845 H 808.44 -3.98404 1.20746 0
M  V30 8846 H 808.973 -3.01086 2.59985 0
M  V30 8847 H 805.712 -3.46815 5.56237 0
M  V30 8848 H 805.232 -4.37116 4.10719 0
M  V30 8849 H 806.911 -4.45039 4.69627 0
M  V30 8850 N 807.043 -1.17915 -1.04565 0
M  V30 8851 C 807.973 -0.925033 -2.14395 0
M  V30 8852 C 808.954 0.135375 -1.6956 0
M  V30 8853 O 810.139 -0.0161774 -1.94193 0
M  V30 8854 C 807.269 -0.444469 -3.44444 0
M  V30 8855 C 806.223 -1.44478 -4.02877 0
M  V30 8856 C 805.549 -0.821933 -5.28345 0
M  V30 8857 C 806.849 -2.81995 -4.39632 0
M  V30 8858 H 808.543 -1.84354 -2.35911 0
M  V30 8859 H 806.089 -0.887806 -1.13375 0
M  V30 8860 H 808.042 -0.254078 -4.20633 0
M  V30 8861 H 806.766 0.509592 -3.226 0
M  V30 8862 H 805.425 -1.62203 -3.28764 0
M  V30 8863 H 805.073 0.139161 -5.02807 0
M  V30 8864 H 804.773 -1.48976 -5.68401 0
M  V30 8865 H 806.297 -0.641959 -6.07216 0
M  V30 8866 H 807.711 -2.67952 -5.06828 0
M  V30 8867 H 806.108 -3.45414 -4.90723 0
M  V30 8868 H 807.178 -3.35927 -3.49687 0
M  V30 8869 N 808.521 1.23394 -0.980386 0
M  V30 8870 C 809.769 1.91431 -0.647978 0
M  V30 8871 C 810.09 1.76871 0.821066 0
M  V30 8872 O 809.36 1.14808 1.58732 0
M  V30 8873 H 807.94 0.708516 -0.236673 0
M  V30 8874 H 810.602 1.50019 -1.2442 0
M  V30 8875 H 809.698 2.98854 -0.899592 0
M  V30 8876 N 809.999 0.752036 1.385 0
M  V30 8877 C 811.248 0.304294 1.99391 0
M  V30 8878 C 811.561 -1.11982 1.60373 0
M  V30 8879 O 812.767 -1.66795 2.14223 0
M  V30 8880 C 811.223 0.493101 3.56506 0
M  V30 8881 C 810.831 1.9262 4.04477 0
M  V30 8882 C 812.575 0.107994 4.24363 0
M  V30 8883 C 810.482 2.06365 5.54227 0
M  V30 8884 H 809.412 0.110024 0.745929 0
M  V30 8885 H 812.063 0.928355 1.58284 0
M  V30 8886 H 810.445 -0.20012 3.95494 0
M  V30 8887 H 811.619 2.65276 3.76783 0
M  V30 8888 H 809.934 2.26608 3.49339 0
M  V30 8889 H 812.531 0.189474 5.34364 0
M  V30 8890 H 812.874 -0.939165 4.05568 0
M  V30 8891 H 813.407 0.753011 3.90608 0
M  V30 8892 H 810.146 3.0933 5.77923 0
M  V30 8893 H 809.666 1.38167 5.83669 0
M  V30 8894 H 811.345 1.85286 6.19902 0
M  V30 8895 N 811.477 -1.49425 0.500989 0
M  V30 8896 C 812.723 -2.02753 -0.0436 0
M  V30 8897 C 813.056 -1.37991 -1.36646 0
M  V30 8898 O 812.331 -0.515597 -1.87542 0
M  V30 8899 C 812.614 -3.59565 -0.19616 0
M  V30 8900 C 812.467 -4.34855 1.14982 0
M  V30 8901 C 813.786 -4.30014 -0.936795 0
M  V30 8902 H 810.905 -0.73686 -0.0143711 0
M  V30 8903 H 813.547 -1.78448 0.652397 0
M  V30 8904 H 811.697 -3.80405 -0.788959 0
M  V30 8905 H 813.369 -4.25512 1.7815 0
M  V30 8906 H 811.612 -3.97414 1.73911 0
M  V30 8907 H 812.283 -5.42933 0.996385 0
M  V30 8908 H 814.759 -4.1383 -0.434036 0
M  V30 8909 H 813.635 -5.39483 -1.01238 0
M  V30 8910 H 813.896 -3.95257 -1.9805 0
M  V30 8911 N 812.955 -0.234822 -1.55841 0
M  V30 8912 C 813.887 0.702346 -2.18174 0
M  V30 8913 C 814.9 1.14776 -1.15457 0
M  V30 8914 O 816.089 1.07662 -1.42377 0
M  V30 8915 C 813.189 1.96483 -2.76129 0
M  V30 8916 C 812.362 1.67283 -4.04148 0
M  V30 8917 C 811.421 2.7837 -4.46539 0
M  V30 8918 O 810.447 2.46272 -5.13166 0
M  V30 8919 N 811.649 4.07611 -4.1332 0
M  V30 8920 H 814.414 0.169074 -2.99223 0
M  V30 8921 H 811.975 -0.0543164 -1.61809 0
M  V30 8922 H 813.967 2.70016 -3.01452 0
M  V30 8923 H 812.537 2.40822 -1.99307 0
M  V30 8924 H 811.757 0.773278 -3.86541 0
M  V30 8925 H 813.045 1.45222 -4.87635 0
M  V30 8926 H 812.443 4.36527 -3.59806 0
M  V30 8927 H 811 4.77646 -4.43506 0
M  V30 8928 N 814.433 1.57553 0.0384317 0
M  V30 8929 C 815.366 2.01307 1.07475 0
M  V30 8930 C 816.344 0.895717 1.35704 0
M  V30 8931 O 817.528 1.16079 1.48519 0
M  V30 8932 C 814.655 2.37817 2.41165 0
M  V30 8933 C 813.701 3.599 2.28855 0
M  V30 8934 S 814.534 5.09418 1.65086 0
M  V30 8935 C 815.69 5.49162 3.00286 0
M  V30 8936 H 815.923 2.88892 0.702034 0
M  V30 8937 H 813.456 1.52394 0.248103 0
M  V30 8938 H 815.414 2.59524 3.18053 0
M  V30 8939 H 814.075 1.507 2.75587 0
M  V30 8940 H 813.268 3.83071 3.27525 0
M  V30 8941 H 812.87 3.37996 1.60109 0
M  V30 8942 H 815.162 5.49274 3.96617 0
M  V30 8943 H 816.105 6.49586 2.81858 0
M  V30 8944 H 816.513 4.76653 3.02427 0
M  V30 8945 N 815.911 -0.310526 1.54511 0
M  V30 8946 C 817.157 -1.04846 1.73595 0
M  V30 8947 C 817.49 -1.87244 0.515118 0
M  V30 8948 O 816.765 -1.88282 -0.48786 0
M  V30 8949 C 817.048 -1.96237 3.01932 0
M  V30 8950 C 816.901 -1.17082 4.34295 0
M  V30 8951 C 818.22 -2.9556 3.26086 0
M  V30 8952 H 815.339 -0.37976 0.631626 0
M  V30 8953 H 817.981 -0.32394 1.87218 0
M  V30 8954 H 816.131 -2.58015 2.90449 0
M  V30 8955 H 817.803 -0.576643 4.57682 0
M  V30 8956 H 816.046 -0.473336 4.3121 0
M  V30 8957 H 816.717 -1.84257 5.20339 0
M  V30 8958 H 819.193 -2.43908 3.37117 0
M  V30 8959 H 818.069 -3.5668 4.17218 0
M  V30 8960 H 818.33 -3.68715 2.4393 0
M  V30 8961 N 817.389 -1.46805 -0.573248 0
M  V30 8962 C 818.636 -1.52604 -1.3311 0
M  V30 8963 C 818.964 -0.181633 -1.9365 0
M  V30 8964 O 818.219 0.823775 -1.77517 0
M  V30 8965 C 818.518 -2.58001 -2.47326 0
M  V30 8966 C 818.184 -4.01747 -2.04719 0
M  V30 8967 C 816.846 -4.40881 -1.92814 0
M  V30 8968 C 819.198 -4.92008 -1.71982 0
M  V30 8969 C 816.526 -5.68129 -1.46445 0
M  V30 8970 C 818.878 -6.19703 -1.27089 0
M  V30 8971 C 817.542 -6.57733 -1.13768 0
M  V30 8972 H 816.812 -0.558417 -0.487084 0
M  V30 8973 H 819.459 -1.80327 -0.644538 0
M  V30 8974 H 817.764 -2.23974 -3.2147 0
M  V30 8975 H 819.461 -2.59715 -3.05531 0
M  V30 8976 H 816.051 -3.70819 -2.14922 0
M  V30 8977 H 820.235 -4.62485 -1.8006 0
M  V30 8978 H 815.491 -5.96359 -1.34783 0
M  V30 8979 H 819.665 -6.89064 -1.00814 0
M  V30 8980 H 817.292 -7.56228 -0.776142 0
M  V30 8981 N 818.867 0.818669 -1.34668 0
M  V30 8982 C 820.115 1.57201 -1.27013 0
M  V30 8983 C 820.436 1.94354 0.158599 0
M  V30 8984 O 819.706 1.62626 1.09223 0
M  V30 8985 H 818.286 0.582919 -0.467135 0
M  V30 8986 H 820.948 0.977234 -1.6863 0
M  V30 8987 H 820.044 2.49291 -1.87778 0
M  V30 8988 N 820.346 1.18468 1.03938 0
M  V30 8989 C 821.592 0.982286 1.77423 0
M  V30 8990 C 821.925 -0.48679 1.88 0
M  V30 8991 O 821.2 -1.36146 1.38905 0
M  V30 8992 C 821.483 1.63929 3.20623 0
M  V30 8993 C 821.336 3.18132 3.17982 0
M  V30 8994 C 822.655 1.3536 4.18767 0
M  V30 8995 H 819.774 0.358264 0.644062 0
M  V30 8996 H 822.416 1.46154 1.21405 0
M  V30 8997 H 820.566 1.2318 3.68455 0
M  V30 8998 H 822.238 3.68024 2.78129 0
M  V30 8999 H 820.481 3.50225 2.55978 0
M  V30 9000 H 821.152 3.5924 4.19107 0
M  V30 9001 H 823.628 1.70669 3.79488 0
M  V30 9002 H 822.504 1.83896 5.17178 0
M  V30 9003 H 822.765 0.276722 4.41233 0
M  V30 9004 N 821.824 -1.22873 0.986916 0
M  V30 9005 C 823.073 -1.90772 0.654911 0
M  V30 9006 C 823.386 -1.77768 -0.81595 0
M  V30 9007 O 824.592 -2.40529 -1.25929 0
M  V30 9008 C 823.048 -3.42003 1.12081 0
M  V30 9009 C 822.656 -3.63655 2.61647 0
M  V30 9010 C 824.4 -4.15638 0.862854 0
M  V30 9011 C 822.307 -5.08555 3.01871 0
M  V30 9012 H 821.237 -0.714362 0.241252 0
M  V30 9013 H 823.888 -1.39196 1.19568 0
M  V30 9014 H 822.27 -3.92725 0.508207 0
M  V30 9015 H 823.444 -3.2345 3.28202 0
M  V30 9016 H 821.759 -3.03341 2.8526 0
M  V30 9017 H 824.356 -5.22425 1.13915 0
M  V30 9018 H 824.699 -4.15814 -0.201036 0
M  V30 9019 H 825.232 -3.70924 1.43736 0
M  V30 9020 H 821.971 -5.13514 4.07411 0
M  V30 9021 H 821.491 -5.49684 2.40015 0
M  V30 9022 H 823.17 -5.76936 2.92839 0
M  V30 9023 N 823.302 -0.75937 -1.38099 0
M  V30 9024 C 824.232 -0.151077 -2.33011 0
M  V30 9025 C 825.213 0.697099 -1.5516 0
M  V30 9026 O 826.398 0.637101 -1.83452 0
M  V30 9027 C 823.528 0.738423 -3.39359 0
M  V30 9028 C 822.482 -0.0074741 -4.27999 0
M  V30 9029 C 821.808 1.00066 -5.25253 0
M  V30 9030 C 823.108 -1.17926 -5.08813 0
M  V30 9031 H 824.802 -0.943933 -2.84131 0
M  V30 9032 H 822.348 -0.455362 -1.36611 0
M  V30 9033 H 824.301 1.17369 -4.04725 0
M  V30 9034 H 823.025 1.56366 -2.86735 0
M  V30 9035 H 821.684 -0.423379 -3.64147 0
M  V30 9036 H 821.332 1.82012 -4.68914 0
M  V30 9037 H 821.032 0.506199 -5.85416 0
M  V30 9038 H 822.556 1.43512 -5.93495 0
M  V30 9039 H 823.97 -0.821262 -5.67387 0
M  V30 9040 H 822.367 -1.60497 -5.78239 0
M  V30 9041 H 823.437 -1.98938 -4.42212 0
M  V30 9042 N 824.78 1.49157 -0.508906 0
M  V30 9043 C 826.005 2.07376 0.0315182 0
M  V30 9044 C 826.43 1.36575 1.2934 0
M  V30 9045 O 825.788 0.424963 1.76249 0
M  V30 9046 C 825.836 3.59661 0.260118 0
M  V30 9047 O 824.94 3.90255 1.33322 0
M  V30 9048 H 824.281 0.663334 -0.029739 0
M  V30 9049 H 826.811 1.91857 -0.710791 0
M  V30 9050 H 826.821 4.05056 0.489225 0
M  V30 9051 H 825.496 4.10601 -0.661794 0
M  V30 9052 H 824.073 3.56661 1.08844 0
M  V30 9053 N 826.258 0.243083 1.55714 0
M  V30 9054 C 827.188 -0.652336 2.24203 0
M  V30 9055 C 828.169 -1.1843 1.221 0
M  V30 9056 O 829.354 -1.22435 1.50743 0
M  V30 9057 C 826.484 -1.85111 2.93856 0
M  V30 9058 C 825.438 -1.45208 4.02615 0
M  V30 9059 C 824.764 -2.73137 4.59674 0
M  V30 9060 C 826.064 -0.625988 5.18535 0
M  V30 9061 H 827.758 -0.0812504 2.9929 0
M  V30 9062 H 825.304 -0.0376388 1.43951 0
M  V30 9063 H 827.257 -2.48314 3.40468 0
M  V30 9064 H 825.981 -2.44751 2.16251 0
M  V30 9065 H 824.64 -0.843406 3.56766 0
M  V30 9066 H 824.288 -3.30967 3.78774 0
M  V30 9067 H 823.988 -2.47163 5.33089 0
M  V30 9068 H 825.512 -3.37245 5.09017 0
M  V30 9069 H 826.926 -1.16223 5.61396 0
M  V30 9070 H 825.323 -0.462465 5.98315 0
M  V30 9071 H 826.393 0.362652 4.83542 0
M  V30 9072 N 827.736 -1.57571 -0.0300757 0
M  V30 9073 C 828.983 -1.89226 -0.721091 0
M  V30 9074 C 829.311 -0.840244 -1.75414 0
M  V30 9075 O 828.566 0.158906 -1.95054 0
M  V30 9076 C 828.865 -3.27624 -1.42818 0
M  V30 9077 C 828.531 -4.4776 -0.531208 0
M  V30 9078 C 827.193 -4.8036 -0.28415 0
M  V30 9079 C 829.545 -5.21125 0.0881582 0
M  V30 9080 C 826.873 -5.83715 0.591065 0
M  V30 9081 C 829.225 -6.2541 0.95107 0
M  V30 9082 C 827.889 -6.56486 1.2076 0
M  V30 9083 H 827.159 -0.692428 -0.263866 0
M  V30 9084 H 829.806 -1.91491 0.0189874 0
M  V30 9085 H 828.111 -3.21343 -2.24155 0
M  V30 9086 H 829.808 -3.49365 -1.96838 0
M  V30 9087 H 826.398 -4.2227 -0.73392 0
M  V30 9088 H 830.582 -4.96219 -0.0897496 0
M  V30 9089 H 825.838 -6.06168 0.798132 0
M  V30 9090 H 830.012 -6.81402 1.43751 0
M  V30 9091 H 827.639 -7.36395 1.88751 0
M  V30 9092 N 829.214 0.302327 -1.54673 0
M  V30 9093 C 830.162 1.39286 -1.86285 0
M  V30 9094 C 831.156 1.52553 -0.736478 0
M  V30 9095 O 832.362 1.54686 -0.92045 0
M  V30 9096 H 828.737 0.465228 -0.590819 0
M  V30 9097 H 830.708 1.09859 -2.77441 0
M  V30 9098 C 829.457 2.75155 -2.12567 0
M  V30 9099 H 828.78 2.65728 -2.98712 0
M  V30 9100 H 830.22 3.50476 -2.38627 0
M  V30 9101 C 828.679 3.23987 -0.923813 0
M  V30 9102 O 829.209 4.01443 -0.143649 0
M  V30 9103 N 827.415 2.81293 -0.72956 0
M  V30 9104 H 826.962 2.18421 -1.36565 0
M  V30 9105 H 826.92 3.14315 0.0730351 0
M  V30 9106 N 830.692 1.47107 0.565454 0
M  V30 9107 C 831.642 1.55384 1.66852 0
M  V30 9108 C 832.626 0.413369 1.55499 0
M  V30 9109 O 833.818 0.66281 1.64121 0
M  V30 9110 C 830.947 1.5634 3.05635 0
M  V30 9111 C 830.033 2.75742 3.22222 0
M  V30 9112 N 830.424 4.00515 3.08903 0
M  V30 9113 C 828.722 2.7233 3.53203 0
M  V30 9114 C 829.423 4.80435 3.27959 0
M  V30 9115 N 828.399 4.1261 3.53913 0
M  V30 9116 H 832.201 2.49635 1.55111 0
M  V30 9117 H 829.715 1.42986 0.769982 0
M  V30 9118 H 831.712 1.60359 3.84825 0
M  V30 9119 H 830.372 0.631785 3.18494 0
M  V30 9120 H 831.383 4.31501 2.86404 0
M  V30 9121 H 828.06 1.8827 3.7264 0
M  V30 9122 H 829.45 5.89334 3.22699 0
M  V30 9123 N 832.17 -0.811516 1.35101 0
M  V30 9124 C 833.419 -1.56343 1.27435 0
M  V30 9125 C 833.732 -1.95019 -0.150696 0
M  V30 9126 O 834.938 -2.6924 -0.349586 0
M  V30 9127 C 833.394 -2.82124 2.23459 0
M  V30 9128 C 833.002 -2.50706 3.71283 0
M  V30 9129 C 834.746 -3.60137 2.24726 0
M  V30 9130 C 832.653 -3.72748 4.59143 0
M  V30 9131 H 831.583 -0.58682 0.473453 0
M  V30 9132 H 834.234 -0.892465 1.60335 0
M  V30 9133 H 832.616 -3.50905 1.83525 0
M  V30 9134 H 833.79 -1.89962 4.19823 0
M  V30 9135 H 832.105 -1.85947 3.72576 0
M  V30 9136 H 834.702 -4.50775 2.87587 0
M  V30 9137 H 835.045 -3.97101 1.24965 0
M  V30 9138 H 835.578 -2.98311 2.63164 0
M  V30 9139 H 832.317 -3.40896 5.59884 0
M  V30 9140 H 831.837 -4.32735 4.15332 0
M  V30 9141 H 833.516 -4.40033 4.74321 0
M  V30 9142 N 833.648 -1.19017 -1.03309 0
M  V30 9143 C 834.878 -1.01387 -1.80012 0
M  V30 9144 C 835.286 0.440655 -1.83997 0
M  V30 9145 O 834.629 1.31786 -1.27977 0
M  V30 9146 C 834.691 -1.50171 -3.26633 0
M  V30 9147 C 834.355 -2.98213 -3.46292 0
M  V30 9148 C 835.352 -3.96009 -3.36857 0
M  V30 9149 C 833.037 -3.36812 -3.72643 0
M  V30 9150 C 835.031 -5.30399 -3.5349 0
M  V30 9151 C 832.718 -4.71363 -3.88922 0
M  V30 9152 C 833.716 -5.67966 -3.79347 0
M  V30 9153 O 833.404 -7.00079 -3.95151 0
M  V30 9154 H 833.136 -0.357899 -0.573484 0
M  V30 9155 H 835.69 -1.58171 -1.31039 0
M  V30 9156 H 833.92 -0.877586 -3.7661 0
M  V30 9157 H 835.609 -1.28814 -3.84918 0
M  V30 9158 H 836.375 -3.67534 -3.16455 0
M  V30 9159 H 832.254 -2.62175 -3.7919 0
M  V30 9160 H 835.798 -6.05786 -3.45933 0
M  V30 9161 H 831.695 -4.99536 -4.0882 0
M  V30 9162 H 832.463 -7.07092 -4.12266 0
M  V30 9163 N 835.127 1.22348 -0.993418 0
M  V30 9164 C 836.374 1.9111 -0.669568 0
M  V30 9165 C 836.702 1.77357 0.79843 0
M  V30 9166 O 835.957 1.13675 1.593 0
M  V30 9167 C 836.256 3.42477 -1.02197 0
M  V30 9168 C 835.922 3.7642 -2.48232 0
M  V30 9169 C 834.584 3.85395 -2.88139 0
M  V30 9170 C 836.936 3.9253 -3.42884 0
M  V30 9171 C 834.264 4.07918 -4.21687 0
M  V30 9172 C 836.616 4.16557 -4.76091 0
M  V30 9173 C 835.28 4.23757 -5.15739 0
M  V30 9174 H 834.55 0.699321 -0.245012 0
M  V30 9175 H 837.197 1.45102 -1.2497 0
M  V30 9176 H 835.502 3.90143 -0.359921 0
M  V30 9177 H 837.199 3.93935 -0.74942 0
M  V30 9178 H 833.789 3.70017 -2.16299 0
M  V30 9179 H 837.973 3.84974 -3.13224 0
M  V30 9180 H 833.229 4.11719 -4.51993 0
M  V30 9181 H 837.403 4.27966 -5.4938 0
M  V30 9182 H 835.03 4.40962 -6.19239 0
M  V30 9183 N 836.605 0.766683 1.37694 0
M  V30 9184 C 838.021 0.445739 1.53249 0
M  V30 9185 C 838.221 -1.03935 1.72626 0
M  V30 9186 O 837.277 -1.82525 1.74473 0
M  V30 9187 C 838.59 1.2564 2.73194 0
M  V30 9188 C 840.138 1.24779 2.87053 0
M  V30 9189 C 840.613 2.04169 4.09974 0
M  V30 9190 N 842.104 2.01497 4.17077 0
M  V30 9191 C 842.839 2.5971 5.11212 0
M  V30 9192 N 842.335 3.26691 6.10938 0
M  V30 9193 N 844.128 2.49568 5.03659 0
M  V30 9194 H 836.279 1.72899 1.23368 0
M  V30 9195 H 838.542 0.733701 0.600322 0
M  V30 9196 H 838.248 2.30859 2.65324 0
M  V30 9197 H 838.122 0.882133 3.6674 0
M  V30 9198 H 840.509 0.203603 2.94397 0
M  V30 9199 H 840.59 1.66166 1.9448 0
M  V30 9200 H 840.234 3.08606 4.03392 0
M  V30 9201 H 840.164 1.60167 5.01651 0
M  V30 9202 H 842.655 1.52728 3.45662 0
M  V30 9203 H 842.968 3.68497 6.79286 0
M  V30 9204 H 841.313 3.30789 6.11231 0
M  V30 9205 H 844.504 1.96859 4.24693 0
M  V30 9206 H 844.677 2.95231 5.76839 0
M  V30 9207 N 838.083 -1.48885 0.516809 0
M  V30 9208 C 839.499 -1.58651 0.173788 0
M  V30 9209 C 839.699 -1.52033 -1.32243 0
M  V30 9210 O 838.755 -1.40251 -2.09967 0
M  V30 9211 C 840.068 -2.90816 0.764628 0
M  V30 9212 C 841.616 -3.04316 0.732164 0
M  V30 9213 C 842.091 -4.39123 1.30135 0
M  V30 9214 N 843.582 -4.45656 1.26273 0
M  V30 9215 C 844.317 -5.48446 1.67317 0
M  V30 9216 N 843.813 -6.58258 2.16028 0
M  V30 9217 N 845.606 -5.39251 1.58635 0
M  V30 9218 H 837.757 -1.5143 1.48939 0
M  V30 9219 H 840.02 -0.718243 0.618733 0
M  V30 9220 H 839.726 -3.01275 1.81456 0
M  V30 9221 H 839.6 -3.76473 0.234113 0
M  V30 9222 H 841.987 -2.93478 -0.308975 0
M  V30 9223 H 842.068 -2.20303 1.3 0
M  V30 9224 H 841.712 -4.50714 2.34135 0
M  V30 9225 H 841.642 -5.21801 0.709305 0
M  V30 9226 H 844.133 -3.66879 0.906006 0
M  V30 9227 H 844.446 -7.32811 2.45374 0
M  V30 9228 H 842.791 -6.59257 2.20013 0
M  V30 9229 H 845.982 -4.52354 1.20387 0
M  V30 9230 H 846.155 -6.19229 1.90944 0
M  V30 9231 N 839.561 -0.251338 -1.55583 0
M  V30 9232 C 840.789 0.376187 -2.03451 0
M  V30 9233 C 841.204 1.51215 -1.13047 0
M  V30 9234 O 840.561 1.81917 -0.145769 0
M  V30 9235 C 840.612 0.879779 -3.50631 0
M  V30 9236 O 840.333 -0.210917 -4.37592 0
M  V30 9237 C 841.834 1.57754 -4.14281 0
M  V30 9238 H 839.054 0.0888722 -0.665089 0
M  V30 9239 H 841.598 -0.376497 -2.01004 0
M  V30 9240 H 839.753 1.58263 -3.53598 0
M  V30 9241 H 840.167 0.172203 -5.24217 0
M  V30 9242 H 841.641 1.88158 -5.18942 0
M  V30 9243 H 842.118 2.50103 -3.61034 0
M  V30 9244 H 842.724 0.919154 -4.15249 0
M  V30 9245 N 841.039 1.57585 0.0217189 0
M  V30 9246 C 841.969 2.10073 1.01939 0
M  V30 9247 C 842.95 1.0049 1.37243 0
M  V30 9248 O 844.135 1.28055 1.45999 0
M  V30 9249 C 841.265 2.58618 2.31806 0
M  V30 9250 C 840.219 3.72531 2.10724 0
M  V30 9251 C 839.545 4.07309 3.46415 0
M  V30 9252 C 840.845 5.00672 1.48743 0
M  V30 9253 H 842.539 2.9368 0.582432 0
M  V30 9254 H 840.085 1.41277 0.278715 0
M  V30 9255 H 842.038 2.9396 3.01936 0
M  V30 9256 H 840.762 1.72104 2.77575 0
M  V30 9257 H 839.421 3.37549 1.43025 0
M  V30 9258 H 839.069 3.17851 3.89846 0
M  V30 9259 H 838.769 4.84042 3.33132 0
M  V30 9260 H 840.293 4.45192 4.17895 0
M  V30 9261 H 841.707 5.33925 2.088 0
M  V30 9262 H 840.104 5.82065 1.46013 0
M  V30 9263 H 841.174 4.82769 0.45408 0
M  V30 9264 N 842.517 -0.29412 1.54831 0
M  V30 9265 C 843.465 -1.38296 1.87021 0
M  V30 9266 C 844.459 -1.5216 0.744557 0
M  V30 9267 O 845.665 -1.54196 0.92864 0
M  V30 9268 H 842.04 -0.462088 0.593278 0
M  V30 9269 H 844.011 -1.08386 2.7802 0
M  V30 9270 C 842.76 -2.74024 2.14023 0
M  V30 9271 H 842.083 -2.6414 3.00117 0
M  V30 9272 H 843.523 -3.49205 2.40482 0
M  V30 9273 C 841.982 -3.23492 0.940982 0
M  V30 9274 O 842.512 -4.01361 0.164937 0
M  V30 9275 N 840.718 -2.80902 0.744467 0
M  V30 9276 H 840.265 -2.17694 1.37721 0
M  V30 9277 H 840.223 -3.14349 -0.0563652 0
M  V30 9278 N 843.995 -1.47404 -0.557645 0
M  V30 9279 C 845.244 -1.53268 -1.31118 0
M  V30 9280 C 845.557 -0.199414 -1.94581 0
M  V30 9281 O 846.763 -0.136039 -2.71159 0
M  V30 9282 C 845.219 -2.70178 -2.37764 0
M  V30 9283 C 844.827 -4.10032 -1.80493 0
M  V30 9284 C 846.571 -2.85334 -3.14301 0
M  V30 9285 C 844.478 -5.18244 -2.84916 0
M  V30 9286 H 843.408 -0.570491 -0.493007 0
M  V30 9287 H 846.059 -1.73678 -0.592308 0
M  V30 9288 H 844.441 -2.43147 -3.12563 0
M  V30 9289 H 845.615 -4.46964 -1.12069 0
M  V30 9290 H 843.93 -3.99759 -1.16542 0
M  V30 9291 H 846.527 -3.63347 -3.92279 0
M  V30 9292 H 846.87 -1.93761 -3.68459 0
M  V30 9293 H 847.403 -3.12133 -2.46613 0
M  V30 9294 H 844.142 -6.11691 -2.35614 0
M  V30 9295 H 843.662 -4.85829 -3.51753 0
M  V30 9296 H 845.341 -5.45174 -3.48417 0
M  V30 9297 N 845.473 0.80434 -1.35529 0
M  V30 9298 C 846.722 1.55665 -1.28263 0
M  V30 9299 C 847.035 1.95096 0.140352 0
M  V30 9300 O 848.241 2.69422 0.335303 0
M  V30 9301 C 846.697 2.80935 -2.24952 0
M  V30 9302 C 846.305 2.48733 -3.72607 0
M  V30 9303 C 848.049 3.5894 -2.26632 0
M  V30 9304 C 845.956 3.70308 -4.61114 0
M  V30 9305 H 844.886 0.584301 -0.476559 0
M  V30 9306 H 847.537 0.88395 -1.60806 0
M  V30 9307 H 845.919 3.49927 -1.85383 0
M  V30 9308 H 847.093 1.87733 -4.20824 0
M  V30 9309 H 845.408 1.83969 -3.73557 0
M  V30 9310 H 848.005 4.49244 -2.89973 0
M  V30 9311 H 848.348 3.96433 -1.27069 0
M  V30 9312 H 848.881 2.96912 -2.64742 0
M  V30 9313 H 845.62 3.37922 -5.61684 0
M  V30 9314 H 845.14 4.30526 -4.17621 0
M  V30 9315 H 846.819 4.37511 -4.76648 0
M  V30 9316 N 846.951 1.19563 1.02676 0
M  V30 9317 C 847.881 0.959024 2.12897 0
M  V30 9318 C 848.862 -0.108382 1.69754 0
M  V30 9319 O 850.047 0.0470698 1.94143 0
M  V30 9320 C 847.177 0.499211 3.43693 0
M  V30 9321 C 846.131 1.5087 4.00528 0
M  V30 9322 C 845.457 0.905884 5.2697 0
M  V30 9323 C 846.757 2.88954 4.3509 0
M  V30 9324 H 848.451 1.88084 2.32948 0
M  V30 9325 H 845.997 0.905731 1.11949 0
M  V30 9326 H 847.95 0.320965 4.20176 0
M  V30 9327 H 846.674 -0.458205 3.2337 0
M  V30 9328 H 845.333 1.67413 3.26142 0
M  V30 9329 H 844.981 -0.0591506 5.02965 0
M  V30 9330 H 844.681 1.58 5.65959 0
M  V30 9331 H 846.205 0.73848 6.06118 0
M  V30 9332 H 847.619 2.75981 5.02501 0
M  V30 9333 H 846.016 3.53177 4.85166 0
M  V30 9334 H 847.086 3.41447 3.44299 0
M  V30 9335 N 848.429 -1.21819 0.999893 0
M  V30 9336 C 849.361 -2.23356 0.514256 0
M  V30 9337 C 850.374 -1.5795 -0.394413 0
M  V30 9338 O 851.563 -1.77427 -0.195428 0
M  V30 9339 C 848.663 -3.37797 -0.273207 0
M  V30 9340 C 847.836 -4.32791 0.633293 0
M  V30 9341 C 846.895 -5.26098 -0.103673 0
M  V30 9342 O 845.921 -5.66881 0.513269 0
M  V30 9343 N 847.123 -5.63764 -1.38383 0
M  V30 9344 H 849.888 -2.65653 1.3874 0
M  V30 9345 H 847.449 -1.3619 0.875431 0
M  V30 9346 H 849.441 -3.97209 -0.775053 0
M  V30 9347 H 848.011 -2.94527 -1.0475 0
M  V30 9348 H 847.231 -3.71595 1.31571 0
M  V30 9349 H 848.519 -4.93196 1.25039 0
M  V30 9350 H 847.917 -5.32614 -1.90627 0
M  V30 9351 H 846.474 -6.25562 -1.83073 0
M  V30 9352 N 849.908 -0.773975 -1.37286 0
M  V30 9353 C 851.155 -0.339306 -1.99637 0
M  V30 9354 C 851.483 1.08478 -1.61439 0
M  V30 9355 O 850.738 1.7612 -0.853252 0
M  V30 9356 C 851.037 -0.432651 -3.54772 0
M  V30 9357 C 850.703 -1.81531 -4.12744 0
M  V30 9358 C 849.365 -2.19366 -4.2829 0
M  V30 9359 C 851.717 -2.72137 -4.44512 0
M  V30 9360 C 849.045 -3.47239 -4.72908 0
M  V30 9361 C 851.397 -3.99421 -4.90556 0
M  V30 9362 C 850.061 -4.37298 -5.04308 0
M  V30 9363 H 849.331 -0.124161 -0.730524 0
M  V30 9364 H 851.978 -0.988432 -1.64019 0
M  V30 9365 H 850.283 0.30001 -3.9065 0
M  V30 9366 H 851.98 -0.0776 -4.00925 0
M  V30 9367 H 848.57 -1.51126 -4.01072 0
M  V30 9368 H 852.754 -2.44165 -4.32084 0
M  V30 9369 H 848.01 -3.76477 -4.81742 0
M  V30 9370 H 852.184 -4.69756 -5.14104 0
M  V30 9371 H 849.811 -5.36442 -5.38641 0
M  V30 9372 N 851.386 1.48609 -0.524698 0
M  V30 9373 C 852.635 2.01696 0.0132937 0
M  V30 9374 C 852.948 1.40751 1.35825 0
M  V30 9375 O 854.154 1.85304 1.9843 0
M  V30 9376 C 852.61 3.59824 0.0741012 0
M  V30 9377 C 852.218 4.2975 -1.26564 0
M  V30 9378 C 853.962 4.20774 0.5612 0
M  V30 9379 C 851.869 5.79798 -1.16571 0
M  V30 9380 H 850.799 0.753949 0.00873931 0
M  V30 9381 H 853.45 1.70922 -0.667684 0
M  V30 9382 H 851.832 3.87416 0.820043 0
M  V30 9383 H 853.006 4.13836 -2.02674 0
M  V30 9384 H 851.321 3.80649 -1.68806 0
M  V30 9385 H 853.918 5.30687 0.653853 0
M  V30 9386 H 854.261 3.85734 1.56573 0
M  V30 9387 H 854.794 3.97591 -0.128901 0
M  V30 9388 H 851.533 6.19403 -2.14523 0
M  V30 9389 H 851.053 5.9814 -0.445894 0
M  V30 9390 H 852.732 6.41337 -0.854186 0
M  V30 9391 N 852.864 0.259585 1.55447 0
M  V30 9392 C 854.275 -0.241165 1.85136 0
M  V30 9393 C 854.626 -1.56634 1.18153 0
M  V30 9394 O 853.751 -2.11359 0.464351 0
M  V30 9395 C 854.346 -0.444355 3.35873 0
M  V30 9396 C 852.905 -0.889354 3.65742 0
M  V30 9397 C 852.052 0.0262474 2.77288 0
M  V30 9398 H 855.003 0.481808 1.51209 0
M  V30 9399 H 855.024 -1.28517 3.58139 0
M  V30 9400 H 854.536 0.520289 3.84597 0
M  V30 9401 H 852.637 -1.86602 3.22507 0
M  V30 9402 H 852.75 -0.737432 4.73391 0
M  V30 9403 H 851.114 -0.487361 2.49994 0
M  V30 9404 H 851.897 0.986494 3.28821 0
M  V30 9405 N 854.342 -1.57594 -0.0133615 0
M  V30 9406 C 855.252 -2.10991 -1.02566 0
M  V30 9407 C 856.268 -1.05208 -1.3859 0
M  V30 9408 O 857.444 -1.37034 -1.47593 0
M  V30 9409 C 854.509 -2.59165 -2.30292 0
M  V30 9410 C 853.57 -3.79495 -2.00704 0
M  V30 9411 C 852.803 -4.25361 -3.22341 0
M  V30 9412 O 853.026 -3.70645 -4.33565 0
M  V30 9413 O 851.96 -5.17649 -3.07121 0
M  V30 9414 H 855.786 -2.97678 -0.601806 0
M  V30 9415 H 853.371 -1.47598 -0.23135 0
M  V30 9416 H 855.253 -2.90409 -3.05354 0
M  V30 9417 H 853.928 -1.75582 -2.71942 0
M  V30 9418 H 852.835 -3.53245 -1.23161 0
M  V30 9419 H 854.168 -4.64109 -1.639 0
M  V30 9420 N 855.82 0.285905 -1.54985 0
M  V30 9421 C 856.753 1.37817 -1.81884 0
M  V30 9422 C 857.731 1.4811 -0.670988 0
M  V30 9423 O 858.915 1.64936 -0.912595 0
M  V30 9424 C 856.042 2.75587 -1.969 0
M  V30 9425 C 855.088 2.82643 -3.19398 0
M  V30 9426 S 855.921 2.43199 -4.7709 0
M  V30 9427 C 857.077 3.82969 -4.95061 0
M  V30 9428 H 857.31 1.14794 -2.74244 0
M  V30 9429 H 854.843 0.484843 -1.4659 0
M  V30 9430 H 856.801 3.54932 -2.06236 0
M  V30 9431 H 855.462 2.9587 -1.05451 0
M  V30 9432 H 854.655 3.8373 -3.26753 0
M  V30 9433 H 854.257 2.11306 -3.08586 0
M  V30 9434 H 856.549 4.78117 -4.80011 0
M  V30 9435 H 857.492 3.80575 -5.97133 0
M  V30 9436 H 857.9 3.73673 -4.23118 0
M  V30 9437 N 857.298 1.47698 0.54982 0
M  V30 9438 C 858.547 1.53961 1.30303 0
M  V30 9439 C 858.86 0.209731 1.94472 0
M  V30 9440 O 860.066 0.150418 2.71083 0
M  V30 9441 C 858.522 2.71436 2.36328 0
M  V30 9442 C 858.13 4.10983 1.78316 0
M  V30 9443 C 859.874 2.86996 3.12783 0
M  V30 9444 C 857.781 5.19747 2.82164 0
M  V30 9445 H 856.711 0.573098 0.489975 0
M  V30 9446 H 859.362 1.73989 0.583089 0
M  V30 9447 H 857.744 2.44801 3.11269 0
M  V30 9448 H 858.918 4.47552 1.09697 0
M  V30 9449 H 857.233 4.00371 1.1442 0
M  V30 9450 H 859.83 3.65422 3.90347 0
M  V30 9451 H 860.173 1.95712 3.67427 0
M  V30 9452 H 860.706 3.13436 2.44954 0
M  V30 9453 H 857.445 6.12932 2.32366 0
M  V30 9454 H 856.965 4.87688 3.49171 0
M  V30 9455 H 858.644 5.47014 3.4552 0
M  V30 9456 N 858.776 -0.797141 1.35954 0
M  V30 9457 C 860.023 -1.55468 1.29754 0
M  V30 9458 C 860.351 -1.94095 -0.125391 0
M  V30 9459 O 859.606 -1.62341 -1.09288 0
M  V30 9460 C 859.905 -2.84847 2.15863 0
M  V30 9461 C 859.571 -2.65394 3.64523 0
M  V30 9462 C 858.233 -2.59796 4.05042 0
M  V30 9463 C 860.585 -2.4727 4.58811 0
M  V30 9464 C 857.913 -2.3403 5.38002 0
M  V30 9465 C 860.265 -2.23032 5.91979 0
M  V30 9466 C 858.929 -2.15862 6.31633 0
M  V30 9467 H 858.199 -0.568897 0.474803 0
M  V30 9468 H 860.846 -0.920299 1.67937 0
M  V30 9469 H 859.151 -3.52712 1.70591 0
M  V30 9470 H 860.848 -3.42597 2.08395 0
M  V30 9471 H 857.438 -2.70602 3.32374 0
M  V30 9472 H 861.622 -2.506 4.28384 0
M  V30 9473 H 856.878 -2.26956 5.67715 0
M  V30 9474 H 861.052 -2.08001 6.64612 0
M  V30 9475 H 858.679 -1.9566 7.34589 0
M  V30 9476 N 860.254 -1.20106 -1.0204 0
M  V30 9477 C 861.503 -1.00316 -1.74985 0
M  V30 9478 C 861.816 0.465814 -1.89972 0
M  V30 9479 O 863.022 0.782749 -2.59972 0
M  V30 9480 C 861.478 -1.74608 -3.14706 0
M  V30 9481 C 861.086 -3.25573 -3.07744 0
M  V30 9482 C 862.83 -1.63172 -3.91887 0
M  V30 9483 C 860.737 -3.92419 -4.42449 0
M  V30 9484 H 859.667 -0.371728 -0.655999 0
M  V30 9485 H 862.318 -1.43688 -1.14131 0
M  V30 9486 H 860.7 -1.24021 -3.76078 0
M  V30 9487 H 861.874 -3.83345 -2.55702 0
M  V30 9488 H 860.189 -3.3738 -2.44057 0
M  V30 9489 H 862.786 -2.10457 -4.9154 0
M  V30 9490 H 863.129 -0.58728 -4.12137 0
M  V30 9491 H 863.662 -2.11152 -3.37135 0
M  V30 9492 H 860.401 -4.96998 -4.27403 0
M  V30 9493 H 859.921 -3.39436 -4.94513 0
M  V30 9494 H 861.6 -3.96453 -5.11306 0
M  V30 9495 N 861.732 1.21287 -1.00634 0
M  V30 9496 C 862.662 2.25973 -0.588089 0
M  V30 9497 C 863.643 1.65527 0.391764 0
M  V30 9498 O 864.828 1.92179 0.279452 0
M  V30 9499 C 861.958 3.47197 0.0847336 0
M  V30 9500 C 860.912 4.20168 -0.815039 0
M  V30 9501 C 860.238 5.34699 -0.00855393 0
M  V30 9502 C 861.538 4.77416 -2.11828 0
M  V30 9503 H 863.232 2.61212 -1.46317 0
M  V30 9504 H 860.778 1.25563 -0.704985 0
M  V30 9505 H 862.731 4.19602 0.388821 0
M  V30 9506 H 861.455 3.11092 0.994456 0
M  V30 9507 H 860.114 3.49614 -1.10297 0
M  V30 9508 H 859.762 4.94837 0.902499 0
M  V30 9509 H 859.462 5.84449 -0.607664 0
M  V30 9510 H 860.986 6.09914 0.289317 0
M  V30 9511 H 862.4 5.41694 -1.87725 0
M  V30 9512 H 860.797 5.37561 -2.66736 0
M  V30 9513 H 861.867 3.96724 -2.78816 0
M  V30 9514 N 863.21 0.781244 1.36873 0
M  V30 9515 C 864.45 0.355185 2.0129 0
M  V30 9516 C 864.814 -1.05115 1.6067 0
M  V30 9517 O 866.015 -1.57785 2.17618 0
M  V30 9518 C 864.286 0.504587 3.5382 0
M  V30 9519 S 865.845 0.165196 4.38489 0
M  V30 9520 H 862.663 0.136133 0.697846 0
M  V30 9521 H 865.265 1.01794 1.66908 0
M  V30 9522 H 863.969 1.52857 3.80871 0
M  V30 9523 H 863.5 -0.174392 3.93013 0
M  V30 9524 H 865.515 -1.03605 4.85263 0
M  V30 9525 N 864.689 -1.48329 0.532571 0
M  V30 9526 C 865.619 -2.32485 -0.217511 0
M  V30 9527 C 866.6 -1.42255 -0.932598 0
M  V30 9528 O 867.785 -1.7114 -0.917873 0
M  V30 9529 C 864.915 -3.23509 -1.26329 0
M  V30 9530 C 863.869 -4.22784 -0.666191 0
M  V30 9531 C 863.195 -5.0296 -1.81482 0
M  V30 9532 C 864.495 -5.21031 0.363813 0
M  V30 9533 H 866.189 -2.95445 0.485014 0
M  V30 9534 H 863.735 -1.42075 0.234694 0
M  V30 9535 H 865.688 -3.81211 -1.79601 0
M  V30 9536 H 864.412 -2.58554 -1.99543 0
M  V30 9537 H 863.071 -3.66272 -0.15498 0
M  V30 9538 H 862.719 -4.34427 -2.5354 0
M  V30 9539 H 862.419 -5.70154 -1.4212 0
M  V30 9540 H 863.943 -5.63514 -2.35126 0
M  V30 9541 H 865.357 -5.73241 -0.0819079 0
M  V30 9542 H 863.754 -5.96292 0.674956 0
M  V30 9543 H 864.824 -4.6801 1.26865 0
M  V30 9544 N 866.167 -0.267825 -1.55308 0
M  V30 9545 C 867.414 0.351036 -1.99434 0
M  V30 9546 C 867.742 1.56406 -1.15618 0
M  V30 9547 O 866.997 1.94548 -0.212045 0
M  V30 9548 C 867.296 0.784247 -3.48689 0
M  V30 9549 C 866.962 -0.323328 -4.49739 0
M  V30 9550 C 865.624 -0.627467 -4.77091 0
M  V30 9551 C 867.976 -1.07002 -5.10098 0
M  V30 9552 C 865.304 -1.682 -5.62073 0
M  V30 9553 C 867.656 -2.11422 -5.96224 0
M  V30 9554 C 866.32 -2.42479 -6.21901 0
M  V30 9555 H 865.59 0.128453 -0.729781 0
M  V30 9556 H 868.237 -0.380018 -1.87692 0
M  V30 9557 H 866.542 1.59485 -3.57871 0
M  V30 9558 H 868.239 1.2737 -3.80234 0
M  V30 9559 H 864.829 -0.0761528 -4.28532 0
M  V30 9560 H 869.013 -0.848302 -4.88996 0
M  V30 9561 H 864.269 -1.92772 -5.80215 0
M  V30 9562 H 868.443 -2.69759 -6.4203 0
M  V30 9563 H 866.07 -3.24328 -6.87543 0
M  V30 9564 N 867.645 1.57599 0.00500368 0
M  V30 9565 C 868.893 1.89973 0.68953 0
M  V30 9566 C 869.214 0.868531 1.7459 0
M  V30 9567 O 868.484 -0.0947367 1.95671 0
M  V30 9568 H 867.064 0.701153 0.25767 0
M  V30 9569 H 869.726 1.94869 -0.0347392 0
M  V30 9570 H 868.822 2.89584 1.16394 0
M  V30 9571 N 869.123 -0.277682 1.55134 0
M  V30 9572 C 870.353 -1.02677 1.79279 0
M  V30 9573 C 870.761 -1.80599 0.563962 0
M  V30 9574 O 870.104 -1.77416 -0.476378 0
M  V30 9575 C 870.166 -2.03617 2.96277 0
M  V30 9576 C 869.83 -1.44676 4.33495 0
M  V30 9577 C 870.827 -0.864811 5.12657 0
M  V30 9578 C 868.512 -1.47537 4.80144 0
M  V30 9579 C 870.506 -0.319322 6.366 0
M  V30 9580 C 868.193 -0.926016 6.04043 0
M  V30 9581 C 869.191 -0.348988 6.82108 0
M  V30 9582 O 868.879 0.191964 8.03671 0
M  V30 9583 H 868.611 -0.309232 0.601125 0
M  V30 9584 H 871.165 -0.315308 2.02965 0
M  V30 9585 H 869.395 -2.78509 2.68272 0
M  V30 9586 H 871.084 -2.64616 3.07788 0
M  V30 9587 H 871.85 -0.835438 4.7775 0
M  V30 9588 H 867.729 -1.91389 4.19394 0
M  V30 9589 H 871.273 0.131709 6.97476 0
M  V30 9590 H 867.17 -0.952613 6.38432 0
M  V30 9591 H 867.938 0.0808779 8.1846 0
M  V30 9592 N 870.601 -1.47988 -0.541979 0
M  V30 9593 C 871.531 -1.64503 -1.65713 0
M  V30 9594 C 872.512 -0.494116 -1.62765 0
M  V30 9595 O 873.697 -0.725256 -1.80149 0
M  V30 9596 C 870.827 -1.67337 -3.04328 0
M  V30 9597 C 869.781 -2.81809 -3.2213 0
M  V30 9598 C 869.107 -2.69724 -4.61685 0
M  V30 9599 C 870.407 -4.23241 -3.06046 0
M  V30 9600 H 872.101 -2.5786 -1.52147 0
M  V30 9601 H 869.647 -1.24094 -0.730529 0
M  V30 9602 H 871.6 -1.77481 -3.82202 0
M  V30 9603 H 870.324 -0.705514 -3.18889 0
M  V30 9604 H 868.983 -2.71201 -2.46669 0
M  V30 9605 H 868.631 -1.70934 -4.73065 0
M  V30 9606 H 868.331 -3.4653 -4.74543 0
M  V30 9607 H 869.855 -2.81818 -5.41674 0
M  V30 9608 H 871.269 -4.34746 -3.73723 0
M  V30 9609 H 869.666 -5.00952 -3.30405 0
M  V30 9610 H 870.736 -4.40543 -2.02609 0
M  V30 9611 N 872.079 0.78992 -1.36375 0
M  V30 9612 C 873.325 1.55007 -1.3077 0
M  V30 9613 C 873.658 1.93871 0.112979 0
M  V30 9614 O 872.933 1.6267 1.06625 0
M  V30 9615 C 873.216 2.82748 -2.22993 0
M  V30 9616 C 873.069 2.50253 -3.73756 0
M  V30 9617 C 874.388 3.84569 -2.13998 0
M  V30 9618 H 871.507 0.562362 -0.476359 0
M  V30 9619 H 874.149 0.907582 -1.66922 0
M  V30 9620 H 872.299 3.37573 -1.92292 0
M  V30 9621 H 873.971 2.01482 -4.14973 0
M  V30 9622 H 872.214 1.83203 -3.93216 0
M  V30 9623 H 872.885 3.41487 -4.33694 0
M  V30 9624 H 875.361 3.39188 -2.4102 0
M  V30 9625 H 874.237 4.717 -2.80697 0
M  V30 9626 H 874.498 4.27491 -1.12711 0
M  V30 9627 N 873.557 1.20646 1.01402 0
M  V30 9628 C 874.804 1.01819 1.7504 0
M  V30 9629 C 875.132 -0.449386 1.89237 0
M  V30 9630 O 874.387 -1.34985 1.41695 0
M  V30 9631 C 874.686 1.64991 3.17037 0
M  V30 9632 C 874.352 3.14808 3.22811 0
M  V30 9633 C 873.014 3.55692 3.24094 0
M  V30 9634 C 875.366 4.108 3.2077 0
M  V30 9635 C 872.694 4.9109 3.2101 0
M  V30 9636 C 875.046 5.46147 3.19227 0
M  V30 9637 C 873.71 5.86441 3.18815 0
M  V30 9638 H 872.98 0.372582 0.640518 0
M  V30 9639 H 875.627 1.50108 1.18911 0
M  V30 9640 H 873.932 1.08971 3.76341 0
M  V30 9641 H 875.629 1.47937 3.72714 0
M  V30 9642 H 872.219 2.8224 3.2255 0
M  V30 9643 H 876.403 3.80246 3.18946 0
M  V30 9644 H 871.659 5.21569 3.19023 0
M  V30 9645 H 875.833 6.20272 3.166 0
M  V30 9646 H 873.46 6.91328 3.16179 0
M  V30 9647 N 875.035 -1.20752 1.01276 0
M  V30 9648 C 875.968 -2.22091 0.524472 0
M  V30 9649 C 876.946 -1.5692 -0.426017 0
M  V30 9650 O 878.13 -1.8528 -0.346919 0
M  V30 9651 C 875.257 -3.37868 -0.237224 0
M  V30 9652 C 874.303 -4.21327 0.662236 0
M  V30 9653 S 875.136 -4.91352 2.12916 0
M  V30 9654 C 876.292 -6.10553 1.37752 0
M  V30 9655 H 876.525 -2.63166 1.38315 0
M  V30 9656 H 874.058 -1.30742 0.821332 0
M  V30 9657 H 876.016 -4.04985 -0.670599 0
M  V30 9658 H 874.677 -2.95261 -1.07143 0
M  V30 9659 H 873.87 -5.03944 0.0751085 0
M  V30 9660 H 873.472 -3.59445 1.03322 0
M  V30 9661 H 875.764 -6.74322 0.655491 0
M  V30 9662 H 876.707 -6.73717 2.17969 0
M  V30 9663 H 877.115 -5.57566 0.882088 0
M  V30 9664 N 876.513 -0.788492 -1.36457 0
M  V30 9665 C 877.762 -0.357052 -1.98515 0
M  V30 9666 C 878.075 1.0769 -1.63285 0
M  V30 9667 O 879.281 1.61057 -2.1857 0
M  V30 9668 C 877.737 -0.587449 -3.55073 0
M  V30 9669 C 877.345 -2.03276 -3.99228 0
M  V30 9670 C 879.089 -0.220468 -4.23927 0
M  V30 9671 C 876.996 -2.20987 -5.48561 0
M  V30 9672 H 875.926 -0.129762 -0.74275 0
M  V30 9673 H 878.577 -0.969995 -1.55767 0
M  V30 9674 H 876.959 0.0951918 -3.95886 0
M  V30 9675 H 878.133 -2.75173 -3.69617 0
M  V30 9676 H 876.448 -2.3579 -3.43208 0
M  V30 9677 H 879.045 -0.331085 -5.33674 0
M  V30 9678 H 879.388 0.831306 -4.07915 0
M  V30 9679 H 879.921 -0.856309 -3.88474 0
M  V30 9680 H 876.66 -3.24543 -5.69519 0
M  V30 9681 H 876.18 -1.53594 -5.79801 0
M  V30 9682 H 877.859 -2.01656 -6.14771 0
M  V30 9683 N 877.991 1.48044 -0.54043 0
M  V30 9684 C 879.24 2.01698 -0.00809961 0
M  V30 9685 C 879.553 1.42184 1.34325 0
M  V30 9686 O 880.759 1.87398 1.96454 0
M  V30 9687 C 879.215 3.59882 0.035933 0
M  V30 9688 C 878.823 4.28384 -1.31115 0
M  V30 9689 C 880.567 4.21346 0.51654 0
M  V30 9690 C 878.474 5.78529 -1.22714 0
M  V30 9691 H 877.404 0.754 0.000742174 0
M  V30 9692 H 880.055 1.70204 -0.685775 0
M  V30 9693 H 878.437 3.88264 0.778906 0
M  V30 9694 H 879.611 4.11663 -2.07051 0
M  V30 9695 H 877.926 3.78837 -1.72834 0
M  V30 9696 H 880.523 5.31351 0.597529 0
M  V30 9697 H 880.866 3.87373 1.52473 0
M  V30 9698 H 881.399 3.97432 -0.171064 0
M  V30 9699 H 878.138 6.17093 -2.21081 0
M  V30 9700 H 877.658 5.97634 -0.50931 0
M  V30 9701 H 879.337 6.40395 -0.92216 0
M  V30 9702 N 879.47 0.276058 1.55163 0
M  V30 9703 C 880.717 -0.340455 1.99618 0
M  V30 9704 C 881.045 -1.5579 1.16446 0
M  V30 9705 O 880.3 -1.94433 0.222359 0
M  V30 9706 C 880.599 -0.765744 3.491 0
M  V30 9707 C 880.265 0.347174 4.49561 0
M  V30 9708 C 878.927 0.65276 4.76752 0
M  V30 9709 C 881.279 1.09705 5.09523 0
M  V30 9710 C 878.607 1.71179 5.61173 0
M  V30 9711 C 880.959 2.14581 5.95095 0
M  V30 9712 C 879.623 2.45773 6.20606 0
M  V30 9713 H 878.893 -0.124581 0.730452 0
M  V30 9714 H 881.54 0.389966 1.87487 0
M  V30 9715 H 879.845 -1.57585 3.58712 0
M  V30 9716 H 881.542 -1.25352 3.80904 0
M  V30 9717 H 878.132 0.0988779 4.28486 0
M  V30 9718 H 882.316 0.874223 4.8854 0
M  V30 9719 H 877.572 1.95846 5.79184 0
M  V30 9720 H 881.746 2.7316 6.40591 0
M  V30 9721 H 879.373 3.27969 6.85813 0
M  V30 9722 N 880.948 -1.576 0.00335426 0
M  V30 9723 C 881.895 -2.08632 -0.986975 0
M  V30 9724 C 882.865 -0.982491 -1.33927 0
M  V30 9725 O 884.05 -1.25513 -1.43705 0
M  V30 9726 C 881.19 -2.59705 -2.27261 0
M  V30 9727 C 880.303 -3.84002 -1.97905 0
M  V30 9728 C 879.438 -4.23563 -3.20574 0
M  V30 9729 C 878.477 -5.40688 -2.8692 0
M  V30 9730 N 877.614 -5.75526 -4.02136 0
M  V30 9731 H 882.454 -2.92977 -0.544855 0
M  V30 9732 H 879.991 -1.44831 -0.257376 0
M  V30 9733 H 881.949 -2.87395 -3.02423 0
M  V30 9734 H 880.579 -1.7823 -2.69136 0
M  V30 9735 H 879.631 -3.63199 -1.13096 0
M  V30 9736 H 880.943 -4.69261 -1.69102 0
M  V30 9737 H 880.097 -4.52554 -4.04079 0
M  V30 9738 H 878.836 -3.37019 -3.52518 0
M  V30 9739 H 877.841 -5.11417 -2.01822 0
M  V30 9740 H 879.066 -6.2891 -2.5622 0
M  V30 9741 H 877.012 -4.9194 -4.33971 0
M  V30 9742 H 876.929 -6.55367 -3.76869 0
M  V30 9743 H 878.197 -6.0911 -4.8642 0
M  V30 9744 N 882.426 0.269451 -1.5528 0
M  V30 9745 C 883.672 0.997946 -1.77236 0
M  V30 9746 C 884.027 1.83808 -0.568546 0
M  V30 9747 O 883.32 1.8651 0.438706 0
M  V30 9748 C 883.514 1.91 -3.02082 0
M  V30 9749 C 883.343 1.15963 -4.34491 0
M  V30 9750 C 882.113 0.873873 -4.97686 0
M  V30 9751 C 884.311 0.548307 -5.11369 0
M  V30 9752 N 882.293 0.0970863 -6.13823 0
M  V30 9753 C 883.664 -0.0941413 -6.19929 0
M  V30 9754 C 885.719 0.456507 -4.95803 0
M  V30 9755 C 884.422 -0.819547 -7.14616 0
M  V30 9756 C 886.448 -0.255315 -5.90849 0
M  V30 9757 C 885.81 -0.886488 -6.988 0
M  V30 9758 H 881.909 0.347038 -0.700777 0
M  V30 9759 H 884.493 0.273262 -1.92773 0
M  V30 9760 H 882.664 2.60691 -2.87915 0
M  V30 9761 H 884.396 2.57237 -3.12428 0
M  V30 9762 H 881.151 1.18003 -4.58663 0
M  V30 9763 H 881.575 -0.278741 -6.76426 0
M  V30 9764 H 886.217 0.930164 -4.12441 0
M  V30 9765 H 883.935 -1.30488 -7.97495 0
M  V30 9766 H 887.521 -0.32671 -5.80882 0
M  V30 9767 H 886.401 -1.42851 -7.71079 0
M  V30 9768 N 883.904 1.48273 0.534124 0
M  V30 9769 C 885.144 1.57674 1.3007 0
M  V30 9770 C 885.508 0.243256 1.90453 0
M  V30 9771 O 886.709 0.212231 2.67961 0
M  V30 9772 C 884.98 2.68044 2.36405 0
M  V30 9773 S 886.539 2.97183 3.22843 0
M  V30 9774 H 883.357 0.55652 0.442501 0
M  V30 9775 H 885.959 1.85774 0.60896 0
M  V30 9776 H 884.663 3.63498 1.90518 0
M  V30 9777 H 884.194 2.41833 3.10291 0
M  V30 9778 H 886.209 2.36164 4.36396 0
M  V30 9779 N 885.382 -0.782676 1.36792 0
M  V30 9780 C 886.622 -1.55396 1.32784 0
M  V30 9781 C 886.986 -1.91789 -0.0900272 0
M  V30 9782 O 888.187 -2.6759 -0.254725 0
M  V30 9783 C 886.458 -2.79227 2.23085 0
M  V30 9784 S 888.017 -3.69404 2.36825 0
M  V30 9785 H 884.835 -0.532139 0.471539 0
M  V30 9786 H 887.437 -0.921285 1.72431 0
M  V30 9787 H 886.141 -2.50553 3.25041 0
M  V30 9788 H 885.672 -3.47462 1.84482 0
M  V30 9789 H 887.687 -4.70683 1.57074 0
M  V30 9790 N 886.86 -1.21182 -1.00761 0
M  V30 9791 C 888.107 -1.02746 -1.74498 0
M  V30 9792 C 888.435 0.439344 -1.89473 0
M  V30 9793 O 887.69 1.34232 -1.42409 0
M  V30 9794 C 887.989 -1.6667 -3.16158 0
M  V30 9795 C 887.655 -3.16515 -3.21137 0
M  V30 9796 C 886.317 -3.57405 -3.22203 0
M  V30 9797 C 888.669 -4.12495 -3.18587 0
M  V30 9798 C 885.997 -4.92786 -3.18401 0
M  V30 9799 C 888.349 -5.47833 -3.16326 0
M  V30 9800 C 887.013 -5.88124 -3.157 0
M  V30 9801 H 886.283 -0.375974 -0.638533 0
M  V30 9802 H 888.93 -1.50736 -1.18114 0
M  V30 9803 H 887.235 -1.10966 -3.75758 0
M  V30 9804 H 888.932 -1.49911 -3.71924 0
M  V30 9805 H 885.522 -2.83947 -3.21048 0
M  V30 9806 H 889.706 -3.81932 -3.16925 0
M  V30 9807 H 884.962 -5.23253 -3.16253 0
M  V30 9808 H 889.136 -6.21942 -3.13306 0
M  V30 9809 H 886.763 -6.92995 -3.12508 0
M  V30 9810 N 888.338 1.20213 -1.01915 0
M  V30 9811 C 889.615 1.85348 -0.62495 0
M  V30 9812 C 889.995 1.91101 0.896854 0
M  V30 9813 O 889.343 1.42075 1.78961 0
M  V30 9814 C 889.553 3.24849 -1.27571 0
M  V30 9815 C 890.901 4.01107 -1.39277 0
M  V30 9816 O 891.925 3.34211 -1.23212 0
M  V30 9817 O 890.784 5.20914 -1.6526 0
M  V30 9818 H 887.878 0.798303 -0.215965 0
M  V30 9819 H 890.424 1.27782 -1.11669 0
M  V30 9820 H 889.196 3.1544 -2.31545 0
M  V30 9821 H 888.819 3.90049 -0.77122 0
M  V30 9822 N 889.816 0.795718 1.36037 0
M  V30 9823 C 891.062 0.371574 1.99367 0
M  V30 9824 C 891.395 -1.0557 1.62999 0
M  V30 9825 O 890.67 -1.73051 0.887895 0
M  V30 9826 C 890.953 0.542622 3.55988 0
M  V30 9827 C 890.806 2.01404 4.0219 0
M  V30 9828 C 892.125 -0.0384527 4.40083 0
M  V30 9829 H 889.244 0.136483 0.724252 0
M  V30 9830 H 891.886 1.00323 1.61355 0
M  V30 9831 H 890.036 0.0049053 3.885 0
M  V30 9832 H 891.708 2.6133 3.80137 0
M  V30 9833 H 889.951 2.51439 3.53498 0
M  V30 9834 H 890.622 2.08466 5.11122 0
M  V30 9835 H 893.098 0.420634 4.13968 0
M  V30 9836 H 891.974 0.111214 5.48787 0
M  V30 9837 H 892.235 -1.13116 4.27384 0
M  V30 9838 N 891.294 -1.47756 0.548274 0
M  V30 9839 C 892.244 -2.26891 -0.224628 0
M  V30 9840 C 893.228 -1.33816 -0.893421 0
M  V30 9841 O 894.42 -1.58232 -0.793204 0
M  V30 9842 C 891.549 -3.19358 -1.25959 0
M  V30 9843 C 890.635 -4.1991 -0.594662 0
M  V30 9844 N 891.026 -5.04721 0.330148 0
M  V30 9845 C 889.324 -4.37832 -0.849672 0
M  V30 9846 C 890.025 -5.77282 0.71553 0
M  V30 9847 N 889.001 -5.43552 0.0723997 0
M  V30 9848 H 892.803 -2.89844 0.486561 0
M  V30 9849 H 890.317 -1.58185 0.367577 0
M  V30 9850 H 892.314 -3.74726 -1.82718 0
M  V30 9851 H 890.974 -2.57961 -1.97196 0
M  V30 9852 H 891.985 -5.13095 0.703811 0
M  V30 9853 H 888.662 -3.87612 -1.55123 0
M  V30 9854 H 890.052 -6.55512 1.47493 0
M  V30 9855 N 892.772 -0.284283 -1.55015 0
M  V30 9856 C 894.018 0.330352 -2.00091 0
M  V30 9857 C 894.351 1.54814 -1.17244 0
M  V30 9858 O 893.626 1.92954 -0.244753 0
M  V30 9859 C 893.909 0.703492 -3.53161 0
M  V30 9860 C 893.762 -0.522275 -4.46758 0
M  V30 9861 C 895.081 1.53645 -4.12409 0
M  V30 9862 H 892.2 0.118599 -0.727395 0
M  V30 9863 H 894.842 -0.393054 -1.8589 0
M  V30 9864 H 892.992 1.31983 -3.65394 0
M  V30 9865 H 894.664 -1.16082 -4.46456 0
M  V30 9866 H 892.907 -1.15865 -4.1804 0
M  V30 9867 H 893.578 -0.217295 -5.51572 0
M  V30 9868 H 896.054 1.01583 -4.0351 0
M  V30 9869 H 894.93 1.76633 -5.19704 0
M  V30 9870 H 895.191 2.5204 -3.63219 0
M  V30 9871 N 894.251 1.57596 -0.0117121 0
M  V30 9872 C 895.476 1.95764 0.684938 0
M  V30 9873 C 895.901 0.887285 1.65858 0
M  V30 9874 O 895.259 -0.153508 1.80649 0
M  V30 9875 C 895.307 3.33031 1.38285 0
M  V30 9876 O 894.411 3.28163 2.49765 0
M  V30 9877 H 893.752 0.638767 0.181309 0
M  V30 9878 H 896.282 2.04486 -0.0683883 0
M  V30 9879 H 896.292 3.68866 1.74362 0
M  V30 9880 H 894.967 4.10483 0.669043 0
M  V30 9881 H 893.544 3.04021 2.15929 0
M  V30 9882 N 895.729 -0.261212 1.5542 0
M  V30 9883 C 896.661 -1.34571 1.85535 0
M  V30 9884 C 897.674 -1.44979 0.740612 0
M  V30 9885 O 898.863 -1.46584 1.01859 0
M  V30 9886 C 895.963 -2.7258 2.01378 0
M  V30 9887 C 895.136 -2.84618 3.32131 0
M  V30 9888 C 894.195 -4.03379 3.37893 0
M  V30 9889 O 893.221 -3.93581 4.11197 0
M  V30 9890 N 894.423 -5.15893 2.66148 0
M  V30 9891 H 897.188 -1.09078 2.79145 0
M  V30 9892 H 894.749 -0.451327 1.55482 0
M  V30 9893 H 896.741 -3.50342 2.0259 0
M  V30 9894 H 895.311 -2.90844 1.14579 0
M  V30 9895 H 894.531 -1.93647 3.43358 0
M  V30 9896 H 895.819 -2.896 4.18341 0
M  V30 9897 H 895.217 -5.26743 2.06297 0
M  V30 9898 H 893.774 -5.91842 2.73069 0
M  V30 9899 N 897.207 -1.48554 -0.526253 0
M  V30 9900 C 898.157 -1.59753 -1.62674 0
M  V30 9901 C 899.141 -0.454452 -1.54349 0
M  V30 9902 O 900.333 -0.706091 -1.62306 0
M  V30 9903 C 897.462 -1.64388 -3.01383 0
M  V30 9904 C 896.548 -2.84188 -3.14798 0
M  V30 9905 N 896.939 -4.08564 -2.98176 0
M  V30 9906 C 895.237 -2.81599 -3.45859 0
M  V30 9907 C 895.938 -4.88961 -3.15106 0
M  V30 9908 N 894.914 -4.21848 -3.42849 0
M  V30 9909 H 898.716 -2.5366 -1.48438 0
M  V30 9910 H 896.23 -1.44977 -0.731801 0
M  V30 9911 H 898.227 -1.70505 -3.80439 0
M  V30 9912 H 896.887 -0.716006 -3.16707 0
M  V30 9913 H 897.898 -4.38943 -2.74862 0
M  V30 9914 H 894.575 -1.98083 -3.67518 0
M  V30 9915 H 895.965 -5.97683 -3.0696 0
M  V30 9916 N 898.685 0.775411 -1.37205 0
M  V30 9917 C 899.648 1.8702 -1.325 0
M  V30 9918 C 900.648 1.5915 -0.229793 0
M  V30 9919 O 901.838 1.673 -0.485423 0
M  V30 9920 C 898.97 3.24085 -1.05745 0
M  V30 9921 H 900.163 1.92604 -2.29878 0
M  V30 9922 H 897.716 0.97476 -1.22181 0
M  V30 9923 H 898.451 3.24178 -0.0888371 0
M  V30 9924 H 898.236 3.45705 -1.85016 0
M  V30 9925 H 899.726 4.0416 -1.05094 0
M  V30 9926 N 900.163 1.21714 1.00117 0
M  V30 9927 C 901.574 1.03477 1.55401 0
M  V30 9928 C 901.925 -0.40429 1.91989 0
M  V30 9929 O 901.05 -1.28807 1.7389 0
M  V30 9930 C 901.645 1.87213 2.82377 0
M  V30 9931 C 900.204 1.73297 3.34133 0
M  V30 9932 C 899.351 1.84189 2.07291 0
M  V30 9933 H 902.302 1.3568 0.823195 0
M  V30 9934 H 902.323 1.38465 3.54412 0
M  V30 9935 H 901.835 2.91944 2.55715 0
M  V30 9936 H 899.936 0.712662 3.65721 0
M  V30 9937 H 900.049 2.55486 4.05294 0
M  V30 9938 H 898.413 1.27538 2.20468 0
M  V30 9939 H 899.196 2.90435 1.83037 0
M  V30 9940 N 901.641 -1.19671 1.02551 0
M  V30 9941 C 902.866 -1.93774 0.739363 0
M  V30 9942 C 903.291 -1.74787 -0.695064 0
M  V30 9943 O 902.649 -1.04796 -1.47944 0
M  V30 9944 C 902.697 -3.43684 1.09149 0
M  V30 9945 O 901.801 -4.11874 0.208213 0
M  V30 9946 H 901.142 -0.605064 0.273484 0
M  V30 9947 H 903.672 -1.51846 1.37128 0
M  V30 9948 H 903.682 -3.94339 1.04695 0
M  V30 9949 H 902.357 -3.56826 2.13654 0
M  V30 9950 H 900.934 -3.716 0.311045 0
M  V30 9951 N 903.119 -0.802921 -1.35613 0
M  V30 9952 C 904.368 -0.378087 -1.98125 0
M  V30 9953 C 904.681 1.05953 -1.64418 0
M  V30 9954 O 905.887 1.58729 -2.20266 0
M  V30 9955 C 904.343 -0.625077 -3.5443 0
M  V30 9956 C 903.951 -2.07499 -3.97049 0
M  V30 9957 C 905.695 -0.265419 -4.23669 0
M  V30 9958 C 903.602 -2.26793 -5.46186 0
M  V30 9959 H 902.532 -0.137633 -0.741332 0
M  V30 9960 H 905.183 -0.986461 -1.54729 0
M  V30 9961 H 903.565 0.0531975 -3.95964 0
M  V30 9962 H 904.739 -2.79077 -3.66678 0
M  V30 9963 H 903.054 -2.39417 -3.40688 0
M  V30 9964 H 905.651 -0.387669 -5.33293 0
M  V30 9965 H 905.994 0.787994 -4.08774 0
M  V30 9966 H 906.527 -0.897464 -3.87544 0
M  V30 9967 H 903.266 -3.30566 -5.66045 0
M  V30 9968 H 902.786 -1.59735 -5.78139 0
M  V30 9969 H 904.465 -2.08165 -6.12598 0
M  V30 9970 N 904.597 1.47463 -0.556102 0
M  V30 9971 C 905.527 2.32801 0.180497 0
M  V30 9972 C 906.508 1.43721 0.909848 0
M  V30 9973 O 907.693 1.72578 0.89053 0
M  V30 9974 C 904.823 3.25478 1.21167 0
M  V30 9975 C 903.777 4.2379 0.598846 0
M  V30 9976 C 903.103 5.05783 1.73457 0
M  V30 9977 C 904.403 5.20387 -0.446659 0
M  V30 9978 H 906.097 2.94636 -0.531956 0
M  V30 9979 H 903.643 1.41683 -0.257267 0
M  V30 9980 H 905.596 3.8402 1.73513 0
M  V30 9981 H 904.32 2.61695 1.95405 0
M  V30 9982 H 902.979 3.66472 0.0966897 0
M  V30 9983 H 902.627 4.38405 2.46596 0
M  V30 9984 H 902.327 5.72343 1.33031 0
M  V30 9985 H 903.851 5.67183 2.26131 0
M  V30 9986 H 905.265 5.73299 -0.00930019 0
M  V30 9987 H 903.662 5.95143 -0.769735 0
M  V30 9988 H 904.732 4.65932 -1.34295 0
M  V30 9989 N 906.075 0.2925 1.54862 0
M  V30 9990 C 907.324 -0.319994 1.99146 0
M  V30 9991 C 907.637 -1.55658 1.18448 0
M  V30 9992 O 908.843 -2.24312 1.52959 0
M  V30 9993 C 907.299 -0.620665 3.54508 0
M  V30 9994 C 906.907 0.597098 4.44003 0
M  V30 9995 C 908.651 -1.19482 4.07338 0
M  V30 9996 C 906.558 0.270049 5.90783 0
M  V30 9997 H 905.488 -0.123342 0.743843 0
M  V30 9998 H 908.139 0.399876 1.7909 0
M  V30 9999 H 906.521 -1.3999 3.7043 0
M  V30 10000 H 907.695 1.37354 4.39853 0
M  V30 10001 H 906.01 1.0893 4.019 0
M  V30 10002 H 908.607 -1.45362 5.14562 0
M  V30 10003 H 908.95 -2.13435 3.57423 0
M  V30 10004 H 909.483 -0.477485 3.94924 0
M  V30 10005 H 906.222 1.17791 6.4483 0
M  V30 10006 H 905.742 -0.469292 5.97961 0
M  V30 10007 H 907.421 -0.131471 6.46866 0
M  V30 10008 N 907.553 -1.57587 0.0200696 0
M  V30 10009 C 908.503 -2.0616 -0.973751 0
M  V30 10010 C 909.487 -0.960282 -1.29102 0
M  V30 10011 O 910.679 -1.22391 -1.27865 0
M  V30 10012 C 907.808 -2.58487 -2.25919 0
M  V30 10013 C 906.894 -3.75533 -1.97068 0
M  V30 10014 N 907.285 -4.86482 -1.38451 0
M  V30 10015 C 905.583 -3.83847 -2.27107 0
M  V30 10016 C 906.284 -5.67773 -1.26527 0
M  V30 10017 N 905.26 -5.14398 -1.75772 0
M  V30 10018 H 909.062 -2.89346 -0.515365 0
M  V30 10019 H 906.576 -1.61341 -0.185163 0
M  V30 10020 H 908.573 -2.91572 -2.97979 0
M  V30 10021 H 907.233 -1.76728 -2.72392 0
M  V30 10022 H 908.244 -5.06922 -1.06069 0
M  V30 10023 H 904.921 -3.12978 -2.76316 0
M  V30 10024 H 906.311 -6.66966 -0.812785 0
M  V30 10025 N 909.032 0.252966 -1.55557 0
M  V30 10026 C 910.279 0.981852 -1.77104 0
M  V30 10027 C 910.607 1.85547 -0.583305 0
M  V30 10028 O 909.862 1.90836 0.43359 0
M  V30 10029 C 910.161 1.87785 -3.04091 0
M  V30 10030 C 909.827 1.16009 -4.35721 0
M  V30 10031 C 908.489 0.961697 -4.71492 0
M  V30 10032 C 910.841 0.650884 -5.1712 0
M  V30 10033 C 908.169 0.241704 -5.86202 0
M  V30 10034 C 910.521 -0.0556124 -6.32576 0
M  V30 10035 C 909.185 -0.265536 -6.66972 0
M  V30 10036 H 908.455 0.359285 -0.64807 0
M  V30 10037 H 911.102 0.252443 -1.89829 0
M  V30 10038 H 909.407 2.67412 -2.86353 0
M  V30 10039 H 911.104 2.44339 -3.17961 0
M  V30 10040 H 907.694 1.32465 -4.07616 0
M  V30 10041 H 911.878 0.791719 -4.89944 0
M  V30 10042 H 907.134 0.0685292 -6.11362 0
M  V30 10043 H 911.308 -0.457839 -6.94893 0
M  V30 10044 H 908.935 -0.8254 -7.55706 0
M  V30 10045 N 910.51 1.48831 0.518367 0
M  V30 10046 C 911.759 1.5669 1.27008 0
M  V30 10047 C 912.072 0.250934 1.93984 0
M  V30 10048 O 913.278 0.207884 2.70703 0
M  V30 10049 C 911.734 2.76387 2.30517 0
M  V30 10050 C 911.342 4.14673 1.69559 0
M  V30 10051 C 913.086 2.93566 3.06625 0
M  V30 10052 C 910.993 5.25616 2.71076 0
M  V30 10053 H 909.923 0.583362 0.477708 0
M  V30 10054 H 912.574 1.75187 0.546052 0
M  V30 10055 H 910.956 2.51348 3.06006 0
M  V30 10056 H 912.13 4.49779 1.00179 0
M  V30 10057 H 910.445 4.02708 1.05902 0
M  V30 10058 H 913.042 3.7362 3.82508 0
M  V30 10059 H 913.385 2.03462 3.63193 0
M  V30 10060 H 913.918 3.18562 2.38251 0
M  V30 10061 H 910.657 6.17723 2.19313 0
M  V30 10062 H 910.177 4.94985 3.38748 0
M  V30 10063 H 911.856 5.5422 3.3384 0
M  V30 10064 N 911.988 -0.768124 1.37614 0
M  V30 10065 C 912.936 -1.9029 1.33763 0
M  V30 10066 C 913.93 -1.67888 0.225814 0
M  V30 10067 O 915.136 -1.75634 0.394043 0
M  V30 10068 H 911.511 -0.625828 0.416945 0
M  V30 10069 H 913.482 -1.90654 2.29551 0
M  V30 10070 C 912.231 -3.27598 1.16511 0
M  V30 10071 H 911.554 -3.45414 2.01318 0
M  V30 10072 H 912.994 -4.07288 1.17867 0
M  V30 10073 C 911.453 -3.36653 -0.129001 0
M  V30 10074 O 911.983 -3.86023 -1.11128 0
M  V30 10075 N 910.189 -2.90036 -0.180926 0
M  V30 10076 H 909.736 -2.5005 0.619076 0
M  V30 10077 H 909.694 -2.96475 -1.04641 0
M  V30 10078 N 913.466 -1.22244 -0.994698 0
M  V30 10079 C 914.399 -0.934168 -2.08203 0
M  V30 10080 C 915.377 0.122231 -1.6214 0
M  V30 10081 O 916.561 -0.00896598 -1.88498 0
M  V30 10082 C 913.688 -0.404646 -3.36274 0
M  V30 10083 C 912.734 -1.44544 -4.01259 0
M  V30 10084 S 913.567 -3.01816 -4.42343 0
M  V30 10085 C 914.723 -2.50497 -5.73587 0
M  V30 10086 H 914.956 -1.85493 -2.32335 0
M  V30 10087 H 912.489 -1.0533 -1.12893 0
M  V30 10088 H 914.447 -0.105719 -4.10364 0
M  V30 10089 H 913.108 0.494971 -3.10176 0
M  V30 10090 H 912.301 -1.02478 -4.93472 0
M  V30 10091 H 911.903 -1.69298 -3.33488 0
M  V30 10092 H 914.195 -1.91626 -6.49835 0
M  V30 10093 H 915.138 -3.41193 -6.20478 0
M  V30 10094 H 915.546 -1.91845 -5.30901 0
M  V30 10095 N 914.944 1.19125 -1.03184 0
M  V30 10096 C 916.191 1.88883 -0.730029 0
M  V30 10097 C 916.519 1.79807 0.741602 0
M  V30 10098 O 915.774 1.18686 1.55603 0
M  V30 10099 C 916.073 3.39052 -1.13041 0
M  V30 10100 C 915.739 3.68332 -2.60082 0
M  V30 10101 C 914.401 3.76033 -3.00254 0
M  V30 10102 C 916.753 3.81423 -3.55199 0
M  V30 10103 C 914.081 3.94296 -4.34451 0
M  V30 10104 C 916.433 4.012 -4.89103 0
M  V30 10105 C 915.097 4.07134 -5.28959 0
M  V30 10106 H 914.367 0.691172 -0.267137 0
M  V30 10107 H 917.014 1.41053 -1.29523 0
M  V30 10108 H 915.319 3.88801 -0.48386 0
M  V30 10109 H 917.016 3.91351 -0.874368 0
M  V30 10110 H 913.606 3.62948 -2.27961 0
M  V30 10111 H 917.79 3.74814 -3.25313 0
M  V30 10112 H 913.046 3.97131 -4.64863 0
M  V30 10113 H 917.22 4.10271 -5.62717 0
M  V30 10114 H 914.847 4.21038 -6.32954 0
M  V30 10115 N 916.422 0.810101 1.35185 0
M  V30 10116 C 917.352 0.237453 2.32289 0
M  V30 10117 C 918.333 -0.639032 1.5764 0
M  V30 10118 O 919.518 -0.568575 1.8569 0
M  V30 10119 C 916.648 -0.611964 3.41866 0
M  V30 10120 C 915.602 0.166318 4.27677 0
M  V30 10121 C 914.928 -0.805024 5.28605 0
M  V30 10122 C 916.228 1.36729 5.04086 0
M  V30 10123 H 917.922 1.04874 2.80432 0
M  V30 10124 H 915.468 0.505751 1.34826 0
M  V30 10125 H 917.421 -1.02267 4.08802 0
M  V30 10126 H 916.145 -1.45617 2.92341 0
M  V30 10127 H 914.804 0.558238 3.62325 0
M  V30 10128 H 914.452 -1.64483 4.75347 0
M  V30 10129 H 914.152 -0.288577 5.86891 0
M  V30 10130 H 915.676 -1.21386 5.98413 0
M  V30 10131 H 917.09 1.03128 5.63948 0
M  V30 10132 H 915.487 1.81848 5.71884 0
M  V30 10133 H 916.557 2.15214 4.34524 0
M  V30 10134 N 917.9 -1.47166 0.563914 0
M  V30 10135 C 919.147 -2.02456 0.042371 0
M  V30 10136 C 919.475 -1.43753 -1.31016 0
M  V30 10137 O 918.73 -0.585287 -1.86743 0
M  V30 10138 C 919.029 -3.57279 -0.0931797 0
M  V30 10139 C 918.695 -4.34932 1.18933 0
M  V30 10140 C 917.357 -4.55867 1.54073 0
M  V30 10141 C 919.709 -4.79665 2.03889 0
M  V30 10142 C 917.037 -5.18785 2.74005 0
M  V30 10143 C 919.389 -5.43907 3.23029 0
M  V30 10144 C 918.053 -5.63074 3.58475 0
M  V30 10145 H 917.323 -0.740838 0.0155047 0
M  V30 10146 H 919.97 -1.76759 0.736776 0
M  V30 10147 H 918.275 -3.82005 -0.870596 0
M  V30 10148 H 919.972 -3.97716 -0.512176 0
M  V30 10149 H 916.562 -4.18921 0.905718 0
M  V30 10150 H 920.746 -4.63264 1.78046 0
M  V30 10151 H 916.002 -5.31818 3.01628 0
M  V30 10152 H 920.176 -5.77531 3.89141 0
M  V30 10153 H 917.803 -6.11598 4.515 0
M  V30 10154 N 919.378 -0.300708 -1.54705 0
M  V30 10155 C 920.326 0.591264 -2.2496 0
M  V30 10156 C 921.32 1.13725 -1.2555 0
M  V30 10157 O 922.526 1.08793 -1.43402 0
M  V30 10158 H 918.901 0.209278 -0.722293 0
M  V30 10159 H 920.872 -0.0238175 -2.9839 0
M  V30 10160 C 919.621 1.75179 -3.00346 0
M  V30 10161 H 918.944 1.34089 -3.76643 0
M  V30 10162 H 920.384 2.35198 -3.52786 0
M  V30 10163 C 918.843 2.65574 -2.07298 0
M  V30 10164 O 919.373 3.6666 -1.64083 0
M  V30 10165 N 917.579 2.33301 -1.7326 0
M  V30 10166 H 917.126 1.51142 -2.08599 0
M  V30 10167 H 917.084 2.94049 -1.11278 0
M  V30 10168 N 920.856 1.57574 -0.0284266 0
M  V30 10169 C 922.086 1.95787 0.659617 0
M  V30 10170 C 922.494 0.903475 1.66235 0
M  V30 10171 O 921.837 -0.12329 1.83286 0
M  V30 10172 C 921.899 3.30139 1.42298 0
M  V30 10173 C 921.563 4.53322 0.578658 0
M  V30 10174 C 922.56 5.19696 -0.145751 0
M  V30 10175 C 920.245 4.9964 0.516264 0
M  V30 10176 C 922.239 6.30708 -0.921235 0
M  V30 10177 C 919.926 6.10534 -0.262925 0
M  V30 10178 C 920.924 6.75927 -0.980382 0
M  V30 10179 O 920.612 7.84692 -1.7468 0
M  V30 10180 H 920.344 0.649681 0.186792 0
M  V30 10181 H 922.898 2.05227 -0.0842687 0
M  V30 10182 H 921.128 3.17188 2.21199 0
M  V30 10183 H 922.817 3.53259 1.99906 0
M  V30 10184 H 923.583 4.84882 -0.106876 0
M  V30 10185 H 919.462 4.48547 1.06427 0
M  V30 10186 H 923.006 6.81682 -1.48176 0
M  V30 10187 H 918.903 6.44786 -0.303519 0
M  V30 10188 H 919.671 8.01355 -1.6665 0
M  V30 10189 N 922.334 -0.244713 1.55689 0
M  V30 10190 C 923.559 -0.994157 1.8202 0
M  V30 10191 C 923.984 -1.78079 0.60577 0
M  V30 10192 O 923.342 -1.75748 -0.445221 0
M  V30 10193 C 923.39 -1.90599 3.06111 0
M  V30 10194 O 922.494 -2.99804 2.8318 0
M  V30 10195 H 921.835 -0.282767 0.600782 0
M  V30 10196 H 924.365 -0.26504 2.02876 0
M  V30 10197 H 924.375 -2.32023 3.35603 0
M  V30 10198 H 923.05 -1.32763 3.9414 0
M  V30 10199 H 921.627 -2.62493 2.64862 0
M  V30 10200 N 923.813 -1.49104 -0.510467 0
M  V30 10201 C 925.09 -1.48609 -1.27179 0
M  V30 10202 C 925.47 -0.208537 -2.10067 0
M  V30 10203 O 924.818 0.809335 -2.13687 0
M  V30 10204 C 925.028 -2.75953 -2.1366 0
M  V30 10205 C 926.376 -3.25067 -2.73161 0
M  V30 10206 O 927.4 -2.77005 -2.23934 0
M  V30 10207 O 926.259 -4.08747 -3.62751 0
M  V30 10208 H 923.353 -0.594374 -0.57502 0
M  V30 10209 H 925.899 -1.61358 -0.525515 0
M  V30 10210 H 924.671 -3.60434 -1.52325 0
M  V30 10211 H 924.294 -2.66019 -2.95499 0
M  V30 10212 N 925.291 0.760815 -1.38019 0
M  V30 10213 C 926.516 1.55513 -1.37224 0
M  V30 10214 C 926.941 1.88062 0.037611 0
M  V30 10215 O 926.299 1.50042 1.0177 0
M  V30 10216 C 926.347 2.83539 -2.22796 0
M  V30 10217 O 925.451 3.78384 -1.64009 0
M  V30 10218 H 924.792 0.470642 -0.468393 0
M  V30 10219 H 927.322 0.940792 -1.81687 0
M  V30 10220 H 927.332 3.32535 -2.36399 0
M  V30 10221 H 926.007 2.59178 -3.25269 0
M  V30 10222 H 924.584 3.37063 -1.59508 0
M  V30 10223 N 926.769 1.22769 0.988202 0
M  V30 10224 C 927.994 1.08239 1.76915 0
M  V30 10225 C 928.419 -0.362519 1.84574 0
M  V30 10226 O 927.777 -1.26202 1.30165 0
M  V30 10227 C 927.825 1.70363 3.17819 0
M  V30 10228 O 926.929 0.960484 4.01059 0
M  V30 10229 H 926.27 0.379872 0.544604 0
M  V30 10230 H 928.8 1.62663 1.24104 0
M  V30 10231 H 928.81 1.7528 3.6843 0
M  V30 10232 H 927.485 2.75505 3.1156 0
M  V30 10233 H 926.062 0.987667 3.59582 0
M  V30 10234 N 928.247 -1.18576 1.03814 0
M  V30 10235 C 929.195 -2.24166 0.620678 0
M  V30 10236 C 930.189 -1.65718 -0.351282 0
M  V30 10237 O 931.395 -1.78665 -0.218848 0
M  V30 10238 H 927.77 -0.729522 0.182487 0
M  V30 10239 H 929.741 -2.56686 1.52166 0
M  V30 10240 C 928.49 -3.477 -0.00307331 0
M  V30 10241 H 927.813 -3.92969 0.735874 0
M  V30 10242 H 929.253 -4.23214 -0.257988 0
M  V30 10243 C 927.712 -3.12757 -1.2524 0
M  V30 10244 O 928.242 -3.26261 -2.34344 0
M  V30 10245 N 926.448 -2.67104 -1.14471 0
M  V30 10246 H 925.995 -2.56316 -0.256873 0
M  V30 10247 H 925.953 -2.44096 -1.98153 0
M  V30 10248 N 929.725 -0.817259 -1.34754 0
M  V30 10249 C 930.688 -0.240611 -2.27934 0
M  V30 10250 C 931.688 0.578219 -1.50044 0
M  V30 10251 O 932.878 0.395148 -1.69659 0
M  V30 10252 C 930.01 0.663318 -3.34384 0
M  V30 10253 H 931.203 -1.06257 -2.80445 0
M  V30 10254 H 928.756 -0.588697 -1.4479 0
M  V30 10255 H 929.491 1.50855 -2.87077 0
M  V30 10256 H 929.276 0.0777388 -3.92023 0
M  V30 10257 H 930.766 1.06076 -4.03903 0
M  V30 10258 N 931.203 1.46865 -0.571711 0
M  V30 10259 C 932.614 1.86158 -0.142181 0
M  V30 10260 C 932.965 1.47663 1.2919 0
M  V30 10261 O 932.09 0.886393 1.97413 0
M  V30 10262 C 932.685 3.37867 -0.251256 0
M  V30 10263 C 931.244 3.76198 0.123329 0
M  V30 10264 C 930.391 2.70902 -0.592232 0
M  V30 10265 H 933.342 1.38176 -0.780587 0
M  V30 10266 H 933.363 3.76842 0.526331 0
M  V30 10267 H 932.875 3.65853 -1.2951 0
M  V30 10268 H 930.976 3.53829 1.16773 0
M  V30 10269 H 931.089 4.78471 -0.24533 0
M  V30 10270 H 929.453 2.54678 -0.0336927 0
M  V30 10271 H 930.236 3.01729 -1.63751 0
M  V30 10272 N 932.681 0.308908 1.54543 0
M  V30 10273 C 933.611 -0.556657 2.26768 0
M  V30 10274 C 934.592 -1.13145 1.27013 0
M  V30 10275 O 935.777 -1.15931 1.558 0
M  V30 10276 C 932.907 -1.72481 3.01443 0
M  V30 10277 C 931.861 -1.28001 4.08411 0
M  V30 10278 C 931.187 -2.53395 4.70845 0
M  V30 10279 C 932.487 -0.405497 5.20724 0
M  V30 10280 H 934.181 0.0457618 2.99365 0
M  V30 10281 H 931.727 0.0234495 1.43981 0
M  V30 10282 H 933.68 -2.3365 3.50693 0
M  V30 10283 H 932.404 -2.35359 2.26437 0
M  V30 10284 H 931.063 -0.69133 3.60022 0
M  V30 10285 H 930.711 -3.14604 3.92471 0
M  V30 10286 H 930.411 -2.2433 5.43093 0
M  V30 10287 H 931.935 -3.15352 5.22863 0
M  V30 10288 H 933.349 -0.923076 5.6582 0
M  V30 10289 H 931.746 -0.208282 5.99738 0
M  V30 10290 H 932.816 0.567412 4.81569 0
M  V30 10291 N 934.159 -1.57557 0.0367827 0
M  V30 10292 C 935.389 -1.96134 -0.649225 0
M  V30 10293 C 935.797 -0.912279 -1.65753 0
M  V30 10294 O 935.14 0.113569 -1.83349 0
M  V30 10295 C 935.202 -3.30889 -1.40545 0
M  V30 10296 C 934.866 -4.53622 -0.554609 0
M  V30 10297 C 935.863 -5.19611 0.17331 0
M  V30 10298 C 933.548 -4.99907 -0.48976 0
M  V30 10299 C 935.542 -6.3021 0.95467 0
M  V30 10300 C 933.229 -6.10386 0.295299 0
M  V30 10301 C 934.227 -6.75398 1.01621 0
M  V30 10302 O 933.915 -7.83755 1.78839 0
M  V30 10303 H 933.647 -0.650662 -0.183344 0
M  V30 10304 H 936.201 -2.05179 0.0951512 0
M  V30 10305 H 934.431 -3.18356 -2.19513 0
M  V30 10306 H 936.12 -3.54315 -1.9803 0
M  V30 10307 H 936.886 -4.84819 0.132589 0
M  V30 10308 H 932.765 -4.49105 -1.04046 0
M  V30 10309 H 936.309 -6.80886 1.51789 0
M  V30 10310 H 932.206 -6.44616 0.33771 0
M  V30 10311 H 932.974 -8.0046 1.70898 0
M  V30 10312 N 935.637 0.236453 -1.55816 0
M  V30 10313 C 936.584 1.29289 -1.91188 0
M  V30 10314 C 937.554 1.47315 -0.767301 0
M  V30 10315 O 938.739 1.61128 -1.02189 0
M  V30 10316 C 935.879 2.64126 -2.22107 0
M  V30 10317 C 934.992 2.54022 -3.49423 0
M  V30 10318 C 934.127 3.81282 -3.69861 0
M  V30 10319 C 933.166 3.65839 -4.90743 0
M  V30 10320 N 932.303 4.85014 -5.07647 0
M  V30 10321 H 937.143 0.98424 -2.81277 0
M  V30 10322 H 934.68 0.474722 -1.39229 0
M  V30 10323 H 936.638 3.42626 -2.3804 0
M  V30 10324 H 935.268 2.93118 -1.35209 0
M  V30 10325 H 934.32 1.67036 -3.41765 0
M  V30 10326 H 935.632 2.38525 -4.38072 0
M  V30 10327 H 934.786 4.68226 -3.8581 0
M  V30 10328 H 933.525 3.99688 -2.79465 0
M  V30 10329 H 932.53 2.77279 -4.74759 0
M  V30 10330 H 933.755 3.48918 -5.82609 0
M  V30 10331 H 931.701 5.03762 -4.20191 0
M  V30 10332 H 931.618 4.72188 -5.90402 0
M  V30 10333 H 932.886 5.73427 -5.28017 0
M  V30 10334 N 937.115 1.49373 0.502552 0
M  V30 10335 C 938.065 1.62321 1.60112 0
M  V30 10336 C 939.049 0.47895 1.53606 0
M  V30 10337 O 940.241 0.731824 1.61162 0
M  V30 10338 C 937.37 1.69162 2.98729 0
M  V30 10339 C 936.456 2.89161 3.10237 0
M  V30 10340 N 936.847 4.13256 2.91638 0
M  V30 10341 C 935.145 2.87065 3.41335 0
M  V30 10342 C 935.846 4.93913 3.07287 0
M  V30 10343 N 934.822 4.27249 3.36094 0
M  V30 10344 H 938.624 2.55989 1.44384 0
M  V30 10345 H 936.138 1.46123 0.708644 0
M  V30 10346 H 938.135 1.76536 3.77678 0
M  V30 10347 H 936.795 0.766301 3.15528 0
M  V30 10348 H 937.806 4.4326 2.67844 0
M  V30 10349 H 934.483 2.03905 3.6432 0
M  V30 10350 H 935.873 6.02491 2.97413 0
M  V30 10351 N 938.594 -0.753485 1.38421 0
M  V30 10352 C 939.526 -1.87692 1.31547 0
M  V30 10353 C 940.539 -1.612 0.227671 0
M  V30 10354 O 941.728 -1.71778 0.485238 0
M  V30 10355 C 938.828 -3.23329 1.01545 0
M  V30 10356 C 938.001 -3.77324 2.21236 0
M  V30 10357 C 937.06 -4.91478 1.87977 0
M  V30 10358 O 936.086 -5.06106 2.60472 0
M  V30 10359 N 937.288 -5.74466 0.834796 0
M  V30 10360 H 940.053 -1.94099 2.28354 0
M  V30 10361 H 937.614 -0.933421 1.32283 0
M  V30 10362 H 939.606 -3.9724 0.773477 0
M  V30 10363 H 938.176 -3.12307 0.135334 0
M  V30 10364 H 937.396 -2.94978 2.61498 0
M  V30 10365 H 938.684 -4.10131 3.01115 0
M  V30 10366 H 938.082 -5.65217 0.233606 0
M  V30 10367 H 936.639 -6.48524 0.652703 0
M  V30 10368 N 940.072 -1.23292 -0.981677 0
M  V30 10369 C 941.004 -0.970782 -2.07626 0
M  V30 10370 C 942.017 0.0547506 -1.62708 0
M  V30 10371 O 943.206 -0.180623 -1.77584 0
M  V30 10372 C 940.306 -0.44055 -3.36024 0
M  V30 10373 C 939.479 -1.52595 -4.09919 0
M  V30 10374 C 938.538 -1.00082 -5.16595 0
M  V30 10375 O 937.564 -1.68951 -5.43548 0
M  V30 10376 N 938.766 0.172017 -5.80245 0
M  V30 10377 H 941.531 -1.91316 -2.30691 0
M  V30 10378 H 939.092 -1.14133 -1.14828 0
M  V30 10379 H 941.084 -0.0743111 -4.04632 0
M  V30 10380 H 939.654 0.407211 -3.09936 0
M  V30 10381 H 938.874 -2.06501 -3.35784 0
M  V30 10382 H 940.162 -2.2559 -4.56055 0
M  V30 10383 H 939.56 0.748129 -5.60731 0
M  V30 10384 H 938.117 0.479532 -6.50034 0
M  V30 10385 N 941.55 1.18024 -1.04442 0
M  V30 10386 C 942.46 2.25436 -0.649276 0
M  V30 10387 C 943.476 1.70915 0.326189 0
M  V30 10388 O 944.652 2.00592 0.180174 0
M  V30 10389 C 941.717 3.46693 -0.0222558 0
M  V30 10390 C 940.778 4.16332 -1.0472 0
M  V30 10391 C 940.011 5.31799 -0.450011 0
M  V30 10392 O 940.234 5.65544 0.742717 0
M  V30 10393 O 939.168 5.90209 -1.18056 0
M  V30 10394 H 942.994 2.61508 -1.54426 0
M  V30 10395 H 940.579 1.25178 -0.81552 0
M  V30 10396 H 942.461 4.20132 0.326597 0
M  V30 10397 H 941.136 3.12436 0.84649 0
M  V30 10398 H 940.043 3.44944 -1.44792 0
M  V30 10399 H 941.376 4.54598 -1.88684 0
M  V30 10400 N 943.028 0.824394 1.34319 0
M  V30 10401 C 944.274 0.413779 1.98534 0
M  V30 10402 C 944.607 -1.02089 1.65201 0
M  V30 10403 O 943.882 -1.71129 0.924402 0
M  V30 10404 C 944.165 0.61801 3.54757 0
M  V30 10405 C 944.018 2.0989 3.97827 0
M  V30 10406 C 945.337 0.0549041 4.40066 0
M  V30 10407 H 942.456 0.151815 0.721194 0
M  V30 10408 H 945.098 1.03723 1.5919 0
M  V30 10409 H 943.248 0.0873107 3.88402 0
M  V30 10410 H 944.92 2.69335 3.74508 0
M  V30 10411 H 943.163 2.58881 3.48085 0
M  V30 10412 H 943.834 2.1926 5.06586 0
M  V30 10413 H 946.31 0.508348 4.12983 0
M  V30 10414 H 945.186 0.227595 5.48428 0
M  V30 10415 H 945.447 -1.04025 4.29687 0
M  V30 10416 N 944.506 -1.46559 0.579492 0
M  V30 10417 C 945.438 -2.28383 -0.19337 0
M  V30 10418 C 946.451 -1.38324 -0.858511 0
M  V30 10419 O 947.64 -1.62952 -0.728615 0
M  V30 10420 C 944.74 -3.13262 -1.29306 0
M  V30 10421 C 943.913 -4.31426 -0.720459 0
M  V30 10422 C 942.972 -4.97728 -1.70744 0
M  V30 10423 O 941.998 -5.55423 -1.24476 0
M  V30 10424 N 943.2 -4.94445 -3.04146 0
M  V30 10425 H 945.965 -2.95353 0.508611 0
M  V30 10426 H 943.526 -1.56436 0.417046 0
M  V30 10427 H 945.518 -3.54483 -1.95254 0
M  V30 10428 H 944.088 -2.48388 -1.89795 0
M  V30 10429 H 943.308 -3.94028 0.116398 0
M  V30 10430 H 944.596 -5.07808 -0.31763 0
M  V30 10431 H 943.994 -4.4881 -3.44363 0
M  V30 10432 H 942.551 -5.39616 -3.65592 0
M  V30 10433 N 945.984 -0.3171 -1.54377 0
M  V30 10434 C 947.209 0.292311 -2.0533 0
M  V30 10435 C 947.634 1.45503 -1.19207 0
M  V30 10436 O 946.992 1.80197 -0.199721 0
M  V30 10437 C 947.04 0.710787 -3.53525 0
M  V30 10438 O 946.144 1.81387 -3.70368 0
M  V30 10439 H 945.485 0.0539976 -0.661801 0
M  V30 10440 H 948.015 -0.463629 -1.99278 0
M  V30 10441 H 948.025 0.995216 -3.95676 0
M  V30 10442 H 946.7 -0.139668 -4.15665 0
M  V30 10443 H 945.277 1.52875 -3.40123 0
M  V30 10444 N 947.462 1.57535 -0.0451378 0
M  V30 10445 C 948.709 1.92451 0.629987 0
M  V30 10446 C 949.037 0.92298 1.71206 0
M  V30 10447 O 948.292 -0.0656626 1.9559 0
M  V30 10448 C 948.591 3.34065 1.27024 0
M  V30 10449 C 948.257 4.49785 0.316971 0
M  V30 10450 C 946.919 4.81169 0.0546406 0
M  V30 10451 C 949.271 5.20111 -0.336693 0
M  V30 10452 C 946.599 5.8023 -0.86889 0
M  V30 10453 C 948.951 6.2016 -1.24838 0
M  V30 10454 C 947.615 6.49976 -1.51944 0
M  V30 10455 H 946.885 0.704228 0.230529 0
M  V30 10456 H 949.532 1.91182 -0.110328 0
M  V30 10457 H 947.837 3.31672 2.08568 0
M  V30 10458 H 949.534 3.58359 1.79945 0
M  V30 10459 H 946.124 4.2529 0.531614 0
M  V30 10460 H 950.308 4.96082 -0.147105 0
M  V30 10461 H 945.564 6.0167 -1.08643 0
M  V30 10462 H 949.738 6.73767 -1.76098 0
M  V30 10463 H 947.365 7.26551 -2.2367 0
M  V30 10464 N 948.94 -0.228186 1.55939 0
M  V30 10465 C 950.187 -0.953552 1.78644 0
M  V30 10466 C 950.515 -1.84596 0.61275 0
M  V30 10467 O 949.77 -1.91502 -0.403175 0
M  V30 10468 C 950.069 -1.82924 3.0704 0
M  V30 10469 C 949.735 -1.09062 4.37511 0
M  V30 10470 C 948.397 -0.886565 4.72962 0
M  V30 10471 C 950.749 -0.568533 5.1809 0
M  V30 10472 C 948.077 -0.148413 5.86512 0
M  V30 10473 C 950.429 0.156243 6.32407 0
M  V30 10474 C 949.093 0.371612 6.66465 0
M  V30 10475 H 948.363 -0.348929 0.653704 0
M  V30 10476 H 951.01 -0.222211 1.90206 0
M  V30 10477 H 949.315 -2.62823 2.90571 0
M  V30 10478 H 951.012 -2.3925 3.21808 0
M  V30 10479 H 947.602 -1.25963 4.09672 0
M  V30 10480 H 951.786 -0.713673 4.91142 0
M  V30 10481 H 947.042 0.0287418 6.11393 0
M  V30 10482 H 951.216 0.568333 6.94077 0
M  V30 10483 H 948.843 0.945522 7.54297 0
M  V30 10484 N 950.418 -1.49637 -0.494624 0
M  V30 10485 C 951.664 -1.59681 -1.25019 0
M  V30 10486 C 951.997 -0.285511 -1.9209 0
M  V30 10487 O 951.272 0.711398 -1.81023 0
M  V30 10488 C 951.555 -2.76058 -2.31222 0
M  V30 10489 C 951.408 -4.17002 -1.68611 0
M  V30 10490 C 952.727 -2.88056 -3.32734 0
M  V30 10491 H 949.846 -0.581209 -0.453172 0
M  V30 10492 H 952.488 -1.81944 -0.547391 0
M  V30 10493 H 950.638 -2.57207 -2.91164 0
M  V30 10494 H 952.31 -4.47385 -1.12447 0
M  V30 10495 H 950.553 -4.22352 -0.989991 0
M  V30 10496 H 951.224 -4.94316 -2.45674 0
M  V30 10497 H 953.7 -3.05237 -2.82789 0
M  V30 10498 H 952.576 -3.71151 -4.04399 0
M  V30 10499 H 952.837 -1.97676 -3.95445 0
M  V30 10500 N 951.896 0.746133 -1.38819 0
M  V30 10501 C 953.142 1.50768 -1.35635 0
M  V30 10502 C 953.475 1.94132 0.0512435 0
M  V30 10503 O 952.75 1.65979 1.01396 0
M  V30 10504 C 953.033 2.7551 -2.31875 0
M  V30 10505 C 952.886 2.38236 -3.81528 0
M  V30 10506 C 954.205 3.77566 -2.26124 0
M  V30 10507 H 951.324 0.546922 -0.494009 0
M  V30 10508 H 953.966 0.854017 -1.69725 0
M  V30 10509 H 952.116 3.31285 -2.02935 0
M  V30 10510 H 953.788 1.88178 -4.21173 0
M  V30 10511 H 952.031 1.70601 -3.98846 0
M  V30 10512 H 952.702 3.27517 -4.44339 0
M  V30 10513 H 955.178 3.31349 -2.51689 0
M  V30 10514 H 954.054 4.62531 -2.95561 0
M  V30 10515 H 954.315 4.23689 -1.26254 0
M  V30 10516 N 953.375 1.23811 0.975125 0
M  V30 10517 C 954.308 0.967173 2.06691 0
M  V30 10518 C 955.286 -0.09642 1.62314 0
M  V30 10519 O 956.47 0.0389532 1.8846 0
M  V30 10520 C 953.597 0.458094 3.35588 0
M  V30 10521 C 952.643 1.5091 3.98909 0
M  V30 10522 S 953.476 3.08815 4.37485 0
M  V30 10523 C 954.632 2.59591 5.69529 0
M  V30 10524 H 954.865 1.89166 2.29355 0
M  V30 10525 H 952.398 1.07113 1.11203 0
M  V30 10526 H 954.356 0.170991 4.10144 0
M  V30 10527 H 953.017 -0.445562 3.10924 0
M  V30 10528 H 952.21 1.10315 4.91779 0
M  V30 10529 H 951.812 1.74582 3.30752 0
M  V30 10530 H 954.104 2.0194 6.46704 0
M  V30 10531 H 955.047 3.51021 6.14971 0
M  V30 10532 H 955.455 2.00267 5.27782 0
M  V30 10533 N 954.853 -1.17469 1.05066 0
M  V30 10534 C 955.816 -2.19648 0.654793 0
M  V30 10535 C 956.816 -1.58107 -0.293063 0
M  V30 10536 O 958.006 -1.74029 -0.077106 0
M  V30 10537 C 955.138 -3.40878 -0.0384437 0
M  V30 10538 H 956.331 -2.56184 1.55915 0
M  V30 10539 H 953.884 -1.31528 0.844396 0
M  V30 10540 H 954.619 -3.09885 -0.956133 0
M  V30 10541 H 954.404 -3.86792 0.642961 0
M  V30 10542 H 955.894 -4.1651 -0.301568 0
M  V30 10543 N 956.331 -0.831506 -1.3388 0
M  V30 10544 C 957.261 -0.274378 -2.31882 0
M  V30 10545 C 958.242 0.613872 -1.58637 0
M  V30 10546 O 959.427 0.538961 -1.86571 0
M  V30 10547 C 956.557 0.557498 -3.42796 0
M  V30 10548 C 955.511 -0.234337 -4.27358 0
M  V30 10549 C 954.837 0.720825 -5.29819 0
M  V30 10550 C 956.137 -1.44732 -5.01847 0
M  V30 10551 H 957.831 -1.09322 -2.78728 0
M  V30 10552 H 955.377 -0.527136 -1.34005 0
M  V30 10553 H 957.33 0.957501 -4.10378 0
M  V30 10554 H 956.054 1.40947 -2.94621 0
M  V30 10555 H 954.713 -0.61581 -3.61391 0
M  V30 10556 H 954.361 1.569 -4.77903 0
M  V30 10557 H 954.061 0.195171 -5.87276 0
M  V30 10558 H 955.585 1.1185 -6.00268 0
M  V30 10559 H 956.999 -1.12087 -5.62236 0
M  V30 10560 H 955.396 -1.90923 -5.68919 0
M  V30 10561 H 956.466 -2.22099 -4.31045 0
M  V30 10562 N 957.809 1.4625 -0.587256 0
M  V30 10563 C 959.058 2.01571 -0.0722643 0
M  V30 10564 C 959.371 1.46385 1.29733 0
M  V30 10565 O 960.577 1.93554 1.90392 0
M  V30 10566 C 959.033 3.59814 -0.078579 0
M  V30 10567 C 958.641 4.23996 -1.44678 0
M  V30 10568 C 960.385 4.22776 0.382231 0
M  V30 10569 C 958.292 5.74332 -1.41057 0
M  V30 10570 H 957.222 0.753642 -0.0232461 0
M  V30 10571 H 959.873 1.67936 -0.739577 0
M  V30 10572 H 958.255 3.90546 0.654988 0
M  V30 10573 H 959.429 4.04867 -2.20043 0
M  V30 10574 H 957.744 3.73147 -1.84799 0
M  V30 10575 H 960.341 5.32983 0.428182 0
M  V30 10576 H 960.684 3.92027 1.40072 0
M  V30 10577 H 961.217 3.96687 -0.297417 0
M  V30 10578 H 957.956 6.09747 -2.40601 0
M  V30 10579 H 957.476 5.95711 -0.699185 0
M  V30 10580 H 959.155 6.37137 -1.12543 0
M  V30 10581 N 959.287 0.325282 1.54207 0
M  V30 10582 C 960.512 -0.281418 2.05482 0
M  V30 10583 C 960.937 -1.44869 1.19977 0
M  V30 10584 O 960.295 -1.80088 0.209275 0
M  V30 10585 C 960.343 -0.692029 3.53897 0
M  V30 10586 O 959.447 -1.7942 3.71325 0
M  V30 10587 H 958.788 -0.0504872 0.662078 0
M  V30 10588 H 961.318 0.474191 1.99029 0
M  V30 10589 H 961.328 -0.974219 3.96198 0
M  V30 10590 H 960.003 0.161709 4.15586 0
M  V30 10591 H 958.58 -1.51069 3.40929 0
M  V30 10592 N 960.765 -1.57509 0.0534917 0
M  V30 10593 C 962.011 -1.93068 -0.62069 0
M  V30 10594 C 962.344 -0.932313 -1.70357 0
M  V30 10595 O 961.619 0.0413393 -1.94456 0
M  V30 10596 C 961.902 -3.38997 -1.21463 0
M  V30 10597 C 961.755 -4.49583 -0.13965 0
M  V30 10598 C 963.074 -3.85366 -2.12558 0
M  V30 10599 H 960.193 -0.702083 -0.224163 0
M  V30 10600 H 962.835 -1.89647 0.115729 0
M  V30 10601 H 960.985 -3.42043 -1.84226 0
M  V30 10602 H 962.657 -4.58664 0.492411 0
M  V30 10603 H 960.9 -4.30525 0.532006 0
M  V30 10604 H 961.571 -5.48781 -0.595287 0
M  V30 10605 H 964.047 -3.8421 -1.59755 0
M  V30 10606 H 962.923 -4.8812 -2.51058 0
M  V30 10607 H 963.184 -3.22256 -3.02661 0
M  V30 10608 N 962.243 0.219913 -1.56058 0
M  V30 10609 C 963.654 0.786766 -1.69313 0
M  V30 10610 C 964.005 1.84916 -0.655782 0
M  V30 10611 O 963.13 2.1554 0.192772 0
M  V30 10612 C 963.725 1.43387 -3.06962 0
M  V30 10613 C 962.284 1.94809 -3.22066 0
M  V30 10614 C 961.431 0.808863 -2.65241 0
M  V30 10615 H 964.382 -0.00476777 -1.58699 0
M  V30 10616 H 964.403 2.30272 -3.02911 0
M  V30 10617 H 963.915 0.660405 -3.8244 0
M  V30 10618 H 962.016 2.74952 -2.5146 0
M  V30 10619 H 962.129 2.12694 -4.293 0
M  V30 10620 H 960.493 1.21661 -2.23765 0
M  V30 10621 H 961.276 0.0480458 -3.43266 0
M  V30 10622 N 963.721 1.49897 0.486681 0
M  V30 10623 C 964.967 1.61313 1.23893 0
M  V30 10624 C 965.322 0.302457 1.90008 0
M  V30 10625 O 964.615 -0.698466 1.78415 0
M  V30 10626 C 964.809 2.71982 2.31863 0
M  V30 10627 C 964.638 4.13685 1.76338 0
M  V30 10628 C 963.408 4.8029 1.57002 0
M  V30 10629 C 965.606 4.98446 1.26711 0
M  V30 10630 N 963.588 6.06259 0.965564 0
M  V30 10631 C 964.959 6.15011 0.784912 0
M  V30 10632 C 967.014 4.84338 1.15419 0
M  V30 10633 C 965.717 7.19019 0.200942 0
M  V30 10634 C 967.743 5.88508 0.584173 0
M  V30 10635 C 967.105 7.04311 0.112272 0
M  V30 10636 H 963.204 0.644555 0.442801 0
M  V30 10637 H 965.788 1.86959 0.543562 0
M  V30 10638 H 963.959 2.48086 2.98844 0
M  V30 10639 H 965.691 2.72842 2.98897 0
M  V30 10640 H 962.446 4.37324 1.81781 0
M  V30 10641 H 962.87 6.73554 0.6822 0
M  V30 10642 H 967.512 3.95107 1.50499 0
M  V30 10643 H 965.23 8.07937 -0.162099 0
M  V30 10644 H 968.816 5.79653 0.49938 0
M  V30 10645 H 967.696 7.83539 -0.321907 0
M  V30 10646 N 965.199 -0.738761 1.39212 0
M  V30 10647 C 966.132 -1.86135 1.32018 0
M  V30 10648 C 967.11 -1.61432 0.194512 0
M  V30 10649 O 968.294 -1.84746 0.374331 0
M  V30 10650 C 965.421 -3.22044 1.04907 0
M  V30 10651 C 964.467 -3.65612 2.19613 0
M  V30 10652 S 965.3 -3.75418 3.81866 0
M  V30 10653 C 966.456 -5.14122 3.56972 0
M  V30 10654 H 966.689 -1.91954 2.27027 0
M  V30 10655 H 964.222 -0.903244 1.25223 0
M  V30 10656 H 966.18 -4.00524 0.899491 0
M  V30 10657 H 964.841 -3.13886 0.115918 0
M  V30 10658 H 964.034 -4.64232 1.96227 0
M  V30 10659 H 963.636 -2.94327 2.30755 0
M  V30 10660 H 965.928 -6.00339 3.14005 0
M  V30 10661 H 966.871 -5.42535 4.55039 0
M  V30 10662 H 967.279 -4.8362 2.91156 0
M  V30 10663 N 966.677 -1.24326 -0.968545 0
M  V30 10664 C 967.607 -1.05951 -2.08079 0
M  V30 10665 C 968.588 0.0272666 -1.70078 0
M  V30 10666 O 969.773 -0.139644 -1.93697 0
M  V30 10667 C 966.903 -0.662623 -3.4092 0
M  V30 10668 C 965.857 -1.69807 -3.92873 0
M  V30 10669 C 965.183 -1.15628 -5.22048 0
M  V30 10670 C 966.483 -3.09383 -4.20808 0
M  V30 10671 H 968.177 -1.98984 -2.23709 0
M  V30 10672 H 965.723 -0.958112 -1.075 0
M  V30 10673 H 967.676 -0.521071 -4.18166 0
M  V30 10674 H 966.4 0.303399 -3.25188 0
M  V30 10675 H 965.059 -1.82783 -3.17783 0
M  V30 10676 H 964.707 -0.180888 -5.02675 0
M  V30 10677 H 964.407 -1.84822 -5.57776 0
M  V30 10678 H 965.931 -1.02683 -6.01904 0
M  V30 10679 H 967.345 -2.99642 -4.88761 0
M  V30 10680 H 965.742 -3.75923 -4.67763 0
M  V30 10681 H 966.812 -3.57486 -3.27616 0
M  V30 10682 N 968.156 1.1691 -1.05688 0
M  V30 10683 C 969.086 2.23275 -0.683402 0
M  V30 10684 C 970.067 1.6704 0.321206 0
M  V30 10685 O 971.252 1.93191 0.197691 0
M  V30 10686 C 968.382 3.47244 -0.0626006 0
M  V30 10687 C 967.336 4.16333 -0.992513 0
M  V30 10688 C 966.662 5.34182 -0.23533 0
M  V30 10689 C 967.962 4.68002 -2.31886 0
M  V30 10690 H 969.656 2.54771 -1.57264 0
M  V30 10691 H 967.202 1.2246 -0.757606 0
M  V30 10692 H 969.155 4.20874 0.210503 0
M  V30 10693 H 967.879 3.1503 0.861616 0
M  V30 10694 H 966.538 3.44622 -1.25026 0
M  V30 10695 H 966.186 4.9822 0.69181 0
M  V30 10696 H 965.886 5.81346 -0.855002 0
M  V30 10697 H 967.41 6.10592 0.0303717 0
M  V30 10698 H 968.824 5.33244 -2.10531 0
M  V30 10699 H 967.221 5.25764 -2.89296 0
M  V30 10700 H 968.291 3.84541 -2.95391 0
M  V30 10701 N 969.634 0.838594 1.33437 0
M  V30 10702 C 970.883 0.430484 1.97053 0
M  V30 10703 C 971.196 -1.01556 1.6717 0
M  V30 10704 O 972.402 -1.52834 2.24397 0
M  V30 10705 C 970.858 0.718828 3.52648 0
M  V30 10706 C 970.466 2.17953 3.91408 0
M  V30 10707 C 972.21 0.377654 4.22817 0
M  V30 10708 C 970.117 2.41194 5.39981 0
M  V30 10709 H 969.047 0.157239 0.737422 0
M  V30 10710 H 971.698 1.02714 1.5206 0
M  V30 10711 H 970.08 0.0518042 3.95966 0
M  V30 10712 H 971.254 2.88701 3.59149 0
M  V30 10713 H 969.569 2.48366 3.34221 0
M  V30 10714 H 972.166 0.528926 5.32077 0
M  V30 10715 H 972.509 -0.679338 4.1072 0
M  V30 10716 H 973.042 0.999899 3.85028 0
M  V30 10717 H 969.781 3.45457 5.57081 0
M  V30 10718 H 969.301 1.75007 5.73701 0
M  V30 10719 H 970.98 2.24334 6.06863 0
M  V30 10720 N 971.112 -1.45937 0.595003 0
M  V30 10721 C 972.059 -2.30427 -0.131165 0
M  V30 10722 C 973.029 -1.41355 -0.872232 0
M  V30 10723 O 974.214 -1.70296 -0.860467 0
M  V30 10724 C 971.354 -3.26045 -1.13087 0
M  V30 10725 C 970.467 -4.30218 -0.391982 0
M  V30 10726 C 969.602 -5.12953 -1.3803 0
M  V30 10727 C 968.641 -6.08865 -0.628505 0
M  V30 10728 N 967.778 -6.84425 -1.56548 0
M  V30 10729 H 972.618 -2.91992 0.595359 0
M  V30 10730 H 970.155 -1.43895 0.305405 0
M  V30 10731 H 972.113 -3.79937 -1.72348 0
M  V30 10732 H 970.743 -2.66261 -1.82496 0
M  V30 10733 H 969.795 -3.79086 0.315895 0
M  V30 10734 H 971.107 -4.98418 0.195173 0
M  V30 10735 H 970.261 -5.71184 -2.04534 0
M  V30 10736 H 969 -4.44743 -2.00138 0
M  V30 10737 H 968.005 -5.49777 0.0502431 0
M  V30 10738 H 969.23 -6.79099 -0.012641 0
M  V30 10739 H 967.176 -6.18913 -2.17444 0
M  V30 10740 H 967.093 -7.48931 -1.03145 0
M  V30 10741 H 968.361 -7.47204 -2.22049 0
M  V30 10742 N 972.59 -0.333456 -1.54032 0
M  V30 10743 C 974.001 0.15256 -1.86076 0
M  V30 10744 C 974.352 1.50819 -1.25492 0
M  V30 10745 O 973.477 2.08903 -0.564665 0
M  V30 10746 C 974.072 0.283599 -3.37611 0
M  V30 10747 C 972.631 0.713841 -3.69569 0
M  V30 10748 C 971.778 -0.158515 -2.76847 0
M  V30 10749 H 974.729 -0.553404 -1.48738 0
M  V30 10750 H 974.75 1.11284 -3.63863 0
M  V30 10751 H 974.262 -0.703193 -3.81676 0
M  V30 10752 H 972.363 1.71002 -3.31042 0
M  V30 10753 H 972.476 0.510731 -4.7637 0
M  V30 10754 H 970.84 0.367531 -2.52034 0
M  V30 10755 H 971.623 -1.14226 -3.2374 0
M  V30 10756 N 974.068 1.57479 -0.061844 0
M  V30 10757 C 975.315 1.93108 0.60954 0
M  V30 10758 C 975.643 0.941086 1.70217 0
M  V30 10759 O 974.898 -0.044914 1.95648 0
M  V30 10760 C 975.197 3.35394 1.23474 0
M  V30 10761 C 974.863 4.50095 0.269247 0
M  V30 10762 C 973.525 4.812 0.00360316 0
M  V30 10763 C 975.877 5.19725 -0.391839 0
M  V30 10764 C 973.205 5.79276 -0.930383 0
M  V30 10765 C 975.557 6.18801 -1.31408 0
M  V30 10766 C 974.221 6.48328 -1.58829 0
M  V30 10767 H 973.491 0.706634 0.223046 0
M  V30 10768 H 976.138 1.91054 -0.1306 0
M  V30 10769 H 974.443 3.33866 2.05039 0
M  V30 10770 H 976.14 3.60247 1.76134 0
M  V30 10771 H 972.73 4.2583 0.486477 0
M  V30 10772 H 976.914 4.95898 -0.199713 0
M  V30 10773 H 972.17 6.00484 -1.15019 0
M  V30 10774 H 976.344 6.71862 -1.83234 0
M  V30 10775 H 973.971 7.24137 -2.31363 0
M  V30 10776 N 975.546 -0.211634 1.56173 0
M  V30 10777 C 976.795 -0.932647 1.78842 0
M  V30 10778 C 977.108 -1.85103 0.63217 0
M  V30 10779 O 978.314 -2.61143 0.742746 0
M  V30 10780 C 976.77 -1.70866 3.16753 0
M  V30 10781 C 976.378 -0.835934 4.40132 0
M  V30 10782 C 978.122 -2.4203 3.48743 0
M  V30 10783 C 976.029 -1.60987 5.69067 0
M  V30 10784 H 974.959 -0.351983 0.666801 0
M  V30 10785 H 977.61 -0.186284 1.82552 0
M  V30 10786 H 975.992 -2.4983 3.07247 0
M  V30 10787 H 977.166 -0.0861298 4.60719 0
M  V30 10788 H 975.481 -0.235941 4.15731 0
M  V30 10789 H 978.078 -3.00453 4.42303 0
M  V30 10790 H 978.421 -3.15406 2.71707 0
M  V30 10791 H 978.954 -1.70048 3.59623 0
M  V30 10792 H 975.693 -0.9192 6.49023 0
M  V30 10793 H 975.213 -2.33403 5.52524 0
M  V30 10794 H 976.892 -2.16798 6.09596 0
M  V30 10795 N 977.024 -1.50153 -0.478725 0
M  V30 10796 C 977.954 -1.71384 -1.58587 0
M  V30 10797 C 978.935 -0.562705 -1.60523 0
M  V30 10798 O 980.12 -0.80101 -1.76911 0
M  V30 10799 C 977.25 -1.80094 -2.96957 0
M  V30 10800 C 976.204 -2.95218 -3.09888 0
M  V30 10801 C 975.53 -2.89063 -4.49829 0
M  V30 10802 C 976.83 -4.35841 -2.8782 0
M  V30 10803 H 978.524 -2.64081 -1.41073 0
M  V30 10804 H 976.07 -1.27081 -0.677239 0
M  V30 10805 H 978.023 -1.93531 -3.74331 0
M  V30 10806 H 976.747 -0.840131 -3.1561 0
M  V30 10807 H 975.406 -2.81419 -2.34944 0
M  V30 10808 H 975.054 -1.90844 -4.6539 0
M  V30 10809 H 974.754 -3.66345 -4.59418 0
M  V30 10810 H 976.278 -3.04539 -5.29234 0
M  V30 10811 H 977.692 -4.50205 -3.54948 0
M  V30 10812 H 976.089 -5.14515 -3.0886 0
M  V30 10813 H 977.159 -4.48739 -1.83742 0
M  V30 10814 N 978.502 0.731368 -1.39602 0
M  V30 10815 C 979.918 1.03739 -1.21286 0
M  V30 10816 C 980.118 2.01353 -0.0769875 0
M  V30 10817 O 979.174 2.45978 0.570193 0
M  V30 10818 C 980.487 1.59621 -2.54837 0
M  V30 10819 C 982.035 1.71683 -2.61713 0
M  V30 10820 C 982.51 2.30973 -3.95494 0
M  V30 10821 N 984.001 2.38378 -3.97153 0
M  V30 10822 C 984.736 2.852 -4.97442 0
M  V30 10823 N 984.232 3.31891 -6.08129 0
M  V30 10824 N 986.025 2.84441 -4.84819 0
M  V30 10825 H 978.176 0.0840456 -2.12234 0
M  V30 10826 H 980.439 0.0999038 -0.942721 0
M  V30 10827 H 980.145 0.953608 -3.38525 0
M  V30 10828 H 980.019 2.58375 -2.74813 0
M  V30 10829 H 982.406 2.35064 -1.78406 0
M  V30 10830 H 982.487 0.715714 -2.45583 0
M  V30 10831 H 982.131 1.68219 -4.79234 0
M  V30 10832 H 982.061 3.31769 -4.08946 0
M  V30 10833 H 984.552 2.05382 -3.17217 0
M  V30 10834 H 984.865 3.66138 -6.8056 0
M  V30 10835 H 983.21 3.2989 -6.11717 0
M  V30 10836 H 986.401 2.4729 -3.97448 0
M  V30 10837 H 986.574 3.20616 -5.63124 0
M  V30 10838 N 979.98 1.24838 0.961938 0
M  V30 10839 C 980.943 1.04674 2.03902 0
M  V30 10840 C 981.943 0.00204674 1.608 0
M  V30 10841 O 983.133 0.243555 1.72489 0
M  V30 10842 C 980.265 0.587736 3.35795 0
M  V30 10843 H 981.458 2.00278 2.23223 0
M  V30 10844 H 979.011 1.07142 1.138 0
M  V30 10845 H 979.746 -0.371244 3.22168 0
M  V30 10846 H 979.531 1.34182 3.68426 0
M  V30 10847 H 981.021 0.467867 4.14971 0
M  V30 10848 N 981.458 -1.16348 1.06306 0
M  V30 10849 C 982.683 -1.91323 0.800636 0
M  V30 10850 C 983.108 -1.7691 -0.639105 0
M  V30 10851 O 982.466 -1.0945 -1.44535 0
M  V30 10852 C 982.514 -3.40038 1.20027 0
M  V30 10853 O 981.618 -4.11003 0.339142 0
M  V30 10854 H 980.959 -0.596057 0.292595 0
M  V30 10855 H 983.489 -1.47406 1.41889 0
M  V30 10856 H 983.499 -3.90808 1.17188 0
M  V30 10857 H 982.174 -3.49848 2.24898 0
M  V30 10858 H 980.751 -3.70423 0.42911 0
M  V30 10859 N 982.937 -0.845659 -1.3299 0
M  V30 10860 C 983.887 -0.2557 -2.26562 0
M  V30 10861 C 984.871 0.593245 -1.49564 0
M  V30 10862 O 986.063 0.444101 -1.71338 0
M  V30 10863 C 983.192 0.562573 -3.38659 0
M  V30 10864 C 982.278 -0.298259 -4.2305 0
M  V30 10865 N 982.669 -1.38023 -4.86604 0
M  V30 10866 C 980.967 -0.0864539 -4.45916 0
M  V30 10867 C 981.668 -1.90907 -5.49481 0
M  V30 10868 N 980.644 -1.20955 -5.29973 0
M  V30 10869 H 984.446 -1.083 -2.73219 0
M  V30 10870 H 981.96 -0.690823 -1.46974 0
M  V30 10871 H 983.957 1.00157 -4.0469 0
M  V30 10872 H 982.617 1.38777 -2.93549 0
M  V30 10873 H 983.628 -1.76314 -4.86964 0
M  V30 10874 H 980.305 0.70475 -4.11509 0
M  V30 10875 H 981.695 -2.81552 -6.10064 0
M  V30 10876 N 984.415 1.45619 -0.602734 0
M  V30 10877 C 985.831 1.57368 -0.26599 0
M  V30 10878 C 986.031 1.59485 1.23154 0
M  V30 10879 O 985.087 1.52254 2.01432 0
M  V30 10880 C 986.4 2.85863 -0.932881 0
M  V30 10881 C 987.948 2.9953 -0.908344 0
M  V30 10882 C 988.423 4.30789 -1.55515 0
M  V30 10883 N 989.914 4.37536 -1.52042 0
M  V30 10884 C 990.649 5.37758 -1.99008 0
M  V30 10885 N 990.145 6.44544 -2.54038 0
M  V30 10886 N 991.938 5.29085 -1.89805 0
M  V30 10887 H 984.089 1.42489 -1.57514 0
M  V30 10888 H 986.352 0.680948 -0.659556 0
M  V30 10889 H 986.058 2.90183 -1.98713 0
M  V30 10890 H 985.932 3.74467 -0.453209 0
M  V30 10891 H 988.319 2.9478 0.137344 0
M  V30 10892 H 988.4 2.12349 -1.42623 0
M  V30 10893 H 988.044 4.36297 -2.60014 0
M  V30 10894 H 987.974 5.16778 -1.01232 0
M  V30 10895 H 990.465 3.60972 -1.11837 0
M  V30 10896 H 990.778 7.17258 -2.87682 0
M  V30 10897 H 989.123 6.45308 -2.58075 0
M  V30 10898 H 992.314 4.44566 -1.46556 0
M  V30 10899 H 992.487 6.07043 -2.26722 0
M  V30 10900 N 985.893 0.34162 1.53853 0
M  V30 10901 C 986.84 -0.516058 2.24957 0
M  V30 10902 C 987.81 -1.09711 1.2471 0
M  V30 10903 O 988.995 -1.13409 1.53438 0
M  V30 10904 C 986.135 -1.66207 3.02439 0
M  V30 10905 C 985.248 -1.10851 4.17536 0
M  V30 10906 C 984.383 -2.22167 4.82509 0
M  V30 10907 C 983.422 -1.64152 5.89678 0
M  V30 10908 N 982.559 -2.69203 6.4844 0
M  V30 10909 H 987.399 0.0968275 2.97843 0
M  V30 10910 H 984.936 0.0595565 1.46979 0
M  V30 10911 H 986.894 -2.33672 3.4562 0
M  V30 10912 H 985.524 -2.24597 2.31853 0
M  V30 10913 H 984.576 -0.324853 3.7901 0
M  V30 10914 H 985.888 -0.644151 4.94623 0
M  V30 10915 H 985.042 -2.97501 5.28751 0
M  V30 10916 H 983.781 -2.71946 4.04842 0
M  V30 10917 H 982.786 -0.873228 5.42821 0
M  V30 10918 H 984.011 -1.15228 6.69253 0
M  V30 10919 H 981.957 -3.1824 5.73637 0
M  V30 10920 H 981.874 -2.27383 7.20994 0
M  V30 10921 H 983.142 -3.44312 6.99335 0
M  V30 10922 N 987.371 -1.57444 0.0701946 0
M  V30 10923 C 988.596 -1.98171 -0.61181 0
M  V30 10924 C 989.021 -0.94823 -1.62451 0
M  V30 10925 O 988.379 0.0863553 -1.81094 0
M  V30 10926 C 988.427 -3.37934 -1.2583 0
M  V30 10927 O 987.531 -3.37207 -2.37414 0
M  V30 10928 H 986.872 -0.645056 -0.157477 0
M  V30 10929 H 989.402 -2.04091 0.144235 0
M  V30 10930 H 989.412 -3.75083 -1.60552 0
M  V30 10931 H 988.087 -4.12684 -0.516234 0
M  V30 10932 H 986.664 -3.11826 -2.04497 0
M  V30 10933 N 988.849 0.203349 -1.56283 0
M  V30 10934 C 989.781 1.27592 -1.90402 0
M  V30 10935 C 990.794 1.4213 -0.79391 0
M  V30 10936 O 991.983 1.42703 -1.07229 0
M  V30 10937 C 989.083 2.64919 -2.11356 0
M  V30 10938 C 988.256 2.72095 -3.42466 0
M  V30 10939 C 987.315 3.9056 -3.52631 0
M  V30 10940 O 986.341 3.78048 -4.25521 0
M  V30 10941 N 987.543 5.0566 -2.85111 0
M  V30 10942 H 990.308 0.986423 -2.83001 0
M  V30 10943 H 987.869 0.39331 -1.5705 0
M  V30 10944 H 989.861 3.42581 -2.15453 0
M  V30 10945 H 988.431 2.86391 -1.25295 0
M  V30 10946 H 987.651 1.8077 -3.50308 0
M  V30 10947 H 988.939 2.73874 -4.28801 0
M  V30 10948 H 988.337 5.18723 -2.25705 0
M  V30 10949 H 986.894 5.81299 -2.94847 0
M  V30 10950 N 990.327 1.50405 0.470755 0
M  V30 10951 C 991.257 1.72222 1.57676 0
M  V30 10952 C 992.238 0.57121 1.60222 0
M  V30 10953 O 993.423 0.810381 1.76484 0
M  V30 10954 C 990.553 1.81666 2.95998 0
M  V30 10955 C 989.507 2.96857 3.08318 0
M  V30 10956 C 988.833 2.91445 4.4829 0
M  V30 10957 C 990.133 4.37361 2.85504 0
M  V30 10958 H 991.827 2.64825 1.39671 0
M  V30 10959 H 989.373 1.27438 0.67049 0
M  V30 10960 H 991.326 1.95514 3.73299 0
M  V30 10961 H 990.05 0.856856 3.1516 0
M  V30 10962 H 988.709 2.82661 2.33449 0
M  V30 10963 H 988.357 1.93309 4.64371 0
M  V30 10964 H 988.057 3.68776 4.57469 0
M  V30 10965 H 989.581 3.07341 5.27611 0
M  V30 10966 H 990.995 4.52081 3.52555 0
M  V30 10967 H 989.392 5.16145 3.06127 0
M  V30 10968 H 990.462 4.49708 1.81359 0
M  V30 10969 N 991.805 -0.723954 1.39988 0
M  V30 10970 C 992.737 -1.84859 1.35498 0
M  V30 10971 C 993.75 -1.60681 0.261812 0
M  V30 10972 O 994.939 -1.7071 0.521566 0
M  V30 10973 C 992.039 -3.21103 1.08381 0
M  V30 10974 C 991.212 -3.72546 2.2919 0
M  V30 10975 C 990.271 -4.8738 1.9836 0
M  V30 10976 O 989.297 -5.00467 2.71149 0
M  V30 10977 N 990.499 -5.72566 0.956461 0
M  V30 10978 H 993.264 -1.89212 2.3242 0
M  V30 10979 H 990.825 -0.905152 1.34233 0
M  V30 10980 H 992.817 -3.9551 0.857564 0
M  V30 10981 H 991.387 -3.1195 0.201549 0
M  V30 10982 H 990.607 -2.89365 2.67697 0
M  V30 10983 H 991.895 -4.03652 3.09746 0
M  V30 10984 H 991.293 -5.64595 0.353444 0
M  V30 10985 H 989.85 -6.46993 0.790118 0
M  V30 10986 N 993.283 -1.25346 -0.955304 0
M  V30 10987 C 994.246 -1.05754 -2.03344 0
M  V30 10988 C 995.246 -0.0105743 -1.60797 0
M  V30 10989 O 996.436 -0.252699 -1.72357 0
M  V30 10990 C 993.568 -0.605536 -3.35479 0
M  V30 10991 H 994.761 -2.01459 -2.22158 0
M  V30 10992 H 992.314 -1.07744 -1.1323 0
M  V30 10993 H 993.049 0.354154 -3.2236 0
M  V30 10994 H 992.834 -1.36134 -3.67709 0
M  V30 10995 H 994.324 -0.489867 -4.14717 0
M  V30 10996 N 994.761 1.15782 -1.06922 0
M  V30 10997 C 995.986 1.90896 -0.810771 0
M  V30 10998 C 996.411 1.77246 0.629714 0
M  V30 10999 O 995.769 1.10215 1.43953 0
M  V30 11000 C 995.817 3.39397 -1.21829 0
M  V30 11001 O 994.921 4.10818 -0.360934 0
M  V30 11002 H 994.262 0.594497 -0.295752 0
M  V30 11003 H 996.792 1.46652 -1.42669 0
M  V30 11004 H 996.802 3.90181 -1.19259 0
M  V30 11005 H 995.477 3.4865 -2.2675 0
M  V30 11006 H 994.054 3.7019 -0.448748 0
M  V30 11007 N 996.239 0.8527 1.3254 0
M  V30 11008 C 997.655 0.542298 1.50104 0
M  V30 11009 C 997.855 -0.927465 1.78886 0
M  V30 11010 O 996.911 -1.7106 1.85728 0
M  V30 11011 C 998.224 1.4276 2.64651 0
M  V30 11012 C 999.772 1.42782 2.78536 0
M  V30 11013 C 1000.25 2.29828 3.9616 0
M  V30 11014 N 1001.74 2.27613 4.03418 0
M  V30 11015 C 1002.47 2.91696 4.93661 0
M  V30 11016 N 1001.97 3.64883 5.88925 0
M  V30 11017 N 1003.76 2.81094 4.86768 0
M  V30 11018 H 995.913 1.80395 1.12123 0
M  V30 11019 H 998.176 0.770394 0.552446 0
M  V30 11020 H 997.882 2.47266 2.50105 0
M  V30 11021 H 997.756 1.11358 3.60388 0
M  V30 11022 H 1000.14 0.390417 2.92506 0
M  V30 11023 H 1000.22 1.78198 1.83519 0
M  V30 11024 H 999.868 3.33635 3.82949 0
M  V30 11025 H 999.798 1.91746 4.9045 0
M  V30 11026 H 1002.29 1.74402 3.3525 0
M  V30 11027 H 1002.6 4.10952 6.54476 0
M  V30 11028 H 1000.95 3.68991 5.88957 0
M  V30 11029 H 1004.14 2.23469 4.11314 0
M  V30 11030 H 1004.31 3.31318 5.56895 0
M  V30 11031 N 997.718 -1.45297 0.610449 0
M  V30 11032 C 998.967 -2.0143 0.104323 0
M  V30 11033 C 999.28 -1.48431 -1.27388 0
M  V30 11034 O 1000.49 -1.96558 -1.87289 0
M  V30 11035 C 998.942 -3.59644 0.135812 0
M  V30 11036 C 998.55 -4.2164 1.51405 0
M  V30 11037 C 1000.29 -4.2333 -0.314922 0
M  V30 11038 C 998.201 -5.72015 1.50176 0
M  V30 11039 H 997.131 -0.753176 0.035233 0
M  V30 11040 H 999.782 -1.66738 0.7662 0
M  V30 11041 H 998.164 -3.91538 -0.592773 0
M  V30 11042 H 999.338 -4.01315 2.26457 0
M  V30 11043 H 997.653 -3.70159 1.90712 0
M  V30 11044 H 1000.25 -5.33597 -0.343335 0
M  V30 11045 H 1000.59 -3.94206 -1.33817 0
M  V30 11046 H 1001.13 -3.96163 0.360489 0
M  V30 11047 H 997.865 -6.05842 2.50271 0
M  V30 11048 H 997.385 -5.94523 0.793869 0
M  V30 11049 H 999.064 -6.35266 1.22665 0
M  V30 11050 N 999.196 -0.349774 -1.5367 0
M  V30 11051 C 1000.13 0.538575 -2.22782 0
M  V30 11052 C 1001.14 1.05896 -1.23652 0
M  V30 11053 O 1002.33 0.968045 -1.4997 0
M  V30 11054 C 999.43 1.7546 -2.89943 0
M  V30 11055 C 998.603 1.36843 -4.15443 0
M  V30 11056 C 997.662 2.4448 -4.65957 0
M  V30 11057 O 996.688 2.07528 -5.3002 0
M  V30 11058 N 997.89 3.75829 -4.42417 0
M  V30 11059 H 1000.65 -0.053348 -2.99653 0
M  V30 11060 H 998.216 -0.174193 -1.6096 0
M  V30 11061 H 1000.21 2.46911 -3.20651 0
M  V30 11062 H 998.778 2.25375 -2.16622 0
M  V30 11063 H 997.998 0.484421 -3.91212 0
M  V30 11064 H 999.286 1.0865 -4.97064 0
M  V30 11065 H 998.684 4.08635 -3.91196 0
M  V30 11066 H 997.241 4.43432 -4.77714 0
M  V30 11067 N 1000.67 1.57404 -0.0785433 0
M  V30 11068 C 1001.58 2.16612 0.900902 0
M  V30 11069 C 1002.6 1.13109 1.32221 0
M  V30 11070 O 1003.78 1.45406 1.39352 0
M  V30 11071 C 1000.84 2.7215 2.14791 0
M  V30 11072 C 999.902 3.90551 1.78237 0
M  V30 11073 C 999.135 4.43431 2.96993 0
M  V30 11074 O 999.358 3.95292 4.11218 0
M  V30 11075 O 998.292 5.34674 2.76418 0
M  V30 11076 H 1002.12 3.0068 0.427227 0
M  V30 11077 H 999.703 1.48696 0.144902 0
M  V30 11078 H 1001.58 3.07718 2.87902 0
M  V30 11079 H 1000.26 1.91139 2.61243 0
M  V30 11080 H 999.167 3.59825 1.02357 0
M  V30 11081 H 1000.5 4.72876 1.36562 0
M  V30 11082 N 1002.15 -0.195058 1.56388 0
M  V30 11083 C 1003.43 -0.941335 1.71459 0
M  V30 11084 C 1003.81 -2.01375 0.633336 0
M  V30 11085 O 1003.16 -2.25715 -0.35567 0
M  V30 11086 C 1003.37 -1.52772 3.13786 0
M  V30 11087 C 1004.71 -2.00983 3.7402 0
M  V30 11088 O 1005.74 -1.62614 3.16915 0
M  V30 11089 O 1004.6 -2.71586 4.7424 0
M  V30 11090 H 1001.69 -0.441451 0.699321 0
M  V30 11091 H 1004.24 -0.184752 1.68691 0
M  V30 11092 H 1003.01 -0.754699 3.83953 0
M  V30 11093 H 1002.63 -2.34914 3.20782 0
M  V30 11094 N 1003.63 -1.50653 -0.462772 0
M  V30 11095 C 1004.59 -1.69561 -1.54213 0
M  V30 11096 C 1005.59 -0.566106 -1.50505 0
M  V30 11097 O 1006.78 -0.833273 -1.52978 0
M  V30 11098 C 1003.91 -1.72856 -2.93826 0
M  V30 11099 H 1005.11 -2.65867 -1.38761 0
M  V30 11100 H 1002.66 -1.40259 -0.689728 0
M  V30 11101 H 1003.4 -0.78273 -3.14712 0
M  V30 11102 H 1003.18 -2.54919 -2.97924 0
M  V30 11103 H 1004.67 -1.89411 -3.72174 0
M  V30 11104 N 1005.11 0.71652 -1.4037 0
M  V30 11105 C 1006.34 1.50563 -1.4191 0
M  V30 11106 C 1006.75 1.88791 -0.0185456 0
M  V30 11107 O 1006.11 1.55378 0.957289 0
M  V30 11108 C 1006.16 2.78155 -2.30894 0
M  V30 11109 O 1005.88 2.41543 -3.65497 0
M  V30 11110 C 1007.38 3.72057 -2.41016 0
M  V30 11111 H 1004.6 0.464679 -0.48406 0
M  V30 11112 H 1007.15 0.883927 -1.8441 0
M  V30 11113 H 1005.3 3.36611 -1.91759 0
M  V30 11114 H 1005.71 3.23636 -4.12747 0
M  V30 11115 H 1007.19 4.58426 -3.07489 0
M  V30 11116 H 1007.67 4.15098 -1.43492 0
M  V30 11117 H 1008.27 3.19512 -2.80699 0
M  V30 11118 N 1006.59 1.25851 0.948643 0
M  V30 11119 C 1007.5 1.08516 2.07994 0
M  V30 11120 C 1008.51 0.0206696 1.73988 0
M  V30 11121 O 1009.69 0.222854 2.00163 0
M  V30 11122 C 1006.75 0.712145 3.39307 0
M  V30 11123 C 1005.81 1.85523 3.87143 0
M  V30 11124 C 1005.05 1.49992 5.1219 0
M  V30 11125 O 1005.27 0.398268 5.69008 0
M  V30 11126 O 1004.2 2.33215 5.54882 0
M  V30 11127 H 1008.03 2.03405 2.25522 0
M  V30 11128 H 1005.62 1.04844 1.06433 0
M  V30 11129 H 1007.5 0.516512 4.18223 0
M  V30 11130 H 1006.17 -0.207416 3.23035 0
M  V30 11131 H 1005.08 2.10578 3.09205 0
M  V30 11132 H 1006.41 2.75425 4.07924 0
M  V30 11133 N 1008.06 -1.15214 1.07534 0
M  V30 11134 C 1009.01 -2.22078 0.69168 0
M  V30 11135 C 1010.01 -1.66751 -0.298382 0
M  V30 11136 O 1011.21 -1.7927 -0.161897 0
M  V30 11137 H 1007.59 -0.723347 0.205604 0
M  V30 11138 H 1009.56 -2.51716 1.60256 0
M  V30 11139 C 1008.31 -3.47534 0.107546 0
M  V30 11140 H 1007.63 -3.90429 0.860522 0
M  V30 11141 H 1009.07 -4.23821 -0.123215 0
M  V30 11142 C 1007.53 -3.16583 -1.15226 0
M  V30 11143 O 1008.06 -3.33551 -2.23845 0
M  V30 11144 N 1006.27 -2.70611 -1.05915 0
M  V30 11145 H 1005.81 -2.57004 -0.175198 0
M  V30 11146 H 1005.77 -2.50277 -1.90287 0
M  V30 11147 N 1009.54 -0.859717 -1.32086 0
M  V30 11148 C 1010.79 -0.461779 -1.96343 0
M  V30 11149 C 1011.1 0.988837 -1.68764 0
M  V30 11150 O 1012.31 1.49244 -2.268 0
M  V30 11151 C 1010.77 -0.77484 -3.5146 0
M  V30 11152 C 1010.37 -2.24153 -3.87891 0
M  V30 11153 C 1012.12 -0.444873 -4.22162 0
M  V30 11154 C 1010.03 -2.49754 -5.36075 0
M  V30 11155 H 1008.96 -0.168951 -0.734828 0
M  V30 11156 H 1011.61 -1.0512 -1.50406 0
M  V30 11157 H 1009.99 -0.114792 -3.95834 0
M  V30 11158 H 1011.16 -2.94378 -3.54511 0
M  V30 11159 H 1009.48 -2.53651 -3.30227 0
M  V30 11160 H 1012.07 -0.613508 -5.31169 0
M  V30 11161 H 1012.42 0.61391 -4.11749 0
M  V30 11162 H 1012.95 -1.06103 -3.83389 0
M  V30 11163 H 1009.69 -3.54276 -5.51515 0
M  V30 11164 H 1009.21 -1.84112 -5.70844 0
M  V30 11165 H 1010.89 -2.3396 -6.03218 0
M  V30 11166 N 1011.02 1.44971 -0.618145 0
M  V30 11167 C 1011.93 2.34403 0.0960457 0
M  V30 11168 C 1012.95 1.51862 0.849355 0
M  V30 11169 O 1014.12 1.84632 0.804557 0
M  V30 11170 C 1011.19 3.29646 1.07397 0
M  V30 11171 C 1010.25 4.28095 0.321466 0
M  V30 11172 C 1009.48 5.18787 1.25281 0
M  V30 11173 O 1009.7 5.1313 2.49106 0
M  V30 11174 O 1008.64 5.97282 0.744156 0
M  V30 11175 H 1012.46 2.96898 -0.639176 0
M  V30 11176 H 1010.05 1.44529 -0.37837 0
M  V30 11177 H 1011.93 3.88307 1.63694 0
M  V30 11178 H 1010.61 2.69702 1.79004 0
M  V30 11179 H 1009.51 3.73019 -0.284223 0
M  V30 11180 H 1010.85 4.90923 -0.354315 0
M  V30 11181 N 1012.5 0.357919 1.53482 0
M  V30 11182 C 1013.75 -0.2337 2.00744 0
M  V30 11183 C 1014.07 -1.49908 1.2471 0
M  V30 11184 O 1013.34 -1.92597 0.358235 0
M  V30 11185 H 1011.92 -0.0893474 0.741637 0
M  V30 11186 H 1014.58 0.482388 1.88836 0
M  V30 11187 H 1013.68 -0.466073 3.086 0
M  V30 11188 N 1013.98 -1.5736 0.0868897 0
M  V30 11189 C 1015.25 -1.85495 -0.620561 0
M  V30 11190 C 1015.63 -0.982218 -1.86857 0
M  V30 11191 O 1014.98 -0.0524529 -2.2844 0
M  V30 11192 C 1015.19 -3.35996 -0.943798 0
M  V30 11193 C 1016.54 -4.03861 -1.31079 0
M  V30 11194 O 1017.56 -3.4083 -1.03507 0
M  V30 11195 O 1016.42 -5.15062 -1.82683 0
M  V30 11196 H 1013.52 -0.766822 -0.309697 0
M  V30 11197 H 1016.06 -1.69282 0.118966 0
M  V30 11198 H 1014.83 -3.91257 -0.0580628 0
M  V30 11199 H 1014.46 -3.57525 -1.73958 0
M  V30 11200 N 1015.45 0.186762 -1.56489 0
M  V30 11201 C 1016.68 0.925916 -1.85584 0
M  V30 11202 C 1017.1 1.75708 -0.671446 0
M  V30 11203 O 1016.46 1.7728 0.379687 0
M  V30 11204 C 1016.51 1.79107 -3.12975 0
M  V30 11205 O 1015.61 2.89088 -2.94112 0
M  V30 11206 H 1014.96 0.260275 -0.610863 0
M  V30 11207 H 1017.49 0.189561 -2.0372 0
M  V30 11208 H 1017.5 2.19408 -3.43983 0
M  V30 11209 H 1016.17 1.18044 -3.98796 0
M  V30 11210 H 1014.75 2.52482 -2.74422 0
M  V30 11211 N 1016.93 1.50896 0.454776 0
M  V30 11212 C 1018.16 1.66759 1.23313 0
M  V30 11213 C 1018.58 0.35722 1.84677 0
M  V30 11214 O 1017.94 -0.680771 1.68033 0
M  V30 11215 C 1017.99 2.77254 2.3057 0
M  V30 11216 O 1017.09 2.39642 3.35627 0
M  V30 11217 H 1016.43 0.556599 0.362068 0
M  V30 11218 H 1018.96 1.97365 0.539274 0
M  V30 11219 H 1018.97 3.0082 2.75629 0
M  V30 11220 H 1017.65 3.72349 1.85281 0
M  V30 11221 H 1016.23 2.26584 2.96165 0
M  V30 11222 N 1018.41 -0.709066 1.40748 0
M  V30 11223 C 1019.64 -1.50313 1.42901 0
M  V30 11224 C 1020.06 -1.88072 0.032213 0
M  V30 11225 O 1019.42 -1.53716 -0.96131 0
M  V30 11226 C 1019.47 -2.75074 2.33166 0
M  V30 11227 O 1018.57 -3.72036 1.7794 0
M  V30 11228 H 1017.91 -0.452934 0.485538 0
M  V30 11229 H 1020.44 -0.872712 1.85054 0
M  V30 11230 H 1020.45 -3.23532 2.48578 0
M  V30 11231 H 1019.13 -2.46927 3.34664 0
M  V30 11232 H 1017.7 -3.30911 1.71908 0
M  V30 11233 N 1019.89 -1.26353 -0.941956 0
M  V30 11234 C 1021.3 -1.10774 -1.50287 0
M  V30 11235 C 1021.65 0.312229 -1.937 0
M  V30 11236 O 1020.78 1.20364 -1.79838 0
M  V30 11237 C 1021.37 -2.00473 -2.73123 0
M  V30 11238 C 1019.93 -1.89042 -3.25485 0
M  V30 11239 C 1019.08 -1.93869 -1.98267 0
M  V30 11240 H 1022.03 -1.39454 -0.757523 0
M  V30 11241 H 1022.05 -1.55216 -3.47402 0
M  V30 11242 H 1021.56 -3.03812 -2.41495 0
M  V30 11243 H 1019.66 -0.886341 -3.61904 0
M  V30 11244 H 1019.78 -2.74533 -3.92643 0
M  V30 11245 H 1018.14 -1.37912 -2.14132 0
M  V30 11246 H 1018.92 -2.98837 -1.68972 0
M  V30 11247 N 1021.37 1.14642 -1.08144 0
M  V30 11248 C 1022.59 1.90025 -0.830972 0
M  V30 11249 C 1023.02 1.77904 0.610879 0
M  V30 11250 O 1022.38 1.11735 1.42776 0
M  V30 11251 C 1022.42 3.38085 -1.25422 0
M  V30 11252 O 1021.53 4.10412 -0.404486 0
M  V30 11253 H 1020.87 0.591327 -0.302041 0
M  V30 11254 H 1023.4 1.4513 -1.44216 0
M  V30 11255 H 1023.41 3.88894 -1.23391 0
M  V30 11256 H 1022.08 3.46226 -2.30435 0
M  V30 11257 H 1020.66 3.69693 -0.487987 0
M  V30 11258 N 1022.85 0.866709 1.31628 0
M  V30 11259 C 1024.07 0.48956 2.01539 0
M  V30 11260 C 1024.5 -0.909556 1.64647 0
M  V30 11261 O 1023.85 -1.59959 0.853391 0
M  V30 11262 C 1023.9 0.650176 3.5469 0
M  V30 11263 O 1023.01 -0.311908 4.11219 0
M  V30 11264 H 1022.35 0.195144 0.634677 0
M  V30 11265 H 1024.88 1.16923 1.679 0
M  V30 11266 H 1024.89 0.542236 4.04381 0
M  V30 11267 H 1023.56 1.67038 3.80882 0
M  V30 11268 H 1022.14 -0.159197 3.7256 0
M  V30 11269 N 1024.32 -1.44642 0.625825 0
M  V30 11270 C 1025.74 -1.56925 0.290992 0
M  V30 11271 C 1025.94 -1.61424 -1.20601 0
M  V30 11272 O 1025 -1.55439 -1.98985 0
M  V30 11273 C 1026.31 -2.84343 0.978242 0
M  V30 11274 C 1027.86 -2.98047 0.955882 0
M  V30 11275 C 1028.33 -4.2826 1.62349 0
M  V30 11276 N 1029.82 -4.35062 1.58983 0
M  V30 11277 C 1030.56 -5.34524 2.07538 0
M  V30 11278 N 1030.05 -6.4042 2.6426 0
M  V30 11279 N 1031.85 -5.25998 1.98198 0
M  V30 11280 H 1024 -1.39965 1.59761 0
M  V30 11281 H 1026.26 -0.670368 0.670306 0
M  V30 11282 H 1025.97 -2.86985 2.03304 0
M  V30 11283 H 1025.84 -3.73699 0.512726 0
M  V30 11284 H 1028.23 -2.94961 -0.0904292 0
M  V30 11285 H 1028.31 -2.10053 1.45984 0
M  V30 11286 H 1027.95 -4.32105 2.66923 0
M  V30 11287 H 1027.88 -5.15102 1.09441 0
M  V30 11288 H 1030.37 -3.59147 1.17565 0
M  V30 11289 H 1030.69 -7.1259 2.99056 0
M  V30 11290 H 1029.03 -6.41121 2.68308 0
M  V30 11291 H 1032.22 -4.42178 1.5361 0
M  V30 11292 H 1032.4 -6.03359 2.3635 0
M  V30 11293 N 1025.8 -0.366053 -1.5329 0
M  V30 11294 C 1027.03 0.226839 -2.06156 0
M  V30 11295 C 1027.45 1.41637 -1.23776 0
M  V30 11296 O 1026.81 1.7947 -0.256948 0
M  V30 11297 C 1026.86 0.597956 -3.55608 0
M  V30 11298 O 1025.96 1.69512 -3.75951 0
M  V30 11299 H 1025.3 0.0329156 -0.663184 0
M  V30 11300 H 1027.83 -0.526793 -1.97702 0
M  V30 11301 H 1027.84 0.868831 -3.98642 0
M  V30 11302 H 1026.52 -0.271838 -4.15011 0
M  V30 11303 H 1025.09 1.41976 -3.44815 0
M  V30 11304 N 1027.28 1.57312 -0.0952337 0
M  V30 11305 C 1028.53 1.93974 0.567319 0
M  V30 11306 C 1028.85 0.977805 1.68713 0
M  V30 11307 O 1028.12 0.0298944 1.95877 0
M  V30 11308 H 1026.7 0.71612 0.212558 0
M  V30 11309 H 1029.36 1.94254 -0.158598 0
M  V30 11310 H 1028.46 2.964 0.977423 0
M  V30 11311 N 1028.76 -0.17846 1.56586 0
M  V30 11312 C 1029.69 -1.24547 1.92408 0
M  V30 11313 C 1030.7 -1.40849 0.816421 0
M  V30 11314 O 1031.89 -1.40979 1.09486 0
M  V30 11315 C 1028.99 -2.61523 2.15544 0
M  V30 11316 C 1028.16 -2.66613 3.46751 0
M  V30 11317 C 1027.22 -3.84901 3.588 0
M  V30 11318 O 1026.25 -3.71231 4.31482 0
M  V30 11319 N 1027.45 -5.0106 2.9312 0
M  V30 11320 H 1030.22 -0.941275 2.84535 0
M  V30 11321 H 1027.78 -0.368275 1.57656 0
M  V30 11322 H 1029.77 -3.3911 2.20876 0
M  V30 11323 H 1028.34 -2.84362 1.29835 0
M  V30 11324 H 1027.56 -1.75174 3.5314 0
M  V30 11325 H 1028.85 -2.67018 4.33104 0
M  V30 11326 H 1028.25 -5.15067 2.33928 0
M  V30 11327 H 1026.8 -5.76535 3.04057 0
M  V30 11328 N 1030.24 -1.51135 -0.446768 0
M  V30 11329 C 1031.65 -1.39101 -0.782504 0
M  V30 11330 C 1031.85 -0.46599 -1.96038 0
M  V30 11331 O 1030.91 0.0823679 -2.52366 0
M  V30 11332 C 1032.22 -2.80953 -1.07173 0
M  V30 11333 C 1033.77 -2.90038 -1.17673 0
M  V30 11334 C 1034.24 -4.32777 -1.49894 0
M  V30 11335 N 1035.73 -4.3584 -1.56837 0
M  V30 11336 C 1036.47 -5.43305 -1.83322 0
M  V30 11337 N 1035.97 -6.60945 -2.07662 0
M  V30 11338 N 1037.76 -5.30775 -1.85026 0
M  V30 11339 H 1029.91 -2.09835 0.329114 0
M  V30 11340 H 1032.17 -0.944199 0.0848054 0
M  V30 11341 H 1031.88 -3.50591 -0.279037 0
M  V30 11342 H 1031.75 -3.197 -2.00179 0
M  V30 11343 H 1034.14 -2.20603 -1.96005 0
M  V30 11344 H 1034.22 -2.54801 -0.225892 0
M  V30 11345 H 1033.86 -5.02757 -0.720924 0
M  V30 11346 H 1033.79 -4.6552 -2.46168 0
M  V30 11347 H 1036.29 -3.51023 -1.39968 0
M  V30 11348 H 1036.6 -7.38643 -2.27214 0
M  V30 11349 H 1034.94 -6.64077 -2.05003 0
M  V30 11350 H 1038.13 -4.37858 -1.65523 0
M  V30 11351 H 1038.31 -6.14609 -2.05329 0
M  V30 11352 N 1031.71 0.701592 -1.41122 0
M  V30 11353 C 1032.94 1.49049 -1.43499 0
M  V30 11354 C 1033.36 1.88761 -0.0385684 0
M  V30 11355 O 1032.71 1.56384 0.940755 0
M  V30 11356 C 1032.76 2.7569 -2.33832 0
M  V30 11357 O 1032.49 2.37653 -3.68039 0
M  V30 11358 C 1033.99 3.69479 -2.44949 0
M  V30 11359 H 1031.21 0.459519 -0.488961 0
M  V30 11360 H 1033.75 0.864318 -1.85337 0
M  V30 11361 H 1031.91 3.34559 -1.95318 0
M  V30 11362 H 1032.32 3.19241 -4.16156 0
M  V30 11363 H 1033.79 4.55139 -3.12334 0
M  V30 11364 H 1034.27 4.13553 -1.47887 0
M  V30 11365 H 1034.88 3.16517 -2.84072 0
M  V30 11366 N 1033.19 1.2685 0.935242 0
M  V30 11367 C 1034.42 1.15645 1.72165 0
M  V30 11368 C 1034.84 -0.283909 1.85945 0
M  V30 11369 O 1034.2 -1.20567 1.354 0
M  V30 11370 C 1034.25 1.83689 3.10307 0
M  V30 11371 O 1033.35 1.12972 3.96625 0
M  V30 11372 H 1032.69 0.402629 0.528002 0
M  V30 11373 H 1035.22 1.67781 1.17093 0
M  V30 11374 H 1035.23 1.90749 3.60664 0
M  V30 11375 H 1033.91 2.88472 2.99595 0
M  V30 11376 H 1032.48 1.13929 3.5507 0
M  V30 11377 N 1034.67 -1.14067 1.0875 0
M  V30 11378 C 1035.63 -2.17453 0.724341 0
M  V30 11379 C 1036.63 -1.58959 -0.242614 0
M  V30 11380 O 1037.82 -1.74186 -0.0217008 0
M  V30 11381 C 1034.96 -3.40828 0.0700236 0
M  V30 11382 H 1036.15 -2.51094 1.63987 0
M  V30 11383 H 1033.7 -1.28775 0.885813 0
M  V30 11384 H 1034.44 -3.1277 -0.857061 0
M  V30 11385 H 1034.22 -3.84551 0.76569 0
M  V30 11386 H 1035.71 -4.17258 -0.168905 0
M  V30 11387 N 1036.15 -0.873678 -1.31166 0
M  V30 11388 C 1037.43 -0.40698 -1.91319 0
M  V30 11389 C 1037.81 1.1113 -1.79481 0
M  V30 11390 O 1037.15 1.94155 -1.20483 0
M  V30 11391 C 1037.36 -0.892484 -3.37396 0
M  V30 11392 C 1038.71 -0.920795 -4.14496 0
M  V30 11393 O 1039.74 -0.838386 -3.46193 0
M  V30 11394 O 1038.59 -1.04069 -5.365 0
M  V30 11395 H 1035.69 -0.122439 -0.817886 0
M  V30 11396 H 1038.23 -0.961835 -1.3981 0
M  V30 11397 H 1037.01 -1.93613 -3.40044 0
M  V30 11398 H 1036.63 -0.31615 -3.96341 0
M  V30 11399 N 1037.63 1.44308 -0.633487 0
M  V30 11400 C 1038.85 2.06384 -0.146063 0
M  V30 11401 C 1039.27 1.47357 1.18031 0
M  V30 11402 O 1038.63 0.597334 1.72448 0
M  V30 11403 C 1038.68 3.61489 -0.0276722 0
M  V30 11404 O 1038.4 4.18318 -1.3016 0
M  V30 11405 C 1039.9 4.40604 0.488168 0
M  V30 11406 H 1037.12 0.666122 -0.0807632 0
M  V30 11407 H 1039.66 1.85139 -0.868557 0
M  V30 11408 H 1037.82 3.81988 0.645273 0
M  V30 11409 H 1038.23 5.11783 -1.14797 0
M  V30 11410 H 1039.71 5.49545 0.520013 0
M  V30 11411 H 1040.18 4.12218 1.51568 0
M  V30 11412 H 1040.79 4.2503 -0.151608 0
M  V30 11413 N 1039.1 0.374177 1.53094 0
M  V30 11414 C 1040.05 -0.484848 2.22785 0
M  V30 11415 C 1041.04 -1.04181 1.22617 0
M  V30 11416 O 1042.23 -0.97043 1.48026 0
M  V30 11417 C 1039.36 -1.61956 3.02696 0
M  V30 11418 C 1038.45 -1.07506 4.10248 0
M  V30 11419 N 1038.84 -0.254253 5.05161 0
M  V30 11420 C 1037.13 -1.34904 4.25108 0
M  V30 11421 C 1037.84 0.0448558 5.81683 0
M  V30 11422 N 1036.81 -0.555073 5.40759 0
M  V30 11423 H 1040.61 0.148976 2.93522 0
M  V30 11424 H 1038.13 0.182656 1.6137 0
M  V30 11425 H 1040.12 -2.24723 3.51148 0
M  V30 11426 H 1038.78 -2.25636 2.33492 0
M  V30 11427 H 1039.8 0.107256 5.17789 0
M  V30 11428 H 1036.47 -1.98799 3.67131 0
M  V30 11429 H 1037.86 0.708952 6.68149 0
M  V30 11430 N 1040.58 -1.57259 0.103575 0
M  V30 11431 C 1041.83 -1.94272 -0.557024 0
M  V30 11432 C 1042.15 -0.986739 -1.68192 0
M  V30 11433 O 1041.42 -0.0402818 -1.95859 0
M  V30 11434 H 1040 -0.717237 -0.208757 0
M  V30 11435 H 1042.66 -1.94167 0.168898 0
M  V30 11436 H 1041.76 -2.96914 -0.961691 0
M  V30 11437 N 1042.06 0.170153 -1.56679 0
M  V30 11438 C 1043.02 1.19443 -1.95617 0
M  V30 11439 C 1044.02 1.37118 -0.83996 0
M  V30 11440 O 1045.21 1.34504 -1.10699 0
M  V30 11441 C 1042.35 2.55926 -2.25199 0
M  V30 11442 H 1043.54 0.86095 -2.87276 0
M  V30 11443 H 1041.09 0.412646 -1.50755 0
M  V30 11444 H 1041.83 2.94286 -1.36257 0
M  V30 11445 H 1041.61 2.44464 -3.06562 0
M  V30 11446 H 1043.1 3.29742 -2.56242 0
M  V30 11447 N 1043.54 1.5137 0.438746 0
M  V30 11448 C 1044.47 1.75528 1.53987 0
M  V30 11449 C 1045.45 0.605067 1.58975 0
M  V30 11450 O 1046.63 0.847634 1.74725 0
M  V30 11451 C 1043.76 1.87904 2.92078 0
M  V30 11452 C 1042.72 3.0333 3.01951 0
M  V30 11453 C 1042.04 3.00888 4.42007 0
M  V30 11454 C 1043.34 4.43319 2.76163 0
M  V30 11455 H 1045.04 2.67728 1.34022 0
M  V30 11456 H 1042.58 1.28831 0.643308 0
M  V30 11457 H 1044.54 2.03388 3.69068 0
M  V30 11458 H 1043.26 0.923514 3.13271 0
M  V30 11459 H 1041.92 2.87549 2.274 0
M  V30 11460 H 1041.57 2.03116 4.60166 0
M  V30 11461 H 1041.27 3.78397 4.49544 0
M  V30 11462 H 1042.79 3.18464 5.20973 0
M  V30 11463 H 1044.21 4.59458 3.42887 0
M  V30 11464 H 1042.6 5.22523 2.9511 0
M  V30 11465 H 1043.67 4.53453 1.71779 0
M  V30 11466 N 1045.02 -0.694098 1.41492 0
M  V30 11467 C 1046.29 -1.44875 1.31418 0
M  V30 11468 C 1046.67 -2.11022 -0.0575538 0
M  V30 11469 O 1046.02 -2.01799 -1.07188 0
M  V30 11470 C 1046.23 -2.46698 2.46863 0
M  V30 11471 C 1047.58 -3.11907 2.88095 0
M  V30 11472 O 1048.6 -2.57022 2.46613 0
M  V30 11473 O 1047.46 -4.11318 3.59833 0
M  V30 11474 H 1044.56 -0.645266 0.517263 0
M  V30 11475 H 1047.1 -0.724452 1.53459 0
M  V30 11476 H 1045.87 -1.96485 3.38392 0
M  V30 11477 H 1045.5 -3.26634 2.26706 0
M  V30 11478 N 1046.49 -1.27344 -0.928501 0
M  V30 11479 C 1047.77 -1.04362 -1.65433 0
M  V30 11480 C 1048.15 0.421896 -2.06841 0
M  V30 11481 O 1047.5 1.40496 -1.80203 0
M  V30 11482 C 1047.71 -2.00442 -2.85699 0
M  V30 11483 C 1049.06 -2.29767 -3.57061 0
M  V30 11484 O 1050.08 -1.98409 -2.95825 0
M  V30 11485 O 1048.94 -2.83217 -4.67387 0
M  V30 11486 H 1046.03 -0.397783 -0.72505 0
M  V30 11487 H 1048.58 -1.38606 -0.979109 0
M  V30 11488 H 1047.35 -2.99281 -2.52085 0
M  V30 11489 H 1046.98 -1.66755 -3.60941 0
M  V30 11490 N 1047.97 1.13488 -1.09353 0
M  V30 11491 C 1048.92 2.16933 -0.701709 0
M  V30 11492 C 1049.91 1.58382 0.283553 0
M  V30 11493 O 1051.1 1.7675 0.0940391 0
M  V30 11494 C 1048.23 3.43079 -0.123031 0
M  V30 11495 C 1047.31 4.08639 -1.13466 0
M  V30 11496 N 1047.7 4.49377 -2.32152 0
M  V30 11497 C 1046 4.35265 -0.972632 0
M  V30 11498 C 1046.7 5.00464 -2.96497 0
M  V30 11499 N 1045.68 4.95275 -2.24061 0
M  V30 11500 H 1049.48 2.46183 -1.60534 0
M  V30 11501 H 1047 1.30275 -0.969644 0
M  V30 11502 H 1048.99 4.1653 0.17569 0
M  V30 11503 H 1047.65 3.15304 0.775461 0
M  V30 11504 H 1048.66 4.42105 -2.69748 0
M  V30 11505 H 1045.34 4.17301 -0.12876 0
M  V30 11506 H 1046.73 5.41785 -3.9739 0
M  V30 11507 N 1049.45 0.880621 1.30701 0
M  V30 11508 C 1050.7 0.495894 1.95922 0
M  V30 11509 C 1051.02 -0.957214 1.69889 0
M  V30 11510 O 1050.29 -1.67245 1.0201 0
M  V30 11511 H 1048.87 0.180394 0.724891 0
M  V30 11512 H 1051.53 1.12274 1.59313 0
M  V30 11513 H 1050.63 0.662508 3.04987 0
M  V30 11514 N 1050.93 -1.4397 0.641131 0
M  V30 11515 C 1051.84 -2.34526 -0.058742 0
M  V30 11516 C 1052.86 -1.53194 -0.825088 0
M  V30 11517 O 1054.03 -1.85888 -0.775081 0
M  V30 11518 C 1051.1 -3.31313 -1.02139 0
M  V30 11519 C 1050.16 -4.28552 -0.253319 0
M  V30 11520 C 1049.39 -5.20715 -1.17012 0
M  V30 11521 O 1049.61 -5.17028 -2.40911 0
M  V30 11522 O 1048.55 -5.9839 -0.649039 0
M  V30 11523 H 1052.37 -2.95843 0.686329 0
M  V30 11524 H 1049.96 -1.43909 0.401316 0
M  V30 11525 H 1051.84 -3.90862 -1.57496 0
M  V30 11526 H 1050.52 -2.72516 -1.7469 0
M  V30 11527 H 1049.42 -3.72519 0.343531 0
M  V30 11528 H 1050.76 -4.90297 0.432372 0
M  V30 11529 N 1052.41 -0.382291 -1.52893 0
M  V30 11530 C 1053.32 0.463745 -2.29971 0
M  V30 11531 C 1054.33 1.07777 -1.36602 0
M  V30 11532 O 1055.51 1.0851 -1.69669 0
M  V30 11533 C 1052.57 1.57938 -3.08637 0
M  V30 11534 C 1051.64 0.991182 -4.17701 0
M  V30 11535 C 1050.87 2.05365 -4.92606 0
M  V30 11536 O 1051.09 3.26757 -4.67532 0
M  V30 11537 O 1050.03 1.67487 -5.78128 0
M  V30 11538 H 1053.85 -0.163962 -3.03257 0
M  V30 11539 H 1051.44 -0.146199 -1.48683 0
M  V30 11540 H 1053.32 2.22765 -3.57706 0
M  V30 11541 H 1051.99 2.19218 -2.3817 0
M  V30 11542 H 1050.9 0.306364 -3.72843 0
M  V30 11543 H 1052.23 0.422699 -4.90382 0
M  V30 11544 N 1053.89 1.57202 -0.111913 0
M  V30 11545 C 1055.13 1.9495 0.547795 0
M  V30 11546 C 1055.46 0.994763 1.67137 0
M  V30 11547 O 1054.72 0.0173528 1.95692 0
M  V30 11548 C 1055.01 3.39152 1.12741 0
M  V30 11549 C 1054.68 4.50724 0.125916 0
M  V30 11550 C 1053.34 4.80968 -0.149489 0
M  V30 11551 C 1055.69 5.18215 -0.556987 0
M  V30 11552 C 1053.02 5.76023 -1.1142 0
M  V30 11553 C 1055.37 6.14307 -1.51029 0
M  V30 11554 C 1054.04 6.42947 -1.79375 0
M  V30 11555 H 1053.31 0.713372 0.200453 0
M  V30 11556 H 1055.96 1.90542 -0.191316 0
M  V30 11557 H 1054.26 3.4022 1.94313 0
M  V30 11558 H 1055.96 3.65668 1.64584 0
M  V30 11559 H 1052.55 4.27162 0.350756 0
M  V30 11560 H 1056.73 4.95012 -0.357378 0
M  V30 11561 H 1051.99 5.9652 -1.34064 0
M  V30 11562 H 1056.16 6.65692 -2.04516 0
M  V30 11563 H 1053.79 7.1641 -2.54284 0
M  V30 11564 N 1055.36 -0.161842 1.56767 0
M  V30 11565 C 1056.31 -1.21948 1.98069 0
M  V30 11566 C 1057.31 -1.45303 0.870835 0
M  V30 11567 O 1058.51 -1.45771 1.05598 0
M  V30 11568 H 1054.89 -0.410145 0.630306 0
M  V30 11569 H 1056.86 -0.844336 2.86205 0
M  V30 11570 C 1055.61 -2.549 2.36477 0
M  V30 11571 H 1054.93 -2.37755 3.21423 0
M  V30 11572 H 1056.37 -3.27568 2.69212 0
M  V30 11573 C 1054.83 -3.14353 1.21176 0
M  V30 11574 O 1055.36 -3.98519 0.504499 0
M  V30 11575 N 1053.56 -2.73582 0.979855 0
M  V30 11576 H 1053.11 -2.05239 1.55675 0
M  V30 11577 H 1053.07 -3.13696 0.21025 0
M  V30 11578 N 1056.84 -1.516 -0.430713 0
M  V30 11579 C 1058.09 -1.64596 -1.17959 0
M  V30 11580 C 1058.42 -0.365382 -1.91037 0
M  V30 11581 O 1057.67 0.650826 -1.84561 0
M  V30 11582 C 1057.97 -2.804 -2.21609 0
M  V30 11583 C 1057.64 -4.19431 -1.65495 0
M  V30 11584 C 1056.3 -4.57252 -1.49915 0
M  V30 11585 C 1058.65 -5.0616 -1.24304 0
M  V30 11586 C 1055.98 -5.79501 -0.916276 0
M  V30 11587 C 1058.33 -6.28995 -0.674437 0
M  V30 11588 C 1056.99 -6.65582 -0.505591 0
M  V30 11589 H 1056.26 -0.602301 -0.431642 0
M  V30 11590 H 1058.91 -1.8565 -0.469726 0
M  V30 11591 H 1057.22 -2.53595 -2.98658 0
M  V30 11592 H 1058.91 -2.87654 -2.79385 0
M  V30 11593 H 1055.5 -3.89615 -1.78599 0
M  V30 11594 H 1059.69 -4.77541 -1.35159 0
M  V30 11595 H 1054.94 -6.0649 -0.77328 0
M  V30 11596 H 1059.12 -6.95536 -0.346779 0
M  V30 11597 H 1056.74 -7.60182 -0.0518188 0
M  V30 11598 N 1058.32 0.686584 -1.41858 0
M  V30 11599 C 1059.57 1.44379 -1.41418 0
M  V30 11600 C 1059.89 1.94981 -0.0273696 0
M  V30 11601 O 1059.16 1.72296 0.932248 0
M  V30 11602 H 1057.74 0.53574 -0.520568 0
M  V30 11603 H 1060.4 0.812056 -1.77177 0
M  V30 11604 H 1059.5 2.30258 -2.10684 0
M  V30 11605 N 1059.8 1.27835 0.921735 0
M  V30 11606 C 1061.07 1.05238 1.64877 0
M  V30 11607 C 1061.45 -0.410921 2.07062 0
M  V30 11608 O 1060.8 -1.39538 1.80946 0
M  V30 11609 C 1061.01 2.01955 2.84632 0
M  V30 11610 C 1062.36 2.31657 3.55837 0
M  V30 11611 O 1063.38 1.99975 2.94768 0
M  V30 11612 O 1062.24 2.85692 4.65878 0
M  V30 11613 H 1059.34 0.401622 0.72293 0
M  V30 11614 H 1061.88 1.39123 0.971744 0
M  V30 11615 H 1060.66 3.00614 2.50494 0
M  V30 11616 H 1060.28 1.68667 3.60052 0
M  V30 11617 N 1061.28 -1.12907 1.09954 0
M  V30 11618 C 1062.52 -1.84579 0.840155 0
M  V30 11619 C 1062.85 -1.83605 -0.632692 0
M  V30 11620 O 1062.13 -1.27803 -1.46617 0
M  V30 11621 C 1062.41 -3.32489 1.38286 0
M  V30 11622 C 1062.27 -3.41946 2.92221 0
M  V30 11623 C 1063.58 -4.28091 1.0211 0
M  V30 11624 H 1060.7 -0.670169 0.306663 0
M  V30 11625 H 1063.35 -1.3249 1.36185 0
M  V30 11626 H 1061.5 -3.76978 0.939123 0
M  V30 11627 H 1063.17 -3.06128 3.45085 0
M  V30 11628 H 1061.41 -2.8265 3.29077 0
M  V30 11629 H 1062.08 -4.45983 3.25274 0
M  V30 11630 H 1064.56 -3.91701 1.4039 0
M  V30 11631 H 1063.43 -5.30005 1.42781 0
M  V30 11632 H 1063.69 -4.42044 -0.0700753 0
M  V30 11633 N 1062.75 -0.88754 -1.30232 0
M  V30 11634 C 1064 -0.507279 -1.96043 0
M  V30 11635 C 1064.33 0.944059 -1.70052 0
M  V30 11636 O 1063.58 1.68255 -0.999444 0
M  V30 11637 C 1063.88 -0.731765 -3.49828 0
M  V30 11638 C 1063.55 -2.15858 -3.95874 0
M  V30 11639 C 1062.21 -2.54875 -4.08157 0
M  V30 11640 C 1064.56 -3.0883 -4.19849 0
M  V30 11641 C 1061.89 -3.86069 -4.41778 0
M  V30 11642 C 1064.24 -4.39559 -4.5494 0
M  V30 11643 C 1062.91 -4.78465 -4.65432 0
M  V30 11644 H 1062.18 -0.185627 -0.717373 0
M  V30 11645 H 1064.82 -1.12388 -1.55052 0
M  V30 11646 H 1063.13 -0.0321473 -3.91787 0
M  V30 11647 H 1064.83 -0.417107 -3.98825 0
M  V30 11648 H 1061.42 -1.84574 -3.86821 0
M  V30 11649 H 1065.6 -2.79906 -4.09837 0
M  V30 11650 H 1060.86 -4.1595 -4.48102 0
M  V30 11651 H 1065.03 -5.11636 -4.72442 0
M  V30 11652 H 1062.66 -5.80162 -4.91239 0
M  V30 11653 N 1064.23 1.43628 -0.648757 0
M  V30 11654 C 1065.48 2.02163 -0.160574 0
M  V30 11655 C 1065.81 1.51037 1.22072 0
M  V30 11656 O 1065.09 0.701633 1.81404 0
M  V30 11657 C 1065.37 3.59715 -0.166528 0
M  V30 11658 C 1065.22 4.21083 -1.58142 0
M  V30 11659 C 1066.54 4.37256 0.499485 0
M  V30 11660 H 1063.66 0.734568 -0.0598238 0
M  V30 11661 H 1066.3 1.70981 -0.828592 0
M  V30 11662 H 1064.45 3.86411 0.402302 0
M  V30 11663 H 1066.12 4.05433 -2.2005 0
M  V30 11664 H 1064.37 3.77904 -2.13005 0
M  V30 11665 H 1065.04 5.30156 -1.53748 0
M  V30 11666 H 1067.51 4.16097 0.0155561 0
M  V30 11667 H 1066.39 5.4693 0.464574 0
M  V30 11668 H 1066.65 4.13175 1.57286 0
M  V30 11669 N 1065.71 0.390394 1.52688 0
M  V30 11670 C 1066.66 -0.461191 2.23287 0
M  V30 11671 C 1067.64 -1.02875 1.23716 0
M  V30 11672 O 1068.84 -0.954675 1.49047 0
M  V30 11673 C 1065.97 -1.58736 3.04397 0
M  V30 11674 C 1065.05 -1.03149 4.11365 0
M  V30 11675 N 1065.44 -0.20066 5.05402 0
M  V30 11676 C 1063.74 -1.30388 4.26515 0
M  V30 11677 C 1064.44 0.106548 5.81602 0
M  V30 11678 N 1063.42 -0.497687 5.41317 0
M  V30 11679 H 1067.22 0.1801 2.93348 0
M  V30 11680 H 1064.73 0.199761 1.61167 0
M  V30 11681 H 1066.73 -2.20986 3.53512 0
M  V30 11682 H 1065.39 -2.23147 2.35872 0
M  V30 11683 H 1066.4 0.162168 5.17646 0
M  V30 11684 H 1063.08 -1.94894 3.69219 0
M  V30 11685 H 1064.47 0.779778 6.6736 0
M  V30 11686 N 1067.19 -1.57141 0.120249 0
M  V30 11687 C 1068.12 -2.12454 -0.859987 0
M  V30 11688 C 1069.13 -1.06755 -1.22911 0
M  V30 11689 O 1070.32 -1.34124 -1.17784 0
M  V30 11690 C 1067.42 -2.61024 -2.16147 0
M  V30 11691 C 1066.6 -3.90835 -1.96385 0
M  V30 11692 C 1065.65 -4.2499 -3.10274 0
M  V30 11693 O 1064.68 -4.93786 -2.83133 0
M  V30 11694 N 1065.88 -3.82411 -4.36741 0
M  V30 11695 H 1068.65 -2.97186 -0.387402 0
M  V30 11696 H 1066.21 -1.61773 -0.0641376 0
M  V30 11697 H 1068.2 -2.80903 -2.91334 0
M  V30 11698 H 1066.77 -1.81166 -2.5475 0
M  V30 11699 H 1065.99 -3.79853 -1.05383 0
M  V30 11700 H 1067.28 -4.75712 -1.80487 0
M  V30 11701 H 1066.68 -3.26926 -4.61666 0
M  V30 11702 H 1065.23 -4.07395 -5.08795 0
M  V30 11703 N 1068.67 0.153526 -1.5685 0
M  V30 11704 C 1069.63 1.17362 -1.96873 0
M  V30 11705 C 1070.63 1.36219 -0.854456 0
M  V30 11706 O 1071.82 1.33322 -1.1212 0
M  V30 11707 C 1068.95 2.53523 -2.27901 0
M  V30 11708 H 1070.14 0.830432 -2.88173 0
M  V30 11709 H 1067.7 0.396633 -1.51184 0
M  V30 11710 H 1068.43 2.92824 -1.39371 0
M  V30 11711 H 1068.22 2.41198 -3.09137 0
M  V30 11712 H 1069.71 3.27006 -2.59725 0
M  V30 11713 N 1070.14 1.51827 0.422667 0
M  V30 11714 C 1071.39 1.6445 1.16786 0
M  V30 11715 C 1071.71 0.373792 1.91995 0
M  V30 11716 O 1072.91 0.379621 2.68833 0
M  V30 11717 C 1071.37 2.90488 2.12473 0
M  V30 11718 C 1070.98 4.24617 1.42844 0
M  V30 11719 C 1072.72 3.12472 2.87335 0
M  V30 11720 C 1070.63 5.41791 2.371 0
M  V30 11721 H 1069.56 0.612561 0.439641 0
M  V30 11722 H 1072.21 1.78305 0.433534 0
M  V30 11723 H 1070.59 2.703 2.89402 0
M  V30 11724 H 1071.76 4.55239 0.71372 0
M  V30 11725 H 1070.08 4.08628 0.800769 0
M  V30 11726 H 1072.68 3.9719 3.57973 0
M  V30 11727 H 1073.02 2.26148 3.49518 0
M  V30 11728 H 1073.55 3.33069 2.17509 0
M  V30 11729 H 1070.29 6.3042 1.79584 0
M  V30 11730 H 1069.81 5.15526 3.06583 0
M  V30 11731 H 1071.49 5.74329 2.97918 0
M  V30 11732 N 1071.62 -0.679052 1.4222 0
M  V30 11733 C 1072.57 -1.78522 1.41824 0
M  V30 11734 C 1073.56 -1.58262 0.290179 0
M  V30 11735 O 1074.75 -1.68813 0.532092 0
M  V30 11736 C 1071.88 -3.16952 1.31895 0
M  V30 11737 C 1070.96 -3.42849 2.4963 0
M  V30 11738 N 1071.35 -3.39354 3.75063 0
M  V30 11739 C 1069.65 -3.73468 2.43799 0
M  V30 11740 C 1070.35 -3.64617 4.53243 0
M  V30 11741 N 1069.33 -3.85174 3.83591 0
M  V30 11742 H 1073.13 -1.74206 2.36705 0
M  V30 11743 H 1070.65 -0.879719 1.36509 0
M  V30 11744 H 1072.64 -3.96214 1.29693 0
M  V30 11745 H 1071.3 -3.22467 0.380127 0
M  V30 11746 H 1072.31 -3.19354 4.07718 0
M  V30 11747 H 1068.99 -3.86254 1.58474 0
M  V30 11748 H 1070.38 -3.67912 5.62219 0
M  V30 11749 N 1073.1 -1.28322 -0.914942 0
M  V30 11750 C 1074.33 -1.18254 -1.69775 0
M  V30 11751 C 1074.74 0.258978 -1.87015 0
M  V30 11752 O 1074.1 1.17514 -1.3963 0
M  V30 11753 C 1074.15 -1.8753 -3.09054 0
M  V30 11754 O 1073.87 -3.26051 -2.92613 0
M  V30 11755 C 1075.37 -1.83749 -4.03424 0
M  V30 11756 H 1072.59 -0.41055 -0.530744 0
M  V30 11757 H 1075.14 -1.69425 -1.14523 0
M  V30 11758 H 1073.29 -1.40233 -3.61128 0
M  V30 11759 H 1073.71 -3.60729 -3.80756 0
M  V30 11760 H 1075.18 -2.36813 -4.98622 0
M  V30 11761 H 1075.66 -0.809601 -4.31674 0
M  V30 11762 H 1076.26 -2.3072 -3.57279 0
M  V30 11763 N 1074.58 1.12322 -1.10551 0
M  V30 11764 C 1075.83 1.83216 -0.84349 0
M  V30 11765 C 1076.14 1.85075 0.632992 0
M  V30 11766 O 1077.35 2.51976 1.01095 0
M  V30 11767 C 1075.8 3.28994 -1.45915 0
M  V30 11768 C 1075.41 3.3549 -2.96901 0
M  V30 11769 C 1077.15 4.0485 -1.27657 0
M  V30 11770 C 1075.06 4.7561 -3.51496 0
M  V30 11771 H 1073.99 0.686471 -0.311887 0
M  V30 11772 H 1076.64 1.26463 -1.32964 0
M  V30 11773 H 1075.02 3.85621 -0.900678 0
M  V30 11774 H 1076.2 2.88795 -3.59074 0
M  V30 11775 H 1074.51 2.73107 -3.14327 0
M  V30 11776 H 1077.11 5.08316 -1.65889 0
M  V30 11777 H 1077.45 4.15727 -0.218258 0
M  V30 11778 H 1077.99 3.54584 -1.80318 0
M  V30 11779 H 1074.73 4.69927 -4.56999 0
M  V30 11780 H 1074.25 5.22753 -2.94091 0
M  V30 11781 H 1075.92 5.44552 -3.49388 0
M  V30 11782 N 1076.06 0.894434 1.2976 0
M  V30 11783 C 1076.97 0.372622 2.31622 0
M  V30 11784 C 1077.98 -0.52996 1.65733 0
M  V30 11785 O 1079.16 -0.420807 1.96955 0
M  V30 11786 C 1076.22 -0.396076 3.4443 0
M  V30 11787 C 1075.28 0.537394 4.25923 0
M  V30 11788 C 1074.52 -0.194713 5.33345 0
M  V30 11789 O 1074.74 -1.41943 5.52457 0
M  V30 11790 O 1073.67 0.460055 6.00139 0
M  V30 11791 H 1077.5 1.21756 2.78225 0
M  V30 11792 H 1075.09 0.65858 1.34101 0
M  V30 11793 H 1076.97 -0.830962 4.13126 0
M  V30 11794 H 1075.64 -1.21716 2.99945 0
M  V30 11795 H 1074.55 1.02129 3.5989 0
M  V30 11796 H 1075.88 1.32475 4.74037 0
M  V30 11797 N 1077.53 -1.43282 0.656365 0
M  V30 11798 C 1078.76 -2.05826 0.178619 0
M  V30 11799 C 1079.17 -1.493 -1.16216 0
M  V30 11800 O 1078.52 -0.620163 -1.72915 0
M  V30 11801 C 1078.58 -3.59496 0.0164101 0
M  V30 11802 C 1078.24 -4.38621 1.28298 0
M  V30 11803 C 1079.24 -4.70477 2.21241 0
M  V30 11804 C 1076.92 -4.78577 1.52544 0
M  V30 11805 C 1078.92 -5.412 3.36721 0
M  V30 11806 C 1076.6 -5.49044 2.68316 0
M  V30 11807 C 1077.6 -5.80279 3.6023 0
M  V30 11808 O 1077.29 -6.49306 4.7398 0
M  V30 11809 H 1077.02 -0.670158 0.0886814 0
M  V30 11810 H 1079.58 -1.84722 0.89816 0
M  V30 11811 H 1077.81 -3.79188 -0.758532 0
M  V30 11812 H 1079.5 -4.03731 -0.419096 0
M  V30 11813 H 1080.26 -4.40125 2.03753 0
M  V30 11814 H 1076.14 -4.5367 0.818816 0
M  V30 11815 H 1079.68 -5.65497 4.08483 0
M  V30 11816 H 1075.58 -5.78813 2.85738 0
M  V30 11817 H 1076.35 -6.67789 4.73286 0
M  V30 11818 N 1079.01 -0.398486 -1.52479 0
M  V30 11819 C 1080.25 0.180412 -2.03602 0
M  V30 11820 C 1080.62 1.43276 -1.27812 0
M  V30 11821 O 1081.82 2.08941 -1.69107 0
M  V30 11822 C 1080.09 0.432744 -3.5477 0
M  V30 11823 S 1081.65 0.980612 -4.27703 0
M  V30 11824 H 1078.47 0.0499981 -0.70924 0
M  V30 11825 H 1081.07 -0.548952 -1.87635 0
M  V30 11826 H 1079.77 -0.48568 -4.07516 0
M  V30 11827 H 1079.3 1.19028 -3.74961 0
M  V30 11828 H 1081.32 2.26216 -4.41634 0
M  V30 11829 N 1080.49 1.57075 -0.12858 0
M  V30 11830 C 1081.42 2.18833 0.814519 0
M  V30 11831 C 1082.4 1.13114 1.2704 0
M  V30 11832 O 1083.59 1.41387 1.33129 0
M  V30 11833 C 1080.72 2.79535 2.06101 0
M  V30 11834 C 1079.67 3.9092 1.74257 0
M  V30 11835 C 1079 4.38473 3.06015 0
M  V30 11836 C 1080.3 5.1257 1.00345 0
M  V30 11837 H 1081.99 2.97895 0.299862 0
M  V30 11838 H 1079.54 1.4329 0.14279 0
M  V30 11839 H 1081.49 3.21401 2.72543 0
M  V30 11840 H 1080.21 1.97777 2.59907 0
M  V30 11841 H 1078.87 3.49645 1.102 0
M  V30 11842 H 1078.52 3.53561 3.57776 0
M  V30 11843 H 1078.22 5.13591 2.85479 0
M  V30 11844 H 1079.75 4.82997 3.7356 0
M  V30 11845 H 1081.16 5.51395 1.56959 0
M  V30 11846 H 1079.56 5.93333 0.898693 0
M  V30 11847 H 1080.63 4.84899 -0.0081335 0
M  V30 11848 N 1081.97 -0.145205 1.5693 0
M  V30 11849 C 1083.22 -0.855822 1.83085 0
M  V30 11850 C 1083.54 -1.81625 0.709747 0
M  V30 11851 O 1082.81 -1.94052 -0.268456 0
M  V30 11852 H 1081.39 -0.319032 0.675446 0
M  V30 11853 H 1084.05 -0.138781 1.94405 0
M  V30 11854 H 1083.15 -1.41698 2.78079 0
M  V30 11855 N 1083.45 -1.52049 -0.414609 0
M  V30 11856 C 1084.69 -1.67511 -1.17129 0
M  V30 11857 C 1085.05 -0.39383 -1.87917 0
M  V30 11858 O 1086.25 -0.424496 -2.65427 0
M  V30 11859 C 1084.52 -2.85982 -2.14357 0
M  V30 11860 S 1086.08 -3.21898 -2.98206 0
M  V30 11861 H 1082.9 -0.589923 -0.396877 0
M  V30 11862 H 1085.5 -1.90025 -0.459409 0
M  V30 11863 H 1084.21 -3.77488 -1.6103 0
M  V30 11864 H 1083.74 -2.65725 -2.90092 0
M  V30 11865 H 1085.75 -2.70095 -4.16249 0
M  V30 11866 N 1084.93 0.6715 -1.42579 0
M  V30 11867 C 1086.17 1.42731 -1.42516 0
M  V30 11868 C 1086.49 1.95545 -0.0462407 0
M  V30 11869 O 1087.69 2.71391 0.0769798 0
M  V30 11870 C 1086.15 2.58215 -2.50705 0
M  V30 11871 C 1085.76 2.12086 -3.94618 0
M  V30 11872 C 1087.5 3.35705 -2.59813 0
M  V30 11873 C 1085.41 3.24672 -4.9431 0
M  V30 11874 H 1084.34 0.536218 -0.530081 0
M  V30 11875 H 1086.99 0.726655 -1.68499 0
M  V30 11876 H 1085.37 3.30665 -2.17892 0
M  V30 11877 H 1086.55 1.46768 -4.36802 0
M  V30 11878 H 1084.86 1.47526 -3.89391 0
M  V30 11879 H 1087.46 4.1956 -3.31472 0
M  V30 11880 H 1087.8 3.82517 -1.64276 0
M  V30 11881 H 1088.33 2.70326 -2.91836 0
M  V30 11882 H 1085.07 2.82848 -5.91335 0
M  V30 11883 H 1084.59 3.88761 -4.56755 0
M  V30 11884 H 1086.27 3.90088 -5.16179 0
M  V30 11885 N 1086.4 1.28806 0.908124 0
M  V30 11886 C 1087.63 1.19271 1.69674 0
M  V30 11887 C 1088.05 -0.244403 1.86505 0
M  V30 11888 O 1087.41 -1.17668 1.37927 0
M  V30 11889 C 1087.46 1.9023 3.06341 0
M  V30 11890 O 1086.56 1.2136 3.94139 0
M  V30 11891 H 1085.9 0.413738 0.519343 0
M  V30 11892 H 1088.43 1.70227 1.13508 0
M  V30 11893 H 1088.44 1.98356 3.56537 0
M  V30 11894 H 1087.12 2.94762 2.93408 0
M  V30 11895 H 1085.7 1.21435 3.52573 0
M  V30 11896 N 1087.88 -1.11734 1.11145 0
M  V30 11897 C 1088.83 -2.19765 0.761982 0
M  V30 11898 C 1089.82 -1.67616 -0.24518 0
M  V30 11899 O 1091.03 -1.79695 -0.104781 0
M  V30 11900 H 1087.4 -0.71644 0.228513 0
M  V30 11901 H 1089.38 -2.4649 1.68183 0
M  V30 11902 C 1088.12 -3.47016 0.218057 0
M  V30 11903 H 1087.45 -3.87494 0.984299 0
M  V30 11904 H 1088.89 -4.23998 0.0116825 0
M  V30 11905 C 1087.35 -3.20088 -1.05096 0
M  V30 11906 O 1087.88 -3.40503 -2.1312 0
M  V30 11907 N 1086.08 -2.73844 -0.972523 0
M  V30 11908 H 1085.63 -2.57431 -0.0933459 0
M  V30 11909 H 1085.59 -2.56204 -1.82228 0
M  V30 11910 N 1089.36 -0.901303 -1.29284 0
M  V30 11911 C 1090.59 -0.543511 -1.99634 0
M  V30 11912 C 1091 0.872154 -1.67448 0
M  V30 11913 O 1090.36 1.57591 -0.920406 0
M  V30 11914 C 1090.41 -0.728148 -3.54091 0
M  V30 11915 O 1090.13 -2.08809 -3.85137 0
M  V30 11916 C 1091.63 -0.375519 -4.41707 0
M  V30 11917 H 1088.85 -0.208405 -0.637815 0
M  V30 11918 H 1091.4 -1.21109 -1.64781 0
M  V30 11919 H 1089.55 -0.107728 -3.8725 0
M  V30 11920 H 1089.97 -2.11863 -4.79807 0
M  V30 11921 H 1091.44 -0.555538 -5.49197 0
M  V30 11922 H 1091.92 0.687532 -4.33785 0
M  V30 11923 H 1092.52 -0.972949 -4.14021 0
M  V30 11924 N 1090.84 1.42931 -0.663954 0
M  V30 11925 C 1091.8 2.29197 0.0117626 0
M  V30 11926 C 1092.8 1.42767 0.739875 0
M  V30 11927 O 1093.99 1.64278 0.579509 0
M  V30 11928 C 1091.12 3.2505 1.02738 0
M  V30 11929 H 1092.32 2.90438 -0.747391 0
M  V30 11930 H 1089.87 1.5039 -0.425733 0
M  V30 11931 H 1090.6 2.68726 1.8154 0
M  V30 11932 H 1090.39 3.88785 0.508809 0
M  V30 11933 H 1091.88 3.89771 1.49893 0
M  V30 11934 N 1092.32 0.406567 1.52266 0
M  V30 11935 C 1093.54 -0.172101 2.06685 0
M  V30 11936 C 1093.97 -1.38306 1.27488 0
M  V30 11937 O 1093.32 -1.78726 0.304441 0
M  V30 11938 C 1093.37 -0.503463 3.57068 0
M  V30 11939 O 1092.48 -1.59485 3.80314 0
M  V30 11940 H 1091.82 -0.0153209 0.663823 0
M  V30 11941 H 1094.35 0.579025 1.96236 0
M  V30 11942 H 1094.36 -0.762833 4.00805 0
M  V30 11943 H 1093.03 0.381775 4.14144 0
M  V30 11944 H 1091.61 -1.32784 3.48458 0
M  V30 11945 N 1093.79 -1.57004 0.136909 0
M  V30 11946 C 1095.02 -1.99866 -0.523177 0
M  V30 11947 C 1095.43 -1.01584 -1.59616 0
M  V30 11948 O 1094.78 -0.00326426 -1.837 0
M  V30 11949 C 1094.84 -3.39157 -1.19217 0
M  V30 11950 C 1094.5 -4.56231 -0.265 0
M  V30 11951 C 1095.5 -5.17457 0.503412 0
M  V30 11952 C 1093.18 -5.02009 -0.170846 0
M  V30 11953 C 1095.18 -6.22863 1.35353 0
M  V30 11954 C 1092.86 -6.07273 0.682884 0
M  V30 11955 C 1093.86 -6.67568 1.44369 0
M  V30 11956 O 1093.55 -7.70795 2.28321 0
M  V30 11957 H 1093.28 -0.661005 -0.141593 0
M  V30 11958 H 1095.84 -2.04159 0.225445 0
M  V30 11959 H 1094.07 -3.31672 -1.98823 0
M  V30 11960 H 1095.76 -3.66191 -1.75096 0
M  V30 11961 H 1096.52 -4.82994 0.440648 0
M  V30 11962 H 1092.4 -4.54813 -0.752744 0
M  V30 11963 H 1095.94 -6.69855 1.94783 0
M  V30 11964 H 1091.84 -6.41163 0.746978 0
M  V30 11965 H 1092.61 -7.87971 2.21458 0
M  V30 11966 N 1095.27 0.136881 -1.57004 0
M  V30 11967 C 1096.2 1.17026 -2.02057 0
M  V30 11968 C 1097.18 1.44223 -0.901866 0
M  V30 11969 O 1098.37 1.54971 -1.17037 0
M  V30 11970 C 1095.5 2.50095 -2.40977 0
M  V30 11971 C 1094.45 2.37398 -3.56127 0
M  V30 11972 C 1093.78 3.75268 -3.80891 0
M  V30 11973 C 1095.08 1.84952 -4.88457 0
M  V30 11974 H 1096.77 0.795601 -2.88636 0
M  V30 11975 H 1094.32 0.381266 -1.38861 0
M  V30 11976 H 1096.27 3.22621 -2.71097 0
M  V30 11977 H 1095 2.89416 -1.51348 0
M  V30 11978 H 1093.65 1.67322 -3.26188 0
M  V30 11979 H 1093.3 4.12043 -2.88496 0
M  V30 11980 H 1093 3.67631 -4.5839 0
M  V30 11981 H 1094.53 4.49327 -4.13446 0
M  V30 11982 H 1095.94 2.4728 -5.17229 0
M  V30 11983 H 1094.34 1.88181 -5.69832 0
M  V30 11984 H 1095.41 0.805848 -4.78157 0
M  V30 11985 N 1096.75 1.52266 0.40654 0
M  V30 11986 C 1098.17 1.41127 0.745348 0
M  V30 11987 C 1098.37 0.517802 1.94733 0
M  V30 11988 O 1097.42 -0.0154286 2.52495 0
M  V30 11989 C 1098.74 2.83696 0.996859 0
M  V30 11990 C 1100.28 2.93056 1.09942 0
M  V30 11991 C 1100.76 4.36599 1.38367 0
M  V30 11992 N 1102.25 4.39845 1.45226 0
M  V30 11993 C 1102.98 5.47975 1.68852 0
M  V30 11994 N 1102.48 6.66219 1.90065 0
M  V30 11995 N 1104.27 5.35494 1.70888 0
M  V30 11996 H 1096.42 2.08888 -0.384632 0
M  V30 11997 H 1098.69 0.941619 -0.109809 0
M  V30 11998 H 1098.39 3.51208 0.185986 0
M  V30 11999 H 1098.27 3.24895 1.91632 0
M  V30 12000 H 1100.65 2.25723 1.90088 0
M  V30 12001 H 1100.74 2.5531 0.158256 0
M  V30 12002 H 1100.38 5.04492 0.587373 0
M  V30 12003 H 1100.31 4.71883 2.33739 0
M  V30 12004 H 1102.8 3.54611 1.30612 0
M  V30 12005 H 1103.11 7.44408 2.0755 0
M  V30 12006 H 1101.46 6.69279 1.87325 0
M  V30 12007 H 1104.65 4.42093 1.53856 0
M  V30 12008 H 1104.82 6.19837 1.88962 0
M  V30 12009 N 1098.23 -0.663929 1.42933 0
M  V30 12010 C 1099.16 -1.78899 1.50058 0
M  V30 12011 C 1100.14 -1.66329 0.356164 0
M  V30 12012 O 1101.32 -1.85587 0.571944 0
M  V30 12013 C 1098.45 -3.17265 1.41281 0
M  V30 12014 C 1097.41 -3.44584 2.53861 0
M  V30 12015 C 1096.73 -4.82638 2.3014 0
M  V30 12016 C 1098.03 -3.40394 3.96143 0
M  V30 12017 H 1099.73 -1.73194 2.44222 0
M  V30 12018 H 1097.27 -0.83182 1.17545 0
M  V30 12019 H 1099.23 -3.95715 1.44872 0
M  V30 12020 H 1097.95 -3.23675 0.43616 0
M  V30 12021 H 1096.61 -2.685 2.49606 0
M  V30 12022 H 1096.26 -4.85711 1.30743 0
M  V30 12023 H 1095.96 -5.01879 3.056 0
M  V30 12024 H 1097.48 -5.63359 2.35497 0
M  V30 12025 H 1098.9 -4.08796 4.01943 0
M  V30 12026 H 1097.29 -3.7117 4.71543 0
M  V30 12027 H 1098.36 -2.38767 4.22041 0
M  V30 12028 N 1099.71 -1.29285 -0.901281 0
M  V30 12029 C 1100.95 -1.18348 -1.65424 0
M  V30 12030 C 1101.31 0.26276 -1.90597 0
M  V30 12031 O 1100.6 1.1868 -1.50418 0
M  V30 12032 C 1100.79 -1.92865 -3.00895 0
M  V30 12033 C 1100.62 -3.44588 -2.88945 0
M  V30 12034 C 1099.39 -4.13938 -2.89799 0
M  V30 12035 C 1101.59 -4.40113 -2.66092 0
M  V30 12036 N 1099.57 -5.52036 -2.68569 0
M  V30 12037 C 1100.94 -5.65661 -2.53827 0
M  V30 12038 C 1103 -4.29895 -2.51187 0
M  V30 12039 C 1101.7 -6.8215 -2.28175 0
M  V30 12040 C 1103.73 -5.46134 -2.26917 0
M  V30 12041 C 1103.09 -6.70653 -2.15416 0
M  V30 12042 H 1099.19 -0.48806 -0.611 0
M  V30 12043 H 1101.77 -1.63094 -1.06341 0
M  V30 12044 H 1099.94 -1.50535 -3.58042 0
M  V30 12045 H 1101.68 -1.74207 -3.65286 0
M  V30 12046 H 1098.43 -3.65625 -3.01023 0
M  V30 12047 H 1098.86 -6.24662 -2.61011 0
M  V30 12048 H 1103.5 -3.34321 -2.58823 0
M  V30 12049 H 1101.22 -7.77781 -2.19277 0
M  V30 12050 H 1104.8 -5.40126 -2.1623 0
M  V30 12051 H 1103.68 -7.5908 -1.96896 0
M  V30 12052 N 1101.18 1.11143 -1.11736 0
M  V30 12053 C 1102.15 2.15456 -0.78174 0
M  V30 12054 C 1103.15 1.59547 0.200383 0
M  V30 12055 O 1104.34 1.74183 -0.0244893 0
M  V30 12056 C 1101.47 3.40523 -0.160364 0
M  V30 12057 H 1102.66 2.46658 -1.70586 0
M  V30 12058 H 1100.22 1.26381 -0.919644 0
M  V30 12059 H 1100.95 3.14932 0.773835 0
M  V30 12060 H 1100.74 3.82386 -0.867378 0
M  V30 12061 H 1102.23 4.17559 0.0582175 0
M  V30 12062 N 1102.66 0.908147 1.28804 0
M  V30 12063 C 1103.59 0.409106 2.29888 0
M  V30 12064 C 1104.57 -0.520338 1.61946 0
M  V30 12065 O 1105.76 -0.429268 1.89396 0
M  V30 12066 C 1102.89 -0.35669 3.45463 0
M  V30 12067 C 1101.84 0.4831 4.25265 0
M  V30 12068 C 1101.17 -0.4107 5.3312 0
M  V30 12069 C 1102.47 1.73744 4.92555 0
M  V30 12070 H 1104.16 1.25386 2.7188 0
M  V30 12071 H 1101.71 0.604368 1.30703 0
M  V30 12072 H 1103.66 -0.71661 4.15262 0
M  V30 12073 H 1102.39 -1.2353 3.02337 0
M  V30 12074 H 1101.04 0.825464 3.57186 0
M  V30 12075 H 1100.69 -1.28769 4.86238 0
M  V30 12076 H 1100.39 0.14756 5.87415 0
M  V30 12077 H 1101.92 -0.766626 6.05768 0
M  V30 12078 H 1103.33 1.44676 5.54745 0
M  V30 12079 H 1101.73 2.23767 5.5682 0
M  V30 12080 H 1102.8 2.46853 4.17363 0
M  V30 12081 N 1104.14 -1.42577 0.671525 0
M  V30 12082 C 1105.37 -2.06442 0.199152 0
M  V30 12083 C 1105.79 -1.50104 -1.1336 0
M  V30 12084 O 1105.15 -0.618211 -1.70434 0
M  V30 12085 C 1105.2 -3.60323 0.141215 0
M  V30 12086 O 1104.3 -4.02655 -0.891238 0
M  V30 12087 H 1103.64 -0.655919 0.103277 0
M  V30 12088 H 1106.17 -1.82768 0.919614 0
M  V30 12089 H 1106.18 -4.07984 -0.0360209 0
M  V30 12090 H 1104.86 -4.00702 1.11403 0
M  V30 12091 H 1103.43 -3.66549 -0.685309 0
M  V30 12092 N 1105.62 -0.414636 -1.52048 0
M  V30 12093 C 1106.55 0.399119 -2.30064 0
M  V30 12094 C 1107.53 1.04126 -1.34506 0
M  V30 12095 O 1108.71 1.04923 -1.63416 0
M  V30 12096 C 1105.84 1.51305 -3.12608 0
M  V30 12097 C 1104.8 0.995621 -4.16259 0
M  V30 12098 C 1104.12 2.20357 -4.87183 0
M  V30 12099 C 1105.42 0.0458178 -5.2228 0
M  V30 12100 H 1107.12 -0.251879 -2.98339 0
M  V30 12101 H 1104.66 -0.122579 -1.43477 0
M  V30 12102 H 1106.62 2.08936 -3.65956 0
M  V30 12103 H 1105.34 2.19201 -2.42113 0
M  V30 12104 H 1104 0.441676 -3.6393 0
M  V30 12105 H 1103.65 2.8682 -4.13211 0
M  V30 12106 H 1103.35 1.86385 -5.57256 0
M  V30 12107 H 1104.87 2.78584 -5.43345 0
M  V30 12108 H 1106.29 0.531102 -5.70835 0
M  V30 12109 H 1104.68 -0.20536 -5.99749 0
M  V30 12110 H 1105.75 -0.897807 -4.76516 0
M  V30 12111 N 1107.1 1.56929 -0.145233 0
M  V30 12112 C 1108.06 2.15483 0.781002 0
M  V30 12113 C 1109.06 1.09617 1.17647 0
M  V30 12114 O 1110.25 1.35265 1.09768 0
M  V30 12115 C 1107.38 2.7165 2.05959 0
M  V30 12116 H 1108.57 2.98667 0.271685 0
M  V30 12117 H 1106.13 1.55952 0.1042 0
M  V30 12118 H 1106.86 1.92127 2.61262 0
M  V30 12119 H 1106.65 3.491 1.78526 0
M  V30 12120 H 1108.14 3.16769 2.72116 0
M  V30 12121 N 1108.58 -0.128553 1.57075 0
M  V30 12122 C 1109.53 -1.16373 1.96065 0
M  V30 12123 C 1110.51 -1.37579 0.834323 0
M  V30 12124 O 1111.7 -1.38831 1.09795 0
M  V30 12125 C 1108.83 -2.49276 2.36043 0
M  V30 12126 C 1107.92 -2.31586 3.55287 0
M  V30 12127 N 1108.31 -1.83688 4.71267 0
M  V30 12128 C 1106.61 -2.62275 3.60732 0
M  V30 12129 C 1107.31 -1.79479 5.53319 0
M  V30 12130 N 1106.28 -2.23474 4.95541 0
M  V30 12131 H 1110.08 -0.785792 2.832 0
M  V30 12132 H 1107.6 -0.33641 1.58877 0
M  V30 12133 H 1109.6 -3.24134 2.62188 0
M  V30 12134 H 1108.26 -2.87837 1.50267 0
M  V30 12135 H 1109.27 -1.53376 4.94668 0
M  V30 12136 H 1105.94 -3.04586 2.85541 0
M  V30 12137 H 1107.33 -1.43781 6.56336 0
M  V30 12138 N 1110.05 -1.5248 -0.398459 0
M  V30 12139 C 1111.02 -1.75949 -1.46883 0
M  V30 12140 C 1112.02 -0.629431 -1.47969 0
M  V30 12141 O 1113.21 -0.897407 -1.49306 0
M  V30 12142 C 1110.34 -1.85162 -2.8623 0
M  V30 12143 H 1111.53 -2.71513 -1.2736 0
M  V30 12144 H 1109.08 -1.43058 -0.629619 0
M  V30 12145 H 1109.82 -0.915505 -3.11109 0
M  V30 12146 H 1109.6 -2.67326 -2.86844 0
M  V30 12147 H 1111.09 -2.05025 -3.63805 0
M  V30 12148 N 1111.53 0.65634 -1.43283 0
M  V30 12149 C 1112.46 1.78184 -1.44164 0
M  V30 12150 C 1113.48 1.59249 -0.338177 0
M  V30 12151 O 1114.67 1.68027 -0.60242 0
M  V30 12152 C 1111.77 3.15566 -1.23577 0
M  V30 12153 C 1110.94 3.61187 -2.46704 0
M  V30 12154 C 1110 4.77361 -2.21388 0
M  V30 12155 O 1109.02 4.8696 -2.94718 0
M  V30 12156 N 1110.23 5.67351 -1.22855 0
M  V30 12157 H 1112.99 1.77907 -2.41183 0
M  V30 12158 H 1110.55 0.840076 -1.38399 0
M  V30 12159 H 1112.54 3.90968 -1.04529 0
M  V30 12160 H 1111.11 3.10633 -0.350155 0
M  V30 12161 H 1110.33 2.76263 -2.81198 0
M  V30 12162 H 1111.62 3.88413 -3.28652 0
M  V30 12163 H 1111.02 5.62265 -0.622417 0
M  V30 12164 H 1109.58 6.42487 -1.09791 0
M  V30 12165 N 1113.01 1.29761 0.894412 0
M  V30 12166 C 1113.94 1.17902 2.01547 0
M  V30 12167 C 1114.92 0.0719402 1.69948 0
M  V30 12168 O 1116.11 0.252338 1.92554 0
M  V30 12169 C 1113.24 0.860262 3.36477 0
M  V30 12170 C 1112.19 1.92424 3.82305 0
M  V30 12171 C 1111.52 1.45868 5.14419 0
M  V30 12172 C 1112.82 3.33391 4.02054 0
M  V30 12173 H 1114.51 2.11688 2.11727 0
M  V30 12174 H 1112.06 1.01916 1.01731 0
M  V30 12175 H 1114.01 0.763987 4.14417 0
M  V30 12176 H 1112.73 -0.113289 3.26403 0
M  V30 12177 H 1111.39 2.00999 3.06586 0
M  V30 12178 H 1111.04 0.473654 5.00765 0
M  V30 12179 H 1110.74 2.17028 5.46052 0
M  V30 12180 H 1112.26 1.37601 5.94894 0
M  V30 12181 H 1113.68 3.27628 4.7046 0
M  V30 12182 H 1112.07 4.02555 4.4505 0
M  V30 12183 H 1113.14 3.75978 3.06216 0
M  V30 12184 N 1114.49 -1.10549 1.12324 0
M  V30 12185 C 1115.71 -1.8681 0.900927 0
M  V30 12186 C 1116.14 -1.80049 -0.54443 0
M  V30 12187 O 1115.5 -1.16957 -1.38531 0
M  V30 12188 C 1115.54 -3.33197 1.37883 0
M  V30 12189 O 1114.65 -4.08628 0.556529 0
M  V30 12190 H 1113.99 -0.579709 0.32378 0
M  V30 12191 H 1116.52 -1.39678 1.49503 0
M  V30 12192 H 1116.53 -3.84047 1.37739 0
M  V30 12193 H 1115.2 -3.37435 2.43127 0
M  V30 12194 H 1113.78 -3.67627 0.62486 0
M  V30 12195 N 1115.97 -0.914965 -1.28321 0
M  V30 12196 C 1116.88 -0.409424 -2.31 0
M  V30 12197 C 1117.89 0.503526 -1.66555 0
M  V30 12198 O 1119.07 0.38942 -1.97599 0
M  V30 12199 C 1116.13 0.34123 -3.45017 0
M  V30 12200 C 1115.19 -0.605087 -4.25014 0
M  V30 12201 C 1114.43 0.109837 -5.33587 0
M  V30 12202 O 1114.65 1.33136 -5.54645 0
M  V30 12203 O 1113.58 -0.555474 -5.99331 0
M  V30 12204 H 1117.41 -1.26167 -2.76253 0
M  V30 12205 H 1114.99 -0.679831 -1.33036 0
M  V30 12206 H 1116.88 0.765132 -4.14396 0
M  V30 12207 H 1115.55 1.16929 -3.01843 0
M  V30 12208 H 1114.46 -1.07841 -3.58219 0
M  V30 12209 H 1115.79 -1.39999 -4.7187 0
M  V30 12210 N 1117.44 1.42219 -0.679077 0
M  V30 12211 C 1118.69 2.01777 -0.20342 0
M  V30 12212 C 1119.02 1.53592 1.18841 0
M  V30 12213 O 1118.3 0.739954 1.79875 0
M  V30 12214 C 1118.58 3.59281 -0.242791 0
M  V30 12215 C 1118.43 4.17634 -1.67038 0
M  V30 12216 C 1119.75 4.38218 0.406624 0
M  V30 12217 H 1116.87 0.733134 -0.0753916 0
M  V30 12218 H 1119.51 1.69185 -0.864673 0
M  V30 12219 H 1117.66 3.87178 0.320248 0
M  V30 12220 H 1119.34 4.00674 -2.286 0
M  V30 12221 H 1117.58 3.73301 -2.20973 0
M  V30 12222 H 1118.25 5.26776 -1.64958 0
M  V30 12223 H 1120.73 4.16036 -0.0727077 0
M  V30 12224 H 1119.6 5.47793 0.348457 0
M  V30 12225 H 1119.86 4.16418 1.48487 0
M  V30 12226 N 1118.92 0.422693 1.51826 0
M  V30 12227 C 1119.85 -0.386913 2.30272 0
M  V30 12228 C 1120.83 -1.03411 1.35056 0
M  V30 12229 O 1122.02 -1.04055 1.6397 0
M  V30 12230 C 1119.15 -1.49645 3.13407 0
M  V30 12231 C 1118.1 -0.973532 4.16781 0
M  V30 12232 C 1117.43 -2.1777 4.88344 0
M  V30 12233 C 1118.73 -0.0181194 5.22297 0
M  V30 12234 H 1120.42 0.267697 2.98201 0
M  V30 12235 H 1117.97 0.130186 1.4341 0
M  V30 12236 H 1119.92 -2.06993 3.67059 0
M  V30 12237 H 1118.64 -2.17914 2.43272 0
M  V30 12238 H 1117.3 -0.42237 3.64159 0
M  V30 12239 H 1116.95 -2.84625 4.14726 0
M  V30 12240 H 1116.65 -1.83427 5.58237 0
M  V30 12241 H 1118.18 -2.75699 5.44814 0
M  V30 12242 H 1119.59 -0.500822 5.71108 0
M  V30 12243 H 1117.99 0.237163 5.99631 0
M  V30 12244 H 1119.06 0.923065 4.76033 0
M  V30 12245 N 1120.4 -1.5685 0.153553 0
M  V30 12246 C 1121.65 -1.97404 -0.490227 0
M  V30 12247 C 1122 -1.03725 -1.62046 0
M  V30 12248 O 1121.29 -0.0735247 -1.91459 0
M  V30 12249 C 1121.49 -3.42022 -1.0371 0
M  V30 12250 C 1121.32 -4.49683 0.038616 0
M  V30 12251 C 1120.09 -5.02993 0.482267 0
M  V30 12252 C 1122.28 -5.07517 0.832507 0
M  V30 12253 N 1120.27 -5.94267 1.54014 0
M  V30 12254 C 1121.64 -5.95062 1.74072 0
M  V30 12255 C 1123.69 -4.90069 0.879566 0
M  V30 12256 C 1122.4 -6.67027 2.69198 0
M  V30 12257 C 1124.42 -5.62741 1.81868 0
M  V30 12258 C 1123.78 -6.5 2.71441 0
M  V30 12259 H 1119.88 -0.767866 -0.148005 0
M  V30 12260 H 1122.47 -1.93093 0.24967 0
M  V30 12261 H 1120.64 -3.46914 -1.74658 0
M  V30 12262 H 1122.37 -3.69624 -1.64804 0
M  V30 12263 H 1119.12 -4.73527 0.0832885 0
M  V30 12264 H 1119.55 -6.44608 2.06903 0
M  V30 12265 H 1124.19 -4.22321 0.201123 0
M  V30 12266 H 1121.91 -7.34 3.38039 0
M  V30 12267 H 1125.49 -5.51234 1.86098 0
M  V30 12268 H 1124.37 -7.05246 3.42926 0
M  V30 12269 N 1121.88 0.120221 -1.57141 0
M  V30 12270 C 1123.11 0.842441 -1.88972 0
M  V30 12271 C 1123.52 1.73494 -0.744671 0
M  V30 12272 O 1122.88 1.80268 0.284557 0
M  V30 12273 C 1122.93 1.67688 -3.20254 0
M  V30 12274 O 1122.65 0.820319 -4.30351 0
M  V30 12275 C 1124.15 2.50436 -3.65782 0
M  V30 12276 H 1121.37 0.242241 -0.625748 0
M  V30 12277 H 1123.91 0.104978 -2.0423 0
M  V30 12278 H 1122.07 2.36712 -3.0667 0
M  V30 12279 H 1122.48 1.39575 -5.05588 0
M  V30 12280 H 1123.96 3.04518 -4.60405 0
M  V30 12281 H 1124.43 3.27737 -2.92378 0
M  V30 12282 H 1125.04 1.86657 -3.82151 0
M  V30 12283 N 1123.36 1.52689 0.390367 0
M  V30 12284 C 1124.29 1.72118 1.49836 0
M  V30 12285 C 1125.27 0.568986 1.5232 0
M  V30 12286 O 1126.45 0.798623 1.70746 0
M  V30 12287 C 1123.58 1.77754 2.88307 0
M  V30 12288 C 1122.62 2.99492 3.03655 0
M  V30 12289 S 1123.46 4.59496 2.74998 0
M  V30 12290 C 1124.61 4.67946 4.15665 0
M  V30 12291 H 1124.85 2.65826 1.3313 0
M  V30 12292 H 1122.38 1.42964 0.583153 0
M  V30 12293 H 1124.34 1.81687 3.68103 0
M  V30 12294 H 1123 0.851406 3.02341 0
M  V30 12295 H 1122.19 2.99973 4.05009 0
M  V30 12296 H 1121.79 2.93544 2.3175 0
M  V30 12297 H 1124.09 4.46476 5.09573 0
M  V30 12298 H 1125.03 5.69945 4.202 0
M  V30 12299 H 1125.44 3.96799 4.01511 0
M  V30 12300 N 1124.83 -0.648732 1.43629 0
M  V30 12301 C 1126.08 -1.41066 1.45699 0
M  V30 12302 C 1126.41 -1.94024 0.082612 0
M  V30 12303 O 1125.69 -1.7257 -0.897207 0
M  V30 12304 C 1125.97 -2.58882 2.50304 0
M  V30 12305 C 1125.82 -2.11387 3.97033 0
M  V30 12306 C 1127.14 -3.61092 2.51597 0
M  V30 12307 H 1124.26 -0.511591 0.530512 0
M  V30 12308 H 1126.9 -0.735069 1.75205 0
M  V30 12309 H 1125.05 -3.16518 2.25274 0
M  V30 12310 H 1126.73 -1.58718 4.33136 0
M  V30 12311 H 1124.97 -1.4272 4.0965 0
M  V30 12312 H 1125.64 -2.96129 4.65845 0
M  V30 12313 H 1128.12 -3.13223 2.73917 0
M  V30 12314 H 1126.99 -4.41071 3.26722 0
M  V30 12315 H 1127.25 -4.13985 1.55141 0
M  V30 12316 N 1126.31 -1.30234 -0.887518 0
M  V30 12317 C 1127.25 -1.10726 -1.99537 0
M  V30 12318 C 1128.22 -0.0156237 -1.62592 0
M  V30 12319 O 1129.41 -0.168687 -1.87744 0
M  V30 12320 C 1126.53 -0.688185 -3.31635 0
M  V30 12321 C 1125.58 -1.78031 -3.87566 0
M  V30 12322 S 1126.41 -3.38219 -4.15172 0
M  V30 12323 C 1127.57 -2.98208 -5.50293 0
M  V30 12324 H 1127.8 -2.04516 -2.15778 0
M  V30 12325 H 1125.34 -1.14519 -1.0356 0
M  V30 12326 H 1127.29 -0.453124 -4.07991 0
M  V30 12327 H 1125.95 0.230315 -3.13254 0
M  V30 12328 H 1125.15 -1.43931 -4.83011 0
M  V30 12329 H 1124.75 -1.96952 -3.1794 0
M  V30 12330 H 1127.04 -2.4601 -6.31257 0
M  V30 12331 H 1127.98 -3.92551 -5.89329 0
M  V30 12332 H 1128.39 -2.36149 -5.12732 0
M  V30 12333 N 1127.79 1.09952 -1.12909 0
M  V30 12334 C 1128.74 2.18525 -0.796849 0
M  V30 12335 C 1129.73 1.67985 0.218483 0
M  V30 12336 O 1130.94 1.79839 0.07618 0
M  V30 12337 H 1127.31 0.712714 -0.239882 0
M  V30 12338 H 1129.28 2.43783 -1.72083 0
M  V30 12339 C 1128.03 3.46625 -0.273237 0
M  V30 12340 H 1127.36 3.85879 -1.04582 0
M  V30 12341 H 1128.8 4.23926 -0.0791355 0
M  V30 12342 C 1127.26 3.2172 0.999903 0
M  V30 12343 O 1127.79 3.43851 2.07676 0
M  V30 12344 N 1125.99 2.75356 0.928833 0
M  V30 12345 H 1125.54 2.57547 0.052379 0
M  V30 12346 H 1125.5 2.5907 1.78129 0
M  V30 12347 N 1129.27 0.921757 1.27833 0
M  V30 12348 C 1130.49 0.574599 1.99281 0
M  V30 12349 C 1130.92 -0.838905 1.68357 0
M  V30 12350 O 1130.28 -1.56196 0.920468 0
M  V30 12351 C 1130.32 0.800027 3.51613 0
M  V30 12352 O 1129.43 -0.137215 4.12172 0
M  V30 12353 H 1128.77 0.221887 0.625829 0
M  V30 12354 H 1131.3 1.23939 1.62789 0
M  V30 12355 H 1131.31 0.71326 4.01717 0
M  V30 12356 H 1129.98 1.83042 3.73455 0
M  V30 12357 H 1128.56 -0.00103872 3.729 0
M  V30 12358 N 1130.75 -1.41857 0.686609 0
M  V30 12359 C 1131.99 -2.0097 0.213378 0
M  V30 12360 C 1132.32 -1.54618 -1.1882 0
M  V30 12361 O 1131.59 -0.772916 -1.80008 0
M  V30 12362 H 1130.17 -0.743134 0.0758968 0
M  V30 12363 H 1132.83 -1.73609 0.885763 0
M  V30 12364 H 1131.92 -3.11296 0.223826 0
M  V30 12365 N 1132.22 -0.430739 -1.51599 0
M  V30 12366 C 1133.15 0.374695 -2.30474 0
M  V30 12367 C 1134.14 1.02694 -1.35602 0
M  V30 12368 O 1135.32 1.03184 -1.6452 0
M  V30 12369 C 1132.45 1.47981 -3.14196 0
M  V30 12370 C 1131.4 0.951415 -4.17291 0
M  V30 12371 C 1130.73 2.15177 -4.89492 0
M  V30 12372 C 1132.03 -0.00957951 -5.22299 0
M  V30 12373 H 1133.72 -0.283508 -2.98055 0
M  V30 12374 H 1131.27 -0.13779 -1.43339 0
M  V30 12375 H 1133.22 2.05043 -3.68151 0
M  V30 12376 H 1131.95 2.16621 -2.44424 0
M  V30 12377 H 1130.61 0.403052 -3.64378 0
M  V30 12378 H 1130.25 2.82421 -4.1623 0
M  V30 12379 H 1129.95 1.80464 -5.59202 0
M  V30 12380 H 1131.48 2.72806 -5.46269 0
M  V30 12381 H 1132.89 0.470527 -5.71366 0
M  V30 12382 H 1131.29 -0.268959 -5.99497 0
M  V30 12383 H 1132.36 -0.948297 -4.75537 0
M  V30 12384 N 1133.7 1.56767 -0.161869 0
M  V30 12385 C 1134.63 2.1466 0.803356 0
M  V30 12386 C 1135.65 1.09977 1.20037 0
M  V30 12387 O 1136.84 1.37199 1.14187 0
M  V30 12388 C 1133.94 2.66663 2.09151 0
M  V30 12389 C 1133.11 3.95904 1.85953 0
M  V30 12390 C 1132.17 4.33067 2.98897 0
M  V30 12391 O 1131.19 5.01119 2.69942 0
M  V30 12392 N 1132.4 3.93856 4.26448 0
M  V30 12393 H 1135.16 2.98108 0.308472 0
M  V30 12394 H 1132.72 1.61886 0.0212238 0
M  V30 12395 H 1134.71 2.88528 2.83784 0
M  V30 12396 H 1133.28 1.87856 2.49857 0
M  V30 12397 H 1132.5 3.82513 0.952751 0
M  V30 12398 H 1133.79 4.8033 1.67811 0
M  V30 12399 H 1133.19 3.39051 4.52836 0
M  V30 12400 H 1131.75 4.20741 4.97815 0
M  V30 12401 N 1135.18 -0.111886 1.57202 0
M  V30 12402 C 1136.41 -0.832407 1.89416 0
M  V30 12403 C 1136.82 -1.73096 0.753861 0
M  V30 12404 O 1136.18 -1.80416 -0.274992 0
M  V30 12405 C 1136.23 -1.65988 3.21139 0
M  V30 12406 O 1135.95 -0.797485 4.3078 0
M  V30 12407 C 1137.45 -2.48493 3.67105 0
M  V30 12408 H 1134.67 -0.238919 0.627024 0
M  V30 12409 H 1137.22 -0.0941456 2.04283 0
M  V30 12410 H 1135.37 -2.35082 3.07921 0
M  V30 12411 H 1135.79 -1.36892 5.06321 0
M  V30 12412 H 1137.26 -3.02072 4.62014 0
M  V30 12413 H 1137.74 -3.26182 2.94112 0
M  V30 12414 H 1138.34 -1.84628 3.83135 0
M  V30 12415 N 1136.66 -1.52894 -0.382264 0
M  V30 12416 C 1138.07 -1.42295 -0.722802 0
M  V30 12417 C 1138.27 -0.548717 -1.93885 0
M  V30 12418 O 1137.33 -0.0247431 -2.52488 0
M  V30 12419 C 1138.64 -2.85246 -0.9516 0
M  V30 12420 C 1140.19 -2.94768 -1.05265 0
M  V30 12421 C 1140.67 -4.38745 -1.31404 0
M  V30 12422 N 1142.16 -4.421 -1.38211 0
M  V30 12423 C 1142.89 -5.50592 -1.60113 0
M  V30 12424 N 1142.39 -6.69158 -1.79442 0
M  V30 12425 N 1144.18 -5.38145 -1.62347 0
M  V30 12426 H 1136.33 -2.0825 0.417816 0
M  V30 12427 H 1138.6 -0.939753 0.124776 0
M  V30 12428 H 1138.3 -3.51459 -0.130088 0
M  V30 12429 H 1138.18 -3.27903 -1.86439 0
M  V30 12430 H 1140.56 -2.28718 -1.86472 0
M  V30 12431 H 1140.64 -2.55529 -0.117619 0
M  V30 12432 H 1140.29 -5.05363 -0.507038 0
M  V30 12433 H 1140.22 -4.75542 -2.26202 0
M  V30 12434 H 1142.71 -3.56644 -1.24954 0
M  V30 12435 H 1143.02 -7.47615 -1.95681 0
M  V30 12436 H 1141.37 -6.72175 -1.76653 0
M  V30 12437 H 1144.56 -4.44485 -1.46803 0
M  V30 12438 H 1144.73 -6.22764 -1.79077 0
M  V30 12439 N 1138.14 0.641106 -1.43971 0
M  V30 12440 C 1139.39 1.39807 -1.4594 0
M  V30 12441 C 1139.71 1.94795 -0.0893874 0
M  V30 12442 O 1138.98 1.75175 0.876962 0
M  V30 12443 H 1137.56 0.518908 -0.537349 0
M  V30 12444 H 1140.22 0.755278 -1.79671 0
M  V30 12445 H 1139.31 2.23439 -2.17903 0
M  V30 12446 N 1139.62 1.30703 0.880598 0
M  V30 12447 C 1140.86 1.20965 1.63521 0
M  V30 12448 C 1141.22 -0.232404 1.90991 0
M  V30 12449 O 1140.51 -1.16272 1.52287 0
M  V30 12450 C 1140.7 1.97628 2.97789 0
M  V30 12451 C 1140.53 3.49141 2.83427 0
M  V30 12452 C 1139.3 4.18496 2.83177 0
M  V30 12453 C 1141.5 4.44291 2.59056 0
M  V30 12454 N 1139.48 5.56239 2.59752 0
M  V30 12455 C 1140.85 5.69627 2.44795 0
M  V30 12456 C 1142.91 4.33837 2.44316 0
M  V30 12457 C 1141.61 6.85694 2.17293 0
M  V30 12458 C 1143.64 5.49675 2.182 0
M  V30 12459 C 1143 6.73995 2.04719 0
M  V30 12460 H 1139.1 0.497719 0.603158 0
M  V30 12461 H 1141.68 1.64765 1.03733 0
M  V30 12462 H 1139.85 1.56212 3.55601 0
M  V30 12463 H 1141.59 1.79996 3.62468 0
M  V30 12464 H 1138.34 3.70368 2.95168 0
M  V30 12465 H 1138.76 6.28735 2.5104 0
M  V30 12466 H 1143.41 3.38396 2.53471 0
M  V30 12467 H 1141.12 7.81171 2.06875 0
M  V30 12468 H 1144.71 5.43497 2.0761 0
M  V30 12469 H 1143.59 7.62116 1.84794 0
M  V30 12470 N 1141.09 -1.09351 1.1349 0
M  V30 12471 C 1142.34 -1.81185 0.89535 0
M  V30 12472 C 1142.66 -1.86173 -0.580048 0
M  V30 12473 O 1141.93 -1.34784 -1.42162 0
M  V30 12474 H 1140.51 -0.671011 0.328257 0
M  V30 12475 H 1143.17 -1.32255 1.43159 0
M  V30 12476 H 1142.27 -2.84339 1.28676 0
M  V30 12477 N 1142.57 -0.928524 -1.27343 0
M  V30 12478 C 1143.82 -0.568267 -1.93946 0
M  V30 12479 C 1144.14 0.893501 -1.73325 0
M  V30 12480 O 1143.41 1.63344 -1.08147 0
M  V30 12481 H 1141.99 -0.207173 -0.717696 0
M  V30 12482 H 1144.65 -1.1811 -1.55036 0
M  V30 12483 H 1143.75 -0.775246 -3.02318 0
M  V30 12484 N 1144.05 1.41491 -0.694123 0
M  V30 12485 C 1145.3 2.00479 -0.221585 0
M  V30 12486 C 1145.61 1.55605 1.18518 0
M  V30 12487 O 1146.82 2.07143 1.7551 0
M  V30 12488 C 1145.27 3.5824 -0.345264 0
M  V30 12489 C 1144.88 4.12096 -1.7573 0
M  V30 12490 C 1146.63 4.24446 0.0675731 0
M  V30 12491 C 1144.53 5.62286 -1.83271 0
M  V30 12492 H 1143.46 0.749841 -0.0790854 0
M  V30 12493 H 1146.11 1.61987 -0.86211 0
M  V30 12494 H 1144.5 3.94328 0.363487 0
M  V30 12495 H 1145.67 3.8743 -2.49469 0
M  V30 12496 H 1143.98 3.58411 -2.11969 0
M  V30 12497 H 1146.58 5.34691 0.0316485 0
M  V30 12498 H 1146.92 4.01338 1.10606 0
M  V30 12499 H 1147.46 3.93388 -0.59085 0
M  V30 12500 H 1144.2 5.9022 -2.85168 0
M  V30 12501 H 1143.72 5.88883 -1.13914 0
M  V30 12502 H 1145.4 6.27033 -1.59494 0
M  V30 12503 N 1145.53 0.438773 1.51369 0
M  V30 12504 C 1146.77 -0.127401 2.02399 0
M  V30 12505 C 1147.11 -1.42235 1.32223 0
M  V30 12506 O 1146.38 -1.89513 0.437607 0
M  V30 12507 C 1146.66 -0.344673 3.58447 0
M  V30 12508 C 1146.52 0.969027 4.39238 0
M  V30 12509 C 1147.84 -1.11381 4.25773 0
M  V30 12510 H 1144.96 -0.0448281 0.735635 0
M  V30 12511 H 1147.6 0.57805 1.80993 0
M  V30 12512 H 1145.75 -0.945582 3.76817 0
M  V30 12513 H 1147.42 1.60403 4.32514 0
M  V30 12514 H 1145.66 1.57329 4.04265 0
M  V30 12515 H 1146.33 0.771029 5.46589 0
M  V30 12516 H 1148.81 -0.604785 4.11681 0
M  V30 12517 H 1147.69 -1.23459 5.34835 0
M  V30 12518 H 1147.95 -2.14225 3.8673 0
M  V30 12519 N 1147.01 -1.56678 0.170181 0
M  V30 12520 C 1148.25 -1.9646 -0.474125 0
M  V30 12521 C 1148.57 -1.05719 -1.63855 0
M  V30 12522 O 1147.84 -0.123316 -1.95511 0
M  V30 12523 H 1146.42 -0.725446 -0.178149 0
M  V30 12524 H 1149.09 -1.93276 0.251099 0
M  V30 12525 H 1148.18 -3.00726 -0.834894 0
M  V30 12526 N 1148.48 0.103547 -1.57259 0
M  V30 12527 C 1149.73 0.809774 -1.85931 0
M  V30 12528 C 1150.06 1.78791 -0.758122 0
M  V30 12529 O 1149.34 1.93079 0.234682 0
M  V30 12530 C 1149.62 1.54601 -3.25224 0
M  V30 12531 C 1149.47 0.586439 -4.45961 0
M  V30 12532 C 1150.79 2.4986 -3.62296 0
M  V30 12533 H 1147.91 0.29293 -0.676285 0
M  V30 12534 H 1150.55 0.0736065 -1.89857 0
M  V30 12535 H 1148.7 2.17355 -3.22008 0
M  V30 12536 H 1150.38 -0.0334441 -4.61288 0
M  V30 12537 H 1148.62 -0.10085 -4.33683 0
M  V30 12538 H 1149.29 1.13855 -5.40131 0
M  V30 12539 H 1151.77 1.97203 -3.66402 0
M  V30 12540 H 1150.64 2.98396 -4.60707 0
M  V30 12541 H 1150.9 3.33233 -2.90531 0
M  V30 12542 N 1149.96 1.53094 0.37415 0
M  V30 12543 C 1151.21 1.68861 1.11769 0
M  V30 12544 C 1151.54 0.436032 1.89549 0
M  V30 12545 O 1150.79 -0.581879 1.86849 0
M  V30 12546 C 1151.09 2.88432 2.11049 0
M  V30 12547 C 1150.76 4.25284 1.49814 0
M  V30 12548 C 1149.42 4.62501 1.32841 0
M  V30 12549 C 1151.77 5.10425 1.05433 0
M  V30 12550 C 1149.1 5.82502 0.700567 0
M  V30 12551 C 1151.45 6.31064 0.440525 0
M  V30 12552 C 1150.11 6.67 0.258216 0
M  V30 12553 H 1149.38 0.617906 0.40899 0
M  V30 12554 H 1152.03 1.87265 0.4005 0
M  V30 12555 H 1150.34 2.64505 2.8904 0
M  V30 12556 H 1152.03 2.97825 2.68517 0
M  V30 12557 H 1148.62 3.95976 1.64016 0
M  V30 12558 H 1152.81 4.82229 1.17342 0
M  V30 12559 H 1148.06 6.08942 0.547652 0
M  V30 12560 H 1152.24 6.96344 0.0883962 0
M  V30 12561 H 1149.86 7.59851 -0.230354 0
M  V30 12562 N 1151.44 -0.633461 1.44309 0
M  V30 12563 C 1152.69 -1.38902 1.4625 0
M  V30 12564 C 1153 -1.95354 0.0980699 0
M  V30 12565 O 1154.21 -2.715 -0.0049983 0
M  V30 12566 C 1152.66 -2.51477 2.57463 0
M  V30 12567 C 1152.27 -2.01549 4.00103 0
M  V30 12568 C 1154.02 -3.28698 2.68622 0
M  V30 12569 C 1151.92 -3.11452 5.02744 0
M  V30 12570 H 1150.85 -0.521976 0.544112 0
M  V30 12571 H 1153.5 -0.681725 1.70367 0
M  V30 12572 H 1151.89 -3.24771 2.26582 0
M  V30 12573 H 1153.06 -1.35135 4.4054 0
M  V30 12574 H 1151.37 -1.3715 3.93165 0
M  V30 12575 H 1153.97 -4.10624 3.42479 0
M  V30 12576 H 1154.31 -3.78027 1.7436 0
M  V30 12577 H 1154.85 -2.62494 2.98901 0
M  V30 12578 H 1151.59 -2.6707 5.98627 0
M  V30 12579 H 1151.11 -3.76514 4.66902 0
M  V30 12580 H 1152.79 -3.76265 5.2634 0
M  V30 12581 N 1152.92 -1.31168 -0.873655 0
M  V30 12582 C 1154.17 -1.20003 -1.62118 0
M  V30 12583 C 1154.48 0.241505 -1.94103 0
M  V30 12584 O 1155.69 0.474801 -2.67316 0
M  V30 12585 C 1154.14 -2.10055 -2.92241 0
M  V30 12586 C 1153.75 -3.59183 -2.67752 0
M  V30 12587 C 1155.49 -2.07681 -3.70228 0
M  V30 12588 C 1153.4 -4.41255 -3.93761 0
M  V30 12589 H 1152.33 -0.445564 -0.608267 0
M  V30 12590 H 1154.98 -1.55997 -0.966287 0
M  V30 12591 H 1153.36 -1.66956 -3.59085 0
M  V30 12592 H 1154.54 -4.10504 -2.09339 0
M  V30 12593 H 1152.85 -3.63496 -2.03125 0
M  V30 12594 H 1155.45 -2.66246 -4.637 0
M  V30 12595 H 1155.79 -1.06304 -4.02499 0
M  V30 12596 H 1156.33 -2.48961 -3.10263 0
M  V30 12597 H 1153.07 -5.43372 -3.66643 0
M  V30 12598 H 1152.59 -3.94694 -4.51638 0
M  V30 12599 H 1154.26 -4.53278 -4.6168 0
M  V30 12600 N 1154.4 1.08748 -1.14068 0
M  V30 12601 C 1155.64 1.81065 -0.906738 0
M  V30 12602 C 1155.97 1.86057 0.566844 0
M  V30 12603 O 1155.23 1.32976 1.43582 0
M  V30 12604 C 1155.53 3.26734 -1.44843 0
M  V30 12605 C 1155.19 3.41866 -2.94005 0
M  V30 12606 C 1153.85 3.45703 -3.34729 0
M  V30 12607 C 1156.21 3.45831 -3.89937 0
M  V30 12608 C 1153.53 3.51092 -4.70055 0
M  V30 12609 C 1155.89 3.52755 -5.25116 0
M  V30 12610 C 1154.55 3.54863 -5.65357 0
M  V30 12611 H 1153.82 0.662564 -0.331799 0
M  V30 12612 H 1156.47 1.28065 -1.42378 0
M  V30 12613 H 1154.77 3.82419 -0.852239 0
M  V30 12614 H 1156.47 3.81236 -1.2434 0
M  V30 12615 H 1153.06 3.39568 -2.61518 0
M  V30 12616 H 1157.24 3.421 -3.59557 0
M  V30 12617 H 1152.5 3.51015 -5.00598 0
M  V30 12618 H 1156.67 3.54768 -5.9926 0
M  V30 12619 H 1154.3 3.58792 -6.70203 0
M  V30 12620 N 1155.87 0.935264 1.26849 0
M  V30 12621 C 1156.84 0.44485 2.24842 0
M  V30 12622 C 1157.84 -0.440781 1.54641 0
M  V30 12623 O 1159.03 -0.240793 1.72528 0
M  V30 12624 C 1156.16 -0.359566 3.38998 0
M  V30 12625 H 1157.35 1.31074 2.6974 0
M  V30 12626 H 1154.91 0.716665 1.38901 0
M  V30 12627 H 1155.64 -1.24396 2.99493 0
M  V30 12628 H 1155.43 0.275529 3.91131 0
M  V30 12629 H 1156.92 -0.692804 4.11813 0
M  V30 12630 N 1157.35 -1.41121 0.701616 0
M  V30 12631 C 1158.6 -2.01428 0.235495 0
M  V30 12632 C 1158.93 -1.55463 -1.16382 0
M  V30 12633 O 1158.21 -0.768477 -1.78675 0
M  V30 12634 C 1158.49 -3.58849 0.299919 0
M  V30 12635 C 1158.34 -4.14924 1.73661 0
M  V30 12636 C 1159.66 -4.38809 -0.336856 0
M  V30 12637 H 1156.78 -0.731842 0.0870456 0
M  V30 12638 H 1159.42 -1.67787 0.891479 0
M  V30 12639 H 1157.57 -3.87638 -0.258611 0
M  V30 12640 H 1159.24 -3.96987 2.34945 0
M  V30 12641 H 1157.49 -3.69738 2.26884 0
M  V30 12642 H 1158.16 -5.24085 1.73318 0
M  V30 12643 H 1160.63 -4.15868 0.138886 0
M  V30 12644 H 1159.51 -5.48278 -0.261264 0
M  V30 12645 H 1159.77 -4.18728 -1.41843 0
M  V30 12646 N 1158.83 -0.446794 -1.51134 0
M  V30 12647 C 1160.08 0.116493 -2.02165 0
M  V30 12648 C 1160.41 1.41884 -1.33039 0
M  V30 12649 O 1159.66 1.90757 -0.437071 0
M  V30 12650 C 1159.96 0.373015 -3.55448 0
M  V30 12651 C 1159.63 -0.844659 -4.42918 0
M  V30 12652 C 1158.29 -1.17857 -4.66544 0
M  V30 12653 C 1160.64 -1.65653 -4.94174 0
M  V30 12654 C 1157.97 -2.32486 -5.38672 0
M  V30 12655 C 1160.32 -2.7939 -5.6756 0
M  V30 12656 C 1158.98 -3.13224 -5.89446 0
M  V30 12657 H 1158.25 0.0426279 -0.739773 0
M  V30 12658 H 1160.9 -0.595921 -1.81992 0
M  V30 12659 H 1159.21 1.16742 -3.74003 0
M  V30 12660 H 1160.9 0.822425 -3.92476 0
M  V30 12661 H 1157.49 -0.574478 -4.24733 0
M  V30 12662 H 1161.68 -1.41176 -4.75797 0
M  V30 12663 H 1156.93 -2.59003 -5.5383 0
M  V30 12664 H 1161.11 -3.42662 -6.06264 0
M  V30 12665 H 1158.73 -4.02158 -6.45115 0
M  V30 12666 N 1160.31 1.56586 -0.178487 0
M  V30 12667 C 1161.27 2.17091 0.73512 0
M  V30 12668 C 1162.27 1.12088 1.15295 0
M  V30 12669 O 1163.46 1.37563 1.06874 0
M  V30 12670 C 1160.59 2.75957 2.00151 0
M  V30 12671 H 1161.79 2.99176 0.208272 0
M  V30 12672 H 1159.34 1.56138 0.0710967 0
M  V30 12673 H 1160.07 1.97626 2.57127 0
M  V30 12674 H 1159.86 3.52809 1.7108 0
M  V30 12675 H 1161.35 3.2247 2.65335 0
M  V30 12676 N 1161.79 -0.095206 1.57312 0
M  V30 12677 C 1163.03 -0.799903 1.86358 0
M  V30 12678 C 1163.37 -1.78386 0.767593 0
M  V30 12679 O 1162.64 -1.93201 -0.224439 0
M  V30 12680 C 1162.92 -1.52875 3.26039 0
M  V30 12681 C 1162.78 -0.562781 4.46265 0
M  V30 12682 C 1164.1 -2.47935 3.63616 0
M  V30 12683 H 1161.21 -0.289339 0.677829 0
M  V30 12684 H 1163.86 -0.0635369 1.89894 0
M  V30 12685 H 1162.01 -2.15645 3.23156 0
M  V30 12686 H 1163.68 0.0579068 4.61264 0
M  V30 12687 H 1161.92 0.123847 4.33623 0
M  V30 12688 H 1162.59 -1.10989 5.40727 0
M  V30 12689 H 1165.07 -1.95257 3.67442 0
M  V30 12690 H 1163.94 -2.95948 4.62283 0
M  V30 12691 H 1164.21 -3.31687 2.92294 0
M  V30 12692 N 1163.26 -1.53291 -0.366026 0
M  V30 12693 C 1164.19 -1.82675 -1.45437 0
M  V30 12694 C 1165.18 -0.680227 -1.55907 0
M  V30 12695 O 1166.36 -0.930032 -1.70482 0
M  V30 12696 C 1163.49 -2.01626 -2.8278 0
M  V30 12697 C 1162.44 -3.17391 -2.87135 0
M  V30 12698 C 1161.77 -3.21634 -4.27148 0
M  V30 12699 C 1163.07 -4.5599 -2.54697 0
M  V30 12700 H 1164.76 -2.73818 -1.21096 0
M  V30 12701 H 1162.31 -1.31754 -0.581108 0
M  V30 12702 H 1164.26 -2.20765 -3.58944 0
M  V30 12703 H 1162.99 -1.07193 -3.08508 0
M  V30 12704 H 1161.65 -2.98071 -2.13422 0
M  V30 12705 H 1161.29 -2.2484 -4.49951 0
M  V30 12706 H 1160.99 -3.99414 -4.30978 0
M  V30 12707 H 1162.52 -3.42957 -5.05186 0
M  V30 12708 H 1163.93 -4.75294 -3.20575 0
M  V30 12709 H 1162.33 -5.36008 -2.69844 0
M  V30 12710 H 1163.4 -4.61133 -1.49949 0
M  V30 12711 N 1164.74 0.6258 -1.44643 0
M  V30 12712 C 1165.97 1.41233 -1.51198 0
M  V30 12713 C 1166.39 1.88291 -0.138572 0
M  V30 12714 O 1165.74 1.61151 0.856537 0
M  V30 12715 C 1165.79 2.62908 -2.48117 0
M  V30 12716 O 1165.51 2.1781 -3.80119 0
M  V30 12717 C 1167.02 3.55976 -2.6419 0
M  V30 12718 H 1164.24 0.432954 -0.512632 0
M  V30 12719 H 1166.78 0.76486 -1.89658 0
M  V30 12720 H 1164.93 3.23735 -2.12778 0
M  V30 12721 H 1165.35 2.96732 -4.32493 0
M  V30 12722 H 1166.82 4.37943 -3.3602 0
M  V30 12723 H 1167.3 4.05133 -1.696 0
M  V30 12724 H 1167.91 3.01014 -3.00451 0
M  V30 12725 N 1166.22 1.31629 0.866686 0
M  V30 12726 C 1167.47 1.21683 1.62238 0
M  V30 12727 C 1167.8 -0.223767 1.92907 0
M  V30 12728 O 1167.07 -1.15761 1.563 0
M  V30 12729 C 1167.36 2.06443 2.95048 0
M  V30 12730 C 1167.21 3.58818 2.71237 0
M  V30 12731 C 1168.53 1.91634 3.96187 0
M  V30 12732 H 1165.65 0.443389 0.588707 0
M  V30 12733 H 1168.29 1.61453 1.00164 0
M  V30 12734 H 1166.44 1.72654 3.48027 0
M  V30 12735 H 1168.11 4.0276 2.24905 0
M  V30 12736 H 1166.36 3.82085 2.05411 0
M  V30 12737 H 1167.03 4.13436 3.65752 0
M  V30 12738 H 1169.5 2.21209 3.52428 0
M  V30 12739 H 1168.38 2.53236 4.86993 0
M  V30 12740 H 1168.64 0.880564 4.33242 0
M  V30 12741 N 1167.7 -1.08142 1.14644 0
M  V30 12742 C 1168.66 -2.13308 0.83859 0
M  V30 12743 C 1169.66 -1.60022 -0.158012 0
M  V30 12744 O 1170.85 -1.74057 0.0706621 0
M  V30 12745 C 1167.98 -3.39978 0.250591 0
M  V30 12746 H 1169.18 -2.42049 1.77066 0
M  V30 12747 H 1166.73 -1.23899 0.952828 0
M  V30 12748 H 1167.47 -3.16873 -0.690064 0
M  V30 12749 H 1167.25 -3.79952 0.968456 0
M  V30 12750 H 1168.74 -4.17567 0.0525115 0
M  V30 12751 N 1169.18 -0.941978 -1.26351 0
M  V30 12752 C 1170.43 -0.585711 -1.93009 0
M  V30 12753 C 1170.74 0.879507 -1.74711 0
M  V30 12754 O 1171.95 1.34518 -2.35833 0
M  V30 12755 C 1170.4 -0.996787 -3.45821 0
M  V30 12756 C 1170.01 -2.48367 -3.72851 0
M  V30 12757 C 1171.75 -0.712452 -4.18479 0
M  V30 12758 C 1169.66 -2.83341 -5.19107 0
M  V30 12759 H 1168.59 -0.215342 -0.722595 0
M  V30 12760 H 1171.24 -1.14472 -1.43417 0
M  V30 12761 H 1169.62 -0.366295 -3.94302 0
M  V30 12762 H 1170.8 -3.16328 -3.35072 0
M  V30 12763 H 1169.11 -2.74139 -3.13427 0
M  V30 12764 H 1171.71 -0.95007 -5.26192 0
M  V30 12765 H 1172.05 0.350811 -4.14819 0
M  V30 12766 H 1172.59 -1.3027 -3.75865 0
M  V30 12767 H 1169.32 -3.88633 -5.27868 0
M  V30 12768 H 1168.84 -2.20043 -5.5798 0
M  V30 12769 H 1170.52 -2.71849 -5.87118 0
M  V30 12770 N 1170.66 1.40747 -0.709091 0
M  V30 12771 C 1171.59 2.33404 -0.0669763 0
M  V30 12772 C 1172.57 1.52546 0.752582 0
M  V30 12773 O 1173.75 1.81036 0.702823 0
M  V30 12774 C 1170.88 3.36476 0.860285 0
M  V30 12775 C 1169.84 4.27748 0.146828 0
M  V30 12776 C 1169.16 5.21304 1.18937 0
M  V30 12777 C 1170.46 5.12734 -0.995064 0
M  V30 12778 H 1172.16 2.87349 -0.840888 0
M  V30 12779 H 1169.7 1.38163 -0.405817 0
M  V30 12780 H 1171.65 4.00231 1.31883 0
M  V30 12781 H 1170.38 2.80912 1.66602 0
M  V30 12782 H 1169.04 3.65437 -0.291826 0
M  V30 12783 H 1168.69 4.62048 1.98798 0
M  V30 12784 H 1168.39 5.8321 0.716917 0
M  V30 12785 H 1169.91 5.87936 1.64815 0
M  V30 12786 H 1171.32 5.69979 -0.61618 0
M  V30 12787 H 1169.72 5.83649 -1.39547 0
M  V30 12788 H 1170.79 4.49097 -1.82867 0
M  V30 12789 N 1172.13 0.454803 1.50895 0
M  V30 12790 C 1173.06 -0.337982 2.31041 0
M  V30 12791 C 1174.04 -1.00523 1.37219 0
M  V30 12792 O 1175.23 -1.00553 1.66141 0
M  V30 12793 C 1172.36 -1.42964 3.1651 0
M  V30 12794 C 1171.31 -0.884907 4.18752 0
M  V30 12795 C 1170.64 -2.07363 4.92854 0
M  V30 12796 C 1171.94 0.0926716 5.22218 0
M  V30 12797 H 1173.63 0.33089 2.97566 0
M  V30 12798 H 1171.18 0.160577 1.43102 0
M  V30 12799 H 1173.13 -1.9916 3.71367 0
M  V30 12800 H 1171.86 -2.12705 2.47839 0
M  V30 12801 H 1170.52 -0.345031 3.64973 0
M  V30 12802 H 1170.16 -2.75764 4.2067 0
M  V30 12803 H 1169.86 -1.71545 5.62002 0
M  V30 12804 H 1171.39 -2.6408 5.5054 0
M  V30 12805 H 1172.8 -0.379568 5.72042 0
M  V30 12806 H 1171.2 0.3643 5.98993 0
M  V30 12807 H 1172.27 1.02383 4.73968 0
M  V30 12808 N 1173.61 -1.56489 0.186789 0
M  V30 12809 C 1174.86 -1.96517 -0.45433 0
M  V30 12810 C 1175.17 -1.07618 -1.63333 0
M  V30 12811 O 1176.38 -1.37392 -2.3417 0
M  V30 12812 C 1174.84 -3.49482 -0.859685 0
M  V30 12813 C 1174.44 -4.47031 0.294572 0
M  V30 12814 C 1176.19 -3.98296 -1.46835 0
M  V30 12815 C 1174.09 -5.91254 -0.131279 0
M  V30 12816 H 1173.02 -0.733765 -0.17351 0
M  V30 12817 H 1175.68 -1.8139 0.277485 0
M  V30 12818 H 1174.06 -3.60082 -1.64793 0
M  V30 12819 H 1175.23 -4.48156 1.07205 0
M  V30 12820 H 1173.55 -4.08362 0.814197 0
M  V30 12821 H 1176.14 -5.03518 -1.79928 0
M  V30 12822 H 1176.49 -3.42123 -2.37186 0
M  V30 12823 H 1177.02 -3.90776 -0.744247 0
M  V30 12824 H 1173.76 -6.51334 0.737839 0
M  V30 12825 H 1173.28 -5.93401 -0.873786 0
M  V30 12826 H 1174.96 -6.44485 -0.569913 0
M  V30 12827 N 1175.09 0.086862 -1.5736 0
M  V30 12828 C 1176.02 1.13614 -1.97907 0
M  V30 12829 C 1177 1.38395 -0.853564 0
M  V30 12830 O 1178.18 1.52018 -1.11457 0
M  V30 12831 C 1175.31 2.48364 -2.30289 0
M  V30 12832 C 1174.36 2.39814 -3.52692 0
M  V30 12833 S 1175.19 1.80673 -5.04101 0
M  V30 12834 C 1176.35 3.17031 -5.39669 0
M  V30 12835 H 1176.58 0.790538 -2.86597 0
M  V30 12836 H 1174.11 0.294847 -1.51559 0
M  V30 12837 H 1176.07 3.25883 -2.49621 0
M  V30 12838 H 1174.73 2.80091 -1.42154 0
M  V30 12839 H 1173.92 3.3915 -3.72818 0
M  V30 12840 H 1173.53 1.70427 -3.32912 0
M  V30 12841 H 1175.82 4.13319 -5.36818 0
M  V30 12842 H 1176.76 3.017 -6.40611 0
M  V30 12843 H 1177.17 3.16942 -4.67128 0
M  V30 12844 N 1176.57 1.53483 0.357892 0
M  V30 12845 C 1177.48 1.83434 1.4625 0
M  V30 12846 C 1178.49 0.723313 1.58254 0
M  V30 12847 O 1179.67 1.01416 1.74002 0
M  V30 12848 C 1176.73 2.0249 2.81423 0
M  V30 12849 C 1175.8 3.26378 2.78883 0
M  V30 12850 C 1175.03 3.44516 4.07608 0
M  V30 12851 O 1175.25 2.66787 5.04163 0
M  V30 12852 O 1174.19 4.37898 4.12952 0
M  V30 12853 H 1178.01 2.77294 1.23861 0
M  V30 12854 H 1175.6 1.38958 0.548722 0
M  V30 12855 H 1177.48 2.16552 3.61501 0
M  V30 12856 H 1176.15 1.11819 3.03773 0
M  V30 12857 H 1175.06 3.17733 1.97475 0
M  V30 12858 H 1176.39 4.16996 2.61486 0
M  V30 12859 N 1178.05 -0.61812 1.44973 0
M  V30 12860 C 1179.29 -1.37468 1.48145 0
M  V30 12861 C 1179.61 -1.94628 0.120366 0
M  V30 12862 O 1178.88 -1.76548 -0.848982 0
M  V30 12863 H 1177.46 -0.510293 0.545536 0
M  V30 12864 H 1180.13 -0.726598 1.8085 0
M  V30 12865 H 1179.22 -2.19944 2.2143 0
M  V30 12866 N 1179.52 -1.32087 -0.859693 0
M  V30 12867 C 1180.45 -1.23204 -1.98351 0
M  V30 12868 C 1181.43 -0.116974 -1.69697 0
M  V30 12869 O 1182.62 -0.303301 -1.91817 0
M  V30 12870 C 1179.75 -0.949171 -3.34078 0
M  V30 12871 C 1178.7 -2.02493 -3.77069 0
M  V30 12872 C 1178.03 -1.59455 -5.1037 0
M  V30 12873 C 1179.33 -3.43934 -3.93074 0
M  V30 12874 H 1181.02 -2.17227 -2.0604 0
M  V30 12875 H 1178.57 -1.04577 -0.989931 0
M  V30 12876 H 1180.52 -0.873594 -4.12245 0
M  V30 12877 H 1179.25 0.0267095 -3.26589 0
M  V30 12878 H 1177.91 -2.09057 -3.01149 0
M  V30 12879 H 1177.55 -0.606256 -4.99333 0
M  V30 12880 H 1177.25 -2.31429 -5.40106 0
M  V30 12881 H 1178.78 -1.53325 -5.91036 0
M  V30 12882 H 1180.19 -3.39986 -4.61608 0
M  V30 12883 H 1178.59 -4.14214 -4.3422 0
M  V30 12884 H 1179.66 -3.83965 -2.9614 0
M  V30 12885 N 1181 1.07532 -1.15215 0
M  V30 12886 C 1182.23 1.84356 -0.950139 0
M  V30 12887 C 1182.65 1.81429 0.496502 0
M  V30 12888 O 1182.01 1.20589 1.35381 0
M  V30 12889 C 1182.06 3.29425 -1.46669 0
M  V30 12890 O 1181.16 4.07008 -0.664674 0
M  V30 12891 H 1180.5 0.570921 -0.339036 0
M  V30 12892 H 1183.03 1.35665 -1.53154 0
M  V30 12893 H 1183.04 3.8026 -1.47873 0
M  V30 12894 H 1181.72 3.3087 -2.51988 0
M  V30 12895 H 1180.29 3.65841 -0.72211 0
M  V30 12896 N 1182.48 0.948665 1.2585 0
M  V30 12897 C 1183.44 0.468673 2.24357 0
M  V30 12898 C 1184.44 -0.424355 1.551 0
M  V30 12899 O 1185.63 -0.222481 1.72773 0
M  V30 12900 C 1182.77 -0.32359 3.39361 0
M  V30 12901 H 1183.96 1.33928 2.68334 0
M  V30 12902 H 1181.51 0.731357 1.38133 0
M  V30 12903 H 1182.25 -1.21212 3.00796 0
M  V30 12904 H 1182.03 0.316998 3.90816 0
M  V30 12905 H 1183.52 -0.649087 4.12525 0
M  V30 12906 N 1183.96 -1.40369 0.716545 0
M  V30 12907 C 1185.21 -2.00869 0.256466 0
M  V30 12908 C 1185.53 -1.56816 -1.15061 0
M  V30 12909 O 1184.79 -0.779696 -1.79497 0
M  V30 12910 C 1185.09 -3.56257 0.285583 0
M  V30 12911 C 1184.75 -4.19897 1.64309 0
M  V30 12912 C 1183.42 -4.36994 2.01469 0
M  V30 12913 C 1185.77 -4.55385 2.53524 0
M  V30 12914 C 1183.1 -4.86862 3.27387 0
M  V30 12915 C 1185.45 -5.06653 3.78795 0
M  V30 12916 C 1184.11 -5.21959 4.16071 0
M  V30 12917 H 1183.38 -0.735033 0.0938475 0
M  V30 12918 H 1186.03 -1.67966 0.919765 0
M  V30 12919 H 1184.33 -3.89075 -0.461287 0
M  V30 12920 H 1186.03 -4.00903 -0.0882496 0
M  V30 12921 H 1182.62 -4.06978 1.34413 0
M  V30 12922 H 1186.8 -4.41811 2.2609 0
M  V30 12923 H 1182.06 -4.96897 3.56235 0
M  V30 12924 H 1186.23 -5.33089 4.48095 0
M  V30 12925 H 1183.86 -5.60362 5.1371 0
M  V30 12926 N 1185.44 -0.462799 -1.50652 0
M  V30 12927 C 1186.37 0.325724 -2.31217 0
M  V30 12928 C 1187.35 0.997942 -1.3775 0
M  V30 12929 O 1188.53 0.996707 -1.66671 0
M  V30 12930 C 1185.66 1.41283 -3.17264 0
M  V30 12931 C 1184.62 0.862687 -4.19216 0
M  V30 12932 C 1183.94 2.04746 -4.93946 0
M  V30 12933 C 1185.24 -0.120365 -5.22161 0
M  V30 12934 H 1186.94 -0.346666 -2.97386 0
M  V30 12935 H 1184.48 -0.168163 -1.43015 0
M  V30 12936 H 1186.44 1.97188 -3.72418 0
M  V30 12937 H 1185.16 2.11387 -2.48964 0
M  V30 12938 H 1183.82 0.325671 -3.65151 0
M  V30 12939 H 1183.47 2.73529 -4.22127 0
M  V30 12940 H 1183.17 1.68562 -5.62904 0
M  V30 12941 H 1184.69 2.61157 -5.51932 0
M  V30 12942 H 1186.1 0.349226 -5.72235 0
M  V30 12943 H 1184.5 -0.396061 -5.98792 0
M  V30 12944 H 1185.57 -1.04895 -4.73418 0
M  V30 12945 N 1186.91 1.56388 -0.195085 0
M  V30 12946 C 1187.86 2.15705 0.738595 0
M  V30 12947 C 1188.85 1.09782 1.1763 0
M  V30 12948 O 1190.04 1.35844 1.1347 0
M  V30 12949 C 1187.17 2.81994 1.95791 0
M  V30 12950 C 1186.26 3.95108 1.54111 0
M  V30 12951 N 1186.65 4.98856 0.835261 0
M  V30 12952 C 1184.94 4.06709 1.8304 0
M  V30 12953 C 1185.65 5.78317 0.626417 0
M  V30 12954 N 1184.62 5.30746 1.17513 0
M  V30 12955 H 1188.42 2.93281 0.190597 0
M  V30 12956 H 1185.94 1.62399 0.00470391 0
M  V30 12957 H 1187.93 3.22883 2.63728 0
M  V30 12958 H 1186.59 2.05906 2.51063 0
M  V30 12959 H 1187.61 5.1557 0.490732 0
M  V30 12960 H 1184.28 3.41749 2.39821 0
M  V30 12961 H 1185.67 6.71867 0.0664935 0
M  V30 12962 N 1188.39 -0.0785156 1.57404 0
M  V30 12963 C 1189.36 -1.07835 2.02248 0
M  V30 12964 C 1190.36 -1.31987 0.918475 0
M  V30 12965 O 1191.55 -1.27821 1.18353 0
M  V30 12966 C 1188.68 -2.42361 2.39737 0
M  V30 12967 H 1189.87 -0.691995 2.91807 0
M  V30 12968 H 1187.42 -0.32405 1.52904 0
M  V30 12969 H 1188.16 -2.85841 1.53183 0
M  V30 12970 H 1187.94 -2.26174 3.20293 0
M  V30 12971 H 1189.43 -3.14241 2.75031 0
M  V30 12972 N 1189.87 -1.5367 -0.349747 0
M  V30 12973 C 1190.8 -1.84208 -1.43492 0
M  V30 12974 C 1191.78 -0.696725 -1.55177 0
M  V30 12975 O 1192.97 -0.948061 -1.69486 0
M  V30 12976 C 1190.1 -2.04613 -2.80625 0
M  V30 12977 C 1189.05 -3.20419 -2.83753 0
M  V30 12978 C 1188.38 -3.26147 -4.23713 0
M  V30 12979 C 1189.68 -4.58666 -2.49846 0
M  V30 12980 H 1191.37 -2.75087 -1.18185 0
M  V30 12981 H 1188.92 -1.32363 -0.567101 0
M  V30 12982 H 1190.87 -2.2456 -3.56582 0
M  V30 12983 H 1189.59 -1.10459 -3.07354 0
M  V30 12984 H 1188.25 -3.00318 -2.10249 0
M  V30 12985 H 1187.9 -2.29599 -4.47541 0
M  V30 12986 H 1187.6 -4.03963 -4.26717 0
M  V30 12987 H 1189.12 -3.48296 -5.0152 0
M  V30 12988 H 1190.54 -4.78668 -3.15516 0
M  V30 12989 H 1188.94 -5.3884 -2.64144 0
M  V30 12990 H 1190.01 -4.62697 -1.4505 0
M  V30 12991 N 1191.35 0.610423 -1.45298 0
M  V30 12992 C 1192.76 0.930872 -1.29642 0
M  V30 12993 C 1192.96 1.99976 -0.247358 0
M  V30 12994 O 1192.02 2.49925 0.359674 0
M  V30 12995 C 1193.33 1.37449 -2.67448 0
M  V30 12996 C 1194.88 1.48885 -2.75322 0
M  V30 12997 C 1195.36 1.96624 -4.13646 0
M  V30 12998 N 1196.85 2.03862 -4.15926 0
M  V30 12999 C 1197.58 2.42015 -5.19823 0
M  V30 13000 N 1197.08 2.79157 -6.34069 0
M  V30 13001 N 1198.87 2.42329 -5.07181 0
M  V30 13002 H 1191.02 -0.0961259 -2.12182 0
M  V30 13003 H 1193.29 0.0196483 -0.947796 0
M  V30 13004 H 1192.99 0.663276 -3.45389 0
M  V30 13005 H 1192.87 2.34155 -2.95721 0
M  V30 13006 H 1195.25 2.19098 -1.97686 0
M  V30 13007 H 1195.33 0.505006 -2.50765 0
M  V30 13008 H 1194.98 1.26998 -4.91766 0
M  V30 13009 H 1194.91 2.95917 -4.35592 0
M  V30 13010 H 1197.4 1.77759 -3.33482 0
M  V30 13011 H 1197.71 3.07143 -7.09142 0
M  V30 13012 H 1196.06 2.7686 -6.37474 0
M  V30 13013 H 1199.25 2.12717 -4.16976 0
M  V30 13014 H 1199.42 2.71738 -5.88271 0
M  V30 13015 N 1192.83 1.32541 0.852676 0
M  V30 13016 C 1193.76 1.24254 1.97694 0
M  V30 13017 C 1194.74 0.125971 1.69633 0
M  V30 13018 O 1195.92 0.31347 1.91653 0
M  V30 13019 C 1193.05 0.966874 3.3357 0
M  V30 13020 C 1192.01 2.0449 3.75989 0
M  V30 13021 C 1191.33 1.6216 5.09518 0
M  V30 13022 C 1192.63 3.46013 3.91244 0
M  V30 13023 H 1194.33 2.18317 2.04886 0
M  V30 13024 H 1191.87 1.05101 0.984371 0
M  V30 13025 H 1193.83 0.895444 4.11776 0
M  V30 13026 H 1192.55 -0.0093893 3.26599 0
M  V30 13027 H 1191.21 2.10651 3.00036 0
M  V30 13028 H 1190.86 0.632729 4.99005 0
M  V30 13029 H 1190.56 2.3429 5.38871 0
M  V30 13030 H 1192.08 1.56457 5.90215 0
M  V30 13031 H 1193.49 3.4243 4.59799 0
M  V30 13032 H 1191.89 4.1651 4.32017 0
M  V30 13033 H 1192.96 3.8553 2.941 0
M  V30 13034 N 1194.3 -1.0692 1.15784 0
M  V30 13035 C 1195.25 -2.12473 0.826994 0
M  V30 13036 C 1196.24 -1.59766 -0.19073 0
M  V30 13037 O 1197.43 -1.76998 0.00917115 0
M  V30 13038 C 1194.56 -3.41779 0.322847 0
M  V30 13039 C 1193.65 -4.01329 1.37098 0
M  V30 13040 N 1194.04 -4.35077 2.57957 0
M  V30 13041 C 1192.33 -4.28854 1.22475 0
M  V30 13042 C 1193.04 -4.82326 3.25171 0
M  V30 13043 N 1192.01 -4.81369 2.52556 0
M  V30 13044 H 1195.81 -2.36404 1.74614 0
M  V30 13045 H 1193.33 -1.244 1.04395 0
M  V30 13046 H 1195.32 -4.16845 0.0674576 0
M  V30 13047 H 1193.98 -3.19289 -0.590311 0
M  V30 13048 H 1195 -4.25626 2.95065 0
M  V30 13049 H 1191.67 -4.15841 0.371839 0
M  V30 13050 H 1193.06 -5.17695 4.28301 0
M  V30 13051 N 1195.78 -0.955326 -1.25345 0
M  V30 13052 C 1197.03 -0.62095 -1.9369 0
M  V30 13053 C 1197.38 0.832995 -1.73433 0
M  V30 13054 O 1196.68 1.58991 -1.06922 0
M  V30 13055 C 1196.87 -0.916173 -3.45458 0
M  V30 13056 C 1196.7 -2.39726 -3.80475 0
M  V30 13057 C 1195.47 -3.05494 -4.02494 0
M  V30 13058 C 1197.67 -3.37664 -3.87927 0
M  V30 13059 N 1195.65 -4.43469 -4.2451 0
M  V30 13060 C 1197.02 -4.60949 -4.1464 0
M  V30 13061 C 1199.08 -3.32493 -3.70611 0
M  V30 13062 C 1197.78 -5.79703 -4.25837 0
M  V30 13063 C 1199.8 -4.50586 -3.83048 0
M  V30 13064 C 1199.17 -5.72657 -4.10174 0
M  V30 13065 H 1195.27 -0.277847 -0.730976 0
M  V30 13066 H 1197.85 -1.22764 -1.51119 0
M  V30 13067 H 1196.02 -0.338402 -3.86923 0
M  V30 13068 H 1197.75 -0.54163 -4.01059 0
M  V30 13069 H 1194.51 -2.56063 -3.98408 0
M  V30 13070 H 1194.93 -5.14927 -4.39522 0
M  V30 13071 H 1199.57 -2.39163 -3.48656 0
M  V30 13072 H 1197.29 -6.73473 -4.46609 0
M  V30 13073 H 1200.88 -4.48133 -3.71036 0
M  V30 13074 H 1199.76 -6.62512 -4.19581 0
M  V30 13075 N 1197.26 1.39987 -0.723979 0
M  V30 13076 C 1198.51 2.01028 -0.267511 0
M  V30 13077 C 1198.84 1.57295 1.13894 0
M  V30 13078 O 1198.12 0.796805 1.7743 0
M  V30 13079 C 1198.4 3.58326 -0.356971 0
M  V30 13080 C 1198.25 4.12109 -1.8024 0
M  V30 13081 C 1199.57 4.39289 0.267003 0
M  V30 13082 H 1196.69 0.730364 -0.0986775 0
M  V30 13083 H 1199.33 1.66348 -0.91806 0
M  V30 13084 H 1197.48 3.88001 0.196908 0
M  V30 13085 H 1199.15 3.93199 -2.41231 0
M  V30 13086 H 1197.4 3.66082 -2.32737 0
M  V30 13087 H 1198.07 5.21261 -1.81634 0
M  V30 13088 H 1200.54 4.15595 -0.20503 0
M  V30 13089 H 1199.42 5.48624 0.174004 0
M  V30 13090 H 1199.68 4.20931 1.35164 0
M  V30 13091 N 1198.74 0.470782 1.50404 0
M  V30 13092 C 1199.65 -0.328877 2.32283 0
M  V30 13093 C 1200.67 -0.99629 1.42654 0
M  V30 13094 O 1201.84 -0.984331 1.75707 0
M  V30 13095 C 1198.91 -1.39675 3.1732 0
M  V30 13096 C 1197.97 -0.745965 4.22769 0
M  V30 13097 C 1197.2 -1.76295 5.03742 0
M  V30 13098 O 1197.42 -2.98943 4.85788 0
M  V30 13099 O 1196.36 -1.33495 5.86909 0
M  V30 13100 H 1200.18 0.340491 3.01785 0
M  V30 13101 H 1197.77 0.232637 1.47578 0
M  V30 13102 H 1199.65 -2.0153 3.70086 0
M  V30 13103 H 1198.33 -2.04959 2.50546 0
M  V30 13104 H 1197.23 -0.0884647 3.73995 0
M  V30 13105 H 1198.57 -0.136074 4.92012 0
M  V30 13106 N 1200.22 -1.56282 0.203376 0
M  V30 13107 C 1201.46 -1.97812 -0.433202 0
M  V30 13108 C 1201.79 -1.09052 -1.61053 0
M  V30 13109 O 1201.05 -0.131417 -1.95258 0
M  V30 13110 C 1201.35 -3.45148 -0.927759 0
M  V30 13111 C 1201.01 -4.50692 0.137083 0
M  V30 13112 C 1199.67 -4.79278 0.429652 0
M  V30 13113 C 1202.03 -5.14086 0.858174 0
M  V30 13114 C 1199.35 -5.68547 1.44815 0
M  V30 13115 C 1201.71 -6.04457 1.86588 0
M  V30 13116 C 1200.37 -6.31395 2.16556 0
M  V30 13117 H 1199.64 -0.723846 -0.15852 0
M  V30 13118 H 1202.29 -1.89102 0.302082 0
M  V30 13119 H 1200.59 -3.5097 -1.74147 0
M  V30 13120 H 1202.29 -3.74642 -1.42984 0
M  V30 13121 H 1198.88 -4.28481 -0.101111 0
M  V30 13122 H 1203.06 -4.92086 0.645376 0
M  V30 13123 H 1198.32 -5.87689 1.68615 0
M  V30 13124 H 1202.49 -6.52636 2.4298 0
M  V30 13125 H 1200.12 -7.00366 2.9562 0
M  V30 13126 N 1201.7 0.070167 -1.57444 0
M  V30 13127 C 1202.63 1.10996 -2.0053 0
M  V30 13128 C 1203.64 1.3489 -0.91151 0
M  V30 13129 O 1204.83 1.33102 -1.18938 0
M  V30 13130 C 1201.93 2.46053 -2.33048 0
M  V30 13131 C 1201.1 2.42092 -3.64294 0
M  V30 13132 C 1200.16 3.5927 -3.84463 0
M  V30 13133 O 1199.19 3.40625 -4.5603 0
M  V30 13134 N 1200.39 4.79677 -3.26941 0
M  V30 13135 H 1203.15 0.743029 -2.90343 0
M  V30 13136 H 1200.72 0.258794 -1.59818 0
M  V30 13137 H 1202.71 3.23089 -2.43712 0
M  V30 13138 H 1201.28 2.74742 -1.49116 0
M  V30 13139 H 1200.5 1.5043 -3.64368 0
M  V30 13140 H 1201.79 2.36548 -4.50469 0
M  V30 13141 H 1201.18 4.97729 -2.68855 0
M  V30 13142 H 1199.74 5.54219 -3.43051 0
M  V30 13143 N 1203.17 1.53854 0.341593 0
M  V30 13144 C 1204.12 1.8268 1.43982 0
M  V30 13145 C 1205.12 0.697415 1.54378 0
M  V30 13146 O 1206.32 0.880785 1.56978 0
M  V30 13147 H 1202.7 0.578788 0.480113 0
M  V30 13148 H 1204.67 2.74556 1.16884 0
M  V30 13149 C 1203.42 2.05496 2.80476 0
M  V30 13150 H 1202.74 2.91852 2.73244 0
M  V30 13151 H 1204.18 2.2963 3.56435 0
M  V30 13152 C 1202.64 0.841061 3.26233 0
M  V30 13153 O 1203.17 0.0414376 4.01679 0
M  V30 13154 N 1201.37 0.657736 2.83059 0
M  V30 13155 H 1200.92 1.30962 2.21826 0
M  V30 13156 H 1200.88 -0.153003 3.14027 0
M  V30 13157 N 1204.65 -0.602709 1.4562 0
M  V30 13158 C 1205.6 -1.71312 1.54664 0
M  V30 13159 C 1206.57 -1.61403 0.392197 0
M  V30 13160 O 1207.75 -1.80911 0.606297 0
M  V30 13161 C 1204.89 -3.09629 1.52393 0
M  V30 13162 C 1204.01 -3.30308 2.78425 0
M  V30 13163 C 1203.14 -4.5876 2.67793 0
M  V30 13164 C 1202.18 -4.72713 3.88855 0
M  V30 13165 N 1201.32 -5.92469 3.76729 0
M  V30 13166 H 1206.16 -1.62918 2.49523 0
M  V30 13167 H 1203.69 -0.794324 1.2381 0
M  V30 13168 H 1205.65 -3.89661 1.49064 0
M  V30 13169 H 1204.28 -3.16968 0.610816 0
M  V30 13170 H 1203.33 -2.44018 2.9182 0
M  V30 13171 H 1204.65 -3.36491 3.68205 0
M  V30 13172 H 1203.8 -5.46993 2.62457 0
M  V30 13173 H 1202.54 -4.54983 1.75619 0
M  V30 13174 H 1201.54 -3.82903 3.94545 0
M  V30 13175 H 1202.77 -4.78284 4.82101 0
M  V30 13176 H 1200.72 -5.89728 2.87328 0
M  V30 13177 H 1200.63 -5.99833 4.60148 0
M  V30 13178 H 1201.9 -6.83187 3.75334 0
M  V30 13179 N 1206.13 -1.32992 -0.845635 0
M  V30 13180 C 1207.38 -1.24065 -1.60044 0
M  V30 13181 C 1207.7 0.195282 -1.93517 0
M  V30 13182 O 1206.96 1.1507 -1.58296 0
M  V30 13183 C 1207.26 -2.05454 -2.92444 0
M  V30 13184 C 1206.92 -3.54718 -2.78362 0
M  V30 13185 C 1205.59 -3.95413 -2.74229 0
M  V30 13186 C 1207.94 -4.49598 -2.63649 0
M  V30 13187 C 1205.27 -5.29216 -2.53274 0
M  V30 13188 C 1207.62 -5.83554 -2.44228 0
M  V30 13189 C 1206.28 -6.2344 -2.38493 0
M  V30 13190 H 1205.55 -0.453985 -0.585644 0
M  V30 13191 H 1208.2 -1.6451 -0.980244 0
M  V30 13192 H 1206.5 -1.57765 -3.58633 0
M  V30 13193 H 1208.2 -1.95909 -3.49887 0
M  V30 13194 H 1204.79 -3.22403 -2.82409 0
M  V30 13195 H 1208.98 -4.19072 -2.65881 0
M  V30 13196 H 1204.23 -5.59164 -2.47275 0
M  V30 13197 H 1208.41 -6.56681 -2.31825 0
M  V30 13198 H 1206.03 -7.27058 -2.22015 0
M  V30 13199 N 1207.61 1.06304 -1.1635 0
M  V30 13200 C 1208.84 1.82534 -0.967725 0
M  V30 13201 C 1209.25 1.82816 0.487338 0
M  V30 13202 O 1208.59 1.24581 1.35001 0
M  V30 13203 C 1208.65 3.30349 -1.4181 0
M  V30 13204 C 1208.31 3.53769 -2.89303 0
M  V30 13205 C 1209.31 3.46826 -3.87308 0
M  V30 13206 C 1207 3.81094 -3.2722 0
M  V30 13207 C 1208.99 3.66874 -5.21232 0
M  V30 13208 C 1206.68 4.00792 -4.61313 0
M  V30 13209 C 1207.68 3.93679 -5.58127 0
M  V30 13210 O 1207.36 4.12839 -6.89796 0
M  V30 13211 H 1207.1 0.582407 -0.343189 0
M  V30 13212 H 1209.65 1.35022 -1.54784 0
M  V30 13213 H 1207.88 3.78722 -0.781456 0
M  V30 13214 H 1209.57 3.88072 -1.18976 0
M  V30 13215 H 1210.33 3.25706 -3.59361 0
M  V30 13216 H 1206.21 3.85739 -2.5244 0
M  V30 13217 H 1209.76 3.61238 -5.96786 0
M  V30 13218 H 1205.65 4.214 -4.8897 0
M  V30 13219 H 1206.42 4.30128 -6.96371 0
M  V30 13220 N 1209.09 0.96196 1.24836 0
M  V30 13221 C 1210.33 0.621634 1.93038 0
M  V30 13222 C 1210.66 -0.840257 1.75081 0
M  V30 13223 O 1209.94 -1.60381 1.10038 0
M  V30 13224 C 1210.22 0.990107 3.46221 0
M  V30 13225 C 1210.08 2.50827 3.73371 0
M  V30 13226 C 1211.39 0.520478 4.37011 0
M  V30 13227 H 1208.51 0.227312 0.701069 0
M  V30 13228 H 1211.16 1.19993 1.47315 0
M  V30 13229 H 1209.31 0.498008 3.85295 0
M  V30 13230 H 1210.98 3.07469 3.4389 0
M  V30 13231 H 1209.22 2.94277 3.18722 0
M  V30 13232 H 1209.89 2.71659 4.80526 0
M  V30 13233 H 1212.37 0.942703 4.05281 0
M  V30 13234 H 1211.24 0.806918 5.42937 0
M  V30 13235 H 1211.5 -0.579507 4.38285 0
M  V30 13236 N 1210.56 -1.39601 0.731392 0
M  V30 13237 C 1211.81 -2.0019 0.277208 0
M  V30 13238 C 1212.13 -1.5832 -1.13841 0
M  V30 13239 O 1211.4 -0.829793 -1.77458 0
M  V30 13240 H 1209.98 -0.740344 0.0995006 0
M  V30 13241 H 1212.64 -1.70704 0.940547 0
M  V30 13242 H 1211.74 -3.10427 0.322749 0
M  V30 13243 N 1212.04 -0.478751 -1.50152 0
M  V30 13244 C 1213.32 0.135533 -1.9513 0
M  V30 13245 C 1213.7 1.56253 -1.41944 0
M  V30 13246 O 1213.05 2.19824 -0.623673 0
M  V30 13247 C 1213.26 0.0710037 -3.48928 0
M  V30 13248 C 1214.61 0.256075 -4.23827 0
M  V30 13249 O 1215.63 0.147234 -3.55896 0
M  V30 13250 O 1214.49 0.476741 -5.44417 0
M  V30 13251 H 1211.58 0.107491 -0.819985 0
M  V30 13252 H 1214.13 -0.539701 -1.60889 0
M  V30 13253 H 1212.9 -0.925012 -3.80209 0
M  V30 13254 H 1212.52 0.787362 -3.89726 0
M  V30 13255 N 1213.52 1.56172 -0.211661 0
M  V30 13256 C 1214.77 1.97648 0.421871 0
M  V30 13257 C 1215.09 1.10026 1.60995 0
M  V30 13258 O 1214.36 0.175109 1.95116 0
M  V30 13259 H 1212.94 0.729914 0.158852 0
M  V30 13260 H 1215.6 1.92542 -0.302254 0
M  V30 13261 H 1214.7 3.02834 0.754868 0
M  V30 13262 N 1215 -0.0618163 1.57479 0
M  V30 13263 C 1216.23 -0.770605 1.9169 0
M  V30 13264 C 1216.64 -1.71134 0.806841 0
M  V30 13265 O 1215.98 -1.8228 -0.228002 0
M  V30 13266 C 1216.04 -1.60962 3.21452 0
M  V30 13267 C 1215.71 -0.837193 4.49266 0
M  V30 13268 C 1216.7 -0.151964 5.19678 0
M  V30 13269 C 1214.39 -0.801414 4.95866 0
M  V30 13270 C 1216.38 0.558705 6.34947 0
M  V30 13271 C 1214.07 -0.0869788 6.11038 0
M  V30 13272 C 1215.07 0.591871 6.80431 0
M  V30 13273 O 1214.75 1.29478 7.93405 0
M  V30 13274 H 1214.49 -0.223673 0.637923 0
M  V30 13275 H 1217.04 -0.0333424 2.05373 0
M  V30 13276 H 1215.27 -2.38992 3.04006 0
M  V30 13277 H 1216.96 -2.19799 3.41238 0
M  V30 13278 H 1217.73 -0.170848 4.84699 0
M  V30 13279 H 1213.6 -1.31927 4.4172 0
M  V30 13280 H 1217.15 1.08913 6.89046 0
M  V30 13281 H 1213.05 -0.066057 6.45466 0
M  V30 13282 H 1213.81 1.20507 8.0958 0
M  V30 13283 N 1216.48 -1.54033 -0.333429 0
M  V30 13284 C 1217.42 -1.82729 -1.40992 0
M  V30 13285 C 1218.39 -0.673677 -1.51825 0
M  V30 13286 O 1219.58 -0.919126 -1.67203 0
M  V30 13287 C 1216.72 -2.05155 -2.77498 0
M  V30 13288 C 1215.83 -3.32854 -2.75376 0
M  V30 13289 C 1214.97 -3.45294 -4.03665 0
M  V30 13290 C 1214.01 -4.66905 -3.95811 0
M  V30 13291 N 1213.14 -4.76323 -5.1581 0
M  V30 13292 H 1217.98 -2.74572 -1.15821 0
M  V30 13293 H 1215.52 -1.35988 -0.560859 0
M  V30 13294 H 1217.48 -2.16148 -3.56841 0
M  V30 13295 H 1216.11 -1.16615 -3.01 0
M  V30 13296 H 1215.16 -3.30651 -1.88081 0
M  V30 13297 H 1216.47 -4.22299 -2.65453 0
M  V30 13298 H 1215.63 -3.55775 -4.91436 0
M  V30 13299 H 1214.36 -2.53924 -4.16382 0
M  V30 13300 H 1213.37 -4.56491 -3.06425 0
M  V30 13301 H 1214.59 -5.59649 -3.84668 0
M  V30 13302 H 1212.54 -3.87866 -5.29052 0
M  V30 13303 H 1212.46 -5.59719 -5.08184 0
M  V30 13304 H 1213.73 -4.91125 -6.05324 0
M  V30 13305 N 1217.95 0.594978 -1.45938 0
M  V30 13306 C 1219.2 1.35361 -1.50611 0
M  V30 13307 C 1219.53 1.93898 -0.152866 0
M  V30 13308 O 1218.78 1.76275 0.850037 0
M  V30 13309 C 1219.08 2.51129 -2.54301 0
M  V30 13310 C 1218.75 2.1066 -3.98664 0
M  V30 13311 C 1217.41 1.99338 -4.3797 0
M  V30 13312 C 1219.76 1.79267 -4.894 0
M  V30 13313 C 1217.09 1.54863 -5.65893 0
M  V30 13314 C 1219.44 1.36274 -6.17748 0
M  V30 13315 C 1218.11 1.2352 -6.55972 0
M  V30 13316 H 1217.38 0.49532 -0.551125 0
M  V30 13317 H 1220.02 0.671236 -1.79351 0
M  V30 13318 H 1218.33 3.24759 -2.19177 0
M  V30 13319 H 1220.03 3.09353 -2.55151 0
M  V30 13320 H 1216.62 2.20403 -3.67587 0
M  V30 13321 H 1220.8 1.86906 -4.59761 0
M  V30 13322 H 1216.06 1.43621 -5.94292 0
M  V30 13323 H 1220.23 1.11032 -6.87492 0
M  V30 13324 H 1217.86 0.88832 -7.54992 0
M  V30 13325 N 1219.43 1.33438 0.838571 0
M  V30 13326 C 1220.66 1.28097 1.63113 0
M  V30 13327 C 1221.08 -0.145197 1.87539 0
M  V30 13328 O 1220.44 -1.10191 1.43971 0
M  V30 13329 C 1220.49 2.06201 2.95827 0
M  V30 13330 O 1219.59 1.42082 3.87152 0
M  V30 13331 H 1218.93 0.440685 0.496681 0
M  V30 13332 H 1221.46 1.76004 1.04325 0
M  V30 13333 H 1221.47 2.16977 3.45521 0
M  V30 13334 H 1220.15 3.099 2.77371 0
M  V30 13335 H 1218.73 1.39953 3.45641 0
M  V30 13336 N 1220.91 -1.05686 1.16912 0
M  V30 13337 C 1222.32 -1.60059 0.961153 0
M  V30 13338 C 1222.67 -1.89894 -0.493409 0
M  V30 13339 O 1221.8 -1.67692 -1.36778 0
M  V30 13340 C 1222.39 -2.90803 1.73837 0
M  V30 13341 C 1220.95 -3.41854 1.57522 0
M  V30 13342 C 1220.1 -2.15658 1.74319 0
M  V30 13343 H 1223.05 -0.885592 1.31693 0
M  V30 13344 H 1223.07 -3.60485 1.21781 0
M  V30 13345 H 1222.58 -2.69056 2.79697 0
M  V30 13346 H 1220.68 -3.68647 0.541284 0
M  V30 13347 H 1220.8 -4.16771 2.36302 0
M  V30 13348 H 1219.16 -2.26177 1.17115 0
M  V30 13349 H 1219.94 -1.96386 2.8158 0
M  V30 13350 N 1222.39 -0.968567 -1.24324 0
M  V30 13351 C 1223.64 -0.630928 -1.9242 0
M  V30 13352 C 1223.96 0.834001 -1.75712 0
M  V30 13353 O 1223.22 1.61558 -1.10442 0
M  V30 13354 C 1223.52 -0.952762 -3.44467 0
M  V30 13355 C 1223.18 -2.40597 -3.81345 0
M  V30 13356 C 1221.85 -2.80316 -3.91122 0
M  V30 13357 C 1224.2 -3.34906 -3.99359 0
M  V30 13358 C 1221.53 -4.13383 -4.16331 0
M  V30 13359 C 1223.88 -4.67602 -4.26065 0
M  V30 13360 C 1222.54 -5.07097 -4.34061 0
M  V30 13361 H 1221.81 -0.230873 -0.704116 0
M  V30 13362 H 1224.46 -1.22022 -1.47591 0
M  V30 13363 H 1222.76 -0.281244 -3.90789 0
M  V30 13364 H 1224.46 -0.6699 -3.95365 0
M  V30 13365 H 1221.05 -2.088 -3.743 0
M  V30 13366 H 1225.23 -3.05404 -3.91206 0
M  V30 13367 H 1220.49 -4.43606 -4.20742 0
M  V30 13368 H 1224.66 -5.40646 -4.38948 0
M  V30 13369 H 1222.29 -6.10229 -4.53349 0
M  V30 13370 N 1223.87 1.39211 -0.738786 0
M  V30 13371 C 1225.09 2.05256 -0.297421 0
M  V30 13372 C 1225.52 1.55341 1.06069 0
M  V30 13373 O 1224.87 0.698823 1.67291 0
M  V30 13374 C 1224.92 3.59239 -0.312969 0
M  V30 13375 O 1224.03 4.06448 0.698112 0
M  V30 13376 H 1223.37 0.650245 -0.134454 0
M  V30 13377 H 1225.9 1.78173 -1.00577 0
M  V30 13378 H 1225.91 4.07691 -0.158675 0
M  V30 13379 H 1224.58 3.94931 -1.30394 0
M  V30 13380 H 1223.16 3.69401 0.509643 0
M  V30 13381 N 1225.34 0.486708 1.49896 0
M  V30 13382 C 1226.59 -0.062852 2.02402 0
M  V30 13383 C 1226.92 -1.38306 1.36754 0
M  V30 13384 O 1226.17 -1.89531 0.487493 0
M  V30 13385 C 1226.47 -0.278643 3.56312 0
M  V30 13386 C 1226.14 0.961794 4.40523 0
M  V30 13387 C 1224.8 1.30185 4.63255 0
M  V30 13388 C 1227.15 1.78697 4.89609 0
M  V30 13389 C 1224.48 2.46686 5.32318 0
M  V30 13390 C 1226.83 2.9434 5.59953 0
M  V30 13391 C 1225.5 3.28742 5.80935 0
M  V30 13392 H 1224.77 -0.0229992 0.740643 0
M  V30 13393 H 1227.41 0.643963 1.80348 0
M  V30 13394 H 1225.72 -1.06785 3.76967 0
M  V30 13395 H 1227.42 -0.718078 3.94518 0
M  V30 13396 H 1224.01 0.686887 4.2306 0
M  V30 13397 H 1228.19 1.53742 4.71887 0
M  V30 13398 H 1223.45 2.73596 5.46768 0
M  V30 13399 H 1227.62 3.58616 5.96965 0
M  V30 13400 H 1225.25 4.19121 6.34225 0
M  V30 13401 N 1226.82 -1.56058 0.219941 0
M  V30 13402 C 1227.77 -2.20218 -0.690846 0
M  V30 13403 C 1228.74 -1.15725 -1.19151 0
M  V30 13404 O 1229.93 -1.44073 -1.2509 0
M  V30 13405 C 1227.07 -2.88477 -1.89408 0
M  V30 13406 C 1226.18 -4.07559 -1.43246 0
M  V30 13407 C 1225.31 -4.63605 -2.59314 0
M  V30 13408 C 1224.35 -5.74993 -2.0988 0
M  V30 13409 N 1223.49 -6.25337 -3.19214 0
M  V30 13410 H 1228.33 -2.97685 -0.136992 0
M  V30 13411 H 1225.87 -1.46994 -0.055865 0
M  V30 13412 H 1227.82 -3.26235 -2.60051 0
M  V30 13413 H 1226.45 -2.1353 -2.42084 0
M  V30 13414 H 1225.51 -3.75297 -0.621013 0
M  V30 13415 H 1226.82 -4.8805 -1.02997 0
M  V30 13416 H 1225.97 -5.03798 -3.38041 0
M  V30 13417 H 1224.71 -3.82274 -3.0285 0
M  V30 13418 H 1223.72 -5.34304 -1.29613 0
M  V30 13419 H 1224.94 -6.58158 -1.67345 0
M  V30 13420 H 1222.89 -5.4692 -3.62236 0
M  V30 13421 H 1222.8 -7.00947 -2.83213 0
M  V30 13422 H 1224.07 -6.70187 -3.98083 0
M  V30 13423 N 1228.3 0.053464 -1.57509 0
M  V30 13424 C 1229.25 1.06886 -2.01394 0
M  V30 13425 C 1230.24 1.33441 -0.899013 0
M  V30 13426 O 1231.43 1.33435 -1.16293 0
M  V30 13427 C 1228.56 2.37731 -2.47667 0
M  V30 13428 C 1227.64 2.14371 -3.65931 0
M  V30 13429 N 1228.03 1.60994 -4.79494 0
M  V30 13430 C 1226.33 2.44766 -3.72835 0
M  V30 13431 C 1227.03 1.52875 -5.61252 0
M  V30 13432 N 1226.01 1.99576 -5.05638 0
M  V30 13433 H 1229.81 0.649779 -2.86627 0
M  V30 13434 H 1227.32 0.260224 -1.60302 0
M  V30 13435 H 1229.32 3.11256 -2.77354 0
M  V30 13436 H 1227.98 2.80339 -1.63829 0
M  V30 13437 H 1228.99 1.296 -5.01422 0
M  V30 13438 H 1225.67 2.90616 -2.99748 0
M  V30 13439 H 1227.06 1.12303 -6.62448 0
M  V30 13440 N 1229.78 1.54207 0.325255 0
M  V30 13441 C 1231.03 1.71544 1.06091 0
M  V30 13442 C 1231.34 0.495137 1.89229 0
M  V30 13443 O 1232.55 0.54982 2.65874 0
M  V30 13444 C 1231 3.03412 1.93569 0
M  V30 13445 C 1230.61 4.32842 1.1555 0
M  V30 13446 C 1232.36 3.30113 2.66881 0
M  V30 13447 C 1230.26 5.55773 2.02164 0
M  V30 13448 H 1229.19 0.639281 0.399795 0
M  V30 13449 H 1231.84 1.80701 0.319261 0
M  V30 13450 H 1230.23 2.88158 2.71626 0
M  V30 13451 H 1231.4 4.58857 0.42276 0
M  V30 13452 H 1229.71 4.12893 0.539277 0
M  V30 13453 H 1232.31 4.19151 3.31988 0
M  V30 13454 H 1232.65 2.47918 3.34428 0
M  V30 13455 H 1233.19 3.46227 1.95887 0
M  V30 13456 H 1229.93 6.40565 1.39128 0
M  V30 13457 H 1229.45 5.3398 2.73177 0
M  V30 13458 H 1231.13 5.92113 2.60789 0
M  V30 13459 N 1231.26 -0.58723 1.46251 0
M  V30 13460 C 1232.19 -1.70694 1.5933 0
M  V30 13461 C 1233.17 -1.64208 0.443831 0
M  V30 13462 O 1234.35 -1.82294 0.669516 0
M  V30 13463 C 1231.48 -3.0933 1.579 0
M  V30 13464 C 1230.44 -3.30643 2.7177 0
M  V30 13465 C 1229.76 -4.69761 2.554 0
M  V30 13466 C 1231.06 -3.18916 4.1363 0
M  V30 13467 H 1232.76 -1.60004 2.53059 0
M  V30 13468 H 1230.3 -0.768343 1.21789 0
M  V30 13469 H 1232.26 -3.87479 1.65644 0
M  V30 13470 H 1230.98 -3.20907 0.60712 0
M  V30 13471 H 1229.64 -2.54892 2.63488 0
M  V30 13472 H 1229.29 -4.78098 1.56306 0
M  V30 13473 H 1228.99 -4.84974 3.31774 0
M  V30 13474 H 1230.51 -5.50084 2.65028 0
M  V30 13475 H 1231.93 -3.86915 4.23048 0
M  V30 13476 H 1230.32 -3.45653 4.90555 0
M  V30 13477 H 1231.39 -2.1606 4.34104 0
M  V30 13478 N 1232.74 -1.33881 -0.831482 0
M  V30 13479 C 1234.01 -1.16346 -1.57236 0
M  V30 13480 C 1234.39 0.267304 -2.09401 0
M  V30 13481 O 1233.74 1.26742 -1.90128 0
M  V30 13482 C 1233.95 -2.21082 -2.70044 0
M  V30 13483 C 1235.3 -2.5562 -3.39033 0
M  V30 13484 O 1236.32 -2.19806 -2.80292 0
M  V30 13485 O 1235.18 -3.17106 -4.45091 0
M  V30 13486 H 1232.28 -0.450469 -0.693546 0
M  V30 13487 H 1234.82 -1.45487 -0.873597 0
M  V30 13488 H 1233.59 -3.17155 -2.2919 0
M  V30 13489 H 1233.22 -1.9307 -3.47577 0
M  V30 13490 N 1234.21 1.05064 -1.1747 0
M  V30 13491 C 1235.46 1.77737 -0.961979 0
M  V30 13492 C 1235.78 1.88198 0.510551 0
M  V30 13493 O 1235.05 1.39968 1.37062 0
M  V30 13494 H 1233.63 0.658366 -0.352935 0
M  V30 13495 H 1236.29 1.26851 -1.47969 0
M  V30 13496 H 1235.39 2.79368 -1.39141 0
M  V30 13497 N 1235.69 0.975146 1.23809 0
M  V30 13498 C 1236.92 0.658978 1.96125 0
M  V30 13499 C 1237.33 -0.773044 1.72248 0
M  V30 13500 O 1236.69 -1.51956 1.01072 0
M  V30 13501 C 1236.74 0.933355 3.49243 0
M  V30 13502 O 1236.46 2.30909 3.72307 0
M  V30 13503 C 1237.96 0.632408 4.38766 0
M  V30 13504 H 1235.18 0.245237 0.62458 0
M  V30 13505 H 1237.73 1.3051 1.5744 0
M  V30 13506 H 1235.88 0.333323 3.85963 0
M  V30 13507 H 1236.3 2.39476 4.66638 0
M  V30 13508 H 1237.77 0.874791 5.45024 0
M  V30 13509 H 1238.25 -0.433453 4.37056 0
M  V30 13510 H 1238.85 1.21268 4.07645 0
M  V30 13511 N 1237.17 -1.38817 0.746158 0
M  V30 13512 C 1238.13 -2.28876 0.121886 0
M  V30 13513 C 1239.13 -1.46838 -0.655379 0
M  V30 13514 O 1240.32 -1.67377 -0.482744 0
M  V30 13515 C 1237.45 -3.30487 -0.836118 0
M  V30 13516 H 1238.65 -2.85586 0.915453 0
M  V30 13517 H 1236.2 -1.47652 0.512691 0
M  V30 13518 H 1236.94 -2.78853 -1.65563 0
M  V30 13519 H 1236.72 -3.9109 -0.281271 0
M  V30 13520 H 1238.21 -3.97848 -1.26914 0
M  V30 13521 N 1238.65 -0.49465 -1.49636 0
M  V30 13522 C 1239.56 0.291881 -2.32777 0
M  V30 13523 C 1240.57 0.973468 -1.44221 0
M  V30 13524 O 1241.75 0.956252 -1.77251 0
M  V30 13525 C 1238.81 1.34609 -3.19502 0
M  V30 13526 C 1237.88 0.678611 -4.23903 0
M  V30 13527 C 1237.11 1.68259 -5.06483 0
M  V30 13528 O 1237.33 2.91176 -4.90482 0
M  V30 13529 O 1236.27 1.24141 -5.88959 0
M  V30 13530 H 1240.09 -0.388459 -3.01205 0
M  V30 13531 H 1237.68 -0.256086 -1.47189 0
M  V30 13532 H 1239.56 1.95617 -3.73245 0
M  V30 13533 H 1238.23 2.00947 -2.53775 0
M  V30 13534 H 1237.14 0.0289541 -3.74089 0
M  V30 13535 H 1238.47 0.0577817 -4.92166 0
M  V30 13536 N 1240.13 1.55939 -0.228214 0
M  V30 13537 C 1241.04 2.24213 0.690339 0
M  V30 13538 C 1242.05 1.25197 1.20838 0
M  V30 13539 O 1243.23 1.58026 1.24859 0
M  V30 13540 C 1240.29 2.91384 1.87873 0
M  V30 13541 C 1239.35 4.05761 1.40201 0
M  V30 13542 C 1238.59 4.6972 2.53376 0
M  V30 13543 O 1238.81 4.32687 3.71669 0
M  V30 13544 O 1237.74 5.58587 2.24198 0
M  V30 13545 H 1241.57 3.03383 0.138692 0
M  V30 13546 H 1239.15 1.494 0.00251504 0
M  V30 13547 H 1241.04 3.33758 2.57262 0
M  V30 13548 H 1239.71 2.15168 2.41835 0
M  V30 13549 H 1238.62 3.67943 0.675945 0
M  V30 13550 H 1239.95 4.83739 0.908691 0
M  V30 13551 O 1241.64 0.0921872 1.61237 0
M  V30 13552 H 1242.33 -0.510845 1.86842 0
M  V30 END ATOM
M  V30 BEGIN BOND
M  V30 END BOND
M  V30 END CTAB
M  END
$$$$
