drugbank_target|Q9HBH1 Peptide deformylase, mitochondrial (DB04310; DB04368)
 OpenBabel12092120073D

  0  0  0     0  0            999 V3000
M  V30 BEGIN CTAB
M  V30 COUNTS 3817 3868 0 0 0
M  V30 BEGIN ATOM
M  V30 1 H -0.908 1.98254 -0.117106 0
M  V30 2 N 0 1.576 0 0
M  V30 3 C 0.933 2.03868 1.02534 0
M  V30 4 C 1.911 0.928543 1.3348 0
M  V30 5 O 3.095 1.19667 1.45644 0
M  V30 6 C 0.222 2.43627 2.35294 0
M  V30 7 C -0.732 3.65373 2.2001 0
M  V30 8 S 0.101 5.13292 1.52614 0
M  V30 9 C 1.257 5.56322 2.86805 0
M  V30 10 H 1.49 2.90518 0.631377 0
M  V30 11 H -0.977 1.52953 0.210867 0
M  V30 12 H 0.981 2.67203 3.11629 0
M  V30 13 H -0.358 1.57376 2.7183 0
M  V30 14 H -1.165 3.90944 3.18086 0
M  V30 15 H -1.563 3.418 1.51819 0
M  V30 16 H 0.729 5.58782 3.83104 0
M  V30 17 H 1.672 6.56266 2.65933 0
M  V30 18 H 2.08 4.83886 2.90714 0
M  V30 19 N 1.4781 -0.272755 1.55222 0
M  V30 20 C 2.4411 -1.32041 1.87344 0
M  V30 21 C 3.4411 -1.42342 0.74803 0
M  V30 22 O 4.6311 -1.41488 1.0162 0
M  V30 23 C 1.7631 -2.70173 2.07893 0
M  V30 24 H 2.9561 -1.04789 2.80997 0
M  V30 25 H 0.5091 -0.51083 1.47717 0
M  V30 26 H 1.2441 -3.02605 1.16622 0
M  V30 27 H 1.0291 -2.64082 2.89833 0
M  V30 28 H 2.5191 -3.45869 2.34017 0
M  V30 29 N 2.9562 -1.48159 -0.537278 0
M  V30 30 C 4.3722 -1.34118 -0.865129 0
M  V30 31 C 4.5722 -0.346678 -1.98495 0
M  V30 32 O 3.6282 0.234715 -2.51407 0
M  V30 33 C 4.9412 -2.73963 -1.23954 0
M  V30 34 C 6.4892 -2.82397 -1.34984 0
M  V30 35 C 6.9642 -4.22928 -1.75772 0
M  V30 36 N 8.4552 -4.25566 -1.82887 0
M  V30 37 C 9.1902 -5.31235 -2.15817 0
M  V30 38 N 8.6862 -6.47189 -2.47222 0
M  V30 39 N 10.4792 -5.18624 -2.16761 0
M  V30 40 H 2.6302 -2.1144 0.201715 0
M  V30 41 H 4.8932 -0.947598 0.0275949 0
M  V30 42 H 4.5992 -3.48264 -0.490381 0
M  V30 43 H 4.4732 -3.0702 -2.19132 0
M  V30 44 H 6.8602 -2.08356 -2.08978 0
M  V30 45 H 6.9412 -2.5297 -0.379448 0
M  V30 46 H 6.5852 -4.97482 -1.02341 0
M  V30 47 H 6.5152 -4.49794 -2.73848 0
M  V30 48 H 9.0062 -3.41924 -1.60924 0
M  V30 49 H 9.3192 -7.23564 -2.71433 0
M  V30 50 H 7.6642 -6.50476 -2.44757 0
M  V30 51 H 10.8552 -4.27056 -1.91679 0
M  V30 52 H 11.0282 -6.01078 -2.42093 0
M  V30 53 N 4.4343 0.785586 -1.36625 0
M  V30 54 C 5.3643 1.91259 -1.33949 0
M  V30 55 C 6.3453 1.68795 -0.210325 0
M  V30 56 O 7.5303 1.89854 -0.408561 0
M  V30 57 C 4.6603 3.28339 -1.13186 0
M  V30 58 C 3.6143 3.65335 -2.22967 0
M  V30 59 C 2.9403 5.00806 -1.87342 0
M  V30 60 C 4.2403 3.7352 -3.65075 0
M  V30 61 H 5.9343 1.93755 -2.28253 0
M  V30 62 H 3.4803 0.930788 -1.09874 0
M  V30 63 H 5.4333 4.06804 -1.09948 0
M  V30 64 H 4.1573 3.2624 -0.153332 0
M  V30 65 H 2.8163 2.89169 -2.25337 0
M  V30 66 H 2.4643 4.95233 -0.880545 0
M  V30 67 H 2.1643 5.26529 -2.60846 0
M  V30 68 H 3.6883 5.81687 -1.85667 0
M  V30 69 H 5.1023 4.42168 -3.64911 0
M  V30 70 H 3.4993 4.10731 -4.37516 0
M  V30 71 H 4.5693 2.74527 -3.99703 0
M  V30 72 N 5.9124 1.20967 1.01018 0
M  V30 73 C 7.1584 1.0353 1.7508 0
M  V30 74 C 7.5134 -0.42734 1.87594 0
M  V30 75 O 6.8064 -1.31298 1.3954 0
M  V30 76 C 7.0004 1.65997 3.16512 0
M  V30 77 C 6.8294 3.18184 3.17788 0
M  V30 78 C 5.5994 3.87198 3.24662 0
M  V30 79 C 7.7974 4.15334 3.03319 0
M  V30 80 N 5.7794 5.26618 3.15509 0
M  V30 81 C 7.1504 5.41472 3.02007 0
M  V30 82 C 9.2054 4.06449 2.87583 0
M  V30 83 C 7.9084 6.5975 2.86571 0
M  V30 84 C 9.9344 5.24357 2.73503 0
M  V30 85 C 9.2964 6.49404 2.72862 0
M  V30 86 H 5.3954 0.433137 0.651089 0
M  V30 87 H 7.9794 1.5324 1.20107 0
M  V30 88 H 6.1504 1.18863 3.69765 0
M  V30 89 H 7.8824 1.41816 3.79039 0
M  V30 90 H 4.6374 3.38093 3.31648 0
M  V30 91 H 5.0614 5.99626 3.14289 0
M  V30 92 H 9.7034 3.10573 2.86887 0
M  V30 93 H 7.4214 7.55792 2.86015 0
M  V30 94 H 11.0074 5.19299 2.62334 0
M  V30 95 H 9.8874 7.39105 2.62093 0
M  V30 96 N 7.3905 -1.2043 1.01659 0
M  V30 97 C 8.6385 -1.89423 0.704522 0
M  V30 98 C 8.9595 -1.79231 -0.768197 0
M  V30 99 O 8.2295 -1.1947 -1.55254 0
M  V30 100 H 6.8095 -0.701178 0.257602 0
M  V30 101 H 9.4715 -1.4626 1.28818 0
M  V30 102 H 8.5675 -2.96052 0.987916 0
M  V30 103 N 8.8686 -0.792821 -1.36206 0
M  V30 104 C 9.8316 -0.199459 -2.2833 0
M  V30 105 C 10.8316 0.605189 -1.48977 0
M  V30 106 O 12.0216 0.425685 -1.68919 0
M  V30 107 C 9.1536 0.723523 -3.33134 0
M  V30 108 H 10.3466 -1.01181 -2.82316 0
M  V30 109 H 7.8996 -0.562485 -1.45828 0
M  V30 110 H 8.6346 1.56008 -2.84309 0
M  V30 111 H 8.4196 0.148436 -3.91819 0
M  V30 112 H 9.9096 1.13344 -4.01924 0
M  V30 113 N 10.3467 1.47872 -0.545128 0
M  V30 114 C 11.2767 2.32661 0.197793 0
M  V30 115 C 12.2577 1.43041 0.920504 0
M  V30 116 O 13.4427 1.71912 0.90333 0
M  V30 117 C 10.5727 3.24569 1.23582 0
M  V30 118 C 9.5267 4.23333 0.630323 0
M  V30 119 C 8.8527 5.0448 1.77211 0
M  V30 120 C 10.1527 5.20704 -0.407974 0
M  V30 121 H 11.8467 2.95024 -0.510045 0
M  V30 122 H 9.3927 1.4187 -0.246731 0
M  V30 123 H 11.3457 3.8272 1.76362 0
M  V30 124 H 10.0697 2.60236 1.97344 0
M  V30 125 H 8.7287 3.6639 0.123922 0
M  V30 126 H 8.3767 4.36561 2.49847 0
M  V30 127 H 8.0767 5.71339 1.37281 0
M  V30 128 H 9.6007 5.65487 2.3034 0
M  V30 129 H 11.0147 5.7329 0.033305 0
M  V30 130 H 9.4117 5.95699 -0.725486 0
M  V30 131 H 10.4817 4.66917 -1.30828 0
M  V30 132 N 11.8248 0.280983 1.55075 0
M  V30 133 C 13.0498 -0.340154 2.04592 0
M  V30 134 C 13.4748 -1.48246 1.15779 0
M  V30 135 O 12.8328 -1.80614 0.15761 0
M  V30 136 C 12.8808 -0.793104 3.5177 0
M  V30 137 O 11.9848 -1.89981 3.66034 0
M  V30 138 H 11.3258 -0.0694289 0.66036 0
M  V30 139 H 13.8558 0.416993 2.00306 0
M  V30 140 H 13.8658 -1.08729 3.93245 0
M  V30 141 H 12.5408 0.0426163 4.15878 0
M  V30 142 H 11.1178 -1.60771 3.36463 0
M  V30 143 N 13.3029 -1.57598 0.00835791 0
M  V30 144 C 14.2329 -2.1198 -0.979113 0
M  V30 145 C 15.2139 -1.03091 -1.35301 0
M  V30 146 O 16.3989 -1.30818 -1.43528 0
M  V30 147 C 13.5289 -2.62995 -2.26828 0
M  V30 148 C 12.4829 -3.76485 -2.03576 0
M  V30 149 C 11.8089 -4.13846 -3.38579 0
M  V30 150 C 13.1089 -5.0342 -1.39161 0
M  V30 151 H 14.8029 -2.94738 -0.526281 0
M  V30 152 H 12.3489 -1.41783 -0.251704 0
M  V30 153 H 14.3019 -2.99669 -2.96271 0
M  V30 154 H 13.0259 -1.7737 -2.7424 0
M  V30 155 H 11.6849 -3.40217 -1.36557 0
M  V30 156 H 11.3329 -3.25232 -3.83709 0
M  V30 157 H 11.0329 -4.90312 -3.23834 0
M  V30 158 H 12.5569 -4.53086 -4.09323 0
M  V30 159 H 13.9709 -5.37812 -1.98573 0
M  V30 160 H 12.3679 -5.84746 -1.34878 0
M  V30 161 H 13.4379 -4.83548 -0.361868 0
M  V30 162 N 14.781 0.264519 -1.55364 0
M  V30 163 C 16.027 0.992314 -1.77552 0
M  V30 164 C 16.382 1.83626 -0.574379 0
M  V30 165 O 15.675 1.86648 0.432782 0
M  V30 166 C 15.869 1.9004 -3.02687 0
M  V30 167 C 15.698 1.14583 -4.34857 0
M  V30 168 C 14.468 0.858068 -4.97961 0
M  V30 169 C 16.666 0.532069 -5.1154 0
M  V30 170 N 14.648 0.0775974 -6.13851 0
M  V30 171 C 16.019 -0.113823 -6.19896 0
M  V30 172 C 18.074 0.440763 -4.95945 0
M  V30 173 C 16.777 -0.842231 -7.14352 0
M  V30 174 C 18.803 -0.274072 -5.90765 0
M  V30 175 C 18.165 -0.90867 -6.98515 0
M  V30 176 H 14.264 0.344811 -0.701875 0
M  V30 177 H 16.848 0.267141 -1.92859 0
M  V30 178 H 15.019 2.59775 -2.88741 0
M  V30 179 H 16.751 2.56243 -3.13243 0
M  V30 180 H 13.506 1.16547 -4.59036 0
M  V30 181 H 13.93 -0.300216 -6.76334 0
M  V30 182 H 18.572 0.917064 -4.12735 0
M  V30 183 H 16.29 -1.33019 -7.97077 0
M  V30 184 H 19.876 -0.345151 -5.80775 0
M  V30 185 H 18.756 -1.45299 -7.70622 0
M  V30 186 N 16.2591 1.48442 0.529413 0
M  V30 187 C 17.6701 1.5002 1.11134 0
M  V30 188 C 18.0211 0.27031 1.94329 0
M  V30 189 O 17.1461 -0.622507 2.07253 0
M  V30 190 C 17.7411 2.71834 2.02217 0
M  V30 191 C 16.3001 2.76283 2.55627 0
M  V30 192 C 15.4471 2.43542 1.326 0
M  V30 193 H 18.3981 1.5555 0.314641 0
M  V30 194 H 18.4191 2.50384 2.8651 0
M  V30 195 H 17.9311 3.61331 1.41639 0
M  V30 196 H 16.0321 1.90995 3.19924 0
M  V30 197 H 16.1451 3.77725 2.94721 0
M  V30 198 H 14.5091 1.94709 1.64196 0
M  V30 199 H 15.2921 3.3528 0.737734 0
M  V30 200 N 17.7372 -0.778329 1.37039 0
M  V30 201 C 18.6672 -1.90546 1.34962 0
M  V30 202 C 19.6482 -1.68681 0.219274 0
M  V30 203 O 20.8332 -1.89634 0.418624 0
M  V30 204 C 17.9632 -3.27734 1.14925 0
M  V30 205 C 16.9172 -3.64147 2.24902 0
M  V30 206 C 16.2432 -4.99806 1.89996 0
M  V30 207 C 17.5432 -3.71579 3.67051 0
M  V30 208 H 19.2372 -1.92541 2.29277 0
M  V30 209 H 16.7832 -0.924948 1.10366 0
M  V30 210 H 18.7362 -4.06215 1.12104 0
M  V30 211 H 17.4602 -3.26154 0.170631 0
M  V30 212 H 16.1192 -2.8797 2.26868 0
M  V30 213 H 15.7672 -4.94759 0.906796 0
M  V30 214 H 15.4672 -5.25139 2.63634 0
M  V30 215 H 16.9912 -5.80694 1.88749 0
M  V30 216 H 18.4052 -4.40227 3.67251 0
M  V30 217 H 16.8022 -4.08405 4.39688 0
M  V30 218 H 17.8722 -2.72404 4.01154 0
M  V30 219 N 19.2153 -1.21501 -1.00376 0
M  V30 220 C 20.4613 -1.04457 -1.74529 0
M  V30 221 C 20.8163 0.417386 -1.87818 0
M  V30 222 O 20.1093 1.30556 -1.40234 0
M  V30 223 C 20.3033 -1.67673 -3.15627 0
M  V30 224 C 20.1323 -3.19865 -3.16096 0
M  V30 225 C 18.9023 -3.88915 -3.22604 0
M  V30 226 C 21.1003 -4.16936 -3.01112 0
M  V30 227 N 19.0823 -5.28284 -3.12712 0
M  V30 228 C 20.4533 -5.43066 -2.99131 0
M  V30 229 C 22.5083 -4.07968 -2.85423 0
M  V30 230 C 21.2113 -6.6126 -2.83068 0
M  V30 231 C 23.2373 -5.258 -2.70718 0
M  V30 232 C 22.5993 -6.50842 -2.69414 0
M  V30 233 H 18.6983 -0.436584 -0.648782 0
M  V30 234 H 21.2823 -1.53875 -1.19293 0
M  V30 235 H 19.4533 -1.20822 -3.6913 0
M  V30 236 H 21.1853 -1.43824 -3.78281 0
M  V30 237 H 17.9403 -3.39847 -3.2985 0
M  V30 238 H 18.3643 -6.01284 -3.11105 0
M  V30 239 H 23.0063 -3.1209 -2.85236 0
M  V30 240 H 20.7243 -7.57298 -2.82002 0
M  V30 241 H 24.3103 -5.20683 -2.59577 0
M  V30 242 H 23.1903 -7.40485 -2.5817 0
M  V30 243 N 20.6934 1.19889 -1.02296 0
M  V30 244 C 21.6564 2.21116 -0.603351 0
M  V30 245 C 22.6564 1.5738 0.329884 0
M  V30 246 O 23.8464 1.73802 0.117702 0
M  V30 247 C 20.9784 3.40696 0.117992 0
M  V30 248 H 22.1714 2.59754 -1.49893 0
M  V30 249 H 19.7244 1.33463 -0.813468 0
M  V30 250 H 20.4594 3.07569 1.0282 0
M  V30 251 H 20.2444 3.88188 -0.552511 0
M  V30 252 H 21.7344 4.15692 0.398696 0
M  V30 253 N 22.1715 0.800033 1.35784 0
M  V30 254 C 23.1345 0.211565 2.28221 0
M  V30 255 C 24.1345 -0.59728 1.49296 0
M  V30 256 O 25.3245 -0.416721 1.69142 0
M  V30 257 C 22.4565 -0.705846 3.33513 0
M  V30 258 H 23.6495 1.02677 2.81776 0
M  V30 259 H 21.2025 0.570211 1.45528 0
M  V30 260 H 21.9375 -1.54498 2.85133 0
M  V30 261 H 21.7225 -0.127655 3.91892 0
M  V30 262 H 23.2125 -1.11211 4.02519 0
M  V30 263 N 23.6496 -1.47581 0.552962 0
M  V30 264 C 24.8956 -2.02782 0.0273648 0
M  V30 265 C 25.2286 -1.42687 -1.31734 0
M  V30 266 O 24.5036 -0.580897 -1.85623 0
M  V30 267 C 24.7866 -3.60031 -0.0702371 0
M  V30 268 C 24.6396 -4.30566 1.30126 0
M  V30 269 C 25.9586 -4.33028 -0.785771 0
M  V30 270 H 23.0776 -0.736912 0.0114185 0
M  V30 271 H 25.7196 -1.76056 0.714432 0
M  V30 272 H 23.8696 -3.82932 -0.655382 0
M  V30 273 H 25.5416 -4.19018 1.92929 0
M  V30 274 H 23.7846 -3.91086 1.87709 0
M  V30 275 H 24.4556 -5.39114 1.18573 0
M  V30 276 H 26.9316 -4.15095 -0.288982 0
M  V30 277 H 25.8076 -5.42695 -0.823013 0
M  V30 278 H 26.0686 -4.01945 -1.841 0
M  V30 279 N 25.1277 -0.289203 -1.54924 0
M  V30 280 C 26.5387 0.205791 -1.85562 0
M  V30 281 C 26.8897 1.54351 -1.2112 0
M  V30 282 O 26.0147 2.10435 -0.504601 0
M  V30 283 C 26.6097 0.380177 -3.3666 0
M  V30 284 C 25.1687 0.819395 -3.67373 0
M  V30 285 C 24.3157 -0.079159 -2.77187 0
M  V30 286 H 27.2667 -0.510577 -1.50262 0
M  V30 287 H 27.2877 1.21659 -3.60526 0
M  V30 288 H 26.7997 -0.593589 -3.83534 0
M  V30 289 H 24.9007 1.80413 -3.26009 0
M  V30 290 H 25.0137 0.646957 -4.74712 0
M  V30 291 H 23.3777 0.439565 -2.50878 0
M  V30 292 H 24.1607 -1.04906 -3.26878 0
M  V30 293 N 26.6058 1.57591 -0.0167156 0
M  V30 294 C 27.8518 1.92399 0.659861 0
M  V30 295 C 28.2068 0.892561 1.70444 0
M  V30 296 O 27.4998 -0.0930755 1.91374 0
M  V30 297 C 27.6938 3.3172 1.33029 0
M  V30 298 C 27.5228 4.48319 0.352174 0
M  V30 299 C 26.2928 5.05281 -0.0434883 0
M  V30 300 C 28.4908 5.12831 -0.388474 0
M  V30 301 N 26.4728 6.05399 -1.01807 0
M  V30 302 C 27.8438 6.07934 -1.2172 0
M  V30 303 C 29.8988 4.95858 -0.450513 0
M  V30 304 C 28.6018 6.87891 -2.10235 0
M  V30 305 C 30.6278 5.76413 -1.32295 0
M  V30 306 C 29.9898 6.71123 -2.13948 0
M  V30 307 H 26.0888 0.752106 0.21415 0
M  V30 308 H 28.6728 1.94532 -0.0809846 0
M  V30 309 H 26.8438 3.3043 2.04134 0
M  V30 310 H 28.5758 3.5391 1.9629 0
M  V30 311 H 25.3308 4.7246 0.328384 0
M  V30 312 H 25.7548 6.60145 -1.50123 0
M  V30 313 H 30.3968 4.22472 0.166512 0
M  V30 314 H 28.1148 7.60591 -2.72997 0
M  V30 315 H 31.7008 5.65317 -1.37508 0
M  V30 316 H 30.5808 7.3237 -2.80364 0
M  V30 317 N 28.0839 -0.256276 1.55502 0
M  V30 318 C 29.3319 -0.983672 1.76545 0
M  V30 319 C 29.6529 -1.86206 0.578982 0
M  V30 320 O 28.9229 -1.91656 -0.405577 0
M  V30 321 H 27.5029 -0.366191 0.651086 0
M  V30 322 H 30.1649 -0.276479 1.92929 0
M  V30 323 H 29.2609 -1.61087 2.67315 0
M  V30 324 N 29.562 -1.4872 -0.521534 0
M  V30 325 C 30.81 -1.56857 -1.27437 0
M  V30 326 C 31.131 -0.247982 -1.93417 0
M  V30 327 O 30.401 0.731151 -1.81744 0
M  V30 328 H 28.981 -0.577885 -0.473347 0
M  V30 329 H 31.643 -1.85233 -0.606205 0
M  V30 330 H 30.739 -2.35402 -2.0492 0
M  V30 331 N 31.0401 0.771051 -1.3745 0
M  V30 332 C 32.0031 1.86598 -1.33093 0
M  V30 333 C 33.0031 1.59076 -0.234845 0
M  V30 334 O 34.1931 1.67145 -0.490732 0
M  V30 335 C 31.3251 3.23747 -1.06773 0
M  V30 336 H 32.5181 1.91873 -2.30488 0
M  V30 337 H 30.0711 0.970876 -1.2249 0
M  V30 338 H 30.8061 3.24148 -0.099129 0
M  V30 339 H 30.5911 3.45115 -1.86112 0
M  V30 340 H 32.0811 4.03824 -1.06377 0
M  V30 341 N 32.5182 1.22032 0.997298 0
M  V30 342 C 33.4812 0.987909 2.06816 0
M  V30 343 C 34.4812 -0.0440084 1.6074 0
M  V30 344 O 35.6712 0.194053 1.73116 0
M  V30 345 C 32.8032 0.49132 3.37341 0
M  V30 346 H 33.9962 1.93803 2.28868 0
M  V30 347 H 31.5492 1.03838 1.16822 0
M  V30 348 H 32.2842 -0.463364 3.20973 0
M  V30 349 H 32.0692 1.23575 3.72118 0
M  V30 350 H 33.5592 0.348824 4.16141 0
M  V30 351 N 33.9963 -1.19345 1.0293 0
M  V30 352 C 34.9593 -2.20793 0.615069 0
M  V30 353 C 35.9593 -1.57553 -0.321533 0
M  V30 354 O 37.1493 -1.73862 -0.108483 0
M  V30 355 C 34.2813 -3.40754 -0.0999222 0
M  V30 356 H 35.4743 -2.58955 1.51269 0
M  V30 357 H 33.0273 -1.3303 0.820534 0
M  V30 358 H 33.7623 -3.0811 -1.01187 0
M  V30 359 H 33.5473 -3.87889 0.57309 0
M  V30 360 H 35.0373 -4.15898 -0.376645 0
M  V30 361 N 35.4744 -0.807222 -1.35358 0
M  V30 362 C 36.7204 -0.388463 -1.99045 0
M  V30 363 C 37.0534 1.04184 -1.63888 0
M  V30 364 O 36.3284 1.72292 -0.902535 0
M  V30 365 C 36.6114 -0.572783 -3.55515 0
M  V30 366 C 36.4644 -2.04807 -4.00468 0
M  V30 367 C 37.7834 0.00114064 -4.401 0
M  V30 368 H 34.9024 -0.142619 -0.723069 0
M  V30 369 H 37.5444 -1.01687 -1.60498 0
M  V30 370 H 35.6944 -0.0378425 -3.88482 0
M  V30 371 H 37.3664 -2.64544 -3.77908 0
M  V30 372 H 35.6094 -2.54427 -3.51353 0
M  V30 373 H 36.2804 -2.12792 -5.09337 0
M  V30 374 H 38.7564 -0.455716 -4.13597 0
M  V30 375 H 37.6324 -0.157737 -5.48673 0
M  V30 376 H 37.8934 1.09488 -4.28328 0
M  V30 377 N 36.9525 1.47285 -0.560781 0
M  V30 378 C 38.2005 2.02064 -0.0379868 0
M  V30 379 C 38.5215 1.43711 1.31803 0
M  V30 380 O 37.7915 0.61362 1.86042 0
M  V30 381 H 36.3715 0.746918 -0.0110531 0
M  V30 382 H 39.0335 1.80648 -0.731598 0
M  V30 383 H 38.1295 3.12064 0.0474463 0
M  V30 384 N 38.4306 0.297415 1.54768 0
M  V30 385 C 39.6766 -0.313376 2.00364 0
M  V30 386 C 40.0096 -1.53815 1.18553 0
M  V30 387 O 39.2846 -1.92739 0.261103 0
M  V30 388 C 39.5676 -0.673525 3.53745 0
M  V30 389 C 39.4206 0.560133 4.46299 0
M  V30 390 C 40.7396 -1.50143 4.13697 0
M  V30 391 H 37.8586 -0.112428 0.728374 0
M  V30 392 H 40.5006 0.4088 1.8555 0
M  V30 393 H 38.6506 -1.28881 3.665 0
M  V30 394 H 40.3226 1.19863 4.45455 0
M  V30 395 H 38.5656 1.19405 4.17043 0
M  V30 396 H 39.2366 0.26405 5.51368 0
M  V30 397 H 41.7126 -0.981588 4.04356 0
M  V30 398 H 40.5886 -1.72221 5.21182 0
M  V30 399 H 40.8496 -2.48952 3.65343 0
M  V30 400 N 39.9087 -1.5758 0.0250728 0
M  V30 401 C 41.3247 -1.56124 -0.331282 0
M  V30 402 C 41.5247 -1.03029 -1.73169 0
M  V30 403 O 40.5807 -0.675215 -2.43305 0
M  V30 404 C 41.8937 -3.00139 -0.183584 0
M  V30 405 C 43.4417 -3.11946 -0.256654 0
M  V30 406 C 43.9167 -4.57793 -0.137792 0
M  V30 407 N 45.4077 -4.6279 -0.194904 0
M  V30 408 C 46.1427 -5.7326 -0.126655 0
M  V30 409 N 45.6387 -6.928 -0.00755288 0
M  V30 410 N 47.4317 -5.61811 -0.180348 0
M  V30 411 H 39.5827 -1.90424 0.94087 0
M  V30 412 H 41.8457 -0.875761 0.362968 0
M  V30 413 H 41.5517 -3.4292 0.780927 0
M  V30 414 H 41.4257 -3.64899 -0.955448 0
M  V30 415 H 43.8127 -2.69079 -1.21162 0
M  V30 416 H 43.8937 -2.49915 0.545517 0
M  V30 417 H 43.5377 -5.01339 0.813739 0
M  V30 418 H 43.4677 -5.17798 -0.958775 0
M  V30 419 H 45.9587 -3.76807 -0.287267 0
M  V30 420 H 46.2717 -7.72791 0.0379428 0
M  V30 421 H 44.6167 -6.94995 0.0271731 0
M  V30 422 H 47.8077 -4.6731 -0.271767 0
M  V30 423 H 47.9807 -6.47882 -0.123697 0
M  V30 424 N 41.3868 0.248026 -1.55636 0
M  V30 425 C 42.3498 1.29044 -1.89421 0
M  V30 426 C 43.3498 1.41134 -0.770581 0
M  V30 427 O 44.5398 1.39854 -1.03858 0
M  V30 428 C 41.6718 2.66831 -2.12165 0
M  V30 429 H 42.8648 1.00305 -2.82629 0
M  V30 430 H 40.4178 0.487265 -1.48511 0
M  V30 431 H 41.1528 3.00711 -1.21422 0
M  V30 432 H 40.9378 2.59438 -2.93997 0
M  V30 433 H 42.4278 3.42103 -2.3949 0
M  V30 434 N 42.8649 1.48995 0.513639 0
M  V30 435 C 44.1049 1.59452 1.27885 0
M  V30 436 C 44.4689 0.269479 1.90099 0
M  V30 437 O 45.6699 0.249139 2.67643 0
M  V30 438 C 43.9409 2.71277 2.32688 0
M  V30 439 S 45.4999 3.01604 3.18717 0
M  V30 440 H 42.3179 0.562565 0.434789 0
M  V30 441 H 44.9199 1.86595 0.583301 0
M  V30 442 H 43.6239 3.66089 1.8549 0
M  V30 443 H 43.1549 2.46086 3.06929 0
M  V30 444 H 45.1699 2.42155 4.331 0
M  V30 445 N 44.343 -0.763751 1.37857 0
M  V30 446 C 45.568 -1.55805 1.36893 0
M  V30 447 C 45.993 -1.88054 -0.0416135 0
M  V30 448 O 45.351 -1.49825 -1.02089 0
M  V30 449 C 45.399 -2.84012 2.22192 0
M  V30 450 O 44.503 -3.78732 1.63204 0
M  V30 451 H 43.844 -0.471638 0.46739 0
M  V30 452 H 46.374 -0.944657 1.81487 0
M  V30 453 H 46.384 -3.33037 2.35691 0
M  V30 454 H 45.059 -2.59869 3.24716 0
M  V30 455 H 43.636 -3.37402 1.58791 0
M  V30 456 N 45.8211 -1.22559 -0.990812 0
M  V30 457 C 47.0461 -1.07862 -1.77145 0
M  V30 458 C 47.4711 0.366447 -1.84496 0
M  V30 459 O 46.8291 1.26478 -1.29896 0
M  V30 460 C 46.8771 -1.69686 -3.18181 0
M  V30 461 O 45.9811 -0.951946 -4.01263 0
M  V30 462 H 45.3221 -0.378712 -0.545411 0
M  V30 463 H 47.8521 -1.62399 -1.2445 0
M  V30 464 H 47.8621 -1.74496 -3.68802 0
M  V30 465 H 46.5371 -2.74841 -3.12146 0
M  V30 466 H 45.1141 -0.980011 -3.59792 0
M  V30 467 N 47.2992 1.18797 -1.03562 0
M  V30 468 C 48.5272 1.92599 -0.755869 0
M  V30 469 C 48.9422 1.75886 0.686271 0
M  V30 470 O 48.2992 1.08517 1.46732 0
M  V30 471 C 48.3502 3.44159 -1.10619 0
M  V30 472 O 48.0712 3.60341 -2.4917 0
M  V30 473 C 49.5722 4.3507 -0.850214 0
M  V30 474 H 46.7922 0.611587 -0.276048 0
M  V30 475 H 49.3362 1.50742 -1.38192 0
M  V30 476 H 47.4912 3.83823 -0.525194 0
M  V30 477 H 47.9052 4.54128 -2.62427 0
M  V30 478 H 49.3792 5.39989 -1.14523 0
M  V30 479 H 49.8562 4.38673 0.215176 0
M  V30 480 H 50.4622 4.01097 -1.41426 0
M  V30 481 N 48.7773 0.814389 1.34928 0
M  V30 482 C 49.7403 0.235759 2.27984 0
M  V30 483 C 50.7403 -0.581412 1.49921 0
M  V30 484 O 51.9303 -0.398758 1.69575 0
M  V30 485 C 49.0623 -0.670433 3.34242 0
M  V30 486 H 50.2553 1.05659 2.80671 0
M  V30 487 H 47.8083 0.585614 1.44915 0
M  V30 488 H 48.5433 -1.51466 2.86755 0
M  V30 489 H 48.3283 -0.0860822 3.92005 0
M  V30 490 H 49.8183 -1.06935 4.03676 0
M  V30 491 N 50.2554 -1.46986 0.568584 0
M  V30 492 C 51.2184 -2.28624 -0.162366 0
M  V30 493 C 52.2184 -1.37596 -0.832103 0
M  V30 494 O 53.4084 -1.60115 -0.68622 0
M  V30 495 C 50.5404 -3.17596 -1.23878 0
M  V30 496 H 51.7334 -2.94722 0.554899 0
M  V30 497 H 49.2864 -1.52863 0.325976 0
M  V30 498 H 50.0214 -2.56214 -1.98808 0
M  V30 499 H 49.8064 -3.846 -0.763219 0
M  V30 500 H 51.2964 -3.79078 -1.75185 0
M  V30 501 N 51.7335 -0.305618 -1.54608 0
M  V30 502 C 53.1445 0.186098 -1.8577 0
M  V30 503 C 53.4955 1.53058 -1.22751 0
M  V30 504 O 52.6205 2.09888 -0.526893 0
M  V30 505 C 53.2155 0.344449 -3.37044 0
M  V30 506 C 51.7745 0.780384 -3.68221 0
M  V30 507 C 50.9215 -0.108554 -2.77087 0
M  V30 508 H 53.8725 -0.526485 -1.49712 0
M  V30 509 H 53.8935 1.17828 -3.61796 0
M  V30 510 H 53.4055 -0.634235 -3.82883 0
M  V30 511 H 51.5065 1.76945 -3.27904 0
M  V30 512 H 51.6195 0.596572 -4.75371 0
M  V30 513 H 49.9835 0.412931 -2.5133 0
M  V30 514 H 50.7665 -1.08368 -3.25747 0
M  V30 515 N 53.2116 1.57565 -0.0334293 0
M  V30 516 C 54.4886 1.83282 0.683163 0
M  V30 517 C 54.8686 0.91823 1.90084 0
M  V30 518 O 54.2166 -0.025113 2.28486 0
M  V30 519 C 54.4266 3.32599 1.0573 0
M  V30 520 C 55.7746 3.99179 1.44711 0
M  V30 521 O 56.7986 3.3712 1.15015 0
M  V30 522 O 55.6576 5.08565 2.0006 0
M  V30 523 H 52.7516 0.755869 0.335546 0
M  V30 524 H 55.2976 1.69589 -0.0614402 0
M  V30 525 H 54.0696 3.90834 0.190828 0
M  V30 526 H 53.6926 3.51415 1.85993 0
M  V30 527 N 54.6897 -0.239769 1.55765 0
M  V30 528 C 55.9377 -0.964892 1.77579 0
M  V30 529 C 56.2587 -1.85582 0.598699 0
M  V30 530 O 55.5287 -1.92075 -0.385226 0
M  V30 531 H 54.1087 -0.359265 0.654933 0
M  V30 532 H 56.7707 -0.256001 1.93211 0
M  V30 533 H 55.8667 -1.58243 2.69009 0
M  V30 534 N 56.1678 -1.49265 -0.50573 0
M  V30 535 C 57.4138 -1.58748 -1.26202 0
M  V30 536 C 57.7468 -0.271227 -1.92297 0
M  V30 537 O 57.0218 0.724831 -1.80489 0
M  V30 538 C 57.3048 -2.74332 -2.33268 0
M  V30 539 C 57.1578 -4.15737 -1.71705 0
M  V30 540 C 58.4768 -2.85576 -3.34865 0
M  V30 541 H 55.5958 -0.577826 -0.457478 0
M  V30 542 H 58.2378 -1.81532 -0.560897 0
M  V30 543 H 56.3878 -2.55036 -2.93068 0
M  V30 544 H 58.0598 -4.46537 -1.15769 0
M  V30 545 H 56.3028 -4.21605 -1.02135 0
M  V30 546 H 56.9738 -4.92477 -2.49341 0
M  V30 547 H 59.4498 -3.03127 -2.8505 0
M  V30 548 H 58.3258 -3.68135 -4.07146 0
M  V30 549 H 58.5868 -1.94732 -3.96903 0
M  V30 550 N 57.6459 0.756429 -1.3826 0
M  V30 551 C 58.5559 1.9009 -1.37488 0
M  V30 552 C 59.5719 1.71855 -0.272366 0
M  V30 553 O 60.7479 1.94827 -0.510318 0
M  V30 554 C 57.8129 3.25421 -1.19592 0
M  V30 555 C 56.8739 3.56202 -2.39622 0
M  V30 556 C 56.1069 4.85075 -2.2257 0
M  V30 557 O 56.3299 5.57246 -1.21793 0
M  V30 558 O 55.2639 5.15269 -3.11098 0
M  V30 559 H 59.0899 1.93695 -2.33914 0
M  V30 560 H 56.6749 0.901313 -1.1915 0
M  V30 561 H 58.5569 4.06337 -1.11661 0
M  V30 562 H 57.2319 3.22634 -0.262486 0
M  V30 563 H 56.1389 2.75458 -2.53128 0
M  V30 564 H 57.4719 3.63747 -3.31586 0
M  V30 565 N 59.124 1.23083 0.984299 0
M  V30 566 C 60.372 1.05848 1.72165 0
M  V30 567 C 60.693 -0.406049 1.90726 0
M  V30 568 O 59.963 -1.29139 1.47309 0
M  V30 569 H 58.543 0.388685 0.637913 0
M  V30 570 H 61.205 1.54736 1.18503 0
M  V30 571 H 60.301 1.54327 2.71274 0
M  V30 572 N 60.6021 -1.18246 1.0419 0
M  V30 573 C 62.0131 -1.69914 0.773698 0
M  V30 574 C 62.3641 -1.83085 -0.705297 0
M  V30 575 O 61.4891 -1.51123 -1.5489 0
M  V30 576 C 62.0841 -3.08619 1.39784 0
M  V30 577 C 60.6431 -3.57494 1.17792 0
M  V30 578 C 59.7901 -2.34013 1.48773 0
M  V30 579 H 62.7411 -1.02904 1.20816 0
M  V30 580 H 62.7621 -3.71958 0.801714 0
M  V30 581 H 62.2741 -2.99001 2.47426 0
M  V30 582 H 60.3751 -3.72406 0.120295 0
M  V30 583 H 60.4881 -4.40852 1.87581 0
M  V30 584 H 58.8521 -2.37986 0.907463 0
M  V30 585 H 59.6351 -2.27013 2.57527 0
M  V30 586 N 62.0802 -0.821533 -1.34494 0
M  V30 587 C 63.0432 -0.247847 -2.27856 0
M  V30 588 C 64.0432 0.573453 -1.50227 0
M  V30 589 O 65.2332 0.389759 -1.69784 0
M  V30 590 C 62.3652 0.652698 -3.34593 0
M  V30 591 H 63.5582 -1.07146 -2.80107 0
M  V30 592 H 61.1112 -0.593291 -1.44602 0
M  V30 593 H 61.8462 1.49943 -2.87555 0
M  V30 594 H 61.6312 0.065292 -3.92046 0
M  V30 595 H 63.1212 1.04793 -4.04238 0
M  V30 596 N 63.5583 1.46682 -0.576371 0
M  V30 597 C 64.4883 2.33028 0.148397 0
M  V30 598 C 65.4693 1.44961 0.889956 0
M  V30 599 O 66.6543 1.73789 0.866662 0
M  V30 600 C 63.7843 3.27117 1.1667 0
M  V30 601 C 62.7383 4.24575 0.540386 0
M  V30 602 C 62.0643 5.08126 1.6647 0
M  V30 603 C 63.3643 5.19722 -0.518331 0
M  V30 604 H 65.0583 2.93875 -0.572509 0
M  V30 605 H 62.6043 1.41315 -0.276768 0
M  V30 606 H 64.5573 3.86374 1.68204 0
M  V30 607 H 63.2813 2.64364 1.9178 0
M  V30 608 H 61.9403 3.66571 0.0461769 0
M  V30 609 H 61.5883 4.41762 2.40531 0
M  V30 610 H 61.2883 5.74122 1.25131 0
M  V30 611 H 62.8123 5.70246 2.18293 0
M  V30 612 H 64.2263 5.73232 -0.0883058 0
M  V30 613 H 62.6233 5.94026 -0.851679 0
M  V30 614 H 63.6933 4.64037 -1.40703 0
M  V30 615 N 65.0364 0.313813 1.54444 0
M  V30 616 C 66.4524 -0.0391619 1.59552 0
M  V30 617 C 66.6524 -1.51322 1.33056 0
M  V30 618 O 65.7084 -2.26782 1.11022 0
M  V30 619 C 67.0214 0.370302 2.98411 0
M  V30 620 C 68.5694 0.320139 3.11358 0
M  V30 621 C 69.0444 0.704617 4.52547 0
M  V30 622 N 70.5354 0.657645 4.58508 0
M  V30 623 C 71.2704 0.927453 5.6585 0
M  V30 624 N 70.7664 1.26389 6.81174 0
M  V30 625 N 72.5594 0.853662 5.5558 0
M  V30 626 H 64.7104 1.27433 1.69925 0
M  V30 627 H 66.9734 0.517511 0.794284 0
M  V30 628 H 66.6794 1.39694 3.22767 0
M  V30 629 H 66.5534 -0.269619 3.76235 0
M  V30 630 H 68.9404 -0.697275 2.86744 0
M  V30 631 H 69.0214 0.99486 2.35661 0
M  V30 632 H 68.6654 1.7199 4.77893 0
M  V30 633 H 68.5954 0.00768843 5.26599 0
M  V30 634 H 71.0864 0.409067 3.75679 0
M  V30 635 H 71.3994 1.4554 7.58972 0
M  V30 636 H 69.7444 1.30206 6.82694 0
M  V30 637 H 72.9354 0.590383 4.64362 0
M  V30 638 H 73.1084 1.0673 6.3915 0
M  V30 639 N 66.5145 -1.57545 0.0417849 0
M  V30 640 C 67.9305 -1.56467 -0.314704 0
M  V30 641 C 68.1305 -1.04859 -1.72066 0
M  V30 642 O 67.1865 -0.700983 -2.42575 0
M  V30 643 C 68.4995 -3.00317 -0.15174 0
M  V30 644 C 70.0475 -3.12201 -0.223553 0
M  V30 645 C 70.5225 -4.57913 -0.0892295 0
M  V30 646 N 72.0135 -4.6297 -0.145808 0
M  V30 647 C 72.7485 -5.73362 -0.0658459 0
M  V30 648 N 72.2445 -6.92769 0.0659282 0
M  V30 649 N 74.0375 -5.6197 -0.12075 0
M  V30 650 H 66.1885 -1.89416 0.961014 0
M  V30 651 H 68.4515 -0.871862 0.372237 0
M  V30 652 H 68.1575 -3.42073 0.817254 0
M  V30 653 H 68.0315 -3.65892 -0.916692 0
M  V30 654 H 70.4185 -2.70349 -1.18301 0
M  V30 655 H 70.4995 -2.49323 0.571994 0
M  V30 656 H 70.1435 -5.00448 0.866867 0
M  V30 657 H 70.0735 -5.18786 -0.903802 0
M  V30 658 H 72.5645 -3.7709 -0.247286 0
M  V30 659 H 72.8775 -7.72707 0.119905 0
M  V30 660 H 71.2225 -6.94927 0.100885 0
M  V30 661 H 74.4135 -4.67572 -0.222187 0
M  V30 662 H 74.5865 -6.47977 -0.0549735 0
M  V30 663 N 67.9926 0.231505 -1.5589 0
M  V30 664 C 69.2176 0.978689 -1.82856 0
M  V30 665 C 69.6426 1.77559 -0.620846 0
M  V30 666 O 69.0006 1.76119 0.430305 0
M  V30 667 C 69.0486 1.87997 -3.07716 0
M  V30 668 O 68.1526 2.97393 -2.85712 0
M  V30 669 H 67.4936 0.277663 -0.603158 0
M  V30 670 H 70.0236 0.24783 -2.03093 0
M  V30 671 H 70.0336 2.2917 -3.37558 0
M  V30 672 H 68.7086 1.29417 -3.95252 0
M  V30 673 H 67.2856 2.60238 -2.67078 0
M  V30 674 N 69.4707 1.49531 0.497807 0
M  V30 675 C 70.7007 1.62657 1.27382 0
M  V30 676 C 71.1087 0.298488 1.86831 0
M  V30 677 O 70.4517 -0.72647 1.68725 0
M  V30 678 C 70.5137 2.6393 2.44093 0
M  V30 679 C 70.1777 4.08195 2.05489 0
M  V30 680 C 71.1747 4.949 1.59279 0
M  V30 681 C 68.8597 4.53948 2.15026 0
M  V30 682 C 70.8537 6.25397 1.23113 0
M  V30 683 C 68.5407 5.84458 1.78473 0
M  V30 684 C 69.5387 6.70006 1.32591 0
M  V30 685 O 69.2267 7.98083 0.965327 0
M  V30 686 H 68.9587 0.550429 0.392434 0
M  V30 687 H 71.5127 1.96325 0.603801 0
M  V30 688 H 69.7427 2.25449 3.14181 0
M  V30 689 H 71.4317 2.66552 3.06113 0
M  V30 690 H 72.1977 4.60779 1.51354 0
M  V30 691 H 68.0767 3.87525 2.4969 0
M  V30 692 H 71.6207 6.92125 0.872299 0
M  V30 693 H 67.5177 6.18107 1.86048 0
M  V30 694 H 68.2857 8.11122 1.09652 0
M  V30 695 N 70.9488 -0.749086 1.3866 0
M  V30 696 C 72.1948 -1.50959 1.36319 0
M  V30 697 C 72.5498 -1.92347 -0.0452451 0
M  V30 698 O 71.8428 -1.6289 -1.00884 0
M  V30 699 C 72.0368 -2.7712 2.25697 0
M  V30 700 C 71.8658 -2.48067 3.7509 0
M  V30 701 C 70.6358 -2.41062 4.44091 0
M  V30 702 C 72.8338 -2.14544 4.67414 0
M  V30 703 N 70.8158 -2.04331 5.78897 0
M  V30 704 C 72.1868 -1.88141 5.90765 0
M  V30 705 C 74.2418 -2.00892 4.55573 0
M  V30 706 C 72.9448 -1.49463 7.036 0
M  V30 707 C 74.9708 -1.63616 5.68317 0
M  V30 708 C 74.3328 -1.38088 6.90732 0
M  V30 709 H 70.4318 -0.551804 0.554108 0
M  V30 710 H 73.0158 -0.871886 1.74087 0
M  V30 711 H 71.1868 -3.38693 1.9011 0
M  V30 712 H 72.9188 -3.4321 2.1445 0
M  V30 713 H 69.6738 -2.57685 3.9736 0
M  V30 714 H 70.0978 -1.88598 6.502 0
M  V30 715 H 74.7398 -2.19301 3.61479 0
M  V30 716 H 72.4578 -1.29794 7.97608 0
M  V30 717 H 76.0438 -1.53678 5.61137 0
M  V30 718 H 74.9238 -1.09674 7.76493 0
M  V30 719 N 72.4269 -1.23603 -0.977757 0
M  V30 720 C 73.8429 -0.999251 -1.24447 0
M  V30 721 C 74.0429 0.298053 -1.99283 0
M  V30 722 O 73.0989 1.01681 -2.31122 0
M  V30 723 C 74.4119 -2.20784 -2.04144 0
M  V30 724 C 75.9599 -2.25303 -2.17273 0
M  V30 725 C 76.4349 -3.45755 -3.00362 0
M  V30 726 N 77.9259 -3.4601 -3.07947 0
M  V30 727 C 78.6609 -4.35868 -3.72568 0
M  V30 728 N 78.1569 -5.35966 -4.38991 0
M  V30 729 N 79.9499 -4.23605 -3.6948 0
M  V30 730 H 72.1009 -2.06986 -0.476483 0
M  V30 731 H 74.3639 -0.907801 -0.273134 0
M  V30 732 H 74.0699 -3.14945 -1.56533 0
M  V30 733 H 73.9439 -2.22085 -3.04891 0
M  V30 734 H 76.3309 -1.3168 -2.64092 0
M  V30 735 H 76.4119 -2.28033 -1.15907 0
M  V30 736 H 76.0559 -4.39687 -2.5424 0
M  V30 737 H 75.9859 -3.40266 -4.01904 0
M  V30 738 H 78.4769 -2.73588 -2.60688 0
M  V30 739 H 78.7899 -6.00783 -4.86086 0
M  V30 740 H 77.1349 -5.39863 -4.37691 0
M  V30 741 H 80.3259 -3.44647 -3.16759 0
M  V30 742 H 80.4989 -4.93836 -4.1956 0
M  V30 743 N 73.905 1.17692 -1.04816 0
M  V30 744 C 74.855 2.1952 -0.616042 0
M  V30 745 C 75.839 1.57147 0.345485 0
M  V30 746 O 77.031 1.76245 0.163325 0
M  V30 747 C 74.16 3.43298 0.0116917 0
M  V30 748 C 73.246 4.12777 -0.973435 0
M  V30 749 N 73.637 4.5814 -2.14339 0
M  V30 750 C 71.935 4.38747 -0.80108 0
M  V30 751 C 72.636 5.11713 -2.7663 0
M  V30 752 N 71.612 5.03686 -2.04453 0
M  V30 753 H 75.414 2.52293 -1.5075 0
M  V30 754 H 72.928 1.3398 -0.917776 0
M  V30 755 H 74.925 4.15519 0.339006 0
M  V30 756 H 73.585 3.12018 0.898593 0
M  V30 757 H 74.596 4.52349 -2.52191 0
M  V30 758 H 71.273 4.17485 0.0350934 0
M  V30 759 H 72.663 5.56962 -3.75823 0
M  V30 760 N 75.3831 0.828654 1.34056 0
M  V30 761 C 76.3131 0.269443 2.3194 0
M  V30 762 C 77.2941 -0.617247 1.58506 0
M  V30 763 O 78.4791 -0.542931 1.86456 0
M  V30 764 C 75.6091 -0.564793 3.42677 0
M  V30 765 C 74.5631 0.225241 4.27407 0
M  V30 766 C 73.8891 -0.7321 5.29664 0
M  V30 767 C 75.1891 1.43663 5.02154 0
M  V30 768 H 76.8831 1.08728 2.7896 0
M  V30 769 H 74.4291 0.524283 1.34117 0
M  V30 770 H 76.3821 -0.966233 4.10173 0
M  V30 771 H 75.1061 -1.41574 2.9432 0
M  V30 772 H 73.7651 0.608117 3.61521 0
M  V30 773 H 73.4131 -1.57916 4.77568 0
M  V30 774 H 73.1131 -0.20767 5.87233 0
M  V30 775 H 74.6371 -1.13128 6.00029 0
M  V30 776 H 76.0511 1.1089 5.62473 0
M  V30 777 H 74.4481 1.89711 5.69324 0
M  V30 778 H 75.5181 2.21181 4.31517 0
M  V30 779 N 76.8612 -1.46375 0.584142 0
M  V30 780 C 78.2772 -1.57694 0.245929 0
M  V30 781 C 78.4772 -1.57903 -1.25175 0
M  V30 782 O 77.5332 -1.49676 -2.03355 0
M  V30 783 C 78.8462 -2.87028 0.896402 0
M  V30 784 C 80.3942 -3.00662 0.870127 0
M  V30 785 C 80.8692 -4.32734 1.50017 0
M  V30 786 N 82.3602 -4.39436 1.46458 0
M  V30 787 C 83.0952 -5.40248 1.92144 0
M  V30 788 N 82.5912 -6.47726 2.4581 0
M  V30 789 N 84.3842 -5.31459 1.83052 0
M  V30 790 H 76.5352 -1.44483 1.55687 0
M  V30 791 H 78.7982 -0.689291 0.650831 0
M  V30 792 H 78.5042 -2.9269 1.95002 0
M  V30 793 H 78.3782 -3.75014 0.405486 0
M  V30 794 H 80.7652 -2.94581 -0.174871 0
M  V30 795 H 80.8462 -2.14148 1.39908 0
M  V30 796 H 80.4902 -4.39573 2.54437 0
M  V30 797 H 80.4202 -5.18025 0.946432 0
M  V30 798 H 82.9112 -3.62367 1.07231 0
M  V30 799 H 83.2242 -7.20863 2.78525 0
M  V30 800 H 81.5692 -6.48542 2.49836 0
M  V30 801 H 84.7602 -4.46396 1.40883 0
M  V30 802 H 84.9332 -6.09881 2.18973 0
M  V30 803 N 78.3393 -0.321999 -1.54275 0
M  V30 804 C 79.7553 0.0306999 -1.5957 0
M  V30 805 C 79.9553 1.50614 -1.33857 0
M  V30 806 O 79.0113 2.2619 -1.12223 0
M  V30 807 C 80.3243 -0.386122 -2.98211 0
M  V30 808 C 81.8723 -0.336647 -3.11184 0
M  V30 809 C 82.3473 -0.728607 -4.52167 0
M  V30 810 N 83.8383 -0.681952 -4.58152 0
M  V30 811 C 84.5733 -0.957449 -5.6535 0
M  V30 812 N 84.0693 -1.3 -6.80494 0
M  V30 813 N 85.8623 -0.883113 -5.55119 0
M  V30 814 H 78.0133 -1.28332 -1.69247 0
M  V30 815 H 80.2763 -0.521716 -0.791528 0
M  V30 816 H 79.9823 -1.41404 -3.22022 0
M  V30 817 H 79.8563 0.249662 -3.76373 0
M  V30 818 H 82.2433 0.682058 -2.8711 0
M  V30 819 H 82.3243 -1.00734 -2.3513 0
M  V30 820 H 81.9683 -1.74522 -4.76974 0
M  V30 821 H 81.8983 -0.0356152 -5.26588 0
M  V30 822 H 84.3893 -0.428985 -3.75457 0
M  V30 823 H 84.7023 -1.49563 -7.58189 0
M  V30 824 H 83.0473 -1.33824 -6.81994 0
M  V30 825 H 86.2383 -0.615001 -4.64042 0
M  V30 826 H 86.4113 -1.10118 -6.38575 0
M  V30 827 N 79.8174 1.5752 -0.0501392 0
M  V30 828 C 80.7474 2.14502 0.922566 0
M  V30 829 C 81.7284 1.06642 1.3252 0
M  V30 830 O 82.9134 1.34577 1.4001 0
M  V30 831 C 80.0434 2.68916 2.19776 0
M  V30 832 C 78.9974 3.8175 1.93523 0
M  V30 833 C 78.3234 4.22677 3.27487 0
M  V30 834 C 79.6234 5.06932 1.25765 0
M  V30 835 H 81.3174 2.9603 0.447952 0
M  V30 836 H 78.8634 1.42401 0.214024 0
M  V30 837 H 80.8164 3.07419 2.88222 0
M  V30 838 H 79.5404 1.84578 2.69441 0
M  V30 839 H 78.1994 3.43718 1.27489 0
M  V30 840 H 77.8474 3.35291 3.74952 0
M  V30 841 H 77.5474 4.98725 3.1072 0
M  V30 842 H 79.0714 4.63779 3.97166 0
M  V30 843 H 80.4854 5.42888 1.84244 0
M  V30 844 H 78.8824 5.88116 1.19328 0
M  V30 845 H 79.9524 4.84337 0.233536 0
M  V30 846 N 81.2955 -0.223234 1.56011 0
M  V30 847 C 82.5415 -0.949279 1.79211 0
M  V30 848 C 82.8745 -1.84054 0.619494 0
M  V30 849 O 82.1495 -1.90726 -0.381317 0
M  V30 850 C 82.4325 -1.78965 3.12479 0
M  V30 851 C 82.2855 -0.924997 4.40186 0
M  V30 852 C 83.6045 -2.76774 3.42175 0
M  V30 853 H 80.7235 -0.343676 0.651963 0
M  V30 854 H 83.3655 -0.218253 1.88742 0
M  V30 855 H 81.5155 -2.41291 3.04485 0
M  V30 856 H 83.1875 -0.318615 4.60198 0
M  V30 857 H 81.4305 -0.230344 4.33188 0
M  V30 858 H 82.1015 -1.54735 5.29869 0
M  V30 859 H 84.5775 -2.24584 3.50287 0
M  V30 860 H 83.4535 -3.32678 4.36597 0
M  V30 861 H 83.7145 -3.54429 2.64258 0
M  V30 862 N 82.7736 -1.49793 -0.48987 0
M  V30 863 C 83.7036 -1.70201 -1.59856 0
M  V30 864 C 84.6846 -0.55076 -1.60937 0
M  V30 865 O 85.8696 -0.787841 -1.77501 0
M  V30 866 C 82.9996 -1.77882 -2.98287 0
M  V30 867 C 81.9536 -2.92907 -3.12073 0
M  V30 868 C 81.2796 -2.85712 -4.51965 0
M  V30 869 C 82.5796 -4.3369 -2.91051 0
M  V30 870 H 84.2736 -2.63025 -1.43032 0
M  V30 871 H 81.8196 -1.26574 -0.686664 0
M  V30 872 H 83.7726 -1.90744 -3.75759 0
M  V30 873 H 82.4966 -0.816653 -3.16225 0
M  V30 874 H 81.1556 -2.79665 -2.37029 0
M  V30 875 H 80.8036 -1.8738 -4.66795 0
M  V30 876 H 80.5036 -3.62921 -4.62128 0
M  V30 877 H 82.0276 -3.00598 -5.31482 0
M  V30 878 H 83.4416 -4.47555 -3.58284 0
M  V30 879 H 81.8386 -5.12205 -3.12675 0
M  V30 880 H 82.9086 -4.47362 -1.87071 0
M  V30 881 N 84.2517 0.741722 -1.39055 0
M  V30 882 C 85.4997 1.49818 -1.35643 0
M  V30 883 C 85.8207 1.94938 0.0491642 0
M  V30 884 O 85.0907 1.68505 0.999141 0
M  V30 885 H 83.6707 0.555755 -0.499144 0
M  V30 886 H 86.3327 0.880957 -1.73854 0
M  V30 887 H 85.4287 2.38348 -2.01486 0
M  V30 888 N 85.7298 1.2412 0.971189 0
M  V30 889 C 87.1408 1.07236 1.52831 0
M  V30 890 C 87.4918 -0.357352 1.92918 0
M  V30 891 O 86.6168 -1.24528 1.76979 0
M  V30 892 C 87.2118 1.94043 2.77728 0
M  V30 893 C 85.7708 1.81394 3.29808 0
M  V30 894 C 84.9178 1.89189 2.02738 0
M  V30 895 H 87.8688 1.37648 0.789864 0
M  V30 896 H 87.8898 1.47066 3.5093 0
M  V30 897 H 87.4018 2.98093 2.4852 0
M  V30 898 H 85.5028 0.801634 3.63874 0
M  V30 899 H 85.6158 2.65294 3.98944 0
M  V30 900 H 83.9798 1.32877 2.17292 0
M  V30 901 H 84.7628 2.94812 1.759 0
M  V30 902 N 87.2079 -1.17134 1.05439 0
M  V30 903 C 88.6189 -1.69084 0.791676 0
M  V30 904 C 88.9699 -1.83822 -0.685839 0
M  V30 905 O 88.0949 -1.52757 -1.53278 0
M  V30 906 C 88.6899 -3.07119 1.4305 0
M  V30 907 C 87.2489 -3.56225 1.21577 0
M  V30 908 C 86.3959 -2.32421 1.51247 0
M  V30 909 H 89.3469 -1.01617 1.219 0
M  V30 910 H 89.3679 -3.71087 0.84112 0
M  V30 911 H 88.8799 -2.9636 2.50584 0
M  V30 912 H 86.9809 -3.72257 0.159787 0
M  V30 913 H 87.0939 -4.38837 1.92246 0
M  V30 914 H 85.4579 -2.3701 0.932653 0
M  V30 915 H 86.2409 -2.24268 2.5992 0
M  V30 916 N 88.686 -0.835752 -1.33615 0
M  V30 917 C 89.596 -0.269088 -2.33052 0
M  V30 918 C 90.612 0.603251 -1.63208 0
M  V30 919 O 91.788 0.508112 -1.94885 0
M  V30 920 C 88.853 0.549091 -3.42324 0
M  V30 921 C 87.914 -0.347156 -4.27894 0
M  V30 922 C 87.147 0.43207 -5.31948 0
M  V30 923 O 87.37 1.66409 -5.45586 0
M  V30 924 O 86.304 -0.192298 -6.01593 0
M  V30 925 H 90.13 -1.09243 -2.83372 0
M  V30 926 H 87.715 -0.598198 -1.36901 0
M  V30 927 H 89.597 1.01414 -4.09015 0
M  V30 928 H 88.272 1.34955 -2.94226 0
M  V30 929 H 87.179 -0.859979 -3.64081 0
M  V30 930 H 88.512 -1.1123 -4.79467 0
M  V30 931 N 90.1641 1.46063 -0.591896 0
M  V30 932 C 91.5751 1.85944 -0.167822 0
M  V30 933 C 91.9261 1.49429 1.27143 0
M  V30 934 O 91.0511 0.913515 1.96173 0
M  V30 935 C 91.6461 3.37489 -0.297794 0
M  V30 936 C 90.2051 3.76332 0.0714732 0
M  V30 937 C 89.3521 2.7006 -0.629509 0
M  V30 938 H 92.3031 1.37087 -0.799555 0
M  V30 939 H 92.3241 3.77532 0.474349 0
M  V30 940 H 91.8361 3.64034 -1.3454 0
M  V30 941 H 89.9371 3.55405 1.11886 0
M  V30 942 H 90.0501 4.78088 -0.311245 0
M  V30 943 H 88.4141 2.54607 -0.0687867 0
M  V30 944 H 89.1971 2.99444 -1.67894 0
M  V30 945 N 91.6422 0.330177 1.54103 0
M  V30 946 C 93.0532 -0.15652 1.86043 0
M  V30 947 C 93.4042 -1.51086 1.2517 0
M  V30 948 O 92.5292 -2.09023 0.560217 0
M  V30 949 C 93.1242 -0.290784 3.3755 0
M  V30 950 C 91.6832 -0.721705 3.69416 0
M  V30 951 C 90.8302 0.152622 2.7688 0
M  V30 952 H 93.7812 0.550237 1.48856 0
M  V30 953 H 93.8022 -1.12058 3.63625 0
M  V30 954 H 93.3142 0.695068 3.81825 0
M  V30 955 H 91.4152 -1.71706 3.30678 0
M  V30 956 H 91.5282 -0.520869 4.7626 0
M  V30 957 H 89.8922 -0.372894 2.51956 0
M  V30 958 H 90.6752 1.13536 3.23982 0
M  V30 959 N 93.1203 -1.57491 0.0584922 0
M  V30 960 C 94.3673 -1.92978 -0.613648 0
M  V30 961 C 94.6953 -0.937461 -1.70417 0
M  V30 962 O 93.9503 0.049078 -1.95638 0
M  V30 963 C 94.2493 -3.3513 -1.24188 0
M  V30 964 C 93.9153 -4.50037 -0.278826 0
M  V30 965 C 92.5773 -4.81198 -0.0138447 0
M  V30 966 C 94.9293 -5.19807 0.380777 0
M  V30 967 C 92.2573 -5.79473 0.918052 0
M  V30 968 C 94.6093 -6.19079 1.30091 0
M  V30 969 C 93.2733 -6.48665 1.57449 0
M  V30 970 H 92.5433 -0.706157 -0.22455 0
M  V30 971 H 95.1903 -1.91082 0.126533 0
M  V30 972 H 93.4953 -3.33429 -2.05749 0
M  V30 973 H 95.1923 -3.59871 -1.769 0
M  V30 974 H 91.7823 -4.25726 -0.495539 0
M  V30 975 H 95.9663 -4.95939 0.189158 0
M  V30 976 H 91.2223 -6.00727 1.1374 0
M  V30 977 H 95.3963 -6.7225 1.81804 0
M  V30 978 H 93.0233 -7.24628 2.29822 0
M  V30 979 N 94.5984 0.214957 -1.56127 0
M  V30 980 C 95.8234 0.95924 -1.83884 0
M  V30 981 C 96.2484 1.7689 -0.639644 0
M  V30 982 O 95.6064 1.76566 0.411601 0
M  V30 983 C 95.6544 1.84723 -3.09693 0
M  V30 984 O 94.7584 2.94346 -2.8885 0
M  V30 985 H 94.0994 0.27125 -0.606069 0
M  V30 986 H 96.6294 0.226276 -2.03345 0
M  V30 987 H 96.6394 2.25576 -3.39969 0
M  V30 988 H 95.3144 1.25218 -3.96602 0
M  V30 989 H 93.8914 2.57391 -2.69823 0
M  V30 990 N 96.0765 1.50051 0.48192 0
M  V30 991 C 97.0265 1.64512 1.5786 0
M  V30 992 C 98.0105 0.500073 1.52932 0
M  V30 993 O 99.2025 0.753964 1.60139 0
M  V30 994 C 96.3315 1.73263 2.9637 0
M  V30 995 C 95.4175 2.93409 3.06222 0
M  V30 996 N 95.8085 4.17236 2.85915 0
M  V30 997 C 94.1065 2.91742 3.37346 0
M  V30 998 C 94.8075 4.981 3.00451 0
M  V30 999 N 93.7835 4.3184 3.30174 0
M  V30 1000 H 97.5855 2.57955 1.40842 0
M  V30 1001 H 95.0995 1.47086 0.688439 0
M  V30 1002 H 97.0965 1.81724 3.75209 0
M  V30 1003 H 95.7565 0.809711 3.14442 0
M  V30 1004 H 96.7675 4.46909 2.6171 0
M  V30 1005 H 93.4445 2.08907 3.61475 0
M  V30 1006 H 94.8345 6.06532 2.89082 0
M  V30 1007 N 97.5546 -0.734337 1.39446 0
M  V30 1008 C 98.8006 -1.49613 1.36908 0
M  V30 1009 C 99.1336 -1.94169 -0.0347829 0
M  V30 1010 O 98.4086 -1.66833 -0.999847 0
M  V30 1011 C 98.6916 -2.73534 2.34203 0
M  V30 1012 C 98.5446 -2.34993 3.83534 0
M  V30 1013 C 99.8636 -3.75635 2.29317 0
M  V30 1014 H 96.9826 -0.542714 0.498629 0
M  V30 1015 H 99.6246 -0.839597 1.70443 0
M  V30 1016 H 97.7746 -3.29553 2.05736 0
M  V30 1017 H 99.4466 -1.84601 4.22753 0
M  V30 1018 H 97.6896 -1.67213 4.00278 0
M  V30 1019 H 98.3606 -3.23738 4.47099 0
M  V30 1020 H 100.837 -3.29203 2.54489 0
M  V30 1021 H 99.7126 -4.60008 2.99472 0
M  V30 1022 H 99.9736 -4.22603 1.29842 0
M  V30 1023 N 99.0327 -1.24633 -0.964593 0
M  V30 1024 C 100.273 -1.09981 -1.72289 0
M  V30 1025 C 100.637 0.354792 -1.88693 0
M  V30 1026 O 101.838 0.62289 -2.61483 0
M  V30 1027 C 100.109 -1.82262 -3.07434 0
M  V30 1028 S 101.668 -1.83379 -3.98645 0
M  V30 1029 H 98.4857 -0.393292 -0.59232 0
M  V30 1030 H 101.088 -1.58009 -1.15123 0
M  V30 1031 H 99.7917 -2.87206 -2.93157 0
M  V30 1032 H 99.3227 -1.3458 -3.69664 0
M  V30 1033 H 101.338 -0.903691 -4.87901 0
M  V30 1034 N 100.511 1.16574 -1.06058 0
M  V30 1035 C 101.443 2.2045 -0.627239 0
M  V30 1036 C 102.456 1.59752 0.313534 0
M  V30 1037 O 103.645 1.78192 0.104896 0
M  V30 1038 C 100.745 3.3875 0.100974 0
M  V30 1039 C 99.9178 4.29008 -0.852687 0
M  V30 1040 C 98.9768 5.25944 -0.164152 0
M  V30 1041 O 98.0028 5.63535 -0.801047 0
M  V30 1042 N 99.2048 5.70075 1.09518 0
M  V30 1043 H 101.97 2.58249 -1.52077 0
M  V30 1044 H 99.5308 1.3156 -0.943594 0
M  V30 1045 H 101.523 4.00638 0.57194 0
M  V30 1046 H 100.093 2.99476 0.89628 0
M  V30 1047 H 99.3128 3.64419 -1.50308 0
M  V30 1048 H 100.601 4.86195 -1.49972 0
M  V30 1049 H 99.9988 5.41624 1.6328 0
M  V30 1050 H 98.5558 6.34067 1.51006 0
M  V30 1051 N 101.989 0.842826 1.3317 0
M  V30 1052 C 103.235 0.441099 1.97945 0
M  V30 1053 C 103.568 -0.998024 1.66593 0
M  V30 1054 O 102.843 -1.69839 0.947898 0
M  V30 1055 C 103.126 0.666841 3.53872 0
M  V30 1056 C 102.979 2.15352 3.94897 0
M  V30 1057 C 104.298 0.115544 4.39948 0
M  V30 1058 H 101.417 0.161739 0.719034 0
M  V30 1059 H 104.059 1.05907 1.57746 0
M  V30 1060 H 102.209 0.140828 3.88245 0
M  V30 1061 H 103.881 2.7447 3.70761 0
M  V30 1062 H 102.124 2.63653 3.44484 0
M  V30 1063 H 102.795 2.26221 5.03516 0
M  V30 1064 H 105.271 0.565213 4.12243 0
M  V30 1065 H 104.147 0.303152 5.48062 0
M  V30 1066 H 104.408 -0.980935 4.3108 0
M  V30 1067 N 103.467 -1.45747 0.599634 0
M  V30 1068 C 104.715 -2.01893 0.0915472 0
M  V30 1069 C 105.036 -1.47155 -1.27946 0
M  V30 1070 O 104.306 -0.66273 -1.84349 0
M  V30 1071 H 102.886 -0.746363 0.0308524 0
M  V30 1072 H 105.548 -1.78645 0.779237 0
M  V30 1073 H 104.644 -3.1208 0.0353086 0
M  V30 1074 N 104.945 -0.338344 -1.53925 0
M  V30 1075 C 106.222 0.314774 -1.93051 0
M  V30 1076 C 106.602 1.68669 -1.26941 0
M  V30 1077 O 105.95 2.24636 -0.418445 0
M  V30 1078 C 106.16 0.392249 -3.46789 0
M  V30 1079 C 107.508 0.645554 -4.19664 0
M  V30 1080 O 108.532 0.474575 -3.53024 0
M  V30 1081 O 107.391 0.976408 -5.37707 0
M  V30 1082 H 104.485 0.182598 -0.80659 0
M  V30 1083 H 107.031 -0.389141 -1.65178 0
M  V30 1084 H 105.803 -0.570702 -3.87116 0
M  V30 1085 H 105.426 1.14316 -3.80812 0
M  V30 1086 N 106.423 1.57458 -0.0668435 0
M  V30 1087 C 107.834 1.80776 0.466558 0
M  V30 1088 C 108.185 0.980361 1.69951 0
M  V30 1089 O 107.31 0.201441 2.1546 0
M  V30 1090 C 107.905 3.27881 0.85321 0
M  V30 1091 C 106.464 3.52062 1.3315 0
M  V30 1092 C 105.611 2.75513 0.314264 0
M  V30 1093 H 108.562 1.5598 -0.292588 0
M  V30 1094 H 108.583 3.39659 1.715 0
M  V30 1095 H 108.095 3.88075 -0.0443439 0
M  V30 1096 H 106.196 2.97167 2.24772 0
M  V30 1097 H 106.309 4.60762 1.31285 0
M  V30 1098 H 104.673 2.42123 0.790492 0
M  V30 1099 H 105.456 3.38442 -0.575477 0
M  V30 1100 N 107.901 -0.206675 1.56239 0
M  V30 1101 C 109.147 -0.930218 1.80208 0
M  V30 1102 C 109.48 -1.83387 0.638981 0
M  V30 1103 O 108.755 -1.91119 -0.361066 0
M  V30 1104 C 109.038 -1.75641 3.1436 0
M  V30 1105 C 108.891 -0.878257 4.41142 0
M  V30 1106 C 110.21 -2.73129 3.45092 0
M  V30 1107 H 107.329 -0.336742 0.655571 0
M  V30 1108 H 109.971 -0.198222 1.88963 0
M  V30 1109 H 108.121 -2.38048 3.07027 0
M  V30 1110 H 109.793 -0.269787 4.6051 0
M  V30 1111 H 108.036 -0.184385 4.33408 0
M  V30 1112 H 108.707 -1.49106 5.3148 0
M  V30 1113 H 111.183 -2.20856 3.52649 0
M  V30 1114 H 110.059 -3.28028 4.40101 0
M  V30 1115 H 110.32 -3.51606 2.68003 0
M  V30 1116 N 109.379 -1.50304 -0.473955 0
M  V30 1117 C 110.309 -1.71886 -1.58042 0
M  V30 1118 C 111.29 -0.567799 -1.60344 0
M  V30 1119 O 112.475 -0.806623 -1.76656 0
M  V30 1120 C 109.605 -1.81036 -2.96384 0
M  V30 1121 C 108.559 -2.962 -3.08949 0
M  V30 1122 C 107.885 -2.9049 -4.48909 0
M  V30 1123 C 109.185 -4.36752 -2.86434 0
M  V30 1124 H 110.879 -2.64527 -1.40234 0
M  V30 1125 H 108.425 -1.27295 -0.673201 0
M  V30 1126 H 110.378 -1.94719 -3.73714 0
M  V30 1127 H 109.102 -0.850147 -3.15341 0
M  V30 1128 H 107.761 -2.82164 -2.3405 0
M  V30 1129 H 107.409 -1.92321 -4.64781 0
M  V30 1130 H 107.109 -3.67802 -4.58253 0
M  V30 1131 H 108.633 -3.06218 -5.28264 0
M  V30 1132 H 110.047 -4.5133 -3.53517 0
M  V30 1133 H 108.444 -5.15493 -3.07225 0
M  V30 1134 H 109.514 -4.49321 -1.82316 0
M  V30 1135 N 110.857 0.726932 -1.39834 0
M  V30 1136 C 112.273 1.03354 -1.21615 0
M  V30 1137 C 112.473 2.01327 -0.08338 0
M  V30 1138 O 111.529 2.46158 0.56238 0
M  V30 1139 C 112.842 1.58811 -2.55342 0
M  V30 1140 C 114.39 1.70851 -2.62257 0
M  V30 1141 C 114.865 2.29716 -3.96225 0
M  V30 1142 N 116.356 2.37116 -3.97907 0
M  V30 1143 C 117.091 2.83619 -4.98345 0
M  V30 1144 N 116.587 3.29958 -6.09179 0
M  V30 1145 N 118.38 2.82901 -4.8572 0
M  V30 1146 H 110.531 0.0773069 -2.12259 0
M  V30 1147 H 112.794 0.0969102 -0.943034 0
M  V30 1148 H 112.5 0.942855 -3.38826 0
M  V30 1149 H 112.374 2.57502 -2.75632 0
M  V30 1150 H 114.761 2.34497 -1.79152 0
M  V30 1151 H 114.842 0.707913 -2.45809 0
M  V30 1152 H 114.486 1.66696 -4.79765 0
M  V30 1153 H 114.416 3.30469 -4.09997 0
M  V30 1154 H 116.907 2.04374 -3.17868 0
M  V30 1155 H 117.22 3.63976 -6.8172 0
M  V30 1156 H 115.565 3.27946 -6.12761 0
M  V30 1157 H 118.756 2.46027 -3.98231 0
M  V30 1158 H 118.929 3.18827 -5.6414 0
M  V30 1159 N 112.336 1.25143 0.95797 0
M  V30 1160 C 113.584 1.09476 1.69881 0
M  V30 1161 C 113.905 -0.365502 1.91544 0
M  V30 1162 O 113.175 -1.25985 1.50015 0
M  V30 1163 H 111.755 0.402128 0.629525 0
M  V30 1164 H 114.417 1.57214 1.15194 0
M  V30 1165 H 113.513 1.60046 2.6794 0
M  V30 1166 N 113.814 -1.1601 1.06675 0
M  V30 1167 C 115.06 -1.86909 0.786945 0
M  V30 1168 C 115.393 -1.81717 -0.685018 0
M  V30 1169 O 114.668 -1.23551 -1.50218 0
M  V30 1170 C 114.951 -3.36313 1.28707 0
M  V30 1171 C 114.804 -3.50175 2.82308 0
M  V30 1172 C 116.123 -4.3084 0.898071 0
M  V30 1173 H 113.242 -0.678677 0.287343 0
M  V30 1174 H 115.884 -1.36336 1.32334 0
M  V30 1175 H 114.034 -3.79513 0.830768 0
M  V30 1176 H 115.706 -3.15886 3.36175 0
M  V30 1177 H 113.949 -2.91959 3.20847 0
M  V30 1178 H 114.62 -4.55116 3.12368 0
M  V30 1179 H 117.096 -3.95561 1.29114 0
M  V30 1180 H 115.972 -5.33876 1.27543 0
M  V30 1181 H 116.233 -4.41662 -0.196651 0
M  V30 1182 N 115.292 -0.849877 -1.32721 0
M  V30 1183 C 116.255 -0.296122 -2.27279 0
M  V30 1184 C 117.255 0.541458 -1.5141 0
M  V30 1185 O 118.445 0.353658 -1.70572 0
M  V30 1186 C 115.577 0.581579 -3.35902 0
M  V30 1187 H 116.77 -1.13064 -2.77771 0
M  V30 1188 H 114.323 -0.62383 -1.43311 0
M  V30 1189 H 115.058 1.43809 -2.9067 0
M  V30 1190 H 114.843 -0.0178814 -3.92096 0
M  V30 1191 H 116.333 0.961951 -4.0637 0
M  V30 1192 N 116.77 1.45427 -0.607355 0
M  V30 1193 C 117.733 2.28974 0.101693 0
M  V30 1194 C 118.733 1.39754 0.795329 0
M  V30 1195 O 119.923 1.61878 0.643527 0
M  V30 1196 C 117.055 3.20768 1.15414 0
M  V30 1197 H 118.248 2.93147 -0.632844 0
M  V30 1198 H 115.801 1.51945 -0.366391 0
M  V30 1199 H 116.536 2.61395 1.91945 0
M  V30 1200 H 116.321 3.86489 0.66098 0
M  V30 1201 H 117.811 3.83589 1.65073 0
M  V30 1202 N 118.248 0.346503 1.53744 0
M  V30 1203 C 119.659 -0.136779 1.86198 0
M  V30 1204 C 120.01 -1.49749 1.26766 0
M  V30 1205 O 119.135 -2.08417 0.582355 0
M  V30 1206 C 119.73 -0.254966 3.37839 0
M  V30 1207 C 118.289 -0.682482 3.70161 0
M  V30 1208 C 117.436 0.181981 2.76702 0
M  V30 1209 H 120.387 0.565994 1.48264 0
M  V30 1210 H 120.408 -1.08195 3.64793 0
M  V30 1211 H 119.92 0.735526 3.81066 0
M  V30 1212 H 118.021 -1.68189 3.3248 0
M  V30 1213 H 118.134 -0.470326 4.76786 0
M  V30 1214 H 116.498 -0.34615 2.52337 0
M  V30 1215 H 117.281 1.16966 3.2276 0
M  V30 1216 N 119.726 -1.57421 0.075193 0
M  V30 1217 C 120.972 -1.93905 -0.594025 0
M  V30 1218 C 121.305 -0.955701 -1.69056 0
M  V30 1219 O 120.58 0.0145373 -1.94495 0
M  V30 1220 C 120.863 -3.40638 -1.1678 0
M  V30 1221 C 120.716 -4.49733 -0.0776792 0
M  V30 1222 C 122.035 -3.88259 -2.07228 0
M  V30 1223 H 119.154 -0.705105 -0.214466 0
M  V30 1224 H 121.796 -1.8947 0.141854 0
M  V30 1225 H 119.946 -3.44549 -1.79494 0
M  V30 1226 H 121.618 -4.57942 0.555573 0
M  V30 1227 H 119.861 -4.29751 0.591286 0
M  V30 1228 H 120.532 -5.49549 -0.519603 0
M  V30 1229 H 123.008 -3.86376 -1.54445 0
M  V30 1230 H 121.884 -4.91533 -2.44308 0
M  V30 1231 H 122.145 -3.26396 -2.98191 0
M  V30 1232 N 121.204 0.198386 -1.56346 0
M  V30 1233 C 122.114 1.2664 -1.97483 0
M  V30 1234 C 123.13 1.49989 -0.882002 0
M  V30 1235 O 124.306 1.62668 -1.18748 0
M  V30 1236 C 121.371 2.59141 -2.30319 0
M  V30 1237 C 120.432 2.43892 -3.53292 0
M  V30 1238 C 119.665 3.70074 -3.84553 0
M  V30 1239 O 119.888 4.74101 -3.1715 0
M  V30 1240 O 118.822 3.658 -4.7799 0
M  V30 1241 H 122.648 0.947304 -2.88548 0
M  V30 1242 H 120.233 0.403123 -1.43859 0
M  V30 1243 H 122.115 3.37352 -2.5253 0
M  V30 1244 H 120.79 2.90684 -1.42423 0
M  V30 1245 H 119.697 1.63803 -3.36332 0
M  V30 1246 H 121.03 2.17282 -4.41644 0
M  V30 1247 N 122.682 1.50554 0.465978 0
M  V30 1248 C 124.098 1.38093 0.800154 0
M  V30 1249 C 124.298 0.440988 1.96615 0
M  V30 1250 O 123.354 -0.114499 2.5224 0
M  V30 1251 C 124.667 2.79565 1.10742 0
M  V30 1252 C 126.215 2.88516 1.21357 0
M  V30 1253 C 126.69 4.30833 1.55393 0
M  V30 1254 N 128.181 4.33807 1.62375 0
M  V30 1255 C 128.916 5.40927 1.90225 0
M  V30 1256 N 128.412 6.58247 2.16062 0
M  V30 1257 N 130.205 5.28376 1.9177 0
M  V30 1258 H 122.356 2.10237 -0.302366 0
M  V30 1259 H 124.619 0.945203 -0.0727746 0
M  V30 1260 H 124.325 3.50208 0.323661 0
M  V30 1261 H 124.199 3.17125 2.04234 0
M  V30 1262 H 126.586 2.1809 1.98799 0
M  V30 1263 H 126.667 2.54492 0.258321 0
M  V30 1264 H 126.311 5.01799 0.784889 0
M  V30 1265 H 126.241 4.62347 2.52076 0
M  V30 1266 H 128.732 3.49212 1.44427 0
M  V30 1267 H 129.045 7.3569 2.36601 0
M  V30 1268 H 127.39 6.61413 2.13444 0
M  V30 1269 H 130.581 4.35715 1.71085 0
M  V30 1270 H 130.754 6.11944 2.13139 0
M  V30 1271 N 124.16 -0.719506 1.40217 0
M  V30 1272 C 125.123 -1.8153 1.39927 0
M  V30 1273 C 126.123 -1.58095 0.293723 0
M  V30 1274 O 127.313 -1.65209 0.552429 0
M  V30 1275 C 124.445 -3.19561 1.18716 0
M  V30 1276 H 125.638 -1.83186 2.37451 0
M  V30 1277 H 123.191 -0.924746 1.26008 0
M  V30 1278 H 123.926 -3.23557 0.219366 0
M  V30 1279 H 123.711 -3.3797 1.98793 0
M  V30 1280 H 125.201 -3.99598 1.21291 0
M  V30 1281 N 125.638 -1.25649 -0.95132 0
M  V30 1282 C 126.57 -1.02112 -2.05197 0
M  V30 1283 C 127.583 0.0150571 -1.62793 0
M  V30 1284 O 128.772 -0.223874 -1.77091 0
M  V30 1285 C 125.872 -0.522361 -3.3485 0
M  V30 1286 C 125.045 -1.62546 -4.06076 0
M  V30 1287 C 124.104 -1.12649 -5.14001 0
M  V30 1288 O 123.13 -1.82156 -5.39266 0
M  V30 1289 N 124.332 0.03047 -5.80492 0
M  V30 1290 H 127.097 -1.96885 -2.25957 0
M  V30 1291 H 124.658 -1.16899 -1.1201 0
M  V30 1292 H 126.65 -0.172961 -4.0433 0
M  V30 1293 H 125.22 0.33151 -3.10837 0
M  V30 1294 H 124.44 -2.14628 -3.30649 0
M  V30 1295 H 125.728 -2.36644 -4.50419 0
M  V30 1296 H 125.126 0.611169 -5.62389 0
M  V30 1297 H 123.683 0.320875 -6.5101 0
M  V30 1298 N 127.117 1.15442 -1.07289 0
M  V30 1299 C 128.047 2.22312 -0.714107 0
M  V30 1300 C 129.028 1.67467 0.298155 0
M  V30 1301 O 130.213 1.93445 0.171048 0
M  V30 1302 C 127.343 3.47124 -0.110448 0
M  V30 1303 C 126.297 4.14926 -1.04979 0
M  V30 1304 C 125.623 5.33807 -0.308924 0
M  V30 1305 C 126.923 4.64762 -2.38314 0
M  V30 1306 H 128.617 2.5258 -1.6076 0
M  V30 1307 H 126.163 1.21404 -0.77441 0
M  V30 1308 H 128.116 4.21124 0.152482 0
M  V30 1309 H 126.84 3.16187 0.81812 0
M  V30 1310 H 125.499 3.42866 -1.29764 0
M  V30 1311 H 125.147 4.99126 0.623084 0
M  V30 1312 H 124.847 5.80113 -0.935036 0
M  V30 1313 H 126.371 6.10576 -0.0537771 0
M  V30 1314 H 127.785 5.30292 -2.1786 0
M  V30 1315 H 126.182 5.21728 -2.96514 0
M  V30 1316 H 127.252 3.80434 -3.00663 0
M  V30 1317 N 128.595 0.856903 1.32268 0
M  V30 1318 C 129.843 0.460474 1.96784 0
M  V30 1319 C 130.164 -0.987701 1.68135 0
M  V30 1320 O 129.434 -1.69058 0.989765 0
M  V30 1321 H 128.014 0.167289 0.728027 0
M  V30 1322 H 130.676 1.09383 1.61312 0
M  V30 1323 H 129.772 0.60739 3.06133 0
M  V30 1324 N 130.073 -1.45103 0.615059 0
M  V30 1325 C 131.321 -2.01784 0.112955 0
M  V30 1326 C 131.642 -1.48504 -1.26378 0
M  V30 1327 O 130.912 -0.682245 -1.83636 0
M  V30 1328 H 129.492 -0.745993 0.0387668 0
M  V30 1329 H 132.154 -1.77808 0.798141 0
M  V30 1330 H 131.25 -3.12025 0.0684069 0
M  V30 1331 N 131.551 -0.354651 -1.53558 0
M  V30 1332 C 132.962 0.126902 -1.86268 0
M  V30 1333 C 133.313 1.49075 -1.27558 0
M  V30 1334 O 132.438 2.08105 -0.5934 0
M  V30 1335 C 133.033 0.237046 -3.3797 0
M  V30 1336 C 131.592 0.662842 -3.70518 0
M  V30 1337 C 130.739 -0.196652 -2.76602 0
M  V30 1338 H 133.69 -0.573849 -1.47962 0
M  V30 1339 H 133.711 1.06259 -3.65362 0
M  V30 1340 H 133.223 -0.755725 -3.80671 0
M  V30 1341 H 131.324 1.66424 -3.33367 0
M  V30 1342 H 131.437 0.445034 -4.77029 0
M  V30 1343 H 129.801 0.332763 -2.52517 0
M  V30 1344 H 130.584 -1.18676 -3.22135 0
M  V30 1345 N 133.029 1.57378 -0.0835403 0
M  V30 1346 C 133.939 2.16897 0.894021 0
M  V30 1347 C 134.955 1.13528 1.31861 0
M  V30 1348 O 136.131 1.45848 1.3889 0
M  V30 1349 C 133.196 2.72831 2.13925 0
M  V30 1350 C 132.257 3.91115 1.76997 0
M  V30 1351 C 131.49 4.44371 2.95584 0
M  V30 1352 O 131.713 3.96596 4.09961 0
M  V30 1353 O 130.647 5.35549 2.74719 0
M  V30 1354 H 134.473 3.00814 0.417679 0
M  V30 1355 H 132.058 1.48741 0.140181 0
M  V30 1356 H 133.94 3.0863 2.86924 0
M  V30 1357 H 132.615 1.91967 2.60635 0
M  V30 1358 H 131.522 3.60148 1.01214 0
M  V30 1359 H 132.855 4.73307 1.3506 0
M  V30 1360 N 134.507 -0.190092 1.56449 0
M  V30 1361 C 135.437 -1.23816 1.97969 0
M  V30 1362 C 136.418 -1.47201 0.852395 0
M  V30 1363 O 137.603 -1.58854 1.1171 0
M  V30 1364 C 134.733 -2.5813 2.3235 0
M  V30 1365 C 133.687 -2.49348 3.47864 0
M  V30 1366 C 133.013 -3.8798 3.67934 0
M  V30 1367 C 134.313 -2.01424 4.81898 0
M  V30 1368 H 136.007 -0.89311 2.85769 0
M  V30 1369 H 133.553 -0.428177 1.37487 0
M  V30 1370 H 135.506 -3.31637 2.59991 0
M  V30 1371 H 134.23 -2.94386 1.41438 0
M  V30 1372 H 132.889 -1.78297 3.20321 0
M  V30 1373 H 132.537 -4.21597 2.74344 0
M  V30 1374 H 132.237 -3.82978 4.45648 0
M  V30 1375 H 133.761 -4.63101 3.97957 0
M  V30 1376 H 135.175 -2.64693 5.08538 0
M  V30 1377 H 133.572 -2.07413 5.63116 0
M  V30 1378 H 134.642 -0.967677 4.75146 0
M  V30 1379 N 135.985 -1.50799 -0.457987 0
M  V30 1380 C 136.917 -1.66786 -1.57211 0
M  V30 1381 C 137.93 -0.548962 -1.53265 0
M  V30 1382 O 139.119 -0.8226 -1.58416 0
M  V30 1383 C 136.219 -1.64834 -2.96113 0
M  V30 1384 C 135.392 -2.92971 -3.24787 0
M  V30 1385 C 134.451 -2.83485 -4.43309 0
M  V30 1386 O 133.477 -3.5744 -4.42973 0
M  V30 1387 N 134.679 -1.97929 -5.45714 0
M  V30 1388 H 137.444 -2.62889 -1.43909 0
M  V30 1389 H 135.005 -1.48427 -0.646617 0
M  V30 1390 H 136.997 -1.56084 -3.7339 0
M  V30 1391 H 135.567 -0.764118 -3.03117 0
M  V30 1392 H 134.787 -3.15749 -2.36 0
M  V30 1393 H 136.075 -3.77834 -3.40762 0
M  V30 1394 H 135.473 -1.37182 -5.48815 0
M  V30 1395 H 134.03 -1.95073 -6.21924 0
M  V30 1396 N 137.463 0.71206 -1.40597 0
M  V30 1397 C 138.879 1.02058 -1.22704 0
M  V30 1398 C 139.079 2.01228 -0.104729 0
M  V30 1399 O 138.135 2.4674 0.53624 0
M  V30 1400 C 139.448 1.56094 -2.57012 0
M  V30 1401 C 140.996 1.6806 -2.64054 0
M  V30 1402 C 141.471 2.25501 -3.9864 0
M  V30 1403 N 142.962 2.32882 -4.004 0
M  V30 1404 C 143.697 2.78317 -5.01325 0
M  V30 1405 N 143.193 3.23478 -6.12645 0
M  V30 1406 N 144.986 2.77733 -4.88693 0
M  V30 1407 H 137.137 0.0547896 -2.12329 0
M  V30 1408 H 139.4 0.0869027 -0.944008 0
M  V30 1409 H 139.106 0.906865 -3.39807 0
M  V30 1410 H 138.98 2.54564 -2.78347 0
M  V30 1411 H 141.367 2.32583 -1.81629 0
M  V30 1412 H 141.448 0.681802 -2.46546 0
M  V30 1413 H 141.092 1.61598 -4.81506 0
M  V30 1414 H 141.022 3.26102 -4.13479 0
M  V30 1415 H 143.513 2.00991 -3.20017 0
M  V30 1416 H 143.826 3.56725 -6.85542 0
M  V30 1417 H 142.171 3.21429 -6.16205 0
M  V30 1418 H 145.362 2.4179 -4.00818 0
M  V30 1419 H 145.535 3.12826 -5.67489 0
M  V30 1420 N 138.941 1.26152 0.944643 0
M  V30 1421 C 139.871 1.09902 2.06019 0
M  V30 1422 C 140.852 0.00519538 1.70099 0
M  V30 1423 O 142.037 0.176583 1.93396 0
M  V30 1424 C 139.167 0.727562 3.39594 0
M  V30 1425 C 138.121 1.77274 3.89561 0
M  V30 1426 C 137.447 1.25569 5.19747 0
M  V30 1427 C 138.747 3.17357 4.14827 0
M  V30 1428 H 140.441 2.03217 2.19871 0
M  V30 1429 H 137.987 0.978452 1.05652 0
M  V30 1430 H 139.94 0.600777 4.17095 0
M  V30 1431 H 138.664 -0.241287 3.25707 0
M  V30 1432 H 137.323 1.88814 3.14237 0
M  V30 1433 H 136.971 0.276783 5.02238 0
M  V30 1434 H 136.671 1.95433 5.54148 0
M  V30 1435 H 138.195 1.1415 5.99835 0
M  V30 1436 H 139.609 3.08914 4.82954 0
M  V30 1437 H 138.006 3.84781 4.60504 0
M  V30 1438 H 139.076 3.63673 3.20734 0
M  V30 1439 N 140.419 -1.14872 1.07899 0
M  V30 1440 C 141.647 -1.89661 0.82683 0
M  V30 1441 C 142.062 -1.78312 -0.620519 0
M  V30 1442 O 141.419 -1.13888 -1.42604 0
M  V30 1443 C 141.47 -3.39817 1.23316 0
M  V30 1444 O 141.191 -3.50845 2.62372 0
M  V30 1445 C 142.692 -4.31615 1.0111 0
M  V30 1446 H 139.912 -0.60092 0.298557 0
M  V30 1447 H 142.456 -1.4551 1.43691 0
M  V30 1448 H 140.611 -3.8161 0.667286 0
M  V30 1449 H 141.025 -4.44076 2.79101 0
M  V30 1450 H 142.499 -5.35367 1.34486 0
M  V30 1451 H 142.976 -4.39169 -0.0522168 0
M  V30 1452 H 143.582 -3.95572 1.56215 0
M  V30 1453 N 141.898 -0.863906 -1.31812 0
M  V30 1454 C 142.83 -0.272485 -2.27575 0
M  V30 1455 C 143.843 0.56104 -1.52827 0
M  V30 1456 O 145.032 0.384021 -1.7432 0
M  V30 1457 C 142.132 0.63283 -3.32939 0
M  V30 1458 C 141.305 -0.166902 -4.37081 0
M  V30 1459 C 140.364 0.665608 -5.21973 0
M  V30 1460 O 139.39 0.0958091 -5.69119 0
M  V30 1461 N 140.592 1.9787 -5.45736 0
M  V30 1462 H 143.357 -1.0954 -2.78964 0
M  V30 1463 H 140.918 -0.724791 -1.4477 0
M  V30 1464 H 142.91 1.19532 -3.86645 0
M  V30 1465 H 141.48 1.35642 -2.81638 0
M  V30 1466 H 140.7 -0.910838 -3.83533 0
M  V30 1467 H 141.988 -0.715874 -5.03739 0
M  V30 1468 H 141.386 2.46484 -5.09178 0
M  V30 1469 H 139.943 2.48911 -6.024 0
M  V30 1470 N 143.376 1.44774 -0.622745 0
M  V30 1471 C 144.792 1.56986 -0.287652 0
M  V30 1472 C 144.992 1.61167 1.20944 0
M  V30 1473 O 144.048 1.55015 1.99315 0
M  V30 1474 C 145.361 2.84551 -0.972188 0
M  V30 1475 C 146.909 2.9825 -0.949536 0
M  V30 1476 C 147.384 4.28605 -1.61437 0
M  V30 1477 N 148.875 4.35399 -1.58057 0
M  V30 1478 C 149.61 5.34964 -2.064 0
M  V30 1479 N 149.106 6.40981 -2.62897 0
M  V30 1480 N 150.899 5.26419 -1.97078 0
M  V30 1481 H 143.05 1.40304 -1.59463 0
M  V30 1482 H 145.313 0.671794 -0.668878 0
M  V30 1483 H 145.019 2.87417 -2.02693 0
M  V30 1484 H 144.893 3.73807 -0.504771 0
M  V30 1485 H 147.28 2.94941 0.0967067 0
M  V30 1486 H 147.361 2.10364 -1.45536 0
M  V30 1487 H 147.005 4.32672 -2.66002 0
M  V30 1488 H 146.935 5.15334 -1.08344 0
M  V30 1489 H 149.426 3.59397 -1.16801 0
M  V30 1490 H 149.739 7.13225 -2.97539 0
M  V30 1491 H 148.084 6.4169 -2.66943 0
M  V30 1492 H 151.275 4.42504 -1.52669 0
M  V30 1493 H 151.448 6.03861 -2.35066 0
M  V30 1494 N 144.854 0.36279 1.53368 0
M  V30 1495 C 145.784 -0.476976 2.28576 0
M  V30 1496 C 146.765 -1.08631 1.30894 0
M  V30 1497 O 147.95 -1.10409 1.59761 0
M  V30 1498 C 145.08 -1.61828 3.07293 0
M  V30 1499 C 144.034 -1.13633 4.1264 0
M  V30 1500 C 143.36 -2.36766 4.79423 0
M  V30 1501 C 144.66 -0.223061 5.21823 0
M  V30 1502 H 146.354 0.150474 2.99022 0
M  V30 1503 H 143.9 0.0738103 1.43811 0
M  V30 1504 H 145.853 -2.21237 3.58653 0
M  V30 1505 H 144.577 -2.27292 2.34533 0
M  V30 1506 H 143.236 -0.564945 3.62221 0
M  V30 1507 H 142.884 -3.0068 4.03238 0
M  V30 1508 H 142.584 -2.05192 5.50609 0
M  V30 1509 H 144.108 -2.96865 5.33576 0
M  V30 1510 H 145.522 -0.724545 5.68703 0
M  V30 1511 H 143.919 0.001678 6.001 0
M  V30 1512 H 144.989 0.735553 4.79289 0
M  V30 1513 N 146.332 -1.57332 0.0918853 0
M  V30 1514 C 147.578 -1.94524 -0.573425 0
M  V30 1515 C 147.911 -0.973578 -1.68033 0
M  V30 1516 O 147.186 -0.00609226 -1.94499 0
M  V30 1517 C 147.469 -3.41858 -1.13161 0
M  V30 1518 C 147.322 -4.4979 -0.0299747 0
M  V30 1519 C 148.641 -3.90435 -2.03098 0
M  V30 1520 H 145.76 -0.70734 -0.206975 0
M  V30 1521 H 148.402 -1.89309 0.161942 0
M  V30 1522 H 146.552 -3.46433 -1.7583 0
M  V30 1523 H 148.224 -4.57327 0.604112 0
M  V30 1524 H 146.467 -4.291 0.636833 0
M  V30 1525 H 147.138 -5.50069 -0.461287 0
M  V30 1526 H 149.614 -3.87992 -1.50338 0
M  V30 1527 H 148.49 -4.94097 -2.39081 0
M  V30 1528 H 148.751 -3.29541 -2.94712 0
M  V30 1529 N 147.81 0.181792 -1.56548 0
M  V30 1530 C 148.742 1.24956 -1.92142 0
M  V30 1531 C 149.755 1.41022 -0.813422 0
M  V30 1532 O 150.944 1.41212 -1.09186 0
M  V30 1533 C 148.044 2.61981 -2.14987 0
M  V30 1534 C 147.217 2.6735 -3.46183 0
M  V30 1535 C 146.276 3.85664 -3.5798 0
M  V30 1536 O 145.302 3.72148 -4.30691 0
M  V30 1537 N 146.504 5.01683 -2.92053 0
M  V30 1538 H 149.269 0.947329 -2.84334 0
M  V30 1539 H 146.83 0.371629 -1.57577 0
M  V30 1540 H 148.822 3.3958 -2.20154 0
M  V30 1541 H 147.392 2.84637 -1.2923 0
M  V30 1542 H 146.612 1.75925 -3.52766 0
M  V30 1543 H 147.9 2.67939 -4.32534 0
M  V30 1544 H 147.298 5.15564 -2.32832 0
M  V30 1545 H 145.855 5.77181 -3.0283 0
M  V30 1546 N 149.288 1.51039 0.449983 0
M  V30 1547 C 150.534 1.63322 1.20223 0
M  V30 1548 C 150.867 0.34241 1.91158 0
M  V30 1549 O 150.142 -0.657344 1.83055 0
M  V30 1550 C 150.425 2.82801 2.22925 0
M  V30 1551 C 150.278 4.21823 1.56157 0
M  V30 1552 C 151.597 2.97807 3.24035 0
M  V30 1553 H 148.716 0.594407 0.435718 0
M  V30 1554 H 151.358 1.83489 0.493136 0
M  V30 1555 H 149.508 2.65738 2.834 0
M  V30 1556 H 151.18 4.50526 0.991162 0
M  V30 1557 H 149.423 4.25105 0.864172 0
M  V30 1558 H 150.094 5.01391 2.30891 0
M  V30 1559 H 152.57 3.13497 2.73603 0
M  V30 1560 H 151.446 3.82992 3.93202 0
M  V30 1561 H 151.707 2.09328 3.89402 0
M  V30 1562 N 150.766 -0.704594 1.40972 0
M  V30 1563 C 151.699 -1.82861 1.36518 0
M  V30 1564 C 152.677 -1.6091 0.23382 0
M  V30 1565 O 153.861 -1.83778 0.419271 0
M  V30 1566 C 150.988 -3.1939 1.12729 0
M  V30 1567 C 150.034 -3.60148 2.28463 0
M  V30 1568 S 150.867 -3.65994 3.90907 0
M  V30 1569 C 152.023 -5.05264 3.69403 0
M  V30 1570 H 152.256 -1.86361 2.3164 0
M  V30 1571 H 149.789 -0.872439 1.27389 0
M  V30 1572 H 151.747 -3.98211 0.996893 0
M  V30 1573 H 150.408 -3.1351 0.192427 0
M  V30 1574 H 149.601 -4.59309 2.07489 0
M  V30 1575 H 149.203 -2.88612 2.37863 0
M  V30 1576 H 151.495 -5.92504 3.28551 0
M  V30 1577 H 152.438 -5.31278 4.68134 0
M  V30 1578 H 152.846 -4.76377 3.02862 0
M  V30 1579 N 152.244 -1.26651 -0.937939 0
M  V30 1580 C 153.66 -1.03834 -1.21205 0
M  V30 1581 C 153.86 0.234502 -2.00131 0
M  V30 1582 O 152.916 0.942767 -2.3424 0
M  V30 1583 C 154.229 -2.27167 -1.97017 0
M  V30 1584 C 155.777 -2.32101 -2.09996 0
M  V30 1585 C 156.252 -3.55136 -2.8921 0
M  V30 1586 N 157.743 -3.55632 -2.96783 0
M  V30 1587 C 158.478 -4.475 -3.58512 0
M  V30 1588 N 157.974 -5.4966 -4.21717 0
M  V30 1589 N 159.767 -4.35145 -3.55816 0
M  V30 1590 H 151.918 -2.08398 -0.410391 0
M  V30 1591 H 154.181 -0.916031 -0.244114 0
M  V30 1592 H 153.887 -3.19765 -1.46434 0
M  V30 1593 H 153.761 -2.31672 -2.97671 0
M  V30 1594 H 156.148 -1.40015 -2.59769 0
M  V30 1595 H 156.229 -2.31605 -1.08594 0
M  V30 1596 H 155.873 -4.47553 -2.40123 0
M  V30 1597 H 155.803 -3.5288 -3.90875 0
M  V30 1598 H 158.294 -2.81743 -2.51852 0
M  V30 1599 H 158.607 -6.15943 -4.66727 0
M  V30 1600 H 156.952 -5.53514 -4.20294 0
M  V30 1601 H 160.143 -3.5455 -3.05634 0
M  V30 1602 H 160.316 -5.06934 -4.03636 0
M  V30 1603 N 153.722 1.14298 -1.08507 0
M  V30 1604 C 155.138 1.37347 -0.812901 0
M  V30 1605 C 155.338 1.93052 0.577325 0
M  V30 1606 O 154.394 2.14389 1.33393 0
M  V30 1607 C 155.707 2.33359 -1.89642 0
M  V30 1608 C 157.255 2.46996 -1.92255 0
M  V30 1609 C 157.73 3.46309 -2.99724 0
M  V30 1610 N 159.221 3.53853 -2.98902 0
M  V30 1611 C 159.956 4.3055 -3.787 0
M  V30 1612 N 159.452 5.10482 -4.6838 0
M  V30 1613 N 161.245 4.25757 -3.66998 0
M  V30 1614 H 153.396 0.764867 -1.9815 0
M  V30 1615 H 155.659 0.398966 -0.859959 0
M  V30 1616 H 155.365 1.99565 -2.89597 0
M  V30 1617 H 155.239 3.33274 -1.76659 0
M  V30 1618 H 157.626 2.80081 -0.929445 0
M  V30 1619 H 157.707 1.47039 -2.09316 0
M  V30 1620 H 157.351 3.13957 -3.99241 0
M  V30 1621 H 157.281 4.46049 -2.79907 0
M  V30 1622 H 159.772 2.96812 -2.33904 0
M  V30 1623 H 160.085 5.66284 -5.25873 0
M  V30 1624 H 158.43 5.09747 -4.72422 0
M  V30 1625 H 161.621 3.62383 -2.96304 0
M  V30 1626 H 161.794 4.85279 -4.29427 0
M  V30 1627 N 155.201 0.870884 1.31352 0
M  V30 1628 C 156.617 0.562932 1.49343 0
M  V30 1629 C 156.817 -0.902725 1.80148 0
M  V30 1630 O 155.873 -1.68484 1.88067 0
M  V30 1631 C 157.186 1.46393 2.62659 0
M  V30 1632 C 158.734 1.46607 2.76542 0
M  V30 1633 C 159.209 2.35266 3.92955 0
M  V30 1634 N 160.7 2.33151 4.00243 0
M  V30 1635 C 161.435 2.98471 4.89594 0
M  V30 1636 N 160.931 3.72964 5.8384 0
M  V30 1637 N 162.724 2.87775 4.82848 0
M  V30 1638 H 154.875 1.81923 1.09626 0
M  V30 1639 H 157.138 0.777934 0.541777 0
M  V30 1640 H 156.844 2.50689 2.46674 0
M  V30 1641 H 156.718 1.16314 3.58819 0
M  V30 1642 H 159.105 0.43069 2.9194 0
M  V30 1643 H 159.186 1.8071 1.81046 0
M  V30 1644 H 158.83 3.38881 3.78315 0
M  V30 1645 H 158.76 1.98487 4.87761 0
M  V30 1646 H 161.251 1.79006 3.32814 0
M  V30 1647 H 161.564 4.19932 6.4875 0
M  V30 1648 H 159.909 3.77073 5.83816 0
M  V30 1649 H 163.1 2.29116 4.08195 0
M  V30 1650 H 163.273 3.38961 5.52277 0
M  V30 1651 N 156.679 -1.44442 0.630414 0
M  V30 1652 C 158.095 -1.56832 0.295973 0
M  V30 1653 C 158.295 -1.61806 -1.20088 0
M  V30 1654 O 157.351 -1.5607 -1.9849 0
M  V30 1655 C 158.664 -2.84031 0.987264 0
M  V30 1656 C 160.212 -2.97742 0.96534 0
M  V30 1657 C 160.687 -4.27743 1.63708 0
M  V30 1658 N 162.178 -4.34555 1.60364 0
M  V30 1659 C 162.913 -5.33862 2.09234 0
M  V30 1660 N 162.409 -6.39578 2.66292 0
M  V30 1661 N 164.202 -5.25366 1.99867 0
M  V30 1662 H 156.353 -1.39457 1.60205 0
M  V30 1663 H 158.616 -0.668237 0.672431 0
M  V30 1664 H 158.322 -2.86338 2.04215 0
M  V30 1665 H 158.196 -3.73534 0.524588 0
M  V30 1666 H 160.583 -2.94989 -0.0810639 0
M  V30 1667 H 160.664 -2.09589 1.4665 0
M  V30 1668 H 160.308 -4.31255 2.68293 0
M  V30 1669 H 160.238 -5.14752 1.11076 0
M  V30 1670 H 162.729 -3.58772 1.18705 0
M  V30 1671 H 163.042 -7.11637 3.01317 0
M  V30 1672 H 161.387 -6.40265 2.70343 0
M  V30 1673 H 164.578 -4.41688 1.55013 0
M  V30 1674 H 164.751 -6.02606 2.38265 0
M  V30 1675 N 158.157 -0.370918 -1.53173 0
M  V30 1676 C 159.397 0.217106 -2.03244 0
M  V30 1677 C 159.761 1.45558 -1.25207 0
M  V30 1678 O 160.962 2.11957 -1.65311 0
M  V30 1679 C 159.233 0.496664 -3.53932 0
M  V30 1680 S 160.792 1.0576 -4.25864 0
M  V30 1681 H 157.61 0.0627827 -0.708223 0
M  V30 1682 H 160.212 -0.515019 -1.88594 0
M  V30 1683 H 158.916 -0.412096 -4.08326 0
M  V30 1684 H 158.447 1.25772 -3.72753 0
M  V30 1685 H 160.462 2.34145 -4.37482 0
M  V30 1686 N 159.635 1.57281 -0.100228 0
M  V30 1687 C 160.881 1.94826 0.563101 0
M  V30 1688 C 161.214 0.982475 1.67514 0
M  V30 1689 O 160.489 0.0164069 1.94493 0
M  V30 1690 C 160.772 3.42453 1.11346 0
M  V30 1691 C 160.625 4.498 0.00612081 0
M  V30 1692 C 161.944 3.91506 2.01024 0
M  V30 1693 H 159.063 0.708428 0.203221 0
M  V30 1694 H 161.705 1.8922 -0.171979 0
M  V30 1695 H 159.855 3.47361 1.7399 0
M  V30 1696 H 161.527 4.57 -0.628357 0
M  V30 1697 H 159.77 4.28756 -0.659581 0
M  V30 1698 H 160.441 5.50306 0.432109 0
M  V30 1699 H 162.917 3.88784 1.48278 0
M  V30 1700 H 161.793 4.95358 2.36457 0
M  V30 1701 H 162.054 3.31099 2.92961 0
M  V30 1702 N 161.113 -0.173488 1.56642 0
M  V30 1703 C 162.361 -0.888706 1.81512 0
M  V30 1704 C 162.682 -1.82875 0.676872 0
M  V30 1705 O 161.952 -1.93536 -0.303414 0
M  V30 1706 H 160.532 -0.331164 0.669582 0
M  V30 1707 H 163.194 -0.173823 1.94123 0
M  V30 1708 H 162.29 -1.46691 2.75478 0
M  V30 1709 N 162.591 -1.51276 -0.441967 0
M  V30 1710 C 163.521 -1.752 -1.54361 0
M  V30 1711 C 164.502 -0.601682 -1.59103 0
M  V30 1712 O 165.687 -0.843913 -1.74905 0
M  V30 1713 C 162.817 -1.87282 -2.92477 0
M  V30 1714 C 161.771 -3.02687 -3.02596 0
M  V30 1715 C 161.097 -2.99947 -4.42647 0
M  V30 1716 C 162.397 -4.4273 -2.77106 0
M  V30 1717 H 164.091 -2.67442 -1.34592 0
M  V30 1718 H 161.637 -1.28694 -0.646048 0
M  V30 1719 H 163.59 -2.02602 -3.695 0
M  V30 1720 H 162.314 -0.916844 -3.13467 0
M  V30 1721 H 160.973 -2.87065 -2.28012 0
M  V30 1722 H 160.621 -2.02136 -4.60597 0
M  V30 1723 H 160.321 -3.77439 -4.50348 0
M  V30 1724 H 161.845 -3.17354 -5.2165 0
M  V30 1725 H 163.259 -4.58727 -3.43864 0
M  V30 1726 H 161.656 -5.21893 -2.96222 0
M  V30 1727 H 162.726 -4.53087 -1.72744 0
M  V30 1728 N 164.069 0.697108 -1.41344 0
M  V30 1729 C 165.294 1.49096 -1.44171 0
M  V30 1730 C 165.719 1.88038 -0.0481568 0
M  V30 1731 O 165.077 1.54525 0.948243 0
M  V30 1732 C 165.125 2.73088 -2.3549 0
M  V30 1733 O 164.229 3.70514 -1.81088 0
M  V30 1734 H 163.57 0.448801 -0.489361 0
M  V30 1735 H 166.1 0.856992 -1.85787 0
M  V30 1736 H 166.11 3.21413 -2.51312 0
M  V30 1737 H 164.785 2.44081 -3.36745 0
M  V30 1738 H 163.362 3.29441 -1.74708 0
M  V30 1739 N 165.547 1.27147 0.931209 0
M  V30 1740 C 166.51 1.09615 2.01289 0
M  V30 1741 C 167.51 0.0412581 1.60747 0
M  V30 1742 O 168.7 0.285545 1.71844 0
M  V30 1743 C 165.832 0.669447 3.34262 0
M  V30 1744 H 167.025 2.05662 2.18273 0
M  V30 1745 H 164.578 1.09885 1.11153 0
M  V30 1746 H 165.313 -0.292572 3.22978 0
M  V30 1747 H 165.098 1.43127 3.65044 0
M  V30 1748 H 166.588 0.568921 4.13706 0
M  V30 1749 N 167.025 -1.13721 1.09112 0
M  V30 1750 C 168.436 -1.6648 0.845068 0
M  V30 1751 C 168.787 -1.85911 -0.62701 0
M  V30 1752 O 167.912 -1.57556 -1.48341 0
M  V30 1753 C 168.507 -3.02413 1.52748 0
M  V30 1754 C 167.066 -3.52176 1.32849 0
M  V30 1755 C 166.213 -2.27492 1.58564 0
M  V30 1756 H 169.164 -0.976872 1.25072 0
M  V30 1757 H 169.185 -3.68223 0.958752 0
M  V30 1758 H 168.697 -2.88238 2.59885 0
M  V30 1759 H 166.798 -3.7156 0.278137 0
M  V30 1760 H 166.911 -4.32499 2.0611 0
M  V30 1761 H 165.275 -2.33923 1.00758 0
M  V30 1762 H 166.058 -2.15886 2.66924 0
M  V30 1763 N 168.503 -0.877838 -1.30888 0
M  V30 1764 C 169.435 -0.296607 -2.27273 0
M  V30 1765 C 170.448 0.544799 -1.53414 0
M  V30 1766 O 171.637 0.365511 -1.74718 0
M  V30 1767 C 168.737 0.597481 -3.33592 0
M  V30 1768 C 167.91 -0.213251 -4.3688 0
M  V30 1769 C 166.969 0.610208 -5.2265 0
M  V30 1770 O 165.995 0.035441 -5.69189 0
M  V30 1771 N 167.197 1.92071 -5.47804 0
M  V30 1772 H 169.962 -1.12492 -2.77787 0
M  V30 1773 H 167.523 -0.740105 -1.43993 0
M  V30 1774 H 169.515 1.15425 -3.87891 0
M  V30 1775 H 168.085 1.32647 -2.83061 0
M  V30 1776 H 167.305 -0.951466 -3.82545 0
M  V30 1777 H 168.593 -0.769262 -5.02951 0
M  V30 1778 H 167.991 2.4107 -5.11763 0
M  V30 1779 H 166.548 2.42508 -6.05007 0
M  V30 1780 N 169.982 1.44106 -0.638065 0
M  V30 1781 C 170.912 2.33448 0.0494287 0
M  V30 1782 C 171.893 1.48606 0.827672 0
M  V30 1783 O 173.078 1.77308 0.792173 0
M  V30 1784 C 170.208 3.31771 1.02691 0
M  V30 1785 C 169.162 4.26485 0.359823 0
M  V30 1786 C 168.488 5.14729 1.44769 0
M  V30 1787 C 169.788 5.17056 -0.738296 0
M  V30 1788 H 171.482 2.91183 -0.696636 0
M  V30 1789 H 169.028 1.40014 -0.336456 0
M  V30 1790 H 170.981 3.93161 1.51666 0
M  V30 1791 H 169.705 2.7226 1.80395 0
M  V30 1792 H 168.364 3.66437 -0.10934 0
M  V30 1793 H 168.012 4.51566 2.21578 0
M  V30 1794 H 167.712 5.78913 1.00668 0
M  V30 1795 H 169.236 5.78991 1.93911 0
M  V30 1796 H 170.65 5.72342 -0.331354 0
M  V30 1797 H 169.047 5.89879 -1.10286 0
M  V30 1798 H 170.117 4.57652 -1.60258 0
M  V30 1799 N 171.46 0.379036 1.52974 0
M  V30 1800 C 172.708 -0.206014 2.01047 0
M  V30 1801 C 173.029 -1.48175 1.26765 0
M  V30 1802 O 172.299 -1.92085 0.384743 0
M  V30 1803 H 170.879 -0.0791184 0.742798 0
M  V30 1804 H 173.541 0.508366 1.88153 0
M  V30 1805 H 172.637 -0.423501 3.09213 0
M  V30 1806 N 172.938 -1.57226 0.108567 0
M  V30 1807 C 174.184 -1.95121 -0.552761 0
M  V30 1808 C 174.517 -0.991345 -1.66991 0
M  V30 1809 O 173.792 -0.0267211 -1.94482 0
M  V30 1810 C 174.075 -3.43039 -1.09528 0
M  V30 1811 C 173.928 -4.49797 0.0177332 0
M  V30 1812 C 175.247 -3.92567 -1.98945 0
M  V30 1813 H 172.366 -0.709496 -0.199461 0
M  V30 1814 H 175.008 -1.89126 0.182011 0
M  V30 1815 H 173.158 -3.48279 -1.72146 0
M  V30 1816 H 174.83 -4.56661 0.652584 0
M  V30 1817 H 173.073 -4.284 0.682309 0
M  V30 1818 H 173.744 -5.50528 -0.402919 0
M  V30 1819 H 176.22 -3.89565 -1.46214 0
M  V30 1820 H 175.096 -4.96605 -2.33827 0
M  V30 1821 H 175.357 -3.32648 -2.91201 0
M  V30 1822 N 174.416 0.165178 -1.56732 0
M  V30 1823 C 175.827 0.727046 -1.71962 0
M  V30 1824 C 176.178 1.82508 -0.720078 0
M  V30 1825 O 175.303 2.16082 0.117242 0
M  V30 1826 C 175.898 1.32559 -3.11791 0
M  V30 1827 C 174.457 1.83422 -3.28684 0
M  V30 1828 C 173.604 0.715567 -2.67908 0
M  V30 1829 H 176.555 -0.0602896 -1.58585 0
M  V30 1830 H 176.576 2.19533 -3.10782 0
M  V30 1831 H 176.088 0.526195 -3.84516 0
M  V30 1832 H 174.189 2.65986 -2.60926 0
M  V30 1833 H 174.302 1.97543 -4.36478 0
M  V30 1834 H 172.666 1.13758 -2.27884 0
M  V30 1835 H 173.449 -0.0720836 -3.43224 0
M  V30 1836 N 175.894 1.51508 0.433938 0
M  V30 1837 C 177.31 1.39759 0.770682 0
M  V30 1838 C 177.51 0.482594 1.95636 0
M  V30 1839 O 176.566 -0.0609691 2.52426 0
M  V30 1840 C 177.879 2.81851 1.04787 0
M  V30 1841 C 179.427 2.91025 1.1521 0
M  V30 1842 C 179.902 4.34032 1.46219 0
M  V30 1843 N 181.393 4.37154 1.53136 0
M  V30 1844 C 182.128 5.4484 1.78709 0
M  V30 1845 N 181.624 6.62682 2.02051 0
M  V30 1846 N 183.417 5.32324 1.80519 0
M  V30 1847 H 175.568 2.09548 -0.346892 0
M  V30 1848 H 177.831 0.943446 -0.0928074 0
M  V30 1849 H 177.537 3.50815 0.249304 0
M  V30 1850 H 177.411 3.21386 1.97461 0
M  V30 1851 H 179.798 2.22257 1.94128 0
M  V30 1852 H 179.879 2.54983 0.204281 0
M  V30 1853 H 179.523 5.03351 0.678274 0
M  V30 1854 H 179.453 4.6759 2.42212 0
M  V30 1855 H 181.944 3.52197 1.36987 0
M  V30 1856 H 182.257 7.40543 2.20943 0
M  V30 1857 H 180.602 6.65791 1.99366 0
M  V30 1858 H 183.793 4.39246 1.61805 0
M  V30 1859 H 183.966 6.16328 2.00111 0
M  V30 1860 N 177.372 -0.689602 1.41712 0
M  V30 1861 C 178.304 -1.815 1.39966 0
M  V30 1862 C 179.317 -1.59995 0.300917 0
M  V30 1863 O 180.506 -1.69387 0.563039 0
M  V30 1864 C 177.606 -3.18364 1.16179 0
M  V30 1865 C 176.779 -3.66847 2.38206 0
M  V30 1866 C 175.838 -4.82398 2.10186 0
M  V30 1867 O 174.864 -4.93706 2.83272 0
M  V30 1868 N 176.066 -5.70064 1.0958 0
M  V30 1869 H 178.831 -1.83488 2.36965 0
M  V30 1870 H 176.392 -0.872149 1.36401 0
M  V30 1871 H 178.384 -3.93301 0.953756 0
M  V30 1872 H 176.954 -3.11365 0.27756 0
M  V30 1873 H 176.174 -2.82751 2.74673 0
M  V30 1874 H 177.462 -3.95978 3.19498 0
M  V30 1875 H 176.86 -5.63565 0.491019 0
M  V30 1876 H 175.417 -6.44874 0.947656 0
M  V30 1877 N 178.85 -1.27639 -0.924453 0
M  V30 1878 C 180.096 -1.14336 -1.67497 0
M  V30 1879 C 180.429 0.309465 -1.91718 0
M  V30 1880 O 179.704 1.22608 -1.50989 0
M  V30 1881 C 179.987 -1.93096 -3.0395 0
M  V30 1882 C 179.84 -3.46381 -2.8695 0
M  V30 1883 C 181.159 -1.73798 -4.0433 0
M  V30 1884 H 178.278 -0.416728 -0.607871 0
M  V30 1885 H 180.92 -1.56832 -1.07256 0
M  V30 1886 H 179.07 -1.56982 -3.55372 0
M  V30 1887 H 180.742 -3.92343 -2.42621 0
M  V30 1888 H 178.985 -3.72557 -2.22225 0
M  V30 1889 H 179.656 -3.96735 -3.83804 0
M  V30 1890 H 182.132 -2.05293 -3.61931 0
M  V30 1891 H 181.008 -2.31294 -4.97789 0
M  V30 1892 H 181.269 -0.686725 -4.36734 0
M  V30 1893 N 180.328 1.1314 -1.09713 0
M  V30 1894 C 181.258 2.20748 -0.761102 0
M  V30 1895 C 182.239 1.68061 0.262566 0
M  V30 1896 O 183.424 1.93765 0.129977 0
M  V30 1897 C 180.554 3.46812 -0.184054 0
M  V30 1898 C 179.508 4.12606 -1.13757 0
M  V30 1899 C 178.834 5.33031 -0.422083 0
M  V30 1900 C 180.134 4.59603 -2.48118 0
M  V30 1901 H 181.828 2.49113 -1.66082 0
M  V30 1902 H 179.374 1.19734 -0.799987 0
M  V30 1903 H 181.327 4.21353 0.0631215 0
M  V30 1904 H 180.051 3.17851 0.750868 0
M  V30 1905 H 178.71 3.40036 -1.37007 0
M  V30 1906 H 178.358 5.00335 0.517072 0
M  V30 1907 H 178.058 5.77999 -1.05788 0
M  V30 1908 H 179.582 6.10325 -0.183277 0
M  V30 1909 H 180.996 5.25552 -2.29059 0
M  V30 1910 H 179.393 5.15321 -3.07514 0
M  V30 1911 H 180.463 3.73971 -3.08665 0
M  V30 1912 N 181.806 0.884767 1.30421 0
M  V30 1913 C 182.769 0.356277 2.26414 0
M  V30 1914 C 183.769 -0.501124 1.52792 0
M  V30 1915 O 184.959 -0.30831 1.7145 0
M  V30 1916 C 182.091 -0.492316 3.37326 0
M  V30 1917 H 183.284 1.20389 2.74675 0
M  V30 1918 H 180.837 0.661607 1.41607 0
M  V30 1919 H 181.572 -1.36052 2.94381 0
M  V30 1920 H 181.357 0.121832 3.91911 0
M  V30 1921 H 182.847 -0.853871 4.08777 0
M  V30 1922 N 183.284 -1.43765 0.645699 0
M  V30 1923 C 184.214 -2.33471 -0.0370477 0
M  V30 1924 C 185.195 -1.49042 -0.819779 0
M  V30 1925 O 186.38 -1.77726 -0.782758 0
M  V30 1926 C 183.51 -3.32311 -1.0093 0
M  V30 1927 C 182.464 -4.2667 -0.337201 0
M  V30 1928 C 181.79 -5.1549 -1.42037 0
M  V30 1929 C 183.09 -5.16657 0.765706 0
M  V30 1930 H 184.784 -2.90809 0.712069 0
M  V30 1931 H 182.33 -1.39834 0.343876 0
M  V30 1932 H 184.283 -3.9396 -1.49578 0
M  V30 1933 H 183.007 -2.73213 -1.78948 0
M  V30 1934 H 181.666 -3.66374 0.128771 0
M  V30 1935 H 181.314 -4.52735 -2.1918 0
M  V30 1936 H 181.014 -5.79438 -0.975966 0
M  V30 1937 H 182.538 -5.80012 -1.90838 0
M  V30 1938 H 183.952 -5.72158 0.361702 0
M  V30 1939 H 182.349 -5.89286 1.13413 0
M  V30 1940 H 183.419 -4.56796 1.62683 0
M  V30 1941 N 184.763 -0.387143 -1.52771 0
M  V30 1942 C 185.673 0.456442 -2.30117 0
M  V30 1943 C 186.689 1.07342 -1.36944 0
M  V30 1944 O 187.865 1.07971 -1.70013 0
M  V30 1945 C 184.93 1.56957 -3.09136 0
M  V30 1946 C 183.991 0.977916 -4.18014 0
M  V30 1947 C 183.224 2.038 -4.93256 0
M  V30 1948 O 183.447 3.25271 -4.68567 0
M  V30 1949 O 182.381 1.6565 -5.78657 0
M  V30 1950 H 186.207 -0.17359 -3.03203 0
M  V30 1951 H 183.792 -0.150919 -1.48636 0
M  V30 1952 H 185.674 2.21628 -3.58412 0
M  V30 1953 H 184.349 2.18461 -2.38865 0
M  V30 1954 H 183.256 0.294525 -3.72939 0
M  V30 1955 H 184.589 0.407128 -4.90513 0
M  V30 1956 N 186.241 1.57166 -0.116904 0
M  V30 1957 C 187.171 2.18222 0.830759 0
M  V30 1958 C 188.152 1.12167 1.27877 0
M  V30 1959 O 189.337 1.40394 1.34176 0
M  V30 1960 C 186.467 2.77996 2.08172 0
M  V30 1961 C 185.421 3.89614 1.77157 0
M  V30 1962 C 184.747 4.36187 3.09265 0
M  V30 1963 C 186.047 5.1181 1.04151 0
M  V30 1964 H 187.741 2.97664 0.321992 0
M  V30 1965 H 185.287 1.4318 0.153434 0
M  V30 1966 H 187.24 3.19366 2.74924 0
M  V30 1967 H 185.964 1.9584 2.6137 0
M  V30 1968 H 184.623 3.48816 1.12796 0
M  V30 1969 H 184.271 3.50893 3.60393 0
M  V30 1970 H 183.971 5.11455 2.89288 0
M  V30 1971 H 185.495 4.80207 3.77139 0
M  V30 1972 H 186.909 5.50214 1.61052 0
M  V30 1973 H 185.306 5.92648 0.942762 0
M  V30 1974 H 186.376 4.84892 0.0279022 0
M  V30 1975 N 187.719 -0.156864 1.56817 0
M  V30 1976 C 189.13 -0.717916 1.72345 0
M  V30 1977 C 189.481 -1.82124 0.729747 0
M  V30 1978 O 188.606 -2.16141 -0.105781 0
M  V30 1979 C 189.201 -1.30904 3.12489 0
M  V30 1980 C 187.76 -1.81676 3.29653 0
M  V30 1981 C 186.907 -0.701349 2.68284 0
M  V30 1982 H 189.858 0.0686989 1.58551 0
M  V30 1983 H 189.879 -2.17882 3.11942 0
M  V30 1984 H 189.391 -0.505796 3.8479 0
M  V30 1985 H 187.492 -2.64598 2.62333 0
M  V30 1986 H 187.605 -1.95226 4.3752 0
M  V30 1987 H 185.969 -1.12548 2.28484 0
M  V30 1988 H 186.752 0.0902846 3.43181 0
M  V30 1989 N 189.197 -1.51736 -0.425897 0
M  V30 1990 C 190.107 -1.76738 -1.54275 0
M  V30 1991 C 191.123 -0.65211 -1.61318 0
M  V30 1992 O 192.299 -0.935654 -1.78346 0
M  V30 1993 C 189.364 -1.89755 -2.90162 0
M  V30 1994 C 188.425 -3.13633 -2.93143 0
M  V30 1995 C 187.658 -3.2602 -4.22548 0
M  V30 1996 O 187.881 -2.44067 -5.15546 0
M  V30 1997 O 186.815 -4.19071 -4.32046 0
M  V30 1998 H 190.641 -2.71502 -1.36089 0
M  V30 1999 H 188.226 -1.36376 -0.610069 0
M  V30 2000 H 190.108 -2.00236 -3.70788 0
M  V30 2001 H 188.783 -0.981785 -3.08452 0
M  V30 2002 H 187.69 -3.08622 -2.11431 0
M  V30 2003 H 189.023 -4.04936 -2.798 0
M  V30 2004 N 190.675 0.682077 -1.42076 0
M  V30 2005 C 191.638 1.77756 -1.44691 0
M  V30 2006 C 192.638 1.5726 -0.335535 0
M  V30 2007 O 193.828 1.63686 -0.596037 0
M  V30 2008 C 190.96 3.16301 -1.27146 0
M  V30 2009 H 192.153 1.76826 -2.42224 0
M  V30 2010 H 189.706 0.891012 -1.28416 0
M  V30 2011 H 190.441 3.22862 -0.305075 0
M  V30 2012 H 190.226 3.32581 -2.07683 0
M  V30 2013 H 191.716 3.96241 -1.31843 0
M  V30 2014 N 192.153 1.28127 0.917671 0
M  V30 2015 C 193.083 1.14248 2.03641 0
M  V30 2016 C 194.064 0.0412748 1.7005 0
M  V30 2017 O 195.249 0.217566 1.92977 0
M  V30 2018 C 192.379 0.799431 3.37974 0
M  V30 2019 C 191.333 1.85497 3.85713 0
M  V30 2020 C 190.659 1.36565 5.16966 0
M  V30 2021 C 191.959 3.26085 4.08002 0
M  V30 2022 H 193.653 2.07835 2.15511 0
M  V30 2023 H 191.199 1.00064 1.03553 0
M  V30 2024 H 193.152 0.689114 4.15727 0
M  V30 2025 H 191.876 -0.172145 3.26146 0
M  V30 2026 H 190.535 1.95437 3.10161 0
M  V30 2027 H 190.183 0.383253 5.01538 0
M  V30 2028 H 189.883 2.07143 5.49878 0
M  V30 2029 H 191.407 1.26848 5.97279 0
M  V30 2030 H 192.821 3.19089 4.76293 0
M  V30 2031 H 191.218 3.94462 4.52238 0
M  V30 2032 H 192.288 3.70394 3.12948 0
M  V30 2033 N 193.631 -1.12557 1.10312 0
M  V30 2034 C 194.871 -1.8568 0.854543 0
M  V30 2035 C 195.235 -1.82091 -0.608843 0
M  V30 2036 O 196.436 -2.50544 -0.973717 0
M  V30 2037 C 194.707 -3.2942 1.38626 0
M  V30 2038 S 196.266 -4.19931 1.27293 0
M  V30 2039 H 193.084 -0.640427 0.308827 0
M  V30 2040 H 195.686 -1.35599 1.40831 0
M  V30 2041 H 194.39 -3.2959 2.44537 0
M  V30 2042 H 193.921 -3.84566 0.82902 0
M  V30 2043 H 195.936 -4.95668 0.229776 0
M  V30 2044 N 195.109 -0.891671 -1.2995 0
M  V30 2045 C 196.525 -0.58662 -1.48428 0
M  V30 2046 C 196.725 0.873951 -1.81561 0
M  V30 2047 O 195.781 1.65471 -1.90724 0
M  V30 2048 C 197.094 -1.50553 -2.60296 0
M  V30 2049 C 198.642 -1.50988 -2.74175 0
M  V30 2050 C 199.117 -2.41488 -3.89163 0
M  V30 2051 N 200.608 -2.39489 -3.96483 0
M  V30 2052 C 201.343 -3.06223 -4.84784 0
M  V30 2053 N 200.839 -3.82206 -5.77833 0
M  V30 2054 N 202.632 -2.95421 -4.78208 0
M  V30 2055 H 194.783 -1.83644 -1.06718 0
M  V30 2056 H 197.046 -0.786455 -0.529332 0
M  V30 2057 H 196.752 -2.54581 -2.42654 0
M  V30 2058 H 196.626 -1.22008 -3.56923 0
M  V30 2059 H 199.013 -0.47708 -2.91218 0
M  V30 2060 H 199.094 -1.83567 -1.78148 0
M  V30 2061 H 198.738 -3.44857 -3.72876 0
M  V30 2062 H 198.668 -2.06222 -4.84541 0
M  V30 2063 H 201.159 -1.84278 -3.29924 0
M  V30 2064 H 201.472 -4.302 -6.41988 0
M  V30 2065 H 199.817 -3.86313 -5.77743 0
M  V30 2066 H 203.008 -2.35581 -4.04499 0
M  V30 2067 H 203.181 -3.47704 -5.46814 0
M  V30 2068 N 196.587 1.43421 -0.653314 0
M  V30 2069 C 197.497 2.34568 0.0388565 0
M  V30 2070 C 198.513 1.53888 0.81207 0
M  V30 2071 O 199.689 1.86539 0.759294 0
M  V30 2072 C 196.754 3.32167 0.993269 0
M  V30 2073 C 195.815 4.28751 0.216977 0
M  V30 2074 C 195.048 5.21688 1.12593 0
M  V30 2075 O 195.271 5.19052 2.36519 0
M  V30 2076 O 194.205 5.98919 0.598284 0
M  V30 2077 H 198.031 2.95251 -0.711386 0
M  V30 2078 H 195.616 1.43564 -0.413502 0
M  V30 2079 H 197.498 3.92183 1.54176 0
M  V30 2080 H 196.173 2.73987 1.72374 0
M  V30 2081 H 195.08 3.72215 -0.375101 0
M  V30 2082 H 196.413 4.89913 -0.473924 0
M  V30 2083 N 198.065 0.39524 1.52563 0
M  V30 2084 C 199.305 -0.184744 2.03563 0
M  V30 2085 C 199.669 -1.43548 1.27507 0
M  V30 2086 O 200.87 -2.093 1.68662 0
M  V30 2087 C 199.141 -0.440294 3.54678 0
M  V30 2088 S 200.7 -0.989712 4.27493 0
M  V30 2089 H 197.518 -0.0515075 0.709132 0
M  V30 2090 H 200.12 0.544957 1.87751 0
M  V30 2091 H 198.824 0.477005 4.07618 0
M  V30 2092 H 198.355 -1.19825 3.74707 0
M  V30 2093 H 200.37 -2.27155 4.41152 0
M  V30 2094 N 199.544 -1.57102 0.125237 0
M  V30 2095 C 200.955 -1.82384 -0.399142 0
M  V30 2096 C 201.306 -1.04276 -1.66195 0
M  V30 2097 O 200.431 -0.281269 -2.14564 0
M  V30 2098 C 201.026 -3.30821 -0.730932 0
M  V30 2099 C 199.585 -3.56762 -1.19992 0
M  V30 2100 C 198.732 -2.7649 -0.211792 0
M  V30 2101 H 201.683 -1.54786 0.350277 0
M  V30 2102 H 201.704 -3.4579 -1.58775 0
M  V30 2103 H 201.216 -3.87643 0.188345 0
M  V30 2104 H 199.317 -3.05305 -2.13588 0
M  V30 2105 H 199.43 -4.65317 -1.14093 0
M  V30 2106 H 197.794 -2.4489 -0.700085 0
M  V30 2107 H 198.577 -3.36073 0.700691 0
M  V30 2108 N 201.022 0.148545 -1.56898 0
M  V30 2109 C 202.433 0.708766 -1.72723 0
M  V30 2110 C 202.784 1.81734 -0.739395 0
M  V30 2111 O 201.909 2.16194 0.0943169 0
M  V30 2112 C 202.504 1.29245 -3.13179 0
M  V30 2113 C 201.063 1.79925 -3.30611 0
M  V30 2114 C 200.21 0.687111 -2.68652 0
M  V30 2115 H 203.161 -0.0771063 -1.58513 0
M  V30 2116 H 203.182 2.16224 -3.13093 0
M  V30 2117 H 202.694 0.485382 -3.85053 0
M  V30 2118 H 200.795 2.63203 -2.63732 0
M  V30 2119 H 200.908 1.92903 -4.38549 0
M  V30 2120 H 199.272 1.11335 -2.29078 0
M  V30 2121 H 200.055 -0.108483 -3.43129 0
M  V30 2122 N 202.5 1.5196 0.417844 0
M  V30 2123 C 203.916 1.40569 0.755816 0
M  V30 2124 C 204.116 0.503316 1.95113 0
M  V30 2125 O 203.172 -0.0341925 2.52477 0
M  V30 2126 C 204.485 2.82947 1.01791 0
M  V30 2127 C 206.033 2.92231 1.12116 0
M  V30 2128 C 206.508 4.35559 1.41608 0
M  V30 2129 N 207.999 4.38753 1.48491 0
M  V30 2130 C 208.734 5.46705 1.7292 0
M  V30 2131 N 208.23 6.64788 1.95011 0
M  V30 2132 N 210.023 5.34209 1.74863 0
M  V30 2133 H 202.174 2.09168 -0.369098 0
M  V30 2134 H 204.437 0.942409 -0.102809 0
M  V30 2135 H 204.143 3.5106 0.212081 0
M  V30 2136 H 204.017 3.23462 1.94042 0
M  V30 2137 H 206.404 2.24304 1.9176 0
M  V30 2138 H 206.485 2.55185 0.177225 0
M  V30 2139 H 206.129 5.04042 0.624848 0
M  V30 2140 H 206.059 4.70133 2.37239 0
M  V30 2141 H 208.55 3.5363 1.33244 0
M  V30 2142 H 208.863 7.42845 2.13076 0
M  V30 2143 H 207.208 6.67869 1.92293 0
M  V30 2144 H 210.399 4.40937 1.57137 0
M  V30 2145 H 210.572 6.18415 1.93563 0
M  V30 2146 N 203.978 -0.674533 1.42435 0
M  V30 2147 C 204.91 -1.80005 1.41883 0
M  V30 2148 C 205.923 -1.59667 0.31787 0
M  V30 2149 O 207.112 -1.68781 0.580973 0
M  V30 2150 C 204.212 -3.17114 1.19549 0
M  V30 2151 C 203.385 -3.64299 2.42084 0
M  V30 2152 C 202.444 -4.80142 2.15291 0
M  V30 2153 O 201.47 -4.90673 2.88493 0
M  V30 2154 N 202.672 -5.68869 1.1562 0
M  V30 2155 H 205.437 -1.80964 2.38898 0
M  V30 2156 H 202.998 -0.857633 1.37318 0
M  V30 2157 H 204.99 -3.92267 0.995417 0
M  V30 2158 H 203.56 -3.11053 0.310569 0
M  V30 2159 H 202.78 -2.79822 2.77657 0
M  V30 2160 H 204.068 -3.92567 3.23679 0
M  V30 2161 H 203.466 -5.63012 0.550765 0
M  V30 2162 H 202.023 -6.43833 1.016 0
M  V30 2163 N 205.456 -1.28612 -0.910864 0
M  V30 2164 C 206.872 -1.06381 -1.18976 0
M  V30 2165 C 207.072 0.191998 -2.00583 0
M  V30 2166 O 206.128 0.892869 -2.36187 0
M  V30 2167 C 207.441 -2.31295 -1.92154 0
M  V30 2168 C 208.989 -2.36503 -2.05025 0
M  V30 2169 C 209.464 -3.61191 -2.81612 0
M  V30 2170 N 210.955 -3.61847 -2.89172 0
M  V30 2171 C 211.69 -4.55004 -3.4894 0
M  V30 2172 N 211.186 -5.58482 -4.09963 0
M  V30 2173 N 212.979 -4.42594 -3.46506 0
M  V30 2174 H 205.13 -2.09221 -0.366094 0
M  V30 2175 H 207.393 -0.921003 -0.224629 0
M  V30 2176 H 207.099 -3.228 -1.39618 0
M  V30 2177 H 206.973 -2.37934 -2.9269 0
M  V30 2178 H 209.36 -1.45494 -2.5674 0
M  V30 2179 H 209.441 -2.33857 -1.03657 0
M  V30 2180 H 209.085 -4.52545 -2.30576 0
M  V30 2181 H 209.015 -3.61092 -3.83302 0
M  V30 2182 H 211.506 -2.87022 -2.45819 0
M  V30 2183 H 211.819 -6.25704 -4.53557 0
M  V30 2184 H 210.164 -5.62305 -4.08459 0
M  V30 2185 H 213.355 -3.60953 -2.98045 0
M  V30 2186 H 213.528 -5.15381 -3.92793 0
M  V30 2187 N 206.934 1.1197 -1.10907 0
M  V30 2188 C 207.897 2.16031 -0.765707 0
M  V30 2189 C 208.897 1.59393 0.212235 0
M  V30 2190 O 210.087 1.74196 -0.0115441 0
M  V30 2191 C 207.219 3.40632 -0.135053 0
M  V30 2192 H 208.412 2.47919 -1.68748 0
M  V30 2193 H 205.965 1.27061 -0.910226 0
M  V30 2194 H 206.7 3.14348 0.797218 0
M  V30 2195 H 206.485 3.8302 -0.838937 0
M  V30 2196 H 207.975 4.17505 0.0892469 0
M  V30 2197 N 208.412 0.89855 1.29475 0
M  V30 2198 C 209.342 0.39201 2.30186 0
M  V30 2199 C 210.323 -0.532359 1.61555 0
M  V30 2200 O 211.508 -0.443331 1.89072 0
M  V30 2201 C 208.638 -0.382353 3.45189 0
M  V30 2202 C 207.592 0.451483 4.25612 0
M  V30 2203 C 206.918 -0.450307 5.328 0
M  V30 2204 C 208.218 1.70079 4.93832 0
M  V30 2205 H 209.912 1.23362 2.72804 0
M  V30 2206 H 207.458 0.594638 1.31149 0
M  V30 2207 H 209.411 -0.747451 4.14718 0
M  V30 2208 H 208.135 -1.25774 3.01411 0
M  V30 2209 H 206.794 0.798897 3.57789 0
M  V30 2210 H 206.442 -1.32379 4.85268 0
M  V30 2211 H 206.142 0.103902 5.87508 0
M  V30 2212 H 207.666 -0.811623 6.05182 0
M  V30 2213 H 209.08 1.40549 5.55805 0
M  V30 2214 H 207.477 2.19623 5.58467 0
M  V30 2215 H 208.547 2.43744 4.19186 0
M  V30 2216 N 209.89 -1.43072 0.660911 0
M  V30 2217 C 211.306 -1.56169 0.329173 0
M  V30 2218 C 211.506 -1.64317 -1.16629 0
M  V30 2219 O 210.562 -1.60245 -1.95135 0
M  V30 2220 C 211.875 -2.81873 1.04729 0
M  V30 2221 C 213.423 -2.95627 1.02828 0
M  V30 2222 C 213.898 -4.24174 1.72744 0
M  V30 2223 N 215.389 -4.31055 1.69545 0
M  V30 2224 C 216.124 -5.29304 2.20511 0
M  V30 2225 N 215.62 -6.33786 2.79799 0
M  V30 2226 N 217.413 -5.21008 2.10966 0
M  V30 2227 H 209.564 -1.36027 1.63127 0
M  V30 2228 H 211.827 -0.653823 0.686454 0
M  V30 2229 H 211.533 -2.81942 2.10242 0
M  V30 2230 H 211.407 -3.72338 0.603702 0
M  V30 2231 H 213.794 -2.95094 -0.0184742 0
M  V30 2232 H 213.875 -2.06431 1.51063 0
M  V30 2233 H 213.519 -4.25467 2.7738 0
M  V30 2234 H 213.449 -5.1228 1.2197 0
M  V30 2235 H 215.94 -3.56174 1.26288 0
M  V30 2236 H 216.253 -7.05086 3.16344 0
M  V30 2237 H 214.598 -6.34387 2.83863 0
M  V30 2238 H 217.789 -4.38301 1.64347 0
M  V30 2239 H 217.962 -5.97416 2.50993 0
M  V30 2240 N 211.368 -0.403325 -1.52352 0
M  V30 2241 C 212.3 0.4603 -2.2453 0
M  V30 2242 C 213.313 1.01505 -1.27282 0
M  V30 2243 O 214.502 0.914982 -1.53266 0
M  V30 2244 C 211.602 1.65208 -2.95905 0
M  V30 2245 C 210.775 1.22224 -4.19976 0
M  V30 2246 C 209.834 2.28028 -4.74226 0
M  V30 2247 O 208.86 1.88857 -5.36956 0
M  V30 2248 N 210.062 3.6012 -4.55295 0
M  V30 2249 H 212.827 -0.158156 -2.99282 0
M  V30 2250 H 210.388 -0.230402 -1.60252 0
M  V30 2251 H 212.38 2.35541 -3.29093 0
M  V30 2252 H 210.95 2.17658 -2.24374 0
M  V30 2253 H 210.17 0.34725 -3.92668 0
M  V30 2254 H 211.458 0.911924 -5.00561 0
M  V30 2255 H 210.856 3.94698 -4.05253 0
M  V30 2256 H 209.413 4.26447 -4.92936 0
M  V30 2257 N 212.846 1.57033 -0.133567 0
M  V30 2258 C 213.779 2.11824 0.848872 0
M  V30 2259 C 214.757 1.03833 1.2513 0
M  V30 2260 O 215.941 1.31579 1.34978 0
M  V30 2261 C 213.068 2.62692 2.138 0
M  V30 2262 C 212.114 3.82705 1.88253 0
M  V30 2263 S 212.947 5.2438 1.08563 0
M  V30 2264 C 214.103 5.78627 2.38624 0
M  V30 2265 H 214.336 2.94824 0.38289 0
M  V30 2266 H 211.869 1.5419 0.0804796 0
M  V30 2267 H 213.827 2.92652 2.87863 0
M  V30 2268 H 212.488 1.79847 2.57515 0
M  V30 2269 H 211.681 4.16496 2.83809 0
M  V30 2270 H 211.283 3.53437 1.22305 0
M  V30 2271 H 213.575 5.8924 3.34369 0
M  V30 2272 H 214.518 6.76443 2.09358 0
M  V30 2273 H 214.926 5.06783 2.48658 0
M  V30 2274 N 214.325 -0.140222 1.56975 0
M  V30 2275 C 215.235 -1.19223 2.02047 0
M  V30 2276 C 216.251 -1.46612 0.937062 0
M  V30 2277 O 217.427 -1.58148 1.24704 0
M  V30 2278 C 214.492 -2.50414 2.39778 0
M  V30 2279 C 213.553 -2.30612 3.621 0
M  V30 2280 C 212.786 -3.55547 3.98023 0
M  V30 2281 O 213.009 -4.62004 3.34528 0
M  V30 2282 O 211.943 -3.47808 4.91237 0
M  V30 2283 H 215.769 -0.839559 2.91865 0
M  V30 2284 H 213.354 -0.349453 1.45256 0
M  V30 2285 H 215.236 -3.27747 2.64877 0
M  V30 2286 H 213.911 -2.85198 1.53114 0
M  V30 2287 H 212.818 -1.51207 3.4218 0
M  V30 2288 H 214.151 -2.00741 4.49404 0
M  V30 2289 N 215.803 -1.52179 -0.40978 0
M  V30 2290 C 217.214 -1.58377 -0.988615 0
M  V30 2291 C 217.565 -0.423879 -1.91566 0
M  V30 2292 O 216.69 0.455844 -2.11544 0
M  V30 2293 C 217.285 -2.87044 -1.79976 0
M  V30 2294 C 215.844 -2.95722 -2.32863 0
M  V30 2295 C 214.991 -2.53309 -1.12828 0
M  V30 2296 H 217.942 -1.57558 -0.190039 0
M  V30 2297 H 217.963 -2.7236 -2.65707 0
M  V30 2298 H 217.475 -3.71444 -1.12478 0
M  V30 2299 H 215.576 -2.15814 -3.03735 0
M  V30 2300 H 215.689 -3.99951 -2.63773 0
M  V30 2301 H 214.053 -2.07142 -1.48204 0
M  V30 2302 H 214.836 -3.40082 -0.46897 0
M  V30 2303 N 217.281 0.66697 -1.42791 0
M  V30 2304 C 218.528 1.42699 -1.43678 0
M  V30 2305 C 218.856 1.94419 -0.0560425 0
M  V30 2306 O 218.111 1.7182 0.936831 0
M  V30 2307 C 218.41 2.6349 -2.4147 0
M  V30 2308 C 218.076 2.30267 -3.8767 0
M  V30 2309 C 216.738 2.20918 -4.27491 0
M  V30 2310 C 219.09 2.03435 -4.79858 0
M  V30 2311 C 216.418 1.82873 -5.57471 0
M  V30 2312 C 218.77 1.66892 -6.10188 0
M  V30 2313 C 217.434 1.56058 -6.49001 0
M  V30 2314 H 216.704 0.522171 -0.525755 0
M  V30 2315 H 219.351 0.759785 -1.75783 0
M  V30 2316 H 217.656 3.35279 -2.0272 0
M  V30 2317 H 219.353 3.21684 -2.39417 0
M  V30 2318 H 215.943 2.38449 -3.56146 0
M  V30 2319 H 220.127 2.09586 -4.49875 0
M  V30 2320 H 215.383 1.7306 -5.86396 0
M  V30 2321 H 219.557 1.45157 -6.81104 0
M  V30 2322 H 217.184 1.26348 -7.49627 0
M  V30 2323 N 218.759 1.29093 0.90403 0
M  V30 2324 C 220.17 1.15186 1.46932 0
M  V30 2325 C 220.521 -0.254587 1.94541 0
M  V30 2326 O 219.646 -1.14972 1.83332 0
M  V30 2327 C 220.241 2.08492 2.67051 0
M  V30 2328 C 218.8 1.98621 3.19729 0
M  V30 2329 C 217.947 1.9967 1.92425 0
M  V30 2330 H 220.898 1.41641 0.715789 0
M  V30 2331 H 220.919 1.65461 3.42641 0
M  V30 2332 H 220.431 3.10847 2.3237 0
M  V30 2333 H 218.532 0.993389 3.59114 0
M  V30 2334 H 218.645 2.86068 3.8432 0
M  V30 2335 H 217.009 1.44208 2.09943 0
M  V30 2336 H 217.792 3.03721 1.60026 0
M  V30 2337 N 220.237 -1.11381 1.11499 0
M  V30 2338 C 221.167 -2.19509 0.796125 0
M  V30 2339 C 222.148 -1.68458 -0.235796 0
M  V30 2340 O 223.333 -1.93947 -0.0991344 0
M  V30 2341 C 220.463 -3.46475 0.239205 0
M  V30 2342 C 219.417 -4.10744 1.20307 0
M  V30 2343 C 218.743 -5.32293 0.50683 0
M  V30 2344 C 220.043 -4.55597 2.55399 0
M  V30 2345 H 221.737 -2.46439 1.70024 0
M  V30 2346 H 219.283 -1.18446 0.818935 0
M  V30 2347 H 221.236 -4.214 0.00392006 0
M  V30 2348 H 219.96 -3.19006 -0.700206 0
M  V30 2349 H 218.619 -3.37813 1.42399 0
M  V30 2350 H 218.267 -5.01095 -0.437408 0
M  V30 2351 H 217.967 -5.76243 1.1497 0
M  V30 2352 H 219.491 -6.09956 0.280351 0
M  V30 2353 H 220.905 -5.21841 2.37391 0
M  V30 2354 H 219.302 -5.10363 3.15673 0
M  V30 2355 H 220.372 -3.69013 3.14575 0
M  V30 2356 N 221.715 -0.905404 -1.28997 0
M  V30 2357 C 223.131 -0.60233 -1.47798 0
M  V30 2358 C 223.331 0.854645 -1.82478 0
M  V30 2359 O 222.387 1.63439 -1.92468 0
M  V30 2360 C 223.7 -1.53306 -2.58685 0
M  V30 2361 C 225.248 -1.53887 -2.72558 0
M  V30 2362 C 225.723 -2.45602 -3.86579 0
M  V30 2363 N 227.214 -2.43681 -3.93921 0
M  V30 2364 C 227.949 -3.11347 -4.81509 0
M  V30 2365 N 227.445 -3.88313 -5.73746 0
M  V30 2366 N 229.238 -3.00476 -4.75048 0
M  V30 2367 H 221.389 -1.84765 -1.04764 0
M  V30 2368 H 223.652 -0.792025 -0.520961 0
M  V30 2369 H 223.358 -2.57141 -2.39941 0
M  V30 2370 H 223.232 -1.25787 -3.55609 0
M  V30 2371 H 225.619 -0.507941 -2.90696 0
M  V30 2372 H 225.7 -1.85447 -1.76191 0
M  V30 2373 H 225.344 -3.48792 -3.69197 0
M  V30 2374 H 225.274 -2.11349 -4.82327 0
M  V30 2375 H 227.765 -1.87767 -3.27951 0
M  V30 2376 H 228.078 -4.36985 -6.37389 0
M  V30 2377 H 226.423 -3.92419 -5.73614 0
M  V30 2378 H 229.614 -2.39858 -4.01977 0
M  V30 2379 H 229.787 -3.53485 -5.43095 0
M  V30 2380 N 223.193 1.4272 -0.668489 0
M  V30 2381 C 224.439 2.01923 -0.188419 0
M  V30 2382 C 224.772 1.52704 1.19979 0
M  V30 2383 O 224.047 0.726566 1.8042 0
M  V30 2384 C 224.33 3.59451 -0.216085 0
M  V30 2385 C 224.183 4.18864 -1.6393 0
M  V30 2386 C 225.502 4.37903 0.439179 0
M  V30 2387 H 222.621 0.733674 -0.0699412 0
M  V30 2388 H 225.263 1.69822 -0.852076 0
M  V30 2389 H 223.413 3.86929 0.349012 0
M  V30 2390 H 225.085 4.02362 -2.25616 0
M  V30 2391 H 223.328 3.74933 -2.18193 0
M  V30 2392 H 223.999 5.27987 -1.61039 0
M  V30 2393 H 226.475 4.16079 -0.0417878 0
M  V30 2394 H 225.351 5.47519 0.389157 0
M  V30 2395 H 225.612 4.15303 1.51577 0
M  V30 2396 N 224.671 0.411399 1.52136 0
M  V30 2397 C 225.918 -0.163645 2.01838 0
M  V30 2398 C 226.246 -1.4495 1.29691 0
M  V30 2399 O 225.501 -1.91725 0.392431 0
M  V30 2400 C 225.8 -0.455872 3.54481 0
M  V30 2401 C 225.466 0.741055 4.44769 0
M  V30 2402 C 224.128 1.06936 4.69167 0
M  V30 2403 C 226.48 1.54075 4.97906 0
M  V30 2404 C 223.808 2.19851 5.43951 0
M  V30 2405 C 226.16 2.66067 5.73926 0
M  V30 2406 C 224.824 2.99381 5.96596 0
M  V30 2407 H 224.094 -0.0598821 0.738576 0
M  V30 2408 H 226.741 0.553283 1.83333 0
M  V30 2409 H 225.046 -1.2544 3.71177 0
M  V30 2410 H 226.743 -0.913802 3.90449 0
M  V30 2411 H 223.333 0.475192 4.25958 0
M  V30 2412 H 227.517 1.30033 4.78963 0
M  V30 2413 H 222.773 2.46006 5.59724 0
M  V30 2414 H 226.947 3.28419 6.14096 0
M  V30 2415 H 224.574 3.86992 6.54325 0
M  V30 2416 N 226.149 -1.5696 0.141893 0
M  V30 2417 C 227.395 -1.9625 -0.511248 0
M  V30 2418 C 227.728 -1.02654 -1.64851 0
M  V30 2419 O 227.003 -0.0679676 -1.94381 0
M  V30 2420 C 227.286 -3.45285 -1.02227 0
M  V30 2421 C 227.139 -4.49658 0.113138 0
M  V30 2422 C 228.458 -3.96698 -1.90574 0
M  V30 2423 H 225.577 -0.713567 -0.184367 0
M  V30 2424 H 228.219 -1.88698 0.222087 0
M  V30 2425 H 226.369 -3.51852 -1.64719 0
M  V30 2426 H 228.041 -4.55174 0.749302 0
M  V30 2427 H 226.284 -4.26857 0.773026 0
M  V30 2428 H 226.955 -5.51258 -0.286053 0
M  V30 2429 H 229.431 -3.92578 -1.37918 0
M  V30 2430 H 228.307 -5.01453 -2.2324 0
M  V30 2431 H 228.568 -3.3875 -2.84079 0
M  V30 2432 N 227.627 0.131896 -1.57047 0
M  V30 2433 C 228.575 1.18146 -2.0036 0
M  V30 2434 C 229.569 1.43614 -0.898406 0
M  V30 2435 O 230.775 1.43729 -1.08361 0
M  V30 2436 H 227.15 0.398042 -0.638018 0
M  V30 2437 H 229.121 0.789564 -2.87765 0
M  V30 2438 C 227.87 2.50341 -2.41298 0
M  V30 2439 H 227.193 2.31578 -3.25902 0
M  V30 2440 H 228.633 3.22371 -2.75414 0
M  V30 2441 C 227.092 3.11984 -1.27153 0
M  V30 2442 O 227.622 3.97484 -0.580459 0
M  V30 2443 N 225.828 2.71662 -1.03189 0
M  V30 2444 H 225.375 2.02231 -1.59564 0
M  V30 2445 H 225.333 3.13238 -0.270077 0
M  V30 2446 N 229.106 1.52395 0.401703 0
M  V30 2447 C 230.517 1.58899 0.980202 0
M  V30 2448 C 230.868 0.434032 1.91339 0
M  V30 2449 O 229.993 -0.444619 2.11783 0
M  V30 2450 C 230.588 2.87994 1.78451 0
M  V30 2451 C 229.147 2.96953 2.31292 0
M  V30 2452 C 228.294 2.53903 1.11483 0
M  V30 2453 H 231.245 1.57657 0.18168 0
M  V30 2454 H 231.266 2.73765 2.64259 0
M  V30 2455 H 230.778 3.72035 1.10506 0
M  V30 2456 H 228.879 2.17422 3.02586 0
M  V30 2457 H 228.992 4.01344 2.61649 0
M  V30 2458 H 227.356 2.07925 1.47104 0
M  V30 2459 H 228.139 3.40326 0.450928 0
M  V30 2460 N 230.584 -0.659388 1.43143 0
M  V30 2461 C 231.809 -1.45221 1.48073 0
M  V30 2462 C 232.234 -1.87845 0.097995 0
M  V30 2463 O 231.592 -1.56985 -0.90694 0
M  V30 2464 C 231.64 -2.66748 2.42647 0
M  V30 2465 O 230.744 -3.65583 1.90848 0
M  V30 2466 H 230.085 -0.435669 0.501088 0
M  V30 2467 H 232.615 -0.807432 1.87994 0
M  V30 2468 H 232.625 -3.14637 2.59745 0
M  V30 2469 H 231.3 -2.35067 3.43098 0
M  V30 2470 H 229.877 -3.24693 1.83381 0
M  V30 2471 N 232.062 -1.29571 -0.897171 0
M  V30 2472 C 232.992 -1.17473 -2.01798 0
M  V30 2473 C 233.973 -0.068323 -1.69963 0
M  V30 2474 O 235.158 -0.248239 -1.92607 0
M  V30 2475 C 232.288 -0.853099 -3.36659 0
M  V30 2476 C 231.242 -1.9161 -3.82713 0
M  V30 2477 C 230.568 -1.44773 -5.14728 0
M  V30 2478 C 231.868 -3.32535 -4.02763 0
M  V30 2479 H 233.562 -2.11237 -2.12177 0
M  V30 2480 H 231.108 -1.01699 -1.01948 0
M  V30 2481 H 233.061 -0.755165 -4.14578 0
M  V30 2482 H 231.785 0.120236 -3.26379 0
M  V30 2483 H 230.444 -2.00346 -3.07013 0
M  V30 2484 H 230.092 -0.462995 -5.00865 0
M  V30 2485 H 229.792 -2.15865 -5.46513 0
M  V30 2486 H 231.316 -1.36334 -5.95185 0
M  V30 2487 H 232.73 -3.26626 -4.71156 0
M  V30 2488 H 231.127 -4.01607 -4.45905 0
M  V30 2489 H 232.197 -3.75326 -3.07016 0
M  V30 2490 N 233.54 1.10788 -1.12088 0
M  V30 2491 C 234.956 1.34691 -0.856186 0
M  V30 2492 C 235.156 1.94791 0.515615 0
M  V30 2493 O 234.212 2.18524 1.26505 0
M  V30 2494 C 235.525 2.27208 -1.9697 0
M  V30 2495 C 237.073 2.40755 -2.00016 0
M  V30 2496 C 237.548 3.36598 -3.1059 0
M  V30 2497 N 239.039 3.44164 -3.10008 0
M  V30 2498 C 239.774 4.18284 -3.92206 0
M  V30 2499 N 239.27 4.95322 -4.84384 0
M  V30 2500 N 241.063 4.13865 -3.80357 0
M  V30 2501 H 233.214 0.70144 -2.00483 0
M  V30 2502 H 235.477 0.371405 -0.872217 0
M  V30 2503 H 235.183 1.90251 -2.958 0
M  V30 2504 H 235.057 3.27485 -1.87172 0
M  V30 2505 H 237.444 2.76982 -1.01808 0
M  V30 2506 H 237.525 1.40305 -2.13888 0
M  V30 2507 H 237.169 3.01096 -4.09028 0
M  V30 2508 H 237.099 4.36918 -2.93956 0
M  V30 2509 H 239.59 2.8922 -2.43228 0
M  V30 2510 H 239.903 5.49267 -5.43623 0
M  V30 2511 H 238.248 4.94459 -4.884 0
M  V30 2512 H 241.439 3.52773 -3.07683 0
M  V30 2513 H 241.612 4.71372 -4.44649 0
M  V30 2514 N 235.018 0.912232 1.28515 0
M  V30 2515 C 236.264 0.545405 1.95328 0
M  V30 2516 C 236.597 -0.908313 1.71649 0
M  V30 2517 O 235.872 -1.64575 1.03659 0
M  V30 2518 C 236.155 0.853483 3.4984 0
M  V30 2519 C 236.008 2.35982 3.82926 0
M  V30 2520 C 237.327 0.348589 4.38717 0
M  V30 2521 H 234.446 0.199626 0.709449 0
M  V30 2522 H 237.088 1.1412 1.5191 0
M  V30 2523 H 235.238 0.34643 3.86952 0
M  V30 2524 H 236.91 2.93738 3.55691 0
M  V30 2525 H 235.153 2.81543 3.30024 0
M  V30 2526 H 235.824 2.52593 4.90816 0
M  V30 2527 H 238.3 0.78294 4.08668 0
M  V30 2528 H 237.176 0.593242 5.45685 0
M  V30 2529 H 237.437 -0.751049 4.35674 0
M  V30 2530 N 236.496 -1.42363 0.676048 0
M  V30 2531 C 237.426 -2.33497 0.0124832 0
M  V30 2532 C 238.407 -1.50748 -0.787981 0
M  V30 2533 O 239.592 -1.79346 -0.744884 0
M  V30 2534 C 236.722 -3.34377 -0.938582 0
M  V30 2535 C 235.676 -4.27289 -0.246622 0
M  V30 2536 C 235.002 -5.18386 -1.31071 0
M  V30 2537 C 236.302 -5.14916 0.875125 0
M  V30 2538 H 237.996 -2.89233 0.773593 0
M  V30 2539 H 235.542 -1.39073 0.37346 0
M  V30 2540 H 237.495 -3.97044 -1.41188 0
M  V30 2541 H 236.219 -2.76947 -1.73113 0
M  V30 2542 H 234.878 -3.66018 0.206456 0
M  V30 2543 H 234.526 -4.57282 -2.09528 0
M  V30 2544 H 234.226 -5.81378 -0.852839 0
M  V30 2545 H 235.75 -5.83929 -1.78492 0
M  V30 2546 H 237.164 -5.71262 0.482983 0
M  V30 2547 H 235.561 -5.86747 1.25887 0
M  V30 2548 H 236.631 -4.53242 1.72335 0
M  V30 2549 N 237.974 -0.419461 -1.51915 0
M  V30 2550 C 239.251 0.211999 -1.94448 0
M  V30 2551 C 239.631 1.61703 -1.35703 0
M  V30 2552 O 238.979 2.22102 -0.536931 0
M  V30 2553 C 239.189 0.207872 -3.4838 0
M  V30 2554 C 240.537 0.422192 -4.22496 0
M  V30 2555 O 241.561 0.286778 -3.55044 0
M  V30 2556 O 240.42 0.690009 -5.42126 0
M  V30 2557 H 237.514 0.139586 -0.815135 0
M  V30 2558 H 240.06 -0.476151 -1.62883 0
M  V30 2559 H 238.832 -0.775102 -3.83546 0
M  V30 2560 H 238.455 0.939688 -3.86336 0
M  V30 2561 N 239.452 1.56882 -0.150215 0
M  V30 2562 C 240.677 2.01027 0.510184 0
M  V30 2563 C 241.102 1.02966 1.57415 0
M  V30 2564 O 240.46 0.00590158 1.81299 0
M  V30 2565 C 240.508 3.43899 1.08472 0
M  V30 2566 O 239.612 3.4885 2.19948 0
M  V30 2567 H 238.953 0.652233 0.124451 0
M  V30 2568 H 241.483 2.03093 -0.247894 0
M  V30 2569 H 241.493 3.82766 1.41259 0
M  V30 2570 H 240.168 4.14776 0.305582 0
M  V30 2571 H 238.745 3.21827 1.88366 0
M  V30 2572 N 240.93 -0.123565 1.57115 0
M  V30 2573 C 242.346 -0.476961 1.52306 0
M  V30 2574 C 242.546 -1.82109 0.86248 0
M  V30 2575 O 241.602 -2.48586 0.442884 0
M  V30 2576 C 242.915 -0.465661 2.97073 0
M  V30 2577 C 244.463 -0.549534 3.08138 0
M  V30 2578 C 244.938 -0.568669 4.54456 0
M  V30 2579 N 246.429 -0.630237 4.58892 0
M  V30 2580 C 247.164 -0.666415 5.69514 0
M  V30 2581 N 246.66 -0.660514 6.89644 0
M  V30 2582 N 248.453 -0.709077 5.5761 0
M  V30 2583 H 240.604 0.757198 1.98445 0
M  V30 2584 H 242.867 0.278808 0.906074 0
M  V30 2585 H 242.573 0.454232 3.48754 0
M  V30 2586 H 242.447 -1.29513 3.54269 0
M  V30 2587 H 244.834 -1.45985 2.56461 0
M  V30 2588 H 244.915 0.307532 2.53945 0
M  V30 2589 H 244.559 0.337581 5.06777 0
M  V30 2590 H 244.489 -1.44256 5.06456 0
M  V30 2591 H 246.98 -0.641146 3.72421 0
M  V30 2592 H 247.293 -0.690616 7.69708 0
M  V30 2593 H 245.638 -0.628012 6.92157 0
M  V30 2594 H 248.829 -0.711019 4.62668 0
M  V30 2595 H 249.002 -0.733804 6.43832 0
M  V30 2596 N 242.408 -1.52605 -0.393616 0
M  V30 2597 C 243.338 -1.80022 -1.48709 0
M  V30 2598 C 244.319 -0.651995 -1.57108 0
M  V30 2599 O 245.504 -0.89913 -1.72132 0
M  V30 2600 C 242.634 -1.96492 -2.86371 0
M  V30 2601 C 241.588 -3.12161 -2.92813 0
M  V30 2602 C 240.914 -3.13877 -4.3288 0
M  V30 2603 C 242.214 -4.51322 -2.6288 0
M  V30 2604 H 243.908 -2.71589 -1.26015 0
M  V30 2605 H 241.454 -1.30684 -0.604778 0
M  V30 2606 H 243.407 -2.14255 -3.62867 0
M  V30 2607 H 242.131 -1.01611 -3.10391 0
M  V30 2608 H 240.79 -2.94173 -2.18764 0
M  V30 2609 H 240.438 -2.16687 -4.53933 0
M  V30 2610 H 240.138 -3.91576 -4.38112 0
M  V30 2611 H 241.662 -3.33789 -5.1129 0
M  V30 2612 H 243.076 -4.69435 -3.29096 0
M  V30 2613 H 241.473 -5.31053 -2.79468 0
M  V30 2614 H 242.543 -4.58353 -1.58242 0
M  V30 2615 N 243.887 0.651787 -1.4349 0
M  V30 2616 C 245.133 1.41376 -1.45398 0
M  V30 2617 C 245.466 1.94041 -0.0784823 0
M  V30 2618 O 244.741 1.72379 0.900878 0
M  V30 2619 C 245.024 2.59414 -2.49752 0
M  V30 2620 C 244.877 2.12232 -3.96582 0
M  V30 2621 C 246.196 3.61626 -2.50827 0
M  V30 2622 H 243.315 0.512719 -0.529422 0
M  V30 2623 H 245.957 0.738796 -1.75048 0
M  V30 2624 H 244.107 3.16997 -2.246 0
M  V30 2625 H 245.779 1.59639 -4.32797 0
M  V30 2626 H 244.022 1.43592 -4.09346 0
M  V30 2627 H 244.693 2.9712 -4.65214 0
M  V30 2628 H 247.169 3.13805 -2.7325 0
M  V30 2629 H 246.045 4.41766 -3.25783 0
M  V30 2630 H 246.306 4.14314 -1.5426 0
M  V30 2631 N 245.365 1.30045 0.890287 0
M  V30 2632 C 246.593 1.21472 1.67487 0
M  V30 2633 C 247.008 -0.223241 1.87476 0
M  V30 2634 O 246.365 -1.14828 1.41847 0
M  V30 2635 C 246.416 1.93394 3.05419 0
M  V30 2636 O 246.137 3.31576 2.86337 0
M  V30 2637 C 247.638 1.91414 3.99844 0
M  V30 2638 H 244.858 0.420604 0.522813 0
M  V30 2639 H 247.402 1.7158 1.11268 0
M  V30 2640 H 245.557 1.47099 3.58386 0
M  V30 2641 H 245.971 3.67929 3.73802 0
M  V30 2642 H 247.445 2.46285 4.94012 0
M  V30 2643 H 247.922 0.891833 4.3005 0
M  V30 2644 H 248.528 2.37496 3.52811 0
M  V30 2645 N 246.843 -1.10192 1.12674 0
M  V30 2646 C 248.09 -1.82205 0.883606 0
M  V30 2647 C 248.418 -1.8532 -0.590492 0
M  V30 2648 O 247.673 -1.31137 -1.45264 0
M  V30 2649 C 247.972 -3.28552 1.4067 0
M  V30 2650 C 247.638 -3.45582 2.89627 0
M  V30 2651 C 246.3 -3.49937 3.30299 0
M  V30 2652 C 248.652 -3.50768 3.85501 0
M  V30 2653 C 245.98 -3.57049 4.65546 0
M  V30 2654 C 248.332 -3.59414 5.20581 0
M  V30 2655 C 246.996 -3.62034 5.60792 0
M  V30 2656 H 246.266 -0.666735 0.323334 0
M  V30 2657 H 248.913 -1.29868 1.40736 0
M  V30 2658 H 247.218 -3.83473 0.80347 0
M  V30 2659 H 248.915 -3.82788 1.19475 0
M  V30 2660 H 245.505 -3.42871 2.57172 0
M  V30 2661 H 249.689 -3.46651 3.55171 0
M  V30 2662 H 244.945 -3.57361 4.96088 0
M  V30 2663 H 249.119 -3.62371 5.94693 0
M  V30 2664 H 246.746 -3.67298 6.6558 0
M  V30 2665 N 248.321 -0.919034 -1.28029 0
M  V30 2666 C 249.732 -0.600735 -1.76771 0
M  V30 2667 C 250.083 0.884024 -1.75156 0
M  V30 2668 O 249.208 1.69163 -1.34956 0
M  V30 2669 C 249.803 -1.08372 -3.21 0
M  V30 2670 C 248.362 -0.816248 -3.67443 0
M  V30 2671 C 247.509 -1.24742 -2.47658 0
M  V30 2672 H 250.46 -1.09974 -1.14418 0
M  V30 2673 H 250.481 -0.427512 -3.78091 0
M  V30 2674 H 249.993 -2.16437 -3.22144 0
M  V30 2675 H 248.094 0.250968 -3.71754 0
M  V30 2676 H 248.207 -1.4277 -4.57333 0
M  V30 2677 H 246.571 -0.666083 -2.45836 0
M  V30 2678 H 247.354 -2.33653 -2.51518 0
M  V30 2679 N 249.799 1.42003 -0.683588 0
M  V30 2680 C 250.709 2.34597 -0.0109075 0
M  V30 2681 C 251.725 1.55576 0.779245 0
M  V30 2682 O 252.901 1.88107 0.719555 0
M  V30 2683 C 249.966 3.34199 0.922588 0
M  V30 2684 C 249.027 4.29115 0.125984 0
M  V30 2685 C 248.26 5.23959 1.01502 0
M  V30 2686 O 248.483 5.23952 2.25456 0
M  V30 2687 O 247.417 6.00053 0.47111 0
M  V30 2688 H 251.243 2.93675 -0.773853 0
M  V30 2689 H 248.828 1.42654 -0.443861 0
M  V30 2690 H 250.71 3.95365 1.45823 0
M  V30 2691 H 249.385 2.77582 1.66523 0
M  V30 2692 H 248.292 3.71335 -0.453969 0
M  V30 2693 H 249.625 4.88798 -0.577736 0
M  V30 2694 N 251.277 0.427512 1.51691 0
M  V30 2695 C 252.525 -0.141948 2.01601 0
M  V30 2696 C 252.846 -1.44067 1.31414 0
M  V30 2697 O 252.116 -1.90763 0.445658 0
M  V30 2698 H 250.696 -0.0554468 0.744939 0
M  V30 2699 H 253.358 0.567968 1.86441 0
M  V30 2700 H 252.454 -0.324913 3.10404 0
M  V30 2701 N 252.755 -1.56801 0.158532 0
M  V30 2702 C 253.995 -1.98383 -0.49229 0
M  V30 2703 C 254.359 -1.04184 -1.61275 0
M  V30 2704 O 255.56 -1.34856 -2.32524 0
M  V30 2705 C 253.831 -3.4385 -0.974766 0
M  V30 2706 S 255.39 -4.07459 -1.62857 0
M  V30 2707 H 252.208 -0.693041 -0.158794 0
M  V30 2708 H 254.81 -1.93856 0.252974 0
M  V30 2709 H 253.514 -4.10131 -0.148688 0
M  V30 2710 H 253.045 -3.52115 -1.75438 0
M  V30 2711 H 255.06 -4.01458 -2.91627 0
M  V30 2712 N 254.233 0.115231 -1.57178 0
M  V30 2713 C 255.143 1.15994 -2.03918 0
M  V30 2714 C 256.159 1.45103 -0.960268 0
M  V30 2715 O 257.335 1.56144 -1.27204 0
M  V30 2716 C 254.4 2.46568 -2.43732 0
M  V30 2717 C 253.461 2.24822 -3.65723 0
M  V30 2718 C 252.694 3.4917 -4.03629 0
M  V30 2719 O 252.917 4.56623 -3.41835 0
M  V30 2720 O 251.851 3.39949 -4.96708 0
M  V30 2721 H 255.677 0.793019 -2.93164 0
M  V30 2722 H 253.262 0.3263 -1.45793 0
M  V30 2723 H 255.144 3.23492 -2.70057 0
M  V30 2724 H 253.819 2.82726 -1.57631 0
M  V30 2725 H 252.726 1.45744 -3.44542 0
M  V30 2726 H 254.059 1.93566 -4.52541 0
M  V30 2727 N 255.711 1.52812 0.385517 0
M  V30 2728 C 256.936 1.72207 1.15583 0
M  V30 2729 C 257.361 0.441034 1.82857 0
M  V30 2730 O 256.719 -0.603465 1.70962 0
M  V30 2731 C 256.767 2.87476 2.17692 0
M  V30 2732 O 255.871 2.54693 3.24354 0
M  V30 2733 H 255.212 0.572526 0.336319 0
M  V30 2734 H 257.742 1.99618 0.448744 0
M  V30 2735 H 257.752 3.13072 2.6163 0
M  V30 2736 H 256.427 3.80408 1.68115 0
M  V30 2737 H 255.004 2.3985 2.85529 0
M  V30 2738 N 257.189 -0.644168 1.43834 0
M  V30 2739 C 258.435 -1.40603 1.46146 0
M  V30 2740 C 258.768 -1.93997 0.0887717 0
M  V30 2741 O 258.043 -1.72854 -0.891724 0
M  V30 2742 C 258.326 -2.58086 2.51124 0
M  V30 2743 C 258.179 -2.10126 3.97702 0
M  V30 2744 C 259.498 -3.60291 2.52742 0
M  V30 2745 H 256.617 -0.509905 0.532134 0
M  V30 2746 H 259.259 -0.729502 1.75437 0
M  V30 2747 H 257.409 -3.15801 2.26278 0
M  V30 2748 H 259.081 -1.57342 4.33637 0
M  V30 2749 H 257.324 -1.41419 4.10101 0
M  V30 2750 H 257.995 -2.94649 4.66783 0
M  V30 2751 H 260.471 -3.12352 2.7491 0
M  V30 2752 H 259.347 -4.40032 3.28121 0
M  V30 2753 H 259.608 -4.1349 1.56455 0
M  V30 2754 N 258.668 -1.30515 -0.883378 0
M  V30 2755 C 259.631 -1.1701 -1.97082 0
M  V30 2756 C 260.631 -0.10089 -1.60483 0
M  V30 2757 O 261.821 -0.349127 -1.70666 0
M  V30 2758 C 258.953 -0.793045 -3.31547 0
M  V30 2759 H 260.146 -2.13622 -2.10489 0
M  V30 2760 H 257.699 -1.13935 -1.06998 0
M  V30 2761 H 258.434 0.172499 -3.23841 0
M  V30 2762 H 258.219 -1.56576 -3.5948 0
M  V30 2763 H 259.709 -0.722073 -4.1131 0
M  V30 2764 N 260.146 1.09593 -1.13257 0
M  V30 2765 C 261.394 1.81375 -0.891492 0
M  V30 2766 C 261.715 1.86049 0.584009 0
M  V30 2767 O 260.985 1.34481 1.42449 0
M  V30 2768 H 259.565 0.671708 -0.326828 0
M  V30 2769 H 262.227 1.3256 -1.42877 0
M  V30 2770 H 261.323 2.84612 -1.28071 0
M  V30 2771 N 261.624 0.925811 1.2754 0
M  V30 2772 C 262.871 0.565255 1.94451 0
M  V30 2773 C 263.199 -0.89316 1.7278 0
M  V30 2774 O 262.454 -1.65213 1.04895 0
M  V30 2775 C 262.753 0.835296 3.47502 0
M  V30 2776 C 262.419 2.27515 3.89291 0
M  V30 2777 C 261.081 2.66879 4.00411 0
M  V30 2778 C 263.433 3.21158 4.10496 0
M  V30 2779 C 260.761 3.99014 4.30122 0
M  V30 2780 C 263.113 4.52871 4.4169 0
M  V30 2781 C 261.777 4.92072 4.51023 0
M  V30 2782 H 261.047 0.206841 0.711546 0
M  V30 2783 H 263.694 1.16942 1.51647 0
M  V30 2784 H 261.999 0.148442 3.91519 0
M  V30 2785 H 263.696 0.535322 3.97411 0
M  V30 2786 H 260.286 1.95976 3.81171 0
M  V30 2787 H 264.47 2.9195 4.01346 0
M  V30 2788 H 259.726 4.2907 4.35556 0
M  V30 2789 H 263.9 5.25436 4.57045 0
M  V30 2790 H 261.527 5.9449 4.738 0
M  V30 2791 N 263.102 -1.41638 0.69111 0
M  V30 2792 C 264.032 -2.3347 0.037248 0
M  V30 2793 C 265.013 -1.51575 -0.771947 0
M  V30 2794 O 266.198 -1.80126 -0.72582 0
M  V30 2795 C 263.328 -3.35354 -0.903064 0
M  V30 2796 C 262.282 -4.27526 -0.201288 0
M  V30 2797 C 261.608 -5.19747 -1.25565 0
M  V30 2798 C 262.908 -5.13959 0.929689 0
M  V30 2799 H 264.602 -2.88397 0.804227 0
M  V30 2800 H 262.148 -1.38669 0.388189 0
M  V30 2801 H 264.101 -3.98519 -1.36969 0
M  V30 2802 H 262.825 -2.78767 -1.70166 0
M  V30 2803 H 261.484 -3.65779 0.245265 0
M  V30 2804 H 261.132 -4.59479 -2.04666 0
M  V30 2805 H 260.832 -5.8225 -0.791128 0
M  V30 2806 H 262.356 -5.85789 -1.72288 0
M  V30 2807 H 263.77 -5.70718 0.543546 0
M  V30 2808 H 262.167 -5.85379 1.32103 0
M  V30 2809 H 263.237 -4.51389 1.77133 0
M  V30 2810 N 264.58 -0.43555 -1.51462 0
M  V30 2811 C 265.543 0.365137 -2.26273 0
M  V30 2812 C 266.543 0.951227 -1.29647 0
M  V30 2813 O 267.733 0.825958 -1.53374 0
M  V30 2814 C 264.865 1.51645 -3.05314 0
M  V30 2815 H 266.058 -0.290474 -2.9849 0
M  V30 2816 H 263.611 -0.188676 -1.55157 0
M  V30 2817 H 264.346 2.20816 -2.3751 0
M  V30 2818 H 264.131 1.10238 -3.76284 0
M  V30 2819 H 265.621 2.08218 -3.61987 0
M  V30 2820 N 266.058 1.56714 -0.166846 0
M  V30 2821 C 267.298 1.98641 0.481763 0
M  V30 2822 C 267.662 1.05038 1.6072 0
M  V30 2823 O 268.863 1.36087 2.31805 0
M  V30 2824 C 267.134 3.44362 0.956517 0
M  V30 2825 S 268.693 4.08317 1.60694 0
M  V30 2826 H 265.511 0.693873 0.155116 0
M  V30 2827 H 268.113 1.93719 -0.263251 0
M  V30 2828 H 266.817 4.10204 0.126936 0
M  V30 2829 H 266.348 3.53041 1.73568 0
M  V30 2830 H 268.363 4.02999 2.89494 0
M  V30 2831 N 267.536 -0.106894 1.57237 0
M  V30 2832 C 268.782 -0.81373 1.85759 0
M  V30 2833 C 269.115 -1.78952 0.754315 0
M  V30 2834 O 268.39 -1.93029 -0.23879 0
M  V30 2835 C 268.673 -1.55293 3.24894 0
M  V30 2836 C 268.526 -0.595929 4.45835 0
M  V30 2837 C 269.845 -2.5063 3.61763 0
M  V30 2838 H 266.964 -0.294369 0.67566 0
M  V30 2839 H 269.606 -0.0776472 1.89841 0
M  V30 2840 H 267.756 -2.1804 3.21544 0
M  V30 2841 H 269.428 0.0236262 4.61294 0
M  V30 2842 H 267.671 0.0916191 4.33703 0
M  V30 2843 H 268.342 -1.15004 5.39887 0
M  V30 2844 H 270.818 -1.97982 3.65981 0
M  V30 2845 H 269.694 -2.99376 4.60071 0
M  V30 2846 H 269.955 -3.3385 2.89821 0
M  V30 2847 N 269.014 -1.53014 -0.377408 0
M  V30 2848 C 270.425 -1.60438 -0.954798 0
M  V30 2849 C 270.776 -0.464418 -1.90624 0
M  V30 2850 O 269.901 0.41087 -2.12464 0
M  V30 2851 C 270.496 -2.90797 -1.73847 0
M  V30 2852 C 269.055 -3.00595 -2.26538 0
M  V30 2853 C 268.202 -2.55645 -1.07429 0
M  V30 2854 H 271.153 -1.57926 -0.156575 0
M  V30 2855 H 271.174 -2.77935 -2.5987 0
M  V30 2856 H 270.686 -3.73746 -1.04574 0
M  V30 2857 H 268.787 -2.22208 -2.99089 0
M  V30 2858 H 268.9 -4.05456 -2.5523 0
M  V30 2859 H 267.264 -2.10239 -1.43777 0
M  V30 2860 H 268.047 -3.41 -0.396728 0
M  V30 2861 N 270.492 0.636531 -1.44174 0
M  V30 2862 C 271.908 0.954104 -1.27941 0
M  V30 2863 C 272.108 2.0039 -0.211248 0
M  V30 2864 O 271.164 2.49236 0.404695 0
M  V30 2865 C 272.477 1.4225 -2.64925 0
M  V30 2866 C 274.025 1.53827 -2.72592 0
M  V30 2867 C 274.5 2.04053 -4.10032 0
M  V30 2868 N 275.991 2.11331 -4.12182 0
M  V30 2869 C 276.726 2.51352 -5.15374 0
M  V30 2870 N 276.222 2.90549 -6.2893 0
M  V30 2871 N 278.015 2.51438 -5.02728 0
M  V30 2872 H 270.166 -0.0578386 -2.12321 0
M  V30 2873 H 272.429 0.0367406 -0.947288 0
M  V30 2874 H 272.135 0.725466 -3.44136 0
M  V30 2875 H 272.009 2.39451 -2.9145 0
M  V30 2876 H 274.396 2.22628 -1.93702 0
M  V30 2877 H 274.477 0.550154 -2.49814 0
M  V30 2878 H 274.121 1.35848 -4.89395 0
M  V30 2879 H 274.051 3.03726 -4.30184 0
M  V30 2880 H 276.542 1.83745 -3.30222 0
M  V30 2881 H 276.855 3.19884 -7.03487 0
M  V30 2882 H 275.2 2.88313 -6.32377 0
M  V30 2883 H 278.391 2.20203 -4.13072 0
M  V30 2884 H 278.564 2.82304 -5.83274 0
M  V30 2885 N 271.97 1.30982 0.876444 0
M  V30 2886 C 273.217 1.20296 1.62896 0
M  V30 2887 C 273.545 -0.240395 1.93009 0
M  V30 2888 O 272.8 -1.18733 1.55567 0
M  V30 2889 C 273.099 1.98572 2.9716 0
M  V30 2890 C 272.765 3.48125 2.86566 0
M  V30 2891 C 271.427 3.88905 2.83383 0
M  V30 2892 C 273.779 4.43322 2.74071 0
M  V30 2893 C 271.107 5.2316 2.65556 0
M  V30 2894 C 273.459 5.77695 2.57781 0
M  V30 2895 C 272.123 6.17704 2.52979 0
M  V30 2896 H 271.393 0.440193 0.59608 0
M  V30 2897 H 274.04 1.62177 1.01837 0
M  V30 2898 H 272.345 1.49352 3.62217 0
M  V30 2899 H 274.042 1.8769 3.54364 0
M  V30 2900 H 270.632 3.15723 2.89856 0
M  V30 2901 H 274.816 4.12752 2.75589 0
M  V30 2902 H 270.072 5.53241 2.60259 0
M  V30 2903 H 274.246 6.51091 2.47089 0
M  V30 2904 H 271.873 7.21678 2.38924 0
M  V30 2905 N 273.449 -1.08991 1.13837 0
M  V30 2906 C 274.381 -2.15606 0.777612 0
M  V30 2907 C 275.394 -1.61533 -0.202739 0
M  V30 2908 O 276.583 -1.78491 0.0181055 0
M  V30 2909 C 273.683 -3.3864 0.132623 0
M  V30 2910 C 272.856 -4.22115 1.1462 0
M  V30 2911 C 271.915 -5.23564 0.526074 0
M  V30 2912 O 270.941 -5.56678 1.18735 0
M  V30 2913 N 272.143 -5.76266 -0.699866 0
M  V30 2914 H 274.908 -2.47159 1.69506 0
M  V30 2915 H 272.469 -1.24747 1.03198 0
M  V30 2916 H 274.461 -4.03626 -0.29459 0
M  V30 2917 H 273.031 -3.04938 -0.687849 0
M  V30 2918 H 272.251 -3.53199 1.75055 0
M  V30 2919 H 273.539 -4.74709 1.83109 0
M  V30 2920 H 272.937 -5.51585 -1.25581 0
M  V30 2921 H 271.494 -6.42963 -1.06968 0
M  V30 2922 N 274.927 -0.932562 -1.27047 0
M  V30 2923 C 275.89 -0.440064 -2.24936 0
M  V30 2924 C 276.89 0.444071 -1.54547 0
M  V30 2925 O 278.08 0.244465 -1.72476 0
M  V30 2926 C 275.212 0.36678 -3.38921 0
M  V30 2927 H 276.405 -1.305 -2.70018 0
M  V30 2928 H 273.958 -0.713707 -1.39054 0
M  V30 2929 H 274.693 1.25033 -2.99228 0
M  V30 2930 H 274.478 -0.267204 -3.91188 0
M  V30 2931 H 275.968 0.701567 -4.11665 0
M  V30 2932 N 276.405 1.4127 -0.698611 0
M  V30 2933 C 277.651 2.01478 -0.231207 0
M  V30 2934 C 277.984 1.55215 1.16713 0
M  V30 2935 O 277.259 0.764672 1.78838 0
M  V30 2936 C 277.542 3.58912 -0.292281 0
M  V30 2937 C 277.395 4.15293 -1.72778 0
M  V30 2938 C 278.714 4.38736 0.346194 0
M  V30 2939 H 275.833 0.732025 -0.0854878 0
M  V30 2940 H 278.475 1.67977 -0.887906 0
M  V30 2941 H 276.625 3.87582 0.26686 0
M  V30 2942 H 278.297 3.97486 -2.341 0
M  V30 2943 H 276.54 3.7022 -2.26096 0
M  V30 2944 H 277.211 5.24452 -1.72202 0
M  V30 2945 H 279.687 4.15897 -0.130035 0
M  V30 2946 H 278.563 5.48221 0.272932 0
M  V30 2947 H 278.824 4.18425 1.42734 0
M  V30 2948 N 277.883 0.443576 1.51229 0
M  V30 2949 C 278.815 -0.400608 2.25672 0
M  V30 2950 C 279.828 -0.980945 1.29928 0
M  V30 2951 O 281.017 -0.874024 1.55638 0
M  V30 2952 C 278.117 -1.57304 3.00181 0
M  V30 2953 C 277.29 -1.11046 4.23069 0
M  V30 2954 C 276.349 -2.15374 4.80105 0
M  V30 2955 O 275.375 -1.74554 5.41774 0
M  V30 2956 N 276.577 -3.47922 4.64683 0
M  V30 2957 H 279.342 0.23745 2.98758 0
M  V30 2958 H 276.903 0.272809 1.59585 0
M  V30 2959 H 278.895 -2.26733 3.35223 0
M  V30 2960 H 277.465 -2.11632 2.30066 0
M  V30 2961 H 276.685 -0.243019 3.9345 0
M  V30 2962 H 277.973 -0.778888 5.02803 0
M  V30 2963 H 277.371 -3.83815 4.15575 0
M  V30 2964 H 275.928 -4.13228 5.0407 0
M  V30 2965 N 279.361 -1.56624 0.175154 0
M  V30 2966 C 280.61 -1.96173 -0.468921 0
M  V30 2967 C 280.923 -1.06401 -1.64128 0
M  V30 2968 O 282.129 -1.35648 -2.35185 0
M  V30 2969 C 280.585 -3.48833 -0.885633 0
M  V30 2970 C 280.193 -4.47237 0.261343 0
M  V30 2971 C 281.937 -3.97194 -1.49791 0
M  V30 2972 C 279.844 -5.9114 -0.175214 0
M  V30 2973 H 278.774 -0.732455 -0.178958 0
M  V30 2974 H 281.425 -1.81591 0.263997 0
M  V30 2975 H 279.807 -3.58848 -1.67464 0
M  V30 2976 H 280.981 -4.4894 1.03871 0
M  V30 2977 H 279.296 -4.08956 0.783827 0
M  V30 2978 H 281.893 -5.02167 -1.83665 0
M  V30 2979 H 282.236 -3.40351 -2.39722 0
M  V30 2980 H 282.769 -3.90212 -0.773267 0
M  V30 2981 H 279.508 -6.51865 0.689414 0
M  V30 2982 H 279.028 -5.92735 -0.91786 0
M  V30 2983 H 280.707 -6.44044 -0.617792 0
M  V30 2984 N 280.839 0.0985539 -1.57292 0
M  V30 2985 C 282.064 0.820196 -1.90493 0
M  V30 2986 C 282.489 1.71658 -0.769094 0
M  V30 2987 O 281.847 1.79133 0.279495 0
M  V30 2988 C 281.895 1.61242 -3.22542 0
M  V30 2989 O 280.999 2.72108 -3.09888 0
M  V30 2990 H 280.34 0.225547 -0.62452 0
M  V30 2991 H 282.87 0.0748159 -2.04463 0
M  V30 2992 H 282.88 1.99737 -3.55766 0
M  V30 2993 H 281.555 0.954535 -4.04798 0
M  V30 2994 H 280.132 2.36667 -2.88172 0
M  V30 2995 N 282.317 1.53212 0.369288 0
M  V30 2996 C 283.565 1.68881 1.11012 0
M  V30 2997 C 283.886 0.441285 1.89941 0
M  V30 2998 O 283.156 -0.544623 1.88177 0
M  V30 2999 H 281.736 0.622569 0.412816 0
M  V30 3000 H 284.398 1.90391 0.416802 0
M  V30 3001 H 283.494 2.54822 1.80201 0
M  V30 3002 N 283.795 -0.628877 1.44509 0
M  V30 3003 C 284.725 -1.75187 1.54376 0
M  V30 3004 C 285.706 -1.65411 0.396618 0
M  V30 3005 O 286.891 -1.84137 0.617031 0
M  V30 3006 C 284.021 -3.13725 1.48976 0
M  V30 3007 C 282.975 -3.38291 2.62189 0
M  V30 3008 C 282.301 -4.76883 2.41841 0
M  V30 3009 C 283.601 -3.30632 4.04326 0
M  V30 3010 H 285.295 -1.67187 2.48373 0
M  V30 3011 H 282.841 -0.802909 1.19538 0
M  V30 3012 H 284.794 -3.92064 1.54478 0
M  V30 3013 H 283.518 -3.22515 0.514961 0
M  V30 3014 H 282.177 -2.62334 2.56079 0
M  V30 3015 H 281.825 -4.82378 1.42548 0
M  V30 3016 H 281.525 -4.94278 3.17747 0
M  V30 3017 H 283.049 -5.57449 2.49165 0
M  V30 3018 H 284.463 -3.98873 4.11793 0
M  V30 3019 H 282.86 -3.59561 4.80454 0
M  V30 3020 H 283.93 -2.28404 4.27738 0
M  V30 3021 N 285.273 -1.31445 -0.869486 0
M  V30 3022 C 286.55 -1.11795 -1.60503 0
M  V30 3023 C 286.93 0.327168 -2.08549 0
M  V30 3024 O 286.278 1.32135 -1.8642 0
M  V30 3025 C 286.488 -2.13258 -2.76265 0
M  V30 3026 C 287.836 -2.45805 -3.46215 0
M  V30 3027 O 288.86 -2.11688 -2.86473 0
M  V30 3028 O 287.719 -3.04228 -4.5399 0
M  V30 3029 H 284.813 -0.430421 -0.706163 0
M  V30 3030 H 287.359 -1.42925 -0.914907 0
M  V30 3031 H 286.131 -3.10461 -2.3818 0
M  V30 3032 H 285.754 -1.83035 -3.52964 0
M  V30 3033 N 286.751 1.08385 -1.14413 0
M  V30 3034 C 288.162 1.62258 -0.923535 0
M  V30 3035 C 288.513 1.88691 0.537595 0
M  V30 3036 O 287.638 1.64454 1.40655 0
M  V30 3037 C 288.233 2.94781 -1.67002 0
M  V30 3038 C 286.792 3.45437 -1.495 0
M  V30 3039 C 285.939 2.19668 -1.69238 0
M  V30 3040 H 288.89 0.916086 -1.2959 0
M  V30 3041 H 288.911 3.63229 -1.13334 0
M  V30 3042 H 288.423 2.7551 -2.73342 0
M  V30 3043 H 286.524 3.6981 -0.455097 0
M  V30 3044 H 286.637 4.22173 -2.2651 0
M  V30 3045 H 285.001 2.28849 -1.11804 0
M  V30 3046 H 285.784 2.02905 -2.7692 0
M  V30 3047 N 288.23 0.939286 1.26551 0
M  V30 3048 C 289.178 0.43815 2.28436 0
M  V30 3049 C 290.172 -0.483587 1.62351 0
M  V30 3050 O 291.378 -0.362009 1.76322 0
M  V30 3051 H 287.753 0.123149 0.741848 0
M  V30 3052 H 289.724 1.31002 2.68106 0
M  V30 3053 C 288.473 -0.283052 3.46546 0
M  V30 3054 H 287.796 0.417043 3.97619 0
M  V30 3055 H 289.236 -0.597948 4.19763 0
M  V30 3056 C 287.695 -1.50018 3.01656 0
M  V30 3057 O 288.225 -2.59855 3.0633 0
M  V30 3058 N 286.431 -1.35608 2.57019 0
M  V30 3059 H 285.978 -0.46244 2.53415 0
M  V30 3060 H 285.936 -2.17165 2.27347 0
M  V30 3061 N 289.708 -1.40897 0.706093 0
M  V30 3062 C 290.956 -2.00657 0.241054 0
M  V30 3063 C 291.277 -1.56241 -1.16678 0
M  V30 3064 O 290.547 -0.79765 -1.78926 0
M  V30 3065 H 289.127 -0.742018 0.0861308 0
M  V30 3066 H 291.789 -1.72372 0.909604 0
M  V30 3067 H 290.885 -3.10958 0.266705 0
M  V30 3068 N 291.186 -0.45159 -1.50991 0
M  V30 3069 C 292.096 0.358431 -2.31846 0
M  V30 3070 C 293.112 1.01438 -1.41373 0
M  V30 3071 O 294.288 1.00663 -1.74439 0
M  V30 3072 C 291.353 1.43704 -3.15515 0
M  V30 3073 C 290.414 0.799742 -4.21785 0
M  V30 3074 C 289.647 1.82696 -5.01456 0
M  V30 3075 O 289.87 3.05105 -4.81941 0
M  V30 3076 O 288.804 1.40958 -5.85162 0
M  V30 3077 H 292.63 -0.302032 -3.02194 0
M  V30 3078 H 290.215 -0.213825 -1.47862 0
M  V30 3079 H 292.097 2.06227 -3.67489 0
M  V30 3080 H 290.772 2.08133 -2.47916 0
M  V30 3081 H 289.679 0.136084 -3.73852 0
M  V30 3082 H 291.012 0.198718 -4.91799 0
M  V30 3083 N 292.664 1.56529 -0.183458 0
M  V30 3084 C 293.596 2.15747 0.773697 0
M  V30 3085 C 294.609 1.1162 1.1851 0
M  V30 3086 O 295.798 1.3876 1.12285 0
M  V30 3087 C 292.898 2.6952 2.05456 0
M  V30 3088 C 292.071 3.98429 1.8048 0
M  V30 3089 C 291.13 4.37145 2.92901 0
M  V30 3090 O 290.156 5.04791 2.6301 0
M  V30 3091 N 291.358 3.99695 4.2098 0
M  V30 3092 H 294.123 2.98505 0.26736 0
M  V30 3093 H 291.684 1.619 -0.0010878 0
M  V30 3094 H 293.676 2.92412 2.79781 0
M  V30 3095 H 292.246 1.91282 2.47245 0
M  V30 3096 H 291.466 3.8379 0.899947 0
M  V30 3097 H 292.754 4.82597 1.61175 0
M  V30 3098 H 292.152 3.4526 4.48121 0
M  V30 3099 H 290.709 4.27562 4.9197 0
M  V30 3100 N 294.142 -0.090211 1.57342 0
M  V30 3101 C 295.388 -0.793982 1.86611 0
M  V30 3102 C 295.721 -1.78142 0.773252 0
M  V30 3103 O 294.996 -1.93271 -0.218304 0
M  V30 3104 C 295.279 -1.51839 3.26523 0
M  V30 3105 C 295.132 -0.548609 4.46442 0
M  V30 3106 C 296.451 -2.46779 3.64401 0
M  V30 3107 H 293.57 -0.287186 0.678744 0
M  V30 3108 H 296.212 -0.0575076 1.89913 0
M  V30 3109 H 294.362 -2.14617 3.23839 0
M  V30 3110 H 296.034 0.0725513 4.61243 0
M  V30 3111 H 294.277 0.137614 4.33582 0
M  V30 3112 H 294.948 -1.09271 5.41076 0
M  V30 3113 H 297.424 -1.94089 3.68061 0
M  V30 3114 H 296.3 -2.94479 4.63221 0
M  V30 3115 H 296.561 -3.30758 2.93346 0
M  V30 3116 N 295.62 -1.53406 -0.361157 0
M  V30 3117 C 296.866 -1.70054 -1.10496 0
M  V30 3118 C 297.199 -0.453278 -1.88836 0
M  V30 3119 O 296.474 0.5495 -1.86576 0
M  V30 3120 C 296.757 -2.95317 -2.06058 0
M  V30 3121 C 296.61 -4.3021 -1.31298 0
M  V30 3122 C 297.929 -3.16193 -3.06121 0
M  V30 3123 H 295.048 -0.618799 -0.400321 0
M  V30 3124 H 297.69 -1.86052 -0.385318 0
M  V30 3125 H 295.84 -2.81809 -2.67425 0
M  V30 3126 H 297.512 -4.55538 -0.726807 0
M  V30 3127 H 295.755 -4.29421 -0.614853 0
M  V30 3128 H 296.426 -5.14 -2.01265 0
M  V30 3129 H 298.902 -3.28916 -2.5486 0
M  V30 3130 H 297.778 -4.05266 -3.70204 0
M  V30 3131 H 298.039 -2.31676 -3.76535 0
M  V30 3132 N 297.098 0.621204 -1.44841 0
M  V30 3133 C 298.344 1.38073 -1.49357 0
M  V30 3134 C 298.699 1.91973 -0.128115 0
M  V30 3135 O 297.992 1.71311 0.858087 0
M  V30 3136 C 298.186 2.55675 -2.4973 0
M  V30 3137 C 298.015 2.13289 -3.95901 0
M  V30 3138 C 296.785 2.001 -4.63991 0
M  V30 3139 C 298.983 1.7159 -4.84831 0
M  V30 3140 N 296.965 1.51381 -5.94943 0
M  V30 3141 C 298.336 1.34188 -6.05304 0
M  V30 3142 C 300.391 1.59059 -4.7181 0
M  V30 3143 C 299.094 0.855085 -7.14199 0
M  V30 3144 C 301.12 1.11784 -5.8074 0
M  V30 3145 C 300.482 0.753385 -7.0036 0
M  V30 3146 H 296.581 0.499675 -0.601539 0
M  V30 3147 H 299.165 0.711609 -1.8123 0
M  V30 3148 H 297.336 3.20201 -2.19832 0
M  V30 3149 H 299.068 3.22509 -2.4448 0
M  V30 3150 H 295.823 2.20863 -4.18947 0
M  V30 3151 H 296.247 1.29293 -6.64539 0
M  V30 3152 H 300.889 1.85865 -3.79755 0
M  V30 3153 H 298.607 0.574552 -8.06055 0
M  V30 3154 H 302.193 1.02533 -5.72694 0
M  V30 3155 H 301.073 0.393183 -7.83214 0
M  V30 3156 N 298.576 1.31904 0.862503 0
M  V30 3157 C 299.508 1.16005 1.97675 0
M  V30 3158 C 300.521 0.0971234 1.6251 0
M  V30 3159 O 301.71 0.345337 1.75128 0
M  V30 3160 C 298.81 0.751791 3.30456 0
M  V30 3161 C 297.983 1.90133 3.93914 0
M  V30 3162 C 297.042 1.4779 5.05019 0
M  V30 3163 O 296.068 2.18872 5.25437 0
M  V30 3164 N 297.27 0.369491 5.79323 0
M  V30 3165 H 300.035 2.11982 2.11857 0
M  V30 3166 H 297.596 1.24337 1.03691 0
M  V30 3167 H 299.588 0.451084 4.02178 0
M  V30 3168 H 298.158 -0.116593 3.12382 0
M  V30 3169 H 297.378 2.36896 3.15078 0
M  V30 3170 H 298.666 2.67111 4.33047 0
M  V30 3171 H 298.064 -0.222299 5.65263 0
M  V30 3172 H 296.621 0.128354 6.51674 0
M  V30 3173 N 300.054 -1.07777 1.14986 0
M  V30 3174 C 301.017 -2.13041 0.845358 0
M  V30 3175 C 302.017 -1.60071 -0.152931 0
M  V30 3176 O 303.207 -1.74033 0.0761879 0
M  V30 3177 C 300.339 -3.39896 0.261383 0
M  V30 3178 H 301.532 -2.41485 1.77834 0
M  V30 3179 H 299.085 -1.23595 0.956757 0
M  V30 3180 H 299.82 -3.17091 -0.68 0
M  V30 3181 H 299.605 -3.79642 0.980514 0
M  V30 3182 H 301.095 -4.17548 0.0657687 0
M  V30 3183 N 301.532 -0.945985 -1.26051 0
M  V30 3184 C 302.757 -0.612525 -1.98149 0
M  V30 3185 C 303.182 0.806623 -1.69927 0
M  V30 3186 O 302.54 1.54411 -0.950108 0
M  V30 3187 C 302.588 -0.866981 -3.50023 0
M  V30 3188 O 301.692 0.0585333 -4.12358 0
M  V30 3189 H 301.033 -0.23379 -0.621481 0
M  V30 3190 H 303.563 -1.27023 -1.60395 0
M  V30 3191 H 303.573 -0.789792 -4.00283 0
M  V30 3192 H 302.248 -1.90135 -3.69894 0
M  V30 3193 H 300.825 -0.0701241 -3.72834 0
M  V30 3194 N 303.011 1.40521 -0.713556 0
M  V30 3195 C 304.259 2.00527 -0.251692 0
M  V30 3196 C 304.58 1.56857 1.15848 0
M  V30 3197 O 303.85 0.807127 1.785 0
M  V30 3198 H 302.43 0.741551 -0.0900646 0
M  V30 3199 H 305.092 1.71887 -0.918733 0
M  V30 3200 H 304.188 3.10813 -0.283192 0
M  V30 3201 N 304.489 0.459591 1.5075 0
M  V30 3202 C 305.735 -0.091664 2.03193 0
M  V30 3203 C 306.09 -1.38432 1.3362 0
M  V30 3204 O 305.383 -1.86257 0.449322 0
M  V30 3205 C 305.577 -0.342866 3.55752 0
M  V30 3206 C 305.406 0.923888 4.40107 0
M  V30 3207 C 304.176 1.46388 4.83631 0
M  V30 3208 C 306.374 1.81617 4.81165 0
M  V30 3209 N 304.356 2.68086 5.52271 0
M  V30 3210 C 305.727 2.87907 5.49099 0
M  V30 3211 C 307.782 1.82793 4.63132 0
M  V30 3212 C 306.485 3.95347 6.0091 0
M  V30 3213 C 308.511 2.89182 5.15876 0
M  V30 3214 C 307.873 3.94191 5.83774 0
M  V30 3215 H 303.972 0.00619247 0.781975 0
M  V30 3216 H 306.556 0.625233 1.84388 0
M  V30 3217 H 304.727 -1.0288 3.74527 0
M  V30 3218 H 306.459 -0.887445 3.9485 0
M  V30 3219 H 303.214 1.01466 4.62603 0
M  V30 3220 H 303.638 3.29857 5.91205 0
M  V30 3221 H 308.28 1.0293 4.1008 0
M  V30 3222 H 305.998 4.76035 6.53006 0
M  V30 3223 H 309.584 2.91061 5.0376 0
M  V30 3224 H 308.464 4.75161 6.23853 0
M  V30 3225 N 305.967 -1.56429 0.191757 0
M  V30 3226 C 306.93 -2.17707 -0.716688 0
M  V30 3227 C 307.93 -1.13061 -1.14341 0
M  V30 3228 O 309.12 -1.38464 -1.05704 0
M  V30 3229 C 306.252 -2.77644 -1.97804 0
M  V30 3230 H 307.445 -2.99342 -0.1829 0
M  V30 3231 H 304.998 -1.56193 -0.0578566 0
M  V30 3232 H 305.733 -1.99799 -2.55443 0
M  V30 3233 H 305.518 -3.54246 -1.68083 0
M  V30 3234 H 307.008 -3.24708 -2.62592 0
M  V30 3235 N 307.445 0.0818655 -1.57387 0
M  V30 3236 C 308.408 1.08265 -2.02018 0
M  V30 3237 C 309.408 1.32183 -0.915664 0
M  V30 3238 O 310.598 1.28073 -1.18081 0
M  V30 3239 C 307.73 2.42871 -2.39221 0
M  V30 3240 H 308.923 0.698204 -2.91659 0
M  V30 3241 H 306.476 0.327303 -1.52835 0
M  V30 3242 H 307.211 2.86167 -1.52575 0
M  V30 3243 H 306.996 2.26855 -3.19811 0
M  V30 3244 H 308.486 3.14826 -2.74362 0
M  V30 3245 N 308.923 1.53595 0.353017 0
M  V30 3246 C 310.339 1.43648 0.695516 0
M  V30 3247 C 310.539 0.585617 1.92802 0
M  V30 3248 O 309.595 0.0729223 2.52395 0
M  V30 3249 C 310.908 2.8701 0.896991 0
M  V30 3250 C 312.456 2.96723 0.996209 0
M  V30 3251 C 312.931 4.41173 1.23007 0
M  V30 3252 N 314.422 4.44657 1.29749 0
M  V30 3253 C 315.157 5.53547 1.49577 0
M  V30 3254 N 314.653 6.72461 1.66639 0
M  V30 3255 N 316.446 5.41145 1.52048 0
M  V30 3256 H 308.597 2.07415 -0.457481 0
M  V30 3257 H 310.86 0.9372 -0.142687 0
M  V30 3258 H 310.566 3.51644 0.0629938 0
M  V30 3259 H 310.44 3.31401 1.80148 0
M  V30 3260 H 312.827 2.32235 1.82074 0
M  V30 3261 H 312.908 2.55707 0.0688331 0
M  V30 3262 H 312.552 5.06238 0.410505 0
M  V30 3263 H 312.482 4.79772 2.17086 0
M  V30 3264 H 314.973 3.58963 1.18126 0
M  V30 3265 H 315.286 7.51214 1.81378 0
M  V30 3266 H 313.631 6.75423 1.63794 0
M  V30 3267 H 316.822 4.47205 1.38294 0
M  V30 3268 H 316.995 6.26068 1.67159 0
M  V30 3269 N 310.401 -0.613514 1.45168 0
M  V30 3270 C 311.65 -1.36874 1.4815 0
M  V30 3271 C 311.963 -1.952 0.124982 0
M  V30 3272 O 313.169 -2.71481 0.0324176 0
M  V30 3273 C 311.625 -2.47905 2.60904 0
M  V30 3274 C 311.233 -1.96016 4.02842 0
M  V30 3275 C 312.977 -3.24965 2.73126 0
M  V30 3276 C 310.884 -3.04494 5.06988 0
M  V30 3277 H 309.814 -0.514428 0.551253 0
M  V30 3278 H 312.465 -0.658182 1.7129 0
M  V30 3279 H 310.847 -3.21618 2.31037 0
M  V30 3280 H 312.021 -1.29051 4.4236 0
M  V30 3281 H 310.336 -1.31719 3.95018 0
M  V30 3282 H 312.933 -4.05865 3.48106 0
M  V30 3283 H 313.276 -3.75588 1.79553 0
M  V30 3284 H 313.809 -2.5835 3.0249 0
M  V30 3285 H 310.548 -2.58795 6.0225 0
M  V30 3286 H 310.068 -3.70044 4.72046 0
M  V30 3287 H 311.747 -3.68976 5.31475 0
M  V30 3288 N 311.879 -1.3236 -0.855495 0
M  V30 3289 C 313.128 -1.22226 -1.60448 0
M  V30 3290 C 313.441 0.214733 -1.94418 0
M  V30 3291 O 314.647 0.437917 -2.67945 0
M  V30 3292 C 313.103 -2.14063 -2.89318 0
M  V30 3293 C 312.711 -3.62839 -2.62777 0
M  V30 3294 C 314.455 -2.12764 -3.67331 0
M  V30 3295 C 312.362 -4.4664 -3.87643 0
M  V30 3296 H 311.292 -0.453904 -0.602069 0
M  V30 3297 H 313.943 -1.57314 -0.944698 0
M  V30 3298 H 312.325 -1.71889 -3.5675 0
M  V30 3299 H 313.499 -4.1335 -2.03662 0
M  V30 3300 H 311.814 -3.66261 -1.98096 0
M  V30 3301 H 314.411 -2.72611 -4.59987 0
M  V30 3302 H 314.754 -1.11841 -4.00995 0
M  V30 3303 H 315.287 -2.53214 -3.06802 0
M  V30 3304 H 312.026 -5.48373 -3.5912 0
M  V30 3305 H 311.546 -4.0088 -4.46156 0
M  V30 3306 H 313.225 -4.59597 -4.55389 0
M  V30 3307 N 313.357 1.07166 -1.15556 0
M  V30 3308 C 314.289 2.14341 -0.811815 0
M  V30 3309 C 315.302 1.61835 0.177015 0
M  V30 3310 O 316.491 1.78439 -0.0464996 0
M  V30 3311 C 313.591 3.38387 -0.186481 0
M  V30 3312 C 312.764 4.20238 -1.21321 0
M  V30 3313 C 311.823 5.2266 -0.609302 0
M  V30 3314 O 310.849 5.54719 -1.27576 0
M  V30 3315 N 312.051 5.77306 0.608099 0
M  V30 3316 H 314.816 2.44431 -1.73417 0
M  V30 3317 H 312.377 1.23089 -1.0517 0
M  V30 3318 H 314.369 4.04044 0.230339 0
M  V30 3319 H 312.939 3.05994 0.639249 0
M  V30 3320 H 312.159 3.50369 -1.80652 0
M  V30 3321 H 313.447 4.71736 -1.90638 0
M  V30 3322 H 312.845 5.53513 1.1679 0
M  V30 3323 H 311.402 6.44583 0.96725 0
M  V30 3324 N 314.835 0.952656 1.25548 0
M  V30 3325 C 315.785 0.442033 2.23674 0
M  V30 3326 C 316.769 -0.467632 1.53955 0
M  V30 3327 O 317.961 -0.301006 1.74422 0
M  V30 3328 C 315.09 -0.280816 3.4215 0
M  V30 3329 C 314.176 0.646803 4.19139 0
M  V30 3330 N 314.567 1.77759 4.73535 0
M  V30 3331 C 312.865 0.454617 4.43677 0
M  V30 3332 C 313.566 2.35658 5.31827 0
M  V30 3333 N 312.542 1.64333 5.18166 0
M  V30 3334 H 316.344 1.30505 2.63336 0
M  V30 3335 H 313.858 0.809904 1.40763 0
M  V30 3336 H 315.855 -0.663747 4.11582 0
M  V30 3337 H 314.515 -1.14046 3.04012 0
M  V30 3338 H 315.526 2.15949 4.7073 0
M  V30 3339 H 312.203 -0.362312 4.15925 0
M  V30 3340 H 313.593 3.30998 5.84713 0
M  V30 3341 N 316.313 -1.40141 0.720998 0
M  V30 3342 C 317.223 -2.34486 0.0731031 0
M  V30 3343 C 318.239 -1.57587 -0.737723 0
M  V30 3344 O 319.415 -1.89949 -0.669429 0
M  V30 3345 C 316.48 -3.36528 -0.833656 0
M  V30 3346 C 315.541 -4.29298 -0.0121673 0
M  V30 3347 C 314.774 -5.26466 -0.875742 0
M  V30 3348 O 314.997 -5.29745 -2.11485 0
M  V30 3349 O 313.931 -6.01092 -0.31185 0
M  V30 3350 H 317.757 -2.9152 0.851444 0
M  V30 3351 H 315.342 -1.41427 0.481527 0
M  V30 3352 H 317.224 -3.99093 -1.35289 0
M  V30 3353 H 315.899 -2.81899 -1.59105 0
M  V30 3354 H 314.806 -3.70001 0.552262 0
M  V30 3355 H 316.139 -4.87094 0.707129 0
M  V30 3356 N 317.792 -0.46758 -1.50504 0
M  V30 3357 C 318.725 0.374324 -2.25109 0
M  V30 3358 C 319.703 0.99921 -1.28275 0
M  V30 3359 O 320.887 1.03583 -1.57489 0
M  V30 3360 C 318.014 1.52419 -3.02467 0
M  V30 3361 C 317.06 1.01702 -4.14197 0
M  V30 3362 S 317.893 -0.0654477 -5.3546 0
M  V30 3363 C 319.049 1.08837 -6.16365 0
M  V30 3364 H 319.282 -0.258983 -2.9617 0
M  V30 3365 H 316.815 -0.252421 -1.52323 0
M  V30 3366 H 318.773 2.18322 -3.47628 0
M  V30 3367 H 317.434 2.129 -2.30938 0
M  V30 3368 H 316.627 1.87776 -4.67714 0
M  V30 3369 H 316.229 0.435757 -3.71453 0
M  V30 3370 H 318.521 2.00071 -6.47285 0
M  V30 3371 H 319.464 0.592538 -7.05616 0
M  V30 3372 H 319.872 1.34061 -5.4835 0
M  V30 3373 N 319.27 1.56325 -0.20005 0
M  V30 3374 C 320.547 1.89484 0.48529 0
M  V30 3375 C 320.927 1.1143 1.79294 0
M  V30 3376 O 320.275 0.216919 2.27468 0
M  V30 3377 C 320.485 3.41923 0.699243 0
M  V30 3378 C 321.833 4.12256 1.01638 0
M  V30 3379 O 322.857 3.47402 0.786792 0
M  V30 3380 O 321.716 5.26887 1.45095 0
M  V30 3381 H 318.81 0.787144 0.253639 0
M  V30 3382 H 321.356 1.67985 -0.240633 0
M  V30 3383 H 320.128 3.90658 -0.224008 0
M  V30 3384 H 319.751 3.69131 1.47744 0
M  V30 3385 N 320.748 -0.0735177 1.57428 0
M  V30 3386 C 321.698 -1.09442 2.00016 0
M  V30 3387 C 322.682 -1.34575 0.881947 0
M  V30 3388 O 323.874 -1.34905 1.14585 0
M  V30 3389 C 321.003 -2.40865 2.4462 0
M  V30 3390 C 320.089 -2.19014 3.63172 0
M  V30 3391 N 320.48 -1.67087 4.77405 0
M  V30 3392 C 318.778 -2.49494 3.69688 0
M  V30 3393 C 319.479 -1.6001 5.5926 0
M  V30 3394 N 318.455 -2.05999 5.03056 0
M  V30 3395 H 322.257 -0.686227 2.85776 0
M  V30 3396 H 319.771 -0.280617 1.59957 0
M  V30 3397 H 321.768 -3.14763 2.73368 0
M  V30 3398 H 320.428 -2.82403 1.60246 0
M  V30 3399 H 321.439 -1.35975 4.99731 0
M  V30 3400 H 318.116 -2.94409 2.96023 0
M  V30 3401 H 319.506 -1.2073 6.60964 0
M  V30 3402 N 322.226 -1.5378 -0.344866 0
M  V30 3403 C 323.156 -1.84662 -1.42906 0
M  V30 3404 C 324.137 -0.701648 -1.54955 0
M  V30 3405 O 325.322 -0.953438 -1.69184 0
M  V30 3406 C 322.452 -2.05503 -2.79974 0
M  V30 3407 C 321.406 -3.21318 -2.82734 0
M  V30 3408 C 320.732 -3.2749 -4.22675 0
M  V30 3409 C 322.032 -4.59456 -2.48389 0
M  V30 3410 H 323.726 -2.75461 -1.17311 0
M  V30 3411 H 321.272 -1.32542 -0.562896 0
M  V30 3412 H 323.225 -2.25691 -3.55867 0
M  V30 3413 H 321.949 -1.11434 -3.07002 0
M  V30 3414 H 320.608 -3.00984 -2.09294 0
M  V30 3415 H 320.256 -2.31019 -4.4681 0
M  V30 3416 H 319.956 -4.05316 -4.25433 0
M  V30 3417 H 321.48 -3.49887 -5.00412 0
M  V30 3418 H 322.894 -4.79667 -3.13995 0
M  V30 3419 H 321.291 -5.39675 -2.62432 0
M  V30 3420 H 322.361 -4.63155 -1.4358 0
M  V30 3421 N 323.704 0.605807 -1.45491 0
M  V30 3422 C 324.636 1.73031 -1.5031 0
M  V30 3423 C 325.649 1.57968 -0.393687 0
M  V30 3424 O 326.838 1.65817 -0.660839 0
M  V30 3425 C 323.938 3.11049 -1.34543 0
M  V30 3426 C 323.111 3.52334 -2.59189 0
M  V30 3427 C 322.17 4.69323 -2.37954 0
M  V30 3428 O 321.196 4.7635 -3.11575 0
M  V30 3429 N 322.398 5.62705 -1.4263 0
M  V30 3430 H 325.163 1.6936 -2.4726 0
M  V30 3431 H 322.724 0.79114 -1.41254 0
M  V30 3432 H 324.716 3.87071 -1.18144 0
M  V30 3433 H 323.286 3.09217 -0.458623 0
M  V30 3434 H 322.506 2.66256 -2.90691 0
M  V30 3435 H 323.794 3.76677 -3.42041 0
M  V30 3436 H 323.192 5.59744 -0.818758 0
M  V30 3437 H 321.749 6.38252 -1.32202 0
M  V30 3438 N 325.182 1.32811 0.848464 0
M  V30 3439 C 326.43 1.23479 1.59991 0
M  V30 3440 C 326.751 -0.201853 1.93952 0
M  V30 3441 O 326.021 -1.12818 1.60153 0
M  V30 3442 H 324.601 0.454034 0.593179 0
M  V30 3443 H 327.263 1.66412 1.01455 0
M  V30 3444 H 326.359 1.82178 2.53412 0
M  V30 3445 N 326.66 -1.06551 1.16123 0
M  V30 3446 C 327.9 -1.80889 0.951766 0
M  V30 3447 C 328.264 -1.85062 -0.511465 0
M  V30 3448 O 329.465 -2.55353 -0.83954 0
M  V30 3449 C 327.736 -3.21609 1.55893 0
M  V30 3450 S 329.295 -4.12593 1.49373 0
M  V30 3451 H 326.113 -0.623156 0.342341 0
M  V30 3452 H 328.715 -1.27943 1.47821 0
M  V30 3453 H 327.419 -3.16165 2.61664 0
M  V30 3454 H 326.95 -3.79631 1.0317 0
M  V30 3455 H 328.965 -4.93753 0.492196 0
M  V30 3456 N 328.138 -0.959301 -1.25041 0
M  V30 3457 C 329.068 -0.501388 -2.28053 0
M  V30 3458 C 330.049 0.454673 -1.63911 0
M  V30 3459 O 331.234 0.352618 -1.90972 0
M  V30 3460 C 328.364 0.217224 -3.4662 0
M  V30 3461 C 327.318 -0.654034 -4.22973 0
M  V30 3462 C 326.644 0.195589 -5.34342 0
M  V30 3463 C 327.944 -1.93447 -4.85155 0
M  V30 3464 H 329.638 -1.36238 -2.66608 0
M  V30 3465 H 327.184 -0.656534 -1.28163 0
M  V30 3466 H 329.137 0.548732 -4.17812 0
M  V30 3467 H 327.861 1.1125 -3.07068 0
M  V30 3468 H 326.52 -0.968693 -3.5357 0
M  V30 3469 H 326.168 1.09076 -4.91031 0
M  V30 3470 H 325.868 -0.384091 -5.86343 0
M  V30 3471 H 327.392 0.521958 -6.08365 0
M  V30 3472 H 328.806 -1.66908 -5.48466 0
M  V30 3473 H 327.203 -2.46018 -5.47353 0
M  V30 3474 H 328.273 -2.63466 -4.07079 0
M  V30 3475 N 329.616 1.39756 -0.72842 0
M  V30 3476 C 330.863 2.00645 -0.273487 0
M  V30 3477 C 331.191 1.57786 1.13727 0
M  V30 3478 O 330.446 0.794886 1.7883 0
M  V30 3479 C 330.745 3.56002 -0.315776 0
M  V30 3480 C 330.411 4.18489 -1.67863 0
M  V30 3481 C 329.073 4.3527 -2.05166 0
M  V30 3482 C 331.425 4.53219 -2.57375 0
M  V30 3483 C 328.753 4.84069 -3.31503 0
M  V30 3484 C 331.105 5.03423 -3.83077 0
M  V30 3485 C 329.769 5.18413 -4.20481 0
M  V30 3486 H 329.039 0.734211 -0.100076 0
M  V30 3487 H 331.686 1.6718 -0.933972 0
M  V30 3488 H 329.991 3.89452 0.428285 0
M  V30 3489 H 331.688 4.00963 0.0542575 0
M  V30 3490 H 328.278 4.05824 -1.37858 0
M  V30 3491 H 332.462 4.39878 -2.29827 0
M  V30 3492 H 327.718 4.93859 -3.60435 0
M  V30 3493 H 331.892 5.2927 -4.52599 0
M  V30 3494 H 329.519 5.55987 -5.18443 0
M  V30 3495 N 331.094 0.475555 1.50254 0
M  V30 3496 C 332.343 -0.0795996 2.01543 0
M  V30 3497 C 332.656 -1.4038 1.36209 0
M  V30 3498 O 333.862 -2.04415 1.7868 0
M  V30 3499 C 332.318 -0.192363 3.59386 0
M  V30 3500 C 331.926 1.12367 4.33679 0
M  V30 3501 C 333.67 -0.699238 4.18701 0
M  V30 3502 C 331.577 0.974453 5.83317 0
M  V30 3503 H 330.507 -0.0335228 0.753254 0
M  V30 3504 H 333.158 0.611128 1.73025 0
M  V30 3505 H 331.54 -0.946974 3.84511 0
M  V30 3506 H 332.714 1.88958 4.20276 0
M  V30 3507 H 331.029 1.562 3.85993 0
M  V30 3508 H 333.626 -0.827978 5.28251 0
M  V30 3509 H 333.969 -1.69171 3.80377 0
M  V30 3510 H 334.502 -0.00188807 3.978 0
M  V30 3511 H 331.241 1.94042 6.26121 0
M  V30 3512 H 330.761 0.248998 5.99283 0
M  V30 3513 H 332.44 0.642867 6.43798 0
M  V30 3514 N 332.573 -1.56217 0.208337 0
M  V30 3515 C 333.85 -1.89739 -0.475234 0
M  V30 3516 C 334.23 -1.1238 -1.78701 0
M  V30 3517 O 333.578 -0.228979 -2.2735 0
M  V30 3518 C 333.788 -3.42289 -0.681101 0
M  V30 3519 C 335.136 -4.12789 -0.994507 0
M  V30 3520 O 336.16 -3.47814 -0.768357 0
M  V30 3521 O 335.019 -5.27649 -1.42299 0
M  V30 3522 H 332.113 -0.788478 -0.249461 0
M  V30 3523 H 334.659 -1.67855 0.249538 0
M  V30 3524 H 333.431 -3.90534 0.244722 0
M  V30 3525 H 333.054 -3.69909 -1.45785 0
M  V30 3526 N 334.051 0.0651679 -1.57465 0
M  V30 3527 C 334.998 1.07675 -2.04144 0
M  V30 3528 C 335.968 1.38071 -0.923335 0
M  V30 3529 O 337.153 1.49026 -1.19146 0
M  V30 3530 C 334.293 2.38337 -2.49579 0
M  V30 3531 C 333.406 2.14413 -3.75035 0
M  V30 3532 C 332.541 3.38686 -4.09225 0
M  V30 3533 C 331.58 3.10156 -5.27702 0
M  V30 3534 N 330.717 4.26778 -5.57499 0
M  V30 3535 H 335.557 0.671716 -2.90331 0
M  V30 3536 H 333.094 0.3201 -1.43575 0
M  V30 3537 H 335.052 3.14632 -2.73975 0
M  V30 3538 H 333.682 2.7663 -1.6636 0
M  V30 3539 H 332.734 1.2878 -3.57939 0
M  V30 3540 H 334.046 1.89344 -4.61466 0
M  V30 3541 H 333.2 4.23373 -4.34558 0
M  V30 3542 H 331.939 3.66837 -3.21374 0
M  V30 3543 H 330.944 2.23866 -5.02159 0
M  V30 3544 H 332.169 2.8332 -6.17176 0
M  V30 3545 H 330.115 4.54948 -4.72608 0
M  V30 3546 H 330.032 4.05005 -6.38362 0
M  V30 3547 H 331.3 5.12443 -5.87386 0
M  V30 3548 N 335.529 1.53961 0.336706 0
M  V30 3549 C 336.462 1.77255 1.43722 0
M  V30 3550 C 337.44 0.62193 1.50236 0
M  V30 3551 O 338.624 0.857874 1.67847 0
M  V30 3552 C 335.751 1.87733 2.81912 0
M  V30 3553 C 334.797 3.09933 2.92991 0
M  V30 3554 S 335.63 4.68836 2.58753 0
M  V30 3555 C 336.786 4.82202 3.99039 0
M  V30 3556 H 337.019 2.70322 1.23748 0
M  V30 3557 H 334.552 1.44917 0.532777 0
M  V30 3558 H 336.51 1.94455 3.61521 0
M  V30 3559 H 335.171 0.956666 2.99177 0
M  V30 3560 H 334.364 3.1396 3.94265 0
M  V30 3561 H 333.966 3.01472 2.21338 0
M  V30 3562 H 336.258 4.64032 4.9364 0
M  V30 3563 H 337.201 5.84298 4.00002 0
M  V30 3564 H 337.609 4.10604 3.87382 0
M  V30 3565 N 337.007 -0.598083 1.45811 0
M  V30 3566 C 338.284 -1.35777 1.40797 0
M  V30 3567 C 338.664 -2.10935 0.083462 0
M  V30 3568 O 338.012 -2.08505 -0.934763 0
M  V30 3569 C 338.222 -2.29666 2.62783 0
M  V30 3570 C 339.57 -2.91977 3.08277 0
M  V30 3571 O 340.594 -2.39984 2.63223 0
M  V30 3572 O 339.453 -3.86376 3.86491 0
M  V30 3573 H 336.547 -0.609291 0.55919 0
M  V30 3574 H 339.093 -0.620379 1.57954 0
M  V30 3575 H 337.865 -1.73454 3.50756 0
M  V30 3576 H 337.488 -3.1077 2.48008 0
M  V30 3577 N 338.485 -1.33259 -0.841409 0
M  V30 3578 C 339.71 -1.2775 -1.63385 0
M  V30 3579 C 340.135 0.149188 -1.87507 0
M  V30 3580 O 339.493 1.10498 -1.43736 0
M  V30 3581 C 339.541 -2.05571 -2.96265 0
M  V30 3582 O 338.645 -1.41257 -3.87453 0
M  V30 3583 H 337.986 -0.439627 -0.497618 0
M  V30 3584 H 340.516 -1.75782 -1.04699 0
M  V30 3585 H 340.526 -2.16241 -3.45982 0
M  V30 3586 H 339.201 -3.09309 -2.7803 0
M  V30 3587 H 337.778 -1.39217 -3.45938 0
M  V30 3588 N 339.963 1.05934 -1.16686 0
M  V30 3589 C 341.379 1.30938 -0.912542 0
M  V30 3590 C 341.579 1.96803 0.432533 0
M  V30 3591 O 340.635 2.23693 1.17123 0
M  V30 3592 C 341.948 2.18649 -2.06429 0
M  V30 3593 C 343.496 2.32055 -2.10047 0
M  V30 3594 C 343.971 3.23122 -3.24586 0
M  V30 3595 N 345.462 3.30706 -3.24327 0
M  V30 3596 C 346.197 4.01273 -4.09594 0
M  V30 3597 N 345.693 4.74332 -5.04956 0
M  V30 3598 N 347.486 3.97361 -3.97569 0
M  V30 3599 H 339.637 0.615777 -2.03278 0
M  V30 3600 H 341.9 0.334077 -0.887185 0
M  V30 3601 H 341.606 1.77534 -3.03603 0
M  V30 3602 H 341.48 3.19252 -2.00894 0
M  V30 3603 H 343.867 2.72415 -1.13464 0
M  V30 3604 H 343.948 1.31107 -2.19647 0
M  V30 3605 H 343.592 2.83477 -4.2143 0
M  V30 3606 H 343.522 4.24057 -3.12223 0
M  V30 3607 H 346.013 2.78644 -2.55276 0
M  V30 3608 H 346.326 5.25716 -5.6643 0
M  V30 3609 H 344.671 4.733 -5.08933 0
M  V30 3610 H 347.862 3.39405 -3.22369 0
M  V30 3611 H 348.035 4.52089 -4.64241 0
M  V30 3612 N 341.441 0.965919 1.2453 0
M  V30 3613 C 342.669 0.644385 1.96609 0
M  V30 3614 C 343.084 -0.785823 1.71669 0
M  V30 3615 O 342.441 -1.52703 0.999399 0
M  V30 3616 C 342.492 0.907375 3.49927 0
M  V30 3617 O 342.213 2.28136 3.74013 0
M  V30 3618 C 343.714 0.599784 4.39224 0
M  V30 3619 H 340.934 0.240588 0.626385 0
M  V30 3620 H 343.478 1.29337 1.58405 0
M  V30 3621 H 341.633 0.304631 3.862 0
M  V30 3622 H 342.047 2.36002 4.68405 0
M  V30 3623 H 343.521 0.834263 5.45659 0
M  V30 3624 H 343.998 -0.465921 4.36722 0
M  V30 3625 H 344.604 1.18235 4.08535 0
M  V30 3626 N 342.919 -1.39368 0.735821 0
M  V30 3627 C 344.166 -2.00497 0.284123 0
M  V30 3628 C 344.494 -1.58387 -1.12889 0
M  V30 3629 O 343.749 -0.804359 -1.78406 0
M  V30 3630 C 344.048 -3.5583 0.334651 0
M  V30 3631 C 343.714 -4.17593 1.7008 0
M  V30 3632 C 342.376 -4.34176 2.07472 0
M  V30 3633 C 344.728 -4.51848 2.59775 0
M  V30 3634 C 342.056 -4.82304 3.34065 0
M  V30 3635 C 344.408 -5.01384 3.85741 0
M  V30 3636 C 343.072 -5.16175 4.23225 0
M  V30 3637 H 342.342 -0.73367 0.103968 0
M  V30 3638 H 344.989 -1.66683 0.942825 0
M  V30 3639 H 343.294 -3.89674 -0.407625 0
M  V30 3640 H 344.991 -4.00986 -0.0329927 0
M  V30 3641 H 341.581 -4.05087 1.40008 0
M  V30 3642 H 345.765 -4.38653 2.32157 0
M  V30 3643 H 341.021 -4.91941 3.63049 0
M  V30 3644 H 345.195 -5.26863 4.55399 0
M  V30 3645 H 342.822 -5.5323 5.21384 0
M  V30 3646 N 344.397 -0.483516 -1.5 0
M  V30 3647 C 345.625 0.0644831 -2.06799 0
M  V30 3648 C 346.04 1.32399 -1.34596 0
M  V30 3649 O 345.397 1.77626 -0.418946 0
M  V30 3650 C 345.448 0.339927 -3.59898 0
M  V30 3651 O 345.169 -0.869635 -4.29382 0
M  V30 3652 C 346.67 0.933515 -4.33359 0
M  V30 3653 H 343.89 -0.0126333 -0.670881 0
M  V30 3654 H 346.434 -0.675864 -1.93009 0
M  V30 3655 H 344.589 1.03022 -3.7345 0
M  V30 3656 H 345.003 -0.62179 -5.20801 0
M  V30 3657 H 346.477 1.07593 -5.41413 0
M  V30 3658 H 346.954 1.92685 -3.94676 0
M  V30 3659 H 347.56 0.281221 -4.24369 0
M  V30 3660 N 345.875 1.56104 -0.216619 0
M  V30 3661 C 346.823 2.21434 0.712036 0
M  V30 3662 C 347.817 1.19218 1.20348 0
M  V30 3663 O 349.023 1.3731 1.16387 0
M  V30 3664 H 345.398 0.70992 0.248026 0
M  V30 3665 H 347.369 2.98083 0.137558 0
M  V30 3666 C 346.118 2.90434 1.91163 0
M  V30 3667 H 345.441 3.68842 1.54258 0
M  V30 3668 H 346.881 3.39552 2.5393 0
M  V30 3669 C 345.34 1.92635 2.76394 0
M  V30 3670 O 345.87 1.44017 3.74996 0
M  V30 3671 N 344.076 1.60392 2.42328 0
M  V30 3672 H 343.623 2.00122 1.622 0
M  V30 3673 H 343.581 0.952159 2.99635 0
M  V30 3674 N 347.353 -0.0568162 1.57498 0
M  V30 3675 C 348.599 -0.75422 1.88253 0
M  V30 3676 C 348.932 -1.76461 0.810865 0
M  V30 3677 O 348.207 -1.93691 -0.177259 0
M  V30 3678 C 348.49 -1.44878 3.2967 0
M  V30 3679 C 348.343 -0.453789 4.47505 0
M  V30 3680 C 349.662 -2.38994 3.69554 0
M  V30 3681 H 346.781 -0.272724 0.684683 0
M  V30 3682 H 349.423 -0.0172113 1.89992 0
M  V30 3683 H 347.573 -2.077 3.28318 0
M  V30 3684 H 349.245 0.170371 4.60985 0
M  V30 3685 H 347.488 0.229552 4.33192 0
M  V30 3686 H 348.159 -0.977699 5.43273 0
M  V30 3687 H 350.635 -1.86239 3.72095 0
M  V30 3688 H 349.511 -2.84587 4.69363 0
M  V30 3689 H 349.772 -3.24461 3.00296 0
M  V30 3690 N 348.832 -1.54138 -0.328536 0
M  V30 3691 C 350.062 -1.75807 -1.08516 0
M  V30 3692 C 350.47 -0.50428 -1.82356 0
M  V30 3693 O 349.813 0.534451 -1.75754 0
M  V30 3694 C 349.875 -2.89423 -2.13248 0
M  V30 3695 C 349.539 -4.28504 -1.5885 0
M  V30 3696 C 350.536 -5.09536 -1.03289 0
M  V30 3697 C 348.221 -4.75034 -1.63243 0
M  V30 3698 C 350.215 -6.35206 -0.52845 0
M  V30 3699 C 347.902 -6.00672 -1.12411 0
M  V30 3700 C 348.9 -6.80592 -0.573062 0
M  V30 3701 O 348.588 -8.03867 -0.0723692 0
M  V30 3702 H 348.32 -0.590633 -0.328829 0
M  V30 3703 H 350.874 -2.01819 -0.381868 0
M  V30 3704 H 349.104 -2.5897 -2.87178 0
M  V30 3705 H 350.793 -2.98921 -2.74592 0
M  V30 3706 H 351.559 -4.74745 -0.99206 0
M  V30 3707 H 347.438 -4.12875 -2.05074 0
M  V30 3708 H 350.982 -6.97532 -0.0976774 0
M  V30 3709 H 346.879 -6.34955 -1.162 0
M  V30 3710 H 347.647 -8.18283 -0.188258 0
M  V30 3711 N 350.31 0.590341 -1.46126 0
M  V30 3712 C 351.556 1.34874 -1.52252 0
M  V30 3713 C 351.911 1.91658 -0.168807 0
M  V30 3714 O 351.204 1.73093 0.821556 0
M  V30 3715 C 351.398 2.5032 -2.55097 0
M  V30 3716 C 351.227 2.04843 -4.00337 0
M  V30 3717 C 349.997 1.90213 -4.68132 0
M  V30 3718 C 352.195 1.61267 -4.88362 0
M  V30 3719 N 350.177 1.38727 -5.9802 0
M  V30 3720 C 351.548 1.21319 -6.08015 0
M  V30 3721 C 353.603 1.49015 -4.75078 0
M  V30 3722 C 352.306 0.7034 -7.15852 0
M  V30 3723 C 354.332 0.994401 -5.8298 0
M  V30 3724 C 353.694 0.604659 -7.018 0
M  V30 3725 H 349.793 0.486803 -0.612002 0
M  V30 3726 H 352.377 0.673007 -1.82698 0
M  V30 3727 H 350.548 3.15466 -2.26574 0
M  V30 3728 H 352.28 3.1725 -2.51266 0
M  V30 3729 H 349.035 2.11927 -4.23537 0
M  V30 3730 H 349.459 1.15168 -6.67132 0
M  V30 3731 H 354.101 1.77768 -3.83612 0
M  V30 3732 H 351.819 0.403446 -8.07092 0
M  V30 3733 H 355.405 0.903621 -5.7474 0
M  V30 3734 H 354.285 0.226963 -7.83871 0
M  V30 3735 N 351.788 1.33704 0.83433 0
M  V30 3736 C 352.721 1.18675 1.94914 0
M  V30 3737 C 353.699 0.0811145 1.62398 0
M  V30 3738 O 354.883 0.244186 1.86912 0
M  V30 3739 C 352.01 0.821231 3.28593 0
M  V30 3740 C 351.056 1.93501 3.80079 0
M  V30 3741 S 351.889 3.54671 4.01209 0
M  V30 3742 C 353.045 3.20136 5.37833 0
M  V30 3743 H 353.278 2.13043 2.07364 0
M  V30 3744 H 350.811 1.18598 0.988624 0
M  V30 3745 H 352.769 0.617123 4.05835 0
M  V30 3746 H 351.43 -0.103927 3.13928 0
M  V30 3747 H 350.623 1.63273 4.76821 0
M  V30 3748 H 350.225 2.09601 3.09747 0
M  V30 3749 H 352.517 2.71242 6.20833 0
M  V30 3750 H 353.46 4.15975 5.73036 0
M  V30 3751 H 353.868 2.56613 5.02802 0
M  V30 3752 N 353.266 -1.05314 1.17247 0
M  V30 3753 C 354.213 -2.13031 0.888058 0
M  V30 3754 C 355.183 -1.65253 -0.167537 0
M  V30 3755 O 356.368 -1.90775 -0.0305974 0
M  V30 3756 C 353.508 -3.42702 0.406147 0
M  V30 3757 C 352.621 -4.04161 1.52572 0
M  V30 3758 C 351.756 -5.21744 0.997808 0
M  V30 3759 C 350.795 -5.75207 2.09291 0
M  V30 3760 N 349.932 -6.84094 1.57986 0
M  V30 3761 H 354.772 -2.36698 1.81048 0
M  V30 3762 H 352.309 -1.16121 0.903013 0
M  V30 3763 H 354.267 -4.17059 0.108305 0
M  V30 3764 H 352.897 -3.19222 -0.479313 0
M  V30 3765 H 351.949 -3.27253 1.93931 0
M  V30 3766 H 353.261 -4.39881 2.35172 0
M  V30 3767 H 352.415 -6.03168 0.653739 0
M  V30 3768 H 351.154 -4.87495 0.141232 0
M  V30 3769 H 350.159 -4.92414 2.44557 0
M  V30 3770 H 351.384 -6.11505 2.95362 0
M  V30 3771 H 349.33 -6.51745 0.74598 0
M  V30 3772 H 349.247 -7.18811 2.34195 0
M  V30 3773 H 350.515 -7.69172 1.26468 0
M  V30 3774 N 354.744 -0.972509 -1.24016 0
M  V30 3775 C 355.99 -0.637978 -1.92504 0
M  V30 3776 C 356.323 0.825383 -1.75787 0
M  V30 3777 O 355.598 1.59442 -1.11393 0
M  V30 3778 C 355.881 -1.01942 -3.45369 0
M  V30 3779 C 355.734 -2.53983 -3.71231 0
M  V30 3780 C 357.053 -0.55751 -4.36555 0
M  V30 3781 H 354.172 -0.233248 -0.699117 0
M  V30 3782 H 356.814 -1.21238 -1.46292 0
M  V30 3783 H 354.964 -0.530656 -3.84859 0
M  V30 3784 H 356.636 -3.10374 -3.41271 0
M  V30 3785 H 354.879 -2.96968 -3.16216 0
M  V30 3786 H 355.55 -2.75723 -4.78206 0
M  V30 3787 H 358.026 -0.977029 -4.04467 0
M  V30 3788 H 356.902 -0.85292 -5.42233 0
M  V30 3789 H 357.163 0.542328 -4.38761 0
M  V30 3790 N 356.222 1.38976 -0.743202 0
M  V30 3791 C 357.17 2.32394 -0.0978389 0
M  V30 3792 C 358.164 1.53486 0.716824 0
M  V30 3793 O 359.37 1.69092 0.617088 0
M  V30 3794 H 355.745 0.75189 -0.0128402 0
M  V30 3795 H 357.716 2.84441 -0.901981 0
M  V30 3796 C 356.465 3.38629 0.789036 0
M  V30 3797 H 355.788 3.99432 0.171559 0
M  V30 3798 H 357.228 4.06426 1.20807 0
M  V30 3799 C 355.687 2.76347 1.92702 0
M  V30 3800 O 356.217 2.64836 3.02034 0
M  V30 3801 N 354.423 2.34311 1.71891 0
M  V30 3802 H 353.97 2.43873 0.829675 0
M  V30 3803 H 353.928 1.9298 2.48205 0
M  V30 3804 N 357.7 0.491464 1.49741 0
M  V30 3805 C 358.977 -0.118984 1.95238 0
M  V30 3806 C 359.357 -1.55044 1.43264 0
M  V30 3807 O 358.705 -2.19287 0.642287 0
M  V30 3808 C 358.915 -0.0414187 3.48975 0
M  V30 3809 C 360.263 -0.220133 4.24029 0
M  V30 3810 O 361.287 -0.117055 3.56008 0
M  V30 3811 O 360.146 -0.430567 5.44801 0
M  V30 3812 H 357.24 -0.100536 0.820866 0
M  V30 3813 H 359.786 0.553322 1.60426 0
M  V30 3814 H 358.558 0.957214 3.79412 0
M  V30 3815 H 358.181 -0.754292 3.9038 0
M  V30 3816 O 359.217 -1.57286 0.366498 0
M  V30 3817 H 359.908 -1.92825 -0.183877 0
M  V30 END ATOM
M  V30 BEGIN BOND
M  V30 END BOND
M  V30 END CTAB
M  END
$$$$
