drugbank_target|Q9HCP0 Casein kinase I isoform gamma-1 (DB08325)
 OpenBabel12092120503D

  0  0  0     0  0            999 V3000
M  V30 BEGIN CTAB
M  V30 COUNTS 6803 6884 0 0 0
M  V30 BEGIN ATOM
M  V30 1 H -0.908 1.98254 -0.117106 0
M  V30 2 N 0 1.576 0 0
M  V30 3 C 0.933 2.03868 1.02534 0
M  V30 4 C 1.911 0.928543 1.3348 0
M  V30 5 O 3.095 1.19667 1.45644 0
M  V30 6 C 0.222 2.43627 2.35294 0
M  V30 7 C -0.732 3.65373 2.2001 0
M  V30 8 S 0.101 5.13292 1.52614 0
M  V30 9 C 1.257 5.56322 2.86805 0
M  V30 10 H 1.49 2.90518 0.631377 0
M  V30 11 H -0.977 1.52953 0.210867 0
M  V30 12 H 0.981 2.67203 3.11629 0
M  V30 13 H -0.358 1.57376 2.7183 0
M  V30 14 H -1.165 3.90944 3.18086 0
M  V30 15 H -1.563 3.418 1.51819 0
M  V30 16 H 0.729 5.58782 3.83104 0
M  V30 17 H 1.672 6.56266 2.65933 0
M  V30 18 H 2.08 4.83886 2.90714 0
M  V30 19 N 1.4781 -0.272755 1.55222 0
M  V30 20 C 2.7551 -1.02562 1.66555 0
M  V30 21 C 3.1351 -2.04282 0.532189 0
M  V30 22 O 2.4831 -2.23662 -0.467717 0
M  V30 23 C 2.6931 -1.6822 3.05782 0
M  V30 24 C 4.0411 -2.19373 3.63539 0
M  V30 25 O 5.0651 -1.78206 3.08417 0
M  V30 26 O 3.9241 -2.94883 4.60115 0
M  V30 27 H 1.0181 -0.475755 0.676451 0
M  V30 28 H 3.5641 -0.268593 1.67561 0
M  V30 29 H 2.3361 -0.945112 3.79715 0
M  V30 30 H 1.9591 -2.50609 3.08676 0
M  V30 31 N 2.9562 -1.48159 -0.537278 0
M  V30 32 C 3.9062 -1.5854 -1.63857 0
M  V30 33 C 4.8902 -0.442969 -1.54682 0
M  V30 34 O 6.0822 -0.69401 -1.62827 0
M  V30 35 C 3.2112 -1.62144 -3.02596 0
M  V30 36 C 2.2972 -2.81841 -3.16901 0
M  V30 37 N 2.6882 -4.06337 -3.01204 0
M  V30 38 C 0.9862 -2.79021 -3.47942 0
M  V30 39 C 1.6872 -4.86606 -3.18731 0
M  V30 40 N 0.6632 -4.19288 -3.45974 0
M  V30 41 H 4.4652 -2.5255 -1.50319 0
M  V30 42 H 1.9792 -1.4443 -0.742555 0
M  V30 43 H 3.9762 -1.67674 -3.81695 0
M  V30 44 H 2.6362 -0.69245 -3.17231 0
M  V30 45 H 3.6472 -4.36888 -2.78117 0
M  V30 46 H 0.3242 -1.95347 -3.6898 0
M  V30 47 H 1.7142 -5.95385 -3.11394 0
M  V30 48 N 4.4343 0.785586 -1.36625 0
M  V30 49 C 5.8453 1.36101 -1.27803 0
M  V30 50 C 6.1963 1.96035 0.0804875 0
M  V30 51 O 5.3213 1.92834 0.982042 0
M  V30 52 C 5.9163 2.47442 -2.31426 0
M  V30 53 C 4.4753 3.00789 -2.26281 0
M  V30 54 C 3.6223 1.73896 -2.15999 0
M  V30 55 H 6.5733 0.586928 -1.47448 0
M  V30 56 H 6.5943 3.2656 -1.95291 0
M  V30 57 H 6.1063 2.03791 -3.30289 0
M  V30 58 H 4.2073 3.48851 -1.30896 0
M  V30 59 H 4.3203 3.57343 -3.19128 0
M  V30 60 H 2.6843 1.9628 -1.62316 0
M  V30 61 H 3.4673 1.32368 -3.16755 0
M  V30 62 N 5.9124 1.20967 1.01018 0
M  V30 63 C 7.1374 1.0503 1.78839 0
M  V30 64 C 7.5624 -0.395752 1.8389 0
M  V30 65 O 6.9204 -1.28529 1.27867 0
M  V30 66 C 6.9684 1.64602 3.2084 0
M  V30 67 O 6.0724 0.887988 4.02726 0
M  V30 68 H 5.4134 0.369987 0.551367 0
M  V30 69 H 7.9434 1.60399 1.27018 0
M  V30 70 H 7.9534 1.68607 3.71532 0
M  V30 71 H 6.6284 2.69841 3.16479 0
M  V30 72 H 5.2054 0.922648 3.61305 0
M  V30 73 N 7.3905 -1.2043 1.01659 0
M  V30 74 C 8.8065 -1.41852 0.731442 0
M  V30 75 C 9.0065 -1.89358 -0.688898 0
M  V30 76 O 8.0625 -2.06247 -1.45666 0
M  V30 77 C 9.3755 -2.44019 1.75714 0
M  V30 78 C 10.9235 -2.57785 1.77527 0
M  V30 79 C 11.3985 -3.63194 2.79023 0
M  V30 80 N 12.8895 -3.70678 2.77763 0
M  V30 81 C 13.6245 -4.51897 3.52954 0
M  V30 82 N 13.1205 -5.36921 4.37821 0
M  V30 83 N 14.9135 -4.4643 3.41551 0
M  V30 84 H 7.0645 -0.879093 1.93354 0
M  V30 85 H 9.3275 -0.448425 0.835236 0
M  V30 86 H 9.0335 -2.1611 2.77469 0
M  V30 87 H 8.9075 -3.43007 1.56927 0
M  V30 88 H 11.2945 -2.85023 0.764569 0
M  V30 89 H 11.3755 -1.58992 2.00387 0
M  V30 90 H 11.0195 -3.36699 3.80258 0
M  V30 91 H 10.9495 -4.61609 2.53425 0
M  V30 92 H 13.4405 -3.09944 2.16201 0
M  V30 93 H 13.7535 -5.95981 4.91962 0
M  V30 94 H 12.0985 -5.36424 4.41899 0
M  V30 95 H 15.2895 -3.79042 2.74672 0
M  V30 96 H 15.4625 -5.09491 4.00404 0
M  V30 97 N 8.8686 -0.792821 -1.36206 0
M  V30 98 C 9.7786 -0.194808 -2.3379 0
M  V30 99 C 10.7946 0.654869 -1.61206 0
M  V30 100 O 11.9706 0.569856 -1.9317 0
M  V30 101 C 9.0356 0.657721 -3.40404 0
M  V30 102 C 8.0966 -0.210849 -4.28782 0
M  V30 103 C 7.3296 0.601086 -5.30304 0
M  V30 104 O 7.5526 1.83682 -5.40016 0
M  V30 105 O 6.4866 -0.000808277 -6.019 0
M  V30 106 H 10.3126 -1.00172 -2.86704 0
M  V30 107 H 7.8976 -0.554341 -1.38735 0
M  V30 108 H 9.7796 1.14375 -4.05581 0
M  V30 109 H 8.4546 1.44247 -2.89784 0
M  V30 110 H 7.3616 -0.743714 -3.66633 0
M  V30 111 H 8.6946 -0.959195 -4.82763 0
M  V30 112 N 10.3467 1.47872 -0.545128 0
M  V30 113 C 11.2937 2.29849 0.2093 0
M  V30 114 C 12.2637 1.38313 0.919707 0
M  V30 115 O 13.4487 1.67277 0.917772 0
M  V30 116 C 10.5887 3.22019 1.24088 0
M  V30 117 C 9.7017 4.2864 0.537778 0
M  V30 118 C 8.8367 5.07973 1.5536 0
M  V30 119 C 7.8757 6.06381 0.8348 0
M  V30 120 N 7.0127 6.78717 1.79688 0
M  V30 121 H 11.8527 2.93845 -0.49591 0
M  V30 122 H 9.3897 1.44848 -0.256389 0
M  V30 123 H 11.3477 3.73868 1.85144 0
M  V30 124 H 9.9777 2.59914 1.91428 0
M  V30 125 H 9.0297 3.7994 -0.187046 0
M  V30 126 H 10.3417 4.98793 -0.0258907 0
M  V30 127 H 9.4957 5.63912 2.23803 0
M  V30 128 H 8.2347 4.37693 2.15118 0
M  V30 129 H 7.2397 5.49631 0.136388 0
M  V30 130 H 8.4647 6.78665 0.24313 0
M  V30 131 H 6.4107 6.11177 2.38326 0
M  V30 132 H 6.3277 7.44998 1.28505 0
M  V30 133 H 7.5957 7.39237 2.47282 0
M  V30 134 N 11.8248 0.280983 1.55075 0
M  V30 135 C 13.1018 -0.386207 1.91749 0
M  V30 136 C 13.4818 -1.73264 1.20594 0
M  V30 137 O 12.8298 -2.26034 0.334784 0
M  V30 138 C 13.0398 -0.520687 3.45094 0
M  V30 139 C 14.3878 -0.800865 4.16979 0
M  V30 140 O 15.4118 -0.605271 3.5102 0
M  V30 141 O 14.2708 -1.1753 5.33712 0
M  V30 142 H 11.3648 -0.212408 0.799257 0
M  V30 143 H 13.9108 0.327568 1.66509 0
M  V30 144 H 12.6828 0.426633 3.88967 0
M  V30 145 H 12.3058 -1.2837 3.76307 0
M  V30 146 N 13.3029 -1.57598 0.00835791 0
M  V30 147 C 14.2129 -2.12385 -0.996487 0
M  V30 148 C 15.2289 -1.07108 -1.37127 0
M  V30 149 O 16.4049 -1.39055 -1.4569 0
M  V30 150 C 13.4699 -2.62314 -2.26699 0
M  V30 151 C 12.5309 -3.82225 -1.95456 0
M  V30 152 C 11.7639 -4.29763 -3.16449 0
M  V30 153 O 11.9869 -3.76584 -4.28416 0
M  V30 154 O 10.9209 -5.21832 -2.99958 0
M  V30 155 H 14.7469 -2.98479 -0.560725 0
M  V30 156 H 12.3319 -1.47903 -0.210987 0
M  V30 157 H 14.2139 -2.94589 -3.01322 0
M  V30 158 H 12.8889 -1.79313 -2.69497 0
M  V30 159 H 11.7959 -3.54909 -1.18282 0
M  V30 160 H 13.1289 -4.66324 -1.57489 0
M  V30 161 N 14.781 0.264519 -1.55364 0
M  V30 162 C 16.197 0.61215 -1.47394 0
M  V30 163 C 16.397 1.89134 -0.695018 0
M  V30 164 O 15.453 2.51563 -0.217275 0
M  V30 165 C 16.766 0.731235 -2.91674 0
M  V30 166 C 18.314 0.82473 -3.01939 0
M  V30 167 C 18.789 0.975522 -4.4749 0
M  V30 168 N 20.28 1.04083 -4.51354 0
M  V30 169 C 21.015 1.17646 -5.61201 0
M  V30 170 N 20.511 1.27874 -6.80896 0
M  V30 171 N 22.304 1.20823 -5.48961 0
M  V30 172 H 14.455 -0.575456 -2.04456 0
M  V30 173 H 16.718 -0.196099 -0.927496 0
M  V30 174 H 16.424 -0.138392 -3.51428 0
M  V30 175 H 16.298 1.60883 -3.41169 0
M  V30 176 H 18.685 1.68482 -2.42276 0
M  V30 177 H 18.766 -0.0776479 -2.55682 0
M  V30 178 H 18.41 0.120058 -5.07758 0
M  V30 179 H 18.34 1.89268 -4.91412 0
M  V30 180 H 20.831 0.973846 -3.65136 0
M  V30 181 H 21.144 1.38081 -7.60364 0
M  V30 182 H 19.489 1.24863 -6.83692 0
M  V30 183 H 22.68 1.12469 -4.54388 0
M  V30 184 H 22.853 1.31049 -6.3461 0
M  V30 185 N 16.2591 1.48442 0.529413 0
M  V30 186 C 17.1911 1.59095 1.64989 0
M  V30 187 C 18.2041 0.475212 1.5571 0
M  V30 188 O 19.3931 0.746081 1.6216 0
M  V30 189 C 16.4931 1.50518 3.0364 0
M  V30 190 C 15.6661 2.77142 3.38395 0
M  V30 191 C 14.7251 2.62012 4.56329 0
M  V30 192 O 13.7511 3.35898 4.59522 0
M  V30 193 N 14.9531 1.71667 5.54536 0
M  V30 194 H 17.7181 2.55723 1.56287 0
M  V30 195 H 15.2791 1.45173 0.716697 0
M  V30 196 H 17.2711 1.38091 3.80412 0
M  V30 197 H 15.8411 0.618627 3.06418 0
M  V30 198 H 15.0611 3.0413 2.50796 0
M  V30 199 H 16.3491 3.61146 3.58401 0
M  V30 200 H 15.7471 1.10841 5.54735 0
M  V30 201 H 14.3041 1.65178 6.30523 0
M  V30 202 N 17.7372 -0.778329 1.37039 0
M  V30 203 C 19.1532 -1.07796 1.17695 0
M  V30 204 C 19.3532 -2.01498 0.00860115 0
M  V30 205 O 18.4092 -2.43901 -0.653352 0
M  V30 206 C 19.7222 -1.68178 2.49272 0
M  V30 207 C 21.2702 -1.80467 2.55735 0
M  V30 208 C 21.7452 -2.44263 3.87427 0
M  V30 209 N 23.2362 -2.51721 3.88833 0
M  V30 210 C 23.9712 -3.01919 4.87476 0
M  V30 211 N 23.4672 -3.5234 5.96513 0
M  V30 212 N 25.2602 -3.00733 4.74885 0
M  V30 213 H 17.4112 -0.156032 2.11826 0
M  V30 214 H 19.6742 -0.131844 0.938787 0
M  V30 215 H 19.3802 -1.06796 3.35093 0
M  V30 216 H 19.2542 -2.67554 2.65885 0
M  V30 217 H 21.6412 -2.40984 1.70325 0
M  V30 218 H 21.7222 -0.798656 2.43013 0
M  V30 219 H 21.3662 -1.84388 4.73248 0
M  V30 220 H 21.2962 -3.45458 3.9745 0
M  V30 221 H 23.7872 -2.1603 3.10063 0
M  V30 222 H 24.1002 -3.89027 6.67741 0
M  V30 223 H 22.4452 -3.50462 6.00168 0
M  V30 224 H 25.6362 -2.60638 3.88826 0
M  V30 225 H 25.8092 -3.39545 5.51918 0
M  V30 226 N 19.2153 -1.21501 -1.00376 0
M  V30 227 C 20.4433 -1.059 -1.77744 0
M  V30 228 C 20.8583 0.391125 -1.84704 0
M  V30 229 O 20.2153 1.27133 -1.30933 0
M  V30 230 C 20.2663 -1.65111 -3.21591 0
M  V30 231 O 19.9873 -3.0445 -3.15027 0
M  V30 232 C 21.4883 -1.54637 -4.15454 0
M  V30 233 H 18.7083 -0.371825 -0.558558 0
M  V30 234 H 21.2523 -1.60865 -1.26264 0
M  V30 235 H 19.4073 -1.14235 -3.70175 0
M  V30 236 H 19.8213 -3.3278 -4.0541 0
M  V30 237 H 21.2953 -2.00808 -5.14179 0
M  V30 238 H 21.7723 -0.501022 -4.36333 0
M  V30 239 H 22.3783 -2.04767 -3.72761 0
M  V30 240 N 20.6934 1.19889 -1.02296 0
M  V30 241 C 21.9214 1.9339 -0.735399 0
M  V30 242 C 22.3364 1.75148 0.704887 0
M  V30 243 O 21.6934 1.06954 1.47875 0
M  V30 244 C 21.7444 3.45313 -1.06962 0
M  V30 245 O 21.4654 3.62964 -2.45334 0
M  V30 246 C 22.9664 4.35948 -0.804021 0
M  V30 247 H 20.1864 0.61448 -0.269546 0
M  V30 248 H 22.7304 1.522 -1.36585 0
M  V30 249 H 20.8854 3.84359 -0.484455 0
M  V30 250 H 21.2994 4.56886 -2.57595 0
M  V30 251 H 22.7734 5.41174 -1.0879 0
M  V30 252 H 23.2504 4.3842 0.261691 0
M  V30 253 H 23.8564 4.02574 -1.37164 0
M  V30 254 N 22.1715 0.800033 1.35784 0
M  V30 255 C 23.1185 0.203848 2.29898 0
M  V30 256 C 24.0885 -0.658375 1.52495 0
M  V30 257 O 25.2735 -0.604832 1.8096 0
M  V30 258 C 22.4135 -0.64688 3.38983 0
M  V30 259 C 21.5265 0.235054 4.3136 0
M  V30 260 C 20.6615 -0.623054 5.27533 0
M  V30 261 C 19.7005 0.259682 6.11549 0
M  V30 262 N 18.8375 -0.558019 6.99879 0
M  V30 263 H 23.6775 1.01186 2.80295 0
M  V30 264 H 21.2145 0.51053 1.37957 0
M  V30 265 H 23.1725 -1.15521 4.00887 0
M  V30 266 H 21.8025 -1.42021 2.89879 0
M  V30 267 H 20.8545 0.861438 3.70518 0
M  V30 268 H 22.1665 0.914768 4.9034 0
M  V30 269 H 21.3205 -1.19678 5.94779 0
M  V30 270 H 20.0595 -1.33636 4.69034 0
M  V30 271 H 19.0645 0.845726 5.43256 0
M  V30 272 H 20.2895 0.970748 6.72126 0
M  V30 273 H 18.2355 -1.25542 6.43875 0
M  V30 274 H 18.1525 0.0637872 7.55973 0
M  V30 275 H 19.4205 -1.11523 7.71481 0
M  V30 276 N 23.6496 -1.47581 0.552962 0
M  V30 277 C 25.0606 -1.86324 0.118463 0
M  V30 278 C 25.4116 -1.46006 -1.3106 0
M  V30 279 O 24.5366 -0.861182 -1.98526 0
M  V30 280 C 25.1316 -3.3816 0.20821 0
M  V30 281 C 23.6906 -3.7601 -0.171226 0
M  V30 282 C 22.8376 -2.71634 0.557686 0
M  V30 283 H 25.7886 -1.39159 0.762928 0
M  V30 284 H 25.8096 -3.76141 -0.574278 0
M  V30 285 H 25.3216 -3.67473 1.24841 0
M  V30 286 H 23.4226 -3.52313 -1.21269 0
M  V30 287 H 23.5356 -4.78745 0.184379 0
M  V30 288 H 21.8996 -2.547 0.00125792 0
M  V30 289 H 22.6826 -3.0379 1.59896 0
M  V30 290 N 25.1277 -0.289203 -1.54924 0
M  V30 291 C 26.0607 0.633823 -2.19221 0
M  V30 292 C 27.0387 1.14174 -1.15772 0
M  V30 293 O 28.2227 1.21211 -1.44361 0
M  V30 294 C 25.3497 1.86592 -2.82668 0
M  V30 295 C 24.3957 1.49227 -3.99542 0
M  V30 296 S 25.2287 0.558312 -5.32582 0
M  V30 297 C 26.3847 1.79847 -5.99505 0
M  V30 298 H 26.6177 0.0875416 -2.97171 0
M  V30 299 H 24.1507 -0.0733899 -1.54225 0
M  V30 300 H 26.1087 2.57305 -3.19851 0
M  V30 301 H 24.7697 2.38335 -2.04585 0
M  V30 302 H 23.9627 2.40945 -4.42676 0
M  V30 303 H 23.5647 0.865193 -3.63855 0
M  V30 304 H 25.8567 2.7406 -6.19595 0
M  V30 305 H 26.7997 1.4099 -6.93922 0
M  V30 306 H 27.2077 1.96982 -5.29016 0
M  V30 307 N 26.6058 1.57591 -0.0167156 0
M  V30 308 C 27.5688 2.08393 0.954204 0
M  V30 309 C 28.5688 0.996531 1.26198 0
M  V30 310 O 29.7588 1.25858 1.20438 0
M  V30 311 C 26.8908 2.5394 2.27436 0
M  V30 312 H 28.0838 2.95455 0.514451 0
M  V30 313 H 25.6368 1.54582 0.231089 0
M  V30 314 H 26.3718 1.70171 2.76066 0
M  V30 315 H 26.1568 3.33371 2.06412 0
M  V30 316 H 27.6468 2.93512 2.97053 0
M  V30 317 N 28.0839 -0.256276 1.55502 0
M  V30 318 C 29.0159 -1.33981 1.85962 0
M  V30 319 C 30.0289 -1.44743 0.745212 0
M  V30 320 O 31.2179 -1.4626 1.02324 0
M  V30 321 C 28.3179 -2.7194 2.02242 0
M  V30 322 C 27.4909 -2.83562 3.33033 0
M  V30 323 C 26.5499 -4.02304 3.39172 0
M  V30 324 O 25.5759 -3.92273 4.12444 0
M  V30 325 N 26.7779 -5.15045 2.67784 0
M  V30 326 H 29.5429 -1.08191 2.7949 0
M  V30 327 H 27.1039 -0.446388 1.55624 0
M  V30 328 H 29.0959 -3.49697 2.03701 0
M  V30 329 H 27.6659 -2.90479 1.15502 0
M  V30 330 H 26.8859 -1.92555 3.43971 0
M  V30 331 H 28.1739 -2.88271 4.19258 0
M  V30 332 H 27.5719 -5.26085 2.07968 0
M  V30 333 H 26.1289 -5.90972 2.74947 0
M  V30 334 N 29.562 -1.4872 -0.521534 0
M  V30 335 C 30.978 -1.35028 -0.850855 0
M  V30 336 C 31.178 -0.367712 -1.98116 0
M  V30 337 O 30.234 0.208037 -2.51642 0
M  V30 338 C 31.547 -2.75263 -1.21041 0
M  V30 339 C 33.095 -2.83813 -1.31981 0
M  V30 340 C 33.57 -4.24769 -1.71276 0
M  V30 341 N 35.061 -4.27482 -1.78363 0
M  V30 342 C 35.796 -5.33494 -2.1017 0
M  V30 343 N 35.292 -6.49775 -2.40343 0
M  V30 344 N 37.085 -5.20894 -2.11248 0
M  V30 345 H 29.236 -2.11214 0.22413 0
M  V30 346 H 31.499 -0.947252 0.0376439 0
M  V30 347 H 31.205 -3.48765 -0.453415 0
M  V30 348 H 31.079 -3.09327 -2.15863 0
M  V30 349 H 33.466 -2.10561 -2.06756 0
M  V30 350 H 33.547 -2.53358 -0.352596 0
M  V30 351 H 33.191 -4.9854 -0.970588 0
M  V30 352 H 33.121 -4.52673 -2.69062 0
M  V30 353 H 35.612 -3.43611 -1.57288 0
M  V30 354 H 35.925 -7.26402 -2.63743 0
M  V30 355 H 34.27 -6.53035 -2.37844 0
M  V30 356 H 37.461 -4.29065 -1.87139 0
M  V30 357 H 37.634 -6.03612 -2.35704 0
M  V30 358 N 31.0401 0.771051 -1.3745 0
M  V30 359 C 32.2651 1.56529 -1.36065 0
M  V30 360 C 32.6901 1.88029 0.0515859 0
M  V30 361 O 32.0481 1.49282 1.02882 0
M  V30 362 C 32.0961 2.85187 -2.20683 0
M  V30 363 O 31.2001 3.79593 -1.61193 0
M  V30 364 H 30.5411 0.47411 -0.464883 0
M  V30 365 H 33.0711 0.954269 -1.80983 0
M  V30 366 H 33.0811 3.34283 -2.33921 0
M  V30 367 H 31.7561 2.61588 -3.23334 0
M  V30 368 H 30.3331 3.38239 -1.56999 0
M  V30 369 N 32.5182 1.22032 0.997298 0
M  V30 370 C 33.4812 0.987909 2.06816 0
M  V30 371 C 34.4812 -0.0440084 1.6074 0
M  V30 372 O 35.6712 0.194053 1.73116 0
M  V30 373 C 32.8032 0.49132 3.37341 0
M  V30 374 H 33.9962 1.93803 2.28868 0
M  V30 375 H 31.5492 1.03838 1.16822 0
M  V30 376 H 32.2842 -0.463364 3.20973 0
M  V30 377 H 32.0692 1.23575 3.72118 0
M  V30 378 H 33.5592 0.348824 4.16141 0
M  V30 379 N 33.9963 -1.19345 1.0293 0
M  V30 380 C 34.9463 -2.20472 0.58104 0
M  V30 381 C 35.9303 -1.56578 -0.370442 0
M  V30 382 O 37.1223 -1.75963 -0.191344 0
M  V30 383 C 34.2513 -3.43236 -0.066306 0
M  V30 384 C 33.3373 -4.14274 0.907642 0
M  V30 385 N 33.7283 -4.61492 2.07023 0
M  V30 386 C 32.0263 -4.39966 0.731177 0
M  V30 387 C 32.7273 -5.1605 2.68454 0
M  V30 388 N 31.7033 -5.06875 1.96414 0
M  V30 389 H 35.5053 -2.54659 1.46717 0
M  V30 390 H 33.0193 -1.35423 0.896345 0
M  V30 391 H 35.0163 -4.14927 -0.405068 0
M  V30 392 H 33.6763 -3.10549 -0.948118 0
M  V30 393 H 34.6873 -4.56304 2.44963 0
M  V30 394 H 31.3643 -4.17377 -0.101507 0
M  V30 395 H 32.7543 -5.6287 3.66915 0
M  V30 396 N 35.4744 -0.807222 -1.35358 0
M  V30 397 C 36.7144 -0.393534 -2.00576 0
M  V30 398 C 37.0784 1.0203 -1.62647 0
M  V30 399 O 38.2794 1.53603 -2.20589 0
M  V30 400 C 36.5504 -0.572017 -3.52793 0
M  V30 401 S 38.1094 -0.248845 -4.38094 0
M  V30 402 H 34.9274 -0.149425 -0.695121 0
M  V30 403 H 37.5294 -1.04961 -1.64935 0
M  V30 404 H 36.2334 -1.60097 -3.77885 0
M  V30 405 H 35.7644 0.099359 -3.93275 0
M  V30 406 H 37.7794 0.943253 -4.87152 0
M  V30 407 N 36.9525 1.47285 -0.560781 0
M  V30 408 C 38.1775 2.07359 -0.0410566 0
M  V30 409 C 38.6025 1.41017 1.24483 0
M  V30 410 O 37.9605 0.486368 1.74654 0
M  V30 411 C 38.0085 3.6035 0.134123 0
M  V30 412 O 37.1125 3.94681 1.19587 0
M  V30 413 H 36.4535 0.661887 -0.0529291 0
M  V30 414 H 38.9835 1.89252 -0.777482 0
M  V30 415 H 38.9935 4.0652 0.347207 0
M  V30 416 H 37.6685 4.08034 -0.805047 0
M  V30 417 H 36.2455 3.60251 0.962987 0
M  V30 418 N 38.4306 0.297415 1.54768 0
M  V30 419 C 39.8466 -0.0560823 1.59501 0
M  V30 420 C 40.0466 -1.52725 1.31444 0
M  V30 421 O 39.1026 -2.27947 1.08611 0
M  V30 422 C 40.4156 0.338631 2.98787 0
M  V30 423 C 41.9636 0.287097 3.11681 0
M  V30 424 C 42.4386 0.656579 4.53269 0
M  V30 425 N 43.9296 0.608977 4.59179 0
M  V30 426 C 44.6646 0.867385 5.66802 0
M  V30 427 N 44.1606 1.19157 6.82476 0
M  V30 428 N 45.9536 0.794687 5.56454 0
M  V30 429 H 38.1046 1.25624 1.71267 0
M  V30 430 H 40.3676 0.509057 0.799728 0
M  V30 431 H 40.0736 1.36263 3.2423 0
M  V30 432 H 39.9476 -0.309508 3.75928 0
M  V30 433 H 42.3346 -0.727649 2.85988 0
M  V30 434 H 42.4156 0.969809 2.36703 0
M  V30 435 H 42.0596 1.66912 4.7969 0
M  V30 436 H 41.9896 -0.0481649 5.26578 0
M  V30 437 H 44.4806 0.369198 3.76092 0
M  V30 438 H 44.7936 1.37482 7.60473 0
M  V30 439 H 43.1386 1.22958 6.84037 0
M  V30 440 H 46.3296 0.541098 4.64962 0
M  V30 441 H 46.5026 0.999445 6.40246 0
M  V30 442 N 39.9087 -1.5758 0.0250728 0
M  V30 443 C 41.3197 -1.79476 -0.514323 0
M  V30 444 C 41.6707 -0.934956 -1.72491 0
M  V30 445 O 40.7957 -0.144245 -2.15919 0
M  V30 446 C 41.3907 -3.25503 -0.939842 0
M  V30 447 C 39.9497 -3.48408 -1.42438 0
M  V30 448 C 39.0967 -2.74583 -0.387201 0
M  V30 449 H 42.0477 -1.567 0.25113 0
M  V30 450 H 42.0687 -3.34992 -1.80445 0
M  V30 451 H 41.5807 -3.88056 -0.0585628 0
M  V30 452 H 39.6817 -2.91103 -2.32572 0
M  V30 453 H 39.7947 -4.57119 -1.43455 0
M  V30 454 H 38.1587 -2.39942 -0.854409 0
M  V30 455 H 38.9417 -3.39849 0.485543 0
M  V30 456 N 41.3868 0.248026 -1.55636 0
M  V30 457 C 42.6118 0.998028 -1.81808 0
M  V30 458 C 43.0368 1.78207 -0.601979 0
M  V30 459 O 42.3948 1.75653 0.448961 0
M  V30 460 C 42.4428 1.9125 -3.05705 0
M  V30 461 O 41.5468 3.00406 -2.82542 0
M  V30 462 H 40.8878 0.284045 -0.600179 0
M  V30 463 H 43.4178 0.269357 -2.02819 0
M  V30 464 H 43.4278 2.32737 -3.35108 0
M  V30 465 H 42.1028 1.33602 -3.93857 0
M  V30 466 H 40.6798 2.63056 -2.64303 0
M  V30 467 N 42.8649 1.48995 0.513639 0
M  V30 468 C 44.1129 1.57531 1.26604 0
M  V30 469 C 44.4339 0.258236 1.93283 0
M  V30 470 O 43.7039 -0.721502 1.8213 0
M  V30 471 H 42.2839 0.580387 0.470276 0
M  V30 472 H 44.9459 1.85552 0.596373 0
M  V30 473 H 44.0419 2.36486 2.03669 0
M  V30 474 N 44.343 -0.763751 1.37857 0
M  V30 475 C 45.568 -1.55805 1.36893 0
M  V30 476 C 45.993 -1.88054 -0.0416135 0
M  V30 477 O 45.351 -1.49825 -1.02089 0
M  V30 478 C 45.399 -2.84012 2.22192 0
M  V30 479 O 44.503 -3.78732 1.63204 0
M  V30 480 H 43.844 -0.471638 0.46739 0
M  V30 481 H 46.374 -0.944657 1.81487 0
M  V30 482 H 46.384 -3.33037 2.35691 0
M  V30 483 H 45.059 -2.59869 3.24716 0
M  V30 484 H 43.636 -3.37402 1.58791 0
M  V30 485 N 45.8211 -1.22559 -0.990812 0
M  V30 486 C 47.0461 -1.07862 -1.77145 0
M  V30 487 C 47.4711 0.366447 -1.84496 0
M  V30 488 O 46.8291 1.26478 -1.29896 0
M  V30 489 C 46.8771 -1.69686 -3.18181 0
M  V30 490 O 45.9811 -0.951946 -4.01263 0
M  V30 491 H 45.3221 -0.378712 -0.545411 0
M  V30 492 H 47.8521 -1.62399 -1.2445 0
M  V30 493 H 47.8621 -1.74496 -3.68802 0
M  V30 494 H 46.5371 -2.74841 -3.12146 0
M  V30 495 H 45.1141 -0.980011 -3.59792 0
M  V30 496 N 47.2992 1.18797 -1.03562 0
M  V30 497 C 48.5242 1.9314 -0.755764 0
M  V30 498 C 48.9492 1.7537 0.68022 0
M  V30 499 O 48.3072 1.06046 1.47051 0
M  V30 500 C 48.3552 3.42747 -1.12058 0
M  V30 501 O 47.4592 4.11683 -0.243124 0
M  V30 502 H 46.8002 0.602724 -0.278604 0
M  V30 503 H 49.3302 1.50678 -1.3841 0
M  V30 504 H 49.3402 3.93437 -1.08035 0
M  V30 505 H 48.0152 3.55002 -2.16672 0
M  V30 506 H 46.5922 3.71323 -0.342539 0
M  V30 507 N 48.7773 0.814389 1.34928 0
M  V30 508 C 50.0023 0.410097 2.03305 0
M  V30 509 C 50.4273 -0.973464 1.60951 0
M  V30 510 O 49.7853 -1.63185 0.789964 0
M  V30 511 C 49.8333 0.51049 3.56968 0
M  V30 512 O 48.9373 -0.473035 4.09678 0
M  V30 513 H 48.2783 0.170088 0.641846 0
M  V30 514 H 50.8083 1.10244 1.72358 0
M  V30 515 H 50.8183 0.383135 4.06197 0
M  V30 516 H 49.4933 1.51963 3.87144 0
M  V30 517 H 48.0703 -0.305272 3.71648 0
M  V30 518 N 50.2554 -1.46986 0.568584 0
M  V30 519 C 51.4804 -2.07335 0.0520528 0
M  V30 520 C 51.9054 -1.41675 -1.23733 0
M  V30 521 O 51.2634 -0.495623 -1.74394 0
M  V30 522 C 51.3114 -3.60417 -0.11501 0
M  V30 523 O 50.4154 -3.95309 -1.17492 0
M  V30 524 H 49.7564 -0.661597 0.0564385 0
M  V30 525 H 52.2864 -1.88837 0.787507 0
M  V30 526 H 52.2964 -4.06698 -0.325644 0
M  V30 527 H 50.9714 -4.07601 0.826675 0
M  V30 528 H 49.5484 -3.60757 -0.943869 0
M  V30 529 N 51.7335 -0.305618 -1.54608 0
M  V30 530 C 52.9815 0.301701 -1.99835 0
M  V30 531 C 53.3025 1.54054 -1.19551 0
M  V30 532 O 52.5725 1.93702 -0.292658 0
M  V30 533 H 51.1525 0.114468 -0.738178 0
M  V30 534 H 53.8145 -0.418016 -1.90364 0
M  V30 535 H 52.9105 0.570548 -3.06841 0
M  V30 536 N 53.2116 1.57565 -0.0334293 0
M  V30 537 C 54.4576 1.92262 0.645226 0
M  V30 538 C 54.7906 0.910543 1.71531 0
M  V30 539 O 54.0656 -0.066099 1.94388 0
M  V30 540 C 54.3486 3.37422 1.2577 0
M  V30 541 C 54.2016 4.49369 0.196891 0
M  V30 542 C 55.5206 3.82628 2.17449 0
M  V30 543 H 52.6396 0.699171 0.233085 0
M  V30 544 H 55.2816 1.89779 -0.0915694 0
M  V30 545 H 53.4316 3.39669 1.88566 0
M  V30 546 H 55.1036 4.59254 -0.433962 0
M  V30 547 H 53.3466 4.31168 -0.477137 0
M  V30 548 H 54.0176 5.47978 0.665124 0
M  V30 549 H 56.4936 3.82145 1.64634 0
M  V30 550 H 55.3696 4.84883 2.57254 0
M  V30 551 H 55.6306 3.18376 3.0674 0
M  V30 552 N 54.6897 -0.239769 1.55765 0
M  V30 553 C 55.6197 -1.30052 1.9393 0
M  V30 554 C 56.6007 -1.49839 0.805132 0
M  V30 555 O 57.7857 -1.62328 1.06599 0
M  V30 556 C 54.9157 -2.65391 2.2402 0
M  V30 557 C 53.8697 -2.60289 3.39755 0
M  V30 558 C 53.1957 -3.99489 3.55405 0
M  V30 559 C 54.4957 -2.16654 4.75246 0
M  V30 560 H 56.1897 -0.983573 2.82783 0
M  V30 561 H 53.7357 -0.471701 1.36055 0
M  V30 562 H 55.6887 -3.3974 2.49308 0
M  V30 563 H 54.4127 -2.98736 1.32 0
M  V30 564 H 53.0717 -1.88398 3.14487 0
M  V30 565 H 52.7197 -4.30112 2.60793 0
M  V30 566 H 52.4197 -3.96962 4.33238 0
M  V30 567 H 53.9437 -4.75528 3.83022 0
M  V30 568 H 55.3577 -2.80737 4.99859 0
M  V30 569 H 53.7547 -2.25223 5.56232 0
M  V30 570 H 54.8247 -1.11835 4.71827 0
M  V30 571 N 56.1678 -1.49265 -0.50573 0
M  V30 572 C 57.1008 -1.60183 -1.62532 0
M  V30 573 C 58.0788 -0.451107 -1.56217 0
M  V30 574 O 59.2628 -0.666016 -1.76342 0
M  V30 575 C 56.3898 -1.55238 -3.01029 0
M  V30 576 C 55.4358 -2.7545 -3.25621 0
M  V30 577 S 56.2688 -4.37174 -3.09256 0
M  V30 578 C 57.4248 -4.34866 -4.50158 0
M  V30 579 H 57.6578 -2.54894 -1.53025 0
M  V30 580 H 55.1908 -1.38098 -0.690535 0
M  V30 581 H 57.1488 -1.53071 -3.80893 0
M  V30 582 H 55.8098 -0.618238 -3.07956 0
M  V30 583 H 55.0028 -2.68197 -4.26716 0
M  V30 584 H 54.6048 -2.75005 -2.53472 0
M  V30 585 H 56.8968 -4.06295 -5.42154 0
M  V30 586 H 57.8398 -5.36223 -4.62462 0
M  V30 587 H 58.2478 -3.65007 -4.30616 0
M  V30 588 N 57.6459 0.756429 -1.3826 0
M  V30 589 C 58.8919 1.51772 -1.34511 0
M  V30 590 C 59.2249 1.94089 0.0656691 0
M  V30 591 O 58.4999 1.65221 1.02626 0
M  V30 592 C 58.7829 2.77226 -2.29821 0
M  V30 593 C 58.6359 2.41065 -3.79747 0
M  V30 594 C 59.9549 3.79236 -2.23312 0
M  V30 595 H 57.0739 0.550578 -0.489931 0
M  V30 596 H 59.7159 0.866607 -1.69086 0
M  V30 597 H 57.8659 3.32784 -2.00467 0
M  V30 598 H 59.5379 1.91303 -4.19763 0
M  V30 599 H 57.7809 1.7356 -3.97567 0
M  V30 600 H 58.4519 3.3081 -4.41892 0
M  V30 601 H 60.9279 3.3321 -2.49219 0
M  V30 602 H 59.8039 4.64714 -2.92116 0
M  V30 603 H 60.0649 4.24615 -1.23102 0
M  V30 604 N 59.124 1.23083 0.984299 0
M  V30 605 C 60.372 1.05848 1.72165 0
M  V30 606 C 60.693 -0.406049 1.90726 0
M  V30 607 O 59.963 -1.29139 1.47309 0
M  V30 608 H 58.543 0.388685 0.637913 0
M  V30 609 H 61.205 1.54736 1.18503 0
M  V30 610 H 60.301 1.54327 2.71274 0
M  V30 611 N 60.6021 -1.18246 1.0419 0
M  V30 612 C 62.0131 -1.69914 0.773698 0
M  V30 613 C 62.3641 -1.83085 -0.705297 0
M  V30 614 O 61.4891 -1.51123 -1.5489 0
M  V30 615 C 62.0841 -3.08619 1.39784 0
M  V30 616 C 60.6431 -3.57494 1.17792 0
M  V30 617 C 59.7901 -2.34013 1.48773 0
M  V30 618 H 62.7411 -1.02904 1.20816 0
M  V30 619 H 62.7621 -3.71958 0.801714 0
M  V30 620 H 62.2741 -2.99001 2.47426 0
M  V30 621 H 60.3751 -3.72406 0.120295 0
M  V30 622 H 60.4881 -4.40852 1.87581 0
M  V30 623 H 58.8521 -2.37986 0.907463 0
M  V30 624 H 59.6351 -2.27013 2.57527 0
M  V30 625 N 62.0802 -0.821533 -1.34494 0
M  V30 626 C 63.0282 -0.230702 -2.31453 0
M  V30 627 C 64.0222 0.627793 -1.57338 0
M  V30 628 O 65.2282 0.519288 -1.72347 0
M  V30 629 H 61.6032 -0.0558577 -0.749923 0
M  V30 630 H 63.5742 -1.06332 -2.78812 0
M  V30 631 C 62.3232 0.59391 -3.4259 0
M  V30 632 H 61.6462 -0.0573588 -3.99759 0
M  V30 633 H 63.0862 0.973446 -4.12674 0
M  V30 634 C 61.5452 1.76568 -2.86924 0
M  V30 635 O 62.0752 2.8638 -2.81691 0
M  V30 636 N 60.2812 1.58198 -2.43766 0
M  V30 637 H 59.8282 0.68872 -2.48222 0
M  V30 638 H 59.7862 2.36752 -2.06871 0
M  V30 639 N 63.5583 1.46682 -0.576371 0
M  V30 640 C 64.8053 2.02412 -0.0595339 0
M  V30 641 C 65.1333 1.44859 1.29793 0
M  V30 642 O 64.3883 0.601099 1.8624 0
M  V30 643 C 64.6873 3.57345 0.062886 0
M  V30 644 C 64.3533 4.33908 -1.22616 0
M  V30 645 C 63.0153 4.54544 -1.57933 0
M  V30 646 C 65.3673 4.77919 -2.07948 0
M  V30 647 C 62.6953 5.16444 -2.78393 0
M  V30 648 C 65.0473 5.41149 -3.27629 0
M  V30 649 C 63.7113 5.60014 -3.63236 0
M  V30 650 H 62.9813 0.74068 -0.021785 0
M  V30 651 H 65.6283 1.76128 -0.751735 0
M  V30 652 H 63.9333 3.82729 0.838178 0
M  V30 653 H 65.6303 3.98136 0.478439 0
M  V30 654 H 62.2203 4.18138 -0.941202 0
M  V30 655 H 66.4043 4.61738 -1.81967 0
M  V30 656 H 61.6603 5.29242 -3.06126 0
M  V30 657 H 65.8343 5.74211 -3.94023 0
M  V30 658 H 63.4613 6.07748 -4.56669 0
M  V30 659 N 65.0364 0.313813 1.54444 0
M  V30 660 C 66.4524 -0.0391619 1.59552 0
M  V30 661 C 66.6524 -1.51322 1.33056 0
M  V30 662 O 65.7084 -2.26782 1.11022 0
M  V30 663 C 67.0214 0.370302 2.98411 0
M  V30 664 C 68.5694 0.320139 3.11358 0
M  V30 665 C 69.0444 0.704617 4.52547 0
M  V30 666 N 70.5354 0.657645 4.58508 0
M  V30 667 C 71.2704 0.927453 5.6585 0
M  V30 668 N 70.7664 1.26389 6.81174 0
M  V30 669 N 72.5594 0.853662 5.5558 0
M  V30 670 H 64.7104 1.27433 1.69925 0
M  V30 671 H 66.9734 0.517511 0.794284 0
M  V30 672 H 66.6794 1.39694 3.22767 0
M  V30 673 H 66.5534 -0.269619 3.76235 0
M  V30 674 H 68.9404 -0.697275 2.86744 0
M  V30 675 H 69.0214 0.99486 2.35661 0
M  V30 676 H 68.6654 1.7199 4.77893 0
M  V30 677 H 68.5954 0.00768843 5.26599 0
M  V30 678 H 71.0864 0.409067 3.75679 0
M  V30 679 H 71.3994 1.4554 7.58972 0
M  V30 680 H 69.7444 1.30206 6.82694 0
M  V30 681 H 72.9354 0.590383 4.64362 0
M  V30 682 H 73.1084 1.0673 6.3915 0
M  V30 683 N 66.5145 -1.57545 0.0417849 0
M  V30 684 C 67.7605 -1.92601 -0.635021 0
M  V30 685 C 68.0935 -0.919627 -1.71045 0
M  V30 686 O 67.3685 0.0557892 -1.9442 0
M  V30 687 C 67.6515 -3.38085 -1.23979 0
M  V30 688 C 67.5045 -4.49467 -0.173057 0
M  V30 689 C 68.8235 -3.83776 -2.15416 0
M  V30 690 H 65.9425 -0.700397 -0.229374 0
M  V30 691 H 68.5845 -1.89728 0.101633 0
M  V30 692 H 66.7345 -3.40664 -1.86762 0
M  V30 693 H 68.4065 -4.59018 0.458312 0
M  V30 694 H 66.6495 -4.30909 0.499996 0
M  V30 695 H 67.3205 -5.48323 -0.636054 0
M  V30 696 H 69.7965 -3.83013 -1.62605 0
M  V30 697 H 68.6725 -4.8624 -2.54679 0
M  V30 698 H 68.9335 -3.19998 -3.05047 0
M  V30 699 N 67.9926 0.231505 -1.5589 0
M  V30 700 C 69.2406 0.955461 -1.78088 0
M  V30 701 C 69.5616 1.85262 -0.608533 0
M  V30 702 O 68.8316 1.92277 0.375035 0
M  V30 703 H 67.4116 0.355787 -0.656829 0
M  V30 704 H 70.0736 0.245751 -1.93344 0
M  V30 705 H 69.1696 1.56814 -2.69844 0
M  V30 706 N 69.4707 1.49531 0.497807 0
M  V30 707 C 70.4177 1.66436 1.59899 0
M  V30 708 C 71.3877 0.505793 1.58212 0
M  V30 709 O 72.5727 0.733202 1.7615 0
M  V30 710 C 69.7127 1.7399 2.98029 0
M  V30 711 C 68.8257 3.01172 3.09708 0
M  V30 712 C 67.9607 2.99686 4.38591 0
M  V30 713 C 66.9997 4.21434 4.43914 0
M  V30 714 N 66.1367 4.1784 5.64229 0
M  V30 715 H 70.9767 2.60459 1.44793 0
M  V30 716 H 68.5137 1.29137 0.704423 0
M  V30 717 H 70.4717 1.76352 3.78095 0
M  V30 718 H 69.1017 0.834301 3.11832 0
M  V30 719 H 68.1537 3.08408 2.22685 0
M  V30 720 H 69.4657 3.91165 3.09502 0
M  V30 721 H 68.6197 3.00628 5.2698 0
M  V30 722 H 67.3587 2.07477 4.41367 0
M  V30 723 H 66.3637 4.20733 3.53926 0
M  V30 724 H 67.5887 5.14839 4.42851 0
M  V30 725 H 65.5347 3.28469 5.67841 0
M  V30 726 H 65.4517 5.01571 5.65652 0
M  V30 727 H 66.7197 4.22889 6.54817 0
M  V30 728 N 70.9488 -0.749086 1.3866 0
M  V30 729 C 71.8958 -1.86291 1.36251 0
M  V30 730 C 72.8658 -1.64578 0.224347 0
M  V30 731 O 74.0508 -1.86181 0.417279 0
M  V30 732 C 71.1908 -3.23644 1.19786 0
M  V30 733 C 70.3038 -3.57158 2.43027 0
M  V30 734 C 69.4388 -4.83838 2.19258 0
M  V30 735 C 68.4778 -5.10152 3.38247 0
M  V30 736 N 67.6148 -6.28029 3.13884 0
M  V30 737 H 72.4548 -1.87685 2.3147 0
M  V30 738 H 69.9918 -0.917287 1.14997 0
M  V30 739 H 71.9498 -4.0291 1.08254 0
M  V30 740 H 70.5798 -3.21566 0.282031 0
M  V30 741 H 69.6318 -2.72701 2.65214 0
M  V30 742 H 70.9438 -3.7253 3.31697 0
M  V30 743 H 70.0978 -5.71057 2.04888 0
M  V30 744 H 68.8368 -4.70614 1.2796 0
M  V30 745 H 67.8418 -4.21401 3.53131 0
M  V30 746 H 69.0668 -5.25271 4.30427 0
M  V30 747 H 67.0128 -6.1612 2.25238 0
M  V30 748 H 66.9298 -6.43922 3.96106 0
M  V30 749 H 68.1978 -7.18124 3.03179 0
M  V30 750 N 72.4269 -1.23603 -0.977757 0
M  V30 751 C 73.6759 -1.06377 -1.71368 0
M  V30 752 C 73.9889 0.399062 -1.91486 0
M  V30 753 O 75.1949 0.691312 -2.62551 0
M  V30 754 C 73.6509 -1.85512 -3.08404 0
M  V30 755 C 73.2589 -3.36141 -2.96164 0
M  V30 756 C 75.0029 -1.76783 -3.85938 0
M  V30 757 C 72.9099 -4.07659 -4.28449 0
M  V30 758 H 71.8399 -0.394452 -0.642591 0
M  V30 759 H 74.4909 -1.47594 -1.09034 0
M  V30 760 H 72.8729 -1.37103 -3.71509 0
M  V30 761 H 74.0469 -3.92056 -2.42133 0
M  V30 762 H 72.3619 -3.45712 -2.32104 0
M  V30 763 H 74.9589 -2.27526 -4.83876 0
M  V30 764 H 75.3019 -0.731116 -4.0983 0
M  V30 765 H 75.8349 -2.22818 -3.2954 0
M  V30 766 H 72.5739 -5.11648 -4.09752 0
M  V30 767 H 72.0939 -3.5653 -4.82334 0
M  V30 768 H 73.7729 -4.141 -4.97122 0
M  V30 769 N 73.905 1.17692 -1.04816 0
M  V30 770 C 75.153 1.87488 -0.754497 0
M  V30 771 C 75.474 1.81205 0.720407 0
M  V30 772 O 74.744 1.23544 1.52032 0
M  V30 773 H 73.324 0.694101 -0.276102 0
M  V30 774 H 75.986 1.42793 -1.32651 0
M  V30 775 H 75.082 2.93328 -1.06606 0
M  V30 776 N 75.3831 0.828654 1.34056 0
M  V30 777 C 76.6231 0.425394 1.99924 0
M  V30 778 C 76.9871 -0.994294 1.64249 0
M  V30 779 O 78.1881 -1.50074 2.23005 0
M  V30 780 C 76.4591 0.628071 3.51838 0
M  V30 781 S 78.0181 0.318511 4.37642 0
M  V30 782 H 74.8361 0.160465 0.692656 0
M  V30 783 H 77.4381 1.07572 1.63244 0
M  V30 784 H 76.1421 1.66089 3.7529 0
M  V30 785 H 75.6731 -0.0367799 3.93383 0
M  V30 786 H 77.6881 -0.865632 4.88591 0
M  V30 787 N 76.8612 -1.46375 0.584142 0
M  V30 788 C 78.1092 -2.01978 0.0701287 0
M  V30 789 C 78.4302 -1.4579 -1.295 0
M  V30 790 O 77.7002 -0.64314 -1.85042 0
M  V30 791 H 76.2802 -0.746648 0.0229345 0
M  V30 792 H 78.9422 -1.79461 0.760245 0
M  V30 793 H 78.0382 -3.121 0.0022064 0
M  V30 794 N 78.3393 -0.321999 -1.54275 0
M  V30 795 C 79.2873 0.560206 -2.25753 0
M  V30 796 C 80.2813 1.11984 -1.27106 0
M  V30 797 O 81.4873 1.06806 -1.44888 0
M  V30 798 H 77.8623 0.199304 -0.725108 0
M  V30 799 H 79.8333 -0.0649365 -2.98329 0
M  V30 800 C 78.5823 1.71023 -3.02731 0
M  V30 801 H 77.9053 1.28885 -3.78456 0
M  V30 802 H 79.3453 2.30314 -3.55993 0
M  V30 803 C 77.8043 2.62692 -2.10938 0
M  V30 804 O 78.3343 3.64364 -1.6912 0
M  V30 805 N 76.5403 2.30891 -1.76459 0
M  V30 806 H 76.0873 1.48253 -2.10663 0
M  V30 807 H 76.0453 2.92487 -1.1532 0
M  V30 808 N 79.8174 1.5752 -0.0501392 0
M  V30 809 C 81.0644 1.9265 0.623874 0
M  V30 810 C 81.3924 0.928411 1.70912 0
M  V30 811 O 80.6474 -0.0594525 1.9561 0
M  V30 812 C 80.9464 3.34467 1.25963 0
M  V30 813 C 80.6124 4.49883 0.302689 0
M  V30 814 C 79.2744 4.81184 0.0393636 0
M  V30 815 C 81.6264 5.20002 -0.353205 0
M  V30 816 C 78.9544 5.79951 -0.887308 0
M  V30 817 C 81.3064 6.1976 -1.26806 0
M  V30 818 C 79.9704 6.49491 -1.54007 0
M  V30 819 H 79.2404 0.704957 0.228292 0
M  V30 820 H 81.8874 1.91146 -0.116398 0
M  V30 821 H 80.1924 3.32333 2.07514 0
M  V30 822 H 81.8894 3.58928 1.78806 0
M  V30 823 H 78.4794 4.25457 0.518109 0
M  V30 824 H 82.6634 4.96033 -0.162854 0
M  V30 825 H 77.9194 6.01322 -1.10553 0
M  V30 826 H 82.0934 6.73205 -1.78236 0
M  V30 827 H 79.7204 7.25837 -2.25976 0
M  V30 828 N 81.2955 -0.223234 1.56011 0
M  V30 829 C 82.5435 -0.946003 1.78592 0
M  V30 830 C 82.8645 -1.84936 0.618349 0
M  V30 831 O 82.1345 -1.92473 -0.364833 0
M  V30 832 H 80.7145 -0.352298 0.658707 0
M  V30 833 H 83.3765 -0.235494 1.93472 0
M  V30 834 H 82.4725 -1.55381 2.70672 0
M  V30 835 N 82.7736 -1.49793 -0.48987 0
M  V30 836 C 83.6836 -1.70036 -1.61632 0
M  V30 837 C 84.6996 -0.583102 -1.63939 0
M  V30 838 O 85.8756 -0.859169 -1.82154 0
M  V30 839 C 82.9406 -1.77277 -2.97949 0
M  V30 840 C 82.0016 -3.00918 -3.06181 0
M  V30 841 C 81.2346 -3.07804 -4.35996 0
M  V30 842 O 81.4576 -2.21982 -5.25433 0
M  V30 843 O 80.3916 -4.00369 -4.49431 0
M  V30 844 H 84.2176 -2.65486 -1.47482 0
M  V30 845 H 81.8026 -1.33666 -0.667362 0
M  V30 846 H 83.6846 -1.84329 -3.78947 0
M  V30 847 H 82.3596 -0.850076 -3.12339 0
M  V30 848 H 81.2666 -2.99377 -2.2433 0
M  V30 849 H 82.5996 -3.92704 -2.96723 0
M  V30 850 N 84.2517 0.741722 -1.39055 0
M  V30 851 C 85.1817 1.869 -1.39966 0
M  V30 852 C 86.1627 1.6804 -0.26392 0
M  V30 853 O 87.3477 1.88458 -0.468755 0
M  V30 854 C 84.4777 3.24572 -1.23574 0
M  V30 855 C 83.4317 3.58056 -2.34477 0
M  V30 856 C 82.7577 4.94593 -2.0318 0
M  V30 857 C 84.0577 3.61716 -3.76774 0
M  V30 858 H 85.7517 1.86395 -2.34302 0
M  V30 859 H 83.2977 0.895361 -1.1278 0
M  V30 860 H 85.2507 4.031 -1.22834 0
M  V30 861 H 83.9747 3.25587 -0.257045 0
M  V30 862 H 82.6337 2.81854 -2.34423 0
M  V30 863 H 82.2817 4.92181 -1.03765 0
M  V30 864 H 81.9817 5.17964 -2.77465 0
M  V30 865 H 83.5057 5.75486 -2.04079 0
M  V30 866 H 84.9197 4.30335 -3.78794 0
M  V30 867 H 83.3167 3.96603 -4.50362 0
M  V30 868 H 84.3867 2.61672 -4.08235 0
M  V30 869 N 85.7298 1.2412 0.971189 0
M  V30 870 C 87.1458 1.00584 1.23916 0
M  V30 871 C 87.3458 -0.287481 1.99439 0
M  V30 872 O 86.4018 -1.00454 2.31658 0
M  V30 873 C 87.7148 2.21864 2.0297 0
M  V30 874 C 89.2628 2.26452 2.16076 0
M  V30 875 C 89.7378 3.47343 2.98524 0
M  V30 876 N 91.2288 3.47639 3.06107 0
M  V30 877 C 91.9638 4.37837 3.70251 0
M  V30 878 N 91.4598 5.38286 4.36142 0
M  V30 879 N 93.2528 4.25558 3.67228 0
M  V30 880 H 85.4038 2.07236 0.465499 0
M  V30 881 H 87.6668 0.909236 0.268315 0
M  V30 882 H 87.3728 3.15771 1.54861 0
M  V30 883 H 87.2468 2.23698 3.03709 0
M  V30 884 H 89.6338 1.33078 2.6339 0
M  V30 885 H 89.7148 2.28645 1.14696 0
M  V30 886 H 89.3588 4.41029 2.51905 0
M  V30 887 H 89.2888 3.42393 4.00093 0
M  V30 888 H 91.7798 2.74966 2.59233 0
M  V30 889 H 92.0928 6.03352 4.82894 0
M  V30 890 H 90.4378 5.42176 4.34822 0
M  V30 891 H 93.6288 3.46322 3.14927 0
M  V30 892 H 93.8018 4.96054 4.16935 0
M  V30 893 N 87.2079 -1.17134 1.05439 0
M  V30 894 C 88.1379 -2.2342 0.678649 0
M  V30 895 C 89.1189 -1.66971 -0.32476 0
M  V30 896 O 90.3039 -1.93149 -0.201802 0
M  V30 897 C 87.4339 -3.47256 0.0552099 0
M  V30 898 C 86.3879 -4.16543 0.98365 0
M  V30 899 C 85.7139 -5.34231 0.223961 0
M  V30 900 C 87.0139 -4.68495 2.3089 0
M  V30 901 H 88.7079 -2.55105 1.56722 0
M  V30 902 H 86.2539 -1.2262 0.754998 0
M  V30 903 H 88.2069 -4.20828 -0.21946 0
M  V30 904 H 86.9309 -3.14846 -0.868319 0
M  V30 905 H 85.5899 -3.44887 1.24293 0
M  V30 906 H 85.2379 -4.98071 -0.702412 0
M  V30 907 H 84.9379 -5.81527 0.842627 0
M  V30 908 H 86.4619 -6.10585 -0.0433671 0
M  V30 909 H 87.8759 -5.33691 2.09396 0
M  V30 910 H 86.2729 -5.26379 2.88176 0
M  V30 911 H 87.3429 -3.85169 2.94572 0
M  V30 912 N 88.686 -0.835752 -1.33615 0
M  V30 913 C 89.934 -0.429109 -1.97492 0
M  V30 914 C 90.255 1.01433 -1.66543 0
M  V30 915 O 89.525 1.70611 -0.962744 0
M  V30 916 H 88.105 -0.155686 -0.730596 0
M  V30 917 H 90.767 -1.06802 -1.63031 0
M  V30 918 H 89.863 -0.55861 -3.0706 0
M  V30 919 N 90.1641 1.46063 -0.591896 0
M  V30 920 C 91.1111 2.30399 0.136069 0
M  V30 921 C 92.0811 1.41169 0.875238 0
M  V30 922 O 93.2661 1.70112 0.86409 0
M  V30 923 C 90.4061 3.25804 1.13781 0
M  V30 924 C 89.5191 4.30134 0.401137 0
M  V30 925 C 88.6541 5.12659 1.39121 0
M  V30 926 C 87.6931 6.0873 0.641462 0
M  V30 927 N 86.8301 6.8409 1.58004 0
M  V30 928 H 91.6701 2.92118 -0.589144 0
M  V30 929 H 89.2071 1.43959 -0.302342 0
M  V30 930 H 91.1651 3.79569 1.73156 0
M  V30 931 H 89.7951 2.65872 1.83062 0
M  V30 932 H 88.8471 3.79152 -0.307826 0
M  V30 933 H 90.1591 4.98458 -0.184565 0
M  V30 934 H 89.3131 5.70747 2.05749 0
M  V30 935 H 88.0521 4.44316 2.01084 0
M  V30 936 H 87.0571 5.49786 -0.0385419 0
M  V30 937 H 88.2821 6.79095 0.0270945 0
M  V30 938 H 86.2281 6.18449 2.18761 0
M  V30 939 H 86.1451 7.48709 1.04738 0
M  V30 940 H 87.4131 7.4673 2.23639 0
M  V30 941 N 91.6422 0.330177 1.54103 0
M  V30 942 C 92.5902 -0.548226 2.26047 0
M  V30 943 C 93.5842 -1.11309 1.27698 0
M  V30 944 O 94.7902 -1.06036 1.45452 0
M  V30 945 H 91.1652 -0.195456 0.726155 0
M  V30 946 H 93.1362 0.0807567 2.98291 0
M  V30 947 C 91.8852 -1.69415 3.03634 0
M  V30 948 H 91.2082 -1.26876 3.79134 0
M  V30 949 H 92.6482 -2.28423 3.5721 0
M  V30 950 C 91.1072 -2.61569 2.12328 0
M  V30 951 O 91.6372 -3.63462 1.7105 0
M  V30 952 N 89.8432 -2.29952 1.77681 0
M  V30 953 H 89.3902 -1.47134 2.11446 0
M  V30 954 H 89.3482 -2.91871 1.16869 0
M  V30 955 N 93.1203 -1.57491 0.0584922 0
M  V30 956 C 94.0503 -2.14988 -0.911178 0
M  V30 957 C 95.0313 -1.07343 -1.31952 0
M  V30 958 O 96.2163 -1.35318 -1.39294 0
M  V30 959 C 93.3463 -2.70078 -2.18347 0
M  V30 960 C 92.3003 -3.82771 -1.91495 0
M  V30 961 C 91.6263 -4.24408 -3.25241 0
M  V30 962 C 92.9263 -5.07592 -1.23075 0
M  V30 963 H 94.6203 -2.96263 -0.432246 0
M  V30 964 H 92.1663 -1.42512 -0.206469 0
M  V30 965 H 94.1193 -3.08943 -2.86587 0
M  V30 966 H 92.8433 -1.86005 -2.68458 0
M  V30 967 H 91.5023 -3.44389 -1.25664 0
M  V30 968 H 91.1503 -3.37275 -3.73168 0
M  V30 969 H 90.8503 -5.00366 -3.08071 0
M  V30 970 H 92.3743 -4.65879 -3.94701 0
M  V30 971 H 93.7883 -5.43857 -1.81362 0
M  V30 972 H 92.1853 -5.88741 -1.16207 0
M  V30 973 H 93.2553 -4.84454 -0.207847 0
M  V30 974 N 94.5984 0.214957 -1.56127 0
M  V30 975 C 95.8284 0.953707 -1.8327 0
M  V30 976 C 96.2364 1.78181 -0.636262 0
M  V30 977 O 95.5794 1.79191 0.404516 0
M  V30 978 C 95.6414 1.91516 -3.0424 0
M  V30 979 C 95.3054 1.27094 -4.38972 0
M  V30 980 C 96.3024 0.657575 -5.15725 0
M  V30 981 C 93.9874 1.28073 -4.85698 0
M  V30 982 C 95.9814 0.0625968 -6.37369 0
M  V30 983 C 93.6684 0.681914 -6.07283 0
M  V30 984 C 94.6664 0.0739046 -6.8296 0
M  V30 985 O 94.3544 -0.515582 -8.02245 0
M  V30 986 H 94.0864 0.284764 -0.613095 0
M  V30 987 H 96.6404 0.233283 -2.04071 0
M  V30 988 H 94.8704 2.67475 -2.79274 0
M  V30 989 H 96.5594 2.52001 -3.18198 0
M  V30 990 H 97.3254 0.642288 -4.80728 0
M  V30 991 H 93.2044 1.74337 -4.26764 0
M  V30 992 H 96.7484 -0.412593 -6.96379 0
M  V30 993 H 92.6454 0.694636 -6.41752 0
M  V30 994 H 93.4134 -0.410544 -8.1747 0
M  V30 995 N 96.0765 1.50051 0.48192 0
M  V30 996 C 97.3045 1.64237 1.25832 0
M  V30 997 C 97.7195 0.321336 1.86045 0
M  V30 998 O 97.0765 -0.695478 1.68729 0
M  V30 999 C 97.1275 2.72548 2.37487 0
M  V30 1000 O 96.8485 3.99529 1.79745 0
M  V30 1001 C 98.3495 2.9761 3.28547 0
M  V30 1002 H 95.5695 0.55237 0.380957 0
M  V30 1003 H 98.1135 1.96207 0.576467 0
M  V30 1004 H 96.2685 2.43303 3.01467 0
M  V30 1005 H 96.6825 4.59342 2.5319 0
M  V30 1006 H 98.1565 3.77084 4.03127 0
M  V30 1007 H 98.6335 2.0826 3.86684 0
M  V30 1008 H 99.2395 3.28345 2.70314 0
M  V30 1009 N 97.5546 -0.734337 1.39446 0
M  V30 1010 C 98.5026 -1.86971 1.38364 0
M  V30 1011 C 99.4966 -1.67288 0.266687 0
M  V30 1012 O 100.703 -1.74621 0.436755 0
M  V30 1013 H 97.0776 -0.615474 0.432082 0
M  V30 1014 H 99.0486 -1.85 2.34132 0
M  V30 1015 C 97.7976 -3.2466 1.24465 0
M  V30 1016 H 97.1206 -3.40402 2.09682 0
M  V30 1017 H 98.5606 -4.04292 1.27764 0
M  V30 1018 C 97.0196 -3.36867 -0.0468674 0
M  V30 1019 O 97.5496 -3.88618 -1.01681 0
M  V30 1020 N 95.7556 -2.90391 -0.110145 0
M  V30 1021 H 95.3026 -2.48466 0.679868 0
M  V30 1022 H 95.2606 -2.98939 -0.973799 0
M  V30 1023 N 99.0327 -1.24633 -0.964593 0
M  V30 1024 C 99.9427 -1.05859 -2.09359 0
M  V30 1025 C 100.959 0.00148855 -1.74 0
M  V30 1026 O 102.135 -0.197346 -2.00431 0
M  V30 1027 C 99.1997 -0.668879 -3.40187 0
M  V30 1028 C 98.2607 -1.80578 -3.89474 0
M  V30 1029 C 97.4937 -1.43457 -5.14058 0
M  V30 1030 O 97.7167 -0.325775 -5.69469 0
M  V30 1031 O 96.6507 -2.2613 -5.57807 0
M  V30 1032 H 100.477 -2.00516 -2.28094 0
M  V30 1033 H 98.0617 -1.03481 -1.0776 0
M  V30 1034 H 99.9437 -0.463211 -4.18846 0
M  V30 1035 H 98.6187 0.248536 -3.22744 0
M  V30 1036 H 97.5257 -2.06623 -3.11862 0
M  V30 1037 H 98.8587 -2.70208 -4.11398 0
M  V30 1038 N 100.511 1.16574 -1.06058 0
M  V30 1039 C 101.741 1.90675 -0.795397 0
M  V30 1040 C 102.149 1.77547 0.653735 0
M  V30 1041 O 101.492 1.11611 1.45907 0
M  V30 1042 C 101.554 3.42011 -1.10764 0
M  V30 1043 C 101.218 3.78924 -2.55471 0
M  V30 1044 C 102.215 3.81042 -3.53699 0
M  V30 1045 C 99.8998 4.09626 -2.90708 0
M  V30 1046 C 101.894 4.13346 -4.85205 0
M  V30 1047 C 99.5808 4.41597 -4.22416 0
M  V30 1048 C 100.579 4.43436 -5.19474 0
M  V30 1049 O 100.267 4.74649 -6.48817 0
M  V30 1050 H 99.9988 0.611554 -0.288058 0
M  V30 1051 H 102.553 1.48711 -1.41683 0
M  V30 1052 H 100.783 3.84312 -0.429128 0
M  V30 1053 H 102.472 3.97384 -0.827077 0
M  V30 1054 H 103.238 3.57437 -3.27817 0
M  V30 1055 H 99.1168 4.07361 -2.15819 0
M  V30 1056 H 102.661 4.14696 -5.60957 0
M  V30 1057 H 98.5578 4.64667 -4.48056 0
M  V30 1058 H 99.3258 4.9247 -6.5377 0
M  V30 1059 N 101.989 0.842826 1.3317 0
M  V30 1060 C 103.235 0.441099 1.97945 0
M  V30 1061 C 103.568 -0.998024 1.66593 0
M  V30 1062 O 102.843 -1.69839 0.947898 0
M  V30 1063 C 103.126 0.666841 3.53872 0
M  V30 1064 C 102.979 2.15352 3.94897 0
M  V30 1065 C 104.298 0.115544 4.39948 0
M  V30 1066 H 101.417 0.161739 0.719034 0
M  V30 1067 H 104.059 1.05907 1.57746 0
M  V30 1068 H 102.209 0.140828 3.88245 0
M  V30 1069 H 103.881 2.7447 3.70761 0
M  V30 1070 H 102.124 2.63653 3.44484 0
M  V30 1071 H 102.795 2.26221 5.03516 0
M  V30 1072 H 105.271 0.565213 4.12243 0
M  V30 1073 H 104.147 0.303152 5.48062 0
M  V30 1074 H 104.408 -0.980935 4.3108 0
M  V30 1075 N 103.467 -1.45747 0.599634 0
M  V30 1076 C 104.43 -2.28917 -0.113835 0
M  V30 1077 C 105.43 -1.3933 -0.802729 0
M  V30 1078 O 106.62 -1.61534 -0.652103 0
M  V30 1079 C 103.752 -3.20152 -1.17114 0
M  V30 1080 H 104.945 -2.93478 0.617289 0
M  V30 1081 H 102.498 -1.52137 0.358327 0
M  V30 1082 H 103.233 -2.60374 -1.93329 0
M  V30 1083 H 103.018 -3.86133 -0.681468 0
M  V30 1084 H 104.508 -3.82708 -1.67105 0
M  V30 1085 N 104.945 -0.338344 -1.53925 0
M  V30 1086 C 106.194 0.260732 -2.00008 0
M  V30 1087 C 106.507 1.52073 -1.23017 0
M  V30 1088 O 107.713 2.19672 -1.5955 0
M  V30 1089 C 106.169 0.51515 -3.56194 0
M  V30 1090 C 105.777 -0.728645 -4.42035 0
M  V30 1091 C 107.521 1.07337 -4.10706 0
M  V30 1092 C 105.428 -0.445315 -5.89721 0
M  V30 1093 H 104.358 0.101205 -0.747177 0
M  V30 1094 H 107.009 -0.452866 -1.77824 0
M  V30 1095 H 105.391 1.28932 -3.74423 0
M  V30 1096 H 106.565 -1.50352 -4.35581 0
M  V30 1097 H 104.88 -1.20813 -3.98489 0
M  V30 1098 H 107.477 1.30022 -5.18651 0
M  V30 1099 H 107.82 2.0273 -3.63602 0
M  V30 1100 H 108.353 0.360034 -3.96167 0
M  V30 1101 H 105.092 -1.36883 -6.41049 0
M  V30 1102 H 104.612 0.291569 -5.99091 0
M  V30 1103 H 106.291 -0.0606218 -6.46972 0
M  V30 1104 N 106.423 1.57458 -0.0668435 0
M  V30 1105 C 107.37 2.12439 0.902122 0
M  V30 1106 C 108.34 1.03565 1.2986 0
M  V30 1107 O 109.525 1.312 1.38532 0
M  V30 1108 C 106.665 2.6865 2.16614 0
M  V30 1109 C 105.778 3.91663 1.82274 0
M  V30 1110 C 104.913 4.36134 3.0325 0
M  V30 1111 C 103.952 5.51808 2.64904 0
M  V30 1112 N 103.089 5.9126 3.78624 0
M  V30 1113 H 107.929 2.94934 0.426382 0
M  V30 1114 H 105.466 1.4575 0.198819 0
M  V30 1115 H 107.424 2.99346 2.90599 0
M  V30 1116 H 106.054 1.88928 2.61737 0
M  V30 1117 H 105.106 3.6746 0.983719 0
M  V30 1118 H 106.418 4.75693 1.50059 0
M  V30 1119 H 105.572 4.68465 3.85519 0
M  V30 1120 H 104.311 3.50948 3.38655 0
M  V30 1121 H 103.316 5.19133 1.81055 0
M  V30 1122 H 104.541 6.38722 2.30675 0
M  V30 1123 H 102.487 5.09024 4.138 0
M  V30 1124 H 102.404 6.70018 3.5016 0
M  V30 1125 H 103.672 6.28212 4.61486 0
M  V30 1126 N 107.901 -0.206675 1.56239 0
M  V30 1127 C 108.831 -1.25909 1.96645 0
M  V30 1128 C 109.812 -1.48097 0.836734 0
M  V30 1129 O 110.997 -1.6003 1.10019 0
M  V30 1130 C 108.127 -2.6058 2.29599 0
M  V30 1131 C 107.081 -2.53024 3.452 0
M  V30 1132 C 106.407 -3.91861 3.63798 0
M  V30 1133 C 107.707 -2.06524 4.79734 0
M  V30 1134 H 109.401 -0.923369 2.84806 0
M  V30 1135 H 106.947 -0.442735 1.37025 0
M  V30 1136 H 108.9 -3.34375 2.56459 0
M  V30 1137 H 107.624 -2.95869 1.38307 0
M  V30 1138 H 106.283 -1.81684 3.18412 0
M  V30 1139 H 105.931 -4.24483 2.69857 0
M  V30 1140 H 105.631 -3.87683 4.4156 0
M  V30 1141 H 107.155 -4.67296 3.93022 0
M  V30 1142 H 108.569 -2.70072 5.05702 0
M  V30 1143 H 106.966 -2.13374 5.60885 0
M  V30 1144 H 108.036 -1.01802 4.74093 0
M  V30 1145 N 109.379 -1.50304 -0.473955 0
M  V30 1146 C 110.289 -1.7174 -1.5982 0
M  V30 1147 C 111.305 -0.600457 -1.63311 0
M  V30 1148 O 112.481 -0.878441 -1.81233 0
M  V30 1149 C 109.546 -1.80427 -2.96052 0
M  V30 1150 C 108.607 -3.04148 -3.02972 0
M  V30 1151 C 107.84 -3.12411 -4.32706 0
M  V30 1152 O 108.063 -2.27542 -5.23049 0
M  V30 1153 O 106.997 -4.05113 -4.45159 0
M  V30 1154 H 110.823 -2.67035 -1.44657 0
M  V30 1155 H 108.408 -1.34366 -0.653148 0
M  V30 1156 H 110.29 -1.88338 -3.7697 0
M  V30 1157 H 108.965 -0.883156 -3.11419 0
M  V30 1158 H 107.872 -3.0174 -2.21142 0
M  V30 1159 H 109.205 -3.95829 -2.92541 0
M  V30 1160 N 110.857 0.726932 -1.39834 0
M  V30 1161 C 112.268 1.30558 -1.3346 0
M  V30 1162 C 112.619 1.962 -0.00273003 0
M  V30 1163 O 111.744 1.96826 0.899371 0
M  V30 1164 C 112.339 2.37404 -2.41713 0
M  V30 1165 C 110.898 2.90921 -2.38835 0
M  V30 1166 C 110.045 1.64578 -2.2318 0
M  V30 1167 H 112.996 0.523862 -1.49804 0
M  V30 1168 H 113.017 3.17984 -2.08966 0
M  V30 1169 H 112.529 1.89599 -3.38635 0
M  V30 1170 H 110.63 3.42985 -1.45575 0
M  V30 1171 H 110.743 3.43487 -3.33997 0
M  V30 1172 H 109.107 1.89219 -1.70494 0
M  V30 1173 H 109.89 1.18814 -3.22084 0
M  V30 1174 N 112.336 1.25143 0.95797 0
M  V30 1175 C 113.585 1.0909 1.69654 0
M  V30 1176 C 113.898 -0.368548 1.92097 0
M  V30 1177 O 115.104 -0.649455 2.63618 0
M  V30 1178 C 113.56 1.90395 3.05414 0
M  V30 1179 C 113.168 3.4081 2.90779 0
M  V30 1180 C 114.912 1.82901 3.83076 0
M  V30 1181 C 112.819 4.14423 4.21909 0
M  V30 1182 H 111.749 0.404625 0.636235 0
M  V30 1183 H 114.4 1.4931 1.06672 0
M  V30 1184 H 112.782 1.42996 3.69281 0
M  V30 1185 H 113.956 3.95859 2.35865 0
M  V30 1186 H 112.271 3.49361 2.26575 0
M  V30 1187 H 114.868 2.35196 4.80195 0
M  V30 1188 H 115.211 0.796224 4.08615 0
M  V30 1189 H 115.744 2.28033 3.25954 0
M  V30 1190 H 112.483 5.18102 4.01561 0
M  V30 1191 H 112.003 3.64159 4.76601 0
M  V30 1192 H 113.682 4.21956 4.90471 0
M  V30 1193 N 113.814 -1.1601 1.06675 0
M  V30 1194 C 114.761 -2.20525 0.680967 0
M  V30 1195 C 115.731 -1.62904 -0.324283 0
M  V30 1196 O 116.916 -1.89615 -0.212294 0
M  V30 1197 C 114.056 -3.45013 0.0776551 0
M  V30 1198 C 113.169 -4.16863 1.13355 0
M  V30 1199 C 112.304 -5.2888 0.49597 0
M  V30 1200 C 111.343 -5.92537 1.53513 0
M  V30 1201 N 110.48 -6.96038 0.920631 0
M  V30 1202 H 115.32 -2.52876 1.57663 0
M  V30 1203 H 112.857 -1.24199 0.788223 0
M  V30 1204 H 114.815 -4.16193 -0.289704 0
M  V30 1205 H 113.445 -3.132 -0.781393 0
M  V30 1206 H 112.497 -3.44248 1.61857 0
M  V30 1207 H 113.809 -4.60294 1.92174 0
M  V30 1208 H 112.963 -6.06653 0.0758604 0
M  V30 1209 H 111.702 -4.86622 -0.324062 0
M  V30 1210 H 110.707 -5.13482 1.9651 0
M  V30 1211 H 111.932 -6.36873 2.35733 0
M  V30 1212 H 109.878 -6.55888 0.12138 0
M  V30 1213 H 109.795 -7.3786 1.64616 0
M  V30 1214 H 111.063 -7.77725 0.525795 0
M  V30 1215 N 115.292 -0.849877 -1.32721 0
M  V30 1216 C 116.517 -0.463856 -2.02146 0
M  V30 1217 C 116.942 0.930449 -1.63476 0
M  V30 1218 O 116.3 1.61033 -0.832952 0
M  V30 1219 C 116.348 -0.604955 -3.55489 0
M  V30 1220 O 115.452 0.36425 -4.10788 0
M  V30 1221 H 114.793 -0.187046 -0.637111 0
M  V30 1222 H 117.323 -1.14775 -1.69375 0
M  V30 1223 H 117.333 -0.490696 -4.05038 0
M  V30 1224 H 116.008 -1.62174 -3.82978 0
M  V30 1225 H 114.585 0.206628 -3.72327 0
M  V30 1226 N 116.77 1.45427 -0.607355 0
M  V30 1227 C 118.186 1.57283 -0.270985 0
M  V30 1228 C 118.386 1.59875 1.22647 0
M  V30 1229 O 117.442 1.52893 2.00948 0
M  V30 1230 C 118.755 2.85566 -0.941952 0
M  V30 1231 C 120.303 2.9924 -0.917849 0
M  V30 1232 C 120.778 4.30293 -1.56882 0
M  V30 1233 N 122.269 4.37051 -1.5343 0
M  V30 1234 C 123.004 5.37123 -2.00715 0
M  V30 1235 N 122.5 6.43734 -2.56084 0
M  V30 1236 N 124.293 5.28479 -1.91484 0
M  V30 1237 H 116.444 1.41988 -1.57966 0
M  V30 1238 H 118.707 0.67885 -0.661715 0
M  V30 1239 H 118.413 2.8955 -1.99633 0
M  V30 1240 H 118.287 3.74322 -0.465096 0
M  V30 1241 H 120.674 2.94822 0.127984 0
M  V30 1242 H 120.755 2.11895 -1.43297 0
M  V30 1243 H 120.399 4.35469 -2.61398 0
M  V30 1244 H 120.329 5.16454 -1.02873 0
M  V30 1245 H 122.82 3.60615 -1.12982 0
M  V30 1246 H 123.133 7.16341 -2.89958 0
M  V30 1247 H 121.478 6.44485 -2.60122 0
M  V30 1248 H 124.669 4.44098 -1.47967 0
M  V30 1249 H 124.842 6.0632 -2.28648 0
M  V30 1250 N 118.248 0.346503 1.53744 0
M  V30 1251 C 119.211 -0.496439 2.23759 0
M  V30 1252 C 120.211 -1.0252 1.2388 0
M  V30 1253 O 121.401 -0.913974 1.48297 0
M  V30 1254 C 118.533 -1.69187 2.95954 0
M  V30 1255 H 119.726 0.115952 2.99676 0
M  V30 1256 H 117.279 0.0978939 1.55993 0
M  V30 1257 H 118.014 -2.34288 2.24231 0
M  V30 1258 H 117.799 -1.31989 3.69217 0
M  V30 1259 H 119.289 -2.28969 3.49232 0
M  V30 1260 N 119.726 -1.57421 0.075193 0
M  V30 1261 C 121.137 -1.81021 -0.456964 0
M  V30 1262 C 121.488 -0.98936 -1.69429 0
M  V30 1263 O 120.613 -0.212865 -2.15351 0
M  V30 1264 C 121.208 -3.28329 -0.83581 0
M  V30 1265 C 119.767 -3.52764 -1.31281 0
M  V30 1266 C 118.914 -2.75676 -0.299648 0
M  V30 1267 H 121.865 -1.55822 0.300856 0
M  V30 1268 H 121.886 -3.40564 -1.69696 0
M  V30 1269 H 121.398 -3.88046 0.0649238 0
M  V30 1270 H 119.499 -2.98355 -2.23193 0
M  V30 1271 H 119.612 -4.61451 -1.28839 0
M  V30 1272 H 117.976 -2.42538 -0.777641 0
M  V30 1273 H 118.759 -3.38132 0.593417 0
M  V30 1274 N 121.204 0.198386 -1.56346 0
M  V30 1275 C 122.136 1.26987 -1.90806 0
M  V30 1276 C 123.149 1.41877 -0.798419 0
M  V30 1277 O 124.338 1.42362 -1.07682 0
M  V30 1278 C 121.438 2.64246 -2.12196 0
M  V30 1279 C 120.611 2.71007 -3.43328 0
M  V30 1280 C 119.67 3.89439 -3.5387 0
M  V30 1281 O 118.696 3.76695 -4.26719 0
M  V30 1282 N 119.898 5.04752 -2.86715 0
M  V30 1283 H 122.663 0.977433 -2.83313 0
M  V30 1284 H 120.224 0.388322 -1.57174 0
M  V30 1285 H 122.216 3.41896 -2.1654 0
M  V30 1286 H 120.786 2.85992 -1.26204 0
M  V30 1287 H 120.006 1.79657 -3.50881 0
M  V30 1288 H 121.294 2.72512 -4.29668 0
M  V30 1289 H 120.692 5.18004 -2.2735 0
M  V30 1290 H 119.249 5.8036 -2.96691 0
M  V30 1291 N 122.682 1.50554 0.465978 0
M  V30 1292 C 123.612 1.72722 1.57128 0
M  V30 1293 C 124.593 0.576294 1.6004 0
M  V30 1294 O 125.778 0.81598 1.76225 0
M  V30 1295 C 122.908 1.82605 2.95419 0
M  V30 1296 C 121.862 2.97835 3.07373 0
M  V30 1297 C 121.188 2.92867 4.47363 0
M  V30 1298 C 122.488 4.38265 2.84114 0
M  V30 1299 H 124.182 2.65267 1.38829 0
M  V30 1300 H 121.728 1.2765 0.666441 0
M  V30 1301 H 123.681 1.96698 3.72677 0
M  V30 1302 H 122.405 0.866858 3.14886 0
M  V30 1303 H 121.064 2.83401 2.3255 0
M  V30 1304 H 120.712 1.94783 4.63755 0
M  V30 1305 H 120.412 3.70227 4.56296 0
M  V30 1306 H 121.936 3.09015 5.26633 0
M  V30 1307 H 123.35 4.53198 3.51118 0
M  V30 1308 H 121.747 5.17115 3.04487 0
M  V30 1309 H 122.817 4.50281 1.7993 0
M  V30 1310 N 124.16 -0.719506 1.40217 0
M  V30 1311 C 125.11 -1.8251 1.36653 0
M  V30 1312 C 126.094 -1.59028 0.244732 0
M  V30 1313 O 127.286 -1.70268 0.483524 0
M  V30 1314 C 124.415 -3.20599 1.22763 0
M  V30 1315 C 123.501 -3.49858 2.39708 0
M  V30 1316 N 123.892 -3.49957 3.6519 0
M  V30 1317 C 122.19 -3.80297 2.33002 0
M  V30 1318 C 122.891 -3.77449 4.42614 0
M  V30 1319 N 121.867 -3.96002 3.72402 0
M  V30 1320 H 125.669 -1.80914 2.31619 0
M  V30 1321 H 123.183 -0.918455 1.33933 0
M  V30 1322 H 125.18 -3.99766 1.18292 0
M  V30 1323 H 123.84 -3.23424 0.287614 0
M  V30 1324 H 124.851 -3.309 3.98404 0
M  V30 1325 H 121.528 -3.90635 1.47346 0
M  V30 1326 H 122.918 -3.83863 5.51451 0
M  V30 1327 N 125.638 -1.25649 -0.95132 0
M  V30 1328 C 126.568 -1.08808 -2.06599 0
M  V30 1329 C 127.549 0.00382547 -1.701 0
M  V30 1330 O 128.734 -0.166325 -1.93486 0
M  V30 1331 C 125.864 -0.709542 -3.39975 0
M  V30 1332 C 124.818 -1.75206 -3.90496 0
M  V30 1333 C 124.144 -1.22811 -5.20405 0
M  V30 1334 C 125.444 -3.15153 -4.16504 0
M  V30 1335 H 127.138 -2.02048 -2.20946 0
M  V30 1336 H 124.684 -0.972835 -1.06169 0
M  V30 1337 H 126.637 -0.578649 -4.17408 0
M  V30 1338 H 125.361 0.258556 -3.25575 0
M  V30 1339 H 124.02 -1.87145 -3.15234 0
M  V30 1340 H 123.668 -0.250145 -5.02378 0
M  V30 1341 H 123.368 -1.92492 -5.55176 0
M  V30 1342 H 124.892 -1.10968 -6.00432 0
M  V30 1343 H 126.306 -3.06349 -4.84586 0
M  V30 1344 H 124.703 -3.82333 -4.62538 0
M  V30 1345 H 125.773 -3.61966 -3.22658 0
M  V30 1346 N 127.117 1.15442 -1.07289 0
M  V30 1347 C 128.027 2.23786 -0.704057 0
M  V30 1348 C 129.043 1.7166 0.284413 0
M  V30 1349 O 130.219 2.00972 0.131205 0
M  V30 1350 C 127.284 3.46535 -0.106792 0
M  V30 1351 C 126.345 4.13654 -1.14842 0
M  V30 1352 C 125.578 5.30544 -0.57956 0
M  V30 1353 O 125.801 5.67187 0.604585 0
M  V30 1354 O 124.735 5.87154 -1.32414 0
M  V30 1355 H 128.561 2.57664 -1.60757 0
M  V30 1356 H 126.146 1.23152 -0.845803 0
M  V30 1357 H 128.028 4.20804 0.224048 0
M  V30 1358 H 126.703 3.14407 0.770049 0
M  V30 1359 H 125.61 3.4131 -1.5316 0
M  V30 1360 H 126.943 4.49861 -1.99714 0
M  V30 1361 N 128.595 0.856903 1.32268 0
M  V30 1362 C 129.825 0.47475 2.01071 0
M  V30 1363 C 130.233 -0.933746 1.64553 0
M  V30 1364 O 129.576 -1.62114 0.863989 0
M  V30 1365 C 129.638 0.536746 3.55471 0
M  V30 1366 C 129.302 1.90453 4.15423 0
M  V30 1367 C 130.299 2.87029 4.33486 0
M  V30 1368 C 127.984 2.20229 4.51447 0
M  V30 1369 C 129.978 4.11532 4.86744 0
M  V30 1370 C 127.665 3.44984 5.0441 0
M  V30 1371 C 128.663 4.40452 5.22007 0
M  V30 1372 O 128.351 5.62998 5.73837 0
M  V30 1373 H 128.083 0.184778 0.650256 0
M  V30 1374 H 130.637 1.15615 1.69771 0
M  V30 1375 H 128.867 -0.20152 3.86175 0
M  V30 1376 H 130.556 0.169875 4.05544 0
M  V30 1377 H 131.322 2.6533 4.05986 0
M  V30 1378 H 127.201 1.46705 4.37034 0
M  V30 1379 H 130.745 4.86056 5.00395 0
M  V30 1380 H 126.642 3.66532 5.31342 0
M  V30 1381 H 127.41 5.64987 5.92226 0
M  V30 1382 N 130.073 -1.45103 0.615059 0
M  V30 1383 C 131.489 -1.57137 0.279322 0
M  V30 1384 C 131.689 -1.60523 -1.21797 0
M  V30 1385 O 130.745 -1.53956 -2.00134 0
M  V30 1386 C 132.058 -2.85062 0.957083 0
M  V30 1387 C 133.606 -2.98749 0.933706 0
M  V30 1388 C 134.081 -4.29455 1.59162 0
M  V30 1389 N 135.572 -4.36231 1.55746 0
M  V30 1390 C 136.307 -5.36051 2.0356 0
M  V30 1391 N 135.803 -6.42367 2.59494 0
M  V30 1392 N 137.596 -5.27456 1.94284 0
M  V30 1393 H 129.747 -1.41148 1.58717 0
M  V30 1394 H 132.01 -0.675331 0.665306 0
M  V30 1395 H 131.716 -2.88488 2.01166 0
M  V30 1396 H 131.59 -3.7407 0.48494 0
M  V30 1397 H 133.977 -2.94886 -0.112347 0
M  V30 1398 H 134.058 -2.11132 1.44419 0
M  V30 1399 H 133.702 -4.34077 2.63704 0
M  V30 1400 H 133.632 -5.15901 1.0561 0
M  V30 1401 H 136.123 -3.60011 1.14893 0
M  V30 1402 H 136.436 -7.14793 2.93752 0
M  V30 1403 H 134.781 -6.43097 2.63537 0
M  V30 1404 H 137.972 -4.43308 1.5032 0
M  V30 1405 H 138.145 -6.05099 2.3186 0
M  V30 1406 N 131.551 -0.354651 -1.53558 0
M  V30 1407 C 132.798 0.238443 -2.01091 0
M  V30 1408 C 133.126 1.49663 -1.24222 0
M  V30 1409 O 132.381 1.93049 -0.321003 0
M  V30 1410 C 132.68 0.587121 -3.52545 0
M  V30 1411 C 132.346 -0.575472 -4.47213 0
M  V30 1412 C 131.008 -0.894497 -4.72813 0
M  V30 1413 C 133.36 -1.35489 -5.03281 0
M  V30 1414 C 130.688 -1.99511 -5.51736 0
M  V30 1415 C 133.04 -2.44583 -5.83405 0
M  V30 1416 C 131.704 -2.77033 -6.07296 0
M  V30 1417 H 130.974 0.0872526 -0.735845 0
M  V30 1418 H 133.621 -0.484859 -1.8526 0
M  V30 1419 H 131.926 1.39129 -3.66265 0
M  V30 1420 H 133.623 1.05809 -3.86789 0
M  V30 1421 H 130.213 -0.316774 -4.27428 0
M  V30 1422 H 134.397 -1.12167 -4.83459 0
M  V30 1423 H 129.653 -2.25063 -5.68469 0
M  V30 1424 H 133.827 -3.05401 -6.25862 0
M  V30 1425 H 131.454 -3.6244 -6.68237 0
M  V30 1426 N 133.029 1.57378 -0.0835403 0
M  V30 1427 C 134.259 1.97975 0.590713 0
M  V30 1428 C 134.667 0.961083 1.62972 0
M  V30 1429 O 134.01 -0.0590879 1.83605 0
M  V30 1430 C 134.072 3.34915 1.3066 0
M  V30 1431 C 133.736 4.55069 0.419698 0
M  V30 1432 C 134.733 5.18868 -0.32749 0
M  V30 1433 C 132.418 5.0114 0.341137 0
M  V30 1434 C 134.412 6.27098 -1.14134 0
M  V30 1435 C 132.099 6.0924 -0.476374 0
M  V30 1436 C 133.097 6.72083 -1.21627 0
M  V30 1437 O 132.785 7.781 -2.02028 0
M  V30 1438 H 132.517 0.655818 0.163947 0
M  V30 1439 H 135.071 2.04807 -0.156021 0
M  V30 1440 H 133.301 3.24733 2.09966 0
M  V30 1441 H 134.99 3.60037 1.87424 0
M  V30 1442 H 135.756 4.84211 -0.276459 0
M  V30 1443 H 131.635 4.51996 0.90668 0
M  V30 1444 H 135.179 6.7608 -1.71935 0
M  V30 1445 H 131.076 6.43329 -0.528927 0
M  V30 1446 H 131.844 7.95034 -1.94586 0
M  V30 1447 N 134.507 -0.190092 1.56449 0
M  V30 1448 C 135.454 -1.23557 1.94942 0
M  V30 1449 C 136.424 -1.44972 0.810696 0
M  V30 1450 O 137.609 -1.58023 1.06927 0
M  V30 1451 C 134.749 -2.57416 2.2985 0
M  V30 1452 C 133.862 -2.43537 3.5681 0
M  V30 1453 C 132.997 -3.70134 3.81017 0
M  V30 1454 C 132.036 -3.51109 5.01387 0
M  V30 1455 N 131.173 -4.6973 5.21822 0
M  V30 1456 H 136.013 -0.900304 2.84075 0
M  V30 1457 H 133.55 -0.43318 1.40577 0
M  V30 1458 H 135.508 -3.35409 2.48106 0
M  V30 1459 H 134.138 -2.88975 1.43852 0
M  V30 1460 H 133.19 -1.56816 3.46573 0
M  V30 1461 H 134.502 -2.25415 4.4496 0
M  V30 1462 H 133.656 -4.56566 3.9954 0
M  V30 1463 H 132.395 -3.91215 2.91207 0
M  V30 1464 H 131.4 -2.63063 4.82782 0
M  V30 1465 H 132.625 -3.31468 5.9271 0
M  V30 1466 H 130.571 -4.91065 4.34961 0
M  V30 1467 H 130.488 -4.54452 6.0416 0
M  V30 1468 H 131.756 -5.57499 5.44808 0
M  V30 1469 N 135.985 -1.50799 -0.457987 0
M  V30 1470 C 136.917 -1.66786 -1.57211 0
M  V30 1471 C 137.93 -0.548962 -1.53265 0
M  V30 1472 O 139.119 -0.8226 -1.58416 0
M  V30 1473 C 136.219 -1.64834 -2.96113 0
M  V30 1474 C 135.392 -2.92971 -3.24787 0
M  V30 1475 C 134.451 -2.83485 -4.43309 0
M  V30 1476 O 133.477 -3.5744 -4.42973 0
M  V30 1477 N 134.679 -1.97929 -5.45714 0
M  V30 1478 H 137.444 -2.62889 -1.43909 0
M  V30 1479 H 135.005 -1.48427 -0.646617 0
M  V30 1480 H 136.997 -1.56084 -3.7339 0
M  V30 1481 H 135.567 -0.764118 -3.03117 0
M  V30 1482 H 134.787 -3.15749 -2.36 0
M  V30 1483 H 136.075 -3.77834 -3.40762 0
M  V30 1484 H 135.473 -1.37182 -5.48815 0
M  V30 1485 H 134.03 -1.95073 -6.21924 0
M  V30 1486 N 137.463 0.71206 -1.40597 0
M  V30 1487 C 138.393 1.83889 -1.43899 0
M  V30 1488 C 139.374 1.67442 -0.299504 0
M  V30 1489 O 140.559 1.87421 -0.508624 0
M  V30 1490 C 137.689 3.21877 -1.30431 0
M  V30 1491 C 136.643 3.53002 -2.42019 0
M  V30 1492 C 135.969 4.90172 -2.13626 0
M  V30 1493 C 137.269 3.53643 -3.84362 0
M  V30 1494 H 138.963 1.81383 -2.38203 0
M  V30 1495 H 136.509 0.871237 -1.14654 0
M  V30 1496 H 138.462 4.00404 -1.31357 0
M  V30 1497 H 137.186 3.24968 -0.326049 0
M  V30 1498 H 135.845 2.76818 -2.40349 0
M  V30 1499 H 135.493 4.89869 -1.14182 0
M  V30 1500 H 135.193 5.11962 -2.88389 0
M  V30 1501 H 136.717 5.71028 -2.1624 0
M  V30 1502 H 138.131 4.22203 -3.87837 0
M  V30 1503 H 136.528 3.86961 -4.58673 0
M  V30 1504 H 137.598 2.52954 -4.13693 0
M  V30 1505 N 138.941 1.26152 0.944643 0
M  V30 1506 C 140.189 1.11271 1.6871 0
M  V30 1507 C 140.51 -0.345166 1.91921 0
M  V30 1508 O 139.78 -1.24387 1.51343 0
M  V30 1509 H 138.36 0.408783 0.625224 0
M  V30 1510 H 141.022 1.58427 1.1352 0
M  V30 1511 H 140.118 1.62879 2.66227 0
M  V30 1512 N 140.419 -1.14872 1.07899 0
M  V30 1513 C 141.644 -1.90202 0.826926 0
M  V30 1514 C 142.069 -1.77774 -0.614664 0
M  V30 1515 O 141.427 -1.11431 -1.43013 0
M  V30 1516 C 141.475 -3.38352 1.24702 0
M  V30 1517 O 140.579 -4.10497 0.39575 0
M  V30 1518 H 139.92 -0.591968 0.300782 0
M  V30 1519 H 142.45 -1.45437 1.43907 0
M  V30 1520 H 142.46 -3.89156 1.22563 0
M  V30 1521 H 141.135 -3.46715 2.29698 0
M  V30 1522 H 139.712 -3.69796 0.480117 0
M  V30 1523 N 141.898 -0.863906 -1.31812 0
M  V30 1524 C 142.861 -0.320212 -2.26952 0
M  V30 1525 C 143.861 0.525369 -1.51975 0
M  V30 1526 O 145.051 0.335547 -1.70938 0
M  V30 1527 C 142.183 0.545919 -3.365 0
M  V30 1528 H 143.376 -1.16004 -2.76556 0
M  V30 1529 H 140.929 -0.638995 -1.42641 0
M  V30 1530 H 141.664 1.40718 -2.92179 0
M  V30 1531 H 141.449 -0.0594674 -3.92055 0
M  V30 1532 H 142.939 0.918796 -4.07367 0
M  V30 1533 N 143.376 1.44774 -0.622745 0
M  V30 1534 C 144.624 2.01721 -0.123655 0
M  V30 1535 C 144.945 1.49172 1.25589 0
M  V30 1536 O 144.215 0.691974 1.83272 0
M  V30 1537 H 142.795 0.745777 -0.0427225 0
M  V30 1538 H 145.457 1.77382 -0.807559 0
M  V30 1539 H 144.553 3.11984 -0.0849534 0
M  V30 1540 N 144.854 0.36279 1.53368 0
M  V30 1541 C 145.764 -0.492994 2.29362 0
M  V30 1542 C 146.78 -1.09507 1.35219 0
M  V30 1543 O 147.956 -1.10662 1.68273 0
M  V30 1544 C 145.021 -1.61855 3.066 0
M  V30 1545 C 144.082 -1.04429 4.16405 0
M  V30 1546 C 143.315 -2.11621 4.89951 0
M  V30 1547 O 143.538 -3.32684 4.63333 0
M  V30 1548 O 142.472 -1.74835 5.75948 0
M  V30 1549 H 146.298 0.125331 3.03441 0
M  V30 1550 H 143.883 0.127253 1.48857 0
M  V30 1551 H 145.765 -2.27302 3.54841 0
M  V30 1552 H 144.44 -2.22233 2.3536 0
M  V30 1553 H 143.347 -0.353819 3.72423 0
M  V30 1554 H 144.68 -0.485113 4.89804 0
M  V30 1555 N 146.332 -1.57332 0.0918853 0
M  V30 1556 C 147.58 -1.93853 -0.571446 0
M  V30 1557 C 147.901 -0.974212 -1.6892 0
M  V30 1558 O 147.171 -0.0257254 -1.95883 0
M  V30 1559 H 145.751 -0.715666 -0.214082 0
M  V30 1560 H 148.413 -1.94287 0.154464 0
M  V30 1561 H 147.509 -2.96191 -0.983729 0
M  V30 1562 N 147.81 0.181792 -1.56548 0
M  V30 1563 C 148.74 1.22765 -1.98623 0
M  V30 1564 C 149.721 1.46747 -0.860189 0
M  V30 1565 O 150.906 1.58259 -1.12551 0
M  V30 1566 C 148.036 2.56894 -2.33715 0
M  V30 1567 C 146.99 2.475 -3.49182 0
M  V30 1568 C 146.316 3.86023 -3.69986 0
M  V30 1569 C 147.616 1.98866 -4.82959 0
M  V30 1570 H 149.31 0.877942 -2.86239 0
M  V30 1571 H 146.856 0.42088 -1.37712 0
M  V30 1572 H 148.809 3.30253 -2.61746 0
M  V30 1573 H 147.533 2.93632 -1.42997 0
M  V30 1574 H 146.192 1.76596 -3.21262 0
M  V30 1575 H 145.84 4.20136 -2.76576 0
M  V30 1576 H 145.54 3.80609 -4.47672 0
M  V30 1577 H 147.064 4.60984 -4.00407 0
M  V30 1578 H 148.478 2.61992 -5.09934 0
M  V30 1579 H 146.875 2.04424 -5.64208 0
M  V30 1580 H 147.945 0.942465 -4.75653 0
M  V30 1581 N 149.288 1.51039 0.449983 0
M  V30 1582 C 150.699 1.557 1.03026 0
M  V30 1583 C 151.05 0.372939 1.92623 0
M  V30 1584 O 150.175 -0.511771 2.10261 0
M  V30 1585 C 150.77 2.82171 1.87523 0
M  V30 1586 C 149.329 2.89444 2.40622 0
M  V30 1587 C 148.476 2.50228 1.19504 0
M  V30 1588 H 151.427 1.56999 0.231745 0
M  V30 1589 H 151.448 2.65219 2.72835 0
M  V30 1590 H 150.96 3.68331 1.22286 0
M  V30 1591 H 149.061 2.07685 3.0935 0
M  V30 1592 H 149.174 3.92816 2.74285 0
M  V30 1593 H 147.538 2.03139 1.53644 0
M  V30 1594 H 148.321 3.38719 0.558972 0
M  V30 1595 N 150.766 -0.704594 1.40972 0
M  V30 1596 C 151.698 -1.82974 1.38033 0
M  V30 1597 C 152.711 -1.60305 0.283931 0
M  V30 1598 O 153.9 -1.69975 0.545042 0
M  V30 1599 C 151 -3.19578 1.12795 0
M  V30 1600 C 150.173 -3.69352 2.34302 0
M  V30 1601 C 149.232 -4.84601 2.05058 0
M  V30 1602 O 148.258 -4.96682 2.7802 0
M  V30 1603 N 149.46 -5.71194 1.03528 0
M  V30 1604 H 152.225 -1.85991 2.35005 0
M  V30 1605 H 149.786 -0.886567 1.35468 0
M  V30 1606 H 151.778 -3.9429 0.911987 0
M  V30 1607 H 150.348 -3.11642 0.24452 0
M  V30 1608 H 149.568 -2.85649 2.71659 0
M  V30 1609 H 150.856 -3.99345 3.1528 0
M  V30 1610 H 150.254 -5.64054 0.431217 0
M  V30 1611 H 148.811 -6.45843 0.879205 0
M  V30 1612 N 152.244 -1.26651 -0.937939 0
M  V30 1613 C 153.49 -1.12553 -1.687 0
M  V30 1614 C 153.823 0.329782 -1.91379 0
M  V30 1615 O 153.098 1.24202 -1.4968 0
M  V30 1616 C 153.381 -1.89862 -3.05981 0
M  V30 1617 C 153.234 -3.43318 -2.90607 0
M  V30 1618 C 154.553 -1.69499 -4.0615 0
M  V30 1619 H 151.672 -0.410257 -0.612257 0
M  V30 1620 H 154.314 -1.55685 -1.08913 0
M  V30 1621 H 152.464 -1.53204 -3.57017 0
M  V30 1622 H 154.136 -3.89747 -2.46769 0
M  V30 1623 H 152.379 -3.70179 -2.26164 0
M  V30 1624 H 153.05 -3.92642 -3.8799 0
M  V30 1625 H 155.526 -2.01442 -3.64088 0
M  V30 1626 H 154.402 -2.26002 -5.00214 0
M  V30 1627 H 154.663 -0.640365 -4.37438 0
M  V30 1628 N 153.722 1.14298 -1.08507 0
M  V30 1629 C 154.952 1.88945 -0.835663 0
M  V30 1630 C 155.36 1.78894 0.615928 0
M  V30 1631 O 154.703 1.1468 1.43506 0
M  V30 1632 C 154.765 3.39585 -1.17994 0
M  V30 1633 C 154.429 3.7342 -2.63451 0
M  V30 1634 C 155.426 3.73454 -3.61702 0
M  V30 1635 C 153.111 4.03368 -2.99332 0
M  V30 1636 C 155.105 4.02961 -4.93864 0
M  V30 1637 C 152.792 4.32538 -4.31687 0
M  V30 1638 C 153.79 4.32318 -5.28763 0
M  V30 1639 O 153.478 4.6078 -6.58739 0
M  V30 1640 H 153.21 0.605307 -0.300965 0
M  V30 1641 H 155.764 1.45673 -1.44806 0
M  V30 1642 H 153.994 3.83315 -0.51055 0
M  V30 1643 H 155.683 3.9554 -0.911182 0
M  V30 1644 H 156.449 3.50403 -3.35325 0
M  V30 1645 H 152.328 4.02692 -2.24411 0
M  V30 1646 H 155.872 4.02704 -5.69627 0
M  V30 1647 H 151.769 4.55059 -4.57812 0
M  V30 1648 H 152.537 4.78492 -6.64069 0
M  V30 1649 N 155.201 0.870884 1.31352 0
M  V30 1650 C 156.431 0.496049 2.00557 0
M  V30 1651 C 156.839 -0.916241 1.65534 0
M  V30 1652 O 156.182 -1.61188 0.881134 0
M  V30 1653 C 156.244 0.574418 3.54881 0
M  V30 1654 C 155.908 1.94849 4.1338 0
M  V30 1655 C 156.905 2.91611 4.30417 0
M  V30 1656 C 154.59 2.25005 4.49086 0
M  V30 1657 C 156.584 4.16672 4.82352 0
M  V30 1658 C 154.271 3.50315 5.00722 0
M  V30 1659 C 155.269 4.45964 5.17306 0
M  V30 1660 O 154.957 5.69052 5.67833 0
M  V30 1661 H 154.689 0.191664 0.64826 0
M  V30 1662 H 157.243 1.17409 1.68536 0
M  V30 1663 H 155.473 -0.160549 3.86367 0
M  V30 1664 H 157.162 0.212879 4.05341 0
M  V30 1665 H 157.928 2.69622 4.03149 0
M  V30 1666 H 153.807 1.51332 4.35453 0
M  V30 1667 H 157.351 4.91336 4.95211 0
M  V30 1668 H 153.248 3.72147 5.27424 0
M  V30 1669 H 154.016 5.71236 5.86201 0
M  V30 1670 N 156.679 -1.44442 0.630414 0
M  V30 1671 C 157.926 -2.02052 0.134617 0
M  V30 1672 C 158.254 -1.49576 -1.24327 0
M  V30 1673 O 157.509 -0.669806 -1.83881 0
M  V30 1674 C 157.808 -3.57332 0.0697835 0
M  V30 1675 C 157.474 -4.29058 1.38635 0
M  V30 1676 C 156.136 -4.4837 1.74694 0
M  V30 1677 C 158.488 -4.69872 2.25543 0
M  V30 1678 C 155.816 -5.05756 2.97369 0
M  V30 1679 C 158.168 -5.28616 3.47487 0
M  V30 1680 C 156.832 -5.46147 3.8377 0
M  V30 1681 H 156.102 -0.739361 0.0492598 0
M  V30 1682 H 158.749 -1.73217 0.816586 0
M  V30 1683 H 157.054 -3.85577 -0.695553 0
M  V30 1684 H 158.751 -3.99637 -0.330344 0
M  V30 1685 H 155.341 -4.14357 1.09574 0
M  V30 1686 H 159.525 -4.54666 1.98979 0
M  V30 1687 H 154.781 -5.17515 3.25558 0
M  V30 1688 H 158.955 -5.59192 4.15063 0
M  V30 1689 H 156.582 -5.9038 4.7891 0
M  V30 1690 N 158.157 -0.370918 -1.53173 0
M  V30 1691 C 159.405 0.216673 -2.00935 0
M  V30 1692 C 159.726 1.48845 -1.25977 0
M  V30 1693 O 158.996 1.92286 -0.374551 0
M  V30 1694 H 157.576 0.0830565 -0.742368 0
M  V30 1695 H 160.238 -0.49838 -1.8842 0
M  V30 1696 H 159.334 0.439893 -3.08984 0
M  V30 1697 N 159.635 1.57281 -0.100228 0
M  V30 1698 C 161.046 1.81725 0.428107 0
M  V30 1699 C 161.397 1.01619 1.67833 0
M  V30 1700 O 160.522 0.247098 2.14985 0
M  V30 1701 C 161.117 3.29617 0.78347 0
M  V30 1702 C 159.676 3.54808 1.25653 0
M  V30 1703 C 158.823 2.76118 0.255752 0
M  V30 1704 H 161.774 1.55324 -0.325608 0
M  V30 1705 H 161.795 3.4322 1.64256 0
M  V30 1706 H 161.307 3.87893 -0.12665 0
M  V30 1707 H 159.408 3.01868 2.18418 0
M  V30 1708 H 159.521 4.63443 1.21482 0
M  V30 1709 H 157.885 2.43745 0.738956 0
M  V30 1710 H 158.668 3.37145 -0.647136 0
M  V30 1711 N 161.113 -0.173488 1.56642 0
M  V30 1712 C 162.353 -0.896984 1.83667 0
M  V30 1713 C 162.717 -1.79523 0.680842 0
M  V30 1714 O 163.918 -2.55616 0.831488 0
M  V30 1715 C 162.189 -1.67351 3.15798 0
M  V30 1716 S 163.748 -2.44607 3.64298 0
M  V30 1717 H 160.566 -0.300464 0.644393 0
M  V30 1718 H 163.168 -0.158775 1.94854 0
M  V30 1719 H 161.872 -1.00462 3.97914 0
M  V30 1720 H 161.403 -2.45313 3.07546 0
M  V30 1721 H 163.418 -3.69261 3.31452 0
M  V30 1722 N 162.591 -1.51276 -0.441967 0
M  V30 1723 C 163.839 -1.63392 -1.18943 0
M  V30 1724 C 164.16 -0.350159 -1.9183 0
M  V30 1725 O 163.43 0.633784 -1.85364 0
M  V30 1726 H 162.01 -0.602164 -0.442049 0
M  V30 1727 H 164.672 -1.88186 -0.507165 0
M  V30 1728 H 163.768 -2.45934 -1.92154 0
M  V30 1729 N 164.069 0.697108 -1.41344 0
M  V30 1730 C 165.016 1.81106 -1.43071 0
M  V30 1731 C 165.986 1.63632 -0.285275 0
M  V30 1732 O 167.171 1.84504 -0.486091 0
M  V30 1733 C 164.311 3.18975 -1.31715 0
M  V30 1734 C 163.424 3.47892 -2.56115 0
M  V30 1735 C 162.559 4.75367 -2.37064 0
M  V30 1736 C 161.598 4.97247 -3.56948 0
M  V30 1737 N 160.735 6.15947 -3.36977 0
M  V30 1738 H 165.575 1.78965 -2.38276 0
M  V30 1739 H 163.112 0.873975 -1.18322 0
M  V30 1740 H 165.07 3.98615 -1.23133 0
M  V30 1741 H 163.7 3.20297 -0.401183 0
M  V30 1742 H 162.752 2.62669 -2.75153 0
M  V30 1743 H 164.064 3.59962 -3.45295 0
M  V30 1744 H 163.218 5.63059 -2.25941 0
M  V30 1745 H 161.957 4.65541 -1.45338 0
M  V30 1746 H 160.962 4.08004 -3.68527 0
M  V30 1747 H 162.187 5.08934 -4.49626 0
M  V30 1748 H 160.133 6.07336 -2.47949 0
M  V30 1749 H 160.05 6.28777 -4.19732 0
M  V30 1750 H 161.318 7.06377 -3.29623 0
M  V30 1751 N 165.547 1.27147 0.931209 0
M  V30 1752 C 166.777 1.15914 1.71019 0
M  V30 1753 C 167.185 -0.287112 1.87009 0
M  V30 1754 O 166.528 -1.20761 1.38429 0
M  V30 1755 C 166.59 1.76647 3.13107 0
M  V30 1756 C 166.254 3.25807 3.20467 0
M  V30 1757 C 167.251 4.22489 3.02983 0
M  V30 1758 C 164.936 3.66452 3.43538 0
M  V30 1759 C 166.93 5.57794 3.08454 0
M  V30 1760 C 164.617 5.01888 3.48643 0
M  V30 1761 C 165.615 5.97369 3.31119 0
M  V30 1762 O 165.303 7.30337 3.35952 0
M  V30 1763 H 165.035 0.404062 0.54195 0
M  V30 1764 H 167.589 1.68457 1.17521 0
M  V30 1765 H 165.819 1.18578 3.68071 0
M  V30 1766 H 167.508 1.60179 3.72958 0
M  V30 1767 H 168.274 3.92425 2.85004 0
M  V30 1768 H 164.153 2.92611 3.5623 0
M  V30 1769 H 167.697 6.32298 2.94694 0
M  V30 1770 H 163.594 5.31609 3.66145 0
M  V30 1771 H 164.362 7.38739 3.5243 0
M  V30 1772 N 167.025 -1.13721 1.09112 0
M  V30 1773 C 167.973 -2.21103 0.722219 0
M  V30 1774 C 168.967 -1.67147 -0.275374 0
M  V30 1775 O 170.173 -1.79477 -0.137176 0
M  V30 1776 H 166.548 -0.720445 0.215553 0
M  V30 1777 H 168.519 -2.49483 1.63709 0
M  V30 1778 C 167.268 -3.47352 0.15543 0
M  V30 1779 H 166.591 -3.89206 0.914246 0
M  V30 1780 H 168.031 -4.2395 -0.0647967 0
M  V30 1781 C 166.49 -3.1814 -1.10852 0
M  V30 1782 O 167.02 -3.36604 -2.19227 0
M  V30 1783 N 165.226 -2.72045 -1.02176 0
M  V30 1784 H 164.773 -2.57221 -0.139764 0
M  V30 1785 H 164.731 -2.52875 -1.8682 0
M  V30 1786 N 168.503 -0.877838 -1.30888 0
M  V30 1787 C 169.466 -0.344265 -2.266 0
M  V30 1788 C 170.466 0.50922 -1.52524 0
M  V30 1789 O 171.656 0.317398 -1.71284 0
M  V30 1790 C 168.788 0.510198 -3.37061 0
M  V30 1791 H 169.981 -1.1893 -2.7531 0
M  V30 1792 H 167.534 -0.654088 -1.41956 0
M  V30 1793 H 168.269 1.37612 -2.93655 0
M  V30 1794 H 168.054 -0.101047 -3.9197 0
M  V30 1795 H 169.544 0.875537 -4.08319 0
M  V30 1796 N 169.982 1.44106 -0.638065 0
M  V30 1797 C 170.915 2.27924 0.112161 0
M  V30 1798 C 171.893 1.38945 0.844574 0
M  V30 1799 O 173.077 1.68386 0.847248 0
M  V30 1800 C 170.204 3.18029 1.16512 0
M  V30 1801 C 169.25 4.23163 0.532458 0
M  V30 1802 S 170.083 5.31131 -0.682666 0
M  V30 1803 C 171.239 6.24805 0.37013 0
M  V30 1804 H 171.472 2.91205 -0.598887 0
M  V30 1805 H 169.005 1.48394 -0.426441 0
M  V30 1806 H 170.963 3.70492 1.76766 0
M  V30 1807 H 169.624 2.53955 1.8484 0
M  V30 1808 H 168.817 4.86252 1.32571 0
M  V30 1809 H 168.419 3.74 0.00437644 0
M  V30 1810 H 170.711 6.66042 1.24071 0
M  V30 1811 H 171.654 7.07741 -0.225349 0
M  V30 1812 H 172.062 5.60154 0.699141 0
M  V30 1813 N 171.46 0.379036 1.52974 0
M  V30 1814 C 172.706 -0.206727 2.01744 0
M  V30 1815 C 173.039 -1.47314 1.26539 0
M  V30 1816 O 172.314 -1.91084 0.362903 0
M  V30 1817 C 172.597 -0.485066 3.56818 0
M  V30 1818 C 172.45 0.795919 4.42702 0
M  V30 1819 C 173.769 -1.28003 4.21074 0
M  V30 1820 H 170.888 -0.0736607 0.73331 0
M  V30 1821 H 173.53 0.506581 1.83122 0
M  V30 1822 H 171.68 -1.09272 3.72816 0
M  V30 1823 H 173.352 1.43307 4.38476 0
M  V30 1824 H 171.595 1.41344 4.10127 0
M  V30 1825 H 172.266 0.555947 5.49193 0
M  V30 1826 H 174.742 -0.765867 4.08991 0
M  V30 1827 H 173.618 -1.44352 5.29579 0
M  V30 1828 H 173.879 -2.29236 3.78026 0
M  V30 1829 N 172.938 -1.57226 0.108567 0
M  V30 1830 C 173.868 -2.17778 -0.84232 0
M  V30 1831 C 174.849 -1.11487 -1.2847 0
M  V30 1832 O 176.034 -1.39681 -1.34918 0
M  V30 1833 C 173.164 -2.76888 -2.09644 0
M  V30 1834 C 172.118 -3.88669 -1.79221 0
M  V30 1835 C 171.444 -4.34541 -3.11574 0
M  V30 1836 C 172.744 -5.11251 -1.06864 0
M  V30 1837 H 174.438 -2.97489 -0.337774 0
M  V30 1838 H 171.984 -1.43097 -0.161025 0
M  V30 1839 H 173.937 -3.17904 -2.76614 0
M  V30 1840 H 172.661 -1.94451 -2.62405 0
M  V30 1841 H 171.32 -3.48213 -1.14644 0
M  V30 1842 H 170.968 -3.48977 -3.62249 0
M  V30 1843 H 170.668 -5.09914 -2.91996 0
M  V30 1844 H 172.192 -4.782 -3.7968 0
M  V30 1845 H 173.606 -5.49352 -1.63968 0
M  V30 1846 H 172.003 -5.9214 -0.974178 0
M  V30 1847 H 173.073 -4.8487 -0.0536168 0
M  V30 1848 N 174.416 0.165178 -1.56732 0
M  V30 1849 C 175.326 1.22423 -2.00125 0
M  V30 1850 C 176.342 1.48084 -0.913619 0
M  V30 1851 O 177.518 1.60112 -1.22172 0
M  V30 1852 C 174.583 2.54197 -2.35764 0
M  V30 1853 C 173.644 2.36343 -3.58386 0
M  V30 1854 C 172.877 3.61834 -3.92316 0
M  V30 1855 O 173.1 4.67267 -3.27135 0
M  V30 1856 O 172.034 3.55579 -4.85641 0
M  V30 1857 H 175.86 0.885886 -2.90492 0
M  V30 1858 H 173.445 0.372518 -1.44681 0
M  V30 1859 H 175.327 3.3192 -2.59629 0
M  V30 1860 H 174.002 2.87598 -1.48557 0
M  V30 1861 H 172.909 1.56632 -3.39731 0
M  V30 1862 H 174.242 2.07865 -4.46154 0
M  V30 1863 N 175.894 1.51508 0.433938 0
M  V30 1864 C 176.824 1.76016 1.53429 0
M  V30 1865 C 177.805 0.610112 1.58782 0
M  V30 1866 O 178.99 0.853177 1.74455 0
M  V30 1867 C 176.12 1.88831 2.9148 0
M  V30 1868 C 175.074 3.04288 3.00987 0
M  V30 1869 C 174.4 3.0229 4.4105 0
M  V30 1870 C 175.7 4.44193 2.74754 0
M  V30 1871 H 177.394 2.68152 1.33171 0
M  V30 1872 H 174.94 1.29035 0.639214 0
M  V30 1873 H 176.893 2.04559 3.6842 0
M  V30 1874 H 175.617 0.933455 3.12976 0
M  V30 1875 H 174.276 2.8827 2.26486 0
M  V30 1876 H 173.924 2.04576 4.59519 0
M  V30 1877 H 173.624 3.79822 4.4834 0
M  V30 1878 H 175.148 3.20116 5.1996 0
M  V30 1879 H 176.562 4.60544 3.41426 0
M  V30 1880 H 174.959 5.23457 2.9345 0
M  V30 1881 H 176.029 4.53996 1.70339 0
M  V30 1882 N 177.372 -0.689602 1.41712 0
M  V30 1883 C 178.302 -1.81577 1.46806 0
M  V30 1884 C 179.283 -1.66945 0.326105 0
M  V30 1885 O 180.468 -1.86588 0.538377 0
M  V30 1886 C 177.598 -3.19762 1.35535 0
M  V30 1887 C 176.552 -3.49107 2.47605 0
M  V30 1888 C 175.878 -4.86711 2.21397 0
M  V30 1889 C 177.178 -3.47483 3.89939 0
M  V30 1890 H 178.872 -1.7757 2.41058 0
M  V30 1891 H 176.418 -0.852887 1.16025 0
M  V30 1892 H 178.371 -3.98263 1.3771 0
M  V30 1893 H 177.095 -3.24409 0.377708 0
M  V30 1894 H 175.754 -2.72959 2.44722 0
M  V30 1895 H 175.402 -4.8799 1.21961 0
M  V30 1896 H 175.102 -5.0731 2.96497 0
M  V30 1897 H 176.626 -5.67515 2.25297 0
M  V30 1898 H 178.04 -4.1598 3.94505 0
M  V30 1899 H 176.437 -3.79615 4.64771 0
M  V30 1900 H 177.507 -2.46341 4.17665 0
M  V30 1901 N 178.85 -1.27639 -0.924453 0
M  V30 1902 C 180.098 -1.13941 -1.66918 0
M  V30 1903 C 180.419 0.314589 -1.92446 0
M  V30 1904 O 179.689 1.21964 -1.53303 0
M  V30 1905 H 178.269 -0.418678 -0.618642 0
M  V30 1906 H 180.931 -1.60213 -1.10985 0
M  V30 1907 H 180.027 -1.67094 -2.63602 0
M  V30 1908 N 180.328 1.1314 -1.09713 0
M  V30 1909 C 181.739 1.66029 -0.853885 0
M  V30 1910 C 182.09 1.86241 0.617142 0
M  V30 1911 O 181.215 1.5834 1.47503 0
M  V30 1912 C 181.81 3.01599 -1.5435 0
M  V30 1913 C 180.369 3.51467 -1.34714 0
M  V30 1914 C 179.516 2.26648 -1.59769 0
M  V30 1915 H 182.467 0.970226 -1.25588 0
M  V30 1916 H 182.488 3.67709 -0.978267 0
M  V30 1917 H 182 2.86856 -2.6141 0
M  V30 1918 H 180.101 3.71408 -0.297838 0
M  V30 1919 H 180.214 4.314 -2.08401 0
M  V30 1920 H 178.578 2.33385 -1.01998 0
M  V30 1921 H 179.361 2.14467 -2.68065 0
M  V30 1922 N 181.806 0.884767 1.30421 0
M  V30 1923 C 183.031 0.517288 2.00845 0
M  V30 1924 C 183.456 -0.886779 1.65885 0
M  V30 1925 O 182.814 -1.58768 0.875354 0
M  V30 1926 C 182.862 0.698994 3.5376 0
M  V30 1927 O 181.966 -0.255208 4.1161 0
M  V30 1928 H 181.307 0.203872 0.631927 0
M  V30 1929 H 183.837 1.19225 1.66272 0
M  V30 1930 H 183.847 0.597912 4.03595 0
M  V30 1931 H 182.522 1.72271 3.78544 0
M  V30 1932 H 181.099 -0.10784 3.72744 0
M  V30 1933 N 183.284 -1.43765 0.645699 0
M  V30 1934 C 184.214 -2.33471 -0.0370477 0
M  V30 1935 C 185.195 -1.49042 -0.819779 0
M  V30 1936 O 186.38 -1.77726 -0.782758 0
M  V30 1937 C 183.51 -3.32311 -1.0093 0
M  V30 1938 C 182.464 -4.2667 -0.337201 0
M  V30 1939 C 181.79 -5.1549 -1.42037 0
M  V30 1940 C 183.09 -5.16657 0.765706 0
M  V30 1941 H 184.784 -2.90809 0.712069 0
M  V30 1942 H 182.33 -1.39834 0.343876 0
M  V30 1943 H 184.283 -3.9396 -1.49578 0
M  V30 1944 H 183.007 -2.73213 -1.78948 0
M  V30 1945 H 181.666 -3.66374 0.128771 0
M  V30 1946 H 181.314 -4.52735 -2.1918 0
M  V30 1947 H 181.014 -5.79438 -0.975966 0
M  V30 1948 H 182.538 -5.80012 -1.90838 0
M  V30 1949 H 183.952 -5.72158 0.361702 0
M  V30 1950 H 182.349 -5.89286 1.13413 0
M  V30 1951 H 183.419 -4.56796 1.62683 0
M  V30 1952 N 184.763 -0.387143 -1.52771 0
M  V30 1953 C 185.673 0.456442 -2.30117 0
M  V30 1954 C 186.689 1.07342 -1.36944 0
M  V30 1955 O 187.865 1.07971 -1.70013 0
M  V30 1956 C 184.93 1.56957 -3.09136 0
M  V30 1957 C 183.991 0.977916 -4.18014 0
M  V30 1958 C 183.224 2.038 -4.93256 0
M  V30 1959 O 183.447 3.25271 -4.68567 0
M  V30 1960 O 182.381 1.6565 -5.78657 0
M  V30 1961 H 186.207 -0.17359 -3.03203 0
M  V30 1962 H 183.792 -0.150919 -1.48636 0
M  V30 1963 H 185.674 2.21628 -3.58412 0
M  V30 1964 H 184.349 2.18461 -2.38865 0
M  V30 1965 H 183.256 0.294525 -3.72939 0
M  V30 1966 H 184.589 0.407128 -4.90513 0
M  V30 1967 N 186.241 1.57166 -0.116904 0
M  V30 1968 C 187.518 1.86645 0.585049 0
M  V30 1969 C 187.898 1.0177 1.84949 0
M  V30 1970 O 187.246 0.0960379 2.28298 0
M  V30 1971 C 187.456 3.37736 0.879507 0
M  V30 1972 C 188.804 4.06289 1.23348 0
M  V30 1973 O 189.828 3.42743 0.969836 0
M  V30 1974 O 188.687 5.18455 1.7282 0
M  V30 1975 H 185.781 0.772593 0.295007 0
M  V30 1976 H 188.327 1.69025 -0.151249 0
M  V30 1977 H 187.099 3.91296 -0.0166136 0
M  V30 1978 H 186.722 3.6078 1.67103 0
M  V30 1979 N 187.719 -0.156864 1.56817 0
M  V30 1980 C 188.649 -1.19589 2.00551 0
M  V30 1981 C 189.63 -1.4536 0.883426 0
M  V30 1982 O 190.815 -1.56449 1.15054 0
M  V30 1983 C 187.945 -2.53143 2.37773 0
M  V30 1984 C 186.899 -2.41913 3.53075 0
M  V30 1985 C 186.225 -3.80088 3.76081 0
M  V30 1986 C 187.525 -1.91157 4.86062 0
M  V30 1987 H 189.219 -0.832293 2.87599 0
M  V30 1988 H 186.765 -0.398918 1.38364 0
M  V30 1989 H 188.718 -3.26047 2.66967 0
M  V30 1990 H 187.442 -2.91319 1.4765 0
M  V30 1991 H 186.101 -1.71462 3.24031 0
M  V30 1992 H 185.749 -4.15683 2.83225 0
M  V30 1993 H 185.449 -3.73439 4.53671 0
M  V30 1994 H 186.973 -4.54556 4.0769 0
M  V30 1995 H 188.387 -2.53846 5.14038 0
M  V30 1996 H 186.784 -1.95422 5.67389 0
M  V30 1997 H 187.854 -0.866673 4.77092 0
M  V30 1998 N 189.197 -1.51736 -0.425897 0
M  V30 1999 C 190.444 -1.6497 -1.17436 0
M  V30 2000 C 190.772 -0.371445 -1.9092 0
M  V30 2001 O 190.027 0.644963 -1.84767 0
M  V30 2002 C 190.326 -2.81103 -2.20717 0
M  V30 2003 C 189.992 -4.19954 -1.64162 0
M  V30 2004 C 188.654 -4.57725 -1.48462 0
M  V30 2005 C 191.006 -5.06552 -1.22696 0
M  V30 2006 C 188.334 -5.79789 -0.897873 0
M  V30 2007 C 190.686 -6.29205 -0.654464 0
M  V30 2008 C 189.35 -6.6574 -0.484456 0
M  V30 2009 H 188.62 -0.603668 -0.429727 0
M  V30 2010 H 191.267 -1.85798 -0.463829 0
M  V30 2011 H 189.572 -2.54542 -2.97852 0
M  V30 2012 H 191.269 -2.8854 -2.78471 0
M  V30 2013 H 187.859 -3.90181 -1.77361 0
M  V30 2014 H 192.043 -4.77968 -1.33642 0
M  V30 2015 H 187.299 -6.06733 -0.75402 0
M  V30 2016 H 191.473 -6.95643 -0.324694 0
M  V30 2017 H 189.1 -7.60195 -0.0276833 0
M  V30 2018 N 190.675 0.682077 -1.42076 0
M  V30 2019 C 191.952 1.43755 -1.32642 0
M  V30 2020 C 192.332 2.11063 0.0396611 0
M  V30 2021 O 191.68 2.02701 1.05474 0
M  V30 2022 C 191.89 2.44596 -2.48946 0
M  V30 2023 C 193.238 3.09454 -2.9073 0
M  V30 2024 O 194.262 2.54922 -2.48783 0
M  V30 2025 O 193.121 4.08253 -3.63307 0
M  V30 2026 H 190.215 0.640857 -0.522715 0
M  V30 2027 H 192.761 0.711415 -1.54068 0
M  V30 2028 H 191.533 1.93609 -3.40046 0
M  V30 2029 H 191.156 3.24701 -2.29467 0
M  V30 2030 N 192.153 1.28127 0.917671 0
M  V30 2031 C 193.083 1.14248 2.03641 0
M  V30 2032 C 194.064 0.0412748 1.7005 0
M  V30 2033 O 195.249 0.217566 1.92977 0
M  V30 2034 C 192.379 0.799431 3.37974 0
M  V30 2035 C 191.333 1.85497 3.85713 0
M  V30 2036 C 190.659 1.36565 5.16966 0
M  V30 2037 C 191.959 3.26085 4.08002 0
M  V30 2038 H 193.653 2.07835 2.15511 0
M  V30 2039 H 191.199 1.00064 1.03553 0
M  V30 2040 H 193.152 0.689114 4.15727 0
M  V30 2041 H 191.876 -0.172145 3.26146 0
M  V30 2042 H 190.535 1.95437 3.10161 0
M  V30 2043 H 190.183 0.383253 5.01538 0
M  V30 2044 H 189.883 2.07143 5.49878 0
M  V30 2045 H 191.407 1.26848 5.97279 0
M  V30 2046 H 192.821 3.19089 4.76293 0
M  V30 2047 H 191.218 3.94462 4.52238 0
M  V30 2048 H 192.288 3.70394 3.12948 0
M  V30 2049 N 193.631 -1.12557 1.10312 0
M  V30 2050 C 194.871 -1.8568 0.854543 0
M  V30 2051 C 195.235 -1.82091 -0.608843 0
M  V30 2052 O 196.436 -2.50544 -0.973717 0
M  V30 2053 C 194.707 -3.2942 1.38626 0
M  V30 2054 S 196.266 -4.19931 1.27293 0
M  V30 2055 H 193.084 -0.640427 0.308827 0
M  V30 2056 H 195.686 -1.35599 1.40831 0
M  V30 2057 H 194.39 -3.2959 2.44537 0
M  V30 2058 H 193.921 -3.84566 0.82902 0
M  V30 2059 H 195.936 -4.95668 0.229776 0
M  V30 2060 N 195.109 -0.891671 -1.2995 0
M  V30 2061 C 196.386 -0.433307 -1.9074 0
M  V30 2062 C 196.766 1.08646 -1.80995 0
M  V30 2063 O 196.114 1.92476 -1.23147 0
M  V30 2064 C 196.324 -0.938895 -3.36134 0
M  V30 2065 C 197.672 -0.977829 -4.13187 0
M  V30 2066 O 198.696 -0.886015 -3.45005 0
M  V30 2067 O 197.555 -1.11453 -5.35015 0
M  V30 2068 H 194.649 -0.133699 -0.816121 0
M  V30 2069 H 197.195 -0.981011 -1.38471 0
M  V30 2070 H 195.967 -1.98281 -3.37343 0
M  V30 2071 H 195.59 -0.37074 -3.95868 0
M  V30 2072 N 196.587 1.43421 -0.653314 0
M  V30 2073 C 198.003 1.56341 -0.320886 0
M  V30 2074 C 198.203 1.63696 1.17499 0
M  V30 2075 O 197.259 1.59208 1.95982 0
M  V30 2076 C 198.572 2.82424 -1.03233 0
M  V30 2077 C 200.12 2.96168 -1.01259 0
M  V30 2078 C 200.595 4.25084 -1.70492 0
M  V30 2079 N 202.086 4.31948 -1.67257 0
M  V30 2080 C 202.821 5.30466 -2.17701 0
M  V30 2081 N 202.317 6.35261 -2.76434 0
M  V30 2082 N 204.11 5.2212 -2.082 0
M  V30 2083 H 196.261 1.3689 -1.62403 0
M  V30 2084 H 198.524 0.657455 -0.682977 0
M  V30 2085 H 198.23 2.83053 -2.08744 0
M  V30 2086 H 198.104 3.72653 -0.583948 0
M  V30 2087 H 200.491 2.9508 0.0341235 0
M  V30 2088 H 200.572 2.07229 -1.49966 0
M  V30 2089 H 200.216 4.26932 -2.7512 0
M  V30 2090 H 200.146 5.1292 -1.19251 0
M  V30 2091 H 202.637 3.56838 -1.24398 0
M  V30 2092 H 202.95 7.06754 -3.12601 0
M  V30 2093 H 201.295 6.35884 -2.80495 0
M  V30 2094 H 204.486 4.39166 -1.62021 0
M  V30 2095 H 204.659 5.98739 -2.47822 0
M  V30 2096 N 198.065 0.39524 1.52563 0
M  V30 2097 C 199.293 -0.184943 2.06072 0
M  V30 2098 C 199.708 -1.40021 1.26647 0
M  V30 2099 O 199.065 -1.79767 0.314672 0
M  V30 2100 C 199.116 -0.549179 3.57304 0
M  V30 2101 O 198.837 0.617813 4.33722 0
M  V30 2102 C 200.338 -1.18459 4.2718 0
M  V30 2103 H 197.558 -0.0265025 0.670476 0
M  V30 2104 H 200.102 0.562184 1.96621 0
M  V30 2105 H 198.257 -1.2462 3.66809 0
M  V30 2106 H 198.671 0.317091 5.23541 0
M  V30 2107 H 200.145 -1.38976 5.34219 0
M  V30 2108 H 200.622 -2.15368 3.82771 0
M  V30 2109 H 201.228 -0.528163 4.22008 0
M  V30 2110 N 199.544 -1.57102 0.125237 0
M  V30 2111 C 200.791 -1.95407 -0.531248 0
M  V30 2112 C 201.119 -1.0089 -1.66287 0
M  V30 2113 O 200.374 -0.0339431 -1.95671 0
M  V30 2114 C 200.673 -3.40096 -1.09862 0
M  V30 2115 C 200.339 -4.50815 -0.0876989 0
M  V30 2116 C 199.001 -4.80824 0.19026 0
M  V30 2117 C 201.353 -5.17724 0.600902 0
M  V30 2118 C 198.681 -5.75058 1.163 0
M  V30 2119 C 201.033 -6.13005 1.56231 0
M  V30 2120 C 199.697 -6.41403 1.8482 0
M  V30 2121 H 198.967 -0.715046 -0.194397 0
M  V30 2122 H 201.614 -1.90373 0.207463 0
M  V30 2123 H 199.919 -3.41855 -1.91422 0
M  V30 2124 H 201.616 -3.6705 -1.61478 0
M  V30 2125 H 198.206 -4.27444 -0.314528 0
M  V30 2126 H 202.39 -4.94691 0.399333 0
M  V30 2127 H 197.646 -5.95362 1.39117 0
M  V30 2128 H 201.82 -6.63934 2.10153 0
M  V30 2129 H 199.447 -7.14229 2.60349 0
M  V30 2130 N 201.022 0.148545 -1.56898 0
M  V30 2131 C 202.25 0.876389 -1.87422 0
M  V30 2132 C 202.665 1.74809 -0.713256 0
M  V30 2133 O 202.022 1.79725 0.317025 0
M  V30 2134 C 202.073 1.73438 -3.17178 0
M  V30 2135 O 201.794 0.897809 -4.28802 0
M  V30 2136 C 203.295 2.56993 -3.61205 0
M  V30 2137 H 200.515 0.253489 -0.621277 0
M  V30 2138 H 203.059 0.141798 -2.04008 0
M  V30 2139 H 201.214 2.42205 -3.0235 0
M  V30 2140 H 201.628 1.48672 -5.02988 0
M  V30 2141 H 203.102 3.12773 -4.54838 0
M  V30 2142 H 203.579 3.32958 -2.86419 0
M  V30 2143 H 204.185 1.9352 -3.78722 0
M  V30 2144 N 202.5 1.5196 0.417844 0
M  V30 2145 C 203.43 1.77634 1.51554 0
M  V30 2146 C 204.411 0.626918 1.58126 0
M  V30 2147 O 205.596 0.871632 1.7354 0
M  V30 2148 C 202.726 1.91911 2.8946 0
M  V30 2149 C 201.68 3.07463 2.97743 0
M  V30 2150 C 201.006 3.06951 4.37819 0
M  V30 2151 C 202.306 4.47082 2.70027 0
M  V30 2152 H 204 2.6955 1.3032 0
M  V30 2153 H 201.546 1.29706 0.625492 0
M  V30 2154 H 203.499 2.08455 3.6623 0
M  V30 2155 H 202.223 0.966598 3.11969 0
M  V30 2156 H 200.882 2.90656 2.23416 0
M  V30 2157 H 200.53 2.09438 4.57323 0
M  V30 2158 H 200.23 3.84556 4.44286 0
M  V30 2159 H 201.754 3.25613 5.16535 0
M  V30 2160 H 203.168 4.6414 3.36522 0
M  V30 2161 H 201.565 5.2654 2.87881 0
M  V30 2162 H 202.635 4.55777 1.65514 0
M  V30 2163 N 203.978 -0.674533 1.42435 0
M  V30 2164 C 204.925 -1.78807 1.45934 0
M  V30 2165 C 205.895 -1.63157 0.311271 0
M  V30 2166 O 207.08 -1.83707 0.515383 0
M  V30 2167 C 204.22 -3.16839 1.36773 0
M  V30 2168 C 203.333 -3.43774 2.61617 0
M  V30 2169 C 202.468 -4.71536 2.44597 0
M  V30 2170 C 201.507 -4.91505 3.64814 0
M  V30 2171 N 200.644 -6.10508 3.46734 0
M  V30 2172 H 205.484 -1.75151 2.41093 0
M  V30 2173 H 203.021 -0.85504 1.19697 0
M  V30 2174 H 204.979 -3.96606 1.29459 0
M  V30 2175 H 203.609 -3.19619 0.452089 0
M  V30 2176 H 202.661 -2.58259 2.79297 0
M  V30 2177 H 203.973 -3.54423 3.50978 0
M  V30 2178 H 203.127 -5.59393 2.3487 0
M  V30 2179 H 201.866 -4.6317 1.52726 0
M  V30 2180 H 200.871 -4.0209 3.74972 0
M  V30 2181 H 202.096 -5.01716 4.57665 0
M  V30 2182 H 200.042 -6.03315 2.5758 0
M  V30 2183 H 199.959 -6.2202 4.29682 0
M  V30 2184 H 201.227 -7.01044 3.40819 0
M  V30 2185 N 205.456 -1.28612 -0.910864 0
M  V30 2186 C 206.684 -1.18792 -1.69399 0
M  V30 2187 C 207.099 0.253039 -1.87097 0
M  V30 2188 O 206.456 1.17071 -1.40003 0
M  V30 2189 C 206.507 -1.88511 -3.08457 0
M  V30 2190 O 206.228 -3.26979 -2.91576 0
M  V30 2191 C 207.729 -1.85029 -4.02839 0
M  V30 2192 H 204.949 -0.412233 -0.529438 0
M  V30 2193 H 207.493 -1.69788 -1.13984 0
M  V30 2194 H 205.648 -1.41379 -3.60681 0
M  V30 2195 H 206.062 -3.61936 -3.79608 0
M  V30 2196 H 207.536 -2.38395 -4.97867 0
M  V30 2197 H 208.013 -0.823303 -4.31414 0
M  V30 2198 H 208.619 -2.31853 -3.56545 0
M  V30 2199 N 206.934 1.1197 -1.10907 0
M  V30 2200 C 208.18 1.8386 -0.855773 0
M  V30 2201 C 208.513 1.84134 0.617103 0
M  V30 2202 O 207.788 1.29041 1.45529 0
M  V30 2203 C 208.071 3.31305 -1.411 0
M  V30 2204 C 207.924 3.39456 -2.9511 0
M  V30 2205 C 209.243 4.2721 -1.05736 0
M  V30 2206 H 206.362 0.667545 -0.312334 0
M  V30 2207 H 209.004 1.31331 -1.37303 0
M  V30 2208 H 207.154 3.76169 -0.97105 0
M  V30 2209 H 208.826 3.03191 -3.47668 0
M  V30 2210 H 207.069 2.79849 -3.31462 0
M  V30 2211 H 207.74 4.43209 -3.29044 0
M  V30 2212 H 210.216 3.90497 -1.43706 0
M  V30 2213 H 209.092 5.28775 -1.47269 0
M  V30 2214 H 209.353 4.42088 0.0325958 0
M  V30 2215 N 208.412 0.89855 1.29475 0
M  V30 2216 C 209.342 0.39201 2.30186 0
M  V30 2217 C 210.323 -0.532359 1.61555 0
M  V30 2218 O 211.508 -0.443331 1.89072 0
M  V30 2219 C 208.638 -0.382353 3.45189 0
M  V30 2220 C 207.592 0.451483 4.25612 0
M  V30 2221 C 206.918 -0.450307 5.328 0
M  V30 2222 C 208.218 1.70079 4.93832 0
M  V30 2223 H 209.912 1.23362 2.72804 0
M  V30 2224 H 207.458 0.594638 1.31149 0
M  V30 2225 H 209.411 -0.747451 4.14718 0
M  V30 2226 H 208.135 -1.25774 3.01411 0
M  V30 2227 H 206.794 0.798897 3.57789 0
M  V30 2228 H 206.442 -1.32379 4.85268 0
M  V30 2229 H 206.142 0.103902 5.87508 0
M  V30 2230 H 207.666 -0.811623 6.05182 0
M  V30 2231 H 209.08 1.40549 5.55805 0
M  V30 2232 H 207.477 2.19623 5.58467 0
M  V30 2233 H 208.547 2.43744 4.19186 0
M  V30 2234 N 209.89 -1.43072 0.660911 0
M  V30 2235 C 210.823 -2.28074 -0.0758862 0
M  V30 2236 C 211.801 -1.40271 -0.822362 0
M  V30 2237 O 212.985 -1.69713 -0.820352 0
M  V30 2238 C 210.112 -3.19843 -1.11437 0
M  V30 2239 C 209.158 -4.23957 -0.465069 0
M  V30 2240 S 209.991 -5.29978 0.767078 0
M  V30 2241 C 211.147 -6.25314 -0.270682 0
M  V30 2242 H 211.38 -2.90216 0.645139 0
M  V30 2243 H 208.913 -1.47697 0.449995 0
M  V30 2244 H 210.871 -3.73257 -1.70849 0
M  V30 2245 H 209.532 -2.56863 -1.80776 0
M  V30 2246 H 208.725 -4.88299 -1.24819 0
M  V30 2247 H 208.327 -3.73959 0.0551242 0
M  V30 2248 H 210.619 -6.67932 -1.13459 0
M  V30 2249 H 211.562 -7.07293 0.337916 0
M  V30 2250 H 211.97 -5.61195 -0.609937 0
M  V30 2251 N 211.368 -0.403325 -1.52352 0
M  V30 2252 C 212.617 0.175668 -2.00934 0
M  V30 2253 C 212.93 1.46718 -1.29356 0
M  V30 2254 O 214.136 2.12708 -1.68724 0
M  V30 2255 C 212.592 0.363612 -3.58058 0
M  V30 2256 C 212.2 -0.915472 -4.38547 0
M  V30 2257 C 213.944 0.89821 -4.14888 0
M  V30 2258 C 211.851 -0.695035 -5.87302 0
M  V30 2259 H 210.781 0.0694234 -0.750797 0
M  V30 2260 H 213.432 -0.527879 -1.75743 0
M  V30 2261 H 211.814 1.12935 -3.79555 0
M  V30 2262 H 212.988 -1.68691 -4.28812 0
M  V30 2263 H 211.303 -1.37606 -3.93006 0
M  V30 2264 H 213.9 1.07907 -5.23699 0
M  V30 2265 H 214.243 1.87126 -3.71873 0
M  V30 2266 H 214.776 0.191681 -3.97338 0
M  V30 2267 H 211.515 -1.63948 -6.34666 0
M  V30 2268 H 211.035 0.0372116 -5.99788 0
M  V30 2269 H 212.714 -0.33497 -6.46132 0
M  V30 2270 N 212.846 1.57033 -0.133567 0
M  V30 2271 C 213.809 2.14897 0.796995 0
M  V30 2272 C 214.809 1.0874 1.18458 0
M  V30 2273 O 215.999 1.34446 1.1077 0
M  V30 2274 C 213.131 2.70112 2.07973 0
M  V30 2275 H 214.324 2.98457 0.293873 0
M  V30 2276 H 211.877 1.55871 0.115787 0
M  V30 2277 H 212.612 1.9018 2.62682 0
M  V30 2278 H 212.397 3.47764 1.81115 0
M  V30 2279 H 213.887 3.14738 2.74462 0
M  V30 2280 N 214.325 -0.140222 1.56975 0
M  V30 2281 C 215.574 -0.850152 1.82908 0
M  V30 2282 C 215.887 -1.82028 0.715892 0
M  V30 2283 O 217.093 -2.57485 0.861016 0
M  V30 2284 C 215.549 -1.5625 3.24213 0
M  V30 2285 C 215.157 -0.63443 4.43485 0
M  V30 2286 C 216.901 -2.25881 3.59413 0
M  V30 2287 C 214.808 -1.34879 5.75814 0
M  V30 2288 H 213.738 -0.321221 0.682153 0
M  V30 2289 H 216.389 -0.102874 1.83211 0
M  V30 2290 H 214.771 -2.35565 3.18316 0
M  V30 2291 H 215.945 0.12398 4.60633 0
M  V30 2292 H 214.26 -0.0461836 4.16374 0
M  V30 2293 H 216.857 -2.79978 4.5554 0
M  V30 2294 H 217.2 -3.02693 2.85802 0
M  V30 2295 H 217.733 -1.53477 3.67001 0
M  V30 2296 H 214.472 -0.622385 6.52539 0
M  V30 2297 H 213.992 -2.07974 5.6259 0
M  V30 2298 H 215.671 -1.88784 6.18845 0
M  V30 2299 N 215.803 -1.52179 -0.40978 0
M  V30 2300 C 216.735 -1.71703 -1.51825 0
M  V30 2301 C 217.748 -0.597445 -1.51441 0
M  V30 2302 O 218.937 -0.872582 -1.55719 0
M  V30 2303 C 216.037 -1.74171 -2.90719 0
M  V30 2304 C 215.21 -3.03156 -3.15302 0
M  V30 2305 C 214.269 -2.97445 -4.34065 0
M  V30 2306 O 213.295 -3.71352 -4.31377 0
M  V30 2307 N 214.497 -2.15191 -5.39141 0
M  V30 2308 H 217.262 -2.67334 -1.35472 0
M  V30 2309 H 214.823 -1.50409 -0.599069 0
M  V30 2310 H 216.815 -1.67884 -3.68235 0
M  V30 2311 H 215.385 -0.860166 -3.00533 0
M  V30 2312 H 214.605 -3.23097 -2.25836 0
M  V30 2313 H 215.893 -3.88484 -3.28569 0
M  V30 2314 H 215.291 -1.54573 -5.44173 0
M  V30 2315 H 213.848 -2.1476 -6.15403 0
M  V30 2316 N 217.281 0.66697 -1.42791 0
M  V30 2317 C 218.211 1.79218 -1.49677 0
M  V30 2318 C 219.192 1.66405 -0.352623 0
M  V30 2319 O 220.377 1.85708 -0.567993 0
M  V30 2320 C 217.507 3.17565 -1.40605 0
M  V30 2321 C 216.461 3.45124 -2.53127 0
M  V30 2322 C 215.787 4.83127 -2.29112 0
M  V30 2323 C 217.087 3.41236 -3.95418 0
M  V30 2324 H 218.781 1.73713 -2.43853 0
M  V30 2325 H 216.327 0.83432 -1.17367 0
M  V30 2326 H 218.28 3.96022 -1.44029 0
M  V30 2327 H 217.004 3.23767 -0.429271 0
M  V30 2328 H 215.663 2.69031 -2.49034 0
M  V30 2329 H 215.311 4.85988 -1.29709 0
M  V30 2330 H 215.011 5.02528 -3.04531 0
M  V30 2331 H 216.535 5.63859 -2.34297 0
M  V30 2332 H 217.949 4.09651 -4.01073 0
M  V30 2333 H 216.346 3.72173 -4.70752 0
M  V30 2334 H 217.416 2.39665 -4.21532 0
M  V30 2335 N 218.759 1.29093 0.90403 0
M  V30 2336 C 219.689 1.16401 2.02418 0
M  V30 2337 C 220.67 0.0593085 1.69997 0
M  V30 2338 O 221.855 0.238021 1.92736 0
M  V30 2339 C 218.985 0.835233 3.37107 0
M  V30 2340 C 217.939 1.89578 3.83724 0
M  V30 2341 C 217.265 1.42041 5.15489 0
M  V30 2342 C 218.565 3.30394 4.04521 0
M  V30 2343 H 220.259 2.10109 2.13295 0
M  V30 2344 H 217.805 1.01157 1.02486 0
M  V30 2345 H 219.758 0.733169 4.14973 0
M  V30 2346 H 218.482 -0.137543 3.2631 0
M  V30 2347 H 217.141 1.98715 3.08071 0
M  V30 2348 H 216.789 0.436426 5.01103 0
M  V30 2349 H 216.489 2.12964 5.4765 0
M  V30 2350 H 218.013 1.33176 5.959 0
M  V30 2351 H 219.427 3.24123 4.72882 0
M  V30 2352 H 217.824 3.99237 4.48029 0
M  V30 2353 H 218.894 3.73692 3.09002 0
M  V30 2354 N 220.237 -1.11381 1.11499 0
M  V30 2355 C 221.462 -1.87475 0.887019 0
M  V30 2356 C 221.887 -1.79639 -0.557796 0
M  V30 2357 O 221.245 -1.15924 -1.39396 0
M  V30 2358 C 221.293 -3.34213 1.35403 0
M  V30 2359 O 220.397 -4.0903 0.526146 0
M  V30 2360 H 219.738 -0.582099 0.319463 0
M  V30 2361 H 222.268 -1.40785 1.48461 0
M  V30 2362 H 222.278 -3.8506 1.34881 0
M  V30 2363 H 220.953 -3.39232 2.40612 0
M  V30 2364 H 219.53 -3.68082 0.597522 0
M  V30 2365 N 221.715 -0.905404 -1.28997 0
M  V30 2366 C 223.131 -0.60233 -1.47798 0
M  V30 2367 C 223.331 0.854645 -1.82478 0
M  V30 2368 O 222.387 1.63439 -1.92468 0
M  V30 2369 C 223.7 -1.53306 -2.58685 0
M  V30 2370 C 225.248 -1.53887 -2.72558 0
M  V30 2371 C 225.723 -2.45602 -3.86579 0
M  V30 2372 N 227.214 -2.43681 -3.93921 0
M  V30 2373 C 227.949 -3.11347 -4.81509 0
M  V30 2374 N 227.445 -3.88313 -5.73746 0
M  V30 2375 N 229.238 -3.00476 -4.75048 0
M  V30 2376 H 221.389 -1.84765 -1.04764 0
M  V30 2377 H 223.652 -0.792025 -0.520961 0
M  V30 2378 H 223.358 -2.57141 -2.39941 0
M  V30 2379 H 223.232 -1.25787 -3.55609 0
M  V30 2380 H 225.619 -0.507941 -2.90696 0
M  V30 2381 H 225.7 -1.85447 -1.76191 0
M  V30 2382 H 225.344 -3.48792 -3.69197 0
M  V30 2383 H 225.274 -2.11349 -4.82327 0
M  V30 2384 H 227.765 -1.87767 -3.27951 0
M  V30 2385 H 228.078 -4.36985 -6.37389 0
M  V30 2386 H 226.423 -3.92419 -5.73614 0
M  V30 2387 H 229.614 -2.39858 -4.01977 0
M  V30 2388 H 229.787 -3.53485 -5.43095 0
M  V30 2389 N 223.193 1.4272 -0.668489 0
M  V30 2390 C 224.126 2.28111 0.0637898 0
M  V30 2391 C 225.104 1.40705 0.814912 0
M  V30 2392 O 226.288 1.70146 0.81134 0
M  V30 2393 C 223.415 3.20429 1.0974 0
M  V30 2394 C 222.461 4.24197 0.442579 0
M  V30 2395 S 223.294 5.29563 -0.795173 0
M  V30 2396 C 224.45 6.25449 0.237516 0
M  V30 2397 H 224.683 2.8987 -0.660521 0
M  V30 2398 H 222.216 1.47456 -0.457821 0
M  V30 2399 H 224.174 3.74158 1.68868 0
M  V30 2400 H 222.835 2.57818 1.79411 0
M  V30 2401 H 222.028 4.88954 1.22227 0
M  V30 2402 H 221.63 3.73925 -0.0749554 0
M  V30 2403 H 223.922 6.68524 1.09915 0
M  V30 2404 H 224.865 7.07104 -0.375421 0
M  V30 2405 H 225.273 5.61511 0.580167 0
M  V30 2406 N 224.671 0.411399 1.52136 0
M  V30 2407 C 225.581 -0.419774 2.30814 0
M  V30 2408 C 226.597 -1.0515 1.38634 0
M  V30 2409 O 227.773 -1.05252 1.71709 0
M  V30 2410 C 224.838 -1.52019 3.11594 0
M  V30 2411 C 223.899 -0.91129 4.19516 0
M  V30 2412 C 223.132 -1.95927 4.96436 0
M  V30 2413 O 223.355 -3.17775 4.73683 0
M  V30 2414 O 222.289 -1.56423 5.81219 0
M  V30 2415 H 226.115 0.221805 3.02889 0
M  V30 2416 H 223.7 0.174547 1.48377 0
M  V30 2417 H 225.582 -2.15898 3.61892 0
M  V30 2418 H 224.257 -2.14633 2.42311 0
M  V30 2419 H 223.164 -0.235157 3.7336 0
M  V30 2420 H 224.497 -0.32904 4.91099 0
M  V30 2421 N 226.149 -1.5696 0.141893 0
M  V30 2422 C 227.379 -2.00031 -0.516828 0
M  V30 2423 C 227.787 -1.02091 -1.59293 0
M  V30 2424 O 227.13 -0.00909657 -1.83698 0
M  V30 2425 C 227.192 -3.39534 -1.1814 0
M  V30 2426 C 226.856 -4.56313 -0.250513 0
M  V30 2427 C 227.853 -5.17295 0.519839 0
M  V30 2428 C 225.538 -5.02061 -0.154907 0
M  V30 2429 C 227.532 -6.2243 1.3733 0
M  V30 2430 C 225.219 -6.07053 0.702161 0
M  V30 2431 C 226.217 -6.67106 1.46487 0
M  V30 2432 O 225.905 -7.70066 2.30767 0
M  V30 2433 H 225.637 -0.661451 -0.139493 0
M  V30 2434 H 228.191 -2.04086 0.231926 0
M  V30 2435 H 226.421 -3.32302 -1.97769 0
M  V30 2436 H 228.11 -3.66745 -1.73933 0
M  V30 2437 H 228.876 -4.82852 0.45598 0
M  V30 2438 H 224.755 -4.5505 -0.7383 0
M  V30 2439 H 228.299 -6.69233 1.96909 0
M  V30 2440 H 224.196 -6.40923 0.76733 0
M  V30 2441 H 224.964 -7.87264 2.23959 0
M  V30 2442 N 227.627 0.131896 -1.57047 0
M  V30 2443 C 228.873 0.843179 -1.84441 0
M  V30 2444 C 229.206 1.80129 -0.725749 0
M  V30 2445 O 228.481 1.92624 0.269469 0
M  V30 2446 C 228.764 1.60442 -3.22382 0
M  V30 2447 C 228.617 0.666782 -4.4483 0
M  V30 2448 C 229.936 2.56354 -3.5773 0
M  V30 2449 H 227.055 0.305081 -0.670891 0
M  V30 2450 H 229.697 0.107839 -1.89694 0
M  V30 2451 H 227.847 2.23128 -3.18035 0
M  V30 2452 H 229.519 0.0497646 -4.61273 0
M  V30 2453 H 227.762 -0.022609 -4.33794 0
M  V30 2454 H 228.433 1.23579 -5.37989 0
M  V30 2455 H 230.909 2.0378 -3.62785 0
M  V30 2456 H 229.785 3.06657 -4.5525 0
M  V30 2457 H 230.046 3.38419 -2.84473 0
M  V30 2458 N 229.106 1.52395 0.401703 0
M  V30 2459 C 230.056 1.72649 1.48917 0
M  V30 2460 C 231.04 0.580436 1.50066 0
M  V30 2461 O 232.232 0.83779 1.55917 0
M  V30 2462 C 229.361 1.88729 2.86769 0
M  V30 2463 C 228.447 3.09228 2.90239 0
M  V30 2464 N 228.838 4.31805 2.63396 0
M  V30 2465 C 227.136 3.09214 3.21408 0
M  V30 2466 C 227.837 5.13326 2.73625 0
M  V30 2467 N 226.813 4.48735 3.06819 0
M  V30 2468 H 230.615 2.65058 1.26971 0
M  V30 2469 H 228.129 1.50528 0.609504 0
M  V30 2470 H 230.126 2.01358 3.65049 0
M  V30 2471 H 228.786 0.975252 3.09708 0
M  V30 2472 H 229.797 4.60154 2.37653 0
M  V30 2473 H 226.474 2.27774 3.49893 0
M  V30 2474 H 227.864 6.21003 2.56524 0
M  V30 2475 N 230.584 -0.659388 1.43143 0
M  V30 2476 C 231.809 -1.45221 1.48073 0
M  V30 2477 C 232.234 -1.87845 0.097995 0
M  V30 2478 O 231.592 -1.56985 -0.90694 0
M  V30 2479 C 231.64 -2.66748 2.42647 0
M  V30 2480 O 230.744 -3.65583 1.90848 0
M  V30 2481 H 230.085 -0.435669 0.501088 0
M  V30 2482 H 232.615 -0.807432 1.87994 0
M  V30 2483 H 232.625 -3.14637 2.59745 0
M  V30 2484 H 231.3 -2.35067 3.43098 0
M  V30 2485 H 229.877 -3.24693 1.83381 0
M  V30 2486 N 232.062 -1.29571 -0.897171 0
M  V30 2487 C 233.009 -1.14916 -2.00158 0
M  V30 2488 C 233.979 -0.0418149 -1.66047 0
M  V30 2489 O 235.164 -0.209793 -1.89643 0
M  V30 2490 C 232.304 -0.834307 -3.34863 0
M  V30 2491 C 231.417 -2.02234 -3.8174 0
M  V30 2492 C 230.552 -1.64664 -5.05034 0
M  V30 2493 C 229.591 -2.80033 -5.44286 0
M  V30 2494 N 228.728 -2.42843 -6.58765 0
M  V30 2495 H 233.568 -2.09403 -2.12025 0
M  V30 2496 H 231.105 -1.042 -1.0383 0
M  V30 2497 H 233.063 -0.632436 -4.12379 0
M  V30 2498 H 231.693 0.0736656 -3.22716 0
M  V30 2499 H 230.745 -2.33583 -3.00238 0
M  V30 2500 H 232.057 -2.88673 -4.06779 0
M  V30 2501 H 231.211 -1.4078 -5.9014 0
M  V30 2502 H 229.95 -0.753766 -4.8184 0
M  V30 2503 H 228.955 -3.04596 -4.57713 0
M  V30 2504 H 230.18 -3.69989 -5.6946 0
M  V30 2505 H 228.126 -1.56046 -6.3717 0
M  V30 2506 H 228.043 -3.22815 -6.83613 0
M  V30 2507 H 229.311 -2.22285 -7.47134 0
M  V30 2508 N 233.54 1.10788 -1.12088 0
M  V30 2509 C 234.488 2.19111 -0.780587 0
M  V30 2510 C 235.482 1.67818 0.230961 0
M  V30 2511 O 236.688 1.79777 0.0895427 0
M  V30 2512 H 233.063 0.714477 -0.234578 0
M  V30 2513 H 235.034 2.45055 -1.70266 0
M  V30 2514 C 233.783 3.46818 -0.24747 0
M  V30 2515 H 233.106 3.86646 -1.01712 0
M  V30 2516 H 234.546 4.23973 -0.0476291 0
M  V30 2517 C 233.005 3.20968 1.02378 0
M  V30 2518 O 233.535 3.42298 2.10226 0
M  V30 2519 N 231.741 2.74658 0.949271 0
M  V30 2520 H 231.288 2.57501 0.0715173 0
M  V30 2521 H 231.246 2.57739 1.80049 0
M  V30 2522 N 235.018 0.912232 1.28515 0
M  V30 2523 C 235.948 0.416403 2.29757 0
M  V30 2524 C 236.929 -0.515194 1.6211 0
M  V30 2525 O 238.114 -0.423253 1.89532 0
M  V30 2526 C 235.244 -0.34572 3.45575 0
M  V30 2527 C 234.198 0.496599 4.25109 0
M  V30 2528 C 233.524 -0.393771 5.33248 0
M  V30 2529 C 234.824 1.75307 4.92001 0
M  V30 2530 H 236.518 1.26249 2.7148 0
M  V30 2531 H 234.064 0.608515 1.30511 0
M  V30 2532 H 236.017 -0.703422 4.15488 0
M  V30 2533 H 234.741 -1.2257 3.02728 0
M  V30 2534 H 233.4 0.8368 3.56922 0
M  V30 2535 H 233.048 -1.27225 4.86644 0
M  V30 2536 H 232.748 0.166209 5.87365 0
M  V30 2537 H 234.272 -0.747389 6.06009 0
M  V30 2538 H 235.686 1.46437 5.54283 0
M  V30 2539 H 234.083 2.25534 5.56106 0
M  V30 2540 H 235.153 2.48176 4.16577 0
M  V30 2541 N 236.496 -1.42363 0.676048 0
M  V30 2542 C 237.745 -2.00745 0.196037 0
M  V30 2543 C 238.058 -1.54083 -1.20489 0
M  V30 2544 O 239.264 -2.04891 -1.78134 0
M  V30 2545 C 237.72 -3.58651 0.299616 0
M  V30 2546 C 237.328 -4.143 1.70468 0
M  V30 2547 C 239.072 -4.24326 -0.121619 0
M  V30 2548 C 236.979 -5.64574 1.76096 0
M  V30 2549 H 235.909 -0.750787 0.0695301 0
M  V30 2550 H 238.56 -1.63072 0.841412 0
M  V30 2551 H 236.942 -3.93833 -0.413673 0
M  V30 2552 H 238.116 -3.90575 2.44515 0
M  V30 2553 H 236.431 -3.61081 2.07387 0
M  V30 2554 H 239.028 -5.34607 -0.0997362 0
M  V30 2555 H 239.371 -3.99897 -1.15708 0
M  V30 2556 H 239.904 -3.94108 0.540706 0
M  V30 2557 H 236.643 -5.93804 2.77628 0
M  V30 2558 H 236.163 -5.90286 1.06406 0
M  V30 2559 H 237.842 -6.29013 1.51496 0
M  V30 2560 N 237.974 -0.419461 -1.51915 0
M  V30 2561 C 239.204 0.151915 -2.06041 0
M  V30 2562 C 239.612 1.38539 -1.28855 0
M  V30 2563 O 238.955 1.80592 -0.336463 0
M  V30 2564 C 239.017 0.557119 -3.55157 0
M  V30 2565 C 238.681 -0.567054 -4.53468 0
M  V30 2566 C 239.678 -1.43379 -4.99738 0
M  V30 2567 C 237.363 -0.742693 -4.96779 0
M  V30 2568 C 239.357 -2.46102 -5.87973 0
M  V30 2569 C 237.044 -1.77322 -5.84808 0
M  V30 2570 C 238.042 -2.63078 -6.30301 0
M  V30 2571 O 237.73 -3.64364 -7.16585 0
M  V30 2572 H 237.462 0.0193293 -0.675724 0
M  V30 2573 H 240.016 -0.592073 -1.96682 0
M  V30 2574 H 238.246 1.35355 -3.62238 0
M  V30 2575 H 239.935 1.05759 -3.9188 0
M  V30 2576 H 240.701 -1.30954 -4.66986 0
M  V30 2577 H 236.58 -0.0848307 -4.60922 0
M  V30 2578 H 240.124 -3.13071 -6.23404 0
M  V30 2579 H 236.021 -1.89773 -6.16974 0
M  V30 2580 H 236.789 -3.60731 -7.34721 0
M  V30 2581 N 239.452 1.56882 -0.150215 0
M  V30 2582 C 240.868 1.58263 0.20617 0
M  V30 2583 C 241.068 1.16464 1.64434 0
M  V30 2584 O 240.124 0.866422 2.3717 0
M  V30 2585 C 241.437 3.00649 -0.0555025 0
M  V30 2586 C 242.985 3.12999 0.00795388 0
M  V30 2587 C 243.46 4.5744 -0.226429 0
M  V30 2588 N 244.951 4.62875 -0.173469 0
M  V30 2589 C 245.686 5.72454 -0.329288 0
M  V30 2590 N 245.182 6.90669 -0.543005 0
M  V30 2591 N 246.975 5.61467 -0.266666 0
M  V30 2592 H 239.126 1.82345 -1.08922 0
M  V30 2593 H 241.389 0.844149 -0.431413 0
M  V30 2594 H 241.095 3.3563 -1.05096 0
M  V30 2595 H 240.969 3.71337 0.66246 0
M  V30 2596 H 243.356 2.77857 0.993966 0
M  V30 2597 H 243.437 2.4479 -0.742388 0
M  V30 2598 H 243.081 4.93287 -1.20956 0
M  V30 2599 H 243.011 5.2378 0.544274 0
M  V30 2600 H 245.502 3.77898 -0.0130709 0
M  V30 2601 H 245.815 7.70045 -0.651922 0
M  V30 2602 H 244.16 6.92581 -0.579366 0
M  V30 2603 H 247.351 4.67992 -0.100441 0
M  V30 2604 H 247.524 6.46816 -0.391535 0
M  V30 2605 N 240.93 -0.123565 1.57115 0
M  V30 2606 C 242.207 -0.862196 1.75572 0
M  V30 2607 C 242.587 -1.98279 0.724475 0
M  V30 2608 O 241.935 -2.27102 -0.252407 0
M  V30 2609 C 242.145 -1.38309 3.20424 0
M  V30 2610 C 243.493 -1.83724 3.82793 0
M  V30 2611 O 244.517 -1.47999 3.23998 0
M  V30 2612 O 243.376 -2.49685 4.86127 0
M  V30 2613 H 240.47 -0.409113 0.718718 0
M  V30 2614 H 243.016 -0.107661 1.69358 0
M  V30 2615 H 241.788 -0.578889 3.86994 0
M  V30 2616 H 241.411 -2.20046 3.31158 0
M  V30 2617 N 242.408 -1.52605 -0.393616 0
M  V30 2618 C 243.654 -1.67672 -1.14079 0
M  V30 2619 C 243.987 -0.413121 -1.89755 0
M  V30 2620 O 243.262 0.588952 -1.85369 0
M  V30 2621 C 243.545 -2.9088 -2.12276 0
M  V30 2622 C 243.398 -4.27329 -1.40394 0
M  V30 2623 C 244.717 -3.09628 -3.12759 0
M  V30 2624 H 241.836 -0.610168 -0.413356 0
M  V30 2625 H 244.478 -1.85193 -0.424696 0
M  V30 2626 H 242.628 -2.76073 -2.73342 0
M  V30 2627 H 244.3 -4.53894 -0.82327 0
M  V30 2628 H 242.543 -4.2802 -0.705801 0
M  V30 2629 H 243.214 -5.09615 -2.12123 0
M  V30 2630 H 245.69 -3.23436 -2.61779 0
M  V30 2631 H 244.566 -3.97322 -3.78717 0
M  V30 2632 H 244.827 -2.23637 -3.81365 0
M  V30 2633 N 243.887 0.651787 -1.4349 0
M  V30 2634 C 244.834 1.76462 -1.4876 0
M  V30 2635 C 245.804 1.62641 -0.337189 0
M  V30 2636 O 246.989 1.82864 -0.544544 0
M  V30 2637 C 244.129 3.14623 -1.41796 0
M  V30 2638 C 243.242 3.39568 -2.67053 0
M  V30 2639 C 242.377 4.67585 -2.52068 0
M  V30 2640 C 241.416 4.85639 -3.72587 0
M  V30 2641 N 240.553 6.04915 -3.56402 0
M  V30 2642 H 245.393 1.71293 -2.43849 0
M  V30 2643 H 242.93 0.835889 -1.21043 0
M  V30 2644 H 244.888 3.94496 -1.35753 0
M  V30 2645 H 243.518 3.18859 -0.50288 0
M  V30 2646 H 242.57 2.53783 -2.8337 0
M  V30 2647 H 243.882 3.48795 -3.56572 0
M  V30 2648 H 243.036 5.55586 -2.4374 0
M  V30 2649 H 241.775 4.60681 -1.60075 0
M  V30 2650 H 240.78 3.96073 -3.81321 0
M  V30 2651 H 242.005 4.94372 -4.65589 0
M  V30 2652 H 239.951 5.9914 -2.67146 0
M  V30 2653 H 239.868 6.15106 -4.39524 0
M  V30 2654 H 241.136 6.95533 -3.51929 0
M  V30 2655 N 245.365 1.30045 0.890287 0
M  V30 2656 C 246.776 1.16738 1.45702 0
M  V30 2657 C 247.127 -0.233939 1.948 0
M  V30 2658 O 246.252 -1.13021 1.84541 0
M  V30 2659 C 246.847 2.11313 2.64825 0
M  V30 2660 C 245.406 2.02001 3.17604 0
M  V30 2661 C 244.553 2.01699 1.90296 0
M  V30 2662 H 247.504 1.42392 0.700726 0
M  V30 2663 H 247.525 1.69086 3.40867 0
M  V30 2664 H 247.037 3.13294 2.2906 0
M  V30 2665 H 245.138 1.03142 3.5804 0
M  V30 2666 H 245.251 2.90128 3.81264 0
M  V30 2667 H 243.615 1.46427 2.08402 0
M  V30 2668 H 244.398 3.05402 1.56795 0
M  V30 2669 N 246.843 -1.10192 1.12674 0
M  V30 2670 C 247.753 -2.20172 0.810026 0
M  V30 2671 C 248.769 -1.72821 -0.202188 0
M  V30 2672 O 249.945 -2.01369 -0.0351691 0
M  V30 2673 C 247.01 -3.45631 0.272007 0
M  V30 2674 C 246.071 -4.07704 1.34447 0
M  V30 2675 C 245.304 -5.27175 0.832029 0
M  V30 2676 O 245.527 -5.69425 -0.333284 0
M  V30 2677 O 244.461 -5.80168 1.60277 0
M  V30 2678 H 248.287 -2.49701 1.72867 0
M  V30 2679 H 245.872 -1.18977 0.903597 0
M  V30 2680 H 247.754 -4.21394 -0.0230219 0
M  V30 2681 H 246.429 -3.17723 -0.619164 0
M  V30 2682 H 245.336 -3.33614 1.6927 0
M  V30 2683 H 246.669 -4.3982 2.2095 0
M  V30 2684 N 248.321 -0.919034 -1.28029 0
M  V30 2685 C 249.269 -0.401753 -2.29104 0
M  V30 2686 C 250.263 0.509354 -1.61561 0
M  V30 2687 O 251.469 0.390014 -1.75724 0
M  V30 2688 H 247.844 -0.111331 -0.743713 0
M  V30 2689 H 249.815 -1.2672 -2.70156 0
M  V30 2690 C 248.564 0.338148 -3.46052 0
M  V30 2691 H 247.887 -0.353732 -3.98232 0
M  V30 2692 H 249.327 0.664653 -4.18758 0
M  V30 2693 C 247.786 1.54798 -2.99231 0
M  V30 2694 O 248.316 2.64696 -3.02157 0
M  V30 2695 N 246.522 1.3968 -2.54829 0
M  V30 2696 H 246.069 0.502698 -2.52647 0
M  V30 2697 H 246.027 2.20755 -2.23863 0
M  V30 2698 N 249.799 1.42003 -0.683588 0
M  V30 2699 C 251.046 2.01413 -0.209514 0
M  V30 2700 C 251.374 1.54088 1.1869 0
M  V30 2701 O 250.629 0.737591 1.81268 0
M  V30 2702 C 250.928 3.56827 -0.202357 0
M  V30 2703 C 250.594 4.23617 -1.54464 0
M  V30 2704 C 249.256 4.41577 -1.91215 0
M  V30 2705 C 251.608 4.61178 -2.42826 0
M  V30 2706 C 248.936 4.9437 -3.15935 0
M  V30 2707 C 251.288 5.15355 -3.66867 0
M  V30 2708 C 249.952 5.31528 -4.03776 0
M  V30 2709 H 249.222 0.737023 -0.0766668 0
M  V30 2710 H 251.869 1.70067 -0.880312 0
M  V30 2711 H 250.174 3.87892 0.551969 0
M  V30 2712 H 251.871 4.00588 0.181793 0
M  V30 2713 H 248.461 4.10004 -1.24877 0
M  V30 2714 H 252.645 4.46968 -2.15717 0
M  V30 2715 H 247.901 5.05076 -3.44541 0
M  V30 2716 H 252.075 5.43402 -4.35531 0
M  V30 2717 H 249.702 5.72199 -5.00492 0
M  V30 2718 N 251.277 0.427512 1.51691 0
M  V30 2719 C 252.207 -0.3796 2.30394 0
M  V30 2720 C 253.188 -1.02982 1.35384 0
M  V30 2721 O 254.373 -1.03534 1.643 0
M  V30 2722 C 251.503 -1.48649 3.1388 0
M  V30 2723 C 250.457 -0.960294 4.17088 0
M  V30 2724 C 249.783 -2.16219 4.89033 0
M  V30 2725 C 251.083 -0.00153679 5.223 0
M  V30 2726 H 252.777 0.277164 2.98114 0
M  V30 2727 H 250.323 0.134739 1.43368 0
M  V30 2728 H 252.276 -2.05826 3.67714 0
M  V30 2729 H 251 -2.1714 2.43962 0
M  V30 2730 H 249.659 -0.410806 3.64291 0
M  V30 2731 H 249.307 -2.83307 4.15628 0
M  V30 2732 H 249.007 -1.81654 5.58816 0
M  V30 2733 H 250.531 -2.73968 5.45687 0
M  V30 2734 H 251.945 -0.482687 5.71264 0
M  V30 2735 H 250.342 0.256199 5.99553 0
M  V30 2736 H 251.412 0.938174 4.75738 0
M  V30 2737 N 252.755 -1.56801 0.158532 0
M  V30 2738 C 254.004 -1.95665 -0.489702 0
M  V30 2739 C 254.317 -1.04654 -1.65248 0
M  V30 2740 O 255.523 -1.33146 -2.3661 0
M  V30 2741 C 253.979 -3.47874 -0.922582 0
M  V30 2742 C 253.587 -4.47489 0.213893 0
M  V30 2743 C 255.331 -3.95583 -1.53996 0
M  V30 2744 C 253.238 -5.90921 -0.237903 0
M  V30 2745 H 252.168 -0.730516 -0.186716 0
M  V30 2746 H 254.819 -1.81861 0.244722 0
M  V30 2747 H 253.201 -3.57051 -1.71261 0
M  V30 2748 H 254.375 -4.50017 0.991036 0
M  V30 2749 H 252.69 -4.09764 0.740407 0
M  V30 2750 H 255.287 -5.0019 -1.8898 0
M  V30 2751 H 255.63 -3.37789 -2.43319 0
M  V30 2752 H 256.163 -3.8937 -0.814611 0
M  V30 2753 H 252.902 -6.52559 0.620236 0
M  V30 2754 H 252.422 -5.91729 -0.980676 0
M  V30 2755 H 254.101 -6.43352 -0.686067 0
M  V30 2756 N 254.233 0.115231 -1.57178 0
M  V30 2757 C 255.481 0.820727 -1.84685 0
M  V30 2758 C 255.802 1.80237 -0.744279 0
M  V30 2759 O 255.072 1.94529 0.231375 0
M  V30 2760 H 253.652 0.306084 -0.681411 0
M  V30 2761 H 256.314 0.101656 -1.94635 0
M  V30 2762 H 255.41 1.36366 -2.80733 0
M  V30 2763 N 255.711 1.52812 0.385517 0
M  V30 2764 C 257.127 1.4214 0.725829 0
M  V30 2765 C 257.327 0.544589 1.94001 0
M  V30 2766 O 256.383 0.0193693 2.52493 0
M  V30 2767 C 257.696 2.85042 0.957668 0
M  V30 2768 C 259.244 2.94543 1.05892 0
M  V30 2769 C 259.719 4.38464 1.32337 0
M  V30 2770 N 261.21 4.41804 1.39151 0
M  V30 2771 C 261.945 5.5025 1.61285 0
M  V30 2772 N 261.441 6.68775 1.80866 0
M  V30 2773 N 263.234 5.37798 1.63492 0
M  V30 2774 H 255.385 2.08338 -0.413383 0
M  V30 2775 H 257.648 0.940016 -0.122775 0
M  V30 2776 H 257.354 3.51431 0.137568 0
M  V30 2777 H 257.228 3.27505 1.87137 0
M  V30 2778 H 259.615 2.28321 1.86959 0
M  V30 2779 H 259.696 2.55504 0.123057 0
M  V30 2780 H 259.34 5.05254 0.517793 0
M  V30 2781 H 259.27 4.75059 2.27214 0
M  V30 2782 H 261.761 3.56377 1.25713 0
M  V30 2783 H 262.074 7.47197 1.97271 0
M  V30 2784 H 260.419 6.71797 1.78083 0
M  V30 2785 H 263.61 4.44171 1.47749 0
M  V30 2786 H 263.783 6.22382 1.80402 0
M  V30 2787 N 257.189 -0.644168 1.43834 0
M  V30 2788 C 258.121 -1.76955 1.45669 0
M  V30 2789 C 259.134 -1.58956 0.351666 0
M  V30 2790 O 260.323 -1.6751 0.616644 0
M  V30 2791 C 257.423 -3.14507 1.26248 0
M  V30 2792 C 256.596 -3.59083 2.49757 0
M  V30 2793 C 255.655 -4.75467 2.25427 0
M  V30 2794 O 254.681 -4.84444 2.98836 0
M  V30 2795 N 255.883 -5.66289 1.27661 0
M  V30 2796 H 258.648 -1.75856 2.42682 0
M  V30 2797 H 256.209 -0.828312 1.39106 0
M  V30 2798 H 258.201 -3.90067 1.0784 0
M  V30 2799 H 256.771 -3.10325 0.376478 0
M  V30 2800 H 255.991 -2.7387 2.8353 0
M  V30 2801 H 257.279 -3.85613 3.31934 0
M  V30 2802 H 256.677 -5.61718 0.670064 0
M  V30 2803 H 255.234 -6.41533 1.15234 0
M  V30 2804 N 258.668 -1.30515 -0.883378 0
M  V30 2805 C 259.916 -1.19194 -1.63209 0
M  V30 2806 C 260.237 0.253205 -1.93349 0
M  V30 2807 O 259.507 1.17025 -1.57105 0
M  V30 2808 H 258.087 -0.438148 -0.605009 0
M  V30 2809 H 260.749 -1.63663 -1.05832 0
M  V30 2810 H 259.845 -1.75396 -2.58153 0
M  V30 2811 N 260.146 1.09593 -1.13257 0
M  V30 2812 C 261.094 2.18271 -0.803783 0
M  V30 2813 C 262.088 1.68054 0.213148 0
M  V30 2814 O 263.294 1.79862 0.0704699 0
M  V30 2815 H 259.669 0.711949 -0.242143 0
M  V30 2816 H 261.64 2.43235 -1.72856 0
M  V30 2817 C 260.389 3.46536 -0.28424 0
M  V30 2818 H 259.712 3.85545 -1.05807 0
M  V30 2819 H 261.152 4.23899 -0.0925945 0
M  V30 2820 C 259.611 3.22036 0.989684 0
M  V30 2821 O 260.141 3.44509 2.06584 0
M  V30 2822 N 258.347 2.7565 0.920086 0
M  V30 2823 H 257.894 2.57562 0.0442019 0
M  V30 2824 H 257.852 2.59635 1.77306 0
M  V30 2825 N 261.624 0.925811 1.2754 0
M  V30 2826 C 262.571 0.422045 2.26908 0
M  V30 2827 C 263.541 -0.510029 1.58076 0
M  V30 2828 O 264.726 -0.429599 1.85901 0
M  V30 2829 C 261.866 -0.320837 3.43605 0
M  V30 2830 C 260.979 0.64513 4.27156 0
M  V30 2831 C 260.114 -0.117405 5.3107 0
M  V30 2832 C 259.153 0.841391 6.0629 0
M  V30 2833 N 258.29 0.111604 7.02011 0
M  V30 2834 H 263.13 1.27441 2.69375 0
M  V30 2835 H 260.667 0.639697 1.32462 0
M  V30 2836 H 262.625 -0.76785 4.10073 0
M  V30 2837 H 261.255 -1.13745 3.02096 0
M  V30 2838 H 260.307 1.21067 3.6062 0
M  V30 2839 H 261.619 1.37797 4.79389 0
M  V30 2840 H 260.773 -0.624422 6.03478 0
M  V30 2841 H 259.512 -0.883219 4.79636 0
M  V30 2842 H 258.517 1.35967 5.32722 0
M  V30 2843 H 259.742 1.60696 6.59813 0
M  V30 2844 H 257.688 -0.635999 6.5291 0
M  V30 2845 H 257.605 0.784044 7.51923 0
M  V30 2846 H 258.873 -0.374823 7.78598 0
M  V30 2847 N 263.102 -1.41638 0.69111 0
M  V30 2848 C 264.049 -2.30789 0.0229705 0
M  V30 2849 C 265.019 -1.46863 -0.775911 0
M  V30 2850 O 266.204 -1.75661 -0.74485 0
M  V30 2851 C 263.344 -3.32868 -0.910666 0
M  V30 2852 C 262.457 -4.31875 -0.103874 0
M  V30 2853 C 261.592 -5.21024 -1.03475 0
M  V30 2854 C 260.631 -6.11702 -0.220598 0
M  V30 2855 N 259.768 -6.93349 -1.10504 0
M  V30 2856 H 264.608 -2.87366 0.788978 0
M  V30 2857 H 262.145 -1.41535 0.400794 0
M  V30 2858 H 264.103 -3.90596 -1.46597 0
M  V30 2859 H 262.733 -2.77851 -1.64312 0
M  V30 2860 H 261.785 -3.76131 0.568285 0
M  V30 2861 H 263.097 -4.96003 0.527504 0
M  V30 2862 H 262.251 -5.83565 -1.65943 0
M  V30 2863 H 260.99 -4.57112 -1.69999 0
M  V30 2864 H 259.995 -5.48215 0.417187 0
M  V30 2865 H 261.22 -6.77668 0.440784 0
M  V30 2866 H 259.166 -6.3205 -1.75638 0
M  V30 2867 H 259.083 -7.54146 -0.529125 0
M  V30 2868 H 260.351 -7.60362 -1.71667 0
M  V30 2869 N 264.58 -0.43555 -1.51462 0
M  V30 2870 C 265.49 0.383001 -2.31453 0
M  V30 2871 C 266.506 1.02931 -1.4029 0
M  V30 2872 O 267.682 1.02507 -1.73362 0
M  V30 2873 C 264.747 1.47043 -3.13973 0
M  V30 2874 C 263.808 0.844433 -4.20913 0
M  V30 2875 C 263.041 1.88004 -4.9949 0
M  V30 2876 O 263.264 3.10199 -4.78678 0
M  V30 2877 O 262.198 1.47157 -5.83634 0
M  V30 2878 H 266.024 -0.269964 -3.02498 0
M  V30 2879 H 263.609 -0.19813 -1.4808 0
M  V30 2880 H 265.491 2.10113 -3.65281 0
M  V30 2881 H 264.166 2.10751 -2.45695 0
M  V30 2882 H 263.073 0.175729 -3.73687 0
M  V30 2883 H 264.406 0.250869 -4.9156 0
M  V30 2884 N 266.058 1.56714 -0.166846 0
M  V30 2885 C 267.008 2.14338 0.777382 0
M  V30 2886 C 267.992 1.07642 1.19591 0
M  V30 2887 O 269.184 1.33775 1.15902 0
M  V30 2888 C 266.313 2.78417 2.00846 0
M  V30 2889 C 265.399 3.92264 1.61212 0
M  V30 2890 N 265.79 4.97268 0.925104 0
M  V30 2891 C 264.088 4.03342 1.90346 0
M  V30 2892 C 264.789 5.77093 0.730627 0
M  V30 2893 N 263.765 5.2854 1.27067 0
M  V30 2894 H 267.567 2.9289 0.243466 0
M  V30 2895 H 265.081 1.62364 0.0339954 0
M  V30 2896 H 267.078 3.18073 2.69509 0
M  V30 2897 H 265.738 2.01344 2.54736 0
M  V30 2898 H 266.749 5.14601 0.583646 0
M  V30 2899 H 263.426 3.37368 2.45946 0
M  V30 2900 H 264.816 6.71638 0.187668 0
M  V30 2901 N 267.536 -0.106894 1.57237 0
M  V30 2902 C 268.782 -0.81373 1.85759 0
M  V30 2903 C 269.115 -1.78952 0.754315 0
M  V30 2904 O 268.39 -1.93029 -0.23879 0
M  V30 2905 C 268.673 -1.55293 3.24894 0
M  V30 2906 C 268.526 -0.595929 4.45835 0
M  V30 2907 C 269.845 -2.5063 3.61763 0
M  V30 2908 H 266.964 -0.294369 0.67566 0
M  V30 2909 H 269.606 -0.0776472 1.89841 0
M  V30 2910 H 267.756 -2.1804 3.21544 0
M  V30 2911 H 269.428 0.0236262 4.61294 0
M  V30 2912 H 267.671 0.0916191 4.33703 0
M  V30 2913 H 268.342 -1.15004 5.39887 0
M  V30 2914 H 270.818 -1.97982 3.65981 0
M  V30 2915 H 269.694 -2.99376 4.60071 0
M  V30 2916 H 269.955 -3.3385 2.89821 0
M  V30 2917 N 269.014 -1.53014 -0.377408 0
M  V30 2918 C 270.263 -1.67845 -1.11853 0
M  V30 2919 C 270.576 -0.430625 -1.90801 0
M  V30 2920 O 271.782 -0.459261 -2.67587 0
M  V30 2921 C 270.238 -2.96668 -2.03756 0
M  V30 2922 C 269.846 -4.28671 -1.30175 0
M  V30 2923 C 271.59 -3.20865 -2.77932 0
M  V30 2924 C 269.497 -5.48591 -2.20911 0
M  V30 2925 H 268.427 -0.625343 -0.421263 0
M  V30 2926 H 271.078 -1.79514 -0.380409 0
M  V30 2927 H 269.46 -2.78773 -2.8125 0
M  V30 2928 H 270.634 -4.57157 -0.578259 0
M  V30 2929 H 268.949 -4.10825 -0.679108 0
M  V30 2930 H 271.546 -4.07642 -3.46024 0
M  V30 2931 H 271.889 -2.36424 -3.4265 0
M  V30 2932 H 272.422 -3.39379 -2.07525 0
M  V30 2933 H 269.161 -6.35474 -1.6079 0
M  V30 2934 H 268.681 -5.244 -2.91144 0
M  V30 2935 H 270.36 -5.8292 -2.80736 0
M  V30 2936 N 270.492 0.636531 -1.44174 0
M  V30 2937 C 271.442 1.74233 -1.47061 0
M  V30 2938 C 272.426 1.57331 -0.337034 0
M  V30 2939 O 273.618 1.67159 -0.581973 0
M  V30 2940 C 270.747 3.12897 -1.41246 0
M  V30 2941 C 269.833 3.35288 -2.59698 0
M  V30 2942 N 270.224 3.2807 -3.84972 0
M  V30 2943 C 268.522 3.66065 -2.54778 0
M  V30 2944 C 269.223 3.51001 -4.63867 0
M  V30 2945 N 268.199 3.73616 -3.94857 0
M  V30 2946 H 272.001 1.67103 -2.41773 0
M  V30 2947 H 269.515 0.838806 -1.3906 0
M  V30 2948 H 271.512 3.92189 -1.41398 0
M  V30 2949 H 270.172 3.21197 -0.47569 0
M  V30 2950 H 271.183 3.07109 -4.17019 0
M  V30 2951 H 267.86 3.81379 -1.6987 0
M  V30 2952 H 269.25 3.51059 -5.72894 0
M  V30 2953 N 271.97 1.30982 0.876444 0
M  V30 2954 C 273.219 1.19658 1.62373 0
M  V30 2955 C 273.532 -0.245636 1.94052 0
M  V30 2956 O 274.738 -0.48049 2.67214 0
M  V30 2957 C 273.194 2.09433 2.92687 0
M  V30 2958 C 272.802 3.58613 2.68516 0
M  V30 2959 C 274.546 2.06893 3.70669 0
M  V30 2960 C 272.453 4.40416 3.94699 0
M  V30 2961 H 271.383 0.444268 0.609214 0
M  V30 2962 H 274.034 1.55791 0.969605 0
M  V30 2963 H 272.416 1.66191 3.59439 0
M  V30 2964 H 273.59 4.10058 2.10212 0
M  V30 2965 H 271.905 3.63063 2.03898 0
M  V30 2966 H 274.502 2.65258 4.64265 0
M  V30 2967 H 274.845 1.05448 4.02724 0
M  V30 2968 H 275.378 2.48301 3.10792 0
M  V30 2969 H 272.117 5.42591 3.67798 0
M  V30 2970 H 271.637 3.93731 4.52477 0
M  V30 2971 H 273.316 4.52294 4.62644 0
M  V30 2972 N 273.449 -1.08991 1.13837 0
M  V30 2973 C 274.698 -1.80631 0.897509 0
M  V30 2974 C 275.011 -1.86872 -0.57777 0
M  V30 2975 O 276.217 -2.54866 -0.935701 0
M  V30 2976 C 274.673 -3.24517 1.55618 0
M  V30 2977 C 274.281 -3.26529 3.0673 0
M  V30 2978 C 276.025 -4.00882 1.3962 0
M  V30 2979 C 273.932 -4.64965 3.65461 0
M  V30 2980 H 272.862 -0.67691 0.332129 0
M  V30 2981 H 275.513 -1.2246 1.3666 0
M  V30 2982 H 273.895 -3.82778 1.01476 0
M  V30 2983 H 275.069 -2.78008 3.67489 0
M  V30 2984 H 273.384 -2.63656 3.22296 0
M  V30 2985 H 275.981 -5.03167 1.80906 0
M  V30 2986 H 276.324 -4.14896 0.341578 0
M  V30 2987 H 276.857 -3.49075 1.90766 0
M  V30 2988 H 273.596 -4.56153 4.70749 0
M  V30 2989 H 273.116 -5.13792 3.09481 0
M  V30 2990 H 274.795 -5.3394 3.654 0
M  V30 2991 N 274.927 -0.932562 -1.27047 0
M  V30 2992 C 276.204 -0.49377 -1.89265 0
M  V30 2993 C 276.584 1.02833 -1.8436 0
M  V30 2994 O 275.932 1.88461 -1.29209 0
M  V30 2995 C 276.142 -1.04536 -3.32976 0
M  V30 2996 C 277.49 -1.10879 -4.09867 0
M  V30 2997 O 278.514 -0.995327 -3.42011 0
M  V30 2998 O 277.373 -1.28417 -5.31198 0
M  V30 2999 H 274.467 -0.159596 -0.811454 0
M  V30 3000 H 277.013 -1.02457 -1.3528 0
M  V30 3001 H 275.785 -2.08913 -3.30864 0
M  V30 3002 H 275.408 -0.496494 -3.94488 0
M  V30 3003 N 276.405 1.4127 -0.698611 0
M  V30 3004 C 277.652 2.0118 -0.230865 0
M  V30 3005 C 277.98 1.55338 1.17049 0
M  V30 3006 O 277.235 0.756775 1.80475 0
M  V30 3007 C 277.534 3.56592 -0.240192 0
M  V30 3008 C 277.2 4.21955 -1.58948 0
M  V30 3009 C 275.862 4.39524 -1.95887 0
M  V30 3010 C 278.214 4.58576 -2.47704 0
M  V30 3011 C 275.542 4.90992 -3.2116 0
M  V30 3012 C 277.894 5.11435 -3.72313 0
M  V30 3013 C 276.558 5.27215 -4.0939 0
M  V30 3014 H 275.828 0.736169 -0.0844796 0
M  V30 3015 H 278.475 1.69124 -0.8983 0
M  V30 3016 H 276.78 3.88456 0.510797 0
M  V30 3017 H 278.477 4.00758 0.139296 0
M  V30 3018 H 275.067 4.08657 -1.29219 0
M  V30 3019 H 279.251 4.44654 -2.20445 0
M  V30 3020 H 274.507 5.01393 -3.49878 0
M  V30 3021 H 278.681 5.38752 -4.4127 0
M  V30 3022 H 276.308 5.66859 -5.06533 0
M  V30 3023 N 277.883 0.443576 1.51229 0
M  V30 3024 C 279.131 -0.120557 2.0174 0
M  V30 3025 C 279.452 -1.42665 1.32935 0
M  V30 3026 O 278.722 -1.9028 0.465866 0
M  V30 3027 H 277.302 -0.0475426 0.745486 0
M  V30 3028 H 279.964 0.587711 1.85828 0
M  V30 3029 H 279.06 -0.291972 3.10731 0
M  V30 3030 N 279.361 -1.56624 0.175154 0
M  V30 3031 C 280.291 -2.21155 -0.749195 0
M  V30 3032 C 281.272 -1.16836 -1.23626 0
M  V30 3033 O 282.457 -1.45277 -1.28873 0
M  V30 3034 C 279.587 -2.8553 -1.97711 0
M  V30 3035 C 278.541 -3.95921 -1.62575 0
M  V30 3036 C 277.867 -4.47365 -2.92864 0
M  V30 3037 C 279.167 -5.15323 -0.850838 0
M  V30 3038 H 280.861 -2.98653 -0.211295 0
M  V30 3039 H 278.407 -1.43651 -0.100188 0
M  V30 3040 H 280.36 -3.2935 -2.62881 0
M  V30 3041 H 279.084 -2.05406 -2.53921 0
M  V30 3042 H 277.743 -3.52762 -0.997719 0
M  V30 3043 H 277.391 -3.64027 -3.47122 0
M  V30 3044 H 277.091 -5.21839 -2.70106 0
M  V30 3045 H 278.615 -4.93873 -3.59056 0
M  V30 3046 H 280.029 -5.55812 -1.40521 0
M  V30 3047 H 278.426 -5.95739 -0.722154 0
M  V30 3048 H 279.496 -4.84661 0.152082 0
M  V30 3049 N 280.839 0.0985539 -1.57292 0
M  V30 3050 C 281.802 1.10402 -2.00858 0
M  V30 3051 C 282.802 1.33146 -0.901593 0
M  V30 3052 O 283.992 1.29318 -1.16716 0
M  V30 3053 C 281.124 2.45394 -2.36632 0
M  V30 3054 H 282.317 0.729099 -2.90902 0
M  V30 3055 H 279.87 0.343495 -1.52479 0
M  V30 3056 H 280.605 2.87769 -1.49531 0
M  V30 3057 H 280.39 2.30235 -3.17387 0
M  V30 3058 H 281.88 3.17718 -2.71007 0
M  V30 3059 N 282.317 1.53212 0.369288 0
M  V30 3060 C 283.264 1.79388 1.45219 0
M  V30 3061 C 284.234 0.638059 1.53356 0
M  V30 3062 O 285.419 0.879852 1.69302 0
M  V30 3063 C 282.559 1.98623 2.82211 0
M  V30 3064 C 281.672 3.26337 2.8307 0
M  V30 3065 C 280.807 3.35779 4.11614 0
M  V30 3066 C 279.846 4.5754 4.06601 0
M  V30 3067 N 278.983 4.64155 5.26787 0
M  V30 3068 H 283.823 2.71794 1.22198 0
M  V30 3069 H 281.36 1.34642 0.592444 0
M  V30 3070 H 283.318 2.07761 3.61789 0
M  V30 3071 H 281.948 1.09558 3.03639 0
M  V30 3072 H 281 3.26171 1.95747 0
M  V30 3073 H 282.312 4.15988 2.75237 0
M  V30 3074 H 281.466 3.44208 4.99606 0
M  V30 3075 H 280.205 2.44137 4.22195 0
M  V30 3076 H 279.21 4.49215 3.16996 0
M  V30 3077 H 280.435 5.50519 3.97625 0
M  V30 3078 H 278.381 3.75413 5.3796 0
M  V30 3079 H 278.298 5.47706 5.21109 0
M  V30 3080 H 279.566 4.76863 6.16621 0
M  V30 3081 N 283.795 -0.628877 1.44509 0
M  V30 3082 C 284.705 -1.7694 1.54044 0
M  V30 3083 C 285.721 -1.68705 0.425987 0
M  V30 3084 O 286.897 -1.89442 0.683656 0
M  V30 3085 C 283.962 -3.13332 1.48405 0
M  V30 3086 C 283.023 -3.33181 2.70719 0
M  V30 3087 C 282.256 -4.63067 2.6534 0
M  V30 3088 O 282.479 -5.44017 1.71469 0
M  V30 3089 O 281.413 -4.85167 3.56226 0
M  V30 3090 H 285.239 -1.71848 2.50403 0
M  V30 3091 H 282.824 -0.790378 1.26781 0
M  V30 3092 H 284.706 -3.94634 1.47791 0
M  V30 3093 H 283.381 -3.1896 0.551898 0
M  V30 3094 H 282.288 -2.51549 2.769 0
M  V30 3095 H 283.621 -3.32416 3.62988 0
M  V30 3096 N 285.273 -1.31445 -0.869486 0
M  V30 3097 C 286.503 -1.23942 -1.65294 0
M  V30 3098 C 286.911 0.197561 -1.88166 0
M  V30 3099 O 286.254 1.14019 -1.44033 0
M  V30 3100 C 286.316 -1.91385 -3.04322 0
M  V30 3101 C 285.98 -3.40726 -3.04557 0
M  V30 3102 C 286.977 -4.36464 -2.82481 0
M  V30 3103 C 284.662 -3.82425 -3.25663 0
M  V30 3104 C 286.656 -5.71876 -2.8149 0
M  V30 3105 C 284.343 -5.1795 -3.243 0
M  V30 3106 C 285.341 -6.12486 -3.02241 0
M  V30 3107 O 285.029 -7.45534 -3.00724 0
M  V30 3108 H 284.761 -0.429459 -0.522054 0
M  V30 3109 H 287.315 -1.73873 -1.0935 0
M  V30 3110 H 285.545 -1.36004 -3.61994 0
M  V30 3111 H 287.234 -1.77791 -3.64891 0
M  V30 3112 H 288 -4.05576 -2.65956 0
M  V30 3113 H 283.879 -3.09274 -3.41863 0
M  V30 3114 H 287.423 -6.45638 -2.64191 0
M  V30 3115 H 283.32 -5.48473 -3.40365 0
M  V30 3116 H 284.088 -7.54713 -3.16782 0
M  V30 3117 N 286.751 1.08385 -1.14413 0
M  V30 3118 C 288 1.80153 -0.907076 0
M  V30 3119 C 288.313 1.87176 0.567851 0
M  V30 3120 O 289.519 2.55359 0.922172 0
M  V30 3121 C 287.975 3.23687 -1.57336 0
M  V30 3122 C 287.583 3.24897 -3.08457 0
M  V30 3123 C 289.327 4.00136 -1.41744 0
M  V30 3124 C 287.234 4.6302 -3.67921 0
M  V30 3125 H 286.164 0.675139 -0.335714 0
M  V30 3126 H 288.815 1.21733 -1.37307 0
M  V30 3127 H 287.197 3.82234 -1.03505 0
M  V30 3128 H 288.371 2.76055 -3.68958 0
M  V30 3129 H 286.686 2.61943 -3.2369 0
M  V30 3130 H 289.283 5.02201 -1.83572 0
M  V30 3131 H 289.626 4.14709 -0.363576 0
M  V30 3132 H 290.159 3.48058 -1.92614 0
M  V30 3133 H 286.898 4.5365 -4.73161 0
M  V30 3134 H 286.418 5.12143 -3.12201 0
M  V30 3135 H 288.097 5.31994 -3.68227 0
M  V30 3136 N 288.23 0.939286 1.26551 0
M  V30 3137 C 289.507 0.5038 1.89001 0
M  V30 3138 C 289.887 -1.01854 1.84903 0
M  V30 3139 O 289.235 -1.87773 1.30206 0
M  V30 3140 C 289.445 1.063 3.32417 0
M  V30 3141 C 290.793 1.13051 4.09273 0
M  V30 3142 O 291.817 1.01345 3.41479 0
M  V30 3143 O 290.676 1.31233 5.30509 0
M  V30 3144 H 287.77 0.163897 0.810597 0
M  V30 3145 H 290.316 1.03173 1.34735 0
M  V30 3146 H 289.088 2.10665 3.29752 0
M  V30 3147 H 288.711 0.517408 3.94219 0
M  V30 3148 N 289.708 -1.40897 0.706093 0
M  V30 3149 C 291.119 -1.84023 0.315052 0
M  V30 3150 C 291.47 -1.5906 -1.14866 0
M  V30 3151 O 290.595 -1.06651 -1.88293 0
M  V30 3152 C 291.19 -3.34055 0.565038 0
M  V30 3153 C 289.749 -3.7571 0.227806 0
M  V30 3154 C 288.896 -2.64204 0.842122 0
M  V30 3155 H 291.847 -1.303 0.905963 0
M  V30 3156 H 291.868 -3.80107 -0.172843 0
M  V30 3157 H 291.38 -3.52192 1.63042 0
M  V30 3158 H 289.481 -3.63172 -0.832895 0
M  V30 3159 H 289.594 -4.74103 0.690174 0
M  V30 3160 H 287.958 -2.53255 0.270893 0
M  V30 3161 H 288.741 -2.85155 1.91158 0
M  V30 3162 N 291.186 -0.45159 -1.50991 0
M  V30 3163 C 292.096 0.358431 -2.31846 0
M  V30 3164 C 293.112 1.01438 -1.41373 0
M  V30 3165 O 294.288 1.00663 -1.74439 0
M  V30 3166 C 291.353 1.43704 -3.15515 0
M  V30 3167 C 290.414 0.799742 -4.21785 0
M  V30 3168 C 289.647 1.82696 -5.01456 0
M  V30 3169 O 289.87 3.05105 -4.81941 0
M  V30 3170 O 288.804 1.40958 -5.85162 0
M  V30 3171 H 292.63 -0.302032 -3.02194 0
M  V30 3172 H 290.215 -0.213825 -1.47862 0
M  V30 3173 H 292.097 2.06227 -3.67489 0
M  V30 3174 H 290.772 2.08133 -2.47916 0
M  V30 3175 H 289.679 0.136084 -3.73852 0
M  V30 3176 H 291.012 0.198718 -4.91799 0
M  V30 3177 N 292.664 1.56529 -0.183458 0
M  V30 3178 C 293.892 2.01623 0.464285 0
M  V30 3179 C 294.307 1.06366 1.55986 0
M  V30 3180 O 293.664 0.0665398 1.82379 0
M  V30 3181 C 293.715 3.46475 1.03139 0
M  V30 3182 O 293.436 4.38095 -0.0204675 0
M  V30 3183 C 294.937 4.0703 1.75617 0
M  V30 3184 H 292.157 0.660596 0.117704 0
M  V30 3185 H 294.701 2.02451 -0.288751 0
M  V30 3186 H 292.856 3.46383 1.73486 0
M  V30 3187 H 293.27 5.22973 0.399952 0
M  V30 3188 H 294.744 5.10271 2.10542 0
M  V30 3189 H 295.221 3.49819 2.65563 0
M  V30 3190 H 295.827 4.1086 1.09882 0
M  V30 3191 N 294.142 -0.090211 1.57342 0
M  V30 3192 C 295.089 -1.10909 2.02405 0
M  V30 3193 C 296.059 -1.39523 0.901252 0
M  V30 3194 O 297.244 -1.50903 1.1676 0
M  V30 3195 C 294.384 -2.42277 2.45755 0
M  V30 3196 C 293.497 -2.20352 3.71576 0
M  V30 3197 C 292.632 -3.45154 4.03785 0
M  V30 3198 C 291.671 -3.18512 5.22701 0
M  V30 3199 N 290.808 -4.35593 5.50639 0
M  V30 3200 H 295.648 -0.71782 2.89225 0
M  V30 3201 H 293.185 -0.342901 1.43048 0
M  V30 3202 H 295.143 -3.18951 2.68935 0
M  V30 3203 H 293.773 -2.79242 1.61938 0
M  V30 3204 H 292.825 -1.34458 3.55844 0
M  V30 3205 H 294.137 -1.96661 4.58395 0
M  V30 3206 H 293.291 -4.30233 4.27767 0
M  V30 3207 H 292.03 -3.71904 3.15498 0
M  V30 3208 H 291.035 -2.31827 4.98534 0
M  V30 3209 H 292.26 -2.93103 6.12591 0
M  V30 3210 H 290.206 -4.6241 4.6531 0
M  V30 3211 H 290.123 -4.1511 6.31838 0
M  V30 3212 H 291.391 -5.21723 5.7916 0
M  V30 3213 N 295.62 -1.53406 -0.361157 0
M  V30 3214 C 296.567 -1.80156 -1.44265 0
M  V30 3215 C 297.537 -0.646183 -1.53015 0
M  V30 3216 O 298.722 -0.888818 -1.68833 0
M  V30 3217 C 295.862 -2.00116 -2.81154 0
M  V30 3218 C 294.975 -3.27833 -2.81335 0
M  V30 3219 C 294.11 -3.37957 -4.09828 0
M  V30 3220 C 293.149 -4.59689 -4.04168 0
M  V30 3221 N 292.286 -4.66942 -5.24318 0
M  V30 3222 H 297.126 -2.72438 -1.20754 0
M  V30 3223 H 294.663 -1.34954 -0.585296 0
M  V30 3224 H 296.621 -2.09677 -3.60682 0
M  V30 3225 H 295.251 -1.11167 -3.03054 0
M  V30 3226 H 294.303 -3.27204 -1.94014 0
M  V30 3227 H 295.615 -4.17442 -2.73027 0
M  V30 3228 H 294.769 -3.46853 -4.97773 0
M  V30 3229 H 293.508 -2.46372 -4.20894 0
M  V30 3230 H 292.513 -4.50889 -3.14609 0
M  V30 3231 H 293.738 -5.5262 -3.947 0
M  V30 3232 H 291.684 -3.7826 -5.35962 0
M  V30 3233 H 291.601 -5.50462 -5.18197 0
M  V30 3234 H 292.869 -4.80127 -6.14084 0
M  V30 3235 N 297.098 0.621204 -1.44841 0
M  V30 3236 C 298.048 1.72663 -1.48901 0
M  V30 3237 C 299.032 1.56964 -0.353702 0
M  V30 3238 O 300.224 1.66532 -0.599669 0
M  V30 3239 C 297.353 3.11381 -1.44557 0
M  V30 3240 C 296.439 3.32514 -2.6324 0
M  V30 3241 N 296.83 3.23969 -3.8843 0
M  V30 3242 C 295.128 3.63343 -2.58647 0
M  V30 3243 C 295.829 3.46062 -4.67564 0
M  V30 3244 N 294.805 3.69407 -3.98797 0
M  V30 3245 H 298.607 1.64529 -2.43531 0
M  V30 3246 H 296.121 0.82401 -1.39942 0
M  V30 3247 H 298.118 3.90667 -1.4555 0
M  V30 3248 H 296.778 3.20674 -0.509731 0
M  V30 3249 H 297.789 3.02669 -4.20252 0
M  V30 3250 H 294.466 3.79556 -1.73906 0
M  V30 3251 H 295.856 3.44963 -5.76585 0
M  V30 3252 N 298.576 1.31904 0.862503 0
M  V30 3253 C 299.825 1.21373 1.61094 0
M  V30 3254 C 300.138 -0.22504 1.94301 0
M  V30 3255 O 301.344 -0.452121 2.67709 0
M  V30 3256 C 299.8 2.12525 2.9045 0
M  V30 3257 C 299.408 3.61441 2.64697 0
M  V30 3258 C 301.152 2.10813 3.68454 0
M  V30 3259 C 299.059 4.44578 3.90006 0
M  V30 3260 H 297.989 0.450705 0.604468 0
M  V30 3261 H 300.64 1.56811 0.953027 0
M  V30 3262 H 299.022 1.69994 3.57656 0
M  V30 3263 H 300.196 4.12264 2.05851 0
M  V30 3264 H 298.511 3.65205 2.00036 0
M  V30 3265 H 301.108 2.70167 4.61426 0
M  V30 3266 H 301.451 1.09713 4.01583 0
M  V30 3267 H 301.984 2.51583 3.08141 0
M  V30 3268 H 298.723 5.46461 3.62023 0
M  V30 3269 H 298.243 3.98508 4.48276 0
M  V30 3270 H 299.922 4.57176 4.5782 0
M  V30 3271 N 300.054 -1.07777 1.14986 0
M  V30 3272 C 301.465 -1.61766 0.932127 0
M  V30 3273 C 301.816 -1.88974 -0.527581 0
M  V30 3274 O 300.941 -1.65198 -1.39781 0
M  V30 3275 C 301.536 -2.93891 1.68563 0
M  V30 3276 C 300.095 -3.44639 1.5133 0
M  V30 3277 C 299.242 -2.18767 1.704 0
M  V30 3278 H 302.193 -0.909201 1.30074 0
M  V30 3279 H 302.214 -3.62623 1.15259 0
M  V30 3280 H 301.726 -2.74057 2.74799 0
M  V30 3281 H 299.827 -3.69564 0.474702 0
M  V30 3282 H 299.94 -4.20966 2.28746 0
M  V30 3283 H 298.304 -2.28253 1.13016 0
M  V30 3284 H 299.087 -2.01433 2.77992 0
M  V30 3285 N 301.532 -0.945985 -1.26051 0
M  V30 3286 C 302.762 -0.612136 -1.97323 0
M  V30 3287 C 303.17 0.818171 -1.70595 0
M  V30 3288 O 302.513 1.55777 -0.973613 0
M  V30 3289 C 302.575 -0.780347 -3.50929 0
M  V30 3290 C 302.239 -2.18619 -4.01317 0
M  V30 3291 C 303.236 -3.16209 -4.12683 0
M  V30 3292 C 300.921 -2.50805 -4.35203 0
M  V30 3293 C 302.915 -4.44085 -4.57238 0
M  V30 3294 C 300.602 -3.78912 -4.79446 0
M  V30 3295 C 301.6 -4.75365 -4.90425 0
M  V30 3296 O 301.288 -6.01191 -5.3369 0
M  V30 3297 H 301.02 -0.229134 -0.635982 0
M  V30 3298 H 303.574 -1.27036 -1.61404 0
M  V30 3299 H 301.804 -0.0649864 -3.86645 0
M  V30 3300 H 303.493 -0.448842 -4.03411 0
M  V30 3301 H 304.259 -2.92668 -3.86744 0
M  V30 3302 H 300.138 -1.76463 -4.2589 0
M  V30 3303 H 303.682 -5.19373 -4.65723 0
M  V30 3304 H 299.579 -4.02265 -5.0483 0
M  V30 3305 H 300.347 -6.04442 -5.51899 0
M  V30 3306 N 303.011 1.40521 -0.713556 0
M  V30 3307 C 304.427 1.54839 -0.386907 0
M  V30 3308 C 304.627 1.68532 1.1045 0
M  V30 3309 O 303.683 1.67377 1.89053 0
M  V30 3310 C 304.996 2.77792 -1.15118 0
M  V30 3311 C 306.544 2.91607 -1.13729 0
M  V30 3312 C 307.019 4.1747 -1.88368 0
M  V30 3313 N 308.51 4.24466 -1.85427 0
M  V30 3314 C 309.245 5.20755 -2.40004 0
M  V30 3315 N 308.741 6.22965 -3.03129 0
M  V30 3316 N 310.534 5.1282 -2.30158 0
M  V30 3317 H 302.685 1.29879 -1.68063 0
M  V30 3318 H 304.948 0.627896 -0.710247 0
M  V30 3319 H 304.654 2.73944 -2.20561 0
M  V30 3320 H 304.528 3.6984 -0.741477 0
M  V30 3321 H 306.915 2.94959 -0.0910608 0
M  V30 3322 H 306.996 2.00682 -1.5862 0
M  V30 3323 H 306.64 4.1488 -2.9298 0
M  V30 3324 H 306.57 5.074 -1.40898 0
M  V30 3325 H 309.061 3.51241 -1.3942 0
M  V30 3326 H 309.374 6.92859 -3.42295 0
M  V30 3327 H 307.719 6.23415 -3.07212 0
M  V30 3328 H 310.91 4.31899 -1.80501 0
M  V30 3329 H 311.083 5.87689 -2.72993 0
M  V30 3330 N 304.489 0.459591 1.5075 0
M  V30 3331 C 305.399 -0.34613 2.32033 0
M  V30 3332 C 306.415 -1.00686 1.41909 0
M  V30 3333 O 307.591 -0.997361 1.7497 0
M  V30 3334 C 304.656 -1.42029 3.16273 0
M  V30 3335 C 303.717 -0.777362 4.22203 0
M  V30 3336 C 302.95 -1.80034 5.02418 0
M  V30 3337 O 303.173 -3.02544 4.83553 0
M  V30 3338 O 302.107 -1.37853 5.85901 0
M  V30 3339 H 305.933 0.318054 3.0203 0
M  V30 3340 H 303.518 0.221663 1.47746 0
M  V30 3341 H 305.4 -2.04275 3.68578 0
M  V30 3342 H 304.075 -2.06815 2.49016 0
M  V30 3343 H 302.982 -0.116256 3.73919 0
M  V30 3344 H 304.315 -0.172634 4.91897 0
M  V30 3345 N 305.967 -1.56429 0.191757 0
M  V30 3346 C 306.917 -2.15548 -0.743184 0
M  V30 3347 C 307.901 -1.09531 -1.17863 0
M  V30 3348 O 309.093 -1.35602 -1.13759 0
M  V30 3349 C 306.222 -2.81577 -1.96391 0
M  V30 3350 C 305.308 -3.9478 -1.54951 0
M  V30 3351 N 305.699 -4.98677 -0.845876 0
M  V30 3352 C 303.997 -4.06319 -1.83905 0
M  V30 3353 C 304.698 -5.78183 -0.638724 0
M  V30 3354 N 303.674 -5.30495 -1.18643 0
M  V30 3355 H 307.476 -2.9324 -0.196839 0
M  V30 3356 H 304.99 -1.62398 -0.0081603 0
M  V30 3357 H 306.987 -3.22321 -2.64415 0
M  V30 3358 H 305.647 -2.05371 -2.51501 0
M  V30 3359 H 306.658 -5.15464 -0.501704 0
M  V30 3360 H 303.335 -3.41238 -2.40548 0
M  V30 3361 H 304.725 -6.71851 -0.0807929 0
M  V30 3362 N 307.445 0.0818655 -1.57387 0
M  V30 3363 C 308.392 1.09834 -2.0299 0
M  V30 3364 C 309.362 1.39043 -0.908639 0
M  V30 3365 O 310.547 1.50282 -1.17559 0
M  V30 3366 C 307.687 2.40971 -2.47037 0
M  V30 3367 C 306.8 2.18379 -3.7274 0
M  V30 3368 C 305.935 3.43008 -4.0561 0
M  V30 3369 C 304.974 3.15736 -5.24383 0
M  V30 3370 N 304.111 4.32667 -5.52941 0
M  V30 3371 H 308.951 0.702472 -2.89602 0
M  V30 3372 H 306.488 0.33531 -1.43227 0
M  V30 3373 H 308.446 3.1752 -2.70623 0
M  V30 3374 H 307.076 2.78379 -1.63417 0
M  V30 3375 H 306.128 1.32569 -3.56552 0
M  V30 3376 H 307.44 1.94227 -4.59431 0
M  V30 3377 H 306.594 4.27958 -4.30043 0
M  V30 3378 H 305.333 3.70225 -3.17466 0
M  V30 3379 H 304.338 2.2918 -4.99757 0
M  V30 3380 H 305.563 2.8985 -6.14136 0
M  V30 3381 H 303.509 4.59935 -4.67756 0
M  V30 3382 H 303.426 4.11753 -6.34031 0
M  V30 3383 H 304.694 5.18644 -5.81918 0
M  V30 3384 N 308.923 1.53595 0.353017 0
M  V30 3385 C 310.148 1.7462 1.11904 0
M  V30 3386 C 310.573 0.479721 1.8188 0
M  V30 3387 O 309.931 -0.567066 1.72204 0
M  V30 3388 C 309.979 2.92029 2.11545 0
M  V30 3389 O 309.083 2.61516 3.18878 0
M  V30 3390 H 308.424 0.579531 0.324099 0
M  V30 3391 H 310.954 2.00525 0.406301 0
M  V30 3392 H 310.964 3.18551 2.5493 0
M  V30 3393 H 309.639 3.83888 1.60008 0
M  V30 3394 H 308.216 2.45852 2.80377 0
M  V30 3395 N 310.401 -0.613514 1.45168 0
M  V30 3396 C 311.331 -1.7354 1.56225 0
M  V30 3397 C 312.312 -1.64981 0.41414 0
M  V30 3398 O 313.497 -1.83472 0.636526 0
M  V30 3399 C 310.627 -3.12128 1.52295 0
M  V30 3400 C 309.581 -3.35491 2.65762 0
M  V30 3401 C 308.907 -4.74291 2.46885 0
M  V30 3402 C 310.207 -3.26325 4.0781 0
M  V30 3403 H 311.901 -1.64543 2.50132 0
M  V30 3404 H 309.447 -0.790185 1.20383 0
M  V30 3405 H 311.4 -3.90404 1.58628 0
M  V30 3406 H 310.124 -3.2195 0.549139 0
M  V30 3407 H 308.783 -2.59603 2.58847 0
M  V30 3408 H 308.431 -4.80839 1.47657 0
M  V30 3409 H 308.131 -4.9088 3.22972 0
M  V30 3410 H 309.655 -5.54775 2.55063 0
M  V30 3411 H 311.069 -3.94483 4.16 0
M  V30 3412 H 309.466 -3.54445 4.8424 0
M  V30 3413 H 310.536 -2.23855 4.30136 0
M  V30 3414 N 311.879 -1.3236 -0.855495 0
M  V30 3415 C 313.107 -1.2587 -1.64208 0
M  V30 3416 C 313.522 0.173457 -1.88002 0
M  V30 3417 O 312.879 1.11027 -1.44842 0
M  V30 3418 C 312.93 -2.01424 -3.00184 0
M  V30 3419 O 312.651 -3.39051 -2.77445 0
M  V30 3420 C 314.152 -2.01948 -3.94629 0
M  V30 3421 H 311.372 -0.434318 -0.511477 0
M  V30 3422 H 313.916 -1.74469 -1.0668 0
M  V30 3423 H 312.071 -1.56549 -3.5436 0
M  V30 3424 H 312.485 -3.77711 -3.63916 0
M  V30 3425 H 313.959 -2.59297 -4.87308 0
M  V30 3426 H 314.436 -1.00554 -4.27534 0
M  V30 3427 H 315.042 -2.46767 -3.4639 0
M  V30 3428 N 313.357 1.07166 -1.15556 0
M  V30 3429 C 314.605 1.79443 -0.929764 0
M  V30 3430 C 314.926 1.87246 0.544414 0
M  V30 3431 O 314.196 1.37473 1.39564 0
M  V30 3432 H 312.776 0.664625 -0.341003 0
M  V30 3433 H 315.438 1.29499 -1.45657 0
M  V30 3434 H 314.534 2.81832 -1.34079 0
M  V30 3435 N 314.835 0.952656 1.25548 0
M  V30 3436 C 316.063 0.623496 1.97282 0
M  V30 3437 C 316.478 -0.803987 1.70826 0
M  V30 3438 O 315.835 -1.53755 0.983147 0
M  V30 3439 C 315.886 0.870209 3.5087 0
M  V30 3440 O 315.607 2.24156 3.76412 0
M  V30 3441 C 317.108 0.553164 4.39835 0
M  V30 3442 H 314.328 0.233931 0.628902 0
M  V30 3443 H 316.872 1.27649 1.59768 0
M  V30 3444 H 315.027 0.263652 3.86502 0
M  V30 3445 H 315.441 2.31021 4.70882 0
M  V30 3446 H 316.915 0.776342 5.46513 0
M  V30 3447 H 317.392 -0.512215 4.36203 0
M  V30 3448 H 317.998 1.13896 4.09766 0
M  V30 3449 N 316.313 -1.40141 0.720998 0
M  V30 3450 C 317.276 -2.29058 0.0805834 0
M  V30 3451 C 318.276 -1.45632 -0.681758 0
M  V30 3452 O 319.466 -1.6648 -0.512856 0
M  V30 3453 C 316.598 -3.28925 -0.895593 0
M  V30 3454 H 317.791 -2.87191 0.863793 0
M  V30 3455 H 315.344 -1.48553 0.485975 0
M  V30 3456 H 316.079 -2.75822 -1.70566 0
M  V30 3457 H 315.864 -3.90519 -0.351766 0
M  V30 3458 H 317.354 -3.95494 -1.34069 0
M  V30 3459 N 317.792 -0.46758 -1.50504 0
M  V30 3460 C 319.208 -0.121533 -1.59137 0
M  V30 3461 C 319.408 1.3717 -1.47603 0
M  V30 3462 O 318.464 2.14464 -1.33272 0
M  V30 3463 C 319.777 -0.6686 -2.93173 0
M  V30 3464 C 321.325 -0.631716 -3.06559 0
M  V30 3465 C 321.8 -1.15627 -4.43164 0
M  V30 3466 N 323.291 -1.11553 -4.49567 0
M  V30 3467 C 324.026 -1.49195 -5.5365 0
M  V30 3468 N 323.522 -1.94269 -6.65005 0
M  V30 3469 N 325.315 -1.4082 -5.44175 0
M  V30 3470 H 317.466 -1.4388 -1.56245 0
M  V30 3471 H 319.729 -0.594784 -0.738198 0
M  V30 3472 H 319.435 -1.71453 -3.07078 0
M  V30 3473 H 319.309 -0.11021 -3.77039 0
M  V30 3474 H 321.696 0.405297 -2.92304 0
M  V30 3475 H 321.777 -1.22687 -2.24458 0
M  V30 3476 H 321.421 -2.1919 -4.58168 0
M  V30 3477 H 321.351 -0.537365 -5.23851 0
M  V30 3478 H 323.842 -0.784895 -3.69659 0
M  V30 3479 H 324.155 -2.21148 -7.40482 0
M  V30 3480 H 322.5 -1.98219 -6.66134 0
M  V30 3481 H 325.691 -1.0545 -4.56068 0
M  V30 3482 H 325.864 -1.70481 -6.25172 0
M  V30 3483 N 319.27 1.56325 -0.20005 0
M  V30 3484 C 320.5 2.01811 0.442232 0
M  V30 3485 C 320.908 1.07932 1.55394 0
M  V30 3486 O 320.251 0.0772685 1.83537 0
M  V30 3487 C 320.313 3.43685 1.05457 0
M  V30 3488 C 319.977 4.56928 0.0809833 0
M  V30 3489 C 320.974 5.15009 -0.711471 0
M  V30 3490 C 318.659 5.0229 -0.0315364 0
M  V30 3491 C 320.653 6.16904 -1.60336 0
M  V30 3492 C 318.34 6.04028 -0.926981 0
M  V30 3493 C 319.338 6.6121 -1.71146 0
M  V30 3494 O 319.026 7.60971 -2.59189 0
M  V30 3495 H 318.758 0.666173 0.114848 0
M  V30 3496 H 321.312 2.03085 -0.307511 0
M  V30 3497 H 319.542 3.39413 1.85299 0
M  V30 3498 H 321.231 3.72948 1.60201 0
M  V30 3499 H 321.997 4.80827 -0.634873 0
M  V30 3500 H 317.876 4.57476 0.568902 0
M  V30 3501 H 321.42 6.61464 -2.21611 0
M  V30 3502 H 317.317 6.37634 -1.00468 0
M  V30 3503 H 318.085 7.7841 -2.53023 0
M  V30 3504 N 320.748 -0.0735177 1.57428 0
M  V30 3505 C 321.681 -1.11932 1.98863 0
M  V30 3506 C 322.659 -1.37666 0.865266 0
M  V30 3507 O 323.843 -1.51068 1.12742 0
M  V30 3508 C 320.97 -2.46403 2.32386 0
M  V30 3509 C 320.016 -2.36815 3.54713 0
M  V30 3510 S 320.849 -1.76392 5.05614 0
M  V30 3511 C 322.005 -3.12444 5.42337 0
M  V30 3512 H 322.238 -0.766212 2.87257 0
M  V30 3513 H 319.771 -0.281987 1.51803 0
M  V30 3514 H 321.729 -3.23755 2.52375 0
M  V30 3515 H 320.39 -2.78876 1.44524 0
M  V30 3516 H 319.583 -3.35977 3.7568 0
M  V30 3517 H 319.185 -1.67598 3.34345 0
M  V30 3518 H 321.477 -4.08753 5.40303 0
M  V30 3519 H 322.42 -2.96258 6.43146 0
M  V30 3520 H 322.828 -3.1297 4.69798 0
M  V30 3521 N 322.226 -1.5378 -0.344866 0
M  V30 3522 C 323.451 -1.75211 -1.10977 0
M  V30 3523 C 323.876 -0.48936 -1.81623 0
M  V30 3524 O 323.234 0.557925 -1.72502 0
M  V30 3525 C 323.282 -2.93147 -2.09993 0
M  V30 3526 O 322.386 -2.63203 -3.17487 0
M  V30 3527 H 321.727 -0.581241 -0.321021 0
M  V30 3528 H 324.257 -2.00738 -0.395661 0
M  V30 3529 H 324.267 -3.19898 -2.53237 0
M  V30 3530 H 322.942 -3.84731 -1.5797 0
M  V30 3531 H 321.519 -2.47336 -2.79069 0
M  V30 3532 N 323.704 0.605807 -1.45491 0
M  V30 3533 C 324.953 1.36086 -1.48874 0
M  V30 3534 C 325.266 1.95131 -0.135333 0
M  V30 3535 O 326.472 2.7146 -0.0468144 0
M  V30 3536 C 324.928 2.46518 -2.62215 0
M  V30 3537 C 324.536 1.93877 -4.03876 0
M  V30 3538 C 326.28 3.23512 -2.74846 0
M  V30 3539 C 324.187 3.01801 -5.08596 0
M  V30 3540 H 323.117 0.511497 -0.553974 0
M  V30 3541 H 325.768 0.649089 -1.71636 0
M  V30 3542 H 324.15 3.20388 -2.32739 0
M  V30 3543 H 325.324 1.26704 -4.43038 0
M  V30 3544 H 323.639 1.29622 -3.95711 0
M  V30 3545 H 326.236 4.04013 -3.50253 0
M  V30 3546 H 326.579 3.74631 -1.81542 0
M  V30 3547 H 327.112 2.56742 -3.03856 0
M  V30 3548 H 323.851 2.55597 -6.03614 0
M  V30 3549 H 323.371 3.67535 -4.74002 0
M  V30 3550 H 325.05 3.66152 -5.33424 0
M  V30 3551 N 325.182 1.32811 0.848464 0
M  V30 3552 C 326.13 1.22231 1.97895 0
M  V30 3553 C 327.124 0.125749 1.68933 0
M  V30 3554 O 328.33 0.289083 1.77663 0
M  V30 3555 H 324.705 0.379058 0.649476 0
M  V30 3556 H 326.676 2.17828 2.03945 0
M  V30 3557 C 325.425 0.968572 3.33937 0
M  V30 3558 H 324.748 1.80458 3.56756 0
M  V30 3559 H 326.188 0.934808 4.13567 0
M  V30 3560 C 324.647 -0.328628 3.35293 0
M  V30 3561 O 325.177 -1.33848 3.78745 0
M  V30 3562 N 323.383 -0.352788 2.88451 0
M  V30 3563 H 322.93 0.469541 2.53285 0
M  V30 3564 H 322.888 -1.22057 2.89741 0
M  V30 3565 N 326.66 -1.06551 1.16123 0
M  V30 3566 C 327.888 -1.83005 0.965237 0
M  V30 3567 C 328.303 -1.82423 -0.486542 0
M  V30 3568 O 327.66 -1.24152 -1.33763 0
M  V30 3569 C 327.711 -3.29733 1.48183 0
M  V30 3570 O 327.432 -3.30416 2.87674 0
M  V30 3571 C 328.933 -4.22926 1.32848 0
M  V30 3572 H 326.153 -0.577118 0.342309 0
M  V30 3573 H 328.697 -1.3445 1.54089 0
M  V30 3574 H 326.852 -3.75609 0.948517 0
M  V30 3575 H 327.266 -4.22149 3.11272 0
M  V30 3576 H 328.74 -5.23916 1.73827 0
M  V30 3577 H 329.217 -4.38346 0.273692 0
M  V30 3578 H 329.823 -3.82894 1.85127 0
M  V30 3579 N 328.138 -0.959301 -1.25041 0
M  V30 3580 C 329.088 -0.453888 -2.23436 0
M  V30 3581 C 330.072 0.459461 -1.542 0
M  V30 3582 O 331.264 0.291752 -1.74579 0
M  V30 3583 C 328.393 0.262667 -3.42294 0
M  V30 3584 C 327.479 -0.669022 -4.1879 0
M  V30 3585 N 327.87 -1.80267 -4.72586 0
M  V30 3586 C 326.168 -0.47814 -4.4343 0
M  V30 3587 C 326.869 -2.38475 -5.3057 0
M  V30 3588 N 325.845 -1.67078 -5.17287 0
M  V30 3589 H 329.647 -1.319 -2.6264 0
M  V30 3590 H 327.161 -0.817358 -1.40332 0
M  V30 3591 H 329.158 0.641911 -4.11929 0
M  V30 3592 H 327.818 1.12432 -3.04613 0
M  V30 3593 H 328.829 -2.18442 -4.69578 0
M  V30 3594 H 325.506 0.340249 -4.16111 0
M  V30 3595 H 326.896 -3.34094 -5.8295 0
M  V30 3596 N 329.616 1.39756 -0.72842 0
M  V30 3597 C 330.546 2.33289 -0.0991354 0
M  V30 3598 C 331.527 1.53568 0.731489 0
M  V30 3599 O 332.712 1.81987 0.677807 0
M  V30 3600 C 329.842 3.3763 0.813834 0
M  V30 3601 C 328.796 4.2791 0.0878663 0
M  V30 3602 C 328.122 5.22894 1.11741 0
M  V30 3603 C 329.422 5.11314 -1.06563 0
M  V30 3604 H 331.116 2.86163 -0.880408 0
M  V30 3605 H 328.662 1.37591 -0.424819 0
M  V30 3606 H 330.615 4.0201 1.26355 0
M  V30 3607 H 329.339 2.83181 1.62715 0
M  V30 3608 H 327.998 3.65 -0.342159 0
M  V30 3609 H 327.646 4.64744 1.92412 0
M  V30 3610 H 327.346 5.84143 0.636477 0
M  V30 3611 H 328.87 5.90151 1.56697 0
M  V30 3612 H 330.284 5.69076 -0.694671 0
M  V30 3613 H 328.681 5.81671 -1.47577 0
M  V30 3614 H 329.751 4.46534 -1.89038 0
M  V30 3615 N 331.094 0.475555 1.50254 0
M  V30 3616 C 332.342 -0.077738 2.0195 0
M  V30 3617 C 332.663 -1.39813 1.35931 0
M  V30 3618 O 331.933 -1.89249 0.506123 0
M  V30 3619 H 330.513 -0.031719 0.746326 0
M  V30 3620 H 333.175 0.626995 1.84539 0
M  V30 3621 H 332.271 -0.225995 3.11281 0
M  V30 3622 N 332.573 -1.56217 0.208337 0
M  V30 3623 C 333.52 -2.19699 -0.707192 0
M  V30 3624 C 334.49 -1.14836 -1.20008 0
M  V30 3625 O 335.675 -1.4314 -1.26157 0
M  V30 3626 C 332.815 -2.87061 -1.91546 0
M  V30 3627 C 331.928 -4.06483 -1.46271 0
M  V30 3628 C 331.063 -4.61665 -2.62752 0
M  V30 3629 C 330.102 -5.73417 -2.14147 0
M  V30 3630 N 329.239 -6.22948 -3.23853 0
M  V30 3631 H 334.079 -2.97575 -0.159111 0
M  V30 3632 H 331.616 -1.46948 -0.0667874 0
M  V30 3633 H 333.574 -3.24294 -2.62468 0
M  V30 3634 H 332.204 -2.11725 -2.43664 0
M  V30 3635 H 331.256 -3.74825 -0.648886 0
M  V30 3636 H 332.568 -4.87271 -1.06622 0
M  V30 3637 H 331.722 -5.01272 -3.41776 0
M  V30 3638 H 330.461 -3.80013 -3.05682 0
M  V30 3639 H 329.466 -5.33326 -1.33581 0
M  V30 3640 H 330.691 -6.56897 -1.72232 0
M  V30 3641 H 328.637 -5.44213 -3.6629 0
M  V30 3642 H 328.554 -6.98823 -2.88414 0
M  V30 3643 H 329.822 -6.6721 -4.03052 0
M  V30 3644 N 334.051 0.0651679 -1.57465 0
M  V30 3645 C 334.961 1.09448 -2.07505 0
M  V30 3646 C 335.977 1.41974 -1.00595 0
M  V30 3647 O 337.153 1.52018 -1.32107 0
M  V30 3648 C 334.218 2.38689 -2.51453 0
M  V30 3649 C 333.279 2.13073 -3.72691 0
M  V30 3650 C 332.512 3.36152 -4.14533 0
M  V30 3651 O 332.735 4.45517 -3.56189 0
M  V30 3652 O 331.669 3.23974 -5.07272 0
M  V30 3653 H 335.495 0.69935 -2.95538 0
M  V30 3654 H 333.08 0.279752 -1.46757 0
M  V30 3655 H 334.962 3.14736 -2.80212 0
M  V30 3656 H 333.637 2.77568 -1.66546 0
M  V30 3657 H 332.544 1.34709 -3.49005 0
M  V30 3658 H 333.877 1.79071 -4.5847 0
M  V30 3659 N 335.529 1.53961 0.336706 0
M  V30 3660 C 336.461 1.78751 1.4346 0
M  V30 3661 C 337.474 0.669019 1.48418 0
M  V30 3662 O 338.663 0.945884 1.51378 0
M  V30 3663 C 335.763 1.87844 2.82078 0
M  V30 3664 C 334.936 3.17854 3.00479 0
M  V30 3665 C 333.995 3.17816 4.19379 0
M  V30 3666 O 333.021 3.91511 4.13168 0
M  V30 3667 N 334.223 2.40669 5.2826 0
M  V30 3668 H 336.988 2.73493 1.22563 0
M  V30 3669 H 334.549 1.53096 0.526625 0
M  V30 3670 H 336.541 1.85261 3.59806 0
M  V30 3671 H 335.111 1.00257 2.96086 0
M  V30 3672 H 334.331 3.33504 2.10163 0
M  V30 3673 H 335.619 4.03718 3.0966 0
M  V30 3674 H 335.017 1.8036 5.36178 0
M  V30 3675 H 333.574 2.43877 6.04456 0
M  V30 3676 N 337.007 -0.598083 1.45811 0
M  V30 3677 C 338.232 -1.3881 1.54099 0
M  V30 3678 C 338.657 -1.8726 0.177578 0
M  V30 3679 O 338.015 -1.6069 -0.839541 0
M  V30 3680 C 338.063 -2.56217 2.53743 0
M  V30 3681 O 337.167 -3.5716 2.06182 0
M  V30 3682 H 336.508 -0.414024 0.519115 0
M  V30 3683 H 339.038 -0.726971 1.91249 0
M  V30 3684 H 339.048 -3.03337 2.72856 0
M  V30 3685 H 337.723 -2.20303 3.5276 0
M  V30 3686 H 336.3 -3.16624 1.96987 0
M  V30 3687 N 338.485 -1.33259 -0.841409 0
M  V30 3688 C 339.901 -1.12538 -1.13169 0
M  V30 3689 C 340.101 0.0854037 -2.01319 0
M  V30 3690 O 339.157 0.766417 -2.40587 0
M  V30 3691 C 340.47 -2.41156 -1.79623 0
M  V30 3692 C 342.018 -2.47038 -1.922 0
M  V30 3693 C 342.493 -3.7561 -2.6207 0
M  V30 3694 N 343.984 -3.76667 -2.69585 0
M  V30 3695 C 344.719 -4.72861 -3.2433 0
M  V30 3696 N 344.215 -5.79428 -3.79783 0
M  V30 3697 N 346.008 -4.6034 -3.22558 0
M  V30 3698 H 338.159 -2.10868 -0.254676 0
M  V30 3699 H 340.422 -0.931615 -0.175493 0
M  V30 3700 H 340.128 -3.29747 -1.22311 0
M  V30 3701 H 340.002 -2.53114 -2.79666 0
M  V30 3702 H 342.389 -1.58898 -2.48667 0
M  V30 3703 H 342.47 -2.39022 -0.911148 0
M  V30 3704 H 342.114 -4.64131 -2.06263 0
M  V30 3705 H 342.044 -3.80902 -3.63622 0
M  V30 3706 H 344.535 -2.99648 -2.30259 0
M  V30 3707 H 344.848 -6.48867 -4.19752 0
M  V30 3708 H 343.193 -5.83166 -3.78078 0
M  V30 3709 H 346.384 -3.76244 -2.78492 0
M  V30 3710 H 346.557 -5.35478 -3.64921 0
M  V30 3711 N 339.963 1.05934 -1.16686 0
M  V30 3712 C 341.379 1.30938 -0.912542 0
M  V30 3713 C 341.579 1.96803 0.432533 0
M  V30 3714 O 340.635 2.23693 1.17123 0
M  V30 3715 C 341.948 2.18649 -2.06429 0
M  V30 3716 C 343.496 2.32055 -2.10047 0
M  V30 3717 C 343.971 3.23122 -3.24586 0
M  V30 3718 N 345.462 3.30706 -3.24327 0
M  V30 3719 C 346.197 4.01273 -4.09594 0
M  V30 3720 N 345.693 4.74332 -5.04956 0
M  V30 3721 N 347.486 3.97361 -3.97569 0
M  V30 3722 H 339.637 0.615777 -2.03278 0
M  V30 3723 H 341.9 0.334077 -0.887185 0
M  V30 3724 H 341.606 1.77534 -3.03603 0
M  V30 3725 H 341.48 3.19252 -2.00894 0
M  V30 3726 H 343.867 2.72415 -1.13464 0
M  V30 3727 H 343.948 1.31107 -2.19647 0
M  V30 3728 H 343.592 2.83477 -4.2143 0
M  V30 3729 H 343.522 4.24057 -3.12223 0
M  V30 3730 H 346.013 2.78644 -2.55276 0
M  V30 3731 H 346.326 5.25716 -5.6643 0
M  V30 3732 H 344.671 4.733 -5.08933 0
M  V30 3733 H 347.862 3.39405 -3.22369 0
M  V30 3734 H 348.035 4.52089 -4.64241 0
M  V30 3735 N 341.441 0.965919 1.2453 0
M  V30 3736 C 342.718 0.543777 1.87889 0
M  V30 3737 C 343.098 -0.97909 1.87021 0
M  V30 3738 O 342.446 -1.84969 1.3416 0
M  V30 3739 C 342.656 1.13327 3.30088 0
M  V30 3740 C 344.004 1.21707 4.06783 0
M  V30 3741 O 345.028 1.08566 3.39252 0
M  V30 3742 O 343.887 1.42456 5.27606 0
M  V30 3743 H 340.981 0.181054 0.806938 0
M  V30 3744 H 343.527 1.06007 1.32516 0
M  V30 3745 H 342.299 2.17612 3.25209 0
M  V30 3746 H 341.922 0.600911 3.93033 0
M  V30 3747 N 342.919 -1.39368 0.735821 0
M  V30 3748 C 344.196 -1.94465 0.210395 0
M  V30 3749 C 344.576 -1.67254 -1.28799 0
M  V30 3750 O 343.924 -1.00123 -2.05396 0
M  V30 3751 C 344.134 -3.4472 0.544897 0
M  V30 3752 C 345.482 -4.21708 0.494689 0
M  V30 3753 O 346.506 -3.52922 0.482136 0
M  V30 3754 O 345.365 -5.44299 0.489947 0
M  V30 3755 H 342.459 -0.826096 0.0386666 0
M  V30 3756 H 345.005 -1.48863 0.814735 0
M  V30 3757 H 343.777 -3.57963 1.58045 0
M  V30 3758 H 343.4 -3.97502 -0.08837 0
M  V30 3759 N 344.397 -0.483516 -1.5 0
M  V30 3760 C 345.327 0.293829 -2.31644 0
M  V30 3761 C 346.308 0.978864 -1.39112 0
M  V30 3762 O 347.493 0.973644 -1.68029 0
M  V30 3763 C 344.623 1.36897 -3.19181 0
M  V30 3764 C 343.577 0.804833 -4.20365 0
M  V30 3765 C 342.903 1.9792 -4.96721 0
M  V30 3766 C 344.203 -0.192313 -5.21946 0
M  V30 3767 H 345.897 -0.387616 -2.9688 0
M  V30 3768 H 343.443 -0.187856 -1.42769 0
M  V30 3769 H 345.396 1.92037 -3.751 0
M  V30 3770 H 344.12 2.07936 -2.51853 0
M  V30 3771 H 342.779 0.275319 -3.65565 0
M  V30 3772 H 342.427 2.67686 -4.25856 0
M  V30 3773 H 342.127 1.60789 -5.65173 0
M  V30 3774 H 343.651 2.53526 -5.55479 0
M  V30 3775 H 345.065 0.270333 -5.72662 0
M  V30 3776 H 343.462 -0.478543 -5.98189 0
M  V30 3777 H 344.532 -1.11409 -4.71928 0
M  V30 3778 N 345.875 1.56104 -0.216619 0
M  V30 3779 C 346.785 2.23694 0.706982 0
M  V30 3780 C 347.801 1.24295 1.21765 0
M  V30 3781 O 348.977 1.57094 1.2603 0
M  V30 3782 C 346.042 2.8998 1.90033 0
M  V30 3783 C 345.103 4.04708 1.43213 0
M  V30 3784 C 344.336 4.67824 2.56859 0
M  V30 3785 O 344.559 4.29913 3.74874 0
M  V30 3786 O 343.493 5.56905 2.28343 0
M  V30 3787 H 347.319 3.03272 0.161235 0
M  V30 3788 H 344.904 1.49394 0.0136177 0
M  V30 3789 H 346.786 3.31837 2.59735 0
M  V30 3790 H 345.461 2.13365 2.43428 0
M  V30 3791 H 344.368 3.6743 0.70327 0
M  V30 3792 H 345.701 4.83051 0.944615 0
M  V30 3793 N 347.353 -0.0568162 1.57498 0
M  V30 3794 C 348.316 -1.05038 2.03715 0
M  V30 3795 C 349.316 -1.30709 0.936577 0
M  V30 3796 O 350.506 -1.26178 1.20103 0
M  V30 3797 C 347.638 -2.39034 2.43055 0
M  V30 3798 H 348.831 -0.651715 2.92733 0
M  V30 3799 H 346.384 -0.302947 1.53336 0
M  V30 3800 H 347.119 -2.83703 1.57108 0
M  V30 3801 H 346.904 -2.21739 3.2338 0
M  V30 3802 H 348.394 -3.10421 2.79336 0
M  V30 3803 N 348.832 -1.54138 -0.328536 0
M  V30 3804 C 349.762 -1.86167 -1.40939 0
M  V30 3805 C 350.743 -0.718044 -1.54202 0
M  V30 3806 O 351.928 -0.971328 -1.68163 0
M  V30 3807 C 349.058 -2.08461 -2.77779 0
M  V30 3808 C 348.012 -3.24299 -2.7931 0
M  V30 3809 C 347.338 -3.31955 -4.19178 0
M  V30 3810 C 348.638 -4.62065 -2.43502 0
M  V30 3811 H 350.332 -2.76689 -1.14383 0
M  V30 3812 H 347.878 -1.33132 -0.548806 0
M  V30 3813 H 349.831 -2.29453 -3.53454 0
M  V30 3814 H 348.555 -1.14684 -3.05802 0
M  V30 3815 H 347.214 -3.03187 -2.0609 0
M  V30 3816 H 346.862 -2.35745 -4.44335 0
M  V30 3817 H 346.562 -4.09805 -4.2111 0
M  V30 3818 H 348.086 -3.55175 -4.96672 0
M  V30 3819 H 349.5 -4.8297 -3.08889 0
M  V30 3820 H 347.897 -5.42429 -2.56693 0
M  V30 3821 H 348.967 -4.64652 -1.38659 0
M  V30 3822 N 350.31 0.590341 -1.46126 0
M  V30 3823 C 351.558 1.34616 -1.50742 0
M  V30 3824 C 351.879 1.94363 -0.157486 0
M  V30 3825 O 351.149 1.78136 0.815136 0
M  V30 3826 H 349.729 0.499789 -0.555175 0
M  V30 3827 H 352.391 0.691953 -1.82203 0
M  V30 3828 H 351.487 2.15678 -2.25587 0
M  V30 3829 N 351.788 1.33704 0.83433 0
M  V30 3830 C 352.738 1.20899 1.93306 0
M  V30 3831 C 353.722 0.110783 1.60518 0
M  V30 3832 O 354.914 0.339331 1.73717 0
M  V30 3833 C 352.043 0.955018 3.29749 0
M  V30 3834 C 351.129 2.09587 3.68692 0
M  V30 3835 N 351.52 3.34621 3.79292 0
M  V30 3836 C 349.818 2.00358 3.98463 0
M  V30 3837 C 350.519 4.09472 4.13167 0
M  V30 3838 N 349.495 3.37954 4.25779 0
M  V30 3839 H 353.297 2.15665 1.99664 0
M  V30 3840 H 350.811 1.25777 1.02732 0
M  V30 3841 H 352.808 0.844208 4.08263 0
M  V30 3842 H 351.468 0.0159317 3.24696 0
M  V30 3843 H 352.479 3.69313 3.63082 0
M  V30 3844 H 349.156 1.14137 4.01596 0
M  V30 3845 H 350.546 5.17391 4.28668 0
M  V30 3846 N 353.266 -1.05314 1.17247 0
M  V30 3847 C 354.199 -2.12512 0.831507 0
M  V30 3848 C 355.177 -1.61351 -0.201168 0
M  V30 3849 O 356.361 -1.88317 -0.0829831 0
M  V30 3850 C 353.488 -3.37848 0.24015 0
M  V30 3851 C 352.534 -4.07832 1.24801 0
M  V30 3852 S 353.367 -4.56537 2.79882 0
M  V30 3853 C 354.523 -5.85122 2.22223 0
M  V30 3854 H 354.756 -2.41106 1.7394 0
M  V30 3855 H 352.289 -1.17896 0.996988 0
M  V30 3856 H 354.247 -4.10391 -0.0945588 0
M  V30 3857 H 352.908 -3.07392 -0.645668 0
M  V30 3858 H 352.101 -4.97883 0.78287 0
M  V30 3859 H 351.703 -3.41348 1.52831 0
M  V30 3860 H 353.995 -6.58408 1.59703 0
M  V30 3861 H 354.938 -6.36381 3.10523 0
M  V30 3862 H 355.346 -5.39626 1.65722 0
M  V30 3863 N 354.744 -0.972509 -1.24016 0
M  V30 3864 C 355.991 -0.637034 -1.92219 0
M  V30 3865 C 356.319 0.828418 -1.75976 0
M  V30 3866 O 355.574 1.61206 -1.10955 0
M  V30 3867 C 355.873 -0.963694 -3.44162 0
M  V30 3868 C 355.539 -2.41807 -3.80579 0
M  V30 3869 C 354.201 -2.81556 -3.9023 0
M  V30 3870 C 356.553 -3.36172 -3.98293 0
M  V30 3871 C 353.881 -4.14702 -4.15017 0
M  V30 3872 C 356.233 -4.68952 -4.24578 0
M  V30 3873 C 354.897 -5.08472 -4.32449 0
M  V30 3874 H 354.167 -0.233107 -0.703379 0
M  V30 3875 H 356.814 -1.2249 -1.47202 0
M  V30 3876 H 355.119 -0.29365 -3.90698 0
M  V30 3877 H 356.816 -0.682449 -3.9515 0
M  V30 3878 H 353.406 -2.09988 -3.73635 0
M  V30 3879 H 357.59 -3.06644 -3.90234 0
M  V30 3880 H 352.846 -4.4494 -4.19331 0
M  V30 3881 H 357.02 -5.42037 -4.37229 0
M  V30 3882 H 354.647 -6.11665 -4.51409 0
M  V30 3883 N 356.222 1.38976 -0.743202 0
M  V30 3884 C 357.155 2.28128 -0.0572165 0
M  V30 3885 C 358.133 1.44827 0.739182 0
M  V30 3886 O 359.317 1.74207 0.720009 0
M  V30 3887 C 356.444 3.25796 0.926001 0
M  V30 3888 C 355.49 4.25947 0.217099 0
M  V30 3889 S 356.323 5.24604 -1.07477 0
M  V30 3890 C 357.479 6.25829 -0.0943545 0
M  V30 3891 H 357.712 2.85961 -0.813246 0
M  V30 3892 H 355.245 1.44822 -0.535341 0
M  V30 3893 H 357.203 3.82583 1.48797 0
M  V30 3894 H 355.864 2.66966 1.65493 0
M  V30 3895 H 355.057 4.94746 0.961372 0
M  V30 3896 H 354.659 3.73002 -0.273059 0
M  V30 3897 H 356.951 6.73411 0.743239 0
M  V30 3898 H 357.894 7.0412 -0.749713 0
M  V30 3899 H 358.302 5.63797 0.281706 0
M  V30 3900 N 357.7 0.491464 1.49741 0
M  V30 3901 C 358.93 -0.0534375 2.06531 0
M  V30 3902 C 359.338 -1.32233 1.35318 0
M  V30 3903 O 358.681 -1.78781 0.422243 0
M  V30 3904 C 358.743 -0.387034 3.57411 0
M  V30 3905 C 358.407 0.782764 4.50246 0
M  V30 3906 C 359.404 1.67059 4.92329 0
M  V30 3907 C 357.089 0.978866 4.9267 0
M  V30 3908 C 359.083 2.73874 5.75562 0
M  V30 3909 C 356.77 2.05022 5.75682 0
M  V30 3910 C 357.768 2.92851 6.17031 0
M  V30 3911 O 357.456 3.98138 6.98385 0
M  V30 3912 H 357.188 0.0129324 0.675876 0
M  V30 3913 H 359.742 0.685238 1.93633 0
M  V30 3914 H 357.972 -1.17918 3.68283 0
M  V30 3915 H 359.661 -0.869419 3.96479 0
M  V30 3916 H 360.427 1.53086 4.60206 0
M  V30 3917 H 356.306 0.304646 4.59992 0
M  V30 3918 H 359.85 3.42458 6.07757 0
M  V30 3919 H 355.747 2.18993 6.07217 0
M  V30 3920 H 356.515 3.95374 7.16674 0
M  V30 3921 N 359.178 -1.55987 0.224894 0
M  V30 3922 C 360.425 -1.9839 -0.4059 0
M  V30 3923 C 360.753 -1.11261 -1.59535 0
M  V30 3924 O 360.008 -0.158314 -1.95059 0
M  V30 3925 C 360.307 -3.46394 -0.880106 0
M  V30 3926 C 359.973 -4.5046 0.19918 0
M  V30 3927 C 358.635 -4.7864 0.495661 0
M  V30 3928 C 360.987 -5.12855 0.928939 0
M  V30 3929 C 358.315 -5.66497 1.52636 0
M  V30 3930 C 360.667 -6.01828 1.949 0
M  V30 3931 C 359.331 -6.28351 2.25236 0
M  V30 3932 H 358.601 -0.725961 -0.148529 0
M  V30 3933 H 361.248 -1.88668 0.328113 0
M  V30 3934 H 359.553 -3.53337 -1.69294 0
M  V30 3935 H 361.25 -3.76577 -1.37808 0
M  V30 3936 H 357.84 -4.28579 -0.0420526 0
M  V30 3937 H 362.024 -4.9115 0.713129 0
M  V30 3938 H 357.28 -5.8531 1.76698 0
M  V30 3939 H 361.454 -6.49225 2.51951 0
M  V30 3940 H 359.081 -6.96226 3.05244 0
M  V30 3941 N 360.656 0.0484629 -1.57525 0
M  V30 3942 C 361.586 1.0549 -2.08313 0
M  V30 3943 C 362.567 1.38929 -0.981463 0
M  V30 3944 O 363.752 1.48151 -1.25558 0
M  V30 3945 C 360.882 2.36162 -2.54646 0
M  V30 3946 C 359.836 2.17016 -3.68901 0
M  V30 3947 C 359.162 3.53278 -4.01371 0
M  V30 3948 C 360.462 1.57219 -4.98076 0
M  V30 3949 H 362.156 0.632195 -2.92649 0
M  V30 3950 H 359.702 0.302654 -1.40784 0
M  V30 3951 H 361.655 3.06882 -2.88793 0
M  V30 3952 H 360.379 2.80456 -1.67368 0
M  V30 3953 H 359.038 1.48733 -3.35073 0
M  V30 3954 H 358.686 3.95185 -3.11188 0
M  V30 3955 H 358.386 3.41299 -4.78318 0
M  V30 3956 H 359.91 4.25391 -4.38035 0
M  V30 3957 H 361.324 2.17832 -5.30304 0
M  V30 3958 H 359.721 1.55871 -5.79503 0
M  V30 3959 H 360.791 0.535956 -4.81929 0
M  V30 3960 N 362.134 1.5431 0.320358 0
M  V30 3961 C 363.55 1.45091 0.664889 0
M  V30 3962 C 363.75 0.626382 1.91517 0
M  V30 3963 O 362.806 0.126443 2.52183 0
M  V30 3964 C 364.119 2.88848 0.83591 0
M  V30 3965 C 365.667 2.9877 0.933046 0
M  V30 3966 C 366.142 4.43683 1.13621 0
M  V30 3967 N 367.633 4.47309 1.20287 0
M  V30 3968 C 368.368 5.56595 1.37801 0
M  V30 3969 N 367.864 6.75844 1.52338 0
M  V30 3970 N 369.657 5.44248 1.40535 0
M  V30 3971 H 361.808 2.06398 -0.501374 0
M  V30 3972 H 364.071 0.933963 -0.162534 0
M  V30 3973 H 363.777 3.51698 -0.0116092 0
M  V30 3974 H 363.651 3.35148 1.73078 0
M  V30 3975 H 366.038 2.36045 1.77107 0
M  V30 3976 H 366.119 2.55796 0.0145782 0
M  V30 3977 H 365.763 5.06995 0.303032 0
M  V30 3978 H 365.693 4.84269 2.0686 0
M  V30 3979 H 368.184 3.61388 1.10485 0
M  V30 3980 H 368.497 7.54892 1.65403 0
M  V30 3981 H 366.842 6.78746 1.4943 0
M  V30 3982 H 370.033 4.50038 1.28777 0
M  V30 3983 H 370.206 6.29473 1.53842 0
M  V30 3984 N 363.613 -0.582584 1.46437 0
M  V30 3985 C 364.861 -1.33814 1.51453 0
M  V30 3986 C 365.182 -1.94277 0.167792 0
M  V30 3987 O 364.452 -1.78566 -0.805677 0
M  V30 3988 H 363.032 -0.496838 0.557818 0
M  V30 3989 H 365.694 -0.682281 1.82568 0
M  V30 3990 H 364.79 -2.14479 2.26728 0
M  V30 3991 N 365.091 -1.34144 -0.827227 0
M  V30 3992 C 366.316 -1.29476 -1.62021 0
M  V30 3993 C 366.741 0.129292 -1.87655 0
M  V30 3994 O 366.099 1.08967 -1.449 0
M  V30 3995 C 366.147 -2.08702 -2.94068 0
M  V30 3996 O 365.251 -1.45359 -3.85933 0
M  V30 3997 H 364.592 -0.444881 -0.492927 0
M  V30 3998 H 367.122 -1.76882 -1.02829 0
M  V30 3999 H 367.132 -2.19898 -3.43669 0
M  V30 4000 H 365.807 -3.12241 -2.74734 0
M  V30 4001 H 364.384 -1.42879 -3.44442 0
M  V30 4002 N 366.569 1.04691 -1.17803 0
M  V30 4003 C 367.499 2.14494 -0.92275 0
M  V30 4004 C 368.48 1.69546 0.137179 0
M  V30 4005 O 369.665 1.94195 -0.0141108 0
M  V30 4006 C 366.795 3.44491 -0.440803 0
M  V30 4007 C 365.749 4.03031 -1.4405 0
M  V30 4008 C 365.075 5.28432 -0.81631 0
M  V30 4009 C 366.375 4.39932 -2.81527 0
M  V30 4010 H 368.069 2.36107 -1.84103 0
M  V30 4011 H 365.615 1.1347 -0.886599 0
M  V30 4012 H 367.568 4.2066 -0.249602 0
M  V30 4013 H 366.292 3.22546 0.513025 0
M  V30 4014 H 364.951 3.28937 -1.61853 0
M  V30 4015 H 364.599 5.02792 0.144511 0
M  V30 4016 H 364.299 5.68559 -1.48371 0
M  V30 4017 H 365.823 6.07284 -0.635496 0
M  V30 4018 H 367.237 5.07113 -2.67412 0
M  V30 4019 H 365.634 4.9109 -3.44892 0
M  V30 4020 H 366.704 3.50045 -3.35554 0
M  V30 4021 N 368.047 0.979072 1.23499 0
M  V30 4022 C 369.458 0.684391 1.73704 0
M  V30 4023 C 369.809 -0.799448 1.79174 0
M  V30 4024 O 368.934 -1.62531 1.42873 0
M  V30 4025 C 369.529 1.23564 3.15464 0
M  V30 4026 C 368.088 0.99063 3.6313 0
M  V30 4027 C 367.235 1.36416 2.41425 0
M  V30 4028 H 370.186 1.15307 1.09041 0
M  V30 4029 H 370.207 0.607417 3.7562 0
M  V30 4030 H 369.719 2.31561 3.1145 0
M  V30 4031 H 367.82 -0.0733136 3.72528 0
M  V30 4032 H 367.933 1.64427 4.5 0
M  V30 4033 H 366.297 0.782616 2.42378 0
M  V30 4034 H 367.08 2.45387 2.40083 0
M  V30 4035 N 369.525 -1.3858 0.750561 0
M  V30 4036 C 370.771 -2.0095 0.31477 0
M  V30 4037 C 371.126 -1.58509 -1.09053 0
M  V30 4038 O 370.419 -0.8112 -1.7358 0
M  V30 4039 C 370.613 -3.55455 0.372373 0
M  V30 4040 C 370.442 -4.12898 1.78173 0
M  V30 4041 C 369.212 -4.44797 2.39757 0
M  V30 4042 C 371.41 -4.35366 2.7379 0
M  V30 4043 N 369.392 -4.87831 3.72685 0
M  V30 4044 C 370.763 -4.80775 3.91478 0
M  V30 4045 C 372.818 -4.1746 2.71351 0
M  V30 4046 C 371.521 -5.10155 5.07084 0
M  V30 4047 C 373.547 -4.47963 3.86113 0
M  V30 4048 C 372.909 -4.93593 5.02539 0
M  V30 4049 H 369.008 -0.765083 0.161776 0
M  V30 4050 H 371.592 -1.68246 0.979867 0
M  V30 4051 H 369.763 -3.87512 -0.26244 0
M  V30 4052 H 371.495 -4.04614 -0.0834479 0
M  V30 4053 H 368.25 -4.33135 1.91548 0
M  V30 4054 H 368.674 -5.13685 4.40972 0
M  V30 4055 H 373.316 -3.81372 1.82524 0
M  V30 4056 H 371.034 -5.45141 5.96529 0
M  V30 4057 H 374.62 -4.35717 3.85542 0
M  V30 4058 H 373.5 -5.16746 5.89867 0
M  V30 4059 N 371.003 -0.499398 -1.49478 0
M  V30 4060 C 371.935 0.316575 -2.27003 0
M  V30 4061 C 372.948 0.932047 -1.33479 0
M  V30 4062 O 374.137 0.815658 -1.58774 0
M  V30 4063 C 371.237 1.46055 -3.05812 0
M  V30 4064 C 370.41 0.952679 -4.26899 0
M  V30 4065 C 369.469 1.97407 -4.87767 0
M  V30 4066 O 368.495 1.54326 -5.4788 0
M  V30 4067 N 369.697 3.30436 -4.77276 0
M  V30 4068 H 372.462 -0.348168 -2.97671 0
M  V30 4069 H 370.023 -0.33185 -1.58463 0
M  V30 4070 H 372.015 2.14135 -3.43407 0
M  V30 4071 H 370.585 2.02948 -2.37762 0
M  V30 4072 H 369.805 0.0968248 -3.94081 0
M  V30 4073 H 371.093 0.59174 -5.05347 0
M  V30 4074 H 370.491 3.68126 -4.29534 0
M  V30 4075 H 369.048 3.94235 -5.19059 0
M  V30 4076 N 372.481 1.55866 -0.233164 0
M  V30 4077 C 373.729 1.9821 0.394593 0
M  V30 4078 C 374.05 1.12234 1.59463 0
M  V30 4079 O 373.32 0.201981 1.94856 0
M  V30 4080 H 371.9 0.732034 0.148778 0
M  V30 4081 H 374.562 1.92107 -0.32876 0
M  V30 4082 H 373.658 3.03845 0.713063 0
M  V30 4083 N 373.959 -0.0401083 1.57549 0
M  V30 4084 C 374.889 -1.04384 2.08869 0
M  V30 4085 C 375.87 -1.38407 0.988817 0
M  V30 4086 O 377.055 -1.47483 1.26342 0
M  V30 4087 C 374.185 -2.34808 2.55895 0
M  V30 4088 C 373.139 -2.15057 3.70047 0
M  V30 4089 C 372.465 -3.51145 4.03239 0
M  V30 4090 C 373.765 -1.54576 4.98902 0
M  V30 4091 H 375.459 -0.616666 2.92981 0
M  V30 4092 H 373.005 -0.295184 1.40942 0
M  V30 4093 H 374.958 -3.05346 2.90417 0
M  V30 4094 H 373.682 -2.79565 1.68853 0
M  V30 4095 H 372.341 -1.46954 3.35857 0
M  V30 4096 H 371.989 -3.93529 3.13279 0
M  V30 4097 H 371.689 -3.38758 4.80122 0
M  V30 4098 H 373.213 -4.23062 4.40285 0
M  V30 4099 H 374.627 -2.15017 5.31451 0
M  V30 4100 H 373.024 -1.52796 5.80322 0
M  V30 4101 H 374.094 -0.51039 4.82206 0
M  V30 4102 N 375.437 -1.54477 -0.31217 0
M  V30 4103 C 376.384 -1.84655 -1.38461 0
M  V30 4104 C 377.354 -0.694536 -1.50882 0
M  V30 4105 O 378.539 -0.942081 -1.6592 0
M  V30 4106 C 375.679 -2.0896 -2.74645 0
M  V30 4107 C 374.792 -3.36618 -2.70763 0
M  V30 4108 C 373.927 -3.50824 -3.98868 0
M  V30 4109 C 372.966 -4.72315 -3.89339 0
M  V30 4110 N 372.103 -4.83387 -5.09197 0
M  V30 4111 H 376.943 -2.76142 -1.12026 0
M  V30 4112 H 374.48 -1.36748 -0.542065 0
M  V30 4113 H 376.438 -2.21045 -3.53829 0
M  V30 4114 H 375.068 -1.20752 -2.99364 0
M  V30 4115 H 374.12 -3.33211 -1.83506 0
M  V30 4116 H 375.432 -4.25917 -2.59608 0
M  V30 4117 H 374.586 -3.62513 -4.86486 0
M  V30 4118 H 373.325 -2.59638 -4.12843 0
M  V30 4119 H 372.33 -4.6067 -3.00105 0
M  V30 4120 H 373.555 -5.64897 -3.76919 0
M  V30 4121 H 371.501 -3.9512 -5.23657 0
M  V30 4122 H 371.418 -5.66669 -5.00422 0
M  V30 4123 H 372.686 -4.9942 -5.98498 0
M  V30 4124 N 376.915 0.57481 -1.46744 0
M  V30 4125 C 377.878 1.66533 -1.57478 0
M  V30 4126 C 378.878 1.54338 -0.451263 0
M  V30 4127 O 380.068 1.58814 -0.715813 0
M  V30 4128 C 377.2 3.05999 -1.50259 0
M  V30 4129 H 378.393 1.58372 -2.54673 0
M  V30 4130 H 375.946 0.793301 -1.34672 0
M  V30 4131 H 376.681 3.19709 -0.543725 0
M  V30 4132 H 376.466 3.16259 -2.31781 0
M  V30 4133 H 377.956 3.8537 -1.60872 0
M  V30 4134 N 378.394 1.34581 0.820102 0
M  V30 4135 C 379.671 1.17675 1.56244 0
M  V30 4136 C 380.051 -0.249541 2.0962 0
M  V30 4137 O 379.399 -1.25125 1.91196 0
M  V30 4138 C 379.609 2.23364 2.6816 0
M  V30 4139 C 380.957 2.58485 3.36854 0
M  V30 4140 O 381.981 2.22175 2.78418 0
M  V30 4141 O 380.84 3.20868 4.42386 0
M  V30 4142 H 377.934 0.456333 0.689702 0
M  V30 4143 H 380.48 1.46222 0.861231 0
M  V30 4144 H 379.252 3.19087 2.26493 0
M  V30 4145 H 378.875 1.96009 3.45928 0
M  V30 4146 N 379.872 -1.04064 1.18357 0
M  V30 4147 C 381.1 -1.80916 1.00384 0
M  V30 4148 C 381.515 -1.83414 -0.447738 0
M  V30 4149 O 380.872 -1.26962 -1.31099 0
M  V30 4150 C 380.923 -3.26516 1.55144 0
M  V30 4151 O 380.644 -3.2424 2.94618 0
M  V30 4152 C 382.145 -4.20013 1.41789 0
M  V30 4153 H 379.365 -0.569728 0.354474 0
M  V30 4154 H 381.909 -1.31151 1.56906 0
M  V30 4155 H 380.064 -3.73512 1.02798 0
M  V30 4156 H 380.478 -4.15452 3.20156 0
M  V30 4157 H 381.952 -5.20111 1.84901 0
M  V30 4158 H 382.429 -4.37667 0.36661 0
M  V30 4159 H 383.035 -3.78881 1.93207 0
M  V30 4160 N 381.35 -0.985608 -1.22978 0
M  V30 4161 C 382.28 -0.549649 -2.26939 0
M  V30 4162 C 383.261 0.419803 -1.64838 0
M  V30 4163 O 384.446 0.31203 -1.91677 0
M  V30 4164 C 381.576 0.143652 -3.47003 0
M  V30 4165 C 380.53 -0.743606 -4.21491 0
M  V30 4166 C 379.856 0.0822027 -5.34637 0
M  V30 4167 C 381.156 -2.03694 -4.80943 0
M  V30 4168 H 382.85 -1.41862 -2.63658 0
M  V30 4169 H 380.396 -0.683571 -1.26741 0
M  V30 4170 H 382.349 0.459985 -4.18882 0
M  V30 4171 H 381.073 1.04711 -3.09359 0
M  V30 4172 H 379.732 -1.04347 -3.51436 0
M  V30 4173 H 379.38 0.986359 -4.93234 0
M  V30 4174 H 379.08 -0.508377 -5.85397 0
M  V30 4175 H 380.604 0.392797 -6.09335 0
M  V30 4176 H 382.018 -1.78504 -5.44802 0
M  V30 4177 H 380.415 -2.57573 -5.42011 0
M  V30 4178 H 381.485 -2.72042 -4.01399 0
M  V30 4179 N 382.828 1.3818 -0.7579 0
M  V30 4180 C 383.775 2.30416 -0.133057 0
M  V30 4181 C 384.745 1.50398 0.704957 0
M  V30 4182 O 385.93 1.79014 0.660192 0
M  V30 4183 C 383.07 3.36834 0.750813 0
M  V30 4184 C 382.183 4.31879 -0.102297 0
M  V30 4185 C 381.318 5.25368 0.784979 0
M  V30 4186 C 380.357 6.12058 -0.0715046 0
M  V30 4187 N 379.494 6.97832 0.772972 0
M  V30 4188 H 384.334 2.83274 -0.925186 0
M  V30 4189 H 381.871 1.39461 -0.467866 0
M  V30 4190 H 383.829 3.97145 1.27794 0
M  V30 4191 H 382.459 2.85374 1.50868 0
M  V30 4192 H 381.511 3.72991 -0.747095 0
M  V30 4193 H 382.823 4.92921 -0.763552 0
M  V30 4194 H 381.977 5.90818 1.37911 0
M  V30 4195 H 380.716 4.64703 1.47996 0
M  V30 4196 H 379.721 5.456 -0.678272 0
M  V30 4197 H 380.946 6.74793 -0.763606 0
M  V30 4198 H 378.892 6.3971 1.45282 0
M  V30 4199 H 378.809 7.55812 0.168709 0
M  V30 4200 H 380.077 7.67687 1.35194 0
M  V30 4201 N 384.306 0.507319 1.49211 0
M  V30 4202 C 385.216 -0.272136 2.33016 0
M  V30 4203 C 386.232 -0.961206 1.45041 0
M  V30 4204 O 387.408 -0.941191 1.78055 0
M  V30 4205 C 384.473 -1.31895 3.20631 0
M  V30 4206 C 383.534 -0.642648 4.24463 0
M  V30 4207 C 382.767 -1.63959 5.07891 0
M  V30 4208 O 382.99 -2.87007 4.92933 0
M  V30 4209 O 381.924 -1.19143 5.8999 0
M  V30 4210 H 385.75 0.413982 3.00865 0
M  V30 4211 H 383.335 0.268556 1.46966 0
M  V30 4212 H 385.217 -1.92446 3.7489 0
M  V30 4213 H 383.892 -1.98788 2.5547 0
M  V30 4214 H 382.799 0.00276252 3.741 0
M  V30 4215 H 384.132 -0.0160534 4.92197 0
M  V30 4216 N 385.784 -1.5574 0.241426 0
M  V30 4217 C 387.2 -1.59196 -0.113548 0
M  V30 4218 C 387.4 -1.25852 -1.57364 0
M  V30 4219 O 386.456 -1.00322 -2.31715 0
M  V30 4220 C 387.769 -2.99814 0.230695 0
M  V30 4221 C 389.317 -3.12513 0.174547 0
M  V30 4222 C 389.792 -4.55342 0.492744 0
M  V30 4223 N 391.283 -4.61076 0.443043 0
M  V30 4224 C 392.018 -5.6956 0.662484 0
M  V30 4225 N 391.514 -6.86328 0.944761 0
M  V30 4226 N 393.307 -5.58957 0.593564 0
M  V30 4227 H 385.458 -1.75685 1.19368 0
M  V30 4228 H 387.721 -0.81756 0.479896 0
M  V30 4229 H 387.427 -3.28932 1.24485 0
M  V30 4230 H 387.301 -3.74568 -0.444833 0
M  V30 4231 H 389.688 -2.83179 -0.830277 0
M  V30 4232 H 389.769 -2.40045 0.883845 0
M  V30 4233 H 389.413 -4.85396 1.4951 0
M  V30 4234 H 389.343 -5.26062 -0.23797 0
M  V30 4235 H 391.834 -3.77179 0.233374 0
M  V30 4236 H 392.147 -7.64935 1.09977 0
M  V30 4237 H 390.492 -6.88025 0.982175 0
M  V30 4238 H 393.683 -4.66611 0.373123 0
M  V30 4239 H 393.856 -6.43433 0.767981 0
M  V30 4240 N 387.262 0.0317525 -1.57568 0
M  V30 4241 C 388.492 0.733884 -1.93126 0
M  V30 4242 C 388.9 1.69563 -0.839352 0
M  V30 4243 O 388.243 1.82681 0.193175 0
M  V30 4244 C 388.305 1.54798 -3.24465 0
M  V30 4245 C 387.969 0.751304 -4.50782 0
M  V30 4246 C 388.966 0.0527632 -5.19873 0
M  V30 4247 C 386.651 0.706639 -4.97305 0
M  V30 4248 C 388.645 -0.679774 -6.33765 0
M  V30 4249 C 386.332 -0.0296449 -6.11093 0
M  V30 4250 C 387.33 -0.721614 -6.79177 0
M  V30 4251 O 387.018 -1.44595 -7.90789 0
M  V30 4252 H 386.75 0.211459 -0.642076 0
M  V30 4253 H 389.304 -0.00585615 -2.05399 0
M  V30 4254 H 387.534 2.33147 -3.08512 0
M  V30 4255 H 389.223 2.13247 -3.4537 0
M  V30 4256 H 389.989 0.0783188 -4.84937 0
M  V30 4257 H 385.868 1.23474 -4.44157 0
M  V30 4258 H 389.412 -1.22042 -6.86842 0
M  V30 4259 H 385.309 -0.0571331 -6.45475 0
M  V30 4260 H 386.077 -1.35935 -8.07133 0
M  V30 4261 N 388.74 1.54641 0.303973 0
M  V30 4262 C 389.672 1.81754 1.39636 0
M  V30 4263 C 390.685 0.70035 1.46966 0
M  V30 4264 O 391.874 0.97778 1.49338 0
M  V30 4265 C 388.974 1.93785 2.7803 0
M  V30 4266 C 388.147 3.24156 2.93669 0
M  V30 4267 C 387.206 3.26641 4.12544 0
M  V30 4268 O 386.232 4.00187 4.04771 0
M  V30 4269 N 387.434 2.5182 5.23036 0
M  V30 4270 H 390.199 2.76031 1.16734 0
M  V30 4271 H 387.76 1.54178 0.494033 0
M  V30 4272 H 389.752 1.92852 3.55795 0
M  V30 4273 H 388.322 1.06515 2.93893 0
M  V30 4274 H 387.542 3.37887 2.03042 0
M  V30 4275 H 388.83 4.10195 3.01027 0
M  V30 4276 H 388.228 1.91692 5.32232 0
M  V30 4277 H 386.785 2.56644 5.99147 0
M  V30 4278 N 390.218 -0.567019 1.47046 0
M  V30 4279 C 391.165 -1.67489 1.58796 0
M  V30 4280 C 392.135 -1.60399 0.43144 0
M  V30 4281 O 393.32 -1.79378 0.650233 0
M  V30 4282 C 390.46 -3.05821 1.59899 0
M  V30 4283 C 389.573 -3.2342 2.86397 0
M  V30 4284 C 388.708 -4.52093 2.789 0
M  V30 4285 C 387.747 -4.6309 4.00267 0
M  V30 4286 N 386.884 -5.83106 3.91064 0
M  V30 4287 H 391.724 -1.56785 2.53422 0
M  V30 4288 H 389.261 -0.763896 1.2571 0
M  V30 4289 H 391.219 -3.8591 1.58522 0
M  V30 4290 H 389.849 -3.15384 0.687929 0
M  V30 4291 H 388.901 -2.3683 2.97684 0
M  V30 4292 H 390.213 -3.27412 3.76301 0
M  V30 4293 H 389.367 -5.4043 2.75718 0
M  V30 4294 H 388.106 -4.50565 1.86662 0
M  V30 4295 H 387.111 -3.73168 4.03765 0
M  V30 4296 H 388.336 -4.66386 4.93621 0
M  V30 4297 H 386.282 -5.82546 3.01623 0
M  V30 4298 H 386.199 -5.88434 4.74638 0
M  V30 4299 H 387.467 -6.73831 3.91882 0
M  V30 4300 N 391.696 -1.35014 -0.812953 0
M  V30 4301 C 392.945 -1.27269 -1.56479 0
M  V30 4302 C 393.258 0.152771 -1.95002 0
M  V30 4303 O 394.464 0.352451 -2.69203 0
M  V30 4304 C 392.92 -2.23159 -2.82362 0
M  V30 4305 C 392.528 -3.71016 -2.511 0
M  V30 4306 C 394.272 -2.24342 -3.60376 0
M  V30 4307 C 392.179 -4.58746 -3.73237 0
M  V30 4308 H 391.109 -0.472829 -0.587324 0
M  V30 4309 H 393.76 -1.6024 -0.894171 0
M  V30 4310 H 392.142 -1.83151 -3.51101 0
M  V30 4311 H 393.316 -4.1962 -1.90409 0
M  V30 4312 H 391.631 -3.72378 -1.86343 0
M  V30 4313 H 394.228 -2.87107 -4.51081 0
M  V30 4314 H 394.571 -1.24542 -3.97234 0
M  V30 4315 H 395.104 -2.62846 -2.98591 0
M  V30 4316 H 391.843 -5.59521 -3.41492 0
M  V30 4317 H 391.363 -4.14871 -4.33176 0
M  V30 4318 H 393.042 -4.73852 -4.40537 0
M  V30 4319 N 393.175 1.03435 -1.18907 0
M  V30 4320 C 394.423 1.76394 -0.986382 0
M  V30 4321 C 394.744 1.88883 0.484567 0
M  V30 4322 O 394.014 1.41843 1.3512 0
M  V30 4323 H 392.594 0.65344 -0.361975 0
M  V30 4324 H 395.256 1.248 -1.49703 0
M  V30 4325 H 394.352 2.77424 -1.42978 0
M  V30 4326 N 394.653 0.992116 1.22453 0
M  V30 4327 C 395.93 0.583508 1.86694 0
M  V30 4328 C 396.31 -0.9392 1.89056 0
M  V30 4329 O 395.658 -1.82081 1.38053 0
M  V30 4330 C 395.868 1.20304 3.2761 0
M  V30 4331 C 397.216 1.30308 4.0411 0
M  V30 4332 O 398.24 1.15737 3.36873 0
M  V30 4333 O 397.099 1.53615 5.24466 0
M  V30 4334 H 394.193 0.198129 0.802916 0
M  V30 4335 H 396.739 1.08794 1.30238 0
M  V30 4336 H 395.511 2.24461 3.2052 0
M  V30 4337 H 395.134 0.684144 3.9167 0
M  V30 4338 N 396.131 -1.37776 0.765217 0
M  V30 4339 C 397.359 -2.04124 0.337767 0
M  V30 4340 C 397.774 -1.57715 -1.03785 0
M  V30 4341 O 397.131 -0.755447 -1.6613 0
M  V30 4342 C 397.182 -3.59658 0.364442 0
M  V30 4343 O 396.903 -4.04367 1.68579 0
M  V30 4344 C 398.404 -4.43236 -0.0754221 0
M  V30 4345 H 395.624 -0.655696 0.142491 0
M  V30 4346 H 398.168 -1.76238 1.03732 0
M  V30 4347 H 396.323 -3.86339 -0.286471 0
M  V30 4348 H 396.737 -4.98857 1.61993 0
M  V30 4349 H 398.211 -5.52 -0.00560067 0
M  V30 4350 H 398.688 -4.2455 -1.12491 0
M  V30 4351 H 399.294 -4.21767 0.547055 0
M  V30 4352 N 397.609 -0.515225 -1.4894 0
M  V30 4353 C 398.556 0.255567 -2.29381 0
M  V30 4354 C 399.526 0.947387 -1.36432 0
M  V30 4355 O 400.711 0.951288 -1.65394 0
M  V30 4356 C 397.851 1.30551 -3.19453 0
M  V30 4357 C 396.964 0.624029 -4.27469 0
M  V30 4358 C 396.099 1.65563 -5.0474 0
M  V30 4359 C 395.138 0.956802 -6.04576 0
M  V30 4360 N 394.275 1.93326 -6.74959 0
M  V30 4361 H 399.115 -0.436607 -2.94784 0
M  V30 4362 H 396.652 -0.227154 -1.45336 0
M  V30 4363 H 398.61 1.92639 -3.70062 0
M  V30 4364 H 397.24 1.96626 -2.56004 0
M  V30 4365 H 396.292 -0.110459 -3.8024 0
M  V30 4366 H 397.604 0.0746092 -4.98744 0
M  V30 4367 H 396.758 2.35119 -5.59289 0
M  V30 4368 H 395.497 2.23893 -4.3327 0
M  V30 4369 H 394.502 0.247097 -5.49244 0
M  V30 4370 H 395.727 0.379814 -6.78037 0
M  V30 4371 H 393.673 2.50591 -6.06251 0
M  V30 4372 H 393.59 1.43489 -7.42258 0
M  V30 4373 H 394.858 2.62126 -7.34105 0
M  V30 4374 N 399.087 1.5561 -0.249682 0
M  V30 4375 C 400.503 1.59254 0.105103 0
M  V30 4376 C 400.703 1.26685 1.56694 0
M  V30 4377 O 399.759 1.0155 2.31179 0
M  V30 4378 C 401.072 2.99687 -0.246592 0
M  V30 4379 C 402.62 3.12416 -0.191118 0
M  V30 4380 C 403.095 4.55074 -0.516885 0
M  V30 4381 N 404.586 4.60835 -0.467489 0
M  V30 4382 C 405.321 5.69201 -0.69268 0
M  V30 4383 N 404.817 6.85817 -0.981146 0
M  V30 4384 N 406.61 5.58635 -0.623198 0
M  V30 4385 H 398.761 1.75049 -1.20298 0
M  V30 4386 H 401.024 0.815003 -0.484225 0
M  V30 4387 H 400.73 3.28267 -1.26228 0
M  V30 4388 H 400.604 3.74798 0.424962 0
M  V30 4389 H 402.991 2.83615 0.815247 0
M  V30 4390 H 403.072 2.39573 -0.896563 0
M  V30 4391 H 402.716 4.84596 -1.52082 0
M  V30 4392 H 402.646 5.26181 0.210068 0
M  V30 4393 H 405.137 3.7705 -0.253373 0
M  V30 4394 H 405.45 7.64341 -1.14032 0
M  V30 4395 H 403.795 6.87494 -1.01865 0
M  V30 4396 H 406.986 4.66406 -0.397863 0
M  V30 4397 H 407.159 6.43017 -0.802093 0
M  V30 4398 N 400.565 -0.0233959 1.57583 0
M  V30 4399 C 401.513 -1.04063 2.08023 0
M  V30 4400 C 402.507 -1.37084 0.995204 0
M  V30 4401 O 403.713 -1.35923 1.18004 0
M  V30 4402 H 400.088 -0.353144 0.663922 0
M  V30 4403 H 402.059 -0.589453 2.9252 0
M  V30 4404 C 400.808 -2.33123 2.57971 0
M  V30 4405 H 400.131 -2.08577 3.4108 0
M  V30 4406 H 401.571 -3.02632 2.96967 0
M  V30 4407 C 400.03 -3.02483 1.48342 0
M  V30 4408 O 400.56 -3.92541 0.852898 0
M  V30 4409 N 398.766 -2.63909 1.21658 0
M  V30 4410 H 398.313 -1.90758 1.73116 0
M  V30 4411 H 398.271 -3.10633 0.485218 0
M  V30 4412 N 402.043 -1.548 -0.295768 0
M  V30 4413 C 403.271 -1.78327 -1.04914 0
M  V30 4414 C 403.686 -0.545316 -1.80753 0
M  V30 4415 O 403.043 0.485013 -1.75937 0
M  V30 4416 C 403.094 -2.99418 -2.02561 0
M  V30 4417 O 402.815 -4.18431 -1.29798 0
M  V30 4418 C 404.316 -3.35375 -2.89895 0
M  V30 4419 H 401.536 -0.594618 -0.310918 0
M  V30 4420 H 404.08 -2.01763 -0.333454 0
M  V30 4421 H 402.235 -2.78175 -2.69624 0
M  V30 4422 H 402.649 -4.86736 -1.95419 0
M  V30 4423 H 404.123 -4.23332 -3.54251 0
M  V30 4424 H 404.6 -2.53761 -3.58472 0
M  V30 4425 H 405.206 -3.58796 -2.28355 0
M  V30 4426 N 403.521 0.559213 -1.47345 0
M  V30 4427 C 404.932 1.14134 -1.47751 0
M  V30 4428 C 405.283 1.94834 -0.231103 0
M  V30 4429 O 404.408 2.05957 0.664137 0
M  V30 4430 C 405.003 2.07653 -2.67705 0
M  V30 4431 C 403.562 2.61141 -2.71076 0
M  V30 4432 C 402.709 1.3748 -2.40821 0
M  V30 4433 H 405.66 0.345917 -1.54884 0
M  V30 4434 H 405.681 2.91497 -2.44561 0
M  V30 4435 H 405.193 1.4889 -3.58404 0
M  V30 4436 H 403.294 3.23707 -1.84511 0
M  V30 4437 H 403.407 3.02272 -3.7171 0
M  V30 4438 H 401.771 1.68086 -1.91362 0
M  V30 4439 H 402.554 0.805135 -3.33725 0
M  V30 4440 N 404.999 1.35443 0.805782 0
M  V30 4441 C 406.248 1.28097 1.55801 0
M  V30 4442 C 406.561 -0.142428 1.95081 0
M  V30 4443 O 407.767 -0.33817 2.69386 0
M  V30 4444 C 406.223 2.24653 2.81174 0
M  V30 4445 C 405.831 3.72342 2.49129 0
M  V30 4446 C 407.575 2.2625 3.59181 0
M  V30 4447 C 405.482 4.60719 3.70799 0
M  V30 4448 H 404.412 0.475937 0.584808 0
M  V30 4449 H 407.063 1.60712 0.885661 0
M  V30 4450 H 405.445 1.85011 3.50124 0
M  V30 4451 H 406.619 4.20624 1.88181 0
M  V30 4452 H 404.934 3.73361 1.84366 0
M  V30 4453 H 407.531 2.89495 4.49552 0
M  V30 4454 H 407.874 1.26647 3.96568 0
M  V30 4455 H 408.407 2.64426 2.97193 0
M  V30 4456 H 405.146 5.61324 3.3852 0
M  V30 4457 H 404.666 4.17163 4.3097 0
M  V30 4458 H 406.345 4.76182 4.38018 0
M  V30 4459 N 406.477 -1.02803 1.19454 0
M  V30 4460 C 407.387 -2.14575 0.948408 0
M  V30 4461 C 408.403 -1.73757 -0.091871 0
M  V30 4462 O 409.579 -2.01185 0.0929654 0
M  V30 4463 C 406.644 -3.43202 0.491265 0
M  V30 4464 C 405.705 -3.98328 1.60103 0
M  V30 4465 C 404.938 -5.20816 1.16561 0
M  V30 4466 O 405.161 -5.70392 0.0295238 0
M  V30 4467 O 404.095 -5.68801 1.96849 0
M  V30 4468 H 407.921 -2.38202 1.88397 0
M  V30 4469 H 405.506 -1.12989 0.977433 0
M  V30 4470 H 407.388 -4.20687 0.245015 0
M  V30 4471 H 406.063 -3.21018 -0.415851 0
M  V30 4472 H 404.97 -3.22174 1.90144 0
M  V30 4473 H 406.303 -4.24879 2.48473 0
M  V30 4474 N 407.956 -0.998596 -1.21925 0
M  V30 4475 C 408.919 -0.558679 -2.22287 0
M  V30 4476 C 409.919 0.361525 -1.56683 0
M  V30 4477 O 411.109 0.152695 -1.73529 0
M  V30 4478 C 408.241 0.18661 -3.40389 0
M  V30 4479 H 409.434 -1.4463 -2.62721 0
M  V30 4480 H 406.987 -0.786413 -1.35075 0
M  V30 4481 H 407.722 1.08996 -3.05435 0
M  V30 4482 H 407.507 -0.474188 -3.89222 0
M  V30 4483 H 408.997 0.482367 -4.14805 0
M  V30 4484 N 409.434 1.37368 -0.772513 0
M  V30 4485 C 410.364 2.32856 -0.173304 0
M  V30 4486 C 411.345 1.55818 0.682262 0
M  V30 4487 O 412.53 1.84052 0.619566 0
M  V30 4488 C 409.66 3.40048 0.706007 0
M  V30 4489 C 408.614 4.27973 -0.0483144 0
M  V30 4490 C 407.94 5.26184 0.950491 0
M  V30 4491 C 409.24 5.07665 -1.22776 0
M  V30 4492 H 410.934 2.83217 -0.971002 0
M  V30 4493 H 408.48 1.3617 -0.468377 0
M  V30 4494 H 410.433 4.05827 1.13501 0
M  V30 4495 H 409.157 2.88214 1.53623 0
M  V30 4496 H 407.816 3.63726 -0.458107 0
M  V30 4497 H 407.464 4.7063 1.77529 0
M  V30 4498 H 407.164 5.85872 0.450314 0
M  V30 4499 H 408.688 5.94838 1.37842 0
M  V30 4500 H 410.102 5.66578 -0.875366 0
M  V30 4501 H 408.499 5.76681 -1.66007 0
M  V30 4502 H 409.569 4.40294 -2.03149 0
M  V30 4503 N 410.912 0.523116 1.48665 0
M  V30 4504 C 412.152 -0.0115588 2.04397 0
M  V30 4505 C 412.516 -1.32225 1.39214 0
M  V30 4506 O 413.717 -1.94253 1.85793 0
M  V30 4507 C 411.988 -0.138119 3.57133 0
M  V30 4508 S 413.547 -0.623849 4.34343 0
M  V30 4509 H 410.365 0.00877706 0.710946 0
M  V30 4510 H 412.967 0.702116 1.82457 0
M  V30 4511 H 411.671 0.820748 4.02109 0
M  V30 4512 H 411.202 -0.876377 3.83514 0
M  V30 4513 H 413.217 -1.8895 4.58816 0
M  V30 4514 N 412.39 -1.55475 0.257931 0
M  V30 4515 C 413.3 -2.2549 -0.647425 0
M  V30 4516 C 414.316 -1.2748 -1.18427 0
M  V30 4517 O 415.492 -1.6038 -1.2182 0
M  V30 4518 C 412.557 -2.94916 -1.82278 0
M  V30 4519 C 411.618 -4.08363 -1.32432 0
M  V30 4520 C 410.851 -4.74469 -2.44366 0
M  V30 4521 O 411.074 -4.39701 -3.63344 0
M  V30 4522 O 410.008 -5.62763 -2.13497 0
M  V30 4523 H 413.834 -3.03593 -0.0807707 0
M  V30 4524 H 411.419 -1.49377 0.0259962 0
M  V30 4525 H 413.301 -3.38606 -2.50846 0
M  V30 4526 H 411.976 -2.19744 -2.37685 0
M  V30 4527 H 410.883 -3.69166 -0.605605 0
M  V30 4528 H 412.216 -4.85385 -0.816211 0
M  V30 4529 N 413.868 0.0150385 -1.57593 0
M  V30 4530 C 414.816 1.02958 -2.08572 0
M  V30 4531 C 415.81 1.36554 -1.00246 0
M  V30 4532 O 417.016 1.35295 -1.18724 0
M  V30 4533 H 413.391 0.349619 -0.665786 0
M  V30 4534 H 415.362 0.573932 -2.92829 0
M  V30 4535 C 414.111 2.31752 -2.59203 0
M  V30 4536 H 413.434 2.06765 -3.42182 0
M  V30 4537 H 414.874 3.01053 -2.98568 0
M  V30 4538 C 413.333 3.01692 -1.49945 0
M  V30 4539 O 413.863 3.92083 -0.873704 0
M  V30 4540 N 412.069 2.6326 -1.23056 0
M  V30 4541 H 411.616 1.89838 -1.74125 0
M  V30 4542 H 411.574 3.10372 -0.501685 0
M  V30 4543 N 415.346 1.54954 0.287554 0
M  V30 4544 C 416.593 1.74873 1.02106 0
M  V30 4545 C 416.921 0.541829 1.86801 0
M  V30 4546 O 416.176 -0.475992 1.89823 0
M  V30 4547 C 416.475 2.99833 1.94512 0
M  V30 4548 C 416.141 4.33029 1.25686 0
M  V30 4549 C 414.803 4.69233 1.06649 0
M  V30 4550 C 417.155 5.15542 0.765913 0
M  V30 4551 C 414.483 5.85518 0.372222 0
M  V30 4552 C 416.835 6.32542 0.0853101 0
M  V30 4553 C 415.499 6.67398 -0.1169 0
M  V30 4554 H 414.769 0.639906 0.373632 0
M  V30 4555 H 417.416 1.89219 0.294665 0
M  V30 4556 H 415.721 2.80325 2.73725 0
M  V30 4557 H 417.418 3.1244 2.51361 0
M  V30 4558 H 414.008 4.04564 1.41512 0
M  V30 4559 H 418.192 4.88059 0.90066 0
M  V30 4560 H 413.448 6.11057 0.204695 0
M  V30 4561 H 417.622 6.95741 -0.302936 0
M  V30 4562 H 415.249 7.57357 -0.656859 0
M  V30 4563 N 416.824 -0.551391 1.4764 0
M  V30 4564 C 418.235 -1.13349 1.48354 0
M  V30 4565 C 418.586 -1.94709 0.241432 0
M  V30 4566 O 417.711 -2.06306 -0.653205 0
M  V30 4567 C 418.306 -2.0623 2.68802 0
M  V30 4568 C 416.865 -2.597 2.72457 0
M  V30 4569 C 416.012 -1.36201 2.41546 0
M  V30 4570 H 418.963 -0.337698 1.55065 0
M  V30 4571 H 418.984 -2.90196 2.46103 0
M  V30 4572 H 418.496 -1.46987 3.59188 0
M  V30 4573 H 416.597 -3.22724 1.86225 0
M  V30 4574 H 416.71 -3.00296 3.73308 0
M  V30 4575 H 415.074 -1.67068 1.9225 0
M  V30 4576 H 415.857 -0.787425 3.34147 0
M  V30 4577 N 418.302 -1.35869 -0.798587 0
M  V30 4578 C 419.212 -1.31578 -1.94228 0
M  V30 4579 C 420.228 -0.21939 -1.72611 0
M  V30 4580 O 421.404 -0.450167 -1.96305 0
M  V30 4581 C 418.469 -1.09528 -3.28944 0
M  V30 4582 C 417.53 -2.28556 -3.63402 0
M  V30 4583 C 416.763 -2.07549 -4.9169 0
M  V30 4584 O 416.986 -1.046 -5.60727 0
M  V30 4585 O 415.92 -2.95106 -5.24591 0
M  V30 4586 H 419.746 -2.27847 -2.00796 0
M  V30 4587 H 417.331 -1.16322 -0.937526 0
M  V30 4588 H 419.213 -0.991127 -4.09579 0
M  V30 4589 H 417.888 -0.16315 -3.23289 0
M  V30 4590 H 416.795 -2.44538 -2.83112 0
M  V30 4591 H 418.128 -3.20244 -3.73771 0
M  V30 4592 N 419.78 1.02168 -1.19998 0
M  V30 4593 C 420.69 2.14069 -0.959774 0
M  V30 4594 C 421.706 1.73804 0.082655 0
M  V30 4595 O 422.882 2.01133 -0.103633 0
M  V30 4596 C 419.947 3.42936 -0.509459 0
M  V30 4597 C 419.008 3.97474 -1.62213 0
M  V30 4598 C 418.241 5.2019 -1.19321 0
M  V30 4599 O 418.464 5.70369 -0.0597726 0
M  V30 4600 O 417.398 5.67749 -1.99863 0
M  V30 4601 H 421.224 2.37199 -1.89658 0
M  V30 4602 H 418.809 1.12469 -0.983411 0
M  V30 4603 H 420.691 4.20551 -0.267322 0
M  V30 4604 H 419.366 3.21234 0.398821 0
M  V30 4605 H 418.273 3.21161 -1.9185 0
M  V30 4606 H 419.606 4.23555 -2.50723 0
M  V30 4607 N 421.258 1.00505 1.21394 0
M  V30 4608 C 422.191 0.51032 2.22421 0
M  V30 4609 C 423.169 -0.436 1.56645 0
M  V30 4610 O 424.353 -0.358709 1.85055 0
M  V30 4611 C 421.48 -0.258733 3.3771 0
M  V30 4612 C 420.526 0.635395 4.2174 0
M  V30 4613 S 421.359 2.09783 4.92698 0
M  V30 4614 C 422.515 1.33862 6.11418 0
M  V30 4615 H 422.748 1.36637 2.64041 0
M  V30 4616 H 420.281 0.812991 1.31262 0
M  V30 4617 H 422.239 -0.696372 4.0455 0
M  V30 4618 H 420.9 -1.0902 2.94573 0
M  V30 4619 H 420.093 0.0430189 5.03982 0
M  V30 4620 H 419.695 1.01031 3.60095 0
M  V30 4621 H 421.987 0.612541 6.74725 0
M  V30 4622 H 422.93 2.13675 6.75092 0
M  V30 4623 H 423.338 0.846568 5.58116 0
M  V30 4624 N 422.737 -1.36956 0.779787 0
M  V30 4625 C 423.7 -2.2851 0.177662 0
M  V30 4626 C 424.7 -1.48393 -0.619377 0
M  V30 4627 O 425.89 -1.68505 -0.441785 0
M  V30 4628 C 423.022 -3.32428 -0.755279 0
M  V30 4629 H 424.215 -2.83269 0.984823 0
M  V30 4630 H 421.768 -1.46358 0.548544 0
M  V30 4631 H 422.503 -2.82808 -1.58714 0
M  V30 4632 H 422.288 -3.91659 -0.185817 0
M  V30 4633 H 423.778 -4.00824 -1.17174 0
M  V30 4634 N 424.215 -0.530993 -1.48385 0
M  V30 4635 C 425.443 -0.00134122 -2.069 0
M  V30 4636 C 425.858 1.2805 -1.3874 0
M  V30 4637 O 425.215 1.76204 -0.475244 0
M  V30 4638 C 425.266 0.225256 -3.60798 0
M  V30 4639 O 424.987 -1.0058 -4.26398 0
M  V30 4640 C 426.488 0.795172 -4.3611 0
M  V30 4641 H 423.708 -0.0339704 -0.67014 0
M  V30 4642 H 426.252 -0.736926 -1.90761 0
M  V30 4643 H 424.407 0.910891 -3.76539 0
M  V30 4644 H 424.821 -0.787165 -5.1856 0
M  V30 4645 H 426.295 0.903143 -5.44562 0
M  V30 4646 H 426.772 1.80031 -4.00606 0
M  V30 4647 H 427.378 0.146069 -4.25049 0
M  V30 4648 N 425.693 1.55336 -0.266172 0
M  V30 4649 C 426.923 2.03506 0.356239 0
M  V30 4650 C 427.331 1.14426 1.50676 0
M  V30 4651 O 426.674 0.155043 1.83045 0
M  V30 4652 C 426.736 3.47848 0.90785 0
M  V30 4653 C 426.4 4.56861 -0.112888 0
M  V30 4654 C 427.397 5.11528 -0.929264 0
M  V30 4655 C 425.082 5.01704 -0.244546 0
M  V30 4656 C 427.076 6.09549 -1.86357 0
M  V30 4657 C 424.763 5.99553 -1.18234 0
M  V30 4658 C 425.761 6.53356 -1.99036 0
M  V30 4659 O 425.449 7.49293 -2.91231 0
M  V30 4660 H 425.181 0.670444 0.08649 0
M  V30 4661 H 427.735 2.01598 -0.39337 0
M  V30 4662 H 425.965 3.46967 1.70737 0
M  V30 4663 H 427.654 3.79407 1.44239 0
M  V30 4664 H 428.42 4.77701 -0.838237 0
M  V30 4665 H 424.299 4.59477 0.374359 0
M  V30 4666 H 427.843 6.51469 -2.49467 0
M  V30 4667 H 423.74 6.32799 -1.27421 0
M  V30 4668 H 424.508 7.66978 -2.8581 0
M  V30 4669 N 427.171 -0.0066808 1.57599 0
M  V30 4670 C 428.101 -0.999296 2.11036 0
M  V30 4671 C 429.082 -1.36278 1.01795 0
M  V30 4672 O 430.267 -1.4477 1.29442 0
M  V30 4673 C 427.397 -2.29328 2.60818 0
M  V30 4674 C 426.351 -2.07159 3.74525 0
M  V30 4675 C 425.677 -3.42512 4.10596 0
M  V30 4676 C 426.977 -1.43959 5.02069 0
M  V30 4677 H 428.671 -0.554382 2.94223 0
M  V30 4678 H 426.217 -0.265221 1.41536 0
M  V30 4679 H 428.17 -2.99117 2.96828 0
M  V30 4680 H 426.894 -2.7592 1.74745 0
M  V30 4681 H 425.553 -1.39797 3.38899 0
M  V30 4682 H 425.201 -3.86795 3.21556 0
M  V30 4683 H 424.901 -3.28498 4.87199 0
M  V30 4684 H 426.425 -4.13628 4.4916 0
M  V30 4685 H 427.839 -2.03696 5.35893 0
M  V30 4686 H 426.236 -1.40452 5.83432 0
M  V30 4687 H 427.306 -0.407992 4.83181 0
M  V30 4688 N 428.649 -1.55105 -0.279332 0
M  V30 4689 C 430.065 -1.46803 -0.626187 0
M  V30 4690 C 430.265 -0.676939 -1.89789 0
M  V30 4691 O 429.321 -0.19326 -2.51759 0
M  V30 4692 C 430.634 -2.90962 -0.759034 0
M  V30 4693 C 432.182 -3.01138 -0.853504 0
M  V30 4694 C 432.657 -4.46539 -1.01818 0
M  V30 4695 N 434.148 -4.50341 -1.08386 0
M  V30 4696 C 434.883 -5.60053 -1.22996 0
M  V30 4697 N 434.379 -6.79645 -1.34366 0
M  V30 4698 N 436.172 -5.47783 -1.26056 0
M  V30 4699 H 428.323 -2.04996 0.555921 0
M  V30 4700 H 430.586 -0.929325 0.187239 0
M  V30 4701 H 430.292 -3.51544 0.104852 0
M  V30 4702 H 430.166 -3.39619 -1.64131 0
M  V30 4703 H 432.553 -2.40658 -1.70786 0
M  V30 4704 H 432.634 -2.55745 0.0532466 0
M  V30 4705 H 432.278 -5.0762 -0.168504 0
M  V30 4706 H 432.208 -4.89583 -1.93948 0
M  V30 4707 H 434.699 -3.64191 -1.00864 0
M  V30 4708 H 435.012 -7.59012 -1.4533 0
M  V30 4709 H 433.357 -6.82469 -1.31382 0
M  V30 4710 H 436.548 -4.53294 -1.168 0
M  V30 4711 H 436.721 -6.33331 -1.37098 0
M  V30 4712 N 430.127 0.543554 -1.4793 0
M  V30 4713 C 431.357 1.32324 -1.58663 0
M  V30 4714 C 431.765 1.8766 -0.240896 0
M  V30 4715 O 431.108 1.66411 0.778011 0
M  V30 4716 C 431.17 2.52094 -2.56299 0
M  V30 4717 C 430.834 2.17944 -4.01683 0
M  V30 4718 C 431.831 1.74422 -4.89768 0
M  V30 4719 C 429.516 2.28884 -4.47121 0
M  V30 4720 C 431.51 1.42287 -6.21316 0
M  V30 4721 C 429.197 1.96361 -5.78693 0
M  V30 4722 C 430.195 1.53132 -6.65612 0
M  V30 4723 O 429.883 1.21029 -7.94737 0
M  V30 4724 H 429.615 0.409174 -0.538101 0
M  V30 4725 H 432.169 0.663887 -1.94375 0
M  V30 4726 H 430.399 3.20965 -2.15681 0
M  V30 4727 H 432.088 3.14165 -2.57012 0
M  V30 4728 H 432.854 1.65452 -4.55907 0
M  V30 4729 H 428.733 2.61488 -3.79664 0
M  V30 4730 H 432.277 1.08472 -6.89115 0
M  V30 4731 H 428.174 2.04967 -6.12094 0
M  V30 4732 H 428.942 1.34543 -8.07366 0
M  V30 4733 N 431.605 1.3629 0.791371 0
M  V30 4734 C 432.851 1.30605 1.55146 0
M  V30 4735 C 433.184 -0.115042 1.93859 0
M  V30 4736 O 432.459 -1.06798 1.62556 0
M  V30 4737 C 432.742 2.22692 2.82985 0
M  V30 4738 C 432.595 3.73489 2.50651 0
M  V30 4739 C 433.914 2.13588 3.84796 0
M  V30 4740 H 431.033 0.475761 0.562868 0
M  V30 4741 H 433.675 1.66825 0.909358 0
M  V30 4742 H 431.825 1.91933 3.37778 0
M  V30 4743 H 433.497 4.14758 2.01924 0
M  V30 4744 H 431.74 3.93021 1.83622 0
M  V30 4745 H 432.411 4.3333 3.41949 0
M  V30 4746 H 434.887 2.40659 3.39445 0
M  V30 4747 H 433.763 2.80195 4.71998 0
M  V30 4748 H 434.024 1.12256 4.27611 0
M  V30 4749 N 433.083 -1.0153 1.20538 0
M  V30 4750 C 434.499 -1.27461 0.96051 0
M  V30 4751 C 434.699 -1.98273 -0.359193 0
M  V30 4752 O 433.755 -2.27886 -1.0874 0
M  V30 4753 C 435.068 -2.10837 2.14402 0
M  V30 4754 C 436.616 -2.24099 2.18515 0
M  V30 4755 C 437.091 -3.10852 3.36355 0
M  V30 4756 N 438.582 -3.18441 3.36377 0
M  V30 4757 C 439.317 -3.85795 4.24205 0
M  V30 4758 N 438.813 -4.55264 5.22213 0
M  V30 4759 N 440.606 -3.82331 4.12043 0
M  V30 4760 H 432.757 -0.539907 2.05423 0
M  V30 4761 H 435.02 -0.30092 0.898972 0
M  V30 4762 H 434.726 -1.66144 3.09983 0
M  V30 4763 H 434.6 -3.11576 2.12604 0
M  V30 4764 H 436.987 -2.68016 1.23497 0
M  V30 4765 H 437.068 -1.22865 2.24361 0
M  V30 4766 H 436.712 -2.6764 4.31661 0
M  V30 4767 H 436.642 -4.12177 3.27746 0
M  V30 4768 H 439.133 -2.68978 2.65442 0
M  V30 4769 H 439.446 -5.04331 5.85551 0
M  V30 4770 H 437.791 -4.54085 5.26148 0
M  V30 4771 H 440.982 -3.27207 3.34743 0
M  V30 4772 H 441.155 -4.34547 4.807 0
M  V30 4773 N 434.561 -1.01147 -1.20859 0
M  V30 4774 C 435.977 -0.725422 -1.42161 0
M  V30 4775 C 436.177 0.696919 -1.89064 0
M  V30 4776 O 435.233 1.46539 -2.05627 0
M  V30 4777 C 436.546 -1.74678 -2.44761 0
M  V30 4778 C 438.094 -1.76433 -2.58535 0
M  V30 4779 C 438.569 -2.77481 -3.64374 0
M  V30 4780 N 440.06 -2.76189 -3.71852 0
M  V30 4781 C 440.795 -3.51035 -4.53389 0
M  V30 4782 N 440.291 -4.35541 -5.38773 0
M  V30 4783 N 442.084 -3.39655 -4.47873 0
M  V30 4784 H 434.235 -1.92979 -0.887282 0
M  V30 4785 H 436.498 -0.833327 -0.451962 0
M  V30 4786 H 436.204 -2.76551 -2.17285 0
M  V30 4787 H 436.078 -1.55472 -3.43669 0
M  V30 4788 H 438.465 -0.75248 -2.85345 0
M  V30 4789 H 438.546 -1.99712 -1.5984 0
M  V30 4790 H 438.19 -3.78827 -3.38308 0
M  V30 4791 H 438.12 -2.51466 -4.6268 0
M  V30 4792 H 440.611 -2.14885 -3.10858 0
M  V30 4793 H 440.924 -4.89432 -5.98061 0
M  V30 4794 H 439.269 -4.39621 -5.38292 0
M  V30 4795 H 442.46 -2.73063 -3.80203 0
M  V30 4796 H 442.633 -3.9824 -5.11184 0
M  V30 4797 N 436.039 1.36541 -0.78704 0
M  V30 4798 C 436.969 2.32659 -0.197992 0
M  V30 4799 C 437.95 1.56533 0.665697 0
M  V30 4800 O 439.135 1.84698 0.60001 0
M  V30 4801 C 436.265 3.40778 0.669901 0
M  V30 4802 C 435.219 4.27897 -0.0937039 0
M  V30 4803 C 434.545 5.27163 0.894629 0
M  V30 4804 C 435.845 5.06334 -1.28154 0
M  V30 4805 H 437.539 2.82171 -1.00099 0
M  V30 4806 H 435.085 1.35665 -0.482793 0
M  V30 4807 H 437.038 4.07008 1.09191 0
M  V30 4808 H 435.762 2.89827 1.50558 0
M  V30 4809 H 434.421 3.6322 -0.49666 0
M  V30 4810 H 434.069 4.72486 1.72527 0
M  V30 4811 H 433.769 5.86317 0.388149 0
M  V30 4812 H 435.293 5.96266 1.31525 0
M  V30 4813 H 436.707 5.65617 -0.93541 0
M  V30 4814 H 435.104 5.74888 -1.72115 0
M  V30 4815 H 436.174 4.38114 -2.07807 0
M  V30 4816 N 437.518 0.538854 1.48102 0
M  V30 4817 C 438.795 -0.0568108 1.95517 0
M  V30 4818 C 439.175 -1.50408 1.48124 0
M  V30 4819 O 438.523 -2.17133 0.711727 0
M  V30 4820 C 438.733 0.0696262 3.48931 0
M  V30 4821 C 440.081 -0.0851202 4.24515 0
M  V30 4822 O 441.105 -0.0037347 3.562 0
M  V30 4823 O 439.964 -0.257025 5.45895 0
M  V30 4824 H 437.058 -0.0743695 0.823649 0
M  V30 4825 H 439.604 0.604081 1.58584 0
M  V30 4826 H 438.376 1.07744 3.76174 0
M  V30 4827 H 437.999 -0.629714 3.92582 0
M  V30 4828 N 438.996 -1.55193 0.274407 0
M  V30 4829 C 440.243 -1.99581 -0.342579 0
M  V30 4830 C 440.571 -1.1628 -1.55914 0
M  V30 4831 O 439.826 -0.22029 -1.94456 0
M  V30 4832 C 440.125 -3.49019 -0.769458 0
M  V30 4833 C 439.791 -4.49598 0.342389 0
M  V30 4834 C 438.453 -4.76821 0.647686 0
M  V30 4835 C 440.805 -5.0964 1.09163 0
M  V30 4836 C 438.133 -5.61354 1.70581 0
M  V30 4837 C 440.485 -5.95323 2.13948 0
M  V30 4838 C 439.149 -6.20867 2.45113 0
M  V30 4839 H 438.419 -0.730319 -0.125358 0
M  V30 4840 H 441.066 -1.87529 0.387971 0
M  V30 4841 H 439.371 -3.58544 -1.57967 0
M  V30 4842 H 441.068 -3.8077 -1.25757 0
M  V30 4843 H 437.658 -4.28496 0.094318 0
M  V30 4844 H 441.842 -4.88632 0.869024 0
M  V30 4845 H 437.098 -5.79392 1.9523 0
M  V30 4846 H 441.272 -6.40881 2.72478 0
M  V30 4847 H 438.899 -6.86162 3.27239 0
M  V30 4848 N 440.474 -0.00167713 -1.576 0
M  V30 4849 C 441.721 0.68282 -1.90641 0
M  V30 4850 C 442.049 1.73686 -0.875415 0
M  V30 4851 O 441.304 1.95334 0.119575 0
M  V30 4852 C 441.603 1.36189 -3.30435 0
M  V30 4853 C 441.269 0.440887 -4.48739 0
M  V30 4854 C 439.931 0.187312 -4.80835 0
M  V30 4855 C 442.283 -0.193134 -5.20842 0
M  V30 4856 C 439.611 -0.70855 -5.82406 0
M  V30 4857 C 441.963 -1.07688 -6.23367 0
M  V30 4858 C 440.627 -1.33962 -6.53919 0
M  V30 4859 H 439.897 0.249862 -0.697603 0
M  V30 4860 H 442.544 -0.0575642 -1.91413 0
M  V30 4861 H 440.849 2.17636 -3.25794 0
M  V30 4862 H 442.546 1.89759 -3.5326 0
M  V30 4863 H 439.136 0.648694 -4.23663 0
M  V30 4864 H 443.32 -0.0102445 -4.96299 0
M  V30 4865 H 438.576 -0.920097 -6.04437 0
M  V30 4866 H 442.75 -1.57451 -6.78367 0
M  V30 4867 H 440.377 -2.03549 -7.32442 0
M  V30 4868 N 441.952 1.55251 0.271103 0
M  V30 4869 C 442.862 1.9136 1.35714 0
M  V30 4870 C 443.878 0.811075 1.5394 0
M  V30 4871 O 445.054 1.11031 1.6803 0
M  V30 4872 C 442.119 2.1798 2.69603 0
M  V30 4873 C 441.18 3.4153 2.60107 0
M  V30 4874 C 440.413 3.66871 3.8761 0
M  V30 4875 O 440.636 2.94689 4.8838 0
M  V30 4876 O 439.57 4.60405 3.87699 0
M  V30 4877 H 443.396 2.83815 1.08088 0
M  V30 4878 H 440.981 1.41821 0.469792 0
M  V30 4879 H 442.863 2.36518 3.48765 0
M  V30 4880 H 441.538 1.28708 2.97012 0
M  V30 4881 H 440.445 3.28325 1.79314 0
M  V30 4882 H 441.778 4.31027 2.37647 0
M  V30 4883 N 443.43 -0.535701 1.48216 0
M  V30 4884 C 444.377 -1.64083 1.62312 0
M  V30 4885 C 445.347 -1.59448 0.465365 0
M  V30 4886 O 446.532 -1.77959 0.688135 0
M  V30 4887 C 443.672 -3.0236 1.66349 0
M  V30 4888 C 442.785 -3.17273 2.93193 0
M  V30 4889 C 441.92 -4.46075 2.88427 0
M  V30 4890 C 440.959 -4.54496 4.1 0
M  V30 4891 N 440.096 -5.7468 4.03345 0
M  V30 4892 H 444.936 -1.51374 2.5669 0
M  V30 4893 H 442.473 -0.737059 1.27302 0
M  V30 4894 H 444.431 -3.82461 1.66672 0
M  V30 4895 H 443.061 -3.13854 0.754672 0
M  V30 4896 H 442.113 -2.30462 3.02641 0
M  V30 4897 H 443.425 -3.19357 3.83162 0
M  V30 4898 H 442.579 -5.3446 2.87119 0
M  V30 4899 H 441.318 -4.46504 1.96177 0
M  V30 4900 H 440.323 -3.64519 4.11589 0
M  V30 4901 H 441.548 -4.5581 5.03402 0
M  V30 4902 H 439.494 -5.76017 3.13912 0
M  V30 4903 H 439.411 -5.78234 4.87013 0
M  V30 4904 H 440.679 -6.65367 4.06087 0
M  V30 4905 N 444.908 -1.36708 -0.784132 0
M  V30 4906 C 446.319 -1.27947 -1.35965 0
M  V30 4907 C 446.67 0.0784013 -1.96043 0
M  V30 4908 O 445.795 0.979989 -1.92938 0
M  V30 4909 C 446.39 -2.31689 -2.47195 0
M  V30 4910 C 444.949 -2.26601 -3.00548 0
M  V30 4911 C 444.096 -2.16184 -1.73666 0
M  V30 4912 H 447.047 -1.4751 -0.585358 0
M  V30 4913 H 447.068 -1.95638 -3.26352 0
M  V30 4914 H 446.58 -3.30506 -2.03439 0
M  V30 4915 H 444.681 -1.31268 -3.48711 0
M  V30 4916 H 444.794 -3.19508 -3.57004 0
M  V30 4917 H 443.158 -1.62524 -1.96107 0
M  V30 4918 H 443.941 -3.16896 -1.32031 0
M  V30 4919 N 446.386 1.0089 -1.21074 0
M  V30 4920 C 447.663 1.71834 -0.934469 0
M  V30 4921 C 448.043 2.0368 0.554753 0
M  V30 4922 O 447.391 1.70742 1.51854 0
M  V30 4923 C 447.601 2.98061 -1.8155 0
M  V30 4924 C 448.949 3.7117 -2.06199 0
M  V30 4925 O 449.973 3.08034 -1.78867 0
M  V30 4926 O 448.832 4.84721 -2.52404 0
M  V30 4927 H 445.926 0.749253 -0.35007 0
M  V30 4928 H 448.472 1.06668 -1.31985 0
M  V30 4929 H 447.244 2.70908 -2.82355 0
M  V30 4930 H 446.867 3.70968 -1.43068 0
M  V30 4931 N 447.864 1.01787 1.20321 0
M  V30 4932 C 449.094 0.72614 1.93419 0
M  V30 4933 C 449.502 -0.717317 1.75075 0
M  V30 4934 O 448.845 -1.49836 1.06278 0
M  V30 4935 C 448.907 0.983621 3.45782 0
M  V30 4936 C 448.571 2.41645 3.87888 0
M  V30 4937 C 449.568 3.39732 3.93545 0
M  V30 4938 C 447.253 2.75752 4.19841 0
M  V30 4939 C 449.247 4.69988 4.30569 0
M  V30 4940 C 446.934 4.06221 4.56539 0
M  V30 4941 C 447.932 5.0315 4.61876 0
M  V30 4942 O 447.62 6.31284 4.97731 0
M  V30 4943 H 447.352 0.265824 0.621541 0
M  V30 4944 H 449.906 1.3623 1.53722 0
M  V30 4945 H 448.136 0.290301 3.85609 0
M  V30 4946 H 449.825 0.683279 4.00108 0
M  V30 4947 H 450.591 3.14718 3.69022 0
M  V30 4948 H 446.47 2.00993 4.14877 0
M  V30 4949 H 450.014 5.45642 4.3465 0
M  V30 4950 H 445.911 4.31013 4.80518 0
M  V30 4951 H 446.679 6.35591 5.15719 0
M  V30 4952 N 449.342 -1.36122 0.79427 0
M  V30 4953 C 450.252 -2.33769 0.197296 0
M  V30 4954 C 451.268 -1.61276 -0.653153 0
M  V30 4955 O 452.444 -1.9323 -0.5678 0
M  V30 4956 C 449.509 -3.40474 -0.654098 0
M  V30 4957 C 448.57 -4.28759 0.215411 0
M  V30 4958 C 447.803 -5.30368 -0.595443 0
M  V30 4959 O 448.026 -5.40211 -1.83107 0
M  V30 4960 O 446.96 -6.019 0.00721351 0
M  V30 4961 H 450.786 -2.86597 1.00478 0
M  V30 4962 H 448.371 -1.38676 0.555818 0
M  V30 4963 H 450.253 -4.05703 -1.13944 0
M  V30 4964 H 448.928 -2.89937 -1.43938 0
M  V30 4965 H 447.835 -3.66554 0.747615 0
M  V30 4966 H 449.168 -4.82661 0.964332 0
M  V30 4967 N 450.82 -0.546701 -1.47814 0
M  V30 4968 C 452.05 -0.0232519 -2.06587 0
M  V30 4969 C 452.458 1.2712 -1.40133 0
M  V30 4970 O 451.801 1.77091 -0.488305 0
M  V30 4971 C 451.863 0.254117 -3.58601 0
M  V30 4972 C 451.527 -0.949331 -4.47031 0
M  V30 4973 C 452.524 -1.85216 -4.85789 0
M  V30 4974 C 450.209 -1.16104 -4.88697 0
M  V30 4975 C 452.203 -2.95047 -5.65001 0
M  V30 4976 C 449.89 -2.26247 -5.67676 0
M  V30 4977 C 450.888 -3.1555 -6.05737 0
M  V30 4978 O 450.576 -4.23784 -6.83127 0
M  V30 4979 H 450.308 -0.0380082 -0.674931 0
M  V30 4980 H 452.862 -0.756631 -1.90956 0
M  V30 4981 H 451.092 1.04168 -3.72406 0
M  V30 4982 H 452.781 0.72167 -3.99433 0
M  V30 4983 H 453.547 -1.70061 -4.54207 0
M  V30 4984 H 449.426 -0.475159 -4.58545 0
M  V30 4985 H 452.97 -3.64778 -5.94628 0
M  V30 4986 H 448.867 -2.41379 -5.98671 0
M  V30 4987 H 449.635 -4.21701 -7.01506 0
M  V30 4988 N 452.299 1.55045 -0.282633 0
M  V30 4989 C 453.229 2.2579 0.595066 0
M  V30 4990 C 454.21 1.25074 1.15284 0
M  V30 4991 O 455.395 1.5381 1.18559 0
M  V30 4992 C 452.525 2.98472 1.77572 0
M  V30 4993 C 451.479 4.0618 1.34914 0
M  V30 4994 C 450.805 4.66477 2.6135 0
M  V30 4995 C 452.105 5.1996 0.493821 0
M  V30 4996 H 453.799 2.994 0.00505653 0
M  V30 4997 H 451.345 1.44 0.000992001 0
M  V30 4998 H 453.298 3.46677 2.39568 0
M  V30 4999 H 452.022 2.2241 2.39168 0
M  V30 5000 H 450.681 3.58797 0.752338 0
M  V30 5001 H 450.329 3.87074 3.2122 0
M  V30 5002 H 450.029 5.39207 2.33516 0
M  V30 5003 H 451.553 5.17435 3.24181 0
M  V30 5004 H 452.967 5.64172 1.01898 0
M  V30 5005 H 451.364 5.99299 0.310047 0
M  V30 5006 H 452.434 4.82462 -0.485593 0
M  V30 5007 N 453.777 0.010035 1.57597 0
M  V30 5008 C 455.193 -0.346164 1.55801 0
M  V30 5009 C 455.393 -1.74144 1.01371 0
M  V30 5010 O 454.449 -2.43938 0.651968 0
M  V30 5011 C 455.762 -0.212216 2.9995 0
M  V30 5012 C 457.31 -0.286409 3.11687 0
M  V30 5013 C 457.785 -0.18147 4.5764 0
M  V30 5014 N 459.276 -0.239056 4.62583 0
M  V30 5015 C 460.011 -0.181351 5.73113 0
M  V30 5016 N 459.507 -0.073661 6.92761 0
M  V30 5017 N 461.3 -0.233949 5.61613 0
M  V30 5018 H 453.451 0.922657 1.91313 0
M  V30 5019 H 455.714 0.354595 0.879185 0
M  V30 5020 H 455.42 0.748169 3.4365 0
M  V30 5021 H 455.294 -0.990224 3.6397 0
M  V30 5022 H 457.681 -1.23724 2.67911 0
M  V30 5023 H 457.762 0.521645 2.50425 0
M  V30 5024 H 457.406 0.765863 5.02093 0
M  V30 5025 H 457.336 -1.00814 5.1686 0
M  V30 5026 H 459.827 -0.32321 3.76515 0
M  V30 5027 H 460.14 -0.0358003 7.72792 0
M  V30 5028 H 458.485 -0.0391461 6.94989 0
M  V30 5029 H 461.676 -0.316347 4.6703 0
M  V30 5030 H 461.849 -0.185514 6.47734 0
M  V30 5031 N 455.255 -1.55392 -0.262866 0
M  V30 5032 C 456.483 -1.80513 -1.01108 0
M  V30 5033 C 456.898 -0.583533 -1.79556 0
M  V30 5034 O 456.255 0.447585 -1.76926 0
M  V30 5035 C 456.306 -3.03648 -1.96164 0
M  V30 5036 O 456.027 -4.2109 -1.20893 0
M  V30 5037 C 457.528 -3.41448 -2.82715 0
M  V30 5038 H 454.748 -0.601079 -0.298236 0
M  V30 5039 H 457.292 -2.02425 -0.290582 0
M  V30 5040 H 455.447 -2.83832 -2.63663 0
M  V30 5041 H 455.861 -4.90771 -1.85051 0
M  V30 5042 H 457.335 -4.30751 -3.45192 0
M  V30 5043 H 457.812 -2.61308 -3.53008 0
M  V30 5044 H 458.418 -3.63559 -2.20693 0
M  V30 5045 N 456.733 0.527833 -1.48498 0
M  V30 5046 C 457.663 1.64136 -1.66077 0
M  V30 5047 C 458.644 1.62286 -0.509625 0
M  V30 5048 O 459.829 1.79449 -0.742413 0
M  V30 5049 C 456.959 3.02717 -1.70234 0
M  V30 5050 C 455.913 3.19426 -2.8487 0
M  V30 5051 C 455.239 4.5909 -2.74118 0
M  V30 5052 C 456.539 3.01993 -4.26142 0
M  V30 5053 H 458.233 1.4968 -2.593 0
M  V30 5054 H 455.779 0.718654 -1.24785 0
M  V30 5055 H 457.732 3.80491 -1.8112 0
M  V30 5056 H 456.456 3.18201 -0.735911 0
M  V30 5057 H 455.115 2.4407 -2.73542 0
M  V30 5058 H 454.763 4.71413 -1.7544 0
M  V30 5059 H 454.463 4.71214 -3.51042 0
M  V30 5060 H 455.987 5.3896 -2.86974 0
M  V30 5061 H 457.401 3.69558 -4.38292 0
M  V30 5062 H 455.798 3.2561 -5.04082 0
M  V30 5063 H 456.868 1.98396 -4.42456 0
M  V30 5064 N 458.211 1.37122 0.776871 0
M  V30 5065 C 459.458 1.32047 1.53524 0
M  V30 5066 C 459.786 -0.0965631 1.9426 0
M  V30 5067 O 459.041 -1.06866 1.63945 0
M  V30 5068 C 459.34 2.20068 2.81611 0
M  V30 5069 C 459.006 3.68423 2.59953 0
M  V30 5070 C 457.668 4.08854 2.53755 0
M  V30 5071 C 460.02 4.62431 2.40431 0
M  V30 5072 C 457.348 5.41417 2.26018 0
M  V30 5073 C 459.7 5.95225 2.14219 0
M  V30 5074 C 458.364 6.34767 2.06462 0
M  V30 5075 H 457.634 0.483196 0.561785 0
M  V30 5076 H 460.281 1.69284 0.895268 0
M  V30 5077 H 458.586 1.75809 3.50141 0
M  V30 5078 H 460.283 2.13458 3.39465 0
M  V30 5079 H 456.873 3.36354 2.65638 0
M  V30 5080 H 461.057 4.32057 2.44213 0
M  V30 5081 H 456.313 5.71022 2.18504 0
M  V30 5082 H 460.487 6.67626 1.98112 0
M  V30 5083 H 458.114 7.37413 1.84733 0
M  V30 5084 N 459.689 -1.00246 1.21608 0
M  V30 5085 C 460.917 -1.77631 1.06089 0
M  V30 5086 C 461.332 -1.84746 -0.38916 0
M  V30 5087 O 460.689 -1.31068 -1.26994 0
M  V30 5088 C 460.74 -3.21415 1.65453 0
M  V30 5089 O 460.461 -3.14703 3.04785 0
M  V30 5090 C 461.962 -4.15289 1.55079 0
M  V30 5091 H 459.182 -0.558162 0.37242 0
M  V30 5092 H 461.726 -1.26093 1.60999 0
M  V30 5093 H 459.881 -3.70053 1.14629 0
M  V30 5094 H 460.295 -4.05056 3.33212 0
M  V30 5095 H 461.769 -5.13965 2.01355 0
M  V30 5096 H 462.246 -4.36279 0.505665 0
M  V30 5097 H 462.852 -3.72543 2.05163 0
M  V30 5098 N 461.167 -1.02423 -1.1978 0
M  V30 5099 C 462.444 -0.632802 -1.85081 0
M  V30 5100 C 462.824 0.888745 -1.9148 0
M  V30 5101 O 462.172 1.78357 -1.42832 0
M  V30 5102 C 462.382 -1.28947 -3.24305 0
M  V30 5103 C 463.73 -1.40976 -4.00513 0
M  V30 5104 O 464.754 -1.24628 -3.33686 0
M  V30 5105 O 463.613 -1.67467 -5.20209 0
M  V30 5106 H 460.707 -0.219348 -0.79738 0
M  V30 5107 H 463.253 -1.12209 -1.27307 0
M  V30 5108 H 462.025 -2.3288 -3.14456 0
M  V30 5109 H 461.648 -0.787748 -3.89718 0
M  V30 5110 N 462.645 1.35699 -0.801477 0
M  V30 5111 C 463.575 2.32436 -0.222658 0
M  V30 5112 C 464.556 1.5723 0.649057 0
M  V30 5113 O 465.741 1.85324 0.580387 0
M  V30 5114 C 462.871 3.41469 0.633719 0
M  V30 5115 C 461.825 4.27774 -0.139083 0
M  V30 5116 C 461.151 5.28082 0.838666 0
M  V30 5117 C 462.451 5.04946 -1.33517 0
M  V30 5118 H 464.145 2.81094 -1.03086 0
M  V30 5119 H 461.691 1.35146 -0.497155 0
M  V30 5120 H 463.644 4.08143 1.04868 0
M  V30 5121 H 462.368 2.91408 1.47475 0
M  V30 5122 H 461.027 3.62673 -0.535156 0
M  V30 5123 H 460.675 4.7429 1.67506 0
M  V30 5124 H 460.375 5.86695 0.32594 0
M  V30 5125 H 461.899 5.97628 1.25194 0
M  V30 5126 H 463.313 5.64593 -0.995349 0
M  V30 5127 H 461.71 5.7303 -1.78202 0
M  V30 5128 H 462.78 4.35886 -2.12442 0
M  V30 5129 N 464.123 0.554532 1.47522 0
M  V30 5130 C 465.37 0.029479 2.02479 0
M  V30 5131 C 465.698 -1.31929 1.42916 0
M  V30 5132 O 464.953 -1.87112 0.573385 0
M  V30 5133 C 465.252 -0.115927 3.57212 0
M  V30 5134 C 464.918 1.16161 4.3568 0
M  V30 5135 C 463.58 1.51168 4.56839 0
M  V30 5136 C 465.932 2.0083 4.80954 0
M  V30 5137 C 463.26 2.70696 5.2052 0
M  V30 5138 C 465.612 3.19559 5.45953 0
M  V30 5139 C 464.276 3.54882 5.65345 0
M  V30 5140 H 463.546 0.0107871 0.740921 0
M  V30 5141 H 466.193 0.725506 1.77225 0
M  V30 5142 H 464.498 -0.894902 3.81443 0
M  V30 5143 H 466.195 -0.53749 3.97381 0
M  V30 5144 H 462.785 0.879026 4.19489 0
M  V30 5145 H 466.969 1.75093 4.64388 0
M  V30 5146 H 462.225 2.98236 5.33728 0
M  V30 5147 H 466.399 3.85456 5.79997 0
M  V30 5148 H 464.026 4.47596 6.1446 0
M  V30 5149 N 465.601 -1.54893 0.290851 0
M  V30 5150 C 466.511 -2.26812 -0.59945 0
M  V30 5151 C 467.527 -1.29963 -1.15696 0
M  V30 5152 O 468.703 -1.62928 -1.18391 0
M  V30 5153 C 465.768 -2.98716 -1.75982 0
M  V30 5154 C 464.829 -4.1108 -1.2374 0
M  V30 5155 C 464.062 -4.79546 -2.34246 0
M  V30 5156 O 464.285 -4.47309 -3.53936 0
M  V30 5157 O 463.219 -5.67165 -2.01512 0
M  V30 5158 H 467.045 -3.03696 -0.0163561 0
M  V30 5159 H 464.63 -1.49289 0.0576755 0
M  V30 5160 H 466.512 -3.43851 -2.43607 0
M  V30 5161 H 465.187 -2.24737 -2.3297 0
M  V30 5162 H 464.094 -3.70367 -0.527163 0
M  V30 5163 H 465.427 -4.87007 -0.71307 0
M  V30 5164 N 467.08 -0.0183926 -1.57589 0
M  V30 5165 C 468.027 0.967022 -2.09565 0
M  V30 5166 C 468.997 1.32983 -0.995225 0
M  V30 5167 O 470.182 1.42501 -1.26878 0
M  V30 5168 C 467.322 2.24772 -2.61861 0
M  V30 5169 C 466.435 1.94232 -3.85873 0
M  V30 5170 C 465.57 3.16518 -4.26603 0
M  V30 5171 C 464.609 2.81748 -5.43401 0
M  V30 5172 N 463.746 3.96626 -5.79338 0
M  V30 5173 H 468.586 0.516874 -2.93483 0
M  V30 5174 H 466.123 0.243544 -1.4507 0
M  V30 5175 H 468.081 2.99667 -2.90268 0
M  V30 5176 H 466.711 2.67423 -1.8079 0
M  V30 5177 H 465.763 1.09625 -3.64262 0
M  V30 5178 H 467.075 1.64616 -4.70853 0
M  V30 5179 H 466.229 3.99743 -4.56389 0
M  V30 5180 H 464.968 3.49286 -3.40368 0
M  V30 5181 H 463.973 1.96933 -5.1332 0
M  V30 5182 H 465.198 2.50207 -6.31327 0
M  V30 5183 H 463.144 4.29257 -4.96059 0
M  V30 5184 H 463.061 3.70598 -6.58933 0
M  V30 5185 H 464.329 4.80586 -6.13724 0
M  V30 5186 N 468.558 1.5553 0.254621 0
M  V30 5187 C 469.505 1.89666 1.31512 0
M  V30 5188 C 470.475 0.750057 1.482 0
M  V30 5189 O 471.66 1.00301 1.62309 0
M  V30 5190 C 468.8 2.19009 2.667 0
M  V30 5191 C 467.913 3.46435 2.58083 0
M  V30 5192 C 467.048 3.65386 3.85573 0
M  V30 5193 C 466.087 4.8644 3.71541 0
M  V30 5194 N 465.224 5.01952 4.90906 0
M  V30 5195 H 470.064 2.80109 1.017 0
M  V30 5196 H 467.601 1.38666 0.490938 0
M  V30 5197 H 469.559 2.34025 3.45381 0
M  V30 5198 H 468.189 1.31779 2.94676 0
M  V30 5199 H 467.241 3.39792 1.71013 0
M  V30 5200 H 468.553 4.35258 2.43622 0
M  V30 5201 H 467.707 3.80319 4.72697 0
M  V30 5202 H 466.446 2.74781 4.02922 0
M  V30 5203 H 465.451 4.71491 2.82801 0
M  V30 5204 H 466.676 5.78497 3.55694 0
M  V30 5205 H 464.622 4.14283 5.08631 0
M  V30 5206 H 464.539 5.84851 4.79046 0
M  V30 5207 H 465.807 5.21289 5.7955 0
M  V30 5208 N 470.036 -0.519951 1.48776 0
M  V30 5209 C 471.284 -1.2727 1.56993 0
M  V30 5210 C 471.605 -1.9339 0.25004 0
M  V30 5211 O 470.875 -1.81822 -0.729216 0
M  V30 5212 H 469.455 -0.472732 0.578389 0
M  V30 5213 H 472.117 -0.604234 1.85297 0
M  V30 5214 H 471.213 -2.04669 2.3562 0
M  V30 5215 N 471.514 -1.37532 -0.769588 0
M  V30 5216 C 472.744 -1.35861 -1.55645 0
M  V30 5217 C 473.152 0.0574398 -1.89113 0
M  V30 5218 O 472.495 1.03021 -1.52093 0
M  V30 5219 C 472.557 -2.13431 -2.89288 0
M  V30 5220 C 472.221 -3.62378 -2.78444 0
M  V30 5221 C 473.218 -4.56215 -2.49326 0
M  V30 5222 C 470.903 -4.05529 -2.96398 0
M  V30 5223 C 472.897 -5.91181 -2.38294 0
M  V30 5224 C 470.584 -5.40579 -2.84987 0
M  V30 5225 C 471.582 -6.33218 -2.55975 0
M  V30 5226 O 471.27 -7.65787 -2.44594 0
M  V30 5227 H 471.002 -0.467001 -0.48876 0
M  V30 5228 H 473.556 -1.81505 -0.961515 0
M  V30 5229 H 471.786 -1.62481 -3.50909 0
M  V30 5230 H 473.475 -2.04368 -3.50697 0
M  V30 5231 H 474.241 -4.24187 -2.35139 0
M  V30 5232 H 470.12 -3.33781 -3.1798 0
M  V30 5233 H 473.664 -6.63457 -2.15571 0
M  V30 5234 H 469.561 -5.72209 -2.98743 0
M  V30 5235 H 470.329 -7.76132 -2.59927 0
M  V30 5236 N 472.992 0.995999 -1.22138 0
M  V30 5237 C 474.22 1.77066 -1.07029 0
M  V30 5238 C 474.635 1.8495 0.379357 0
M  V30 5239 O 473.992 1.3174 1.26297 0
M  V30 5240 C 474.043 3.20533 -1.67155 0
M  V30 5241 O 473.764 3.13082 -3.06449 0
M  V30 5242 C 475.265 4.14461 -1.5728 0
M  V30 5243 H 472.485 0.556179 -0.375374 0
M  V30 5244 H 475.029 1.25238 -1.61666 0
M  V30 5245 H 473.184 3.6944 -1.16589 0
M  V30 5246 H 473.598 4.03283 -3.35355 0
M  V30 5247 H 475.072 5.1289 -2.04078 0
M  V30 5248 H 475.549 4.36005 -0.528795 0
M  V30 5249 H 476.155 3.71449 -2.07136 0
M  V30 5250 N 474.47 1.03057 1.19235 0
M  V30 5251 C 475.717 0.728019 1.88961 0
M  V30 5252 C 476.045 -0.743515 1.79728 0
M  V30 5253 O 475.3 -1.55729 1.1852 0
M  V30 5254 C 475.599 1.1268 3.39172 0
M  V30 5255 C 475.265 2.5969 3.68608 0
M  V30 5256 C 473.927 2.99854 3.76352 0
M  V30 5257 C 476.279 3.54793 3.81801 0
M  V30 5258 C 473.607 4.34031 3.94758 0
M  V30 5259 C 475.959 4.88675 4.0172 0
M  V30 5260 C 474.623 5.28526 4.07697 0
M  V30 5261 H 473.893 0.266401 0.691456 0
M  V30 5262 H 476.54 1.29373 1.41191 0
M  V30 5263 H 474.845 0.479722 3.88852 0
M  V30 5264 H 476.542 0.870203 3.91444 0
M  V30 5265 H 473.132 2.27575 3.63191 0
M  V30 5266 H 477.316 3.24914 3.7516 0
M  V30 5267 H 472.572 4.6444 3.97625 0
M  V30 5268 H 476.746 5.6228 4.1087 0
M  V30 5269 H 474.373 6.32506 4.21712 0
M  V30 5270 N 475.948 -1.35272 0.808662 0
M  V30 5271 C 477.225 -1.93077 0.313181 0
M  V30 5272 C 477.605 -1.73847 -1.19752 0
M  V30 5273 O 476.953 -1.1087 -1.998 0
M  V30 5274 C 477.163 -3.41347 0.726859 0
M  V30 5275 C 478.511 -4.18493 0.717532 0
M  V30 5276 O 479.535 -3.4987 0.668535 0
M  V30 5277 O 478.394 -5.40937 0.777779 0
M  V30 5278 H 475.488 -0.822885 0.0824018 0
M  V30 5279 H 478.034 -1.44335 0.892499 0
M  V30 5280 H 476.806 -3.49082 1.76797 0
M  V30 5281 H 476.429 -3.97411 0.122461 0
M  V30 5282 N 477.426 -0.562348 -1.47226 0
M  V30 5283 C 478.656 -0.0451619 -2.06551 0
M  V30 5284 C 479.064 1.25626 -1.41473 0
M  V30 5285 O 478.407 1.76563 -0.507061 0
M  V30 5286 C 478.469 0.216068 -3.5885 0
M  V30 5287 C 478.133 -0.996691 -4.45999 0
M  V30 5288 C 479.13 -1.90358 -4.83797 0
M  V30 5289 C 476.815 -1.21281 -4.87438 0
M  V30 5290 C 478.809 -3.01023 -5.6184 0
M  V30 5291 C 476.496 -2.32255 -5.65244 0
M  V30 5292 C 477.494 -3.21956 -6.02356 0
M  V30 5293 O 477.182 -4.31005 -6.78594 0
M  V30 5294 H 476.914 -0.0451646 -0.67449 0
M  V30 5295 H 479.468 -0.776842 -1.90143 0
M  V30 5296 H 477.698 1.00212 -3.7349 0
M  V30 5297 H 479.387 0.679264 -4.00176 0
M  V30 5298 H 480.153 -1.74868 -4.52378 0
M  V30 5299 H 476.032 -0.523767 -4.58015 0
M  V30 5300 H 479.576 -3.71064 -5.90726 0
M  V30 5301 H 475.473 -2.47715 -5.96077 0
M  V30 5302 H 476.241 -4.29118 -6.96994 0
M  V30 5303 N 478.904 1.54736 -0.299062 0
M  V30 5304 C 479.867 2.22127 0.565012 0
M  V30 5305 C 480.867 1.20669 1.06281 0
M  V30 5306 O 482.057 1.45417 0.959145 0
M  V30 5307 C 479.189 2.90611 1.78208 0
M  V30 5308 H 480.382 2.99891 -0.0237448 0
M  V30 5309 H 477.935 1.5622 -0.0498788 0
M  V30 5310 H 478.67 2.16921 2.41072 0
M  V30 5311 H 478.455 3.64984 1.43281 0
M  V30 5312 H 479.945 3.42026 2.396 0
M  V30 5313 N 480.382 0.0267497 1.57577 0
M  V30 5314 C 481.612 -0.6617 1.95717 0
M  V30 5315 C 482.02 -1.66331 0.901706 0
M  V30 5316 O 481.363 -1.83273 -0.125241 0
M  V30 5317 C 481.425 -1.42649 3.29987 0
M  V30 5318 C 481.089 -0.583482 4.5326 0
M  V30 5319 C 482.086 0.140221 5.19711 0
M  V30 5320 C 479.771 -0.521581 4.99585 0
M  V30 5321 C 481.765 0.914523 6.30805 0
M  V30 5322 C 479.452 0.256428 6.10562 0
M  V30 5323 C 480.45 0.973189 6.76031 0
M  V30 5324 O 480.138 1.73845 7.84878 0
M  V30 5325 H 479.87 -0.187483 0.649481 0
M  V30 5326 H 482.424 0.0820847 2.05236 0
M  V30 5327 H 480.654 -2.21536 3.16952 0
M  V30 5328 H 482.343 -2.00282 3.53047 0
M  V30 5329 H 483.109 0.101716 4.84893 0
M  V30 5330 H 478.988 -1.06904 4.48433 0
M  V30 5331 H 482.532 1.4745 6.81839 0
M  V30 5332 H 478.429 0.296657 6.44818 0
M  V30 5333 H 479.197 1.65797 8.01532 0
M  V30 5334 N 481.861 -1.55662 -0.24637 0
M  V30 5335 C 483.138 -1.68272 -0.997198 0
M  V30 5336 C 483.518 -0.566785 -2.03349 0
M  V30 5337 O 482.866 0.429688 -2.24424 0
M  V30 5338 C 483.076 -3.08594 -1.63006 0
M  V30 5339 C 484.424 -3.6721 -2.13171 0
M  V30 5340 O 485.448 -3.11397 -1.72946 0
M  V30 5341 O 484.307 -4.65054 -2.87031 0
M  V30 5342 H 481.401 -0.684429 -0.464205 0
M  V30 5343 H 483.947 -1.67993 -0.240114 0
M  V30 5344 H 482.719 -3.81264 -0.880527 0
M  V30 5345 H 482.342 -3.12886 -2.45333 0
M  V30 5346 N 483.339 0.512053 -1.4905 0
M  V30 5347 C 484.585 1.26613 -1.59187 0
M  V30 5348 C 484.94 1.90494 -0.270163 0
M  V30 5349 O 484.233 1.77204 0.728648 0
M  V30 5350 C 484.427 2.36446 -2.68008 0
M  V30 5351 C 484.256 1.83334 -4.10632 0
M  V30 5352 C 483.026 1.65131 -4.77556 0
M  V30 5353 C 485.224 1.35153 -4.96224 0
M  V30 5354 N 483.206 1.06833 -6.04533 0
M  V30 5355 C 484.577 0.889186 -6.13591 0
M  V30 5356 C 486.632 1.23623 -4.82309 0
M  V30 5357 C 485.335 0.322953 -7.18575 0
M  V30 5358 C 487.361 0.683978 -5.87431 0
M  V30 5359 C 486.723 0.2318 -7.04018 0
M  V30 5360 H 482.822 0.453678 -0.636946 0
M  V30 5361 H 485.406 0.575217 -1.86009 0
M  V30 5362 H 483.577 3.03012 -2.42978 0
M  V30 5363 H 485.309 3.03485 -2.67729 0
M  V30 5364 H 482.064 1.89178 -4.34176 0
M  V30 5365 H 482.488 0.796425 -6.72299 0
M  V30 5366 H 487.13 1.57184 -3.92496 0
M  V30 5367 H 484.848 -0.024943 -8.08096 0
M  V30 5368 H 488.434 0.597694 -5.78722 0
M  V30 5369 H 487.314 -0.188869 -7.83973 0
M  V30 5370 N 484.817 1.37938 0.762283 0
M  V30 5371 C 486.063 1.33866 1.52341 0
M  V30 5372 C 486.396 -0.0738961 1.94059 0
M  V30 5373 O 485.671 -1.03326 1.64785 0
M  V30 5374 C 485.954 2.28644 2.78197 0
M  V30 5375 C 485.807 3.78722 2.42672 0
M  V30 5376 C 487.126 2.21702 3.80179 0
M  V30 5377 H 484.245 0.487593 0.55265 0
M  V30 5378 H 486.887 1.68717 0.873767 0
M  V30 5379 H 485.037 1.99055 3.33631 0
M  V30 5380 H 486.709 4.18948 1.93081 0
M  V30 5381 H 484.952 3.96827 1.75244 0
M  V30 5382 H 485.623 4.40486 3.3268 0
M  V30 5383 H 488.099 2.47805 3.34263 0
M  V30 5384 H 486.975 2.90143 4.65949 0
M  V30 5385 H 487.236 1.21301 4.25133 0
M  V30 5386 N 486.295 -0.989507 1.22664 0
M  V30 5387 C 487.543 -1.72612 1.05117 0
M  V30 5388 C 487.864 -1.90552 -0.414131 0
M  V30 5389 O 487.134 -1.4676 -1.29762 0
M  V30 5390 H 485.714 -0.639555 0.385977 0
M  V30 5391 H 488.376 -1.19158 1.54232 0
M  V30 5392 H 487.472 -2.71926 1.53175 0
M  V30 5393 N 487.773 -1.03688 -1.18687 0
M  V30 5394 C 489.189 -0.755413 -1.4059 0
M  V30 5395 C 489.389 0.656659 -1.905 0
M  V30 5396 O 488.445 1.42144 -2.08689 0
M  V30 5397 C 489.758 -1.7983 -2.41001 0
M  V30 5398 C 491.306 -1.81877 -2.54735 0
M  V30 5399 C 491.781 -2.85148 -3.58406 0
M  V30 5400 N 493.272 -2.84015 -3.6591 0
M  V30 5401 C 494.007 -3.60573 -4.45841 0
M  V30 5402 N 493.503 -4.46871 -5.29413 0
M  V30 5403 N 495.296 -3.49079 -4.40568 0
M  V30 5404 H 487.447 -1.94818 -0.846148 0
M  V30 5405 H 489.71 -0.842727 -0.434184 0
M  V30 5406 H 489.416 -2.81097 -2.1137 0
M  V30 5407 H 489.29 -1.62727 -3.40294 0
M  V30 5408 H 491.677 -0.812836 -2.83685 0
M  V30 5409 H 491.758 -2.03057 -1.55568 0
M  V30 5410 H 491.402 -3.85918 -3.30197 0
M  V30 5411 H 491.332 -2.61224 -4.57241 0
M  V30 5412 H 493.823 -2.21431 -3.0623 0
M  V30 5413 H 494.136 -5.02007 -5.87545 0
M  V30 5414 H 492.481 -4.5094 -5.28846 0
M  V30 5415 H 495.672 -2.81066 -3.74325 0
M  V30 5416 H 495.845 -4.08994 -5.02621 0
M  V30 5417 N 489.251 1.34841 -0.815825 0
M  V30 5418 C 490.662 1.80937 -0.46029 0
M  V30 5419 C 491.013 1.67685 1.01863 0
M  V30 5420 O 490.138 1.21277 1.79223 0
M  V30 5421 C 490.733 3.28509 -0.828708 0
M  V30 5422 C 489.292 3.72712 -0.525644 0
M  V30 5423 C 488.439 2.56676 -1.04941 0
M  V30 5424 H 491.39 1.22688 -1.00664 0
M  V30 5425 H 491.411 3.80279 -0.129757 0
M  V30 5426 H 490.923 3.38122 -1.90513 0
M  V30 5427 H 489.024 3.68642 0.541666 0
M  V30 5428 H 489.137 4.67119 -1.06474 0
M  V30 5429 H 487.501 2.50302 -0.471286 0
M  V30 5430 H 488.284 2.69063 -2.13214 0
M  V30 5431 N 490.729 0.570148 1.46925 0
M  V30 5432 C 491.978 0.0487352 2.01641 0
M  V30 5433 C 492.291 -1.31433 1.44861 0
M  V30 5434 O 493.497 -1.92638 1.91318 0
M  V30 5435 C 491.953 0.0365817 3.59881 0
M  V30 5436 C 491.561 1.39719 4.25655 0
M  V30 5437 C 493.305 -0.431545 4.22301 0
M  V30 5438 C 491.212 1.34345 5.75939 0
M  V30 5439 H 490.142 0.0144492 0.753862 0
M  V30 5440 H 492.793 0.719928 1.68788 0
M  V30 5441 H 491.175 -0.700522 3.89755 0
M  V30 5442 H 492.349 2.15303 4.07408 0
M  V30 5443 H 490.664 1.80431 3.75278 0
M  V30 5444 H 493.261 -0.490354 5.32447 0
M  V30 5445 H 493.604 -1.44638 3.90366 0
M  V30 5446 H 494.137 0.251102 3.97007 0
M  V30 5447 H 490.876 2.33469 6.12513 0
M  V30 5448 H 490.396 0.629615 5.96486 0
M  V30 5449 H 492.075 1.051 6.38407 0
M  V30 5450 N 492.207 -1.54576 0.307264 0
M  V30 5451 C 493.618 -1.8579 -0.184121 0
M  V30 5452 C 493.969 -1.22914 -1.52927 0
M  V30 5453 O 493.094 -0.529126 -2.09831 0
M  V30 5454 C 493.689 -3.37081 -0.340862 0
M  V30 5455 C 492.248 -3.68304 -0.776465 0
M  V30 5456 C 491.395 -2.77076 0.111503 0
M  V30 5457 H 494.346 -1.49656 0.528078 0
M  V30 5458 H 494.367 -3.61922 -1.17443 0
M  V30 5459 H 493.879 -3.82815 0.638309 0
M  V30 5460 H 491.98 -3.28092 -1.76596 0
M  V30 5461 H 492.093 -4.75434 -0.591512 0
M  V30 5462 H 490.457 -2.51374 -0.410256 0
M  V30 5463 H 491.24 -3.25632 1.08714 0
M  V30 5464 N 493.685 -0.035106 -1.57561 0
M  V30 5465 C 494.913 0.652258 -1.9635 0
M  V30 5466 C 495.328 1.65317 -0.911897 0
M  V30 5467 O 494.685 1.82194 0.105657 0
M  V30 5468 C 494.736 1.35337 -3.35211 0
M  V30 5469 O 494.457 0.392548 -4.36338 0
M  V30 5470 C 495.958 2.13199 -3.88666 0
M  V30 5471 H 493.178 0.179444 -0.646561 0
M  V30 5472 H 495.722 -0.0966459 -2.04271 0
M  V30 5473 H 493.877 2.05362 -3.28489 0
M  V30 5474 H 494.291 0.891097 -5.16875 0
M  V30 5475 H 495.765 2.577 -4.88154 0
M  V30 5476 H 496.242 2.97353 -3.23231 0
M  V30 5477 H 496.848 1.48118 -3.98674 0
M  V30 5478 N 495.163 1.55791 0.238111 0
M  V30 5479 C 496.574 1.68383 0.806472 0
M  V30 5480 C 496.925 0.634157 1.85669 0
M  V30 5481 O 496.05 -0.217913 2.153 0
M  V30 5482 C 496.645 3.05268 1.46959 0
M  V30 5483 C 495.204 3.1977 1.98555 0
M  V30 5484 C 494.351 2.64279 0.839763 0
M  V30 5485 H 497.302 1.58694 0.0137535 0
M  V30 5486 H 497.323 3.00203 2.33792 0
M  V30 5487 H 496.835 3.81643 0.704993 0
M  V30 5488 H 494.936 2.48234 2.77868 0
M  V30 5489 H 495.049 4.26788 2.17689 0
M  V30 5490 H 493.413 2.22329 1.24265 0
M  V30 5491 H 494.196 3.43187 0.0881032 0
M  V30 5492 N 496.642 -0.504142 1.49319 0
M  V30 5493 C 497.888 -1.26033 1.58882 0
M  V30 5494 C 498.221 -1.92268 0.273274 0
M  V30 5495 O 497.496 -1.80567 -0.72291 0
M  V30 5496 C 497.779 -2.32976 2.7458 0
M  V30 5497 C 497.632 -1.71263 4.1592 0
M  V30 5498 C 498.951 -3.34561 2.85932 0
M  V30 5499 H 496.07 -0.456863 0.578312 0
M  V30 5500 H 498.712 -0.558965 1.81592 0
M  V30 5501 H 496.862 -2.92796 2.55348 0
M  V30 5502 H 498.534 -1.15294 4.4666 0
M  V30 5503 H 496.777 -1.01686 4.21714 0
M  V30 5504 H 497.448 -2.48816 4.92742 0
M  V30 5505 H 499.924 -2.84727 3.0343 0
M  V30 5506 H 498.8 -4.06754 3.68568 0
M  V30 5507 H 499.061 -3.96695 1.95154 0
M  V30 5508 N 498.12 -1.38341 -0.754957 0
M  V30 5509 C 499.368 -1.34208 -1.51105 0
M  V30 5510 C 499.689 0.0677634 -1.94882 0
M  V30 5511 O 498.959 1.01517 -1.67544 0
M  V30 5512 H 497.539 -0.493819 -0.560493 0
M  V30 5513 H 500.201 -1.73005 -0.897507 0
M  V30 5514 H 499.297 -1.99203 -2.4026 0
M  V30 5515 N 499.598 0.982988 -1.23187 0
M  V30 5516 C 500.823 1.76455 -1.08988 0
M  V30 5517 C 501.248 1.84726 0.354691 0
M  V30 5518 O 500.606 1.30699 1.25649 0
M  V30 5519 C 500.654 3.17094 -1.71708 0
M  V30 5520 O 499.758 4.00648 -0.977477 0
M  V30 5521 H 499.099 0.542988 -0.382177 0
M  V30 5522 H 501.629 1.23413 -1.63188 0
M  V30 5523 H 501.639 3.67684 -1.76841 0
M  V30 5524 H 500.314 3.10389 -2.76823 0
M  V30 5525 H 498.891 3.59161 -1.0029 0
M  V30 5526 N 501.076 1.04316 1.18135 0
M  V30 5527 C 502.322 0.749128 1.88457 0
M  V30 5528 C 502.655 -0.72149 1.803 0
M  V30 5529 O 501.93 -1.52676 1.205 0
M  V30 5530 C 502.213 1.21905 3.38838 0
M  V30 5531 C 502.066 2.75195 3.55792 0
M  V30 5532 C 503.385 0.811085 4.32561 0
M  V30 5533 H 500.504 0.273611 0.684329 0
M  V30 5534 H 503.146 1.29561 1.38975 0
M  V30 5535 H 501.296 0.754137 3.8111 0
M  V30 5536 H 502.968 3.29743 3.22595 0
M  V30 5537 H 501.211 3.14899 2.98364 0
M  V30 5538 H 501.882 3.03135 4.61317 0
M  V30 5539 H 504.358 1.21118 3.98082 0
M  V30 5540 H 503.234 1.16761 5.36338 0
M  V30 5541 H 503.495 -0.285596 4.41177 0
M  V30 5542 N 502.554 -1.34406 0.822964 0
M  V30 5543 C 503.504 -2.26963 0.217208 0
M  V30 5544 C 504.488 -1.48536 -0.618545 0
M  V30 5545 O 505.68 -1.7056 -0.473118 0
M  V30 5546 C 502.809 -3.37655 -0.619973 0
M  V30 5547 C 501.895 -4.23495 0.226411 0
M  V30 5548 N 502.286 -4.88876 1.29744 0
M  V30 5549 C 500.584 -4.45999 0.0107554 0
M  V30 5550 C 501.285 -5.52642 1.81553 0
M  V30 5551 N 500.261 -5.31949 1.11942 0
M  V30 5552 H 504.063 -2.75017 1.03647 0
M  V30 5553 H 501.577 -1.48126 0.665777 0
M  V30 5554 H 503.574 -4.02932 -1.07011 0
M  V30 5555 H 502.234 -2.91151 -1.43739 0
M  V30 5556 H 503.245 -4.89886 1.68024 0
M  V30 5557 H 499.922 -4.10253 -0.774495 0
M  V30 5558 H 501.312 -6.14755 2.71156 0
M  V30 5559 N 504.032 -0.577932 -1.46621 0
M  V30 5560 C 505.278 -0.0617793 -2.02706 0
M  V30 5561 C 505.611 1.29294 -1.44903 0
M  V30 5562 O 504.886 1.8461 -0.61232 0
M  V30 5563 C 505.169 0.00911824 -3.60099 0
M  V30 5564 C 505.022 -1.37416 -4.28295 0
M  V30 5565 C 506.341 0.712159 -4.343 0
M  V30 5566 H 503.46 -0.0239246 -0.736612 0
M  V30 5567 H 506.102 -0.744211 -1.74818 0
M  V30 5568 H 504.252 0.590292 -3.83989 0
M  V30 5569 H 505.924 -2.00013 -4.15683 0
M  V30 5570 H 504.167 -1.94319 -3.87843 0
M  V30 5571 H 504.838 -1.27707 -5.37024 0
M  V30 5572 H 507.314 0.218486 -4.15526 0
M  V30 5573 H 506.19 0.730782 -5.44014 0
M  V30 5574 H 506.451 1.77251 -4.05012 0
M  V30 5575 N 505.51 1.54411 -0.315457 0
M  V30 5576 C 506.787 1.92562 0.343398 0
M  V30 5577 C 507.167 1.24423 1.70535 0
M  V30 5578 O 506.515 0.385051 2.25232 0
M  V30 5579 C 506.725 3.46168 0.443687 0
M  V30 5580 C 508.073 4.18659 0.707783 0
M  V30 5581 O 509.097 3.52281 0.52693 0
M  V30 5582 O 507.956 5.36198 1.05612 0
M  V30 5583 H 505.05 0.80379 0.194552 0
M  V30 5584 H 507.596 1.65738 -0.364577 0
M  V30 5585 H 506.368 3.8792 -0.513172 0
M  V30 5586 H 505.991 3.79073 1.19956 0
M  V30 5587 N 506.988 0.0434614 1.5754 0
M  V30 5588 C 508.213 -0.645358 1.97104 0
M  V30 5589 C 508.638 -1.64037 0.920521 0
M  V30 5590 O 507.996 -1.80922 -0.11708 0
M  V30 5591 C 508.044 -1.31547 3.35749 0
M  V30 5592 O 507.148 -2.43103 3.33129 0
M  V30 5593 H 506.489 -0.168403 0.64229 0
M  V30 5594 H 509.019 0.109573 2.04306 0
M  V30 5595 H 509.029 -1.66895 3.72304 0
M  V30 5596 H 507.704 -0.586205 4.11748 0
M  V30 5597 H 506.281 -2.0976 3.0831 0
M  V30 5598 N 508.466 -1.55915 -0.229846 0
M  V30 5599 C 509.714 -1.7819 -0.953565 0
M  V30 5600 C 510.035 -0.610504 -1.85197 0
M  V30 5601 O 509.305 0.372988 -1.92316 0
M  V30 5602 H 507.885 -0.657208 -0.355087 0
M  V30 5603 H 510.547 -1.9337 -0.243693 0
M  V30 5604 H 509.643 -2.70011 -1.56527 0
M  V30 5605 N 509.944 0.496216 -1.49584 0
M  V30 5606 C 510.907 1.57952 -1.66084 0
M  V30 5607 C 511.907 1.51729 -0.53244 0
M  V30 5608 O 513.097 1.54796 -0.79899 0
M  V30 5609 C 510.229 2.97604 -1.66268 0
M  V30 5610 H 511.422 1.44649 -2.6271 0
M  V30 5611 H 508.975 0.7208 -1.38687 0
M  V30 5612 H 509.71 3.16378 -0.712432 0
M  V30 5613 H 509.495 3.03528 -2.4822 0
M  V30 5614 H 510.985 3.76301 -1.81073 0
M  V30 5615 N 511.423 1.38739 0.74761 0
M  V30 5616 C 512.648 1.38702 1.54197 0
M  V30 5617 C 513.073 -0.019664 1.8809 0
M  V30 5618 O 512.431 -1.00333 1.51006 0
M  V30 5619 C 512.479 2.25492 2.814 0
M  V30 5620 O 511.583 1.67613 3.76802 0
M  V30 5621 H 510.924 0.472863 0.466151 0
M  V30 5622 H 513.454 1.82577 0.923413 0
M  V30 5623 H 513.464 2.39561 3.30264 0
M  V30 5624 H 512.139 3.27727 2.56062 0
M  V30 5625 H 510.716 1.62718 3.35526 0
M  V30 5626 N 512.901 -0.976442 1.23707 0
M  V30 5627 C 513.864 -2.0511 1.02287 0
M  V30 5628 C 514.864 -1.60791 -0.0167195 0
M  V30 5629 O 516.054 -1.72761 0.223408 0
M  V30 5630 C 513.186 -3.36458 0.548507 0
M  V30 5631 H 514.379 -2.25545 1.9766 0
M  V30 5632 H 511.932 -1.15042 1.05806 0
M  V30 5633 H 512.667 -3.21713 -0.408818 0
M  V30 5634 H 512.452 -3.69967 1.29874 0
M  V30 5635 H 513.942 -4.15489 0.419406 0
M  V30 5636 N 514.379 -1.04941 -1.1758 0
M  V30 5637 C 515.628 -0.753124 -1.87112 0
M  V30 5638 C 515.941 0.722507 -1.81767 0
M  V30 5639 O 517.147 1.13265 -2.46746 0
M  V30 5640 C 515.603 -1.29695 -3.35719 0
M  V30 5641 C 515.211 -2.80184 -3.49572 0
M  V30 5642 C 516.955 -1.07759 -4.10595 0
M  V30 5643 C 514.862 -3.2788 -4.92187 0
M  V30 5644 H 513.792 -0.278034 -0.700866 0
M  V30 5645 H 516.443 -1.26637 -1.32798 0
M  V30 5646 H 514.825 -0.711522 -3.89555 0
M  V30 5647 H 515.999 -3.44561 -3.05965 0
M  V30 5648 H 514.314 -3.00632 -2.88113 0
M  V30 5649 H 516.911 -1.40899 -5.15802 0
M  V30 5650 H 517.254 -0.0152302 -4.16297 0
M  V30 5651 H 517.787 -1.62809 -3.62957 0
M  V30 5652 H 514.526 -4.33535 -4.91658 0
M  V30 5653 H 514.046 -2.68245 -5.36475 0
M  V30 5654 H 515.725 -3.22412 -5.60945 0
M  V30 5655 N 515.857 1.33968 -0.830081 0
M  V30 5656 C 517.085 2.0228 -0.434773 0
M  V30 5657 C 517.5 1.62487 0.961419 0
M  V30 5658 O 516.857 0.833849 1.62337 0
M  V30 5659 C 516.908 3.5751 -0.535625 0
M  V30 5660 O 516.629 3.95864 -1.87679 0
M  V30 5661 C 518.13 4.43091 -0.136137 0
M  V30 5662 H 515.35 0.648151 -0.173613 0
M  V30 5663 H 517.894 1.71089 -1.12022 0
M  V30 5664 H 516.049 3.87266 0.101817 0
M  V30 5665 H 516.463 4.9056 -1.85609 0
M  V30 5666 H 517.937 5.51398 -0.257772 0
M  V30 5667 H 518.414 4.29433 0.921076 0
M  V30 5668 H 519.02 4.18677 -0.747662 0
M  V30 5669 N 517.335 0.585699 1.46312 0
M  V30 5670 C 518.751 0.247607 1.57668 0
M  V30 5671 C 518.951 -1.25007 1.58037 0
M  V30 5672 O 518.007 -2.03196 1.49893 0
M  V30 5673 C 519.32 0.899456 2.86933 0
M  V30 5674 C 520.868 0.873326 3.00569 0
M  V30 5675 C 521.343 1.50477 4.32574 0
M  V30 5676 N 522.834 1.46925 4.3928 0
M  V30 5677 C 523.569 1.92719 5.40044 0
M  V30 5678 N 523.065 2.46499 6.47464 0
M  V30 5679 N 524.858 1.83617 5.31264 0
M  V30 5680 H 517.009 1.55841 1.44317 0
M  V30 5681 H 519.272 0.651564 0.688599 0
M  V30 5682 H 518.978 1.95313 2.92482 0
M  V30 5683 H 518.852 0.409476 3.74971 0
M  V30 5684 H 521.239 -0.171736 2.946 0
M  V30 5685 H 521.32 1.40136 2.13999 0
M  V30 5686 H 520.964 2.54905 4.39302 0
M  V30 5687 H 520.894 0.951944 5.17924 0
M  V30 5688 H 523.385 1.07616 3.62253 0
M  V30 5689 H 523.698 2.79291 7.20567 0
M  V30 5690 H 522.043 2.50526 6.48276 0
M  V30 5691 H 525.234 1.41358 4.46246 0
M  V30 5692 H 525.407 2.19622 6.09648 0
M  V30 5693 N 518.813 -1.54241 0.323641 0
M  V30 5694 C 519.723 -2.28033 -0.551205 0
M  V30 5695 C 520.739 -1.32388 -1.12913 0
M  V30 5696 O 521.915 -1.65403 -1.14908 0
M  V30 5697 C 518.98 -3.02382 -1.69606 0
M  V30 5698 C 518.041 -4.13612 -1.14993 0
M  V30 5699 C 517.274 -4.84407 -2.24022 0
M  V30 5700 O 517.497 -4.54716 -3.44368 0
M  V30 5701 O 516.431 -5.71312 -1.89436 0
M  V30 5702 H 520.257 -3.03662 0.048066 0
M  V30 5703 H 517.842 -1.49133 0.0893289 0
M  V30 5704 H 519.724 -3.48941 -2.36259 0
M  V30 5705 H 518.399 -2.29628 -2.28151 0
M  V30 5706 H 517.306 -3.71402 -0.448484 0
M  V30 5707 H 518.639 -4.8841 -0.609608 0
M  V30 5708 N 520.291 -0.0518155 -1.57515 0
M  V30 5709 C 521.516 0.634896 -1.97443 0
M  V30 5710 C 521.941 1.63546 -0.929207 0
M  V30 5711 O 521.299 1.80981 0.107484 0
M  V30 5712 C 521.347 1.29765 -3.36442 0
M  V30 5713 O 520.451 2.41333 -3.34413 0
M  V30 5714 H 519.792 0.164994 -0.643174 0
M  V30 5715 H 522.322 -0.120407 -2.04245 0
M  V30 5716 H 522.332 1.64918 -3.73184 0
M  V30 5717 H 521.007 0.564361 -4.12053 0
M  V30 5718 H 519.584 2.08122 -3.09418 0
M  V30 5719 N 521.769 1.56035 0.221574 0
M  V30 5720 C 522.719 1.8881 1.27807 0
M  V30 5721 C 523.703 0.751177 1.42289 0
M  V30 5722 O 524.895 1.01359 1.45104 0
M  V30 5723 C 522.024 2.20828 2.6285 0
M  V30 5724 C 521.11 3.40912 2.52269 0
M  V30 5725 N 521.501 4.59531 2.1134 0
M  V30 5726 C 519.799 3.44526 2.83228 0
M  V30 5727 C 520.5 5.41689 2.1201 0
M  V30 5728 N 519.476 4.814 2.52497 0
M  V30 5729 H 523.278 2.78036 0.952529 0
M  V30 5730 H 520.792 1.566 0.430134 0
M  V30 5731 H 522.789 2.42483 3.39127 0
M  V30 5732 H 521.449 1.32914 2.9625 0
M  V30 5733 H 522.46 4.8469 1.82472 0
M  V30 5734 H 519.137 2.66956 3.21 0
M  V30 5735 H 520.527 6.46643 1.82491 0
M  V30 5736 N 523.247 -0.488276 1.49845 0
M  V30 5737 C 524.475 -1.26527 1.63702 0
M  V30 5738 C 524.89 -1.8618 0.313447 0
M  V30 5739 O 524.247 -1.68432 -0.702624 0
M  V30 5740 C 524.298 -2.3864 2.71538 0
M  V30 5741 O 524.019 -1.81437 3.98763 0
M  V30 5742 C 525.52 -3.29805 2.96215 0
M  V30 5743 H 522.74 -0.383295 0.55075 0
M  V30 5744 H 525.284 -0.584779 1.95961 0
M  V30 5745 H 523.439 -3.02496 2.42023 0
M  V30 5746 H 523.853 -2.55135 4.58265 0
M  V30 5747 H 525.327 -4.04722 3.75372 0
M  V30 5748 H 525.804 -3.87563 2.06619 0
M  V30 5749 H 526.41 -2.71703 3.27196 0
M  V30 5750 N 524.725 -1.39134 -0.740242 0
M  V30 5751 C 525.675 -1.33928 -1.84519 0
M  V30 5752 C 526.659 -0.221097 -1.59374 0
M  V30 5753 O 527.851 -0.458195 -1.70967 0
M  V30 5754 C 524.98 -1.17991 -3.22387 0
M  V30 5755 C 524.066 -2.34488 -3.53378 0
M  V30 5756 N 524.457 -3.59954 -3.5534 0
M  V30 5757 C 522.755 -2.27331 -3.83714 0
M  V30 5758 C 523.456 -4.36962 -3.83978 0
M  V30 5759 N 522.432 -3.66482 -4.01487 0
M  V30 5760 H 526.234 -2.28907 -1.84333 0
M  V30 5761 H 523.748 -1.32555 -0.938237 0
M  V30 5762 H 525.745 -1.12345 -4.01478 0
M  V30 5763 H 524.405 -0.23957 -3.23815 0
M  V30 5764 H 525.416 -3.93448 -3.36778 0
M  V30 5765 H 522.093 -1.41531 -3.92779 0
M  V30 5766 H 523.483 -5.45692 -3.92008 0
M  V30 5767 N 526.204 0.969867 -1.24223 0
M  V30 5768 C 527.62 1.23809 -1.00716 0
M  V30 5769 C 527.82 1.99469 0.285358 0
M  V30 5770 O 526.876 2.31764 1.00207 0
M  V30 5771 C 528.189 2.02734 -2.2208 0
M  V30 5772 C 529.737 2.15834 -2.26681 0
M  V30 5773 C 530.212 2.98154 -3.47661 0
M  V30 5774 N 531.703 3.05737 -3.47964 0
M  V30 5775 C 532.438 3.69785 -4.38231 0
M  V30 5776 N 531.934 4.35569 -5.3875 0
M  V30 5777 N 533.727 3.66775 -4.25949 0
M  V30 5778 H 525.878 0.463294 -2.07286 0
M  V30 5779 H 528.141 0.267348 -0.909521 0
M  V30 5780 H 527.847 1.54524 -3.15935 0
M  V30 5781 H 527.721 3.0347 -2.24021 0
M  V30 5782 H 530.108 2.63248 -1.33359 0
M  V30 5783 H 530.189 1.14453 -2.28767 0
M  V30 5784 H 529.833 2.51435 -4.41297 0
M  V30 5785 H 529.763 3.99729 -3.42818 0
M  V30 5786 H 532.254 2.58941 -2.75242 0
M  V30 5787 H 532.567 4.82251 -6.03866 0
M  V30 5788 H 530.912 4.34244 -5.42639 0
M  V30 5789 H 534.103 3.14558 -3.46657 0
M  V30 5790 H 534.276 4.16407 -4.96497 0
M  V30 5791 N 527.682 1.05563 1.17022 0
M  V30 5792 C 528.959 0.68165 1.83338 0
M  V30 5793 C 529.339 -0.837665 1.93769 0
M  V30 5794 O 528.687 -1.74507 1.47511 0
M  V30 5795 C 528.897 1.375 3.20772 0
M  V30 5796 C 530.245 1.51545 3.96635 0
M  V30 5797 O 531.269 1.33431 3.30264 0
M  V30 5798 O 530.128 1.812 5.15586 0
M  V30 5799 H 527.222 0.240412 0.791285 0
M  V30 5800 H 529.768 1.15545 1.24288 0
M  V30 5801 H 528.54 2.41135 3.08171 0
M  V30 5802 H 528.163 0.890798 3.87493 0
M  V30 5803 N 529.16 -1.33526 0.837174 0
M  V30 5804 C 530.576 -1.50727 0.524743 0
M  V30 5805 C 530.776 -1.77792 -0.948279 0
M  V30 5806 O 529.832 -1.83719 -1.73216 0
M  V30 5807 C 531.145 -2.66299 1.39661 0
M  V30 5808 C 532.693 -2.80183 1.39521 0
M  V30 5809 C 533.168 -3.98815 2.25189 0
M  V30 5810 N 534.659 -4.06047 2.2289 0
M  V30 5811 C 535.394 -4.97032 2.85915 0
M  V30 5812 N 534.89 -5.93143 3.57985 0
M  V30 5813 N 536.683 -4.90015 2.75394 0
M  V30 5814 H 528.834 -1.1422 1.79074 0
M  V30 5815 H 531.097 -0.561399 0.763894 0
M  V30 5816 H 530.803 -2.52974 2.4433 0
M  V30 5817 H 530.677 -3.61663 1.07145 0
M  V30 5818 H 533.064 -2.92942 0.356253 0
M  V30 5819 H 533.145 -1.85586 1.76044 0
M  V30 5820 H 532.789 -3.86817 3.29143 0
M  V30 5821 H 532.719 -4.92654 1.86009 0
M  V30 5822 H 535.21 -3.37262 1.70478 0
M  V30 5823 H 535.523 -6.59227 4.03286 0
M  V30 5824 H 533.868 -5.93223 3.62093 0
M  V30 5825 H 537.059 -4.13894 2.18654 0
M  V30 5826 H 537.232 -5.60724 3.24796 0
M  V30 5827 N 530.638 -0.59345 -1.46 0
M  V30 5828 C 532.049 -0.169801 -1.85926 0
M  V30 5829 C 532.4 1.26984 -1.49565 0
M  V30 5830 O 531.525 1.96076 -0.915602 0
M  V30 5831 C 532.12 -0.301385 -3.37457 0
M  V30 5832 C 530.679 0.0674684 -3.7634 0
M  V30 5833 C 529.826 -0.632383 -2.69993 0
M  V30 5834 H 532.777 -0.801014 -1.37002 0
M  V30 5835 H 532.798 0.470331 -3.77582 0
M  V30 5836 H 532.31 -1.34927 -3.63891 0
M  V30 5837 H 530.411 1.11507 -3.55523 0
M  V30 5838 H 530.524 -0.316332 -4.78055 0
M  V30 5839 H 528.888 -0.0714961 -2.546 0
M  V30 5840 H 529.671 -1.68212 -2.99265 0
M  V30 5841 N 532.116 1.54067 -0.331816 0
M  V30 5842 C 533.341 2.05599 0.272705 0
M  V30 5843 C 533.766 1.2059 1.44359 0
M  V30 5844 O 533.124 0.216907 1.79998 0
M  V30 5845 C 533.172 3.54188 0.677021 0
M  V30 5846 O 532.276 3.72082 1.77844 0
M  V30 5847 H 531.617 0.662286 0.0476801 0
M  V30 5848 H 534.147 1.98826 -0.482624 0
M  V30 5849 H 534.157 3.96608 0.957415 0
M  V30 5850 H 532.832 4.15513 -0.179325 0
M  V30 5851 H 531.409 3.41566 1.49622 0
M  V30 5852 N 533.594 0.0601682 1.57485 0
M  V30 5853 C 534.526 -0.94047 2.09016 0
M  V30 5854 C 535.539 -1.26897 1.01985 0
M  V30 5855 O 536.728 -1.22819 1.29529 0
M  V30 5856 C 533.828 -2.25955 2.52582 0
M  V30 5857 C 533.001 -2.11163 3.83052 0
M  V30 5858 C 532.06 -3.26273 4.12835 0
M  V30 5859 O 531.086 -3.01779 4.82616 0
M  V30 5860 N 532.288 -4.51022 3.65458 0
M  V30 5861 H 535.053 -0.500578 2.9549 0
M  V30 5862 H 532.614 -0.125852 1.6141 0
M  V30 5863 H 534.606 -3.01846 2.69575 0
M  V30 5864 H 533.176 -2.61481 1.71308 0
M  V30 5865 H 532.396 -1.19808 3.75552 0
M  V30 5866 H 533.684 -1.98517 4.68475 0
M  V30 5867 H 533.082 -4.73811 3.09062 0
M  V30 5868 H 531.639 -5.23978 3.87673 0
M  V30 5869 N 535.072 -1.5615 -0.213296 0
M  V30 5870 C 536.004 -1.89586 -1.28802 0
M  V30 5871 C 537.017 -0.784844 -1.42633 0
M  V30 5872 O 538.206 -1.06319 -1.43383 0
M  V30 5873 C 535.306 -2.09665 -2.66259 0
M  V30 5874 C 534.479 -3.40726 -2.7427 0
M  V30 5875 C 533.538 -3.50137 -3.92798 0
M  V30 5876 O 532.564 -4.23105 -3.8075 0
M  V30 5877 N 533.766 -2.81886 -5.07465 0
M  V30 5878 H 536.531 -2.82368 -1.00442 0
M  V30 5879 H 534.092 -1.56796 -0.403302 0
M  V30 5880 H 536.084 -2.13268 -3.43946 0
M  V30 5881 H 534.654 -1.23469 -2.87183 0
M  V30 5882 H 533.874 -3.4915 -1.82997 0
M  V30 5883 H 535.162 -4.27048 -2.76599 0
M  V30 5884 H 534.56 -2.22397 -5.2015 0
M  V30 5885 H 533.117 -2.91139 -5.83165 0
M  V30 5886 N 536.55 0.480323 -1.50102 0
M  V30 5887 C 537.482 1.59669 -1.64433 0
M  V30 5888 C 538.495 1.54063 -0.52615 0
M  V30 5889 O 539.684 1.59619 -0.798992 0
M  V30 5890 C 536.784 2.98527 -1.6042 0
M  V30 5891 C 535.957 3.291 -2.88117 0
M  V30 5892 C 535.016 4.47468 -2.76873 0
M  V30 5893 O 534.042 4.4823 -3.50825 0
M  V30 5894 N 535.244 5.48593 -1.89806 0
M  V30 5895 H 538.009 1.47795 -2.60723 0
M  V30 5896 H 535.57 0.66858 -1.4745 0
M  V30 5897 H 537.562 3.75666 -1.50523 0
M  V30 5898 H 536.132 3.04218 -0.719036 0
M  V30 5899 H 535.352 2.40662 -3.12211 0
M  V30 5900 H 536.64 3.46334 -3.72734 0
M  V30 5901 H 536.038 5.50791 -1.2902 0
M  V30 5902 H 534.595 6.24752 -1.85819 0
M  V30 5903 N 538.028 1.39524 0.732853 0
M  V30 5904 C 539.439 1.32905 1.31122 0
M  V30 5905 C 539.79 -0.00558708 1.96199 0
M  V30 5906 O 538.915 -0.907706 1.96443 0
M  V30 5907 C 539.51 2.40704 2.38426 0
M  V30 5908 C 538.069 2.37599 2.91931 0
M  V30 5909 C 537.216 2.2248 1.65523 0
M  V30 5910 H 540.167 1.49581 0.530207 0
M  V30 5911 H 540.188 2.07616 3.18867 0
M  V30 5912 H 539.7 3.37829 1.91033 0
M  V30 5913 H 537.801 1.44119 3.43599 0
M  V30 5914 H 537.914 3.32538 3.44899 0
M  V30 5915 H 536.278 1.69691 1.8994 0
M  V30 5916 H 537.061 3.21577 1.20178 0
M  V30 5917 N 539.506 -0.963266 1.24736 0
M  V30 5918 C 540.436 -2.07628 1.06832 0
M  V30 5919 C 541.417 -1.70088 -0.0200566 0
M  V30 5920 O 542.602 -1.93636 0.147854 0
M  V30 5921 C 539.732 -3.40636 0.677069 0
M  V30 5922 C 538.686 -3.9215 1.71471 0
M  V30 5923 C 538.012 -5.21553 1.1784 0
M  V30 5924 C 539.312 -4.19493 3.11164 0
M  V30 5925 H 541.006 -2.22864 1.9993 0
M  V30 5926 H 538.552 -1.07093 0.96266 0
M  V30 5927 H 540.505 -4.17941 0.538792 0
M  V30 5928 H 539.229 -3.25313 -0.289612 0
M  V30 5929 H 537.888 -3.17005 1.84128 0
M  V30 5930 H 537.536 -5.02593 0.202195 0
M  V30 5931 H 537.236 -5.56988 1.87185 0
M  V30 5932 H 538.76 -6.01463 1.05233 0
M  V30 5933 H 540.174 -4.87487 3.01711 0
M  V30 5934 H 538.571 -4.66165 3.77902 0
M  V30 5935 H 539.641 -3.26097 3.58871 0
M  V30 5936 N 540.985 -1.06182 -1.16461 0
M  V30 5937 C 542.401 -0.785065 -1.38956 0
M  V30 5938 C 542.601 0.616103 -1.9185 0
M  V30 5939 O 541.657 1.37686 -2.11657 0
M  V30 5940 C 542.97 -1.84902 -2.37132 0
M  V30 5941 C 544.518 -1.8724 -2.50819 0
M  V30 5942 C 544.993 -2.92686 -3.52277 0
M  V30 5943 N 546.484 -2.91712 -3.59803 0
M  V30 5944 C 547.219 -3.69949 -4.38093 0
M  V30 5945 N 546.715 -4.58 -5.19815 0
M  V30 5946 N 548.508 -3.58346 -4.33064 0
M  V30 5947 H 540.659 -1.96569 -0.804634 0
M  V30 5948 H 542.922 -0.851747 -0.416211 0
M  V30 5949 H 542.628 -2.85518 -2.0536 0
M  V30 5950 H 542.502 -1.69908 -3.36766 0
M  V30 5951 H 544.889 -0.872827 -2.81897 0
M  V30 5952 H 544.97 -2.06311 -1.51226 0
M  V30 5953 H 544.614 -3.92835 -3.21937 0
M  V30 5954 H 544.544 -2.70864 -4.51598 0
M  V30 5955 H 547.035 -2.27876 -3.01464 0
M  V30 5956 H 547.348 -5.14357 -5.76764 0
M  V30 5957 H 545.693 -4.62056 -5.19162 0
M  V30 5958 H 548.884 -2.88943 -3.68279 0
M  V30 5959 H 549.057 -4.19563 -4.93833 0
M  V30 5960 N 542.463 1.3308 -0.844243 0
M  V30 5961 C 543.411 2.31028 -0.269954 0
M  V30 5962 C 544.405 1.58381 0.600997 0
M  V30 5963 O 545.611 1.73203 0.48996 0
M  V30 5964 H 541.986 0.748866 -0.0685782 0
M  V30 5965 H 543.957 2.76967 -1.11049 0
M  V30 5966 C 542.706 3.43549 0.535676 0
M  V30 5967 H 542.029 3.99604 -0.125202 0
M  V30 5968 H 543.469 4.14267 0.903262 0
M  V30 5969 C 541.928 2.8988 1.71672 0
M  V30 5970 O 542.458 2.86511 2.81557 0
M  V30 5971 N 540.664 2.46416 1.54037 0
M  V30 5972 H 540.211 2.49356 0.64649 0
M  V30 5973 H 540.169 2.1086 2.33207 0
M  V30 5974 N 543.941 0.601185 1.45683 0
M  V30 5975 C 544.873 -0.159446 2.28645 0
M  V30 5976 C 545.886 -0.837882 1.39583 0
M  V30 5977 O 547.075 -0.704344 1.64016 0
M  V30 5978 C 544.175 -1.24641 3.15147 0
M  V30 5979 C 543.348 -0.656334 4.32448 0
M  V30 5980 C 542.407 -1.63337 5.00208 0
M  V30 5981 O 541.433 -1.16217 5.57209 0
M  V30 5982 N 542.635 -2.96773 4.98905 0
M  V30 5983 H 545.4 0.5524 2.94565 0
M  V30 5984 H 542.961 0.440223 1.558 0
M  V30 5985 H 544.953 -1.8997 3.57342 0
M  V30 5986 H 543.523 -1.86087 2.51178 0
M  V30 5987 H 542.743 0.174879 3.93812 0
M  V30 5988 H 544.031 -0.242211 5.08223 0
M  V30 5989 H 543.429 -3.37662 4.53873 0
M  V30 5990 H 541.986 -3.57541 5.44984 0
M  V30 5991 N 545.419 -1.53889 0.339982 0
M  V30 5992 C 546.665 -2.01152 -0.258003 0
M  V30 5993 C 546.998 -1.22749 -1.50487 0
M  V30 5994 O 546.273 -0.314156 -1.91946 0
M  V30 5995 C 546.556 -3.55468 -0.575717 0
M  V30 5996 C 546.409 -4.44584 0.682996 0
M  V30 5997 C 547.728 -4.1768 -1.38677 0
M  V30 5998 H 544.847 -0.731198 -0.0922992 0
M  V30 5999 H 547.489 -1.84352 0.459814 0
M  V30 6000 H 545.639 -3.69914 -1.18725 0
M  V30 6001 H 547.311 -4.41981 1.32102 0
M  V30 6002 H 545.554 -4.13592 1.3086 0
M  V30 6003 H 546.225 -5.5043 0.416001 0
M  V30 6004 H 548.701 -4.0691 -0.869705 0
M  V30 6005 H 547.577 -5.25734 -1.57783 0
M  V30 6006 H 547.838 -3.72069 -2.38782 0
M  V30 6007 N 546.897 -0.0685191 -1.57451 0
M  V30 6008 C 548.143 0.602239 -1.93652 0
M  V30 6009 C 548.476 1.6946 -0.948526 0
M  V30 6010 O 547.751 1.94487 0.022782 0
M  V30 6011 C 548.034 1.18223 -3.4014 0
M  V30 6012 C 547.887 0.0967431 -4.49696 0
M  V30 6013 C 549.206 2.08872 -3.87377 0
M  V30 6014 H 546.325 0.217453 -0.70419 0
M  V30 6015 H 548.967 -0.133821 -1.89528 0
M  V30 6016 H 547.117 1.80953 -3.43785 0
M  V30 6017 H 548.789 -0.536155 -4.58174 0
M  V30 6018 H 547.032 -0.573063 -4.29998 0
M  V30 6019 H 547.703 0.542894 -5.49324 0
M  V30 6020 H 550.179 1.56081 -3.85717 0
M  V30 6021 H 549.055 2.46389 -4.90493 0
M  V30 6022 H 549.316 2.99572 -3.25129 0
M  V30 6023 N 548.375 1.56261 0.205012 0
M  V30 6024 C 549.6 1.84491 0.947512 0
M  V30 6025 C 550.025 0.650894 1.76479 0
M  V30 6026 O 549.383 -0.40035 1.76824 0
M  V30 6027 C 549.431 3.10863 1.82747 0
M  V30 6028 O 548.535 2.90719 2.925 0
M  V30 6029 H 547.876 0.607783 0.267386 0
M  V30 6030 H 550.406 2.03485 0.213323 0
M  V30 6031 H 550.416 3.41399 2.23407 0
M  V30 6032 H 549.091 3.97392 1.2269 0
M  V30 6033 H 547.668 2.71457 2.55667 0
M  V30 6034 N 549.853 -0.472356 1.50355 0
M  V30 6035 C 551.078 -1.25251 1.65309 0
M  V30 6036 C 551.503 -1.85081 0.335643 0
M  V30 6037 O 550.861 -1.67227 -0.700335 0
M  V30 6038 C 550.909 -2.3379 2.74544 0
M  V30 6039 O 550.013 -3.38401 2.35709 0
M  V30 6040 H 549.354 -0.368539 0.552336 0
M  V30 6041 H 551.884 -0.562271 1.96722 0
M  V30 6042 H 551.894 -2.79121 2.97583 0
M  V30 6043 H 550.569 -1.89614 3.70161 0
M  V30 6044 H 549.146 -2.9879 2.23112 0
M  V30 6045 N 551.331 -1.39911 -0.725443 0
M  V30 6046 C 552.559 -1.40949 -1.51463 0
M  V30 6047 C 552.974 -0.0065242 -1.88799 0
M  V30 6048 O 552.331 0.967163 -1.54765 0
M  V30 6049 C 552.382 -2.29119 -2.79619 0
M  V30 6050 O 552.103 -3.63952 -2.43866 0
M  V30 6051 C 553.604 -2.38642 -3.73584 0
M  V30 6052 H 550.824 -0.481091 -0.467752 0
M  V30 6053 H 553.368 -1.83843 -0.895651 0
M  V30 6054 H 551.523 -1.89612 -3.37826 0
M  V30 6055 H 551.937 -4.10677 -3.26258 0
M  V30 6056 H 553.411 -3.04563 -4.60375 0
M  V30 6057 H 553.888 -1.40846 -4.16004 0
M  V30 6058 H 554.494 -2.78659 -3.21293 0
M  V30 6059 N 552.809 0.956637 -1.25245 0
M  V30 6060 C 553.757 2.0743 -1.0524 0
M  V30 6061 C 554.751 1.69392 0.0160725 0
M  V30 6062 O 555.957 1.7946 -0.139382 0
M  V30 6063 H 552.332 0.678921 -0.323373 0
M  V30 6064 H 554.303 2.2146 -1.99995 0
M  V30 6065 C 553.052 3.40872 -0.685702 0
M  V30 6066 H 552.375 3.70607 -1.49968 0
M  V30 6067 H 553.815 4.19939 -0.585415 0
M  V30 6068 C 552.274 3.31367 0.608082 0
M  V30 6069 O 552.804 3.66214 1.65076 0
M  V30 6070 N 551.01 2.84486 0.592955 0
M  V30 6071 H 550.557 2.56326 -0.25592 0
M  V30 6072 H 550.515 2.78509 1.45877 0
M  V30 6073 N 554.287 1.06798 1.15896 0
M  V30 6074 C 555.535 0.786211 1.8618 0
M  V30 6075 C 555.856 -0.689547 1.82401 0
M  V30 6076 O 555.126 -1.49913 1.26107 0
M  V30 6077 H 553.706 0.287843 0.689315 0
M  V30 6078 H 556.368 1.35055 1.40521 0
M  V30 6079 H 555.464 1.1157 2.91477 0
M  V30 6080 N 555.766 -1.3263 0.851289 0
M  V30 6081 C 556.676 -2.32722 0.296268 0
M  V30 6082 C 557.692 -1.63901 -0.584162 0
M  V30 6083 O 558.868 -1.95465 -0.485334 0
M  V30 6084 C 555.933 -3.42942 -0.509103 0
M  V30 6085 C 554.994 -4.2746 0.397069 0
M  V30 6086 C 554.227 -5.32416 -0.36996 0
M  V30 6087 O 554.45 -5.47491 -1.6003 0
M  V30 6088 O 553.384 -6.01327 0.262493 0
M  V30 6089 H 557.21 -2.82078 1.12543 0
M  V30 6090 H 554.795 -1.36194 0.614135 0
M  V30 6091 H 556.677 -4.1017 -0.96634 0
M  V30 6092 H 555.352 -2.95781 -1.31512 0
M  V30 6093 H 554.259 -3.63053 0.902411 0
M  V30 6094 H 555.592 -4.78136 1.16818 0
M  V30 6095 N 557.244 -0.608902 -1.45362 0
M  V30 6096 C 558.174 0.0964526 -2.33301 0
M  V30 6097 C 559.155 0.857444 -1.46908 0
M  V30 6098 O 560.34 0.827735 -1.75676 0
M  V30 6099 C 557.47 1.09354 -3.29635 0
M  V30 6100 C 556.424 0.445676 -4.25673 0
M  V30 6101 C 555.75 1.5511 -5.11708 0
M  V30 6102 C 557.05 -0.633972 -5.18438 0
M  V30 6103 H 558.744 -0.637829 -2.92527 0
M  V30 6104 H 556.29 -0.308178 -1.40664 0
M  V30 6105 H 558.243 1.59556 -3.90025 0
M  V30 6106 H 556.967 1.85843 -2.6857 0
M  V30 6107 H 555.626 -0.0354897 -3.66583 0
M  V30 6108 H 555.274 2.30631 -4.4701 0
M  V30 6109 H 554.974 1.12311 -5.76767 0
M  V30 6110 H 556.498 2.05537 -5.74967 0
M  V30 6111 H 557.912 -0.215974 -5.72893 0
M  V30 6112 H 556.309 -0.983789 -5.91981 0
M  V30 6113 H 557.379 -1.51005 -4.60788 0
M  V30 6114 N 558.722 1.53707 -0.348139 0
M  V30 6115 C 559.67 2.26671 0.521808 0
M  V30 6116 C 560.664 1.28988 1.09811 0
M  V30 6117 O 561.87 1.4668 1.04332 0
M  V30 6118 H 558.245 0.728387 0.186968 0
M  V30 6119 H 560.216 2.98176 -0.115563 0
M  V30 6120 C 558.965 3.05591 1.6586 0
M  V30 6121 H 558.288 3.80589 1.22443 0
M  V30 6122 H 559.728 3.59851 2.24239 0
M  V30 6123 C 558.187 2.15366 2.59073 0
M  V30 6124 O 558.717 1.7528 3.61441 0
M  V30 6125 N 556.923 1.80352 2.27863 0
M  V30 6126 H 556.47 2.13149 1.44656 0
M  V30 6127 H 556.428 1.20268 2.90488 0
M  V30 6128 N 560.2 0.0768682 1.57412 0
M  V30 6129 C 561.446 -0.591961 1.93968 0
M  V30 6130 C 561.779 -1.68954 0.9575 0
M  V30 6131 O 561.054 -1.94496 -0.0124675 0
M  V30 6132 C 561.337 -1.16418 3.40762 0
M  V30 6133 C 561.19 -0.0728933 4.49741 0
M  V30 6134 C 562.509 -2.06814 3.88479 0
M  V30 6135 H 559.628 -0.213716 0.705333 0
M  V30 6136 H 562.27 0.14387 1.89455 0
M  V30 6137 H 560.42 -1.79128 3.4474 0
M  V30 6138 H 562.092 0.560446 4.57883 0
M  V30 6139 H 560.335 0.595859 4.29688 0
M  V30 6140 H 561.006 -0.513755 5.49604 0
M  V30 6141 H 563.482 -1.54033 3.8654 0
M  V30 6142 H 562.358 -2.43785 4.91793 0
M  V30 6143 H 562.619 -2.97844 3.26713 0
M  V30 6144 N 561.678 -1.56367 -0.196722 0
M  V30 6145 C 562.955 -1.71359 -0.943159 0
M  V30 6146 C 563.335 -0.631192 -2.01443 0
M  V30 6147 O 562.683 0.358071 -2.25677 0
M  V30 6148 C 562.893 -3.13623 -1.53106 0
M  V30 6149 C 564.241 -3.73806 -2.01381 0
M  V30 6150 O 565.265 -3.16742 -1.62951 0
M  V30 6151 O 564.124 -4.73951 -2.7209 0
M  V30 6152 H 561.218 -0.698851 -0.442195 0
M  V30 6153 H 563.764 -1.68672 -0.186547 0
M  V30 6154 H 562.536 -3.83873 -0.758785 0
M  V30 6155 H 562.159 -3.20532 -2.35255 0
M  V30 6156 N 563.156 0.464375 -1.50603 0
M  V30 6157 C 564.433 1.22549 -1.5245 0
M  V30 6158 C 564.813 2.09327 -0.273035 0
M  V30 6159 O 564.161 2.16074 0.743242 0
M  V30 6160 C 564.371 2.05074 -2.82393 0
M  V30 6161 C 565.719 2.63036 -3.33313 0
M  V30 6162 O 566.743 2.1531 -2.8376 0
M  V30 6163 O 565.602 3.5001 -4.19709 0
M  V30 6164 H 562.696 0.556471 -0.611775 0
M  V30 6165 H 565.242 0.475648 -1.62898 0
M  V30 6166 H 564.014 1.41169 -3.64948 0
M  V30 6167 H 563.637 2.87179 -2.7498 0
M  V30 6168 N 564.634 1.40294 0.718013 0
M  V30 6169 C 566.045 1.34289 1.29705 0
M  V30 6170 C 566.396 0.0152228 1.96194 0
M  V30 6171 O 565.521 -0.88682 1.97394 0
M  V30 6172 C 566.116 2.43219 2.3586 0
M  V30 6173 C 564.675 2.40682 2.89394 0
M  V30 6174 C 563.822 2.24223 1.63154 0
M  V30 6175 H 566.773 1.50135 0.514312 0
M  V30 6176 H 566.794 2.10986 3.16647 0
M  V30 6177 H 566.306 3.39836 1.87439 0
M  V30 6178 H 564.407 1.47756 3.42051 0
M  V30 6179 H 564.52 3.36177 3.41353 0
M  V30 6180 H 562.884 1.71696 1.88129 0
M  V30 6181 H 563.667 3.22834 1.16761 0
M  V30 6182 N 566.112 -0.949982 1.2575 0
M  V30 6183 C 567.34 -1.72972 1.13527 0
M  V30 6184 C 567.755 -1.8623 -0.310453 0
M  V30 6185 O 567.112 -1.36336 -1.2132 0
M  V30 6186 C 567.163 -3.14108 1.78936 0
M  V30 6187 O 566.884 -3.01493 3.17858 0
M  V30 6188 C 568.385 -4.08338 1.72554 0
M  V30 6189 H 565.605 -0.541864 0.395758 0
M  V30 6190 H 568.149 -1.19151 1.66202 0
M  V30 6191 H 566.304 -3.64858 1.30221 0
M  V30 6192 H 566.718 -3.90559 3.50092 0
M  V30 6193 H 568.192 -5.04963 2.22973 0
M  V30 6194 H 568.669 -4.33742 0.690251 0
M  V30 6195 H 569.275 -3.63506 2.2078 0
M  V30 6196 N 567.59 -1.07411 -1.15328 0
M  V30 6197 C 568.838 -0.796073 -1.85761 0
M  V30 6198 C 569.159 0.679864 -1.82764 0
M  V30 6199 O 568.429 1.49242 -1.269 0
M  V30 6200 H 567.009 -0.291495 -0.687779 0
M  V30 6201 H 569.671 -1.35799 -1.39802 0
M  V30 6202 H 568.767 -1.13114 -2.90881 0
M  V30 6203 N 569.068 1.32177 -0.85831 0
M  V30 6204 C 570.031 2.27086 -0.310588 0
M  V30 6205 C 571.031 1.51751 0.531806 0
M  V30 6206 O 572.221 1.70794 0.34279 0
M  V30 6207 C 569.353 3.36266 0.560179 0
M  V30 6208 H 570.546 2.77045 -1.1483 0
M  V30 6209 H 568.099 1.42911 -0.632942 0
M  V30 6210 H 568.834 2.9158 1.41956 0
M  V30 6211 H 568.619 3.92077 -0.0428473 0
M  V30 6212 H 570.109 4.06974 0.936056 0
M  V30 6213 N 570.547 0.616602 1.45037 0
M  V30 6214 C 571.497 -0.118543 2.27692 0
M  V30 6215 C 572.481 -0.830025 1.37838 0
M  V30 6216 O 573.673 -0.718528 1.6176 0
M  V30 6217 C 570.802 -1.10924 3.24886 0
M  V30 6218 C 569.888 -0.398134 4.22227 0
M  V30 6219 N 570.279 0.565233 5.02632 0
M  V30 6220 C 568.577 -0.644506 4.41319 0
M  V30 6221 C 569.278 0.984043 5.73316 0
M  V30 6222 N 568.254 0.325879 5.42622 0
M  V30 6223 H 572.056 0.621239 2.87259 0
M  V30 6224 H 569.57 0.440968 1.56299 0
M  V30 6225 H 571.567 -1.65038 3.82842 0
M  V30 6226 H 570.227 -1.84948 2.66879 0
M  V30 6227 H 571.238 0.942395 5.09254 0
M  V30 6228 H 567.915 -1.36873 3.94426 0
M  V30 6229 H 569.305 1.77911 6.47918 0
M  V30 6230 N 572.025 -1.5352 0.356285 0
M  V30 6231 C 573.25 -2.06007 -0.239961 0
M  V30 6232 C 573.675 -1.22872 -1.42422 0
M  V30 6233 O 573.033 -0.245516 -1.7963 0
M  V30 6234 C 573.081 -3.5522 -0.620587 0
M  V30 6235 O 572.185 -3.74864 -1.71902 0
M  V30 6236 H 571.526 -0.662961 -0.0371377 0
M  V30 6237 H 574.056 -1.98033 0.514194 0
M  V30 6238 H 574.066 -3.98081 -0.894197 0
M  V30 6239 H 572.741 -4.15175 0.245407 0
M  V30 6240 H 571.318 -3.43904 -1.44169 0
M  V30 6241 N 573.503 -0.0852151 -1.57369 0
M  V30 6242 C 574.451 0.894856 -2.14698 0
M  V30 6243 C 575.445 1.29903 -1.08727 0
M  V30 6244 O 576.651 1.27471 -1.27088 0
M  V30 6245 H 573.026 0.306569 -0.686673 0
M  V30 6246 H 574.997 0.386542 -2.95886 0
M  V30 6247 C 573.746 2.14798 -2.73417 0
M  V30 6248 H 573.069 1.84585 -3.54638 0
M  V30 6249 H 574.509 2.81456 -3.1711 0
M  V30 6250 C 572.968 2.91546 -1.68828 0
M  V30 6251 O 573.498 3.85733 -1.12129 0
M  V30 6252 N 571.704 2.54901 -1.39549 0
M  V30 6253 H 571.251 1.7838 -1.85845 0
M  V30 6254 H 571.209 3.06553 -0.698054 0
M  V30 6255 N 574.981 1.5647 0.188427 0
M  V30 6256 C 575.944 1.9421 1.21718 0
M  V30 6257 C 576.944 0.823901 1.38089 0
M  V30 6258 O 578.134 1.09122 1.35787 0
M  V30 6259 C 575.266 2.22197 2.58537 0
M  V30 6260 H 576.459 2.86252 0.894418 0
M  V30 6261 H 574.012 1.50263 0.430211 0
M  V30 6262 H 574.747 1.32814 2.95856 0
M  V30 6263 H 574.532 3.03688 2.48025 0
M  V30 6264 H 576.022 2.52376 3.3271 0
M  V30 6265 N 576.459 -0.456382 1.50847 0
M  V30 6266 C 577.87 -1.03685 1.55262 0
M  V30 6267 C 578.221 -1.92779 0.364771 0
M  V30 6268 O 577.346 -2.10043 -0.52068 0
M  V30 6269 C 577.941 -1.88718 2.81374 0
M  V30 6270 C 576.5 -2.41847 2.88422 0
M  V30 6271 C 575.647 -1.20564 2.49719 0
M  V30 6272 H 578.598 -0.238399 1.56899 0
M  V30 6273 H 578.619 -2.73957 2.6406 0
M  V30 6274 H 578.131 -1.23847 3.67809 0
M  V30 6275 H 576.232 -3.10228 2.06372 0
M  V30 6276 H 576.345 -2.75947 3.9165 0
M  V30 6277 H 574.709 -1.54504 2.02486 0
M  V30 6278 H 575.492 -0.573326 3.38479 0
M  V30 6279 N 577.937 -1.40673 -0.710563 0
M  V30 6280 C 579.186 -1.38525 -1.46607 0
M  V30 6281 C 579.499 0.0077024 -1.95598 0
M  V30 6282 O 580.705 0.151792 -2.71075 0
M  V30 6283 C 579.161 -2.43489 -2.6503 0
M  V30 6284 C 578.769 -3.88619 -2.22888 0
M  V30 6285 C 580.513 -2.50456 -3.42742 0
M  V30 6286 C 578.42 -4.85168 -3.3818 0
M  V30 6287 H 577.35 -0.515092 -0.550632 0
M  V30 6288 H 580.001 -1.66431 -0.772846 0
M  V30 6289 H 578.383 -2.0869 -3.36548 0
M  V30 6290 H 579.557 -4.32588 -1.58758 0
M  V30 6291 H 577.872 -3.85174 -1.58208 0
M  V30 6292 H 580.469 -3.19776 -4.28541 0
M  V30 6293 H 580.812 -1.53665 -3.86902 0
M  V30 6294 H 581.345 -2.84271 -2.78271 0
M  V30 6295 H 578.084 -5.8331 -2.99047 0
M  V30 6296 H 577.604 -4.4586 -4.01209 0
M  V30 6297 H 579.283 -5.05225 -4.04174 0
M  V30 6298 N 579.415 0.9433 -1.26252 0
M  V30 6299 C 580.643 1.72367 -1.14443 0
M  V30 6300 C 581.058 1.86392 0.300572 0
M  V30 6301 O 580.415 1.36978 1.20596 0
M  V30 6302 C 580.466 3.13155 -1.806 0
M  V30 6303 O 580.187 2.99803 -3.19452 0
M  V30 6304 C 581.688 4.07417 -1.74717 0
M  V30 6305 H 578.908 0.539758 -0.398626 0
M  V30 6306 H 581.452 1.18268 -1.66832 0
M  V30 6307 H 579.607 3.64162 -1.32154 0
M  V30 6308 H 580.021 3.88697 -3.52158 0
M  V30 6309 H 581.495 5.03773 -2.25647 0
M  V30 6310 H 581.972 4.3337 -0.713244 0
M  V30 6311 H 582.578 3.6233 -2.22704 0
M  V30 6312 N 580.893 1.08022 1.14757 0
M  V30 6313 C 581.856 0.71048 2.1791 0
M  V30 6314 C 582.856 -0.252731 1.58801 0
M  V30 6315 O 584.046 -0.0327915 1.74169 0
M  V30 6316 C 581.178 0.0483203 3.40866 0
M  V30 6317 H 582.371 1.62384 2.52134 0
M  V30 6318 H 579.924 0.877595 1.29337 0
M  V30 6319 H 580.659 -0.876959 3.12218 0
M  V30 6320 H 580.444 0.741189 3.85031 0
M  V30 6321 H 581.934 -0.195471 4.17142 0
M  V30 6322 N 582.371 -1.3172 0.865308 0
M  V30 6323 C 583.321 -2.26157 0.289305 0
M  V30 6324 C 584.305 -1.50428 -0.570977 0
M  V30 6325 O 585.497 -1.71978 -0.418617 0
M  V30 6326 C 582.626 -3.39457 -0.512237 0
M  V30 6327 C 581.712 -4.22561 0.361028 0
M  V30 6328 N 582.103 -4.84501 1.45231 0
M  V30 6329 C 580.401 -4.45739 0.152641 0
M  V30 6330 C 581.102 -5.46586 1.99043 0
M  V30 6331 N 580.078 -5.28119 1.28809 0
M  V30 6332 H 583.88 -2.71581 1.12344 0
M  V30 6333 H 581.394 -1.45932 0.712565 0
M  V30 6334 H 583.391 -4.06133 -0.941379 0
M  V30 6335 H 582.051 -2.95577 -1.34404 0
M  V30 6336 H 583.062 -4.84293 1.83524 0
M  V30 6337 H 579.739 -4.1251 -0.643583 0
M  V30 6338 H 581.129 -6.05817 2.90577 0
M  V30 6339 N 583.85 -0.624285 -1.44708 0
M  V30 6340 C 584.812 0.0749638 -2.29077 0
M  V30 6341 C 585.812 0.778965 -1.40673 0
M  V30 6342 O 587.003 0.624591 -1.62618 0
M  V30 6343 C 584.135 1.11663 -3.22094 0
M  V30 6344 H 585.327 -0.667013 -2.92388 0
M  V30 6345 H 582.88 -0.384098 -1.51507 0
M  V30 6346 H 583.615 1.88881 -2.63618 0
M  V30 6347 H 583.401 0.61583 -3.87234 0
M  V30 6348 H 584.891 1.60585 -3.8549 0
M  V30 6349 N 585.328 1.53329 -0.364422 0
M  V30 6350 C 586.238 2.29414 0.490552 0
M  V30 6351 C 587.254 1.35335 1.09363 0
M  V30 6352 O 588.43 1.68391 1.10483 0
M  V30 6353 C 585.495 3.06772 1.61529 0
M  V30 6354 C 584.556 4.16516 1.03986 0
M  V30 6355 C 583.789 4.90176 2.111 0
M  V30 6356 O 584.012 4.63687 3.32191 0
M  V30 6357 O 582.946 5.76134 1.74222 0
M  V30 6358 H 586.772 3.03428 -0.12856 0
M  V30 6359 H 584.357 1.48843 -0.128837 0
M  V30 6360 H 586.239 3.55082 2.26924 0
M  V30 6361 H 584.914 2.35596 2.21983 0
M  V30 6362 H 583.821 3.7246 0.349856 0
M  V30 6363 H 585.154 4.89855 0.4799 0
M  V30 6364 N 586.806 0.0935595 1.57322 0
M  V30 6365 C 588.052 -0.571355 1.94585 0
M  V30 6366 C 588.385 -1.67929 0.975366 0
M  V30 6367 O 587.66 -1.94498 0.00816206 0
M  V30 6368 C 587.943 -1.12797 3.41978 0
M  V30 6369 C 587.796 -0.0251881 4.49793 0
M  V30 6370 C 589.115 -2.02682 3.90651 0
M  V30 6371 H 586.234 -0.206223 0.70756 0
M  V30 6372 H 588.876 0.163956 1.89291 0
M  V30 6373 H 587.026 -1.75461 3.4662 0
M  V30 6374 H 588.698 0.608979 4.57263 0
M  V30 6375 H 586.941 0.641399 4.29032 0
M  V30 6376 H 587.612 -0.455433 5.50118 0
M  V30 6377 H 590.088 -1.49925 3.88152 0
M  V30 6378 H 588.964 -2.38555 4.94351 0
M  V30 6379 H 589.225 -2.94362 3.29854 0
M  V30 6380 N 588.284 -1.56567 -0.180126 0
M  V30 6381 C 589.194 -1.98947 -1.24327 0
M  V30 6382 C 590.21 -0.899446 -1.4895 0
M  V30 6383 O 591.386 -1.20639 -1.61271 0
M  V30 6384 C 588.451 -2.33328 -2.56435 0
M  V30 6385 C 587.512 -3.56114 -2.39752 0
M  V30 6386 C 586.745 -3.88845 -3.65561 0
M  V30 6387 O 586.968 -3.22662 -4.70368 0
M  V30 6388 O 585.902 -4.82226 -3.60197 0
M  V30 6389 H 589.728 -2.89634 -0.913565 0
M  V30 6390 H 587.313 -1.44319 -0.386306 0
M  V30 6391 H 589.195 -2.5645 -3.34382 0
M  V30 6392 H 587.87 -1.45806 -2.89002 0
M  V30 6393 H 586.777 -3.38221 -1.59866 0
M  V30 6394 H 588.11 -4.4415 -2.12113 0
M  V30 6395 N 589.762 0.448376 -1.51087 0
M  V30 6396 C 591.008 1.20049 -1.6345 0
M  V30 6397 C 591.341 1.91121 -0.344444 0
M  V30 6398 O 590.616 1.83125 0.655396 0
M  V30 6399 C 590.899 2.22624 -2.83038 0
M  V30 6400 C 590.752 1.55708 -4.21989 0
M  V30 6401 C 592.071 3.23718 -2.98152 0
M  V30 6402 H 589.19 0.435085 -0.59487 0
M  V30 6403 H 591.832 0.491183 -1.83541 0
M  V30 6404 H 589.982 2.83117 -2.66039 0
M  V30 6405 H 591.654 0.986367 -4.50631 0
M  V30 6406 H 589.897 0.859647 -4.25197 0
M  V30 6407 H 590.568 2.30357 -5.01637 0
M  V30 6408 H 593.044 2.73269 -3.13788 0
M  V30 6409 H 591.92 3.92795 -3.83411 0
M  V30 6410 H 592.181 3.89179 -2.09743 0
M  V30 6411 N 591.24 1.41047 0.703093 0
M  V30 6412 C 592.486 1.40207 1.46526 0
M  V30 6413 C 592.819 0.00847763 1.94198 0
M  V30 6414 O 592.094 -0.962437 1.69019 0
M  V30 6415 C 592.377 2.40238 2.6825 0
M  V30 6416 C 592.23 3.88674 2.26391 0
M  V30 6417 C 593.549 2.37627 3.70434 0
M  V30 6418 H 590.668 0.510594 0.531472 0
M  V30 6419 H 593.31 1.72271 0.801422 0
M  V30 6420 H 591.46 2.13026 3.24888 0
M  V30 6421 H 593.132 4.2676 1.75138 0
M  V30 6422 H 591.375 4.03903 1.58255 0
M  V30 6423 H 592.046 4.542 3.13698 0
M  V30 6424 H 594.522 2.61759 3.23452 0
M  V30 6425 H 593.398 3.09645 4.53223 0
M  V30 6426 H 593.659 1.39223 4.19606 0
M  V30 6427 N 592.718 -0.936591 1.26751 0
M  V30 6428 C 593.628 -2.06949 1.10496 0
M  V30 6429 C 594.644 -1.7396 0.037271 0
M  V30 6430 O 595.82 -1.99941 0.241944 0
M  V30 6431 C 592.885 -3.38612 0.744491 0
M  V30 6432 C 591.946 -3.85355 1.89209 0
M  V30 6433 C 591.179 -5.10735 1.54873 0
M  V30 6434 O 591.402 -5.68602 0.452546 0
M  V30 6435 O 590.336 -5.52632 2.38499 0
M  V30 6436 H 594.162 -2.23571 2.05547 0
M  V30 6437 H 591.747 -1.05428 1.05855 0
M  V30 6438 H 593.629 -4.17711 0.556396 0
M  V30 6439 H 592.304 -3.23218 -0.176582 0
M  V30 6440 H 591.211 -3.07182 2.13518 0
M  V30 6441 H 592.544 -4.05277 2.79305 0
M  V30 6442 N 594.196 -1.08629 -1.14182 0
M  V30 6443 C 595.106 -0.730126 -2.22949 0
M  V30 6444 C 596.122 0.26436 -1.7198 0
M  V30 6445 O 597.298 0.107742 -2.01112 0
M  V30 6446 C 594.363 -0.147227 -3.46387 0
M  V30 6447 C 593.424 -1.19662 -4.12286 0
M  V30 6448 C 592.657 -0.641437 -5.29831 0
M  V30 6449 O 592.88 0.538351 -5.67854 0
M  V30 6450 O 591.814 -1.39257 -5.85569 0
M  V30 6451 H 595.64 -1.63753 -2.55771 0
M  V30 6452 H 593.225 -0.860118 -1.22157 0
M  V30 6453 H 595.107 0.174923 -4.21037 0
M  V30 6454 H 593.782 0.733304 -3.15285 0
M  V30 6455 H 592.689 -1.57133 -3.395 0
M  V30 6456 H 594.022 -2.0495 -4.475 0
M  V30 6457 N 595.674 1.31259 -0.872281 0
M  V30 6458 C 596.637 2.26744 -0.334656 0
M  V30 6459 C 597.637 1.52307 0.515681 0
M  V30 6460 O 598.827 1.71148 0.324656 0
M  V30 6461 C 595.959 3.36841 0.524482 0
M  V30 6462 H 597.152 2.75812 -1.17762 0
M  V30 6463 H 594.705 1.42232 -0.648064 0
M  V30 6464 H 595.44 2.93069 1.38855 0
M  V30 6465 H 595.225 3.92009 -0.0844299 0
M  V30 6466 H 596.715 4.07944 0.892838 0
M  V30 6467 N 597.152 0.631951 1.44375 0
M  V30 6468 C 598.099 -0.0724807 2.30686 0
M  V30 6469 C 599.069 -0.835975 1.43529 0
M  V30 6470 O 600.254 -0.816849 1.7243 0
M  V30 6471 C 597.394 -1.04753 3.28817 0
M  V30 6472 C 596.507 -0.282367 4.31076 0
M  V30 6473 C 595.642 -1.2493 5.163 0
M  V30 6474 C 594.681 -0.473349 6.10267 0
M  V30 6475 N 593.818 -1.39079 6.88187 0
M  V30 6476 H 598.658 0.669477 2.90383 0
M  V30 6477 H 596.195 0.341927 1.43071 0
M  V30 6478 H 598.153 -1.62623 3.842 0
M  V30 6479 H 596.783 -1.75661 2.70819 0
M  V30 6480 H 595.835 0.412268 3.78159 0
M  V30 6481 H 597.147 0.321955 4.9776 0
M  V30 6482 H 596.301 -1.89931 5.76204 0
M  V30 6483 H 595.04 -1.88755 4.49692 0
M  V30 6484 H 594.045 0.190142 5.49471 0
M  V30 6485 H 595.27 0.16019 6.78911 0
M  V30 6486 H 593.216 -2.01623 6.24247 0
M  V30 6487 H 593.133 -0.840513 7.51313 0
M  V30 6488 H 594.401 -2.02961 7.52613 0
M  V30 6489 N 598.631 -1.53133 0.372548 0
M  V30 6490 C 599.871 -2.03267 -0.214943 0
M  V30 6491 C 600.235 -1.25362 -1.45425 0
M  V30 6492 O 601.436 -1.65536 -2.11781 0
M  V30 6493 C 599.707 -3.53985 -0.492897 0
M  V30 6494 S 601.266 -4.25977 -1.05307 0
M  V30 6495 H 598.084 -0.708289 -0.062029 0
M  V30 6496 H 600.686 -1.88539 0.517025 0
M  V30 6497 H 599.39 -4.08282 0.416442 0
M  V30 6498 H 598.921 -3.72887 -1.25375 0
M  V30 6499 H 600.936 -4.37731 -2.33679 0
M  V30 6500 N 600.109 -0.101901 -1.5727 0
M  V30 6501 C 601.349 0.563489 -1.96479 0
M  V30 6502 C 601.713 1.64926 -0.983021 0
M  V30 6503 O 602.914 2.37234 -1.26386 0
M  V30 6504 C 601.185 1.09809 -3.40113 0
M  V30 6505 S 602.744 1.7744 -4.01323 0
M  V30 6506 H 599.562 0.183675 -0.686866 0
M  V30 6507 H 602.164 -0.182922 -1.94642 0
M  V30 6508 H 600.868 0.296447 -4.09328 0
M  V30 6509 H 600.399 1.88018 -3.45562 0
M  V30 6510 H 602.414 3.0591 -3.90683 0
M  V30 6511 N 601.587 1.56661 0.17182 0
M  V30 6512 C 602.827 1.83762 0.895029 0
M  V30 6513 C 603.191 0.682752 1.79451 0
M  V30 6514 O 604.392 0.834208 2.55528 0
M  V30 6515 C 602.663 3.15976 1.67015 0
M  V30 6516 S 604.222 3.64558 2.44219 0
M  V30 6517 H 601.04 0.644713 0.299778 0
M  V30 6518 H 603.642 1.94871 0.156701 0
M  V30 6519 H 602.346 3.98021 1.00039 0
M  V30 6520 H 601.877 3.07807 2.44986 0
M  V30 6521 H 603.892 3.31845 3.68909 0
M  V30 6522 N 603.065 -0.440357 1.51323 0
M  V30 6523 C 604.312 -1.19004 1.63842 0
M  V30 6524 C 604.64 -1.91266 0.35321 0
M  V30 6525 O 603.895 -1.84143 -0.662565 0
M  V30 6526 C 604.194 -2.2339 2.78984 0
M  V30 6527 C 603.86 -1.68162 4.18369 0
M  V30 6528 C 602.522 -1.52823 4.56288 0
M  V30 6529 C 604.874 -1.27524 5.05358 0
M  V30 6530 C 602.202 -0.953157 5.78906 0
M  V30 6531 C 604.554 -0.714474 6.28552 0
M  V30 6532 C 603.218 -0.547961 6.65247 0
M  V30 6533 H 602.488 -0.435468 0.59954 0
M  V30 6534 H 605.135 -0.481538 1.85347 0
M  V30 6535 H 603.44 -3.00267 2.51688 0
M  V30 6536 H 605.137 -2.81211 2.85869 0
M  V30 6537 H 601.727 -1.81077 3.8847 0
M  V30 6538 H 605.911 -1.38197 4.76671 0
M  V30 6539 H 601.167 -0.811882 6.05986 0
M  V30 6540 H 605.341 -0.391059 6.95301 0
M  V30 6541 H 602.968 -0.100222 7.60134 0
M  V30 6542 N 604.543 -1.41418 -0.695603 0
M  V30 6543 C 605.79 -1.40774 -1.45564 0
M  V30 6544 C 606.118 -0.0168604 -1.94493 0
M  V30 6545 O 605.373 0.971259 -1.69897 0
M  V30 6546 C 605.672 -2.36112 -2.68302 0
M  V30 6547 C 605.338 -3.82952 -2.38031 0
M  V30 6548 C 604 -4.22954 -2.29486 0
M  V30 6549 C 606.352 -4.75662 -2.13061 0
M  V30 6550 C 603.68 -5.53674 -1.94067 0
M  V30 6551 C 606.032 -6.06702 -1.79151 0
M  V30 6552 C 604.696 -6.45725 -1.69102 0
M  V30 6553 H 603.966 -0.515128 -0.532658 0
M  V30 6554 H 606.613 -1.74216 -0.795047 0
M  V30 6555 H 604.918 -1.95924 -3.39295 0
M  V30 6556 H 606.615 -2.32887 -3.26442 0
M  V30 6557 H 603.205 -3.5127 -2.45576 0
M  V30 6558 H 607.389 -4.45561 -2.18608 0
M  V30 6559 H 602.645 -5.8279 -1.8484 0
M  V30 6560 H 606.819 -6.78041 -1.5885 0
M  V30 6561 H 604.446 -7.46929 -1.41426 0
M  V30 6562 N 606.021 0.929856 -1.27246 0
M  V30 6563 C 606.968 2.03017 -1.09785 0
M  V30 6564 C 607.938 1.661 0.000456744 0
M  V30 6565 O 609.123 1.90116 -0.161462 0
M  V30 6566 C 606.263 3.36878 -0.748816 0
M  V30 6567 C 605.376 3.86763 -1.92453 0
M  V30 6568 C 604.511 5.09061 -1.51758 0
M  V30 6569 C 603.55 5.51237 -2.66091 0
M  V30 6570 N 602.687 6.64732 -2.25999 0
M  V30 6571 H 607.527 2.17285 -2.03939 0
M  V30 6572 H 605.064 1.06448 -1.01524 0
M  V30 6573 H 607.022 4.13855 -0.527283 0
M  V30 6574 H 605.652 3.22424 0.155771 0
M  V30 6575 H 604.704 3.06086 -2.25867 0
M  V30 6576 H 606.016 4.13994 -2.78227 0
M  V30 6577 H 605.17 5.93532 -1.25716 0
M  V30 6578 H 603.909 4.83602 -0.630896 0
M  V30 6579 H 602.914 4.65316 -2.92849 0
M  V30 6580 H 604.139 5.78692 -3.55377 0
M  V30 6581 H 602.085 6.40935 -1.3978 0
M  V30 6582 H 602.002 6.91607 -3.05313 0
M  V30 6583 H 603.27 7.52549 -2.03199 0
M  V30 6584 N 607.499 1.09233 1.13605 0
M  V30 6585 C 608.915 0.82163 1.36826 0
M  V30 6586 C 609.115 -0.565021 1.93416 0
M  V30 6587 O 608.171 -1.32026 2.15234 0
M  V30 6588 C 609.484 1.91124 2.32147 0
M  V30 6589 C 611.032 1.93824 2.45767 0
M  V30 6590 C 611.507 3.01923 3.44393 0
M  V30 6591 N 612.998 3.01149 3.51942 0
M  V30 6592 C 613.733 3.81434 4.2813 0
M  V30 6593 N 613.229 4.71621 5.07489 0
M  V30 6594 N 615.022 3.69702 4.23411 0
M  V30 6595 H 607.173 1.98633 0.752234 0
M  V30 6596 H 609.436 0.862482 0.393482 0
M  V30 6597 H 609.142 2.90862 1.97717 0
M  V30 6598 H 609.016 1.78777 3.32142 0
M  V30 6599 H 611.403 0.94726 2.79483 0
M  V30 6600 H 611.484 2.10248 1.45703 0
M  V30 6601 H 611.128 4.01232 3.11408 0
M  V30 6602 H 611.058 2.82742 4.44257 0
M  V30 6603 H 613.549 2.35789 2.95317 0
M  V30 6604 H 613.862 5.29468 5.62924 0
M  V30 6605 H 612.207 4.75658 5.06729 0
M  V30 6606 H 615.398 2.98606 3.60489 0
M  V30 6607 H 615.571 4.32509 4.82535 0
M  V30 6608 N 608.977 -1.30795 0.87923 0
M  V30 6609 C 609.924 -2.28282 0.339968 0
M  V30 6610 C 610.894 -1.56134 -0.566685 0
M  V30 6611 O 612.079 -1.84231 -0.496338 0
M  V30 6612 C 609.219 -3.42225 -0.444501 0
M  V30 6613 C 608.332 -4.29204 0.490717 0
M  V30 6614 C 607.467 -5.30302 -0.308784 0
M  V30 6615 C 606.506 -6.08929 0.622272 0
M  V30 6616 N 605.643 -7.01957 -0.14155 0
M  V30 6617 H 610.483 -2.73794 1.17647 0
M  V30 6618 H 608.02 -1.34682 0.591527 0
M  V30 6619 H 609.978 -4.07038 -0.915186 0
M  V30 6620 H 608.608 -2.97799 -1.24562 0
M  V30 6621 H 607.66 -3.6475 1.07988 0
M  V30 6622 H 608.972 -4.84045 1.20425 0
M  V30 6623 H 608.126 -6.00835 -0.841575 0
M  V30 6624 H 606.865 -4.7614 -1.05556 0
M  V30 6625 H 605.87 -5.37278 1.16674 0
M  V30 6626 H 607.095 -6.65178 1.36804 0
M  V30 6627 H 605.041 -6.50192 -0.870966 0
M  V30 6628 H 604.958 -7.54261 0.51246 0
M  V30 6629 H 606.226 -7.76741 -0.655271 0
M  V30 6630 N 610.455 -0.639598 -1.44038 0
M  V30 6631 C 611.871 -0.305953 -1.5664 0
M  V30 6632 C 612.071 1.19055 -1.62567 0
M  V30 6633 O 611.127 1.97492 -1.57331 0
M  V30 6634 C 612.44 -1.00533 -2.83397 0
M  V30 6635 C 613.988 -0.984278 -2.97121 0
M  V30 6636 C 614.463 -1.66428 -4.26691 0
M  V30 6637 N 615.954 -1.63127 -4.33525 0
M  V30 6638 C 616.689 -2.12629 -5.32519 0
M  V30 6639 N 616.185 -2.70359 -6.3787 0
M  V30 6640 N 617.978 -2.03208 -5.24083 0
M  V30 6641 H 610.129 -1.6109 -1.38434 0
M  V30 6642 H 612.392 -0.676672 -0.663942 0
M  V30 6643 H 612.098 -2.06034 -2.85032 0
M  V30 6644 H 611.972 -0.548362 -3.73193 0
M  V30 6645 H 614.359 0.0622792 -2.95034 0
M  V30 6646 H 614.44 -1.47981 -2.08651 0
M  V30 6647 H 614.084 -2.71034 -4.29538 0
M  V30 6648 H 614.014 -1.14351 -5.14034 0
M  V30 6649 H 616.505 -1.20987 -3.58009 0
M  V30 6650 H 616.818 -3.05842 -7.09704 0
M  V30 6651 H 615.163 -2.74414 -6.38531 0
M  V30 6652 H 618.354 -1.57823 -4.40692 0
M  V30 6653 H 618.527 -2.42097 -6.01077 0
M  V30 6654 N 611.933 1.52934 -0.380664 0
M  V30 6655 C 612.88 2.26197 0.458641 0
M  V30 6656 C 613.85 1.27462 1.06502 0
M  V30 6657 O 615.035 1.56274 1.09467 0
M  V30 6658 C 612.175 3.06571 1.58456 0
M  V30 6659 C 611.288 4.20222 1.00189 0
M  V30 6660 C 610.423 4.88007 2.09815 0
M  V30 6661 C 609.462 5.93665 1.49092 0
M  V30 6662 N 608.599 6.55081 2.52613 0
M  V30 6663 H 613.439 2.975 -0.172595 0
M  V30 6664 H 610.976 1.4678 -0.0969426 0
M  V30 6665 H 612.934 3.51455 2.24801 0
M  V30 6666 H 611.564 2.37494 2.18624 0
M  V30 6667 H 610.616 3.79714 0.228292 0
M  V30 6668 H 611.928 4.96102 0.518064 0
M  V30 6669 H 611.082 5.36151 2.83948 0
M  V30 6670 H 609.821 4.11632 2.61555 0
M  V30 6671 H 608.826 5.44868 0.7348 0
M  V30 6672 H 610.051 6.71969 0.981582 0
M  V30 6673 H 607.997 5.8155 3.03538 0
M  V30 6674 H 607.914 7.26548 2.08961 0
M  V30 6675 H 609.182 7.07871 3.26402 0
M  V30 6676 N 613.412 0.11024 1.57214 0
M  V30 6677 C 614.359 -0.843195 2.14846 0
M  V30 6678 C 615.329 -1.26954 1.07107 0
M  V30 6679 O 616.514 -1.34861 1.34971 0
M  V30 6680 C 613.654 -2.09123 2.74521 0
M  V30 6681 C 612.767 -1.71404 3.96541 0
M  V30 6682 C 611.902 -2.91107 4.44331 0
M  V30 6683 C 610.941 -2.49586 5.58903 0
M  V30 6684 N 610.078 -3.62175 6.01477 0
M  V30 6685 H 614.918 -0.344886 2.95998 0
M  V30 6686 H 612.455 -0.15855 1.46243 0
M  V30 6687 H 614.413 -2.82234 3.07246 0
M  V30 6688 H 613.043 -2.56427 1.96074 0
M  V30 6689 H 612.095 -0.88201 3.70033 0
M  V30 6690 H 613.407 -1.36884 4.7965 0
M  V30 6691 H 612.561 -3.72454 4.78919 0
M  V30 6692 H 611.3 -3.28848 3.60153 0
M  V30 6693 H 610.305 -1.6667 5.23929 0
M  V30 6694 H 611.53 -2.12973 6.4484 0
M  V30 6695 H 609.476 -3.99605 5.20242 0
M  V30 6696 H 609.393 -3.3155 6.79419 0
M  V30 6697 H 610.661 -4.43987 6.407 0
M  V30 6698 N 614.89 -1.56749 -0.16351 0
M  V30 6699 C 616.118 -1.86577 -0.894233 0
M  V30 6700 C 616.533 -0.696543 -1.75481 0
M  V30 6701 O 615.89 0.334161 -1.79415 0
M  V30 6702 C 615.941 -3.15508 -1.76456 0
M  V30 6703 O 615.662 -4.27926 -0.938685 0
M  V30 6704 C 617.163 -3.58737 -2.60428 0
M  V30 6705 H 614.383 -0.618829 -0.259405 0
M  V30 6706 H 616.927 -2.03863 -0.161259 0
M  V30 6707 H 615.082 -3.00025 -2.45079 0
M  V30 6708 H 615.496 -5.01546 -1.53465 0
M  V30 6709 H 616.97 -4.51832 -3.17099 0
M  V30 6710 H 617.447 -2.83229 -3.35675 0
M  V30 6711 H 618.053 -3.76858 -1.97125 0
M  V30 6712 N 616.368 0.432326 -1.51554 0
M  V30 6713 C 617.331 1.50765 -1.72634 0
M  V30 6714 C 618.331 1.49334 -0.596314 0
M  V30 6715 O 619.521 1.51268 -0.863925 0
M  V30 6716 C 616.653 2.90284 -1.7874 0
M  V30 6717 H 617.846 1.33377 -2.68609 0
M  V30 6718 H 615.399 0.661329 -1.4162 0
M  V30 6719 H 616.134 3.13071 -0.845977 0
M  V30 6720 H 615.919 2.92727 -2.6087 0
M  V30 6721 H 617.409 3.68282 -1.96871 0
M  V30 6722 N 617.846 1.41785 0.688094 0
M  V30 6723 C 618.778 1.40159 1.81351 0
M  V30 6724 C 619.791 0.30262 1.59963 0
M  V30 6725 O 620.98 0.564841 1.69327 0
M  V30 6726 C 618.08 1.16517 3.1824 0
M  V30 6727 C 617.253 2.38597 3.66593 0
M  V30 6728 C 616.312 2.10699 4.82174 0
M  V30 6729 O 615.338 2.83798 4.93404 0
M  V30 6730 N 616.54 1.10187 5.69947 0
M  V30 6731 H 619.305 2.3716 1.83236 0
M  V30 6732 H 616.866 1.36494 0.870697 0
M  V30 6733 H 618.858 0.957941 3.93199 0
M  V30 6734 H 617.428 0.280873 3.11336 0
M  V30 6735 H 616.648 2.74974 2.82459 0
M  V30 6736 H 617.936 3.19919 3.95638 0
M  V30 6737 H 617.334 0.497016 5.63512 0
M  V30 6738 H 615.891 0.954518 6.44773 0
M  V30 6739 N 619.324 -0.923095 1.27737 0
M  V30 6740 C 620.74 -1.19985 1.05241 0
M  V30 6741 C 620.94 -2.00391 -0.21113 0
M  V30 6742 O 619.996 -2.35324 -0.915366 0
M  V30 6743 C 621.309 -1.94352 2.29451 0
M  V30 6744 C 622.857 -2.07273 2.34536 0
M  V30 6745 C 623.332 -2.85046 3.58487 0
M  V30 6746 N 624.823 -2.92612 3.59072 0
M  V30 6747 C 625.558 -3.53266 4.51654 0
M  V30 6748 N 625.054 -4.15274 5.54545 0
M  V30 6749 N 626.847 -3.50714 4.39268 0
M  V30 6750 H 618.998 -0.386042 2.08862 0
M  V30 6751 H 621.261 -0.233407 0.918817 0
M  V30 6752 H 620.967 -1.42692 3.21453 0
M  V30 6753 H 620.841 -2.94947 2.3513 0
M  V30 6754 H 623.228 -2.58117 1.43037 0
M  V30 6755 H 623.309 -1.05884 2.32857 0
M  V30 6756 H 622.953 -2.34884 4.50324 0
M  V30 6757 H 622.883 -3.8673 3.57418 0
M  V30 6758 H 625.374 -2.48547 2.84663 0
M  V30 6759 H 625.687 -4.59507 6.21348 0
M  V30 6760 H 624.032 -4.13806 5.58382 0
M  V30 6761 H 627.223 -3.01475 3.58093 0
M  V30 6762 H 627.396 -3.97693 5.1161 0
M  V30 6763 N 620.802 -1.09834 -1.13024 0
M  V30 6764 C 621.752 -0.710899 -2.16634 0
M  V30 6765 C 622.736 0.276836 -1.58501 0
M  V30 6766 O 623.928 0.0865457 -1.76788 0
M  V30 6767 C 621.057 -0.137574 -3.43024 0
M  V30 6768 C 620.143 -1.15198 -4.08155 0
M  V30 6769 N 620.534 -2.34054 -4.48388 0
M  V30 6770 C 618.832 -0.991074 -4.34849 0
M  V30 6771 C 619.533 -2.98616 -4.99203 0
M  V30 6772 N 618.509 -2.26159 -4.94321 0
M  V30 6773 H 622.311 -1.61576 -2.455 0
M  V30 6774 H 619.825 -0.975158 -1.29863 0
M  V30 6775 H 621.822 0.158031 -4.166 0
M  V30 6776 H 620.482 0.762088 -3.1563 0
M  V30 6777 H 621.493 -2.7162 -4.40957 0
M  V30 6778 H 618.17 -0.146448 -4.17243 0
M  V30 6779 H 619.56 -3.99683 -5.40096 0
M  V30 6780 N 622.28 1.30327 -0.886154 0
M  V30 6781 C 623.227 2.28099 -0.352069 0
M  V30 6782 C 624.197 1.56433 0.558397 0
M  V30 6783 O 625.382 1.84492 0.486561 0
M  V30 6784 C 622.522 3.42456 0.426346 0
M  V30 6785 C 621.635 4.28938 -0.513472 0
M  V30 6786 C 620.77 5.30458 0.280657 0
M  V30 6787 C 619.809 6.0859 -0.654556 0
M  V30 6788 N 618.946 7.02022 0.104322 0
M  V30 6789 H 623.786 2.73166 -1.19097 0
M  V30 6790 H 621.323 1.34367 -0.598662 0
M  V30 6791 H 623.281 4.07518 0.893587 0
M  V30 6792 H 621.911 2.98455 1.22981 0
M  V30 6793 H 620.963 3.64173 -1.09921 0
M  V30 6794 H 622.275 4.83399 -1.2299 0
M  V30 6795 H 621.429 6.01273 0.8097 0
M  V30 6796 H 620.168 4.76693 1.03029 0
M  V30 6797 H 619.173 5.36651 -1.19522 0
M  V30 6798 H 620.398 6.64443 -1.4033 0
M  V30 6799 H 618.344 6.50645 0.836472 0
M  V30 6800 H 618.261 7.53979 -0.552453 0
M  V30 6801 H 619.529 7.77077 0.614069 0
M  V30 6802 O 623.797 0.786908 1.41032 0
M  V30 6803 H 624.488 0.356185 1.90397 0
M  V30 END ATOM
M  V30 BEGIN BOND
M  V30 END BOND
M  V30 END CTAB
M  END
$$$$
