drugbank_target|Q9HCD5 Nuclear receptor coactivator 5 (DB07702)
 OpenBabel12092120463D

  0  0  0     0  0            999 V3000
M  V30 BEGIN CTAB
M  V30 COUNTS 9062 9147 0 0 0
M  V30 BEGIN ATOM
M  V30 1 H -0.908 1.98254 -0.117106 0
M  V30 2 N 0 1.576 0 0
M  V30 3 C 0.933 2.03868 1.02534 0
M  V30 4 C 1.911 0.928543 1.3348 0
M  V30 5 O 3.095 1.19667 1.45644 0
M  V30 6 C 0.222 2.43627 2.35294 0
M  V30 7 C -0.732 3.65373 2.2001 0
M  V30 8 S 0.101 5.13292 1.52614 0
M  V30 9 C 1.257 5.56322 2.86805 0
M  V30 10 H 1.49 2.90518 0.631377 0
M  V30 11 H -0.977 1.52953 0.210867 0
M  V30 12 H 0.981 2.67203 3.11629 0
M  V30 13 H -0.358 1.57376 2.7183 0
M  V30 14 H -1.165 3.90944 3.18086 0
M  V30 15 H -1.563 3.418 1.51819 0
M  V30 16 H 0.729 5.58782 3.83104 0
M  V30 17 H 1.672 6.56266 2.65933 0
M  V30 18 H 2.08 4.83886 2.90714 0
M  V30 19 N 1.4781 -0.272755 1.55222 0
M  V30 20 C 2.4261 -1.35705 1.88909 0
M  V30 21 C 3.4201 -1.5112 0.765456 0
M  V30 22 O 4.6261 -1.52901 0.949802 0
M  V30 23 H 1.0011 -0.453868 0.59959 0
M  V30 24 H 2.9721 -1.04544 2.79487 0
M  V30 25 C 1.7211 -2.71049 2.17779 0
M  V30 26 H 1.0441 -2.59979 3.03728 0
M  V30 27 H 2.4841 -3.45858 2.45272 0
M  V30 28 C 0.9431 -3.22165 0.985473 0
M  V30 29 O 1.4731 -4.01096 0.220233 0
M  V30 30 N -0.3209 -2.7985 0.783108 0
M  V30 31 H -0.7739 -2.15775 1.40708 0
M  V30 32 H -0.8159 -3.14397 -0.0130392 0
M  V30 33 N 2.9562 -1.48159 -0.537278 0
M  V30 34 C 4.1842 -1.59454 -1.31841 0
M  V30 35 C 4.5992 -0.252065 -1.8711 0
M  V30 36 O 3.9562 0.757621 -1.66031 0
M  V30 37 C 4.0072 -2.63546 -2.47439 0
M  V30 38 O 3.7282 -3.92583 -1.94449 0
M  V30 39 C 5.2292 -2.85212 -3.39366 0
M  V30 40 H 2.4492 -0.53785 -0.401196 0
M  V30 41 H 4.9932 -1.93932 -0.648891 0
M  V30 42 H 3.1482 -2.31946 -3.1029 0
M  V30 43 H 3.5622 -4.49629 -2.70063 0
M  V30 44 H 5.0362 -3.61863 -4.16844 0
M  V30 45 H 5.5132 -1.93765 -3.94147 0
M  V30 46 H 6.1192 -3.18086 -2.82314 0
M  V30 47 N 4.4343 0.785586 -1.36625 0
M  V30 48 C 5.3973 1.87999 -1.31107 0
M  V30 49 C 6.3973 1.59316 -0.217959 0
M  V30 50 O 7.5873 1.67656 -0.472977 0
M  V30 51 C 4.7193 3.24861 -1.03334 0
M  V30 52 H 5.9123 1.94307 -2.2844 0
M  V30 53 H 3.4653 0.983813 -1.21453 0
M  V30 54 H 4.2003 3.24235 -0.0647432 0
M  V30 55 H 3.9853 3.4707 -1.82441 0
M  V30 56 H 5.4753 4.04929 -1.02088 0
M  V30 57 N 5.9124 1.20967 1.01018 0
M  V30 58 C 7.3234 1.02319 1.56165 0
M  V30 59 C 7.6744 -0.418546 1.91684 0
M  V30 60 O 6.7994 -1.30096 1.72928 0
M  V30 61 C 7.3944 1.85109 2.8376 0
M  V30 62 C 5.9534 1.70809 3.35412 0
M  V30 63 C 5.1004 1.82643 2.08655 0
M  V30 64 H 8.0514 1.35065 0.833255 0
M  V30 65 H 8.0724 1.35827 3.55431 0
M  V30 66 H 7.5844 2.90035 2.57878 0
M  V30 67 H 5.6854 0.685464 3.66241 0
M  V30 68 H 5.7984 2.52467 4.07182 0
M  V30 69 H 4.1624 1.25896 2.21409 0
M  V30 70 H 4.9454 2.89066 1.85191 0
M  V30 71 N 7.3905 -1.2043 1.01659 0
M  V30 72 C 8.6155 -1.94318 0.724942 0
M  V30 73 C 9.0405 -1.74266 -0.708034 0
M  V30 74 O 8.3985 -1.03694 -1.48719 0
M  V30 75 C 8.4465 -3.44486 1.06591 0
M  V30 76 O 7.5505 -4.12017 0.177599 0
M  V30 77 H 6.8915 -0.60708 0.26898 0
M  V30 78 H 9.4215 -1.52861 1.35995 0
M  V30 79 H 9.4315 -3.95106 1.01762 0
M  V30 80 H 8.1065 -3.58404 2.10997 0
M  V30 81 H 6.6835 -3.71821 0.283421 0
M  V30 82 N 8.8686 -0.792821 -1.36206 0
M  V30 83 C 10.2846 -0.474903 -1.52371 0
M  V30 84 C 10.4846 1.00622 -1.74578 0
M  V30 85 O 9.5406 1.79162 -1.77924 0
M  V30 86 C 10.8536 -1.3083 -2.70747 0
M  V30 87 C 12.4016 -1.30234 -2.84619 0
M  V30 88 C 12.8766 -2.11956 -4.06004 0
M  V30 89 N 14.3676 -2.09419 -4.13156 0
M  V30 90 C 15.1026 -2.69419 -5.06163 0
M  V30 91 N 14.5986 -3.3829 -6.04592 0
M  V30 92 N 16.3916 -2.59134 -4.98804 0
M  V30 93 H 8.5426 -1.75222 -1.20046 0
M  V30 94 H 10.8056 -0.745024 -0.586211 0
M  V30 95 H 10.5116 -2.35881 -2.6087 0
M  V30 96 H 10.3856 -0.95196 -3.6499 0
M  V30 97 H 12.7726 -0.259748 -2.93955 0
M  V30 98 H 12.8536 -1.69847 -1.91274 0
M  V30 99 H 12.4976 -3.16248 -3.97429 0
M  V30 100 H 12.4276 -1.69711 -4.98503 0
M  V30 101 H 14.9186 -1.59297 -3.42685 0
M  V30 102 H 15.2316 -3.81394 -6.7213 0
M  V30 103 H 13.5766 -3.42393 -6.04807 0
M  V30 104 H 16.7676 -2.04927 -4.20859 0
M  V30 105 H 16.9406 -3.06185 -5.711 0
M  V30 106 N 10.3467 1.47872 -0.545128 0
M  V30 107 C 11.7577 1.86384 -0.108581 0
M  V30 108 C 12.1087 1.45309 1.31832 0
M  V30 109 O 11.2337 0.850641 1.9898 0
M  V30 110 C 11.8287 3.38265 -0.190274 0
M  V30 111 C 10.3877 3.75914 0.191164 0
M  V30 112 C 9.5347 2.71926 -0.543273 0
M  V30 113 H 12.4857 1.39561 -0.755537 0
M  V30 114 H 12.5067 3.75831 0.594217 0
M  V30 115 H 12.0187 3.6813 -1.2289 0
M  V30 116 H 10.1197 3.51665 1.23136 0
M  V30 117 H 10.2327 4.78836 -0.158987 0
M  V30 118 H 8.5967 2.54697 0.0122495 0
M  V30 119 H 9.3797 3.04634 -1.58282 0
M  V30 120 N 11.8248 0.280983 1.55075 0
M  V30 121 C 13.0498 -0.340154 2.04592 0
M  V30 122 C 13.4748 -1.48246 1.15779 0
M  V30 123 O 12.8328 -1.80614 0.15761 0
M  V30 124 C 12.8808 -0.793104 3.5177 0
M  V30 125 O 11.9848 -1.89981 3.66034 0
M  V30 126 H 11.3258 -0.0694289 0.66036 0
M  V30 127 H 13.8558 0.416993 2.00306 0
M  V30 128 H 13.8658 -1.08729 3.93245 0
M  V30 129 H 12.5408 0.0426163 4.15878 0
M  V30 130 H 11.1178 -1.60771 3.36463 0
M  V30 131 N 13.3029 -1.57598 0.00835791 0
M  V30 132 C 14.7139 -1.7892 -0.53333 0
M  V30 133 C 15.0649 -0.916609 -1.73473 0
M  V30 134 O 14.1899 -0.121336 -2.1606 0
M  V30 135 C 14.7849 -3.24488 -0.974313 0
M  V30 136 C 13.3439 -3.46878 -1.46125 0
M  V30 137 C 12.4909 -2.74157 -0.416302 0
M  V30 138 H 15.4419 -1.56958 0.234495 0
M  V30 139 H 15.4629 -3.3306 -1.83988 0
M  V30 140 H 14.9749 -3.87972 -0.099718 0
M  V30 141 H 13.0759 -2.8862 -2.35646 0
M  V30 142 H 13.1889 -4.55572 -1.48295 0
M  V30 143 H 11.5529 -2.39022 -0.87981 0
M  V30 144 H 12.3359 -3.40345 0.44947 0
M  V30 145 N 14.781 0.264519 -1.55364 0
M  V30 146 C 16.009 1.013 -1.80405 0
M  V30 147 C 16.424 1.79618 -0.581622 0
M  V30 148 O 15.781 1.76879 0.449468 0
M  V30 149 C 15.832 1.96487 -3.03439 0
M  V30 150 O 15.553 1.21341 -4.20961 0
M  V30 151 C 17.054 2.83079 -3.41147 0
M  V30 152 H 14.274 0.298875 -0.600762 0
M  V30 153 H 16.818 0.292736 -2.02394 0
M  V30 154 H 14.973 2.63965 -2.83551 0
M  V30 155 H 15.387 1.85573 -4.90574 0
M  V30 156 H 16.861 3.4565 -4.30384 0
M  V30 157 H 17.338 3.53286 -2.60932 0
M  V30 158 H 17.944 2.2108 -3.63323 0
M  V30 159 N 16.2591 1.48442 0.529413 0
M  V30 160 C 17.6751 1.34575 0.858004 0
M  V30 161 C 17.8751 0.3572 1.98309 0
M  V30 162 O 16.9311 -0.221379 2.51528 0
M  V30 163 C 18.2441 2.74617 1.22499 0
M  V30 164 C 19.7921 2.83109 1.33484 0
M  V30 165 C 20.2671 4.23854 1.73526 0
M  V30 166 N 21.7581 4.2653 1.80628 0
M  V30 167 C 22.4931 5.32372 2.12997 0
M  V30 168 N 21.9891 6.48491 2.43786 0
M  V30 169 N 23.7821 5.19766 2.14008 0
M  V30 170 H 15.9331 2.1133 -0.212925 0
M  V30 171 H 18.1961 0.947439 -0.0326199 0
M  V30 172 H 17.9021 3.4852 0.471905 0
M  V30 173 H 17.7761 3.08177 2.17501 0
M  V30 174 H 20.1631 2.09462 2.0787 0
M  V30 175 H 20.2441 2.53168 0.366027 0
M  V30 176 H 19.8881 4.98018 0.997013 0
M  V30 177 H 19.8181 4.5124 2.71459 0
M  V30 178 H 22.3091 3.42772 1.59108 0
M  V30 179 H 22.6221 7.24993 2.67592 0
M  V30 180 H 20.9671 6.51765 2.41304 0
M  V30 181 H 24.1581 4.28066 1.89412 0
M  V30 182 H 24.3311 6.02354 2.38902 0
M  V30 183 N 17.7372 -0.778329 1.37039 0
M  V30 184 C 19.1532 -1.07796 1.17695 0
M  V30 185 C 19.3532 -2.01498 0.00860115 0
M  V30 186 O 18.4092 -2.43901 -0.653352 0
M  V30 187 C 19.7222 -1.68178 2.49272 0
M  V30 188 C 21.2702 -1.80467 2.55735 0
M  V30 189 C 21.7452 -2.44263 3.87427 0
M  V30 190 N 23.2362 -2.51721 3.88833 0
M  V30 191 C 23.9712 -3.01919 4.87476 0
M  V30 192 N 23.4672 -3.5234 5.96513 0
M  V30 193 N 25.2602 -3.00733 4.74885 0
M  V30 194 H 17.4112 -0.156032 2.11826 0
M  V30 195 H 19.6742 -0.131844 0.938787 0
M  V30 196 H 19.3802 -1.06796 3.35093 0
M  V30 197 H 19.2542 -2.67554 2.65885 0
M  V30 198 H 21.6412 -2.40984 1.70325 0
M  V30 199 H 21.7222 -0.798656 2.43013 0
M  V30 200 H 21.3662 -1.84388 4.73248 0
M  V30 201 H 21.2962 -3.45458 3.9745 0
M  V30 202 H 23.7872 -2.1603 3.10063 0
M  V30 203 H 24.1002 -3.89027 6.67741 0
M  V30 204 H 22.4452 -3.50462 6.00168 0
M  V30 205 H 25.6362 -2.60638 3.88826 0
M  V30 206 H 25.8092 -3.39545 5.51918 0
M  V30 207 N 19.2153 -1.21501 -1.00376 0
M  V30 208 C 20.4923 -0.941745 -1.71437 0
M  V30 209 C 20.8723 0.546114 -2.03914 0
M  V30 210 O 20.2203 1.51128 -1.71384 0
M  V30 211 C 20.4303 -1.82812 -2.97289 0
M  V30 212 C 21.7783 -2.07771 -3.70292 0
M  V30 213 O 22.8023 -1.80171 -3.07273 0
M  V30 214 O 21.6613 -2.54456 -4.83647 0
M  V30 215 H 18.7553 -0.353243 -0.747762 0
M  V30 216 H 21.3013 -1.32436 -1.06108 0
M  V30 217 H 20.0733 -2.83501 -2.69709 0
M  V30 218 H 19.6963 -1.4464 -3.70358 0
M  V30 219 N 20.6934 1.19889 -1.02296 0
M  V30 220 C 22.1044 1.71124 -0.746568 0
M  V30 221 C 22.4554 1.81939 0.734335 0
M  V30 222 O 21.5804 1.48639 1.57275 0
M  V30 223 C 22.1754 3.10804 -1.34857 0
M  V30 224 C 20.7344 3.59323 -1.1209 0
M  V30 225 C 19.8814 2.3635 -1.45031 0
M  V30 226 H 22.8324 1.04813 -1.19163 0
M  V30 227 H 22.8534 3.73186 -0.742437 0
M  V30 228 H 22.3654 3.029 -2.42638 0
M  V30 229 H 20.4664 3.7255 -0.0610337 0
M  V30 230 H 20.5794 4.4378 -1.80544 0
M  V30 231 H 18.9434 2.39399 -0.869487 0
M  V30 232 H 19.7264 2.31081 -2.53883 0
M  V30 233 N 22.1715 0.800033 1.35784 0
M  V30 234 C 23.4015 0.389041 2.02904 0
M  V30 235 C 23.8095 -1.0027 1.60445 0
M  V30 236 O 23.1525 -1.65633 0.794453 0
M  V30 237 C 23.2145 0.385495 3.57427 0
M  V30 238 C 22.8785 1.72662 4.23127 0
M  V30 239 C 23.8755 2.68385 4.4527 0
M  V30 240 C 21.5605 2.00883 4.60381 0
M  V30 241 C 23.5545 3.90517 5.03761 0
M  V30 242 C 21.2415 3.2328 5.18588 0
M  V30 243 C 22.2395 4.17915 5.40218 0
M  V30 244 O 21.9275 5.38153 5.97199 0
M  V30 245 H 21.6595 0.157032 0.657508 0
M  V30 246 H 24.2135 1.08311 1.74522 0
M  V30 247 H 22.4435 -0.365128 3.84972 0
M  V30 248 H 24.1325 -0.00228296 4.059 0
M  V30 249 H 24.8985 2.47872 4.16874 0
M  V30 250 H 20.7775 1.28037 4.42863 0
M  V30 251 H 24.3215 4.64395 5.2056 0
M  V30 252 H 20.2185 3.43667 5.4641 0
M  V30 253 H 20.9865 5.3936 6.15656 0
M  V30 254 N 23.6496 -1.47581 0.552962 0
M  V30 255 C 24.8976 -2.02082 0.0272703 0
M  V30 256 C 25.2186 -1.4301 -1.32563 0
M  V30 257 O 24.4886 -0.603745 -1.86365 0
M  V30 258 H 23.0686 -0.746966 0.00709182 0
M  V30 259 H 25.7306 -1.81033 0.722008 0
M  V30 260 H 24.8266 -3.12034 -0.0639951 0
M  V30 261 N 25.1277 -0.289203 -1.54924 0
M  V30 262 C 26.3747 0.323519 -1.99899 0
M  V30 263 C 26.7027 1.54797 -1.17762 0
M  V30 264 O 25.9577 1.94237 -0.238835 0
M  V30 265 C 26.2567 0.736119 -3.49737 0
M  V30 266 C 25.9227 -0.385276 -4.49251 0
M  V30 267 C 24.5847 -0.693156 -4.76181 0
M  V30 268 C 26.9367 -1.14021 -5.08575 0
M  V30 269 C 24.2647 -1.7593 -5.59701 0
M  V30 270 C 26.6167 -2.19619 -5.93254 0
M  V30 271 C 25.2807 -2.51026 -6.185 0
M  V30 272 H 24.5507 0.118384 -0.731482 0
M  V30 273 H 27.1977 -0.405847 -1.8715 0
M  V30 274 H 25.5027 1.54539 -3.60035 0
M  V30 275 H 27.1997 1.22118 -3.81953 0
M  V30 276 H 23.7897 -0.135202 -4.28387 0
M  V30 277 H 27.9737 -0.915611 -4.87781 0
M  V30 278 H 23.2297 -2.0075 -5.77503 0
M  V30 279 H 27.4037 -2.78581 -6.38252 0
M  V30 280 H 25.0307 -3.33772 -6.83008 0
M  V30 281 N 26.6058 1.57591 -0.0167156 0
M  V30 282 C 27.8538 1.90906 0.663285 0
M  V30 283 C 28.1748 0.892509 1.73376 0
M  V30 284 O 27.4448 -0.0677623 1.95783 0
M  V30 285 H 26.0248 0.704637 0.247983 0
M  V30 286 H 28.6868 1.94803 -0.0615909 0
M  V30 287 H 27.7828 2.9116 1.12393 0
M  V30 288 N 28.0839 -0.256276 1.55502 0
M  V30 289 C 29.3609 -1.00789 1.67633 0
M  V30 290 C 29.7409 -2.03706 0.553826 0
M  V30 291 O 29.0889 -2.24145 -0.443969 0
M  V30 292 C 29.2989 -1.64968 3.07549 0
M  V30 293 C 30.6469 -2.15505 3.65845 0
M  V30 294 O 31.6709 -1.74925 3.1029 0
M  V30 295 O 30.5299 -2.89986 4.63217 0
M  V30 296 H 27.6239 -0.468553 0.681459 0
M  V30 297 H 30.1699 -0.250806 1.67836 0
M  V30 298 H 28.9419 -0.904785 3.80696 0
M  V30 299 H 28.5649 -2.47321 3.11317 0
M  V30 300 N 29.562 -1.4872 -0.521534 0
M  V30 301 C 30.787 -1.61101 -1.30618 0
M  V30 302 C 31.212 -0.274611 -1.86085 0
M  V30 303 O 30.57 0.754937 -1.64834 0
M  V30 304 C 30.618 -2.66709 -2.4269 0
M  V30 305 O 29.722 -2.24456 -3.45967 0
M  V30 306 H 29.063 -0.539921 -0.386499 0
M  V30 307 H 31.593 -1.94767 -0.626645 0
M  V30 308 H 31.603 -2.88245 -2.88754 0
M  V30 309 H 30.278 -3.63727 -2.01682 0
M  V30 310 H 28.855 -2.13168 -3.05964 0
M  V30 311 N 31.0401 0.771051 -1.3745 0
M  V30 312 C 32.4561 1.07171 -1.18265 0
M  V30 313 C 32.6561 2.01491 -0.019287 0
M  V30 314 O 31.7121 2.44244 0.640408 0
M  V30 315 C 33.0251 1.66854 -2.50161 0
M  V30 316 C 34.5731 1.79109 -2.56689 0
M  V30 317 C 35.0481 2.42205 -3.88717 0
M  V30 318 N 36.5391 2.49655 -3.90162 0
M  V30 319 C 37.2741 2.9933 -4.8907 0
M  V30 320 N 36.7701 3.49172 -5.98374 0
M  V30 321 N 38.5631 2.9821 -4.76474 0
M  V30 322 H 30.7141 0.144796 -2.11906 0
M  V30 323 H 32.9771 0.126863 -0.939473 0
M  V30 324 H 32.6831 1.05017 -3.35655 0
M  V30 325 H 32.5571 2.6614 -2.673 0
M  V30 326 H 34.9441 2.40077 -1.71601 0
M  V30 327 H 35.0251 0.785757 -2.43433 0
M  V30 328 H 34.6691 1.81875 -4.74219 0
M  V30 329 H 34.5991 3.43345 -3.99276 0
M  V30 330 H 37.0901 2.14383 -3.11205 0
M  V30 331 H 37.4031 3.8548 -6.69795 0
M  V30 332 H 35.7481 3.47275 -6.02018 0
M  V30 333 H 38.9391 2.58572 -3.90203 0
M  V30 334 H 39.1121 3.36613 -5.53711 0
M  V30 335 N 32.5182 1.22032 0.997298 0
M  V30 336 C 33.7952 0.950823 1.70935 0
M  V30 337 C 34.1752 -0.535292 2.042 0
M  V30 338 O 33.5232 -1.50217 1.72183 0
M  V30 339 C 33.7332 1.84386 2.96315 0
M  V30 340 C 35.0812 2.09732 3.69185 0
M  V30 341 O 36.1052 1.81798 3.06314 0
M  V30 342 O 34.9642 2.57018 4.82291 0
M  V30 343 H 32.0582 0.357204 0.745878 0
M  V30 344 H 34.6042 1.32997 1.05404 0
M  V30 345 H 33.3762 2.84928 2.68201 0
M  V30 346 H 32.9992 1.46602 3.69586 0
M  V30 347 N 33.9963 -1.19345 1.0293 0
M  V30 348 C 35.2213 -1.93538 0.745511 0
M  V30 349 C 35.6463 -1.75007 -0.689511 0
M  V30 350 O 35.0043 -1.05265 -1.47611 0
M  V30 351 C 35.0523 -3.43336 1.10239 0
M  V30 352 O 34.1563 -4.11806 0.221289 0
M  V30 353 H 33.4973 -0.604193 0.275404 0
M  V30 354 H 36.0273 -1.5141 1.37609 0
M  V30 355 H 36.0373 -3.94004 1.05947 0
M  V30 356 H 34.7123 -3.56146 2.14786 0
M  V30 357 H 33.2893 -3.715 0.322842 0
M  V30 358 N 35.4744 -0.807222 -1.35358 0
M  V30 359 C 36.8904 -0.491038 -1.51858 0
M  V30 360 C 37.0904 0.987648 -1.75635 0
M  V30 361 O 36.1464 1.77265 -1.79815 0
M  V30 362 C 37.4594 -1.33695 -2.69344 0
M  V30 363 C 39.0074 -1.33246 -2.83222 0
M  V30 364 C 39.4824 -2.1625 -4.03733 0
M  V30 365 N 40.9734 -2.1379 -4.10911 0
M  V30 366 C 41.7084 -2.74772 -5.03277 0
M  V30 367 N 41.2044 -3.44684 -6.0097 0
M  V30 368 N 42.9974 -2.6441 -4.96028 0
M  V30 369 H 35.1484 -1.76485 -1.18181 0
M  V30 370 H 37.4114 -0.751199 -0.578276 0
M  V30 371 H 37.1174 -2.38634 -2.58354 0
M  V30 372 H 36.9914 -0.990618 -3.6396 0
M  V30 373 H 39.3784 -0.290911 -2.93663 0
M  V30 374 H 39.4594 -1.71866 -1.89461 0
M  V30 375 H 39.1034 -3.20445 -3.94052 0
M  V30 376 H 39.0334 -1.74989 -4.96675 0
M  V30 377 H 41.5244 -1.62923 -3.40976 0
M  V30 378 H 41.8374 -3.88501 -6.68047 0
M  V30 379 H 40.1824 -3.48788 -6.01142 0
M  V30 380 H 43.3734 -2.0938 -4.18662 0
M  V30 381 H 43.5464 -3.12225 -5.6782 0
M  V30 382 N 36.9525 1.47285 -0.560781 0
M  V30 383 C 38.3685 1.58065 -0.22081 0
M  V30 384 C 38.5685 1.55892 1.27671 0
M  V30 385 O 37.6245 1.46422 2.0571 0
M  V30 386 C 38.9375 2.88418 -0.850625 0
M  V30 387 C 40.4855 3.02009 -0.822184 0
M  V30 388 C 40.9605 4.35066 -1.43113 0
M  V30 389 N 42.4515 4.41711 -1.39448 0
M  V30 390 C 43.1865 5.43237 -1.83525 0
M  V30 391 N 42.6825 6.51555 -2.35474 0
M  V30 392 N 44.4755 5.34304 -1.74574 0
M  V30 393 H 36.6265 1.46941 -1.53369 0
M  V30 394 H 38.8895 0.699558 -0.639783 0
M  V30 395 H 38.5955 2.95755 -1.9032 0
M  V30 396 H 38.4695 3.75612 -0.345773 0
M  V30 397 H 40.8565 2.94266 0.221714 0
M  V30 398 H 40.9375 2.16347 -1.36483 0
M  V30 399 H 40.5815 4.43565 -2.47412 0
M  V30 400 H 40.5115 5.19465 -0.863899 0
M  V30 401 H 43.0025 3.64027 -1.01452 0
M  V30 402 H 43.3155 7.25203 -2.67021 0
M  V30 403 H 41.6605 6.52435 -2.39487 0
M  V30 404 H 44.8515 4.48581 -1.33763 0
M  V30 405 H 45.0245 6.13288 -2.09242 0
M  V30 406 N 38.4306 0.297415 1.54768 0
M  V30 407 C 39.7076 -0.365847 1.92148 0
M  V30 408 C 40.0876 -1.71975 1.22424 0
M  V30 409 O 39.4356 -2.25666 0.358739 0
M  V30 410 C 39.6456 -0.484056 3.45627 0
M  V30 411 C 40.9936 -0.756594 4.17805 0
M  V30 412 O 42.0176 -0.568007 3.51642 0
M  V30 413 O 40.8766 -1.11863 5.34929 0
M  V30 414 H 37.9706 -0.203919 0.801465 0
M  V30 415 H 40.5166 0.34521 1.66152 0
M  V30 416 H 39.2886 0.467865 3.88493 0
M  V30 417 H 38.9116 -1.24372 3.77647 0
M  V30 418 N 39.9087 -1.5758 0.0250728 0
M  V30 419 C 41.3247 -1.56124 -0.331282 0
M  V30 420 C 41.5247 -1.03029 -1.73169 0
M  V30 421 O 40.5807 -0.675215 -2.43305 0
M  V30 422 C 41.8937 -3.00139 -0.183584 0
M  V30 423 C 43.4417 -3.11946 -0.256654 0
M  V30 424 C 43.9167 -4.57793 -0.137792 0
M  V30 425 N 45.4077 -4.6279 -0.194904 0
M  V30 426 C 46.1427 -5.7326 -0.126655 0
M  V30 427 N 45.6387 -6.928 -0.00755288 0
M  V30 428 N 47.4317 -5.61811 -0.180348 0
M  V30 429 H 39.5827 -1.90424 0.94087 0
M  V30 430 H 41.8457 -0.875761 0.362968 0
M  V30 431 H 41.5517 -3.4292 0.780927 0
M  V30 432 H 41.4257 -3.64899 -0.955448 0
M  V30 433 H 43.8127 -2.69079 -1.21162 0
M  V30 434 H 43.8937 -2.49915 0.545517 0
M  V30 435 H 43.5377 -5.01339 0.813739 0
M  V30 436 H 43.4677 -5.17798 -0.958775 0
M  V30 437 H 45.9587 -3.76807 -0.287267 0
M  V30 438 H 46.2717 -7.72791 0.0379428 0
M  V30 439 H 44.6167 -6.94995 0.0271731 0
M  V30 440 H 47.8077 -4.6731 -0.271767 0
M  V30 441 H 47.9807 -6.47882 -0.123697 0
M  V30 442 N 41.3868 0.248026 -1.55636 0
M  V30 443 C 42.6118 0.998028 -1.81808 0
M  V30 444 C 43.0368 1.78207 -0.601979 0
M  V30 445 O 42.3948 1.75653 0.448961 0
M  V30 446 C 42.4428 1.9125 -3.05705 0
M  V30 447 O 41.5468 3.00406 -2.82542 0
M  V30 448 H 40.8878 0.284045 -0.600179 0
M  V30 449 H 43.4178 0.269357 -2.02819 0
M  V30 450 H 43.4278 2.32737 -3.35108 0
M  V30 451 H 42.1028 1.33602 -3.93857 0
M  V30 452 H 40.6798 2.63056 -2.64303 0
M  V30 453 N 42.8649 1.48995 0.513639 0
M  V30 454 C 44.2759 1.5119 1.09537 0
M  V30 455 C 44.6269 0.290906 1.94031 0
M  V30 456 O 43.7519 -0.60049 2.07902 0
M  V30 457 C 44.3469 2.73964 1.99322 0
M  V30 458 C 42.9059 2.78978 2.52682 0
M  V30 459 C 42.0529 2.44934 1.30009 0
M  V30 460 H 45.0039 1.55875 0.298125 0
M  V30 461 H 45.0249 2.53409 2.83838 0
M  V30 462 H 44.5369 3.62813 1.37799 0
M  V30 463 H 42.6379 1.94378 3.1788 0
M  V30 464 H 42.7509 3.8083 2.90698 0
M  V30 465 H 41.1149 1.9644 1.62122 0
M  V30 466 H 41.8979 3.36043 0.702131 0
M  V30 467 N 44.343 -0.763751 1.37857 0
M  V30 468 C 45.592 -1.51789 1.32827 0
M  V30 469 C 45.905 -1.95426 -0.0823719 0
M  V30 470 O 47.111 -2.70298 -0.255172 0
M  V30 471 C 45.567 -2.74133 2.33193 0
M  V30 472 C 45.175 -2.37562 3.79827 0
M  V30 473 C 46.919 -3.52054 2.37188 0
M  V30 474 C 44.826 -3.56456 4.71904 0
M  V30 475 H 43.756 -0.569896 0.493695 0
M  V30 476 H 46.407 -0.835822 1.63359 0
M  V30 477 H 44.789 -3.4427 1.9569 0
M  V30 478 H 45.963 -1.75157 4.26212 0
M  V30 479 H 44.278 -1.72798 3.78853 0
M  V30 480 H 46.875 -4.40437 3.03182 0
M  V30 481 H 47.218 -3.92486 1.38782 0
M  V30 482 H 47.751 -2.88921 2.7344 0
M  V30 483 H 44.49 -3.21099 5.71468 0
M  V30 484 H 44.01 -4.17938 4.30218 0
M  V30 485 H 45.689 -4.23168 4.89426 0
M  V30 486 N 45.8211 -1.22559 -0.990812 0
M  V30 487 C 47.2371 -0.985996 -1.255 0
M  V30 488 C 47.4371 0.319173 -1.98956 0
M  V30 489 O 46.4931 1.04127 -2.3003 0
M  V30 490 C 47.8061 -2.18607 -2.06474 0
M  V30 491 C 49.3541 -2.22985 -2.19651 0
M  V30 492 C 49.8291 -3.4255 -3.04012 0
M  V30 493 N 51.3201 -3.42725 -3.11599 0
M  V30 494 C 52.0551 -4.31892 -3.7717 0
M  V30 495 N 51.5511 -5.31279 -4.44651 0
M  V30 496 N 53.3441 -4.19662 -3.73952 0
M  V30 497 H 45.4951 -2.06469 -0.49841 0
M  V30 498 H 47.7581 -0.904853 -0.282747 0
M  V30 499 H 47.4641 -3.13267 -1.59865 0
M  V30 500 H 47.3381 -2.18838 -3.07229 0
M  V30 501 H 49.7251 -1.28871 -2.65474 0
M  V30 502 H 49.8061 -2.26791 -1.18319 0
M  V30 503 H 49.4501 -4.36965 -2.58889 0
M  V30 504 H 49.3801 -3.35984 -4.0549 0
M  V30 505 H 51.8711 -2.70807 -2.63575 0
M  V30 506 H 52.1841 -5.95593 -4.92431 0
M  V30 507 H 50.5291 -5.3519 -4.43392 0
M  V30 508 H 53.7201 -3.41268 -3.20396 0
M  V30 509 H 53.8931 -4.89358 -4.24774 0
M  V30 510 N 47.2992 1.18797 -1.03562 0
M  V30 511 C 48.5472 1.88278 -0.734569 0
M  V30 512 C 48.8682 1.8043 0.739586 0
M  V30 513 O 48.1382 1.21925 1.53333 0
M  V30 514 H 46.7182 0.696991 -0.268725 0
M  V30 515 H 49.3802 1.44192 -1.31129 0
M  V30 516 H 48.4762 2.94443 -1.03489 0
M  V30 517 N 48.7773 0.814389 1.34928 0
M  V30 518 C 50.0023 0.410097 2.03305 0
M  V30 519 C 50.4273 -0.973464 1.60951 0
M  V30 520 O 49.7853 -1.63185 0.789964 0
M  V30 521 C 49.8333 0.51049 3.56968 0
M  V30 522 O 48.9373 -0.473035 4.09678 0
M  V30 523 H 48.2783 0.170088 0.641846 0
M  V30 524 H 50.8083 1.10244 1.72358 0
M  V30 525 H 50.8183 0.383135 4.06197 0
M  V30 526 H 49.4933 1.51963 3.87144 0
M  V30 527 H 48.0703 -0.305272 3.71648 0
M  V30 528 N 50.2554 -1.46986 0.568584 0
M  V30 529 C 51.6664 -1.86188 0.138219 0
M  V30 530 C 52.0174 -1.47388 -1.29504 0
M  V30 531 O 51.1424 -0.88219 -1.97602 0
M  V30 532 C 51.7374 -3.3792 0.244065 0
M  V30 533 C 50.2964 -3.76171 -0.131335 0
M  V30 534 C 49.4434 -2.71027 0.586465 0
M  V30 535 H 52.3944 -1.38342 0.777645 0
M  V30 536 H 52.4154 -3.76729 -0.534351 0
M  V30 537 H 51.9274 -3.66128 1.28731 0
M  V30 538 H 50.0284 -3.5358 -1.17526 0
M  V30 539 H 50.1414 -4.78523 0.235146 0
M  V30 540 H 48.5054 -2.54684 0.0282722 0
M  V30 541 H 49.2884 -3.02077 1.63109 0
M  V30 542 N 51.7335 -0.305618 -1.54608 0
M  V30 543 C 53.1495 0.0476228 -1.59529 0
M  V30 544 C 53.3495 1.52025 -1.32252 0
M  V30 545 O 52.4055 2.27368 -1.09818 0
M  V30 546 C 53.7185 -0.354471 -2.98603 0
M  V30 547 C 55.2665 -0.303622 -3.11524 0
M  V30 548 C 55.7415 -0.680608 -4.52915 0
M  V30 549 N 57.2325 -0.63332 -4.5885 0
M  V30 550 C 57.9675 -0.897432 -5.66334 0
M  V30 551 N 57.4635 -1.22775 -6.81834 0
M  V30 552 N 59.2565 -0.824186 -5.56025 0
M  V30 553 H 51.4075 -1.2653 -1.70599 0
M  V30 554 H 53.6705 -0.513291 -0.797017 0
M  V30 555 H 53.3765 -1.3798 -3.23503 0
M  V30 556 H 53.2505 0.289568 -3.76087 0
M  V30 557 H 55.6375 0.712472 -2.8637 0
M  V30 558 H 55.7185 -0.982348 -2.36185 0
M  V30 559 H 55.3625 -1.69453 -4.78799 0
M  V30 560 H 55.2925 0.0202385 -5.26596 0
M  V30 561 H 57.7835 -0.389138 -3.75891 0
M  V30 562 H 58.0965 -1.41513 -7.59733 0
M  V30 563 H 56.4415 -1.26583 -6.83375 0
M  V30 564 H 59.6325 -0.565748 -4.64669 0
M  V30 565 H 59.8055 -1.03338 -6.39707 0
M  V30 566 N 53.2116 1.57565 -0.0334293 0
M  V30 567 C 54.6276 1.56297 0.322997 0
M  V30 568 C 54.8276 1.03945 1.7262 0
M  V30 569 O 53.8836 0.688109 2.42943 0
M  V30 570 C 55.1966 3.00232 0.167664 0
M  V30 571 C 56.7446 3.12078 0.240107 0
M  V30 572 C 57.2196 4.57859 0.113513 0
M  V30 573 N 58.7106 4.62887 0.170359 0
M  V30 574 C 59.4456 5.73319 0.0962517 0
M  V30 575 N 58.9416 6.92794 -0.0291881 0
M  V30 576 N 60.7346 5.61898 0.150551 0
M  V30 577 H 52.8856 1.89923 -0.950956 0
M  V30 578 H 55.1486 0.873824 -0.367608 0
M  V30 579 H 54.8546 3.42501 -0.799102 0
M  V30 580 H 54.7286 3.654 0.936083 0
M  V30 581 H 57.1156 2.69718 1.19733 0
M  V30 582 H 57.1966 2.49623 -0.558763 0
M  V30 583 H 56.8406 5.009 -0.840314 0
M  V30 584 H 56.7706 5.18299 0.931302 0
M  V30 585 H 59.2616 3.76954 0.26728 0
M  V30 586 H 59.5746 7.7276 -0.0789252 0
M  V30 587 H 57.9196 6.94971 -0.0640299 0
M  V30 588 H 61.1106 4.67448 0.246981 0
M  V30 589 H 61.2836 6.47938 0.0893365 0
M  V30 590 N 54.6897 -0.239769 1.55765 0
M  V30 591 C 55.5997 -1.31831 1.94056 0
M  V30 592 C 56.6157 -1.52275 0.841925 0
M  V30 593 O 57.7917 -1.65759 1.14394 0
M  V30 594 C 54.8567 -2.65156 2.23368 0
M  V30 595 C 53.9177 -2.53173 3.46701 0
M  V30 596 C 53.1507 -3.8014 3.74606 0
M  V30 597 O 53.3737 -4.82343 3.04469 0
M  V30 598 O 52.3077 -3.78344 4.68123 0
M  V30 599 H 56.1337 -1.02347 2.85935 0
M  V30 600 H 53.7187 -0.441123 1.42739 0
M  V30 601 H 55.6007 -3.43929 2.43497 0
M  V30 602 H 54.2757 -2.94358 1.34666 0
M  V30 603 H 53.1827 -1.72662 3.31871 0
M  V30 604 H 54.5157 -2.28915 4.35728 0
M  V30 605 N 56.1678 -1.49265 -0.50573 0
M  V30 606 C 57.5788 -1.51769 -1.08734 0
M  V30 607 C 57.9298 -0.301192 -1.93874 0
M  V30 608 O 57.0548 0.589456 -2.08217 0
M  V30 609 C 57.6498 -2.75017 -1.97867 0
M  V30 610 C 56.2088 -2.80314 -2.51199 0
M  V30 611 C 55.3558 -2.4562 -1.28709 0
M  V30 612 H 58.3068 -1.56031 -0.289855 0
M  V30 613 H 58.3278 -2.5491 -2.82491 0
M  V30 614 H 57.8398 -3.63539 -1.35873 0
M  V30 615 H 55.9408 -1.96061 -3.16845 0
M  V30 616 H 56.0538 -3.82366 -2.88675 0
M  V30 617 H 54.4178 -1.97297 -1.61078 0
M  V30 618 H 55.2008 -3.36411 -0.6843 0
M  V30 619 N 57.6459 0.756429 -1.3826 0
M  V30 620 C 59.0619 1.0591 -1.19395 0
M  V30 621 C 59.2619 2.01459 -0.0406567 0
M  V30 622 O 58.3179 2.44909 0.614467 0
M  V30 623 C 59.6309 1.64191 -2.51916 0
M  V30 624 C 61.1789 1.76376 -2.58574 0
M  V30 625 C 61.6539 2.38069 -3.91264 0
M  V30 626 N 63.1449 2.45503 -3.92788 0
M  V30 627 C 63.8799 2.94126 -4.92217 0
M  V30 628 N 63.3759 3.42805 -6.02043 0
M  V30 629 N 65.1689 2.9314 -4.7961 0
M  V30 630 H 57.3199 0.122313 -2.12048 0
M  V30 631 H 59.5829 0.116892 -0.940766 0
M  V30 632 H 59.2889 1.01451 -3.3675 0
M  V30 633 H 59.1629 2.6329 -2.70108 0
M  V30 634 H 61.5499 2.38244 -1.74137 0
M  V30 635 H 61.6309 0.759894 -2.44252 0
M  V30 636 H 61.2749 1.76835 -4.76121 0
M  V30 637 H 61.2049 3.39091 -4.02895 0
M  V30 638 H 63.6959 2.1107 -3.13461 0
M  V30 639 H 64.0089 3.78354 -6.73846 0
M  V30 640 H 62.3539 3.4087 -6.05667 0
M  V30 641 H 65.5449 2.54419 -3.92923 0
M  V30 642 H 65.7179 3.30721 -5.5725 0
M  V30 643 N 59.124 1.23083 0.984299 0
M  V30 644 C 60.401 0.9689 1.69917 0
M  V30 645 C 60.781 -0.513604 2.04757 0
M  V30 646 O 60.129 -1.48383 1.73767 0
M  V30 647 C 60.339 1.87518 2.94343 0
M  V30 648 C 61.687 2.13636 3.6694 0
M  V30 649 O 62.711 1.85036 3.04368 0
M  V30 650 O 61.57 2.62119 4.79537 0
M  V30 651 H 58.664 0.365095 0.742048 0
M  V30 652 H 61.21 1.34107 1.03987 0
M  V30 653 H 59.982 2.87756 2.65164 0
M  V30 654 H 59.605 1.50514 3.6801 0
M  V30 655 N 60.6021 -1.18246 1.0419 0
M  V30 656 C 61.8501 -1.87886 0.744543 0
M  V30 657 C 62.1711 -1.8082 -0.730006 0
M  V30 658 O 61.4411 -1.22736 -1.52685 0
M  V30 659 H 60.0211 -0.695556 0.272417 0
M  V30 660 H 62.6831 -1.43494 1.31892 0
M  V30 661 H 61.7791 -2.9389 1.05049 0
M  V30 662 N 62.0802 -0.821533 -1.34494 0
M  V30 663 C 63.4962 -0.507117 -1.51329 0
M  V30 664 C 63.6962 0.968964 -1.76673 0
M  V30 665 O 62.7522 1.75348 -1.81685 0
M  V30 666 C 64.0652 -1.36544 -2.67911 0
M  V30 667 C 65.6132 -1.36242 -2.81793 0
M  V30 668 C 66.0882 -2.2052 -4.01416 0
M  V30 669 N 67.5792 -2.18136 -4.08621 0
M  V30 670 C 68.3142 -2.80095 -5.00334 0
M  V30 671 N 67.8102 -3.51039 -5.9728 0
M  V30 672 N 69.6032 -2.69656 -4.93196 0
M  V30 673 H 61.7542 -1.77729 -1.16302 0
M  V30 674 H 64.0172 -0.757291 -0.570276 0
M  V30 675 H 63.7232 -2.41361 -2.55808 0
M  V30 676 H 63.5972 -1.02917 -3.62888 0
M  V30 677 H 65.9842 -0.322041 -2.93338 0
M  V30 678 H 66.0652 -1.73866 -1.87628 0
M  V30 679 H 65.7092 -3.24607 -3.90631 0
M  V30 680 H 65.6392 -1.80247 -4.94791 0
M  V30 681 H 68.1302 -1.6653 -3.39229 0
M  V30 682 H 68.4432 -3.95565 -6.63889 0
M  V30 683 H 66.7882 -3.55145 -5.97409 0
M  V30 684 H 69.9792 -2.13808 -4.16418 0
M  V30 685 H 70.1522 -3.1823 -5.64476 0
M  V30 686 N 63.5583 1.46682 -0.576371 0
M  V30 687 C 64.5063 2.31953 0.17335 0
M  V30 688 C 65.5003 1.44098 0.89062 0
M  V30 689 O 66.7063 1.60759 0.809728 0
M  V30 690 H 63.0813 0.748273 0.0747727 0
M  V30 691 H 65.0523 2.93007 -0.564738 0
M  V30 692 C 63.8013 3.27142 1.17786 0
M  V30 693 H 63.1243 3.94719 0.635361 0
M  V30 694 H 64.5643 3.896 1.67296 0
M  V30 695 C 63.0233 2.52036 2.23561 0
M  V30 696 O 63.5533 2.27877 3.3081 0
M  V30 697 N 61.7593 2.12709 1.97998 0
M  V30 698 H 61.3063 2.32557 1.10792 0
M  V30 699 H 61.2643 1.62776 2.68982 0
M  V30 700 N 65.0364 0.313813 1.54444 0
M  V30 701 C 66.2844 -0.291099 1.99993 0
M  V30 702 C 66.6054 -1.53418 1.20366 0
M  V30 703 O 65.8754 -1.93544 0.302927 0
M  V30 704 H 64.4554 -0.110552 0.738774 0
M  V30 705 H 67.1174 0.428106 1.9014 0
M  V30 706 H 66.2134 -0.554268 3.07139 0
M  V30 707 N 66.5145 -1.57545 0.0417849 0
M  V30 708 C 67.9305 -1.56467 -0.314704 0
M  V30 709 C 68.1305 -1.04859 -1.72066 0
M  V30 710 O 67.1865 -0.700983 -2.42575 0
M  V30 711 C 68.4995 -3.00317 -0.15174 0
M  V30 712 C 70.0475 -3.12201 -0.223553 0
M  V30 713 C 70.5225 -4.57913 -0.0892295 0
M  V30 714 N 72.0135 -4.6297 -0.145808 0
M  V30 715 C 72.7485 -5.73362 -0.0658459 0
M  V30 716 N 72.2445 -6.92769 0.0659282 0
M  V30 717 N 74.0375 -5.6197 -0.12075 0
M  V30 718 H 66.1885 -1.89416 0.961014 0
M  V30 719 H 68.4515 -0.871862 0.372237 0
M  V30 720 H 68.1575 -3.42073 0.817254 0
M  V30 721 H 68.0315 -3.65892 -0.916692 0
M  V30 722 H 70.4185 -2.70349 -1.18301 0
M  V30 723 H 70.4995 -2.49323 0.571994 0
M  V30 724 H 70.1435 -5.00448 0.866867 0
M  V30 725 H 70.0735 -5.18786 -0.903802 0
M  V30 726 H 72.5645 -3.7709 -0.247286 0
M  V30 727 H 72.8775 -7.72707 0.119905 0
M  V30 728 H 71.2225 -6.94927 0.100885 0
M  V30 729 H 74.4135 -4.67572 -0.222187 0
M  V30 730 H 74.5865 -6.47977 -0.0549735 0
M  V30 731 N 67.9926 0.231505 -1.5589 0
M  V30 732 C 69.2696 0.981096 -1.69215 0
M  V30 733 C 69.6496 2.02799 -0.586164 0
M  V30 734 O 68.9976 2.24823 0.408253 0
M  V30 735 C 69.2076 1.60054 -3.10135 0
M  V30 736 C 70.5556 2.09658 -3.69227 0
M  V30 737 O 71.5796 1.69967 -3.13033 0
M  V30 738 O 70.4386 2.8258 -4.67772 0
M  V30 739 H 67.5326 0.457653 -0.688827 0
M  V30 740 H 70.0786 0.224073 -1.68214 0
M  V30 741 H 68.8506 0.844105 -3.82087 0
M  V30 742 H 68.4736 2.42336 -3.15212 0
M  V30 743 N 69.4707 1.49531 0.497807 0
M  V30 744 C 70.4337 1.65916 1.58128 0
M  V30 745 C 71.4337 0.530825 1.51786 0
M  V30 746 O 72.6237 0.797342 1.54881 0
M  V30 747 C 69.7557 1.65951 2.9778 0
M  V30 748 H 70.9487 2.62556 1.44929 0
M  V30 749 H 68.5017 1.38611 0.722275 0
M  V30 750 H 69.2367 0.709065 3.16453 0
M  V30 751 H 69.0217 2.47897 3.03792 0
M  V30 752 H 70.5117 1.80673 3.76493 0
M  V30 753 N 70.9488 -0.749086 1.3866 0
M  V30 754 C 72.3648 -1.05276 1.19955 0
M  V30 755 C 72.5648 -2.01435 0.05134 0
M  V30 756 O 71.6208 -2.45232 -0.60147 0
M  V30 757 C 72.9338 -1.62853 2.52783 0
M  V30 758 C 74.4818 -1.75002 2.59506 0
M  V30 759 C 74.9568 -2.35991 3.92521 0
M  V30 760 N 76.4478 -2.43416 3.94085 0
M  V30 761 C 77.1828 -2.91511 4.9377 0
M  V30 762 N 76.6788 -3.39608 6.03853 0
M  V30 763 N 78.4718 -2.90592 4.81157 0
M  V30 764 H 70.6228 -0.111066 2.12109 0
M  V30 765 H 72.8858 -0.111901 0.941373 0
M  V30 766 H 72.5918 -0.99664 3.37283 0
M  V30 767 H 72.4658 -2.61854 2.715 0
M  V30 768 H 74.8528 -2.37317 1.75398 0
M  V30 769 H 74.9338 -0.74693 2.44652 0
M  V30 770 H 74.5778 -1.74308 4.77053 0
M  V30 771 H 74.5078 -3.3695 4.04688 0
M  V30 772 H 76.9988 -2.09405 3.14576 0
M  V30 773 H 77.3118 -3.74775 6.75843 0
M  V30 774 H 75.6568 -3.37653 6.07466 0
M  V30 775 H 78.8478 -2.52332 3.94267 0
M  V30 776 H 79.0208 -3.27762 5.58996 0
M  V30 777 N 72.4269 -1.23603 -0.977757 0
M  V30 778 C 73.7039 -0.977897 -1.69401 0
M  V30 779 C 74.0839 0.502738 -2.05026 0
M  V30 780 O 73.4319 1.47459 -1.74551 0
M  V30 781 C 73.6419 -1.89077 -2.93345 0
M  V30 782 C 74.9899 -2.15579 -3.65802 0
M  V30 783 O 76.0139 -1.86648 -3.03383 0
M  V30 784 O 74.8729 -2.64658 -4.78141 0
M  V30 785 H 71.9669 -0.369025 -0.740101 0
M  V30 786 H 74.5129 -1.34657 -1.03274 0
M  V30 787 H 73.2849 -2.89158 -2.63634 0
M  V30 788 H 72.9079 -1.52463 -3.67207 0
M  V30 789 N 73.905 1.17692 -1.04816 0
M  V30 790 C 75.13 1.92327 -0.776207 0
M  V30 791 C 75.555 1.76082 0.661581 0
M  V30 792 O 74.913 1.076 1.45917 0
M  V30 793 C 74.961 3.41539 -1.15687 0
M  V30 794 O 74.065 4.11402 -0.286775 0
M  V30 795 H 73.406 0.599735 -0.284981 0
M  V30 796 H 75.936 1.49201 -1.4 0
M  V30 797 H 75.946 3.92269 -1.12202 0
M  V30 798 H 74.621 3.52684 -2.20425 0
M  V30 799 H 73.198 3.70939 -0.381903 0
M  V30 800 N 75.3831 0.828654 1.34056 0
M  V30 801 C 76.7991 0.515135 1.51058 0
M  V30 802 C 76.9991 -0.959581 1.77184 0
M  V30 803 O 76.0551 -1.74382 1.82612 0
M  V30 804 C 77.3681 1.37963 2.67183 0
M  V30 805 C 78.9161 1.37735 2.81066 0
M  V30 806 C 79.3911 2.22645 4.00241 0
M  V30 807 N 80.8821 2.203 4.07458 0
M  V30 808 C 81.6171 2.82744 4.98842 0
M  V30 809 N 81.1131 3.54201 5.9541 0
M  V30 810 N 82.9061 2.72268 4.91759 0
M  V30 811 H 75.0571 1.78343 1.15358 0
M  V30 812 H 77.3201 0.760304 0.566252 0
M  V30 813 H 77.0261 2.42714 2.54525 0
M  V30 814 H 76.9001 1.0484 3.62338 0
M  V30 815 H 79.2871 0.337593 2.93163 0
M  V30 816 H 79.3681 1.74859 1.86703 0
M  V30 817 H 79.0121 3.26674 3.88905 0
M  V30 818 H 78.9421 1.82869 4.93829 0
M  V30 819 H 81.4331 1.68327 3.38341 0
M  V30 820 H 81.7461 3.9908 6.61782 0
M  V30 821 H 80.0911 3.58308 5.95517 0
M  V30 822 H 83.2821 2.16014 4.15278 0
M  V30 823 H 83.4551 3.21219 5.62781 0
M  V30 824 N 76.8612 -1.46375 0.584142 0
M  V30 825 C 78.1382 -1.956 0.0033388 0
M  V30 826 C 78.5182 -1.52679 -1.45782 0
M  V30 827 O 77.8662 -0.77816 -2.14842 0
M  V30 828 C 78.0762 -3.48551 0.176891 0
M  V30 829 C 79.4242 -4.24576 0.0454609 0
M  V30 830 O 80.4482 -3.56043 0.105801 0
M  V30 831 O 79.3072 -5.46427 -0.0890376 0
M  V30 832 H 76.4012 -0.825547 -0.0490066 0
M  V30 833 H 78.9472 -1.56652 0.65256 0
M  V30 834 H 77.7192 -3.72683 1.1926 0
M  V30 835 H 77.3422 -3.94332 -0.508695 0
M  V30 836 N 78.3393 -0.321999 -1.54275 0
M  V30 837 C 79.5883 0.281931 -1.9972 0
M  V30 838 C 79.9013 1.53369 -1.21397 0
M  V30 839 O 81.1073 2.21352 -1.57211 0
M  V30 840 C 79.5633 0.5529 -3.55628 0
M  V30 841 C 79.1713 -0.681721 -4.42783 0
M  V30 842 C 80.9153 1.11687 -4.09544 0
M  V30 843 C 78.8223 -0.382742 -5.9016 0
M  V30 844 H 77.7523 0.109124 -0.746062 0
M  V30 845 H 80.4033 -0.43398 -1.78294 0
M  V30 846 H 78.7853 1.32896 -3.73035 0
M  V30 847 H 79.9593 -1.45723 -4.37151 0
M  V30 848 H 78.2743 -1.1658 -3.99748 0
M  V30 849 H 80.8713 1.35515 -5.17242 0
M  V30 850 H 81.2143 2.06575 -3.61431 0
M  V30 851 H 81.7473 0.402032 -3.95763 0
M  V30 852 H 78.4863 -1.30076 -6.42464 0
M  V30 853 H 78.0063 0.355094 -5.98748 0
M  V30 854 H 79.6853 0.00800157 -6.47 0
M  V30 855 N 79.8174 1.5752 -0.0501392 0
M  V30 856 C 81.2334 1.56631 0.306402 0
M  V30 857 C 81.4334 1.0577 1.71508 0
M  V30 858 O 80.4894 0.713837 2.422 0
M  V30 859 C 81.8024 3.00393 0.135811 0
M  V30 860 C 83.3504 3.12315 0.206993 0
M  V30 861 C 83.8254 4.57954 0.064944 0
M  V30 862 N 85.3164 4.63041 0.121254 0
M  V30 863 C 86.0514 5.73389 0.0354381 0
M  V30 864 N 85.5474 6.92724 -0.102666 0
M  V30 865 N 87.3404 5.62026 0.090946 0
M  V30 866 H 79.4914 1.88903 -0.971046 0
M  V30 867 H 81.7544 0.869876 -0.376855 0
M  V30 868 H 81.4604 3.41635 -0.835384 0
M  V30 869 H 81.3344 3.66373 0.897275 0
M  V30 870 H 83.7214 2.70973 1.16866 0
M  V30 871 H 83.8024 2.49016 -0.585208 0
M  V30 872 H 83.4464 4.99981 -0.893394 0
M  V30 873 H 83.3764 5.19258 0.876277 0
M  V30 874 H 85.8674 3.77216 0.227284 0
M  V30 875 H 86.1804 7.72633 -0.160882 0
M  V30 876 H 84.5254 6.94864 -0.137737 0
M  V30 877 H 87.7164 4.67684 0.197388 0
M  V30 878 H 87.8894 6.47997 0.0206089 0
M  V30 879 N 81.2955 -0.223234 1.56011 0
M  V30 880 C 82.5725 -0.972108 1.69733 0
M  V30 881 C 82.9525 -2.02485 0.59691 0
M  V30 882 O 82.3005 -2.25037 -0.396324 0
M  V30 883 C 82.5105 -1.58407 3.10979 0
M  V30 884 C 83.8585 -2.07696 3.70334 0
M  V30 885 O 84.8825 -1.68304 3.1393 0
M  V30 886 O 83.7415 -2.80096 4.69264 0
M  V30 887 H 80.8355 -0.453993 0.691245 0
M  V30 888 H 83.3815 -0.215149 1.68331 0
M  V30 889 H 82.1535 -0.823831 3.82529 0
M  V30 890 H 81.7765 -2.40661 3.16493 0
M  V30 891 N 82.7736 -1.49793 -0.48987 0
M  V30 892 C 84.1846 -1.52914 -1.07118 0
M  V30 893 C 84.5356 -0.321738 -1.93544 0
M  V30 894 O 83.6606 0.567338 -2.08831 0
M  V30 895 C 84.2556 -2.771 -1.94938 0
M  V30 896 C 82.8146 -2.82963 -2.48212 0
M  V30 897 C 81.9616 -2.46972 -1.26096 0
M  V30 898 H 84.9126 -1.56329 -0.273289 0
M  V30 899 H 84.9336 -2.57892 -2.79771 0
M  V30 900 H 84.4456 -3.64959 -1.32009 0
M  V30 901 H 82.5466 -1.99411 -3.14748 0
M  V30 902 H 82.6596 -3.85406 -2.84603 0
M  V30 903 H 81.0236 -1.98994 -1.58976 0
M  V30 904 H 81.8066 -3.37118 -0.648581 0
M  V30 905 N 84.2517 0.741722 -1.39055 0
M  V30 906 C 85.6677 1.04638 -1.20512 0
M  V30 907 C 85.8677 2.01405 -0.0620218 0
M  V30 908 O 84.9237 2.45547 0.588457 0
M  V30 909 C 86.2367 1.6151 -2.53643 0
M  V30 910 C 87.7847 1.73623 -2.6043 0
M  V30 911 C 88.2597 2.33906 -3.93767 0
M  V30 912 N 89.7507 2.41323 -3.9537 0
M  V30 913 C 90.4857 2.88888 -4.95309 0
M  V30 914 N 89.9817 3.36401 -6.05645 0
M  V30 915 N 91.7747 2.88037 -4.82692 0
M  V30 916 H 83.9257 0.0998155 -2.12165 0
M  V30 917 H 86.1887 0.106907 -0.941953 0
M  V30 918 H 85.8947 0.978739 -3.37807 0
M  V30 919 H 85.7687 2.60411 -2.72885 0
M  V30 920 H 88.1557 2.36384 -1.76655 0
M  V30 921 H 88.2367 0.733945 -2.45045 0
M  V30 922 H 87.8807 1.71776 -4.7797 0
M  V30 923 H 87.8107 3.34799 -4.06469 0
M  V30 924 H 90.3017 2.07734 -3.15682 0
M  V30 925 H 90.6147 3.71186 -6.77821 0
M  V30 926 H 88.9597 3.34427 -6.09248 0
M  V30 927 H 92.1507 2.50237 -3.95599 0
M  V30 928 H 92.3237 3.24792 -5.60726 0
M  V30 929 N 85.7298 1.2412 0.971189 0
M  V30 930 C 87.0068 0.986867 1.6888 0
M  V30 931 C 87.3868 -0.491857 2.0529 0
M  V30 932 O 86.7348 -1.46531 1.75331 0
M  V30 933 C 86.9448 1.9063 2.92338 0
M  V30 934 C 88.2928 2.17515 3.64654 0
M  V30 935 O 89.3168 1.88254 3.02388 0
M  V30 936 O 88.1758 2.6719 4.7673 0
M  V30 937 H 85.2698 0.372944 0.738134 0
M  V30 938 H 87.8158 1.35203 1.02559 0
M  V30 939 H 86.5878 2.90552 2.62097 0
M  V30 940 H 86.2108 1.54408 3.66393 0
M  V30 941 N 87.2079 -1.17134 1.05439 0
M  V30 942 C 88.1379 -2.2342 0.678649 0
M  V30 943 C 89.1189 -1.66971 -0.32476 0
M  V30 944 O 90.3039 -1.93149 -0.201802 0
M  V30 945 C 87.4339 -3.47256 0.0552099 0
M  V30 946 C 86.3879 -4.16543 0.98365 0
M  V30 947 C 85.7139 -5.34231 0.223961 0
M  V30 948 C 87.0139 -4.68495 2.3089 0
M  V30 949 H 88.7079 -2.55105 1.56722 0
M  V30 950 H 86.2539 -1.2262 0.754998 0
M  V30 951 H 88.2069 -4.20828 -0.21946 0
M  V30 952 H 86.9309 -3.14846 -0.868319 0
M  V30 953 H 85.5899 -3.44887 1.24293 0
M  V30 954 H 85.2379 -4.98071 -0.702412 0
M  V30 955 H 84.9379 -5.81527 0.842627 0
M  V30 956 H 86.4619 -6.10585 -0.0433671 0
M  V30 957 H 87.8759 -5.33691 2.09396 0
M  V30 958 H 86.2729 -5.26379 2.88176 0
M  V30 959 H 87.3429 -3.85169 2.94572 0
M  V30 960 N 88.686 -0.835752 -1.33615 0
M  V30 961 C 90.102 -0.523139 -1.50783 0
M  V30 962 C 90.302 0.950171 -1.77691 0
M  V30 963 O 89.358 1.73411 -1.83534 0
M  V30 964 C 90.671 -1.39378 -2.66448 0
M  V30 965 C 92.219 -1.39223 -2.80332 0
M  V30 966 C 92.694 -2.24765 -3.99055 0
M  V30 967 N 94.185 -2.22458 -4.06284 0
M  V30 968 C 94.92 -2.85386 -4.97336 0
M  V30 969 N 94.416 -3.57354 -5.93523 0
M  V30 970 N 96.209 -2.74872 -4.90308 0
M  V30 971 H 88.36 -1.78952 -1.14411 0
M  V30 972 H 90.623 -0.763297 -0.562212 0
M  V30 973 H 90.329 -2.44061 -2.53234 0
M  V30 974 H 90.203 -1.0676 -3.61776 0
M  V30 975 H 92.59 -0.353136 -2.92979 0
M  V30 976 H 92.671 -1.75846 -1.85773 0
M  V30 977 H 92.315 -3.28732 -3.87167 0
M  V30 978 H 92.245 -1.85485 -4.92852 0
M  V30 979 H 94.736 -1.70119 -3.37443 0
M  V30 980 H 95.049 -4.02584 -6.59656 0
M  V30 981 H 93.394 -3.61461 -5.93608 0
M  V30 982 H 96.585 -2.18213 -4.14126 0
M  V30 983 H 96.758 -3.24199 -5.61069 0
M  V30 984 N 90.1641 1.46063 -0.591896 0
M  V30 985 C 91.4411 1.95595 -0.0137119 0
M  V30 986 C 91.8211 1.5345 1.4497 0
M  V30 987 O 91.1691 0.789543 2.14426 0
M  V30 988 C 91.3791 3.48453 -0.195373 0
M  V30 989 C 92.7271 4.24546 -0.0679765 0
M  V30 990 O 93.7511 3.55982 -0.124681 0
M  V30 991 O 92.6101 5.46467 0.0600579 0
M  V30 992 H 89.7041 0.825795 0.0446279 0
M  V30 993 H 92.2501 1.56303 -0.660859 0
M  V30 994 H 91.0221 3.72045 -1.21235 0
M  V30 995 H 90.6451 3.94597 0.487775 0
M  V30 996 N 91.6422 0.330177 1.54103 0
M  V30 997 C 92.5922 -0.548456 2.21305 0
M  V30 998 C 93.5762 -1.07651 1.19583 0
M  V30 999 O 94.7682 -1.01243 1.45186 0
M  V30 1000 C 91.8972 -1.70559 2.97934 0
M  V30 1001 C 90.9832 -1.19212 4.07 0
M  V30 1002 N 91.3742 -0.398831 5.04225 0
M  V30 1003 C 89.6722 -1.47024 4.2107 0
M  V30 1004 C 90.3732 -0.121761 5.81573 0
M  V30 1005 N 89.3492 -0.709722 5.38947 0
M  V30 1006 H 93.1512 0.0648483 2.93828 0
M  V30 1007 H 90.6652 0.136363 1.61826 0
M  V30 1008 H 92.6622 -2.34688 3.44568 0
M  V30 1009 H 91.3222 -2.32231 2.26934 0
M  V30 1010 H 92.3332 -0.0410869 5.17884 0
M  V30 1011 H 89.0102 -2.09232 3.61287 0
M  V30 1012 H 90.4002 0.517298 6.69906 0
M  V30 1013 N 93.1203 -1.57491 0.0584922 0
M  V30 1014 C 94.5363 -1.56792 -0.298091 0
M  V30 1015 C 94.7363 -1.06679 -1.70944 0
M  V30 1016 O 93.7923 -0.726672 -2.41818 0
M  V30 1017 C 95.1053 -3.00461 -0.119879 0
M  V30 1018 C 96.6533 -3.1242 -0.190428 0
M  V30 1019 C 97.1283 -4.57982 -0.0406567 0
M  V30 1020 N 98.6193 -4.63099 -0.0966958 0
M  V30 1021 C 99.3543 -5.734 -0.00502943 0
M  V30 1022 N 98.8503 -6.9266 0.139402 0
M  V30 1023 N 100.643 -5.62067 -0.0611391 0
M  V30 1024 H 92.7943 -1.88386 0.98105 0
M  V30 1025 H 95.0573 -0.867865 0.381463 0
M  V30 1026 H 94.7633 -3.41187 0.85349 0
M  V30 1027 H 94.6373 -3.66843 -0.877833 0
M  V30 1028 H 97.0243 -2.71589 -1.15427 0
M  V30 1029 H 97.1053 -2.48702 0.598405 0
M  V30 1030 H 96.7493 -4.995 0.919897 0
M  V30 1031 H 96.6793 -5.19715 -0.848727 0
M  V30 1032 H 99.1703 -3.77331 -0.207277 0
M  V30 1033 H 99.4833 -7.72536 0.201855 0
M  V30 1034 H 97.8283 -6.94781 0.174586 0
M  V30 1035 H 101.019 -4.67782 -0.172583 0
M  V30 1036 H 101.192 -6.47999 0.0137562 0
M  V30 1037 N 94.5984 0.214957 -1.56127 0
M  V30 1038 C 95.5484 1.27006 -1.8935 0
M  V30 1039 C 96.5324 1.41969 -0.757202 0
M  V30 1040 O 97.7244 1.44673 -1.01973 0
M  V30 1041 C 94.8534 2.61911 -2.2194 0
M  V30 1042 C 93.9394 2.50822 -3.41978 0
M  V30 1043 N 94.3304 2.09391 -4.60423 0
M  V30 1044 C 92.6284 2.81765 -3.45723 0
M  V30 1045 C 93.3294 2.09712 -5.42582 0
M  V30 1046 N 92.3054 2.50454 -4.82466 0
M  V30 1047 H 96.1074 0.940734 -2.78437 0
M  V30 1048 H 93.6214 0.423492 -1.56781 0
M  V30 1049 H 95.6184 3.38096 -2.43919 0
M  V30 1050 H 94.2784 2.95684 -1.34169 0
M  V30 1051 H 95.2894 1.80416 -4.85459 0
M  V30 1052 H 91.9664 3.19865 -2.68314 0
M  V30 1053 H 93.3564 1.79748 -6.4741 0
M  V30 1054 N 96.0765 1.50051 0.48192 0
M  V30 1055 C 97.3015 1.64508 1.26301 0
M  V30 1056 C 97.7265 0.323851 1.85291 0
M  V30 1057 O 97.0845 -0.710969 1.66778 0
M  V30 1058 C 97.1325 2.7305 2.35533 0
M  V30 1059 O 96.2365 2.3355 3.39895 0
M  V30 1060 H 95.5775 0.549978 0.372048 0
M  V30 1061 H 98.1075 1.9636 0.574786 0
M  V30 1062 H 98.1175 2.95799 2.8101 0
M  V30 1063 H 96.7925 3.68946 1.91967 0
M  V30 1064 H 95.3695 2.21205 3.00204 0
M  V30 1065 N 97.5546 -0.734337 1.39446 0
M  V30 1066 C 98.9706 -1.03997 1.21065 0
M  V30 1067 C 99.1706 -2.01369 0.0727019 0
M  V30 1068 O 98.2266 -2.45856 -0.575426 0
M  V30 1069 C 99.5396 -1.60163 2.54496 0
M  V30 1070 C 101.088 -1.7224 2.61347 0
M  V30 1071 C 101.563 -2.31814 3.95002 0
M  V30 1072 N 103.054 -2.39223 3.96644 0
M  V30 1073 C 103.789 -2.86258 4.96834 0
M  V30 1074 N 103.285 -3.33184 6.07421 0
M  V30 1075 N 105.078 -2.85473 4.84213 0
M  V30 1076 H 97.2286 -0.0885624 2.12215 0
M  V30 1077 H 99.4916 -0.10191 0.942506 0
M  V30 1078 H 99.1976 -0.960811 3.38321 0
M  V30 1079 H 99.0716 -2.5896 2.74262 0
M  V30 1080 H 101.459 -2.35443 1.77906 0
M  V30 1081 H 101.54 -0.720939 2.4543 0
M  V30 1082 H 101.184 -1.69238 4.78875 0
M  V30 1083 H 101.114 -3.32638 4.08239 0
M  V30 1084 H 103.605 -2.06057 3.16779 0
M  V30 1085 H 103.918 -3.67586 6.7978 0
M  V30 1086 H 102.263 -3.31191 6.11013 0
M  V30 1087 H 105.454 -2.48136 3.96921 0
M  V30 1088 H 105.627 -3.21814 5.62441 0
M  V30 1089 N 99.0327 -1.24633 -0.964593 0
M  V30 1090 C 100.31 -0.995809 -1.68354 0
M  V30 1091 C 100.69 0.480964 -2.05548 0
M  V30 1092 O 100.038 1.45599 -1.76105 0
M  V30 1093 C 100.248 -1.92177 -2.91323 0
M  V30 1094 C 101.596 -2.19446 -3.63495 0
M  V30 1095 O 102.62 -1.89855 -3.01386 0
M  V30 1096 O 101.479 -2.69714 -4.75307 0
M  V30 1097 H 98.5727 -0.376854 -0.736146 0
M  V30 1098 H 101.119 -1.35745 -1.0184 0
M  V30 1099 H 99.8907 -2.91938 -2.60553 0
M  V30 1100 H 99.5137 -1.56349 -3.65569 0
M  V30 1101 N 100.511 1.16574 -1.06058 0
M  V30 1102 C 101.441 2.23057 -0.690488 0
M  V30 1103 C 102.422 1.67141 0.315901 0
M  V30 1104 O 103.607 1.93253 0.191556 0
M  V30 1105 C 100.737 3.47222 -0.073625 0
M  V30 1106 C 99.6908 4.16016 -1.00573 0
M  V30 1107 C 99.0168 5.34104 -0.252289 0
M  V30 1108 C 100.317 4.67264 -2.33371 0
M  V30 1109 H 102.011 2.54271 -1.58072 0
M  V30 1110 H 99.5568 1.22218 -0.76149 0
M  V30 1111 H 101.51 4.20939 0.19714 0
M  V30 1112 H 100.234 3.15302 0.85161 0
M  V30 1113 H 98.8928 3.44223 -1.2612 0
M  V30 1114 H 98.5408 4.98437 0.675988 0
M  V30 1115 H 98.2408 5.81072 -0.873455 0
M  V30 1116 H 99.7648 6.10599 0.0109857 0
M  V30 1117 H 101.179 5.32573 -2.12223 0
M  V30 1118 H 99.5758 5.24843 -2.90963 0
M  V30 1119 H 100.646 3.83602 -2.96611 0
M  V30 1120 N 101.989 0.842826 1.3317 0
M  V30 1121 C 103.405 0.531128 1.50503 0
M  V30 1122 C 103.605 -0.940734 1.78192 0
M  V30 1123 O 102.661 -1.72436 1.84451 0
M  V30 1124 C 103.974 1.40789 2.65705 0
M  V30 1125 C 105.522 1.40708 2.79589 0
M  V30 1126 C 105.997 2.26878 3.97857 0
M  V30 1127 N 107.488 2.24609 4.05099 0
M  V30 1128 C 108.223 2.88019 4.95815 0
M  V30 1129 N 107.719 3.60496 5.9162 0
M  V30 1130 N 109.512 2.77469 4.88843 0
M  V30 1131 H 101.663 1.79557 1.1346 0
M  V30 1132 H 103.926 0.766267 0.558156 0
M  V30 1133 H 103.632 2.454 2.51936 0
M  V30 1134 H 103.506 1.08677 3.61205 0
M  V30 1135 H 105.893 0.368668 2.92788 0
M  V30 1136 H 105.974 1.76829 1.84838 0
M  V30 1137 H 105.618 3.3078 3.85418 0
M  V30 1138 H 105.548 1.88096 4.91861 0
M  V30 1139 H 108.039 1.71906 3.36536 0
M  V30 1140 H 108.352 4.06076 6.57512 0
M  V30 1141 H 106.697 3.64604 5.91683 0
M  V30 1142 H 109.888 2.20406 4.12963 0
M  V30 1143 H 110.061 3.2717 5.59342 0
M  V30 1144 N 103.467 -1.45747 0.599634 0
M  V30 1145 C 104.744 -1.95585 0.0240846 0
M  V30 1146 C 105.124 -1.54217 -1.44154 0
M  V30 1147 O 104.472 -0.800903 -2.14004 0
M  V30 1148 C 104.682 -3.48344 0.21385 0
M  V30 1149 C 106.03 -4.24504 0.0904902 0
M  V30 1150 O 107.054 -3.55911 0.143558 0
M  V30 1151 O 105.913 -5.46491 -0.0310766 0
M  V30 1152 H 103.007 -0.82602 -0.0402478 0
M  V30 1153 H 105.553 -1.55951 0.669139 0
M  V30 1154 H 104.325 -3.71397 1.23206 0
M  V30 1155 H 103.948 -3.9485 -0.466842 0
M  V30 1156 N 104.945 -0.338344 -1.53925 0
M  V30 1157 C 105.895 0.536712 -2.21593 0
M  V30 1158 C 106.879 1.07015 -1.20153 0
M  V30 1159 O 108.071 1.00471 -1.45721 0
M  V30 1160 C 105.2 1.68977 -2.98834 0
M  V30 1161 C 104.286 1.17052 -4.07627 0
M  V30 1162 N 104.677 0.372085 -5.0443 0
M  V30 1163 C 102.975 1.44789 -4.21844 0
M  V30 1164 C 103.676 0.0909171 -5.81629 0
M  V30 1165 N 102.652 0.681131 -5.39316 0
M  V30 1166 H 106.454 -0.0804298 -2.9379 0
M  V30 1167 H 103.968 -0.144943 -1.61752 0
M  V30 1168 H 105.965 2.32857 -3.45808 0
M  V30 1169 H 104.625 2.31024 -2.28162 0
M  V30 1170 H 105.636 0.0136217 -5.17898 0
M  V30 1171 H 102.313 2.07313 -3.62391 0
M  V30 1172 H 103.703 -0.552817 -6.69622 0
M  V30 1173 N 106.423 1.57458 -0.0668435 0
M  V30 1174 C 107.839 1.56947 0.289772 0
M  V30 1175 C 108.039 1.07584 1.70376 0
M  V30 1176 O 107.095 0.739486 2.41429 0
M  V30 1177 C 108.408 3.0052 0.103943 0
M  V30 1178 C 109.956 3.12517 0.173857 0
M  V30 1179 C 110.431 4.57997 0.0163682 0
M  V30 1180 N 111.922 4.63144 0.0721352 0
M  V30 1181 C 112.657 5.73394 -0.0253794 0
M  V30 1182 N 112.153 6.92576 -0.176133 0
M  V30 1183 N 113.946 5.62091 0.0313305 0
M  V30 1184 H 106.097 1.87863 -0.991027 0
M  V30 1185 H 108.36 0.86583 -0.38606 0
M  V30 1186 H 108.066 3.40729 -0.871572 0
M  V30 1187 H 107.94 3.67304 0.858366 0
M  V30 1188 H 110.327 2.72197 1.13985 0
M  V30 1189 H 110.408 2.48381 -0.611586 0
M  V30 1190 H 110.052 4.99005 -0.946374 0
M  V30 1191 H 109.982 5.20158 0.821153 0
M  V30 1192 H 112.473 3.77436 0.187263 0
M  V30 1193 H 112.786 7.72418 -0.242821 0
M  V30 1194 H 111.131 6.94678 -0.211429 0
M  V30 1195 H 114.322 4.67867 0.147773 0
M  V30 1196 H 114.495 6.47982 -0.048121 0
M  V30 1197 N 107.901 -0.206675 1.56239 0
M  V30 1198 C 109.178 -0.954051 1.70755 0
M  V30 1199 C 109.558 -2.01841 0.618353 0
M  V30 1200 O 108.906 -2.25444 -0.372434 0
M  V30 1201 C 109.116 -1.551 3.12642 0
M  V30 1202 C 110.464 -2.03757 3.72516 0
M  V30 1203 O 111.488 -1.64965 3.15698 0
M  V30 1204 O 110.347 -2.75103 4.72208 0
M  V30 1205 H 107.441 -0.446636 0.696021 0
M  V30 1206 H 109.987 -0.197283 1.68549 0
M  V30 1207 H 108.759 -0.783212 3.83382 0
M  V30 1208 H 108.382 -2.37291 3.19028 0
M  V30 1209 N 109.379 -1.50304 -0.473955 0
M  V30 1210 C 110.604 -1.65175 -1.25427 0
M  V30 1211 C 111.029 -0.333673 -1.85117 0
M  V30 1212 O 110.387 0.702114 -1.67153 0
M  V30 1213 C 110.435 -2.74295 -2.34082 0
M  V30 1214 O 109.539 -2.35349 -3.38651 0
M  V30 1215 H 108.88 -0.551944 -0.369126 0
M  V30 1216 H 111.41 -1.96662 -0.564364 0
M  V30 1217 H 111.42 -2.97285 -2.79438 0
M  V30 1218 H 110.095 -3.69959 -1.90008 0
M  V30 1219 H 108.672 -2.22794 -2.99027 0
M  V30 1220 N 110.857 0.726932 -1.39834 0
M  V30 1221 C 112.273 1.03354 -1.21615 0
M  V30 1222 C 112.473 2.01327 -0.08338 0
M  V30 1223 O 111.529 2.46158 0.56238 0
M  V30 1224 C 112.842 1.58811 -2.55342 0
M  V30 1225 C 114.39 1.70851 -2.62257 0
M  V30 1226 C 114.865 2.29716 -3.96225 0
M  V30 1227 N 116.356 2.37116 -3.97907 0
M  V30 1228 C 117.091 2.83619 -4.98345 0
M  V30 1229 N 116.587 3.29958 -6.09179 0
M  V30 1230 N 118.38 2.82901 -4.8572 0
M  V30 1231 H 110.531 0.0773069 -2.12259 0
M  V30 1232 H 112.794 0.0969102 -0.943034 0
M  V30 1233 H 112.5 0.942855 -3.38826 0
M  V30 1234 H 112.374 2.57502 -2.75632 0
M  V30 1235 H 114.761 2.34497 -1.79152 0
M  V30 1236 H 114.842 0.707913 -2.45809 0
M  V30 1237 H 114.486 1.66696 -4.79765 0
M  V30 1238 H 114.416 3.30469 -4.09997 0
M  V30 1239 H 116.907 2.04374 -3.17868 0
M  V30 1240 H 117.22 3.63976 -6.8172 0
M  V30 1241 H 115.565 3.27946 -6.12761 0
M  V30 1242 H 118.756 2.46027 -3.98231 0
M  V30 1243 H 118.929 3.18827 -5.6414 0
M  V30 1244 N 112.336 1.25143 0.95797 0
M  V30 1245 C 113.561 1.12521 1.74223 0
M  V30 1246 C 113.986 -0.317402 1.85403 0
M  V30 1247 O 113.344 -1.2299 1.33204 0
M  V30 1248 C 113.392 1.78062 3.1357 0
M  V30 1249 O 112.496 1.058 3.98598 0
M  V30 1250 H 111.837 0.39304 0.535178 0
M  V30 1251 H 114.367 1.65641 1.201 0
M  V30 1252 H 114.377 1.84213 3.64046 0
M  V30 1253 H 113.052 2.83021 3.04749 0
M  V30 1254 H 111.629 1.07506 3.57067 0
M  V30 1255 N 113.814 -1.1601 1.06675 0
M  V30 1256 C 115.06 -1.86909 0.786945 0
M  V30 1257 C 115.393 -1.81717 -0.685018 0
M  V30 1258 O 114.668 -1.23551 -1.50218 0
M  V30 1259 C 114.951 -3.36313 1.28707 0
M  V30 1260 C 114.804 -3.50175 2.82308 0
M  V30 1261 C 116.123 -4.3084 0.898071 0
M  V30 1262 H 113.242 -0.678677 0.287343 0
M  V30 1263 H 115.884 -1.36336 1.32334 0
M  V30 1264 H 114.034 -3.79513 0.830768 0
M  V30 1265 H 115.706 -3.15886 3.36175 0
M  V30 1266 H 113.949 -2.91959 3.20847 0
M  V30 1267 H 114.62 -4.55116 3.12368 0
M  V30 1268 H 117.096 -3.95561 1.29114 0
M  V30 1269 H 115.972 -5.33876 1.27543 0
M  V30 1270 H 116.233 -4.41662 -0.196651 0
M  V30 1271 N 115.292 -0.849877 -1.32721 0
M  V30 1272 C 116.708 -0.539102 -1.50219 0
M  V30 1273 C 116.908 0.931271 -1.78689 0
M  V30 1274 O 115.964 1.71455 -1.85363 0
M  V30 1275 C 117.277 -1.42196 -2.64954 0
M  V30 1276 C 118.825 -1.42189 -2.78839 0
M  V30 1277 C 119.3 -2.28985 -3.96648 0
M  V30 1278 N 120.791 -2.26754 -4.03902 0
M  V30 1279 C 121.526 -2.90644 -4.94281 0
M  V30 1280 N 121.022 -3.63629 -5.897 0
M  V30 1281 N 122.815 -2.80057 -4.87365 0
M  V30 1282 H 114.966 -1.80156 -1.12506 0
M  V30 1283 H 117.229 -0.769217 -0.554085 0
M  V30 1284 H 116.935 -2.46733 -2.50631 0
M  V30 1285 H 116.809 -1.10591 -3.60624 0
M  V30 1286 H 119.196 -0.38419 -2.92588 0
M  V30 1287 H 119.277 -1.77807 -1.83898 0
M  V30 1288 H 118.921 -3.32819 -3.83658 0
M  V30 1289 H 118.851 -1.90702 -4.90857 0
M  V30 1290 H 121.342 -1.73688 -3.3562 0
M  V30 1291 H 121.655 -4.09558 -6.55349 0
M  V30 1292 H 120 -3.67737 -5.89741 0
M  V30 1293 H 123.191 -2.22593 -4.11789 0
M  V30 1294 H 123.364 -3.30132 -5.57599 0
M  V30 1295 N 116.77 1.45427 -0.607355 0
M  V30 1296 C 118.047 1.9557 -0.0344566 0
M  V30 1297 C 118.427 1.54979 1.43334 0
M  V30 1298 O 117.775 0.812241 2.13576 0
M  V30 1299 C 117.985 3.48226 -0.232321 0
M  V30 1300 C 119.333 4.2445 -0.113001 0
M  V30 1301 O 120.357 3.55829 -0.162431 0
M  V30 1302 O 119.216 5.465 0.00209442 0
M  V30 1303 H 116.31 0.826222 0.0358667 0
M  V30 1304 H 118.856 1.55594 -0.6774 0
M  V30 1305 H 117.628 3.70739 -1.25174 0
M  V30 1306 H 117.251 3.95092 0.445896 0
M  V30 1307 N 118.248 0.346503 1.53744 0
M  V30 1308 C 119.494 -0.249473 2.0126 0
M  V30 1309 C 119.827 -1.49965 1.23386 0
M  V30 1310 O 119.102 -1.91811 0.32229 0
M  V30 1311 C 119.385 -0.560643 3.55709 0
M  V30 1312 C 119.238 0.701836 4.44291 0
M  V30 1313 C 120.557 -1.36905 4.18264 0
M  V30 1314 H 117.676 -0.0891987 0.731582 0
M  V30 1315 H 120.318 0.467624 1.84156 0
M  V30 1316 H 118.468 -1.17156 3.70414 0
M  V30 1317 H 120.14 1.33974 4.41417 0
M  V30 1318 H 118.383 1.32612 4.13033 0
M  V30 1319 H 119.054 0.43933 5.50249 0
M  V30 1320 H 121.53 -0.852448 4.07275 0
M  V30 1321 H 120.406 -1.55553 5.26398 0
M  V30 1322 H 120.667 -2.37203 3.73078 0
M  V30 1323 N 119.726 -1.57421 0.075193 0
M  V30 1324 C 121.142 -1.57099 -0.281444 0
M  V30 1325 C 121.342 -1.08486 -1.69803 0
M  V30 1326 O 120.398 -0.752279 -2.41033 0
M  V30 1327 C 121.711 -3.00571 -0.0880041 0
M  V30 1328 C 123.259 -3.12605 -0.157281 0
M  V30 1329 C 123.734 -4.57999 0.0079207 0
M  V30 1330 N 125.225 -4.63176 -0.0475725 0
M  V30 1331 C 125.96 -5.73373 0.0557876 0
M  V30 1332 N 125.456 -6.92473 0.21286 0
M  V30 1333 N 127.249 -5.621 -0.00152098 0
M  V30 1334 H 119.4 -1.87335 1.00098 0
M  V30 1335 H 121.663 -0.86377 0.390646 0
M  V30 1336 H 121.369 -3.40262 0.889629 0
M  V30 1337 H 121.243 -3.67754 -0.838875 0
M  V30 1338 H 123.63 -2.72798 -1.1254 0
M  V30 1339 H 123.711 -2.48053 0.62475 0
M  V30 1340 H 123.355 -4.98496 0.972824 0
M  V30 1341 H 123.285 -5.20586 -0.793556 0
M  V30 1342 H 125.776 -3.7753 -0.167244 0
M  V30 1343 H 126.089 -7.72279 0.283781 0
M  V30 1344 H 124.434 -6.94556 0.248267 0
M  V30 1345 H 127.625 -4.67938 -0.122958 0
M  V30 1346 H 127.798 -6.47948 0.0824844 0
M  V30 1347 N 121.204 0.198386 -1.56346 0
M  V30 1348 C 122.481 0.944982 -1.71258 0
M  V30 1349 C 122.861 2.0151 -0.629048 0
M  V30 1350 O 122.209 2.25639 0.360473 0
M  V30 1351 C 122.419 1.5344 -3.1346 0
M  V30 1352 C 123.767 2.01778 -3.73591 0
M  V30 1353 O 124.791 1.63288 -3.16568 0
M  V30 1354 O 123.65 2.72594 -4.73661 0
M  V30 1355 H 120.744 0.442939 -0.69838 0
M  V30 1356 H 123.29 0.188342 -1.68652 0
M  V30 1357 H 122.062 0.762869 -3.83792 0
M  V30 1358 H 121.685 2.35596 -3.20282 0
M  V30 1359 N 122.682 1.50554 0.465978 0
M  V30 1360 C 123.928 1.62038 1.21949 0
M  V30 1361 C 124.261 0.322116 1.9151 0
M  V30 1362 O 123.536 -0.676723 1.82348 0
M  V30 1363 C 123.819 2.80421 2.25912 0
M  V30 1364 C 123.672 4.20144 1.60622 0
M  V30 1365 C 124.991 2.94354 3.27176 0
M  V30 1366 H 122.11 0.589752 0.441998 0
M  V30 1367 H 124.752 1.82956 0.51257 0
M  V30 1368 H 122.902 2.62717 2.86203 0
M  V30 1369 H 124.574 4.49449 1.03889 0
M  V30 1370 H 122.817 4.24165 0.909211 0
M  V30 1371 H 123.488 4.98914 2.36196 0
M  V30 1372 H 125.964 3.10578 2.76913 0
M  V30 1373 H 124.84 3.788 3.97242 0
M  V30 1374 H 125.101 2.05186 3.916 0
M  V30 1375 N 124.16 -0.719506 1.40217 0
M  V30 1376 C 125.576 -1.02707 1.22161 0
M  V30 1377 C 125.776 -2.0128 0.0940557 0
M  V30 1378 O 124.832 -2.46452 -0.549318 0
M  V30 1379 C 126.145 -1.57454 2.56181 0
M  V30 1380 C 127.693 -1.69458 2.63159 0
M  V30 1381 C 128.168 -2.27611 3.97438 0
M  V30 1382 N 129.659 -2.35002 3.99159 0
M  V30 1383 C 130.394 -2.80972 4.99842 0
M  V30 1384 N 129.89 -3.26723 6.10921 0
M  V30 1385 N 131.683 -2.80321 4.87213 0
M  V30 1386 H 123.834 -0.0660492 2.12297 0
M  V30 1387 H 126.097 -0.0919077 0.943534 0
M  V30 1388 H 125.803 -0.924873 3.39321 0
M  V30 1389 H 125.677 -2.56036 2.76993 0
M  V30 1390 H 128.064 -2.33543 1.80393 0
M  V30 1391 H 128.145 -0.694867 2.46181 0
M  V30 1392 H 127.789 -1.6415 4.80643 0
M  V30 1393 H 127.719 -3.2829 4.11744 0
M  V30 1394 H 130.21 -2.02685 3.18947 0
M  V30 1395 H 130.523 -3.60355 6.8364 0
M  V30 1396 H 128.868 -3.24692 6.14492 0
M  V30 1397 H 132.059 -2.43912 3.9953 0
M  V30 1398 H 132.232 -3.15831 5.65822 0
M  V30 1399 N 125.638 -1.25649 -0.95132 0
M  V30 1400 C 126.915 -1.01361 -1.67288 0
M  V30 1401 C 127.295 0.459135 -2.06046 0
M  V30 1402 O 126.643 1.43723 -1.7764 0
M  V30 1403 C 126.853 -1.95256 -2.89268 0
M  V30 1404 C 128.201 -2.23289 -3.61147 0
M  V30 1405 O 129.225 -1.93041 -2.99355 0
M  V30 1406 O 128.084 -2.74741 -4.72419 0
M  V30 1407 H 125.178 -0.38464 -0.732107 0
M  V30 1408 H 127.724 -1.36817 -1.00395 0
M  V30 1409 H 126.496 -2.94685 -2.57442 0
M  V30 1410 H 126.119 -1.60218 -3.6389 0
M  V30 1411 N 127.117 1.15442 -1.07289 0
M  V30 1412 C 128.047 2.22312 -0.714107 0
M  V30 1413 C 129.028 1.67467 0.298155 0
M  V30 1414 O 130.213 1.93445 0.171048 0
M  V30 1415 C 127.343 3.47124 -0.110448 0
M  V30 1416 C 126.297 4.14926 -1.04979 0
M  V30 1417 C 125.623 5.33807 -0.308924 0
M  V30 1418 C 126.923 4.64762 -2.38314 0
M  V30 1419 H 128.617 2.5258 -1.6076 0
M  V30 1420 H 126.163 1.21404 -0.77441 0
M  V30 1421 H 128.116 4.21124 0.152482 0
M  V30 1422 H 126.84 3.16187 0.81812 0
M  V30 1423 H 125.499 3.42866 -1.29764 0
M  V30 1424 H 125.147 4.99126 0.623084 0
M  V30 1425 H 124.847 5.80113 -0.935036 0
M  V30 1426 H 126.371 6.10576 -0.0537771 0
M  V30 1427 H 127.785 5.30292 -2.1786 0
M  V30 1428 H 126.182 5.21728 -2.96514 0
M  V30 1429 H 127.252 3.80434 -3.00663 0
M  V30 1430 N 128.595 0.856903 1.32268 0
M  V30 1431 C 130.011 0.547061 1.49931 0
M  V30 1432 C 130.211 -0.921781 1.7918 0
M  V30 1433 O 129.267 -1.70469 1.8627 0
M  V30 1434 C 130.58 1.43599 2.64196 0
M  V30 1435 C 132.128 1.43665 2.78081 0
M  V30 1436 C 132.603 2.31085 3.95428 0
M  V30 1437 N 134.094 2.28893 4.02694 0
M  V30 1438 C 134.829 2.93262 4.92732 0
M  V30 1439 N 134.325 3.66751 5.87763 0
M  V30 1440 N 136.118 2.82638 4.85873 0
M  V30 1441 H 128.269 1.8075 1.11549 0
M  V30 1442 H 130.532 0.772144 0.549997 0
M  V30 1443 H 130.238 2.48058 2.49319 0
M  V30 1444 H 130.112 1.12502 3.60032 0
M  V30 1445 H 132.499 0.399701 2.92381 0
M  V30 1446 H 132.58 1.7878 1.82952 0
M  V30 1447 H 132.224 3.34849 3.81888 0
M  V30 1448 H 132.154 1.93302 4.89839 0
M  V30 1449 H 134.645 1.75466 3.34694 0
M  V30 1450 H 134.958 4.13027 6.53168 0
M  V30 1451 H 133.303 3.70859 5.87783 0
M  V30 1452 H 136.494 2.24774 4.10602 0
M  V30 1453 H 136.667 3.33084 5.55841 0
M  V30 1454 N 130.073 -1.45103 0.615059 0
M  V30 1455 C 131.35 -1.95549 0.0448276 0
M  V30 1456 C 131.73 -1.55737 -1.4251 0
M  V30 1457 O 131.078 -0.823556 -2.13143 0
M  V30 1458 C 131.288 -3.48098 0.250785 0
M  V30 1459 C 132.636 -4.24384 0.135509 0
M  V30 1460 O 133.66 -3.55738 0.181299 0
M  V30 1461 O 132.519 -5.46493 0.0268878 0
M  V30 1462 H 129.613 -0.8264 -0.0314845 0
M  V30 1463 H 132.159 -1.55232 0.685642 0
M  V30 1464 H 130.931 -3.7007 1.27139 0
M  V30 1465 H 130.554 -3.95323 -0.424937 0
M  V30 1466 N 131.551 -0.354651 -1.53558 0
M  V30 1467 C 132.798 0.238443 -2.01091 0
M  V30 1468 C 133.126 1.49663 -1.24222 0
M  V30 1469 O 132.381 1.93049 -0.321003 0
M  V30 1470 C 132.68 0.587121 -3.52545 0
M  V30 1471 C 132.346 -0.575472 -4.47213 0
M  V30 1472 C 131.008 -0.894497 -4.72813 0
M  V30 1473 C 133.36 -1.35489 -5.03281 0
M  V30 1474 C 130.688 -1.99511 -5.51736 0
M  V30 1475 C 133.04 -2.44583 -5.83405 0
M  V30 1476 C 131.704 -2.77033 -6.07296 0
M  V30 1477 H 130.974 0.0872526 -0.735845 0
M  V30 1478 H 133.621 -0.484859 -1.8526 0
M  V30 1479 H 131.926 1.39129 -3.66265 0
M  V30 1480 H 133.623 1.05809 -3.86789 0
M  V30 1481 H 130.213 -0.316774 -4.27428 0
M  V30 1482 H 134.397 -1.12167 -4.83459 0
M  V30 1483 H 129.653 -2.25063 -5.68469 0
M  V30 1484 H 133.827 -3.05401 -6.25862 0
M  V30 1485 H 131.454 -3.6244 -6.68237 0
M  V30 1486 N 133.029 1.57378 -0.0835403 0
M  V30 1487 C 134.445 1.57246 0.273109 0
M  V30 1488 C 134.645 1.09385 1.69225 0
M  V30 1489 O 133.701 0.765051 2.40631 0
M  V30 1490 C 135.014 3.00614 0.0720628 0
M  V30 1491 C 136.562 3.12684 0.1407 0
M  V30 1492 C 137.037 4.57989 -0.0322094 0
M  V30 1493 N 138.528 4.63194 0.0230085 0
M  V30 1494 C 139.263 5.73335 -0.0861941 0
M  V30 1495 N 138.759 6.9235 -0.24958 0
M  V30 1496 N 140.552 5.62093 -0.0282886 0
M  V30 1497 H 132.703 1.86801 -1.0109 0
M  V30 1498 H 134.966 0.861687 -0.395222 0
M  V30 1499 H 134.672 3.39786 -0.907662 0
M  V30 1500 H 134.546 3.68193 0.81936 0
M  V30 1501 H 136.933 2.73391 1.11092 0
M  V30 1502 H 137.014 2.47719 -0.637896 0
M  V30 1503 H 136.658 4.97973 -0.999247 0
M  V30 1504 H 136.588 5.21 0.765937 0
M  V30 1505 H 139.079 3.77613 0.14722 0
M  V30 1506 H 139.392 7.72117 -0.324733 0
M  V30 1507 H 137.737 6.94415 -0.285097 0
M  V30 1508 H 140.928 4.67997 0.0981408 0
M  V30 1509 H 141.101 6.47895 -0.116845 0
M  V30 1510 N 134.507 -0.190092 1.56449 0
M  V30 1511 C 135.784 -0.935886 1.71757 0
M  V30 1512 C 136.164 -2.01173 0.639726 0
M  V30 1513 O 135.512 -2.25827 -0.348502 0
M  V30 1514 C 135.722 -1.51775 3.1427 0
M  V30 1515 C 137.07 -1.99794 3.74656 0
M  V30 1516 O 138.094 -1.61607 3.1743 0
M  V30 1517 O 136.953 -2.70079 4.751 0
M  V30 1518 H 134.047 -0.439229 0.700719 0
M  V30 1519 H 136.593 -0.179395 1.68749 0
M  V30 1520 H 135.365 -0.742505 3.84191 0
M  V30 1521 H 134.988 -2.33894 3.21527 0
M  V30 1522 N 135.985 -1.50799 -0.457987 0
M  V30 1523 C 136.915 -1.73553 -1.5621 0
M  V30 1524 C 137.896 -0.584774 -1.59732 0
M  V30 1525 O 139.081 -0.825314 -1.7579 0
M  V30 1526 C 136.211 -1.84169 -2.94447 0
M  V30 1527 C 135.165 -2.99461 -3.0579 0
M  V30 1528 C 134.491 -2.95235 -4.45803 0
M  V30 1529 C 135.791 -4.39766 -2.81786 0
M  V30 1530 H 137.485 -2.66 -1.37421 0
M  V30 1531 H 135.031 -1.28002 -0.659662 0
M  V30 1532 H 136.984 -1.98672 -3.71628 0
M  V30 1533 H 135.708 -0.883545 -3.14422 0
M  V30 1534 H 134.367 -2.8463 -2.31044 0
M  V30 1535 H 134.015 -1.97239 -4.62715 0
M  V30 1536 H 133.715 -3.72642 -4.54326 0
M  V30 1537 H 135.239 -3.11803 -5.24987 0
M  V30 1538 H 136.653 -4.55054 -3.4871 0
M  V30 1539 H 135.05 -5.18722 -3.0174 0
M  V30 1540 H 136.12 -4.51229 -1.7754 0
M  V30 1541 N 137.463 0.71206 -1.40597 0
M  V30 1542 C 138.879 1.02058 -1.22704 0
M  V30 1543 C 139.079 2.01228 -0.104729 0
M  V30 1544 O 138.135 2.4674 0.53624 0
M  V30 1545 C 139.448 1.56094 -2.57012 0
M  V30 1546 C 140.996 1.6806 -2.64054 0
M  V30 1547 C 141.471 2.25501 -3.9864 0
M  V30 1548 N 142.962 2.32882 -4.004 0
M  V30 1549 C 143.697 2.78317 -5.01325 0
M  V30 1550 N 143.193 3.23478 -6.12645 0
M  V30 1551 N 144.986 2.77733 -4.88693 0
M  V30 1552 H 137.137 0.0547896 -2.12329 0
M  V30 1553 H 139.4 0.0869027 -0.944008 0
M  V30 1554 H 139.106 0.906865 -3.39807 0
M  V30 1555 H 138.98 2.54564 -2.78347 0
M  V30 1556 H 141.367 2.32583 -1.81629 0
M  V30 1557 H 141.448 0.681802 -2.46546 0
M  V30 1558 H 141.092 1.61598 -4.81506 0
M  V30 1559 H 141.022 3.26102 -4.13479 0
M  V30 1560 H 143.513 2.00991 -3.20017 0
M  V30 1561 H 143.826 3.56725 -6.85542 0
M  V30 1562 H 142.171 3.21429 -6.16205 0
M  V30 1563 H 145.362 2.4179 -4.00818 0
M  V30 1564 H 145.535 3.12826 -5.67489 0
M  V30 1565 N 138.941 1.26152 0.944643 0
M  V30 1566 C 140.218 1.02247 1.66748 0
M  V30 1567 C 140.598 -0.448202 2.06287 0
M  V30 1568 O 139.946 -1.42779 1.78399 0
M  V30 1569 C 140.156 1.96788 2.88228 0
M  V30 1570 C 141.504 2.25201 3.59958 0
M  V30 1571 O 142.528 1.94626 2.98327 0
M  V30 1572 O 141.387 2.77242 4.70956 0
M  V30 1573 H 138.481 0.388517 0.730057 0
M  V30 1574 H 141.027 1.37348 0.99668 0
M  V30 1575 H 139.799 2.96047 2.55875 0
M  V30 1576 H 139.422 1.62145 3.63035 0
M  V30 1577 N 140.419 -1.14872 1.07899 0
M  V30 1578 C 141.644 -1.90202 0.826926 0
M  V30 1579 C 142.069 -1.77774 -0.614664 0
M  V30 1580 O 141.427 -1.11431 -1.43013 0
M  V30 1581 C 141.475 -3.38352 1.24702 0
M  V30 1582 O 140.579 -4.10497 0.39575 0
M  V30 1583 H 139.92 -0.591968 0.300782 0
M  V30 1584 H 142.45 -1.45437 1.43907 0
M  V30 1585 H 142.46 -3.89156 1.22563 0
M  V30 1586 H 141.135 -3.46715 2.29698 0
M  V30 1587 H 139.712 -3.69796 0.480117 0
M  V30 1588 N 141.898 -0.863906 -1.31812 0
M  V30 1589 C 143.314 -0.555004 -1.49639 0
M  V30 1590 C 143.514 0.912266 -1.79666 0
M  V30 1591 O 142.57 1.69479 -1.87171 0
M  V30 1592 C 143.883 -1.44998 -2.63431 0
M  V30 1593 C 145.431 -1.45138 -2.77316 0
M  V30 1594 C 145.906 -2.33179 -3.94197 0
M  V30 1595 N 147.397 -2.31025 -4.01474 0
M  V30 1596 C 148.132 -2.95871 -4.9117 0
M  V30 1597 N 147.628 -3.69863 -5.8581 0
M  V30 1598 N 149.421 -2.85211 -4.84367 0
M  V30 1599 H 141.572 -1.81339 -1.10589 0
M  V30 1600 H 143.835 -0.77505 -0.545895 0
M  V30 1601 H 143.541 -2.49377 -2.48 0
M  V30 1602 H 143.415 -1.14409 -3.59431 0
M  V30 1603 H 145.802 -0.415201 -2.92164 0
M  V30 1604 H 145.883 -1.79747 -1.82001 0
M  V30 1605 H 145.527 -3.3687 -3.80107 0
M  V30 1606 H 145.457 -1.95897 -4.88807 0
M  V30 1607 H 147.948 -1.77238 -3.33759 0
M  V30 1608 H 148.261 -4.16486 -6.50968 0
M  V30 1609 H 146.606 -3.73971 -5.85808 0
M  V30 1610 H 149.797 -2.26948 -4.09405 0
M  V30 1611 H 149.97 -3.36027 -5.54066 0
M  V30 1612 N 143.376 1.44774 -0.622745 0
M  V30 1613 C 144.653 1.95522 -0.0551974 0
M  V30 1614 C 145.033 1.5649 1.41683 0
M  V30 1615 O 144.381 0.834848 2.12703 0
M  V30 1616 C 144.591 3.4796 -0.269242 0
M  V30 1617 C 145.939 4.24306 -0.158014 0
M  V30 1618 O 146.963 3.55637 -0.200162 0
M  V30 1619 O 145.822 5.46471 -0.0558693 0
M  V30 1620 H 142.916 0.826556 0.0271015 0
M  V30 1621 H 145.462 1.54866 -0.693864 0
M  V30 1622 H 144.234 3.6939 -1.29099 0
M  V30 1623 H 143.857 3.95543 0.403966 0
M  V30 1624 N 144.854 0.36279 1.53368 0
M  V30 1625 C 146.101 -0.227776 2.01215 0
M  V30 1626 C 146.429 -1.49003 1.25014 0
M  V30 1627 O 145.684 -1.92876 0.331236 0
M  V30 1628 C 145.983 -0.568417 3.52851 0
M  V30 1629 C 145.649 0.59918 4.46901 0
M  V30 1630 C 144.311 0.919559 4.72332 0
M  V30 1631 C 146.663 1.38156 5.02556 0
M  V30 1632 C 143.991 2.02434 5.5067 0
M  V30 1633 C 146.343 2.47674 5.821 0
M  V30 1634 C 145.007 2.8025 6.05819 0
M  V30 1635 H 144.277 -0.083349 0.736297 0
M  V30 1636 H 146.924 0.494677 1.85001 0
M  V30 1637 H 145.229 -1.37185 3.66998 0
M  V30 1638 H 146.926 -1.03756 3.87344 0
M  V30 1639 H 143.516 0.339437 4.27254 0
M  V30 1640 H 147.7 1.14729 4.82857 0
M  V30 1641 H 142.956 2.28075 5.67267 0
M  V30 1642 H 147.13 3.08716 6.24234 0
M  V30 1643 H 144.757 3.65979 6.66306 0
M  V30 1644 N 146.332 -1.57332 0.0918853 0
M  V30 1645 C 147.748 -1.57389 -0.264766 0
M  V30 1646 C 147.948 -1.10281 -1.68643 0
M  V30 1647 O 147.004 -0.777801 -2.40222 0
M  V30 1648 C 148.317 -3.00648 -0.0561195 0
M  V30 1649 C 149.865 -3.12754 -0.124116 0
M  V30 1650 C 150.34 -4.57965 0.0564972 0
M  V30 1651 N 151.831 -4.632 0.00155611 0
M  V30 1652 C 152.566 -5.73281 0.116598 0
M  V30 1653 N 152.062 -6.92208 0.286294 0
M  V30 1654 N 153.855 -5.6207 0.0580973 0
M  V30 1655 H 146.006 -1.86262 1.02079 0
M  V30 1656 H 148.269 -0.859579 0.399786 0
M  V30 1657 H 147.975 -3.393 0.925669 0
M  V30 1658 H 147.849 -3.68623 -0.799823 0
M  V30 1659 H 150.236 -2.73976 -1.09641 0
M  V30 1660 H 150.317 -2.47377 0.651024 0
M  V30 1661 H 149.961 -4.97436 1.02564 0
M  V30 1662 H 149.891 -5.21399 -0.738297 0
M  V30 1663 H 152.382 -3.77686 -0.127192 0
M  V30 1664 H 152.695 -7.71934 0.365676 0
M  V30 1665 H 151.04 -6.94254 0.32192 0
M  V30 1666 H 154.231 -4.68043 -0.0733204 0
M  V30 1667 H 154.404 -6.47824 0.151203 0
M  V30 1668 N 147.81 0.181792 -1.56548 0
M  V30 1669 C 149.087 0.926765 -1.72251 0
M  V30 1670 C 149.467 2.00831 -0.650386 0
M  V30 1671 O 148.815 2.26008 0.336521 0
M  V30 1672 C 149.025 1.50106 -3.1507 0
M  V30 1673 C 150.373 1.97805 -3.75711 0
M  V30 1674 O 151.397 1.59922 -3.18282 0
M  V30 1675 O 150.256 2.67555 -4.76525 0
M  V30 1676 H 147.35 0.435506 -0.703039 0
M  V30 1677 H 149.896 0.170443 -1.68842 0
M  V30 1678 H 148.668 0.72212 -3.84579 0
M  V30 1679 H 148.291 2.32186 -3.22763 0
M  V30 1680 N 149.288 1.51039 0.449983 0
M  V30 1681 C 150.22 1.67617 1.56324 0
M  V30 1682 C 151.233 0.557083 1.52972 0
M  V30 1683 O 152.422 0.830989 1.57977 0
M  V30 1684 C 149.522 1.66402 2.95235 0
M  V30 1685 C 148.695 2.9469 3.23229 0
M  V30 1686 C 147.754 2.85832 4.41799 0
M  V30 1687 O 146.78 3.59785 4.41071 0
M  V30 1688 N 147.982 2.00821 5.44657 0
M  V30 1689 H 150.747 2.63648 1.42512 0
M  V30 1690 H 148.308 1.48767 0.638737 0
M  V30 1691 H 150.3 1.58062 3.72557 0
M  V30 1692 H 148.87 0.780182 3.02708 0
M  V30 1693 H 148.09 3.16996 2.34323 0
M  V30 1694 H 149.378 3.79636 3.38754 0
M  V30 1695 H 148.776 1.40091 5.48079 0
M  V30 1696 H 147.333 1.98368 6.20881 0
M  V30 1697 N 150.766 -0.704594 1.40972 0
M  V30 1698 C 152.182 -1.01406 1.23244 0
M  V30 1699 C 152.382 -2.01169 0.115399 0
M  V30 1700 O 151.438 -2.47021 -0.523147 0
M  V30 1701 C 152.751 -1.54728 2.57836 0
M  V30 1702 C 154.299 -1.66658 2.64942 0
M  V30 1703 C 154.774 -2.23383 3.9983 0
M  V30 1704 N 156.265 -2.30756 4.01629 0
M  V30 1705 C 157 -2.75655 5.02794 0
M  V30 1706 N 156.496 -3.20225 6.14352 0
M  V30 1707 N 158.289 -2.75138 4.90159 0
M  V30 1708 H 150.44 -0.0435285 2.12355 0
M  V30 1709 H 152.703 -0.0818951 0.944456 0
M  V30 1710 H 152.409 -0.888832 3.40283 0
M  V30 1711 H 152.283 -2.53084 2.79693 0
M  V30 1712 H 154.67 -2.31617 1.8286 0
M  V30 1713 H 154.751 -0.668717 2.46904 0
M  V30 1714 H 154.395 -1.59043 4.82357 0
M  V30 1715 H 154.325 -3.23904 4.15203 0
M  V30 1716 H 156.816 -1.99291 3.21079 0
M  V30 1717 H 157.129 -3.53084 6.87424 0
M  V30 1718 H 155.474 -3.18156 6.17901 0
M  V30 1719 H 158.665 -2.39661 4.02095 0
M  V30 1720 H 158.838 -3.09812 5.6914 0
M  V30 1721 N 152.244 -1.26651 -0.937939 0
M  V30 1722 C 153.521 -1.0313 -1.66204 0
M  V30 1723 C 153.901 0.437256 -2.06522 0
M  V30 1724 O 153.249 1.41831 -1.79154 0
M  V30 1725 C 153.459 -1.98314 -2.87181 0
M  V30 1726 C 154.807 -2.27107 -3.58758 0
M  V30 1727 O 155.831 -1.96205 -2.97291 0
M  V30 1728 O 154.69 -2.79736 -4.69479 0
M  V30 1729 H 151.784 -0.392384 -0.727986 0
M  V30 1730 H 154.33 -1.37874 -0.989382 0
M  V30 1731 H 153.102 -2.97399 -2.54302 0
M  V30 1732 H 152.725 -1.64068 -3.6217 0
M  V30 1733 N 153.722 1.14298 -1.08507 0
M  V30 1734 C 155.133 1.66926 -0.836227 0
M  V30 1735 C 155.484 1.85576 0.63686 0
M  V30 1736 O 154.609 1.56767 1.49175 0
M  V30 1737 C 155.204 3.03219 -1.51142 0
M  V30 1738 C 153.763 3.52876 -1.30979 0
M  V30 1739 C 152.91 2.2833 -1.57356 0
M  V30 1740 H 155.861 0.983491 -1.24552 0
M  V30 1741 H 155.882 3.68726 -0.939211 0
M  V30 1742 H 155.394 2.89612 -2.58353 0
M  V30 1743 H 153.495 3.71703 -0.258429 0
M  V30 1744 H 153.608 4.33586 -2.03814 0
M  V30 1745 H 151.972 2.34454 -0.995164 0
M  V30 1746 H 152.755 2.17298 -2.65775 0
M  V30 1747 N 155.201 0.870884 1.31352 0
M  V30 1748 C 156.134 0.271983 2.26573 0
M  V30 1749 C 157.112 -0.599385 1.51149 0
M  V30 1750 O 158.296 -0.552605 1.80218 0
M  V30 1751 C 155.423 -0.614801 3.33073 0
M  V30 1752 C 154.469 0.185342 4.26097 0
M  V30 1753 S 155.302 1.56444 5.12138 0
M  V30 1754 C 156.458 0.683807 6.22153 0
M  V30 1755 H 156.691 1.07916 2.77023 0
M  V30 1756 H 154.224 0.669459 1.39132 0
M  V30 1757 H 156.182 -1.12074 3.94905 0
M  V30 1758 H 154.843 -1.39593 2.81376 0
M  V30 1759 H 154.036 -0.490771 5.01605 0
M  V30 1760 H 153.638 0.623415 3.68768 0
M  V30 1761 H 155.93 -0.10521 6.77418 0
M  V30 1762 H 156.873 1.41004 6.93919 0
M  V30 1763 H 157.281 0.250952 5.63942 0
M  V30 1764 N 156.679 -1.44442 0.630414 0
M  V30 1765 C 157.909 -2.06115 0.141465 0
M  V30 1766 C 158.317 -1.47179 -1.1889 0
M  V30 1767 O 157.66 -0.588873 -1.74006 0
M  V30 1768 C 157.722 -3.59467 -0.0484355 0
M  V30 1769 C 157.386 -4.40864 1.20366 0
M  V30 1770 C 158.383 -4.74391 2.12719 0
M  V30 1771 C 156.068 -4.8125 1.43887 0
M  V30 1772 C 158.062 -5.47186 3.26904 0
M  V30 1773 C 155.749 -5.53795 2.5837 0
M  V30 1774 C 156.747 -5.86682 3.49705 0
M  V30 1775 O 156.435 -6.57749 4.62191 0
M  V30 1776 H 156.167 -0.671648 0.0765792 0
M  V30 1777 H 158.721 -1.86312 0.864695 0
M  V30 1778 H 156.951 -3.77758 -0.826803 0
M  V30 1779 H 158.64 -4.02909 -0.491849 0
M  V30 1780 H 159.406 -4.43728 1.95781 0
M  V30 1781 H 155.285 -4.55073 0.736853 0
M  V30 1782 H 158.829 -5.72773 3.98217 0
M  V30 1783 H 154.726 -5.83872 2.75251 0
M  V30 1784 H 155.494 -6.76217 4.61164 0
M  V30 1785 N 158.157 -0.370918 -1.53173 0
M  V30 1786 C 159.434 0.273754 -1.93675 0
M  V30 1787 C 159.814 1.65938 -1.3049 0
M  V30 1788 O 159.162 2.23698 -0.465999 0
M  V30 1789 C 159.372 0.318602 -3.47543 0
M  V30 1790 C 160.72 0.556392 -4.20939 0
M  V30 1791 O 161.744 0.399587 -3.53952 0
M  V30 1792 O 160.603 0.862133 -5.39657 0
M  V30 1793 H 157.697 0.165448 -0.810281 0
M  V30 1794 H 160.243 -0.42409 -1.64315 0
M  V30 1795 H 159.015 -0.652687 -3.85818 0
M  V30 1796 H 158.638 1.06212 -3.83151 0
M  V30 1797 N 159.635 1.57281 -0.100228 0
M  V30 1798 C 161.051 1.57527 0.256416 0
M  V30 1799 C 161.251 1.11173 1.68056 0
M  V30 1800 O 160.307 0.79053 2.39806 0
M  V30 1801 C 161.62 3.00673 0.0401747 0
M  V30 1802 C 163.168 3.12815 0.107528 0
M  V30 1803 C 163.643 4.57929 -0.0807834 0
M  V30 1804 N 165.134 4.63193 -0.0261207 0
M  V30 1805 C 165.869 5.73212 -0.146999 0
M  V30 1806 N 165.365 6.92047 -0.322999 0
M  V30 1807 N 167.158 5.62031 -0.0879044 0
M  V30 1808 H 159.309 1.85718 -1.03065 0
M  V30 1809 H 161.572 0.857446 -0.404339 0
M  V30 1810 H 161.278 3.38804 -0.943649 0
M  V30 1811 H 161.152 3.69042 0.780262 0
M  V30 1812 H 163.539 2.74554 1.08186 0
M  V30 1813 H 163.62 2.47028 -0.664134 0
M  V30 1814 H 163.264 4.96886 -1.05201 0
M  V30 1815 H 163.194 5.21783 0.710635 0
M  V30 1816 H 165.685 3.77748 0.107161 0
M  V30 1817 H 165.998 7.7173 -0.406608 0
M  V30 1818 H 164.343 6.94074 -0.358733 0
M  V30 1819 H 167.534 4.68075 0.048498 0
M  V30 1820 H 167.707 6.47734 -0.185557 0
M  V30 1821 N 161.113 -0.173488 1.56642 0
M  V30 1822 C 162.343 -0.904781 1.85734 0
M  V30 1823 C 162.751 -1.76431 0.68328 0
M  V30 1824 O 162.094 -1.802 -0.356865 0
M  V30 1825 C 162.156 -1.83382 3.09211 0
M  V30 1826 C 161.82 -1.15411 4.42187 0
M  V30 1827 C 162.817 -0.520609 5.17287 0
M  V30 1828 C 160.502 -1.15151 4.88923 0
M  V30 1829 C 162.496 0.106412 6.37311 0
M  V30 1830 C 160.183 -0.520664 6.08878 0
M  V30 1831 C 161.181 0.107196 6.82916 0
M  V30 1832 O 160.869 0.728102 8.00596 0
M  V30 1833 H 160.601 -0.268408 0.62043 0
M  V30 1834 H 163.155 -0.179096 2.04618 0
M  V30 1835 H 161.385 -2.59976 2.86268 0
M  V30 1836 H 163.074 -2.43476 3.24768 0
M  V30 1837 H 163.84 -0.514606 4.82262 0
M  V30 1838 H 159.719 -1.62961 4.31236 0
M  V30 1839 H 163.263 0.597081 6.9504 0
M  V30 1840 H 159.16 -0.524242 6.43368 0
M  V30 1841 H 159.928 0.627138 8.16094 0
M  V30 1842 N 162.591 -1.51276 -0.441967 0
M  V30 1843 C 164.007 -1.39349 -0.778083 0
M  V30 1844 C 164.207 -0.472212 -1.95889 0
M  V30 1845 O 163.263 0.0743551 -2.5239 0
M  V30 1846 C 164.576 -2.81292 -1.0628 0
M  V30 1847 C 166.124 -2.9041 -1.16751 0
M  V30 1848 C 166.599 -4.33251 -1.48519 0
M  V30 1849 N 168.09 -4.36336 -1.55453 0
M  V30 1850 C 168.825 -5.43885 -1.81596 0
M  V30 1851 N 168.321 -6.61601 -2.05562 0
M  V30 1852 N 170.114 -5.3136 -1.8334 0
M  V30 1853 H 162.265 -2.09729 0.335774 0
M  V30 1854 H 164.528 -0.943925 0.0878028 0
M  V30 1855 H 164.234 -3.50678 -0.267905 0
M  V30 1856 H 164.108 -3.20334 -1.99163 0
M  V30 1857 H 166.495 -2.21225 -1.95304 0
M  V30 1858 H 166.576 -2.54871 -0.217801 0
M  V30 1859 H 166.22 -5.02984 -0.704958 0
M  V30 1860 H 166.15 -4.66299 -2.44689 0
M  V30 1861 H 168.641 -3.51466 -1.38853 0
M  V30 1862 H 168.954 -7.39361 -2.24867 0
M  V30 1863 H 167.299 -6.64725 -2.02894 0
M  V30 1864 H 170.49 -4.38382 -1.64132 0
M  V30 1865 H 170.663 -6.15258 -2.03377 0
M  V30 1866 N 164.069 0.697108 -1.41344 0
M  V30 1867 C 165.346 1.45154 -1.31109 0
M  V30 1868 C 165.726 2.11009 0.0620449 0
M  V30 1869 O 165.074 2.01571 1.07618 0
M  V30 1870 C 165.284 2.47223 -2.46337 0
M  V30 1871 C 166.632 3.1252 -2.87431 0
M  V30 1872 O 167.656 2.57547 -2.46065 0
M  V30 1873 O 166.515 4.12083 -3.58957 0
M  V30 1874 H 163.609 0.646365 -0.515889 0
M  V30 1875 H 166.155 0.727716 -1.53305 0
M  V30 1876 H 164.927 1.97204 -3.37974 0
M  V30 1877 H 164.55 3.27116 -2.2601 0
M  V30 1878 N 165.547 1.27147 0.931209 0
M  V30 1879 C 166.48 1.0389 2.0318 0
M  V30 1880 C 167.458 -0.0395716 1.62552 0
M  V30 1881 O 168.642 0.104867 1.88208 0
M  V30 1882 C 165.769 0.575227 3.3378 0
M  V30 1883 C 164.815 1.64774 3.93385 0
M  V30 1884 S 165.648 3.23933 4.26413 0
M  V30 1885 C 166.804 2.79358 5.60098 0
M  V30 1886 H 167.037 1.97075 2.22596 0
M  V30 1887 H 164.57 1.10938 1.07387 0
M  V30 1888 H 166.528 0.314385 4.09294 0
M  V30 1889 H 165.189 -0.336505 3.12292 0
M  V30 1890 H 164.382 1.27454 4.87618 0
M  V30 1891 H 163.984 1.86048 3.24441 0
M  V30 1892 H 166.276 2.24443 6.39243 0
M  V30 1893 H 167.219 3.72322 6.02314 0
M  V30 1894 H 167.627 2.1861 5.20452 0
M  V30 1895 N 167.025 -1.13721 1.09112 0
M  V30 1896 C 168.441 -1.36914 0.820174 0
M  V30 1897 C 168.641 -1.93356 -0.567079 0
M  V30 1898 O 167.697 -2.15093 -1.32255 0
M  V30 1899 C 169.01 -2.3235 1.90877 0
M  V30 1900 C 170.558 -2.45973 1.93562 0
M  V30 1901 C 171.033 -3.44714 3.01556 0
M  V30 1902 N 172.524 -3.52263 3.00775 0
M  V30 1903 C 173.259 -4.28536 3.80978 0
M  V30 1904 N 172.755 -5.07991 4.71081 0
M  V30 1905 N 174.548 -4.23804 3.69251 0
M  V30 1906 H 166.699 -0.754348 1.98553 0
M  V30 1907 H 168.962 -0.3944 0.862063 0
M  V30 1908 H 168.668 -1.98027 2.90651 0
M  V30 1909 H 168.542 -3.32332 1.78424 0
M  V30 1910 H 170.929 -2.79584 0.944286 0
M  V30 1911 H 171.01 -1.45926 2.10093 0
M  V30 1912 H 170.654 -3.11835 4.00901 0
M  V30 1913 H 170.584 -4.44558 2.82269 0
M  V30 1914 H 173.075 -2.95567 2.35475 0
M  V30 1915 H 173.388 -5.63487 5.28869 0
M  V30 1916 H 171.733 -5.07235 4.75119 0
M  V30 1917 H 174.924 -3.60806 2.98222 0
M  V30 1918 H 175.097 -4.82995 4.31995 0
M  V30 1919 N 168.503 -0.877838 -1.30888 0
M  V30 1920 C 169.78 -0.413052 -1.91189 0
M  V30 1921 C 170.16 1.1056 -1.79832 0
M  V30 1922 O 169.508 1.93771 -1.21099 0
M  V30 1923 C 169.718 -0.903191 -3.3711 0
M  V30 1924 C 171.066 -0.93395 -4.14201 0
M  V30 1925 O 172.09 -0.849373 -3.45925 0
M  V30 1926 O 170.949 -1.05772 -5.36167 0
M  V30 1927 H 168.043 -0.125035 -0.817493 0
M  V30 1928 H 170.589 -0.966269 -1.39504 0
M  V30 1929 H 169.361 -1.94692 -3.39427 0
M  V30 1930 H 168.984 -0.328732 -3.96239 0
M  V30 1931 N 169.982 1.44106 -0.638065 0
M  V30 1932 C 171.207 2.0685 -0.150916 0
M  V30 1933 C 171.632 1.47417 1.16833 0
M  V30 1934 O 170.99 0.578264 1.71831 0
M  V30 1935 C 171.038 3.60555 -0.05708 0
M  V30 1936 O 170.142 4.00465 0.984972 0
M  V30 1937 H 169.483 0.658151 -0.0879399 0
M  V30 1938 H 172.013 1.84865 -0.876707 0
M  V30 1939 H 172.023 4.07789 0.131232 0
M  V30 1940 H 170.698 4.03193 -1.02021 0
M  V30 1941 H 169.275 3.64849 0.770672 0
M  V30 1942 N 171.46 0.379036 1.52974 0
M  V30 1943 C 172.876 0.0285448 1.59574 0
M  V30 1944 C 173.076 -1.45542 1.39355 0
M  V30 1945 O 172.132 -2.2187 1.20541 0
M  V30 1946 C 173.445 0.496535 2.96572 0
M  V30 1947 C 174.993 0.451909 3.0972 0
M  V30 1948 C 175.468 0.895924 4.49152 0
M  V30 1949 N 176.959 0.851522 4.55306 0
M  V30 1950 C 177.694 1.16661 5.61407 0
M  V30 1951 N 177.19 1.55166 6.752 0
M  V30 1952 N 178.983 1.08853 5.51459 0
M  V30 1953 H 171.134 1.34525 1.64367 0
M  V30 1954 H 173.397 0.550733 0.771619 0
M  V30 1955 H 173.103 1.53258 3.16552 0
M  V30 1956 H 172.977 -0.109802 3.7704 0
M  V30 1957 H 175.364 -0.575029 2.89443 0
M  V30 1958 H 175.445 1.09392 2.3123 0
M  V30 1959 H 175.089 1.92104 4.70168 0
M  V30 1960 H 175.019 0.23103 5.26093 0
M  V30 1961 H 177.51 0.568038 3.73606 0
M  V30 1962 H 177.823 1.776 7.52116 0
M  V30 1963 H 176.168 1.59044 6.76557 0
M  V30 1964 H 179.359 0.786803 4.6144 0
M  V30 1965 H 179.532 1.33742 6.34048 0
M  V30 1966 N 172.938 -1.57226 0.108567 0
M  V30 1967 C 174.215 -1.86333 -0.594939 0
M  V30 1968 C 174.595 -1.00788 -1.85486 0
M  V30 1969 O 173.943 -0.0839293 -2.28346 0
M  V30 1970 C 174.153 -3.37265 -0.897405 0
M  V30 1971 C 175.501 -4.05629 -1.25501 0
M  V30 1972 O 176.525 -3.42224 -0.987998 0
M  V30 1973 O 175.384 -5.17531 -1.75567 0
M  V30 1974 H 172.478 -0.771018 -0.2991 0
M  V30 1975 H 175.024 -1.69102 0.142283 0
M  V30 1976 H 173.796 -3.913 -0.00413806 0
M  V30 1977 H 173.419 -3.59889 -1.69014 0
M  V30 1978 N 174.416 0.165178 -1.56732 0
M  V30 1979 C 175.827 0.727046 -1.71962 0
M  V30 1980 C 176.178 1.82508 -0.720078 0
M  V30 1981 O 175.303 2.16082 0.117242 0
M  V30 1982 C 175.898 1.32559 -3.11791 0
M  V30 1983 C 174.457 1.83422 -3.28684 0
M  V30 1984 C 173.604 0.715567 -2.67908 0
M  V30 1985 H 176.555 -0.0602896 -1.58585 0
M  V30 1986 H 176.576 2.19533 -3.10782 0
M  V30 1987 H 176.088 0.526195 -3.84516 0
M  V30 1988 H 174.189 2.65986 -2.60926 0
M  V30 1989 H 174.302 1.97543 -4.36478 0
M  V30 1990 H 172.666 1.13758 -2.27884 0
M  V30 1991 H 173.449 -0.0720836 -3.43224 0
M  V30 1992 N 175.894 1.51508 0.433938 0
M  V30 1993 C 176.827 1.67756 1.54704 0
M  V30 1994 C 177.805 0.525127 1.53887 0
M  V30 1995 O 178.989 0.749393 1.72963 0
M  V30 1996 C 176.116 1.69424 2.9328 0
M  V30 1997 C 175.162 2.90673 3.12108 0
M  V30 1998 S 175.995 4.51431 2.88046 0
M  V30 1999 C 177.151 4.55849 4.28897 0
M  V30 2000 H 177.384 2.61904 1.40689 0
M  V30 2001 H 174.917 1.41235 0.62386 0
M  V30 2002 H 176.875 1.7107 3.73156 0
M  V30 2003 H 175.536 0.764464 3.04655 0
M  V30 2004 H 174.729 2.88251 4.13434 0
M  V30 2005 H 174.331 2.86786 2.40062 0
M  V30 2006 H 176.623 4.31699 5.22152 0
M  V30 2007 H 177.566 5.57676 4.36351 0
M  V30 2008 H 177.974 3.85137 4.12711 0
M  V30 2009 N 177.372 -0.689602 1.41712 0
M  V30 2010 C 178.602 -1.47613 1.44548 0
M  V30 2011 C 179.01 -1.89132 0.0509034 0
M  V30 2012 O 178.353 -1.57741 -0.94146 0
M  V30 2013 C 178.415 -2.76596 2.2964 0
M  V30 2014 C 178.079 -2.57245 3.77722 0
M  V30 2015 C 179.076 -2.22804 4.69739 0
M  V30 2016 C 176.761 -2.727 4.2183 0
M  V30 2017 C 178.755 -2.04064 6.03851 0
M  V30 2018 C 176.442 -2.53576 5.56006 0
M  V30 2019 C 177.44 -2.1931 6.46832 0
M  V30 2020 O 177.128 -2.00359 7.78532 0
M  V30 2021 H 176.86 -0.461227 0.494212 0
M  V30 2022 H 179.414 -0.856045 1.86711 0
M  V30 2023 H 177.644 -3.41033 1.82301 0
M  V30 2024 H 179.333 -3.38424 2.24107 0
M  V30 2025 H 180.099 -2.10473 4.36951 0
M  V30 2026 H 175.978 -2.98353 3.51435 0
M  V30 2027 H 179.522 -1.77241 6.74708 0
M  V30 2028 H 175.419 -2.65499 5.88371 0
M  V30 2029 H 176.187 -2.15075 7.89737 0
M  V30 2030 N 178.85 -1.27639 -0.924453 0
M  V30 2031 C 180.266 -1.05113 -1.20097 0
M  V30 2032 C 180.466 0.213262 -2.00368 0
M  V30 2033 O 179.522 0.91787 -2.35226 0
M  V30 2034 C 180.835 -2.29244 -1.94596 0
M  V30 2035 C 182.383 -2.34315 -2.07522 0
M  V30 2036 C 182.858 -3.58183 -2.85427 0
M  V30 2037 N 184.349 -3.5876 -2.92994 0
M  V30 2038 C 185.084 -4.51277 -3.53746 0
M  V30 2039 N 184.58 -5.54102 -4.15863 0
M  V30 2040 N 186.373 -4.38894 -3.51181 0
M  V30 2041 H 178.524 -2.08821 -0.388264 0
M  V30 2042 H 180.787 -0.918568 -0.234385 0
M  V30 2043 H 180.493 -3.21301 -1.43034 0
M  V30 2044 H 180.367 -2.34816 -2.95197 0
M  V30 2045 H 182.754 -1.42762 -2.58269 0
M  V30 2046 H 182.835 -2.32744 -1.06131 0
M  V30 2047 H 182.479 -4.50074 -2.35363 0
M  V30 2048 H 182.409 -3.57006 -3.8711 0
M  V30 2049 H 184.9 -2.84398 -2.4885 0
M  V30 2050 H 185.213 -6.20859 -4.60168 0
M  V30 2051 H 183.558 -5.57941 -4.144 0
M  V30 2052 H 186.749 -3.57772 -3.01856 0
M  V30 2053 H 186.922 -5.11186 -3.98237 0
M  V30 2054 N 180.328 1.1314 -1.09713 0
M  V30 2055 C 181.744 1.36477 -0.827423 0
M  V30 2056 C 181.944 1.93654 0.556817 0
M  V30 2057 O 181 2.15791 1.31112 0
M  V30 2058 C 182.313 2.31334 -1.92106 0
M  V30 2059 C 183.861 2.44943 -1.94864 0
M  V30 2060 C 184.336 3.4311 -3.0338 0
M  V30 2061 N 185.827 3.50662 -3.02639 0
M  V30 2062 C 186.562 4.2651 -3.83246 0
M  V30 2063 N 186.058 5.05485 -4.73768 0
M  V30 2064 N 187.851 4.2184 -3.71493 0
M  V30 2065 H 180.002 0.743807 -1.9895 0
M  V30 2066 H 182.265 0.389823 -0.864143 0
M  V30 2067 H 181.971 1.96483 -2.91698 0
M  V30 2068 H 181.845 3.31381 -1.80184 0
M  V30 2069 H 184.232 2.79079 -0.959099 0
M  V30 2070 H 184.313 1.4481 -2.10864 0
M  V30 2071 H 183.957 3.09704 -4.02549 0
M  V30 2072 H 183.887 4.43055 -2.84622 0
M  V30 2073 H 186.378 2.94315 -2.37039 0
M  V30 2074 H 186.691 5.60675 -5.3185 0
M  V30 2075 H 185.036 5.04708 -4.77802 0
M  V30 2076 H 188.227 3.5922 -3.00131 0
M  V30 2077 H 188.4 4.80697 -4.3455 0
M  V30 2078 N 181.806 0.884767 1.30421 0
M  V30 2079 C 182.716 0.355398 2.31892 0
M  V30 2080 C 183.732 -0.542261 1.65335 0
M  V30 2081 O 184.908 -0.435432 1.96637 0
M  V30 2082 C 181.973 -0.421661 3.44126 0
M  V30 2083 C 181.034 0.505727 4.26311 0
M  V30 2084 C 180.267 -0.234343 5.33185 0
M  V30 2085 O 180.49 -1.46045 5.51386 0
M  V30 2086 O 179.424 0.415443 6.00465 0
M  V30 2087 H 183.25 1.19685 2.79122 0
M  V30 2088 H 180.835 0.648596 1.34587 0
M  V30 2089 H 182.717 -0.861641 4.12497 0
M  V30 2090 H 181.392 -1.23942 2.99032 0
M  V30 2091 H 180.299 0.994513 3.60639 0
M  V30 2092 H 181.632 1.28948 4.75009 0
M  V30 2093 N 183.284 -1.43765 0.645699 0
M  V30 2094 C 184.532 -2.01499 0.155731 0
M  V30 2095 C 184.853 -1.51151 -1.232 0
M  V30 2096 O 184.123 -0.721044 -1.82148 0
M  V30 2097 H 182.703 -0.745003 0.0545817 0
M  V30 2098 H 185.365 -1.76075 0.835677 0
M  V30 2099 H 184.461 -3.1181 0.134577 0
M  V30 2100 N 184.763 -0.387143 -1.52771 0
M  V30 2101 C 185.988 0.198407 -2.06449 0
M  V30 2102 C 186.413 1.39918 -1.25716 0
M  V30 2103 O 185.771 1.79099 -0.281657 0
M  V30 2104 C 185.819 0.548893 -3.56398 0
M  V30 2105 O 184.923 1.64315 -3.78252 0
M  V30 2106 H 184.264 0.0237731 -0.663574 0
M  V30 2107 H 186.794 -0.553989 -1.96957 0
M  V30 2108 H 186.804 0.813812 -3.99801 0
M  V30 2109 H 185.479 -0.329005 -4.14597 0
M  V30 2110 H 184.056 1.37211 -3.46738 0
M  V30 2111 N 186.241 1.57166 -0.116904 0
M  V30 2112 C 187.471 1.99184 0.548586 0
M  V30 2113 C 187.879 0.995436 1.60897 0
M  V30 2114 O 187.222 -0.0201293 1.83689 0
M  V30 2115 C 187.284 3.37611 1.23526 0
M  V30 2116 C 186.948 4.55857 0.323077 0
M  V30 2117 C 187.945 5.18056 -0.437476 0
M  V30 2118 C 185.63 5.01751 0.234761 0
M  V30 2119 C 187.624 6.24536 -1.2741 0
M  V30 2120 C 185.311 6.08093 -0.605496 0
M  V30 2121 C 186.309 6.69352 -1.35856 0
M  V30 2122 O 185.997 7.7364 -2.18487 0
M  V30 2123 H 185.729 0.659148 0.149999 0
M  V30 2124 H 188.283 2.0443 -0.199428 0
M  V30 2125 H 186.513 3.29113 2.0303 0
M  V30 2126 H 188.202 3.63932 1.79745 0
M  V30 2127 H 188.968 4.83516 -0.379105 0
M  V30 2128 H 184.847 4.53817 0.810601 0
M  V30 2129 H 188.391 6.72281 -1.86237 0
M  V30 2130 H 184.288 6.42063 -0.665268 0
M  V30 2131 H 185.056 7.90727 -2.11406 0
M  V30 2132 N 187.719 -0.156864 1.56817 0
M  V30 2133 C 188.996 -0.899244 1.73704 0
M  V30 2134 C 189.376 -1.99771 0.682254 0
M  V30 2135 O 188.724 -2.26515 -0.300522 0
M  V30 2136 C 188.934 -1.45075 3.17418 0
M  V30 2137 C 190.282 -1.91802 3.7881 0
M  V30 2138 O 191.306 -1.54838 3.20786 0
M  V30 2139 O 190.165 -2.5994 4.80722 0
M  V30 2140 H 187.259 -0.424267 0.709878 0
M  V30 2141 H 189.805 -0.143561 1.69092 0
M  V30 2142 H 188.577 -0.660846 3.85679 0
M  V30 2143 H 188.2 -2.27021 3.26416 0
M  V30 2144 N 189.197 -1.51736 -0.425897 0
M  V30 2145 C 190.613 -1.40166 -0.76326 0
M  V30 2146 C 190.813 -0.492962 -1.95377 0
M  V30 2147 O 189.869 0.0475815 -2.52455 0
M  V30 2148 C 191.182 -2.82403 -1.03291 0
M  V30 2149 C 192.73 -2.91632 -1.13665 0
M  V30 2150 C 193.205 -4.34801 -1.43916 0
M  V30 2151 N 194.696 -4.3796 -1.50816 0
M  V30 2152 C 195.431 -5.4578 -1.75817 0
M  V30 2153 N 194.927 -6.63744 -1.98534 0
M  V30 2154 N 196.72 -5.33274 -1.77694 0
M  V30 2155 H 188.871 -2.09361 0.358 0
M  V30 2156 H 191.134 -0.942941 0.0978094 0
M  V30 2157 H 190.84 -3.50943 -0.230696 0
M  V30 2158 H 190.714 -3.22428 -1.95754 0
M  V30 2159 H 193.101 -2.23284 -1.92947 0
M  V30 2160 H 193.182 -2.55088 -0.190756 0
M  V30 2161 H 192.826 -5.03703 -0.65157 0
M  V30 2162 H 192.756 -4.68868 -2.39729 0
M  V30 2163 H 195.247 -3.52919 -1.35118 0
M  V30 2164 H 195.56 -7.41704 -2.17013 0
M  V30 2165 H 193.905 -6.66839 -1.95832 0
M  V30 2166 H 197.096 -4.40098 -1.59473 0
M  V30 2167 H 197.269 -6.1738 -1.9684 0
M  V30 2168 N 190.675 0.682077 -1.42076 0
M  V30 2169 C 191.905 1.46844 -1.45329 0
M  V30 2170 C 192.313 1.89102 -0.0609328 0
M  V30 2171 O 191.656 1.58238 0.933082 0
M  V30 2172 C 191.718 2.75375 -2.31104 0
M  V30 2173 C 191.382 2.55238 -3.79081 0
M  V30 2174 C 192.379 2.20309 -4.70914 0
M  V30 2175 C 190.064 2.70459 -4.2327 0
M  V30 2176 C 192.058 2.00859 -6.04925 0
M  V30 2177 C 189.745 2.50624 -5.57343 0
M  V30 2178 C 190.743 2.15876 -6.47986 0
M  V30 2179 O 190.431 1.96227 -7.79583 0
M  V30 2180 H 190.163 0.4586 -0.496651 0
M  V30 2181 H 192.717 0.846131 -1.87162 0
M  V30 2182 H 190.947 3.40061 -1.84107 0
M  V30 2183 H 192.636 3.37231 -2.25898 0
M  V30 2184 H 193.402 2.08153 -4.38061 0
M  V30 2185 H 189.281 2.96485 -3.53012 0
M  V30 2186 H 192.825 1.7366 -6.75639 0
M  V30 2187 H 188.722 2.62375 -5.89771 0
M  V30 2188 H 189.49 2.10883 -7.90867 0
M  V30 2189 N 192.153 1.28127 0.917671 0
M  V30 2190 C 193.083 1.14248 2.03641 0
M  V30 2191 C 194.064 0.0412748 1.7005 0
M  V30 2192 O 195.249 0.217566 1.92977 0
M  V30 2193 C 192.379 0.799431 3.37974 0
M  V30 2194 C 191.333 1.85497 3.85713 0
M  V30 2195 C 190.659 1.36565 5.16966 0
M  V30 2196 C 191.959 3.26085 4.08002 0
M  V30 2197 H 193.653 2.07835 2.15511 0
M  V30 2198 H 191.199 1.00064 1.03553 0
M  V30 2199 H 193.152 0.689114 4.15727 0
M  V30 2200 H 191.876 -0.172145 3.26146 0
M  V30 2201 H 190.535 1.95437 3.10161 0
M  V30 2202 H 190.183 0.383253 5.01538 0
M  V30 2203 H 189.883 2.07143 5.49878 0
M  V30 2204 H 191.407 1.26848 5.97279 0
M  V30 2205 H 192.821 3.19089 4.76293 0
M  V30 2206 H 191.218 3.94462 4.52238 0
M  V30 2207 H 192.288 3.70394 3.12948 0
M  V30 2208 N 193.631 -1.12557 1.10312 0
M  V30 2209 C 195.047 -1.36036 0.834649 0
M  V30 2210 C 195.247 -1.93946 -0.546539 0
M  V30 2211 O 194.303 -2.16484 -1.29966 0
M  V30 2212 C 195.616 -2.30312 1.9333 0
M  V30 2213 C 197.164 -2.43906 1.9616 0
M  V30 2214 C 197.639 -3.41496 3.05195 0
M  V30 2215 N 199.13 -3.49053 3.04494 0
M  V30 2216 C 199.865 -4.24471 3.85502 0
M  V30 2217 N 199.361 -5.02966 4.76442 0
M  V30 2218 N 201.154 -4.19864 3.73725 0
M  V30 2219 H 193.305 -0.733246 1.99342 0
M  V30 2220 H 195.568 -0.385234 0.866198 0
M  V30 2221 H 195.274 -1.94933 2.92735 0
M  V30 2222 H 195.148 -3.30421 1.81939 0
M  V30 2223 H 197.535 -2.78567 0.973886 0
M  V30 2224 H 197.616 -1.4369 2.11629 0
M  V30 2225 H 197.26 -3.07565 4.04186 0
M  V30 2226 H 197.19 -4.41539 2.86968 0
M  V30 2227 H 199.681 -2.93053 2.38596 0
M  V30 2228 H 199.994 -5.57846 5.34815 0
M  V30 2229 H 198.339 -5.02167 4.80472 0
M  V30 2230 H 201.53 -3.57623 3.02032 0
M  V30 2231 H 201.703 -4.78386 4.37093 0
M  V30 2232 N 195.109 -0.891671 -1.2995 0
M  V30 2233 C 196.042 -0.307994 -2.26112 0
M  V30 2234 C 197.02 0.575262 -1.52084 0
M  V30 2235 O 198.204 0.523864 -1.81074 0
M  V30 2236 C 195.331 0.561734 -3.34009 0
M  V30 2237 C 194.377 -0.253107 -4.25748 0
M  V30 2238 S 195.21 -1.64572 -5.09584 0
M  V30 2239 C 196.366 -0.782699 -6.20987 0
M  V30 2240 H 196.599 -1.12309 -2.75271 0
M  V30 2241 H 194.132 -0.691509 -1.38049 0
M  V30 2242 H 196.09 1.05777 -3.96638 0
M  V30 2243 H 194.751 1.35099 -2.83561 0
M  V30 2244 H 193.944 0.410908 -5.02322 0
M  V30 2245 H 193.546 -0.682004 -3.67729 0
M  V30 2246 H 195.838 -0.00257476 -6.775 0
M  V30 2247 H 196.781 -1.52026 -6.91588 0
M  V30 2248 H 197.189 -0.340638 -5.63471 0
M  V30 2249 N 196.587 1.43421 -0.653314 0
M  V30 2250 C 197.864 1.95361 -0.0966581 0
M  V30 2251 C 198.244 1.59461 1.38331 0
M  V30 2252 O 197.592 0.879777 2.10884 0
M  V30 2253 C 197.802 3.47311 -0.342988 0
M  V30 2254 C 199.15 4.23875 -0.24798 0
M  V30 2255 O 200.174 3.55133 -0.275553 0
M  V30 2256 O 199.033 5.4623 -0.171771 0
M  V30 2257 H 196.127 0.826945 0.00956291 0
M  V30 2258 H 198.673 1.5336 -0.726558 0
M  V30 2259 H 197.445 3.66569 -1.36906 0
M  V30 2260 H 197.068 3.9631 0.319975 0
M  V30 2261 N 198.065 0.39524 1.52563 0
M  V30 2262 C 199.342 -0.242908 1.94086 0
M  V30 2263 C 199.722 -1.63841 1.33114 0
M  V30 2264 O 199.07 -2.22928 0.501529 0
M  V30 2265 C 199.28 -0.26327 3.48006 0
M  V30 2266 C 200.628 -0.489354 4.21771 0
M  V30 2267 O 201.652 -0.343226 3.54543 0
M  V30 2268 O 200.511 -0.776169 5.4096 0
M  V30 2269 H 197.605 -0.152536 0.812811 0
M  V30 2270 H 200.151 0.450178 1.6362 0
M  V30 2271 H 198.923 0.713985 3.84731 0
M  V30 2272 H 198.546 -1.00103 3.84792 0
M  V30 2273 N 199.544 -1.57102 0.125237 0
M  V30 2274 C 200.774 -1.99472 -0.538015 0
M  V30 2275 C 201.182 -1.00395 -1.60366 0
M  V30 2276 O 200.525 0.0103875 -1.83697 0
M  V30 2277 C 200.587 -3.38262 -1.21734 0
M  V30 2278 C 200.251 -4.56021 -0.298897 0
M  V30 2279 C 201.248 -5.17817 0.464943 0
M  V30 2280 C 198.933 -5.01869 -0.208149 0
M  V30 2281 C 200.927 -6.23852 1.3072 0
M  V30 2282 C 198.614 -6.07763 0.637736 0
M  V30 2283 C 199.612 -6.68622 1.39403 0
M  V30 2284 O 199.3 -7.7247 2.22586 0
M  V30 2285 H 199.032 -0.659934 -0.146501 0
M  V30 2286 H 201.586 -2.04321 0.210267 0
M  V30 2287 H 199.816 -3.30185 -2.01282 0
M  V30 2288 H 201.505 -3.6488 -1.77813 0
M  V30 2289 H 202.271 -4.83308 0.404741 0
M  V30 2290 H 198.15 -4.54241 -0.786522 0
M  V30 2291 H 201.694 -6.71284 1.898 0
M  V30 2292 H 197.591 -6.41701 0.699309 0
M  V30 2293 H 198.359 -7.89595 2.15596 0
M  V30 2294 N 201.022 0.148545 -1.56898 0
M  V30 2295 C 202.262 0.86765 -1.85071 0
M  V30 2296 C 202.626 1.78417 -0.709317 0
M  V30 2297 O 203.827 2.54261 -0.872049 0
M  V30 2298 C 202.098 1.62306 -3.1842 0
M  V30 2299 S 203.657 2.3878 -3.68143 0
M  V30 2300 H 200.475 0.290174 -0.649092 0
M  V30 2301 H 203.077 0.127755 -1.95082 0
M  V30 2302 H 201.781 0.941192 -3.99462 0
M  V30 2303 H 201.312 2.4039 -3.1141 0
M  V30 2304 H 203.327 3.63942 -3.37285 0
M  V30 2305 N 202.5 1.5196 0.417844 0
M  V30 2306 C 203.916 1.40569 0.755816 0
M  V30 2307 C 204.116 0.503316 1.95113 0
M  V30 2308 O 203.172 -0.0341925 2.52477 0
M  V30 2309 C 204.485 2.82947 1.01791 0
M  V30 2310 C 206.033 2.92231 1.12116 0
M  V30 2311 C 206.508 4.35559 1.41608 0
M  V30 2312 N 207.999 4.38753 1.48491 0
M  V30 2313 C 208.734 5.46705 1.7292 0
M  V30 2314 N 208.23 6.64788 1.95011 0
M  V30 2315 N 210.023 5.34209 1.74863 0
M  V30 2316 H 202.174 2.09168 -0.369098 0
M  V30 2317 H 204.437 0.942409 -0.102809 0
M  V30 2318 H 204.143 3.5106 0.212081 0
M  V30 2319 H 204.017 3.23462 1.94042 0
M  V30 2320 H 206.404 2.24304 1.9176 0
M  V30 2321 H 206.485 2.55185 0.177225 0
M  V30 2322 H 206.129 5.04042 0.624848 0
M  V30 2323 H 206.059 4.70133 2.37239 0
M  V30 2324 H 208.55 3.5363 1.33244 0
M  V30 2325 H 208.863 7.42845 2.13076 0
M  V30 2326 H 207.208 6.67869 1.92293 0
M  V30 2327 H 210.399 4.40937 1.57137 0
M  V30 2328 H 210.572 6.18415 1.93563 0
M  V30 2329 N 203.978 -0.674533 1.42435 0
M  V30 2330 C 205.394 -0.98769 1.25367 0
M  V30 2331 C 205.594 -2.00879 0.158044 0
M  V30 2332 O 204.65 -2.48075 -0.470633 0
M  V30 2333 C 205.963 -1.49224 2.6106 0
M  V30 2334 C 207.511 -1.61 2.68417 0
M  V30 2335 C 207.986 -2.14852 4.04478 0
M  V30 2336 N 209.477 -2.22185 4.06434 0
M  V30 2337 C 210.212 -2.64928 5.08528 0
M  V30 2338 N 209.708 -3.07121 6.21006 0
M  V30 2339 N 211.501 -2.64679 4.95885 0
M  V30 2340 H 203.652 0.00152503 2.124 0
M  V30 2341 H 205.915 -0.0618434 0.945981 0
M  V30 2342 H 205.621 -0.816453 3.42092 0
M  V30 2343 H 205.495 -2.47094 2.84999 0
M  V30 2344 H 207.882 -2.27686 1.87732 0
M  V30 2345 H 207.963 -0.616195 2.48267 0
M  V30 2346 H 207.607 -1.48775 4.85622 0
M  V30 2347 H 207.537 -3.15024 4.2198 0
M  V30 2348 H 210.028 -1.92435 3.25234 0
M  V30 2349 H 210.341 -3.38423 6.94759 0
M  V30 2350 H 208.686 -3.04978 6.24511 0
M  V30 2351 H 211.877 -2.31078 4.07088 0
M  V30 2352 H 212.05 -2.9767 5.75584 0
M  V30 2353 N 205.456 -1.28612 -0.910864 0
M  V30 2354 C 206.403 -1.12786 -2.01365 0
M  V30 2355 C 207.373 -0.024201 -1.66082 0
M  V30 2356 O 208.558 -0.189667 -1.89855 0
M  V30 2357 C 205.698 -0.798743 -3.35729 0
M  V30 2358 C 204.811 -1.98173 -3.83864 0
M  V30 2359 C 203.946 -1.59298 -5.06752 0
M  V30 2360 C 202.985 -2.74245 -5.47226 0
M  V30 2361 N 202.122 -2.35842 -6.61304 0
M  V30 2362 H 206.962 -2.07142 -2.14234 0
M  V30 2363 H 204.499 -1.03093 -1.0493 0
M  V30 2364 H 206.457 -0.588662 -4.13026 0
M  V30 2365 H 205.087 0.10789 -3.2262 0
M  V30 2366 H 204.139 -2.30386 -3.02699 0
M  V30 2367 H 205.451 -2.84343 -4.09818 0
M  V30 2368 H 204.605 -1.34513 -5.916 0
M  V30 2369 H 203.344 -0.702618 -4.82612 0
M  V30 2370 H 202.349 -2.99725 -4.60918 0
M  V30 2371 H 203.574 -3.63928 -5.73353 0
M  V30 2372 H 201.52 -1.49279 -6.38789 0
M  V30 2373 H 201.437 -3.15546 -6.86998 0
M  V30 2374 H 202.705 -2.14348 -7.4945 0
M  V30 2375 N 206.934 1.1197 -1.10907 0
M  V30 2376 C 208.211 1.79959 -0.766432 0
M  V30 2377 C 208.591 1.97466 0.746363 0
M  V30 2378 O 207.939 1.55491 1.67436 0
M  V30 2379 C 208.149 3.14009 -1.52314 0
M  V30 2380 C 209.497 3.89134 -1.69883 0
M  V30 2381 O 210.521 3.2368 -1.48692 0
M  V30 2382 O 209.38 5.06572 -2.05054 0
M  V30 2383 H 206.474 0.779208 -0.277062 0
M  V30 2384 H 209.02 1.18762 -1.21217 0
M  V30 2385 H 207.792 2.96587 -2.55249 0
M  V30 2386 H 207.415 3.82915 -1.07059 0
M  V30 2387 N 208.412 0.89855 1.29475 0
M  V30 2388 C 209.689 0.443416 1.90508 0
M  V30 2389 C 210.069 -1.07685 1.81569 0
M  V30 2390 O 209.417 -1.9182 1.24166 0
M  V30 2391 C 209.627 0.956708 3.35631 0
M  V30 2392 C 210.975 0.999728 4.12663 0
M  V30 2393 O 211.999 0.904299 3.4453 0
M  V30 2394 O 210.858 1.14289 5.34416 0
M  V30 2395 H 207.952 0.138025 0.815401 0
M  V30 2396 H 210.498 0.98834 1.37949 0
M  V30 2397 H 209.27 2.00067 3.36287 0
M  V30 2398 H 208.893 0.391728 3.95666 0
M  V30 2399 N 209.89 -1.43072 0.660911 0
M  V30 2400 C 211.115 -2.06584 0.183805 0
M  V30 2401 C 211.54 -1.49257 -1.14472 0
M  V30 2402 O 210.898 -0.605528 -1.70889 0
M  V30 2403 C 210.946 -3.60418 0.114434 0
M  V30 2404 O 210.05 -4.01981 -0.921137 0
M  V30 2405 H 209.391 -0.656669 0.0983994 0
M  V30 2406 H 211.921 -1.83447 0.906006 0
M  V30 2407 H 211.931 -4.07946 -0.0663394 0
M  V30 2408 H 210.606 -4.01519 1.08422 0
M  V30 2409 H 209.183 -3.66029 -0.71253 0
M  V30 2410 N 211.368 -0.403325 -1.52352 0
M  V30 2411 C 212.598 0.17376 -2.05868 0
M  V30 2412 C 213.006 1.39898 -1.27378 0
M  V30 2413 O 212.349 1.80939 -0.31729 0
M  V30 2414 C 212.411 0.594756 -3.54546 0
M  V30 2415 C 212.075 -0.518926 -4.54044 0
M  V30 2416 C 213.072 -1.3807 -5.01231 0
M  V30 2417 C 210.757 -0.689961 -4.97539 0
M  V30 2418 C 212.751 -2.39852 -5.90551 0
M  V30 2419 C 210.438 -1.71109 -5.86656 0
M  V30 2420 C 211.436 -2.56378 -6.33056 0
M  V30 2421 O 211.124 -3.56743 -7.20409 0
M  V30 2422 H 210.856 0.0264951 -0.675481 0
M  V30 2423 H 213.41 -0.571179 -1.97299 0
M  V30 2424 H 211.64 1.39189 -3.60782 0
M  V30 2425 H 213.329 1.0991 -3.90736 0
M  V30 2426 H 214.095 -1.25994 -4.68349 0
M  V30 2427 H 209.974 -0.035939 -4.60986 0
M  V30 2428 H 213.518 -3.06441 -6.26689 0
M  V30 2429 H 209.415 -1.83218 -6.18952 0
M  V30 2430 H 210.183 -3.52918 -7.38506 0
M  V30 2431 N 212.846 1.57033 -0.133567 0
M  V30 2432 C 214.093 1.95686 0.520877 0
M  V30 2433 C 214.421 1.0177 1.6575 0
M  V30 2434 O 213.676 0.0443195 1.9565 0
M  V30 2435 C 213.975 3.40674 1.08057 0
M  V30 2436 C 213.641 4.50855 0.0637899 0
M  V30 2437 C 212.303 4.80716 -0.215757 0
M  V30 2438 C 214.655 5.17398 -0.62835 0
M  V30 2439 C 211.983 5.74433 -1.19348 0
M  V30 2440 C 214.335 6.12167 -1.5948 0
M  V30 2441 C 212.999 6.40414 -1.88218 0
M  V30 2442 H 212.269 0.716067 0.190602 0
M  V30 2443 H 214.916 1.9026 -0.217556 0
M  V30 2444 H 213.221 3.42865 1.89606 0
M  V30 2445 H 214.918 3.67902 1.59529 0
M  V30 2446 H 211.508 4.27605 0.291855 0
M  V30 2447 H 215.692 4.94472 -0.425562 0
M  V30 2448 H 210.948 5.94616 -1.42272 0
M  V30 2449 H 215.122 6.6281 -2.13671 0
M  V30 2450 H 212.749 7.12838 -2.64133 0
M  V30 2451 N 214.325 -0.140222 1.56975 0
M  V30 2452 C 215.602 -0.880769 1.74648 0
M  V30 2453 C 215.982 -1.99036 0.703404 0
M  V30 2454 O 215.33 -2.26821 -0.27648 0
M  V30 2455 C 215.54 -1.417 3.18939 0
M  V30 2456 C 216.888 -1.87774 3.80823 0
M  V30 2457 O 217.912 -1.51427 3.2241 0
M  V30 2458 O 216.771 -2.54827 4.83452 0
M  V30 2459 H 213.865 -0.416713 0.714338 0
M  V30 2460 H 216.411 -0.125618 1.69234 0
M  V30 2461 H 215.183 -0.619902 3.86359 0
M  V30 2462 H 214.806 -2.23546 3.28805 0
M  V30 2463 N 215.803 -1.52179 -0.40978 0
M  V30 2464 C 217.219 -1.40968 -0.74835 0
M  V30 2465 C 217.419 -0.513657 -1.94843 0
M  V30 2466 O 216.475 0.0208026 -2.52491 0
M  V30 2467 C 217.788 -2.83483 -1.0029 0
M  V30 2468 C 219.336 -2.92821 -1.10565 0
M  V30 2469 C 219.811 -4.36303 -1.39296 0
M  V30 2470 N 221.302 -4.39535 -1.46162 0
M  V30 2471 C 222.037 -5.47614 -1.70018 0
M  V30 2472 N 221.533 -6.65812 -1.91483 0
M  V30 2473 N 223.326 -5.35129 -1.72027 0
M  V30 2474 H 215.477 -2.0897 0.380186 0
M  V30 2475 H 217.74 -0.94185 0.107805 0
M  V30 2476 H 217.446 -3.51168 -0.193461 0
M  V30 2477 H 217.32 -3.24487 -1.92323 0
M  V30 2478 H 219.707 -2.25318 -1.90568 0
M  V30 2479 H 219.788 -2.55276 -0.16369 0
M  V30 2480 H 219.432 -5.04366 -0.598109 0
M  V30 2481 H 219.362 -4.71385 -2.34743 0
M  V30 2482 H 221.853 -3.54332 -1.31367 0
M  V30 2483 H 222.166 -7.43964 -2.09134 0
M  V30 2484 H 220.511 -6.68879 -1.88749 0
M  V30 2485 H 223.702 -4.41764 -1.54796 0
M  V30 2486 H 223.875 -6.19433 -1.9028 0
M  V30 2487 N 217.281 0.66697 -1.42791 0
M  V30 2488 C 218.511 1.45294 -1.46878 0
M  V30 2489 C 218.919 1.89027 -0.0809861 0
M  V30 2490 O 218.262 1.59219 0.916246 0
M  V30 2491 C 218.324 2.72908 -2.34012 0
M  V30 2492 C 217.988 2.51203 -3.81767 0
M  V30 2493 C 218.985 2.15302 -4.73224 0
M  V30 2494 C 216.67 2.65954 -4.26115 0
M  V30 2495 C 218.664 1.94431 -6.07022 0
M  V30 2496 C 216.351 2.44699 -5.59969 0
M  V30 2497 C 217.349 2.08992 -6.5024 0
M  V30 2498 O 217.037 1.87948 -7.81621 0
M  V30 2499 H 216.769 0.453306 -0.501487 0
M  V30 2500 H 219.323 0.826232 -1.88049 0
M  V30 2501 H 217.553 3.38089 -1.87703 0
M  V30 2502 H 219.242 3.34816 -2.29462 0
M  V30 2503 H 220.008 2.03495 -4.40244 0
M  V30 2504 H 215.887 2.92724 -3.56137 0
M  V30 2505 H 219.431 1.66484 -6.77443 0
M  V30 2506 H 215.328 2.56105 -5.9252 0
M  V30 2507 H 216.096 2.02483 -7.93059 0
M  V30 2508 N 218.759 1.29093 0.90403 0
M  V30 2509 C 220.175 1.07011 1.1841 0
M  V30 2510 C 220.375 -0.181358 2.00682 0
M  V30 2511 O 219.431 -0.880331 2.36657 0
M  V30 2512 C 220.744 2.32311 1.90924 0
M  V30 2513 C 222.292 2.37587 2.03768 0
M  V30 2514 C 222.767 3.62679 2.79693 0
M  V30 2515 N 224.258 3.63376 2.87249 0
M  V30 2516 C 224.993 4.56848 3.46522 0
M  V30 2517 N 224.489 5.60648 4.06996 0
M  V30 2518 N 226.282 4.44426 3.44154 0
M  V30 2519 H 218.433 2.09412 0.354993 0
M  V30 2520 H 220.696 0.922181 0.219742 0
M  V30 2521 H 220.402 3.23536 1.37905 0
M  V30 2522 H 220.276 2.39483 2.91424 0
M  V30 2523 H 222.663 1.46853 2.55965 0
M  V30 2524 H 222.744 2.34403 1.02415 0
M  V30 2525 H 222.388 4.53762 2.28173 0
M  V30 2526 H 222.318 3.63119 3.81381 0
M  V30 2527 H 224.809 2.88321 2.44293 0
M  V30 2528 H 225.122 6.28101 4.50232 0
M  V30 2529 H 223.467 5.64463 4.05471 0
M  V30 2530 H 226.658 3.62529 2.96126 0
M  V30 2531 H 226.831 5.17457 3.90054 0
M  V30 2532 N 220.237 -1.11381 1.11499 0
M  V30 2533 C 221.514 -1.7955 0.775965 0
M  V30 2534 C 221.894 -1.97859 -0.73588 0
M  V30 2535 O 221.242 -1.56376 -1.66609 0
M  V30 2536 C 221.452 -3.13196 1.53977 0
M  V30 2537 C 222.8 -3.88227 1.71944 0
M  V30 2538 O 223.824 -3.22887 1.50407 0
M  V30 2539 O 222.683 -5.05477 2.07738 0
M  V30 2540 H 219.777 -0.777728 0.28119 0
M  V30 2541 H 222.323 -1.18118 1.21845 0
M  V30 2542 H 221.095 -2.95229 2.56818 0
M  V30 2543 H 220.718 -3.82342 1.09088 0
M  V30 2544 N 221.715 -0.905404 -1.28997 0
M  V30 2545 C 222.94 -0.549175 -1.99997 0
M  V30 2546 C 223.365 0.860276 -1.67275 0
M  V30 2547 O 222.723 1.57355 -0.900502 0
M  V30 2548 C 222.771 -0.755185 -3.52604 0
M  V30 2549 O 221.875 0.189692 -4.11964 0
M  V30 2550 H 221.216 -0.213899 -0.628604 0
M  V30 2551 H 223.746 -1.21856 -1.64354 0
M  V30 2552 H 223.756 -0.662045 -4.02593 0
M  V30 2553 H 222.431 -1.78271 -3.75755 0
M  V30 2554 H 221.008 0.0485257 -3.72868 0
M  V30 2555 N 223.193 1.4272 -0.668489 0
M  V30 2556 C 224.44 2.01624 -0.18814 0
M  V30 2557 C 224.768 1.5282 1.20317 0
M  V30 2558 O 224.023 0.718323 1.8204 0
M  V30 2559 C 224.322 3.57021 -0.164499 0
M  V30 2560 C 223.988 4.25232 -1.49962 0
M  V30 2561 C 222.65 4.4358 -1.8652 0
M  V30 2562 C 225.002 4.63727 -2.37921 0
M  V30 2563 C 222.33 4.97694 -3.10674 0
M  V30 2564 C 224.682 5.19218 -3.6138 0
M  V30 2565 C 223.346 5.3578 -3.98115 0
M  V30 2566 H 222.616 0.737795 -0.0688454 0
M  V30 2567 H 225.263 1.70991 -0.862225 0
M  V30 2568 H 223.568 3.87285 0.593079 0
M  V30 2569 H 225.265 4.00372 0.224271 0
M  V30 2570 H 221.855 4.11306 -1.20522 0
M  V30 2571 H 226.039 4.4923 -2.10964 0
M  V30 2572 H 221.295 5.08702 -3.39164 0
M  V30 2573 H 225.469 5.4799 -4.29743 0
M  V30 2574 H 223.096 5.77475 -4.94395 0
M  V30 2575 N 224.671 0.411399 1.52136 0
M  V30 2576 C 225.948 -0.222308 1.94333 0
M  V30 2577 C 226.328 -1.6242 1.34844 0
M  V30 2578 O 225.676 -2.22384 0.525145 0
M  V30 2579 C 225.886 -0.226345 3.48265 0
M  V30 2580 C 227.234 -0.444592 4.22266 0
M  V30 2581 O 228.258 -0.305602 3.54887 0
M  V30 2582 O 227.117 -0.718749 5.41753 0
M  V30 2583 H 224.211 -0.143907 0.814383 0
M  V30 2584 H 226.757 0.467506 1.63133 0
M  V30 2585 H 225.529 0.75475 3.83952 0
M  V30 2586 H 225.152 -0.960163 3.85832 0
M  V30 2587 N 226.149 -1.5696 0.141893 0
M  V30 2588 C 227.397 -1.95573 -0.509484 0
M  V30 2589 C 227.718 -1.02746 -1.65736 0
M  V30 2590 O 226.988 -0.0880311 -1.95702 0
M  V30 2591 H 225.568 -0.722115 -0.191205 0
M  V30 2592 H 228.23 -1.93697 0.216196 0
M  V30 2593 H 227.326 -2.99171 -0.889 0
M  V30 2594 N 227.627 0.131896 -1.57047 0
M  V30 2595 C 229.043 0.485031 -1.52051 0
M  V30 2596 C 229.243 1.82563 -0.85281 0
M  V30 2597 O 228.299 2.48817 -0.429694 0
M  V30 2598 C 229.612 0.481409 -2.96821 0
M  V30 2599 C 231.16 0.565868 -3.07842 0
M  V30 2600 C 231.635 0.592762 -4.54148 0
M  V30 2601 N 233.126 0.654564 -4.58552 0
M  V30 2602 C 233.861 0.696608 -5.69153 0
M  V30 2603 N 233.357 0.697078 -6.89284 0
M  V30 2604 N 235.15 0.738639 -5.57226 0
M  V30 2605 H 227.301 -0.746664 -1.98843 0
M  V30 2606 H 229.564 -0.273999 -0.90754 0
M  V30 2607 H 229.27 -0.435731 -3.4899 0
M  V30 2608 H 229.144 1.3139 -3.53577 0
M  V30 2609 H 231.531 1.47343 -2.55684 0
M  V30 2610 H 231.612 -0.29406 -2.54104 0
M  V30 2611 H 231.256 -0.310701 -5.06949 0
M  V30 2612 H 231.186 1.46939 -5.05684 0
M  V30 2613 H 233.677 0.660887 -3.72076 0
M  V30 2614 H 233.99 0.731426 -7.69331 0
M  V30 2615 H 232.335 0.66471 -6.91814 0
M  V30 2616 H 235.526 0.735545 -4.62285 0
M  V30 2617 H 235.699 0.767938 -6.43434 0
M  V30 2618 N 229.106 1.52395 0.401703 0
M  V30 2619 C 230.354 1.66488 1.14569 0
M  V30 2620 C 230.675 0.400897 1.90835 0
M  V30 2621 O 229.945 -0.584415 1.8698 0
M  V30 2622 H 228.525 0.613672 0.425929 0
M  V30 2623 H 231.187 1.89464 0.457093 0
M  V30 2624 H 230.283 2.50942 1.85566 0
M  V30 2625 N 230.584 -0.659388 1.43143 0
M  V30 2626 C 231.995 -1.24041 1.39537 0
M  V30 2627 C 232.346 -1.95963 0.0963364 0
M  V30 2628 O 231.471 -2.00892 -0.804438 0
M  V30 2629 C 232.066 -2.25601 2.52764 0
M  V30 2630 C 230.625 -2.79195 2.52443 0
M  V30 2631 C 229.772 -1.53743 2.30778 0
M  V30 2632 H 232.723 -0.451792 1.52133 0
M  V30 2633 H 232.744 -3.07651 2.23899 0
M  V30 2634 H 232.256 -1.73226 3.47296 0
M  V30 2635 H 230.357 -3.35649 1.61773 0
M  V30 2636 H 230.47 -3.2716 3.50004 0
M  V30 2637 H 228.834 -1.80869 1.79328 0
M  V30 2638 H 229.617 -1.03312 3.27386 0
M  V30 2639 N 232.062 -1.29571 -0.897171 0
M  V30 2640 C 233.473 -1.15964 -1.46319 0
M  V30 2641 C 233.824 0.244267 -1.94674 0
M  V30 2642 O 232.949 1.13998 -1.83939 0
M  V30 2643 C 233.544 -2.09906 -2.65942 0
M  V30 2644 C 232.103 -2.00314 -3.18671 0
M  V30 2645 C 231.25 -2.00687 -1.91363 0
M  V30 2646 H 234.201 -1.42019 -0.708268 0
M  V30 2647 H 234.222 -1.67276 -3.41759 0
M  V30 2648 H 233.734 -3.12075 -2.30718 0
M  V30 2649 H 231.835 -1.01242 -3.58582 0
M  V30 2650 H 231.948 -2.88102 -3.82798 0
M  V30 2651 H 230.312 -1.45319 -2.09175 0
M  V30 2652 H 231.095 -3.04566 -1.58413 0
M  V30 2653 N 233.54 1.10788 -1.12088 0
M  V30 2654 C 234.788 1.8231 -0.872205 0
M  V30 2655 C 235.109 1.85419 0.603709 0
M  V30 2656 O 234.379 1.32963 1.43867 0
M  V30 2657 H 232.959 0.675137 -0.319686 0
M  V30 2658 H 235.621 1.34068 -1.41463 0
M  V30 2659 H 234.717 2.85955 -1.25045 0
M  V30 2660 N 235.018 0.912232 1.28515 0
M  V30 2661 C 236.429 0.591352 1.77087 0
M  V30 2662 C 236.78 -0.8933 1.74684 0
M  V30 2663 O 235.905 -1.69876 1.34056 0
M  V30 2664 C 236.5 1.06668 3.2157 0
M  V30 2665 C 235.059 0.79675 3.67871 0
M  V30 2666 C 234.206 1.23427 2.48316 0
M  V30 2667 H 237.157 1.09365 1.15 0
M  V30 2668 H 237.178 0.407455 3.78312 0
M  V30 2669 H 236.69 2.14726 3.23287 0
M  V30 2670 H 234.791 -0.270679 3.71616 0
M  V30 2671 H 234.904 1.40343 4.58084 0
M  V30 2672 H 233.268 0.653036 2.46186 0
M  V30 2673 H 234.051 2.32316 2.52753 0
M  V30 2674 N 236.496 -1.42363 0.676048 0
M  V30 2675 C 237.406 -2.346 -0.00153389 0
M  V30 2676 C 238.422 -1.5516 -0.787485 0
M  V30 2677 O 239.598 -1.87723 -0.729521 0
M  V30 2678 C 236.663 -3.33705 -0.940298 0
M  V30 2679 C 235.724 -4.29042 -0.148739 0
M  V30 2680 C 234.957 -5.23413 -1.04279 0
M  V30 2681 O 235.18 -5.22749 -2.28232 0
M  V30 2682 O 234.114 -5.99795 -0.502925 0
M  V30 2683 H 237.94 -2.94082 0.758268 0
M  V30 2684 H 235.525 -1.42888 0.436289 0
M  V30 2685 H 237.407 -3.94586 -1.47917 0
M  V30 2686 H 236.082 -2.76695 -1.67993 0
M  V30 2687 H 234.989 -3.71571 0.43427 0
M  V30 2688 H 236.322 -4.89097 0.551805 0
M  V30 2689 N 237.974 -0.419461 -1.51915 0
M  V30 2690 C 239.199 0.154572 -2.06823 0
M  V30 2691 C 239.624 1.3722 -1.28656 0
M  V30 2692 O 238.982 1.78461 -0.319583 0
M  V30 2693 C 239.03 0.473172 -3.57482 0
M  V30 2694 O 238.134 1.56255 -3.81652 0
M  V30 2695 H 237.475 0.0096924 -0.663929 0
M  V30 2696 H 240.005 -0.595642 -1.95738 0
M  V30 2697 H 240.015 0.728825 -4.01438 0
M  V30 2698 H 238.69 -0.416873 -4.13805 0
M  V30 2699 H 237.267 1.29825 -3.49571 0
M  V30 2700 N 239.452 1.56882 -0.150215 0
M  V30 2701 C 240.384 2.14057 0.819286 0
M  V30 2702 C 241.397 1.09082 1.20851 0
M  V30 2703 O 242.586 1.36347 1.15203 0
M  V30 2704 C 239.686 2.65102 2.11127 0
M  V30 2705 C 238.859 3.94511 1.88891 0
M  V30 2706 C 237.918 4.30834 3.02107 0
M  V30 2707 O 236.944 4.99099 2.73659 0
M  V30 2708 N 238.146 3.90676 4.29363 0
M  V30 2709 H 240.911 2.97871 0.330618 0
M  V30 2710 H 238.472 1.61866 0.0332538 0
M  V30 2711 H 240.464 2.86411 2.85921 0
M  V30 2712 H 239.034 1.85994 2.51247 0
M  V30 2713 H 238.254 3.81795 0.981152 0
M  V30 2714 H 239.542 4.7907 1.71376 0
M  V30 2715 H 238.94 3.35677 4.55343 0
M  V30 2716 H 237.497 4.1703 5.00928 0
M  V30 2717 N 240.93 -0.123565 1.57115 0
M  V30 2718 C 242.155 -0.850398 1.89164 0
M  V30 2719 C 242.58 -1.7286 0.741688 0
M  V30 2720 O 241.938 -1.78665 -0.307958 0
M  V30 2721 C 241.986 -1.66353 3.19936 0
M  V30 2722 O 241.09 -2.77004 3.0552 0
M  V30 2723 H 240.431 -0.235454 0.620852 0
M  V30 2724 H 242.961 -0.107335 2.04318 0
M  V30 2725 H 242.971 -2.05372 3.52543 0
M  V30 2726 H 241.646 -1.01881 4.03228 0
M  V30 2727 H 240.223 -2.41221 2.84371 0
M  V30 2728 N 242.408 -1.52605 -0.393616 0
M  V30 2729 C 243.824 -1.41753 -0.733357 0
M  V30 2730 C 244.024 -0.534293 -1.94287 0
M  V30 2731 O 243.08 -0.0059787 -2.52499 0
M  V30 2732 C 244.393 -2.84531 -0.972772 0
M  V30 2733 C 245.941 -2.93978 -1.07453 0
M  V30 2734 C 246.416 -4.37756 -1.3466 0
M  V30 2735 N 247.907 -4.4106 -1.41492 0
M  V30 2736 C 248.642 -5.49387 -1.642 0
M  V30 2737 N 248.138 -6.67806 -1.8441 0
M  V30 2738 N 249.931 -5.36923 -1.66342 0
M  V30 2739 H 242.082 -2.08555 0.402328 0
M  V30 2740 H 244.345 -0.940654 0.117789 0
M  V30 2741 H 244.051 -3.51353 -0.156204 0
M  V30 2742 H 243.925 -3.26508 -1.88871 0
M  V30 2743 H 246.312 -2.27326 -1.88167 0
M  V30 2744 H 246.393 -2.55435 -0.136605 0
M  V30 2745 H 246.037 -5.04972 -0.544581 0
M  V30 2746 H 245.967 -4.73848 -2.2973 0
M  V30 2747 H 248.458 -3.55705 -1.27601 0
M  V30 2748 H 248.771 -7.46141 -2.01231 0
M  V30 2749 H 247.116 -6.70843 -1.81644 0
M  V30 2750 H 250.307 -4.43381 -1.50102 0
M  V30 2751 H 250.48 -6.21416 -1.837 0
M  V30 2752 N 243.887 0.651787 -1.4349 0
M  V30 2753 C 244.85 1.74647 -1.48429 0
M  V30 2754 C 245.85 1.56513 -0.368817 0
M  V30 2755 O 247.04 1.62385 -0.630623 0
M  V30 2756 C 244.172 3.13533 -1.33827 0
M  V30 2757 H 245.365 1.71649 -2.4592 0
M  V30 2758 H 242.918 0.863573 -1.30277 0
M  V30 2759 H 243.653 3.22142 -0.37349 0
M  V30 2760 H 243.438 3.28101 -2.14691 0
M  V30 2761 H 244.928 3.93356 -1.40218 0
M  V30 2762 N 245.365 1.30045 0.890287 0
M  V30 2763 C 246.312 1.15976 1.99545 0
M  V30 2764 C 247.282 0.0506202 1.66023 0
M  V30 2765 O 248.467 0.219847 1.89529 0
M  V30 2766 C 245.607 0.852054 3.34416 0
M  V30 2767 C 244.72 2.04255 3.80662 0
M  V30 2768 C 243.855 1.6734 5.04154 0
M  V30 2769 C 242.894 2.82916 5.42794 0
M  V30 2770 N 242.031 2.46333 6.57468 0
M  V30 2771 H 246.871 2.10524 2.10911 0
M  V30 2772 H 244.408 1.04749 1.03276 0
M  V30 2773 H 246.366 0.654296 4.12037 0
M  V30 2774 H 244.996 -0.0565502 3.2275 0
M  V30 2775 H 244.048 2.35172 2.98995 0
M  V30 2776 H 245.36 2.90826 4.05242 0
M  V30 2777 H 244.514 1.43908 5.89386 0
M  V30 2778 H 243.253 0.779308 4.81433 0
M  V30 2779 H 242.258 3.0702 4.56091 0
M  V30 2780 H 243.483 3.73004 5.6749 0
M  V30 2781 H 241.429 1.59423 6.36334 0
M  V30 2782 H 241.346 3.26436 6.81891 0
M  V30 2783 H 242.614 2.26244 7.45945 0
M  V30 2784 N 246.843 -1.10192 1.12674 0
M  V30 2785 C 247.753 -2.20172 0.810026 0
M  V30 2786 C 248.769 -1.72821 -0.202188 0
M  V30 2787 O 249.945 -2.01369 -0.0351691 0
M  V30 2788 C 247.01 -3.45631 0.272007 0
M  V30 2789 C 246.071 -4.07704 1.34447 0
M  V30 2790 C 245.304 -5.27175 0.832029 0
M  V30 2791 O 245.527 -5.69425 -0.333284 0
M  V30 2792 O 244.461 -5.80168 1.60277 0
M  V30 2793 H 248.287 -2.49701 1.72867 0
M  V30 2794 H 245.872 -1.18977 0.903597 0
M  V30 2795 H 247.754 -4.21394 -0.0230219 0
M  V30 2796 H 246.429 -3.17723 -0.619164 0
M  V30 2797 H 245.336 -3.33614 1.6927 0
M  V30 2798 H 246.669 -4.3982 2.2095 0
M  V30 2799 N 248.321 -0.919034 -1.28029 0
M  V30 2800 C 249.737 -0.617972 -1.4715 0
M  V30 2801 C 249.937 0.835242 -1.83374 0
M  V30 2802 O 248.993 1.61388 -1.94191 0
M  V30 2803 C 250.306 -1.56041 -2.57044 0
M  V30 2804 C 251.854 -1.56769 -2.7091 0
M  V30 2805 C 252.329 -2.49688 -3.83953 0
M  V30 2806 N 253.82 -2.47845 -3.91314 0
M  V30 2807 C 254.555 -3.16437 -4.78179 0
M  V30 2808 N 254.051 -3.94376 -5.69596 0
M  V30 2809 N 255.844 -3.05498 -4.71834 0
M  V30 2810 H 247.995 -1.85866 -1.02798 0
M  V30 2811 H 250.258 -0.797506 -0.512531 0
M  V30 2812 H 249.964 -2.59671 -2.372 0
M  V30 2813 H 249.838 -1.29551 -3.54255 0
M  V30 2814 H 252.225 -0.538745 -2.90141 0
M  V30 2815 H 252.306 -1.87305 -1.74214 0
M  V30 2816 H 251.95 -3.52688 -3.65477 0
M  V30 2817 H 251.88 -2.16453 -4.80058 0
M  V30 2818 H 254.371 -1.91234 -3.25941 0
M  V30 2819 H 254.684 -4.43721 -6.32718 0
M  V30 2820 H 253.029 -3.98481 -5.69419 0
M  V30 2821 H 256.22 -2.44108 -3.99411 0
M  V30 2822 H 256.393 -3.59225 -5.39316 0
M  V30 2823 N 249.799 1.42003 -0.683588 0
M  V30 2824 C 250.729 2.33487 -0.024866 0
M  V30 2825 C 251.71 1.51163 0.779975 0
M  V30 2826 O 252.895 1.79739 0.735362 0
M  V30 2827 C 250.025 3.3487 0.920836 0
M  V30 2828 C 248.979 4.27414 0.223958 0
M  V30 2829 C 248.305 5.19074 1.2832 0
M  V30 2830 C 249.605 5.14445 -0.90242 0
M  V30 2831 H 251.299 2.88819 -0.788921 0
M  V30 2832 H 248.845 1.38873 -0.38083 0
M  V30 2833 H 250.798 3.97787 1.39081 0
M  V30 2834 H 249.522 2.77861 1.71642 0
M  V30 2835 H 248.181 3.65904 -0.225864 0
M  V30 2836 H 247.829 4.58387 2.071 0
M  V30 2837 H 247.529 5.81822 0.821995 0
M  V30 2838 H 249.053 5.84867 1.75392 0
M  V30 2839 H 250.467 5.70998 -0.513272 0
M  V30 2840 H 248.864 5.86072 -1.28997 0
M  V30 2841 H 249.934 4.52322 -1.74737 0
M  V30 2842 N 251.277 0.427512 1.51691 0
M  V30 2843 C 252.224 -0.388867 2.275 0
M  V30 2844 C 253.194 -1.02532 1.30677 0
M  V30 2845 O 254.379 -1.0461 1.59566 0
M  V30 2846 C 251.519 -1.48954 3.11298 0
M  V30 2847 C 250.632 -0.872194 4.23104 0
M  V30 2848 C 249.767 -1.94709 4.94228 0
M  V30 2849 C 248.806 -1.30766 5.97969 0
M  V30 2850 N 247.943 -2.32349 6.62539 0
M  V30 2851 H 252.783 0.263997 2.96828 0
M  V30 2852 H 250.32 0.142033 1.46413 0
M  V30 2853 H 252.278 -2.13887 3.58201 0
M  V30 2854 H 250.908 -2.11217 2.44105 0
M  V30 2855 H 249.96 -0.111419 3.80237 0
M  V30 2856 H 251.272 -0.365264 4.97461 0
M  V30 2857 H 250.426 -2.67327 5.44629 0
M  V30 2858 H 249.165 -2.48773 4.1948 0
M  V30 2859 H 248.17 -0.566902 5.4687 0
M  V30 2860 H 249.395 -0.774483 6.74669 0
M  V30 2861 H 247.341 -2.85511 5.90609 0
M  V30 2862 H 247.258 -1.8652 7.3263 0
M  V30 2863 H 248.526 -3.04481 7.17574 0
M  V30 2864 N 252.755 -1.56801 0.158532 0
M  V30 2865 C 254.171 -1.5837 -0.197774 0
M  V30 2866 C 254.371 -1.17334 -1.63814 0
M  V30 2867 O 253.427 -0.878988 -2.36707 0
M  V30 2868 C 254.74 -3.00615 0.0714459 0
M  V30 2869 C 256.288 -3.12999 0.00864533 0
M  V30 2870 C 256.763 -4.57313 0.250685 0
M  V30 2871 N 258.254 -4.62777 0.198014 0
M  V30 2872 C 258.989 -5.72271 0.359642 0
M  V30 2873 N 258.485 -6.90371 0.579625 0
M  V30 2874 N 260.278 -5.61318 0.296438 0
M  V30 2875 H 252.429 -1.81765 1.09887 0
M  V30 2876 H 254.692 -0.841849 0.435884 0
M  V30 2877 H 254.398 -3.35068 1.06874 0
M  V30 2878 H 254.272 -3.71683 -0.642757 0
M  V30 2879 H 256.659 -2.7838 -0.979217 0
M  V30 2880 H 256.74 -2.44393 0.755359 0
M  V30 2881 H 256.384 -4.92639 1.2357 0
M  V30 2882 H 256.314 -5.24061 -0.516489 0
M  V30 2883 H 258.805 -3.77885 0.0331115 0
M  V30 2884 H 259.118 -7.69689 0.69275 0
M  V30 2885 H 257.463 -6.92264 0.616087 0
M  V30 2886 H 260.654 -4.67932 0.125258 0
M  V30 2887 H 260.827 -6.46599 0.425831 0
M  V30 2888 N 254.233 0.115231 -1.57178 0
M  V30 2889 C 255.143 1.15994 -2.03918 0
M  V30 2890 C 256.159 1.45103 -0.960268 0
M  V30 2891 O 257.335 1.56144 -1.27204 0
M  V30 2892 C 254.4 2.46568 -2.43732 0
M  V30 2893 C 253.461 2.24822 -3.65723 0
M  V30 2894 C 252.694 3.4917 -4.03629 0
M  V30 2895 O 252.917 4.56623 -3.41835 0
M  V30 2896 O 251.851 3.39949 -4.96708 0
M  V30 2897 H 255.677 0.793019 -2.93164 0
M  V30 2898 H 253.262 0.3263 -1.45793 0
M  V30 2899 H 255.144 3.23492 -2.70057 0
M  V30 2900 H 253.819 2.82726 -1.57631 0
M  V30 2901 H 252.726 1.45744 -3.44542 0
M  V30 2902 H 254.059 1.93566 -4.52541 0
M  V30 2903 N 255.711 1.52812 0.385517 0
M  V30 2904 C 256.621 1.80766 1.49535 0
M  V30 2905 C 257.637 0.694651 1.59532 0
M  V30 2906 O 258.813 0.982611 1.75803 0
M  V30 2907 C 255.878 1.97381 2.85029 0
M  V30 2908 C 254.939 3.21295 2.84724 0
M  V30 2909 C 254.172 3.37108 4.13756 0
M  V30 2910 O 254.395 2.5765 5.08893 0
M  V30 2911 O 253.329 4.30378 4.20783 0
M  V30 2912 H 257.155 2.75015 1.28842 0
M  V30 2913 H 254.74 1.37946 0.573697 0
M  V30 2914 H 256.622 2.09996 3.65349 0
M  V30 2915 H 255.297 1.06322 3.05741 0
M  V30 2916 H 254.204 3.1412 2.03174 0
M  V30 2917 H 255.537 4.12212 2.68965 0
M  V30 2918 N 257.189 -0.644168 1.43834 0
M  V30 2919 C 258.605 -0.960875 1.27434 0
M  V30 2920 C 258.805 -2.00499 0.200618 0
M  V30 2921 O 257.861 -2.49018 -0.417906 0
M  V30 2922 C 259.174 -1.43653 2.64167 0
M  V30 2923 C 260.722 -1.55271 2.71772 0
M  V30 2924 C 261.197 -2.06224 4.08944 0
M  V30 2925 N 262.688 -2.13513 4.11055 0
M  V30 2926 C 263.423 -2.54081 5.14033 0
M  V30 2927 N 262.919 -2.9388 6.27381 0
M  V30 2928 N 264.712 -2.54101 5.01387 0
M  V30 2929 H 256.863 0.0465779 2.12349 0
M  V30 2930 H 259.126 -0.0417638 0.94708 0
M  V30 2931 H 258.832 -0.743706 3.43747 0
M  V30 2932 H 258.706 -2.40993 2.90176 0
M  V30 2933 H 261.093 -2.23653 1.92519 0
M  V30 2934 H 261.174 -0.563395 2.49519 0
M  V30 2935 H 260.818 -1.38441 4.88668 0
M  V30 2936 H 260.748 -3.06003 4.28567 0
M  V30 2937 H 263.239 -1.85493 3.29242 0
M  V30 2938 H 263.552 -3.2361 7.01781 0
M  V30 2939 H 261.897 -2.91663 6.30839 0
M  V30 2940 H 265.088 -2.22391 4.11898 0
M  V30 2941 H 265.261 -2.85394 5.81768 0
M  V30 2942 N 258.668 -1.30515 -0.883378 0
M  V30 2943 C 260.084 -1.08881 -1.16692 0
M  V30 2944 C 260.284 0.149409 -2.00945 0
M  V30 2945 O 259.34 0.84257 -2.38027 0
M  V30 2946 C 260.653 -2.35319 -1.87204 0
M  V30 2947 C 262.201 -2.40799 -1.99962 0
M  V30 2948 C 262.676 -3.67083 -2.73887 0
M  V30 2949 N 264.167 -3.679 -2.81432 0
M  V30 2950 C 264.902 -4.62303 -3.3921 0
M  V30 2951 N 264.398 -5.67052 -3.98025 0
M  V30 2952 N 266.191 -4.49845 -3.3704 0
M  V30 2953 H 258.342 -2.09951 -0.321633 0
M  V30 2954 H 260.605 -0.92556 -0.205043 0
M  V30 2955 H 260.311 -3.25689 -1.3274 0
M  V30 2956 H 260.185 -2.44089 -2.87577 0
M  V30 2957 H 262.572 -1.50907 -2.53597 0
M  V30 2958 H 262.653 -2.36003 -0.98673 0
M  V30 2959 H 262.297 -4.57334 -2.20925 0
M  V30 2960 H 262.227 -3.69141 -3.75556 0
M  V30 2961 H 264.718 -2.92171 -2.39676 0
M  V30 2962 H 265.031 -6.35184 -4.40183 0
M  V30 2963 H 263.376 -5.70842 -3.96439 0
M  V30 2964 H 266.567 -3.67194 -2.90321 0
M  V30 2965 H 266.74 -5.23597 -3.81772 0
M  V30 2966 N 260.146 1.09593 -1.13257 0
M  V30 2967 C 261.562 1.33775 -0.870423 0
M  V30 2968 C 261.762 1.95327 0.494926 0
M  V30 2969 O 260.818 2.19853 1.2418 0
M  V30 2970 C 262.131 2.25106 -1.99369 0
M  V30 2971 C 263.679 2.3862 -2.02558 0
M  V30 2972 C 264.154 3.33285 -3.14142 0
M  V30 2973 N 265.645 3.40857 -3.13641 0
M  V30 2974 C 266.38 4.14101 -3.96621 0
M  V30 2975 N 265.876 4.90157 -4.8961 0
M  V30 2976 N 267.669 4.09808 -3.84726 0
M  V30 2977 H 259.82 0.680136 -2.01216 0
M  V30 2978 H 262.083 0.362133 -0.876107 0
M  V30 2979 H 261.789 1.87103 -2.97801 0
M  V30 2980 H 261.663 3.25481 -1.90635 0
M  V30 2981 H 264.05 2.75887 -1.0474 0
M  V30 2982 H 264.131 1.38028 -2.15364 0
M  V30 2983 H 263.775 2.96741 -4.12198 0
M  V30 2984 H 263.705 4.33776 -2.98574 0
M  V30 2985 H 266.196 2.86624 -2.46282 0
M  V30 2986 H 266.509 5.4347 -5.49418 0
M  V30 2987 H 264.854 4.89251 -4.93617 0
M  V30 2988 H 268.045 3.4949 -3.11408 0
M  V30 2989 H 268.218 4.66629 -4.49623 0
M  V30 2990 N 261.624 0.925811 1.2754 0
M  V30 2991 C 262.534 0.428993 2.30644 0
M  V30 2992 C 263.55 -0.489387 1.66976 0
M  V30 2993 O 264.726 -0.372653 1.97922 0
M  V30 2994 C 261.791 -0.311967 3.45294 0
M  V30 2995 C 260.852 0.641098 4.24486 0
M  V30 2996 C 260.085 -0.0645955 5.33661 0
M  V30 2997 O 260.308 -1.28429 5.55754 0
M  V30 2998 O 259.242 0.606265 5.98839 0
M  V30 2999 H 263.068 1.28504 2.75173 0
M  V30 3000 H 260.653 0.691086 1.32455 0
M  V30 3001 H 262.535 -0.729972 4.15029 0
M  V30 3002 H 261.21 -1.14365 3.02824 0
M  V30 3003 H 260.117 1.10874 3.57292 0
M  V30 3004 H 261.45 1.43995 4.70666 0
M  V30 3005 N 263.102 -1.41638 0.69111 0
M  V30 3006 C 264.012 -2.34588 0.0233487 0
M  V30 3007 C 265.028 -1.55987 -0.770984 0
M  V30 3008 O 266.204 -1.88486 -0.709569 0
M  V30 3009 C 263.269 -3.34684 -0.904851 0
M  V30 3010 C 262.33 -4.29176 -0.103225 0
M  V30 3011 C 261.563 -5.2449 -0.987216 0
M  V30 3012 O 261.786 -5.2514 -2.22674 0
M  V30 3013 O 260.72 -6.00295 -0.439281 0
M  V30 3014 H 264.546 -2.93261 0.789416 0
M  V30 3015 H 262.131 -1.42417 0.45142 0
M  V30 3016 H 264.013 -3.96133 -1.43724 0
M  V30 3017 H 262.688 -2.78461 -1.65049 0
M  V30 3018 H 261.595 -3.71089 0.473655 0
M  V30 3019 H 262.928 -4.88484 0.60365 0
M  V30 3020 N 264.58 -0.43555 -1.51462 0
M  V30 3021 C 265.51 0.367376 -2.30592 0
M  V30 3022 C 266.491 1.02263 -1.35928 0
M  V30 3023 O 267.676 1.02661 -1.64847 0
M  V30 3024 C 264.806 1.46983 -3.14664 0
M  V30 3025 C 263.76 0.938161 -4.17591 0
M  V30 3026 C 263.086 2.13622 -4.90173 0
M  V30 3027 C 264.386 -0.0261621 -5.22293 0
M  V30 3028 H 266.08 -0.292969 -2.97963 0
M  V30 3029 H 263.626 -0.14234 -1.43295 0
M  V30 3030 H 265.579 2.03873 -3.688 0
M  V30 3031 H 264.303 2.15843 -2.4511 0
M  V30 3032 H 262.962 0.391481 -3.64504 0
M  V30 3033 H 262.61 2.81098 -4.17124 0
M  V30 3034 H 262.31 1.78688 -5.59772 0
M  V30 3035 H 263.834 2.7107 -5.47132 0
M  V30 3036 H 265.248 0.452384 -5.71512 0
M  V30 3037 H 263.645 -0.287992 -5.99409 0
M  V30 3038 H 264.715 -0.963391 -4.75233 0
M  V30 3039 N 266.058 1.56714 -0.166846 0
M  V30 3040 C 267.288 2.00828 0.48494 0
M  V30 3041 C 267.696 1.04612 1.57648 0
M  V30 3042 O 267.039 0.0383201 1.8366 0
M  V30 3043 C 267.101 3.4137 1.12723 0
M  V30 3044 C 266.765 4.56654 0.177886 0
M  V30 3045 C 267.762 5.16402 -0.60207 0
M  V30 3046 C 265.447 5.02244 0.0750139 0
M  V30 3047 C 267.441 6.20167 -1.47215 0
M  V30 3048 C 265.128 6.05859 -0.798649 0
M  V30 3049 C 266.126 6.64691 -1.57082 0
M  V30 3050 O 265.814 7.66297 -2.42989 0
M  V30 3051 H 265.546 0.663587 0.128953 0
M  V30 3052 H 268.1 2.03692 -0.264365 0
M  V30 3053 H 266.33 3.35406 1.92457 0
M  V30 3054 H 268.019 3.69466 1.68076 0
M  V30 3055 H 268.785 4.82065 -0.53274 0
M  V30 3056 H 264.664 4.56167 0.665812 0
M  V30 3057 H 268.208 6.66016 -2.07531 0
M  V30 3058 H 264.105 6.39621 -0.869199 0
M  V30 3059 H 264.873 7.83601 -2.36455 0
M  V30 3060 N 267.536 -0.106894 1.57237 0
M  V30 3061 C 268.952 -0.46078 1.52804 0
M  V30 3062 C 269.152 -1.81184 0.881746 0
M  V30 3063 O 268.208 -2.48102 0.469224 0
M  V30 3064 C 269.521 -0.434127 2.9755 0
M  V30 3065 C 271.069 -0.516821 3.08704 0
M  V30 3066 C 271.544 -0.520436 4.55033 0
M  V30 3067 N 273.035 -0.58153 4.59535 0
M  V30 3068 C 273.77 -0.605973 5.70189 0
M  V30 3069 N 273.266 -0.587331 6.90306 0
M  V30 3070 N 275.059 -0.649895 5.5833 0
M  V30 3071 H 267.21 0.778203 1.9763 0
M  V30 3072 H 269.473 0.288403 0.903066 0
M  V30 3073 H 269.179 0.491197 3.48253 0
M  V30 3074 H 269.053 -1.25748 3.55622 0
M  V30 3075 H 271.44 -1.43256 2.57995 0
M  V30 3076 H 271.521 0.334449 2.53604 0
M  V30 3077 H 271.165 0.391313 5.0639 0
M  V30 3078 H 271.095 -1.38876 5.07958 0
M  V30 3079 H 273.586 -0.60161 3.73081 0
M  V30 3080 H 273.899 -0.60894 7.70397 0
M  V30 3081 H 272.244 -0.554564 6.92784 0
M  V30 3082 H 275.435 -0.661907 4.63397 0
M  V30 3083 H 275.608 -0.665476 6.44574 0
M  V30 3084 N 269.014 -1.53014 -0.377408 0
M  V30 3085 C 269.946 -1.74884 -1.48149 0
M  V30 3086 C 270.959 -0.629433 -1.5014 0
M  V30 3087 O 272.148 -0.905416 -1.53833 0
M  V30 3088 C 269.248 -1.80299 -2.86959 0
M  V30 3089 C 268.421 -3.09776 -3.08801 0
M  V30 3090 C 267.48 -3.06586 -4.27658 0
M  V30 3091 O 266.506 -3.80419 -4.23403 0
M  V30 3092 N 267.708 -2.26578 -5.34455 0
M  V30 3093 H 270.473 -2.70147 -1.29771 0
M  V30 3094 H 268.034 -1.51646 -0.56703 0
M  V30 3095 H 270.026 -1.75657 -3.64591 0
M  V30 3096 H 268.596 -0.92372 -2.98641 0
M  V30 3097 H 267.816 -3.27815 -2.18931 0
M  V30 3098 H 269.104 -3.95366 -3.20255 0
M  V30 3099 H 268.502 -1.66081 -5.40771 0
M  V30 3100 H 267.059 -2.27766 -6.10709 0
M  V30 3101 N 270.492 0.636531 -1.44174 0
M  V30 3102 C 271.722 1.42146 -1.49927 0
M  V30 3103 C 272.13 1.88812 -0.121063 0
M  V30 3104 O 271.473 1.61126 0.882267 0
M  V30 3105 C 271.535 2.67883 -2.39748 0
M  V30 3106 C 271.199 2.43048 -3.8701 0
M  V30 3107 C 272.196 2.05216 -4.77684 0
M  V30 3108 C 269.881 2.56856 -4.3166 0
M  V30 3109 C 271.875 1.81512 -6.11009 0
M  V30 3110 C 269.562 2.32766 -5.65034 0
M  V30 3111 C 270.56 1.95152 -6.54526 0
M  V30 3112 O 270.248 1.71326 -7.85431 0
M  V30 3113 H 269.98 0.442567 -0.51099 0
M  V30 3114 H 272.534 0.786158 -1.8976 0
M  V30 3115 H 270.764 3.34032 -1.94832 0
M  V30 3116 H 272.453 3.29874 -2.36513 0
M  V30 3117 H 273.219 1.94111 -4.44462 0
M  V30 3118 H 269.098 2.85104 -3.62266 0
M  V30 3119 H 272.642 1.52077 -6.80822 0
M  V30 3120 H 268.539 2.43479 -5.97819 0
M  V30 3121 H 269.307 1.85616 -7.97176 0
M  V30 3122 N 271.97 1.30982 0.876444 0
M  V30 3123 C 273.217 1.20296 1.62896 0
M  V30 3124 C 273.545 -0.240395 1.93009 0
M  V30 3125 O 272.8 -1.18733 1.55567 0
M  V30 3126 C 273.099 1.98572 2.9716 0
M  V30 3127 C 272.765 3.48125 2.86566 0
M  V30 3128 C 271.427 3.88905 2.83383 0
M  V30 3129 C 273.779 4.43322 2.74071 0
M  V30 3130 C 271.107 5.2316 2.65556 0
M  V30 3131 C 273.459 5.77695 2.57781 0
M  V30 3132 C 272.123 6.17704 2.52979 0
M  V30 3133 H 271.393 0.440193 0.59608 0
M  V30 3134 H 274.04 1.62177 1.01837 0
M  V30 3135 H 272.345 1.49352 3.62217 0
M  V30 3136 H 274.042 1.8769 3.54364 0
M  V30 3137 H 270.632 3.15723 2.89856 0
M  V30 3138 H 274.816 4.12752 2.75589 0
M  V30 3139 H 270.072 5.53241 2.60259 0
M  V30 3140 H 274.246 6.51091 2.47089 0
M  V30 3141 H 271.873 7.21678 2.38924 0
M  V30 3142 N 273.449 -1.08991 1.13837 0
M  V30 3143 C 274.359 -2.19301 0.833333 0
M  V30 3144 C 275.375 -1.73026 -0.183847 0
M  V30 3145 O 276.551 -2.01395 -0.0138092 0
M  V30 3146 C 273.616 -3.45323 0.308651 0
M  V30 3147 C 272.677 -4.06255 1.38764 0
M  V30 3148 C 271.91 -5.26262 0.887896 0
M  V30 3149 O 272.133 -5.69747 -0.27287 0
M  V30 3150 O 271.067 -5.78435 1.66421 0
M  V30 3151 H 274.893 -2.47854 1.75506 0
M  V30 3152 H 272.478 -1.18012 0.916166 0
M  V30 3153 H 274.36 -4.21394 0.0216739 0
M  V30 3154 H 273.035 -3.18362 -0.585431 0
M  V30 3155 H 271.942 -3.318 1.72799 0
M  V30 3156 H 273.275 -4.37452 2.25602 0
M  V30 3157 N 274.927 -0.932562 -1.27047 0
M  V30 3158 C 275.837 -0.441219 -2.30414 0
M  V30 3159 C 276.853 0.480525 -1.67233 0
M  V30 3160 O 278.029 0.362151 -1.98117 0
M  V30 3161 C 275.094 0.293651 -3.45454 0
M  V30 3162 C 274.155 -0.663601 -4.2414 0
M  V30 3163 C 273.388 0.0362932 -5.33688 0
M  V30 3164 O 273.611 1.2548 -5.56427 0
M  V30 3165 O 272.545 -0.638015 -5.98509 0
M  V30 3166 H 276.371 -1.29962 -2.74488 0
M  V30 3167 H 273.956 -0.6981 -1.32087 0
M  V30 3168 H 275.838 0.707951 -4.15411 0
M  V30 3169 H 274.513 1.12758 -3.03426 0
M  V30 3170 H 273.42 -1.12768 -3.56699 0
M  V30 3171 H 274.753 -1.46489 -4.69896 0
M  V30 3172 N 276.405 1.4127 -0.698611 0
M  V30 3173 C 277.654 2.00408 -0.227949 0
M  V30 3174 C 277.967 1.55981 1.18023 0
M  V30 3175 O 279.173 2.07699 1.74852 0
M  V30 3176 C 277.629 3.58129 -0.356636 0
M  V30 3177 C 277.237 4.11536 -1.77037 0
M  V30 3178 C 278.981 4.24466 0.0540969 0
M  V30 3179 C 276.888 5.61701 -1.85055 0
M  V30 3180 H 275.818 0.749586 -0.0814657 0
M  V30 3181 H 278.469 1.61713 -0.867249 0
M  V30 3182 H 276.851 3.94442 0.350965 0
M  V30 3183 H 278.025 3.86636 -2.50698 0
M  V30 3184 H 276.34 3.57736 -2.13105 0
M  V30 3185 H 278.937 5.34698 0.0146723 0
M  V30 3186 H 279.28 4.01687 1.09332 0
M  V30 3187 H 279.813 3.93198 -0.603337 0
M  V30 3188 H 276.552 5.89312 -2.8704 0
M  V30 3189 H 276.072 5.88519 -1.15783 0
M  V30 3190 H 277.751 6.26524 -1.61484 0
M  V30 3191 N 277.883 0.443576 1.51229 0
M  V30 3192 C 278.815 -0.400608 2.25672 0
M  V30 3193 C 279.828 -0.980945 1.29928 0
M  V30 3194 O 281.017 -0.874024 1.55638 0
M  V30 3195 C 278.117 -1.57304 3.00181 0
M  V30 3196 C 277.29 -1.11046 4.23069 0
M  V30 3197 C 276.349 -2.15374 4.80105 0
M  V30 3198 O 275.375 -1.74554 5.41774 0
M  V30 3199 N 276.577 -3.47922 4.64683 0
M  V30 3200 H 279.342 0.23745 2.98758 0
M  V30 3201 H 276.903 0.272809 1.59585 0
M  V30 3202 H 278.895 -2.26733 3.35223 0
M  V30 3203 H 277.465 -2.11632 2.30066 0
M  V30 3204 H 276.685 -0.243019 3.9345 0
M  V30 3205 H 277.973 -0.778888 5.02803 0
M  V30 3206 H 277.371 -3.83815 4.15575 0
M  V30 3207 H 275.928 -4.13228 5.0407 0
M  V30 3208 N 279.361 -1.56624 0.175154 0
M  V30 3209 C 280.777 -1.58571 -0.180966 0
M  V30 3210 C 280.977 -1.19065 -1.6256 0
M  V30 3211 O 280.033 -0.904044 -2.35761 0
M  V30 3212 C 281.346 -3.00522 0.103326 0
M  V30 3213 C 282.894 -3.12972 0.0418426 0
M  V30 3214 C 283.369 -4.57022 0.299175 0
M  V30 3215 N 284.86 -4.62541 0.247086 0
M  V30 3216 C 285.595 -5.71857 0.420318 0
M  V30 3217 N 285.091 -6.89717 0.652816 0
M  V30 3218 N 286.884 -5.60972 0.355957 0
M  V30 3219 H 279.035 -1.80589 1.11809 0
M  V30 3220 H 281.298 -0.837178 0.444788 0
M  V30 3221 H 281.004 -3.33916 1.10422 0
M  V30 3222 H 280.878 -3.72344 -0.603299 0
M  V30 3223 H 283.265 -2.79403 -0.949636 0
M  V30 3224 H 283.346 -2.43578 0.781238 0
M  V30 3225 H 282.99 -4.913 1.28788 0
M  V30 3226 H 282.92 -5.24579 -0.460876 0
M  V30 3227 H 285.411 -3.77829 0.0731895 0
M  V30 3228 H 285.724 -7.68911 0.774347 0
M  V30 3229 H 284.069 -6.91572 0.689476 0
M  V30 3230 H 287.26 -4.67773 0.174882 0
M  V30 3231 H 287.433 -6.46111 0.494388 0
M  V30 3232 N 280.839 0.0985539 -1.57292 0
M  V30 3233 C 282.255 0.45267 -1.53046 0
M  V30 3234 C 282.455 1.80713 -0.891342 0
M  V30 3235 O 281.511 2.4785 -0.482375 0
M  V30 3236 C 282.824 0.418341 -2.97776 0
M  V30 3237 C 284.372 0.500443 -3.08973 0
M  V30 3238 C 284.847 0.496297 -4.55303 0
M  V30 3239 N 286.338 0.557151 -4.59837 0
M  V30 3240 C 287.073 0.575726 -5.70502 0
M  V30 3241 N 286.569 0.550714 -6.90608 0
M  V30 3242 N 288.362 0.620277 -5.58667 0
M  V30 3243 H 280.513 -0.788673 -1.97215 0
M  V30 3244 H 282.776 -0.293188 -0.901524 0
M  V30 3245 H 282.482 -0.509659 -3.47988 0
M  V30 3246 H 282.356 1.2386 -3.56284 0
M  V30 3247 H 284.743 1.41886 -2.58751 0
M  V30 3248 H 284.824 -0.347894 -2.53423 0
M  V30 3249 H 284.468 -0.418162 -5.06176 0
M  V30 3250 H 284.398 1.3618 -5.08687 0
M  V30 3251 H 286.889 0.581816 -3.73394 0
M  V30 3252 H 287.202 0.568075 -7.70709 0
M  V30 3253 H 285.547 0.517816 -6.93068 0
M  V30 3254 H 288.738 0.637322 -4.63741 0
M  V30 3255 H 288.911 0.631283 -6.44918 0
M  V30 3256 N 282.317 1.53212 0.369288 0
M  V30 3257 C 283.564 1.69215 1.11232 0
M  V30 3258 C 283.892 0.442048 1.8941 0
M  V30 3259 O 283.147 -0.575944 1.87033 0
M  V30 3260 C 283.446 2.89101 2.10132 0
M  V30 3261 C 283.112 4.25758 1.48463 0
M  V30 3262 C 281.774 4.6292 1.31372 0
M  V30 3263 C 284.126 5.10757 1.03811 0
M  V30 3264 C 281.454 5.82722 0.68207 0
M  V30 3265 C 283.806 6.31201 0.420487 0
M  V30 3266 C 282.47 6.67079 0.237038 0
M  V30 3267 H 281.74 0.619201 0.407027 0
M  V30 3268 H 284.387 1.87391 0.394552 0
M  V30 3269 H 282.692 2.65421 2.88199 0
M  V30 3270 H 284.389 2.98676 2.6757 0
M  V30 3271 H 280.979 3.96494 1.62758 0
M  V30 3272 H 285.163 4.82599 1.1581 0
M  V30 3273 H 280.419 6.09113 0.528316 0
M  V30 3274 H 284.593 6.96368 0.0662874 0
M  V30 3275 H 282.22 7.59774 -0.254477 0
M  V30 3276 N 283.795 -0.628877 1.44509 0
M  V30 3277 C 285.072 -1.38733 1.37886 0
M  V30 3278 C 285.452 -2.11065 0.0387008 0
M  V30 3279 O 284.8 -2.06476 -0.97878 0
M  V30 3280 C 285.01 -2.35188 2.57852 0
M  V30 3281 C 286.358 -2.9845 3.02014 0
M  V30 3282 O 287.382 -2.45513 2.58073 0
M  V30 3283 O 286.241 -3.94487 3.78209 0
M  V30 3284 H 283.335 -0.621015 0.54614 0
M  V30 3285 H 285.881 -0.653744 1.56602 0
M  V30 3286 H 284.653 -1.80855 3.46998 0
M  V30 3287 H 284.276 -3.1596 2.4136 0
M  V30 3288 N 285.273 -1.31445 -0.869486 0
M  V30 3289 C 286.236 -1.19094 -1.9583 0
M  V30 3290 C 287.236 -0.117906 -1.60367 0
M  V30 3291 O 288.426 -0.367208 -1.70286 0
M  V30 3292 C 285.558 -0.828165 -3.30688 0
M  V30 3293 H 286.751 -2.15842 -2.08212 0
M  V30 3294 H 284.304 -1.15063 -1.05784 0
M  V30 3295 H 285.039 0.138142 -3.24006 0
M  V30 3296 H 284.824 -1.6038 -3.578 0
M  V30 3297 H 286.314 -0.765658 -4.10521 0
M  V30 3298 N 286.751 1.08385 -1.14413 0
M  V30 3299 C 287.661 2.18856 -0.844951 0
M  V30 3300 C 288.677 1.73121 0.174668 0
M  V30 3301 O 289.853 2.014 0.00312857 0
M  V30 3302 C 286.918 3.45155 -0.32696 0
M  V30 3303 C 285.979 4.05513 -1.40916 0
M  V30 3304 C 285.212 5.25784 -0.915793 0
M  V30 3305 O 285.435 5.69884 0.242651 0
M  V30 3306 O 284.369 5.77545 -1.69487 0
M  V30 3307 H 288.195 2.46919 -1.76818 0
M  V30 3308 H 285.78 1.17524 -0.922411 0
M  V30 3309 H 287.662 4.21377 -0.0440211 0
M  V30 3310 H 286.337 3.18668 0.568539 0
M  V30 3311 H 285.244 3.30879 -1.74556 0
M  V30 3312 H 286.577 4.3625 -2.27919 0
M  V30 3313 N 288.23 0.939286 1.26551 0
M  V30 3314 C 289.646 0.641304 1.46149 0
M  V30 3315 C 289.846 -0.805964 1.84679 0
M  V30 3316 O 288.902 -1.58278 1.96734 0
M  V30 3317 C 290.215 1.6011 2.54529 0
M  V30 3318 C 291.763 1.6106 2.68382 0
M  V30 3319 C 292.238 2.55765 3.79932 0
M  V30 3320 N 293.729 2.5404 3.87322 0
M  V30 3321 C 294.464 3.24004 4.73085 0
M  V30 3322 N 293.96 4.03388 5.63249 0
M  V30 3323 N 295.753 3.12965 4.66914 0
M  V30 3324 H 287.904 1.87478 0.998285 0
M  V30 3325 H 290.167 0.805559 0.499779 0
M  V30 3326 H 289.873 2.63412 2.33039 0
M  V30 3327 H 289.747 1.35171 3.52149 0
M  V30 3328 H 292.134 0.584835 2.89247 0
M  V30 3329 H 292.215 1.90053 1.71212 0
M  V30 3330 H 291.859 3.58458 3.5982 0
M  V30 3331 H 291.789 2.24063 4.76554 0
M  V30 3332 H 294.28 1.96396 3.22858 0
M  V30 3333 H 294.593 4.5373 6.25579 0
M  V30 3334 H 292.938 4.07489 5.63008 0
M  V30 3335 H 296.129 2.50432 3.95476 0
M  V30 3336 H 296.302 3.67759 5.33533 0
M  V30 3337 N 289.708 -1.40897 0.706093 0
M  V30 3338 C 291.119 -1.84023 0.315052 0
M  V30 3339 C 291.47 -1.5906 -1.14866 0
M  V30 3340 O 290.595 -1.06651 -1.88293 0
M  V30 3341 C 291.19 -3.34055 0.565038 0
M  V30 3342 C 289.749 -3.7571 0.227806 0
M  V30 3343 C 288.896 -2.64204 0.842122 0
M  V30 3344 H 291.847 -1.303 0.905963 0
M  V30 3345 H 291.868 -3.80107 -0.172843 0
M  V30 3346 H 291.38 -3.52192 1.63042 0
M  V30 3347 H 289.481 -3.63172 -0.832895 0
M  V30 3348 H 289.594 -4.74103 0.690174 0
M  V30 3349 H 287.958 -2.53255 0.270893 0
M  V30 3350 H 288.741 -2.85155 1.91158 0
M  V30 3351 N 291.186 -0.45159 -1.50991 0
M  V30 3352 C 292.432 0.110237 -2.025 0
M  V30 3353 C 292.765 1.41109 -1.33424 0
M  V30 3354 O 292.04 1.89135 -0.453659 0
M  V30 3355 C 292.323 0.314271 -3.58726 0
M  V30 3356 C 292.176 -1.00623 -4.38401 0
M  V30 3357 C 293.495 1.07767 -4.26702 0
M  V30 3358 H 290.614 0.0385897 -0.735989 0
M  V30 3359 H 293.256 -0.593374 -1.80497 0
M  V30 3360 H 291.406 0.913601 -3.77605 0
M  V30 3361 H 293.078 -1.64064 -4.31139 0
M  V30 3362 H 291.321 -1.6075 -4.02917 0
M  V30 3363 H 291.992 -0.817341 -5.45915 0
M  V30 3364 H 294.468 0.56986 -4.12179 0
M  V30 3365 H 293.344 1.18921 -5.35863 0
M  V30 3366 H 293.605 2.10939 -3.88532 0
M  V30 3367 N 292.664 1.56529 -0.183458 0
M  V30 3368 C 293.941 1.88959 0.50536 0
M  V30 3369 C 294.321 1.09523 1.80466 0
M  V30 3370 O 293.669 0.19278 2.27685 0
M  V30 3371 C 293.879 3.41162 0.73547 0
M  V30 3372 C 295.227 4.11155 1.06005 0
M  V30 3373 O 296.251 3.46548 0.823594 0
M  V30 3374 O 295.11 5.25318 1.50675 0
M  V30 3375 H 292.204 0.78441 0.261973 0
M  V30 3376 H 294.75 1.68231 -0.222802 0
M  V30 3377 H 293.522 3.90874 -0.182561 0
M  V30 3378 H 293.145 3.67543 1.51651 0
M  V30 3379 N 294.142 -0.090211 1.57342 0
M  V30 3380 C 295.382 -0.798365 1.88163 0
M  V30 3381 C 295.746 -1.75662 0.775046 0
M  V30 3382 O 296.947 -2.50849 0.965816 0
M  V30 3383 C 295.218 -1.50376 3.24225 0
M  V30 3384 S 296.777 -2.24952 3.76752 0
M  V30 3385 H 293.595 -0.265883 0.659414 0
M  V30 3386 H 296.197 -0.055264 1.95422 0
M  V30 3387 H 294.901 -0.792286 4.0268 0
M  V30 3388 H 294.432 -2.28666 3.20118 0
M  V30 3389 H 296.447 -3.51173 3.5056 0
M  V30 3390 N 295.62 -1.53406 -0.361157 0
M  V30 3391 C 296.845 -1.74024 -1.12829 0
M  V30 3392 C 297.27 -0.470069 -1.82132 0
M  V30 3393 O 296.628 0.57619 -1.719 0
M  V30 3394 C 296.676 -2.90903 -2.13091 0
M  V30 3395 O 295.78 -2.59821 -3.20261 0
M  V30 3396 H 295.121 -0.577804 -0.327168 0
M  V30 3397 H 297.651 -2.00307 -0.41693 0
M  V30 3398 H 297.661 -3.17194 -2.56616 0
M  V30 3399 H 296.336 -3.83034 -1.62042 0
M  V30 3400 H 294.913 -2.44362 -2.81677 0
M  V30 3401 N 297.098 0.621204 -1.44841 0
M  V30 3402 C 298.344 1.3826 -1.48365 0
M  V30 3403 C 298.677 1.93831 -0.119624 0
M  V30 3404 O 297.952 1.74251 0.864111 0
M  V30 3405 C 298.235 2.54058 -2.55199 0
M  V30 3406 C 298.088 2.03772 -4.00995 0
M  V30 3407 C 299.407 3.56225 -2.58442 0
M  V30 3408 H 296.526 0.501374 -0.540179 0
M  V30 3409 H 299.168 0.7015 -1.76576 0
M  V30 3410 H 297.318 3.12162 -2.31274 0
M  V30 3411 H 298.99 1.50423 -4.36086 0
M  V30 3412 H 297.233 1.34876 -4.12299 0
M  V30 3413 H 297.904 2.87185 -4.71411 0
M  V30 3414 H 300.38 3.07939 -2.79844 0
M  V30 3415 H 299.256 4.34756 -3.3508 0
M  V30 3416 H 299.517 4.10949 -1.63013 0
M  V30 3417 N 298.576 1.31904 0.862503 0
M  V30 3418 C 299.825 1.21373 1.61094 0
M  V30 3419 C 300.138 -0.22504 1.94301 0
M  V30 3420 O 301.344 -0.452121 2.67709 0
M  V30 3421 C 299.8 2.12525 2.9045 0
M  V30 3422 C 299.408 3.61441 2.64697 0
M  V30 3423 C 301.152 2.10813 3.68454 0
M  V30 3424 C 299.059 4.44578 3.90006 0
M  V30 3425 H 297.989 0.450705 0.604468 0
M  V30 3426 H 300.64 1.56811 0.953027 0
M  V30 3427 H 299.022 1.69994 3.57656 0
M  V30 3428 H 300.196 4.12264 2.05851 0
M  V30 3429 H 298.511 3.65205 2.00036 0
M  V30 3430 H 301.108 2.70167 4.61426 0
M  V30 3431 H 301.451 1.09713 4.01583 0
M  V30 3432 H 301.984 2.51583 3.08141 0
M  V30 3433 H 298.723 5.46461 3.62023 0
M  V30 3434 H 298.243 3.98508 4.48276 0
M  V30 3435 H 299.922 4.57176 4.5782 0
M  V30 3436 N 300.054 -1.07777 1.14986 0
M  V30 3437 C 301.3 -1.80557 0.923422 0
M  V30 3438 C 301.633 -1.86298 -0.548337 0
M  V30 3439 O 300.908 -1.34354 -1.40639 0
M  V30 3440 C 301.191 -3.25839 1.53299 0
M  V30 3441 C 301.044 -3.28269 3.07505 0
M  V30 3442 C 302.363 -4.22991 1.21518 0
M  V30 3443 H 299.482 -0.655493 0.336894 0
M  V30 3444 H 302.124 -1.26144 1.42083 0
M  V30 3445 H 300.274 -3.72306 1.10999 0
M  V30 3446 H 301.946 -2.90079 3.58681 0
M  V30 3447 H 300.189 -2.67355 3.4162 0
M  V30 3448 H 300.86 -4.30691 3.45266 0
M  V30 3449 H 303.336 -3.84894 1.581 0
M  V30 3450 H 302.212 -5.22945 1.66793 0
M  V30 3451 H 302.473 -4.41904 0.131505 0
M  V30 3452 N 301.532 -0.945985 -1.26051 0
M  V30 3453 C 302.778 -0.597002 -1.93814 0
M  V30 3454 C 303.111 0.862484 -1.73997 0
M  V30 3455 O 302.386 1.61769 -1.07986 0
M  V30 3456 C 302.669 -0.945937 -3.47454 0
M  V30 3457 C 302.522 -2.46052 -3.76535 0
M  V30 3458 C 303.841 -0.464785 -4.37639 0
M  V30 3459 H 300.96 -0.218366 -0.703907 0
M  V30 3460 H 303.602 -1.18107 -1.48831 0
M  V30 3461 H 301.752 -0.448902 -3.85898 0
M  V30 3462 H 303.424 -3.03065 -3.47778 0
M  V30 3463 H 301.667 -2.90194 -3.22444 0
M  V30 3464 H 302.338 -2.65517 -4.83947 0
M  V30 3465 H 304.814 -0.891016 -4.06448 0
M  V30 3466 H 303.69 -0.737712 -5.4392 0
M  V30 3467 H 303.951 0.635274 -4.37512 0
M  V30 3468 N 303.011 1.40521 -0.713556 0
M  V30 3469 C 303.959 2.32549 -0.0485227 0
M  V30 3470 C 304.953 1.51931 0.74922 0
M  V30 3471 O 306.159 1.67745 0.652816 0
M  V30 3472 H 302.534 0.751994 0.00311138 0
M  V30 3473 H 304.505 2.86291 -0.841443 0
M  V30 3474 C 303.254 3.36879 0.860687 0
M  V30 3475 H 302.577 3.98978 0.256246 0
M  V30 3476 H 304.017 4.03772 1.294 0
M  V30 3477 C 302.476 2.72197 1.9852 0
M  V30 3478 O 303.006 2.5837 3.07584 0
M  V30 3479 N 301.212 2.30612 1.76823 0
M  V30 3480 H 300.759 2.42059 0.881217 0
M  V30 3481 H 300.717 1.87672 2.52243 0
M  V30 3482 N 304.489 0.459591 1.5075 0
M  V30 3483 C 305.436 -0.340524 2.28274 0
M  V30 3484 C 306.406 -0.997371 1.32822 0
M  V30 3485 O 307.591 -1.01202 1.61749 0
M  V30 3486 C 304.731 -1.42317 3.14388 0
M  V30 3487 C 303.844 -0.782251 4.24859 0
M  V30 3488 C 302.979 -1.84182 4.98247 0
M  V30 3489 C 302.018 -1.18053 6.00608 0
M  V30 3490 N 301.155 -2.18244 6.67319 0
M  V30 3491 H 305.995 0.326899 2.96202 0
M  V30 3492 H 303.532 0.173057 1.46078 0
M  V30 3493 H 305.49 -2.06241 3.62658 0
M  V30 3494 H 304.12 -2.05992 2.4853 0
M  V30 3495 H 303.172 -0.0307404 3.80388 0
M  V30 3496 H 304.484 -0.259663 4.98124 0
M  V30 3497 H 303.638 -2.55714 5.50177 0
M  V30 3498 H 302.377 -2.39819 4.24662 0
M  V30 3499 H 301.382 -0.450776 5.47949 0
M  V30 3500 H 302.607 -0.631202 6.7616 0
M  V30 3501 H 300.553 -2.72919 5.96533 0
M  V30 3502 H 300.47 -1.70938 7.36421 0
M  V30 3503 H 301.738 -2.89191 7.23871 0
M  V30 3504 N 305.967 -1.56429 0.191757 0
M  V30 3505 C 306.899 -2.16154 -0.762245 0
M  V30 3506 C 307.912 -1.12247 -1.17917 0
M  V30 3507 O 309.101 -1.39353 -1.11548 0
M  V30 3508 C 306.201 -2.70606 -2.04024 0
M  V30 3509 C 305.374 -3.99381 -1.78364 0
M  V30 3510 C 304.433 -4.38692 -2.90578 0
M  V30 3511 O 303.459 -5.06179 -2.6033 0
M  V30 3512 N 304.661 -4.01922 -4.18854 0
M  V30 3513 H 307.426 -2.98643 -0.251526 0
M  V30 3514 H 304.987 -1.61897 0.00967373 0
M  V30 3515 H 306.979 -2.93891 -2.78227 0
M  V30 3516 H 305.549 -1.9259 -2.46227 0
M  V30 3517 H 304.769 -3.84262 -0.879581 0
M  V30 3518 H 306.057 -4.83445 -1.58614 0
M  V30 3519 H 305.455 -3.47631 -4.46283 0
M  V30 3520 H 304.012 -4.30165 -4.89695 0
M  V30 3521 N 307.445 0.0818655 -1.57387 0
M  V30 3522 C 308.673 0.796108 -1.9097 0
M  V30 3523 C 309.088 1.71626 -0.786757 0
M  V30 3524 O 308.445 1.80908 0.240513 0
M  V30 3525 C 308.496 1.59829 -3.24248 0
M  V30 3526 O 308.217 0.715131 -4.32224 0
M  V30 3527 C 309.718 2.41442 -3.7178 0
M  V30 3528 H 306.938 0.22691 -0.631469 0
M  V30 3529 H 309.482 0.0551439 -2.04426 0
M  V30 3530 H 307.637 2.29163 -3.12351 0
M  V30 3531 H 308.051 1.27205 -5.08841 0
M  V30 3532 H 309.525 2.932 -4.67694 0
M  V30 3533 H 310.002 3.2051 -3.00283 0
M  V30 3534 H 310.608 1.77283 -3.86589 0
M  V30 3535 N 308.923 1.53595 0.353017 0
M  V30 3536 C 309.87 1.80919 1.43308 0
M  V30 3537 C 310.84 0.654288 1.5267 0
M  V30 3538 O 312.025 0.897759 1.6836 0
M  V30 3539 C 309.165 2.01605 2.80089 0
M  V30 3540 C 308.278 3.29321 2.79593 0
M  V30 3541 C 307.413 3.40125 4.0803 0
M  V30 3542 C 306.452 4.61826 4.01725 0
M  V30 3543 N 305.589 4.69716 5.21834 0
M  V30 3544 H 310.429 2.73074 1.19308 0
M  V30 3545 H 307.966 1.35263 0.578131 0
M  V30 3546 H 309.924 2.11586 3.59565 0
M  V30 3547 H 308.554 1.12772 3.0246 0
M  V30 3548 H 307.606 3.28229 1.92276 0
M  V30 3549 H 308.918 4.18884 2.70809 0
M  V30 3550 H 308.072 3.49488 4.95927 0
M  V30 3551 H 306.811 2.48601 4.19582 0
M  V30 3552 H 305.816 4.52552 3.12213 0
M  V30 3553 H 307.041 5.54705 3.91764 0
M  V30 3554 H 304.987 3.81097 5.33948 0
M  V30 3555 H 304.904 5.53202 5.1527 0
M  V30 3556 H 306.172 4.83376 6.11529 0
M  V30 3557 N 310.401 -0.613514 1.45168 0
M  V30 3558 C 311.678 -1.37263 1.39349 0
M  V30 3559 C 312.058 -2.11012 0.0610848 0
M  V30 3560 O 311.406 -2.07502 -0.956825 0
M  V30 3561 C 311.616 -2.3244 2.60332 0
M  V30 3562 C 312.964 -2.9523 3.05163 0
M  V30 3563 O 313.988 -2.42762 2.60663 0
M  V30 3564 O 312.847 -3.90454 3.82372 0
M  V30 3565 H 309.941 -0.615188 0.552696 0
M  V30 3566 H 312.487 -0.637097 1.57287 0
M  V30 3567 H 311.259 -1.77164 3.48896 0
M  V30 3568 H 310.882 -3.13383 2.44698 0
M  V30 3569 N 311.879 -1.3236 -0.855495 0
M  V30 3570 C 313.109 -1.25688 -1.6397 0
M  V30 3571 C 313.517 0.177592 -1.88365 0
M  V30 3572 O 312.86 1.12485 -1.45234 0
M  V30 3573 C 312.922 -1.94602 -3.02275 0
M  V30 3574 C 312.586 -3.43937 -3.00926 0
M  V30 3575 C 313.583 -4.39435 -2.77835 0
M  V30 3576 C 311.268 -3.85858 -3.21588 0
M  V30 3577 C 313.262 -5.74829 -2.75409 0
M  V30 3578 C 310.949 -5.21361 -3.18789 0
M  V30 3579 C 311.947 -6.15658 -2.95727 0
M  V30 3580 O 311.635 -7.48681 -2.928 0
M  V30 3581 H 311.367 -0.434972 -0.51747 0
M  V30 3582 H 313.921 -1.75023 -1.075 0
M  V30 3583 H 312.151 -1.39836 -3.60531 0
M  V30 3584 H 313.84 -1.81651 -3.62985 0
M  V30 3585 H 314.606 -4.08374 -2.6164 0
M  V30 3586 H 310.485 -3.12883 -3.38564 0
M  V30 3587 H 314.029 -6.48404 -2.57328 0
M  V30 3588 H 309.926 -5.52052 -3.34528 0
M  V30 3589 H 310.694 -7.5803 -3.0876 0
M  V30 3590 N 313.357 1.07166 -1.15556 0
M  V30 3591 C 314.32 2.12589 -0.856644 0
M  V30 3592 C 315.32 1.6015 0.14444 0
M  V30 3593 O 316.51 1.7399 -0.0854163 0
M  V30 3594 C 313.642 3.39753 -0.279405 0
M  V30 3595 H 314.835 2.40539 -1.79112 0
M  V30 3596 H 312.388 1.23086 -0.963298 0
M  V30 3597 H 313.123 3.17447 0.663174 0
M  V30 3598 H 312.908 3.79117 -1.00063 0
M  V30 3599 H 314.398 4.17507 -0.0879113 0
M  V30 3600 N 314.835 0.952656 1.25548 0
M  V30 3601 C 315.745 0.47782 2.29682 0
M  V30 3602 C 316.761 -0.453859 1.67977 0
M  V30 3603 O 317.937 -0.330587 1.98668 0
M  V30 3604 C 315.002 -0.238655 3.45878 0
M  V30 3605 C 314.063 0.730994 4.23031 0
M  V30 3606 C 313.296 0.0486165 5.33678 0
M  V30 3607 O 313.519 -1.16612 5.58353 0
M  V30 3608 O 312.453 0.733152 5.97418 0
M  V30 3609 H 316.279 1.34312 2.72386 0
M  V30 3610 H 313.864 0.719026 1.30959 0
M  V30 3611 H 315.746 -0.641774 4.16484 0
M  V30 3612 H 314.421 -1.07916 3.05181 0
M  V30 3613 H 313.328 1.18428 3.5486 0
M  V30 3614 H 314.661 1.53946 4.67506 0
M  V30 3615 N 316.313 -1.40141 0.720998 0
M  V30 3616 C 317.538 -2.05618 0.271258 0
M  V30 3617 C 317.963 -1.53978 -1.08039 0
M  V30 3618 O 317.321 -0.677463 -1.68167 0
M  V30 3619 C 317.369 -3.59609 0.267197 0
M  V30 3620 O 316.473 -4.05526 -0.749814 0
M  V30 3621 H 315.814 -0.651904 0.126162 0
M  V30 3622 H 318.344 -1.79439 0.982997 0
M  V30 3623 H 318.354 -4.0786 0.106744 0
M  V30 3624 H 317.029 -3.96559 1.25354 0
M  V30 3625 H 315.606 -3.68722 -0.556644 0
M  V30 3626 N 317.792 -0.46758 -1.50504 0
M  V30 3627 C 319.038 0.0887532 -2.02606 0
M  V30 3628 C 319.371 1.39686 -1.34913 0
M  V30 3629 O 318.646 1.88644 -0.473694 0
M  V30 3630 C 318.929 0.276206 -3.59039 0
M  V30 3631 C 318.782 -1.05267 -4.37309 0
M  V30 3632 C 320.101 1.03235 -4.27821 0
M  V30 3633 H 317.22 0.0307814 -0.736357 0
M  V30 3634 H 319.862 -0.612485 -1.79857 0
M  V30 3635 H 318.012 0.8735 -3.78553 0
M  V30 3636 H 319.684 -1.68628 -4.29374 0
M  V30 3637 H 317.927 -1.65015 -4.01189 0
M  V30 3638 H 318.598 -0.875197 -5.45018 0
M  V30 3639 H 321.074 0.526111 -4.12761 0
M  V30 3640 H 319.95 1.1323 -5.37094 0
M  V30 3641 H 320.211 2.06806 -3.90748 0
M  V30 3642 N 319.27 1.56325 -0.20005 0
M  V30 3643 C 320.518 1.97329 0.436547 0
M  V30 3644 C 320.839 1.08826 1.61808 0
M  V30 3645 O 320.109 0.160604 1.95241 0
M  V30 3646 H 318.689 0.728714 0.164272 0
M  V30 3647 H 321.351 1.92761 -0.287937 0
M  V30 3648 H 320.447 3.02264 0.777353 0
M  V30 3649 N 320.748 -0.0735177 1.57428 0
M  V30 3650 C 322.164 -0.428264 1.53747 0
M  V30 3651 C 322.364 -1.79272 0.91998 0
M  V30 3652 O 321.42 -2.47051 0.521745 0
M  V30 3653 C 322.733 -0.370914 2.98404 0
M  V30 3654 C 324.281 -0.451224 3.0973 0
M  V30 3655 C 324.756 -0.4238 4.56035 0
M  V30 3656 N 326.247 -0.483925 4.60665 0
M  V30 3657 C 326.982 -0.484891 5.71346 0
M  V30 3658 N 326.478 -0.440775 6.91396 0
M  V30 3659 N 328.271 -0.531319 5.59583 0
M  V30 3660 H 320.422 0.819949 1.95935 0
M  V30 3661 H 322.685 0.307493 0.896745 0
M  V30 3662 H 322.391 0.564956 3.47133 0
M  V30 3663 H 322.265 -1.18176 3.5821 0
M  V30 3664 H 324.652 -1.37752 2.60976 0
M  V30 3665 H 324.733 0.388167 2.52838 0
M  V30 3666 H 324.377 0.498638 5.05446 0
M  V30 3667 H 324.307 -1.2807 5.10789 0
M  V30 3668 H 326.798 -0.522338 3.74273 0
M  V30 3669 H 327.111 -0.44539 7.71515 0
M  V30 3670 H 325.456 -0.40749 6.93804 0
M  V30 3671 H 328.647 -0.563464 4.64696 0
M  V30 3672 H 328.82 -0.528603 6.4584 0
M  V30 3673 N 322.226 -1.5378 -0.344866 0
M  V30 3674 C 323.173 -1.81676 -1.42346 0
M  V30 3675 C 324.143 -0.662376 -1.52321 0
M  V30 3676 O 325.328 -0.906675 -1.67881 0
M  V30 3677 C 322.468 -2.03087 -2.79015 0
M  V30 3678 C 321.581 -3.30799 -2.77842 0
M  V30 3679 C 320.716 -3.42285 -4.0622 0
M  V30 3680 C 319.755 -4.6395 -3.9927 0
M  V30 3681 N 318.892 -4.72477 -5.19336 0
M  V30 3682 H 323.732 -2.73703 -1.17858 0
M  V30 3683 H 321.269 -1.35568 -0.570949 0
M  V30 3684 H 323.227 -2.1349 -3.58438 0
M  V30 3685 H 321.857 -1.14375 -3.01858 0
M  V30 3686 H 320.909 -3.29244 -1.90533 0
M  V30 3687 H 322.221 -4.20314 -2.68584 0
M  V30 3688 H 321.375 -3.52113 -4.94066 0
M  V30 3689 H 320.114 -2.50823 -4.18258 0
M  V30 3690 H 319.119 -4.54201 -3.09809 0
M  V30 3691 H 320.344 -5.56775 -3.88817 0
M  V30 3692 H 318.29 -3.83924 -5.3192 0
M  V30 3693 H 318.207 -5.55927 -5.12329 0
M  V30 3694 H 319.475 -4.86613 -6.08957 0
M  V30 3695 N 323.704 0.605807 -1.45491 0
M  V30 3696 C 324.95 1.36679 -1.49823 0
M  V30 3697 C 325.283 1.93693 -0.140175 0
M  V30 3698 O 324.558 1.75158 0.845581 0
M  V30 3699 C 324.841 2.51337 -2.57879 0
M  V30 3700 C 324.694 1.99508 -4.03134 0
M  V30 3701 C 326.013 3.53463 -2.62205 0
M  V30 3702 H 323.132 0.495617 -0.545466 0
M  V30 3703 H 325.774 0.682732 -1.7731 0
M  V30 3704 H 323.924 3.09691 -2.34571 0
M  V30 3705 H 325.596 1.45789 -4.37656 0
M  V30 3706 H 323.839 1.30496 -4.13707 0
M  V30 3707 H 324.51 2.82169 -4.74431 0
M  V30 3708 H 326.986 3.04953 -2.83095 0
M  V30 3709 H 325.862 4.31178 -3.39672 0
M  V30 3710 H 326.123 4.09197 -1.67363 0
M  V30 3711 N 325.182 1.32811 0.848464 0
M  V30 3712 C 326.598 1.11937 1.13764 0
M  V30 3713 C 326.798 -0.0960789 2.01271 0
M  V30 3714 O 325.854 -0.779165 2.40178 0
M  V30 3715 C 327.167 2.402 1.809 0
M  V30 3716 C 328.715 2.46016 1.93508 0
M  V30 3717 C 329.19 3.74215 2.64059 0
M  V30 3718 N 330.681 3.75232 2.71579 0
M  V30 3719 C 331.416 4.71134 3.26833 0
M  V30 3720 N 330.912 5.77406 3.8285 0
M  V30 3721 N 332.705 4.58623 3.24995 0
M  V30 3722 H 324.856 2.1073 0.265855 0
M  V30 3723 H 327.119 0.930671 0.180431 0
M  V30 3724 H 326.825 3.29093 1.24058 0
M  V30 3725 H 326.699 2.51628 2.81004 0
M  V30 3726 H 329.086 1.57577 2.49506 0
M  V30 3727 H 329.167 2.38536 0.923811 0
M  V30 3728 H 328.811 4.63031 2.08722 0
M  V30 3729 H 328.741 3.78968 3.65637 0
M  V30 3730 H 331.232 2.98423 2.31845 0
M  V30 3731 H 331.545 6.46632 4.23187 0
M  V30 3732 H 329.89 5.81152 3.81165 0
M  V30 3733 H 333.081 3.74762 2.80484 0
M  V30 3734 H 333.254 5.33535 3.67756 0
M  V30 3735 N 326.66 -1.06551 1.16123 0
M  V30 3736 C 327.937 -1.76097 0.85142 0
M  V30 3737 C 328.317 -2.00802 -0.6513 0
M  V30 3738 O 327.665 -1.63302 -1.59827 0
M  V30 3739 C 327.875 -3.06384 1.67122 0
M  V30 3740 C 329.223 -3.80585 1.88255 0
M  V30 3741 O 330.247 -3.16218 1.63966 0
M  V30 3742 O 329.106 -4.96212 2.2899 0
M  V30 3743 H 326.2 -0.765102 0.313923 0
M  V30 3744 H 328.746 -1.12844 1.26745 0
M  V30 3745 H 327.518 -2.84071 2.69108 0
M  V30 3746 H 327.141 -3.77371 1.25206 0
M  V30 3747 N 328.138 -0.959301 -1.25041 0
M  V30 3748 C 329.068 -0.501388 -2.28053 0
M  V30 3749 C 330.049 0.454673 -1.63911 0
M  V30 3750 O 331.234 0.352618 -1.90972 0
M  V30 3751 C 328.364 0.217224 -3.4662 0
M  V30 3752 C 327.318 -0.654034 -4.22973 0
M  V30 3753 C 326.644 0.195589 -5.34342 0
M  V30 3754 C 327.944 -1.93447 -4.85155 0
M  V30 3755 H 329.638 -1.36238 -2.66608 0
M  V30 3756 H 327.184 -0.656534 -1.28163 0
M  V30 3757 H 329.137 0.548732 -4.17812 0
M  V30 3758 H 327.861 1.1125 -3.07068 0
M  V30 3759 H 326.52 -0.968693 -3.5357 0
M  V30 3760 H 326.168 1.09076 -4.91031 0
M  V30 3761 H 325.868 -0.384091 -5.86343 0
M  V30 3762 H 327.392 0.521958 -6.08365 0
M  V30 3763 H 328.806 -1.66908 -5.48466 0
M  V30 3764 H 327.203 -2.46018 -5.47353 0
M  V30 3765 H 328.273 -2.63466 -4.07079 0
M  V30 3766 N 329.616 1.39756 -0.72842 0
M  V30 3767 C 330.864 2.00248 -0.272946 0
M  V30 3768 C 331.185 1.58077 1.14178 0
M  V30 3769 O 330.455 0.826014 1.77634 0
M  V30 3770 H 329.035 0.740554 -0.0979247 0
M  V30 3771 H 331.697 1.70903 -0.936912 0
M  V30 3772 H 330.793 3.10495 -0.316142 0
M  V30 3773 N 331.094 0.475555 1.50254 0
M  V30 3774 C 332.027 -0.362381 2.25304 0
M  V30 3775 C 333.005 -0.992393 1.28803 0
M  V30 3776 O 334.189 -1.02746 1.58036 0
M  V30 3777 C 331.316 -1.50813 3.03271 0
M  V30 3778 C 330.362 -0.995044 4.1473 0
M  V30 3779 S 331.195 0.0938436 5.35418 0
M  V30 3780 C 332.351 -1.05567 6.16933 0
M  V30 3781 H 332.584 0.274686 2.96028 0
M  V30 3782 H 330.117 0.260495 1.52187 0
M  V30 3783 H 332.075 -2.16476 3.48781 0
M  V30 3784 H 330.736 -2.11672 2.32064 0
M  V30 3785 H 329.929 -1.85293 4.68703 0
M  V30 3786 H 329.531 -0.416052 3.71679 0
M  V30 3787 H 331.823 -1.96636 6.48337 0
M  V30 3788 H 332.766 -0.555109 7.05921 0
M  V30 3789 H 333.174 -1.31151 5.49053 0
M  V30 3790 N 332.573 -1.56217 0.208337 0
M  V30 3791 C 333.819 -1.98242 -0.427552 0
M  V30 3792 C 334.152 -1.09554 -1.60348 0
M  V30 3793 O 333.427 -0.15035 -1.93918 0
M  V30 3794 C 333.71 -3.4931 -0.874907 0
M  V30 3795 C 333.563 -4.48773 0.303751 0
M  V30 3796 C 334.882 -4.04424 -1.73577 0
M  V30 3797 H 332.001 -0.720744 -0.153936 0
M  V30 3798 H 334.643 -1.87586 0.30192 0
M  V30 3799 H 332.793 -3.58522 -1.49648 0
M  V30 3800 H 334.465 -4.51586 0.941682 0
M  V30 3801 H 332.708 -4.23194 0.953375 0
M  V30 3802 H 333.379 -5.51976 -0.0519883 0
M  V30 3803 H 335.855 -3.98075 -1.21143 0
M  V30 3804 H 334.731 -5.1047 -2.01771 0
M  V30 3805 H 334.992 -3.50494 -2.69456 0
M  V30 3806 N 334.051 0.0651679 -1.57465 0
M  V30 3807 C 335.297 0.764193 -1.87851 0
M  V30 3808 C 335.63 1.76889 -0.801495 0
M  V30 3809 O 334.905 1.93594 0.187528 0
M  V30 3810 C 335.188 1.46625 -3.28897 0
M  V30 3811 C 335.041 0.477515 -4.47258 0
M  V30 3812 C 336.36 2.4095 -3.68281 0
M  V30 3813 H 333.479 0.276351 -0.683227 0
M  V30 3814 H 336.121 0.0272868 -1.8998 0
M  V30 3815 H 334.271 2.09438 -3.27212 0
M  V30 3816 H 335.943 -0.145922 -4.61069 0
M  V30 3817 H 334.186 -0.206576 -4.33308 0
M  V30 3818 H 334.857 1.0065 -5.42746 0
M  V30 3819 H 337.333 1.88209 -3.71102 0
M  V30 3820 H 336.209 2.87072 -4.67847 0
M  V30 3821 H 336.47 3.26049 -2.98571 0
M  V30 3822 N 335.529 1.53961 0.336706 0
M  V30 3823 C 336.806 1.62171 1.09361 0
M  V30 3824 C 337.186 0.447263 2.06307 0
M  V30 3825 O 336.534 -0.559802 2.21537 0
M  V30 3826 C 336.744 2.98565 1.80721 0
M  V30 3827 C 338.092 3.54157 2.34218 0
M  V30 3828 O 339.116 3.00784 1.90807 0
M  V30 3829 O 337.975 4.47528 3.13657 0
M  V30 3830 H 335.069 0.6562 0.503319 0
M  V30 3831 H 337.615 1.66307 0.33765 0
M  V30 3832 H 336.387 3.75482 1.10132 0
M  V30 3833 H 336.01 2.9805 2.63158 0
M  V30 3834 N 337.007 -0.598083 1.45811 0
M  V30 3835 C 337.937 -1.71873 1.58057 0
M  V30 3836 C 338.918 -1.64533 0.431615 0
M  V30 3837 O 340.103 -1.82787 0.65595 0
M  V30 3838 C 337.233 -3.10495 1.55597 0
M  V30 3839 C 336.187 -3.32654 2.69305 0
M  V30 3840 C 335.513 -4.71646 2.51902 0
M  V30 3841 C 336.813 -3.21981 4.11248 0
M  V30 3842 H 338.507 -1.61881 2.51863 0
M  V30 3843 H 336.053 -0.777372 1.21214 0
M  V30 3844 H 338.006 -3.88699 1.6276 0
M  V30 3845 H 336.73 -3.2135 0.583255 0
M  V30 3846 H 335.389 -2.56843 2.61586 0
M  V30 3847 H 335.037 -4.79246 1.52748 0
M  V30 3848 H 334.737 -4.87426 3.2816 0
M  V30 3849 H 336.261 -5.52038 2.60933 0
M  V30 3850 H 337.675 -3.90049 4.20161 0
M  V30 3851 H 336.072 -3.49289 4.87972 0
M  V30 3852 H 337.142 -2.1928 4.32486 0
M  V30 3853 N 338.485 -1.33259 -0.841409 0
M  V30 3854 C 339.734 -1.23921 -1.59143 0
M  V30 3855 C 340.047 0.1941 -1.94635 0
M  V30 3856 O 341.253 0.409474 -2.68394 0
M  V30 3857 C 339.709 -2.17119 -2.87032 0
M  V30 3858 C 339.317 -3.65606 -2.58914 0
M  V30 3859 C 341.061 -2.16648 -3.65053 0
M  V30 3860 C 338.968 -4.50726 -3.82884 0
M  V30 3861 H 337.898 -0.460264 -0.597221 0
M  V30 3862 H 340.549 -1.58307 -0.927959 0
M  V30 3863 H 338.931 -1.75663 -3.54906 0
M  V30 3864 H 340.105 -4.15487 -1.99267 0
M  V30 3865 H 338.42 -3.68341 -1.942 0
M  V30 3866 H 341.017 -2.77474 -4.57069 0
M  V30 3867 H 341.36 -1.16088 -3.99787 0
M  V30 3868 H 341.893 -2.56453 -3.041 0
M  V30 3869 H 338.632 -5.52151 -3.53283 0
M  V30 3870 H 338.152 -4.0559 -4.41879 0
M  V30 3871 H 339.831 -4.64401 -4.50489 0
M  V30 3872 N 339.963 1.05934 -1.16686 0
M  V30 3873 C 341.21 1.788 -0.950622 0
M  V30 3874 C 341.538 1.87384 0.521305 0
M  V30 3875 O 340.793 1.36438 1.40297 0
M  V30 3876 C 341.092 3.23105 -1.52767 0
M  V30 3877 C 340.758 3.34594 -3.02254 0
M  V30 3878 C 339.42 3.37437 -3.43059 0
M  V30 3879 C 341.772 3.36219 -3.98254 0
M  V30 3880 C 339.1 3.39525 -4.78477 0
M  V30 3881 C 341.452 3.39845 -5.33562 0
M  V30 3882 C 340.116 3.40971 -5.73842 0
M  V30 3883 H 339.386 0.654275 -0.347857 0
M  V30 3884 H 342.033 1.24555 -1.45459 0
M  V30 3885 H 340.338 3.80227 -0.94524 0
M  V30 3886 H 342.035 3.7809 -1.336 0
M  V30 3887 H 338.625 3.3309 -2.6972 0
M  V30 3888 H 342.809 3.33231 -3.67792 0
M  V30 3889 H 338.065 3.38703 -5.09009 0
M  V30 3890 H 342.239 3.4005 -6.07733 0
M  V30 3891 H 339.866 3.42342 -6.78753 0
M  V30 3892 N 341.441 0.965919 1.2453 0
M  V30 3893 C 342.371 0.513476 2.27784 0
M  V30 3894 C 343.352 -0.445974 1.6415 0
M  V30 3895 O 344.537 -0.342485 1.91156 0
M  V30 3896 C 341.667 -0.198839 3.4673 0
M  V30 3897 C 340.621 0.676456 4.2262 0
M  V30 3898 C 339.947 -0.167248 5.34438 0
M  V30 3899 C 341.247 1.96017 4.84123 0
M  V30 3900 H 342.941 1.3765 2.65881 0
M  V30 3901 H 340.487 0.663321 1.27813 0
M  V30 3902 H 342.44 -0.526567 4.18097 0
M  V30 3903 H 341.164 -1.0962 3.07654 0
M  V30 3904 H 339.823 0.98743 3.53052 0
M  V30 3905 H 339.471 -1.0647 4.91603 0
M  V30 3906 H 339.171 0.415181 5.86131 0
M  V30 3907 H 340.695 -0.489688 6.08633 0
M  V30 3908 H 342.109 1.69814 5.47573 0
M  V30 3909 H 340.506 2.48918 5.4604 0
M  V30 3910 H 341.576 2.65622 4.05676 0
M  V30 3911 N 342.919 -1.39368 0.735821 0
M  V30 3912 C 343.867 -2.32443 0.0855131 0
M  V30 3913 C 344.861 -1.53104 -0.724954 0
M  V30 3914 O 346.067 -1.68762 -0.626047 0
M  V30 3915 H 342.442 -0.751948 0.00885257 0
M  V30 3916 H 344.413 -2.84916 0.886883 0
M  V30 3917 C 343.162 -3.38206 -0.806983 0
M  V30 3918 H 342.485 -3.99335 -0.19274 0
M  V30 3919 H 343.925 -4.05779 -1.2296 0
M  V30 3920 C 342.384 -2.75321 -1.94165 0
M  V30 3921 O 342.914 -2.63231 -3.03435 0
M  V30 3922 N 341.12 -2.33396 -1.73132 0
M  V30 3923 H 340.667 -2.4343 -0.842596 0
M  V30 3924 H 340.625 -1.91661 -2.49225 0
M  V30 3925 N 344.397 -0.483516 -1.5 0
M  V30 3926 C 345.625 0.0644831 -2.06799 0
M  V30 3927 C 346.04 1.32399 -1.34596 0
M  V30 3928 O 345.397 1.77626 -0.418946 0
M  V30 3929 C 345.448 0.339927 -3.59898 0
M  V30 3930 O 345.169 -0.869635 -4.29382 0
M  V30 3931 C 346.67 0.933515 -4.33359 0
M  V30 3932 H 343.89 -0.0126333 -0.670881 0
M  V30 3933 H 346.434 -0.675864 -1.93009 0
M  V30 3934 H 344.589 1.03022 -3.7345 0
M  V30 3935 H 345.003 -0.62179 -5.20801 0
M  V30 3936 H 346.477 1.07593 -5.41413 0
M  V30 3937 H 346.954 1.92685 -3.94676 0
M  V30 3938 H 347.56 0.281221 -4.24369 0
M  V30 3939 N 345.875 1.56104 -0.216619 0
M  V30 3940 C 346.785 2.23694 0.706982 0
M  V30 3941 C 347.801 1.24295 1.21765 0
M  V30 3942 O 348.977 1.57094 1.2603 0
M  V30 3943 C 346.042 2.8998 1.90033 0
M  V30 3944 C 345.103 4.04708 1.43213 0
M  V30 3945 C 344.336 4.67824 2.56859 0
M  V30 3946 O 344.559 4.29913 3.74874 0
M  V30 3947 O 343.493 5.56905 2.28343 0
M  V30 3948 H 347.319 3.03272 0.161235 0
M  V30 3949 H 344.904 1.49394 0.0136177 0
M  V30 3950 H 346.786 3.31837 2.59735 0
M  V30 3951 H 345.461 2.13365 2.43428 0
M  V30 3952 H 344.368 3.6743 0.70327 0
M  V30 3953 H 345.701 4.83051 0.944615 0
M  V30 3954 N 347.353 -0.0568162 1.57498 0
M  V30 3955 C 348.599 -0.75422 1.88253 0
M  V30 3956 C 348.932 -1.76461 0.810865 0
M  V30 3957 O 348.207 -1.93691 -0.177259 0
M  V30 3958 C 348.49 -1.44878 3.2967 0
M  V30 3959 C 348.343 -0.453789 4.47505 0
M  V30 3960 C 349.662 -2.38994 3.69554 0
M  V30 3961 H 346.781 -0.272724 0.684683 0
M  V30 3962 H 349.423 -0.0172113 1.89992 0
M  V30 3963 H 347.573 -2.077 3.28318 0
M  V30 3964 H 349.245 0.170371 4.60985 0
M  V30 3965 H 347.488 0.229552 4.33192 0
M  V30 3966 H 348.159 -0.977699 5.43273 0
M  V30 3967 H 350.635 -1.86239 3.72095 0
M  V30 3968 H 349.511 -2.84587 4.69363 0
M  V30 3969 H 349.772 -3.24461 3.00296 0
M  V30 3970 N 348.832 -1.54138 -0.328536 0
M  V30 3971 C 350.057 -1.76378 -1.09112 0
M  V30 3972 C 350.482 -0.508596 -1.81094 0
M  V30 3973 O 349.84 0.539598 -1.73084 0
M  V30 3974 C 349.888 -2.95358 -2.06872 0
M  V30 3975 O 348.992 -2.66556 -3.14677 0
M  V30 3976 H 348.333 -0.584614 -0.314838 0
M  V30 3977 H 350.863 -2.01146 -0.374348 0
M  V30 3978 H 350.873 -3.22566 -2.4983 0
M  V30 3979 H 349.548 -3.86385 -1.5388 0
M  V30 3980 H 348.125 -2.50282 -2.7643 0
M  V30 3981 N 350.31 0.590341 -1.46126 0
M  V30 3982 C 351.24 1.71032 -1.58966 0
M  V30 3983 C 352.221 1.64302 -0.440335 0
M  V30 3984 O 353.406 1.82436 -0.665634 0
M  V30 3985 C 350.536 3.09665 -1.57241 0
M  V30 3986 C 349.49 3.31221 -2.71066 0
M  V30 3987 C 348.816 4.70303 -2.54399 0
M  V30 3988 C 350.116 3.19796 -4.1295 0
M  V30 3989 H 351.81 1.60543 -2.52718 0
M  V30 3990 H 349.356 0.770933 -1.21625 0
M  V30 3991 H 351.309 3.87831 -1.64819 0
M  V30 3992 H 350.033 3.21036 -0.600289 0
M  V30 3993 H 348.692 2.55452 -2.62944 0
M  V30 3994 H 348.34 4.78429 -1.55288 0
M  V30 3995 H 348.04 4.85679 -3.30741 0
M  V30 3996 H 349.564 5.50647 -2.63857 0
M  V30 3997 H 350.978 3.87815 -4.22223 0
M  V30 3998 H 349.375 3.46696 -4.89818 0
M  V30 3999 H 350.445 2.16983 -4.33643 0
M  V30 4000 N 351.788 1.33704 0.83433 0
M  V30 4001 C 353.013 1.28615 1.62705 0
M  V30 4002 C 353.438 -0.139242 1.87584 0
M  V30 4003 O 352.796 -1.09734 1.4432 0
M  V30 4004 C 352.844 2.07139 2.95171 0
M  V30 4005 O 351.948 1.4331 3.86699 0
M  V30 4006 H 351.289 0.44226 0.49528 0
M  V30 4007 H 353.819 1.76335 1.03766 0
M  V30 4008 H 353.829 2.18073 3.44831 0
M  V30 4009 H 352.504 3.10779 2.76386 0
M  V30 4010 H 351.081 1.4105 3.45195 0
M  V30 4011 N 353.266 -1.05314 1.17247 0
M  V30 4012 C 354.198 -2.13023 0.845812 0
M  V30 4013 C 355.211 -1.62096 -0.151246 0
M  V30 4014 O 356.4 -1.78343 0.0748818 0
M  V30 4015 C 353.5 -3.38047 0.240292 0
M  V30 4016 C 352.673 -4.18255 1.27991 0
M  V30 4017 C 351.732 -5.21625 0.692375 0
M  V30 4018 O 350.758 -5.52619 1.36385 0
M  V30 4019 N 351.96 -5.78201 -0.516178 0
M  V30 4020 H 354.725 -2.41642 1.77283 0
M  V30 4021 H 352.286 -1.21401 1.07115 0
M  V30 4022 H 354.278 -4.04359 -0.16603 0
M  V30 4023 H 352.848 -3.06972 -0.590487 0
M  V30 4024 H 352.068 -3.47451 1.86203 0
M  V30 4025 H 353.356 -4.68643 1.98119 0
M  V30 4026 H 352.754 -5.55301 -1.07969 0
M  V30 4027 H 351.311 -6.4604 -0.86458 0
M  V30 4028 N 354.744 -0.972509 -1.24016 0
M  V30 4029 C 355.707 -0.511403 -2.23422 0
M  V30 4030 C 356.707 0.394679 -1.55881 0
M  V30 4031 O 357.897 0.189469 -1.73167 0
M  V30 4032 C 355.029 0.258769 -3.39916 0
M  V30 4033 H 356.222 -1.39024 -2.6573 0
M  V30 4034 H 353.775 -0.757585 -1.36713 0
M  V30 4035 H 354.51 1.1545 -3.03054 0
M  V30 4036 H 354.295 -0.391522 -3.9014 0
M  V30 4037 H 355.785 0.570244 -4.13688 0
M  V30 4038 N 356.222 1.38976 -0.743202 0
M  V30 4039 C 357.152 2.33171 -0.123873 0
M  V30 4040 C 358.133 1.54336 0.71516 0
M  V30 4041 O 359.318 1.82696 0.658467 0
M  V30 4042 C 356.448 3.38474 0.777978 0
M  V30 4043 C 355.402 4.27979 0.0424758 0
M  V30 4044 C 354.728 5.2405 1.06189 0
M  V30 4045 C 356.028 5.10155 -1.1198 0
M  V30 4046 H 357.722 2.85213 -0.910709 0
M  V30 4047 H 355.268 1.37133 -0.439388 0
M  V30 4048 H 357.221 4.03328 1.22084 0
M  V30 4049 H 355.945 2.84891 1.59702 0
M  V30 4050 H 354.604 3.64616 -0.380853 0
M  V30 4051 H 354.252 4.66758 1.87472 0
M  V30 4052 H 353.952 5.84785 0.574485 0
M  V30 4053 H 355.476 5.9178 1.50428 0
M  V30 4054 H 356.89 5.68307 -0.75499 0
M  V30 4055 H 355.287 5.80073 -1.53738 0
M  V30 4056 H 356.357 4.44504 -1.93764 0
M  V30 4057 N 357.7 0.491464 1.49741 0
M  V30 4058 C 358.61 -0.296835 2.32715 0
M  V30 4059 C 359.626 -0.976536 1.44013 0
M  V30 4060 O 360.802 -0.960023 1.77047 0
M  V30 4061 C 357.867 -1.35288 3.19215 0
M  V30 4062 C 356.928 -0.687632 4.23757 0
M  V30 4063 C 356.161 -1.69336 5.06123 0
M  V30 4064 O 356.384 -2.92219 4.89861 0
M  V30 4065 O 355.318 -1.25394 5.88693 0
M  V30 4066 H 359.144 0.382048 3.01287 0
M  V30 4067 H 356.729 0.252953 1.47243 0
M  V30 4068 H 358.611 -1.96411 3.72828 0
M  V30 4069 H 357.286 -2.01487 2.53347 0
M  V30 4070 H 356.193 -0.0369159 3.74082 0
M  V30 4071 H 357.526 -0.0682566 4.92153 0
M  V30 4072 N 359.178 -1.55987 0.224894 0
M  V30 4073 C 360.455 -1.90232 -0.455083 0
M  V30 4074 C 360.835 -1.14269 -1.77499 0
M  V30 4075 O 360.183 -0.253079 -2.27094 0
M  V30 4076 C 360.393 -3.42993 -0.644758 0
M  V30 4077 C 361.741 -4.13821 -0.950669 0
M  V30 4078 O 362.765 -3.4861 -0.731423 0
M  V30 4079 O 361.624 -5.29128 -1.36695 0
M  V30 4080 H 358.718 -0.79108 -0.241084 0
M  V30 4081 H 361.264 -1.67581 0.267327 0
M  V30 4082 H 360.036 -3.90252 0.28613 0
M  V30 4083 H 359.659 -3.71434 -1.41853 0
M  V30 4084 N 360.656 0.0484629 -1.57525 0
M  V30 4085 C 361.902 0.744226 -1.88651 0
M  V30 4086 C 362.235 1.76029 -0.820212 0
M  V30 4087 O 361.51 1.93782 0.166985 0
M  V30 4088 C 361.793 1.43128 -3.30434 0
M  V30 4089 C 361.646 0.43005 -4.47739 0
M  V30 4090 C 362.965 2.37031 -3.70816 0
M  V30 4091 H 360.084 0.269089 -0.68612 0
M  V30 4092 H 362.726 0.00713532 -1.89999 0
M  V30 4093 H 360.876 2.05956 -3.29415 0
M  V30 4094 H 362.548 -0.194816 -4.60888 0
M  V30 4095 H 360.791 -0.252522 -4.33064 0
M  V30 4096 H 361.462 0.948874 -5.43783 0
M  V30 4097 H 363.938 1.84263 -3.73077 0
M  V30 4098 H 362.814 2.82094 -4.70865 0
M  V30 4099 H 363.075 3.22864 -3.02012 0
M  V30 4100 N 362.134 1.5431 0.320358 0
M  V30 4101 C 363.359 1.76954 1.08175 0
M  V30 4102 C 363.784 0.518193 1.80821 0
M  V30 4103 O 363.142 -0.530411 1.73368 0
M  V30 4104 C 363.19 2.96451 2.05303 0
M  V30 4105 O 362.294 2.68221 3.13259 0
M  V30 4106 H 361.635 0.586275 0.311733 0
M  V30 4107 H 364.165 2.01342 0.363676 0
M  V30 4108 H 364.175 3.23887 2.48116 0
M  V30 4109 H 362.85 3.87196 1.51829 0
M  V30 4110 H 361.427 2.51744 2.75099 0
M  V30 4111 N 363.613 -0.582584 1.46437 0
M  V30 4112 C 365.029 -0.905962 1.31394 0
M  V30 4113 C 365.229 -1.99468 0.285476 0
M  V30 4114 O 364.285 -2.50566 -0.311914 0
M  V30 4115 C 365.598 -1.3232 2.70022 0
M  V30 4116 C 367.146 -1.43604 2.78113 0
M  V30 4117 C 367.621 -1.88694 4.17323 0
M  V30 4118 N 369.112 -1.95887 4.19741 0
M  V30 4119 C 369.847 -2.32051 5.24347 0
M  V30 4120 N 369.343 -2.67006 6.39281 0
M  V30 4121 N 371.136 -2.32606 5.11713 0
M  V30 4122 H 363.287 0.1366 2.1196 0
M  V30 4123 H 365.55 -0.00155736 0.947999 0
M  V30 4124 H 365.256 -0.597242 3.46592 0
M  V30 4125 H 365.13 -2.28469 3.00136 0
M  V30 4126 H 367.517 -2.15286 2.01832 0
M  V30 4127 H 367.598 -0.457059 2.51684 0
M  V30 4128 H 367.242 -1.1759 4.941 0
M  V30 4129 H 367.172 -2.8755 4.4116 0
M  V30 4130 H 369.663 -1.71362 3.36814 0
M  V30 4131 H 369.976 -2.93554 7.14875 0
M  V30 4132 H 368.321 -2.64644 6.42642 0
M  V30 4133 H 371.512 -2.04721 4.2096 0
M  V30 4134 H 371.685 -2.60462 5.93349 0
M  V30 4135 N 365.091 -1.34144 -0.827227 0
M  V30 4136 C 366.339 -1.26009 -1.58007 0
M  V30 4137 C 366.66 0.170971 -1.94249 0
M  V30 4138 O 365.93 1.10256 -1.61927 0
M  V30 4139 H 364.51 -0.463414 -0.585881 0
M  V30 4140 H 367.172 -1.68005 -0.987951 0
M  V30 4141 H 366.268 -1.86187 -2.50481 0
M  V30 4142 N 366.569 1.04691 -1.17803 0
M  V30 4143 C 367.817 1.7743 -0.967617 0
M  V30 4144 C 368.138 1.88359 0.504574 0
M  V30 4145 O 367.408 1.40402 1.36617 0
M  V30 4146 H 365.988 0.657242 -0.355024 0
M  V30 4147 H 368.65 1.2638 -1.48371 0
M  V30 4148 H 367.746 2.78924 -1.40027 0
M  V30 4149 N 368.047 0.979072 1.23499 0
M  V30 4150 C 369.272 0.664845 1.96455 0
M  V30 4151 C 369.697 -0.761287 1.72006 0
M  V30 4152 O 369.055 -1.51837 0.990713 0
M  V30 4153 C 369.103 0.959479 3.47601 0
M  V30 4154 O 368.207 0.0508168 4.12369 0
M  V30 4155 H 367.548 0.250185 0.615064 0
M  V30 4156 H 370.078 1.31231 1.5697 0
M  V30 4157 H 370.088 0.895642 3.98048 0
M  V30 4158 H 368.763 1.99876 3.64723 0
M  V30 4159 H 367.34 0.16895 3.72517 0
M  V30 4160 N 369.525 -1.3858 0.750561 0
M  V30 4161 C 370.936 -1.82927 0.373438 0
M  V30 4162 C 371.287 -1.62634 -1.09748 0
M  V30 4163 O 370.412 -1.12588 -1.84805 0
M  V30 4164 C 371.007 -3.32088 0.671029 0
M  V30 4165 C 369.566 -3.74795 0.34722 0
M  V30 4166 C 368.713 -2.61391 0.92575 0
M  V30 4167 H 371.664 -1.27351 0.946958 0
M  V30 4168 H 371.685 -3.80465 -0.0518269 0
M  V30 4169 H 371.197 -3.46826 1.74164 0
M  V30 4170 H 369.298 -3.65638 -0.716933 0
M  V30 4171 H 369.411 -4.71667 0.840656 0
M  V30 4172 H 367.775 -2.52265 0.351327 0
M  V30 4173 H 368.558 -2.78929 2.00133 0
M  V30 4174 N 371.003 -0.499398 -1.49478 0
M  V30 4175 C 372.25 0.0456899 -2.02448 0
M  V30 4176 C 372.578 1.37142 -1.37921 0
M  V30 4177 O 371.833 1.89111 -0.503544 0
M  V30 4178 C 372.132 0.248424 -3.56536 0
M  V30 4179 C 371.798 -0.999107 -4.39692 0
M  V30 4180 C 370.46 -1.34108 -4.62135 0
M  V30 4181 C 372.812 -1.82842 -4.88076 0
M  V30 4182 C 370.14 -2.51191 -5.30208 0
M  V30 4183 C 372.492 -2.99076 -5.57437 0
M  V30 4184 C 371.156 -3.33655 -5.78127 0
M  V30 4185 H 370.426 0.0167191 -0.740811 0
M  V30 4186 H 373.073 -0.65923 -1.79795 0
M  V30 4187 H 371.378 1.03586 -3.77859 0
M  V30 4188 H 373.075 0.684605 -3.95113 0
M  V30 4189 H 369.665 -0.722729 -4.22463 0
M  V30 4190 H 373.849 -1.57737 -4.70566 0
M  V30 4191 H 369.105 -2.78221 -5.44429 0
M  V30 4192 H 373.279 -3.63664 -5.93904 0
M  V30 4193 H 370.906 -4.24483 -6.30649 0
M  V30 4194 N 372.481 1.55866 -0.233164 0
M  V30 4195 C 373.444 2.1953 0.658715 0
M  V30 4196 C 374.444 1.16053 1.11303 0
M  V30 4197 O 375.634 1.41218 1.01996 0
M  V30 4198 C 372.766 2.82791 1.90373 0
M  V30 4199 H 373.959 2.99721 0.10347 0
M  V30 4200 H 371.512 1.56291 0.0164245 0
M  V30 4201 H 372.247 2.06501 2.50056 0
M  V30 4202 H 372.032 3.58578 1.58632 0
M  V30 4203 H 373.522 3.31556 2.53891 0
M  V30 4204 N 373.959 -0.0401083 1.57549 0
M  V30 4205 C 375.208 -0.732108 1.87944 0
M  V30 4206 C 375.521 -1.77107 0.830206 0
M  V30 4207 O 376.727 -2.51488 1.02302 0
M  V30 4208 C 375.183 -1.35315 3.33494 0
M  V30 4209 C 374.791 -0.351105 4.46622 0
M  V30 4210 C 376.535 -2.02566 3.73051 0
M  V30 4211 C 374.442 -0.979859 5.83226 0
M  V30 4212 H 373.372 -0.277188 0.701201 0
M  V30 4213 H 376.023 0.0138501 1.83495 0
M  V30 4214 H 374.405 -2.14844 3.32653 0
M  V30 4215 H 375.579 0.416674 4.58912 0
M  V30 4216 H 373.894 0.218708 4.15825 0
M  V30 4217 H 376.491 -2.50441 4.72423 0
M  V30 4218 H 376.834 -2.83904 3.04474 0
M  V30 4219 H 377.367 -1.29827 3.76018 0
M  V30 4220 H 374.106 -0.206135 6.55176 0
M  V30 4221 H 373.626 -1.71774 5.74677 0
M  V30 4222 H 375.305 -1.49046 6.29599 0
M  V30 4223 N 375.437 -1.54477 -0.31217 0
M  V30 4224 C 376.683 -1.73483 -1.0503 0
M  V30 4225 C 377.016 -0.513125 -1.87298 0
M  V30 4226 O 376.291 0.489864 -1.8823 0
M  V30 4227 C 376.574 -3.01723 -1.96558 0
M  V30 4228 C 376.427 -4.3417 -1.17545 0
M  V30 4229 C 377.746 -3.25772 -2.95907 0
M  V30 4230 H 374.865 -0.631222 -0.380432 0
M  V30 4231 H 377.507 -1.87184 -0.325932 0
M  V30 4232 H 375.657 -2.90174 -2.58324 0
M  V30 4233 H 377.329 -4.5762 -0.581513 0
M  V30 4234 H 375.572 -4.31159 -0.477925 0
M  V30 4235 H 376.243 -5.20143 -1.84811 0
M  V30 4236 H 378.719 -3.36857 -2.44267 0
M  V30 4237 H 377.595 -4.16838 -3.57123 0
M  V30 4238 H 377.856 -2.43537 -3.68974 0
M  V30 4239 N 376.915 0.57481 -1.46744 0
M  V30 4240 C 378.164 1.32898 -1.51727 0
M  V30 4241 C 378.477 1.948 -0.176692 0
M  V30 4242 O 379.683 2.71299 -0.104385 0
M  V30 4243 C 378.139 2.40901 -2.67385 0
M  V30 4244 C 377.747 1.85266 -4.07898 0
M  V30 4245 C 379.491 3.17609 -2.81646 0
M  V30 4246 C 377.398 2.90945 -5.14883 0
M  V30 4247 H 376.328 0.499631 -0.564699 0
M  V30 4248 H 378.979 0.612536 -1.72975 0
M  V30 4249 H 377.361 3.15379 -2.39483 0
M  V30 4250 H 378.535 1.17278 -4.45626 0
M  V30 4251 H 376.85 1.21199 -3.98371 0
M  V30 4252 H 379.447 3.96493 -3.58744 0
M  V30 4253 H 379.79 3.70696 -1.89448 0
M  V30 4254 H 380.323 2.50239 -3.09233 0
M  V30 4255 H 377.062 2.42736 -6.089 0
M  V30 4256 H 376.582 3.57398 -4.81691 0
M  V30 4257 H 378.261 3.54755 -5.41071 0
M  V30 4258 N 378.394 1.34581 0.820102 0
M  V30 4259 C 379.622 1.3018 1.60813 0
M  V30 4260 C 380.037 -0.123551 1.88395 0
M  V30 4261 O 379.394 -1.07148 1.47735 0
M  V30 4262 C 379.445 2.09312 2.94739 0
M  V30 4263 O 379.166 3.46288 2.68358 0
M  V30 4264 C 380.667 2.1234 3.89136 0
M  V30 4265 H 377.887 0.447726 0.499782 0
M  V30 4266 H 380.431 1.77237 1.02017 0
M  V30 4267 H 378.586 1.65889 3.50085 0
M  V30 4268 H 379 3.87227 3.53774 0
M  V30 4269 H 380.474 2.72126 4.80262 0
M  V30 4270 H 380.951 1.11854 4.24718 0
M  V30 4271 H 381.557 2.55864 3.39726 0
M  V30 4272 N 379.872 -1.04064 1.18357 0
M  V30 4273 C 380.804 -2.12114 0.868358 0
M  V30 4274 C 381.817 -1.62247 -0.134045 0
M  V30 4275 O 383.006 -1.78253 0.0937933 0
M  V30 4276 C 380.106 -3.37773 0.276132 0
M  V30 4277 C 379.279 -4.16874 1.3242 0
M  V30 4278 C 378.338 -5.20861 0.747662 0
M  V30 4279 O 377.364 -5.51141 1.42239 0
M  V30 4280 N 378.566 -5.78715 -0.454823 0
M  V30 4281 H 381.331 -2.39748 1.79836 0
M  V30 4282 H 378.892 -1.20258 1.08396 0
M  V30 4283 H 380.884 -4.04513 -0.123133 0
M  V30 4284 H 379.454 -3.07581 -0.557895 0
M  V30 4285 H 378.674 -3.45456 1.89878 0
M  V30 4286 H 379.962 -4.66516 2.03078 0
M  V30 4287 H 379.36 -5.56415 -1.02073 0
M  V30 4288 H 377.917 -6.46921 -0.79601 0
M  V30 4289 N 381.35 -0.985608 -1.22978 0
M  V30 4290 C 382.282 -0.488154 -2.23941 0
M  V30 4291 C 383.295 0.41282 -1.57479 0
M  V30 4292 O 384.484 0.216121 -1.77187 0
M  V30 4293 C 381.584 0.312611 -3.37455 0
M  V30 4294 C 380.757 -0.582741 -4.33501 0
M  V30 4295 C 379.816 0.165064 -5.25941 0
M  V30 4296 O 378.842 -0.447077 -5.67442 0
M  V30 4297 N 380.044 1.44953 -5.62111 0
M  V30 4298 H 382.809 -1.3563 -2.67254 0
M  V30 4299 H 380.37 -0.859477 -1.37203 0
M  V30 4300 H 382.362 0.821357 -3.96277 0
M  V30 4301 H 380.932 1.0818 -2.93285 0
M  V30 4302 H 380.152 -1.27225 -3.73105 0
M  V30 4303 H 381.44 -1.19275 -4.94622 0
M  V30 4304 H 380.838 1.9683 -5.30353 0
M  V30 4305 H 379.395 1.90361 -6.23383 0
M  V30 4306 N 382.828 1.3818 -0.7579 0
M  V30 4307 C 383.778 2.27741 -0.108674 0
M  V30 4308 C 384.762 1.45415 0.688709 0
M  V30 4309 O 385.954 1.68108 0.553956 0
M  V30 4310 C 383.083 3.34313 0.780367 0
M  V30 4311 C 382.169 4.24093 -0.0240977 0
M  V30 4312 N 382.56 4.9451 -1.06271 0
M  V30 4313 C 380.858 4.45542 0.202049 0
M  V30 4314 C 381.559 5.60675 -1.54979 0
M  V30 4315 N 380.535 5.36684 -0.864348 0
M  V30 4316 H 384.337 2.79649 -0.904071 0
M  V30 4317 H 381.851 1.51133 -0.594346 0
M  V30 4318 H 383.848 3.97368 1.26114 0
M  V30 4319 H 382.508 2.83962 1.57467 0
M  V30 4320 H 383.519 4.97345 -1.44459 0
M  V30 4321 H 380.196 4.06091 0.96935 0
M  V30 4322 H 381.586 6.26992 -2.41517 0
M  V30 4323 N 384.306 0.507319 1.49211 0
M  V30 4324 C 385.238 -0.304532 2.27168 0
M  V30 4325 C 386.251 -0.924956 1.33972 0
M  V30 4326 O 387.44 -0.807227 1.59205 0
M  V30 4327 C 384.54 -1.44431 3.06583 0
M  V30 4328 C 383.713 -0.930026 4.27398 0
M  V30 4329 C 382.772 -1.94817 4.88807 0
M  V30 4330 O 381.798 -1.51418 5.4869 0
M  V30 4331 N 383 -3.279 4.79022 0
M  V30 4332 H 385.765 0.36395 2.97482 0
M  V30 4333 H 383.326 0.340249 1.58284 0
M  V30 4334 H 385.318 -2.12311 3.44537 0
M  V30 4335 H 383.888 -2.01684 2.38835 0
M  V30 4336 H 383.108 -0.0759244 3.94127 0
M  V30 4337 H 384.396 -0.564932 5.05654 0
M  V30 4338 H 383.794 -3.65843 4.3148 0
M  V30 4339 H 382.351 -3.91476 5.21142 0
M  V30 4340 N 385.784 -1.5574 0.241426 0
M  V30 4341 C 387.033 -1.97986 -0.385295 0
M  V30 4342 C 387.346 -1.13267 -1.59468 0
M  V30 4343 O 388.552 -1.45501 -2.2922 0
M  V30 4344 C 387.008 -3.52275 -0.736884 0
M  V30 4345 C 386.616 -4.45726 0.450796 0
M  V30 4346 C 388.36 -4.03189 -1.3281 0
M  V30 4347 C 386.267 -5.91352 0.0756662 0
M  V30 4348 H 385.197 -0.739386 -0.147731 0
M  V30 4349 H 387.848 -1.80308 0.340779 0
M  V30 4350 H 386.23 -3.65628 -1.52094 0
M  V30 4351 H 387.404 -4.44131 1.22819 0
M  V30 4352 H 385.719 -4.05264 0.956573 0
M  V30 4353 H 388.316 -5.09505 -1.62201 0
M  V30 4354 H 388.659 -3.50212 -2.25071 0
M  V30 4355 H 389.192 -3.93141 -0.607069 0
M  V30 4356 H 385.931 -6.48354 0.965272 0
M  V30 4357 H 385.451 -5.96095 -0.665635 0
M  V30 4358 H 387.13 -6.46084 -0.344075 0
M  V30 4359 N 387.262 0.0317525 -1.57568 0
M  V30 4360 C 388.212 1.04101 -2.02847 0
M  V30 4361 C 389.196 1.3219 -0.917317 0
M  V30 4362 O 390.388 1.31819 -1.18121 0
M  V30 4363 C 387.517 2.34295 -2.5092 0
M  V30 4364 C 386.603 2.09308 -3.68851 0
M  V30 4365 N 386.994 1.5437 -4.81667 0
M  V30 4366 C 385.292 2.39604 -3.76172 0
M  V30 4367 C 385.993 1.45126 -5.63306 0
M  V30 4368 N 384.969 1.92589 -5.08341 0
M  V30 4369 H 388.771 0.610217 -2.87495 0
M  V30 4370 H 386.285 0.238108 -1.60645 0
M  V30 4371 H 388.282 3.07404 -2.81617 0
M  V30 4372 H 386.942 2.78055 -1.67677 0
M  V30 4373 H 387.953 1.22678 -5.03161 0
M  V30 4374 H 384.63 2.86457 -3.03724 0
M  V30 4375 H 386.02 1.03163 -6.63933 0
M  V30 4376 N 388.74 1.54641 0.303973 0
M  V30 4377 C 390.156 1.45788 0.649463 0
M  V30 4378 C 390.356 0.64666 1.90842 0
M  V30 4379 O 389.412 0.153183 2.52035 0
M  V30 4380 C 390.725 2.89718 0.805227 0
M  V30 4381 C 392.273 2.99742 0.901305 0
M  V30 4382 C 392.748 4.44863 1.08909 0
M  V30 4383 N 394.239 4.48559 1.15536 0
M  V30 4384 C 394.974 5.58026 1.3189 0
M  V30 4385 N 394.47 6.77422 1.45161 0
M  V30 4386 N 396.263 5.45708 1.34755 0
M  V30 4387 H 388.414 2.05854 -0.523237 0
M  V30 4388 H 390.677 0.932186 -0.172431 0
M  V30 4389 H 390.383 3.51666 -0.0489108 0
M  V30 4390 H 390.257 3.36964 1.69513 0
M  V30 4391 H 392.644 2.3791 1.74593 0
M  V30 4392 H 392.725 2.55797 -0.0125531 0
M  V30 4393 H 392.369 5.07288 0.249241 0
M  V30 4394 H 392.299 4.86436 2.01713 0
M  V30 4395 H 394.79 3.6254 1.06646 0
M  V30 4396 H 395.103 7.56604 1.57387 0
M  V30 4397 H 393.448 6.80292 1.42223 0
M  V30 4398 H 396.639 4.51378 1.23996 0
M  V30 4399 H 396.812 6.3107 1.47157 0
M  V30 4400 N 390.218 -0.567019 1.47046 0
M  V30 4401 C 391.443 -1.3551 1.57009 0
M  V30 4402 C 391.868 -1.86841 0.217259 0
M  V30 4403 O 391.226 -1.62435 -0.805268 0
M  V30 4404 C 391.274 -2.50777 2.5912 0
M  V30 4405 O 390.378 -3.52706 2.13711 0
M  V30 4406 H 389.719 -0.402919 0.52778 0
M  V30 4407 H 392.249 -0.686241 1.92748 0
M  V30 4408 H 392.259 -2.97481 2.79229 0
M  V30 4409 H 390.934 -2.12771 3.57353 0
M  V30 4410 H 389.511 -3.12374 2.03659 0
M  V30 4411 N 391.696 -1.35014 -0.812953 0
M  V30 4412 C 392.936 -1.29289 -1.58315 0
M  V30 4413 C 393.3 0.132727 -1.91541 0
M  V30 4414 O 394.501 0.314269 -2.66957 0
M  V30 4415 C 392.772 -2.1681 -2.84127 0
M  V30 4416 S 394.331 -2.28538 -3.74588 0
M  V30 4417 H 391.149 -0.459569 -0.542511 0
M  V30 4418 H 393.751 -1.70336 -0.959467 0
M  V30 4419 H 392.455 -3.19379 -2.57731 0
M  V30 4420 H 391.986 -1.76697 -3.51485 0
M  V30 4421 H 394.001 -1.4655 -4.74065 0
M  V30 4422 N 393.175 1.03435 -1.18907 0
M  V30 4423 C 394.403 1.80381 -1.01342 0
M  V30 4424 C 394.818 1.83649 0.438005 0
M  V30 4425 O 394.175 1.27655 1.30424 0
M  V30 4426 C 394.226 3.25689 -1.56873 0
M  V30 4427 O 393.947 3.22673 -2.96334 0
M  V30 4428 C 395.448 4.19255 -1.44014 0
M  V30 4429 H 392.668 0.56784 -0.35749 0
M  V30 4430 H 395.212 1.30317 -1.576 0
M  V30 4431 H 393.367 3.72962 -1.04777 0
M  V30 4432 H 393.781 4.13748 -3.22355 0
M  V30 4433 H 395.255 5.19123 -1.87657 0
M  V30 4434 H 395.732 4.37467 -0.389815 0
M  V30 4435 H 396.338 3.77851 -1.95214 0
M  V30 4436 N 394.653 0.992116 1.22453 0
M  V30 4437 C 395.899 0.668523 1.91464 0
M  V30 4438 C 396.232 -0.797313 1.77078 0
M  V30 4439 O 395.507 -1.5765 1.13916 0
M  V30 4440 C 395.79 1.07424 3.43703 0
M  V30 4441 C 395.643 2.59857 3.67143 0
M  V30 4442 C 396.962 0.626891 4.35612 0
M  V30 4443 H 394.081 0.244341 0.695318 0
M  V30 4444 H 396.723 1.2355 1.44345 0
M  V30 4445 H 394.873 0.591816 3.83966 0
M  V30 4446 H 396.545 3.15764 3.3629 0
M  V30 4447 H 394.788 3.01961 3.11451 0
M  V30 4448 H 395.459 2.83296 4.73759 0
M  V30 4449 H 397.935 1.04125 4.02861 0
M  V30 4450 H 396.811 0.939076 5.40807 0
M  V30 4451 H 397.072 -0.472457 4.39568 0
M  V30 4452 N 396.131 -1.37776 0.765217 0
M  V30 4453 C 397.079 -2.32209 0.134798 0
M  V30 4454 C 398.073 -1.54607 -0.692315 0
M  V30 4455 O 399.279 -1.70052 -0.590109 0
M  V30 4456 H 395.654 -0.751591 0.0248005 0
M  V30 4457 H 397.625 -2.8297 0.947119 0
M  V30 4458 C 396.374 -3.39841 -0.735063 0
M  V30 4459 H 395.697 -3.99654 -0.107991 0
M  V30 4460 H 397.137 -4.08296 -1.14326 0
M  V30 4461 C 395.596 -2.79378 -1.88281 0
M  V30 4462 O 396.126 -2.69608 -2.97783 0
M  V30 4463 N 394.332 -2.37016 -1.68142 0
M  V30 4464 H 393.879 -2.45162 -0.790772 0
M  V30 4465 H 393.837 -1.96905 -2.45104 0
M  V30 4466 N 397.609 -0.515225 -1.4894 0
M  V30 4467 C 398.858 0.0261361 -2.01683 0
M  V30 4468 C 399.171 1.36719 -1.39883 0
M  V30 4469 O 400.377 1.99606 -1.84037 0
M  V30 4470 C 398.833 0.0970111 -3.59769 0
M  V30 4471 C 398.441 -1.23825 -4.30548 0
M  V30 4472 C 400.185 0.587981 -4.20408 0
M  V30 4473 C 398.092 -1.12877 -5.80528 0
M  V30 4474 H 397.022 0.0135398 -0.753878 0
M  V30 4475 H 399.673 -0.656787 -1.71343 0
M  V30 4476 H 398.055 0.844694 -3.86886 0
M  V30 4477 H 399.229 -2.00034 -4.15118 0
M  V30 4478 H 397.544 -1.66379 -3.81716 0
M  V30 4479 H 400.141 0.68763 -5.3026 0
M  V30 4480 H 400.484 1.59026 -3.84729 0
M  V30 4481 H 401.017 -0.103582 -3.97665 0
M  V30 4482 H 397.756 -2.10575 -6.20756 0
M  V30 4483 H 397.276 -0.407799 -5.98412 0
M  V30 4484 H 398.955 -0.813332 -6.41868 0
M  V30 4485 N 399.087 1.5561 -0.249682 0
M  V30 4486 C 400.02 2.17537 0.689408 0
M  V30 4487 C 400.998 1.12829 1.17083 0
M  V30 4488 O 402.182 1.41229 1.24846 0
M  V30 4489 C 399.309 2.77828 1.93725 0
M  V30 4490 C 398.355 3.95615 1.59346 0
M  V30 4491 S 399.188 5.30988 0.69367 0
M  V30 4492 C 400.344 5.94734 1.95046 0
M  V30 4493 H 400.577 2.96852 0.163142 0
M  V30 4494 H 398.11 1.54362 -0.0341166 0
M  V30 4495 H 400.068 3.13199 2.65361 0
M  V30 4496 H 398.729 1.98454 2.43465 0
M  V30 4497 H 397.922 4.364 2.52132 0
M  V30 4498 H 397.524 3.61535 0.957512 0
M  V30 4499 H 399.816 6.12419 2.89739 0
M  V30 4500 H 400.759 6.90109 1.58604 0
M  V30 4501 H 401.167 5.23832 2.10381 0
M  V30 4502 N 400.565 -0.0233959 1.57583 0
M  V30 4503 C 401.812 -0.713063 1.8953 0
M  V30 4504 C 402.14 -1.75056 0.847673 0
M  V30 4505 O 401.395 -1.95119 -0.150636 0
M  V30 4506 C 401.694 -1.41428 3.28227 0
M  V30 4507 C 401.36 -0.512222 4.47981 0
M  V30 4508 C 400.022 -0.263785 4.80476 0
M  V30 4509 C 402.374 0.110248 5.21083 0
M  V30 4510 C 399.702 0.615804 5.83459 0
M  V30 4511 C 402.054 0.977573 6.25001 0
M  V30 4512 C 400.718 1.23542 6.55968 0
M  V30 4513 H 399.988 -0.260928 0.69354 0
M  V30 4514 H 402.635 0.0271047 1.91481 0
M  V30 4515 H 400.94 -2.22791 3.22291 0
M  V30 4516 H 402.637 -1.95355 3.50196 0
M  V30 4517 H 399.227 -0.716013 4.22577 0
M  V30 4518 H 403.411 -0.0687137 4.96252 0
M  V30 4519 H 398.667 0.82382 6.05824 0
M  V30 4520 H 402.841 1.46638 6.80786 0
M  V30 4521 H 400.468 1.91871 7.35588 0
M  V30 4522 N 402.043 -1.548 -0.295768 0
M  V30 4523 C 403.291 -1.73985 -1.02828 0
M  V30 4524 C 403.612 -0.531406 -1.87619 0
M  V30 4525 O 402.882 0.454221 -1.90561 0
M  V30 4526 H 401.462 -0.641556 -0.382642 0
M  V30 4527 H 404.124 -1.92163 -0.325489 0
M  V30 4528 H 403.22 -2.63129 -1.67838 0
M  V30 4529 N 403.521 0.559213 -1.47345 0
M  V30 4530 C 404.749 1.34194 -1.57479 0
M  V30 4531 C 405.164 1.87463 -0.224261 0
M  V30 4532 O 404.521 1.64888 0.782185 0
M  V30 4533 C 404.572 2.51324 -2.59843 0
M  V30 4534 O 404.293 2.00256 -3.89653 0
M  V30 4535 C 405.794 3.43563 -2.80142 0
M  V30 4536 H 403.014 0.409136 -0.531835 0
M  V30 4537 H 405.558 0.677609 -1.92947 0
M  V30 4538 H 403.713 3.13699 -2.27314 0
M  V30 4539 H 404.127 2.76708 -4.4557 0
M  V30 4540 H 405.601 4.2217 -3.55635 0
M  V30 4541 H 406.078 3.9698 -1.87892 0
M  V30 4542 H 406.684 2.87005 -3.1386 0
M  V30 4543 N 404.999 1.35443 0.805782 0
M  V30 4544 C 406.41 1.25768 1.37983 0
M  V30 4545 C 406.761 -0.10958 1.95894 0
M  V30 4546 O 405.886 -1.01056 1.91355 0
M  V30 4547 C 406.481 2.27727 2.5085 0
M  V30 4548 C 405.04 2.2179 3.04115 0
M  V30 4549 C 404.187 2.13393 1.77084 0
M  V30 4550 H 407.138 1.4656 0.608752 0
M  V30 4551 H 407.159 1.90422 3.29424 0
M  V30 4552 H 406.671 3.27227 2.08671 0
M  V30 4553 H 404.772 1.25703 3.50756 0
M  V30 4554 H 404.885 3.13788 3.62042 0
M  V30 4555 H 403.249 1.59384 1.98668 0
M  V30 4556 H 404.032 3.14755 1.37056 0
M  V30 4557 N 406.477 -1.02803 1.19454 0
M  V30 4558 C 407.409 -2.11181 0.890807 0
M  V30 4559 C 408.422 -1.6238 -0.116829 0
M  V30 4560 O 409.611 -1.78144 0.112694 0
M  V30 4561 C 406.711 -3.37461 0.311942 0
M  V30 4562 C 405.884 -4.15446 1.36834 0
M  V30 4563 C 404.943 -5.20039 0.802864 0
M  V30 4564 O 403.969 -5.49602 1.48077 0
M  V30 4565 N 405.171 -5.79165 -0.393417 0
M  V30 4566 H 407.936 -2.37827 1.82369 0
M  V30 4567 H 405.497 -1.19101 1.09666 0
M  V30 4568 H 407.489 -4.0462 -0.0802225 0
M  V30 4569 H 406.059 -3.08156 -0.52524 0
M  V30 4570 H 405.279 -3.43423 1.93531 0
M  V30 4571 H 406.567 -4.64335 2.08015 0
M  V30 4572 H 405.965 -5.57466 -0.961658 0
M  V30 4573 H 404.522 -6.47729 -0.727351 0
M  V30 4574 N 407.956 -0.998596 -1.21925 0
M  V30 4575 C 408.866 -0.562736 -2.27751 0
M  V30 4576 C 409.882 0.391203 -1.69545 0
M  V30 4577 O 411.058 0.256625 -1.99758 0
M  V30 4578 C 408.123 0.11012 -3.46525 0
M  V30 4579 C 407.184 -0.887495 -4.20026 0
M  V30 4580 C 406.417 -0.246654 -5.3313 0
M  V30 4581 O 406.64 0.958088 -5.62296 0
M  V30 4582 O 405.574 -0.954374 -5.94286 0
M  V30 4583 H 409.4 -1.44329 -2.67213 0
M  V30 4584 H 406.985 -0.767135 -1.28201 0
M  V30 4585 H 408.867 0.486756 -4.18579 0
M  V30 4586 H 407.542 0.965154 -3.08976 0
M  V30 4587 H 406.449 -1.31517 -3.5022 0
M  V30 4588 H 407.782 -1.71191 -4.6147 0
M  V30 4589 N 409.434 1.37368 -0.772513 0
M  V30 4590 C 410.384 2.27613 -0.132823 0
M  V30 4591 C 411.368 1.46138 0.673247 0
M  V30 4592 O 412.56 1.68686 0.536095 0
M  V30 4593 C 409.689 3.35122 0.744864 0
M  V30 4594 C 408.775 4.24044 -0.0690771 0
M  V30 4595 N 409.166 4.93355 -1.1151 0
M  V30 4596 C 407.464 4.45731 0.154782 0
M  V30 4597 C 408.165 5.59 -1.60917 0
M  V30 4598 N 407.141 5.35737 -0.921222 0
M  V30 4599 H 410.943 2.78675 -0.933681 0
M  V30 4600 H 408.457 1.50494 -0.610342 0
M  V30 4601 H 410.454 3.98683 1.21892 0
M  V30 4602 H 409.114 2.85616 1.54446 0
M  V30 4603 H 410.125 4.95785 -1.49726 0
M  V30 4604 H 406.802 4.07096 0.926224 0
M  V30 4605 H 408.192 6.24395 -2.48153 0
M  V30 4606 N 410.912 0.523116 1.48665 0
M  V30 4607 C 412.328 0.180511 1.58576 0
M  V30 4608 C 412.528 -1.31597 1.52592 0
M  V30 4609 O 411.584 -2.0937 1.4114 0
M  V30 4610 C 412.897 0.776949 2.90489 0
M  V30 4611 C 414.445 0.745058 3.04003 0
M  V30 4612 C 414.92 1.31995 4.38567 0
M  V30 4613 N 416.411 1.28162 4.45117 0
M  V30 4614 C 417.146 1.6964 5.47731 0
M  V30 4615 N 416.642 2.18816 6.57337 0
M  V30 4616 N 418.435 1.6092 5.38573 0
M  V30 4617 H 410.586 1.4958 1.50797 0
M  V30 4618 H 412.849 0.621772 0.715614 0
M  V30 4619 H 412.555 1.82732 3.00503 0
M  V30 4620 H 412.429 0.25007 3.7637 0
M  V30 4621 H 414.816 -0.296532 2.93606 0
M  V30 4622 H 414.897 1.30933 2.1975 0
M  V30 4623 H 414.541 2.36043 4.49718 0
M  V30 4624 H 414.471 0.731418 5.21496 0
M  V30 4625 H 416.962 0.92155 3.66491 0
M  V30 4626 H 417.275 2.48478 7.31764 0
M  V30 4627 H 415.62 2.22805 6.58318 0
M  V30 4628 H 418.811 1.22304 4.5184 0
M  V30 4629 H 418.984 1.93567 6.18414 0
M  V30 4630 N 412.39 -1.55475 0.257931 0
M  V30 4631 C 413.338 -2.23244 -0.653076 0
M  V30 4632 C 414.332 -1.22366 -1.17144 0
M  V30 4633 O 415.538 -1.40347 -1.12706 0
M  V30 4634 H 411.913 -0.716247 -0.229117 0
M  V30 4635 H 413.884 -2.98343 -0.0584788 0
M  V30 4636 C 412.633 -2.95401 -1.83395 0
M  V30 4637 H 411.956 -3.72802 -1.44424 0
M  V30 4638 H 413.396 -3.46165 -2.44838 0
M  V30 4639 C 411.855 -1.99895 -2.71189 0
M  V30 4640 O 412.385 -1.53909 -3.71046 0
M  V30 4641 N 410.591 -1.6676 -2.3799 0
M  V30 4642 H 410.138 -2.04352 -1.56837 0
M  V30 4643 H 410.096 -1.03127 -2.97005 0
M  V30 4644 N 413.868 0.0150385 -1.57593 0
M  V30 4645 C 414.801 1.04475 -2.0288 0
M  V30 4646 C 415.779 1.3436 -0.915764 0
M  V30 4647 O 416.963 1.46779 -1.18271 0
M  V30 4648 C 414.09 2.37608 -2.41371 0
M  V30 4649 C 413.136 2.23487 -3.63257 0
M  V30 4650 S 413.969 1.57505 -5.11813 0
M  V30 4651 C 415.125 2.921 -5.5356 0
M  V30 4652 H 415.358 0.65907 -2.89903 0
M  V30 4653 H 412.891 0.225452 -1.52745 0
M  V30 4654 H 414.849 3.14165 -2.64217 0
M  V30 4655 H 413.51 2.7332 -1.54775 0
M  V30 4656 H 412.703 3.21802 -3.87891 0
M  V30 4657 H 412.305 1.55074 -3.40335 0
M  V30 4658 H 414.597 3.88419 -5.55101 0
M  V30 4659 H 415.54 2.72184 -6.53698 0
M  V30 4660 H 415.948 2.95318 -4.8109 0
M  V30 4661 N 415.346 1.54954 0.287554 0
M  V30 4662 C 416.757 1.65732 0.859634 0
M  V30 4663 C 417.108 0.574767 1.87592 0
M  V30 4664 O 416.233 -0.286299 2.14498 0
M  V30 4665 C 416.828 3.00438 1.56597 0
M  V30 4666 C 415.387 3.13292 2.08627 0
M  V30 4667 C 414.534 2.61473 0.923416 0
M  V30 4668 H 417.485 1.5857 0.0642338 0
M  V30 4669 H 417.506 2.92613 2.43224 0
M  V30 4670 H 417.018 3.79207 0.826053 0
M  V30 4671 H 415.119 2.39268 2.85625 0
M  V30 4672 H 415.232 4.19647 2.31157 0
M  V30 4673 H 413.596 2.18264 1.31275 0
M  V30 4674 H 414.379 3.42733 0.197241 0
M  V30 4675 N 416.824 -0.551391 1.4764 0
M  V30 4676 C 417.756 -1.67333 1.56628 0
M  V30 4677 C 418.769 -1.56398 0.452045 0
M  V30 4678 O 419.958 -1.6325 0.721926 0
M  V30 4679 C 417.058 -3.05841 1.45994 0
M  V30 4680 C 416.231 -3.42472 2.72088 0
M  V30 4681 C 415.29 -4.60168 2.55209 0
M  V30 4682 O 414.316 -4.64458 3.2904 0
M  V30 4683 N 415.518 -5.57024 1.63416 0
M  V30 4684 H 418.283 -1.60066 2.53375 0
M  V30 4685 H 415.844 -0.738169 1.44093 0
M  V30 4686 H 417.836 -3.8242 1.32428 0
M  V30 4687 H 416.406 -3.07302 0.573071 0
M  V30 4688 H 415.626 -2.55284 3.00373 0
M  V30 4689 H 416.914 -3.63723 3.55785 0
M  V30 4690 H 416.312 -5.56319 1.02594 0
M  V30 4691 H 414.869 -6.32906 1.558 0
M  V30 4692 N 418.302 -1.35869 -0.798587 0
M  V30 4693 C 419.265 -1.29307 -1.89242 0
M  V30 4694 C 420.265 -0.202747 -1.59517 0
M  V30 4695 O 421.455 -0.456957 -1.681 0
M  V30 4696 C 418.587 -1.00229 -3.25833 0
M  V30 4697 H 419.78 -2.26576 -1.96478 0
M  V30 4698 H 417.333 -1.20509 -0.995358 0
M  V30 4699 H 418.068 -0.033801 -3.24282 0
M  V30 4700 H 417.853 -1.79121 -3.48795 0
M  V30 4701 H 419.343 -0.98219 -4.05885 0
M  V30 4702 N 419.78 1.02168 -1.19998 0
M  V30 4703 C 421.057 1.72816 -0.916191 0
M  V30 4704 C 421.437 2.03081 0.576325 0
M  V30 4705 O 420.785 1.69122 1.53656 0
M  V30 4706 C 420.995 2.9997 -1.78378 0
M  V30 4707 C 422.343 3.73336 -2.02251 0
M  V30 4708 O 423.367 3.09914 -1.75589 0
M  V30 4709 O 422.226 4.87371 -2.47249 0
M  V30 4710 H 419.32 0.752924 -0.342103 0
M  V30 4711 H 421.866 1.08062 -1.30846 0
M  V30 4712 H 420.638 2.73888 -2.79466 0
M  V30 4713 H 420.261 3.72464 -1.39126 0
M  V30 4714 N 421.258 1.00505 1.21394 0
M  V30 4715 C 422.221 0.570459 2.21987 0
M  V30 4716 C 423.221 -0.353211 1.56873 0
M  V30 4717 O 424.411 -0.14349 1.73608 0
M  V30 4718 C 421.543 -0.168555 3.40483 0
M  V30 4719 H 422.736 1.46021 2.6195 0
M  V30 4720 H 420.289 0.793565 1.34656 0
M  V30 4721 H 421.024 -1.07374 3.06009 0
M  V30 4722 H 420.809 0.494823 3.88965 0
M  V30 4723 H 422.299 -0.460362 4.15055 0
M  V30 4724 N 422.737 -1.36956 0.779787 0
M  V30 4725 C 423.67 -2.27896 0.117681 0
M  V30 4726 C 424.648 -1.46736 -0.700523 0
M  V30 4727 O 425.832 -1.76055 -0.673568 0
M  V30 4728 C 422.959 -3.28136 -0.839296 0
M  V30 4729 C 422.005 -4.26373 -0.10409 0
M  V30 4730 S 422.838 -5.2157 1.21348 0
M  V30 4731 C 423.994 -6.25359 0.260249 0
M  V30 4732 H 424.227 -2.83704 0.888778 0
M  V30 4733 H 421.76 -1.43352 0.57355 0
M  V30 4734 H 423.718 -3.86394 -1.38601 0
M  V30 4735 H 422.379 -2.7126 -1.58356 0
M  V30 4736 H 421.572 -4.97121 -0.82986 0
M  V30 4737 H 421.174 -3.72147 0.371858 0
M  V30 4738 H 423.466 -6.75145 -0.564435 0
M  V30 4739 H 424.409 -7.01885 0.936135 0
M  V30 4740 H 424.817 -5.64345 -0.132127 0
M  V30 4741 N 424.215 -0.530993 -1.48385 0
M  V30 4742 C 425.461 0.00274135 -2.028 0
M  V30 4743 C 425.794 1.33838 -1.40716 0
M  V30 4744 O 425.069 1.86465 -0.553277 0
M  V30 4745 C 425.352 0.123676 -3.59888 0
M  V30 4746 C 425.205 -1.2372 -4.3245 0
M  V30 4747 C 426.524 0.849967 -4.31814 0
M  V30 4748 H 423.643 -0.000477758 -0.737 0
M  V30 4749 H 426.285 -0.688217 -1.77098 0
M  V30 4750 H 424.435 0.712157 -3.81917 0
M  V30 4751 H 426.107 -1.86687 -4.21836 0
M  V30 4752 H 424.35 -1.81882 -3.93829 0
M  V30 4753 H 425.021 -1.10557 -5.40815 0
M  V30 4754 H 427.497 0.350572 -4.14621 0
M  V30 4755 H 426.373 0.903486 -5.41413 0
M  V30 4756 H 426.634 1.90047 -3.99167 0
M  V30 4757 N 425.693 1.55336 -0.266172 0
M  V30 4758 C 426.623 2.25146 0.618981 0
M  V30 4759 C 427.604 1.23845 1.16604 0
M  V30 4760 O 428.789 1.52544 1.20183 0
M  V30 4761 C 425.919 2.96572 1.80728 0
M  V30 4762 C 424.873 4.04726 1.39215 0
M  V30 4763 C 424.199 4.63678 2.66283 0
M  V30 4764 C 425.499 5.19407 0.548942 0
M  V30 4765 H 427.193 2.99377 0.0368116 0
M  V30 4766 H 424.739 1.43991 0.0162651 0
M  V30 4767 H 426.692 3.44116 2.43232 0
M  V30 4768 H 425.416 2.19861 2.41514 0
M  V30 4769 H 424.075 3.57979 0.790351 0
M  V30 4770 H 423.723 3.83646 3.25308 0
M  V30 4771 H 423.423 5.367 2.39222 0
M  V30 4772 H 424.947 5.13967 3.29651 0
M  V30 4773 H 426.361 5.63059 1.07876 0
M  V30 4774 H 424.758 5.98936 0.373593 0
M  V30 4775 H 425.828 4.8295 -0.434394 0
M  V30 4776 N 427.171 -0.0066808 1.57599 0
M  V30 4777 C 428.417 -0.693947 1.90558 0
M  V30 4778 C 428.75 -1.73792 0.866594 0
M  V30 4779 O 428.025 -1.94156 -0.115548 0
M  V30 4780 C 428.308 -1.34317 3.34112 0
M  V30 4781 C 428.161 -0.311189 4.48722 0
M  V30 4782 C 429.48 -2.27116 3.7697 0
M  V30 4783 H 426.599 -0.250803 0.693013 0
M  V30 4784 H 429.241 0.043242 1.89951 0
M  V30 4785 H 427.391 -1.9715 3.3476 0
M  V30 4786 H 429.063 0.316944 4.6021 0
M  V30 4787 H 427.306 0.367253 4.32243 0
M  V30 4788 H 427.977 -0.804366 5.46108 0
M  V30 4789 H 430.453 -1.74306 3.77831 0
M  V30 4790 H 429.329 -2.69511 4.78179 0
M  V30 4791 H 429.59 -3.14743 3.10466 0
M  V30 4792 N 428.649 -1.55105 -0.279332 0
M  V30 4793 C 429.612 -1.86783 -1.32834 0
M  V30 4794 C 430.612 -0.74199 -1.42657 0
M  V30 4795 O 431.802 -1.0102 -1.41918 0
M  V30 4796 C 428.934 -2.06746 -2.71052 0
M  V30 4797 H 430.127 -2.8055 -1.05979 0
M  V30 4798 H 427.68 -1.47499 -0.517087 0
M  V30 4799 H 428.415 -1.15339 -3.03097 0
M  V30 4800 H 428.2 -2.88711 -2.65309 0
M  V30 4801 H 429.69 -2.32549 -3.46858 0
M  V30 4802 N 430.127 0.543554 -1.4793 0
M  V30 4803 C 431.543 0.870806 -1.3375 0
M  V30 4804 C 431.743 1.9864 -0.338261 0
M  V30 4805 O 430.799 2.51305 0.245371 0
M  V30 4806 C 432.112 1.25114 -2.73435 0
M  V30 4807 C 433.66 1.3618 -2.81823 0
M  V30 4808 C 434.135 1.77563 -4.22179 0
M  V30 4809 N 435.626 1.8469 -4.24787 0
M  V30 4810 C 436.361 2.18067 -5.30315 0
M  V30 4811 N 435.857 2.49963 -6.46135 0
M  V30 4812 N 437.65 2.18958 -5.17701 0
M  V30 4813 H 429.801 -0.19275 -2.11524 0
M  V30 4814 H 432.064 -0.0235777 -0.947707 0
M  V30 4815 H 431.77 0.50514 -3.48053 0
M  V30 4816 H 431.644 2.20431 -3.06088 0
M  V30 4817 H 434.031 2.09859 -2.07468 0
M  V30 4818 H 434.112 0.390169 -2.52807 0
M  V30 4819 H 433.756 1.04449 -4.97044 0
M  V30 4820 H 433.686 2.75753 -4.48629 0
M  V30 4821 H 436.177 1.62372 -3.41239 0
M  V30 4822 H 436.49 2.74497 -7.22406 0
M  V30 4823 H 434.835 2.47513 -6.49432 0
M  V30 4824 H 438.026 1.93488 -4.2624 0
M  V30 4825 H 438.199 2.44639 -6.00047 0
M  V30 4826 N 431.605 1.3629 0.791371 0
M  V30 4827 C 432.553 1.30514 1.92533 0
M  V30 4828 C 433.547 0.197285 1.68247 0
M  V30 4829 O 434.753 0.364176 1.76278 0
M  V30 4830 H 431.128 0.406263 0.632815 0
M  V30 4831 H 433.099 2.26282 1.94523 0
M  V30 4832 C 431.848 1.10933 3.29529 0
M  V30 4833 H 431.171 1.95427 3.48781 0
M  V30 4834 H 432.611 1.10937 4.0923 0
M  V30 4835 C 431.07 -0.186123 3.36385 0
M  V30 4836 O 431.6 -1.17664 3.84081 0
M  V30 4837 N 429.806 -0.230128 2.89687 0
M  V30 4838 H 429.353 0.576545 2.51065 0
M  V30 4839 H 429.311 -1.09658 2.94657 0
M  V30 4840 N 433.083 -1.0153 1.20538 0
M  V30 4841 C 434.313 -1.78487 1.04048 0
M  V30 4842 C 434.721 -1.84631 -0.413292 0
M  V30 4843 O 434.064 -1.29919 -1.29872 0
M  V30 4844 C 434.126 -3.24367 1.55003 0
M  V30 4845 C 433.79 -3.41827 3.0332 0
M  V30 4846 C 434.787 -3.30941 4.00966 0
M  V30 4847 C 432.472 -3.67602 3.42307 0
M  V30 4848 C 434.466 -3.45577 5.35589 0
M  V30 4849 C 432.153 -3.81881 4.77085 0
M  V30 4850 C 433.151 -3.70874 5.73534 0
M  V30 4851 O 432.839 -3.84714 7.05868 0
M  V30 4852 H 432.571 -0.568108 0.366373 0
M  V30 4853 H 435.125 -1.28677 1.60098 0
M  V30 4854 H 433.355 -3.75266 0.933397 0
M  V30 4855 H 435.044 -3.82963 1.34514 0
M  V30 4856 H 435.81 -3.10964 3.72191 0
M  V30 4857 H 431.689 -3.75256 2.67776 0
M  V30 4858 H 435.233 -3.36902 6.10854 0
M  V30 4859 H 431.13 -4.01359 5.0555 0
M  V30 4860 H 431.898 -4.01724 7.13134 0
M  V30 4861 N 434.561 -1.01147 -1.20859 0
M  V30 4862 C 435.471 -0.58686 -2.27141 0
M  V30 4863 C 436.487 0.373198 -1.69951 0
M  V30 4864 O 437.663 0.235423 -2.00019 0
M  V30 4865 C 434.728 0.0733602 -3.46622 0
M  V30 4866 C 433.789 -0.931995 -4.19061 0
M  V30 4867 C 433.022 -0.303186 -5.32838 0
M  V30 4868 O 433.245 0.898395 -5.63281 0
M  V30 4869 O 432.179 -1.01735 -5.9324 0
M  V30 4870 H 436.005 -1.47155 -2.65667 0
M  V30 4871 H 433.59 -0.780689 -1.2738 0
M  V30 4872 H 435.472 0.442333 -4.19072 0
M  V30 4873 H 434.147 0.932329 -3.09983 0
M  V30 4874 H 433.054 -1.35224 -3.48805 0
M  V30 4875 H 434.387 -1.76076 -4.59628 0
M  V30 4876 N 436.039 1.36541 -0.78704 0
M  V30 4877 C 437.455 1.52571 -0.46844 0
M  V30 4878 C 437.655 1.7415 1.01361 0
M  V30 4879 O 436.711 1.77163 1.79915 0
M  V30 4880 C 438.024 2.71299 -1.29682 0
M  V30 4881 C 439.572 2.85169 -1.29027 0
M  V30 4882 C 440.047 4.06898 -2.10233 0
M  V30 4883 N 441.538 4.1404 -2.07666 0
M  V30 4884 C 442.273 5.07301 -2.67271 0
M  V30 4885 N 441.769 6.06021 -3.35724 0
M  V30 4886 N 443.562 4.99898 -2.57018 0
M  V30 4887 H 435.713 1.20788 -1.74711 0
M  V30 4888 H 437.976 0.589364 -0.742532 0
M  V30 4889 H 437.682 2.61868 -2.34773 0
M  V30 4890 H 437.556 3.6539 -0.936479 0
M  V30 4891 H 439.943 2.94062 -0.247284 0
M  V30 4892 H 440.024 1.91992 -1.69035 0
M  V30 4893 H 439.668 3.98766 -3.1456 0
M  V30 4894 H 439.598 4.99218 -1.67597 0
M  V30 4895 H 442.089 3.43357 -1.57843 0
M  V30 4896 H 442.402 6.73741 -3.78541 0
M  V30 4897 H 440.747 6.06253 -3.39826 0
M  V30 4898 H 443.938 4.21724 -2.03142 0
M  V30 4899 H 444.111 5.72392 -3.03761 0
M  V30 4900 N 437.518 0.538854 1.48102 0
M  V30 4901 C 438.748 0.0122958 2.06596 0
M  V30 4902 C 439.156 -1.27861 1.39457 0
M  V30 4903 O 438.499 -1.77348 0.478907 0
M  V30 4904 C 438.561 -0.273131 3.58461 0
M  V30 4905 C 438.225 0.92561 4.47528 0
M  V30 4906 C 439.222 1.82637 4.86765 0
M  V30 4907 C 436.907 1.13511 4.89306 0
M  V30 4908 C 438.901 2.92047 5.66558 0
M  V30 4909 C 436.588 2.23233 5.68868 0
M  V30 4910 C 437.586 3.12333 6.07402 0
M  V30 4911 O 437.274 4.20155 6.85365 0
M  V30 4912 H 437.006 0.0344283 0.675123 0
M  V30 4913 H 439.56 0.746494 1.91355 0
M  V30 4914 H 437.79 -1.06141 3.71848 0
M  V30 4915 H 439.479 -0.742842 3.99045 0
M  V30 4916 H 440.245 1.67649 4.55103 0
M  V30 4917 H 436.124 0.450835 4.5879 0
M  V30 4918 H 439.668 3.6162 5.96554 0
M  V30 4919 H 435.565 2.38201 5.99942 0
M  V30 4920 H 436.333 4.17975 7.03732 0
M  V30 4921 N 438.996 -1.55193 0.274407 0
M  V30 4922 C 439.943 -2.225 -0.613374 0
M  V30 4923 C 440.913 -1.19823 -1.15029 0
M  V30 4924 O 442.098 -1.48362 -1.19973 0
M  V30 4925 C 439.238 -2.94927 -1.79199 0
M  V30 4926 C 438.351 -4.12322 -1.28899 0
M  V30 4927 C 437.486 -4.72394 -2.42934 0
M  V30 4928 C 436.525 -5.81984 -1.89634 0
M  V30 4929 N 435.662 -6.36123 -2.9714 0
M  V30 4930 H 440.502 -2.97982 -0.032756 0
M  V30 4931 H 438.039 -1.47099 -0.00440146 0
M  V30 4932 H 439.997 -3.35134 -2.48478 0
M  V30 4933 H 438.627 -2.2187 -2.34465 0
M  V30 4934 H 437.679 -3.7724 -0.489327 0
M  V30 4935 H 438.991 -4.91355 -0.858587 0
M  V30 4936 H 438.145 -5.15317 -3.20208 0
M  V30 4937 H 436.884 -3.92636 -2.8929 0
M  V30 4938 H 435.889 -5.38511 -1.1084 0
M  V30 4939 H 437.114 -6.6361 -1.44215 0
M  V30 4940 H 435.06 -5.59259 -3.42878 0
M  V30 4941 H 434.977 -7.10427 -2.58515 0
M  V30 4942 H 436.245 -6.83704 -3.74391 0
M  V30 4943 N 440.474 -0.00167713 -1.576 0
M  V30 4944 C 441.422 1.0074 -2.09652 0
M  V30 4945 C 442.416 1.35483 -1.01689 0
M  V30 4946 O 443.622 1.34028 -1.20152 0
M  V30 4947 H 439.997 0.342537 -0.669457 0
M  V30 4948 H 441.968 0.542841 -2.93421 0
M  V30 4949 C 440.717 2.2899 -2.61647 0
M  V30 4950 H 440.04 2.03124 -3.44355 0
M  V30 4951 H 441.48 2.9787 -3.01744 0
M  V30 4952 C 439.939 3.00085 -1.53136 0
M  V30 4953 O 440.469 3.91135 -0.91524 0
M  V30 4954 N 438.675 2.6194 -1.25841 0
M  V30 4955 H 438.222 1.8798 -1.76129 0
M  V30 4956 H 438.18 3.09822 -0.534576 0
M  V30 4957 N 441.952 1.55251 0.271103 0
M  V30 4958 C 442.862 1.9136 1.35714 0
M  V30 4959 C 443.878 0.811075 1.5394 0
M  V30 4960 O 445.054 1.11031 1.6803 0
M  V30 4961 C 442.119 2.1798 2.69603 0
M  V30 4962 C 441.18 3.4153 2.60107 0
M  V30 4963 C 440.413 3.66871 3.8761 0
M  V30 4964 O 440.636 2.94689 4.8838 0
M  V30 4965 O 439.57 4.60405 3.87699 0
M  V30 4966 H 443.396 2.83815 1.08088 0
M  V30 4967 H 440.981 1.41821 0.469792 0
M  V30 4968 H 442.863 2.36518 3.48765 0
M  V30 4969 H 441.538 1.28708 2.97012 0
M  V30 4970 H 440.445 3.28325 1.79314 0
M  V30 4971 H 441.778 4.31027 2.37647 0
M  V30 4972 N 443.43 -0.535701 1.48216 0
M  V30 4973 C 444.67 -1.30238 1.57536 0
M  V30 4974 C 445.034 -1.90479 0.241229 0
M  V30 4975 O 446.235 -2.67983 0.20938 0
M  V30 4976 C 444.506 -2.3669 2.67792 0
M  V30 4977 S 446.065 -3.23159 2.9684 0
M  V30 4978 H 442.883 -0.443093 0.556048 0
M  V30 4979 H 445.485 -0.610937 1.85709 0
M  V30 4980 H 444.189 -1.90905 3.63296 0
M  V30 4981 H 443.72 -3.10548 2.41502 0
M  V30 4982 H 445.735 -4.36647 2.35699 0
M  V30 4983 N 444.908 -1.36708 -0.784132 0
M  V30 4984 C 446.324 -1.17237 -1.08294 0
M  V30 4985 C 446.524 -5.93947e-05 -2.015 0
M  V30 4986 O 445.58 0.663686 -2.43622 0
M  V30 4987 C 446.893 -2.48557 -1.69233 0
M  V30 4988 C 448.441 -2.54968 -1.8155 0
M  V30 4989 C 448.916 -3.86388 -2.45904 0
M  V30 4990 N 450.407 -3.87762 -2.53367 0
M  V30 4991 C 451.142 -4.86191 -3.03983 0
M  V30 4992 N 450.638 -5.95015 -3.54866 0
M  V30 4993 N 452.431 -4.73606 -3.02743 0
M  V30 4994 H 444.582 -2.11758 -0.16501 0
M  V30 4995 H 446.845 -0.93822 -0.135822 0
M  V30 4996 H 446.551 -3.34638 -1.08215 0
M  V30 4997 H 446.425 -2.64748 -2.68679 0
M  V30 4998 H 448.812 -1.69302 -2.41704 0
M  V30 4999 H 448.893 -2.42672 -0.80895 0
M  V30 5000 H 448.537 -4.72462 -1.86392 0
M  V30 5001 H 448.467 -3.95982 -3.4714 0
M  V30 5002 H 450.958 -3.09145 -2.17343 0
M  V30 5003 H 451.271 -6.66086 -3.91854 0
M  V30 5004 H 449.616 -5.98676 -3.53003 0
M  V30 5005 H 452.807 -3.87717 -2.62284 0
M  V30 5006 H 452.98 -5.50473 -3.41881 0
M  V30 5007 N 446.386 1.0089 -1.21074 0
M  V30 5008 C 447.296 2.13039 -0.982425 0
M  V30 5009 C 448.312 1.73881 0.0642161 0
M  V30 5010 O 449.488 2.01012 -0.12496 0
M  V30 5011 C 446.553 3.42377 -0.545803 0
M  V30 5012 C 445.614 3.95731 -1.6642 0
M  V30 5013 C 444.847 5.18896 -1.24832 0
M  V30 5014 O 445.07 5.70273 -0.120265 0
M  V30 5015 O 444.004 5.65597 -2.05873 0
M  V30 5016 H 447.83 2.35175 -1.92163 0
M  V30 5017 H 445.415 1.1142 -0.995285 0
M  V30 5018 H 447.297 4.20244 -0.311912 0
M  V30 5019 H 445.972 3.21639 0.364727 0
M  V30 5020 H 444.879 3.19108 -1.95246 0
M  V30 5021 H 446.212 4.20872 -2.55201 0
M  V30 5022 N 447.864 1.01787 1.20321 0
M  V30 5023 C 448.811 0.589197 2.23153 0
M  V30 5024 C 449.781 -0.391367 1.61423 0
M  V30 5025 O 450.966 -0.290518 1.88575 0
M  V30 5026 C 448.106 -0.0650747 3.45039 0
M  V30 5027 C 447.219 0.960207 4.21194 0
M  V30 5028 C 446.354 0.276854 5.30478 0
M  V30 5029 C 445.393 1.2888 5.98378 0
M  V30 5030 N 444.53 0.632031 6.99249 0
M  V30 5031 H 449.37 1.47071 2.59179 0
M  V30 5032 H 446.907 0.736192 1.27352 0
M  V30 5033 H 448.865 -0.461552 4.14639 0
M  V30 5034 H 447.495 -0.910233 3.09701 0
M  V30 5035 H 446.547 1.47484 3.50646 0
M  V30 5036 H 447.859 1.72977 4.67847 0
M  V30 5037 H 447.013 -0.175056 6.06447 0
M  V30 5038 H 445.752 -0.525004 4.84866 0
M  V30 5039 H 444.757 1.75109 5.21169 0
M  V30 5040 H 445.982 2.09196 6.46076 0
M  V30 5041 H 443.928 -0.149935 6.55829 0
M  V30 5042 H 443.845 1.33964 7.44036 0
M  V30 5043 H 445.113 0.203755 7.79234 0
M  V30 5044 N 449.342 -1.36122 0.79427 0
M  V30 5045 C 450.252 -2.33769 0.197296 0
M  V30 5046 C 451.268 -1.61276 -0.653153 0
M  V30 5047 O 452.444 -1.9323 -0.5678 0
M  V30 5048 C 449.509 -3.40474 -0.654098 0
M  V30 5049 C 448.57 -4.28759 0.215411 0
M  V30 5050 C 447.803 -5.30368 -0.595443 0
M  V30 5051 O 448.026 -5.40211 -1.83107 0
M  V30 5052 O 446.96 -6.019 0.00721351 0
M  V30 5053 H 450.786 -2.86597 1.00478 0
M  V30 5054 H 448.371 -1.38676 0.555818 0
M  V30 5055 H 450.253 -4.05703 -1.13944 0
M  V30 5056 H 448.928 -2.89937 -1.43938 0
M  V30 5057 H 447.835 -3.66554 0.747615 0
M  V30 5058 H 449.168 -4.82661 0.964332 0
M  V30 5059 N 450.82 -0.546701 -1.47814 0
M  V30 5060 C 452.236 -0.205717 -1.58269 0
M  V30 5061 C 452.436 1.29153 -1.54667 0
M  V30 5062 O 451.492 2.07098 -1.44453 0
M  V30 5063 C 452.805 -0.823065 -2.89216 0
M  V30 5064 C 454.353 -0.793328 -3.02779 0
M  V30 5065 C 454.828 -1.38955 -4.36412 0
M  V30 5066 N 456.319 -1.35227 -4.43021 0
M  V30 5067 C 457.054 -1.78333 -5.44963 0
M  V30 5068 N 456.55 -2.29246 -6.53772 0
M  V30 5069 N 458.343 -1.69467 -5.35945 0
M  V30 5070 H 450.494 -1.5196 -1.48398 0
M  V30 5071 H 452.757 -0.633078 -0.705632 0
M  V30 5072 H 452.463 -1.8749 -2.97558 0
M  V30 5073 H 452.337 -0.309915 -3.75925 0
M  V30 5074 H 454.724 0.249784 -2.94041 0
M  V30 5075 H 454.805 -1.34412 -2.17639 0
M  V30 5076 H 454.449 -2.43168 -4.45906 0
M  V30 5077 H 454.379 -0.814291 -5.20266 0
M  V30 5078 H 456.87 -0.979739 -3.64979 0
M  V30 5079 H 457.183 -2.60089 -7.27718 0
M  V30 5080 H 455.528 -2.3325 -6.5469 0
M  V30 5081 H 458.719 -1.29477 -4.49837 0
M  V30 5082 H 458.892 -2.03381 -6.15256 0
M  V30 5083 N 452.299 1.55045 -0.282633 0
M  V30 5084 C 453.209 2.26491 0.61147 0
M  V30 5085 C 454.225 1.29348 1.16384 0
M  V30 5086 O 455.401 1.62298 1.19253 0
M  V30 5087 C 452.466 2.97779 1.77563 0
M  V30 5088 C 451.527 4.10418 1.25919 0
M  V30 5089 C 450.76 4.78297 2.36786 0
M  V30 5090 O 450.983 4.45426 3.56303 0
M  V30 5091 O 449.917 5.66089 2.04517 0
M  V30 5092 H 453.743 3.03683 0.0324615 0
M  V30 5093 H 451.328 1.49317 -0.0497576 0
M  V30 5094 H 453.21 3.42554 2.45427 0
M  V30 5095 H 451.885 2.23498 2.34159 0
M  V30 5096 H 450.792 3.70082 0.546797 0
M  V30 5097 H 452.125 4.86622 0.738887 0
M  V30 5098 N 453.777 0.010035 1.57597 0
M  V30 5099 C 454.687 -0.994226 2.12491 0
M  V30 5100 C 455.703 -1.37013 1.07254 0
M  V30 5101 O 456.879 -1.45542 1.3921 0
M  V30 5102 C 453.944 -2.2642 2.62555 0
M  V30 5103 C 453.005 -1.95049 3.82432 0
M  V30 5104 C 452.238 -3.15991 4.30099 0
M  V30 5105 O 452.461 -4.28015 3.7704 0
M  V30 5106 O 451.395 -2.99403 5.22151 0
M  V30 5107 H 455.221 -0.557549 2.98538 0
M  V30 5108 H 452.806 -0.209413 1.47925 0
M  V30 5109 H 454.688 -3.01009 2.9491 0
M  V30 5110 H 453.363 -2.69306 1.796 0
M  V30 5111 H 452.27 -1.17904 3.55034 0
M  V30 5112 H 453.603 -1.56992 4.66491 0
M  V30 5113 N 455.255 -1.55392 -0.262866 0
M  V30 5114 C 456.504 -1.75679 -0.990943 0
M  V30 5115 C 456.817 -0.57097 -1.87081 0
M  V30 5116 O 458.023 -0.656486 -2.63444 0
M  V30 5117 C 456.479 -3.10964 -1.81188 0
M  V30 5118 C 456.087 -4.37146 -0.980188 0
M  V30 5119 C 457.831 -3.40597 -2.53365 0
M  V30 5120 C 455.738 -5.63466 -1.7961 0
M  V30 5121 H 454.668 -0.654868 -0.373716 0
M  V30 5122 H 457.319 -1.81841 -0.246203 0
M  V30 5123 H 455.701 -2.98867 -2.59797 0
M  V30 5124 H 456.875 -4.60187 -0.237558 0
M  V30 5125 H 455.19 -4.14731 -0.372497 0
M  V30 5126 H 457.787 -4.32186 -3.14833 0
M  V30 5127 H 458.13 -2.6119 -3.24169 0
M  V30 5128 H 458.663 -3.53838 -1.81779 0
M  V30 5129 H 455.402 -6.4565 -1.13209 0
M  V30 5130 H 454.922 -5.44552 -2.51443 0
M  V30 5131 H 456.601 -6.02139 -2.36723 0
M  V30 5132 N 456.733 0.527833 -1.48498 0
M  V30 5133 C 457.696 1.61439 -1.62696 0
M  V30 5134 C 458.696 1.52824 -0.500136 0
M  V30 5135 O 459.886 1.56456 -0.765976 0
M  V30 5136 C 457.018 3.01063 -1.59918 0
M  V30 5137 H 458.211 1.50189 -2.59583 0
M  V30 5138 H 455.764 0.750055 -1.37127 0
M  V30 5139 H 456.499 3.17818 -0.645163 0
M  V30 5140 H 456.284 3.08725 -2.41726 0
M  V30 5141 H 457.774 3.80057 -1.73051 0
M  V30 5142 N 458.211 1.37122 0.776871 0
M  V30 5143 C 459.627 1.1781 1.07671 0
M  V30 5144 C 459.827 0.0107454 2.01497 0
M  V30 5145 O 458.883 -0.650756 2.4397 0
M  V30 5146 C 460.196 2.49451 1.67913 0
M  V30 5147 C 461.744 2.55927 1.80195 0
M  V30 5148 C 462.219 3.87686 2.43851 0
M  V30 5149 N 463.71 3.891 2.51307 0
M  V30 5150 C 464.445 4.87797 3.014 0
M  V30 5151 N 463.941 5.96888 3.51705 0
M  V30 5152 N 465.734 4.75205 3.00227 0
M  V30 5153 H 457.885 2.11843 0.153778 0
M  V30 5154 H 460.148 0.938927 0.130844 0
M  V30 5155 H 459.854 3.35207 1.06439 0
M  V30 5156 H 459.728 2.66169 2.67271 0
M  V30 5157 H 462.115 1.70582 2.40803 0
M  V30 5158 H 462.196 2.43097 0.796069 0
M  V30 5159 H 461.84 4.73444 1.83884 0
M  V30 5160 H 461.77 3.97817 3.45035 0
M  V30 5161 H 464.261 3.10293 2.157 0
M  V30 5162 H 464.574 6.68155 3.88316 0
M  V30 5163 H 462.919 6.0054 3.49824 0
M  V30 5164 H 466.11 3.89103 2.60224 0
M  V30 5165 H 466.283 5.52279 3.38957 0
M  V30 5166 N 459.689 -1.00246 1.21608 0
M  V30 5167 C 460.621 -2.09244 0.935401 0
M  V30 5168 C 461.634 -1.62592 -0.0823594 0
M  V30 5169 O 462.823 -1.77865 0.150456 0
M  V30 5170 C 459.923 -3.36724 0.383453 0
M  V30 5171 C 459.096 -4.1245 1.45615 0
M  V30 5172 C 458.155 -5.18219 0.912991 0
M  V30 5173 O 457.181 -5.46337 1.59701 0
M  V30 5174 N 458.383 -5.7987 -0.270478 0
M  V30 5175 H 461.148 -2.33905 1.87373 0
M  V30 5176 H 458.709 -1.16748 1.12167 0
M  V30 5177 H 460.701 -4.047 0.00562157 0
M  V30 5178 H 459.271 -3.09201 -0.459758 0
M  V30 5179 H 458.491 -3.39241 2.00772 0
M  V30 5180 H 459.779 -4.59819 2.17817 0
M  V30 5181 H 459.177 -5.59381 -0.843195 0
M  V30 5182 H 457.734 -6.49126 -0.589794 0
M  V30 5183 N 461.167 -1.02423 -1.1978 0
M  V30 5184 C 462.13 -0.605703 -2.21052 0
M  V30 5185 C 463.13 0.328209 -1.57415 0
M  V30 5186 O 464.32 0.115853 -1.73814 0
M  V30 5187 C 461.452 0.114366 -3.40708 0
M  V30 5188 H 462.645 -1.5017 -2.59594 0
M  V30 5189 H 460.198 -0.814888 -1.33376 0
M  V30 5190 H 460.933 1.02492 -3.07678 0
M  V30 5191 H 460.718 -0.556641 -3.88129 0
M  V30 5192 H 462.208 0.394272 -4.15735 0
M  V30 5193 N 462.645 1.35699 -0.801477 0
M  V30 5194 C 463.608 2.28199 -0.213994 0
M  V30 5195 C 464.608 1.49359 0.595691 0
M  V30 5196 O 465.798 1.69186 0.414921 0
M  V30 5197 C 462.93 3.33587 0.702297 0
M  V30 5198 H 464.123 2.81666 -1.02976 0
M  V30 5199 H 461.676 1.45467 -0.571759 0
M  V30 5200 H 462.411 2.85297 1.54195 0
M  V30 5201 H 462.196 3.91906 0.123484 0
M  V30 5202 H 463.686 4.02638 1.10783 0
M  V30 5203 N 464.123 0.554532 1.47522 0
M  V30 5204 C 465.07 -0.19466 2.29978 0
M  V30 5205 C 466.04 -0.910882 1.38896 0
M  V30 5206 O 467.225 -0.907102 1.67858 0
M  V30 5207 C 464.365 -1.22035 3.22802 0
M  V30 5208 C 463.478 -0.510474 4.28973 0
M  V30 5209 C 462.613 -1.52123 5.08952 0
M  V30 5210 C 461.652 -0.796173 6.069 0
M  V30 5211 N 460.789 -1.75363 6.79847 0
M  V30 5212 H 465.629 0.51461 2.93523 0
M  V30 5213 H 463.166 0.265607 1.44682 0
M  V30 5214 H 465.124 -1.8276 3.7504 0
M  V30 5215 H 463.754 -1.89769 2.61127 0
M  V30 5216 H 462.806 0.211234 3.79813 0
M  V30 5217 H 464.118 0.0576503 4.98767 0
M  V30 5218 H 463.272 -2.20207 5.65326 0
M  V30 5219 H 462.011 -2.12327 4.39054 0
M  V30 5220 H 461.016 -0.101388 5.49707 0
M  V30 5221 H 462.241 -0.199911 6.78806 0
M  V30 5222 H 460.187 -2.3443 6.12682 0
M  V30 5223 H 460.104 -1.23759 7.45801 0
M  V30 5224 H 461.372 -2.4257 7.40797 0
M  V30 5225 N 465.601 -1.54893 0.290851 0
M  V30 5226 C 466.534 -2.19289 -0.631489 0
M  V30 5227 C 467.512 -1.15893 -1.14051 0
M  V30 5228 O 468.696 -1.4449 -1.21058 0
M  V30 5229 C 465.823 -2.82866 -1.86291 0
M  V30 5230 C 464.869 -3.997 -1.48801 0
M  V30 5231 S 465.702 -5.32641 -0.552644 0
M  V30 5232 C 466.858 -5.99696 -1.79209 0
M  V30 5233 H 467.091 -2.9718 -0.0843791 0
M  V30 5234 H 464.624 -1.54218 0.075031 0
M  V30 5235 H 466.582 -3.20124 -2.56964 0
M  V30 5236 H 465.243 -2.04839 -2.38117 0
M  V30 5237 H 464.436 -4.42932 -2.40473 0
M  V30 5238 H 464.038 -3.63947 -0.861321 0
M  V30 5239 H 466.33 -6.19886 -2.734 0
M  V30 5240 H 467.273 -6.94071 -1.40251 0
M  V30 5241 H 467.681 -5.29226 -1.96419 0
M  V30 5242 N 467.08 -0.0183926 -1.57589 0
M  V30 5243 C 468.043 0.951986 -2.08494 0
M  V30 5244 C 469.043 1.26092 -0.997874 0
M  V30 5245 O 470.233 1.20304 -1.25987 0
M  V30 5246 C 467.365 2.27165 -2.54182 0
M  V30 5247 H 468.558 0.511307 -2.95509 0
M  V30 5248 H 466.111 0.229444 -1.54607 0
M  V30 5249 H 466.846 2.75884 -1.70465 0
M  V30 5250 H 466.631 2.06057 -3.33591 0
M  V30 5251 H 468.121 2.9674 -2.93828 0
M  V30 5252 N 468.558 1.5553 0.254621 0
M  V30 5253 C 469.835 1.6774 1.00611 0
M  V30 5254 C 470.215 0.555993 2.03647 0
M  V30 5255 O 469.563 -0.441583 2.24193 0
M  V30 5256 C 469.773 3.07725 1.6464 0
M  V30 5257 C 471.121 3.66074 2.15116 0
M  V30 5258 O 472.145 3.10476 1.74595 0
M  V30 5259 O 471.004 4.63526 2.89493 0
M  V30 5260 H 468.098 0.681958 0.467828 0
M  V30 5261 H 470.644 1.67863 0.24902 0
M  V30 5262 H 469.416 3.80792 0.900734 0
M  V30 5263 H 469.039 3.1158 2.46989 0
M  V30 5264 N 470.036 -0.519951 1.48776 0
M  V30 5265 C 470.946 -1.65025 1.66745 0
M  V30 5266 C 471.962 -1.6508 0.549954 0
M  V30 5267 O 473.138 -1.83848 0.822295 0
M  V30 5268 C 470.203 -3.0146 1.71238 0
M  V30 5269 C 469.264 -3.12182 2.94688 0
M  V30 5270 C 468.497 -4.42109 2.98958 0
M  V30 5271 O 468.72 -5.29799 2.1135 0
M  V30 5272 O 467.654 -4.57406 3.91233 0
M  V30 5273 H 471.48 -1.52801 2.62461 0
M  V30 5274 H 469.065 -0.694157 1.32294 0
M  V30 5275 H 470.947 -3.82584 1.76657 0
M  V30 5276 H 469.622 -3.13988 0.786975 0
M  V30 5277 H 468.529 -2.30316 2.94797 0
M  V30 5278 H 469.862 -3.04574 3.86646 0
M  V30 5279 N 471.514 -1.37532 -0.769588 0
M  V30 5280 C 472.477 -1.33292 -1.86456 0
M  V30 5281 C 473.477 -0.236537 -1.59051 0
M  V30 5282 O 474.667 -0.492511 -1.67093 0
M  V30 5283 C 471.799 -1.07118 -3.23633 0
M  V30 5284 H 472.992 -2.30692 -1.91628 0
M  V30 5285 H 470.545 -1.22593 -0.969572 0
M  V30 5286 H 471.28 -0.102578 -3.24138 0
M  V30 5287 H 471.065 -1.86479 -3.44917 0
M  V30 5288 H 472.555 -1.06806 -4.03711 0
M  V30 5289 N 472.992 0.995999 -1.22138 0
M  V30 5290 C 474.241 1.72928 -1.03821 0
M  V30 5291 C 474.554 1.90872 0.427444 0
M  V30 5292 O 475.76 2.61496 0.730212 0
M  V30 5293 C 474.216 3.11124 -1.80913 0
M  V30 5294 C 473.824 3.01122 -3.31707 0
M  V30 5295 C 475.568 3.8852 -1.71035 0
M  V30 5296 C 473.475 4.34453 -4.01253 0
M  V30 5297 H 472.405 0.648376 -0.384869 0
M  V30 5298 H 475.056 1.11213 -1.45959 0
M  V30 5299 H 473.438 3.73503 -1.31573 0
M  V30 5300 H 474.612 2.47926 -3.88419 0
M  V30 5301 H 472.927 2.3721 -3.42228 0
M  V30 5302 H 475.524 4.872 -2.20318 0
M  V30 5303 H 475.867 4.1087 -0.670196 0
M  V30 5304 H 476.4 3.32812 -2.17902 0
M  V30 5305 H 473.139 4.17303 -5.05508 0
M  V30 5306 H 472.659 4.87574 -3.49331 0
M  V30 5307 H 474.338 5.03215 -4.06674 0
M  V30 5308 N 474.47 1.03057 1.19235 0
M  V30 5309 C 475.4 0.633497 2.24742 0
M  V30 5310 C 476.381 -0.358335 1.66283 0
M  V30 5311 O 477.566 -0.240676 1.92703 0
M  V30 5312 C 474.696 -0.0147648 3.47297 0
M  V30 5313 C 473.65 0.899527 4.18441 0
M  V30 5314 C 472.976 0.116281 5.34574 0
M  V30 5315 C 474.276 2.21404 4.73051 0
M  V30 5316 H 475.97 1.5155 2.58211 0
M  V30 5317 H 473.516 0.73014 1.24117 0
M  V30 5318 H 475.469 -0.304202 4.20301 0
M  V30 5319 H 474.193 -0.931577 3.13032 0
M  V30 5320 H 472.852 1.17319 3.47321 0
M  V30 5321 H 472.5 -0.802619 4.96555 0
M  V30 5322 H 472.2 0.725293 5.83107 0
M  V30 5323 H 473.724 -0.166376 6.10373 0
M  V30 5324 H 475.138 1.98601 5.37802 0
M  V30 5325 H 473.535 2.77512 5.32078 0
M  V30 5326 H 474.605 2.86752 3.91026 0
M  V30 5327 N 475.948 -1.35272 0.808662 0
M  V30 5328 C 476.88 -2.28507 0.178149 0
M  V30 5329 C 477.893 -1.50377 -0.623754 0
M  V30 5330 O 479.082 -1.72583 -0.455774 0
M  V30 5331 C 476.182 -3.30038 -0.769959 0
M  V30 5332 C 475.355 -4.37398 -0.0139749 0
M  V30 5333 C 474.414 -5.18775 -0.880875 0
M  V30 5334 O 473.44 -5.68236 -0.331059 0
M  V30 5335 N 474.642 -5.37087 -2.20267 0
M  V30 5336 H 477.407 -2.83255 0.979106 0
M  V30 5337 H 474.968 -1.47643 0.664308 0
M  V30 5338 H 476.96 -3.81371 -1.35418 0
M  V30 5339 H 475.53 -2.75789 -1.47171 0
M  V30 5340 H 474.75 -3.86971 0.751468 0
M  V30 5341 H 476.038 -5.06268 0.506965 0
M  V30 5342 H 475.436 -4.9855 -2.67328 0
M  V30 5343 H 473.993 -5.91593 -2.73608 0
M  V30 5344 N 477.426 -0.562348 -1.47226 0
M  V30 5345 C 478.336 0.185466 -2.33866 0
M  V30 5346 C 479.352 0.906713 -1.48508 0
M  V30 5347 O 480.528 0.874458 -1.81425 0
M  V30 5348 C 477.593 1.19904 -3.25306 0
M  V30 5349 C 476.654 0.484669 -4.26555 0
M  V30 5350 C 475.887 1.44996 -5.13626 0
M  V30 5351 O 476.11 2.68515 -5.03245 0
M  V30 5352 O 475.044 0.971642 -5.94006 0
M  V30 5353 H 478.87 -0.525361 -2.99121 0
M  V30 5354 H 476.455 -0.322916 -1.45868 0
M  V30 5355 H 478.337 1.78399 -3.81774 0
M  V30 5356 H 477.012 1.8917 -2.62672 0
M  V30 5357 H 475.919 -0.141605 -3.73832 0
M  V30 5358 H 477.252 -0.166634 -4.91918 0
M  V30 5359 N 478.904 1.54736 -0.299062 0
M  V30 5360 C 480.32 1.59507 0.0543849 0
M  V30 5361 C 480.52 1.31606 1.52585 0
M  V30 5362 O 479.576 1.08853 2.27832 0
M  V30 5363 C 480.889 2.98751 -0.34181 0
M  V30 5364 C 482.437 3.1165 -0.290414 0
M  V30 5365 C 482.912 4.53199 -0.661402 0
M  V30 5366 N 484.403 4.59114 -0.613863 0
M  V30 5367 C 485.138 5.66709 -0.873417 0
M  V30 5368 N 484.634 6.82349 -1.19884 0
M  V30 5369 N 486.427 5.56369 -0.800608 0
M  V30 5370 H 478.578 1.71133 -1.25806 0
M  V30 5371 H 480.841 0.799186 -0.509908 0
M  V30 5372 H 480.547 3.24085 -1.36608 0
M  V30 5373 H 480.421 3.75961 0.305508 0
M  V30 5374 H 482.808 2.86066 0.724605 0
M  V30 5375 H 482.889 2.366 -0.972327 0
M  V30 5376 H 482.533 4.79513 -1.67422 0
M  V30 5377 H 482.463 5.26583 0.0425612 0
M  V30 5378 H 484.954 3.76053 -0.3732 0
M  V30 5379 H 485.267 7.60326 -1.38291 0
M  V30 5380 H 483.612 6.83906 -1.23685 0
M  V30 5381 H 486.803 4.64904 -0.546045 0
M  V30 5382 H 486.976 6.40139 -1.00626 0
M  V30 5383 N 480.382 0.0267497 1.57577 0
M  V30 5384 C 481.292 -0.971633 2.13533 0
M  V30 5385 C 482.308 -1.35868 1.08701 0
M  V30 5386 O 483.484 -1.44058 1.40746 0
M  V30 5387 C 480.549 -2.23622 2.64941 0
M  V30 5388 C 479.61 -1.90982 3.8448 0
M  V30 5389 C 478.843 -3.11411 4.33427 0
M  V30 5390 O 479.066 -4.23992 3.81558 0
M  V30 5391 O 478 -2.93848 5.25297 0
M  V30 5392 H 481.826 -0.525853 2.99113 0
M  V30 5393 H 479.411 -0.193712 1.48139 0
M  V30 5394 H 481.293 -2.97864 2.98086 0
M  V30 5395 H 479.968 -2.67386 1.82446 0
M  V30 5396 H 478.875 -1.14132 3.56265 0
M  V30 5397 H 480.208 -1.52036 4.6813 0
M  V30 5398 N 481.861 -1.55662 -0.24637 0
M  V30 5399 C 483.277 -1.48098 -0.594907 0
M  V30 5400 C 483.477 -0.717044 -1.8831 0
M  V30 5401 O 482.533 -0.246618 -2.51293 0
M  V30 5402 C 483.846 -2.92507 -0.697146 0
M  V30 5403 C 485.394 -3.02881 -0.789436 0
M  V30 5404 C 485.869 -4.48598 -0.923232 0
M  V30 5405 N 487.36 -4.52538 -0.988088 0
M  V30 5406 C 488.095 -5.62536 -1.11089 0
M  V30 5407 N 487.591 -6.82342 -1.19919 0
M  V30 5408 N 489.384 -5.50334 -1.14408 0
M  V30 5409 H 481.535 -2.0377 0.599278 0
M  V30 5410 H 483.798 -0.925145 0.20691 0
M  V30 5411 H 483.504 -3.51242 0.179396 0
M  V30 5412 H 483.378 -3.43024 -1.5689 0
M  V30 5413 H 485.765 -2.44226 -1.65643 0
M  V30 5414 H 485.846 -2.55574 0.107482 0
M  V30 5415 H 485.49 -5.07864 -0.0607927 0
M  V30 5416 H 485.42 -4.93587 -1.8352 0
M  V30 5417 H 487.911 -3.66248 -0.931167 0
M  V30 5418 H 488.224 -7.61924 -1.29197 0
M  V30 5419 H 486.569 -6.85102 -1.16876 0
M  V30 5420 H 489.76 -4.5567 -1.07158 0
M  V30 5421 H 489.933 -6.36096 -1.23634 0
M  V30 5422 N 483.339 0.512053 -1.4905 0
M  V30 5423 C 484.587 1.26436 -1.57665 0
M  V30 5424 C 484.908 1.93255 -0.260293 0
M  V30 5425 O 484.178 1.82206 0.719564 0
M  V30 5426 H 482.758 0.469658 -0.580888 0
M  V30 5427 H 485.42 0.594398 -1.85615 0
M  V30 5428 H 484.516 2.03417 -2.36702 0
M  V30 5429 N 484.817 1.37938 0.762283 0
M  V30 5430 C 486.065 1.33404 1.51815 0
M  V30 5431 C 486.386 -0.0780975 1.94844 0
M  V30 5432 O 485.656 -1.02405 1.67003 0
M  V30 5433 H 484.236 0.490839 0.563104 0
M  V30 5434 H 486.898 1.72527 0.906669 0
M  V30 5435 H 485.994 1.97926 2.41313 0
M  V30 5436 N 486.295 -0.989507 1.22664 0
M  V30 5437 C 487.706 -1.54406 1.04955 0
M  V30 5438 C 488.057 -1.92366 -0.385951 0
M  V30 5439 O 487.182 -1.75111 -1.27142 0
M  V30 5440 C 487.777 -2.80578 1.89899 0
M  V30 5441 C 486.336 -3.32464 1.76478 0
M  V30 5442 C 485.483 -2.05524 1.86159 0
M  V30 5443 H 488.434 -0.810211 1.3646 0
M  V30 5444 H 488.455 -3.53075 1.4184 0
M  V30 5445 H 487.967 -2.52918 2.94371 0
M  V30 5446 H 486.068 -3.65024 0.747528 0
M  V30 5447 H 486.181 -4.02838 2.59342 0
M  V30 5448 H 484.545 -2.19241 1.29636 0
M  V30 5449 H 485.328 -1.80258 2.92168 0
M  V30 5450 N 487.773 -1.03688 -1.18687 0
M  V30 5451 C 488.683 -0.634908 -2.25845 0
M  V30 5452 C 489.699 0.337065 -1.70704 0
M  V30 5453 O 490.875 0.192943 -2.00474 0
M  V30 5454 C 487.94 -0.000180054 -3.467 0
M  V30 5455 C 487.001 -1.02067 -4.1699 0
M  V30 5456 C 486.234 -0.41614 -5.32075 0
M  V30 5457 O 486.457 0.778712 -5.65059 0
M  V30 5458 O 485.391 -1.14296 -5.90948 0
M  V30 5459 H 489.217 -1.52757 -2.62486 0
M  V30 5460 H 486.802 -0.807533 -1.25695 0
M  V30 5461 H 488.684 0.353342 -4.19916 0
M  V30 5462 H 487.359 0.866367 -3.11891 0
M  V30 5463 H 486.266 -1.42592 -3.45859 0
M  V30 5464 H 487.599 -1.85786 -4.5579 0
M  V30 5465 N 489.251 1.34841 -0.815825 0
M  V30 5466 C 490.161 2.33425 -0.234462 0
M  V30 5467 C 491.177 1.62295 0.627413 0
M  V30 5468 O 492.353 1.94109 0.536987 0
M  V30 5469 C 489.418 3.41471 0.599849 0
M  V30 5470 C 488.479 4.28362 -0.283596 0
M  V30 5471 C 487.712 5.31248 0.51099 0
M  V30 5472 O 487.935 5.43056 1.7449 0
M  V30 5473 O 486.869 6.01812 -0.10297 0
M  V30 5474 H 490.695 2.84962 -1.05024 0
M  V30 5475 H 488.28 1.37774 -0.577809 0
M  V30 5476 H 490.162 4.07464 1.07475 0
M  V30 5477 H 488.837 2.9219 1.39308 0
M  V30 5478 H 487.744 3.65318 -0.805836 0
M  V30 5479 H 489.077 4.81066 -1.041 0
M  V30 5480 N 490.729 0.570148 1.46925 0
M  V30 5481 C 491.977 0.0508523 2.02036 0
M  V30 5482 C 492.298 -1.30885 1.44548 0
M  V30 5483 O 491.568 -1.85647 0.625453 0
M  V30 5484 H 490.148 0.0158088 0.746833 0
M  V30 5485 H 492.81 0.743086 1.80178 0
M  V30 5486 H 491.906 -0.027575 3.12088 0
M  V30 5487 N 492.207 -1.54576 0.307264 0
M  V30 5488 C 493.453 -2.0056 -0.300612 0
M  V30 5489 C 493.786 -1.1953 -1.53057 0
M  V30 5490 O 493.061 -0.27337 -1.92569 0
M  V30 5491 C 493.344 -3.54167 -0.650987 0
M  V30 5492 C 493.197 -4.45933 0.588539 0
M  V30 5493 C 494.516 -4.14645 -1.47506 0
M  V30 5494 H 491.635 -0.729075 -0.107788 0
M  V30 5495 H 494.277 -1.85286 0.420606 0
M  V30 5496 H 492.427 -3.67313 -1.26544 0
M  V30 5497 H 494.099 -4.44683 1.22697 0
M  V30 5498 H 492.342 -4.16274 1.22058 0
M  V30 5499 H 493.013 -5.51189 0.299153 0
M  V30 5500 H 495.489 -4.04973 -0.955821 0
M  V30 5501 H 494.365 -5.22269 -1.68899 0
M  V30 5502 H 494.626 -3.66921 -2.4662 0
M  V30 5503 N 493.685 -0.035106 -1.57561 0
M  V30 5504 C 495.101 0.321334 -1.56332 0
M  V30 5505 C 495.301 1.72509 -1.04129 0
M  V30 5506 O 494.357 2.4287 -0.690694 0
M  V30 5507 C 495.67 0.164469 -3.0025 0
M  V30 5508 C 497.218 0.236786 -3.12103 0
M  V30 5509 C 497.693 0.10864 -4.57871 0
M  V30 5510 N 499.184 0.165433 -4.62904 0
M  V30 5511 C 499.919 0.0901506 -5.73329 0
M  V30 5512 N 499.415 -0.0365606 -6.9279 0
M  V30 5513 N 501.208 0.144572 -5.61914 0
M  V30 5514 H 493.359 -0.952976 -1.89821 0
M  V30 5515 H 495.622 -0.368537 -0.873432 0
M  V30 5516 H 495.328 -0.802746 -3.42416 0
M  V30 5517 H 495.202 0.932194 -3.655 0
M  V30 5518 H 497.589 1.19446 -2.69845 0
M  V30 5519 H 497.67 -0.561419 -2.49563 0
M  V30 5520 H 497.314 -0.845644 -5.00811 0
M  V30 5521 H 497.244 0.925786 -5.18398 0
M  V30 5522 H 499.735 0.263269 -3.76982 0
M  V30 5523 H 500.048 -0.0871487 -7.72751 0
M  V30 5524 H 498.393 -0.0714256 -6.94963 0
M  V30 5525 H 501.584 0.242006 -4.67474 0
M  V30 5526 H 501.757 0.0824413 -6.47948 0
M  V30 5527 N 495.163 1.55791 0.238111 0
M  V30 5528 C 496.411 1.77681 0.963001 0
M  V30 5529 C 496.732 0.600674 1.85518 0
M  V30 5530 O 496.002 -0.383182 1.92116 0
M  V30 5531 H 494.582 0.655315 0.358568 0
M  V30 5532 H 497.244 1.93239 0.253945 0
M  V30 5533 H 496.34 2.69177 1.57956 0
M  V30 5534 N 496.642 -0.504142 1.49319 0
M  V30 5535 C 497.89 -1.25598 1.58334 0
M  V30 5536 C 498.211 -1.93114 0.270538 0
M  V30 5537 O 497.481 -1.82585 -0.709891 0
M  V30 5538 H 496.061 -0.466571 0.58337 0
M  V30 5539 H 498.723 -0.584547 1.85928 0
M  V30 5540 H 497.819 -2.02159 2.37778 0
M  V30 5541 N 498.12 -1.38341 -0.754957 0
M  V30 5542 C 499.07 -1.31964 -1.85929 0
M  V30 5543 C 500.054 -0.204181 -1.59599 0
M  V30 5544 O 501.246 -0.440036 -1.71443 0
M  V30 5545 C 498.375 -1.14565 -3.2362 0
M  V30 5546 C 497.461 -2.30727 -3.55846 0
M  V30 5547 N 497.852 -3.56165 -3.59138 0
M  V30 5548 C 496.15 -2.23249 -3.86104 0
M  V30 5549 C 496.851 -4.32865 -3.88591 0
M  V30 5550 N 495.827 -3.62203 -4.05351 0
M  V30 5551 H 499.629 -2.2694 -1.8675 0
M  V30 5552 H 497.143 -1.31553 -0.952243 0
M  V30 5553 H 499.14 -1.0808 -4.02647 0
M  V30 5554 H 497.8 -0.205212 -3.24051 0
M  V30 5555 H 498.811 -3.89854 -3.40932 0
M  V30 5556 H 495.488 -1.37357 -3.94258 0
M  V30 5557 H 496.878 -5.41504 -3.97773 0
M  V30 5558 N 499.598 0.982988 -1.23187 0
M  V30 5559 C 501.009 1.53847 -1.05773 0
M  V30 5560 C 501.36 1.92568 0.375744 0
M  V30 5561 O 500.485 1.75783 1.26211 0
M  V30 5562 C 501.08 2.79567 -1.91384 0
M  V30 5563 C 499.639 3.31524 -1.78238 0
M  V30 5564 C 498.786 2.04534 -1.87246 0
M  V30 5565 H 501.737 0.802962 -1.36888 0
M  V30 5566 H 501.758 3.52317 -1.43711 0
M  V30 5567 H 501.27 2.51353 -2.95708 0
M  V30 5568 H 499.371 3.64623 -0.766875 0
M  V30 5569 H 499.484 4.01457 -2.61475 0
M  V30 5570 H 497.848 2.1855 -1.30797 0
M  V30 5571 H 498.631 1.78706 -2.9312 0
M  V30 5572 N 501.076 1.04316 1.18135 0
M  V30 5573 C 502.487 0.775505 1.69832 0
M  V30 5574 C 502.838 -0.703348 1.8316 0
M  V30 5575 O 501.963 -1.54729 1.51287 0
M  V30 5576 C 502.558 1.40112 3.0847 0
M  V30 5577 C 501.117 1.18172 3.57368 0
M  V30 5578 C 500.264 1.49022 2.33854 0
M  V30 5579 H 503.215 1.20925 1.02775 0
M  V30 5580 H 503.236 0.805672 3.71873 0
M  V30 5581 H 502.748 2.47744 2.98738 0
M  V30 5582 H 500.849 0.124258 3.72393 0
M  V30 5583 H 500.962 1.8805 4.40652 0
M  V30 5584 H 499.326 0.909995 2.37889 0
M  V30 5585 H 500.109 2.57768 2.26738 0
M  V30 5586 N 502.554 -1.34406 0.822964 0
M  V30 5587 C 503.517 -2.2783 0.250271 0
M  V30 5588 C 504.517 -1.50288 -0.571854 0
M  V30 5589 O 505.707 -1.69825 -0.387952 0
M  V30 5590 C 502.839 -3.34663 -0.649137 0
M  V30 5591 H 504.032 -2.79992 1.07444 0
M  V30 5592 H 501.585 -1.44539 0.594829 0
M  V30 5593 H 502.32 -2.87714 -1.49637 0
M  V30 5594 H 502.105 -3.92052 -0.0611199 0
M  V30 5595 H 503.595 -4.04349 -1.04363 0
M  V30 5596 N 504.032 -0.577932 -1.46621 0
M  V30 5597 C 505.281 -0.0594281 -2.01612 0
M  V30 5598 C 505.594 1.30663 -1.45556 0
M  V30 5599 O 506.8 1.91621 -1.92337 0
M  V30 5600 C 505.256 -0.0556666 -3.59857 0
M  V30 5601 C 504.864 -1.41975 -4.24908 0
M  V30 5602 C 506.608 0.409143 -4.22524 0
M  V30 5603 C 504.515 -1.37397 -5.75218 0
M  V30 5604 H 503.445 -0.0184469 -0.753774 0
M  V30 5605 H 506.096 -0.728869 -1.68404 0
M  V30 5606 H 504.478 0.679843 -3.90121 0
M  V30 5607 H 505.652 -2.17461 -4.0626 0
M  V30 5608 H 503.967 -1.82419 -3.74316 0
M  V30 5609 H 506.564 0.46211 -5.32699 0
M  V30 5610 H 506.907 1.42565 -3.91128 0
M  V30 5611 H 507.44 -0.272152 -3.96868 0
M  V30 5612 H 504.179 -2.36714 -6.11267 0
M  V30 5613 H 503.699 -0.661239 -5.96144 0
M  V30 5614 H 505.378 -1.08484 -6.3784 0
M  V30 5615 N 505.51 1.54411 -0.315457 0
M  V30 5616 C 506.442 2.21527 0.588067 0
M  V30 5617 C 507.455 1.21263 1.08624 0
M  V30 5618 O 508.644 1.47777 1.00121 0
M  V30 5619 C 505.744 2.85963 1.81875 0
M  V30 5620 C 504.917 4.12291 1.46063 0
M  V30 5621 C 503.976 4.60396 2.54799 0
M  V30 5622 O 503.002 5.25265 2.19283 0
M  V30 5623 N 504.204 4.33935 3.85591 0
M  V30 5624 H 506.969 2.99697 0.013414 0
M  V30 5625 H 504.53 1.61308 -0.138295 0
M  V30 5626 H 506.522 3.15071 2.53993 0
M  V30 5627 H 505.092 2.11548 2.30144 0
M  V30 5628 H 504.312 3.90036 0.571445 0
M  V30 5629 H 505.6 4.9452 1.19695 0
M  V30 5630 H 504.998 3.81996 4.17248 0
M  V30 5631 H 503.555 4.67718 4.53964 0
M  V30 5632 N 506.988 0.0434614 1.5754 0
M  V30 5633 C 508.213 -0.645358 1.97104 0
M  V30 5634 C 508.638 -1.64037 0.920521 0
M  V30 5635 O 507.996 -1.80922 -0.11708 0
M  V30 5636 C 508.044 -1.31547 3.35749 0
M  V30 5637 O 507.148 -2.43103 3.33129 0
M  V30 5638 H 506.489 -0.168403 0.64229 0
M  V30 5639 H 509.019 0.109573 2.04306 0
M  V30 5640 H 509.029 -1.66895 3.72304 0
M  V30 5641 H 507.704 -0.586205 4.11748 0
M  V30 5642 H 506.281 -2.0976 3.0831 0
M  V30 5643 N 508.466 -1.55915 -0.229846 0
M  V30 5644 C 509.396 -1.94754 -1.28815 0
M  V30 5645 C 510.377 -0.814657 -1.49323 0
M  V30 5646 O 511.562 -1.07631 -1.61645 0
M  V30 5647 C 508.692 -2.25705 -2.63959 0
M  V30 5648 C 507.646 -3.41406 -2.5812 0
M  V30 5649 C 506.972 -3.57941 -3.97218 0
M  V30 5650 C 508.272 -4.76616 -2.13623 0
M  V30 5651 H 509.966 -2.83404 -0.965547 0
M  V30 5652 H 507.512 -1.36353 -0.463028 0
M  V30 5653 H 509.465 -2.51467 -3.38146 0
M  V30 5654 H 508.189 -1.339 -2.9789 0
M  V30 5655 H 506.848 -3.1568 -1.86391 0
M  V30 5656 H 506.496 -2.63526 -4.28443 0
M  V30 5657 H 506.196 -4.35757 -3.94195 0
M  V30 5658 H 507.72 -3.86042 -4.73079 0
M  V30 5659 H 509.134 -5.01637 -2.77549 0
M  V30 5660 H 507.531 -5.57655 -2.21677 0
M  V30 5661 H 508.601 -4.7253 -1.08829 0
M  V30 5662 N 509.944 0.496216 -1.49584 0
M  V30 5663 C 511.193 1.24668 -1.58558 0
M  V30 5664 C 511.506 1.9359 -0.279703 0
M  V30 5665 O 512.712 2.70365 -0.248048 0
M  V30 5666 C 511.168 2.26388 -2.79779 0
M  V30 5667 C 510.776 1.63384 -4.17145 0
M  V30 5668 C 512.52 3.02233 -2.98086 0
M  V30 5669 C 510.427 2.63243 -5.29582 0
M  V30 5670 H 509.357 0.468995 -0.590389 0
M  V30 5671 H 512.008 0.519985 -1.75978 0
M  V30 5672 H 510.39 3.02241 -2.55863 0
M  V30 5673 H 511.564 0.93491 -4.51216 0
M  V30 5674 H 509.879 0.999121 -4.04236 0
M  V30 5675 H 512.476 3.76919 -3.79257 0
M  V30 5676 H 512.819 3.60132 -2.08831 0
M  V30 5677 H 513.352 2.33495 -3.22063 0
M  V30 5678 H 510.091 2.10119 -6.20911 0
M  V30 5679 H 509.611 3.31363 -4.99959 0
M  V30 5680 H 511.29 3.25575 -5.59115 0
M  V30 5681 N 511.423 1.38739 0.74761 0
M  V30 5682 C 512.371 1.36573 1.88283 0
M  V30 5683 C 513.365 0.250712 1.67534 0
M  V30 5684 O 514.571 0.420073 1.7503 0
M  V30 5685 H 510.946 0.42619 0.619569 0
M  V30 5686 H 512.917 2.32356 1.87226 0
M  V30 5687 C 511.666 1.21361 3.25832 0
M  V30 5688 H 510.989 2.06424 3.42388 0
M  V30 5689 H 512.429 1.23901 4.05493 0
M  V30 5690 C 510.888 -0.0790099 3.36807 0
M  V30 5691 O 511.418 -1.05385 3.8763 0
M  V30 5692 N 509.624 -0.13785 2.90273 0
M  V30 5693 H 509.171 0.656128 2.49104 0
M  V30 5694 H 509.129 -1.00228 2.97996 0
M  V30 5695 N 512.901 -0.976442 1.23707 0
M  V30 5696 C 513.831 -2.08749 1.04624 0
M  V30 5697 C 514.812 -1.70057 -0.0380956 0
M  V30 5698 O 515.997 -1.93782 0.127308 0
M  V30 5699 C 513.127 -3.41335 0.640902 0
M  V30 5700 C 512.081 -3.93947 1.67302 0
M  V30 5701 C 511.407 -5.22774 1.12301 0
M  V30 5702 C 512.707 -4.22769 3.06697 0
M  V30 5703 H 514.401 -2.24972 1.97555 0
M  V30 5704 H 511.947 -1.08108 0.951247 0
M  V30 5705 H 513.9 -4.18489 0.494434 0
M  V30 5706 H 512.624 -3.24988 -0.324099 0
M  V30 5707 H 511.283 -3.18941 1.80755 0
M  V30 5708 H 510.931 -5.0278 0.148877 0
M  V30 5709 H 510.631 -5.58942 1.81267 0
M  V30 5710 H 512.155 -6.02546 0.988479 0
M  V30 5711 H 513.569 -4.90659 2.96524 0
M  V30 5712 H 511.966 -4.70147 3.72937 0
M  V30 5713 H 513.036 -3.29885 3.55392 0
M  V30 5714 N 514.379 -1.04941 -1.1758 0
M  V30 5715 C 515.309 -0.669172 -2.23706 0
M  V30 5716 C 516.29 0.331835 -1.66832 0
M  V30 5717 O 517.475 0.209988 -1.93061 0
M  V30 5718 C 514.605 -0.0404889 -3.47276 0
M  V30 5719 C 513.559 -0.965983 -4.16957 0
M  V30 5720 C 512.885 -0.201312 -5.34321 0
M  V30 5721 C 514.185 -2.28902 -4.69469 0
M  V30 5722 H 515.879 -1.55639 -2.55767 0
M  V30 5723 H 513.425 -0.749793 -1.22939 0
M  V30 5724 H 515.378 0.237298 -4.20731 0
M  V30 5725 H 514.102 0.881658 -3.14475 0
M  V30 5726 H 512.761 -1.22829 -3.45411 0
M  V30 5727 H 512.409 0.723519 -4.97769 0
M  V30 5728 H 512.109 -0.817968 -5.81879 0
M  V30 5729 H 513.633 0.0692499 -6.10561 0
M  V30 5730 H 515.047 -2.07132 -5.34574 0
M  V30 5731 H 513.444 -2.85942 -5.27596 0
M  V30 5732 H 514.514 -2.92937 -3.86414 0
M  V30 5733 N 515.857 1.33968 -0.830081 0
M  V30 5734 C 516.82 2.27694 -0.26235 0
M  V30 5735 C 517.82 1.50589 0.563876 0
M  V30 5736 O 519.01 1.70028 0.378941 0
M  V30 5737 C 516.142 3.35002 0.63138 0
M  V30 5738 H 517.335 2.79419 -1.08928 0
M  V30 5739 H 514.888 1.44221 -0.602486 0
M  V30 5740 H 515.623 2.88504 1.48109 0
M  V30 5741 H 515.408 3.92079 0.0403276 0
M  V30 5742 H 516.898 4.04897 1.02217 0
M  V30 5743 N 517.335 0.585699 1.46312 0
M  V30 5744 C 518.612 0.00542031 1.95599 0
M  V30 5745 C 518.992 -1.45619 1.52834 0
M  V30 5746 O 518.34 -2.14759 0.780446 0
M  V30 5747 C 518.55 0.180601 3.48532 0
M  V30 5748 C 519.898 0.049979 4.24571 0
M  V30 5749 O 520.922 0.109589 3.56031 0
M  V30 5750 O 519.781 -0.0832226 5.46437 0
M  V30 5751 H 516.875 -0.0481281 0.825598 0
M  V30 5752 H 519.421 0.654227 1.56582 0
M  V30 5753 H 518.193 1.19657 3.72556 0
M  V30 5754 H 517.816 -0.504498 3.94386 0
M  V30 5755 N 518.813 -1.54241 0.323641 0
M  V30 5756 C 519.761 -2.25813 -0.557804 0
M  V30 5757 C 520.755 -1.27225 -1.11849 0
M  V30 5758 O 521.961 -1.45001 -1.06652 0
M  V30 5759 H 518.336 -0.72532 -0.198532 0
M  V30 5760 H 520.307 -2.98322 0.0681112 0
M  V30 5761 C 519.056 -3.02913 -1.70701 0
M  V30 5762 H 518.379 -3.78593 -1.28482 0
M  V30 5763 H 519.819 -3.56238 -2.29935 0
M  V30 5764 C 518.278 -2.11217 -2.62467 0
M  V30 5765 O 518.808 -1.69508 -3.64184 0
M  V30 5766 N 517.014 -1.76704 -2.30703 0
M  V30 5767 H 516.561 -2.1082 -1.48029 0
M  V30 5768 H 516.519 -1.15631 -2.92364 0
M  V30 5769 N 520.291 -0.0518155 -1.57515 0
M  V30 5770 C 521.707 0.304735 -1.56664 0
M  V30 5771 C 521.907 1.71395 -1.05953 0
M  V30 5772 O 520.963 2.42123 -0.716414 0
M  V30 5773 C 522.276 0.132614 -3.00407 0
M  V30 5774 C 523.824 0.20367 -3.12337 0
M  V30 5775 C 524.299 0.0600706 -4.57961 0
M  V30 5776 N 525.79 0.116326 -4.63054 0
M  V30 5777 C 526.525 0.0293363 -5.73392 0
M  V30 5778 N 526.021 -0.110038 -6.92713 0
M  V30 5779 N 527.814 0.0849651 -5.62036 0
M  V30 5780 H 519.965 -0.973056 -1.888 0
M  V30 5781 H 522.228 -0.377781 -0.869474 0
M  V30 5782 H 521.934 -0.839019 -3.41546 0
M  V30 5783 H 521.808 0.893376 -3.66468 0
M  V30 5784 H 524.195 1.16578 -2.71097 0
M  V30 5785 H 524.276 -0.587857 -2.48954 0
M  V30 5786 H 523.92 -0.898715 -4.99886 0
M  V30 5787 H 523.85 0.87075 -5.19351 0
M  V30 5788 H 526.341 0.22327 -3.7724 0
M  V30 5789 H 526.654 -0.169104 -7.72615 0
M  V30 5790 H 524.999 -0.145132 -6.94848 0
M  V30 5791 H 528.19 0.192411 -4.67704 0
M  V30 5792 H 528.363 0.0137131 -6.47999 0
M  V30 5793 N 521.769 1.56035 0.221574 0
M  V30 5794 C 522.999 1.82864 0.961468 0
M  V30 5795 C 523.407 0.628703 1.78449 0
M  V30 5796 O 522.75 -0.412109 1.79018 0
M  V30 5797 C 522.812 3.03425 1.92804 0
M  V30 5798 C 522.476 4.38429 1.28954 0
M  V30 5799 C 523.473 5.15441 0.679431 0
M  V30 5800 C 521.158 4.85151 1.30131 0
M  V30 5801 C 523.152 6.37337 0.0896148 0
M  V30 5802 C 520.839 6.06989 0.707651 0
M  V30 5803 C 521.837 6.82923 0.102855 0
M  V30 5804 O 521.525 8.02456 -0.48157 0
M  V30 5805 H 521.257 0.611883 0.28736 0
M  V30 5806 H 523.811 2.0397 0.241932 0
M  V30 5807 H 522.041 2.78138 2.68656 0
M  V30 5808 H 523.73 3.17127 2.53348 0
M  V30 5809 H 524.496 4.80452 0.662661 0
M  V30 5810 H 520.375 4.26021 1.76145 0
M  V30 5811 H 523.919 6.96547 -0.383069 0
M  V30 5812 H 519.816 6.41451 0.721834 0
M  V30 5813 H 520.584 8.17636 -0.375887 0
M  V30 5814 N 523.247 -0.488276 1.49845 0
M  V30 5815 C 524.177 -1.59675 1.70371 0
M  V30 5816 C 525.158 -1.60878 0.552473 0
M  V30 5817 O 526.343 -1.77417 0.78973 0
M  V30 5818 C 523.473 -2.98098 1.782 0
M  V30 5819 C 522.427 -3.11761 2.93239 0
M  V30 5820 C 521.753 -4.51661 2.86193 0
M  V30 5821 C 523.053 -2.90589 4.33999 0
M  V30 5822 H 524.747 -1.42752 2.63177 0
M  V30 5823 H 522.293 -0.685317 1.26647 0
M  V30 5824 H 524.246 -3.75555 1.91144 0
M  V30 5825 H 522.97 -3.16138 0.820018 0
M  V30 5826 H 521.629 -2.36732 2.79917 0
M  V30 5827 H 521.277 -4.66595 1.87877 0
M  V30 5828 H 520.977 -4.61742 3.63412 0
M  V30 5829 H 522.501 -5.31162 3.01163 0
M  V30 5830 H 523.915 -3.57807 4.47936 0
M  V30 5831 H 522.312 -3.1213 5.12538 0
M  V30 5832 H 523.382 -1.86595 4.4756 0
M  V30 5833 N 524.725 -1.39134 -0.740242 0
M  V30 5834 C 525.953 -1.39334 -1.5295 0
M  V30 5835 C 526.368 0.0135008 -1.88795 0
M  V30 5836 O 525.725 0.983524 -1.5373 0
M  V30 5837 C 525.776 -2.2614 -2.82034 0
M  V30 5838 O 525.497 -3.61345 -2.47712 0
M  V30 5839 C 526.998 -2.34666 -3.76094 0
M  V30 5840 H 524.218 -0.476103 -0.472828 0
M  V30 5841 H 526.762 -1.82883 -0.9151 0
M  V30 5842 H 524.917 -1.86018 -3.39818 0
M  V30 5843 H 525.331 -4.07194 -3.30595 0
M  V30 5844 H 526.805 -2.99663 -4.63579 0
M  V30 5845 H 527.282 -1.36426 -4.17474 0
M  V30 5846 H 527.888 -2.75236 -3.2423 0
M  V30 5847 N 526.204 0.969867 -1.24223 0
M  V30 5848 C 527.167 2.04564 -1.03373 0
M  V30 5849 C 528.167 1.60798 0.00819206 0
M  V30 5850 O 529.357 1.72641 -0.232567 0
M  V30 5851 C 526.489 3.36163 -0.566343 0
M  V30 5852 H 527.682 2.24494 -1.98853 0
M  V30 5853 H 525.235 1.1448 -1.06415 0
M  V30 5854 H 525.97 3.21925 0.391751 0
M  V30 5855 H 525.755 3.69273 -1.31834 0
M  V30 5856 H 527.245 4.1526 -0.441435 0
M  V30 5857 N 527.682 1.05563 1.17022 0
M  V30 5858 C 528.592 0.670758 2.24807 0
M  V30 5859 C 529.608 -0.309865 1.71219 0
M  V30 5860 O 530.784 -0.161025 2.00755 0
M  V30 5861 C 527.849 0.055337 3.46656 0
M  V30 5862 C 526.91 1.08688 4.15314 0
M  V30 5863 C 526.143 0.500736 5.31346 0
M  V30 5864 O 526.366 -0.688718 5.66227 0
M  V30 5865 O 525.3 1.23683 5.89055 0
M  V30 5866 H 529.126 1.56914 2.60023 0
M  V30 5867 H 526.711 0.827428 1.24395 0
M  V30 5868 H 528.593 -0.286492 4.20425 0
M  V30 5869 H 527.268 -0.816638 3.13229 0
M  V30 5870 H 526.175 1.48077 3.43546 0
M  V30 5871 H 527.508 1.93014 4.52777 0
M  V30 5872 N 529.16 -1.33526 0.837174 0
M  V30 5873 C 530.07 -2.33023 0.271568 0
M  V30 5874 C 531.086 -1.63272 -0.601514 0
M  V30 5875 O 532.262 -1.94939 -0.506038 0
M  V30 5876 C 529.327 -3.42382 -0.545448 0
M  V30 5877 C 528.388 -4.27857 0.351709 0
M  V30 5878 C 527.621 -5.31994 -0.426409 0
M  V30 5879 O 527.844 -5.45763 -1.65828 0
M  V30 5880 O 526.778 -6.01572 0.1987 0
M  V30 5881 H 530.604 -2.83256 1.09545 0
M  V30 5882 H 528.189 -1.36837 0.599655 0
M  V30 5883 H 530.071 -4.09122 -1.00979 0
M  V30 5884 H 528.746 -2.94369 -1.34641 0
M  V30 5885 H 527.653 -3.6399 0.863853 0
M  V30 5886 H 528.986 -4.79349 1.1174 0
M  V30 5887 N 530.638 -0.59345 -1.46 0
M  V30 5888 C 531.866 -0.0890934 -2.06708 0
M  V30 5889 C 532.281 1.2205 -1.44046 0
M  V30 5890 O 531.638 1.74029 -0.549551 0
M  V30 5891 C 531.689 0.0720263 -3.61428 0
M  V30 5892 O 531.41 -1.18574 -4.21748 0
M  V30 5893 C 532.911 0.609487 -4.3909 0
M  V30 5894 H 530.131 -0.0623628 -0.668096 0
M  V30 5895 H 532.675 -0.817171 -1.87464 0
M  V30 5896 H 530.83 0.750369 -3.80063 0
M  V30 5897 H 531.244 -1.0064 -5.14754 0
M  V30 5898 H 532.718 0.671363 -5.47902 0
M  V30 5899 H 533.195 1.62878 -4.07882 0
M  V30 5900 H 533.801 -0.03434 -4.25286 0
M  V30 5901 N 532.116 1.54067 -0.331816 0
M  V30 5902 C 533.393 1.92915 0.322955 0
M  V30 5903 C 533.773 1.26225 1.69205 0
M  V30 5904 O 533.121 0.408919 2.24811 0
M  V30 5905 C 533.331 3.46619 0.406946 0
M  V30 5906 C 534.679 4.19386 0.663339 0
M  V30 5907 O 535.703 3.5282 0.489536 0
M  V30 5908 O 534.562 5.37288 0.999193 0
M  V30 5909 H 531.656 0.805808 0.186016 0
M  V30 5910 H 534.202 1.65342 -0.382135 0
M  V30 5911 H 532.974 3.87354 -0.554287 0
M  V30 5912 H 532.597 3.80324 1.15929 0
M  V30 5913 N 533.594 0.0601682 1.57485 0
M  V30 5914 C 534.541 -0.91112 2.12055 0
M  V30 5915 C 535.511 -1.30298 1.03013 0
M  V30 5916 O 536.696 -1.39087 1.30612 0
M  V30 5917 C 533.836 -2.1775 2.67729 0
M  V30 5918 C 532.949 -1.83933 3.90887 0
M  V30 5919 C 532.084 -3.05096 4.34845 0
M  V30 5920 C 531.123 -2.67241 5.5068 0
M  V30 5921 N 530.26 -3.81127 5.8965 0
M  V30 5922 H 535.1 -0.43888 2.9475 0
M  V30 5923 H 532.637 -0.204995 1.45665 0
M  V30 5924 H 534.595 -2.91866 2.98111 0
M  V30 5925 H 533.225 -2.62535 1.87816 0
M  V30 5926 H 532.277 -0.999287 3.6704 0
M  V30 5927 H 533.589 -1.52074 4.75052 0
M  V30 5928 H 532.743 -3.87502 4.66827 0
M  V30 5929 H 531.482 -3.40139 3.49509 0
M  V30 5930 H 530.487 -1.83254 5.18361 0
M  V30 5931 H 531.712 -2.3338 6.37738 0
M  V30 5932 H 529.658 -4.15954 5.07266 0
M  V30 5933 H 529.575 -3.52997 6.68528 0
M  V30 5934 H 530.843 -4.64145 6.2625 0
M  V30 5935 N 535.072 -1.5615 -0.213296 0
M  V30 5936 C 536.321 -1.78743 -0.93455 0
M  V30 5937 C 536.634 -0.630199 -1.8517 0
M  V30 5938 O 537.84 -0.739966 -2.61222 0
M  V30 5939 C 536.296 -3.16571 -1.71203 0
M  V30 5940 C 535.904 -4.40043 -0.840617 0
M  V30 5941 C 537.648 -3.48485 -2.42401 0
M  V30 5942 C 535.555 -5.68895 -1.61592 0
M  V30 5943 H 534.485 -0.666426 -0.352692 0
M  V30 5944 H 537.136 -1.82532 -0.188227 0
M  V30 5945 H 535.518 -3.06981 -2.50157 0
M  V30 5946 H 536.692 -4.6071 -0.0910326 0
M  V30 5947 H 535.007 -4.15706 -0.240365 0
M  V30 5948 H 537.604 -4.41983 -3.00924 0
M  V30 5949 H 537.947 -2.71371 -3.15695 0
M  V30 5950 H 538.48 -3.59442 -1.7043 0
M  V30 5951 H 535.219 -6.48925 -0.926106 0
M  V30 5952 H 534.739 -5.52275 -2.33991 0
M  V30 5953 H 536.418 -6.09365 -2.17447 0
M  V30 5954 N 536.55 0.480323 -1.50102 0
M  V30 5955 C 537.799 1.22979 -1.59872 0
M  V30 5956 C 538.112 1.93282 -0.30022 0
M  V30 5957 O 539.318 2.70086 -0.276709 0
M  V30 5958 C 537.774 2.23408 -2.82164 0
M  V30 5959 C 537.382 1.5895 -4.18854 0
M  V30 5960 C 539.126 2.99055 -3.01275 0
M  V30 5961 C 537.033 2.57611 -5.32344 0
M  V30 5962 H 535.963 0.462707 -0.59533 0
M  V30 5963 H 538.614 0.501291 -1.7652 0
M  V30 5964 H 536.996 2.99511 -2.59055 0
M  V30 5965 H 538.17 0.887 -4.52182 0
M  V30 5966 H 536.485 0.956191 -4.05273 0
M  V30 5967 H 539.082 3.72876 -3.83233 0
M  V30 5968 H 539.425 3.57897 -2.12639 0
M  V30 5969 H 539.958 2.30066 -3.24522 0
M  V30 5970 H 536.697 2.03521 -6.23105 0
M  V30 5971 H 536.217 3.26041 -5.03445 0
M  V30 5972 H 537.896 3.19627 -5.62537 0
M  V30 5973 N 538.028 1.39524 0.732853 0
M  V30 5974 C 538.976 1.38563 1.86824 0
M  V30 5975 C 539.97 0.268467 1.67259 0
M  V30 5976 O 541.176 0.438613 1.74574 0
M  V30 5977 H 537.551 0.432737 0.615014 0
M  V30 5978 H 539.522 2.34328 1.84751 0
M  V30 5979 C 538.271 1.2481 3.24527 0
M  V30 5980 H 537.594 2.10044 3.40179 0
M  V30 5981 H 539.034 1.28194 4.04156 0
M  V30 5982 C 537.493 -0.0432825 3.36872 0
M  V30 5983 O 538.023 -1.01268 3.88726 0
M  V30 5984 N 536.229 -0.107055 2.90403 0
M  V30 5985 H 535.776 0.682512 2.48394 0
M  V30 5986 H 535.734 -0.970618 2.99042 0
M  V30 5987 N 539.506 -0.963266 1.24736 0
M  V30 5988 C 540.736 -1.73913 1.11524 0
M  V30 5989 C 541.144 -1.86218 -0.334612 0
M  V30 5990 O 540.487 -1.3531 -1.24245 0
M  V30 5991 C 540.549 -3.17501 1.68622 0
M  V30 5992 C 540.213 -3.28655 3.17546 0
M  V30 5993 C 541.21 -3.13637 4.14642 0
M  V30 5994 C 538.895 -3.52753 3.5759 0
M  V30 5995 C 540.889 -3.2255 5.49764 0
M  V30 5996 C 538.576 -3.61303 4.92852 0
M  V30 5997 C 539.574 -3.46214 5.88748 0
M  V30 5998 O 539.262 -3.5443 7.2155 0
M  V30 5999 H 538.994 -0.552057 0.390139 0
M  V30 6000 H 541.548 -1.2177 1.65412 0
M  V30 6001 H 539.778 -3.70969 1.09172 0
M  V30 6002 H 541.467 -3.76914 1.50635 0
M  V30 6003 H 542.233 -2.94899 3.85045 0
M  V30 6004 H 538.112 -3.63561 2.83451 0
M  V30 6005 H 541.656 -3.1069 6.24594 0
M  V30 6006 H 537.553 -3.79556 5.22118 0
M  V30 6007 H 538.321 -3.71116 7.29531 0
M  V30 6008 N 540.985 -1.06182 -1.16461 0
M  V30 6009 C 541.915 -0.692861 -2.22984 0
M  V30 6010 C 542.896 0.314122 -1.67174 0
M  V30 6011 O 544.081 0.189499 -1.93273 0
M  V30 6012 C 541.211 -0.07732 -3.47214 0
M  V30 6013 C 540.165 -1.01015 -4.15909 0
M  V30 6014 C 539.491 -0.257973 -5.34077 0
M  V30 6015 C 540.791 -2.33868 -4.67015 0
M  V30 6016 H 542.485 -1.58343 -2.54102 0
M  V30 6017 H 540.031 -0.76279 -1.22137 0
M  V30 6018 H 541.984 0.19266 -4.20959 0
M  V30 6019 H 540.708 0.848254 -3.15392 0
M  V30 6020 H 539.367 -1.26486 -3.44088 0
M  V30 6021 H 539.015 0.670684 -4.98509 0
M  V30 6022 H 538.715 -0.879638 -5.80979 0
M  V30 6023 H 540.239 0.00448788 -6.106 0
M  V30 6024 H 541.653 -2.1279 -5.32347 0
M  V30 6025 H 540.05 -2.91522 -5.24533 0
M  V30 6026 H 541.12 -2.97019 -3.83286 0
M  V30 6027 N 542.463 1.3308 -0.844243 0
M  V30 6028 C 543.879 1.50447 -0.532729 0
M  V30 6029 C 544.079 1.78292 0.938837 0
M  V30 6030 O 543.135 1.84635 1.72239 0
M  V30 6031 C 544.448 2.65555 -1.41072 0
M  V30 6032 C 545.996 2.7944 -1.41005 0
M  V30 6033 C 546.471 3.97616 -2.27301 0
M  V30 6034 N 547.962 4.0486 -2.2504 0
M  V30 6035 C 548.697 4.95508 -2.88547 0
M  V30 6036 N 548.193 5.91236 -3.61126 0
M  V30 6037 N 549.986 4.88548 -2.77989 0
M  V30 6038 H 542.137 1.13269 -1.79677 0
M  V30 6039 H 544.4 0.55734 -0.766861 0
M  V30 6040 H 544.106 2.51675 -2.45668 0
M  V30 6041 H 543.98 3.61089 -1.09061 0
M  V30 6042 H 546.367 2.92749 -0.371784 0
M  V30 6043 H 546.448 1.8465 -1.77026 0
M  V30 6044 H 546.092 3.85066 -3.3119 0
M  V30 6045 H 546.022 4.91661 -1.88619 0
M  V30 6046 H 548.513 3.36353 -1.72264 0
M  V30 6047 H 548.826 6.57079 -4.06776 0
M  V30 6048 H 547.171 5.91295 -3.65234 0
M  V30 6049 H 550.362 4.12729 -2.20846 0
M  V30 6050 H 550.535 5.58994 -3.27765 0
M  V30 6051 N 543.941 0.601185 1.45683 0
M  V30 6052 C 544.851 -0.123395 2.34275 0
M  V30 6053 C 545.867 -0.86702 1.5086 0
M  V30 6054 O 547.043 -0.826049 1.8368 0
M  V30 6055 C 544.108 -1.11237 3.2837 0
M  V30 6056 C 543.169 -0.371405 4.2769 0
M  V30 6057 C 542.402 -1.31327 5.1729 0
M  V30 6058 O 542.625 -2.55078 5.10188 0
M  V30 6059 O 541.559 -0.813811 5.96373 0
M  V30 6060 H 545.385 0.604483 2.97623 0
M  V30 6061 H 542.97 0.361477 1.44961 0
M  V30 6062 H 544.852 -1.68214 3.8637 0
M  V30 6063 H 543.527 -1.82139 2.67595 0
M  V30 6064 H 542.434 0.24067 3.73325 0
M  V30 6065 H 543.767 0.296998 4.91303 0
M  V30 6066 N 545.419 -1.53889 0.339982 0
M  V30 6067 C 546.835 -1.59595 -0.0120752 0
M  V30 6068 C 547.035 -1.35605 -1.49042 0
M  V30 6069 O 546.091 -1.14856 -2.24865 0
M  V30 6070 C 547.404 -2.9774 0.420898 0
M  V30 6071 C 548.952 -3.1077 0.37294 0
M  V30 6072 C 549.427 -4.51286 0.781327 0
M  V30 6073 N 550.918 -4.57325 0.735374 0
M  V30 6074 C 551.653 -5.64194 1.02336 0
M  V30 6075 N 551.149 -6.7893 1.37933 0
M  V30 6076 N 552.942 -5.54051 0.947838 0
M  V30 6077 H 545.093 -1.67738 1.30299 0
M  V30 6078 H 547.356 -0.785385 0.530918 0
M  V30 6079 H 547.062 -3.20349 1.45152 0
M  V30 6080 H 546.936 -3.76639 -0.205721 0
M  V30 6081 H 549.323 -2.87886 -0.648505 0
M  V30 6082 H 549.404 -2.33939 1.03472 0
M  V30 6083 H 549.048 -4.74905 1.80077 0
M  V30 6084 H 548.978 -5.26511 0.0970679 0
M  V30 6085 H 551.469 -3.74931 0.472773 0
M  V30 6086 H 551.782 -7.56392 1.58402 0
M  V30 6087 H 550.127 -6.80386 1.41774 0
M  V30 6088 H 553.318 -4.63293 0.669115 0
M  V30 6089 H 553.491 -6.37246 1.17563 0
M  V30 6090 N 546.897 -0.0685191 -1.57451 0
M  V30 6091 C 547.844 0.899861 -2.12535 0
M  V30 6092 C 548.814 1.29749 -1.03703 0
M  V30 6093 O 549.999 1.38392 -1.31348 0
M  V30 6094 C 547.139 2.16328 -2.6888 0
M  V30 6095 C 546.252 1.81857 -3.91857 0
M  V30 6096 C 545.387 3.02786 -4.36457 0
M  V30 6097 C 544.426 2.64317 -5.5209 0
M  V30 6098 N 543.563 3.77994 -5.91663 0
M  V30 6099 H 548.403 0.423243 -2.94979 0
M  V30 6100 H 545.94 0.197268 -1.45771 0
M  V30 6101 H 547.898 2.90281 -2.99655 0
M  V30 6102 H 546.528 2.61536 -1.89206 0
M  V30 6103 H 545.58 0.979808 -3.67565 0
M  V30 6104 H 546.892 1.49553 -4.75852 0
M  V30 6105 H 546.046 3.85021 -4.68875 0
M  V30 6106 H 544.785 3.38281 -3.51308 0
M  V30 6107 H 543.79 1.80503 -5.19325 0
M  V30 6108 H 545.015 2.29995 -6.38967 0
M  V30 6109 H 542.961 4.13258 -5.09464 0
M  V30 6110 H 542.878 3.49447 -6.7039 0
M  V30 6111 H 544.146 4.60818 -6.28703 0
M  V30 6112 N 548.375 1.56261 0.205012 0
M  V30 6113 C 549.285 1.96944 1.27476 0
M  V30 6114 C 550.301 0.875636 1.50362 0
M  V30 6115 O 551.477 1.18058 1.6317 0
M  V30 6116 C 548.542 2.29219 2.60115 0
M  V30 6117 C 547.603 3.52255 2.45387 0
M  V30 6118 C 546.836 3.8298 3.71701 0
M  V30 6119 O 547.059 3.15138 4.75441 0
M  V30 6120 O 545.993 4.76435 3.67823 0
M  V30 6121 H 549.819 2.88144 0.959527 0
M  V30 6122 H 547.404 1.43686 0.409217 0
M  V30 6123 H 549.286 2.51098 3.3842 0
M  V30 6124 H 547.961 1.4119 2.91285 0
M  V30 6125 H 546.868 3.35635 1.65227 0
M  V30 6126 H 548.201 4.40719 2.19152 0
M  V30 6127 N 549.853 -0.472356 1.50355 0
M  V30 6128 C 551.269 -0.806001 1.37753 0
M  V30 6129 C 551.469 -1.968 0.432649 0
M  V30 6130 O 550.525 -2.52189 -0.12519 0
M  V30 6131 C 551.838 -1.11926 2.79093 0
M  V30 6132 C 553.386 -1.22579 2.87999 0
M  V30 6133 C 553.861 -1.57218 4.3017 0
M  V30 6134 N 555.352 -1.64212 4.33115 0
M  V30 6135 C 556.087 -1.92517 5.40116 0
M  V30 6136 N 555.583 -2.1885 6.57325 0
M  V30 6137 N 557.376 -1.94008 5.27558 0
M  V30 6138 H 549.527 0.293451 2.10363 0
M  V30 6139 H 551.79 0.0687672 0.945503 0
M  V30 6140 H 551.496 -0.338504 3.50067 0
M  V30 6141 H 551.37 -2.05577 3.16256 0
M  V30 6142 H 553.757 -1.99722 2.17245 0
M  V30 6143 H 553.838 -0.269107 2.54381 0
M  V30 6144 H 553.482 -0.806154 5.01461 0
M  V30 6145 H 553.412 -2.54034 4.61275 0
M  V30 6146 H 555.903 -1.45906 3.48597 0
M  V30 6147 H 556.216 -2.39718 7.3468 0
M  V30 6148 H 554.561 -2.16245 6.60502 0
M  V30 6149 H 557.752 -1.72931 4.34986 0
M  V30 6150 H 557.925 -2.15731 6.11035 0
M  V30 6151 N 551.331 -1.39911 -0.725443 0
M  V30 6152 C 552.261 -1.42138 -1.85254 0
M  V30 6153 C 553.242 -0.283513 -1.67721 0
M  V30 6154 O 554.427 -0.490717 -1.87898 0
M  V30 6155 C 551.557 -1.27354 -3.23107 0
M  V30 6156 C 550.511 -2.3864 -3.55296 0
M  V30 6157 C 549.837 -2.08939 -4.92188 0
M  V30 6158 C 551.137 -3.8097 -3.57295 0
M  V30 6159 H 552.831 -2.36461 -1.83648 0
M  V30 6160 H 550.377 -1.13817 -0.882138 0
M  V30 6161 H 552.33 -1.2753 -4.01639 0
M  V30 6162 H 551.054 -0.295025 -3.25265 0
M  V30 6163 H 549.713 -2.37696 -2.79099 0
M  V30 6164 H 549.361 -1.09502 -4.90936 0
M  V30 6165 H 549.061 -2.83491 -5.14691 0
M  V30 6166 H 550.585 -2.10781 -5.73065 0
M  V30 6167 H 551.999 -3.8379 -4.25885 0
M  V30 6168 H 550.396 -4.5496 -3.9132 0
M  V30 6169 H 551.466 -4.11261 -2.5689 0
M  V30 6170 N 552.809 0.956637 -1.25245 0
M  V30 6171 C 553.742 2.05232 -0.99775 0
M  V30 6172 C 554.72 1.62439 0.0723137 0
M  V30 6173 O 555.904 1.88381 -0.066926 0
M  V30 6174 C 553.031 3.34871 -0.507861 0
M  V30 6175 C 552.077 3.96625 -1.56815 0
M  V30 6176 S 552.91 4.32853 -3.15276 0
M  V30 6177 C 554.066 5.65613 -2.68017 0
M  V30 6178 H 554.299 2.26521 -1.9255 0
M  V30 6179 H 551.832 1.09601 -1.08752 0
M  V30 6180 H 553.79 4.09845 -0.231858 0
M  V30 6181 H 552.451 3.11551 0.399356 0
M  V30 6182 H 551.644 4.90087 -1.17604 0
M  V30 6183 H 551.246 3.28124 -1.79473 0
M  V30 6184 H 553.538 6.43635 -2.11518 0
M  V30 6185 H 554.481 6.09693 -3.60112 0
M  V30 6186 H 554.889 5.24751 -2.0808 0
M  V30 6187 N 554.287 1.06798 1.15896 0
M  V30 6188 C 555.703 0.792423 1.38538 0
M  V30 6189 C 555.903 -0.60592 1.92174 0
M  V30 6190 O 554.959 -1.36561 2.12385 0
M  V30 6191 C 556.272 1.86157 2.36149 0
M  V30 6192 C 557.82 1.88567 2.49823 0
M  V30 6193 C 558.295 2.9455 3.5072 0
M  V30 6194 N 559.786 2.93616 3.58251 0
M  V30 6195 C 560.521 3.72267 4.36125 0
M  V30 6196 N 560.017 4.60751 5.17379 0
M  V30 6197 N 561.81 3.60637 4.31158 0
M  V30 6198 H 553.961 1.96993 0.794198 0
M  V30 6199 H 556.224 0.853942 0.411688 0
M  V30 6200 H 555.93 2.86603 2.03843 0
M  V30 6201 H 555.804 1.71692 3.3586 0
M  V30 6202 H 558.191 0.887765 2.8143 0
M  V30 6203 H 558.272 2.0711 1.5013 0
M  V30 6204 H 557.916 3.94537 3.19849 0
M  V30 6205 H 557.846 2.73255 4.50155 0
M  V30 6206 H 560.337 2.29472 3.00252 0
M  V30 6207 H 560.65 5.17408 5.74028 0
M  V30 6208 H 558.995 4.64803 5.16704 0
M  V30 6209 H 562.186 2.90892 3.66742 0
M  V30 6210 H 562.359 4.22176 4.91601 0
M  V30 6211 N 555.766 -1.3263 0.851289 0
M  V30 6212 C 556.991 -2.02097 0.466006 0
M  V30 6213 C 557.416 -1.63574 -0.928709 0
M  V30 6214 O 556.774 -0.834665 -1.60944 0
M  V30 6215 C 556.822 -3.55425 0.608737 0
M  V30 6216 O 555.926 -4.10827 -0.359878 0
M  V30 6217 H 555.267 -0.636911 0.187724 0
M  V30 6218 H 557.797 -1.69253 1.14955 0
M  V30 6219 H 557.807 -4.04986 0.495006 0
M  V30 6220 H 556.482 -3.82806 1.62581 0
M  V30 6221 H 555.059 -3.72349 -0.202666 0
M  V30 6222 N 557.244 -0.608902 -1.45362 0
M  V30 6223 C 558.469 -0.10921 -2.07112 0
M  V30 6224 C 558.894 1.19779 -1.45033 0
M  V30 6225 O 558.252 1.72961 -0.543527 0
M  V30 6226 C 558.3 0.0155745 -3.60597 0
M  V30 6227 O 557.404 1.06546 -3.98399 0
M  V30 6228 H 556.745 -0.0746619 -0.659789 0
M  V30 6229 H 559.275 -0.839283 -1.86594 0
M  V30 6230 H 559.285 0.213364 -4.07442 0
M  V30 6231 H 557.96 -0.938765 -4.05167 0
M  V30 6232 H 556.537 0.844024 -3.63223 0
M  V30 6233 N 558.722 1.53707 -0.348139 0
M  V30 6234 C 559.95 2.05406 0.248224 0
M  V30 6235 C 560.365 1.22282 1.43849 0
M  V30 6236 O 559.722 0.259244 1.80649 0
M  V30 6237 C 559.773 3.55446 0.658793 0
M  V30 6238 O 559.494 4.35417 -0.484149 0
M  V30 6239 C 560.995 4.23335 1.31539 0
M  V30 6240 H 558.215 0.669344 0.0471075 0
M  V30 6241 H 560.759 1.98257 -0.501456 0
M  V30 6242 H 558.914 3.62803 1.35841 0
M  V30 6243 H 559.328 5.24268 -0.155949 0
M  V30 6244 H 560.802 5.29692 1.55338 0
M  V30 6245 H 561.279 3.75967 2.27036 0
M  V30 6246 H 561.885 4.20184 0.657683 0
M  V30 6247 N 560.2 0.0768682 1.57412 0
M  V30 6248 C 561.477 -0.632359 1.85096 0
M  V30 6249 C 561.857 -1.87479 0.9703 0
M  V30 6250 O 561.205 -2.28469 0.0379062 0
M  V30 6251 C 561.415 -0.965174 3.35388 0
M  V30 6252 C 562.763 -1.33648 4.03018 0
M  V30 6253 O 563.787 -1.05675 3.40164 0
M  V30 6254 O 562.646 -1.85959 5.13889 0
M  V30 6255 H 559.74 -0.314574 0.764835 0
M  V30 6256 H 562.286 0.108184 1.69355 0
M  V30 6257 H 561.058 -0.0829745 3.91212 0
M  V30 6258 H 560.681 -1.76231 3.5641 0
M  V30 6259 N 561.678 -1.56367 -0.196722 0
M  V30 6260 C 562.903 -1.84991 -0.937714 0
M  V30 6261 C 563.328 -0.660244 -1.76132 0
M  V30 6262 O 562.686 0.390967 -1.77034 0
M  V30 6263 C 562.734 -3.11828 -1.81096 0
M  V30 6264 O 561.838 -2.92266 -2.90955 0
M  V30 6265 H 561.179 -0.609193 -0.264159 0
M  V30 6266 H 563.709 -2.03595 -0.202529 0
M  V30 6267 H 563.719 -3.42579 -2.21594 0
M  V30 6268 H 562.394 -3.98037 -1.2058 0
M  V30 6269 H 560.971 -2.72809 -2.54224 0
M  V30 6270 N 563.156 0.464375 -1.50603 0
M  V30 6271 C 564.086 1.56944 -1.72889 0
M  V30 6272 C 565.067 1.59979 -0.577997 0
M  V30 6273 O 566.252 1.76138 -0.817855 0
M  V30 6274 C 563.382 2.95225 -1.8292 0
M  V30 6275 C 562.336 3.07056 -2.98162 0
M  V30 6276 C 561.662 4.47051 -2.93343 0
M  V30 6277 C 562.962 2.83648 -4.38567 0
M  V30 6278 H 564.656 1.38547 -2.65415 0
M  V30 6279 H 562.202 0.665082 -1.27721 0
M  V30 6280 H 564.155 3.72467 -1.97095 0
M  V30 6281 H 562.879 3.14793 -0.870209 0
M  V30 6282 H 561.538 2.32248 -2.83648 0
M  V30 6283 H 561.186 4.63547 -1.95276 0
M  V30 6284 H 560.886 4.55902 -3.70712 0
M  V30 6285 H 562.41 5.26304 -3.09575 0
M  V30 6286 H 563.824 3.50636 -4.53572 0
M  V30 6287 H 562.221 3.03937 -5.17438 0
M  V30 6288 H 563.291 1.79451 -4.50472 0
M  V30 6289 N 564.634 1.40294 0.718013 0
M  V30 6290 C 566.045 1.34289 1.29705 0
M  V30 6291 C 566.396 0.0152228 1.96194 0
M  V30 6292 O 565.521 -0.88682 1.97394 0
M  V30 6293 C 566.116 2.43219 2.3586 0
M  V30 6294 C 564.675 2.40682 2.89394 0
M  V30 6295 C 563.822 2.24223 1.63154 0
M  V30 6296 H 566.773 1.50135 0.514312 0
M  V30 6297 H 566.794 2.10986 3.16647 0
M  V30 6298 H 566.306 3.39836 1.87439 0
M  V30 6299 H 564.407 1.47756 3.42051 0
M  V30 6300 H 564.52 3.36177 3.41353 0
M  V30 6301 H 562.884 1.71696 1.88129 0
M  V30 6302 H 563.667 3.22834 1.16761 0
M  V30 6303 N 566.112 -0.949982 1.2575 0
M  V30 6304 C 567.36 -1.6918 1.10555 0
M  V30 6305 C 567.681 -1.91773 -0.353298 0
M  V30 6306 O 566.951 -1.50814 -1.25027 0
M  V30 6307 H 565.531 -0.626952 0.406129 0
M  V30 6308 H 568.193 -1.1419 1.57945 0
M  V30 6309 H 567.289 -2.66915 1.61749 0
M  V30 6310 N 567.59 -1.07411 -1.15328 0
M  V30 6311 C 569.001 -0.820261 -1.67716 0
M  V30 6312 C 569.352 0.654539 -1.8496 0
M  V30 6313 O 568.477 1.50664 -1.55337 0
M  V30 6314 C 569.072 -1.48242 -3.04647 0
M  V30 6315 C 567.631 -1.27606 -3.5411 0
M  V30 6316 C 566.778 -1.5517 -2.29821 0
M  V30 6317 H 569.729 -1.23608 -0.995332 0
M  V30 6318 H 569.75 -0.903984 -3.69606 0
M  V30 6319 H 569.262 -2.55578 -2.92064 0
M  V30 6320 H 567.363 -0.222948 -3.71932 0
M  V30 6321 H 567.476 -1.99667 -4.35511 0
M  V30 6322 H 565.84 -0.972747 -2.35393 0
M  V30 6323 H 566.623 -2.63689 -2.19824 0
M  V30 6324 N 569.068 1.32177 -0.85831 0
M  V30 6325 C 570.317 1.96392 -0.459689 0
M  V30 6326 C 570.63 1.68659 0.990632 0
M  V30 6327 O 571.836 2.26641 1.49485 0
M  V30 6328 C 570.292 3.51542 -0.7711 0
M  V30 6329 C 569.9 3.8813 -2.2374 0
M  V30 6330 C 571.644 4.2221 -0.44038 0
M  V30 6331 C 569.551 5.36341 -2.49183 0
M  V30 6332 H 568.481 0.735007 -0.168169 0
M  V30 6333 H 571.132 1.50518 -1.0496 0
M  V30 6334 H 569.514 3.95846 -0.11058 0
M  V30 6335 H 570.688 3.54824 -2.94001 0
M  V30 6336 H 569.003 3.30497 -2.533 0
M  V30 6337 H 571.6 5.31234 -0.607855 0
M  V30 6338 H 571.943 4.11683 0.618291 0
M  V30 6339 H 572.476 3.83502 -1.05695 0
M  V30 6340 H 569.215 5.51892 -3.53689 0
M  V30 6341 H 568.735 5.7104 -1.83504 0
M  V30 6342 H 570.414 6.03466 -2.33318 0
M  V30 6343 N 570.547 0.616602 1.45037 0
M  V30 6344 C 571.772 0.120192 2.07051 0
M  V30 6345 C 572.197 -1.19008 1.45666 0
M  V30 6346 O 571.555 -1.7267 0.552692 0
M  V30 6347 C 571.603 0.00354901 3.606 0
M  V30 6348 O 570.707 -1.04431 3.98958 0
M  V30 6349 H 570.048 0.0781599 0.659384 0
M  V30 6350 H 572.578 0.849167 1.86146 0
M  V30 6351 H 572.588 -0.191754 4.07549 0
M  V30 6352 H 571.263 0.960239 4.04663 0
M  V30 6353 H 569.84 -0.824749 3.63665 0
M  V30 6354 N 572.025 -1.5352 0.356285 0
M  V30 6355 C 573.441 -1.59599 0.00485267 0
M  V30 6356 C 573.641 -1.37179 -1.47595 0
M  V30 6357 O 572.697 -1.17234 -2.23635 0
M  V30 6358 C 574.01 -2.97277 0.452454 0
M  V30 6359 C 575.558 -3.10357 0.405881 0
M  V30 6360 C 576.033 -4.50432 0.829148 0
M  V30 6361 N 577.524 -4.5652 0.783838 0
M  V30 6362 C 578.259 -5.63077 1.08315 0
M  V30 6363 N 577.755 -6.77429 1.45126 0
M  V30 6364 N 579.548 -5.53014 1.00655 0
M  V30 6365 H 571.699 -1.66346 1.32071 0
M  V30 6366 H 573.962 -0.77971 0.539218 0
M  V30 6367 H 573.668 -3.18792 1.48542 0
M  V30 6368 H 573.542 -3.76836 -0.165762 0
M  V30 6369 H 575.929 -2.88558 -0.617934 0
M  V30 6370 H 576.01 -2.32828 1.05947 0
M  V30 6371 H 575.654 -4.72968 1.85103 0
M  V30 6372 H 575.584 -5.26378 0.152906 0
M  V30 6373 H 578.075 -3.74408 0.512513 0
M  V30 6374 H 578.388 -7.54669 1.66415 0
M  V30 6375 H 576.733 -6.78844 1.48983 0
M  V30 6376 H 579.924 -4.62557 0.718215 0
M  V30 6377 H 580.097 -6.35964 1.24315 0
M  V30 6378 N 573.503 -0.0852151 -1.57369 0
M  V30 6379 C 574.435 0.907099 -2.10486 0
M  V30 6380 C 575.448 1.25259 -1.03991 0
M  V30 6381 O 576.637 1.20743 -1.31467 0
M  V30 6382 C 573.737 2.21908 -2.56145 0
M  V30 6383 C 572.91 2.05042 -3.86363 0
M  V30 6384 C 571.969 3.19664 -4.17973 0
M  V30 6385 O 570.995 2.94062 -4.87356 0
M  V30 6386 N 572.197 4.45151 -3.72587 0
M  V30 6387 H 574.962 0.453505 -2.96249 0
M  V30 6388 H 572.523 0.100157 -1.6159 0
M  V30 6389 H 574.515 2.97519 -2.74343 0
M  V30 6390 H 573.085 2.58723 -1.75446 0
M  V30 6391 H 572.305 1.13819 -3.77411 0
M  V30 6392 H 573.593 1.91039 -4.71574 0
M  V30 6393 H 572.991 4.68834 -3.16561 0
M  V30 6394 H 571.548 5.17744 -3.9596 0
M  V30 6395 N 574.981 1.5647 0.188427 0
M  V30 6396 C 576.392 1.70864 0.752494 0
M  V30 6397 C 576.743 0.692905 1.83557 0
M  V30 6398 O 575.868 -0.149307 2.15884 0
M  V30 6399 C 576.463 3.09789 1.37173 0
M  V30 6400 C 575.022 3.25925 1.88281 0
M  V30 6401 C 574.169 2.66817 0.755259 0
M  V30 6402 H 577.12 1.58657 -0.0367408 0
M  V30 6403 H 577.141 3.07489 2.24122 0
M  V30 6404 H 576.653 3.83693 0.583219 0
M  V30 6405 H 574.754 2.56948 2.6983 0
M  V30 6406 H 574.867 4.33498 2.04001 0
M  V30 6407 H 573.231 2.2617 1.17128 0
M  V30 6408 H 574.014 3.43294 -0.0211237 0
M  V30 6409 N 576.459 -0.456382 1.50847 0
M  V30 6410 C 577.389 -1.56025 1.73719 0
M  V30 6411 C 578.37 -1.5967 0.586473 0
M  V30 6412 O 579.555 -1.75702 0.827185 0
M  V30 6413 C 576.685 -2.94251 1.84483 0
M  V30 6414 C 575.639 -3.05471 2.99786 0
M  V30 6415 C 574.965 -4.45489 2.95709 0
M  V30 6416 C 576.265 -2.81318 4.40065 0
M  V30 6417 H 577.959 -1.37138 2.66146 0
M  V30 6418 H 575.505 -0.658299 1.28072 0
M  V30 6419 H 577.458 -3.71417 1.99067 0
M  V30 6420 H 576.182 -3.14328 0.886891 0
M  V30 6421 H 574.841 -2.30741 2.84876 0
M  V30 6422 H 574.489 -4.62505 1.97732 0
M  V30 6423 H 574.189 -4.53929 3.73125 0
M  V30 6424 H 575.713 -5.24655 3.12362 0
M  V30 6425 H 577.127 -3.48226 4.55425 0
M  V30 6426 H 575.524 -3.01188 5.19043 0
M  V30 6427 H 576.594 -1.7706 4.51418 0
M  V30 6428 N 577.937 -1.40673 -0.710563 0
M  V30 6429 C 579.185 -1.38947 -1.46759 0
M  V30 6430 C 579.506 0.00572879 -1.94999 0
M  V30 6431 O 578.776 0.961358 -1.70689 0
M  V30 6432 H 577.356 -0.5114 -0.544499 0
M  V30 6433 H 580.018 -1.75773 -0.842012 0
M  V30 6434 H 579.114 -2.06745 -2.33801 0
M  V30 6435 N 579.415 0.9433 -1.26252 0
M  V30 6436 C 580.378 2.02326 -1.07689 0
M  V30 6437 C 581.378 1.60779 -0.0259174 0
M  V30 6438 O 582.568 1.72108 -0.269134 0
M  V30 6439 C 579.7 3.34886 -0.63752 0
M  V30 6440 H 580.893 2.20225 -2.0357 0
M  V30 6441 H 578.446 1.12197 -1.08819 0
M  V30 6442 H 579.181 3.22684 0.323377 0
M  V30 6443 H 578.966 3.66393 -1.39637 0
M  V30 6444 H 580.456 4.14231 -0.529418 0
M  V30 6445 N 580.893 1.08022 1.14757 0
M  V30 6446 C 582.121 0.828847 1.89572 0
M  V30 6447 C 582.536 -0.618621 1.78377 0
M  V30 6448 O 581.893 -1.42482 1.1404 0
M  V30 6449 C 581.944 1.23677 3.39685 0
M  V30 6450 O 581.665 2.62746 3.50566 0
M  V30 6451 C 583.166 1.01569 4.31507 0
M  V30 6452 H 580.386 0.299196 0.600602 0
M  V30 6453 H 582.93 1.43846 1.45357 0
M  V30 6454 H 581.085 0.671347 3.81539 0
M  V30 6455 H 581.499 2.79573 4.43778 0
M  V30 6456 H 582.973 1.35055 5.35223 0
M  V30 6457 H 583.45 -0.0475433 4.39174 0
M  V30 6458 H 584.056 1.56636 3.95405 0
M  V30 6459 N 582.371 -1.3172 0.865308 0
M  V30 6460 C 583.596 -2.01591 0.487415 0
M  V30 6461 C 584.021 -1.6455 -0.911307 0
M  V30 6462 O 583.379 -0.851689 -1.6005 0
M  V30 6463 C 583.427 -3.54759 0.646401 0
M  V30 6464 O 582.531 -4.11185 -0.316284 0
M  V30 6465 H 581.872 -0.634884 0.194468 0
M  V30 6466 H 584.402 -1.68024 1.16744 0
M  V30 6467 H 584.412 -4.04438 0.537932 0
M  V30 6468 H 583.087 -3.8106 1.66632 0
M  V30 6469 H 581.664 -3.72543 -0.163162 0
M  V30 6470 N 583.85 -0.624285 -1.44708 0
M  V30 6471 C 585.098 -0.125802 -2.01708 0
M  V30 6472 C 585.418 1.2543 -1.49306 0
M  V30 6473 O 584.689 1.83198 -0.693924 0
M  V30 6474 H 583.269 -0.0435161 -0.745731 0
M  V30 6475 H 585.931 -0.809446 -1.77296 0
M  V30 6476 H 585.027 -0.0882734 -3.11975 0
M  V30 6477 N 585.328 1.53329 -0.364422 0
M  V30 6478 C 586.291 2.24323 0.470292 0
M  V30 6479 C 587.291 1.25068 1.01067 0
M  V30 6480 O 588.481 1.49354 0.896605 0
M  V30 6481 C 585.613 2.97908 1.65722 0
M  V30 6482 H 586.806 2.9952 -0.150917 0
M  V30 6483 H 584.359 1.55868 -0.116092 0
M  V30 6484 H 585.094 2.2695 2.31655 0
M  V30 6485 H 584.879 3.70732 1.27671 0
M  V30 6486 H 586.369 3.5188 2.24878 0
M  V30 6487 N 586.806 0.0935595 1.57322 0
M  V30 6488 C 588.031 -0.582324 1.99057 0
M  V30 6489 C 588.456 -1.61025 0.972242 0
M  V30 6490 O 587.814 -1.81202 -0.0594622 0
M  V30 6491 C 587.862 -1.20799 3.39765 0
M  V30 6492 O 586.966 -2.32382 3.40694 0
M  V30 6493 H 586.307 -0.147884 0.647323 0
M  V30 6494 H 588.837 0.174516 2.03854 0
M  V30 6495 H 588.847 -1.54966 3.77425 0
M  V30 6496 H 587.522 -0.454914 4.13405 0
M  V30 6497 H 586.099 -1.99845 3.14827 0
M  V30 6498 N 588.284 -1.56567 -0.180126 0
M  V30 6499 C 589.214 -1.98753 -1.22553 0
M  V30 6500 C 590.195 -0.86175 -1.46656 0
M  V30 6501 O 591.38 -1.12719 -1.58139 0
M  V30 6502 C 588.51 -2.33988 -2.56645 0
M  V30 6503 C 587.464 -3.49445 -2.47128 0
M  V30 6504 C 586.79 -3.70397 -3.8563 0
M  V30 6505 C 588.09 -4.83171 -1.98352 0
M  V30 6506 H 589.784 -2.86332 -0.874896 0
M  V30 6507 H 587.33 -1.37757 -0.419414 0
M  V30 6508 H 589.283 -2.62097 -3.29974 0
M  V30 6509 H 588.007 -1.43309 -2.93479 0
M  V30 6510 H 586.666 -3.2145 -1.76254 0
M  V30 6511 H 586.314 -2.77023 -4.19842 0
M  V30 6512 H 586.014 -4.48077 -3.80132 0
M  V30 6513 H 587.538 -4.00897 -4.60558 0
M  V30 6514 H 588.952 -5.10213 -2.61449 0
M  V30 6515 H 587.349 -5.64425 -2.03823 0
M  V30 6516 H 588.419 -4.75753 -0.937402 0
M  V30 6517 N 589.762 0.448376 -1.51087 0
M  V30 6518 C 590.709 1.54341 -1.71603 0
M  V30 6519 C 591.679 1.56463 -0.557536 0
M  V30 6520 O 592.864 1.73644 -0.79072 0
M  V30 6521 C 590.004 2.92148 -1.83695 0
M  V30 6522 C 589.117 2.99639 -3.11192 0
M  V30 6523 C 588.252 4.285 -3.13944 0
M  V30 6524 C 587.291 4.29819 -4.35801 0
M  V30 6525 N 586.428 5.50186 -4.36164 0
M  V30 6526 H 591.268 1.36151 -2.65079 0
M  V30 6527 H 588.805 0.661585 -1.31383 0
M  V30 6528 H 590.763 3.72093 -1.88687 0
M  V30 6529 H 589.393 3.0892 -0.936374 0
M  V30 6530 H 588.445 2.12425 -3.15562 0
M  V30 6531 H 589.757 2.96474 -4.01129 0
M  V30 6532 H 588.911 5.16811 -3.17791 0
M  V30 6533 H 587.65 4.34307 -2.21876 0
M  V30 6534 H 586.655 3.39902 -4.32142 0
M  V30 6535 H 587.88 4.25685 -5.29121 0
M  V30 6536 H 585.826 5.56735 -3.46961 0
M  V30 6537 H 585.743 5.48856 -5.19897 0
M  V30 6538 H 587.011 6.40559 -4.44189 0
M  V30 6539 N 591.24 1.41047 0.703093 0
M  V30 6540 C 592.468 1.4334 1.49202 0
M  V30 6541 C 592.883 0.0365596 1.88765 0
M  V30 6542 O 592.24 -0.942419 1.56284 0
M  V30 6543 C 592.291 2.33538 2.75939 0
M  V30 6544 O 592.012 3.67786 2.38045 0
M  V30 6545 C 593.513 2.44555 3.6974 0
M  V30 6546 H 590.733 0.488472 0.460039 0
M  V30 6547 H 593.277 1.85245 0.86629 0
M  V30 6548 H 591.432 1.94962 3.34766 0
M  V30 6549 H 591.846 4.15816 3.19683 0
M  V30 6550 H 593.32 3.11849 4.55471 0
M  V30 6551 H 593.797 1.47447 4.1371 0
M  V30 6552 H 594.403 2.83735 3.16819 0
M  V30 6553 N 592.718 -0.936591 1.26751 0
M  V30 6554 C 593.65 -2.03991 1.045 0
M  V30 6555 C 594.663 -1.628 0.00394261 0
M  V30 6556 O 595.852 -1.76817 0.244526 0
M  V30 6557 C 592.952 -3.34218 0.561403 0
M  V30 6558 C 592.125 -4.04151 1.67274 0
M  V30 6559 C 591.184 -5.12651 1.1864 0
M  V30 6560 O 590.21 -5.37104 1.88437 0
M  V30 6561 N 591.412 -5.80488 0.037278 0
M  V30 6562 H 594.177 -2.23644 1.99508 0
M  V30 6563 H 591.738 -1.10638 1.18198 0
M  V30 6564 H 593.73 -4.04101 0.220136 0
M  V30 6565 H 592.3 -3.11203 -0.295211 0
M  V30 6566 H 591.52 -3.28121 2.18472 0
M  V30 6567 H 592.808 -4.47626 2.41885 0
M  V30 6568 H 592.206 -5.63064 -0.545494 0
M  V30 6569 H 590.763 -6.5134 -0.244877 0
M  V30 6570 N 594.196 -1.08629 -1.14182 0
M  V30 6571 C 595.607 -0.838003 -1.66836 0
M  V30 6572 C 595.958 0.634885 -1.85644 0
M  V30 6573 O 595.083 1.49008 -1.56926 0
M  V30 6574 C 595.678 -1.51465 -3.03058 0
M  V30 6575 C 594.237 -1.31355 -3.52736 0
M  V30 6576 C 593.384 -1.57599 -2.28162 0
M  V30 6577 H 596.335 -1.24656 -0.982165 0
M  V30 6578 H 596.356 -0.943134 -3.68626 0
M  V30 6579 H 595.868 -2.58661 -2.89337 0
M  V30 6580 H 593.969 -0.262384 -3.71675 0
M  V30 6581 H 594.082 -2.04275 -4.33369 0
M  V30 6582 H 592.446 -0.997659 -2.34348 0
M  V30 6583 H 593.229 -2.66006 -2.17015 0
M  V30 6584 N 595.674 1.31259 -0.872281 0
M  V30 6585 C 596.899 2.0133 -0.498099 0
M  V30 6586 C 597.324 1.65031 0.902568 0
M  V30 6587 O 596.682 0.860164 1.59596 0
M  V30 6588 C 596.73 3.54411 -0.665205 0
M  V30 6589 O 595.834 4.11347 0.294473 0
M  V30 6590 H 595.175 0.633844 -0.197832 0
M  V30 6591 H 597.705 1.67402 -1.17633 0
M  V30 6592 H 597.715 4.04147 -0.559373 0
M  V30 6593 H 596.39 3.80171 -1.68651 0
M  V30 6594 H 594.967 3.72624 0.143403 0
M  V30 6595 N 597.152 0.631951 1.44375 0
M  V30 6596 C 598.377 0.142146 2.06912 0
M  V30 6597 C 598.802 -1.17456 1.4692 0
M  V30 6598 O 598.16 -1.72074 0.570975 0
M  V30 6599 C 598.208 0.0417952 3.60576 0
M  V30 6600 O 597.312 -1.00194 4.00044 0
M  V30 6601 H 596.653 0.0851491 0.658518 0
M  V30 6602 H 599.183 0.868863 1.85235 0
M  V30 6603 H 599.193 -0.148517 4.0773 0
M  V30 6604 H 597.868 1.0031 4.03622 0
M  V30 6605 H 596.445 -0.786131 3.64519 0
M  V30 6606 N 598.631 -1.53133 0.372548 0
M  V30 6607 C 599.563 -2.23557 -0.505444 0
M  V30 6608 C 600.576 -1.25211 -1.04049 0
M  V30 6609 O 601.765 -1.51391 -0.945675 0
M  V30 6610 C 598.865 -2.92516 -1.71136 0
M  V30 6611 C 598.038 -4.17428 -1.30661 0
M  V30 6612 C 597.097 -4.69535 -2.37536 0
M  V30 6613 O 596.123 -5.33042 -1.99637 0
M  V30 6614 N 597.325 -4.47947 -3.6922 0
M  V30 6615 H 600.09 -2.9954 0.0978259 0
M  V30 6616 H 597.651 -1.60684 0.198068 0
M  V30 6617 H 599.643 -3.24281 -2.42124 0
M  V30 6618 H 598.213 -2.19944 -2.22134 0
M  V30 6619 H 597.433 -3.91888 -0.426292 0
M  V30 6620 H 598.721 -4.98622 -1.01259 0
M  V30 6621 H 598.119 -3.97219 -4.02783 0
M  V30 6622 H 596.676 -4.84245 -4.36292 0
M  V30 6623 N 600.109 -0.101901 -1.5727 0
M  V30 6624 C 601.52 0.426173 -1.81771 0
M  V30 6625 C 601.871 1.67725 -1.01797 0
M  V30 6626 O 600.996 2.14958 -0.249386 0
M  V30 6627 C 601.591 0.779962 -3.297 0
M  V30 6628 C 600.15 1.25275 -3.54941 0
M  V30 6629 C 599.297 0.252814 -2.76145 0
M  V30 6630 H 602.248 -0.32726 -1.55289 0
M  V30 6631 H 602.269 1.63891 -3.43395 0
M  V30 6632 H 601.781 -0.130778 -3.8788 0
M  V30 6633 H 599.882 2.18097 -3.021 0
M  V30 6634 H 599.995 1.20988 -4.63572 0
M  V30 6635 H 598.359 0.736362 -2.43823 0
M  V30 6636 H 599.142 -0.650724 -3.37076 0
M  V30 6637 N 601.587 1.56661 0.17182 0
M  V30 6638 C 602.517 1.99401 1.21498 0
M  V30 6639 C 603.498 0.869516 1.46197 0
M  V30 6640 O 604.683 1.13556 1.57539 0
M  V30 6641 C 601.813 2.35346 2.55401 0
M  V30 6642 C 600.767 3.5075 2.45272 0
M  V30 6643 C 600.093 3.72437 3.8366 0
M  V30 6644 C 601.393 4.84216 1.95787 0
M  V30 6645 H 603.087 2.86792 0.859699 0
M  V30 6646 H 600.633 1.37977 0.412103 0
M  V30 6647 H 602.586 2.63843 3.2858 0
M  V30 6648 H 601.31 1.44864 2.92715 0
M  V30 6649 H 599.969 3.2238 1.74547 0
M  V30 6650 H 599.617 2.79246 4.18367 0
M  V30 6651 H 599.317 4.50087 3.77751 0
M  V30 6652 H 600.841 4.03334 4.58426 0
M  V30 6653 H 602.255 5.11592 2.5874 0
M  V30 6654 H 600.652 5.65498 2.00827 0
M  V30 6655 H 601.722 4.76243 0.912159 0
M  V30 6656 N 603.065 -0.440357 1.51323 0
M  V30 6657 C 603.997 -1.55254 1.68609 0
M  V30 6658 C 605.01 -1.52614 0.566812 0
M  V30 6659 O 606.199 -1.57445 0.841032 0
M  V30 6660 C 603.299 -2.94169 1.68279 0
M  V30 6661 C 602.472 -3.21346 2.96742 0
M  V30 6662 C 601.531 -4.3997 2.8864 0
M  V30 6663 O 600.557 -4.38771 3.62586 0
M  V30 6664 N 601.759 -5.43367 2.04285 0
M  V30 6665 H 604.524 -1.40831 2.6455 0
M  V30 6666 H 602.085 -0.629251 1.49171 0
M  V30 6667 H 604.077 -3.71543 1.60431 0
M  V30 6668 H 602.647 -3.02205 0.799441 0
M  V30 6669 H 601.867 -2.32299 3.18482 0
M  V30 6670 H 603.155 -3.3633 3.81785 0
M  V30 6671 H 602.553 -5.47176 1.43578 0
M  V30 6672 H 601.11 -6.19605 2.02318 0
M  V30 6673 N 604.543 -1.41418 -0.695603 0
M  V30 6674 C 605.768 -1.44329 -1.48942 0
M  V30 6675 C 606.193 -0.0501579 -1.88033 0
M  V30 6676 O 605.551 0.946598 -1.54626 0
M  V30 6677 C 605.599 -2.3578 -2.72837 0
M  V30 6678 O 604.703 -1.81482 -3.70322 0
M  V30 6679 H 604.044 -0.489838 -0.44828 0
M  V30 6680 H 606.574 -1.85878 -0.855014 0
M  V30 6681 H 606.584 -2.51654 -3.21145 0
M  V30 6682 H 605.259 -3.37005 -2.43722 0
M  V30 6683 H 603.836 -1.75058 -3.29255 0
M  V30 6684 N 606.021 0.929856 -1.27246 0
M  V30 6685 C 607.269 1.674 -1.13233 0
M  V30 6686 C 607.59 1.92311 0.322744 0
M  V30 6687 O 606.86 1.52784 1.22612 0
M  V30 6688 H 605.44 0.620411 -0.416052 0
M  V30 6689 H 608.102 1.11663 -1.59741 0
M  V30 6690 H 607.198 2.64308 -1.65975 0
M  V30 6691 N 607.499 1.09233 1.13605 0
M  V30 6692 C 608.431 0.687794 2.18637 0
M  V30 6693 C 609.444 -0.26936 1.60556 0
M  V30 6694 O 610.633 -0.0557162 1.78413 0
M  V30 6695 C 607.733 -0.00751901 3.38899 0
M  V30 6696 C 606.906 0.97067 4.26494 0
M  V30 6697 C 605.965 0.309129 5.25291 0
M  V30 6698 O 604.991 0.956149 5.61112 0
M  V30 6699 N 606.193 -0.937555 5.72879 0
M  V30 6700 H 608.958 1.59141 2.53957 0
M  V30 6701 H 606.519 0.979515 1.28907 0
M  V30 6702 H 608.511 -0.461238 4.02063 0
M  V30 6703 H 607.081 -0.813353 3.01833 0
M  V30 6704 H 606.301 1.603 3.60135 0
M  V30 6705 H 607.589 1.63323 4.81875 0
M  V30 6706 H 606.987 -1.48281 5.4592 0
M  V30 6707 H 605.544 -1.33463 6.3799 0
M  V30 6708 N 608.977 -1.30795 0.87923 0
M  V30 6709 C 610.223 -1.96653 0.495519 0
M  V30 6710 C 610.556 -1.69282 -0.951703 0
M  V30 6711 O 609.831 -0.994374 -1.6716 0
M  V30 6712 C 610.114 -3.51898 0.764174 0
M  V30 6713 C 609.967 -3.88808 2.2616 0
M  V30 6714 C 611.286 -4.39462 0.236825 0
M  V30 6715 H 608.405 -0.7143 0.181507 0
M  V30 6716 H 611.047 -1.54765 1.10217 0
M  V30 6717 H 609.197 -3.87709 0.247841 0
M  V30 6718 H 610.869 -3.63051 2.8459 0
M  V30 6719 H 609.112 -3.37082 2.73053 0
M  V30 6720 H 609.783 -4.97086 2.4002 0
M  V30 6721 H 612.259 -4.10528 0.678683 0
M  V30 6722 H 611.135 -5.47018 0.454176 0
M  V30 6723 H 611.396 -4.33621 -0.861683 0
M  V30 6724 N 610.455 -0.639598 -1.44038 0
M  V30 6725 C 611.385 0.0469443 -2.33453 0
M  V30 6726 C 612.366 0.82609 -1.48694 0
M  V30 6727 O 613.551 0.790285 -1.77393 0
M  V30 6728 C 610.681 1.02338 -3.3188 0
M  V30 6729 C 609.635 0.355284 -4.26523 0
M  V30 6730 C 608.961 1.44221 -5.14883 0
M  V30 6731 C 610.261 -0.743798 -5.16977 0
M  V30 6732 H 611.955 -0.699735 -2.91108 0
M  V30 6733 H 609.501 -0.337946 -1.39978 0
M  V30 6734 H 611.454 1.51247 -3.93322 0
M  V30 6735 H 610.178 1.80105 -2.72451 0
M  V30 6736 H 608.837 -0.113239 -3.66425 0
M  V30 6737 H 608.485 2.21097 -4.51802 0
M  V30 6738 H 608.185 1.00052 -5.79019 0
M  V30 6739 H 609.709 1.93295 -5.79197 0
M  V30 6740 H 611.123 -0.337444 -5.72306 0
M  V30 6741 H 609.52 -1.10914 -5.89761 0
M  V30 6742 H 610.59 -1.60745 -4.57481 0
M  V30 6743 N 611.933 1.52934 -0.380664 0
M  V30 6744 C 613.344 1.86457 0.0952684 0
M  V30 6745 C 613.695 1.3007 1.46889 0
M  V30 6746 O 612.82 0.628636 2.07068 0
M  V30 6747 C 613.415 3.38323 0.179648 0
M  V30 6748 C 611.974 3.71589 0.599858 0
M  V30 6749 C 611.121 2.76228 -0.243572 0
M  V30 6750 H 614.072 1.46966 -0.59888 0
M  V30 6751 H 614.093 3.67113 1.00042 0
M  V30 6752 H 613.605 3.79333 -0.820228 0
M  V30 6753 H 611.706 3.36144 1.60742 0
M  V30 6754 H 611.819 4.77715 0.364003 0
M  V30 6755 H 610.183 2.53045 0.289855 0
M  V30 6756 H 610.966 3.20074 -1.24127 0
M  V30 6757 N 613.412 0.11024 1.57214 0
M  V30 6758 C 614.637 -0.561179 1.99664 0
M  V30 6759 C 615.062 -1.59985 0.989266 0
M  V30 6760 O 614.42 -1.81255 -0.0402399 0
M  V30 6761 C 614.468 -1.17189 3.41027 0
M  V30 6762 O 613.572 -2.28755 3.4314 0
M  V30 6763 H 612.913 -0.14101 0.648855 0
M  V30 6764 H 615.443 0.196128 2.03658 0
M  V30 6765 H 615.453 -1.50954 3.79047 0
M  V30 6766 H 614.128 -0.411041 4.13864 0
M  V30 6767 H 612.705 -1.96495 3.16929 0
M  V30 6768 N 614.89 -1.56749 -0.16351 0
M  V30 6769 C 615.853 -1.96121 -1.18613 0
M  V30 6770 C 616.853 -0.845765 -1.36761 0
M  V30 6771 O 618.043 -1.11268 -1.34033 0
M  V30 6772 C 615.175 -2.26282 -2.54969 0
M  V30 6773 H 616.368 -2.87639 -0.848764 0
M  V30 6774 H 613.921 -1.50928 -0.406251 0
M  V30 6775 H 614.656 -1.37504 -2.93706 0
M  V30 6776 H 614.441 -3.07595 -2.43162 0
M  V30 6777 H 615.931 -2.57638 -3.28653 0
M  V30 6778 N 616.368 0.432326 -1.51554 0
M  V30 6779 C 617.596 1.20364 -1.68286 0
M  V30 6780 C 618.011 1.84888 -0.38233 0
M  V30 6781 O 617.368 1.70924 0.639627 0
M  V30 6782 C 617.419 2.28398 -2.80208 0
M  V30 6783 O 617.14 1.66512 -4.05223 0
M  V30 6784 C 618.641 3.18584 -3.08251 0
M  V30 6785 H 615.861 0.36259 -0.564596 0
M  V30 6786 H 618.405 0.511647 -1.97996 0
M  V30 6787 H 616.56 2.93305 -2.53083 0
M  V30 6788 H 616.974 2.37951 -4.67418 0
M  V30 6789 H 618.448 3.90511 -3.90135 0
M  V30 6790 H 618.925 3.79628 -2.2086 0
M  V30 6791 H 619.531 2.59372 -3.37055 0
M  V30 6792 N 617.846 1.41785 0.688094 0
M  V30 6793 C 619.257 1.3701 1.26828 0
M  V30 6794 C 619.608 0.056835 1.96118 0
M  V30 6795 O 618.733 -0.84475 1.99231 0
M  V30 6796 C 619.328 2.48168 2.30648 0
M  V30 6797 C 617.887 2.46766 2.84224 0
M  V30 6798 C 617.034 2.27633 1.58361 0
M  V30 6799 H 619.985 1.51192 0.482351 0
M  V30 6800 H 620.006 2.17655 3.121 0
M  V30 6801 H 619.518 3.43735 1.80188 0
M  V30 6802 H 617.619 1.54978 3.3884 0
M  V30 6803 H 617.732 3.43342 3.34145 0
M  V30 6804 H 616.096 1.75648 1.84445 0
M  V30 6805 H 616.879 3.25238 1.09887 0
M  V30 6806 N 619.324 -0.923095 1.27737 0
M  V30 6807 C 620.552 -1.70525 1.17171 0
M  V30 6808 C 620.967 -1.86847 -0.270881 0
M  V30 6809 O 620.324 -1.38879 -1.18401 0
M  V30 6810 C 620.375 -3.10242 1.85559 0
M  V30 6811 O 620.096 -2.94683 3.24182 0
M  V30 6812 C 621.597 -4.04586 1.81176 0
M  V30 6813 H 618.817 -0.533347 0.407163 0
M  V30 6814 H 621.361 -1.15599 1.68692 0
M  V30 6815 H 619.516 -3.62014 1.3793 0
M  V30 6816 H 619.93 -3.83045 3.58297 0
M  V30 6817 H 621.404 -5.00119 2.33633 0
M  V30 6818 H 621.881 -4.3218 0.782099 0
M  V30 6819 H 622.487 -3.58741 2.2844 0
M  V30 6820 N 620.802 -1.09834 -1.13024 0
M  V30 6821 C 622.213 -0.855651 -1.65938 0
M  V30 6822 C 622.564 0.615159 -1.86307 0
M  V30 6823 O 621.689 1.47335 -1.58497 0
M  V30 6824 C 622.284 -1.5467 -3.01434 0
M  V30 6825 C 620.843 -1.35088 -3.51323 0
M  V30 6826 C 619.99 -1.6001 -2.26478 0
M  V30 6827 H 622.941 -1.25691 -0.968889 0
M  V30 6828 H 622.962 -0.982179 -3.67605 0
M  V30 6829 H 622.474 -2.61715 -2.86578 0
M  V30 6830 H 620.575 -0.30179 -3.71376 0
M  V30 6831 H 620.688 -2.0886 -4.31178 0
M  V30 6832 H 619.052 -1.02246 -2.33276 0
M  V30 6833 H 619.835 -2.68293 -2.14182 0
M  V30 6834 N 622.28 1.30327 -0.886154 0
M  V30 6835 C 623.505 2.0079 -0.519425 0
M  V30 6836 C 623.93 1.65979 0.885013 0
M  V30 6837 O 623.288 0.877043 1.58675 0
M  V30 6838 C 623.336 3.53686 -0.702758 0
M  V30 6839 O 622.44 4.11637 0.250828 0
M  V30 6840 H 621.781 0.63171 -0.204544 0
M  V30 6841 H 624.311 1.66145 -1.19402 0
M  V30 6842 H 624.321 4.03531 -0.602207 0
M  V30 6843 H 622.996 3.78361 -1.72673 0
M  V30 6844 H 621.573 3.72755 0.103873 0
M  V30 6845 N 623.758 0.647228 1.43697 0
M  V30 6846 C 624.721 -0.0385101 2.29168 0
M  V30 6847 C 625.721 -0.756487 1.41894 0
M  V30 6848 O 626.911 -0.598641 1.63591 0
M  V30 6849 C 624.043 -1.06524 3.23829 0
M  V30 6850 H 625.236 0.713445 2.9129 0
M  V30 6851 H 622.789 0.408153 1.50877 0
M  V30 6852 H 623.524 -1.84664 2.66589 0
M  V30 6853 H 623.309 -0.554147 3.88164 0
M  V30 6854 H 624.799 -1.54432 3.87996 0
M  V30 6855 N 625.236 -1.5273 0.388769 0
M  V30 6856 C 626.647 -1.86505 -0.0853788 0
M  V30 6857 C 626.998 -1.30847 -1.46197 0
M  V30 6858 O 626.123 -0.639609 -2.06732 0
M  V30 6859 C 626.718 -3.38414 -0.161703 0
M  V30 6860 C 625.277 -3.71902 -0.580144 0
M  V30 6861 C 624.424 -2.76095 0.258218 0
M  V30 6862 H 627.375 -1.46647 0.606665 0
M  V30 6863 H 627.396 -3.67638 -0.980936 0
M  V30 6864 H 626.908 -3.78893 0.840333 0
M  V30 6865 H 625.009 -3.36992 -1.58957 0
M  V30 6866 H 625.122 -4.77902 -0.338663 0
M  V30 6867 H 623.486 -2.53195 -0.276432 0
M  V30 6868 H 624.269 -3.19411 1.25822 0
M  V30 6869 N 626.714 -0.118576 -1.57153 0
M  V30 6870 C 628.125 0.40687 -1.82213 0
M  V30 6871 C 628.476 1.66636 -1.03571 0
M  V30 6872 O 627.601 2.14682 -0.272171 0
M  V30 6873 C 628.196 0.744949 -3.30509 0
M  V30 6874 C 626.755 1.21503 -3.5625 0
M  V30 6875 C 625.902 0.223511 -2.76398 0
M  V30 6876 H 628.853 -0.343712 -1.54933 0
M  V30 6877 H 628.874 1.6024 -3.45114 0
M  V30 6878 H 628.386 -0.171911 -3.87719 0
M  V30 6879 H 626.487 2.1488 -3.04396 0
M  V30 6880 H 626.6 1.16065 -4.64829 0
M  V30 6881 H 624.964 0.71046 -2.44591 0
M  V30 6882 H 625.747 -0.686439 -3.36367 0
M  V30 6883 N 628.193 1.56834 0.155195 0
M  V30 6884 C 629.421 1.87049 0.884326 0
M  V30 6885 C 629.836 0.705839 1.7511 0
M  V30 6886 O 629.193 -0.324641 1.79589 0
M  V30 6887 C 629.244 3.1644 1.74781 0
M  V30 6888 O 628.965 4.28417 0.915978 0
M  V30 6889 C 630.466 3.60113 2.58522 0
M  V30 6890 H 627.686 0.620196 0.25612 0
M  V30 6891 H 630.23 2.03946 0.150445 0
M  V30 6892 H 628.385 3.01321 2.43484 0
M  V30 6893 H 628.799 5.02353 1.50803 0
M  V30 6894 H 630.273 4.53508 3.14698 0
M  V30 6895 H 630.75 2.85005 3.34169 0
M  V30 6896 H 631.356 3.77898 1.95124 0
M  V30 6897 N 629.671 -0.424282 1.51781 0
M  V30 6898 C 630.896 -1.19928 1.6921 0
M  V30 6899 C 631.321 -1.8392 0.394355 0
M  V30 6900 O 630.679 -1.69371 -0.646778 0
M  V30 6901 C 630.727 -2.24937 2.81843 0
M  V30 6902 O 629.831 -3.3073 2.46356 0
M  V30 6903 H 629.172 -0.35078 0.563781 0
M  V30 6904 H 631.702 -0.499401 1.98412 0
M  V30 6905 H 631.712 -2.69512 3.06312 0
M  V30 6906 H 630.387 -1.77742 3.76006 0
M  V30 6907 H 628.964 -2.9154 2.32505 0
M  V30 6908 N 631.149 -1.42148 -0.680565 0
M  V30 6909 C 632.081 -1.41119 -1.80605 0
M  V30 6910 C 633.094 -0.311099 -1.598 0
M  V30 6911 O 634.283 -0.573813 -1.69026 0
M  V30 6912 C 631.383 -1.18204 -3.17618 0
M  V30 6913 C 630.556 -2.40537 -3.65322 0
M  V30 6914 C 629.615 -2.13254 -4.8105 0
M  V30 6915 O 628.641 -2.8641 -4.91892 0
M  V30 6916 N 629.843 -1.13208 -5.69354 0
M  V30 6917 H 632.608 -2.38128 -1.81975 0
M  V30 6918 H 630.169 -1.36953 -0.863446 0
M  V30 6919 H 632.161 -0.97878 -3.92686 0
M  V30 6920 H 630.731 -0.29738 -3.11182 0
M  V30 6921 H 629.951 -2.76468 -2.80996 0
M  V30 6922 H 631.239 -3.22012 -3.93936 0
M  V30 6923 H 630.637 -0.526893 -5.63241 0
M  V30 6924 H 629.194 -0.988699 -6.44258 0
M  V30 6925 N 632.627 0.916307 -1.28225 0
M  V30 6926 C 633.559 2.02303 -1.07732 0
M  V30 6927 C 634.572 1.62773 -0.0298421 0
M  V30 6928 O 635.761 1.76406 -0.272626 0
M  V30 6929 C 632.861 3.33282 -0.614504 0
M  V30 6930 C 632.034 4.01439 -1.73682 0
M  V30 6931 C 631.093 5.10698 -1.26781 0
M  V30 6932 O 630.119 5.34038 -1.96958 0
M  V30 6933 N 631.321 5.80355 -0.129624 0
M  V30 6934 H 634.086 2.20442 -2.03041 0
M  V30 6935 H 631.647 1.08744 -1.19943 0
M  V30 6936 H 633.639 4.03699 -0.284397 0
M  V30 6937 H 632.209 3.11633 0.245664 0
M  V30 6938 H 631.429 3.24604 -2.23665 0
M  V30 6939 H 632.717 4.43721 -2.48976 0
M  V30 6940 H 632.115 5.6386 0.455847 0
M  V30 6941 H 630.672 6.51647 0.141224 0
M  V30 6942 N 634.105 1.10431 1.1244 0
M  V30 6943 C 635.015 0.765502 2.21759 0
M  V30 6944 C 636.031 -0.236966 1.72379 0
M  V30 6945 O 637.207 -0.0757329 2.01258 0
M  V30 6946 C 634.272 0.202316 3.46109 0
M  V30 6947 C 633.333 1.26205 4.1033 0
M  V30 6948 C 632.566 0.725648 5.28744 0
M  V30 6949 O 632.789 -0.447942 5.68638 0
M  V30 6950 O 631.723 1.48555 5.83279 0
M  V30 6951 H 635.549 1.67801 2.53133 0
M  V30 6952 H 633.134 0.879443 1.20773 0
M  V30 6953 H 635.016 -0.107918 4.21262 0
M  V30 6954 H 633.691 -0.683052 3.16411 0
M  V30 6955 H 632.598 1.62514 3.36957 0
M  V30 6956 H 633.931 2.12044 4.44183 0
M  V30 6957 N 635.583 -1.29855 0.893053 0
M  V30 6958 C 636.513 -2.3035 0.382249 0
M  V30 6959 C 637.494 -1.61328 -0.539203 0
M  V30 6960 O 638.679 -1.88882 -0.451342 0
M  V30 6961 C 635.809 -3.45024 -0.396983 0
M  V30 6962 C 634.763 -4.258 0.433437 0
M  V30 6963 C 634.089 -5.32605 -0.472889 0
M  V30 6964 C 635.389 -4.94549 1.67984 0
M  V30 6965 H 637.083 -2.73325 1.22205 0
M  V30 6966 H 634.629 -1.314 0.589073 0
M  V30 6967 H 636.582 -4.14398 -0.765024 0
M  V30 6968 H 635.306 -3.00875 -1.2705 0
M  V30 6969 H 633.965 -3.58125 0.783723 0
M  V30 6970 H 633.613 -4.84702 -1.34435 0
M  V30 6971 H 633.313 -5.87547 0.0789958 0
M  V30 6972 H 634.837 -6.04832 -0.837269 0
M  V30 6973 H 636.251 -5.56395 1.38192 0
M  V30 6974 H 634.648 -5.59393 2.17254 0
M  V30 6975 H 635.718 -4.20215 2.41965 0
M  V30 6976 N 637.061 -0.65484 -1.43351 0
M  V30 6977 C 637.993 0.0744757 -2.29079 0
M  V30 6978 C 639.006 0.7855 -1.42596 0
M  V30 6979 O 640.195 0.642986 -1.66517 0
M  V30 6980 C 637.295 1.12859 -3.19556 0
M  V30 6981 C 636.468 0.495381 -4.34586 0
M  V30 6982 C 635.527 1.44659 -5.05925 0
M  V30 6983 O 634.553 0.954567 -5.61139 0
M  V30 6984 N 635.755 2.78051 -5.09576 0
M  V30 6985 H 638.52 -0.661346 -2.92312 0
M  V30 6986 H 636.081 -0.497744 -1.54059 0
M  V30 6987 H 638.073 1.76577 -3.64147 0
M  V30 6988 H 636.643 1.76636 -2.57912 0
M  V30 6989 H 635.863 -0.32092 -3.92892 0
M  V30 6990 H 637.151 0.0534203 -5.08772 0
M  V30 6991 H 636.549 3.20584 -4.66093 0
M  V30 6992 H 635.106 3.37068 -5.57878 0
M  V30 6993 N 638.539 1.52521 -0.396863 0
M  V30 6994 C 639.502 2.2527 0.422604 0
M  V30 6995 C 640.502 1.27184 0.983913 0
M  V30 6996 O 641.692 1.51222 0.864723 0
M  V30 6997 C 638.824 3.01356 1.59365 0
M  V30 6998 H 640.017 2.99133 -0.214416 0
M  V30 6999 H 637.57 1.55587 -0.149128 0
M  V30 7000 H 638.305 2.31813 2.26789 0
M  V30 7001 H 638.09 3.73357 1.19779 0
M  V30 7002 H 639.58 3.56571 2.17363 0
M  V30 7003 N 640.017 0.126909 1.57088 0
M  V30 7004 C 640.964 -0.82036 2.15728 0
M  V30 7005 C 641.934 -1.25811 1.08447 0
M  V30 7006 O 643.119 -1.33422 1.36393 0
M  V30 7007 C 640.259 -2.06199 2.76724 0
M  V30 7008 C 639.372 -1.67188 3.98337 0
M  V30 7009 C 638.507 -2.86378 4.47393 0
M  V30 7010 C 637.546 -2.43644 5.61519 0
M  V30 7011 N 636.683 -3.55775 6.05284 0
M  V30 7012 H 641.523 -0.313472 2.96347 0
M  V30 7013 H 639.06 -0.14303 1.46403 0
M  V30 7014 H 641.018 -2.78959 3.10222 0
M  V30 7015 H 639.648 -2.54333 1.98782 0
M  V30 7016 H 638.7 -0.842714 3.70948 0
M  V30 7017 H 640.012 -1.31789 4.81075 0
M  V30 7018 H 639.166 -3.67353 4.82842 0
M  V30 7019 H 637.905 -3.25009 3.63621 0
M  V30 7020 H 636.91 -1.61104 5.25667 0
M  V30 7021 H 638.135 -2.06122 6.47063 0
M  V30 7022 H 636.081 -3.94065 5.24451 0
M  V30 7023 H 635.998 -3.24325 6.82898 0
M  V30 7024 H 637.266 -4.37166 6.45373 0
M  V30 7025 N 641.495 -1.56914 -0.146875 0
M  V30 7026 C 642.744 -1.82546 -0.857898 0
M  V30 7027 C 643.057 -0.708169 -1.8233 0
M  V30 7028 O 644.263 -0.850093 -2.57848 0
M  V30 7029 C 642.719 -3.23548 -1.57623 0
M  V30 7030 C 642.327 -4.43212 -0.653224 0
M  V30 7031 C 644.071 -3.58453 -2.27402 0
M  V30 7032 C 641.978 -5.75237 -1.37318 0
M  V30 7033 H 640.908 -0.680786 -0.32411 0
M  V30 7034 H 643.559 -1.83166 -0.110639 0
M  V30 7035 H 641.941 -3.17315 -2.36912 0
M  V30 7036 H 643.115 -4.60682 0.104452 0
M  V30 7037 H 641.43 -4.16351 -0.0638336 0
M  V30 7038 H 644.027 -4.54349 -2.81907 0
M  V30 7039 H 644.37 -2.84516 -3.03901 0
M  V30 7040 H 644.903 -3.66347 -1.55032 0
M  V30 7041 H 641.642 -6.52269 -0.650041 0
M  V30 7042 H 641.162 -5.61703 -2.10357 0
M  V30 7043 H 642.841 -6.18039 -1.91406 0
M  V30 7044 N 642.974 0.416227 -1.52004 0
M  V30 7045 C 643.904 1.51365 -1.77795 0
M  V30 7046 C 644.885 1.58059 -0.628601 0
M  V30 7047 O 646.07 1.73447 -0.873478 0
M  V30 7048 C 643.2 2.89256 -1.92219 0
M  V30 7049 C 642.154 2.97415 -3.0778 0
M  V30 7050 C 641.48 4.37492 -3.07417 0
M  V30 7051 C 642.78 2.69551 -4.47369 0
M  V30 7052 H 644.474 1.30033 -2.69688 0
M  V30 7053 H 642.02 0.624112 -1.29772 0
M  V30 7054 H 643.973 3.66008 -2.08845 0
M  V30 7055 H 642.697 3.11866 -0.969917 0
M  V30 7056 H 641.356 2.23107 -2.90893 0
M  V30 7057 H 641.004 4.571 -2.09925 0
M  V30 7058 H 640.704 4.43877 -3.85029 0
M  V30 7059 H 642.228 5.16188 -3.26162 0
M  V30 7060 H 643.642 3.36028 -4.64497 0
M  V30 7061 H 642.039 2.87321 -5.26846 0
M  V30 7062 H 643.109 1.65029 -4.55953 0
M  V30 7063 N 644.452 1.42507 0.673017 0
M  V30 7064 C 645.677 1.4668 1.46627 0
M  V30 7065 C 646.102 0.080066 1.8793 0
M  V30 7066 O 645.46 -0.921879 1.56112 0
M  V30 7067 C 645.508 2.40091 2.69051 0
M  V30 7068 O 644.612 1.8735 3.67387 0
M  V30 7069 H 643.953 0.496908 0.44043 0
M  V30 7070 H 646.483 1.87215 0.825334 0
M  V30 7071 H 646.493 2.56731 3.17101 0
M  V30 7072 H 645.168 3.4084 2.3833 0
M  V30 7073 H 643.745 1.80274 3.26429 0
M  V30 7074 N 645.93 -0.909495 1.28709 0
M  V30 7075 C 646.86 -2.0291 1.15542 0
M  V30 7076 C 647.841 -1.7002 0.0521017 0
M  V30 7077 O 649.026 -1.92835 0.229849 0
M  V30 7078 C 646.156 -3.37458 0.820935 0
M  V30 7079 C 645.11 -3.84524 1.87949 0
M  V30 7080 C 644.436 -5.16086 1.39854 0
M  V30 7081 C 645.736 -4.05918 3.28676 0
M  V30 7082 H 647.43 -2.14183 2.09203 0
M  V30 7083 H 644.976 -1.02913 1.00722 0
M  V30 7084 H 646.929 -4.1528 0.715571 0
M  V30 7085 H 645.653 -3.26249 -0.151374 0
M  V30 7086 H 644.312 -3.08911 1.97408 0
M  V30 7087 H 643.96 -5.01284 0.41518 0
M  V30 7088 H 643.66 -5.48547 2.1064 0
M  V30 7089 H 645.184 -5.96459 1.30649 0
M  V30 7090 H 646.598 -4.74252 3.22115 0
M  V30 7091 H 644.995 -4.49717 3.97334 0
M  V30 7092 H 646.065 -3.10583 3.72379 0
M  V30 7093 N 647.408 -1.11026 -1.11852 0
M  V30 7094 C 648.655 -0.85646 -1.83497 0
M  V30 7095 C 648.983 0.617938 -1.84423 0
M  V30 7096 O 648.238 1.47194 -1.28966 0
M  V30 7097 C 648.537 -1.35777 -3.30604 0
M  V30 7098 C 648.203 -2.84465 -3.49843 0
M  V30 7099 C 646.865 -3.25068 -3.54802 0
M  V30 7100 C 649.217 -3.80251 -3.56453 0
M  V30 7101 C 646.545 -4.60194 -3.63921 0
M  V30 7102 C 648.897 -5.15188 -3.67102 0
M  V30 7103 C 647.561 -5.55356 -3.70319 0
M  V30 7104 H 646.831 -0.313401 -0.671462 0
M  V30 7105 H 649.478 -1.38792 -1.31943 0
M  V30 7106 H 647.783 -0.746455 -3.84624 0
M  V30 7107 H 649.48 -1.13779 -3.8452 0
M  V30 7108 H 646.07 -2.52054 -3.46651 0
M  V30 7109 H 650.254 -3.49986 -3.51886 0
M  V30 7110 H 645.51 -4.90728 -3.64686 0
M  V30 7111 H 649.684 -5.89248 -3.71159 0
M  V30 7112 H 647.311 -6.60054 -3.77138 0
M  V30 7113 N 648.886 1.2938 -0.899927 0
M  V30 7114 C 649.834 2.29675 -0.367698 0
M  V30 7115 C 650.828 1.60787 0.533282 0
M  V30 7116 O 652.034 1.75126 0.416058 0
M  V30 7117 H 648.409 0.745284 -0.100279 0
M  V30 7118 H 650.38 2.72008 -1.22696 0
M  V30 7119 C 649.129 3.45512 0.389483 0
M  V30 7120 H 648.452 3.98713 -0.294575 0
M  V30 7121 H 649.892 4.17725 0.726744 0
M  V30 7122 C 648.351 2.969 1.59223 0
M  V30 7123 O 648.881 2.98195 2.69152 0
M  V30 7124 N 647.087 2.52728 1.43447 0
M  V30 7125 H 646.634 2.51873 0.540148 0
M  V30 7126 H 646.592 2.20561 2.24054 0
M  V30 7127 N 650.364 0.662433 1.43002 0
M  V30 7128 C 651.589 0.186003 2.06564 0
M  V30 7129 C 652.014 -1.14314 1.49379 0
M  V30 7130 O 651.372 -1.70824 0.607346 0
M  V30 7131 C 651.42 0.118269 3.60406 0
M  V30 7132 O 650.524 -0.916859 4.02079 0
M  V30 7133 H 649.865 0.0990981 0.656563 0
M  V30 7134 H 652.395 0.907958 1.8335 0
M  V30 7135 H 652.405 -0.0619981 4.07953 0
M  V30 7136 H 651.08 1.08849 4.01403 0
M  V30 7137 H 649.657 -0.708635 3.66105 0
M  V30 7138 N 651.842 -1.52309 0.404946 0
M  V30 7139 C 653.09 -2.01368 -0.17186 0
M  V30 7140 C 653.411 -1.29261 -1.46002 0
M  V30 7141 O 652.681 -0.41729 -1.91404 0
M  V30 7142 H 651.261 -0.744034 -0.0664993 0
M  V30 7143 H 653.923 -1.87263 0.540228 0
M  V30 7144 H 653.019 -3.09888 -0.370957 0
M  V30 7145 N 653.32 -0.135238 -1.57019 0
M  V30 7146 C 654.548 0.526066 -2.001 0
M  V30 7147 C 654.963 1.59184 -1.01519 0
M  V30 7148 O 654.32 1.82497 -0.0104258 0
M  V30 7149 C 654.371 1.13744 -3.43139 0
M  V30 7150 O 654.092 0.114259 -4.37951 0
M  V30 7151 C 655.593 1.8805 -4.01438 0
M  V30 7152 H 652.813 0.137962 -0.656664 0
M  V30 7153 H 655.357 -0.226359 -2.03243 0
M  V30 7154 H 653.512 1.84056 -3.40885 0
M  V30 7155 H 653.926 0.56058 -5.21496 0
M  V30 7156 H 655.4 2.26133 -5.03555 0
M  V30 7157 H 655.877 2.76194 -3.41487 0
M  V30 7158 H 656.483 1.22464 -4.07287 0
M  V30 7159 N 654.798 1.5699 0.138552 0
M  V30 7160 C 656.044 1.84081 0.85099 0
M  V30 7161 C 656.377 0.718107 1.80435 0
M  V30 7162 O 655.652 -0.277633 1.92508 0
M  V30 7163 C 655.935 3.21699 1.61808 0
M  V30 7164 C 655.788 4.44544 0.685633 0
M  V30 7165 C 657.107 3.5664 2.57868 0
M  V30 7166 H 654.226 0.669592 0.307922 0
M  V30 7167 H 656.868 1.89646 0.11588 0
M  V30 7168 H 655.018 3.17086 2.24474 0
M  V30 7169 H 656.69 4.61248 0.0693179 0
M  V30 7170 H 654.933 4.338 -0.00421993 0
M  V30 7171 H 655.604 5.3746 1.25858 0
M  V30 7172 H 658.08 3.61918 2.05316 0
M  V30 7173 H 656.956 4.53946 3.08584 0
M  V30 7174 H 657.217 2.83036 3.39622 0
M  V30 7175 N 656.276 -0.40816 1.52223 0
M  V30 7176 C 657.504 -1.17672 1.70179 0
M  V30 7177 C 657.919 -1.84257 0.411696 0
M  V30 7178 O 657.276 -1.7192 -0.612354 0
M  V30 7179 C 657.327 -2.23911 2.83806 0
M  V30 7180 O 657.048 -1.60044 4.0782 0
M  V30 7181 C 658.549 -3.1364 3.13281 0
M  V30 7182 H 655.769 -0.353562 0.570293 0
M  V30 7183 H 658.313 -0.480083 1.98785 0
M  V30 7184 H 656.468 -2.89242 2.57717 0
M  V30 7185 H 656.882 -2.30484 4.71145 0
M  V30 7186 H 658.356 -3.84255 3.96298 0
M  V30 7187 H 658.833 -3.76066 2.26872 0
M  V30 7188 H 659.439 -2.53977 3.41139 0
M  V30 7189 N 657.755 -1.42862 -0.66545 0
M  V30 7190 C 658.718 -1.46756 -1.76055 0
M  V30 7191 C 659.718 -0.353866 -1.56858 0
M  V30 7192 O 660.908 -0.615099 -1.62979 0
M  V30 7193 C 658.04 -1.30829 -3.14796 0
M  V30 7194 H 659.233 -2.44271 -1.73987 0
M  V30 7195 H 656.786 -1.29447 -0.875965 0
M  V30 7196 H 657.521 -0.342733 -3.22484 0
M  V30 7197 H 657.306 -2.11551 -3.30134 0
M  V30 7198 H 658.796 -1.36458 -3.94676 0
M  V30 7199 N 659.233 0.902656 -1.29189 0
M  V30 7200 C 660.181 2.0278 -1.13943 0
M  V30 7201 C 661.175 1.69308 -0.055787 0
M  V30 7202 O 662.381 1.78707 -0.215371 0
M  V30 7203 H 658.756 0.664595 -0.351877 0
M  V30 7204 H 660.727 2.12778 -2.09208 0
M  V30 7205 C 659.476 3.37657 -0.82966 0
M  V30 7206 H 658.799 3.63913 -1.65551 0
M  V30 7207 H 660.239 4.17078 -0.762998 0
M  V30 7208 C 658.698 3.33648 0.466991 0
M  V30 7209 O 659.228 3.72886 1.49395 0
M  V30 7210 N 657.434 2.86745 0.471761 0
M  V30 7211 H 656.981 2.55009 -0.364406 0
M  V30 7212 H 656.939 2.84446 1.33933 0
M  V30 7213 N 660.711 1.11618 1.11262 0
M  V30 7214 C 661.936 0.889013 1.8738 0
M  V30 7215 C 662.361 -0.555884 1.79698 0
M  V30 7216 O 661.719 -1.39272 1.16073 0
M  V30 7217 C 661.767 1.35759 3.34069 0
M  V30 7218 O 660.871 0.530499 4.08974 0
M  V30 7219 H 660.212 0.320082 0.581759 0
M  V30 7220 H 662.742 1.48611 1.40627 0
M  V30 7221 H 662.752 1.35291 3.84916 0
M  V30 7222 H 661.427 2.40973 3.38976 0
M  V30 7223 H 660.004 0.601439 3.68018 0
M  V30 7224 N 662.189 -1.289 0.906776 0
M  V30 7225 C 663.414 -1.99939 0.551303 0
M  V30 7226 C 663.839 -1.67366 -0.858496 0
M  V30 7227 O 663.197 -0.902176 -1.57259 0
M  V30 7228 C 663.245 -3.52523 0.758937 0
M  V30 7229 O 662.349 -4.11983 -0.185308 0
M  V30 7230 H 661.69 -0.628376 0.214568 0
M  V30 7231 H 664.22 -1.64225 1.2203 0
M  V30 7232 H 664.23 -4.02522 0.666329 0
M  V30 7233 H 662.905 -3.75566 1.78671 0
M  V30 7234 H 661.482 -3.72873 -0.0445577 0
M  V30 7235 N 663.667 -0.670007 -1.42649 0
M  V30 7236 C 664.892 -0.196955 -2.06463 0
M  V30 7237 C 665.317 1.1352 -1.49983 0
M  V30 7238 O 664.675 1.705 -0.616397 0
M  V30 7239 C 664.723 -0.137381 -3.60338 0
M  V30 7240 O 663.827 0.895523 -4.02559 0
M  V30 7241 H 663.168 -0.102579 -0.656029 0
M  V30 7242 H 665.698 -0.917669 -1.82866 0
M  V30 7243 H 665.708 0.0403625 -4.0798 0
M  V30 7244 H 664.383 -1.10977 -4.0082 0
M  V30 7245 H 662.96 0.689209 -3.66476 0
M  V30 7246 N 665.145 1.52092 -0.413018 0
M  V30 7247 C 666.108 2.25706 0.398687 0
M  V30 7248 C 667.108 1.28221 0.970368 0
M  V30 7249 O 668.298 1.52131 0.848635 0
M  V30 7250 C 665.43 3.03029 1.5616 0
M  V30 7251 H 666.623 2.98888 -0.246131 0
M  V30 7252 H 664.176 1.5542 -0.165622 0
M  V30 7253 H 664.911 2.34205 2.24317 0
M  V30 7254 H 664.696 3.74606 1.15812 0
M  V30 7255 H 666.186 3.58857 2.13569 0
M  V30 7256 N 666.623 0.143563 1.56945 0
M  V30 7257 C 667.848 -0.518701 2.00809 0
M  V30 7258 C 668.273 -1.5785 1.02298 0
M  V30 7259 O 667.631 -1.813 -0.0017839 0
M  V30 7260 C 667.679 -1.09929 3.43436 0
M  V30 7261 O 666.783 -2.21425 3.47915 0
M  V30 7262 H 666.124 -0.127215 0.6517 0
M  V30 7263 H 668.654 0.239283 2.03196 0
M  V30 7264 H 668.664 -1.4288 3.82164 0
M  V30 7265 H 667.339 -0.323162 4.14643 0
M  V30 7266 H 665.916 -1.89728 3.21026 0
M  V30 7267 N 668.101 -1.57061 -0.130224 0
M  V30 7268 C 669.512 -1.73539 -0.68856 0
M  V30 7269 C 669.863 -0.760554 -1.80859 0
M  V30 7270 O 668.988 0.0690796 -2.1629 0
M  V30 7271 C 669.583 -3.14666 -1.25581 0
M  V30 7272 C 668.142 -3.32689 -1.76055 0
M  V30 7273 C 667.289 -2.69436 -0.655712 0
M  V30 7274 H 670.24 -1.58412 0.0956002 0
M  V30 7275 H 670.261 -3.15595 -2.12556 0
M  V30 7276 H 669.773 -3.85593 -0.440412 0
M  V30 7277 H 667.874 -2.66786 -2.60108 0
M  V30 7278 H 667.987 -4.4077 -1.87772 0
M  V30 7279 H 666.351 -2.30362 -1.08654 0
M  V30 7280 H 667.134 -3.42979 0.14852 0
M  V30 7281 N 669.579 0.400081 -1.52437 0
M  V30 7282 C 670.804 1.17221 -1.71096 0
M  V30 7283 C 671.229 1.83269 -0.423565 0
M  V30 7284 O 670.587 1.70378 0.619751 0
M  V30 7285 C 670.635 2.20425 -2.85386 0
M  V30 7286 O 669.739 3.26769 -2.51586 0
M  V30 7287 H 669.08 0.341766 -0.569291 0
M  V30 7288 H 671.61 0.467772 -1.99181 0
M  V30 7289 H 671.62 2.64605 -3.10561 0
M  V30 7290 H 670.295 1.71737 -3.78786 0
M  V30 7291 H 668.872 2.87804 -2.37114 0
M  V30 7292 N 671.057 1.43213 0.657864 0
M  V30 7293 C 672.303 1.44798 1.41991 0
M  V30 7294 C 672.636 0.070256 1.94073 0
M  V30 7295 O 671.911 -0.908177 1.71995 0
M  V30 7296 C 672.194 2.4865 2.60471 0
M  V30 7297 C 672.047 3.95679 2.13911 0
M  V30 7298 C 673.366 2.49292 3.62686 0
M  V30 7299 H 670.485 0.527244 0.514959 0
M  V30 7300 H 673.127 1.74733 0.74621 0
M  V30 7301 H 671.277 2.23254 3.17946 0
M  V30 7302 H 672.949 4.32116 1.61472 0
M  V30 7303 H 671.192 4.08733 1.45325 0
M  V30 7304 H 671.863 4.6395 2.99089 0
M  V30 7305 H 674.339 2.71917 3.14961 0
M  V30 7306 H 673.215 3.23907 4.43143 0
M  V30 7307 H 673.476 1.52502 4.14964 0
M  V30 7308 N 672.536 -0.895792 1.29666 0
M  V30 7309 C 673.499 -1.98189 1.15124 0
M  V30 7310 C 674.499 -1.60572 0.0855717 0
M  V30 7311 O 675.689 -1.70991 0.332826 0
M  V30 7312 C 672.821 -3.32289 0.761372 0
M  V30 7313 H 674.014 -2.12518 2.11603 0
M  V30 7314 H 671.567 -1.0808 1.12908 0
M  V30 7315 H 672.302 -3.23662 -0.203393 0
M  V30 7316 H 672.087 -3.60958 1.53139 0
M  V30 7317 H 673.577 -4.1198 0.682792 0
M  V30 7318 N 674.014 -1.12206 -1.10668 0
M  V30 7319 C 674.977 -0.790867 -2.15123 0
M  V30 7320 C 675.977 0.193618 -1.5963 0
M  V30 7321 O 677.167 -0.0318728 -1.74171 0
M  V30 7322 C 674.299 -0.174797 -3.40452 0
M  V30 7323 H 675.492 -1.7163 -2.45933 0
M  V30 7324 H 673.045 -0.924993 -1.2599 0
M  V30 7325 H 673.78 0.760478 -3.15257 0
M  V30 7326 H 673.565 -0.88358 -3.82015 0
M  V30 7327 H 675.055 0.0405162 -4.1758 0
M  V30 7328 N 675.492 1.28418 -0.913599 0
M  V30 7329 C 676.74 1.94596 -0.545594 0
M  V30 7330 C 677.061 1.7227 0.913668 0
M  V30 7331 O 676.331 1.06233 1.64595 0
M  V30 7332 H 674.911 0.720065 -0.198783 0
M  V30 7333 H 677.573 1.56404 -1.16292 0
M  V30 7334 H 676.669 3.03202 -0.739911 0
M  V30 7335 N 676.97 0.677563 1.42291 0
M  V30 7336 C 677.918 -0.0106755 2.32598 0
M  V30 7337 C 678.912 -0.787643 1.49975 0
M  V30 7338 O 680.118 -0.695295 1.66029 0
M  V30 7339 H 676.493 -0.0222482 0.751671 0
M  V30 7340 H 678.464 0.768312 2.88339 0
M  V30 7341 C 677.213 -0.946142 3.3458 0
M  V30 7342 H 676.536 -0.357701 3.98197 0
M  V30 7343 H 677.976 -1.39634 4.00348 0
M  V30 7344 C 676.435 -2.05383 2.67057 0
M  V30 7345 O 676.965 -3.1406 2.50458 0
M  V30 7346 N 675.171 -1.82635 2.26038 0
M  V30 7347 H 674.718 -0.942534 2.39737 0
M  V30 7348 H 674.676 -2.56937 1.81192 0
M  V30 7349 N 678.448 -1.51871 0.421078 0
M  V30 7350 C 679.676 -2.06356 -0.14994 0
M  V30 7351 C 680.091 -1.29006 -1.37851 0
M  V30 7352 O 679.448 -0.345139 -1.79207 0
M  V30 7353 C 679.499 -3.58185 -0.488454 0
M  V30 7354 O 679.22 -4.32611 0.691341 0
M  V30 7355 C 680.721 -4.29129 -1.11191 0
M  V30 7356 H 677.941 -0.67083 -0.0151186 0
M  V30 7357 H 680.485 -1.95638 0.595476 0
M  V30 7358 H 678.64 -3.68871 -1.18376 0
M  V30 7359 H 679.054 -5.22927 0.405906 0
M  V30 7360 H 680.528 -5.36501 -1.29889 0
M  V30 7361 H 681.005 -3.86371 -2.0884 0
M  V30 7362 H 681.611 -4.22843 -0.456458 0
M  V30 7363 N 679.926 -0.151884 -1.56866 0
M  V30 7364 C 681.337 0.368128 -1.83035 0
M  V30 7365 C 681.688 1.64402 -1.07082 0
M  V30 7366 O 680.813 2.14056 -0.317647 0
M  V30 7367 C 681.408 0.674676 -3.32014 0
M  V30 7368 C 679.967 1.13919 -3.58747 0
M  V30 7369 C 679.114 0.164833 -2.7681 0
M  V30 7370 H 682.065 -0.376499 -1.54169 0
M  V30 7371 H 682.086 1.52883 -3.48435 0
M  V30 7372 H 681.598 -0.254113 -3.87267 0
M  V30 7373 H 679.699 2.08375 -3.08886 0
M  V30 7374 H 679.812 1.06179 -4.67186 0
M  V30 7375 H 678.176 0.658419 -2.46043 0
M  V30 7376 H 678.959 -0.757633 -3.34836 0
M  V30 7377 N 681.404 1.57128 0.121893 0
M  V30 7378 C 682.352 2.01109 1.16868 0
M  V30 7379 C 683.346 0.907532 1.43039 0
M  V30 7380 O 684.552 1.09274 1.43036 0
M  V30 7381 H 680.927 0.640539 0.393971 0
M  V30 7382 H 682.898 2.88261 0.771224 0
M  V30 7383 C 681.647 2.42887 2.48799 0
M  V30 7384 H 680.97 3.2737 2.29498 0
M  V30 7385 H 682.41 2.77461 3.20611 0
M  V30 7386 C 680.869 1.29137 3.11168 0
M  V30 7387 O 681.399 0.605756 3.97106 0
M  V30 7388 N 679.605 1.04916 2.71 0
M  V30 7389 H 679.152 1.60848 2.01211 0
M  V30 7390 H 679.11 0.290016 3.1306 0
M  V30 7391 N 682.882 -0.391992 1.52647 0
M  V30 7392 C 683.814 -1.49811 1.73463 0
M  V30 7393 C 684.827 -1.50734 0.615078 0
M  V30 7394 O 686.016 -1.5469 0.890696 0
M  V30 7395 C 683.116 -2.88667 1.77552 0
M  V30 7396 C 682.289 -3.11743 3.06815 0
M  V30 7397 C 681.348 -4.30564 3.02491 0
M  V30 7398 O 680.374 -4.27014 3.76361 0
M  V30 7399 N 681.576 -5.36593 2.21468 0
M  V30 7400 H 684.341 -1.32343 2.68897 0
M  V30 7401 H 681.902 -0.581475 1.51098 0
M  V30 7402 H 683.894 -3.66251 1.7217 0
M  V30 7403 H 682.464 -2.99508 0.895181 0
M  V30 7404 H 681.684 -2.2205 3.25711 0
M  V30 7405 H 682.972 -3.24013 3.92292 0
M  V30 7406 H 682.37 -5.42332 1.60913 0
M  V30 7407 H 680.927 -6.12855 2.21928 0
M  V30 7408 N 684.36 -1.4356 -0.65026 0
M  V30 7409 C 685.308 -1.49219 -1.78427 0
M  V30 7410 C 686.302 -0.365528 -1.65409 0
M  V30 7411 O 687.508 -0.539649 -1.7172 0
M  V30 7412 H 683.883 -0.467858 -0.588738 0
M  V30 7413 H 685.854 -2.44701 -1.70774 0
M  V30 7414 C 684.603 -1.43519 -3.16698 0
M  V30 7415 H 683.926 -2.2952 -3.27354 0
M  V30 7416 H 685.366 -1.5154 -3.95995 0
M  V30 7417 C 683.825 -0.153197 -3.36552 0
M  V30 7418 O 684.355 0.784317 -3.93969 0
M  V30 7419 N 682.561 -0.0624402 -2.90533 0
M  V30 7420 H 682.108 -0.826172 -2.43992 0
M  V30 7421 H 682.066 0.794616 -3.04193 0
M  V30 7422 N 685.838 0.888903 -1.30139 0
M  V30 7423 C 687.085 1.64037 -1.18736 0
M  V30 7424 C 687.413 1.92771 0.258801 0
M  V30 7425 O 686.668 1.54427 1.20212 0
M  V30 7426 C 686.967 2.99041 -1.95728 0
M  V30 7427 C 686.633 2.89874 -3.45375 0
M  V30 7428 C 685.295 2.87082 -3.86183 0
M  V30 7429 C 687.647 2.78289 -4.40687 0
M  V30 7430 C 684.975 2.70536 -5.20603 0
M  V30 7431 C 687.327 2.63282 -5.75209 0
M  V30 7432 C 685.991 2.58861 -6.15262 0
M  V30 7433 H 685.261 0.600253 -0.434485 0
M  V30 7434 H 687.908 1.0338 -1.61198 0
M  V30 7435 H 686.213 3.63626 -1.45888 0
M  V30 7436 H 687.91 3.56139 -1.843 0
M  V30 7437 H 684.5 2.92856 -3.12943 0
M  V30 7438 H 688.684 2.79516 -4.10103 0
M  V30 7439 H 683.94 2.65526 -5.50732 0
M  V30 7440 H 688.114 2.5329 -6.48704 0
M  V30 7441 H 685.741 2.45799 -7.19366 0
M  V30 7442 N 687.317 1.12792 1.10072 0
M  V30 7443 C 688.542 0.908838 1.86427 0
M  V30 7444 C 688.967 -0.536793 1.80278 0
M  V30 7445 O 688.325 -1.38033 1.17543 0
M  V30 7446 C 688.373 1.39295 3.3261 0
M  V30 7447 O 687.477 0.573846 4.08388 0
M  V30 7448 H 686.818 0.326234 0.578331 0
M  V30 7449 H 689.348 1.50094 1.39043 0
M  V30 7450 H 689.358 1.39366 3.83459 0
M  V30 7451 H 688.033 2.44555 3.36401 0
M  V30 7452 H 686.61 0.640438 3.67359 0
M  V30 7453 N 688.795 -1.27931 0.920396 0
M  V30 7454 C 690.023 -1.98805 0.573087 0
M  V30 7455 C 690.438 -1.68724 -0.847201 0
M  V30 7456 O 689.795 -0.943699 -1.56207 0
M  V30 7457 C 689.846 -3.52971 0.780633 0
M  V30 7458 O 689.567 -3.81994 2.14504 0
M  V30 7459 C 691.068 -4.411 0.44105 0
M  V30 7460 H 688.288 -0.634651 0.21785 0
M  V30 7461 H 690.832 -1.62965 1.23542 0
M  V30 7462 H 688.987 -3.87048 0.165204 0
M  V30 7463 H 689.401 -4.76609 2.18962 0
M  V30 7464 H 690.875 -5.48312 0.637006 0
M  V30 7465 H 691.352 -4.34758 -0.62306 0
M  V30 7466 H 691.958 -4.12532 1.0343 0
M  V30 7467 N 690.273 -0.685099 -1.4193 0
M  V30 7468 C 691.236 -0.0222632 -2.29189 0
M  V30 7469 C 692.236 0.7186 -1.4385 0
M  V30 7470 O 693.426 0.555058 -1.6512 0
M  V30 7471 C 690.558 0.979013 -3.2654 0
M  V30 7472 H 691.751 -0.790424 -2.89296 0
M  V30 7473 H 689.304 -0.448012 -1.49742 0
M  V30 7474 H 690.039 1.77531 -2.71392 0
M  V30 7475 H 689.824 0.451037 -3.89497 0
M  V30 7476 H 691.314 1.44091 -3.91954 0
M  V30 7477 N 691.751 1.51645 -0.429126 0
M  V30 7478 C 692.714 2.26116 0.374726 0
M  V30 7479 C 693.714 1.29242 0.956714 0
M  V30 7480 O 694.904 1.53022 0.832452 0
M  V30 7481 C 692.036 3.04669 1.52937 0
M  V30 7482 H 693.229 2.9861 -0.277818 0
M  V30 7483 H 690.782 1.55236 -0.182097 0
M  V30 7484 H 691.517 2.36571 2.21821 0
M  V30 7485 H 691.302 3.75814 1.11833 0
M  V30 7486 H 692.792 3.61102 2.09751 0
M  V30 7487 N 693.229 0.160201 1.56784 0
M  V30 7488 C 694.177 -0.791402 2.18723 0
M  V30 7489 C 695.171 -1.24567 1.14801 0
M  V30 7490 O 696.377 -1.21262 1.33025 0
M  V30 7491 H 692.752 -0.273458 0.700517 0
M  V30 7492 H 694.723 -0.244931 2.97393 0
M  V30 7493 C 693.472 -2.01509 2.83354 0
M  V30 7494 H 692.795 -1.67454 3.63041 0
M  V30 7495 H 694.235 -2.66006 3.30177 0
M  V30 7496 C 692.694 -2.83159 1.82545 0
M  V30 7497 O 693.224 -3.79944 1.30405 0
M  V30 7498 N 691.43 -2.47953 1.51552 0
M  V30 7499 H 690.977 -1.69309 1.94144 0
M  V30 7500 H 690.935 -3.02873 0.843519 0
M  V30 7501 N 694.707 -1.5719 -0.113559 0
M  V30 7502 C 695.932 -1.89702 -0.838336 0
M  V30 7503 C 696.357 -0.752679 -1.72384 0
M  V30 7504 O 695.715 0.296575 -1.78858 0
M  V30 7505 C 695.763 -3.20989 -1.64312 0
M  V30 7506 O 694.867 -3.07278 -2.75053 0
M  V30 7507 H 694.208 -0.622339 -0.231496 0
M  V30 7508 H 696.738 -2.04382 -0.0943228 0
M  V30 7509 H 696.748 -3.53843 -2.03123 0
M  V30 7510 H 695.423 -4.03869 -0.993119 0
M  V30 7511 H 694 -2.85901 -2.39406 0
M  V30 7512 N 696.185 0.383891 -1.52853 0
M  V30 7513 C 697.117 1.48889 -1.74255 0
M  V30 7514 C 698.13 1.50405 -0.623063 0
M  V30 7515 O 699.319 1.54215 -0.898887 0
M  V30 7516 C 696.419 2.87721 -1.79081 0
M  V30 7517 C 695.592 3.10111 -3.08464 0
M  V30 7518 C 694.651 4.28954 -3.0477 0
M  V30 7519 O 693.677 4.25012 -3.78621 0
M  V30 7520 N 694.879 5.35411 -2.24311 0
M  V30 7521 H 697.644 1.30915 -2.69595 0
M  V30 7522 H 695.205 0.573454 -1.51404 0
M  V30 7523 H 697.197 3.65333 -1.7411 0
M  V30 7524 H 695.767 2.99029 -0.911052 0
M  V30 7525 H 694.987 2.20319 -3.26884 0
M  V30 7526 H 696.275 3.21928 -3.94005 0
M  V30 7527 H 695.673 5.41471 -1.63787 0
M  V30 7528 H 694.23 6.1167 -2.25175 0
M  V30 7529 N 697.663 1.43903 0.642637 0
M  V30 7530 C 699.074 1.40975 1.22404 0
M  V30 7531 C 699.425 0.1192 1.95838 0
M  V30 7532 O 698.55 -0.780939 2.01818 0
M  V30 7533 C 699.145 2.5538 2.22636 0
M  V30 7534 C 697.704 2.55684 2.76229 0
M  V30 7535 C 696.851 2.32556 1.51039 0
M  V30 7536 H 699.802 1.5265 0.434006 0
M  V30 7537 H 699.823 2.27474 3.05017 0
M  V30 7538 H 699.335 3.49294 1.69161 0
M  V30 7539 H 697.436 1.65679 3.33738 0
M  V30 7540 H 697.549 3.53799 3.23053 0
M  V30 7541 H 695.913 1.81427 1.78764 0
M  V30 7542 H 696.696 3.28569 0.99484 0
M  V30 7543 N 699.141 -0.881989 1.30609 0
M  V30 7544 C 700.073 -1.99375 1.13058 0
M  V30 7545 C 701.086 -1.62636 0.0729879 0
M  V30 7546 O 702.275 -1.75621 0.319301 0
M  V30 7547 C 699.375 -3.31536 0.702651 0
M  V30 7548 C 698.548 -3.96693 1.84265 0
M  V30 7549 C 697.607 -5.07158 1.40277 0
M  V30 7550 O 696.633 -5.28628 2.11048 0
M  V30 7551 N 697.835 -5.79808 0.283449 0
M  V30 7552 H 700.6 -2.14981 2.08814 0
M  V30 7553 H 698.161 -1.05526 1.22784 0
M  V30 7554 H 700.153 -4.02804 0.391331 0
M  V30 7555 H 698.723 -3.12175 -0.162954 0
M  V30 7556 H 697.943 -3.1856 2.32192 0
M  V30 7557 H 699.231 -4.36964 2.60653 0
M  V30 7558 H 698.629 -5.64871 -0.306189 0
M  V30 7559 H 697.186 -6.51792 0.0315985 0
M  V30 7560 N 700.619 -1.13374 -1.09472 0
M  V30 7561 C 701.551 -0.768466 -2.15933 0
M  V30 7562 C 702.564 0.209585 -1.61445 0
M  V30 7563 O 703.753 -0.010539 -1.78497 0
M  V30 7564 C 700.853 -0.118266 -3.38694 0
M  V30 7565 C 700.026 -1.12829 -4.22597 0
M  V30 7566 C 699.085 -0.503875 -5.23782 0
M  V30 7567 O 698.111 -1.16374 -5.57177 0
M  V30 7568 N 699.313 0.724288 -5.75964 0
M  V30 7569 H 702.078 -1.68457 -2.47876 0
M  V30 7570 H 699.639 -1.02668 -1.25183 0
M  V30 7571 H 701.631 0.311698 -4.03498 0
M  V30 7572 H 700.201 0.700769 -3.04644 0
M  V30 7573 H 699.421 -1.73556 -3.53938 0
M  V30 7574 H 700.709 -1.81095 -4.75481 0
M  V30 7575 H 700.107 1.27918 -5.51048 0
M  V30 7576 H 698.664 1.09692 -6.42504 0
M  V30 7577 N 702.098 1.27442 -0.927168 0
M  V30 7578 C 703.514 1.46754 -0.627329 0
M  V30 7579 C 703.714 1.83902 0.823549 0
M  V30 7580 O 702.77 1.95215 1.60148 0
M  V30 7581 C 704.083 2.56045 -1.57674 0
M  V30 7582 C 705.631 2.69906 -1.58491 0
M  V30 7583 C 706.106 3.82355 -2.52128 0
M  V30 7584 N 707.597 3.89728 -2.50332 0
M  V30 7585 C 708.332 4.76155 -3.19475 0
M  V30 7586 N 707.828 5.67073 -3.97995 0
M  V30 7587 N 709.621 4.6988 -3.08496 0
M  V30 7588 H 701.772 1.01613 -1.86517 0
M  V30 7589 H 704.035 0.507443 -0.800753 0
M  V30 7590 H 703.741 2.35542 -2.61176 0
M  V30 7591 H 703.615 3.53423 -1.31804 0
M  V30 7592 H 706.002 2.89792 -0.557208 0
M  V30 7593 H 706.083 1.73018 -1.8841 0
M  V30 7594 H 705.727 3.63224 -3.55008 0
M  V30 7595 H 705.657 4.7867 -2.19505 0
M  V30 7596 H 708.148 3.24717 -1.93306 0
M  V30 7597 H 708.461 6.2988 -4.4774 0
M  V30 7598 H 706.806 5.6687 -4.02098 0
M  V30 7599 H 709.997 3.97848 -2.46646 0
M  V30 7600 H 710.17 5.37017 -3.62652 0
M  V30 7601 N 703.576 0.692616 1.41565 0
M  V30 7602 C 704.801 0.229776 2.06123 0
M  V30 7603 C 705.226 -1.11119 1.5177 0
M  V30 7604 O 704.584 -1.69498 0.643444 0
M  V30 7605 C 704.632 0.19469 3.60074 0
M  V30 7606 O 703.736 -0.831366 4.03933 0
M  V30 7607 H 703.077 0.113002 0.654314 0
M  V30 7608 H 705.607 0.946645 1.81383 0
M  V30 7609 H 705.617 0.0245487 4.07993 0
M  V30 7610 H 704.292 1.17339 3.99004 0
M  V30 7611 H 702.869 -0.630819 3.67526 0
M  V30 7612 N 705.054 -1.51416 0.437162 0
M  V30 7613 C 705.986 -2.255 -0.410171 0
M  V30 7614 C 706.999 -1.29511 -0.986444 0
M  V30 7615 O 708.188 -1.55266 -0.880614 0
M  V30 7616 C 705.288 -2.99511 -1.58575 0
M  V30 7617 C 704.461 -4.22595 -1.12839 0
M  V30 7618 C 703.52 -4.79187 -2.17407 0
M  V30 7619 O 702.546 -5.4103 -1.76849 0
M  V30 7620 N 703.748 -4.63204 -3.49889 0
M  V30 7621 H 706.513 -2.98856 0.224783 0
M  V30 7622 H 704.074 -1.59699 0.266041 0
M  V30 7623 H 706.066 -3.34258 -2.28152 0
M  V30 7624 H 704.636 -2.29167 -2.12606 0
M  V30 7625 H 703.856 -3.93344 -0.259695 0
M  V30 7626 H 705.144 -5.02468 -0.800196 0
M  V30 7627 H 704.542 -4.13945 -3.85573 0
M  V30 7628 H 703.099 -5.02313 -4.15361 0
M  V30 7629 N 706.532 -0.168513 -1.56696 0
M  V30 7630 C 707.495 0.748928 -2.16619 0
M  V30 7631 C 708.495 1.16007 -1.11351 0
M  V30 7632 O 709.685 1.07748 -1.3688 0
M  V30 7633 C 706.817 2.01904 -2.74677 0
M  V30 7634 H 708.01 0.227317 -2.99037 0
M  V30 7635 H 705.563 0.0810372 -1.5609 0
M  V30 7636 H 706.298 2.58381 -1.95985 0
M  V30 7637 H 706.083 1.73323 -3.51712 0
M  V30 7638 H 707.573 2.67383 -3.20774 0
M  V30 7639 N 708.01 1.57248 0.105221 0
M  V30 7640 C 709.235 1.90143 0.828264 0
M  V30 7641 C 709.66 0.761811 1.71983 0
M  V30 7642 O 709.018 -0.287086 1.79013 0
M  V30 7643 C 709.066 3.21856 1.62608 0
M  V30 7644 O 708.17 3.08732 2.7342 0
M  V30 7645 H 707.511 0.623558 0.228192 0
M  V30 7646 H 710.041 2.0443 0.0834826 0
M  V30 7647 H 710.051 3.54916 2.01243 0
M  V30 7648 H 708.726 4.0439 0.971687 0
M  V30 7649 H 707.303 2.87167 2.37886 0
M  V30 7650 N 709.488 -0.375779 1.53054 0
M  V30 7651 C 710.736 -1.11727 1.68409 0
M  V30 7652 C 711.057 -1.90127 0.43323 0
M  V30 7653 O 710.327 -1.87945 -0.552595 0
M  V30 7654 H 708.907 -0.415451 0.620813 0
M  V30 7655 H 711.569 -0.424869 1.90213 0
M  V30 7656 H 710.665 -1.8128 2.54055 0
M  V30 7657 N 710.966 -1.44241 -0.634997 0
M  V30 7658 C 711.914 -1.51103 -1.76835 0
M  V30 7659 C 712.908 -0.383051 -1.65012 0
M  V30 7660 O 714.114 -0.557832 -1.71138 0
M  V30 7661 H 710.489 -0.474076 -0.583743 0
M  V30 7662 H 712.46 -2.46499 -1.68169 0
M  V30 7663 C 711.209 -1.4687 -3.15158 0
M  V30 7664 H 710.532 -2.32979 -3.24901 0
M  V30 7665 H 711.972 -1.55731 -3.94365 0
M  V30 7666 C 710.431 -0.188884 -3.3637 0
M  V30 7667 O 710.961 0.742487 -3.94778 0
M  V30 7668 N 709.167 -0.0932516 -2.9045 0
M  V30 7669 H 708.714 -0.852004 -2.43102 0
M  V30 7670 H 708.672 0.762308 -3.05018 0
M  V30 7671 N 712.444 0.87505 -1.31075 0
M  V30 7672 C 713.376 1.98773 -1.14114 0
M  V30 7673 C 714.389 1.62595 -0.0816119 0
M  V30 7674 O 715.578 1.75449 -0.32861 0
M  V30 7675 C 712.678 3.31159 -0.720224 0
M  V30 7676 C 711.851 3.9571 -1.86366 0
M  V30 7677 C 710.91 5.06407 -1.42965 0
M  V30 7678 O 709.936 5.27501 -2.13848 0
M  V30 7679 N 711.138 5.79649 -0.314194 0
M  V30 7680 H 713.903 2.1387 -2.09951 0
M  V30 7681 H 711.464 1.04873 -1.23342 0
M  V30 7682 H 713.456 4.0259 -0.412687 0
M  V30 7683 H 712.026 3.12257 0.146396 0
M  V30 7684 H 711.246 3.17324 -2.33879 0
M  V30 7685 H 712.534 4.35576 -2.62966 0
M  V30 7686 H 711.932 5.65025 0.276228 0
M  V30 7687 H 710.489 6.51766 -0.0661641 0
M  V30 7688 N 713.922 1.13953 1.08869 0
M  V30 7689 C 715.333 0.916649 1.62648 0
M  V30 7690 C 715.684 -0.545589 1.88462 0
M  V30 7691 O 714.809 -1.41351 1.63856 0
M  V30 7692 C 715.404 1.65751 2.95486 0
M  V30 7693 C 713.963 1.48034 3.46068 0
M  V30 7694 C 713.11 1.68305 2.20383 0
M  V30 7695 H 716.061 1.292 0.921572 0
M  V30 7696 H 716.082 1.11794 3.63707 0
M  V30 7697 H 715.594 2.72171 2.76667 0
M  V30 7698 H 713.695 0.439416 3.7 0
M  V30 7699 H 713.808 2.24719 4.23129 0
M  V30 7700 H 712.172 1.10833 2.29321 0
M  V30 7701 H 712.955 2.76057 2.04077 0
M  V30 7702 N 715.4 -1.26948 0.933913 0
M  V30 7703 C 716.811 -1.76058 0.621324 0
M  V30 7704 C 717.162 -1.76175 -0.863522 0
M  V30 7705 O 716.287 -1.36921 -1.67576 0
M  V30 7706 C 716.882 -3.19713 1.12111 0
M  V30 7707 C 715.441 -3.66465 0.859074 0
M  V30 7708 C 714.588 -2.46186 1.27624 0
M  V30 7709 H 717.539 -1.13127 1.11301 0
M  V30 7710 H 717.56 -3.77566 0.471608 0
M  V30 7711 H 717.072 -3.19596 2.20182 0
M  V30 7712 H 715.173 -3.72021 -0.207566 0
M  V30 7713 H 715.286 -4.55636 1.48098 0
M  V30 7714 H 713.65 -2.45042 0.694727 0
M  V30 7715 H 714.433 -2.48774 2.36572 0
M  V30 7716 N 716.879 -0.700114 -1.41195 0
M  V30 7717 C 718.104 -0.240704 -2.05998 0
M  V30 7718 C 718.529 1.10313 -1.52357 0
M  V30 7719 O 717.887 1.69154 -0.652424 0
M  V30 7720 C 717.935 -0.213783 -3.59966 0
M  V30 7721 O 717.039 0.809933 -4.04368 0
M  V30 7722 H 716.38 -0.116471 -0.653705 0
M  V30 7723 H 718.91 -0.956251 -1.80878 0
M  V30 7724 H 718.92 -0.0461852 -4.07974 0
M  V30 7725 H 717.595 -1.19454 -3.98376 0
M  V30 7726 H 716.172 0.611319 -3.67855 0
M  V30 7727 N 718.357 1.51182 -0.445186 0
M  V30 7728 C 719.606 2.01342 0.120189 0
M  V30 7729 C 719.919 1.33353 1.43095 0
M  V30 7730 O 721.125 1.74525 2.07974 0
M  V30 7731 C 719.581 3.58925 0.264732 0
M  V30 7732 C 719.189 4.35855 -1.03606 0
M  V30 7733 C 720.933 4.17208 0.783455 0
M  V30 7734 C 718.84 5.85162 -0.856731 0
M  V30 7735 H 717.77 0.752426 0.0486922 0
M  V30 7736 H 720.421 1.74221 -0.576143 0
M  V30 7737 H 718.803 3.82525 1.02425 0
M  V30 7738 H 719.977 4.23997 -1.80452 0
M  V30 7739 H 718.292 3.89062 -1.48391 0
M  V30 7740 H 720.889 5.26475 0.934239 0
M  V30 7741 H 721.232 3.76892 1.768 0
M  V30 7742 H 721.765 3.97715 0.0820346 0
M  V30 7743 H 718.504 6.29904 -1.81388 0
M  V30 7744 H 718.024 5.99663 -0.128206 0
M  V30 7745 H 719.703 6.44963 -0.513027 0
M  V30 7746 N 719.835 0.176821 1.56605 0
M  V30 7747 C 720.765 -0.746841 2.21234 0
M  V30 7748 C 721.746 -1.23502 1.16967 0
M  V30 7749 O 722.931 -1.28718 1.45414 0
M  V30 7750 C 720.061 -1.97407 2.8574 0
M  V30 7751 C 719.015 -1.62153 3.96094 0
M  V30 7752 C 718.341 -2.92387 4.47676 0
M  V30 7753 C 719.641 -0.845353 5.15413 0
M  V30 7754 H 721.335 -0.208116 2.98676 0
M  V30 7755 H 718.881 -0.0986594 1.43662 0
M  V30 7756 H 720.834 -2.62531 3.2963 0
M  V30 7757 H 719.558 -2.53703 2.05676 0
M  V30 7758 H 718.217 -0.993964 3.52868 0
M  V30 7759 H 717.865 -3.46734 3.64396 0
M  V30 7760 H 717.565 -2.69551 5.22127 0
M  V30 7761 H 719.089 -3.5853 4.94255 0
M  V30 7762 H 720.503 -1.39929 5.55961 0
M  V30 7763 H 718.9 -0.715814 5.95815 0
M  V30 7764 H 719.97 0.157239 4.84645 0
M  V30 7765 N 721.313 -1.57302 -0.09688 0
M  V30 7766 C 722.561 -1.8563 -0.799117 0
M  V30 7767 C 722.882 -0.765263 -1.79356 0
M  V30 7768 O 722.152 0.208657 -1.94786 0
M  V30 7769 H 720.732 -0.684937 -0.298111 0
M  V30 7770 H 723.394 -1.9474 -0.0789341 0
M  V30 7771 H 722.49 -2.82305 -1.3308 0
M  V30 7772 N 722.791 0.367657 -1.53252 0
M  V30 7773 C 723.723 1.47032 -1.75824 0
M  V30 7774 C 724.736 1.49736 -0.63898 0
M  V30 7775 O 725.925 1.53253 -0.915193 0
M  V30 7776 C 723.025 2.85805 -1.82122 0
M  V30 7777 C 722.198 3.06822 -3.11736 0
M  V30 7778 C 721.257 4.25698 -3.09302 0
M  V30 7779 O 720.283 4.20972 -3.83107 0
M  V30 7780 N 721.485 5.33002 -2.29977 0
M  V30 7781 H 724.25 1.28048 -2.70968 0
M  V30 7782 H 721.811 0.557363 -1.52004 0
M  V30 7783 H 723.803 3.63465 -1.77975 0
M  V30 7784 H 722.373 2.98046 -0.942716 0
M  V30 7785 H 721.593 2.1684 -3.29202 0
M  V30 7786 H 722.881 3.17731 -3.97397 0
M  V30 7787 H 722.279 5.39703 -1.69521 0
M  V30 7788 H 720.836 6.09247 -2.3165 0
M  V30 7789 N 724.269 1.44576 0.627338 0
M  V30 7790 C 725.517 1.47267 1.38408 0
M  V30 7791 C 725.838 0.107971 1.94701 0
M  V30 7792 O 725.108 -0.860206 1.76004 0
M  V30 7793 H 723.688 0.542276 0.513756 0
M  V30 7794 H 726.35 1.80383 0.738099 0
M  V30 7795 H 725.446 2.20025 2.21349 0
M  V30 7796 N 725.747 -0.868086 1.31537 0
M  V30 7797 C 726.995 -1.61807 1.21091 0
M  V30 7798 C 727.316 -1.93631 -0.230623 0
M  V30 7799 O 726.586 -1.5846 -1.15183 0
M  V30 7800 H 725.166 -0.599854 0.445178 0
M  V30 7801 H 727.828 -1.03915 1.64887 0
M  V30 7802 H 726.924 -2.56088 1.78396 0
M  V30 7803 N 727.225 -1.14528 -1.08264 0
M  V30 7804 C 728.45 -0.938381 -1.84957 0
M  V30 7805 C 728.875 0.508044 -1.81109 0
M  V30 7806 O 728.233 1.36146 -1.19724 0
M  V30 7807 C 728.281 -1.44568 -3.30352 0
M  V30 7808 O 727.385 -0.638745 -4.07423 0
M  V30 7809 H 726.726 -0.335394 -0.573068 0
M  V30 7810 H 729.256 -1.52287 -1.36637 0
M  V30 7811 H 729.266 -1.45449 -3.81194 0
M  V30 7812 H 727.941 -2.49876 -3.32468 0
M  V30 7813 H 726.518 -0.698801 -3.66294 0
M  V30 7814 N 728.703 1.26451 -0.940633 0
M  V30 7815 C 729.666 2.24651 -0.454378 0
M  V30 7816 C 730.666 1.54826 0.434222 0
M  V30 7817 O 731.856 1.72628 0.233477 0
M  V30 7818 C 728.988 3.39148 0.345192 0
M  V30 7819 H 730.181 2.69182 -1.32217 0
M  V30 7820 H 727.734 1.38596 -0.722547 0
M  V30 7821 H 728.469 3.00018 1.23125 0
M  V30 7822 H 728.254 3.9101 -0.292107 0
M  V30 7823 H 729.744 4.12103 0.675341 0
M  V30 7824 N 730.181 0.707592 1.40822 0
M  V30 7825 C 731.113 0.0105968 2.29198 0
M  V30 7826 C 732.126 -0.732035 1.45414 0
M  V30 7827 O 733.315 -0.580741 1.68789 0
M  V30 7828 C 730.415 -1.00921 3.23525 0
M  V30 7829 C 729.588 -0.333747 4.36125 0
M  V30 7830 C 728.647 -1.25783 5.10945 0
M  V30 7831 O 727.673 -0.745646 5.64295 0
M  V30 7832 N 728.875 -2.58947 5.19545 0
M  V30 7833 H 731.64 0.76938 2.89656 0
M  V30 7834 H 729.201 0.554579 1.52105 0
M  V30 7835 H 731.193 -1.6294 3.70449 0
M  V30 7836 H 729.763 -1.66942 2.6429 0
M  V30 7837 H 728.983 0.466518 3.9143 0
M  V30 7838 H 730.271 0.135444 5.0862 0
M  V30 7839 H 729.669 -3.03065 4.7767 0
M  V30 7840 H 728.226 -3.16131 5.70004 0
M  V30 7841 N 731.66 -1.50943 0.453197 0
M  V30 7842 C 732.608 -2.29728 -0.364419 0
M  V30 7843 C 733.602 -1.36246 -1.00664 0
M  V30 7844 O 734.808 -1.53518 -0.939794 0
M  V30 7845 H 731.183 -0.739536 -0.136347 0
M  V30 7846 H 733.154 -2.96672 0.320696 0
M  V30 7847 C 731.903 -3.1629 -1.44415 0
M  V30 7848 H 731.226 -3.88119 -0.959343 0
M  V30 7849 H 732.666 -3.74444 -1.98917 0
M  V30 7850 C 731.125 -2.32702 -2.43622 0
M  V30 7851 O 731.655 -1.99763 -3.48508 0
M  V30 7852 N 729.861 -1.95621 -2.14897 0
M  V30 7853 H 729.408 -2.22607 -1.29629 0
M  V30 7854 H 729.366 -1.39993 -2.81513 0
M  V30 7855 N 733.138 -0.185124 -1.56509 0
M  V30 7856 C 734.071 0.77877 -2.145 0
M  V30 7857 C 735.049 1.21649 -1.07891 0
M  V30 7858 O 736.233 1.30579 -1.35946 0
M  V30 7859 C 733.36 2.05048 -2.69579 0
M  V30 7860 C 732.406 1.75569 -3.88687 0
M  V30 7861 S 733.239 0.912642 -5.27666 0
M  V30 7862 C 734.395 2.19471 -5.8616 0
M  V30 7863 H 734.628 0.285751 -2.95924 0
M  V30 7864 H 732.161 0.0297417 -1.54371 0
M  V30 7865 H 734.119 2.78085 -3.01958 0
M  V30 7866 H 732.78 2.51462 -1.88216 0
M  V30 7867 H 731.973 2.69962 -4.25601 0
M  V30 7868 H 731.575 1.10619 -3.57267 0
M  V30 7869 H 733.867 3.14815 -5.99915 0
M  V30 7870 H 734.81 1.87005 -6.8296 0
M  V30 7871 H 735.218 2.31862 -5.14685 0
M  V30 7872 N 734.616 1.57351 0.0885366 0
M  V30 7873 C 735.864 1.86051 0.789262 0
M  V30 7874 C 736.185 0.774763 1.78948 0
M  V30 7875 O 735.455 -0.198324 1.94894 0
M  V30 7876 H 734.035 0.686508 0.294475 0
M  V30 7877 H 736.697 1.94779 0.0686055 0
M  V30 7878 H 735.793 2.83007 1.31581 0
M  V30 7879 N 736.094 -0.359525 1.53444 0
M  V30 7880 C 737.505 -0.936009 1.61542 0
M  V30 7881 C 737.856 -1.90069 0.486633 0
M  V30 7882 O 736.981 -2.12929 -0.386047 0
M  V30 7883 C 737.576 -1.70441 2.92806 0
M  V30 7884 C 736.135 -2.23015 3.03218 0
M  V30 7885 C 735.282 -1.04438 2.56881 0
M  V30 7886 H 738.233 -0.138134 1.58098 0
M  V30 7887 H 738.254 -2.56609 2.80948 0
M  V30 7888 H 737.766 -1.00205 3.74941 0
M  V30 7889 H 735.867 -2.96475 2.25684 0
M  V30 7890 H 735.98 -2.50481 4.08407 0
M  V30 7891 H 734.344 -1.41314 2.11902 0
M  V30 7892 H 735.127 -0.356905 3.4144 0
M  V30 7893 N 737.572 -1.44907 -0.619662 0
M  V30 7894 C 738.988 -1.29046 -0.939107 0
M  V30 7895 C 739.188 -0.23462 -2.00129 0
M  V30 7896 O 738.244 0.37558 -2.49691 0
M  V30 7897 C 739.557 -2.66567 -1.39149 0
M  V30 7898 C 741.105 -2.74368 -1.50635 0
M  V30 7899 C 741.58 -4.12386 -1.99253 0
M  V30 7900 N 743.071 -4.1462 -2.06506 0
M  V30 7901 C 743.806 -5.18272 -2.4532 0
M  V30 7902 N 743.302 -6.32278 -2.83189 0
M  V30 7903 N 745.095 -5.05628 -2.45554 0
M  V30 7904 H 737.246 -2.12239 0.0826135 0
M  V30 7905 H 739.509 -0.947652 -0.0256829 0
M  V30 7906 H 739.215 -3.4496 -0.685254 0
M  V30 7907 H 739.089 -2.94224 -2.36034 0
M  V30 7908 H 741.476 -1.96287 -2.20353 0
M  V30 7909 H 741.557 -2.50439 -0.520963 0
M  V30 7910 H 741.201 -4.90947 -1.30127 0
M  V30 7911 H 741.131 -4.33699 -2.98684 0
M  V30 7912 H 743.622 -3.32343 -1.79878 0
M  V30 7913 H 743.935 -7.07172 -3.11652 0
M  V30 7914 H 742.28 -6.35699 -2.80913 0
M  V30 7915 H 745.471 -4.15613 -2.15367 0
M  V30 7916 H 745.644 -5.86529 -2.75478 0
M  V30 7917 N 739.05 0.861098 -1.31996 0
M  V30 7918 C 740.461 1.43065 -1.19955 0
M  V30 7919 C 740.812 1.95273 0.190489 0
M  V30 7920 O 739.937 1.87012 1.08882 0
M  V30 7921 C 740.532 2.60052 -2.1716 0
M  V30 7922 C 739.091 3.13026 -2.09026 0
M  V30 7923 C 738.238 1.85756 -2.05888 0
M  V30 7924 H 741.189 0.668834 -1.43918 0
M  V30 7925 H 741.21 3.37016 -1.76637 0
M  V30 7926 H 740.722 2.22024 -3.18319 0
M  V30 7927 H 738.823 3.55653 -1.11092 0
M  V30 7928 H 738.936 3.74707 -2.98549 0
M  V30 7929 H 737.3 2.05088 -1.51033 0
M  V30 7930 H 738.083 1.49954 -3.08818 0
M  V30 7931 N 740.528 1.15101 1.07655 0
M  V30 7932 C 741.776 0.922149 1.79836 0
M  V30 7933 C 742.097 -0.552346 1.87014 0
M  V30 7934 O 741.367 -1.40145 1.3688 0
M  V30 7935 H 739.947 0.338182 0.666064 0
M  V30 7936 H 742.609 1.45107 1.30115 0
M  V30 7937 H 741.705 1.32883 2.82398 0
M  V30 7938 N 742.006 -1.2595 0.947325 0
M  V30 7939 C 742.969 -2.24407 0.466285 0
M  V30 7940 C 743.969 -1.55054 -0.426005 0
M  V30 7941 O 745.159 -1.7275 -0.224319 0
M  V30 7942 C 742.291 -3.39326 -0.327201 0
M  V30 7943 H 743.484 -2.68477 1.33642 0
M  V30 7944 H 741.037 -1.38211 0.729887 0
M  V30 7945 H 741.772 -3.00667 -1.21532 0
M  V30 7946 H 741.557 -3.9085 0.312839 0
M  V30 7947 H 743.047 -4.12455 -0.653477 0
M  V30 7948 N 743.484 -0.715051 -1.40445 0
M  V30 7949 C 744.895 -0.326763 -1.83818 0
M  V30 7950 C 745.246 1.13851 -1.59789 0
M  V30 7951 O 744.371 1.87611 -1.07848 0
M  V30 7952 C 744.966 -0.586297 -3.33688 0
M  V30 7953 C 743.525 -0.251724 -3.75557 0
M  V30 7954 C 742.672 -0.858928 -2.63662 0
M  V30 7955 H 745.623 -0.914241 -1.2972 0
M  V30 7956 H 745.644 0.148636 -3.8021 0
M  V30 7957 H 745.156 -1.65281 -3.51146 0
M  V30 7958 H 743.257 0.809754 -3.63695 0
M  V30 7959 H 743.37 -0.720348 -4.73654 0
M  V30 7960 H 741.734 -0.287013 -2.53078 0
M  V30 7961 H 742.517 -1.9297 -2.83932 0
M  V30 7962 N 744.962 1.50701 -0.461195 0
M  V30 7963 C 746.187 2.07171 0.0974773 0
M  V30 7964 C 746.612 1.32391 1.3362 0
M  V30 7965 O 745.97 0.368676 1.77512 0
M  V30 7966 C 746.018 3.58651 0.374409 0
M  V30 7967 O 745.122 3.85816 1.4567 0
M  V30 7968 H 744.463 0.663944 -0.00862047 0
M  V30 7969 H 746.993 1.94021 -0.649394 0
M  V30 7970 H 747.003 4.03295 0.617843 0
M  V30 7971 H 745.678 4.12498 -0.530829 0
M  V30 7972 H 744.255 3.53018 1.20136 0
M  V30 7973 N 746.441 0.193421 1.56409 0
M  V30 7974 C 747.373 -0.759944 2.16235 0
M  V30 7975 C 748.386 -1.17797 1.12373 0
M  V30 7976 O 749.575 -1.11399 1.39472 0
M  V30 7977 C 746.675 -2.03735 2.70823 0
M  V30 7978 C 745.848 -1.77939 3.9957 0
M  V30 7979 C 744.907 -2.90111 4.39001 0
M  V30 7980 O 743.933 -2.59791 5.06456 0
M  V30 7981 N 745.135 -4.18426 4.02368 0
M  V30 7982 H 747.9 -0.248348 2.98669 0
M  V30 7983 H 745.461 0.0113966 1.61896 0
M  V30 7984 H 747.453 -2.77914 2.94187 0
M  V30 7985 H 746.023 -2.46022 1.92852 0
M  V30 7986 H 745.243 -0.875491 3.84355 0
M  V30 7987 H 746.531 -1.58099 4.83614 0
M  V30 7988 H 745.929 -4.45913 3.48106 0
M  V30 7989 H 744.486 -4.89237 4.30686 0
M  V30 7990 N 747.919 -1.57396 -0.0801906 0
M  V30 7991 C 749.167 -1.86467 -0.779384 0
M  V30 7992 C 749.488 -0.784243 -1.78535 0
M  V30 7993 O 748.758 0.187986 -1.94996 0
M  V30 7994 H 747.338 -0.68806 -0.29083 0
M  V30 7995 H 750 -1.94813 -0.0582749 0
M  V30 7996 H 749.096 -2.83701 -1.30078 0
M  V30 7997 N 749.397 0.351382 -1.53633 0
M  V30 7998 C 750.327 1.43688 -1.84055 0
M  V30 7999 C 751.308 1.55251 -0.695073 0
M  V30 8000 O 752.493 1.69587 -0.946257 0
M  V30 8001 C 749.623 2.80843 -2.04315 0
M  V30 8002 C 748.577 2.84094 -3.20117 0
M  V30 8003 C 747.903 4.2406 -3.25696 0
M  V30 8004 C 749.203 2.50334 -4.58399 0
M  V30 8005 H 750.897 1.18478 -2.74961 0
M  V30 8006 H 748.443 0.568509 -1.32303 0
M  V30 8007 H 750.396 3.56821 -2.2418 0
M  V30 8008 H 749.12 3.07471 -1.10132 0
M  V30 8009 H 747.779 2.10568 -3.00094 0
M  V30 8010 H 747.427 4.47785 -2.29123 0
M  V30 8011 H 747.127 4.27147 -4.03509 0
M  V30 8012 H 748.651 5.0189 -3.47762 0
M  V30 8013 H 750.065 3.16025 -4.78332 0
M  V30 8014 H 748.462 2.64717 -5.38558 0
M  V30 8015 H 749.532 1.45542 -4.62543 0
M  V30 8016 N 750.875 1.45233 0.611969 0
M  V30 8017 C 752.122 1.49021 1.37109 0
M  V30 8018 C 752.45 0.130227 1.94064 0
M  V30 8019 O 751.705 -0.870551 1.75271 0
M  V30 8020 C 752.004 2.51353 2.54079 0
M  V30 8021 C 751.67 3.96178 2.15299 0
M  V30 8022 C 750.332 4.35614 2.04436 0
M  V30 8023 C 752.684 4.87275 1.84966 0
M  V30 8024 C 750.012 5.64047 1.61456 0
M  V30 8025 C 752.364 6.16115 1.43474 0
M  V30 8026 C 751.028 6.54486 1.31167 0
M  V30 8027 H 750.298 0.545307 0.501719 0
M  V30 8028 H 752.945 1.78555 0.692122 0
M  V30 8029 H 751.25 2.15372 3.27295 0
M  V30 8030 H 752.947 2.51523 3.12309 0
M  V30 8031 H 749.537 3.6499 2.24678 0
M  V30 8032 H 753.721 4.57548 1.92258 0
M  V30 8033 H 748.977 5.92575 1.50547 0
M  V30 8034 H 753.151 6.86149 1.19048 0
M  V30 8035 H 750.778 7.53904 0.97637 0
M  V30 8036 N 752.353 -0.854086 1.3245 0
M  V30 8037 C 753.601 -1.60513 1.228 0
M  V30 8038 C 753.922 -1.93865 -0.210073 0
M  V30 8039 O 753.192 -1.59673 -1.13496 0
M  V30 8040 H 751.772 -0.595099 0.451516 0
M  V30 8041 H 754.434 -1.0216 1.6598 0
M  V30 8042 H 753.53 -2.54182 1.81102 0
M  V30 8043 N 753.831 -1.1567 -1.07043 0
M  V30 8044 C 754.763 -0.814095 -2.14255 0
M  V30 8045 C 755.776 0.175293 -1.61854 0
M  V30 8046 O 756.965 -0.0483984 -1.78434 0
M  V30 8047 C 754.065 -0.190082 -3.38367 0
M  V30 8048 C 753.238 -1.21768 -4.20109 0
M  V30 8049 C 752.297 -0.614863 -5.22595 0
M  V30 8050 O 751.323 -1.28167 -5.54583 0
M  V30 8051 N 752.525 0.601955 -5.77371 0
M  V30 8052 H 755.29 -1.73677 -2.44247 0
M  V30 8053 H 752.851 -1.05301 -1.22977 0
M  V30 8054 H 754.843 0.22604 -4.04068 0
M  V30 8055 H 753.413 0.635992 -3.06062 0
M  V30 8056 H 752.633 -1.81025 -3.50177 0
M  V30 8057 H 753.921 -1.9114 -4.71533 0
M  V30 8058 H 753.319 1.162 -5.53637 0
M  V30 8059 H 751.876 0.96039 -6.44686 0
M  V30 8060 N 755.309 1.25446 -0.953992 0
M  V30 8061 C 756.72 1.75047 -0.649255 0
M  V30 8062 C 757.071 1.77527 0.835385 0
M  V30 8063 O 756.196 1.39569 1.65377 0
M  V30 8064 C 756.791 3.17889 -1.17183 0
M  V30 8065 C 755.35 3.65052 -0.917267 0
M  V30 8066 C 754.497 2.44124 -1.31525 0
M  V30 8067 H 757.448 1.11342 -1.13087 0
M  V30 8068 H 757.469 3.76768 -0.531616 0
M  V30 8069 H 756.981 3.16052 -2.25239 0
M  V30 8070 H 755.082 3.72305 0.148354 0
M  V30 8071 H 755.195 4.53222 -1.55328 0
M  V30 8072 H 753.559 2.43906 -0.733624 0
M  V30 8073 H 754.342 2.44979 -2.405 0
M  V30 8074 N 756.787 0.722489 1.40064 0
M  V30 8075 C 758.012 0.273446 2.05589 0
M  V30 8076 C 758.437 -1.07875 1.54093 0
M  V30 8077 O 757.795 -1.68095 0.679252 0
M  V30 8078 C 757.843 0.271023 3.5958 0
M  V30 8079 O 756.947 -0.745499 4.05606 0
M  V30 8080 H 756.288 0.126856 0.65177 0
M  V30 8081 H 758.818 0.984906 1.79334 0
M  V30 8082 H 758.828 0.111084 4.07849 0
M  V30 8083 H 757.503 1.25776 3.96425 0
M  V30 8084 H 756.08 -0.552719 3.68781 0
M  V30 8085 N 758.265 -1.50454 0.469181 0
M  V30 8086 C 759.49 -2.0722 -0.0864892 0
M  V30 8087 C 759.915 -1.33098 -1.32916 0
M  V30 8088 O 759.273 -0.378084 -1.77314 0
M  V30 8089 C 759.321 -3.58845 -0.355384 0
M  V30 8090 O 758.425 -3.86583 -1.43622 0
M  V30 8091 H 757.766 -0.663889 0.0121414 0
M  V30 8092 H 760.296 -1.93674 0.659674 0
M  V30 8093 H 760.306 -4.03617 -0.596447 0
M  V30 8094 H 758.981 -4.12211 0.552698 0
M  V30 8095 H 757.558 -3.5365 -1.18262 0
M  V30 8096 N 759.743 -0.201713 -1.56304 0
M  V30 8097 C 761.159 0.154025 -1.58855 0
M  V30 8098 C 761.359 1.60516 -1.21807 0
M  V30 8099 O 760.415 2.34193 -0.94393 0
M  V30 8100 C 761.728 -0.154319 -3.00304 0
M  V30 8101 C 763.276 -0.0949578 -3.12856 0
M  V30 8102 C 763.751 -0.376703 -4.56448 0
M  V30 8103 N 765.242 -0.325558 -4.62054 0
M  V30 8104 C 765.977 -0.51732 -5.71062 0
M  V30 8105 N 765.473 -0.769789 -6.8851 0
M  V30 8106 N 767.266 -0.45112 -5.60287 0
M  V30 8107 H 759.417 -1.14858 -1.78666 0
M  V30 8108 H 761.68 -0.458934 -0.829508 0
M  V30 8109 H 761.386 -1.16074 -3.31994 0
M  V30 8110 H 761.26 0.540014 -3.73314 0
M  V30 8111 H 763.647 0.902075 -2.80974 0
M  V30 8112 H 763.728 -0.822468 -2.42217 0
M  V30 8113 H 763.372 -1.37108 -4.89044 0
M  V30 8114 H 763.302 0.371772 -5.25286 0
M  V30 8115 H 765.793 -0.137308 -3.7765 0
M  V30 8116 H 766.106 -0.904744 -7.67486 0
M  V30 8117 H 764.451 -0.806758 -6.90302 0
M  V30 8118 H 767.642 -0.254253 -4.67409 0
M  V30 8119 H 767.815 -0.603982 -6.45179 0
M  V30 8120 N 761.222 1.57436 0.0718424 0
M  V30 8121 C 762.152 2.06724 1.08571 0
M  V30 8122 C 763.133 0.960731 1.40371 0
M  V30 8123 O 764.318 1.23345 1.49999 0
M  V30 8124 C 761.448 2.51112 2.39916 0
M  V30 8125 C 760.402 3.65639 2.22469 0
M  V30 8126 C 759.728 3.96082 3.59198 0
M  V30 8127 C 761.028 4.95687 1.64596 0
M  V30 8128 H 762.722 2.91679 0.675569 0
M  V30 8129 H 760.268 1.40319 0.32352 0
M  V30 8130 H 762.221 2.84206 3.11135 0
M  V30 8131 H 760.945 1.63186 2.8291 0
M  V30 8132 H 759.604 3.32828 1.53691 0
M  V30 8133 H 759.252 3.05287 3.99761 0
M  V30 8134 H 758.952 4.73199 3.48362 0
M  V30 8135 H 760.476 4.31672 4.31847 0
M  V30 8136 H 761.89 5.27011 2.25681 0
M  V30 8137 H 760.287 5.77126 1.64457 0
M  V30 8138 H 761.357 4.8108 0.60744 0
M  V30 8139 N 762.7 -0.34323 1.53817 0
M  V30 8140 C 763.663 -1.40444 1.8113 0
M  V30 8141 C 764.663 -1.45604 0.682366 0
M  V30 8142 O 765.853 -1.45974 0.950649 0
M  V30 8143 C 762.985 -2.79369 1.95361 0
M  V30 8144 H 764.178 -1.17489 2.75928 0
M  V30 8145 H 761.731 -0.577636 1.45234 0
M  V30 8146 H 762.466 -3.07607 1.02707 0
M  V30 8147 H 762.251 -2.7702 2.77493 0
M  V30 8148 H 763.741 -3.56178 2.18008 0
M  V30 8149 N 764.178 -1.45556 -0.604258 0
M  V30 8150 C 765.589 -1.44171 -1.18624 0
M  V30 8151 C 765.94 -0.171081 -1.95453 0
M  V30 8152 O 765.065 0.727156 -2.03817 0
M  V30 8153 C 765.66 -2.61193 -2.15786 0
M  V30 8154 C 764.219 -2.62918 -2.69353 0
M  V30 8155 C 763.366 -2.36479 -1.4482 0
M  V30 8156 H 766.317 -1.53747 -0.393381 0
M  V30 8157 H 766.338 -2.35481 -2.98879 0
M  V30 8158 H 765.85 -3.53656 -1.59841 0
M  V30 8159 H 763.951 -1.7447 -3.29228 0
M  V30 8160 H 764.064 -3.6224 -3.13559 0
M  V30 8161 H 762.428 -1.86103 -1.73891 0
M  V30 8162 H 763.211 -3.31091 -0.907376 0
M  V30 8163 N 765.656 0.84705 -1.32902 0
M  V30 8164 C 766.619 1.9378 -1.224 0
M  V30 8165 C 767.619 1.60144 -0.145108 0
M  V30 8166 O 768.809 1.69638 -0.396058 0
M  V30 8167 C 765.941 3.29234 -0.884174 0
M  V30 8168 H 767.134 2.04518 -2.19345 0
M  V30 8169 H 764.687 1.03816 -1.16842 0
M  V30 8170 H 765.422 3.24193 0.0831277 0
M  V30 8171 H 765.207 3.55026 -1.6643 0
M  V30 8172 H 766.697 4.09162 -0.835226 0
M  V30 8173 N 767.134 1.16236 1.06428 0
M  V30 8174 C 768.359 0.967688 1.83441 0
M  V30 8175 C 768.784 -0.479167 1.81894 0
M  V30 8176 O 768.142 -1.34224 1.21875 0
M  V30 8177 C 768.19 1.49806 3.2801 0
M  V30 8178 O 767.294 0.703481 4.06356 0
M  V30 8179 H 766.635 0.344468 0.56766 0
M  V30 8180 H 769.165 1.54442 1.34197 0
M  V30 8181 H 769.175 1.51495 3.78831 0
M  V30 8182 H 767.85 2.55133 3.2845 0
M  V30 8183 H 766.427 0.756986 3.65136 0
M  V30 8184 N 768.612 -1.24939 0.960631 0
M  V30 8185 C 769.56 -2.27659 0.47686 0
M  V30 8186 C 770.554 -1.63148 -0.455961 0
M  V30 8187 O 771.76 -1.76911 -0.332029 0
M  V30 8188 H 768.135 -0.739651 0.135723 0
M  V30 8189 H 770.106 -2.65844 1.35534 0
M  V30 8190 C 768.855 -3.46976 -0.224191 0
M  V30 8191 H 768.178 -3.96854 0.484471 0
M  V30 8192 H 769.618 -4.20717 -0.526615 0
M  V30 8193 C 768.077 -3.04159 -1.44876 0
M  V30 8194 O 768.607 -3.10697 -2.54618 0
M  V30 8195 N 766.813 -2.59284 -1.31226 0
M  V30 8196 H 766.36 -2.54164 -0.419361 0
M  V30 8197 H 766.318 -2.31 -2.13275 0
M  V30 8198 N 770.09 -0.729906 -1.39679 0
M  V30 8199 C 771.023 -0.0354454 -2.28172 0
M  V30 8200 C 772.001 0.752968 -1.44115 0
M  V30 8201 O 773.185 0.736599 -1.73512 0
M  V30 8202 C 770.312 0.957047 -3.24897 0
M  V30 8203 C 769.358 0.257734 -4.25721 0
M  V30 8204 S 770.191 -1.02466 -5.25605 0
M  V30 8205 C 771.347 -0.0346322 -6.2589 0
M  V30 8206 H 771.58 -0.785922 -2.86724 0
M  V30 8207 H 769.113 -0.521497 -1.45326 0
M  V30 8208 H 771.071 1.52441 -3.81146 0
M  V30 8209 H 769.732 1.68033 -2.65375 0
M  V30 8210 H 768.925 1.00854 -4.93806 0
M  V30 8211 H 768.527 -0.237454 -3.73245 0
M  V30 8212 H 770.819 0.807464 -6.72671 0
M  V30 8213 H 771.762 -0.682491 -7.04803 0
M  V30 8214 H 772.17 0.335492 -5.63502 0
M  V30 8215 N 771.568 1.50203 -0.477153 0
M  V30 8216 C 772.796 2.0677 0.0732489 0
M  V30 8217 C 773.211 1.34033 1.32968 0
M  V30 8218 O 772.568 0.411412 1.77802 0
M  V30 8219 C 772.619 3.59751 0.35518 0
M  V30 8220 O 772.34 4.29747 -0.851425 0
M  V30 8221 C 773.841 4.3296 0.951877 0
M  V30 8222 H 771.061 0.670929 -0.00978923 0
M  V30 8223 H 773.605 1.93293 -0.667676 0
M  V30 8224 H 771.76 3.7301 1.04605 0
M  V30 8225 H 772.174 5.2106 -0.599708 0
M  V30 8226 H 773.648 5.40952 1.09888 0
M  V30 8227 H 774.125 3.93856 1.94356 0
M  V30 8228 H 774.731 4.24246 0.299208 0
M  V30 8229 N 773.046 0.209999 1.56195 0
M  V30 8230 C 774.271 -0.433064 2.02828 0
M  V30 8231 C 774.696 -1.5337 1.08901 0
M  V30 8232 O 774.054 -1.81144 0.0751132 0
M  V30 8233 C 774.102 -0.952635 3.47789 0
M  V30 8234 O 773.206 -2.0647 3.56993 0
M  V30 8235 H 772.547 -0.0994594 0.656509 0
M  V30 8236 H 775.077 0.32525 2.01998 0
M  V30 8237 H 775.087 -1.26542 3.8788 0
M  V30 8238 H 773.762 -0.147007 4.1564 0
M  V30 8239 H 772.339 -1.75942 3.28784 0
M  V30 8240 N 774.524 -1.57472 -0.0634922 0
M  V30 8241 C 775.456 -2.00999 -1.10145 0
M  V30 8242 C 776.469 -0.917219 -1.34503 0
M  V30 8243 O 777.658 -1.19501 -1.32596 0
M  V30 8244 C 774.758 -2.34089 -2.45063 0
M  V30 8245 C 773.931 -3.65317 -2.40546 0
M  V30 8246 C 772.99 -3.85982 -3.57637 0
M  V30 8247 O 772.016 -4.5747 -3.38689 0
M  V30 8248 N 773.218 -3.28971 -4.78287 0
M  V30 8249 H 775.983 -2.90656 -0.730714 0
M  V30 8250 H 773.544 -1.59926 -0.252017 0
M  V30 8251 H 775.536 -2.4508 -3.22053 0
M  V30 8252 H 774.106 -1.50279 -2.74107 0
M  V30 8253 H 773.326 -3.65003 -1.48885 0
M  V30 8254 H 774.614 -4.51468 -2.34636 0
M  V30 8255 H 774.012 -2.70962 -4.96584 0
M  V30 8256 H 772.569 -3.45398 -5.5276 0
M  V30 8257 N 776.003 0.335068 -1.53997 0
M  V30 8258 C 777.419 0.678704 -1.4445 0
M  V30 8259 C 777.619 1.92106 -0.608078 0
M  V30 8260 O 776.675 2.52292 -0.102373 0
M  V30 8261 C 777.988 0.863435 -2.88037 0
M  V30 8262 C 779.536 0.961513 -2.97866 0
M  V30 8263 C 780.011 1.1785 -4.42578 0
M  V30 8264 N 781.502 1.2455 -4.46141 0
M  V30 8265 C 782.237 1.43106 -5.55255 0
M  V30 8266 N 781.733 1.5878 -6.74359 0
M  V30 8267 N 783.526 1.45722 -5.42883 0
M  V30 8268 H 775.677 -0.481656 -2.06867 0
M  V30 8269 H 777.94 -0.153615 -0.935471 0
M  V30 8270 H 777.646 0.0219511 -3.51693 0
M  V30 8271 H 777.52 1.76268 -3.33481 0
M  V30 8272 H 779.907 1.79351 -2.34344 0
M  V30 8273 H 779.988 0.0389862 -2.5577 0
M  V30 8274 H 779.632 0.351397 -5.06683 0
M  V30 8275 H 779.562 2.11472 -4.82273 0
M  V30 8276 H 782.053 1.13928 -3.60318 0
M  V30 8277 H 782.366 1.72599 -7.53279 0
M  V30 8278 H 780.711 1.559 -6.77289 0
M  V30 8279 H 783.902 1.33065 -4.48789 0
M  V30 8280 H 784.075 1.59841 -6.27977 0
M  V30 8281 N 777.481 1.45874 0.596531 0
M  V30 8282 C 778.892 1.44798 1.17857 0
M  V30 8283 C 779.243 0.181443 1.95359 0
M  V30 8284 O 778.368 -0.716336 2.042 0
M  V30 8285 C 778.963 2.62333 2.14398 0
M  V30 8286 C 777.522 2.64342 2.67955 0
M  V30 8287 C 776.669 2.37244 1.43564 0
M  V30 8288 H 779.62 1.53954 0.385222 0
M  V30 8289 H 779.641 2.37063 2.97626 0
M  V30 8290 H 779.153 3.54499 1.57963 0
M  V30 8291 H 777.254 1.76213 3.28298 0
M  V30 8292 H 777.367 3.63897 3.11634 0
M  V30 8293 H 775.731 1.87022 1.72901 0
M  V30 8294 H 776.514 3.31568 0.889805 0
M  V30 8295 N 778.959 -0.83999 1.33349 0
M  V30 8296 C 780.205 -1.59753 1.24927 0
M  V30 8297 C 780.538 -1.93318 -0.184855 0
M  V30 8298 O 779.813 -1.586 -1.12589 0
M  V30 8299 C 780.096 -2.90829 2.12345 0
M  V30 8300 C 779.949 -2.63953 3.6421 0
M  V30 8301 C 781.268 -3.92246 1.99577 0
M  V30 8302 H 778.387 -0.579654 0.45516 0
M  V30 8303 H 781.029 -0.968909 1.63439 0
M  V30 8304 H 779.179 -3.44478 1.79631 0
M  V30 8305 H 780.851 -2.16745 4.07209 0
M  V30 8306 H 779.094 -1.97671 3.86146 0
M  V30 8307 H 779.765 -3.57348 4.20721 0
M  V30 8308 H 782.241 -3.479 2.28265 0
M  V30 8309 H 781.117 -4.81793 2.62996 0
M  V30 8310 H 781.378 -4.3138 0.967673 0
M  V30 8311 N 780.437 -1.16799 -1.0581 0
M  V30 8312 C 781.662 -0.977402 -1.82925 0
M  V30 8313 C 782.087 0.469514 -1.82146 0
M  V30 8314 O 781.445 1.33576 -1.22585 0
M  V30 8315 C 781.493 -1.51543 -3.27211 0
M  V30 8316 O 780.597 -0.725021 -4.05977 0
M  V30 8317 H 779.938 -0.347474 -0.565825 0
M  V30 8318 H 782.468 -1.55151 -1.33376 0
M  V30 8319 H 782.478 -1.53502 -3.78023 0
M  V30 8320 H 781.153 -2.56872 -3.27093 0
M  V30 8321 H 779.73 -0.77634 -3.64729 0
M  V30 8322 N 781.915 1.24427 -0.967243 0
M  V30 8323 C 783.14 1.9708 -0.646069 0
M  V30 8324 C 783.565 1.71272 0.777665 0
M  V30 8325 O 782.923 0.976179 1.52776 0
M  V30 8326 C 782.971 3.48501 -0.926266 0
M  V30 8327 O 782.075 4.12398 -0.0114653 0
M  V30 8328 H 781.416 0.617423 -0.244304 0
M  V30 8329 H 783.946 1.58215 -1.29727 0
M  V30 8330 H 783.956 3.98885 -0.857619 0
M  V30 8331 H 782.631 3.66613 -1.96386 0
M  V30 8332 H 781.208 3.72661 -0.133396 0
M  V30 8333 N 783.393 0.737304 1.3929 0
M  V30 8334 C 784.621 0.296573 2.04763 0
M  V30 8335 C 785.036 -1.06941 1.55592 0
M  V30 8336 O 784.393 -1.67619 0.721822 0
M  V30 8337 C 784.444 0.291906 3.6032 0
M  V30 8338 O 784.165 1.60397 4.07682 0
M  V30 8339 C 785.666 -0.164708 4.42994 0
M  V30 8340 H 782.886 0.129251 0.658434 0
M  V30 8341 H 785.43 1.0016 1.78293 0
M  V30 8342 H 783.585 -0.364251 3.85684 0
M  V30 8343 H 783.999 1.51909 5.0202 0
M  V30 8344 H 785.473 -0.116814 5.51876 0
M  V30 8345 H 785.95 -1.21022 4.22197 0
M  V30 8346 H 786.556 0.461968 4.22784 0
M  V30 8347 N 784.871 -1.49948 0.485112 0
M  V30 8348 C 786.119 -2.01996 -0.0648775 0
M  V30 8349 C 786.44 -1.36819 -1.38945 0
M  V30 8350 O 785.71 -0.518163 -1.88923 0
M  V30 8351 H 784.29 -0.746513 -0.0269662 0
M  V30 8352 H 786.952 -1.84136 0.638733 0
M  V30 8353 H 786.048 -3.11418 -0.20617 0
M  V30 8354 N 786.349 -0.21828 -1.56081 0
M  V30 8355 C 787.598 0.414644 -1.97392 0
M  V30 8356 C 787.911 1.61132 -1.10887 0
M  V30 8357 O 789.117 2.31355 -1.42082 0
M  V30 8358 C 787.573 0.789099 -3.51143 0
M  V30 8359 C 787.181 -0.384578 -4.46346 0
M  V30 8360 C 788.925 1.38781 -4.01173 0
M  V30 8361 C 786.832 0.0121288 -5.91399 0
M  V30 8362 H 785.762 0.158691 -0.737111 0
M  V30 8363 H 788.413 -0.313974 -1.80794 0
M  V30 8364 H 786.795 1.57505 -3.6333 0
M  V30 8365 H 787.969 -1.16212 -4.45905 0
M  V30 8366 H 786.284 -0.896306 -4.06639 0
M  V30 8367 H 788.881 1.69746 -5.07041 0
M  V30 8368 H 789.224 2.30245 -3.46833 0
M  V30 8369 H 789.757 0.665364 -3.92196 0
M  V30 8370 H 786.496 -0.868917 -6.49715 0
M  V30 8371 H 786.016 0.754053 -5.95041 0
M  V30 8372 H 787.695 0.439949 -6.45502 0
M  V30 8373 N 787.827 1.57504 0.0551401 0
M  V30 8374 C 788.775 2.05884 1.08233 0
M  V30 8375 C 789.769 0.967383 1.39061 0
M  V30 8376 O 790.975 1.15242 1.38273 0
M  V30 8377 H 787.35 0.656673 0.366449 0
M  V30 8378 H 789.321 2.91273 0.648269 0
M  V30 8379 C 788.07 2.53221 2.38273 0
M  V30 8380 H 787.393 3.36809 2.15406 0
M  V30 8381 H 788.833 2.9081 3.08554 0
M  V30 8382 C 787.292 1.42218 3.05411 0
M  V30 8383 O 787.822 0.773638 3.9418 0
M  V30 8384 N 786.028 1.16316 2.66306 0
M  V30 8385 H 785.575 1.69237 1.94207 0
M  V30 8386 H 785.533 0.422534 3.11548 0
M  V30 8387 N 789.305 -0.326896 1.54172 0
M  V30 8388 C 790.552 -1.06523 1.72218 0
M  V30 8389 C 790.88 -1.88119 0.494114 0
M  V30 8390 O 790.135 -1.8855 -0.524147 0
M  V30 8391 C 790.434 -2.0208 2.94785 0
M  V30 8392 C 790.1 -1.36665 4.2969 0
M  V30 8393 C 788.762 -1.18556 4.66367 0
M  V30 8394 C 791.114 -0.896868 5.13425 0
M  V30 8395 C 788.442 -0.521113 5.84381 0
M  V30 8396 C 790.794 -0.246261 6.3212 0
M  V30 8397 C 789.458 -0.052987 6.67479 0
M  V30 8398 H 788.728 -0.389796 0.63019 0
M  V30 8399 H 791.375 -0.342725 1.88408 0
M  V30 8400 H 789.68 -2.8077 2.73268 0
M  V30 8401 H 791.377 -2.59231 3.05941 0
M  V30 8402 H 787.967 -1.51762 4.00832 0
M  V30 8403 H 792.151 -1.02458 4.85609 0
M  V30 8404 H 787.407 -0.36014 6.10338 0
M  V30 8405 H 791.581 0.125775 6.96286 0
M  V30 8406 H 789.208 0.463903 7.58783 0
M  V30 8407 N 790.784 -1.46188 -0.588786 0
M  V30 8408 C 792.061 -1.41659 -1.34878 0
M  V30 8409 C 792.441 -0.0968913 -2.10878 0
M  V30 8410 O 791.789 0.921468 -2.09096 0
M  V30 8411 C 791.999 -2.6424 -2.27988 0
M  V30 8412 C 793.347 -3.1013 -2.90008 0
M  V30 8413 O 794.371 -2.64745 -2.38303 0
M  V30 8414 O 793.23 -3.88944 -3.83908 0
M  V30 8415 H 790.324 -0.563058 -0.605718 0
M  V30 8416 H 792.87 -1.58346 -0.610309 0
M  V30 8417 H 791.642 -3.51853 -1.71217 0
M  V30 8418 H 791.265 -2.49982 -3.09184 0
M  V30 8419 N 792.262 0.832906 -1.33792 0
M  V30 8420 C 793.21 1.96455 -1.24532 0
M  V30 8421 C 794.204 1.68774 -0.145455 0
M  V30 8422 O 795.41 1.77314 -0.309797 0
M  V30 8423 H 791.785 0.645008 -0.386611 0
M  V30 8424 H 793.756 2.01389 -2.20193 0
M  V30 8425 C 792.505 3.32784 -1.00748 0
M  V30 8426 H 791.828 3.54626 -1.84609 0
M  V30 8427 H 793.268 4.12447 -0.98301 0
M  V30 8428 C 791.727 3.35654 0.289475 0
M  V30 8429 O 792.257 3.80281 1.29419 0
M  V30 8430 N 790.463 2.88843 0.3191 0
M  V30 8431 H 790.01 2.52719 -0.499069 0
M  V30 8432 H 789.968 2.91145 1.18667 0
M  V30 8433 N 793.74 1.17359 1.05189 0
M  V30 8434 C 795.151 0.96793 1.5965 0
M  V30 8435 C 795.502 -0.485355 1.90102 0
M  V30 8436 O 794.627 -1.36066 1.6827 0
M  V30 8437 C 795.222 1.75068 2.90063 0
M  V30 8438 C 793.781 1.58969 3.41183 0
M  V30 8439 C 792.928 1.75231 2.14917 0
M  V30 8440 H 795.879 1.32067 0.880001 0
M  V30 8441 H 795.9 1.23308 3.59966 0
M  V30 8442 H 795.412 2.80835 2.67868 0
M  V30 8443 H 793.513 0.556906 3.68415 0
M  V30 8444 H 793.626 2.38067 4.15766 0
M  V30 8445 H 791.99 1.18073 2.25679 0
M  V30 8446 H 792.773 2.8241 1.95191 0
M  V30 8447 N 795.218 -1.23913 0.973828 0
M  V30 8448 C 796.443 -1.96735 0.656511 0
M  V30 8449 C 796.868 -1.71682 -0.768571 0
M  V30 8450 O 796.226 -0.984267 -1.52256 0
M  V30 8451 C 796.274 -3.48004 0.944735 0
M  V30 8452 O 795.378 -4.12387 0.0333357 0
M  V30 8453 H 794.719 -0.616119 0.247575 0
M  V30 8454 H 797.249 -1.57525 1.30564 0
M  V30 8455 H 797.259 -3.98424 0.87876 0
M  V30 8456 H 795.934 -3.65567 1.98328 0
M  V30 8457 H 794.511 -3.72585 0.153157 0
M  V30 8458 N 796.696 -0.74468 -1.38897 0
M  V30 8459 C 797.942 -0.297324 -2.00609 0
M  V30 8460 C 798.275 1.11547 -1.58968 0
M  V30 8461 O 797.55 1.76227 -0.823057 0
M  V30 8462 C 797.833 -0.410125 -3.57757 0
M  V30 8463 C 797.686 -1.86338 -4.09387 0
M  V30 8464 C 799.005 0.20176 -4.39637 0
M  V30 8465 H 796.124 -0.109509 -0.728819 0
M  V30 8466 H 798.766 -0.942653 -1.64967 0
M  V30 8467 H 796.916 0.139287 -3.8825 0
M  V30 8468 H 798.588 -2.47042 -3.89574 0
M  V30 8469 H 796.831 -2.38146 -3.62586 0
M  V30 8470 H 797.502 -1.89352 -5.18507 0
M  V30 8471 H 799.978 -0.266703 -4.15244 0
M  V30 8472 H 798.854 0.0925415 -5.48822 0
M  V30 8473 H 799.115 1.289 -4.22891 0
M  V30 8474 N 798.174 1.49689 -0.493057 0
M  V30 8475 C 799.106 2.26867 0.326195 0
M  V30 8476 C 800.119 1.33083 0.937697 0
M  V30 8477 O 801.308 1.58427 0.822382 0
M  V30 8478 C 798.408 3.0519 1.4735 0
M  V30 8479 C 797.581 4.26491 0.970767 0
M  V30 8480 C 796.64 4.86926 1.99473 0
M  V30 8481 O 795.666 5.47221 1.56647 0
M  V30 8482 N 796.868 4.75871 3.32456 0
M  V30 8483 H 799.633 2.97816 -0.335547 0
M  V30 8484 H 797.194 1.58602 -0.325129 0
M  V30 8485 H 799.186 3.42496 2.15589 0
M  V30 8486 H 797.756 2.369 2.03954 0
M  V30 8487 H 796.976 3.94036 0.113529 0
M  V30 8488 H 798.264 5.05092 0.613156 0
M  V30 8489 H 797.662 4.2797 3.69944 0
M  V30 8490 H 796.219 5.17383 3.96431 0
M  V30 8491 N 799.652 0.226554 1.55963 0
M  V30 8492 C 800.599 -0.681504 2.20509 0
M  V30 8493 C 801.569 -1.1866 1.16229 0
M  V30 8494 O 802.754 -1.24478 1.44602 0
M  V30 8495 C 799.894 -1.88183 2.89277 0
M  V30 8496 C 799.007 -1.41517 4.08163 0
M  V30 8497 C 798.142 -2.57346 4.647 0
M  V30 8498 C 797.181 -2.07441 5.75877 0
M  V30 8499 N 796.318 -3.16561 6.26685 0
M  V30 8500 H 801.158 -0.124372 2.9774 0
M  V30 8501 H 798.695 -0.0496333 1.47016 0
M  V30 8502 H 800.653 -2.58666 3.27335 0
M  V30 8503 H 799.283 -2.41177 2.14555 0
M  V30 8504 H 798.335 -0.605099 3.75557 0
M  V30 8505 H 799.647 -1.00928 4.88482 0
M  V30 8506 H 798.801 -3.35903 5.05227 0
M  V30 8507 H 797.54 -3.01227 3.83554 0
M  V30 8508 H 796.545 -1.27347 5.34848 0
M  V30 8509 H 797.77 -1.64554 6.58862 0
M  V30 8510 H 795.716 -3.59914 5.48451 0
M  V30 8511 H 795.633 -2.80239 7.02141 0
M  V30 8512 H 796.901 -3.95238 6.71868 0
M  V30 8513 N 801.13 -1.57531 -0.0467866 0
M  V30 8514 C 802.093 -2.04379 -1.03738 0
M  V30 8515 C 803.093 -0.944881 -1.3011 0
M  V30 8516 O 804.283 -1.20904 -1.25411 0
M  V30 8517 C 801.415 -2.44572 -2.37482 0
M  V30 8518 H 802.608 -2.93142 -0.633063 0
M  V30 8519 H 800.161 -1.53526 -0.293177 0
M  V30 8520 H 800.896 -1.58911 -2.82697 0
M  V30 8521 H 800.681 -3.24785 -2.19675 0
M  V30 8522 H 802.171 -2.81307 -3.08636 0
M  V30 8523 N 802.608 0.318715 -1.54344 0
M  V30 8524 C 803.538 1.39751 -1.87061 0
M  V30 8525 C 804.519 1.53741 -0.727848 0
M  V30 8526 O 805.704 1.67541 -0.982016 0
M  V30 8527 C 802.834 2.76446 -2.10226 0
M  V30 8528 C 801.788 2.77239 -3.26071 0
M  V30 8529 C 801.114 4.17056 -3.34617 0
M  V30 8530 C 802.414 2.40555 -4.63606 0
M  V30 8531 H 804.108 1.12619 -2.77412 0
M  V30 8532 H 801.654 0.540318 -1.33479 0
M  V30 8533 H 803.607 3.51985 -2.31699 0
M  V30 8534 H 802.331 3.05066 -1.16629 0
M  V30 8535 H 800.99 2.04155 -3.04493 0
M  V30 8536 H 800.638 4.42824 -2.3857 0
M  V30 8537 H 800.338 4.18492 -4.12478 0
M  V30 8538 H 801.862 4.94401 -3.5833 0
M  V30 8539 H 803.276 3.05808 -4.84927 0
M  V30 8540 H 801.673 2.53234 -5.44052 0
M  V30 8541 H 802.743 1.35698 -4.65526 0
M  V30 8542 N 804.086 1.46499 0.581025 0
M  V30 8543 C 805.363 1.42372 1.34125 0
M  V30 8544 C 805.743 0.108073 2.10823 0
M  V30 8545 O 805.091 -0.910366 2.09582 0
M  V30 8546 C 805.301 2.65445 2.26583 0
M  V30 8547 C 806.649 3.11664 2.88359 0
M  V30 8548 O 807.673 2.66006 2.36896 0
M  V30 8549 O 806.532 3.90974 3.81839 0
M  V30 8550 H 803.626 0.566262 0.602724 0
M  V30 8551 H 806.172 1.58667 0.601903 0
M  V30 8552 H 804.944 3.52756 1.69348 0
M  V30 8553 H 804.567 2.51618 3.07854 0
M  V30 8554 N 805.565 -0.825799 1.34232 0
M  V30 8555 C 806.793 -1.61363 1.29497 0
M  V30 8556 C 807.208 -1.88341 -0.131536 0
M  V30 8557 O 806.565 -1.47279 -1.07773 0
M  V30 8558 C 806.616 -2.95623 2.08061 0
M  V30 8559 O 806.337 -2.69824 3.45147 0
M  V30 8560 C 807.838 -3.90032 2.10688 0
M  V30 8561 H 805.058 -0.501676 0.445603 0
M  V30 8562 H 807.602 -1.02767 1.76803 0
M  V30 8563 H 805.757 -3.50785 1.64404 0
M  V30 8564 H 806.171 -3.55412 3.85723 0
M  V30 8565 H 807.645 -4.81411 2.70087 0
M  V30 8566 H 808.122 -4.25188 1.10052 0
M  V30 8567 H 808.728 -3.40807 2.54422 0
M  V30 8568 N 807.043 -1.17915 -1.04565 0
M  V30 8569 C 807.973 -0.925033 -2.14395 0
M  V30 8570 C 808.954 0.135375 -1.6956 0
M  V30 8571 O 810.139 -0.0161774 -1.94193 0
M  V30 8572 C 807.269 -0.444469 -3.44444 0
M  V30 8573 C 806.223 -1.44478 -4.02877 0
M  V30 8574 C 805.549 -0.821933 -5.28345 0
M  V30 8575 C 806.849 -2.81995 -4.39632 0
M  V30 8576 H 808.543 -1.84354 -2.35911 0
M  V30 8577 H 806.089 -0.887806 -1.13375 0
M  V30 8578 H 808.042 -0.254078 -4.20633 0
M  V30 8579 H 806.766 0.509592 -3.226 0
M  V30 8580 H 805.425 -1.62203 -3.28764 0
M  V30 8581 H 805.073 0.139161 -5.02807 0
M  V30 8582 H 804.773 -1.48976 -5.68401 0
M  V30 8583 H 806.297 -0.641959 -6.07216 0
M  V30 8584 H 807.711 -2.67952 -5.06828 0
M  V30 8585 H 806.108 -3.45414 -4.90723 0
M  V30 8586 H 807.178 -3.35927 -3.49687 0
M  V30 8587 N 808.521 1.23394 -0.980386 0
M  V30 8588 C 809.77 1.91116 -0.644785 0
M  V30 8589 C 810.083 1.77333 0.825367 0
M  V30 8590 O 811.289 2.39858 1.27203 0
M  V30 8591 C 809.745 3.42592 -1.10266 0
M  V30 8592 C 809.353 3.65037 -2.59715 0
M  V30 8593 C 811.097 4.1609 -0.8408 0
M  V30 8594 C 809.004 5.10148 -2.9917 0
M  V30 8595 H 807.934 0.715632 -0.23746 0
M  V30 8596 H 810.585 1.39829 -1.18828 0
M  V30 8597 H 808.967 3.92989 -0.487372 0
M  V30 8598 H 810.141 3.25186 -3.26482 0
M  V30 8599 H 808.456 3.04849 -2.83647 0
M  V30 8600 H 811.053 5.23021 -1.11143 0
M  V30 8601 H 811.396 4.15702 0.223085 0
M  V30 8602 H 811.929 3.71681 -1.41767 0
M  V30 8603 H 808.668 5.15668 -4.04682 0
M  V30 8604 H 808.188 5.50949 -2.37097 0
M  V30 8605 H 809.867 5.7848 -2.89775 0
M  V30 8606 N 809.999 0.752036 1.385 0
M  V30 8607 C 810.931 0.0835089 2.29048 0
M  V30 8608 C 811.944 -0.685402 1.47669 0
M  V30 8609 O 813.133 -0.526748 1.70551 0
M  V30 8610 C 810.233 -0.905772 3.26572 0
M  V30 8611 C 809.406 -0.194828 4.36966 0
M  V30 8612 C 808.465 -1.09464 5.14688 0
M  V30 8613 O 807.491 -0.565743 5.66381 0
M  V30 8614 N 808.693 -2.42287 5.2752 0
M  V30 8615 H 811.458 0.861142 2.87062 0
M  V30 8616 H 809.019 0.602689 1.50264 0
M  V30 8617 H 811.011 -1.51072 3.75446 0
M  V30 8618 H 809.581 -1.58449 2.69467 0
M  V30 8619 H 808.801 0.590812 3.89747 0
M  V30 8620 H 810.089 0.297189 5.07931 0
M  V30 8621 H 809.487 -2.87715 4.8707 0
M  V30 8622 H 808.044 -2.97836 5.79773 0
M  V30 8623 N 811.477 -1.49425 0.500989 0
M  V30 8624 C 812.702 -2.07356 -0.0425154 0
M  V30 8625 C 813.127 -1.35887 -1.30063 0
M  V30 8626 O 812.485 -0.41561 -1.76472 0
M  V30 8627 C 812.533 -3.59518 -0.279188 0
M  V30 8628 O 811.637 -3.89542 -1.3539 0
M  V30 8629 H 810.978 -0.663482 0.0262207 0
M  V30 8630 H 813.508 -1.92231 0.700607 0
M  V30 8631 H 813.518 -4.04791 -0.5107 0
M  V30 8632 H 812.193 -4.10946 0.640009 0
M  V30 8633 H 810.77 -3.56079 -1.10734 0
M  V30 8634 N 812.955 -0.234822 -1.55841 0
M  V30 8635 C 814.203 0.392483 -1.98252 0
M  V30 8636 C 814.524 1.59344 -1.12404 0
M  V30 8637 O 813.794 1.94834 -0.204055 0
M  V30 8638 H 812.374 0.147999 -0.732192 0
M  V30 8639 H 815.036 -0.330804 -1.92072 0
M  V30 8640 H 814.132 0.709829 -3.03921 0
M  V30 8641 N 814.433 1.57553 0.0384317 0
M  V30 8642 C 815.844 1.77258 0.586211 0
M  V30 8643 C 816.195 0.864706 1.76117 0
M  V30 8644 O 815.32 0.057141 2.16325 0
M  V30 8645 C 815.915 3.21453 1.07021 0
M  V30 8646 C 814.474 3.42387 1.56358 0
M  V30 8647 C 813.621 2.72801 0.497508 0
M  V30 8648 H 816.572 1.57585 -0.187796 0
M  V30 8649 H 816.593 3.27451 1.93794 0
M  V30 8650 H 816.105 3.87505 0.214851 0
M  V30 8651 H 814.206 2.81497 2.44111 0
M  V30 8652 H 814.319 4.50968 1.61754 0
M  V30 8653 H 812.683 2.36305 0.95038 0
M  V30 8654 H 813.466 3.41529 -0.348234 0
M  V30 8655 N 815.911 -0.310526 1.54511 0
M  V30 8656 C 816.874 -1.3657 1.84068 0
M  V30 8657 C 817.874 -1.44123 0.713097 0
M  V30 8658 O 819.064 -1.43924 0.981399 0
M  V30 8659 C 816.196 -2.75162 2.01243 0
M  V30 8660 H 817.389 -1.1161 2.78358 0
M  V30 8661 H 814.942 -0.546699 1.46427 0
M  V30 8662 H 815.677 -3.05359 1.09208 0
M  V30 8663 H 815.462 -2.71071 2.83307 0
M  V30 8664 H 816.952 -3.51473 2.25514 0
M  V30 8665 N 817.389 -1.46805 -0.573248 0
M  V30 8666 C 818.319 -1.60951 -1.69165 0
M  V30 8667 C 819.3 -0.45948 -1.63777 0
M  V30 8668 O 820.485 -0.68688 -1.81647 0
M  V30 8669 C 817.615 -1.60844 -3.07809 0
M  V30 8670 C 816.569 -2.74913 -3.28035 0
M  V30 8671 C 815.895 -2.59871 -4.67302 0
M  V30 8672 C 817.195 -4.16654 -3.14955 0
M  V30 8673 H 818.889 -2.54574 -1.57582 0
M  V30 8674 H 816.435 -1.22516 -0.756686 0
M  V30 8675 H 818.388 -1.69334 -3.85881 0
M  V30 8676 H 817.112 -0.637714 -3.20314 0
M  V30 8677 H 815.771 -2.65908 -2.52366 0
M  V30 8678 H 815.419 -1.60861 -4.76585 0
M  V30 8679 H 815.119 -3.36386 -4.81786 0
M  V30 8680 H 816.643 -2.70265 -5.4753 0
M  V30 8681 H 818.057 -4.26721 -3.82861 0
M  V30 8682 H 816.454 -4.93831 -3.40956 0
M  V30 8683 H 817.524 -4.36146 -2.11908 0
M  V30 8684 N 818.867 0.818669 -1.34668 0
M  V30 8685 C 820.092 1.61193 -1.30505 0
M  V30 8686 C 820.517 1.87734 0.117341 0
M  V30 8687 O 819.875 1.45591 1.08042 0
M  V30 8688 C 819.923 2.92733 -2.1057 0
M  V30 8689 O 819.027 3.85 -1.47813 0
M  V30 8690 H 818.368 0.490085 -0.44801 0
M  V30 8691 H 820.898 1.01701 -1.77534 0
M  V30 8692 H 820.908 3.42262 -2.22082 0
M  V30 8693 H 819.583 2.7274 -3.13984 0
M  V30 8694 H 818.16 3.43525 -1.45069 0
M  V30 8695 N 820.346 1.18468 1.03938 0
M  V30 8696 C 821.296 0.880799 2.103 0
M  V30 8697 C 822.28 -0.150008 1.60199 0
M  V30 8698 O 823.472 0.054213 1.76917 0
M  V30 8699 C 820.601 0.409723 3.40846 0
M  V30 8700 C 819.687 1.47267 3.9771 0
M  V30 8701 N 820.078 2.68945 4.28371 0
M  V30 8702 C 818.376 1.33349 4.25598 0
M  V30 8703 C 819.077 3.37341 4.73894 0
M  V30 8704 N 818.053 2.64725 4.74786 0
M  V30 8705 H 821.855 1.80574 2.31884 0
M  V30 8706 H 819.369 1.07527 1.21703 0
M  V30 8707 H 821.366 0.17352 4.16539 0
M  V30 8708 H 820.026 -0.508862 3.20688 0
M  V30 8709 H 821.037 3.05801 4.17978 0
M  V30 8710 H 817.714 0.477548 4.1476 0
M  V30 8711 H 819.104 4.41338 5.06627 0
M  V30 8712 N 821.824 -1.22873 0.986916 0
M  V30 8713 C 822.754 -2.2688 0.552064 0
M  V30 8714 C 823.735 -1.64883 -0.418048 0
M  V30 8715 O 824.92 -1.9171 -0.30999 0
M  V30 8716 C 822.05 -3.47018 -0.139959 0
M  V30 8717 C 821.004 -4.21411 0.748091 0
M  V30 8718 C 820.33 -5.34645 -0.0765132 0
M  V30 8719 C 821.63 -4.80726 2.04206 0
M  V30 8720 H 823.324 -2.63507 1.42143 0
M  V30 8721 H 820.87 -1.26668 0.68492 0
M  V30 8722 H 822.823 -4.18931 -0.455527 0
M  V30 8723 H 821.547 -3.0947 -1.04382 0
M  V30 8724 H 820.206 -3.51325 1.04721 0
M  V30 8725 H 819.854 -4.93339 -0.981109 0
M  V30 8726 H 819.554 -5.85342 0.514606 0
M  V30 8727 H 821.078 -6.09377 -0.386313 0
M  V30 8728 H 822.492 -5.44612 1.79083 0
M  V30 8729 H 820.889 -5.41737 2.5815 0
M  V30 8730 H 821.959 -4.01109 2.72469 0
M  V30 8731 N 823.302 -0.75937 -1.38099 0
M  V30 8732 C 824.548 -0.318584 -2.00282 0
M  V30 8733 C 824.881 1.09854 -1.60143 0
M  V30 8734 O 824.156 1.75344 -0.841702 0
M  V30 8735 C 824.439 -0.448047 -3.57302 0
M  V30 8736 C 824.292 -1.9067 -4.07388 0
M  V30 8737 C 825.611 0.155119 -4.39827 0
M  V30 8738 H 822.73 -0.117233 -0.727616 0
M  V30 8739 H 825.372 -0.960097 -1.63958 0
M  V30 8740 H 823.522 0.0981003 -3.88376 0
M  V30 8741 H 825.194 -2.5116 -3.86932 0
M  V30 8742 H 823.437 -2.41979 -3.6004 0
M  V30 8743 H 824.108 -1.94841 -5.1647 0
M  V30 8744 H 826.584 -0.31073 -4.14938 0
M  V30 8745 H 825.46 0.0343264 -5.48889 0
M  V30 8746 H 825.721 1.24407 -4.24235 0
M  V30 8747 N 824.78 1.49157 -0.508906 0
M  V30 8748 C 826.005 2.07376 0.0315182 0
M  V30 8749 C 826.43 1.36575 1.2934 0
M  V30 8750 O 825.788 0.424963 1.76249 0
M  V30 8751 C 825.836 3.59661 0.260118 0
M  V30 8752 O 824.94 3.90255 1.33322 0
M  V30 8753 H 824.281 0.663334 -0.029739 0
M  V30 8754 H 826.811 1.91857 -0.710791 0
M  V30 8755 H 826.821 4.05056 0.489225 0
M  V30 8756 H 825.496 4.10601 -0.661794 0
M  V30 8757 H 824.073 3.56661 1.08844 0
M  V30 8758 N 826.258 0.243083 1.55714 0
M  V30 8759 C 827.19 -0.690766 2.18543 0
M  V30 8760 C 828.203 -1.14163 1.16064 0
M  V30 8761 O 829.392 -1.06906 1.42946 0
M  V30 8762 C 826.492 -1.95016 2.77168 0
M  V30 8763 C 825.665 -1.65137 4.05029 0
M  V30 8764 C 824.724 -2.75998 4.48009 0
M  V30 8765 O 823.75 -2.43547 5.14464 0
M  V30 8766 N 824.952 -4.05414 4.15476 0
M  V30 8767 H 827.717 -0.153203 2.99308 0
M  V30 8768 H 825.278 0.0628968 1.61778 0
M  V30 8769 H 827.27 -2.68414 3.0288 0
M  V30 8770 H 825.84 -2.39762 2.00582 0
M  V30 8771 H 825.06 -0.752768 3.86946 0
M  V30 8772 H 826.348 -1.42633 4.88399 0
M  V30 8773 H 825.746 -4.34613 3.62116 0
M  V30 8774 H 824.303 -4.75288 4.46032 0
M  V30 8775 N 827.736 -1.57571 -0.0300757 0
M  V30 8776 C 828.964 -1.93485 -0.732891 0
M  V30 8777 C 829.379 -0.842758 -1.68947 0
M  V30 8778 O 828.736 0.180904 -1.81601 0
M  V30 8779 C 828.787 -3.29328 -1.49082 0
M  V30 8780 O 828.508 -4.34341 -0.572639 0
M  V30 8781 C 830.009 -3.79517 -2.29088 0
M  V30 8782 H 827.229 -0.638588 -0.206026 0
M  V30 8783 H 829.773 -2.04496 0.0120966 0
M  V30 8784 H 827.928 -3.19716 -2.1877 0
M  V30 8785 H 828.342 -5.12748 -1.10406 0
M  V30 8786 H 829.816 -4.77081 -2.77665 0
M  V30 8787 H 830.293 -3.10659 -3.10464 0
M  V30 8788 H 830.899 -3.92208 -1.64477 0
M  V30 8789 N 829.214 0.302327 -1.54673 0
M  V30 8790 C 830.442 1.05669 -1.77881 0
M  V30 8791 C 830.857 1.80983 -0.537648 0
M  V30 8792 O 830.214 1.7573 0.492467 0
M  V30 8793 C 830.265 2.03828 -2.98557 0
M  V30 8794 O 829.986 1.3157 -4.17877 0
M  V30 8795 C 831.487 2.91314 -3.34143 0
M  V30 8796 H 828.707 0.313436 -0.593295 0
M  V30 8797 H 831.251 0.342003 -2.0162 0
M  V30 8798 H 829.406 2.70801 -2.7703 0
M  V30 8799 H 829.82 1.97481 -4.85903 0
M  V30 8800 H 831.294 3.56042 -4.21827 0
M  V30 8801 H 831.771 3.59544 -2.52239 0
M  V30 8802 H 832.377 2.29874 -3.57824 0
M  V30 8803 N 830.692 1.47107 0.565454 0
M  V30 8804 C 831.655 1.58535 1.65527 0
M  V30 8805 C 832.655 0.461081 1.54048 0
M  V30 8806 O 833.845 0.725911 1.58355 0
M  V30 8807 C 830.977 1.52204 3.05036 0
M  V30 8808 H 832.17 2.55676 1.56747 0
M  V30 8809 H 829.723 1.35174 0.78471 0
M  V30 8810 H 830.458 0.564071 3.19357 0
M  V30 8811 H 830.243 2.3379 3.14777 0
M  V30 8812 H 831.733 1.63322 3.84338 0
M  V30 8813 N 832.17 -0.811516 1.35101 0
M  V30 8814 C 833.102 -1.93102 1.23468 0
M  V30 8815 C 834.115 -1.62021 0.159095 0
M  V30 8816 O 835.304 -1.73682 0.411945 0
M  V30 8817 C 832.404 -3.27345 0.877404 0
M  V30 8818 C 831.577 -3.86368 2.05033 0
M  V30 8819 C 830.636 -4.99009 1.66963 0
M  V30 8820 O 829.662 -5.16698 2.38772 0
M  V30 8821 N 830.864 -5.7749 0.590394 0
M  V30 8822 H 833.629 -2.0361 2.19916 0
M  V30 8823 H 831.19 -0.988687 1.28205 0
M  V30 8824 H 833.182 -4.00163 0.604298 0
M  V30 8825 H 831.752 -3.126 0.00275267 0
M  V30 8826 H 830.972 -3.05804 2.48752 0
M  V30 8827 H 832.26 -4.22533 2.83449 0
M  V30 8828 H 831.658 -5.657 -0.00633259 0
M  V30 8829 H 830.215 -6.50708 0.377055 0
M  V30 8830 N 833.648 -1.19017 -1.03309 0
M  V30 8831 C 834.581 -0.867457 -2.1107 0
M  V30 8832 C 835.559 0.173752 -1.61669 0
M  V30 8833 O 836.743 0.0510077 -1.88431 0
M  V30 8834 C 833.87 -0.297459 -3.37391 0
M  V30 8835 C 832.916 -1.31706 -4.05655 0
M  V30 8836 S 833.749 -2.87591 -4.51721 0
M  V30 8837 C 834.905 -2.32122 -5.81266 0
M  V30 8838 H 835.138 -1.78008 -2.38119 0
M  V30 8839 H 832.671 -1.01686 -1.16187 0
M  V30 8840 H 834.629 0.0248889 -4.10492 0
M  V30 8841 H 833.29 0.5934 -3.08444 0
M  V30 8842 H 832.483 -0.867264 -4.96482 0
M  V30 8843 H 832.085 -1.58603 -3.38705 0
M  V30 8844 H 834.377 -1.70855 -6.55603 0
M  V30 8845 H 835.32 -3.2128 -6.31019 0
M  V30 8846 H 835.728 -1.74858 -5.36736 0
M  V30 8847 N 835.127 1.22348 -0.993418 0
M  V30 8848 C 836.375 1.90733 -0.668246 0
M  V30 8849 C 836.696 1.77732 0.802261 0
M  V30 8850 O 835.966 1.16486 1.57505 0
M  V30 8851 H 834.546 0.705966 -0.244174 0
M  V30 8852 H 837.208 1.48691 -1.26004 0
M  V30 8853 H 836.304 2.97883 -0.931239 0
M  V30 8854 N 836.605 0.766683 1.37694 0
M  V30 8855 C 837.537 0.107798 2.28946 0
M  V30 8856 C 838.55 -0.669701 1.48387 0
M  V30 8857 O 839.739 -0.508629 1.711 0
M  V30 8858 C 836.839 -0.871084 3.27514 0
M  V30 8859 C 836.012 -0.148471 4.37148 0
M  V30 8860 C 835.071 -1.03998 5.1582 0
M  V30 8861 O 834.097 -0.505639 5.6695 0
M  V30 8862 N 835.299 -2.36679 5.3006 0
M  V30 8863 H 838.064 0.89154 2.86132 0
M  V30 8864 H 835.625 0.618593 1.49616 0
M  V30 8865 H 837.617 -1.47081 3.77027 0
M  V30 8866 H 836.187 -1.55582 2.71133 0
M  V30 8867 H 835.407 0.632117 3.89099 0
M  V30 8868 H 836.695 0.351045 5.07588 0
M  V30 8869 H 836.093 -2.82532 4.90094 0
M  V30 8870 H 834.65 -2.9167 5.82899 0
M  V30 8871 N 838.083 -1.48885 0.516809 0
M  V30 8872 C 839.494 -1.86557 0.0729921 0
M  V30 8873 C 839.845 -1.42767 -1.34581 0
M  V30 8874 O 838.97 -0.812514 -2.00567 0
M  V30 8875 C 839.565 -3.38567 0.125686 0
M  V30 8876 C 838.124 -3.75481 -0.262867 0
M  V30 8877 C 837.271 -2.72913 0.491281 0
M  V30 8878 H 840.222 -1.40978 0.728767 0
M  V30 8879 H 840.243 -3.74629 -0.665831 0
M  V30 8880 H 839.755 -3.70408 1.15842 0
M  V30 8881 H 837.856 -3.49251 -1.29824 0
M  V30 8882 H 837.969 -4.79052 0.067579 0
M  V30 8883 H 836.333 -2.54627 -0.0608525 0
M  V30 8884 H 837.116 -3.07599 1.5244 0
M  V30 8885 N 839.561 -0.251338 -1.55583 0
M  V30 8886 C 840.493 0.679167 -2.18906 0
M  V30 8887 C 841.506 1.13545 -1.16667 0
M  V30 8888 O 842.695 1.06146 -1.4351 0
M  V30 8889 C 839.795 1.93544 -2.78198 0
M  V30 8890 C 838.968 1.62987 -4.05899 0
M  V30 8891 C 838.027 2.73618 -4.49466 0
M  V30 8892 O 837.053 2.40815 -5.15749 0
M  V30 8893 N 838.255 4.03204 -4.1762 0
M  V30 8894 H 841.02 0.137328 -2.99385 0
M  V30 8895 H 838.581 -0.0714754 -1.61742 0
M  V30 8896 H 840.573 2.66804 -3.04299 0
M  V30 8897 H 839.143 2.38695 -2.0185 0
M  V30 8898 H 838.363 0.732237 -3.8734 0
M  V30 8899 H 839.651 1.40041 -4.89148 0
M  V30 8900 H 839.049 4.32686 -3.64416 0
M  V30 8901 H 837.606 4.72916 -4.48547 0
M  V30 8902 N 841.039 1.57585 0.0217189 0
M  V30 8903 C 842.002 2.06004 1.00474 0
M  V30 8904 C 843.002 0.965461 1.2859 0
M  V30 8905 O 844.192 1.22884 1.23471 0
M  V30 8906 C 841.324 2.48319 2.33561 0
M  V30 8907 H 842.517 2.94112 0.586346 0
M  V30 8908 H 840.07 1.53973 0.268716 0
M  V30 8909 H 840.805 1.63389 2.80133 0
M  V30 8910 H 840.59 3.28239 2.1448 0
M  V30 8911 H 842.08 2.86181 3.04122 0
M  V30 8912 N 842.517 -0.29412 1.54831 0
M  V30 8913 C 843.928 -0.866651 1.65366 0
M  V30 8914 C 844.279 -1.87834 0.56681 0
M  V30 8915 O 843.404 -2.14374 -0.295389 0
M  V30 8916 C 843.999 -1.57869 2.99771 0
M  V30 8917 C 842.558 -2.09954 3.12404 0
M  V30 8918 C 841.705 -0.934492 2.6108 0
M  V30 8919 H 844.656 -0.0709551 1.58541 0
M  V30 8920 H 844.677 -2.44462 2.91579 0
M  V30 8921 H 844.189 -0.84212 3.78853 0
M  V30 8922 H 842.29 -2.86637 2.38055 0
M  V30 8923 H 842.403 -2.32934 4.18663 0
M  V30 8924 H 840.767 -1.32199 2.17705 0
M  V30 8925 H 841.55 -0.211768 3.42646 0
M  V30 8926 N 843.995 -1.47404 -0.557645 0
M  V30 8927 C 844.928 -1.54399 -1.68036 0
M  V30 8928 C 845.906 -0.396175 -1.577 0
M  V30 8929 O 847.09 -0.603911 -1.78564 0
M  V30 8930 C 844.217 -1.44611 -3.06277 0
M  V30 8931 C 843.263 -2.63889 -3.35059 0
M  V30 8932 S 844.096 -4.26086 -3.24362 0
M  V30 8933 C 845.252 -4.1885 -4.65097 0
M  V30 8934 H 845.485 -2.49384 -1.61849 0
M  V30 8935 H 843.018 -1.35597 -0.738429 0
M  V30 8936 H 844.976 -1.39651 -3.86015 0
M  V30 8937 H 843.637 -0.510114 -3.0993 0
M  V30 8938 H 842.83 -2.53103 -4.35838 0
M  V30 8939 H 842.432 -2.65969 -2.62938 0
M  V30 8940 H 844.724 -3.87077 -5.56037 0
M  V30 8941 H 845.667 -5.19714 -4.8094 0
M  V30 8942 H 846.075 -3.49717 -4.43123 0
M  V30 8943 N 845.473 0.80434 -1.35529 0
M  V30 8944 C 846.721 1.55845 -1.28673 0
M  V30 8945 C 847.042 1.94511 0.137976 0
M  V30 8946 O 846.312 1.63775 1.07492 0
M  V30 8947 H 844.892 0.577931 -0.473291 0
M  V30 8948 H 847.554 0.959293 -1.69657 0
M  V30 8949 H 846.65 2.47285 -1.90411 0
M  V30 8950 N 846.951 1.19563 1.02676 0
M  V30 8951 C 848.176 1.02556 1.80269 0
M  V30 8952 C 848.601 -0.421056 1.83327 0
M  V30 8953 O 847.959 -1.30279 1.26084 0
M  V30 8954 C 848.007 1.60165 3.23078 0
M  V30 8955 O 847.111 0.832404 4.03912 0
M  V30 8956 H 846.452 0.362354 0.556413 0
M  V30 8957 H 848.982 1.58633 1.29216 0
M  V30 8958 H 848.992 1.6347 3.7382 0
M  V30 8959 H 847.667 2.65454 3.20167 0
M  V30 8960 H 846.244 0.872768 3.62543 0
M  V30 8961 N 848.429 -1.21819 0.999893 0
M  V30 8962 C 849.659 -1.94475 0.697346 0
M  V30 8963 C 850.067 -1.73991 -0.743228 0
M  V30 8964 O 849.41 -1.04042 -1.51397 0
M  V30 8965 C 849.472 -3.47204 0.932181 0
M  V30 8966 C 849.136 -3.91432 2.3586 0
M  V30 8967 C 850.133 -3.98545 3.33853 0
M  V30 8968 C 847.818 -4.23888 2.69489 0
M  V30 8969 C 849.812 -4.37499 4.63545 0
M  V30 8970 C 847.499 -4.62519 3.99399 0
M  V30 8971 C 848.497 -4.69294 4.96238 0
M  V30 8972 O 848.185 -5.07048 6.23825 0
M  V30 8973 H 847.917 -0.625419 0.256567 0
M  V30 8974 H 850.471 -1.55728 1.33933 0
M  V30 8975 H 848.701 -3.85997 0.233025 0
M  V30 8976 H 850.39 -4.01078 0.623807 0
M  V30 8977 H 851.156 -3.73654 3.09205 0
M  V30 8978 H 847.035 -4.17815 1.94812 0
M  V30 8979 H 850.579 -4.42702 5.3913 0
M  V30 8980 H 846.476 -4.86864 4.23833 0
M  V30 8981 H 847.244 -5.25098 6.27865 0
M  V30 8982 N 849.908 -0.773975 -1.37286 0
M  V30 8983 C 850.84 -0.119938 -2.28886 0
M  V30 8984 C 851.853 0.661822 -1.48741 0
M  V30 8985 O 853.042 0.499548 -1.71367 0
M  V30 8986 C 850.142 0.853703 -3.27971 0
M  V30 8987 C 849.315 0.125286 -4.37221 0
M  V30 8988 C 848.374 1.01261 -5.16365 0
M  V30 8989 O 847.4 0.475565 -5.6721 0
M  V30 8990 N 848.602 2.33864 -5.31308 0
M  V30 8991 H 851.367 -0.906702 -2.85655 0
M  V30 8992 H 848.928 -0.626519 -1.49286 0
M  V30 8993 H 850.92 1.4508 -3.77801 0
M  V30 8994 H 849.49 1.54142 -2.71954 0
M  V30 8995 H 848.71 -0.652742 -3.88758 0
M  V30 8996 H 849.998 -0.377959 -5.07394 0
M  V30 8997 H 849.396 2.79929 -4.91585 0
M  V30 8998 H 847.953 2.88575 -5.84438 0
M  V30 8999 N 851.386 1.48609 -0.524698 0
M  V30 9000 C 852.802 1.58557 -0.182199 0
M  V30 9001 C 853.002 1.52732 1.31435 0
M  V30 9002 O 852.058 1.41362 2.0922 0
M  V30 9003 C 853.371 2.90406 -0.78004 0
M  V30 9004 C 854.919 3.03924 -0.748293 0
M  V30 9005 C 855.394 4.38427 -1.32462 0
M  V30 9006 N 856.885 4.4498 -1.28635 0
M  V30 9007 C 857.62 5.47551 -1.70223 0
M  V30 9008 N 857.116 6.57103 -2.19515 0
M  V30 9009 N 858.909 5.38402 -1.61493 0
M  V30 9010 H 851.06 1.50638 -1.4974 0
M  V30 9011 H 853.323 0.714952 -0.622533 0
M  V30 9012 H 853.029 3.00308 -1.83052 0
M  V30 9013 H 852.903 3.76343 -0.254075 0
M  V30 9014 H 855.29 2.93638 0.293407 0
M  V30 9015 H 855.371 2.19611 -1.31167 0
M  V30 9016 H 855.015 4.49466 -2.36522 0
M  V30 9017 H 854.945 5.21418 -0.736967 0
M  V30 9018 H 857.436 3.66393 -0.92545 0
M  V30 9019 H 857.749 7.31499 -2.49257 0
M  V30 9020 H 856.094 6.58081 -2.23506 0
M  V30 9021 H 859.285 4.5171 -1.22785 0
M  V30 9022 H 859.458 6.18208 -1.94225 0
M  V30 9023 N 852.864 0.259585 1.55447 0
M  V30 9024 C 853.814 -0.648769 2.18575 0
M  V30 9025 C 854.798 -1.1299 1.14552 0
M  V30 9026 O 855.99 -1.07756 1.4042 0
M  V30 9027 C 853.119 -1.83963 2.89849 0
M  V30 9028 C 852.205 -1.37641 4.01143 0
M  V30 9029 N 852.596 -0.628269 5.01883 0
M  V30 9030 C 850.894 -1.66066 4.1393 0
M  V30 9031 C 851.595 -0.386746 5.80413 0
M  V30 9032 N 850.571 -0.954665 5.35151 0
M  V30 9033 H 854.373 -0.0691616 2.93819 0
M  V30 9034 H 851.887 0.0624525 1.6228 0
M  V30 9035 H 853.884 -2.50151 3.33512 0
M  V30 9036 H 852.544 -2.42334 2.16112 0
M  V30 9037 H 853.555 -0.277123 5.17158 0
M  V30 9038 H 850.232 -2.25484 3.51373 0
M  V30 9039 H 851.622 0.211382 6.71567 0
M  V30 9040 N 854.342 -1.57594 -0.0133615 0
M  V30 9041 C 855.572 -1.93969 -0.711295 0
M  V30 9042 C 855.98 -0.859084 -1.68572 0
M  V30 9043 O 855.323 0.171842 -1.82894 0
M  V30 9044 C 855.385 -3.2625 -1.51001 0
M  V30 9045 C 855.049 -4.51628 -0.698645 0
M  V30 9046 C 856.046 -5.19899 0.00791185 0
M  V30 9047 C 853.731 -4.98095 -0.648553 0
M  V30 9048 C 855.725 -6.32928 0.753691 0
M  V30 9049 C 853.412 -6.11017 0.10096 0
M  V30 9050 C 854.41 -6.78289 0.800828 0
M  V30 9051 O 854.098 -7.89048 1.53814 0
M  V30 9052 H 853.83 -0.6445 -0.203951 0
M  V30 9053 H 856.384 -2.05378 0.0298267 0
M  V30 9054 H 854.614 -3.11211 -2.29531 0
M  V30 9055 H 856.303 -3.47835 -2.09202 0
M  V30 9056 H 857.069 -4.84995 -0.0217192 0
M  V30 9057 H 852.948 -4.45568 -1.18282 0
M  V30 9058 H 856.492 -6.85371 1.3005 0
M  V30 9059 H 852.389 -6.45364 0.132459 0
M  V30 9060 H 853.157 -8.05492 1.45345 0
M  V30 9061 O 855.859 0.155898 -1.60746 0
M  V30 9062 H 856.55 0.791038 -1.76811 0
M  V30 END ATOM
M  V30 BEGIN BOND
M  V30 END BOND
M  V30 END CTAB
M  END
$$$$
