drugbank_target|Q9HC29 Nucleotide-binding oligomerization domain-containing protein 2 (DB13615)
 OpenBabel12092121123D

  0  0  0     0  0            999 V3000
M  V30 BEGIN CTAB
M  V30 COUNTS 16220 16396 0 0 0
M  V30 BEGIN ATOM
M  V30 1 H -0.908 1.98254 -0.117106 0
M  V30 2 N 0 1.576 0 0
M  V30 3 C 0.933 2.03868 1.02534 0
M  V30 4 C 1.911 0.928543 1.3348 0
M  V30 5 O 3.095 1.19667 1.45644 0
M  V30 6 C 0.222 2.43627 2.35294 0
M  V30 7 C -0.732 3.65373 2.2001 0
M  V30 8 S 0.101 5.13292 1.52614 0
M  V30 9 C 1.257 5.56322 2.86805 0
M  V30 10 H 1.49 2.90518 0.631377 0
M  V30 11 H -0.977 1.52953 0.210867 0
M  V30 12 H 0.981 2.67203 3.11629 0
M  V30 13 H -0.358 1.57376 2.7183 0
M  V30 14 H -1.165 3.90944 3.18086 0
M  V30 15 H -1.563 3.418 1.51819 0
M  V30 16 H 0.729 5.58782 3.83104 0
M  V30 17 H 1.672 6.56266 2.65933 0
M  V30 18 H 2.08 4.83886 2.90714 0
M  V30 19 N 1.4781 -0.272755 1.55222 0
M  V30 20 C 2.7261 -1.00234 1.75492 0
M  V30 21 C 3.0471 -1.8681 0.5592 0
M  V30 22 O 2.3171 -1.91215 -0.425882 0
M  V30 23 H 0.8971 -0.373076 0.647166 0
M  V30 24 H 3.5591 -0.296926 1.92625 0
M  V30 25 H 2.6551 -1.63913 2.65592 0
M  V30 26 N 2.9562 -1.48159 -0.537278 0
M  V30 27 C 3.8662 -1.64807 -1.6696 0
M  V30 28 C 4.8822 -0.530651 -1.65711 0
M  V30 29 O 6.0582 -0.800784 -1.84796 0
M  V30 30 C 3.1232 -1.67708 -3.03438 0
M  V30 31 C 2.1842 -2.91025 -3.156 0
M  V30 32 C 1.4172 -2.93778 -4.45567 0
M  V30 33 O 1.6402 -2.05153 -5.3223 0
M  V30 34 O 0.5742 -3.85868 -4.61941 0
M  V30 35 H 4.4002 -2.6066 -1.55853 0
M  V30 36 H 1.9852 -1.31475 -0.709549 0
M  V30 37 H 3.8672 -1.7218 -3.84619 0
M  V30 38 H 2.5422 -0.750278 -3.14885 0
M  V30 39 H 1.4492 -2.92089 -2.33741 0
M  V30 40 H 2.7822 -3.83065 -3.09066 0
M  V30 41 N 4.4343 0.785586 -1.36625 0
M  V30 42 C 5.3443 1.92964 -1.33425 0
M  V30 43 C 6.3603 1.72394 -0.235851 0
M  V30 44 O 7.5363 1.95866 -0.468878 0
M  V30 45 C 4.6013 3.27884 -1.12662 0
M  V30 46 C 3.6623 3.61204 -2.32013 0
M  V30 47 C 2.8953 4.89687 -2.12231 0
M  V30 48 O 3.1183 5.59704 -1.09945 0
M  V30 49 O 2.0523 5.21752 -3.00098 0
M  V30 50 H 5.8783 1.98613 -2.29753 0
M  V30 51 H 3.4633 0.926384 -1.17211 0
M  V30 52 H 5.3453 4.08614 -1.03016 0
M  V30 53 H 4.0203 3.23118 -0.193991 0
M  V30 54 H 2.9273 2.80765 -2.47228 0
M  V30 55 H 4.2603 3.70698 -3.23796 0
M  V30 56 N 5.9124 1.20967 1.01018 0
M  V30 57 C 7.1604 1.02172 1.74371 0
M  V30 58 C 7.4814 -0.446414 1.89821 0
M  V30 59 O 6.7514 -1.32234 1.44537 0
M  V30 60 H 5.3314 0.375066 0.646014 0
M  V30 61 H 7.9934 1.52187 1.21758 0
M  V30 62 H 7.0894 1.48538 2.74487 0
M  V30 63 N 7.3905 -1.2043 1.01659 0
M  V30 64 C 8.6385 -1.89423 0.704522 0
M  V30 65 C 8.9595 -1.79231 -0.768197 0
M  V30 66 O 8.2295 -1.1947 -1.55254 0
M  V30 67 H 6.8095 -0.701178 0.257602 0
M  V30 68 H 9.4715 -1.4626 1.28818 0
M  V30 69 H 8.5675 -2.96052 0.987916 0
M  V30 70 N 8.8686 -0.792821 -1.36206 0
M  V30 71 C 10.0936 -0.377701 -2.03932 0
M  V30 72 C 10.5186 0.998947 -1.59382 0
M  V30 73 O 9.8766 1.64421 -0.763903 0
M  V30 74 C 9.9246 -0.453635 -3.57735 0
M  V30 75 O 9.0286 0.538151 -4.08874 0
M  V30 76 H 8.3696 -0.159855 -0.644471 0
M  V30 77 H 10.8996 -1.07488 -1.7409 0
M  V30 78 H 10.9096 -0.318464 -4.06755 0
M  V30 79 H 9.5846 -1.45784 -3.89512 0
M  V30 80 H 8.1616 0.364359 -3.71116 0
M  V30 81 N 10.3467 1.47872 -0.545128 0
M  V30 82 C 11.3097 2.28337 0.198717 0
M  V30 83 C 12.3097 1.36255 0.853888 0
M  V30 84 O 13.4997 1.59003 0.711606 0
M  V30 85 C 10.6317 3.15585 1.28915 0
M  V30 86 H 11.8247 2.95567 -0.507941 0
M  V30 87 H 9.3777 1.53362 -0.301616 0
M  V30 88 H 10.1127 2.53019 2.02859 0
M  V30 89 H 9.8977 3.83337 0.824309 0
M  V30 90 H 11.3877 3.76243 1.81194 0
M  V30 91 N 11.8248 0.280983 1.55075 0
M  V30 92 C 13.0498 -0.340154 2.04592 0
M  V30 93 C 13.4748 -1.48246 1.15779 0
M  V30 94 O 12.8328 -1.80614 0.15761 0
M  V30 95 C 12.8808 -0.793104 3.5177 0
M  V30 96 O 11.9848 -1.89981 3.66034 0
M  V30 97 H 11.3258 -0.0694289 0.66036 0
M  V30 98 H 13.8558 0.416993 2.00306 0
M  V30 99 H 13.8658 -1.08729 3.93245 0
M  V30 100 H 12.5408 0.0426163 4.15878 0
M  V30 101 H 11.1178 -1.60771 3.36463 0
M  V30 102 N 13.3029 -1.57598 0.00835791 0
M  V30 103 C 14.2529 -2.05431 -0.989045 0
M  V30 104 C 15.2369 -0.950662 -1.29812 0
M  V30 105 O 16.4289 -1.21438 -1.28771 0
M  V30 106 C 13.5579 -2.56801 -2.27833 0
M  V30 107 C 12.6439 -3.74058 -1.99853 0
M  V30 108 N 13.0349 -4.8544 -1.42062 0
M  V30 109 C 11.3329 -3.82148 -2.29953 0
M  V30 110 C 12.0339 -5.66817 -1.30743 0
M  V30 111 N 11.0099 -5.13077 -1.7959 0
M  V30 112 H 14.8119 -2.88955 -0.536853 0
M  V30 113 H 12.3259 -1.61199 -0.197148 0
M  V30 114 H 14.3229 -2.89349 -3.00137 0
M  V30 115 H 12.9829 -1.74699 -2.73698 0
M  V30 116 H 13.9939 -5.0612 -1.09833 0
M  V30 117 H 10.6709 -3.10916 -2.78635 0
M  V30 118 H 12.0609 -6.66343 -0.862328 0
M  V30 119 N 14.781 0.264519 -1.55364 0
M  V30 120 C 16.058 1.01677 -1.67096 0
M  V30 121 C 16.438 2.03996 -0.543015 0
M  V30 122 O 15.786 2.23907 0.45585 0
M  V30 123 C 15.996 1.66596 -3.0667 0
M  V30 124 C 17.344 2.17442 -3.64697 0
M  V30 125 O 18.368 1.76568 -3.09358 0
M  V30 126 O 17.227 2.92439 -4.61673 0
M  V30 127 H 14.321 0.472161 -0.678965 0
M  V30 128 H 16.867 0.259703 -1.67701 0
M  V30 129 H 15.639 0.924962 -3.80211 0
M  V30 130 H 15.262 2.48968 -3.10001 0
M  V30 131 N 16.2591 1.48442 0.529413 0
M  V30 132 C 17.1691 1.6569 1.66084 0
M  V30 133 C 18.1851 0.539432 1.65427 0
M  V30 134 O 19.3611 0.810572 1.84368 0
M  V30 135 C 16.4261 1.69315 3.02545 0
M  V30 136 C 15.4871 2.92694 3.14052 0
M  V30 137 C 14.7201 2.96137 4.44003 0
M  V30 138 O 14.9431 2.07973 5.31134 0
M  V30 139 O 13.8771 3.88312 4.59888 0
M  V30 140 H 17.7031 2.61483 1.54469 0
M  V30 141 H 15.2881 1.3185 0.702567 0
M  V30 142 H 17.1701 1.74217 3.83701 0
M  V30 143 H 15.8451 0.766966 3.14483 0
M  V30 144 H 14.7521 2.93324 2.32189 0
M  V30 145 H 16.0851 3.84699 3.0703 0
M  V30 146 N 17.7372 -0.778329 1.37039 0
M  V30 147 C 18.6472 -1.92253 1.34446 0
M  V30 148 C 19.6632 -1.72267 0.244991 0
M  V30 149 O 20.8392 -1.95615 0.479258 0
M  V30 150 C 17.9042 -3.27282 1.144 0
M  V30 151 C 16.9652 -3.59969 2.33925 0
M  V30 152 C 16.1982 -4.88555 2.14825 0
M  V30 153 O 16.4212 -5.59113 1.12912 0
M  V30 154 O 15.3552 -5.20153 3.02861 0
M  V30 155 H 19.1812 -1.97392 2.30803 0
M  V30 156 H 16.7662 -0.920154 1.17701 0
M  V30 157 H 18.6482 -4.08062 1.05182 0
M  V30 158 H 17.3232 -3.23011 0.211124 0
M  V30 159 H 16.2302 -2.7945 2.48714 0
M  V30 160 H 17.5632 -3.68976 3.25757 0
M  V30 161 N 19.2153 -1.21501 -1.00376 0
M  V30 162 C 20.1253 -0.991447 -2.12621 0
M  V30 163 C 21.1413 0.0568446 -1.73907 0
M  V30 164 O 22.3173 -0.13348 -2.00957 0
M  V30 165 C 19.3823 -0.560312 -3.42142 0
M  V30 166 C 18.4433 -1.68096 -3.95022 0
M  V30 167 C 17.6763 -1.2703 -5.18362 0
M  V30 168 O 17.8993 -0.144438 -5.70217 0
M  V30 169 O 16.8333 -2.08269 -5.64719 0
M  V30 170 H 20.6593 -1.93158 -2.34358 0
M  V30 171 H 18.2443 -0.999999 -1.10997 0
M  V30 172 H 20.1263 -0.329724 -4.20108 0
M  V30 173 H 18.8013 0.351089 -3.2179 0
M  V30 174 H 17.7083 -1.96597 -3.18278 0
M  V30 175 H 19.0413 -2.56983 -4.19786 0
M  V30 176 N 20.6934 1.19889 -1.02296 0
M  V30 177 C 22.1094 1.41462 -0.738954 0
M  V30 178 C 22.3094 1.89721 0.678846 0
M  V30 179 O 21.3654 2.07016 1.4457 0
M  V30 180 C 22.6784 2.43083 -1.77005 0
M  V30 181 C 24.2264 2.5684 -1.78892 0
M  V30 182 C 24.7014 3.61709 -2.80945 0
M  V30 183 N 26.1924 3.69199 -2.79725 0
M  V30 184 C 26.9274 4.50019 -3.55345 0
M  V30 185 N 26.4234 5.34592 -4.40662 0
M  V30 186 N 28.2164 4.44612 -3.43914 0
M  V30 187 H 20.3674 0.868827 -1.93817 0
M  V30 188 H 22.6304 0.44399 -0.837602 0
M  V30 189 H 22.3364 2.14636 -2.78612 0
M  V30 190 H 22.2104 3.4217 -1.58744 0
M  V30 191 H 24.5974 2.84614 -0.779674 0
M  V30 192 H 24.6784 1.57927 -2.01228 0
M  V30 193 H 24.3224 3.34678 -3.82038 0
M  V30 194 H 24.2524 4.60259 -2.5587 0
M  V30 195 H 26.7434 3.08794 -2.17842 0
M  V30 196 H 27.0564 5.93363 -4.95116 0
M  V30 197 H 25.4014 5.34073 -4.44737 0
M  V30 198 H 28.5924 3.7758 -2.76679 0
M  V30 199 H 28.7654 5.0736 -4.031 0
M  V30 200 N 22.1715 0.800033 1.35784 0
M  V30 201 C 23.1345 0.211565 2.28221 0
M  V30 202 C 24.1345 -0.59728 1.49296 0
M  V30 203 O 25.3245 -0.416721 1.69142 0
M  V30 204 C 22.4565 -0.705846 3.33513 0
M  V30 205 H 23.6495 1.02677 2.81776 0
M  V30 206 H 21.2025 0.570211 1.45528 0
M  V30 207 H 21.9375 -1.54498 2.85133 0
M  V30 208 H 21.7225 -0.127655 3.91892 0
M  V30 209 H 23.2125 -1.11211 4.02519 0
M  V30 210 N 23.6496 -1.47581 0.552962 0
M  V30 211 C 24.8746 -2.07378 0.0300593 0
M  V30 212 C 25.2996 -1.40355 -1.25229 0
M  V30 213 O 24.6576 -0.477099 -1.7491 0
M  V30 214 C 24.7056 -3.60274 -0.153231 0
M  V30 215 O 23.8096 -3.94041 -1.21678 0
M  V30 216 H 23.1506 -0.662158 0.0494182 0
M  V30 217 H 25.6806 -1.89662 0.767434 0
M  V30 218 H 25.6906 -4.0633 -0.368761 0
M  V30 219 H 24.3656 -4.08455 0.783397 0
M  V30 220 H 22.9426 -3.59735 -0.982079 0
M  V30 221 N 25.1277 -0.289203 -1.54924 0
M  V30 222 C 26.3737 0.323998 -2.00195 0
M  V30 223 C 26.7067 1.54441 -1.17735 0
M  V30 224 O 25.9817 1.92875 -0.250878 0
M  V30 225 C 26.2647 0.692276 -3.53383 0
M  V30 226 C 26.1177 -0.536457 -4.46589 0
M  V30 227 C 27.4367 1.52335 -4.12895 0
M  V30 228 H 24.5557 0.116289 -0.727768 0
M  V30 229 H 27.1977 -0.398954 -1.85764 0
M  V30 230 H 25.3477 1.30822 -3.65811 0
M  V30 231 H 27.0197 -1.17499 -4.46085 0
M  V30 232 H 25.2627 -1.17192 -4.1767 0
M  V30 233 H 25.9337 -0.234806 -5.515 0
M  V30 234 H 28.4097 1.00302 -4.0383 0
M  V30 235 H 27.2857 1.74982 -5.20262 0
M  V30 236 H 27.5467 2.50886 -3.64018 0
M  V30 237 N 26.6058 1.57591 -0.0167156 0
M  V30 238 C 27.5358 2.12496 0.967858 0
M  V30 239 C 28.5168 1.03807 1.34752 0
M  V30 240 O 29.7018 1.31577 1.42833 0
M  V30 241 C 26.8318 2.64194 2.25431 0
M  V30 242 C 25.7858 3.77559 2.01576 0
M  V30 243 C 25.1118 4.15636 3.36379 0
M  V30 244 C 26.4118 5.04151 1.36489 0
M  V30 245 H 28.1058 2.95013 0.510643 0
M  V30 246 H 25.6518 1.41915 0.244181 0
M  V30 247 H 27.6048 3.01236 2.94678 0
M  V30 248 H 26.3288 1.78821 2.73296 0
M  V30 249 H 24.9878 3.40937 1.34751 0
M  V30 250 H 24.6358 3.27263 3.81979 0
M  V30 251 H 24.3358 4.92022 3.21229 0
M  V30 252 H 25.8598 4.5525 4.06915 0
M  V30 253 H 27.2738 5.38857 1.95718 0
M  V30 254 H 25.6708 5.85453 1.31776 0
M  V30 255 H 26.7408 4.83733 0.336219 0
M  V30 256 N 28.0839 -0.256276 1.55502 0
M  V30 257 C 29.0139 -1.32102 1.92539 0
M  V30 258 C 29.9949 -1.50684 0.789194 0
M  V30 259 O 31.1799 -1.63449 1.04872 0
M  V30 260 C 28.3099 -2.67752 2.21192 0
M  V30 261 C 27.2639 -2.63878 3.36975 0
M  V30 262 C 26.5899 -4.03236 3.51147 0
M  V30 263 C 27.8899 -2.21682 4.72921 0
M  V30 264 H 29.5839 -1.01351 2.81724 0
M  V30 265 H 27.1299 -0.486105 1.35547 0
M  V30 266 H 29.0829 -3.42365 2.45691 0
M  V30 267 H 27.8069 -3.0012 1.28824 0
M  V30 268 H 26.4659 -1.91722 3.12471 0
M  V30 269 H 26.1139 -4.32854 2.56216 0
M  V30 270 H 25.8139 -4.01535 4.29003 0
M  V30 271 H 27.3379 -4.79563 3.77957 0
M  V30 272 H 28.7519 -2.86023 4.96854 0
M  V30 273 H 27.1489 -2.3111 5.53812 0
M  V30 274 H 28.2189 -1.16833 4.70615 0
M  V30 275 N 29.562 -1.4872 -0.521534 0
M  V30 276 C 30.81 -1.56857 -1.27437 0
M  V30 277 C 31.131 -0.247982 -1.93417 0
M  V30 278 O 30.401 0.731151 -1.81744 0
M  V30 279 H 28.981 -0.577885 -0.473347 0
M  V30 280 H 31.643 -1.85233 -0.606205 0
M  V30 281 H 30.739 -2.35402 -2.0492 0
M  V30 282 N 31.0401 0.771051 -1.3745 0
M  V30 283 C 31.9901 1.87456 -1.29785 0
M  V30 284 C 32.9741 1.59827 -0.185541 0
M  V30 285 O 34.1661 1.71945 -0.419997 0
M  V30 286 C 31.2951 3.24935 -1.1078 0
M  V30 287 C 30.3811 3.58514 -2.26558 0
M  V30 288 N 30.7721 3.6327 -3.5195 0
M  V30 289 C 29.0701 3.88683 -2.18727 0
M  V30 290 C 29.7711 3.93616 -4.283 0
M  V30 291 N 28.7471 4.09551 -3.57448 0
M  V30 292 H 32.5491 1.89386 -2.24745 0
M  V30 293 H 30.0631 0.967531 -1.30432 0
M  V30 294 H 32.0601 4.03881 -1.03374 0
M  V30 295 H 30.7201 3.24268 -0.16738 0
M  V30 296 H 31.7311 3.45458 -3.85848 0
M  V30 297 H 28.4081 3.95834 -1.32746 0
M  V30 298 H 29.7981 4.04066 -5.36824 0
M  V30 299 N 32.5182 1.22032 0.997298 0
M  V30 300 C 33.7432 1.06921 1.77715 0
M  V30 301 C 34.1682 -0.376226 1.84299 0
M  V30 302 O 33.5262 -1.27165 1.29223 0
M  V30 303 C 33.5742 1.67996 3.19076 0
M  V30 304 O 32.6782 0.930653 4.01762 0
M  V30 305 H 32.0192 0.375814 0.547412 0
M  V30 306 H 34.5492 1.61737 1.25309 0
M  V30 307 H 34.5592 1.72538 3.69723 0
M  V30 308 H 33.2342 2.73182 3.13599 0
M  V30 309 H 31.8112 0.960917 3.60307 0
M  V30 310 N 33.9963 -1.19345 1.0293 0
M  V30 311 C 35.4073 -1.70725 0.755633 0
M  V30 312 C 35.7583 -1.82326 -0.724676 0
M  V30 313 O 34.8833 -1.49471 -1.56484 0
M  V30 314 C 35.4783 -3.10084 1.36503 0
M  V30 315 C 34.0373 -3.58723 1.13994 0
M  V30 316 C 33.1843 -2.35577 1.46283 0
M  V30 317 H 36.1353 -1.0418 1.19718 0
M  V30 318 H 36.1563 -3.72787 0.762217 0
M  V30 319 H 35.6683 -3.01609 2.44241 0
M  V30 320 H 33.7693 -3.72512 0.0807901 0
M  V30 321 H 33.8823 -4.42816 1.82894 0
M  V30 322 H 32.2463 -2.38935 0.88217 0
M  V30 323 H 33.0293 -2.29731 2.55105 0
M  V30 324 N 35.4744 -0.807222 -1.35358 0
M  V30 325 C 36.7224 -0.387122 -1.98358 0
M  V30 326 C 37.0434 1.04942 -1.64354 0
M  V30 327 O 36.3134 1.72615 -0.926339 0
M  V30 328 H 34.8934 -0.140154 -0.733734 0
M  V30 329 H 37.5554 -1.0332 -1.6526 0
M  V30 330 H 36.6514 -0.493352 -3.08176 0
M  V30 331 N 36.9525 1.47285 -0.560781 0
M  V30 332 C 38.1925 2.0436 -0.0404627 0
M  V30 333 C 38.5565 1.42534 1.28639 0
M  V30 334 O 39.7575 1.90677 1.89462 0
M  V30 335 C 38.0285 3.57369 0.0471856 0
M  V30 336 S 39.5875 4.3579 0.513109 0
M  V30 337 H 36.4055 0.710492 -0.0268674 0
M  V30 338 H 39.0075 1.80611 -0.748323 0
M  V30 339 H 37.7115 3.9989 -0.922817 0
M  V30 340 H 37.2425 3.8562 0.778491 0
M  V30 341 H 39.2575 4.63476 1.77212 0
M  V30 342 N 38.4306 0.297415 1.54768 0
M  V30 343 C 39.3406 -0.58983 2.27064 0
M  V30 344 C 40.3566 -1.15144 1.30453 0
M  V30 345 O 41.5326 -1.17699 1.63428 0
M  V30 346 C 38.5976 -1.74714 2.9946 0
M  V30 347 C 37.6586 -1.21997 4.11601 0
M  V30 348 C 36.8916 -2.32212 4.80535 0
M  V30 349 O 37.1146 -3.52036 4.48806 0
M  V30 350 O 36.0486 -1.99106 5.68014 0
M  V30 351 H 39.8746 -0.00348199 3.037 0
M  V30 352 H 37.4596 0.0640035 1.49263 0
M  V30 353 H 39.3416 -2.42147 3.44881 0
M  V30 354 H 38.0166 -2.32016 2.25722 0
M  V30 355 H 36.9236 -0.511458 3.70587 0
M  V30 356 H 38.2566 -0.692419 4.87305 0
M  V30 357 N 39.9087 -1.5758 0.0250728 0
M  V30 358 C 40.8417 -2.05473 -0.992777 0
M  V30 359 C 41.8197 -0.949661 -1.31986 0
M  V30 360 O 43.0037 -1.21969 -1.43722 0
M  V30 361 C 40.1307 -2.4734 -2.31389 0
M  V30 362 C 39.1767 -3.68827 -2.1417 0
M  V30 363 S 40.0097 -5.15655 -1.44429 0
M  V30 364 C 41.1657 -5.60814 -2.77918 0
M  V30 365 H 41.3987 -2.91486 -0.585078 0
M  V30 366 H 38.9317 -1.53269 -0.186507 0
M  V30 367 H 40.8897 -2.72127 -3.07339 0
M  V30 368 H 39.5507 -1.6168 -2.69292 0
M  V30 369 H 38.7437 -3.95955 -3.11826 0
M  V30 370 H 38.3457 -3.44172 -1.46362 0
M  V30 371 H 40.6377 -5.64806 -3.74166 0
M  V30 372 H 41.5807 -6.60414 -2.55459 0
M  V30 373 H 41.9887 -4.8845 -2.82979 0
M  V30 374 N 41.3868 0.248026 -1.55636 0
M  V30 375 C 42.6268 0.983592 -1.79178 0
M  V30 376 C 42.9908 1.82567 -0.594414 0
M  V30 377 O 44.1918 2.59292 -0.708583 0
M  V30 378 C 42.4628 1.82228 -3.07454 0
M  V30 379 S 44.0218 2.61709 -3.52213 0
M  V30 380 H 40.8398 0.330866 -0.629324 0
M  V30 381 H 43.4418 0.251562 -1.93875 0
M  V30 382 H 42.1458 1.19333 -3.92668 0
M  V30 383 H 41.6768 2.59708 -2.95492 0
M  V30 384 H 43.6918 3.84655 -3.13457 0
M  V30 385 N 42.8649 1.48995 0.513639 0
M  V30 386 C 44.0899 1.61792 1.29762 0
M  V30 387 C 44.5149 0.284475 1.85936 0
M  V30 388 O 43.8729 -0.746185 1.65232 0
M  V30 389 C 43.9209 2.67993 2.41272 0
M  V30 390 O 43.0249 2.26287 3.44772 0
M  V30 391 H 42.3659 0.541963 0.38363 0
M  V30 392 H 44.8959 1.95097 0.616307 0
M  V30 393 H 44.9059 2.89772 2.87221 0
M  V30 394 H 43.5809 3.64791 1.9975 0
M  V30 395 H 42.1579 2.14788 3.04829 0
M  V30 396 N 44.343 -0.763751 1.37857 0
M  V30 397 C 45.275 -1.88664 1.30148 0
M  V30 398 C 46.288 -1.61365 0.215685 0
M  V30 399 O 47.477 -1.72134 0.472459 0
M  V30 400 C 44.577 -3.24075 0.991396 0
M  V30 401 C 43.75 -3.78958 2.18426 0
M  V30 402 C 42.809 -4.92862 1.8432 0
M  V30 403 O 41.835 -5.08027 2.56704 0
M  V30 404 N 43.037 -5.75071 0.792081 0
M  V30 405 H 45.802 -1.95791 2.26905 0
M  V30 406 H 43.363 -0.943226 1.31586 0
M  V30 407 H 45.355 -3.97804 0.743935 0
M  V30 408 H 43.925 -3.12399 0.112122 0
M  V30 409 H 43.145 -2.96913 2.59299 0
M  V30 410 H 44.433 -4.12357 2.98058 0
M  V30 411 H 43.831 -5.65375 0.191595 0
M  V30 412 H 42.388 -6.48991 0.60449 0
M  V30 413 N 45.8211 -1.22559 -0.990812 0
M  V30 414 C 46.7311 -1.01394 -2.11557 0
M  V30 415 C 47.7471 0.0383962 -1.73958 0
M  V30 416 O 48.9231 -0.154787 -2.00804 0
M  V30 417 C 45.9881 -0.596569 -3.41529 0
M  V30 418 C 45.0491 -1.72276 -3.93217 0
M  V30 419 C 44.2821 -1.32521 -5.16985 0
M  V30 420 O 44.5051 -0.204909 -5.70032 0
M  V30 421 O 43.4391 -2.14247 -5.62478 0
M  V30 422 H 47.2651 -1.95633 -2.32296 0
M  V30 423 H 44.8501 -1.01172 -1.0993 0
M  V30 424 H 46.7321 -0.374263 -4.19735 0
M  V30 425 H 45.4071 0.316939 -3.22145 0
M  V30 426 H 44.3141 -1.99961 -3.16174 0
M  V30 427 H 45.6471 -2.61421 -4.17037 0
M  V30 428 N 47.2992 1.18797 -1.03562 0
M  V30 429 C 48.2622 2.20464 -0.626769 0
M  V30 430 C 49.2622 1.57721 0.313173 0
M  V30 431 O 50.4522 1.73917 0.0992615 0
M  V30 432 C 47.5842 3.40802 0.0818498 0
M  V30 433 H 48.7772 2.58149 -1.5264 0
M  V30 434 H 46.3302 1.32593 -0.827578 0
M  V30 435 H 47.0652 3.08642 0.995518 0
M  V30 436 H 46.8502 3.8758 -0.593652 0
M  V30 437 H 48.3402 4.16092 0.354584 0
M  V30 438 N 48.7773 0.814389 1.34928 0
M  V30 439 C 50.0243 0.398423 1.98542 0
M  V30 440 C 50.3523 -1.03638 1.64589 0
M  V30 441 O 49.6073 -1.73509 0.90516 0
M  V30 442 C 49.9063 0.537781 3.53331 0
M  V30 443 C 49.5723 1.93704 4.07172 0
M  V30 444 C 48.2343 2.31984 4.21589 0
M  V30 445 C 50.5863 2.85213 4.36237 0
M  V30 446 C 47.9143 3.61125 4.62391 0
M  V30 447 C 50.2663 4.13809 4.78482 0
M  V30 448 C 48.9303 4.52077 4.91104 0
M  V30 449 H 48.2003 0.145793 0.726516 0
M  V30 450 H 50.8473 1.03669 1.61012 0
M  V30 451 H 49.1523 -0.183906 3.91368 0
M  V30 452 H 50.8493 0.196588 4.00518 0
M  V30 453 H 47.4393 1.62966 3.96409 0
M  V30 454 H 51.6233 2.56885 4.24645 0
M  V30 455 H 46.8793 3.90612 4.70353 0
M  V30 456 H 51.0533 4.84811 4.99932 0
M  V30 457 H 48.6803 5.52196 5.22478 0
M  V30 458 N 50.2554 -1.46986 0.568584 0
M  V30 459 C 51.1874 -2.28233 -0.210337 0
M  V30 460 C 52.2004 -1.37682 -0.868767 0
M  V30 461 O 53.3894 -1.62406 -0.740705 0
M  V30 462 C 50.4894 -3.12293 -1.3163 0
M  V30 463 C 49.6624 -4.30878 -0.7525 0
M  V30 464 C 48.7214 -4.96445 -1.74439 0
M  V30 465 O 47.7474 -5.54482 -1.286 0
M  V30 466 N 48.9494 -4.92171 -3.07812 0
M  V30 467 H 51.7144 -2.95723 0.486648 0
M  V30 468 H 49.2754 -1.56742 0.405409 0
M  V30 469 H 51.2674 -3.53022 -1.97883 0
M  V30 470 H 49.8374 -2.46971 -1.91636 0
M  V30 471 H 49.0574 -3.94104 0.0871128 0
M  V30 472 H 50.3454 -5.07558 -0.35536 0
M  V30 473 H 49.7434 -4.46239 -3.47688 0
M  V30 474 H 48.3004 -5.36884 -3.69592 0
M  V30 475 N 51.7335 -0.305618 -1.54608 0
M  V30 476 C 52.6965 0.555591 -2.22364 0
M  V30 477 C 53.6965 1.05768 -1.21119 0
M  V30 478 O 54.8865 0.952972 -1.45822 0
M  V30 479 C 52.0185 1.76974 -2.91364 0
M  V30 480 H 53.2115 -0.0364572 -2.99878 0
M  V30 481 H 50.7645 -0.0565007 -1.56198 0
M  V30 482 H 51.4995 2.40151 -2.17941 0
M  V30 483 H 51.2845 1.41732 -3.65588 0
M  V30 484 H 52.7745 2.38148 -3.43038 0
M  V30 485 N 53.2116 1.57565 -0.0334293 0
M  V30 486 C 54.1436 2.0739 0.975811 0
M  V30 487 C 55.1566 0.998166 1.2861 0
M  V30 488 O 56.3456 1.27426 1.25 0
M  V30 489 C 53.4456 2.4871 2.30209 0
M  V30 490 C 52.6186 3.79413 2.17634 0
M  V30 491 C 51.6776 4.07237 3.33233 0
M  V30 492 O 50.7036 4.77425 3.09927 0
M  V30 493 N 51.9056 3.5775 4.5716 0
M  V30 494 H 54.6706 2.94598 0.55066 0
M  V30 495 H 52.2316 1.61173 0.15323 0
M  V30 496 H 54.2236 2.64413 3.06378 0
M  V30 497 H 52.7936 1.66845 2.64351 0
M  V30 498 H 52.0136 3.73465 1.26165 0
M  V30 499 H 53.3016 4.65038 2.0644 0
M  V30 500 H 52.6996 3.00976 4.78989 0
M  V30 501 H 51.2566 3.78724 5.30482 0
M  V30 502 N 54.6897 -0.239769 1.55765 0
M  V30 503 C 56.1057 -0.588624 1.48349 0
M  V30 504 C 56.3057 -1.88005 0.72502 0
M  V30 505 O 55.3617 -2.51186 0.257269 0
M  V30 506 C 56.6747 -0.68474 2.928 0
M  V30 507 C 58.2227 -0.77659 3.03213 0
M  V30 508 C 58.6977 -0.904207 4.48986 0
M  V30 509 N 60.1887 -0.968896 4.52953 0
M  V30 510 C 60.9237 -1.08703 5.63002 0
M  V30 511 N 60.4197 -1.17026 6.82845 0
M  V30 512 N 62.2127 -1.12074 5.50814 0
M  V30 513 H 54.3637 0.607911 2.03515 0
M  V30 514 H 56.6267 0.21083 0.924259 0
M  V30 515 H 56.3327 0.194284 3.51163 0
M  V30 516 H 56.2067 -1.55435 3.43686 0
M  V30 517 H 58.5937 -1.64606 2.44926 0
M  V30 518 H 58.6747 0.118315 2.55526 0
M  V30 519 H 58.3187 -0.0392633 5.07885 0
M  V30 520 H 58.2487 -1.81426 4.9436 0
M  V30 521 H 60.7397 -0.915633 3.6664 0
M  V30 522 H 61.0527 -1.25966 7.62465 0
M  V30 523 H 59.3977 -1.13971 6.85591 0
M  V30 524 H 62.5887 -1.05226 4.5612 0
M  V30 525 H 62.7617 -1.20936 6.36615 0
M  V30 526 N 56.1678 -1.49265 -0.50573 0
M  V30 527 C 57.3928 -1.62478 -1.28902 0
M  V30 528 C 57.8178 -0.294332 -1.85783 0
M  V30 529 O 57.1758 0.737412 -1.65626 0
M  V30 530 C 57.2238 -2.69268 -2.39848 0
M  V30 531 O 56.3278 -2.28113 -3.43567 0
M  V30 532 H 55.6688 -0.54399 -0.380751 0
M  V30 533 H 58.1988 -1.95421 -0.605952 0
M  V30 534 H 58.2088 -2.91291 -2.85681 0
M  V30 535 H 56.8838 -3.65846 -1.97812 0
M  V30 536 H 55.4608 -2.16401 -3.03685 0
M  V30 537 N 57.6459 0.756429 -1.3826 0
M  V30 538 C 58.5779 1.87971 -1.31147 0
M  V30 539 C 59.5909 1.61248 -0.224239 0
M  V30 540 O 60.7799 1.71881 -0.481581 0
M  V30 541 C 57.8799 3.23545 -1.00857 0
M  V30 542 C 57.0529 3.77794 -2.20432 0
M  V30 543 C 56.1119 4.91877 -1.86931 0
M  V30 544 O 55.1379 5.06659 -2.59395 0
M  V30 545 N 56.3399 5.74643 -0.822568 0
M  V30 546 H 59.1049 1.94585 -2.2794 0
M  V30 547 H 56.6659 0.936234 -1.32084 0
M  V30 548 H 58.6579 3.97403 -0.765021 0
M  V30 549 H 57.2279 3.12335 -0.128687 0
M  V30 550 H 56.4479 2.95534 -2.6087 0
M  V30 551 H 57.7359 4.10771 -3.00241 0
M  V30 552 H 57.1339 5.65266 -0.221575 0
M  V30 553 H 55.6909 6.48661 -0.638899 0
M  V30 554 N 59.124 1.23083 0.984299 0
M  V30 555 C 60.054 1.03292 2.09411 0
M  V30 556 C 61.035 -0.048923 1.7003 0
M  V30 557 O 62.22 0.114967 1.93859 0
M  V30 558 C 59.35 0.619155 3.41736 0
M  V30 559 C 58.304 1.64791 3.95004 0
M  V30 560 C 57.63 1.0897 5.23478 0
M  V30 561 C 58.93 3.03999 4.24714 0
M  V30 562 H 60.624 1.96119 2.26225 0
M  V30 563 H 58.17 0.944344 1.08711 0
M  V30 564 H 60.123 0.467777 4.18796 0
M  V30 565 H 58.847 -0.344786 3.24775 0
M  V30 566 H 57.506 1.78721 3.20085 0
M  V30 567 H 57.154 0.11686 5.02864 0
M  V30 568 H 56.854 1.77704 5.60085 0
M  V30 569 H 58.378 0.950093 6.03163 0
M  V30 570 H 59.792 2.93393 4.92538 0
M  V30 571 H 58.189 3.69936 4.72512 0
M  V30 572 H 59.259 3.53285 3.32142 0
M  V30 573 N 60.6021 -1.18246 1.0419 0
M  V30 574 C 61.8481 -1.88536 0.747122 0
M  V30 575 C 62.1811 -1.80223 -0.723409 0
M  V30 576 O 61.4561 -1.20337 -1.52804 0
M  V30 577 C 61.7391 -3.38968 1.21544 0
M  V30 578 C 61.5921 -3.56084 2.74816 0
M  V30 579 C 62.9111 -4.32648 0.806482 0
M  V30 580 H 60.0301 -0.684619 0.272883 0
M  V30 581 H 62.6721 -1.39113 1.29413 0
M  V30 582 H 60.8221 -3.8119 0.750081 0
M  V30 583 H 62.4941 -3.22946 3.29399 0
M  V30 584 H 60.7371 -2.98699 3.14582 0
M  V30 585 H 61.4081 -4.61639 3.02644 0
M  V30 586 H 63.8841 -3.98211 1.20695 0
M  V30 587 H 62.7601 -5.36462 1.1619 0
M  V30 588 H 63.0211 -4.41146 -0.29029 0
M  V30 589 N 62.0802 -0.821533 -1.34494 0
M  V30 590 C 62.9902 -0.244355 -2.33324 0
M  V30 591 C 64.0062 0.620527 -1.62559 0
M  V30 592 O 65.1822 0.528754 -1.94335 0
M  V30 593 C 62.2472 0.585368 -3.41723 0
M  V30 594 C 61.3082 -0.301752 -4.28238 0
M  V30 595 C 60.5412 0.488466 -5.3146 0
M  V30 596 O 60.7642 1.72186 -5.4379 0
M  V30 597 O 59.6982 -0.12848 -6.01763 0
M  V30 598 H 63.5242 -1.06231 -2.84515 0
M  V30 599 H 61.1092 -0.583645 -1.37528 0
M  V30 600 H 62.9912 1.05747 -4.07916 0
M  V30 601 H 61.6662 1.38068 -2.92778 0
M  V30 602 H 60.5732 -0.821315 -3.64973 0
M  V30 603 H 61.9062 -1.06138 -4.8062 0
M  V30 604 N 63.5583 1.46682 -0.576371 0
M  V30 605 C 64.4883 2.33028 0.148397 0
M  V30 606 C 65.4693 1.44961 0.889956 0
M  V30 607 O 66.6543 1.73789 0.866662 0
M  V30 608 C 63.7843 3.27117 1.1667 0
M  V30 609 C 62.7383 4.24575 0.540386 0
M  V30 610 C 62.0643 5.08126 1.6647 0
M  V30 611 C 63.3643 5.19722 -0.518331 0
M  V30 612 H 65.0583 2.93875 -0.572509 0
M  V30 613 H 62.6043 1.41315 -0.276768 0
M  V30 614 H 64.5573 3.86374 1.68204 0
M  V30 615 H 63.2813 2.64364 1.9178 0
M  V30 616 H 61.9403 3.66571 0.0461769 0
M  V30 617 H 61.5883 4.41762 2.40531 0
M  V30 618 H 61.2883 5.74122 1.25131 0
M  V30 619 H 62.8123 5.70246 2.18293 0
M  V30 620 H 64.2263 5.73232 -0.0883058 0
M  V30 621 H 62.6233 5.94026 -0.851679 0
M  V30 622 H 63.6933 4.64037 -1.40703 0
M  V30 623 N 65.0364 0.313813 1.54444 0
M  V30 624 C 65.9664 -0.549454 2.26943 0
M  V30 625 C 66.9474 -1.12741 1.27372 0
M  V30 626 O 68.1324 -1.15436 1.56167 0
M  V30 627 C 65.2624 -1.71523 3.01989 0
M  V30 628 C 64.2164 -1.26703 4.08816 0
M  V30 629 C 63.5424 -2.51898 4.71647 0
M  V30 630 C 64.8424 -0.388962 5.2085 0
M  V30 631 H 66.5364 0.0552661 2.99349 0
M  V30 632 H 64.0824 0.0280207 1.43973 0
M  V30 633 H 66.0354 -2.32535 3.51433 0
M  V30 634 H 64.7594 -2.34639 2.27183 0
M  V30 635 H 63.4184 -0.679896 3.6024 0
M  V30 636 H 63.0664 -3.13356 3.93468 0
M  V30 637 H 62.7664 -2.22605 5.43802 0
M  V30 638 H 64.2904 -3.1369 5.23861 0
M  V30 639 H 65.7044 -0.905107 5.6611 0
M  V30 640 H 64.1014 -0.18924 5.99802 0
M  V30 641 H 65.1714 0.582699 4.81386 0
M  V30 642 N 66.5145 -1.57545 0.0417849 0
M  V30 643 C 67.7605 -1.92601 -0.635021 0
M  V30 644 C 68.0935 -0.919627 -1.71045 0
M  V30 645 O 67.3685 0.0557892 -1.9442 0
M  V30 646 C 67.6515 -3.38085 -1.23979 0
M  V30 647 C 67.5045 -4.49467 -0.173057 0
M  V30 648 C 68.8235 -3.83776 -2.15416 0
M  V30 649 H 65.9425 -0.700397 -0.229374 0
M  V30 650 H 68.5845 -1.89728 0.101633 0
M  V30 651 H 66.7345 -3.40664 -1.86762 0
M  V30 652 H 68.4065 -4.59018 0.458312 0
M  V30 653 H 66.6495 -4.30909 0.499996 0
M  V30 654 H 67.3205 -5.48323 -0.636054 0
M  V30 655 H 69.7965 -3.83013 -1.62605 0
M  V30 656 H 68.6725 -4.8624 -2.54679 0
M  V30 657 H 68.9335 -3.19998 -3.05047 0
M  V30 658 N 67.9926 0.231505 -1.5589 0
M  V30 659 C 69.2176 0.978689 -1.82856 0
M  V30 660 C 69.6426 1.77559 -0.620846 0
M  V30 661 O 69.0006 1.76119 0.430305 0
M  V30 662 C 69.0486 1.87997 -3.07716 0
M  V30 663 O 68.1526 2.97393 -2.85712 0
M  V30 664 H 67.4936 0.277663 -0.603158 0
M  V30 665 H 70.0236 0.24783 -2.03093 0
M  V30 666 H 70.0336 2.2917 -3.37558 0
M  V30 667 H 68.7086 1.29417 -3.95252 0
M  V30 668 H 67.2856 2.60238 -2.67078 0
M  V30 669 N 69.4707 1.49531 0.497807 0
M  V30 670 C 70.7187 1.58865 1.24926 0
M  V30 671 C 71.0397 0.278721 1.92998 0
M  V30 672 O 70.3097 -0.702144 1.82885 0
M  V30 673 H 68.8897 0.585343 0.464094 0
M  V30 674 H 71.5517 1.86174 0.57666 0
M  V30 675 H 70.6477 2.38633 2.01149 0
M  V30 676 N 70.9488 -0.749086 1.3866 0
M  V30 677 C 72.1738 -1.54344 1.38538 0
M  V30 678 C 72.5988 -1.88088 -0.0216655 0
M  V30 679 O 71.9568 -1.50899 -1.00494 0
M  V30 680 C 72.0048 -2.8164 2.25192 0
M  V30 681 O 71.1088 -3.7698 1.67212 0
M  V30 682 H 70.4498 -0.466654 0.472367 0
M  V30 683 H 72.9798 -0.925355 1.82478 0
M  V30 684 H 72.9898 -3.30519 2.3921 0
M  V30 685 H 71.6648 -2.56411 3.27454 0
M  V30 686 H 70.2418 -3.35699 1.6236 0
M  V30 687 N 72.4269 -1.23603 -0.977757 0
M  V30 688 C 73.3569 -1.04401 -2.0886 0
M  V30 689 C 74.3379 0.0399052 -1.70053 0
M  V30 690 O 75.5229 -0.125246 -1.93796 0
M  V30 691 C 72.6529 -0.637269 -3.41403 0
M  V30 692 C 71.6069 -1.66883 -3.94124 0
M  V30 693 C 70.9329 -1.11745 -5.22893 0
M  V30 694 C 72.2329 -3.06247 -4.23096 0
M  V30 695 H 73.9269 -1.97316 -2.25182 0
M  V30 696 H 71.4729 -0.950096 -1.08209 0
M  V30 697 H 73.4259 -0.48998 -4.18542 0
M  V30 698 H 72.1499 0.327557 -3.24953 0
M  V30 699 H 70.8089 -1.80416 -3.19133 0
M  V30 700 H 70.4569 -0.143527 -5.02795 0
M  V30 701 H 70.1569 -1.80672 -5.59134 0
M  V30 702 H 71.6809 -0.982067 -6.02651 0
M  V30 703 H 73.0949 -2.96001 -4.90975 0
M  V30 704 H 71.4919 -3.72436 -4.70544 0
M  V30 705 H 72.5619 -3.55041 -3.30263 0
M  V30 706 N 73.905 1.17692 -1.04816 0
M  V30 707 C 74.815 2.25229 -0.65643 0
M  V30 708 C 75.831 1.71018 0.320761 0
M  V30 709 O 77.007 2.00649 0.173805 0
M  V30 710 C 74.072 3.46684 -0.0332629 0
M  V30 711 C 73.133 4.15997 -1.06042 0
M  V30 712 C 72.366 5.31654 -0.466893 0
M  V30 713 O 72.589 5.65777 0.724758 0
M  V30 714 O 71.523 5.89831 -1.1993 0
M  V30 715 H 75.349 2.61016 -1.55255 0
M  V30 716 H 72.934 1.24919 -0.81949 0
M  V30 717 H 74.816 4.20234 0.313256 0
M  V30 718 H 73.491 3.12703 0.836566 0
M  V30 719 H 72.398 3.44482 -1.45886 0
M  V30 720 H 73.731 4.53996 -1.90127 0
M  V30 721 N 75.3831 0.828654 1.34056 0
M  V30 722 C 76.6311 0.41863 1.97717 0
M  V30 723 C 76.9521 -1.02314 1.66002 0
M  V30 724 O 76.2221 -1.71119 0.953683 0
M  V30 725 H 74.8021 0.151809 0.731412 0
M  V30 726 H 77.4641 1.05936 1.63596 0
M  V30 727 H 76.5601 0.542318 3.07352 0
M  V30 728 N 76.8612 -1.46375 0.584142 0
M  V30 729 C 78.1082 -2.02378 0.0702675 0
M  V30 730 C 78.4362 -1.45545 -1.29023 0
M  V30 731 O 77.6912 -0.610967 -1.85918 0
M  V30 732 C 77.9902 -3.57373 -0.0439342 0
M  V30 733 C 77.6562 -4.33252 1.24915 0
M  V30 734 C 76.3182 -4.53701 1.60341 0
M  V30 735 C 78.6702 -4.7681 2.1048 0
M  V30 736 C 75.9982 -5.1496 2.81128 0
M  V30 737 C 78.3502 -5.39404 3.30494 0
M  V30 738 C 77.0142 -5.5808 3.66201 0
M  V30 739 H 76.2842 -0.740554 0.0257127 0
M  V30 740 H 78.9312 -1.75727 0.761065 0
M  V30 741 H 77.2362 -3.83169 -0.817869 0
M  V30 742 H 78.9332 -3.98384 -0.457318 0
M  V30 743 H 75.5232 -4.17633 0.963364 0
M  V30 744 H 79.7072 -4.60766 1.84414 0
M  V30 745 H 74.9632 -5.27611 3.08928 0
M  V30 746 H 79.1372 -5.72114 3.97063 0
M  V30 747 H 76.7642 -6.05318 4.59885 0
M  V30 748 N 78.3393 -0.321999 -1.54275 0
M  V30 749 C 79.2493 0.553631 -2.27974 0
M  V30 750 C 80.2653 1.13054 -1.32268 0
M  V30 751 O 81.4413 1.15084 -1.6528 0
M  V30 752 C 78.5063 1.69927 -3.02201 0
M  V30 753 C 77.5673 1.15433 -4.1349 0
M  V30 754 C 76.8003 2.24537 -4.84168 0
M  V30 755 O 77.0233 3.44852 -4.5435 0
M  V30 756 O 75.9573 1.90044 -5.7111 0
M  V30 757 H 79.7833 -0.0448345 -3.03667 0
M  V30 758 H 77.3683 -0.0877418 -1.49142 0
M  V30 759 H 79.2503 2.3663 -3.48689 0
M  V30 760 H 77.9253 2.28395 -2.29385 0
M  V30 761 H 76.8323 0.452436 -3.71354 0
M  V30 762 H 78.1653 0.614805 -4.88345 0
M  V30 763 N 79.8174 1.5752 -0.0501392 0
M  V30 764 C 81.0424 1.97376 0.636997 0
M  V30 765 C 81.4674 0.927466 1.63645 0
M  V30 766 O 80.8254 -0.10941 1.8097 0
M  V30 767 C 80.8734 3.36304 1.30123 0
M  V30 768 O 79.9774 3.34156 2.41689 0
M  V30 769 H 79.3184 0.642998 0.165679 0
M  V30 770 H 81.8484 2.04258 -0.118233 0
M  V30 771 H 81.8584 3.73008 1.65315 0
M  V30 772 H 80.5334 4.11993 0.568746 0
M  V30 773 H 79.1104 3.09196 2.08451 0
M  V30 774 N 81.2955 -0.223234 1.56011 0
M  V30 775 C 82.5415 -0.949279 1.79211 0
M  V30 776 C 82.8745 -1.84054 0.619494 0
M  V30 777 O 82.1495 -1.90726 -0.381317 0
M  V30 778 C 82.4325 -1.78965 3.12479 0
M  V30 779 C 82.2855 -0.924997 4.40186 0
M  V30 780 C 83.6045 -2.76774 3.42175 0
M  V30 781 H 80.7235 -0.343676 0.651963 0
M  V30 782 H 83.3655 -0.218253 1.88742 0
M  V30 783 H 81.5155 -2.41291 3.04485 0
M  V30 784 H 83.1875 -0.318615 4.60198 0
M  V30 785 H 81.4305 -0.230344 4.33188 0
M  V30 786 H 82.1015 -1.54735 5.29869 0
M  V30 787 H 84.5775 -2.24584 3.50287 0
M  V30 788 H 83.4535 -3.32678 4.36597 0
M  V30 789 H 83.7145 -3.54429 2.64258 0
M  V30 790 N 82.7736 -1.49793 -0.48987 0
M  V30 791 C 83.7036 -1.70201 -1.59856 0
M  V30 792 C 84.6846 -0.55076 -1.60937 0
M  V30 793 O 85.8696 -0.787841 -1.77501 0
M  V30 794 C 82.9996 -1.77882 -2.98287 0
M  V30 795 C 81.9536 -2.92907 -3.12073 0
M  V30 796 C 81.2796 -2.85712 -4.51965 0
M  V30 797 C 82.5796 -4.3369 -2.91051 0
M  V30 798 H 84.2736 -2.63025 -1.43032 0
M  V30 799 H 81.8196 -1.26574 -0.686664 0
M  V30 800 H 83.7726 -1.90744 -3.75759 0
M  V30 801 H 82.4966 -0.816653 -3.16225 0
M  V30 802 H 81.1556 -2.79665 -2.37029 0
M  V30 803 H 80.8036 -1.8738 -4.66795 0
M  V30 804 H 80.5036 -3.62921 -4.62128 0
M  V30 805 H 82.0276 -3.00598 -5.31482 0
M  V30 806 H 83.4416 -4.47555 -3.58284 0
M  V30 807 H 81.8386 -5.12205 -3.12675 0
M  V30 808 H 82.9086 -4.47362 -1.87071 0
M  V30 809 N 84.2517 0.741722 -1.39055 0
M  V30 810 C 85.5287 1.49252 -1.26425 0
M  V30 811 C 85.9087 2.10705 0.129144 0
M  V30 812 O 85.2567 1.98045 1.13976 0
M  V30 813 C 85.4667 2.54934 -2.38347 0
M  V30 814 C 86.8147 3.21506 -2.77343 0
M  V30 815 O 87.8387 2.65245 -2.37747 0
M  V30 816 O 86.6977 4.23294 -3.45665 0
M  V30 817 H 83.7917 0.662451 -0.495064 0
M  V30 818 H 86.3377 0.776121 -1.50912 0
M  V30 819 H 85.1097 2.07857 -3.31529 0
M  V30 820 H 84.7327 3.34141 -2.15489 0
M  V30 821 N 85.7298 1.2412 0.971189 0
M  V30 822 C 86.9758 1.09048 1.71698 0
M  V30 823 C 87.3308 -0.367442 1.88859 0
M  V30 824 O 86.6238 -1.26792 1.43646 0
M  V30 825 C 86.8178 1.75983 3.11071 0
M  V30 826 C 86.6468 3.28133 3.07504 0
M  V30 827 C 85.4168 3.97331 3.1218 0
M  V30 828 C 87.6148 4.24773 2.89952 0
M  V30 829 N 85.5968 5.3639 2.98596 0
M  V30 830 C 86.9678 5.50806 2.84627 0
M  V30 831 C 89.0228 4.15392 2.74506 0
M  V30 832 C 87.7258 6.68533 2.65437 0
M  V30 833 C 89.7518 5.32793 2.56682 0
M  V30 834 C 89.1138 6.57756 2.52063 0
M  V30 835 H 85.2128 0.453632 0.636979 0
M  V30 836 H 87.7968 1.56983 1.15171 0
M  V30 837 H 85.9678 1.30566 3.65796 0
M  V30 838 H 87.6998 1.53803 3.74335 0
M  V30 839 H 84.4548 3.48473 3.20724 0
M  V30 840 H 84.8788 6.09321 2.95054 0
M  V30 841 H 89.5208 3.19543 2.76861 0
M  V30 842 H 87.2388 7.64509 2.61825 0
M  V30 843 H 90.8248 5.27383 2.4568 0
M  V30 844 H 89.7048 7.4707 2.38446 0
M  V30 845 N 87.2079 -1.17134 1.05439 0
M  V30 846 C 88.1379 -2.2342 0.678649 0
M  V30 847 C 89.1189 -1.66971 -0.32476 0
M  V30 848 O 90.3039 -1.93149 -0.201802 0
M  V30 849 C 87.4339 -3.47256 0.0552099 0
M  V30 850 C 86.3879 -4.16543 0.98365 0
M  V30 851 C 85.7139 -5.34231 0.223961 0
M  V30 852 C 87.0139 -4.68495 2.3089 0
M  V30 853 H 88.7079 -2.55105 1.56722 0
M  V30 854 H 86.2539 -1.2262 0.754998 0
M  V30 855 H 88.2069 -4.20828 -0.21946 0
M  V30 856 H 86.9309 -3.14846 -0.868319 0
M  V30 857 H 85.5899 -3.44887 1.24293 0
M  V30 858 H 85.2379 -4.98071 -0.702412 0
M  V30 859 H 84.9379 -5.81527 0.842627 0
M  V30 860 H 86.4619 -6.10585 -0.0433671 0
M  V30 861 H 87.8759 -5.33691 2.09396 0
M  V30 862 H 86.2729 -5.26379 2.88176 0
M  V30 863 H 87.3429 -3.85169 2.94572 0
M  V30 864 N 88.686 -0.835752 -1.33615 0
M  V30 865 C 89.616 -0.281739 -2.31794 0
M  V30 866 C 90.597 0.608833 -1.58831 0
M  V30 867 O 91.782 0.533035 -1.86741 0
M  V30 868 C 88.912 0.546612 -3.42971 0
M  V30 869 C 87.866 -0.247904 -4.27281 0
M  V30 870 C 87.192 0.704001 -5.30045 0
M  V30 871 C 88.492 -1.46324 -5.01385 0
M  V30 872 H 90.186 -1.10206 -2.78379 0
M  V30 873 H 87.732 -0.531388 -1.33837 0
M  V30 874 H 89.685 0.944467 -4.1068 0
M  V30 875 H 88.409 1.40011 -2.95067 0
M  V30 876 H 87.068 -0.627281 -3.61194 0
M  V30 877 H 86.716 1.55381 -4.78399 0
M  V30 878 H 86.416 0.176524 -5.87335 0
M  V30 879 H 87.94 1.09944 -6.0062 0
M  V30 880 H 89.354 -1.13871 -5.61877 0
M  V30 881 H 87.751 -1.92728 -5.6831 0
M  V30 882 H 88.821 -2.23467 -4.30338 0
M  V30 883 N 90.1641 1.46063 -0.591896 0
M  V30 884 C 91.3891 2.07226 -0.0850314 0
M  V30 885 C 91.8141 1.43625 1.21463 0
M  V30 886 O 91.1721 0.523305 1.73583 0
M  V30 887 C 91.2201 3.60554 0.0576567 0
M  V30 888 O 90.3241 3.97128 1.11188 0
M  V30 889 H 89.6651 0.660615 -0.0669568 0
M  V30 890 H 92.1951 1.8756 -0.81745 0
M  V30 891 H 92.2051 4.07165 0.2609 0
M  V30 892 H 90.8801 4.06235 -0.891416 0
M  V30 893 H 89.4571 3.62213 0.886356 0
M  V30 894 N 91.6422 0.330177 1.54103 0
M  V30 895 C 92.8882 -0.263542 2.01685 0
M  V30 896 C 93.2432 -1.49258 1.21408 0
M  V30 897 O 92.5362 -1.89395 0.289852 0
M  V30 898 C 92.7302 -0.643134 3.51566 0
M  V30 899 C 92.5592 0.547571 4.46354 0
M  V30 900 C 91.3292 1.04873 4.94297 0
M  V30 901 C 93.5272 1.40184 4.94826 0
M  V30 902 N 91.5092 2.20316 5.73005 0
M  V30 903 C 92.8802 2.40335 5.71524 0
M  V30 904 C 94.9352 1.42884 4.76958 0
M  V30 905 C 93.6382 3.42998 6.32254 0
M  V30 906 C 95.6642 2.44421 5.38528 0
M  V30 907 C 95.0262 3.43298 6.15082 0
M  V30 908 H 91.1252 -0.0601026 0.779687 0
M  V30 909 H 93.7092 0.466714 1.89023 0
M  V30 910 H 91.8802 -1.34251 3.6446 0
M  V30 911 H 93.6122 -1.21889 3.85908 0
M  V30 912 H 90.3672 0.618956 4.69538 0
M  V30 913 H 90.7912 2.78565 6.17034 0
M  V30 914 H 95.4332 0.678049 4.17328 0
M  V30 915 H 93.1512 4.1898 6.91 0
M  V30 916 H 96.7372 2.4732 5.26616 0
M  V30 917 H 95.6172 4.20579 6.61878 0
M  V30 918 N 93.1203 -1.57491 0.0584922 0
M  V30 919 C 94.0303 -2.15448 -0.928414 0
M  V30 920 C 95.0463 -1.11416 -1.3365 0
M  V30 921 O 96.2223 -1.4362 -1.41193 0
M  V30 922 C 93.2873 -2.69393 -2.18239 0
M  V30 923 C 92.3483 -3.88249 -1.83196 0
M  V30 924 C 91.5813 -4.39613 -3.02616 0
M  V30 925 O 91.8043 -3.90023 -4.16219 0
M  V30 926 O 90.7383 -5.31111 -2.83204 0
M  V30 927 H 94.5643 -3.00112 -0.465483 0
M  V30 928 H 92.1493 -1.48499 -0.163826 0
M  V30 929 H 94.0313 -3.04026 -2.91798 0
M  V30 930 H 92.7063 -1.87796 -2.63656 0
M  V30 931 H 91.6133 -3.58492 -1.06931 0
M  V30 932 H 92.9463 -4.71098 -1.42573 0
M  V30 933 N 94.5984 0.214957 -1.56127 0
M  V30 934 C 95.8444 0.939762 -1.79712 0
M  V30 935 C 96.1774 1.83723 -0.629247 0
M  V30 936 O 95.4524 1.90925 0.371197 0
M  V30 937 C 95.7354 1.77306 -3.13424 0
M  V30 938 C 95.5884 0.90164 -4.40671 0
M  V30 939 C 96.9074 2.74956 -3.43638 0
M  V30 940 H 94.0264 0.340214 -0.653776 0
M  V30 941 H 96.6684 0.20824 -1.88855 0
M  V30 942 H 94.8184 2.39673 -3.0576 0
M  V30 943 H 96.4904 0.294206 -4.60361 0
M  V30 944 H 94.7334 0.207368 -4.33304 0
M  V30 945 H 95.4044 1.51923 -5.30682 0
M  V30 946 H 97.8804 2.22724 -3.51473 0
M  V30 947 H 96.7564 3.30358 -4.38355 0
M  V30 948 H 97.0174 3.53023 -2.66134 0
M  V30 949 N 96.0765 1.50051 0.48192 0
M  V30 950 C 97.0065 1.71046 1.58951 0
M  V30 951 C 97.9875 0.559288 1.60642 0
M  V30 952 O 99.1725 0.797243 1.77081 0
M  V30 953 C 96.3025 1.79462 2.97339 0
M  V30 954 C 95.2565 2.94558 3.10515 0
M  V30 955 C 94.5825 2.88105 4.50444 0
M  V30 956 C 95.8825 4.35227 2.88747 0
M  V30 957 H 97.5765 2.6378 1.41635 0
M  V30 958 H 95.1225 1.26936 0.679942 0
M  V30 959 H 97.0755 1.92734 3.74742 0
M  V30 960 H 95.7995 0.833412 3.15788 0
M  V30 961 H 94.4585 2.80918 2.35543 0
M  V30 962 H 94.1065 1.89853 4.65795 0
M  V30 963 H 93.8065 3.65366 4.60197 0
M  V30 964 H 95.3305 3.03412 5.29881 0
M  V30 965 H 96.7445 4.49449 3.55905 0
M  V30 966 H 95.1415 5.13856 3.09955 0
M  V30 967 H 96.2115 4.48347 1.84696 0
M  V30 968 N 97.5546 -0.734337 1.39446 0
M  V30 969 C 98.7796 -1.52866 1.40167 0
M  V30 970 C 99.2046 -1.881 -0.00171513 0
M  V30 971 O 98.5626 -1.51957 -0.988879 0
M  V30 972 C 98.6106 -2.79235 2.28167 0
M  V30 973 O 97.7146 -3.75185 1.71201 0
M  V30 974 H 97.0556 -0.461618 0.477289 0
M  V30 975 H 99.5856 -0.905949 1.8345 0
M  V30 976 H 99.5956 -3.27963 2.42702 0
M  V30 977 H 98.2706 -2.52923 3.30156 0
M  V30 978 H 96.8476 -3.33958 1.65912 0
M  V30 979 N 99.0327 -1.24633 -0.964593 0
M  V30 980 C 100.279 -1.09957 -1.71117 0
M  V30 981 C 100.634 0.357422 -1.89051 0
M  V30 982 O 99.9267 1.26029 -1.44317 0
M  V30 983 C 100.121 -1.7763 -3.10133 0
M  V30 984 C 99.9497 -3.29759 -3.05759 0
M  V30 985 C 98.7197 -3.98981 -3.10068 0
M  V30 986 C 100.918 -4.26305 -2.87695 0
M  V30 987 N 98.8997 -5.37966 -2.95747 0
M  V30 988 C 100.271 -5.52308 -2.81702 0
M  V30 989 C 102.326 -4.16842 -2.72299 0
M  V30 990 C 101.029 -6.69931 -2.61887 0
M  V30 991 C 103.055 -5.34147 -2.53853 0
M  V30 992 C 102.417 -6.59084 -2.48572 0
M  V30 993 H 98.5157 -0.457003 -0.634564 0
M  V30 994 H 101.1 -1.57592 -1.14337 0
M  V30 995 H 99.2707 -1.32504 -3.65099 0
M  V30 996 H 101.003 -1.55786 -3.73514 0
M  V30 997 H 97.7577 -3.50169 -3.18871 0
M  V30 998 H 98.1817 -6.10877 -2.91818 0
M  V30 999 H 102.824 -3.21007 -2.75163 0
M  V30 1000 H 100.542 -7.65886 -2.57767 0
M  V30 1001 H 104.128 -5.28678 -2.4288 0
M  V30 1002 H 103.008 -7.48324 -2.34481 0
M  V30 1003 N 100.511 1.16574 -1.06058 0
M  V30 1004 C 101.421 2.2452 -0.680282 0
M  V30 1005 C 102.437 1.71348 0.302604 0
M  V30 1006 O 103.613 2.00822 0.152513 0
M  V30 1007 C 100.678 3.46629 -0.0700315 0
M  V30 1008 C 99.7388 4.14849 -1.10448 0
M  V30 1009 C 98.9718 5.31129 -0.523256 0
M  V30 1010 O 99.1948 5.66514 0.664709 0
M  V30 1011 O 98.1288 5.88526 -1.26179 0
M  V30 1012 H 101.955 2.59355 -1.58015 0
M  V30 1013 H 99.5398 1.24043 -0.832694 0
M  V30 1014 H 101.422 4.20543 0.268667 0
M  V30 1015 H 100.097 3.13573 0.803353 0
M  V30 1016 H 99.0038 3.42916 -1.49532 0
M  V30 1017 H 100.337 4.51954 -1.94931 0
M  V30 1018 N 101.989 0.842826 1.3317 0
M  V30 1019 C 103.266 0.362216 1.92217 0
M  V30 1020 C 103.646 -1.15289 1.76838 0
M  V30 1021 O 102.994 -1.96914 1.15919 0
M  V30 1022 C 103.204 0.813495 3.39387 0
M  V30 1023 C 104.552 0.823804 4.16532 0
M  V30 1024 O 105.576 0.757358 3.48055 0
M  V30 1025 O 104.435 0.915193 5.38782 0
M  V30 1026 H 101.529 0.103317 0.820521 0
M  V30 1027 H 104.075 0.928942 1.42017 0
M  V30 1028 H 102.847 1.85624 3.4447 0
M  V30 1029 H 102.47 0.223561 3.96971 0
M  V30 1030 N 103.467 -1.45747 0.599634 0
M  V30 1031 C 104.697 -2.06369 0.0977132 0
M  V30 1032 C 105.105 -1.44624 -1.21985 0
M  V30 1033 O 104.448 -0.551831 -1.75216 0
M  V30 1034 C 104.51 -3.59284 -0.124673 0
M  V30 1035 C 104.174 -4.43318 1.10987 0
M  V30 1036 C 105.171 -4.78796 2.02609 0
M  V30 1037 C 102.856 -4.84194 1.33647 0
M  V30 1038 C 104.85 -5.53997 3.15224 0
M  V30 1039 C 102.537 -5.5915 2.46565 0
M  V30 1040 C 103.535 -5.93968 3.37182 0
M  V30 1041 O 103.223 -6.67405 4.48136 0
M  V30 1042 H 102.955 -0.673122 0.0623153 0
M  V30 1043 H 105.509 -1.88104 0.824981 0
M  V30 1044 H 103.739 -3.75919 -0.906745 0
M  V30 1045 H 105.428 -4.01775 -0.577201 0
M  V30 1046 H 106.194 -4.47781 1.86325 0
M  V30 1047 H 102.073 -4.56534 0.64016 0
M  V30 1048 H 105.617 -5.81091 3.85978 0
M  V30 1049 H 101.514 -5.89579 2.62805 0
M  V30 1050 H 102.282 -6.85847 4.46717 0
M  V30 1051 N 104.945 -0.338344 -1.53925 0
M  V30 1052 C 105.855 0.529421 -2.28548 0
M  V30 1053 C 106.871 1.11645 -1.3346 0
M  V30 1054 O 108.047 1.13325 -1.66492 0
M  V30 1055 C 105.112 1.66713 -3.03987 0
M  V30 1056 C 104.173 1.11041 -4.14691 0
M  V30 1057 C 103.406 2.19389 -4.86522 0
M  V30 1058 O 103.629 3.40013 -4.57982 0
M  V30 1059 O 102.563 1.83976 -5.73094 0
M  V30 1060 H 106.389 -0.0770399 -3.03602 0
M  V30 1061 H 103.974 -0.103555 -1.49041 0
M  V30 1062 H 105.856 2.32918 -3.5118 0
M  V30 1063 H 104.531 2.25949 -2.31794 0
M  V30 1064 H 103.438 0.413024 -3.71813 0
M  V30 1065 H 104.771 0.562975 -4.8897 0
M  V30 1066 N 106.423 1.57458 -0.0668435 0
M  V30 1067 C 107.671 1.92919 0.602214 0
M  V30 1068 C 107.992 0.947215 1.70449 0
M  V30 1069 O 107.262 -0.00544117 1.95899 0
M  V30 1070 H 105.842 0.71217 0.22544 0
M  V30 1071 H 108.504 1.94508 -0.123535 0
M  V30 1072 H 107.6 2.94589 1.03073 0
M  V30 1073 N 107.901 -0.206675 1.56239 0
M  V30 1074 C 109.148 -0.928842 1.79941 0
M  V30 1075 C 109.476 -1.83734 0.638131 0
M  V30 1076 O 108.731 -1.92039 -0.376746 0
M  V30 1077 C 109.03 -1.78675 3.09532 0
M  V30 1078 C 108.696 -1.03022 4.38973 0
M  V30 1079 C 107.358 -0.821302 4.74139 0
M  V30 1080 C 109.71 -0.497081 5.18824 0
M  V30 1081 C 107.038 -0.0675719 5.86661 0
M  V30 1082 C 109.39 0.24338 6.32132 0
M  V30 1083 C 108.054 0.463422 6.65889 0
M  V30 1084 H 107.324 -0.339887 0.658451 0
M  V30 1085 H 109.971 -0.195977 1.90495 0
M  V30 1086 H 108.276 -2.58794 2.94165 0
M  V30 1087 H 109.973 -2.34792 3.25075 0
M  V30 1088 H 106.563 -1.20306 4.11369 0
M  V30 1089 H 110.747 -0.645921 4.92079 0
M  V30 1090 H 106.003 0.112995 6.11296 0
M  V30 1091 H 110.177 0.66393 6.93228 0
M  V30 1092 H 107.804 1.04938 7.52922 0
M  V30 1093 N 109.379 -1.50304 -0.473955 0
M  V30 1094 C 110.329 -1.65347 -1.56985 0
M  V30 1095 C 111.313 -0.508176 -1.52664 0
M  V30 1096 O 112.505 -0.762446 -1.59737 0
M  V30 1097 C 109.634 -1.74832 -2.95447 0
M  V30 1098 C 108.72 -2.95028 -3.04662 0
M  V30 1099 N 109.111 -4.18747 -2.83698 0
M  V30 1100 C 107.409 -2.93527 -3.35795 0
M  V30 1101 C 108.11 -4.99687 -2.97805 0
M  V30 1102 N 107.086 -4.33585 -3.2788 0
M  V30 1103 H 110.888 -2.58698 -1.39472 0
M  V30 1104 H 108.402 -1.47449 -0.680629 0
M  V30 1105 H 110.399 -1.83712 -3.7424 0
M  V30 1106 H 109.059 -0.826376 -3.14008 0
M  V30 1107 H 110.07 -4.48291 -2.59337 0
M  V30 1108 H 106.747 -2.10821 -3.60362 0
M  V30 1109 H 108.137 -6.08057 -2.85861 0
M  V30 1110 N 110.857 0.726932 -1.39834 0
M  V30 1111 C 111.787 1.85405 -1.41941 0
M  V30 1112 C 112.768 1.67751 -0.281728 0
M  V30 1113 O 113.953 1.8795 -0.488717 0
M  V30 1114 C 111.083 3.23243 -1.2701 0
M  V30 1115 C 110.037 3.55549 -2.38262 0
M  V30 1116 C 109.363 4.9241 -2.08415 0
M  V30 1117 C 110.663 3.577 -3.80589 0
M  V30 1118 H 112.357 1.83899 -2.36266 0
M  V30 1119 H 109.903 0.883349 -1.13723 0
M  V30 1120 H 111.856 4.01775 -1.27103 0
M  V30 1121 H 110.58 3.25296 -0.291564 0
M  V30 1122 H 109.239 2.79351 -2.37399 0
M  V30 1123 H 108.887 4.91052 -1.0898 0
M  V30 1124 H 108.587 5.14992 -2.82943 0
M  V30 1125 H 110.111 5.73289 -2.10171 0
M  V30 1126 H 111.525 4.26293 -3.83337 0
M  V30 1127 H 109.922 3.91804 -4.54543 0
M  V30 1128 H 110.992 2.57328 -4.10987 0
M  V30 1129 N 112.336 1.25143 0.95797 0
M  V30 1130 C 113.266 1.07711 2.07173 0
M  V30 1131 C 114.247 -0.0128462 1.70095 0
M  V30 1132 O 115.432 0.156061 1.93572 0
M  V30 1133 C 112.562 0.691503 3.40346 0
M  V30 1134 C 111.516 1.73132 3.9142 0
M  V30 1135 C 110.842 1.20049 5.21049 0
M  V30 1136 C 112.142 3.1294 4.1817 0
M  V30 1137 H 113.836 2.00873 2.22014 0
M  V30 1138 H 111.382 0.967191 1.06684 0
M  V30 1139 H 113.335 0.556505 4.17709 0
M  V30 1140 H 112.059 -0.275819 3.25433 0
M  V30 1141 H 110.718 1.8547 3.16222 0
M  V30 1142 H 110.366 0.223499 5.02503 0
M  V30 1143 H 110.066 1.89545 5.56189 0
M  V30 1144 H 111.59 1.07782 6.01012 0
M  V30 1145 H 113.004 3.03775 4.86203 0
M  V30 1146 H 111.401 3.79875 4.64559 0
M  V30 1147 H 112.471 3.6025 3.24573 0
M  V30 1148 N 113.814 -1.1601 1.06675 0
M  V30 1149 C 115.062 -1.86264 0.784229 0
M  V30 1150 C 115.383 -1.82328 -0.691488 0
M  V30 1151 O 114.653 -1.25947 -1.50047 0
M  V30 1152 H 113.233 -0.689621 0.28711 0
M  V30 1153 H 115.895 -1.40664 1.34906 0
M  V30 1154 H 114.991 -2.91595 1.11259 0
M  V30 1155 N 115.292 -0.849877 -1.32721 0
M  V30 1156 C 116.224 -0.248332 -2.27851 0
M  V30 1157 C 117.237 0.577218 -1.52224 0
M  V30 1158 O 118.426 0.402489 -1.73903 0
M  V30 1159 C 115.526 0.668107 -3.32249 0
M  V30 1160 C 114.699 -0.120534 -4.37234 0
M  V30 1161 C 113.758 0.720932 -5.21238 0
M  V30 1162 O 112.784 0.156166 -5.68986 0
M  V30 1163 N 113.986 2.03647 -5.43607 0
M  V30 1164 H 116.751 -1.06575 -2.80111 0
M  V30 1165 H 114.312 -0.709395 -1.45531 0
M  V30 1166 H 116.304 1.23627 -3.85355 0
M  V30 1167 H 114.874 1.38621 -2.80184 0
M  V30 1168 H 114.094 -0.870108 -3.84477 0
M  V30 1169 H 115.382 -0.662406 -5.0447 0
M  V30 1170 H 114.78 2.51871 -5.06535 0
M  V30 1171 H 113.337 2.55287 -5.99727 0
M  V30 1172 N 116.77 1.45427 -0.607355 0
M  V30 1173 C 118.181 1.85756 -0.187535 0
M  V30 1174 C 118.532 1.5077 1.25551 0
M  V30 1175 O 117.657 0.93427 1.95193 0
M  V30 1176 C 118.252 3.37154 -0.333572 0
M  V30 1177 C 116.811 3.76387 0.0315542 0
M  V30 1178 C 115.958 2.69377 -0.658117 0
M  V30 1179 H 118.909 1.36231 -0.81405 0
M  V30 1180 H 118.93 3.78014 0.43428 0
M  V30 1181 H 118.442 3.62586 -1.38393 0
M  V30 1182 H 116.543 3.56571 1.0811 0
M  V30 1183 H 116.656 4.77731 -0.361935 0
M  V30 1184 H 115.02 2.5452 -0.0957873 0
M  V30 1185 H 115.803 2.97646 -1.7106 0
M  V30 1186 N 118.248 0.346503 1.53744 0
M  V30 1187 C 119.178 -0.501193 2.28058 0
M  V30 1188 C 120.159 -1.10014 1.29734 0
M  V30 1189 O 121.344 -1.12097 1.58581 0
M  V30 1190 C 118.474 -1.65078 3.05559 0
M  V30 1191 C 117.428 -1.18003 4.11411 0
M  V30 1192 C 116.754 -2.41837 4.76884 0
M  V30 1193 C 118.054 -0.278394 5.21558 0
M  V30 1194 H 119.748 0.11875 2.99164 0
M  V30 1195 H 117.294 0.0585531 1.43881 0
M  V30 1196 H 119.247 -2.25028 3.56287 0
M  V30 1197 H 117.971 -2.29767 2.32109 0
M  V30 1198 H 116.63 -0.603331 3.61601 0
M  V30 1199 H 116.278 -3.0494 4.00026 0
M  V30 1200 H 115.978 -2.1102 5.48402 0
M  V30 1201 H 117.502 -3.02508 5.30397 0
M  V30 1202 H 118.916 -0.784823 5.67903 0
M  V30 1203 H 117.313 -0.0619707 6.00068 0
M  V30 1204 H 118.383 0.684677 4.80042 0
M  V30 1205 N 119.726 -1.57421 0.075193 0
M  V30 1206 C 120.951 -1.98364 -0.605515 0
M  V30 1207 C 121.376 -0.953383 -1.62149 0
M  V30 1208 O 120.734 0.0806053 -1.81121 0
M  V30 1209 C 120.782 -3.38332 -1.24756 0
M  V30 1210 O 119.886 -3.37959 -2.36342 0
M  V30 1211 H 119.227 -0.645553 -0.155428 0
M  V30 1212 H 121.757 -2.04044 0.150714 0
M  V30 1213 H 121.767 -3.75591 -1.5936 0
M  V30 1214 H 120.442 -4.12846 -0.503129 0
M  V30 1215 H 119.019 -3.12474 -2.03506 0
M  V30 1216 N 121.204 0.198386 -1.56346 0
M  V30 1217 C 122.154 1.2499 -1.90687 0
M  V30 1218 C 123.138 1.41158 -0.772217 0
M  V30 1219 O 124.33 1.43584 -1.03502 0
M  V30 1220 C 121.459 2.59542 -2.24706 0
M  V30 1221 C 120.545 2.47181 -3.44619 0
M  V30 1222 N 120.936 2.04495 -4.62618 0
M  V30 1223 C 119.234 2.78082 -3.48692 0
M  V30 1224 C 119.935 2.03945 -5.44776 0
M  V30 1225 N 118.911 2.45323 -4.85095 0
M  V30 1226 H 122.713 0.911149 -2.7942 0
M  V30 1227 H 120.227 0.40684 -1.57221 0
M  V30 1228 H 122.224 3.3549 -2.47491 0
M  V30 1229 H 120.884 2.94244 -1.37298 0
M  V30 1230 H 121.895 1.75256 -4.87345 0
M  V30 1231 H 118.572 3.17002 -2.71691 0
M  V30 1232 H 119.962 1.72872 -6.4928 0
M  V30 1233 N 122.682 1.50554 0.465978 0
M  V30 1234 C 123.612 1.72722 1.57128 0
M  V30 1235 C 124.593 0.576294 1.6004 0
M  V30 1236 O 125.778 0.81598 1.76225 0
M  V30 1237 C 122.908 1.82605 2.95419 0
M  V30 1238 C 121.862 2.97835 3.07373 0
M  V30 1239 C 121.188 2.92867 4.47363 0
M  V30 1240 C 122.488 4.38265 2.84114 0
M  V30 1241 H 124.182 2.65267 1.38829 0
M  V30 1242 H 121.728 1.2765 0.666441 0
M  V30 1243 H 123.681 1.96698 3.72677 0
M  V30 1244 H 122.405 0.866858 3.14886 0
M  V30 1245 H 121.064 2.83401 2.3255 0
M  V30 1246 H 120.712 1.94783 4.63755 0
M  V30 1247 H 120.412 3.70227 4.56296 0
M  V30 1248 H 121.936 3.09015 5.26633 0
M  V30 1249 H 123.35 4.53198 3.51118 0
M  V30 1250 H 121.747 5.17115 3.04487 0
M  V30 1251 H 122.817 4.50281 1.7993 0
M  V30 1252 N 124.16 -0.719506 1.40217 0
M  V30 1253 C 125.123 -1.8153 1.39927 0
M  V30 1254 C 126.123 -1.58095 0.293723 0
M  V30 1255 O 127.313 -1.65209 0.552429 0
M  V30 1256 C 124.445 -3.19561 1.18716 0
M  V30 1257 H 125.638 -1.83186 2.37451 0
M  V30 1258 H 123.191 -0.924746 1.26008 0
M  V30 1259 H 123.926 -3.23557 0.219366 0
M  V30 1260 H 123.711 -3.3797 1.98793 0
M  V30 1261 H 125.201 -3.99598 1.21291 0
M  V30 1262 N 125.638 -1.25649 -0.95132 0
M  V30 1263 C 127.054 -1.02542 -1.223 0
M  V30 1264 C 127.254 0.255715 -1.99871 0
M  V30 1265 O 126.31 0.967558 -2.33226 0
M  V30 1266 C 127.623 -2.25065 -1.99415 0
M  V30 1267 C 129.171 -2.29861 -2.12446 0
M  V30 1268 C 129.646 -3.52048 -2.92961 0
M  V30 1269 N 131.137 -3.52465 -3.00538 0
M  V30 1270 C 131.872 -4.43672 -3.63239 0
M  V30 1271 N 131.368 -5.45157 -4.27523 0
M  V30 1272 N 133.161 -4.31346 -3.60412 0
M  V30 1273 H 125.312 -2.07951 -0.432471 0
M  V30 1274 H 127.575 -0.91339 -0.253816 0
M  V30 1275 H 127.281 -3.18194 -1.49817 0
M  V30 1276 H 127.155 -2.28502 -3.00111 0
M  V30 1277 H 129.542 -1.37252 -2.61239 0
M  V30 1278 H 129.623 -2.3044 -1.11044 0
M  V30 1279 H 129.267 -4.44981 -2.44856 0
M  V30 1280 H 129.197 -3.48715 -3.94596 0
M  V30 1281 H 131.688 -2.79056 -2.54826 0
M  V30 1282 H 132.001 -6.10958 -4.73234 0
M  V30 1283 H 130.346 -5.49025 -4.26141 0
M  V30 1284 H 133.537 -3.51288 -3.09377 0
M  V30 1285 H 133.71 -5.02624 -4.0899 0
M  V30 1286 N 127.117 1.15442 -1.07289 0
M  V30 1287 C 128.533 1.38201 -0.798288 0
M  V30 1288 C 128.733 1.92429 0.597769 0
M  V30 1289 O 127.789 2.12962 1.3566 0
M  V30 1290 C 129.102 2.35357 -1.87156 0
M  V30 1291 C 130.65 2.49021 -1.89624 0
M  V30 1292 C 131.125 3.49468 -2.96034 0
M  V30 1293 N 132.616 3.57003 -2.95132 0
M  V30 1294 C 133.351 4.34543 -3.74112 0
M  V30 1295 N 132.847 5.15421 -4.6294 0
M  V30 1296 N 134.64 4.29625 -3.62462 0
M  V30 1297 H 126.791 0.78584 -1.97328 0
M  V30 1298 H 129.054 0.408065 -0.855679 0
M  V30 1299 H 128.76 2.02626 -2.87464 0
M  V30 1300 H 128.634 3.35129 -1.73114 0
M  V30 1301 H 131.021 2.81051 -0.899687 0
M  V30 1302 H 131.102 1.4925 -2.07745 0
M  V30 1303 H 130.746 3.18173 -3.95889 0
M  V30 1304 H 130.676 4.48992 -2.75161 0
M  V30 1305 H 133.167 2.99276 -2.30743 0
M  V30 1306 H 133.48 5.7183 -5.19837 0
M  V30 1307 H 131.825 5.14729 -4.66989 0
M  V30 1308 H 135.016 3.65505 -2.92444 0
M  V30 1309 H 135.189 4.89807 -4.24256 0
M  V30 1310 N 128.595 0.856903 1.32268 0
M  V30 1311 C 129.525 0.31858 2.31316 0
M  V30 1312 C 130.506 -0.583487 1.59779 0
M  V30 1313 O 131.691 -0.503259 1.87566 0
M  V30 1314 C 128.821 -0.491979 3.43798 0
M  V30 1315 C 127.775 0.315849 4.26833 0
M  V30 1316 C 127.101 -0.619586 5.31098 0
M  V30 1317 C 128.401 1.54282 4.98993 0
M  V30 1318 H 130.095 1.14621 2.76591 0
M  V30 1319 H 127.641 0.552613 1.32974 0
M  V30 1320 H 129.594 -0.879012 4.1213 0
M  V30 1321 H 128.318 -1.35299 2.97257 0
M  V30 1322 H 126.977 0.684664 3.6015 0
M  V30 1323 H 126.625 -1.47751 4.8081 0
M  V30 1324 H 126.325 -0.0830621 5.87541 0
M  V30 1325 H 127.849 -1.00375 6.02293 0
M  V30 1326 H 129.263 1.22796 5.59995 0
M  V30 1327 H 127.66 2.01745 5.65172 0
M  V30 1328 H 128.73 2.30285 4.26728 0
M  V30 1329 N 130.073 -1.45103 0.615059 0
M  V30 1330 C 131.003 -2.33339 -0.0865619 0
M  V30 1331 C 131.984 -1.4727 -0.851209 0
M  V30 1332 O 133.169 -1.76026 -0.820281 0
M  V30 1333 C 130.299 -3.30095 -1.07956 0
M  V30 1334 C 129.253 -4.25858 -0.427628 0
M  V30 1335 C 128.579 -5.12361 -1.5294 0
M  V30 1336 C 129.879 -5.18165 0.655944 0
M  V30 1337 H 131.573 -2.92254 0.650224 0
M  V30 1338 H 129.119 -1.40532 0.314138 0
M  V30 1339 H 131.072 -3.90698 -1.57901 0
M  V30 1340 H 129.796 -2.69355 -1.84703 0
M  V30 1341 H 128.455 -3.66564 0.0510292 0
M  V30 1342 H 128.103 -4.47984 -2.28734 0
M  V30 1343 H 127.803 -5.77238 -1.09865 0
M  V30 1344 H 129.327 -5.75833 -2.03098 0
M  V30 1345 H 130.741 -5.72796 0.240257 0
M  V30 1346 H 129.138 -5.91559 1.00888 0
M  V30 1347 H 130.208 -4.60144 1.52957 0
M  V30 1348 N 131.551 -0.354651 -1.53558 0
M  V30 1349 C 132.828 0.294281 -1.93374 0
M  V30 1350 C 133.208 1.67313 -1.28723 0
M  V30 1351 O 132.556 2.24179 -0.442247 0
M  V30 1352 C 132.766 0.355445 -3.47185 0
M  V30 1353 C 134.114 0.601007 -4.20325 0
M  V30 1354 O 135.138 0.437106 -3.53508 0
M  V30 1355 O 133.997 0.919322 -5.38712 0
M  V30 1356 H 131.091 0.174033 -0.808481 0
M  V30 1357 H 133.637 -0.406638 -1.64756 0
M  V30 1358 H 132.409 -0.611729 -3.86489 0
M  V30 1359 H 132.032 1.1027 -3.82003 0
M  V30 1360 N 133.029 1.57378 -0.0835403 0
M  V30 1361 C 134.257 1.98263 0.59157 0
M  V30 1362 C 134.672 0.962302 1.62435 0
M  V30 1363 O 134.029 -0.049581 1.82433 0
M  V30 1364 C 134.08 3.39214 1.24965 0
M  V30 1365 O 133.801 4.37339 0.258186 0
M  V30 1366 C 135.302 3.95038 2.01147 0
M  V30 1367 H 132.522 0.651773 0.159477 0
M  V30 1368 H 135.066 2.03878 -0.159415 0
M  V30 1369 H 133.221 3.34649 1.95164 0
M  V30 1370 H 133.635 5.19371 0.731734 0
M  V30 1371 H 135.109 4.95848 2.42567 0
M  V30 1372 H 135.586 3.32222 2.87272 0
M  V30 1373 H 136.192 4.0304 1.35789 0
M  V30 1374 N 134.507 -0.190092 1.56449 0
M  V30 1375 C 135.753 -0.911052 1.81184 0
M  V30 1376 C 136.086 -1.82699 0.658396 0
M  V30 1377 O 135.361 -1.91491 -0.340775 0
M  V30 1378 C 135.644 -1.72297 3.16205 0
M  V30 1379 C 135.497 -0.831419 4.42049 0
M  V30 1380 C 136.816 -2.69454 3.47969 0
M  V30 1381 H 133.935 -0.32977 0.659106 0
M  V30 1382 H 136.577 -0.178169 1.89163 0
M  V30 1383 H 134.727 -2.34778 3.09534 0
M  V30 1384 H 136.399 -0.220929 4.60771 0
M  V30 1385 H 134.642 -0.138406 4.33579 0
M  V30 1386 H 135.313 -1.43461 5.33032 0
M  V30 1387 H 137.789 -2.17104 3.54972 0
M  V30 1388 H 136.665 -3.23342 4.43555 0
M  V30 1389 H 136.926 -3.48744 2.71717 0
M  V30 1390 N 135.985 -1.50799 -0.457987 0
M  V30 1391 C 137.231 -1.63648 -1.20792 0
M  V30 1392 C 137.586 -0.338662 -1.89396 0
M  V30 1393 O 136.879 0.664291 -1.79716 0
M  V30 1394 C 137.073 -2.76358 -2.2663 0
M  V30 1395 C 136.902 -4.16974 -1.68411 0
M  V30 1396 C 135.672 -4.83199 -1.47807 0
M  V30 1397 C 137.87 -5.00774 -1.17176 0
M  V30 1398 N 135.852 -6.07991 -0.849692 0
M  V30 1399 C 137.223 -6.16397 -0.667403 0
M  V30 1400 C 139.278 -4.86452 -1.06155 0
M  V30 1401 C 137.981 -7.19272 -0.0636908 0
M  V30 1402 C 140.007 -5.89515 -0.471759 0
M  V30 1403 C 139.369 -7.04397 0.0221557 0
M  V30 1404 H 135.468 -0.652888 -0.43042 0
M  V30 1405 H 138.052 -1.87962 -0.507785 0
M  V30 1406 H 136.223 -2.53744 -2.94056 0
M  V30 1407 H 137.955 -2.78496 -2.93636 0
M  V30 1408 H 134.71 -4.40714 -1.73403 0
M  V30 1409 H 135.134 -6.74733 -0.553537 0
M  V30 1410 H 139.776 -3.97907 -1.42932 0
M  V30 1411 H 137.494 -8.07481 0.316253 0
M  V30 1412 H 141.08 -5.805 -0.388671 0
M  V30 1413 H 139.96 -7.82782 0.471375 0
M  V30 1414 N 137.463 0.71206 -1.40597 0
M  V30 1415 C 138.411 1.84746 -1.41321 0
M  V30 1416 C 139.405 1.66842 -0.293268 0
M  V30 1417 O 140.611 1.73904 -0.464481 0
M  V30 1418 H 136.986 0.608522 -0.441819 0
M  V30 1419 H 138.957 1.81252 -2.37045 0
M  V30 1420 C 137.706 3.22638 -1.29614 0
M  V30 1421 H 137.029 3.37023 -2.15071 0
M  V30 1422 H 138.469 4.02209 -1.3418 0
M  V30 1423 C 136.928 3.36899 -0.00673121 0
M  V30 1424 O 137.458 3.90186 0.954859 0
M  V30 1425 N 135.664 2.9053 0.0639327 0
M  V30 1426 H 135.211 2.47353 -0.719311 0
M  V30 1427 H 135.169 3.0045 0.926118 0
M  V30 1428 N 138.941 1.26152 0.944643 0
M  V30 1429 C 139.888 1.07408 2.04285 0
M  V30 1430 C 140.858 -0.0198413 1.66088 0
M  V30 1431 O 142.043 0.139264 1.90291 0
M  V30 1432 C 139.183 0.70945 3.37729 0
M  V30 1433 C 138.296 1.87926 3.88983 0
M  V30 1434 C 137.431 1.45807 5.10797 0
M  V30 1435 C 136.47 2.5964 5.54305 0
M  V30 1436 N 135.607 2.18226 6.67324 0
M  V30 1437 H 140.447 2.01389 2.1965 0
M  V30 1438 H 137.984 1.00275 1.07626 0
M  V30 1439 H 139.942 0.478948 4.14442 0
M  V30 1440 H 138.572 -0.193389 3.2222 0
M  V30 1441 H 137.624 2.22279 3.08701 0
M  V30 1442 H 138.936 2.73377 4.17213 0
M  V30 1443 H 138.09 1.18781 5.94959 0
M  V30 1444 H 136.829 0.574414 4.84305 0
M  V30 1445 H 135.834 2.87399 4.68702 0
M  V30 1446 H 137.059 3.48599 5.828 0
M  V30 1447 H 135.005 1.3229 6.42523 0
M  V30 1448 H 134.922 2.97221 6.95123 0
M  V30 1449 H 136.19 1.94403 7.54869 0
M  V30 1450 N 140.419 -1.14872 1.07899 0
M  V30 1451 C 141.667 -1.85422 0.803941 0
M  V30 1452 C 141.988 -1.83051 -0.67211 0
M  V30 1453 O 141.258 -1.27532 -1.48703 0
M  V30 1454 H 139.838 -0.686537 0.294408 0
M  V30 1455 H 142.5 -1.39226 1.3639 0
M  V30 1456 H 141.596 -2.90399 1.14346 0
M  V30 1457 N 141.898 -0.863906 -1.31812 0
M  V30 1458 C 143.126 -0.486111 -2.01108 0
M  V30 1459 C 143.541 0.919755 -1.64882 0
M  V30 1460 O 142.898 1.60162 -0.874893 0
M  V30 1461 C 142.949 -0.626435 -3.56031 0
M  V30 1462 O 142.67 -1.97693 -3.90959 0
M  V30 1463 C 144.171 -0.248857 -4.42601 0
M  V30 1464 H 141.391 -0.190052 -0.643523 0
M  V30 1465 H 143.935 -1.1634 -1.68182 0
M  V30 1466 H 142.09 0.00322717 -3.874 0
M  V30 1467 H 142.504 -1.98034 -4.85678 0
M  V30 1468 H 143.978 -0.398016 -5.50563 0
M  V30 1469 H 144.455 0.811489 -4.31638 0
M  V30 1470 H 145.061 -0.853971 -4.16638 0
M  V30 1471 N 143.376 1.44774 -0.622745 0
M  V30 1472 C 144.622 2.02968 -0.13257 0
M  V30 1473 C 144.977 1.48047 1.22881 0
M  V30 1474 O 144.27 0.651625 1.80179 0
M  V30 1475 C 144.464 3.57364 -0.0508323 0
M  V30 1476 C 144.293 4.27262 -1.40275 0
M  V30 1477 C 143.063 4.64577 -1.98737 0
M  V30 1478 C 145.261 4.58248 -2.3348 0
M  V30 1479 N 143.243 5.19404 -3.27251 0
M  V30 1480 C 144.614 5.14069 -3.46603 0
M  V30 1481 C 146.669 4.40195 -2.32664 0
M  V30 1482 C 145.372 5.53738 -4.59093 0
M  V30 1483 C 147.398 4.80907 -3.44213 0
M  V30 1484 C 146.76 5.36834 -4.56058 0
M  V30 1485 H 142.859 0.776541 -0.0922354 0
M  V30 1486 H 145.443 1.76385 -0.82441 0
M  V30 1487 H 143.614 3.83576 0.610265 0
M  V30 1488 H 145.346 4.02219 0.447397 0
M  V30 1489 H 142.101 4.48622 -1.51774 0
M  V30 1490 H 142.525 5.51301 -3.92933 0
M  V30 1491 H 147.167 3.96257 -1.47446 0
M  V30 1492 H 144.885 5.96635 -5.45025 0
M  V30 1493 H 148.471 4.68659 -3.44747 0
M  V30 1494 H 147.351 5.67755 -5.40947 0
M  V30 1495 N 144.854 0.36279 1.53368 0
M  V30 1496 C 145.817 -0.472679 2.24273 0
M  V30 1497 C 146.817 -1.012 1.24961 0
M  V30 1498 O 148.007 -0.898194 1.49259 0
M  V30 1499 C 145.139 -1.66039 2.97731 0
M  V30 1500 H 146.332 0.14773 2.99536 0
M  V30 1501 H 143.885 0.114434 1.55881 0
M  V30 1502 H 144.62 -2.31896 2.26704 0
M  V30 1503 H 144.405 -1.28066 3.70596 0
M  V30 1504 H 145.895 -2.25252 3.51641 0
M  V30 1505 N 146.332 -1.57332 0.0918853 0
M  V30 1506 C 147.572 -1.96117 -0.575988 0
M  V30 1507 C 147.936 -0.972499 -1.65549 0
M  V30 1508 O 149.137 -1.24872 -2.38034 0
M  V30 1509 C 147.408 -3.39407 -1.11973 0
M  V30 1510 S 148.967 -4.00185 -1.79992 0
M  V30 1511 H 145.785 -0.685682 -0.188045 0
M  V30 1512 H 148.387 -1.94755 0.170525 0
M  V30 1513 H 147.091 -4.09131 -0.322504 0
M  V30 1514 H 146.622 -3.44358 -1.90214 0
M  V30 1515 H 148.637 -3.88728 -3.08391 0
M  V30 1516 N 147.81 0.181792 -1.56548 0
M  V30 1517 C 148.742 1.24956 -1.92142 0
M  V30 1518 C 149.755 1.41022 -0.813422 0
M  V30 1519 O 150.944 1.41212 -1.09186 0
M  V30 1520 C 148.044 2.61981 -2.14987 0
M  V30 1521 C 147.217 2.6735 -3.46183 0
M  V30 1522 C 146.276 3.85664 -3.5798 0
M  V30 1523 O 145.302 3.72148 -4.30691 0
M  V30 1524 N 146.504 5.01683 -2.92053 0
M  V30 1525 H 149.269 0.947329 -2.84334 0
M  V30 1526 H 146.83 0.371629 -1.57577 0
M  V30 1527 H 148.822 3.3958 -2.20154 0
M  V30 1528 H 147.392 2.84637 -1.2923 0
M  V30 1529 H 146.612 1.75925 -3.52766 0
M  V30 1530 H 147.9 2.67939 -4.32534 0
M  V30 1531 H 147.298 5.15564 -2.32832 0
M  V30 1532 H 145.855 5.77181 -3.0283 0
M  V30 1533 N 149.288 1.51039 0.449983 0
M  V30 1534 C 150.235 1.71439 1.54523 0
M  V30 1535 C 151.205 0.555871 1.56522 0
M  V30 1536 O 152.39 0.788871 1.73728 0
M  V30 1537 C 149.53 1.83384 2.92343 0
M  V30 1538 C 148.643 3.10873 2.9997 0
M  V30 1539 C 147.778 3.13488 4.28834 0
M  V30 1540 C 146.817 4.35343 4.30282 0
M  V30 1541 N 145.954 4.35579 5.5065 0
M  V30 1542 H 150.794 2.64934 1.36433 0
M  V30 1543 H 148.331 1.31312 0.662982 0
M  V30 1544 H 150.289 1.88291 3.72293 0
M  V30 1545 H 148.919 0.933086 3.0902 0
M  V30 1546 H 147.971 3.15336 2.12761 0
M  V30 1547 H 149.283 4.00814 2.96901 0
M  V30 1548 H 148.437 3.17241 5.17149 0
M  V30 1549 H 147.176 2.21414 4.34543 0
M  V30 1550 H 146.181 4.3178 3.40362 0
M  V30 1551 H 147.406 5.28668 4.26248 0
M  V30 1552 H 145.352 3.46369 5.57104 0
M  V30 1553 H 145.269 5.19313 5.49409 0
M  V30 1554 H 146.537 4.43507 6.41032 0
M  V30 1555 N 150.766 -0.704594 1.40972 0
M  V30 1556 C 151.696 -1.83124 1.44872 0
M  V30 1557 C 152.677 -1.67281 0.30838 0
M  V30 1558 O 153.862 -1.87149 0.518556 0
M  V30 1559 C 150.992 -3.21181 1.32136 0
M  V30 1560 C 149.946 -3.51714 2.43888 0
M  V30 1561 C 149.272 -4.89032 2.16222 0
M  V30 1562 C 150.572 -3.516 3.86232 0
M  V30 1563 H 152.266 -1.80117 2.39161 0
M  V30 1564 H 149.812 -0.865145 1.15114 0
M  V30 1565 H 151.765 -3.99702 1.33479 0
M  V30 1566 H 150.489 -3.24791 0.343279 0
M  V30 1567 H 149.148 -2.75539 2.41813 0
M  V30 1568 H 148.796 -4.89256 1.16778 0
M  V30 1569 H 148.496 -5.10426 2.911 0
M  V30 1570 H 150.02 -5.69873 2.19265 0
M  V30 1571 H 151.434 -4.2014 3.9007 0
M  V30 1572 H 149.831 -3.84523 4.60719 0
M  V30 1573 H 150.901 -2.50757 4.15029 0
M  V30 1574 N 152.244 -1.26651 -0.937939 0
M  V30 1575 C 153.493 -1.11775 -1.67897 0
M  V30 1576 C 153.806 0.33794 -1.92659 0
M  V30 1577 O 155.012 0.607434 -2.64618 0
M  V30 1578 C 153.468 -1.9523 -3.02346 0
M  V30 1579 C 153.076 -3.45393 -2.8532 0
M  V30 1580 C 154.82 -1.88972 -3.80118 0
M  V30 1581 C 152.727 -4.21083 -4.15263 0
M  V30 1582 H 151.657 -0.414696 -0.629717 0
M  V30 1583 H 154.308 -1.50988 -1.04283 0
M  V30 1584 H 152.69 -1.48853 -3.66959 0
M  V30 1585 H 153.864 -3.99561 -2.29537 0
M  V30 1586 H 152.179 -3.52921 -2.20988 0
M  V30 1587 H 154.776 -2.42805 -4.76392 0
M  V30 1588 H 155.119 -0.86113 -4.07296 0
M  V30 1589 H 155.652 -2.33189 -3.22285 0
M  V30 1590 H 152.391 -5.24425 -3.93267 0
M  V30 1591 H 151.911 -3.71695 -4.70747 0
M  V30 1592 H 153.59 -4.29706 -4.83696 0
M  V30 1593 N 153.722 1.14298 -1.08507 0
M  V30 1594 C 154.685 2.17607 -0.719711 0
M  V30 1595 C 155.685 1.58907 0.245997 0
M  V30 1596 O 156.875 1.74181 0.0254081 0
M  V30 1597 C 154.007 3.40842 -0.0627695 0
M  V30 1598 H 155.2 2.51443 -1.63452 0
M  V30 1599 H 152.753 1.28963 -0.88307 0
M  V30 1600 H 153.488 3.12587 0.863716 0
M  V30 1601 H 153.273 3.84713 -0.757504 0
M  V30 1602 H 154.763 4.17221 0.177786 0
M  V30 1603 N 155.201 0.870884 1.31352 0
M  V30 1604 C 156.164 0.332243 2.26779 0
M  V30 1605 C 157.164 -0.517302 1.52252 0
M  V30 1606 O 158.354 -0.326477 1.71113 0
M  V30 1607 C 155.486 -0.528066 3.36785 0
M  V30 1608 H 156.679 1.17469 2.75937 0
M  V30 1609 H 154.232 0.64655 1.423 0
M  V30 1610 H 154.967 -1.39167 2.92922 0
M  V30 1611 H 154.752 0.0802582 3.92018 0
M  V30 1612 H 156.242 -0.897179 4.07849 0
M  V30 1613 N 156.679 -1.44442 0.630414 0
M  V30 1614 C 157.642 -2.29107 -0.0652523 0
M  V30 1615 C 158.642 -1.41002 -0.772995 0
M  V30 1616 O 159.832 -1.62881 -0.617692 0
M  V30 1617 C 156.964 -3.22564 -1.10296 0
M  V30 1618 H 158.157 -2.92103 0.679401 0
M  V30 1619 H 155.71 -1.51343 0.390517 0
M  V30 1620 H 156.445 -2.64416 -1.87762 0
M  V30 1621 H 156.23 -3.87491 -0.59941 0
M  V30 1622 H 157.72 -3.86167 -1.5895 0
M  V30 1623 N 158.157 -0.370918 -1.53173 0
M  V30 1624 C 159.089 0.507823 -2.23503 0
M  V30 1625 C 160.102 1.04182 -1.251 0
M  V30 1626 O 161.291 0.947286 -1.5129 0
M  V30 1627 C 158.391 1.71447 -2.92334 0
M  V30 1628 C 157.564 1.31105 -4.17289 0
M  V30 1629 C 156.623 2.38035 -4.69282 0
M  V30 1630 O 155.649 2.00204 -5.32829 0
M  V30 1631 N 156.851 3.69697 -4.47554 0
M  V30 1632 H 159.616 -0.0946382 -2.99551 0
M  V30 1633 H 157.177 -0.196358 -1.60705 0
M  V30 1634 H 159.169 2.42469 -3.24023 0
M  V30 1635 H 157.739 2.22368 -2.19707 0
M  V30 1636 H 156.959 0.430462 -3.91843 0
M  V30 1637 H 158.247 1.0179 -4.98514 0
M  V30 1638 H 157.645 4.03205 -3.9679 0
M  V30 1639 H 156.202 4.36807 -4.8378 0
M  V30 1640 N 159.635 1.57281 -0.100228 0
M  V30 1641 C 160.545 2.17833 0.870965 0
M  V30 1642 C 161.561 1.14921 1.30649 0
M  V30 1643 O 162.737 1.47313 1.37335 0
M  V30 1644 C 159.802 2.75085 2.1102 0
M  V30 1645 C 158.863 3.9297 1.72838 0
M  V30 1646 C 158.096 4.47482 2.90854 0
M  V30 1647 O 158.319 4.00922 4.05731 0
M  V30 1648 O 157.253 5.38433 2.69023 0
M  V30 1649 H 161.079 3.0124 0.38575 0
M  V30 1650 H 158.664 1.48881 0.124397 0
M  V30 1651 H 160.546 3.11656 2.83634 0
M  V30 1652 H 159.221 1.94721 2.58584 0
M  V30 1653 H 158.128 3.61201 0.973883 0
M  V30 1654 H 159.461 4.74713 1.30033 0
M  V30 1655 N 161.113 -0.173488 1.56642 0
M  V30 1656 C 162.076 -1.19859 1.95362 0
M  V30 1657 C 163.076 -1.37296 0.83704 0
M  V30 1658 O 164.266 -1.34739 1.10413 0
M  V30 1659 C 161.398 -2.56405 2.24654 0
M  V30 1660 H 162.591 -0.867062 2.87092 0
M  V30 1661 H 160.144 -0.415853 1.50666 0
M  V30 1662 H 160.879 -2.94576 1.35631 0
M  V30 1663 H 160.664 -2.45115 3.06041 0
M  V30 1664 H 162.154 -3.30287 2.5554 0
M  V30 1665 N 162.591 -1.51276 -0.441967 0
M  V30 1666 C 163.523 -1.68444 -1.55433 0
M  V30 1667 C 164.536 -0.565187 -1.52674 0
M  V30 1668 O 165.725 -0.839356 -1.57534 0
M  V30 1669 C 162.825 -1.67966 -2.94348 0
M  V30 1670 C 161.998 -2.964 -3.21661 0
M  V30 1671 C 161.057 -2.88171 -4.40277 0
M  V30 1672 O 160.083 -3.62119 -4.39157 0
M  V30 1673 N 161.285 -2.03706 -5.43584 0
M  V30 1674 H 164.05 -2.644 -1.41112 0
M  V30 1675 H 161.611 -1.49104 -0.630838 0
M  V30 1676 H 163.603 -1.60035 -3.71713 0
M  V30 1677 H 162.173 -0.796225 -3.0229 0
M  V30 1678 H 161.393 -3.18234 -2.32638 0
M  V30 1679 H 162.681 -3.81427 -3.36736 0
M  V30 1680 H 162.079 -1.42995 -5.47329 0
M  V30 1681 H 160.636 -2.01658 -6.1982 0
M  V30 1682 N 164.069 0.697108 -1.41344 0
M  V30 1683 C 165.032 1.79281 -1.42797 0
M  V30 1684 C 166.032 1.57607 -0.318837 0
M  V30 1685 O 167.222 1.64309 -0.578642 0
M  V30 1686 C 164.354 3.17632 -1.23785 0
M  V30 1687 H 165.547 1.79385 -2.40335 0
M  V30 1688 H 163.1 0.904582 -1.27464 0
M  V30 1689 H 163.835 3.23167 -0.270814 0
M  V30 1690 H 163.62 3.34765 -2.04144 0
M  V30 1691 H 165.11 3.97617 -1.27633 0
M  V30 1692 N 165.547 1.27147 0.931209 0
M  V30 1693 C 166.824 1.0401 1.65654 0
M  V30 1694 C 167.204 -0.426297 2.06751 0
M  V30 1695 O 166.552 -1.40879 1.79904 0
M  V30 1696 C 166.762 1.99834 2.86125 0
M  V30 1697 C 168.11 2.29007 3.57549 0
M  V30 1698 O 169.134 1.97779 2.96246 0
M  V30 1699 O 167.993 2.82222 4.67989 0
M  V30 1700 H 165.087 0.396239 0.725895 0
M  V30 1701 H 167.633 1.38397 0.982056 0
M  V30 1702 H 166.405 2.98744 2.52721 0
M  V30 1703 H 166.028 1.65987 3.61295 0
M  V30 1704 N 167.025 -1.13721 1.09112 0
M  V30 1705 C 168.25 -1.89314 0.847053 0
M  V30 1706 C 168.675 -1.78416 -0.595774 0
M  V30 1707 O 168.033 -1.12942 -1.41823 0
M  V30 1708 C 168.081 -3.3701 1.28284 0
M  V30 1709 O 167.185 -4.10054 0.439267 0
M  V30 1710 H 166.526 -0.588745 0.307044 0
M  V30 1711 H 169.056 -1.43902 1.45442 0
M  V30 1712 H 169.066 -3.87834 1.26683 0
M  V30 1713 H 167.741 -3.4426 2.33363 0
M  V30 1714 H 166.318 -3.69266 0.519312 0
M  V30 1715 N 168.503 -0.877838 -1.30888 0
M  V30 1716 C 169.435 -0.296607 -2.27273 0
M  V30 1717 C 170.448 0.544799 -1.53414 0
M  V30 1718 O 171.637 0.365511 -1.74718 0
M  V30 1719 C 168.737 0.597481 -3.33592 0
M  V30 1720 C 167.91 -0.213251 -4.3688 0
M  V30 1721 C 166.969 0.610208 -5.2265 0
M  V30 1722 O 165.995 0.035441 -5.69189 0
M  V30 1723 N 167.197 1.92071 -5.47804 0
M  V30 1724 H 169.962 -1.12492 -2.77787 0
M  V30 1725 H 167.523 -0.740105 -1.43993 0
M  V30 1726 H 169.515 1.15425 -3.87891 0
M  V30 1727 H 168.085 1.32647 -2.83061 0
M  V30 1728 H 167.305 -0.951466 -3.82545 0
M  V30 1729 H 168.593 -0.769262 -5.02951 0
M  V30 1730 H 167.991 2.4107 -5.11763 0
M  V30 1731 H 166.548 2.42508 -6.05007 0
M  V30 1732 N 169.982 1.44106 -0.638065 0
M  V30 1733 C 171.207 2.0685 -0.150916 0
M  V30 1734 C 171.632 1.47417 1.16833 0
M  V30 1735 O 170.99 0.578264 1.71831 0
M  V30 1736 C 171.038 3.60555 -0.05708 0
M  V30 1737 O 170.142 4.00465 0.984972 0
M  V30 1738 H 169.483 0.658151 -0.0879399 0
M  V30 1739 H 172.013 1.84865 -0.876707 0
M  V30 1740 H 172.023 4.07789 0.131232 0
M  V30 1741 H 170.698 4.03193 -1.02021 0
M  V30 1742 H 169.275 3.64849 0.770672 0
M  V30 1743 N 171.46 0.379036 1.52974 0
M  V30 1744 C 172.871 -0.0972525 1.86447 0
M  V30 1745 C 173.222 -1.47027 1.29914 0
M  V30 1746 O 172.347 -2.07135 0.626433 0
M  V30 1747 C 172.942 -0.183248 3.38304 0
M  V30 1748 C 171.501 -0.603812 3.71525 0
M  V30 1749 C 170.648 0.240632 2.76254 0
M  V30 1750 H 173.599 0.597316 1.4703 0
M  V30 1751 H 173.62 -1.00432 3.67006 0
M  V30 1752 H 173.132 0.816191 3.79421 0
M  V30 1753 H 171.233 -1.61099 3.35973 0
M  V30 1754 H 171.346 -0.369086 4.77676 0
M  V30 1755 H 169.71 -0.292548 2.53014 0
M  V30 1756 H 170.493 1.23786 3.20206 0
M  V30 1757 N 172.938 -1.57226 0.108567 0
M  V30 1758 C 173.885 -2.14756 -0.845481 0
M  V30 1759 C 174.855 -1.06971 -1.27068 0
M  V30 1760 O 176.04 -1.34827 -1.35005 0
M  V30 1761 C 173.18 -2.74298 -2.09415 0
M  V30 1762 C 172.293 -3.96358 -1.71826 0
M  V30 1763 C 171.428 -4.44021 -2.9158 0
M  V30 1764 C 170.467 -5.58637 -2.50181 0
M  V30 1765 N 169.604 -6.01091 -3.62814 0
M  V30 1766 H 174.444 -2.95961 -0.348035 0
M  V30 1767 H 171.981 -1.46226 -0.160106 0
M  V30 1768 H 173.939 -3.06945 -2.82561 0
M  V30 1769 H 172.569 -1.95801 -2.56636 0
M  V30 1770 H 171.621 -3.69939 -0.885947 0
M  V30 1771 H 172.933 -4.79504 -1.37394 0
M  V30 1772 H 172.087 -4.78522 -3.72963 0
M  V30 1773 H 170.826 -3.59803 -3.29231 0
M  V30 1774 H 169.831 -5.23751 -1.67228 0
M  V30 1775 H 171.056 -6.44613 -2.13659 0
M  V30 1776 H 169.002 -5.19817 -4.00158 0
M  V30 1777 H 168.919 -6.79066 -3.32273 0
M  V30 1778 H 170.187 -6.40227 -4.44668 0
M  V30 1779 N 174.416 0.165178 -1.56732 0
M  V30 1780 C 175.346 1.20651 -1.99914 0
M  V30 1781 C 176.327 1.45827 -0.875705 0
M  V30 1782 O 177.512 1.57057 -1.14223 0
M  V30 1783 C 174.642 2.54401 -2.36427 0
M  V30 1784 C 173.596 2.43782 -3.51787 0
M  V30 1785 C 172.922 3.82078 -3.7406 0
M  V30 1786 C 174.222 1.93732 -4.85041 0
M  V30 1787 H 175.916 0.847534 -2.87154 0
M  V30 1788 H 173.462 0.40625 -1.38151 0
M  V30 1789 H 175.415 3.27458 -2.65234 0
M  V30 1790 H 174.139 2.92098 -1.46103 0
M  V30 1791 H 172.798 1.73178 -3.23117 0
M  V30 1792 H 172.446 4.17179 -2.81017 0
M  V30 1793 H 172.146 3.7584 -4.51684 0
M  V30 1794 H 173.67 4.56712 -4.05274 0
M  V30 1795 H 175.084 2.56569 -5.12684 0
M  V30 1796 H 173.481 1.98428 -5.66345 0
M  V30 1797 H 174.551 0.891962 -4.76626 0
M  V30 1798 N 175.894 1.51508 0.433938 0
M  V30 1799 C 176.844 1.69451 1.52546 0
M  V30 1800 C 177.828 0.548474 1.51263 0
M  V30 1801 O 179.02 0.804529 1.57659 0
M  V30 1802 C 176.149 1.82604 2.90707 0
M  V30 1803 C 175.235 3.03002 2.96733 0
M  V30 1804 N 175.626 4.26121 2.72496 0
M  V30 1805 C 173.924 3.02327 3.27894 0
M  V30 1806 C 174.625 5.07407 2.84452 0
M  V30 1807 N 173.601 4.42126 3.16269 0
M  V30 1808 H 177.403 2.62305 1.32564 0
M  V30 1809 H 174.917 1.49202 0.641297 0
M  V30 1810 H 176.914 1.93569 3.69238 0
M  V30 1811 H 175.574 0.909339 3.11707 0
M  V30 1812 H 176.585 4.55009 2.4736 0
M  V30 1813 H 173.262 2.20301 3.54646 0
M  V30 1814 H 174.652 6.15422 2.69639 0
M  V30 1815 N 177.372 -0.689602 1.41712 0
M  V30 1816 C 178.62 -1.4468 1.4111 0
M  V30 1817 C 178.941 -1.94986 0.0232196 0
M  V30 1818 O 178.211 -1.72097 -0.935913 0
M  V30 1819 H 176.791 -0.536847 0.519427 0
M  V30 1820 H 179.453 -0.815825 1.77004 0
M  V30 1821 H 178.549 -2.30706 2.10193 0
M  V30 1822 N 178.85 -1.27639 -0.924453 0
M  V30 1823 C 180.09 -1.15407 -1.68703 0
M  V30 1824 C 180.454 0.294581 -1.89727 0
M  V30 1825 O 181.655 0.539385 -2.63333 0
M  V30 1826 C 179.926 -1.9195 -3.0148 0
M  V30 1827 S 181.485 -1.95969 -3.92609 0
M  V30 1828 H 178.303 -0.411937 -0.579507 0
M  V30 1829 H 180.905 -1.61592 -1.10038 0
M  V30 1830 H 179.609 -2.96387 -2.83871 0
M  V30 1831 H 179.14 -1.46272 -3.65196 0
M  V30 1832 H 181.155 -1.05846 -4.84779 0
M  V30 1833 N 180.328 1.1314 -1.09713 0
M  V30 1834 C 181.574 1.84967 -0.846104 0
M  V30 1835 C 181.929 1.82082 0.621601 0
M  V30 1836 O 181.222 1.2501 1.452 0
M  V30 1837 C 181.416 3.32167 -1.3191 0
M  V30 1838 C 181.245 3.49386 -2.83125 0
M  V30 1839 C 180.015 3.63456 -3.51038 0
M  V30 1840 C 182.213 3.45179 -3.81256 0
M  V30 1841 N 180.195 3.68966 -4.9065 0
M  V30 1842 C 181.566 3.57094 -5.06837 0
M  V30 1843 C 183.621 3.28598 -3.74069 0
M  V30 1844 C 182.324 3.5414 -6.26081 0
M  V30 1845 C 184.35 3.26953 -4.92804 0
M  V30 1846 C 183.712 3.39422 -6.17229 0
M  V30 1847 H 179.811 0.692899 -0.362512 0
M  V30 1848 H 182.395 1.35506 -1.39808 0
M  V30 1849 H 180.566 3.80186 -0.794535 0
M  V30 1850 H 182.298 3.91815 -1.01308 0
M  V30 1851 H 179.053 3.65256 -3.01471 0
M  V30 1852 H 179.477 3.75404 -5.63383 0
M  V30 1853 H 184.119 3.17858 -2.78794 0
M  V30 1854 H 181.837 3.63653 -7.21653 0
M  V30 1855 H 185.423 3.15316 -4.88945 0
M  V30 1856 H 184.303 3.38114 -7.07565 0
M  V30 1857 N 181.806 0.884767 1.30421 0
M  V30 1858 C 183.083 0.423185 1.90967 0
M  V30 1859 C 183.463 -1.09605 1.80416 0
M  V30 1860 O 182.811 -1.93126 1.22125 0
M  V30 1861 C 183.021 0.921056 3.36627 0
M  V30 1862 C 184.369 0.955903 4.137 0
M  V30 1863 O 185.393 0.867706 3.4547 0
M  V30 1864 O 184.252 1.08614 5.35598 0
M  V30 1865 H 181.346 0.129369 0.816819 0
M  V30 1866 H 183.892 0.973653 1.3899 0
M  V30 1867 H 182.664 1.96489 3.3839 0
M  V30 1868 H 182.287 0.349741 3.96059 0
M  V30 1869 N 183.284 -1.43765 0.645699 0
M  V30 1870 C 184.695 -1.85193 0.236719 0
M  V30 1871 C 185.046 -1.54045 -1.21509 0
M  V30 1872 O 184.171 -0.985694 -1.92647 0
M  V30 1873 C 184.766 -3.36151 0.422845 0
M  V30 1874 C 183.325 -3.76338 0.0682492 0
M  V30 1875 C 182.472 -2.67538 0.729306 0
M  V30 1876 H 185.423 -1.34025 0.849883 0
M  V30 1877 H 185.444 -3.79032 -0.333904 0
M  V30 1878 H 184.956 -3.5879 1.47958 0
M  V30 1879 H 183.057 -3.59312 -0.986179 0
M  V30 1880 H 183.17 -4.76603 0.488469 0
M  V30 1881 H 181.534 -2.54176 0.163235 0
M  V30 1882 H 182.317 -2.93006 1.78892 0
M  V30 1883 N 184.763 -0.387143 -1.52771 0
M  V30 1884 C 185.713 0.465942 -2.23188 0
M  V30 1885 C 186.697 1.03138 -1.23496 0
M  V30 1886 O 187.889 0.957845 -1.48843 0
M  V30 1887 C 185.018 1.59384 -3.04059 0
M  V30 1888 C 184.104 1.04024 -4.11144 0
M  V30 1889 N 184.495 0.211416 -5.05358 0
M  V30 1890 C 182.793 1.31295 -4.26237 0
M  V30 1891 C 183.494 -0.0941698 -5.81624 0
M  V30 1892 N 182.47 0.509207 -5.4121 0
M  V30 1893 H 186.272 -0.173856 -2.93385 0
M  V30 1894 H 183.786 -0.19633 -1.61209 0
M  V30 1895 H 185.783 2.21738 -3.53041 0
M  V30 1896 H 184.443 2.23648 -2.35397 0
M  V30 1897 H 185.454 -0.151151 -5.17679 0
M  V30 1898 H 182.131 1.95679 -3.68803 0
M  V30 1899 H 183.521 -0.765572 -6.67524 0
M  V30 1900 N 186.241 1.57166 -0.116904 0
M  V30 1901 C 187.466 1.999 0.55271 0
M  V30 1902 C 187.891 0.996039 1.59564 0
M  V30 1903 O 187.249 -0.032556 1.81271 0
M  V30 1904 C 187.297 3.4152 1.15742 0
M  V30 1905 O 186.401 3.44106 2.27299 0
M  V30 1906 H 185.742 0.649447 0.138258 0
M  V30 1907 H 188.272 2.03573 -0.204759 0
M  V30 1908 H 188.282 3.79684 1.49346 0
M  V30 1909 H 186.957 4.14034 0.393493 0
M  V30 1910 H 185.534 3.17759 1.9515 0
M  V30 1911 N 187.719 -0.156864 1.56817 0
M  V30 1912 C 188.649 -1.19589 2.00551 0
M  V30 1913 C 189.63 -1.4536 0.883426 0
M  V30 1914 O 190.815 -1.56449 1.15054 0
M  V30 1915 C 187.945 -2.53143 2.37773 0
M  V30 1916 C 186.899 -2.41913 3.53075 0
M  V30 1917 C 186.225 -3.80088 3.76081 0
M  V30 1918 C 187.525 -1.91157 4.86062 0
M  V30 1919 H 189.219 -0.832293 2.87599 0
M  V30 1920 H 186.765 -0.398918 1.38364 0
M  V30 1921 H 188.718 -3.26047 2.66967 0
M  V30 1922 H 187.442 -2.91319 1.4765 0
M  V30 1923 H 186.101 -1.71462 3.24031 0
M  V30 1924 H 185.749 -4.15683 2.83225 0
M  V30 1925 H 185.449 -3.73439 4.53671 0
M  V30 1926 H 186.973 -4.54556 4.0769 0
M  V30 1927 H 188.387 -2.53846 5.14038 0
M  V30 1928 H 186.784 -1.95422 5.67389 0
M  V30 1929 H 187.854 -0.866673 4.77092 0
M  V30 1930 N 189.197 -1.51736 -0.425897 0
M  V30 1931 C 190.147 -1.70258 -1.51645 0
M  V30 1932 C 191.131 -0.556488 -1.5097 0
M  V30 1933 O 192.323 -0.812879 -1.5723 0
M  V30 1934 C 189.452 -1.84143 -2.89735 0
M  V30 1935 C 188.538 -3.04572 -2.95122 0
M  V30 1936 N 188.929 -4.2756 -2.70233 0
M  V30 1937 C 187.227 -3.04061 -3.26286 0
M  V30 1938 C 187.928 -5.08908 -2.81757 0
M  V30 1939 N 186.904 -4.43797 -3.13919 0
M  V30 1940 H 190.706 -2.63004 -1.31172 0
M  V30 1941 H 188.22 -1.4954 -0.633375 0
M  V30 1942 H 190.217 -1.95525 -3.68206 0
M  V30 1943 H 188.877 -0.925857 -3.1122 0
M  V30 1944 H 189.888 -4.56315 -2.44943 0
M  V30 1945 H 186.565 -2.22179 -3.53473 0
M  V30 1946 H 187.955 -6.16843 -2.66372 0
M  V30 1947 N 190.675 0.682077 -1.42076 0
M  V30 1948 C 192.086 1.26246 -1.37546 0
M  V30 1949 C 192.437 1.96092 -0.0651481 0
M  V30 1950 O 191.562 1.99587 0.836297 0
M  V30 1951 C 192.157 2.29594 -2.49143 0
M  V30 1952 C 190.716 2.83175 -2.47969 0
M  V30 1953 C 189.863 1.57395 -2.28303 0
M  V30 1954 H 192.814 0.475937 -1.51395 0
M  V30 1955 H 192.835 3.11175 -2.18976 0
M  V30 1956 H 192.347 1.78729 -3.44496 0
M  V30 1957 H 190.448 3.3818 -1.56413 0
M  V30 1958 H 190.561 3.32687 -3.44755 0
M  V30 1959 H 188.925 1.83699 -1.76428 0
M  V30 1960 H 189.708 1.08507 -3.25701 0
M  V30 1961 N 192.153 1.28127 0.917671 0
M  V30 1962 C 193.116 1.11744 2.00115 0
M  V30 1963 C 194.116 0.0583052 1.60694 0
M  V30 1964 O 195.306 0.303755 1.71531 0
M  V30 1965 C 192.438 0.704862 3.33533 0
M  V30 1966 H 193.631 2.07966 2.16079 0
M  V30 1967 H 191.184 1.11058 1.09981 0
M  V30 1968 H 191.919 -0.258299 3.2327 0
M  V30 1969 H 191.704 1.4699 3.63505 0
M  V30 1970 H 193.194 0.612768 4.1308 0
M  V30 1971 N 193.631 -1.12557 1.10312 0
M  V30 1972 C 195.047 -1.36036 0.834649 0
M  V30 1973 C 195.247 -1.93946 -0.546539 0
M  V30 1974 O 194.303 -2.16484 -1.29966 0
M  V30 1975 C 195.616 -2.30312 1.9333 0
M  V30 1976 C 197.164 -2.43906 1.9616 0
M  V30 1977 C 197.639 -3.41496 3.05195 0
M  V30 1978 N 199.13 -3.49053 3.04494 0
M  V30 1979 C 199.865 -4.24471 3.85502 0
M  V30 1980 N 199.361 -5.02966 4.76442 0
M  V30 1981 N 201.154 -4.19864 3.73725 0
M  V30 1982 H 193.305 -0.733246 1.99342 0
M  V30 1983 H 195.568 -0.385234 0.866198 0
M  V30 1984 H 195.274 -1.94933 2.92735 0
M  V30 1985 H 195.148 -3.30421 1.81939 0
M  V30 1986 H 197.535 -2.78567 0.973886 0
M  V30 1987 H 197.616 -1.4369 2.11629 0
M  V30 1988 H 197.26 -3.07565 4.04186 0
M  V30 1989 H 197.19 -4.41539 2.86968 0
M  V30 1990 H 199.681 -2.93053 2.38596 0
M  V30 1991 H 199.994 -5.57846 5.34815 0
M  V30 1992 H 198.339 -5.02167 4.80472 0
M  V30 1993 H 201.53 -3.57623 3.02032 0
M  V30 1994 H 201.703 -4.78386 4.37093 0
M  V30 1995 N 195.109 -0.891671 -1.2995 0
M  V30 1996 C 196.386 -0.433307 -1.9074 0
M  V30 1997 C 196.766 1.08646 -1.80995 0
M  V30 1998 O 196.114 1.92476 -1.23147 0
M  V30 1999 C 196.324 -0.938895 -3.36134 0
M  V30 2000 C 197.672 -0.977829 -4.13187 0
M  V30 2001 O 198.696 -0.886015 -3.45005 0
M  V30 2002 O 197.555 -1.11453 -5.35015 0
M  V30 2003 H 194.649 -0.133699 -0.816121 0
M  V30 2004 H 197.195 -0.981011 -1.38471 0
M  V30 2005 H 195.967 -1.98281 -3.37343 0
M  V30 2006 H 195.59 -0.37074 -3.95868 0
M  V30 2007 N 196.587 1.43421 -0.653314 0
M  V30 2008 C 197.517 2.33487 0.0246656 0
M  V30 2009 C 198.498 1.49475 0.811863 0
M  V30 2010 O 199.683 1.78139 0.773322 0
M  V30 2011 C 196.813 3.32841 0.99166 0
M  V30 2012 C 195.767 4.26842 0.314568 0
M  V30 2013 C 195.093 5.16236 1.39302 0
M  V30 2014 C 196.393 5.16243 -0.793095 0
M  V30 2015 H 198.087 2.90427 -0.727481 0
M  V30 2016 H 195.633 1.39649 -0.351287 0
M  V30 2017 H 197.586 3.94747 1.47487 0
M  V30 2018 H 196.31 2.74158 1.77497 0
M  V30 2019 H 194.969 3.663 -0.148199 0
M  V30 2020 H 194.617 4.53891 2.16776 0
M  V30 2021 H 194.317 5.79948 0.945223 0
M  V30 2022 H 195.841 5.81015 1.87759 0
M  V30 2023 H 197.255 5.71958 -0.392039 0
M  V30 2024 H 195.652 5.88676 -1.16536 0
M  V30 2025 H 196.722 4.55927 -1.65103 0
M  V30 2026 N 198.065 0.39524 1.52563 0
M  V30 2027 C 198.997 -0.472201 2.24283 0
M  V30 2028 C 200.01 -1.02178 1.26742 0
M  V30 2029 O 201.199 -0.923097 1.52778 0
M  V30 2030 C 198.299 -1.66775 2.95024 0
M  V30 2031 C 197.472 -1.2445 4.19322 0
M  V30 2032 C 196.531 -2.30539 4.7301 0
M  V30 2033 O 195.557 -1.91702 5.35947 0
M  V30 2034 N 196.759 -3.6253 4.53379 0
M  V30 2035 H 199.524 0.142282 2.99362 0
M  V30 2036 H 197.085 0.2219 1.60372 0
M  V30 2037 H 199.077 -2.37283 3.27839 0
M  V30 2038 H 197.647 -2.18845 2.23217 0
M  V30 2039 H 196.867 -0.368069 3.92478 0
M  V30 2040 H 198.155 -0.938457 5.0007 0
M  V30 2041 H 197.553 -3.96841 4.03154 0
M  V30 2042 H 196.11 -4.29055 4.90668 0
M  V30 2043 N 199.544 -1.57102 0.125237 0
M  V30 2044 C 200.769 -2.0019 -0.542101 0
M  V30 2045 C 201.194 -1.00449 -1.59034 0
M  V30 2046 O 200.552 0.0229423 -1.81285 0
M  V30 2047 C 200.6 -3.42129 -1.13929 0
M  V30 2048 O 199.704 -3.45307 -2.2547 0
M  V30 2049 H 199.045 -0.650171 -0.134812 0
M  V30 2050 H 201.575 -2.03461 0.215553 0
M  V30 2051 H 201.585 -3.80471 -1.4733 0
M  V30 2052 H 200.26 -4.14237 -0.371531 0
M  V30 2053 H 198.837 -3.1879 -1.93462 0
M  V30 2054 N 201.022 0.148545 -1.56898 0
M  V30 2055 C 201.972 1.1886 -1.94567 0
M  V30 2056 C 202.956 1.3863 -0.816735 0
M  V30 2057 O 204.148 1.40218 -1.08018 0
M  V30 2058 C 201.277 2.52262 -2.32849 0
M  V30 2059 C 200.363 2.36092 -3.52309 0
M  V30 2060 N 200.754 1.89674 -4.6889 0
M  V30 2061 C 199.052 2.66848 -3.57363 0
M  V30 2062 C 199.753 1.86511 -5.50989 0
M  V30 2063 N 198.729 2.29766 -4.92655 0
M  V30 2064 H 202.531 0.821793 -2.82177 0
M  V30 2065 H 200.045 0.356615 -1.58436 0
M  V30 2066 H 202.042 3.27447 -2.58039 0
M  V30 2067 H 200.702 2.89727 -1.46589 0
M  V30 2068 H 201.713 1.59663 -4.92674 0
M  V30 2069 H 198.39 3.08198 -2.81639 0
M  V30 2070 H 199.78 1.52128 -6.54452 0
M  V30 2071 N 202.5 1.5196 0.417844 0
M  V30 2072 C 203.916 1.40569 0.755816 0
M  V30 2073 C 204.116 0.503316 1.95113 0
M  V30 2074 O 203.172 -0.0341925 2.52477 0
M  V30 2075 C 204.485 2.82947 1.01791 0
M  V30 2076 C 206.033 2.92231 1.12116 0
M  V30 2077 C 206.508 4.35559 1.41608 0
M  V30 2078 N 207.999 4.38753 1.48491 0
M  V30 2079 C 208.734 5.46705 1.7292 0
M  V30 2080 N 208.23 6.64788 1.95011 0
M  V30 2081 N 210.023 5.34209 1.74863 0
M  V30 2082 H 202.174 2.09168 -0.369098 0
M  V30 2083 H 204.437 0.942409 -0.102809 0
M  V30 2084 H 204.143 3.5106 0.212081 0
M  V30 2085 H 204.017 3.23462 1.94042 0
M  V30 2086 H 206.404 2.24304 1.9176 0
M  V30 2087 H 206.485 2.55185 0.177225 0
M  V30 2088 H 206.129 5.04042 0.624848 0
M  V30 2089 H 206.059 4.70133 2.37239 0
M  V30 2090 H 208.55 3.5363 1.33244 0
M  V30 2091 H 208.863 7.42845 2.13076 0
M  V30 2092 H 207.208 6.67869 1.92293 0
M  V30 2093 H 210.399 4.40937 1.57137 0
M  V30 2094 H 210.572 6.18415 1.93563 0
M  V30 2095 N 203.978 -0.674533 1.42435 0
M  V30 2096 C 205.389 -1.25514 1.38214 0
M  V30 2097 C 205.74 -1.96055 0.0755464 0
M  V30 2098 O 204.865 -2.00028 -0.8257 0
M  V30 2099 C 205.46 -2.28269 2.50357 0
M  V30 2100 C 204.019 -2.81856 2.49467 0
M  V30 2101 C 203.166 -1.56182 2.29134 0
M  V30 2102 H 206.117 -0.467902 1.51646 0
M  V30 2103 H 206.138 -3.10009 2.20624 0
M  V30 2104 H 205.65 -1.769 3.45439 0
M  V30 2105 H 203.751 -3.37346 1.58204 0
M  V30 2106 H 203.864 -3.30854 3.46515 0
M  V30 2107 H 202.228 -1.82761 1.774 0
M  V30 2108 H 203.011 -1.06778 3.26272 0
M  V30 2109 N 205.456 -1.28612 -0.910864 0
M  V30 2110 C 206.419 -1.12803 -1.9952 0
M  V30 2111 C 207.419 -0.0668264 -1.60661 0
M  V30 2112 O 208.609 -0.312847 -1.71368 0
M  V30 2113 C 205.741 -0.72254 -3.33155 0
M  V30 2114 H 206.934 -2.09109 -2.14973 0
M  V30 2115 H 204.487 -1.11639 -1.09391 0
M  V30 2116 H 205.222 0.241152 -3.23402 0
M  V30 2117 H 205.007 -1.48916 -3.62721 0
M  V30 2118 H 206.497 -0.634666 -4.12749 0
M  V30 2119 N 206.934 1.1197 -1.10907 0
M  V30 2120 C 208.183 1.82947 -0.849302 0
M  V30 2121 C 208.496 1.85275 0.627112 0
M  V30 2122 O 209.702 2.52296 1.00295 0
M  V30 2123 C 208.158 3.28529 -1.46959 0
M  V30 2124 C 207.766 3.34546 -2.97965 0
M  V30 2125 C 209.51 4.04443 -1.28942 0
M  V30 2126 C 207.417 4.74491 -3.53004 0
M  V30 2127 H 206.347 0.685477 -0.314065 0
M  V30 2128 H 208.998 1.2604 -1.33365 0
M  V30 2129 H 207.38 3.85333 -0.912917 0
M  V30 2130 H 208.554 2.87654 -3.59989 0
M  V30 2131 H 206.869 2.72108 -3.15192 0
M  V30 2132 H 209.466 5.07787 -1.67502 0
M  V30 2133 H 209.809 4.15656 -0.231456 0
M  V30 2134 H 210.342 3.5401 -1.81443 0
M  V30 2135 H 207.081 4.68474 -4.58489 0
M  V30 2136 H 206.601 5.21816 -2.9575 0
M  V30 2137 H 208.28 5.4344 -3.51115 0
M  V30 2138 N 208.412 0.89855 1.29475 0
M  V30 2139 C 209.658 0.524658 1.95896 0
M  V30 2140 C 209.991 -0.926468 1.70676 0
M  V30 2141 O 209.266 -1.65665 1.01908 0
M  V30 2142 C 209.549 0.81633 3.50725 0
M  V30 2143 C 209.402 2.31907 3.85408 0
M  V30 2144 C 210.721 0.302038 4.39062 0
M  V30 2145 H 207.84 0.19209 0.711527 0
M  V30 2146 H 210.482 1.12502 1.53112 0
M  V30 2147 H 208.632 0.305369 3.87298 0
M  V30 2148 H 210.304 2.89949 3.58786 0
M  V30 2149 H 208.547 2.78027 3.32992 0
M  V30 2150 H 209.218 2.47373 4.93468 0
M  V30 2151 H 211.694 0.739551 4.09475 0
M  V30 2152 H 210.57 0.535331 5.46283 0
M  V30 2153 H 210.831 -0.797216 4.34853 0
M  V30 2154 N 209.89 -1.43072 0.660911 0
M  V30 2155 C 211.306 -1.56169 0.329173 0
M  V30 2156 C 211.506 -1.64317 -1.16629 0
M  V30 2157 O 210.562 -1.60245 -1.95135 0
M  V30 2158 C 211.875 -2.81873 1.04729 0
M  V30 2159 C 213.423 -2.95627 1.02828 0
M  V30 2160 C 213.898 -4.24174 1.72744 0
M  V30 2161 N 215.389 -4.31055 1.69545 0
M  V30 2162 C 216.124 -5.29304 2.20511 0
M  V30 2163 N 215.62 -6.33786 2.79799 0
M  V30 2164 N 217.413 -5.21008 2.10966 0
M  V30 2165 H 209.564 -1.36027 1.63127 0
M  V30 2166 H 211.827 -0.653823 0.686454 0
M  V30 2167 H 211.533 -2.81942 2.10242 0
M  V30 2168 H 211.407 -3.72338 0.603702 0
M  V30 2169 H 213.794 -2.95094 -0.0184742 0
M  V30 2170 H 213.875 -2.06431 1.51063 0
M  V30 2171 H 213.519 -4.25467 2.7738 0
M  V30 2172 H 213.449 -5.1228 1.2197 0
M  V30 2173 H 215.94 -3.56174 1.26288 0
M  V30 2174 H 216.253 -7.05086 3.16344 0
M  V30 2175 H 214.598 -6.34387 2.83863 0
M  V30 2176 H 217.789 -4.38301 1.64347 0
M  V30 2177 H 217.962 -5.97416 2.50993 0
M  V30 2178 N 211.368 -0.403325 -1.52352 0
M  V30 2179 C 212.784 -0.0539281 -1.59509 0
M  V30 2180 C 212.984 1.43307 -1.41652 0
M  V30 2181 O 212.04 2.19924 -1.24056 0
M  V30 2182 C 213.353 -0.543654 -2.95745 0
M  V30 2183 C 214.901 -0.501125 -3.08962 0
M  V30 2184 C 215.376 -0.967267 -4.47669 0
M  V30 2185 N 216.867 -0.923849 -4.53893 0
M  V30 2186 C 217.602 -1.25578 -5.5948 0
M  V30 2187 N 217.098 -1.65889 -6.72646 0
M  V30 2188 N 218.891 -1.17613 -5.49658 0
M  V30 2189 H 211.042 -1.37123 -1.62206 0
M  V30 2190 H 213.305 -0.56294 -0.76276 0
M  V30 2191 H 213.011 -1.58275 -3.14073 0
M  V30 2192 H 212.885 0.0498042 -3.77167 0
M  V30 2193 H 215.272 0.528909 -2.90321 0
M  V30 2194 H 215.353 -1.13056 -2.2946 0
M  V30 2195 H 214.997 -1.9956 -4.67053 0
M  V30 2196 H 214.927 -0.314698 -5.25659 0
M  V30 2197 H 217.418 -0.627403 -3.72655 0
M  V30 2198 H 217.731 -1.89543 -7.49195 0
M  V30 2199 H 216.076 -1.69787 -6.73942 0
M  V30 2200 H 219.267 -0.860115 -4.6013 0
M  V30 2201 H 219.44 -1.43812 -6.3184 0
M  V30 2202 N 212.846 1.57033 -0.133567 0
M  V30 2203 C 213.776 2.1909 0.807567 0
M  V30 2204 C 214.757 1.13517 1.26681 0
M  V30 2205 O 215.942 1.41809 1.32679 0
M  V30 2206 C 213.072 2.80188 2.05212 0
M  V30 2207 C 212.026 3.91471 1.73015 0
M  V30 2208 C 211.352 4.39443 3.04622 0
M  V30 2209 C 212.652 5.12886 0.987168 0
M  V30 2210 H 214.346 2.97988 0.290403 0
M  V30 2211 H 211.892 1.43335 0.138239 0
M  V30 2212 H 213.845 3.22264 2.71521 0
M  V30 2213 H 212.569 1.98601 2.59278 0
M  V30 2214 H 211.228 3.49993 1.0909 0
M  V30 2215 H 210.876 3.54695 3.56651 0
M  V30 2216 H 210.576 5.14495 2.83847 0
M  V30 2217 H 212.1 4.8418 3.72024 0
M  V30 2218 H 213.514 5.51891 1.55208 0
M  V30 2219 H 211.911 5.93615 0.87985 0
M  V30 2220 H 212.981 4.84894 -0.0235286 0
M  V30 2221 N 214.325 -0.140222 1.56975 0
M  V30 2222 C 215.275 -1.17827 1.95194 0
M  V30 2223 C 216.259 -1.38195 0.824075 0
M  V30 2224 O 217.451 -1.39643 1.0876 0
M  V30 2225 C 214.58 -2.51024 2.34184 0
M  V30 2226 C 213.666 -2.3422 3.53556 0
M  V30 2227 N 214.057 -1.87185 4.69889 0
M  V30 2228 C 212.355 -2.64949 3.58773 0
M  V30 2229 C 213.056 -1.83586 5.5197 0
M  V30 2230 N 212.032 -2.2715 4.93866 0
M  V30 2231 H 215.834 -0.806817 2.82609 0
M  V30 2232 H 213.348 -0.348208 1.58623 0
M  V30 2233 H 215.345 -3.26074 2.59772 0
M  V30 2234 H 214.005 -2.88945 1.48124 0
M  V30 2235 H 215.016 -1.57048 4.93514 0
M  V30 2236 H 211.693 -3.067 2.8327 0
M  V30 2237 H 213.083 -1.48655 6.55249 0
M  V30 2238 N 215.803 -1.52179 -0.40978 0
M  V30 2239 C 217.028 -1.70347 -1.18308 0
M  V30 2240 C 217.453 -0.411887 -1.83535 0
M  V30 2241 O 216.811 0.630587 -1.6998 0
M  V30 2242 C 216.859 -2.83977 -2.22238 0
M  V30 2243 O 215.963 -2.495 -3.28365 0
M  V30 2244 H 215.304 -0.567103 -0.345384 0
M  V30 2245 H 217.834 -1.98879 -0.480445 0
M  V30 2246 H 217.844 -3.0887 -2.66577 0
M  V30 2247 H 216.519 -3.77685 -1.74146 0
M  V30 2248 H 215.096 -2.35277 -2.89308 0
M  V30 2249 N 217.281 0.66697 -1.42791 0
M  V30 2250 C 218.231 1.77313 -1.43332 0
M  V30 2251 C 219.215 1.5801 -0.303586 0
M  V30 2252 O 220.407 1.68356 -0.546385 0
M  V30 2253 C 217.536 3.15822 -1.34578 0
M  V30 2254 C 216.622 3.40721 -2.52528 0
M  V30 2255 N 217.013 3.36162 -3.77927 0
M  V30 2256 C 215.311 3.71387 -2.46956 0
M  V30 2257 C 216.012 3.60762 -4.56318 0
M  V30 2258 N 214.988 3.81908 -3.86843 0
M  V30 2259 H 218.79 1.72193 -2.38174 0
M  V30 2260 H 216.304 0.868114 -1.3725 0
M  V30 2261 H 218.301 3.951 -1.33048 0
M  V30 2262 H 216.961 3.22133 -0.407453 0
M  V30 2263 H 217.972 3.15885 -4.10411 0
M  V30 2264 H 214.649 3.84897 -1.61743 0
M  V30 2265 H 216.039 3.63132 -5.65318 0
M  V30 2266 N 218.759 1.29093 0.90403 0
M  V30 2267 C 220.005 1.16986 1.65656 0
M  V30 2268 C 220.338 -0.278925 1.92186 0
M  V30 2269 O 219.613 -1.2019 1.5292 0
M  V30 2270 C 219.896 1.97908 3.0084 0
M  V30 2271 C 219.749 3.50903 2.81403 0
M  V30 2272 C 221.068 1.80208 4.01513 0
M  V30 2273 H 218.187 0.426346 0.601164 0
M  V30 2274 H 220.829 1.58518 1.04747 0
M  V30 2275 H 218.979 1.62616 3.52829 0
M  V30 2276 H 220.651 3.96153 2.36348 0
M  V30 2277 H 218.894 3.76045 2.1627 0
M  V30 2278 H 219.565 4.02791 3.77443 0
M  V30 2279 H 222.041 2.11025 3.58619 0
M  V30 2280 H 220.917 2.39184 4.94047 0
M  V30 2281 H 221.178 0.756119 4.35586 0
M  V30 2282 N 220.237 -1.11381 1.11499 0
M  V30 2283 C 221.147 -2.21019 0.786628 0
M  V30 2284 C 222.163 -1.72597 -0.220507 0
M  V30 2285 O 223.339 -2.01321 -0.0565251 0
M  V30 2286 C 220.404 -3.459 0.235333 0
M  V30 2287 C 219.465 -4.09107 1.30115 0
M  V30 2288 C 218.698 -5.28027 0.776068 0
M  V30 2289 O 218.921 -5.6904 -0.393661 0
M  V30 2290 O 217.855 -5.81835 1.54114 0
M  V30 2291 H 221.681 -2.51521 1.70209 0
M  V30 2292 H 219.266 -1.19928 0.890928 0
M  V30 2293 H 221.148 -4.21346 -0.067715 0
M  V30 2294 H 219.823 -3.17049 -0.652828 0
M  V30 2295 H 218.73 -3.35391 1.65722 0
M  V30 2296 H 220.063 -4.42139 2.16273 0
M  V30 2297 N 221.715 -0.905404 -1.28997 0
M  V30 2298 C 222.663 -0.377431 -2.29517 0
M  V30 2299 C 223.657 0.526461 -1.61012 0
M  V30 2300 O 224.863 0.40863 -1.753 0
M  V30 2301 H 221.238 -0.103437 -0.744852 0
M  V30 2302 H 223.209 -1.23848 -2.71485 0
M  V30 2303 C 221.958 0.374833 -3.45674 0
M  V30 2304 H 221.281 -0.311474 -3.98585 0
M  V30 2305 H 222.721 0.70903 -4.1803 0
M  V30 2306 C 221.18 1.57963 -2.97572 0
M  V30 2307 O 221.71 2.67886 -2.99333 0
M  V30 2308 N 219.916 1.42375 -2.53333 0
M  V30 2309 H 219.463 0.529466 -2.521 0
M  V30 2310 H 219.421 2.23117 -2.21509 0
M  V30 2311 N 223.193 1.4272 -0.668489 0
M  V30 2312 C 224.126 2.28111 0.0637898 0
M  V30 2313 C 225.104 1.40705 0.814912 0
M  V30 2314 O 226.288 1.70146 0.81134 0
M  V30 2315 C 223.415 3.20429 1.0974 0
M  V30 2316 C 222.461 4.24197 0.442579 0
M  V30 2317 S 223.294 5.29563 -0.795173 0
M  V30 2318 C 224.45 6.25449 0.237516 0
M  V30 2319 H 224.683 2.8987 -0.660521 0
M  V30 2320 H 222.216 1.47456 -0.457821 0
M  V30 2321 H 224.174 3.74158 1.68868 0
M  V30 2322 H 222.835 2.57818 1.79411 0
M  V30 2323 H 222.028 4.88954 1.22227 0
M  V30 2324 H 221.63 3.73925 -0.0749554 0
M  V30 2325 H 223.922 6.68524 1.09915 0
M  V30 2326 H 224.865 7.07104 -0.375421 0
M  V30 2327 H 225.273 5.61511 0.580167 0
M  V30 2328 N 224.671 0.411399 1.52136 0
M  V30 2329 C 225.601 -0.404015 2.29978 0
M  V30 2330 C 226.582 -1.04412 1.34284 0
M  V30 2331 O 227.767 -1.0527 1.63192 0
M  V30 2332 C 224.897 -1.5197 3.12286 0
M  V30 2333 C 223.851 -1.00448 4.16046 0
M  V30 2334 C 223.177 -2.21393 4.86712 0
M  V30 2335 C 224.477 -0.0569336 5.22269 0
M  V30 2336 H 226.171 0.245529 2.98392 0
M  V30 2337 H 223.717 0.119525 1.43503 0
M  V30 2338 H 225.67 -2.09715 3.6551 0
M  V30 2339 H 224.394 -2.19716 2.41646 0
M  V30 2340 H 223.053 -0.449421 3.63835 0
M  V30 2341 H 222.701 -2.87699 4.12599 0
M  V30 2342 H 222.401 -1.87571 5.56858 0
M  V30 2343 H 223.925 -2.7974 5.4275 0
M  V30 2344 H 225.339 -0.54325 5.7072 0
M  V30 2345 H 223.736 0.192594 5.99791 0
M  V30 2346 H 224.806 0.887663 4.76706 0
M  V30 2347 N 226.149 -1.5696 0.141893 0
M  V30 2348 C 227.426 -1.87553 -0.555281 0
M  V30 2349 C 227.806 -1.04699 -1.83306 0
M  V30 2350 O 227.154 -0.132346 -2.28116 0
M  V30 2351 C 227.364 -3.39093 -0.825664 0
M  V30 2352 C 228.712 -4.08199 -1.16869 0
M  V30 2353 O 229.736 -3.44242 -0.915185 0
M  V30 2354 O 228.595 -5.21139 -1.6455 0
M  V30 2355 H 225.689 -0.777188 -0.282679 0
M  V30 2356 H 228.235 -1.68763 0.17812 0
M  V30 2357 H 227.007 -3.91221 0.0788633 0
M  V30 2358 H 226.63 -3.63393 -1.61343 0
M  V30 2359 N 227.627 0.131896 -1.57047 0
M  V30 2360 C 228.557 1.16384 -2.02428 0
M  V30 2361 C 229.538 1.43936 -0.90644 0
M  V30 2362 O 230.723 1.54599 -1.17528 0
M  V30 2363 C 227.853 2.49328 -2.4177 0
M  V30 2364 C 226.807 2.36266 -3.56879 0
M  V30 2365 C 226.133 3.74057 -3.8208 0
M  V30 2366 C 227.433 1.834 -4.89042 0
M  V30 2367 H 229.127 0.786433 -2.88887 0
M  V30 2368 H 226.673 0.376855 -1.38981 0
M  V30 2369 H 228.626 3.21759 -2.7212 0
M  V30 2370 H 227.35 2.88934 -1.52266 0
M  V30 2371 H 226.009 1.66286 -3.26718 0
M  V30 2372 H 225.657 4.11125 -2.89803 0
M  V30 2373 H 225.357 3.66174 -4.59554 0
M  V30 2374 H 226.881 4.48012 -4.1487 0
M  V30 2375 H 228.295 2.45636 -5.18011 0
M  V30 2376 H 226.692 1.8637 -5.70426 0
M  V30 2377 H 227.762 0.790662 -4.7841 0
M  V30 2378 N 229.106 1.52395 0.401703 0
M  V30 2379 C 230.069 1.75636 1.47257 0
M  V30 2380 C 231.069 0.62628 1.48103 0
M  V30 2381 O 232.259 0.894227 1.49497 0
M  V30 2382 C 229.391 1.84553 2.86624 0
M  V30 2383 H 230.584 2.71241 1.27938 0
M  V30 2384 H 228.137 1.42923 0.632662 0
M  V30 2385 H 228.872 0.908882 3.11303 0
M  V30 2386 H 228.657 2.66715 2.87412 0
M  V30 2387 H 230.147 2.04251 3.64241 0
M  V30 2388 N 230.584 -0.659388 1.43143 0
M  V30 2389 C 231.83 -1.41984 1.45644 0
M  V30 2390 C 232.185 -1.92245 0.0771718 0
M  V30 2391 O 231.478 -1.68976 -0.903205 0
M  V30 2392 C 231.672 -2.62206 2.42864 0
M  V30 2393 C 231.501 -2.23711 3.90107 0
M  V30 2394 C 230.271 -2.12332 4.58523 0
M  V30 2395 C 232.469 -1.84384 4.80112 0
M  V30 2396 N 230.451 -1.67102 5.9072 0
M  V30 2397 C 231.822 -1.5019 6.01534 0
M  V30 2398 C 233.877 -1.71512 4.67427 0
M  V30 2399 C 232.58 -1.04414 7.11681 0
M  V30 2400 C 234.606 -1.27142 5.77572 0
M  V30 2401 C 233.968 -0.938808 6.98116 0
M  V30 2402 H 230.067 -0.515448 0.588079 0
M  V30 2403 H 232.651 -0.759409 1.79279 0
M  V30 2404 H 230.822 -3.25917 2.11265 0
M  V30 2405 H 232.554 -3.28877 2.35843 0
M  V30 2406 H 229.309 -2.31893 4.12944 0
M  V30 2407 H 229.733 -1.46866 6.60878 0
M  V30 2408 H 234.375 -1.95868 3.74694 0
M  V30 2409 H 232.093 -0.788061 8.04248 0
M  V30 2410 H 235.679 -1.17681 5.69774 0
M  V30 2411 H 234.559 -0.6007 7.81896 0
M  V30 2412 N 232.062 -1.29571 -0.897171 0
M  V30 2413 C 232.972 -1.16808 -2.03453 0
M  V30 2414 C 233.988 -0.0907471 -1.73763 0
M  V30 2415 O 235.164 -0.303312 -1.99103 0
M  V30 2416 C 232.229 -0.848264 -3.36163 0
M  V30 2417 C 231.29 -2.0097 -3.79354 0
M  V30 2418 C 230.523 -1.70505 -5.05731 0
M  V30 2419 O 230.746 -0.62718 -5.66941 0
M  V30 2420 O 229.68 -2.5538 -5.45036 0
M  V30 2421 H 233.506 -2.12325 -2.17144 0
M  V30 2422 H 231.091 -1.09047 -1.02123 0
M  V30 2423 H 232.973 -0.684581 -4.15802 0
M  V30 2424 H 231.648 0.0771071 -3.23608 0
M  V30 2425 H 230.555 -2.22863 -3.00471 0
M  V30 2426 H 231.888 -2.91636 -3.96496 0
M  V30 2427 N 233.54 1.10788 -1.12088 0
M  V30 2428 C 234.956 1.34691 -0.856186 0
M  V30 2429 C 235.156 1.94791 0.515615 0
M  V30 2430 O 234.212 2.18524 1.26505 0
M  V30 2431 C 235.525 2.27208 -1.9697 0
M  V30 2432 C 237.073 2.40755 -2.00016 0
M  V30 2433 C 237.548 3.36598 -3.1059 0
M  V30 2434 N 239.039 3.44164 -3.10008 0
M  V30 2435 C 239.774 4.18284 -3.92206 0
M  V30 2436 N 239.27 4.95322 -4.84384 0
M  V30 2437 N 241.063 4.13865 -3.80357 0
M  V30 2438 H 233.214 0.70144 -2.00483 0
M  V30 2439 H 235.477 0.371405 -0.872217 0
M  V30 2440 H 235.183 1.90251 -2.958 0
M  V30 2441 H 235.057 3.27485 -1.87172 0
M  V30 2442 H 237.444 2.76982 -1.01808 0
M  V30 2443 H 237.525 1.40305 -2.13888 0
M  V30 2444 H 237.169 3.01096 -4.09028 0
M  V30 2445 H 237.099 4.36918 -2.93956 0
M  V30 2446 H 239.59 2.8922 -2.43228 0
M  V30 2447 H 239.903 5.49267 -5.43623 0
M  V30 2448 H 238.248 4.94459 -4.884 0
M  V30 2449 H 241.439 3.52773 -3.07683 0
M  V30 2450 H 241.612 4.71372 -4.44649 0
M  V30 2451 N 235.018 0.912232 1.28515 0
M  V30 2452 C 236.266 0.543523 1.94654 0
M  V30 2453 C 236.587 -0.9155 1.72173 0
M  V30 2454 O 235.857 -1.64708 1.06058 0
M  V30 2455 H 234.437 0.198017 0.720277 0
M  V30 2456 H 237.099 1.16126 1.56527 0
M  V30 2457 H 236.195 0.736684 3.03281 0
M  V30 2458 N 236.496 -1.42363 0.676048 0
M  V30 2459 C 237.743 -2.01522 0.19883 0
M  V30 2460 C 238.071 -1.53456 -1.19505 0
M  V30 2461 O 237.326 -0.727967 -1.81657 0
M  V30 2462 C 237.625 -3.56929 0.183431 0
M  V30 2463 C 237.291 -4.24431 1.52215 0
M  V30 2464 C 235.953 -4.42585 1.8887 0
M  V30 2465 C 238.305 -4.62459 2.40377 0
M  V30 2466 C 235.633 -4.96039 3.13309 0
M  V30 2467 C 237.985 -5.17294 3.64129 0
M  V30 2468 C 236.649 -5.33661 4.00951 0
M  V30 2469 H 235.919 -0.737419 0.0727571 0
M  V30 2470 H 238.566 -1.70531 0.871281 0
M  V30 2471 H 236.871 -3.87594 -0.572532 0
M  V30 2472 H 238.568 -4.00486 -0.203035 0
M  V30 2473 H 235.158 -4.10661 1.22701 0
M  V30 2474 H 239.342 -4.48105 2.13343 0
M  V30 2475 H 234.598 -5.06896 3.41857 0
M  V30 2476 H 238.772 -5.45704 4.32644 0
M  V30 2477 H 236.399 -5.74845 4.9745 0
M  V30 2478 N 237.974 -0.419461 -1.51915 0
M  V30 2479 C 239.22 0.153166 -2.02221 0
M  V30 2480 C 239.553 1.43907 -1.30401 0
M  V30 2481 O 238.828 1.90055 -0.413438 0
M  V30 2482 C 239.111 0.390291 -3.57979 0
M  V30 2483 C 238.964 -0.913014 -4.40436 0
M  V30 2484 C 240.283 1.16794 -4.2432 0
M  V30 2485 H 237.402 0.0541924 -0.735005 0
M  V30 2486 H 240.044 -0.554955 -1.81715 0
M  V30 2487 H 238.194 0.993491 -3.75582 0
M  V30 2488 H 239.866 -1.54882 -4.34522 0
M  V30 2489 H 238.109 -1.52168 -4.06236 0
M  V30 2490 H 238.78 -0.701361 -5.47526 0
M  V30 2491 H 241.256 0.657161 -4.10878 0
M  V30 2492 H 240.132 1.3026 -5.3322 0
M  V30 2493 H 240.393 2.19132 -3.83971 0
M  V30 2494 N 239.452 1.56882 -0.150215 0
M  V30 2495 C 240.677 2.01027 0.510184 0
M  V30 2496 C 241.102 1.02966 1.57415 0
M  V30 2497 O 240.46 0.00590158 1.81299 0
M  V30 2498 C 240.508 3.43899 1.08472 0
M  V30 2499 O 239.612 3.4885 2.19948 0
M  V30 2500 H 238.953 0.652233 0.124451 0
M  V30 2501 H 241.483 2.03093 -0.247894 0
M  V30 2502 H 241.493 3.82766 1.41259 0
M  V30 2503 H 240.168 4.14776 0.305582 0
M  V30 2504 H 238.745 3.21827 1.88366 0
M  V30 2505 N 240.93 -0.123565 1.57115 0
M  V30 2506 C 241.862 -1.17739 1.96648 0
M  V30 2507 C 242.875 -1.37906 0.865201 0
M  V30 2508 O 244.064 -1.37062 1.14351 0
M  V30 2509 C 241.164 -2.53821 2.24562 0
M  V30 2510 C 240.337 -2.54317 3.55867 0
M  V30 2511 C 239.396 -3.72112 3.72047 0
M  V30 2512 O 238.422 -3.55907 4.44206 0
M  V30 2513 N 239.624 -4.90498 3.10471 0
M  V30 2514 H 242.389 -0.841147 2.87654 0
M  V30 2515 H 239.95 -0.31289 1.58848 0
M  V30 2516 H 241.942 -3.31175 2.32606 0
M  V30 2517 H 240.512 -2.79645 1.39705 0
M  V30 2518 H 239.732 -1.62711 3.59053 0
M  V30 2519 H 241.02 -2.51701 4.42181 0
M  V30 2520 H 240.418 -5.06567 2.51806 0
M  V30 2521 H 238.975 -5.65544 3.24043 0
M  V30 2522 N 242.408 -1.52605 -0.393616 0
M  V30 2523 C 243.638 -1.71046 -1.15874 0
M  V30 2524 C 244.046 -0.426483 -1.84331 0
M  V30 2525 O 243.389 0.608513 -1.73329 0
M  V30 2526 C 243.451 -2.80118 -2.25332 0
M  V30 2527 C 243.115 -4.21381 -1.76881 0
M  V30 2528 C 244.112 -5.04697 -1.24808 0
M  V30 2529 C 241.797 -4.67683 -1.83244 0
M  V30 2530 C 243.791 -6.32393 -0.797387 0
M  V30 2531 C 241.478 -5.95364 -1.37787 0
M  V30 2532 C 242.476 -6.77549 -0.861208 0
M  V30 2533 O 242.164 -8.02837 -0.413252 0
M  V30 2534 H 241.896 -0.576155 -0.353583 0
M  V30 2535 H 244.45 -2.00018 -0.467123 0
M  V30 2536 H 242.68 -2.46557 -2.97904 0
M  V30 2537 H 244.369 -2.87006 -2.87023 0
M  V30 2538 H 245.135 -4.70111 -1.19252 0
M  V30 2539 H 241.014 -4.03805 -2.22401 0
M  V30 2540 H 244.558 -6.9649 -0.393437 0
M  V30 2541 H 240.455 -6.29455 -1.43026 0
M  V30 2542 H 241.223 -8.16749 -0.53515 0
M  V30 2543 N 243.887 0.651787 -1.4349 0
M  V30 2544 C 244.797 1.79368 -1.5121 0
M  V30 2545 C 245.813 1.69361 -0.399093 0
M  V30 2546 O 246.989 1.90505 -0.653431 0
M  V30 2547 C 244.054 3.15653 -1.43401 0
M  V30 2548 C 243.115 3.37446 -2.65384 0
M  V30 2549 C 242.348 4.67229 -2.57939 0
M  V30 2550 O 242.571 5.46676 -1.62792 0
M  V30 2551 O 241.505 4.90773 -3.48462 0
M  V30 2552 H 245.331 1.7581 -2.47638 0
M  V30 2553 H 242.916 0.810447 -1.25507 0
M  V30 2554 H 244.798 3.96935 -1.41494 0
M  V30 2555 H 243.473 3.19798 -0.501085 0
M  V30 2556 H 242.38 2.55923 -2.72863 0
M  V30 2557 H 243.713 3.38148 -3.57654 0
M  V30 2558 N 245.365 1.30045 0.890287 0
M  V30 2559 C 246.605 1.19839 1.65584 0
M  V30 2560 C 246.969 -0.244175 1.90441 0
M  V30 2561 O 248.17 -0.469378 2.6467 0
M  V30 2562 C 246.441 1.99876 2.96284 0
M  V30 2563 S 248 2.06309 3.87275 0
M  V30 2564 H 244.818 0.427157 0.568382 0
M  V30 2565 H 247.42 1.64453 1.05715 0
M  V30 2566 H 246.124 3.03809 2.75913 0
M  V30 2567 H 245.655 1.55903 3.61189 0
M  V30 2568 H 247.67 1.18661 4.81803 0
M  V30 2569 N 246.843 -1.10192 1.12674 0
M  V30 2570 C 248.12 -1.78717 0.794965 0
M  V30 2571 C 248.5 -1.98628 -0.714853 0
M  V30 2572 O 247.848 -1.58135 -1.64941 0
M  V30 2573 C 248.058 -3.11546 1.5729 0
M  V30 2574 C 249.406 -3.86382 1.76052 0
M  V30 2575 O 250.43 -3.21274 1.53823 0
M  V30 2576 O 249.289 -5.03246 2.13087 0
M  V30 2577 H 246.383 -0.774702 0.289423 0
M  V30 2578 H 248.929 -1.16819 1.23091 0
M  V30 2579 H 247.701 -2.92489 2.59935 0
M  V30 2580 H 247.324 -3.81164 1.13137 0
M  V30 2581 N 248.321 -0.919034 -1.28029 0
M  V30 2582 C 249.231 -0.416756 -2.30869 0
M  V30 2583 C 250.247 0.498235 -1.66714 0
M  V30 2584 O 251.423 0.383144 -1.97722 0
M  V30 2585 C 248.488 0.330274 -3.45123 0
M  V30 2586 C 247.549 -0.618578 -4.2482 0
M  V30 2587 C 246.782 0.0928959 -5.33619 0
M  V30 2588 O 247.005 1.31375 -5.55065 0
M  V30 2589 O 245.939 -0.574499 -5.99152 0
M  V30 2590 H 249.765 -1.27043 -2.75851 0
M  V30 2591 H 247.35 -0.684052 -1.3282 0
M  V30 2592 H 249.232 0.751972 -4.14636 0
M  V30 2593 H 247.907 1.1597 -3.02213 0
M  V30 2594 H 246.814 -1.08978 -3.57875 0
M  V30 2595 H 248.147 -1.41497 -4.71423 0
M  V30 2596 N 249.799 1.42003 -0.683588 0
M  V30 2597 C 251.048 2.00638 -0.206681 0
M  V30 2598 C 251.361 1.5472 1.19671 0
M  V30 2599 O 252.567 2.05833 1.77045 0
M  V30 2600 C 251.023 3.58487 -0.318632 0
M  V30 2601 C 250.631 4.1339 -1.72663 0
M  V30 2602 C 252.375 4.24384 0.0991141 0
M  V30 2603 C 250.282 5.63633 -1.79087 0
M  V30 2604 H 249.212 0.750408 -0.0735107 0
M  V30 2605 H 251.863 1.62624 -0.850048 0
M  V30 2606 H 250.245 3.94047 0.392781 0
M  V30 2607 H 251.419 3.89273 -2.46583 0
M  V30 2608 H 249.734 3.59976 -2.09299 0
M  V30 2609 H 252.331 5.34652 0.0713833 0
M  V30 2610 H 252.674 4.00505 1.13586 0
M  V30 2611 H 253.207 3.93816 -0.561599 0
M  V30 2612 H 249.946 5.92323 -2.80774 0
M  V30 2613 H 249.466 5.89714 -1.09535 0
M  V30 2614 H 251.145 6.28201 -1.5483 0
M  V30 2615 N 251.277 0.427512 1.51691 0
M  V30 2616 C 252.693 0.0792977 1.59403 0
M  V30 2617 C 252.893 -1.41035 1.43914 0
M  V30 2618 O 251.949 -2.17922 1.27539 0
M  V30 2619 C 253.262 0.590636 2.94842 0
M  V30 2620 C 254.81 0.550215 3.08126 0
M  V30 2621 C 255.285 1.03836 4.46074 0
M  V30 2622 N 256.776 0.995943 4.52366 0
M  V30 2623 C 257.511 1.34463 5.57411 0
M  V30 2624 N 257.007 1.76569 6.69922 0
M  V30 2625 N 258.8 1.26343 5.47717 0
M  V30 2626 H 250.951 1.39687 1.60004 0
M  V30 2627 H 253.214 0.575003 0.753708 0
M  V30 2628 H 252.92 1.63251 3.11516 0
M  V30 2629 H 252.794 0.0102061 3.77199 0
M  V30 2630 H 255.181 -0.482654 2.91126 0
M  V30 2631 H 255.262 1.16693 2.27632 0
M  V30 2632 H 254.906 2.06965 4.63819 0
M  V30 2633 H 254.836 0.398286 5.25092 0
M  V30 2634 H 257.327 0.68661 3.7161 0
M  V30 2635 H 257.64 2.01438 7.46085 0
M  V30 2636 H 255.985 1.80488 6.71155 0
M  V30 2637 H 259.176 0.933209 4.58703 0
M  V30 2638 H 259.349 1.53846 6.29472 0
M  V30 2639 N 252.755 -1.56801 0.158532 0
M  V30 2640 C 253.685 -2.20347 -0.772609 0
M  V30 2641 C 254.666 -1.15518 -1.24859 0
M  V30 2642 O 255.851 -1.43902 -1.30406 0
M  V30 2643 C 252.981 -2.83417 -2.00729 0
M  V30 2644 C 251.935 -3.94174 -1.66765 0
M  V30 2645 C 251.261 -4.44233 -2.97592 0
M  V30 2646 C 252.561 -5.14392 -0.905447 0
M  V30 2647 H 254.255 -2.98413 -0.242959 0
M  V30 2648 H 251.801 -1.43537 -0.115419 0
M  V30 2649 H 253.754 -3.26543 -2.6636 0
M  V30 2650 H 252.478 -2.02701 -2.56086 0
M  V30 2651 H 251.137 -3.51684 -1.03508 0
M  V30 2652 H 250.785 -3.60325 -3.50963 0
M  V30 2653 H 250.485 -5.18945 -2.75626 0
M  V30 2654 H 252.009 -4.90037 -3.64274 0
M  V30 2655 H 253.423 -5.5429 -1.46408 0
M  V30 2656 H 251.82 -5.9494 -0.7853 0
M  V30 2657 H 252.89 -4.84795 0.100668 0
M  V30 2658 N 254.233 0.115231 -1.57178 0
M  V30 2659 C 255.644 0.67197 -1.74188 0
M  V30 2660 C 255.995 1.80125 -0.777777 0
M  V30 2661 O 255.12 2.16346 0.0484376 0
M  V30 2662 C 255.715 1.22573 -3.1585 0
M  V30 2663 C 254.274 1.72872 -3.34353 0
M  V30 2664 C 253.421 0.629972 -2.70049 0
M  V30 2665 H 256.372 -0.110712 -1.58313 0
M  V30 2666 H 256.393 2.09535 -3.17609 0
M  V30 2667 H 255.905 0.403598 -3.85996 0
M  V30 2668 H 254.006 2.5755 -2.69256 0
M  V30 2669 H 254.119 1.83557 -4.42542 0
M  V30 2670 H 252.483 1.0645 -2.31388 0
M  V30 2671 H 253.266 -0.181241 -3.42821 0
M  V30 2672 N 255.711 1.52812 0.385517 0
M  V30 2673 C 256.96 1.67249 1.12741 0
M  V30 2674 C 257.273 0.4205 1.91027 0
M  V30 2675 O 258.479 0.445064 2.67827 0
M  V30 2676 C 256.935 2.95583 2.05326 0
M  V30 2677 C 256.543 4.27974 1.32447 0
M  V30 2678 C 258.287 3.19386 2.7963 0
M  V30 2679 C 256.194 5.47412 2.23818 0
M  V30 2680 H 255.124 0.6231 0.424573 0
M  V30 2681 H 257.775 1.79309 0.389924 0
M  V30 2682 H 256.157 2.77277 2.82725 0
M  V30 2683 H 257.331 4.56844 0.602495 0
M  V30 2684 H 255.646 4.10459 0.700885 0
M  V30 2685 H 258.243 4.05801 3.48181 0
M  V30 2686 H 258.586 2.34604 3.43899 0
M  V30 2687 H 259.119 3.38274 2.09322 0
M  V30 2688 H 255.858 6.34612 1.64157 0
M  V30 2689 H 255.378 5.22849 2.93921 0
M  V30 2690 H 257.057 5.81423 2.83824 0
M  V30 2691 N 257.189 -0.644168 1.43834 0
M  V30 2692 C 258.436 -1.40395 1.4593 0
M  V30 2693 C 258.764 -1.94305 0.0869658 0
M  V30 2694 O 258.019 -1.73288 -0.909378 0
M  V30 2695 C 258.318 -2.59615 2.45631 0
M  V30 2696 C 257.984 -2.2407 3.91284 0
M  V30 2697 C 256.646 -2.14089 4.30952 0
M  V30 2698 C 258.998 -1.95775 4.83034 0
M  V30 2699 C 256.326 -1.73981 5.6031 0
M  V30 2700 C 258.678 -1.57163 6.12766 0
M  V30 2701 C 257.342 -1.45713 6.51402 0
M  V30 2702 H 256.612 -0.513741 0.533995 0
M  V30 2703 H 259.259 -0.731724 1.76969 0
M  V30 2704 H 257.564 -3.32011 2.08028 0
M  V30 2705 H 259.261 -3.17834 2.44504 0
M  V30 2706 H 255.851 -2.32753 3.59895 0
M  V30 2707 H 260.035 -2.02403 4.53152 0
M  V30 2708 H 255.291 -1.63709 5.89075 0
M  V30 2709 H 259.465 -1.34303 6.83327 0
M  V30 2710 H 257.092 -1.14406 7.51542 0
M  V30 2711 N 258.668 -1.30515 -0.883378 0
M  V30 2712 C 259.896 -1.22359 -1.66841 0
M  V30 2713 C 260.311 0.213296 -1.87591 0
M  V30 2714 O 259.668 1.14075 -1.42454 0
M  V30 2715 C 259.719 -1.95011 -3.04389 0
M  V30 2716 O 259.44 -3.3309 -2.84575 0
M  V30 2717 C 260.941 -1.93532 -3.98824 0
M  V30 2718 H 258.161 -0.423371 -0.520575 0
M  V30 2719 H 260.705 -1.72167 -1.10357 0
M  V30 2720 H 258.86 -1.48997 -3.57601 0
M  V30 2721 H 259.274 -3.69907 -3.71846 0
M  V30 2722 H 260.748 -2.48902 -4.92699 0
M  V30 2723 H 261.225 -0.914627 -4.29571 0
M  V30 2724 H 261.831 -2.39364 -3.51547 0
M  V30 2725 N 260.146 1.09593 -1.13257 0
M  V30 2726 C 261.557 1.63229 -0.906274 0
M  V30 2727 C 261.908 1.8811 0.557578 0
M  V30 2728 O 261.033 1.62953 1.42391 0
M  V30 2729 C 261.628 2.96535 -1.63867 0
M  V30 2730 C 260.187 3.47003 -1.45828 0
M  V30 2731 C 259.334 2.2145 -1.66898 0
M  V30 2732 H 262.285 0.92978 -1.28611 0
M  V30 2733 H 262.306 3.64411 -1.09476 0
M  V30 2734 H 261.818 2.78394 -2.70404 0
M  V30 2735 H 259.919 3.70272 -0.415848 0
M  V30 2736 H 260.032 4.24551 -2.2202 0
M  V30 2737 H 258.396 2.30022 -1.09371 0
M  V30 2738 H 259.179 2.0583 -2.74752 0
M  V30 2739 N 261.624 0.925811 1.2754 0
M  V30 2740 C 262.849 0.580924 1.99098 0
M  V30 2741 C 263.274 -0.833555 1.68622 0
M  V30 2742 O 262.632 -1.55903 0.925422 0
M  V30 2743 C 262.68 0.811186 3.51358 0
M  V30 2744 O 261.784 -0.124129 4.12213 0
M  V30 2745 H 261.125 0.223873 0.625122 0
M  V30 2746 H 263.655 1.24455 1.62395 0
M  V30 2747 H 263.665 0.72601 4.01489 0
M  V30 2748 H 262.34 1.84227 3.72872 0
M  V30 2749 H 260.917 0.0108006 3.72898 0
M  V30 2750 N 263.102 -1.41638 0.69111 0
M  V30 2751 C 264.034 -2.29194 -0.0161523 0
M  V30 2752 C 265.047 -1.44549 -0.748955 0
M  V30 2753 O 266.236 -1.681 -0.6004 0
M  V30 2754 C 263.336 -3.22325 -1.0469 0
M  V30 2755 C 262.509 -4.35706 -0.384621 0
M  V30 2756 C 261.568 -5.09443 -1.31737 0
M  V30 2757 O 260.594 -5.63386 -0.811451 0
M  V30 2758 N 261.796 -5.16487 -2.64993 0
M  V30 2759 H 264.561 -2.90534 0.735523 0
M  V30 2760 H 262.122 -1.52742 0.53679 0
M  V30 2761 H 264.114 -3.68522 -1.67252 0
M  V30 2762 H 262.684 -2.62323 -1.70015 0
M  V30 2763 H 261.904 -3.91948 0.420804 0
M  V30 2764 H 263.192 -5.08743 0.0760765 0
M  V30 2765 H 262.59 -4.741 -3.08619 0
M  V30 2766 H 261.147 -5.66276 -3.22761 0
M  V30 2767 N 264.58 -0.43555 -1.51462 0
M  V30 2768 C 265.996 -0.0877501 -1.59359 0
M  V30 2769 C 266.196 1.4027 -1.4466 0
M  V30 2770 O 265.252 2.17243 -1.28693 0
M  V30 2771 C 266.565 -0.606264 -2.94525 0
M  V30 2772 C 268.113 -0.566548 -3.0783 0
M  V30 2773 C 268.588 -1.06201 -4.45517 0
M  V30 2774 N 270.079 -1.01992 -4.51832 0
M  V30 2775 C 270.814 -1.37417 -5.5669 0
M  V30 2776 N 270.31 -1.80119 -6.68976 0
M  V30 2777 N 272.103 -1.29245 -5.47039 0
M  V30 2778 H 264.254 -1.40533 -1.59261 0
M  V30 2779 H 266.517 -0.578992 -0.750648 0
M  V30 2780 H 266.223 -1.64901 -3.10645 0
M  V30 2781 H 266.097 -0.0302097 -3.77188 0
M  V30 2782 H 268.484 0.467208 -2.91378 0
M  V30 2783 H 268.565 -1.17898 -2.2701 0
M  V30 2784 H 268.209 -2.09422 -4.62715 0
M  V30 2785 H 268.139 -0.426127 -5.24873 0
M  V30 2786 H 270.63 -0.706308 -3.71241 0
M  V30 2787 H 270.943 -2.05392 -7.45006 0
M  V30 2788 H 269.288 -1.84044 -6.70189 0
M  V30 2789 H 272.479 -0.957522 -4.58202 0
M  V30 2790 H 272.652 -1.57182 -6.28648 0
M  V30 2791 N 266.058 1.56714 -0.166846 0
M  V30 2792 C 267.021 2.16539 0.751232 0
M  V30 2793 C 268.021 1.11228 1.16125 0
M  V30 2794 O 269.211 1.36765 1.07894 0
M  V30 2795 C 266.343 2.74462 2.02196 0
M  V30 2796 H 267.536 2.99013 0.230499 0
M  V30 2797 H 265.089 1.56081 0.0826982 0
M  V30 2798 H 265.824 1.95709 2.58589 0
M  V30 2799 H 265.609 3.51527 1.73698 0
M  V30 2800 H 267.099 3.20489 2.67725 0
M  V30 2801 N 267.536 -0.106894 1.57237 0
M  V30 2802 C 268.952 -0.46078 1.52804 0
M  V30 2803 C 269.152 -1.81184 0.881746 0
M  V30 2804 O 268.208 -2.48102 0.469224 0
M  V30 2805 C 269.521 -0.434127 2.9755 0
M  V30 2806 C 271.069 -0.516821 3.08704 0
M  V30 2807 C 271.544 -0.520436 4.55033 0
M  V30 2808 N 273.035 -0.58153 4.59535 0
M  V30 2809 C 273.77 -0.605973 5.70189 0
M  V30 2810 N 273.266 -0.587331 6.90306 0
M  V30 2811 N 275.059 -0.649895 5.5833 0
M  V30 2812 H 267.21 0.778203 1.9763 0
M  V30 2813 H 269.473 0.288403 0.903066 0
M  V30 2814 H 269.179 0.491197 3.48253 0
M  V30 2815 H 269.053 -1.25748 3.55622 0
M  V30 2816 H 271.44 -1.43256 2.57995 0
M  V30 2817 H 271.521 0.334449 2.53604 0
M  V30 2818 H 271.165 0.391313 5.0639 0
M  V30 2819 H 271.095 -1.38876 5.07958 0
M  V30 2820 H 273.586 -0.60161 3.73081 0
M  V30 2821 H 273.899 -0.60894 7.70397 0
M  V30 2822 H 272.244 -0.554564 6.92784 0
M  V30 2823 H 275.435 -0.661907 4.63397 0
M  V30 2824 H 275.608 -0.665476 6.44574 0
M  V30 2825 N 269.014 -1.53014 -0.377408 0
M  V30 2826 C 270.43 -1.42523 -0.718281 0
M  V30 2827 C 270.63 -0.55487 -1.9371 0
M  V30 2828 O 269.686 -0.0327593 -2.52479 0
M  V30 2829 C 270.999 -2.85546 -0.942539 0
M  V30 2830 C 272.547 -2.95101 -1.04329 0
M  V30 2831 C 273.022 -4.3916 -1.3001 0
M  V30 2832 N 274.513 -4.42536 -1.36806 0
M  V30 2833 C 275.248 -5.51097 -1.58364 0
M  V30 2834 N 274.744 -6.69724 -1.77317 0
M  V30 2835 N 276.537 -5.38657 -1.60638 0
M  V30 2836 H 268.688 -2.08116 0.424426 0
M  V30 2837 H 270.951 -0.939352 0.127759 0
M  V30 2838 H 270.657 -3.51499 -0.118929 0
M  V30 2839 H 270.531 -3.28493 -1.85397 0
M  V30 2840 H 272.918 -2.29309 -1.85745 0
M  V30 2841 H 272.999 -2.55566 -0.109505 0
M  V30 2842 H 272.643 -5.05521 -0.490991 0
M  V30 2843 H 272.573 -4.76258 -2.24691 0
M  V30 2844 H 275.064 -3.57039 -1.23821 0
M  V30 2845 H 275.377 -7.48233 -1.93306 0
M  V30 2846 H 273.722 -6.72732 -1.74518 0
M  V30 2847 H 276.913 -4.44948 -1.45391 0
M  V30 2848 H 277.086 -6.2333 -1.77098 0
M  V30 2849 N 270.492 0.636531 -1.44174 0
M  V30 2850 C 271.422 1.76003 -1.53444 0
M  V30 2851 C 272.403 1.65619 -0.387841 0
M  V30 2852 O 273.588 1.84461 -0.607257 0
M  V30 2853 C 270.718 3.14511 -1.4731 0
M  V30 2854 C 269.672 3.39677 -2.60391 0
M  V30 2855 C 268.998 4.78159 -2.39308 0
M  V30 2856 C 270.298 3.32772 -4.02567 0
M  V30 2857 H 271.992 1.68501 -2.47483 0
M  V30 2858 H 269.538 0.809237 -1.19111 0
M  V30 2859 H 271.491 3.92878 -1.52397 0
M  V30 2860 H 270.215 3.22783 -0.49785 0
M  V30 2861 H 268.874 2.63688 -2.54684 0
M  V30 2862 H 268.522 4.83128 -1.39988 0
M  V30 2863 H 268.222 4.95956 -3.15122 0
M  V30 2864 H 269.746 5.58762 -2.46205 0
M  V30 2865 H 271.16 4.01051 -4.09672 0
M  V30 2866 H 269.557 3.62104 -4.7854 0
M  V30 2867 H 270.627 2.30669 -4.2652 0
M  V30 2868 N 271.97 1.30982 0.876444 0
M  V30 2869 C 272.9 1.20668 1.99903 0
M  V30 2870 C 273.881 0.095354 1.69833 0
M  V30 2871 O 275.066 0.27885 1.92188 0
M  V30 2872 C 272.196 0.90655 3.3526 0
M  V30 2873 C 271.15 1.97675 3.79617 0
M  V30 2874 C 270.476 1.52943 5.1236 0
M  V30 2875 C 271.776 3.389 3.97422 0
M  V30 2876 H 273.47 2.14586 2.0879 0
M  V30 2877 H 271.016 1.03308 1.00317 0
M  V30 2878 H 272.969 0.821025 4.13324 0
M  V30 2879 H 271.693 -0.0682969 3.26529 0
M  V30 2880 H 270.352 2.05205 3.03787 0
M  V30 2881 H 270 0.54262 5.00065 0
M  V30 2882 H 269.7 2.24532 5.43009 0
M  V30 2883 H 271.224 1.45786 5.92941 0
M  V30 2884 H 272.638 3.34081 4.659 0
M  V30 2885 H 271.035 4.0865 4.3946 0
M  V30 2886 H 272.105 3.80163 3.01006 0
M  V30 2887 N 273.449 -1.08991 1.13837 0
M  V30 2888 C 274.726 -1.77863 0.813876 0
M  V30 2889 C 275.106 -1.99375 -0.693746 0
M  V30 2890 O 274.454 -1.59875 -1.63255 0
M  V30 2891 C 274.664 -3.0986 1.60586 0
M  V30 2892 C 276.012 -3.84493 1.8014 0
M  V30 2893 O 277.036 -3.19624 1.57222 0
M  V30 2894 O 275.895 -5.00957 2.18413 0
M  V30 2895 H 272.989 -0.771589 0.297624 0
M  V30 2896 H 275.535 -1.15507 1.24323 0
M  V30 2897 H 274.307 -2.89715 2.63022 0
M  V30 2898 H 273.93 -3.79942 1.17173 0
M  V30 2899 N 274.927 -0.932562 -1.27047 0
M  V30 2900 C 275.857 -0.452902 -2.29066 0
M  V30 2901 C 276.838 0.489338 -1.62909 0
M  V30 2902 O 278.023 0.393046 -1.90181 0
M  V30 2903 C 275.153 0.290698 -3.46081 0
M  V30 2904 C 274.107 -0.564168 -4.24265 0
M  V30 2905 C 273.433 0.308886 -5.33807 0
M  V30 2906 C 274.733 -1.83112 -4.89149 0
M  V30 2907 H 276.427 -1.30552 -2.69437 0
M  V30 2908 H 273.973 -0.629201 -1.29526 0
M  V30 2909 H 275.926 0.637233 -4.16554 0
M  V30 2910 H 274.65 1.17738 -3.0464 0
M  V30 2911 H 273.309 -0.893477 -3.55545 0
M  V30 2912 H 272.957 1.19467 -4.88607 0
M  V30 2913 H 272.657 -0.259633 -5.87026 0
M  V30 2914 H 274.181 0.650884 -6.07121 0
M  V30 2915 H 275.595 -1.55236 -5.51883 0
M  V30 2916 H 273.992 -2.34353 -5.52448 0
M  V30 2917 H 275.062 -2.54772 -4.12576 0
M  V30 2918 N 276.405 1.4127 -0.698611 0
M  V30 2919 C 277.368 2.29158 -0.044132 0
M  V30 2920 C 278.368 1.44529 0.704841 0
M  V30 2921 O 279.558 1.65643 0.539276 0
M  V30 2922 C 276.69 3.27459 0.947809 0
M  V30 2923 H 277.883 2.88529 -0.817994 0
M  V30 2924 H 275.436 1.49307 -0.46228 0
M  V30 2925 H 276.171 2.73073 1.74933 0
M  V30 2926 H 275.956 3.8991 0.41385 0
M  V30 2927 H 277.446 3.93311 1.40344 0
M  V30 2928 N 277.883 0.443576 1.51229 0
M  V30 2929 C 279.111 -0.11929 2.06556 0
M  V30 2930 C 279.526 -1.35921 1.31038 0
M  V30 2931 O 278.883 -1.78675 0.371704 0
M  V30 2932 C 278.934 -0.435228 3.5887 0
M  V30 2933 O 278.655 0.755486 4.31537 0
M  V30 2934 C 280.156 -1.04808 4.30732 0
M  V30 2935 H 277.376 -0.0051584 0.67098 0
M  V30 2936 H 279.92 0.624453 1.94733 0
M  V30 2937 H 278.075 -1.12887 3.70588 0
M  V30 2938 H 278.489 0.483491 5.22267 0
M  V30 2939 H 279.963 -1.2191 5.3837 0
M  V30 2940 H 280.44 -2.03081 3.89429 0
M  V30 2941 H 281.046 -0.393637 4.23474 0
M  V30 2942 N 279.361 -1.56624 0.175154 0
M  V30 2943 C 280.607 -1.9729 -0.469506 0
M  V30 2944 C 280.94 -1.06128 -1.62636 0
M  V30 2945 O 280.215 -0.109183 -1.94193 0
M  V30 2946 C 280.498 -3.47375 -0.948804 0
M  V30 2947 C 280.351 -4.49317 0.208491 0
M  V30 2948 C 281.67 -4.00652 -1.82116 0
M  V30 2949 H 278.789 -0.717317 -0.16919 0
M  V30 2950 H 281.431 -1.88184 0.262062 0
M  V30 2951 H 279.581 -3.55267 -1.57219 0
M  V30 2952 H 281.253 -4.53482 0.845682 0
M  V30 2953 H 279.496 -4.25121 0.863395 0
M  V30 2954 H 280.167 -5.51741 -0.169059 0
M  V30 2955 H 282.643 -3.95416 -1.2956 0
M  V30 2956 H 281.519 -5.06075 -2.12554 0
M  V30 2957 H 281.78 -3.44699 -2.7683 0
M  V30 2958 N 280.839 0.0985539 -1.57292 0
M  V30 2959 C 281.786 1.11981 -2.01814 0
M  V30 2960 C 282.756 1.39999 -0.89384 0
M  V30 2961 O 283.941 1.5152 -1.15958 0
M  V30 2962 C 281.081 2.43577 -2.44467 0
M  V30 2963 C 280.194 2.2232 -3.70402 0
M  V30 2964 C 279.329 3.4729 -4.01949 0
M  V30 2965 C 278.368 3.2128 -5.21005 0
M  V30 2966 N 277.505 4.38507 -5.48321 0
M  V30 2967 H 282.345 0.733149 -2.88841 0
M  V30 2968 H 279.882 0.350482 -1.42864 0
M  V30 2969 H 281.84 3.20373 -2.6724 0
M  V30 2970 H 280.47 2.80097 -1.60455 0
M  V30 2971 H 279.522 1.36343 -3.55126 0
M  V30 2972 H 280.834 1.99089 -4.57345 0
M  V30 2973 H 279.988 4.32495 -4.25479 0
M  V30 2974 H 278.727 3.73572 -3.13521 0
M  V30 2975 H 277.732 2.34468 -4.97298 0
M  V30 2976 H 278.957 2.96348 -6.11028 0
M  V30 2977 H 276.903 4.64871 -4.62851 0
M  V30 2978 H 276.82 4.18455 -6.29628 0
M  V30 2979 H 278.088 5.24787 -5.76385 0
M  V30 2980 N 282.317 1.53212 0.369288 0
M  V30 2981 C 283.28 1.7872 1.43498 0
M  V30 2982 C 284.28 0.657554 1.46741 0
M  V30 2983 O 285.47 0.925736 1.47566 0
M  V30 2984 C 282.602 1.90591 2.82645 0
M  V30 2985 H 283.795 2.73894 1.22156 0
M  V30 2986 H 281.348 1.44233 0.602203 0
M  V30 2987 H 282.083 0.974709 3.09306 0
M  V30 2988 H 281.868 2.72751 2.8169 0
M  V30 2989 H 283.358 2.11931 3.59826 0
M  V30 2990 N 283.795 -0.628877 1.44509 0
M  V30 2991 C 284.743 -1.76193 1.51852 0
M  V30 2992 C 285.737 -1.64849 0.390042 0
M  V30 2993 O 286.943 -1.709 0.565082 0
M  V30 2994 H 283.318 -0.581728 0.476547 0
M  V30 2995 H 285.289 -1.67123 2.47209 0
M  V30 2996 C 284.038 -3.14533 1.48204 0
M  V30 2997 H 283.361 -3.23911 2.34354 0
M  V30 2998 H 284.801 -3.93701 1.57402 0
M  V30 2999 C 283.26 -3.36287 0.203142 0
M  V30 3000 O 283.79 -3.9509 -0.725745 0
M  V30 3001 N 281.996 -2.90408 0.105563 0
M  V30 3002 H 281.543 -2.42739 0.862301 0
M  V30 3003 H 281.501 -3.05339 -0.749371 0
M  V30 3004 N 285.273 -1.31445 -0.869486 0
M  V30 3005 C 286.521 -1.20918 -1.61936 0
M  V30 3006 C 286.842 0.232683 -1.93607 0
M  V30 3007 O 286.112 1.15352 -1.58338 0
M  V30 3008 H 284.692 -0.44454 -0.600328 0
M  V30 3009 H 287.354 -1.64776 -1.0409 0
M  V30 3010 H 286.45 -1.78124 -2.56278 0
M  V30 3011 N 286.751 1.08385 -1.14413 0
M  V30 3012 C 287.681 2.17321 -0.854044 0
M  V30 3013 C 288.662 1.69024 0.191049 0
M  V30 3014 O 289.847 1.94141 0.0476779 0
M  V30 3015 C 286.977 3.45719 -0.330983 0
M  V30 3016 C 285.931 4.07409 -1.31155 0
M  V30 3017 C 285.257 5.30762 -0.64778 0
M  V30 3018 C 286.557 4.48665 -2.67388 0
M  V30 3019 H 288.251 2.41845 -1.76498 0
M  V30 3020 H 285.797 1.16233 -0.850051 0
M  V30 3021 H 287.75 4.21241 -0.115645 0
M  V30 3022 H 286.474 3.2075 0.615381 0
M  V30 3023 H 285.133 3.33919 -1.51306 0
M  V30 3024 H 284.781 5.02078 0.304398 0
M  V30 3025 H 284.481 5.72992 -1.30207 0
M  V30 3026 H 286.005 6.08998 -0.441972 0
M  V30 3027 H 287.419 5.15364 -2.51143 0
M  V30 3028 H 285.816 5.01814 -3.29093 0
M  V30 3029 H 286.886 3.60543 -3.24248 0
M  V30 3030 N 288.23 0.939286 1.26551 0
M  V30 3031 C 289.193 0.451987 2.24699 0
M  V30 3032 C 290.193 -0.435869 1.5478 0
M  V30 3033 O 291.383 -0.235314 1.72603 0
M  V30 3034 C 288.515 -0.348801 3.39111 0
M  V30 3035 H 289.708 1.3193 2.69322 0
M  V30 3036 H 287.261 0.721072 1.38673 0
M  V30 3037 H 287.996 -1.23444 2.99887 0
M  V30 3038 H 287.781 0.287945 3.91041 0
M  V30 3039 H 289.271 -0.679726 4.12031 0
M  V30 3040 N 289.708 -1.40897 0.706093 0
M  V30 3041 C 290.671 -2.29131 0.0562841 0
M  V30 3042 C 291.671 -1.44901 -0.697166 0
M  V30 3043 O 292.861 -1.65926 -0.530484 0
M  V30 3044 C 289.993 -3.27957 -0.93043 0
M  V30 3045 H 291.186 -2.88091 0.833284 0
M  V30 3046 H 288.739 -1.4906 0.470192 0
M  V30 3047 H 289.474 -2.73997 -1.73482 0
M  V30 3048 H 289.259 -3.90124 -0.393166 0
M  V30 3049 H 290.749 -3.94049 -1.38256 0
M  V30 3050 N 291.186 -0.45159 -1.50991 0
M  V30 3051 C 292.433 0.110074 -2.02201 0
M  V30 3052 C 292.761 1.4146 -1.33489 0
M  V30 3053 O 292.016 1.90617 -0.443125 0
M  V30 3054 C 292.315 0.361728 -3.55565 0
M  V30 3055 C 291.981 -0.858717 -4.42648 0
M  V30 3056 C 290.643 -1.19338 -4.66167 0
M  V30 3057 C 292.995 -1.67221 -4.93646 0
M  V30 3058 C 290.323 -2.34195 -5.37931 0
M  V30 3059 C 292.675 -2.8119 -5.6667 0
M  V30 3060 C 291.339 -3.15094 -5.88449 0
M  V30 3061 H 290.609 0.040279 -0.739904 0
M  V30 3062 H 293.256 -0.601696 -1.81802 0
M  V30 3063 H 291.561 1.15554 -3.74372 0
M  V30 3064 H 293.258 0.80996 -3.92735 0
M  V30 3065 H 289.848 -0.58796 -4.24548 0
M  V30 3066 H 294.032 -1.42686 -4.75347 0
M  V30 3067 H 289.288 -2.6076 -5.53005 0
M  V30 3068 H 293.462 -3.44585 -6.05173 0
M  V30 3069 H 291.089 -4.04204 -6.43835 0
M  V30 3070 N 292.664 1.56529 -0.183458 0
M  V30 3071 C 293.594 2.21549 0.737456 0
M  V30 3072 C 294.575 1.17489 1.23005 0
M  V30 3073 O 295.76 1.45959 1.281 0
M  V30 3074 C 292.89 2.86575 1.96194 0
M  V30 3075 C 291.844 3.96778 1.60473 0
M  V30 3076 C 291.17 4.48911 2.90487 0
M  V30 3077 C 292.47 5.15767 0.823497 0
M  V30 3078 H 294.164 2.98761 0.195453 0
M  V30 3079 H 291.71 1.43702 0.0925686 0
M  V30 3080 H 293.663 3.30739 2.61131 0
M  V30 3081 H 292.387 2.06749 2.52828 0
M  V30 3082 H 291.046 3.53286 0.978997 0
M  V30 3083 H 290.694 3.65862 3.45186 0
M  V30 3084 H 290.394 5.23265 2.67335 0
M  V30 3085 H 291.918 4.95771 3.56432 0
M  V30 3086 H 293.332 5.56549 1.37571 0
M  V30 3087 H 291.729 5.96114 0.690551 0
M  V30 3088 H 292.799 4.84574 -0.177782 0
M  V30 3089 N 294.142 -0.090211 1.57342 0
M  V30 3090 C 295.072 -1.10976 2.05443 0
M  V30 3091 C 296.053 -1.41482 0.944284 0
M  V30 3092 O 297.238 -1.51428 1.21586 0
M  V30 3093 C 294.368 -2.42831 2.48295 0
M  V30 3094 C 293.322 -2.26721 3.63018 0
M  V30 3095 C 292.648 -3.63796 3.91863 0
M  V30 3096 C 293.948 -1.7037 4.93732 0
M  V30 3097 H 295.642 -0.709564 2.9087 0
M  V30 3098 H 293.188 -0.339874 1.39932 0
M  V30 3099 H 295.141 -3.14431 2.80555 0
M  V30 3100 H 293.865 -2.84795 1.59873 0
M  V30 3101 H 292.524 -1.57565 3.31012 0
M  V30 3102 H 292.172 -4.03297 3.00601 0
M  V30 3103 H 291.872 -3.53861 4.69101 0
M  V30 3104 H 293.396 -4.36855 4.26603 0
M  V30 3105 H 294.81 -2.31816 5.24342 0
M  V30 3106 H 293.207 -1.71181 5.75167 0
M  V30 3107 H 294.277 -0.663542 4.80339 0
M  V30 3108 N 295.62 -1.53406 -0.361157 0
M  V30 3109 C 296.552 -1.76446 -1.46286 0
M  V30 3110 C 297.565 -0.645322 -1.49464 0
M  V30 3111 O 298.754 -0.921681 -1.52864 0
M  V30 3112 C 295.854 -1.83332 -2.85031 0
M  V30 3113 C 295.027 -3.13033 -3.05498 0
M  V30 3114 C 294.086 -3.11104 -4.24383 0
M  V30 3115 O 293.112 -3.84888 -4.19344 0
M  V30 3116 N 294.314 -2.32234 -5.32022 0
M  V30 3117 H 297.079 -2.71508 -1.26899 0
M  V30 3118 H 294.64 -1.52238 -0.550915 0
M  V30 3119 H 296.632 -1.79514 -3.62708 0
M  V30 3120 H 295.202 -0.955342 -2.97644 0
M  V30 3121 H 294.422 -3.30119 -2.15442 0
M  V30 3122 H 295.71 -3.9874 -3.16044 0
M  V30 3123 H 295.108 -1.71807 -5.38979 0
M  V30 3124 H 293.665 -2.3423 -6.08259 0
M  V30 3125 N 297.098 0.621204 -1.44841 0
M  V30 3126 C 298.048 1.72663 -1.48901 0
M  V30 3127 C 299.032 1.56964 -0.353702 0
M  V30 3128 O 300.224 1.66532 -0.599669 0
M  V30 3129 C 297.353 3.11381 -1.44557 0
M  V30 3130 C 296.439 3.32514 -2.6324 0
M  V30 3131 N 296.83 3.23969 -3.8843 0
M  V30 3132 C 295.128 3.63343 -2.58647 0
M  V30 3133 C 295.829 3.46062 -4.67564 0
M  V30 3134 N 294.805 3.69407 -3.98797 0
M  V30 3135 H 298.607 1.64529 -2.43531 0
M  V30 3136 H 296.121 0.82401 -1.39942 0
M  V30 3137 H 298.118 3.90667 -1.4555 0
M  V30 3138 H 296.778 3.20674 -0.509731 0
M  V30 3139 H 297.789 3.02669 -4.20252 0
M  V30 3140 H 294.466 3.79556 -1.73906 0
M  V30 3141 H 295.856 3.44963 -5.76585 0
M  V30 3142 N 298.576 1.31904 0.862503 0
M  V30 3143 C 299.822 1.22197 1.61851 0
M  V30 3144 C 300.155 -0.217641 1.92977 0
M  V30 3145 O 299.43 -1.15264 1.56666 0
M  V30 3146 C 299.713 2.07378 2.94391 0
M  V30 3147 C 299.566 3.59678 2.70096 0
M  V30 3148 C 300.885 1.92891 3.95577 0
M  V30 3149 H 298.004 0.445255 0.587296 0
M  V30 3150 H 300.646 1.6177 0.99651 0
M  V30 3151 H 298.796 1.73758 3.47477 0
M  V30 3152 H 300.468 4.03472 2.23625 0
M  V30 3153 H 298.711 3.82735 2.04197 0
M  V30 3154 H 299.382 4.14595 3.64438 0
M  V30 3155 H 301.858 2.22327 3.51724 0
M  V30 3156 H 300.734 2.54781 4.86187 0
M  V30 3157 H 300.995 0.894315 4.3296 0
M  V30 3158 N 300.054 -1.07777 1.14986 0
M  V30 3159 C 300.986 -2.14769 0.800436 0
M  V30 3160 C 301.999 -1.61739 -0.185595 0
M  V30 3161 O 303.188 -1.78462 0.0370358 0
M  V30 3162 C 300.288 -3.38481 0.168533 0
M  V30 3163 C 299.461 -4.20876 1.1909 0
M  V30 3164 C 298.52 -5.22976 0.581575 0
M  V30 3165 O 297.546 -5.55388 1.24633 0
M  V30 3166 N 298.748 -5.76976 -0.638706 0
M  V30 3167 H 301.513 -2.45348 1.72118 0
M  V30 3168 H 299.074 -1.23645 1.04515 0
M  V30 3169 H 301.066 -4.03916 -0.251764 0
M  V30 3170 H 299.636 -3.05651 -0.655467 0
M  V30 3171 H 298.856 -3.51322 1.78791 0
M  V30 3172 H 300.144 -4.7274 1.88133 0
M  V30 3173 H 299.542 -5.52886 -1.19723 0
M  V30 3174 H 298.099 -6.44061 -1.00142 0
M  V30 3175 N 301.532 -0.945985 -1.26051 0
M  V30 3176 C 302.442 -0.465633 -2.29933 0
M  V30 3177 C 303.458 0.462761 -1.67733 0
M  V30 3178 O 304.634 0.341118 -1.9849 0
M  V30 3179 C 301.699 0.256994 -3.45746 0
M  V30 3180 C 300.76 -0.708549 -4.23412 0
M  V30 3181 C 299.993 -0.0203135 -5.33696 0
M  V30 3182 O 300.216 1.19571 -5.57726 0
M  V30 3183 O 299.15 -0.701459 -5.97799 0
M  V30 3184 H 302.976 -1.32866 -2.73094 0
M  V30 3185 H 300.561 -0.712071 -1.31339 0
M  V30 3186 H 302.443 0.663852 -4.16138 0
M  V30 3187 H 301.118 1.09533 -3.04605 0
M  V30 3188 H 300.025 -1.16545 -3.55483 0
M  V30 3189 H 301.358 -1.51465 -4.68315 0
M  V30 3190 N 303.011 1.40521 -0.713556 0
M  V30 3191 C 303.941 2.33381 -0.0743864 0
M  V30 3192 C 304.922 1.52784 0.747735 0
M  V30 3193 O 306.107 1.81258 0.697071 0
M  V30 3194 C 303.237 3.36748 0.849598 0
M  V30 3195 C 302.191 4.27793 0.133247 0
M  V30 3196 C 301.517 5.21679 1.17281 0
M  V30 3197 C 302.817 5.12415 -1.01134 0
M  V30 3198 H 304.511 2.87081 -0.850007 0
M  V30 3199 H 302.057 1.38034 -0.410201 0
M  V30 3200 H 304.01 4.00648 1.30612 0
M  V30 3201 H 302.734 2.81439 1.65709 0
M  V30 3202 H 301.393 3.65342 -0.303426 0
M  V30 3203 H 301.041 4.62677 1.9733 0
M  V30 3204 H 300.741 5.83435 0.698397 0
M  V30 3205 H 302.265 5.88456 1.62947 0
M  V30 3206 H 303.679 5.69781 -0.634274 0
M  V30 3207 H 302.076 5.83203 -1.41399 0
M  V30 3208 H 303.146 4.48514 -1.84292 0
M  V30 3209 N 304.489 0.459591 1.5075 0
M  V30 3210 C 305.9 0.00171547 1.867 0
M  V30 3211 C 306.251 -1.39934 1.37525 0
M  V30 3212 O 305.376 -2.03523 0.735349 0
M  V30 3213 C 305.971 -0.00366298 3.388 0
M  V30 3214 C 304.53 -0.406026 3.74204 0
M  V30 3215 C 303.677 0.38673 2.7459 0
M  V30 3216 H 306.628 0.674413 1.43657 0
M  V30 3217 H 306.649 -0.808371 3.71814 0
M  V30 3218 H 306.161 1.01617 3.74561 0
M  V30 3219 H 304.262 -1.43063 3.4404 0
M  V30 3220 H 304.375 -0.115362 4.78961 0
M  V30 3221 H 302.739 -0.158019 2.54209 0
M  V30 3222 H 303.522 1.40585 3.13194 0
M  V30 3223 N 305.967 -1.56429 0.191757 0
M  V30 3224 C 307.213 -1.97777 -0.448554 0
M  V30 3225 C 307.546 -1.07847 -1.61501 0
M  V30 3226 O 306.821 -0.129774 -1.94067 0
M  V30 3227 C 307.104 -3.48362 -0.911906 0
M  V30 3228 C 306.957 -4.4907 0.256136 0
M  V30 3229 C 308.276 -4.02561 -1.77857 0
M  V30 3230 H 305.395 -0.719071 -0.161572 0
M  V30 3231 H 308.037 -1.87896 0.282007 0
M  V30 3232 H 306.187 -3.56914 -1.53442 0
M  V30 3233 H 307.859 -4.5256 0.893733 0
M  V30 3234 H 306.102 -4.24181 0.908436 0
M  V30 3235 H 306.773 -5.51889 -0.11053 0
M  V30 3236 H 309.249 -3.96767 -1.25359 0
M  V30 3237 H 308.125 -5.08301 -2.07174 0
M  V30 3238 H 308.386 -3.47616 -2.73158 0
M  V30 3239 N 307.445 0.0818655 -1.57387 0
M  V30 3240 C 308.856 0.634871 -1.75574 0
M  V30 3241 C 309.207 1.78435 -0.815809 0
M  V30 3242 O 308.332 2.164 0.0025366 0
M  V30 3243 C 308.927 1.15845 -3.18379 0
M  V30 3244 C 307.486 1.65741 -3.37945 0
M  V30 3245 C 306.633 0.572549 -2.71325 0
M  V30 3246 H 309.584 -0.144268 -1.58043 0
M  V30 3247 H 309.605 2.02751 -3.21982 0
M  V30 3248 H 309.117 0.321631 -3.86765 0
M  V30 3249 H 307.218 2.51781 -2.74658 0
M  V30 3250 H 307.331 1.74129 -4.46336 0
M  V30 3251 H 305.695 1.01518 -2.33594 0
M  V30 3252 H 306.478 -0.253918 -3.4236 0
M  V30 3253 N 308.923 1.53595 0.353017 0
M  V30 3254 C 309.853 1.83902 1.43883 0
M  V30 3255 C 310.834 0.693421 1.55324 0
M  V30 3256 O 312.019 0.944452 1.69687 0
M  V30 3257 C 309.149 2.04016 2.8106 0
M  V30 3258 C 308.103 3.19814 2.84434 0
M  V30 3259 C 307.429 3.25244 4.24406 0
M  V30 3260 C 308.729 4.58133 2.50822 0
M  V30 3261 H 310.423 2.74835 1.1877 0
M  V30 3262 H 307.969 1.32242 0.569917 0
M  V30 3263 H 309.922 2.238 3.57059 0
M  V30 3264 H 308.646 1.09804 3.07588 0
M  V30 3265 H 307.305 2.9987 2.10887 0
M  V30 3266 H 306.953 2.28646 4.48029 0
M  V30 3267 H 306.653 4.03054 4.27576 0
M  V30 3268 H 308.177 3.47228 5.0226 0
M  V30 3269 H 309.591 4.77995 3.16534 0
M  V30 3270 H 307.988 5.38276 2.6529 0
M  V30 3271 H 309.058 4.62387 1.46034 0
M  V30 3272 N 310.401 -0.613514 1.45168 0
M  V30 3273 C 311.364 -1.7065 1.53007 0
M  V30 3274 C 312.364 -1.5548 0.410184 0
M  V30 3275 O 313.554 -1.60656 0.673455 0
M  V30 3276 C 310.686 -3.09875 1.42093 0
M  V30 3277 H 311.879 -1.65068 2.50385 0
M  V30 3278 H 309.432 -0.828728 1.32521 0
M  V30 3279 H 310.167 -3.21039 0.458769 0
M  V30 3280 H 309.952 -3.22293 2.23315 0
M  V30 3281 H 311.442 -3.895 1.50598 0
M  V30 3282 N 311.879 -1.3236 -0.855495 0
M  V30 3283 C 312.809 -1.23833 -1.97958 0
M  V30 3284 C 313.79 -0.122361 -1.69659 0
M  V30 3285 O 314.975 -0.30939 -1.9172 0
M  V30 3286 C 312.105 -0.959772 -3.33775 0
M  V30 3287 C 311.059 -2.03689 -3.76424 0
M  V30 3288 C 310.385 -1.61075 -5.09862 0
M  V30 3289 C 311.685 -3.4518 -3.9198 0
M  V30 3290 H 313.379 -2.1788 -2.0535 0
M  V30 3291 H 310.925 -1.04891 -0.986605 0
M  V30 3292 H 312.878 -0.886678 -4.11966 0
M  V30 3293 H 311.602 0.0163404 -3.26596 0
M  V30 3294 H 310.261 -2.10012 -3.00484 0
M  V30 3295 H 309.909 -0.622107 -4.99138 0
M  V30 3296 H 309.609 -2.33143 -5.39368 0
M  V30 3297 H 311.133 -1.55201 -5.90546 0
M  V30 3298 H 312.547 -3.4145 -4.60526 0
M  V30 3299 H 310.944 -4.1559 -4.32903 0
M  V30 3300 H 312.014 -3.84903 -2.94919 0
M  V30 3301 N 313.357 1.07166 -1.15556 0
M  V30 3302 C 314.768 1.6127 -0.940693 0
M  V30 3303 C 315.119 1.89251 0.517551 0
M  V30 3304 O 314.244 1.65937 1.38903 0
M  V30 3305 C 314.839 2.92993 -1.7012 0
M  V30 3306 C 313.398 3.43832 -1.53156 0
M  V30 3307 C 312.545 2.1786 -1.71558 0
M  V30 3308 H 315.496 0.90229 -1.30554 0
M  V30 3309 H 315.517 3.62007 -1.17181 0
M  V30 3310 H 315.029 2.72596 -2.76248 0
M  V30 3311 H 313.13 3.69307 -0.494294 0
M  V30 3312 H 313.243 4.19747 -2.30975 0
M  V30 3313 H 311.607 2.2765 -1.14225 0
M  V30 3314 H 312.39 1.99956 -2.79056 0
M  V30 3315 N 314.835 0.952656 1.25548 0
M  V30 3316 C 315.765 0.489287 2.28316 0
M  V30 3317 C 316.746 -0.463359 1.63667 0
M  V30 3318 O 317.931 -0.36274 1.90782 0
M  V30 3319 C 315.061 -0.235603 3.465 0
M  V30 3320 C 314.015 0.631593 4.23314 0
M  V30 3321 C 313.341 -0.223923 5.34231 0
M  V30 3322 C 314.641 1.90871 4.86174 0
M  V30 3323 H 316.335 1.34822 2.67326 0
M  V30 3324 H 313.881 0.649728 1.28509 0
M  V30 3325 H 315.834 -0.570882 4.17515 0
M  V30 3326 H 314.558 -1.12877 3.06474 0
M  V30 3327 H 313.217 0.949929 3.54079 0
M  V30 3328 H 312.865 -1.11678 4.90446 0
M  V30 3329 H 312.565 0.35299 5.86539 0
M  V30 3330 H 314.089 -0.554214 6.0808 0
M  V30 3331 H 315.503 1.63997 5.49343 0
M  V30 3332 H 313.9 2.43112 5.4865 0
M  V30 3333 H 314.97 2.61304 4.08471 0
M  V30 3334 N 316.313 -1.40141 0.720998 0
M  V30 3335 C 317.223 -2.34486 0.0731031 0
M  V30 3336 C 318.239 -1.57587 -0.737723 0
M  V30 3337 O 319.415 -1.89949 -0.669429 0
M  V30 3338 C 316.48 -3.36528 -0.833656 0
M  V30 3339 C 315.541 -4.29298 -0.0121673 0
M  V30 3340 C 314.774 -5.26466 -0.875742 0
M  V30 3341 O 314.997 -5.29745 -2.11485 0
M  V30 3342 O 313.931 -6.01092 -0.31185 0
M  V30 3343 H 317.757 -2.9152 0.851444 0
M  V30 3344 H 315.342 -1.41427 0.481527 0
M  V30 3345 H 317.224 -3.99093 -1.35289 0
M  V30 3346 H 315.899 -2.81899 -1.59105 0
M  V30 3347 H 314.806 -3.70001 0.552262 0
M  V30 3348 H 316.139 -4.87094 0.707129 0
M  V30 3349 N 317.792 -0.46758 -1.50504 0
M  V30 3350 C 318.755 0.317059 -2.26996 0
M  V30 3351 C 319.755 0.923513 -1.31635 0
M  V30 3352 O 320.945 0.793239 -1.55091 0
M  V30 3353 C 318.077 1.45134 -3.08462 0
M  V30 3354 H 319.27 -0.353723 -2.97807 0
M  V30 3355 H 316.823 -0.221545 -1.54722 0
M  V30 3356 H 317.558 2.15728 -2.4214 0
M  V30 3357 H 317.343 1.02232 -3.78538 0
M  V30 3358 H 318.833 2.00493 -3.66323 0
M  V30 3359 N 319.27 1.56325 -0.20005 0
M  V30 3360 C 320.233 2.18084 0.705132 0
M  V30 3361 C 321.233 1.13666 1.1374 0
M  V30 3362 O 322.423 1.39023 1.04968 0
M  V30 3363 C 319.555 2.78689 1.96329 0
M  V30 3364 H 320.748 2.99435 0.167023 0
M  V30 3365 H 318.301 1.56221 0.0495725 0
M  V30 3366 H 319.036 2.0115 2.5438 0
M  V30 3367 H 318.821 3.55133 1.66202 0
M  V30 3368 H 320.311 3.26096 2.60866 0
M  V30 3369 N 320.748 -0.0735177 1.57428 0
M  V30 3370 C 321.976 -0.785969 1.9139 0
M  V30 3371 C 322.391 -1.71207 0.795847 0
M  V30 3372 O 321.748 -1.81033 -0.230915 0
M  V30 3373 C 321.799 -1.58107 3.25091 0
M  V30 3374 O 321.52 -0.6922 4.32597 0
M  V30 3375 C 323.021 -2.39467 3.73055 0
M  V30 3376 H 320.241 -0.223558 0.632663 0
M  V30 3377 H 322.785 -0.044302 2.04452 0
M  V30 3378 H 320.94 -2.27503 3.13562 0
M  V30 3379 H 321.354 -1.24504 5.09508 0
M  V30 3380 H 322.828 -2.90716 4.69242 0
M  V30 3381 H 323.305 -3.18913 3.01979 0
M  V30 3382 H 323.911 -1.7523 3.87523 0
M  V30 3383 N 322.226 -1.5378 -0.344866 0
M  V30 3384 C 323.466 -1.72677 -1.09371 0
M  V30 3385 C 323.83 -0.479084 -1.85927 0
M  V30 3386 O 325.031 -0.54505 -2.63216 0
M  V30 3387 C 323.302 -2.95457 -2.01097 0
M  V30 3388 S 324.861 -3.35158 -2.83222 0
M  V30 3389 H 321.679 -0.607402 -0.369573 0
M  V30 3390 H 324.281 -1.91922 -0.372307 0
M  V30 3391 H 322.985 -3.84437 -1.43655 0
M  V30 3392 H 322.516 -2.78673 -2.77678 0
M  V30 3393 H 324.531 -2.88789 -4.03504 0
M  V30 3394 N 323.704 0.605807 -1.45491 0
M  V30 3395 C 324.651 1.7164 -1.54299 0
M  V30 3396 C 325.621 1.61486 -0.388761 0
M  V30 3397 O 326.806 1.81039 -0.602445 0
M  V30 3398 C 323.946 3.09953 -1.51734 0
M  V30 3399 C 323.059 3.309 -2.77721 0
M  V30 3400 C 322.194 4.59329 -2.66816 0
M  V30 3401 C 321.233 4.7354 -3.87848 0
M  V30 3402 N 320.37 5.9327 -3.75467 0
M  V30 3403 H 325.21 1.63449 -2.49176 0
M  V30 3404 H 322.747 0.796957 -1.23641 0
M  V30 3405 H 324.705 3.89977 -1.48235 0
M  V30 3406 H 323.335 3.17098 -0.604068 0
M  V30 3407 H 322.387 2.44639 -2.913 0
M  V30 3408 H 323.699 3.37274 -3.67488 0
M  V30 3409 H 322.853 5.4755 -2.61292 0
M  V30 3410 H 321.592 4.55355 -1.74651 0
M  V30 3411 H 320.597 3.83741 -3.93729 0
M  V30 3412 H 321.822 4.79309 -4.81082 0
M  V30 3413 H 319.768 5.90338 -2.86072 0
M  V30 3414 H 319.685 6.00811 -4.5887 0
M  V30 3415 H 320.953 6.83984 -3.73879 0
M  V30 3416 N 325.182 1.32811 0.848464 0
M  V30 3417 C 326.129 1.22265 1.95755 0
M  V30 3418 C 327.099 0.103413 1.65778 0
M  V30 3419 O 328.284 0.280033 1.88734 0
M  V30 3420 C 325.424 0.958014 3.31536 0
M  V30 3421 C 324.537 2.16262 3.73971 0
M  V30 3422 C 323.672 1.83295 4.98575 0
M  V30 3423 C 322.711 3.00041 5.33518 0
M  V30 3424 N 321.848 2.67125 6.49299 0
M  V30 3425 H 326.688 2.17128 2.04107 0
M  V30 3426 H 324.225 1.07982 0.998913 0
M  V30 3427 H 326.183 0.785052 4.09747 0
M  V30 3428 H 324.813 0.046159 3.22767 0
M  V30 3429 H 323.865 2.44565 2.91362 0
M  V30 3430 H 325.177 3.03572 3.95785 0
M  V30 3431 H 324.331 1.62586 5.84509 0
M  V30 3432 H 323.07 0.932078 4.7871 0
M  V30 3433 H 322.075 3.21374 4.46093 0
M  V30 3434 H 323.3 3.90869 5.55336 0
M  V30 3435 H 321.246 1.79586 6.3094 0
M  V30 3436 H 321.163 3.47965 6.71161 0
M  V30 3437 H 322.431 2.49861 7.3837 0
M  V30 3438 N 326.66 -1.06551 1.16123 0
M  V30 3439 C 327.89 -1.8274 0.963838 0
M  V30 3440 C 328.298 -1.82712 -0.491228 0
M  V30 3441 O 327.641 -1.24294 -1.35265 0
M  V30 3442 C 327.703 -3.3065 1.41106 0
M  V30 3443 C 327.367 -3.54384 2.88549 0
M  V30 3444 C 328.364 -3.4765 3.86569 0
M  V30 3445 C 326.049 -3.81789 3.26408 0
M  V30 3446 C 328.043 -3.67982 5.2045 0
M  V30 3447 C 325.73 -4.01772 4.60459 0
M  V30 3448 C 326.728 -3.94866 5.57288 0
M  V30 3449 O 326.416 -4.14306 6.88916 0
M  V30 3450 H 326.148 -0.583136 0.341948 0
M  V30 3451 H 328.702 -1.35351 1.54497 0
M  V30 3452 H 326.932 -3.78887 0.773394 0
M  V30 3453 H 328.621 -3.88324 1.1815 0
M  V30 3454 H 329.387 -3.2647 3.58667 0
M  V30 3455 H 325.266 -3.86276 2.51619 0
M  V30 3456 H 328.81 -3.62507 5.96015 0
M  V30 3457 H 324.707 -4.2244 4.88072 0
M  V30 3458 H 325.475 -4.31609 6.95454 0
M  V30 3459 N 328.138 -0.959301 -1.25041 0
M  V30 3460 C 329.071 -0.427418 -2.24161 0
M  V30 3461 C 330.049 0.493837 -1.54919 0
M  V30 3462 O 331.233 0.427144 -1.83597 0
M  V30 3463 C 328.36 0.383893 -3.36517 0
M  V30 3464 C 327.406 -0.478431 -4.23808 0
M  V30 3465 S 328.239 -1.91353 -5.00144 0
M  V30 3466 C 329.395 -1.11077 -6.15965 0
M  V30 3467 H 329.628 -1.26743 -2.6893 0
M  V30 3468 H 327.161 -0.763714 -1.34189 0
M  V30 3469 H 329.119 0.846039 -4.01687 0
M  V30 3470 H 327.78 1.19878 -2.90324 0
M  V30 3471 H 326.973 0.14406 -5.03794 0
M  V30 3472 H 326.575 -0.87597 -3.63597 0
M  V30 3473 H 328.867 -0.361699 -6.76534 0
M  V30 3474 H 329.81 -1.88472 -6.82557 0
M  V30 3475 H 330.218 -0.638843 -5.60873 0
M  V30 3476 N 329.616 1.39756 -0.72842 0
M  V30 3477 C 330.579 2.29012 -0.0927297 0
M  V30 3478 C 331.579 1.45992 0.674025 0
M  V30 3479 O 332.769 1.66749 0.50402 0
M  V30 3480 C 329.901 3.29396 0.878137 0
M  V30 3481 H 331.094 2.86729 -0.879011 0
M  V30 3482 H 328.647 1.48293 -0.493847 0
M  V30 3483 H 329.382 2.76722 1.69101 0
M  V30 3484 H 329.167 3.907 0.331051 0
M  V30 3485 H 330.657 3.96199 1.3197 0
M  V30 3486 N 331.094 0.475555 1.50254 0
M  V30 3487 C 332.041 -0.316293 2.28622 0
M  V30 3488 C 333.011 -0.983227 1.33873 0
M  V30 3489 O 334.196 -0.994805 1.62814 0
M  V30 3490 C 331.336 -1.38975 3.1588 0
M  V30 3491 C 330.449 -0.737146 4.25664 0
M  V30 3492 C 329.584 -1.78887 5.00173 0
M  V30 3493 C 328.623 -1.11676 6.01826 0
M  V30 3494 N 327.76 -2.11154 6.69596 0
M  V30 3495 H 332.6 0.358297 2.95838 0
M  V30 3496 H 330.137 0.188541 1.45887 0
M  V30 3497 H 332.095 -2.02383 3.64825 0
M  V30 3498 H 330.725 -2.03344 2.50701 0
M  V30 3499 H 329.777 0.0096065 3.80399 0
M  V30 3500 H 331.089 -0.206816 4.98371 0
M  V30 3501 H 330.243 -2.49865 5.52859 0
M  V30 3502 H 328.982 -2.35302 4.27182 0
M  V30 3503 H 327.987 -0.392633 5.48396 0
M  V30 3504 H 329.212 -0.55945 6.76792 0
M  V30 3505 H 327.158 -2.66577 5.99394 0
M  V30 3506 H 327.075 -1.63118 7.38193 0
M  V30 3507 H 328.343 -2.81497 7.26897 0
M  V30 3508 N 332.573 -1.56217 0.208337 0
M  V30 3509 C 333.503 -2.22694 -0.702116 0
M  V30 3510 C 334.484 -1.19432 -1.2112 0
M  V30 3511 O 335.669 -1.47978 -1.25762 0
M  V30 3512 C 332.799 -2.8966 -1.9161 0
M  V30 3513 C 331.753 -3.9928 -1.5414 0
M  V30 3514 C 331.079 -4.53476 -2.83308 0
M  V30 3515 C 332.379 -5.17012 -0.741339 0
M  V30 3516 H 334.073 -2.99034 -0.147898 0
M  V30 3517 H 331.619 -1.43831 -0.0696951 0
M  V30 3518 H 333.572 -3.34852 -2.55836 0
M  V30 3519 H 332.296 -2.10746 -2.49507 0
M  V30 3520 H 330.955 -3.54799 -0.922668 0
M  V30 3521 H 330.603 -3.71308 -3.39322 0
M  V30 3522 H 330.303 -5.27451 -2.58976 0
M  V30 3523 H 331.827 -5.01378 -3.485 0
M  V30 3524 H 333.241 -5.58667 -1.28699 0
M  V30 3525 H 331.638 -5.97137 -0.595627 0
M  V30 3526 H 332.708 -4.8423 0.254851 0
M  V30 3527 N 334.051 0.0651679 -1.57465 0
M  V30 3528 C 335.467 0.420105 -1.53972 0
M  V30 3529 C 335.667 1.78782 -0.929474 0
M  V30 3530 O 334.723 2.46771 -0.534839 0
M  V30 3531 C 336.036 0.355084 -2.98596 0
M  V30 3532 C 337.584 0.434792 -3.09965 0
M  V30 3533 C 338.059 0.399609 -4.56253 0
M  V30 3534 N 339.55 0.459488 -4.60915 0
M  V30 3535 C 340.285 0.454584 -5.71595 0
M  V30 3536 N 339.781 0.404102 -6.9162 0
M  V30 3537 N 341.574 0.501635 -5.59857 0
M  V30 3538 H 333.725 -0.830328 -1.95498 0
M  V30 3539 H 335.988 -0.312244 -0.895102 0
M  V30 3540 H 335.694 -0.583357 -3.46828 0
M  V30 3541 H 335.568 1.16275 -3.58831 0
M  V30 3542 H 337.955 1.36366 -2.61703 0
M  V30 3543 H 338.036 -0.40157 -2.52628 0
M  V30 3544 H 337.68 -0.525436 -5.05175 0
M  V30 3545 H 337.61 1.25359 -5.11461 0
M  V30 3546 H 340.101 0.502482 -3.74544 0
M  V30 3547 H 340.414 0.404468 -7.71741 0
M  V30 3548 H 338.759 0.37069 -6.94011 0
M  V30 3549 H 341.95 0.538812 -4.64989 0
M  V30 3550 H 342.123 0.494345 -6.46112 0
M  V30 3551 N 335.529 1.53961 0.336706 0
M  V30 3552 C 336.757 1.75483 1.09605 0
M  V30 3553 C 337.172 0.4972 1.82136 0
M  V30 3554 O 336.529 -0.53149 1.74589 0
M  V30 3555 C 336.58 2.93943 2.10428 0
M  V30 3556 O 336.301 4.14842 1.40846 0
M  V30 3557 C 337.802 3.27571 2.98684 0
M  V30 3558 H 335.022 0.586166 0.326574 0
M  V30 3559 H 337.566 2.00808 0.38683 0
M  V30 3560 H 335.721 2.70929 2.76905 0
M  V30 3561 H 336.135 4.81383 2.08255 0
M  V30 3562 H 337.609 4.13791 3.6535 0
M  V30 3563 H 338.086 2.44168 3.65074 0
M  V30 3564 H 338.692 3.52615 2.37787 0
M  V30 3565 N 337.007 -0.598083 1.45811 0
M  V30 3566 C 338.235 -1.38322 1.53866 0
M  V30 3567 C 338.65 -1.87992 0.174479 0
M  V30 3568 O 338.007 -1.62756 -0.825627 0
M  V30 3569 C 338.058 -2.58125 2.53089 0
M  V30 3570 O 337.779 -2.10516 3.84206 0
M  V30 3571 C 339.28 -3.50869 2.70935 0
M  V30 3572 H 336.5 -0.423093 0.520801 0
M  V30 3573 H 339.044 -0.728527 1.91083 0
M  V30 3574 H 337.199 -3.19615 2.18917 0
M  V30 3575 H 337.613 -2.88425 4.38077 0
M  V30 3576 H 339.087 -4.31451 3.44317 0
M  V30 3577 H 339.564 -4.01822 1.77301 0
M  V30 3578 H 340.17 -2.95225 3.06141 0
M  V30 3579 N 338.485 -1.33259 -0.841409 0
M  V30 3580 C 339.731 -1.24757 -1.59886 0
M  V30 3581 C 340.064 0.186913 -1.93298 0
M  V30 3582 O 339.339 1.12757 -1.5848 0
M  V30 3583 C 339.622 -2.12036 -2.91055 0
M  V30 3584 C 339.475 -3.63929 -2.6434 0
M  V30 3585 C 340.794 -1.9916 -3.92458 0
M  V30 3586 H 337.913 -0.454542 -0.580138 0
M  V30 3587 H 340.555 -1.63335 -0.970647 0
M  V30 3588 H 338.705 -1.79265 -3.44669 0
M  V30 3589 H 340.377 -4.06978 -2.17178 0
M  V30 3590 H 338.62 -3.85935 -1.98082 0
M  V30 3591 H 339.291 -4.20341 -3.57796 0
M  V30 3592 H 341.767 -2.27895 -3.48143 0
M  V30 3593 H 340.643 -2.62484 -4.82072 0
M  V30 3594 H 340.904 -0.963082 -4.31482 0
M  V30 3595 N 339.963 1.05934 -1.16686 0
M  V30 3596 C 341.188 1.83029 -0.975455 0
M  V30 3597 C 341.613 1.82096 0.471452 0
M  V30 3598 O 340.971 1.22443 1.33706 0
M  V30 3599 C 341.019 3.27372 -1.51195 0
M  V30 3600 O 340.123 4.06054 -0.720701 0
M  V30 3601 H 339.464 0.566194 -0.346872 0
M  V30 3602 H 341.994 1.33541 -1.55009 0
M  V30 3603 H 342.004 3.78186 -1.53099 0
M  V30 3604 H 340.679 3.27366 -2.56523 0
M  V30 3605 H 339.256 3.64812 -0.772458 0
M  V30 3606 N 341.441 0.965919 1.2453 0
M  V30 3607 C 342.404 0.499547 2.2369 0
M  V30 3608 C 343.404 -0.40294 1.5567 0
M  V30 3609 O 344.594 -0.19865 1.73064 0
M  V30 3610 C 341.726 -0.276792 3.39774 0
M  V30 3611 H 342.919 1.37613 2.66463 0
M  V30 3612 H 340.472 0.750324 1.37112 0
M  V30 3613 H 341.207 -1.17055 3.02438 0
M  V30 3614 H 340.992 0.370826 3.90343 0
M  V30 3615 H 342.482 -0.592175 4.1338 0
M  V30 3616 N 342.919 -1.39368 0.735821 0
M  V30 3617 C 343.851 -2.2913 0.0567723 0
M  V30 3618 C 344.864 -1.46859 -0.702589 0
M  V30 3619 O 346.053 -1.69925 -0.546616 0
M  V30 3620 C 343.153 -3.25492 -0.943823 0
M  V30 3621 C 342.326 -4.36709 -0.24581 0
M  V30 3622 C 341.385 -5.13376 -1.15463 0
M  V30 3623 O 340.411 -5.65683 -0.631803 0
M  V30 3624 N 341.613 -5.24656 -2.48427 0
M  V30 3625 H 344.378 -2.88047 0.827582 0
M  V30 3626 H 341.939 -1.50957 0.585112 0
M  V30 3627 H 343.931 -3.73657 -1.55443 0
M  V30 3628 H 342.501 -2.676 -1.61583 0
M  V30 3629 H 341.721 -3.9041 0.545286 0
M  V30 3630 H 343.009 -5.08244 0.237891 0
M  V30 3631 H 342.407 -4.83679 -2.93379 0
M  V30 3632 H 340.964 -5.76258 -3.04582 0
M  V30 3633 N 344.397 -0.483516 -1.5 0
M  V30 3634 C 345.622 0.0667119 -2.07293 0
M  V30 3635 C 346.047 1.3164 -1.3436 0
M  V30 3636 O 345.405 1.76945 -0.394987 0
M  V30 3637 C 345.453 0.321126 -3.59167 0
M  V30 3638 O 344.557 1.39927 -3.87936 0
M  V30 3639 H 343.898 -0.0184758 -0.663743 0
M  V30 3640 H 346.428 -0.678125 -1.93035 0
M  V30 3641 H 346.438 0.557906 -4.04168 0
M  V30 3642 H 345.113 -0.592007 -4.11665 0
M  V30 3643 H 343.69 1.14882 -3.54763 0
M  V30 3644 N 345.875 1.56104 -0.216619 0
M  V30 3645 C 347.291 1.58995 0.13886 0
M  V30 3646 C 347.491 1.23333 1.59346 0
M  V30 3647 O 346.547 0.966234 2.33281 0
M  V30 3648 C 347.86 3.00143 -0.182968 0
M  V30 3649 C 349.408 3.12751 -0.124807 0
M  V30 3650 C 349.883 4.56068 -0.420241 0
M  V30 3651 N 351.374 4.61723 -0.369634 0
M  V30 3652 C 352.109 5.70542 -0.571789 0
M  V30 3653 N 351.605 6.87744 -0.835453 0
M  V30 3654 N 353.398 5.59831 -0.504563 0
M  V30 3655 H 345.549 1.77562 -1.16557 0
M  V30 3656 H 347.812 0.825091 -0.466828 0
M  V30 3657 H 347.518 3.30871 -1.19237 0
M  V30 3658 H 347.392 3.73813 0.504367 0
M  V30 3659 H 349.779 2.81822 0.875223 0
M  V30 3660 H 349.86 2.41421 -0.845544 0
M  V30 3661 H 349.504 4.87713 -1.41769 0
M  V30 3662 H 349.434 5.25617 0.321631 0
M  V30 3663 H 351.925 3.77502 -0.173338 0
M  V30 3664 H 352.238 7.66587 -0.977938 0
M  V30 3665 H 350.583 6.895 -0.872592 0
M  V30 3666 H 353.774 4.67145 -0.298842 0
M  V30 3667 H 353.947 6.44573 -0.665519 0
M  V30 3668 N 347.353 -0.0568162 1.57498 0
M  V30 3669 C 348.6 -0.753104 1.87975 0
M  V30 3670 C 348.928 -1.76815 0.81035 0
M  V30 3671 O 348.183 -1.94756 -0.19199 0
M  V30 3672 C 348.482 -1.48359 3.25153 0
M  V30 3673 C 348.148 -0.60713 4.46794 0
M  V30 3674 C 346.81 -0.365642 4.79809 0
M  V30 3675 C 349.162 -0.000305978 5.212 0
M  V30 3676 C 346.49 0.491905 5.84634 0
M  V30 3677 C 348.842 0.844781 6.26934 0
M  V30 3678 C 347.506 1.096 6.58441 0
M  V30 3679 H 346.776 -0.27558 0.687849 0
M  V30 3680 H 349.423 -0.0135173 1.91495 0
M  V30 3681 H 347.728 -2.29577 3.17492 0
M  V30 3682 H 349.425 -2.02739 3.45974 0
M  V30 3683 H 346.015 -0.805487 4.20963 0
M  V30 3684 H 350.199 -0.173961 4.95995 0
M  V30 3685 H 345.455 0.695131 6.07436 0
M  V30 3686 H 349.629 1.32165 6.83744 0
M  V30 3687 H 347.256 1.76224 7.39492 0
M  V30 3688 N 348.832 -1.54138 -0.328536 0
M  V30 3689 C 349.762 -1.86167 -1.40939 0
M  V30 3690 C 350.743 -0.718044 -1.54202 0
M  V30 3691 O 351.928 -0.971328 -1.68163 0
M  V30 3692 C 349.058 -2.08461 -2.77779 0
M  V30 3693 C 348.012 -3.24299 -2.7931 0
M  V30 3694 C 347.338 -3.31955 -4.19178 0
M  V30 3695 C 348.638 -4.62065 -2.43502 0
M  V30 3696 H 350.332 -2.76689 -1.14383 0
M  V30 3697 H 347.878 -1.33132 -0.548806 0
M  V30 3698 H 349.831 -2.29453 -3.53454 0
M  V30 3699 H 348.555 -1.14684 -3.05802 0
M  V30 3700 H 347.214 -3.03187 -2.0609 0
M  V30 3701 H 346.862 -2.35745 -4.44335 0
M  V30 3702 H 346.562 -4.09805 -4.2111 0
M  V30 3703 H 348.086 -3.55175 -4.96672 0
M  V30 3704 H 349.5 -4.8297 -3.08889 0
M  V30 3705 H 347.897 -5.42429 -2.56693 0
M  V30 3706 H 348.967 -4.64652 -1.38659 0
M  V30 3707 N 350.31 0.590341 -1.46126 0
M  V30 3708 C 351.535 1.37991 -1.54833 0
M  V30 3709 C 351.96 1.87163 -0.187506 0
M  V30 3710 O 351.318 1.61133 0.831008 0
M  V30 3711 C 351.366 2.54867 -2.55098 0
M  V30 3712 O 350.47 3.56061 -2.08073 0
M  V30 3713 H 349.811 0.411265 -0.521303 0
M  V30 3714 H 352.341 0.716819 -1.91632 0
M  V30 3715 H 352.351 3.01886 -2.74461 0
M  V30 3716 H 351.026 2.18429 -3.53923 0
M  V30 3717 H 349.603 3.15574 -1.98664 0
M  V30 3718 N 351.788 1.33704 0.83433 0
M  V30 3719 C 353.016 1.28467 1.62185 0
M  V30 3720 C 353.431 -0.143526 1.88254 0
M  V30 3721 O 352.788 -1.08709 1.4659 0
M  V30 3722 C 352.839 2.06174 2.96942 0
M  V30 3723 O 352.56 3.43422 2.72016 0
M  V30 3724 C 354.061 2.08201 3.91366 0
M  V30 3725 H 351.281 0.4424 0.504503 0
M  V30 3726 H 353.825 1.76145 1.03891 0
M  V30 3727 H 351.98 1.62167 3.51825 0
M  V30 3728 H 352.394 3.83453 3.57861 0
M  V30 3729 H 353.868 2.67017 4.83121 0
M  V30 3730 H 354.345 1.07343 4.2588 0
M  V30 3731 H 354.951 2.52246 3.42421 0
M  V30 3732 N 353.266 -1.05314 1.17247 0
M  V30 3733 C 354.496 -1.81707 0.983166 0
M  V30 3734 C 354.904 -1.83222 -0.471822 0
M  V30 3735 O 354.247 -1.25721 -1.3394 0
M  V30 3736 C 354.309 -3.29134 1.44606 0
M  V30 3737 C 353.973 -3.51304 2.92292 0
M  V30 3738 C 354.97 -3.4353 3.90235 0
M  V30 3739 C 352.655 -3.78306 3.30439 0
M  V30 3740 C 354.649 -3.62442 5.24323 0
M  V30 3741 C 352.336 -3.96866 4.64694 0
M  V30 3742 C 353.334 -3.88933 5.61445 0
M  V30 3743 O 353.022 -4.06976 6.93272 0
M  V30 3744 H 352.754 -0.579476 0.348114 0
M  V30 3745 H 355.308 -1.33705 1.55924 0
M  V30 3746 H 353.538 -3.78046 0.813537 0
M  V30 3747 H 355.227 -3.87049 1.22262 0
M  V30 3748 H 355.993 -3.22648 3.62109 0
M  V30 3749 H 351.872 -3.83585 2.55702 0
M  V30 3750 H 355.416 -3.56165 5.99827 0
M  V30 3751 H 351.313 -4.1724 4.92525 0
M  V30 3752 H 352.081 -4.24209 6.99992 0
M  V30 3753 N 354.744 -0.972509 -1.24016 0
M  V30 3754 C 356.021 -0.553733 -1.87598 0
M  V30 3755 C 356.401 0.969158 -1.87538 0
M  V30 3756 O 355.749 1.84255 -1.35139 0
M  V30 3757 C 355.959 -1.15076 -3.29482 0
M  V30 3758 C 357.307 -1.23862 -4.06132 0
M  V30 3759 O 358.331 -1.10363 -3.38672 0
M  V30 3760 O 357.19 -1.45252 -5.26844 0
M  V30 3761 H 354.284 -0.185331 -0.805966 0
M  V30 3762 H 356.83 -1.06709 -1.31952 0
M  V30 3763 H 355.602 -2.19333 -3.2405 0
M  V30 3764 H 355.225 -0.621746 -3.92709 0
M  V30 3765 N 356.222 1.38976 -0.743202 0
M  V30 3766 C 357.47 1.99948 -0.29417 0
M  V30 3767 C 357.791 1.59279 1.12495 0
M  V30 3768 O 357.061 0.844808 1.76748 0
M  V30 3769 H 355.641 0.739473 -0.105774 0
M  V30 3770 H 358.303 1.699 -0.954986 0
M  V30 3771 H 357.399 3.10142 -0.349056 0
M  V30 3772 N 357.7 0.491464 1.49741 0
M  V30 3773 C 358.663 -0.280906 2.27472 0
M  V30 3774 C 359.663 -0.902454 1.33088 0
M  V30 3775 O 360.853 -0.768465 1.56334 0
M  V30 3776 C 357.985 -1.40209 3.10732 0
M  V30 3777 H 359.178 0.401056 2.97206 0
M  V30 3778 H 356.731 0.246131 1.5435 0
M  V30 3779 H 357.466 -2.11849 2.45541 0
M  V30 3780 H 357.251 -0.961969 3.80117 0
M  V30 3781 H 358.741 -1.9464 3.69466 0
M  V30 3782 N 359.178 -1.55987 0.224894 0
M  V30 3783 C 360.088 -2.24066 -0.69511 0
M  V30 3784 C 361.104 -1.24939 -1.21104 0
M  V30 3785 O 362.28 -1.5776 -1.25195 0
M  V30 3786 C 359.345 -2.90983 -1.88493 0
M  V30 3787 C 358.406 -4.05462 -1.41064 0
M  V30 3788 C 357.639 -4.69179 -2.54375 0
M  V30 3789 O 357.862 -4.31895 -3.72589 0
M  V30 3790 O 356.796 -5.58108 -2.25386 0
M  V30 3791 H 360.622 -3.03353 -0.145149 0
M  V30 3792 H 358.207 -1.49399 -0.00569476 0
M  V30 3793 H 360.089 -3.33209 -2.57972 0
M  V30 3794 H 358.764 -2.14653 -2.42293 0
M  V30 3795 H 357.671 -3.67798 -0.683774 0
M  V30 3796 H 359.004 -4.83545 -0.918985 0
M  V30 3797 N 360.656 0.0484629 -1.57525 0
M  V30 3798 C 361.884 0.755421 -1.92616 0
M  V30 3799 C 362.299 1.69919 -0.822984 0
M  V30 3800 O 361.656 1.81378 0.202085 0
M  V30 3801 C 361.707 1.52915 -3.27566 0
M  V30 3802 O 361.428 0.62329 -4.33644 0
M  V30 3803 C 362.929 2.33502 -3.76818 0
M  V30 3804 H 360.149 0.213465 -0.63614 0
M  V30 3805 H 362.693 0.0117698 -2.04497 0
M  V30 3806 H 360.848 2.22486 -3.17142 0
M  V30 3807 H 361.262 1.16383 -5.11425 0
M  V30 3808 H 362.736 2.83214 -4.73808 0
M  V30 3809 H 363.213 3.14068 -3.07014 0
M  V30 3810 H 363.819 1.69043 -3.90262 0
M  V30 3811 N 362.134 1.5431 0.320358 0
M  V30 3812 C 363.064 1.86912 1.3995 0
M  V30 3813 C 364.045 0.726211 1.53819 0
M  V30 3814 O 365.23 0.980233 1.67646 0
M  V30 3815 C 362.36 2.09932 2.7667 0
M  V30 3816 C 361.314 3.25776 2.77586 0
M  V30 3817 C 360.64 3.34173 4.17412 0
M  V30 3818 C 361.94 4.6335 2.41048 0
M  V30 3819 H 363.634 2.77292 1.12914 0
M  V30 3820 H 361.18 1.33421 0.541738 0
M  V30 3821 H 363.133 2.31324 3.52232 0
M  V30 3822 H 361.857 1.16304 3.0519 0
M  V30 3823 H 360.516 3.04276 2.04479 0
M  V30 3824 H 360.164 2.38098 4.43078 0
M  V30 3825 H 359.864 4.12033 4.18931 0
M  V30 3826 H 361.388 3.57803 4.94782 0
M  V30 3827 H 362.802 4.84602 3.06324 0
M  V30 3828 H 361.199 5.43782 2.53813 0
M  V30 3829 H 362.269 4.65381 1.36193 0
M  V30 3830 N 363.613 -0.582584 1.46437 0
M  V30 3831 C 364.853 -1.35184 1.53312 0
M  V30 3832 C 365.217 -1.9115 0.180508 0
M  V30 3833 O 366.418 -2.68514 0.124017 0
M  V30 3834 C 364.689 -2.45089 2.60127 0
M  V30 3835 S 366.248 -3.32439 2.86408 0
M  V30 3836 H 363.066 -0.460559 0.54167 0
M  V30 3837 H 365.668 -0.669709 1.83671 0
M  V30 3838 H 364.372 -2.02366 3.57038 0
M  V30 3839 H 363.903 -3.18074 2.315 0
M  V30 3840 H 365.918 -4.43924 2.21688 0
M  V30 3841 N 365.091 -1.34144 -0.827227 0
M  V30 3842 C 366.021 -1.28005 -1.95287 0
M  V30 3843 C 367.002 -0.158321 -1.69362 0
M  V30 3844 O 368.187 -0.349987 -1.9102 0
M  V30 3845 C 365.317 -1.03036 -3.31664 0
M  V30 3846 C 364.271 -2.11628 -3.72019 0
M  V30 3847 C 363.597 -1.71854 -5.0633 0
M  V30 3848 C 364.897 -3.53417 -3.8457 0
M  V30 3849 H 366.591 -2.22187 -2.00682 0
M  V30 3850 H 364.137 -1.0696 -0.964135 0
M  V30 3851 H 366.09 -0.973863 -4.09993 0
M  V30 3852 H 364.814 -0.0529391 -3.26557 0
M  V30 3853 H 363.473 -2.16339 -2.95961 0
M  V30 3854 H 363.121 -0.727841 -4.97706 0
M  V30 3855 H 362.821 -2.44531 -5.34302 0
M  V30 3856 H 364.345 -1.67692 -5.87122 0
M  V30 3857 H 365.759 -3.51142 -4.5318 0
M  V30 3858 H 364.156 -4.24679 -4.2399 0
M  V30 3859 H 365.226 -3.91072 -2.86689 0
M  V30 3860 N 366.569 1.04691 -1.17803 0
M  V30 3861 C 367.479 2.16057 -0.914151 0
M  V30 3862 C 368.495 1.73589 0.119503 0
M  V30 3863 O 369.671 2.01308 -0.0609468 0
M  V30 3864 C 366.736 3.4394 -0.436603 0
M  V30 3865 C 365.797 4.00825 -1.53746 0
M  V30 3866 C 365.03 5.22604 -1.0826 0
M  V30 3867 O 365.253 5.70367 0.0612244 0
M  V30 3868 O 364.187 5.7186 -1.87775 0
M  V30 3869 H 368.013 2.41169 -1.84584 0
M  V30 3870 H 365.598 1.1453 -0.959334 0
M  V30 3871 H 367.48 4.21024 -0.178057 0
M  V30 3872 H 366.155 3.20316 0.466869 0
M  V30 3873 H 365.062 3.25158 -1.84995 0
M  V30 3874 H 366.395 4.28778 -2.41683 0
M  V30 3875 N 368.047 0.979072 1.23499 0
M  V30 3876 C 369.324 0.563674 1.87302 0
M  V30 3877 C 369.704 -0.959199 1.88049 0
M  V30 3878 O 369.052 -1.83535 1.36114 0
M  V30 3879 C 369.262 1.16822 3.28867 0
M  V30 3880 C 370.61 1.26014 4.0547 0
M  V30 3881 O 371.634 1.12158 3.38082 0
M  V30 3882 O 370.493 1.48044 5.26066 0
M  V30 3883 H 367.587 0.189602 0.804972 0
M  V30 3884 H 370.133 1.07407 1.31384 0
M  V30 3885 H 368.905 2.21049 3.22883 0
M  V30 3886 H 368.528 0.642564 3.92373 0
M  V30 3887 N 369.525 -1.3858 0.750561 0
M  V30 3888 C 370.774 -1.99424 0.302172 0
M  V30 3889 C 371.087 -1.60254 -1.12152 0
M  V30 3890 O 372.293 -2.14046 -1.67023 0
M  V30 3891 C 370.749 -3.56558 0.489307 0
M  V30 3892 C 370.357 -4.04682 1.92189 0
M  V30 3893 C 372.101 -4.24374 0.103478 0
M  V30 3894 C 370.008 -5.54446 2.05775 0
M  V30 3895 H 368.938 -0.746046 0.10923 0
M  V30 3896 H 371.589 -1.58383 0.92667 0
M  V30 3897 H 369.971 -3.95472 -0.204329 0
M  V30 3898 H 371.145 -3.77065 2.64875 0
M  V30 3899 H 369.46 -3.4958 2.26236 0
M  V30 3900 H 372.057 -5.34384 0.183787 0
M  V30 3901 H 372.4 -4.05468 -0.943481 0
M  V30 3902 H 372.933 -3.90688 0.748854 0
M  V30 3903 H 369.672 -5.78252 3.08714 0
M  V30 3904 H 369.192 -5.83816 1.37546 0
M  V30 3905 H 370.871 -6.20099 1.84626 0
M  V30 3906 N 371.003 -0.499398 -1.49478 0
M  V30 3907 C 372.233 0.0424839 -2.06556 0
M  V30 3908 C 372.641 1.31514 -1.36018 0
M  V30 3909 O 371.984 1.78555 -0.431718 0
M  V30 3910 C 372.046 0.368074 -3.57611 0
M  V30 3911 C 371.71 -0.806631 -4.49825 0
M  V30 3912 C 372.707 -1.69667 -4.91436 0
M  V30 3913 C 370.392 -1.00498 -4.92144 0
M  V30 3914 C 372.386 -2.76923 -5.74101 0
M  V30 3915 C 370.073 -2.08072 -5.74586 0
M  V30 3916 C 371.071 -2.96119 -6.15469 0
M  V30 3917 O 370.759 -4.01836 -6.96264 0
M  V30 3918 H 370.491 -0.0165165 -0.675798 0
M  V30 3919 H 373.045 -0.695497 -1.93267 0
M  V30 3920 H 371.275 1.15963 -3.68903 0
M  V30 3921 H 372.964 0.848381 -3.96935 0
M  V30 3922 H 373.73 -1.55524 -4.59388 0
M  V30 3923 H 369.609 -0.329036 -4.59824 0
M  V30 3924 H 373.153 -3.45676 -6.05932 0
M  V30 3925 H 369.05 -2.22211 -6.06047 0
M  V30 3926 H 369.818 -3.9917 -7.14567 0
M  V30 3927 N 372.481 1.55866 -0.233164 0
M  V30 3928 C 373.709 2.02998 0.399905 0
M  V30 3929 C 374.124 1.11274 1.52524 0
M  V30 3930 O 373.481 0.124528 1.82075 0
M  V30 3931 C 373.532 3.4958 0.920639 0
M  V30 3932 O 373.253 4.37808 -0.159834 0
M  V30 3933 C 374.754 4.12411 1.62578 0
M  V30 3934 H 371.974 0.664006 0.0966281 0
M  V30 3935 H 374.518 2.0143 -0.353013 0
M  V30 3936 H 372.673 3.51727 1.62379 0
M  V30 3937 H 373.087 5.23981 0.23337 0
M  V30 3938 H 374.561 5.16711 1.94201 0
M  V30 3939 H 375.038 3.5809 2.54299 0
M  V30 3940 H 375.644 4.14148 0.967553 0
M  V30 3941 N 373.959 -0.0401083 1.57549 0
M  V30 3942 C 374.869 -1.06133 2.0922 0
M  V30 3943 C 375.885 -1.40356 1.0284 0
M  V30 3944 O 377.061 -1.49897 1.34509 0
M  V30 3945 C 374.126 -2.34658 2.55218 0
M  V30 3946 C 373.187 -2.07117 3.76033 0
M  V30 3947 C 372.42 -3.29514 4.19829 0
M  V30 3948 O 372.643 -4.39794 3.63232 0
M  V30 3949 O 371.577 -3.15863 5.12362 0
M  V30 3950 H 375.403 -0.652244 2.96613 0
M  V30 3951 H 372.988 -0.256368 1.47184 0
M  V30 3952 H 374.87 -3.10239 2.85184 0
M  V30 3953 H 373.545 -2.74883 1.70941 0
M  V30 3954 H 372.452 -1.29139 3.51104 0
M  V30 3955 H 373.785 -1.71754 4.61261 0
M  V30 3956 N 375.437 -1.54477 -0.31217 0
M  V30 3957 C 376.385 -1.85395 -1.40469 0
M  V30 3958 C 377.379 -0.726749 -1.53019 0
M  V30 3959 O 378.585 -0.910582 -1.55269 0
M  V30 3960 H 374.96 -0.587845 -0.46898 0
M  V30 3961 H 376.931 -2.76736 -1.11623 0
M  V30 3962 C 375.68 -2.10811 -2.76503 0
M  V30 3963 H 375.003 -2.97014 -2.67625 0
M  V30 3964 H 376.443 -2.3639 -3.51988 0
M  V30 3965 C 374.902 -0.903165 -3.24568 0
M  V30 3966 O 375.432 -0.118085 -4.01526 0
M  V30 3967 N 373.638 -0.711634 -2.81752 0
M  V30 3968 H 373.185 -1.35171 -2.19286 0
M  V30 3969 H 373.143 0.0930473 -3.14262 0
M  V30 3970 N 376.915 0.57481 -1.46744 0
M  V30 3971 C 378.161 1.3347 -1.52688 0
M  V30 3972 C 378.494 1.93353 -0.181229 0
M  V30 3973 O 377.769 1.76912 0.808237 0
M  V30 3974 C 378.052 2.45811 -2.63152 0
M  V30 3975 C 377.905 1.90912 -4.07275 0
M  V30 3976 C 379.224 3.47822 -2.69644 0
M  V30 3977 H 376.343 0.483935 -0.555856 0
M  V30 3978 H 378.985 0.644968 -1.78718 0
M  V30 3979 H 377.135 3.04646 -2.41088 0
M  V30 3980 H 378.807 1.36473 -4.4065 0
M  V30 3981 H 377.05 1.21691 -4.16382 0
M  V30 3982 H 377.721 2.72042 -4.80309 0
M  V30 3983 H 380.197 2.9888 -2.895 0
M  V30 3984 H 379.073 4.23876 -3.48742 0
M  V30 3985 H 379.334 4.05555 -1.76005 0
M  V30 3986 N 378.394 1.34581 0.820102 0
M  V30 3987 C 379.324 1.29038 1.94606 0
M  V30 3988 C 380.305 0.1673 1.69275 0
M  V30 3989 O 381.49 0.360112 1.90832 0
M  V30 3990 C 378.62 1.04793 3.31113 0
M  V30 3991 C 377.574 2.13597 3.70891 0
M  V30 3992 C 376.9 1.74537 5.05412 0
M  V30 3993 C 378.2 3.55451 3.8269 0
M  V30 3994 H 379.894 2.23248 1.99501 0
M  V30 3995 H 377.44 1.0747 0.958449 0
M  V30 3996 H 379.393 0.995592 4.0947 0
M  V30 3997 H 378.117 0.0702565 3.26524 0
M  V30 3998 H 376.776 2.17905 2.9481 0
M  V30 3999 H 376.424 0.754226 4.97313 0
M  V30 4000 H 376.124 2.47361 5.32997 0
M  V30 4001 H 377.648 1.70803 5.86224 0
M  V30 4002 H 379.062 3.5354 4.51312 0
M  V30 4003 H 377.459 4.26922 4.21732 0
M  V30 4004 H 378.529 3.92587 2.84611 0
M  V30 4005 N 379.872 -1.04064 1.18357 0
M  V30 4006 C 380.782 -2.15569 0.925596 0
M  V30 4007 C 381.798 -1.7365 -0.110295 0
M  V30 4008 O 382.974 -2.01273 0.0716218 0
M  V30 4009 C 380.039 -3.43704 0.454836 0
M  V30 4010 C 379.1 -4.00004 1.55869 0
M  V30 4011 C 378.333 -5.22023 1.1103 0
M  V30 4012 O 378.556 -5.70392 -0.0309756 0
M  V30 4013 O 377.49 -5.70856 1.90805 0
M  V30 4014 H 381.316 -2.40187 1.8586 0
M  V30 4015 H 378.901 -1.1402 0.965394 0
M  V30 4016 H 380.783 -4.20923 0.200382 0
M  V30 4017 H 379.458 -3.20559 -0.449876 0
M  V30 4018 H 378.365 -3.24172 1.86716 0
M  V30 4019 H 379.698 -4.2749 2.43953 0
M  V30 4020 N 381.35 -0.985608 -1.22978 0
M  V30 4021 C 382.596 -0.65836 -1.91816 0
M  V30 4022 C 382.929 0.806692 -1.76653 0
M  V30 4023 O 382.204 1.58252 -1.13078 0
M  V30 4024 C 382.487 -1.056 -3.44268 0
M  V30 4025 C 382.34 -2.57906 -3.68516 0
M  V30 4026 C 383.659 -0.603781 -4.35939 0
M  V30 4027 H 380.778 -0.24065 -0.696604 0
M  V30 4028 H 383.42 -1.22783 -1.44998 0
M  V30 4029 H 381.57 -0.571445 -3.84274 0
M  V30 4030 H 383.242 -3.13976 -3.3796 0
M  V30 4031 H 381.485 -3.00305 -3.13048 0
M  V30 4032 H 382.156 -2.80779 -4.75255 0
M  V30 4033 H 384.632 -1.01987 -4.03408 0
M  V30 4034 H 383.508 -0.910383 -5.41298 0
M  V30 4035 H 383.769 0.495761 -4.39312 0
M  V30 4036 N 382.828 1.3818 -0.7579 0
M  V30 4037 C 384.074 2.0078 -0.325423 0
M  V30 4038 C 384.429 1.59085 1.08211 0
M  V30 4039 O 383.722 0.820394 1.73148 0
M  V30 4040 C 383.916 3.55252 -0.391218 0
M  V30 4041 C 383.745 4.11947 -1.8036 0
M  V30 4042 C 382.515 4.43519 -2.42113 0
M  V30 4043 C 384.713 4.33908 -2.76095 0
M  V30 4044 N 382.695 4.85847 -3.75267 0
M  V30 4045 C 384.066 4.78692 -3.94023 0
M  V30 4046 C 386.121 4.16015 -2.73561 0
M  V30 4047 C 384.824 5.07459 -5.09782 0
M  V30 4048 C 386.85 4.45909 -3.88483 0
M  V30 4049 C 386.212 4.90921 -5.0515 0
M  V30 4050 H 382.311 0.764215 -0.165831 0
M  V30 4051 H 384.895 1.67724 -0.988776 0
M  V30 4052 H 383.066 3.87646 0.241886 0
M  V30 4053 H 384.798 4.04653 0.061989 0
M  V30 4054 H 381.553 4.32113 -1.93842 0
M  V30 4055 H 381.977 5.11339 -4.4369 0
M  V30 4056 H 386.619 3.80399 -1.84544 0
M  V30 4057 H 384.337 5.4197 -5.99412 0
M  V30 4058 H 387.923 4.33666 -3.87847 0
M  V30 4059 H 386.803 5.1361 -5.92599 0
M  V30 4060 N 384.306 0.507319 1.49211 0
M  V30 4061 C 385.269 -0.256763 2.27757 0
M  V30 4062 C 386.269 -0.888287 1.34038 0
M  V30 4063 O 387.459 -0.751841 1.5714 0
M  V30 4064 C 384.591 -1.36905 3.12202 0
M  V30 4065 H 385.784 0.432557 2.96764 0
M  V30 4066 H 383.337 0.262488 1.5408 0
M  V30 4067 H 384.072 -2.09233 2.47775 0
M  V30 4068 H 383.857 -0.921599 3.81115 0
M  V30 4069 H 385.347 -1.9071 3.7151 0
M  V30 4070 N 385.784 -1.5574 0.241426 0
M  V30 4071 C 387.061 -1.90704 -0.434881 0
M  V30 4072 C 387.441 -1.16145 -1.76277 0
M  V30 4073 O 386.789 -0.277152 -2.26813 0
M  V30 4074 C 386.999 -3.43657 -0.608343 0
M  V30 4075 C 388.347 -4.14806 -0.906725 0
M  V30 4076 O 389.371 -3.49366 -0.694408 0
M  V30 4077 O 388.23 -5.30548 -1.31075 0
M  V30 4078 H 385.324 -0.793592 -0.23268 0
M  V30 4079 H 387.87 -1.67288 0.285086 0
M  V30 4080 H 386.642 -3.89927 0.327505 0
M  V30 4081 H 386.265 -3.72918 -1.37906 0
M  V30 4082 N 387.262 0.0317525 -1.57568 0
M  V30 4083 C 388.508 0.724175 -1.8943 0
M  V30 4084 C 388.841 1.75149 -0.838836 0
M  V30 4085 O 388.116 1.93948 0.146422 0
M  V30 4086 C 388.399 1.39615 -3.31933 0
M  V30 4087 C 388.252 0.382537 -4.4817 0
M  V30 4088 C 389.571 2.33084 -3.73309 0
M  V30 4089 H 386.69 0.261797 -0.688935 0
M  V30 4090 H 389.332 -0.013017 -1.89996 0
M  V30 4091 H 387.482 2.02451 -3.31581 0
M  V30 4092 H 389.154 -0.243689 -4.60656 0
M  V30 4093 H 387.397 -0.29844 -4.32772 0
M  V30 4094 H 388.068 0.891145 -5.44759 0
M  V30 4095 H 390.544 1.80295 -3.7501 0
M  V30 4096 H 389.42 2.77084 -4.73831 0
M  V30 4097 H 389.681 3.19643 -3.05419 0
M  V30 4098 N 388.74 1.54641 0.303973 0
M  V30 4099 C 389.988 1.73437 1.0375 0
M  V30 4100 C 390.309 0.521449 1.87899 0
M  V30 4101 O 389.579 -0.46432 1.90318 0
M  V30 4102 H 388.159 0.639518 0.386039 0
M  V30 4103 H 390.821 1.91988 0.335675 0
M  V30 4104 H 389.917 2.62235 1.69231 0
M  V30 4105 N 390.218 -0.567019 1.47046 0
M  V30 4106 C 391.151 -1.69016 1.53326 0
M  V30 4107 C 392.129 -1.57949 0.386126 0
M  V30 4108 O 393.313 -1.78945 0.592529 0
M  V30 4109 C 390.44 -3.07191 1.42658 0
M  V30 4110 C 389.486 -3.36733 2.6175 0
M  V30 4111 S 390.319 -3.27069 4.24012 0
M  V30 4112 C 391.475 -4.67755 4.1588 0
M  V30 4113 H 391.708 -1.63434 2.48348 0
M  V30 4114 H 389.241 -0.747048 1.35124 0
M  V30 4115 H 391.199 -3.86897 1.37191 0
M  V30 4116 H 389.86 -3.10249 0.490369 0
M  V30 4117 H 389.053 -4.37441 2.50323 0
M  V30 4118 H 388.655 -2.64627 2.64289 0
M  V30 4119 H 390.947 -5.58491 3.83529 0
M  V30 4120 H 391.89 -4.84239 5.16641 0
M  V30 4121 H 392.298 -4.45341 3.46889 0
M  V30 4122 N 391.696 -1.35014 -0.812953 0
M  V30 4123 C 392.659 -1.27292 -1.90602 0
M  V30 4124 C 393.659 -0.185817 -1.59723 0
M  V30 4125 O 394.849 -0.439102 -1.68575 0
M  V30 4126 C 391.981 -0.967676 -3.26877 0
M  V30 4127 H 393.174 -2.24479 -1.9887 0
M  V30 4128 H 390.727 -1.19446 -1.00808 0
M  V30 4129 H 391.462 0.0005954 -3.243 0
M  V30 4130 H 391.247 -1.75412 -3.50675 0
M  V30 4131 H 392.737 -0.939085 -4.06904 0
M  V30 4132 N 393.175 1.03435 -1.18907 0
M  V30 4133 C 394.423 1.76394 -0.986382 0
M  V30 4134 C 394.744 1.88883 0.484567 0
M  V30 4135 O 394.014 1.41843 1.3512 0
M  V30 4136 H 392.594 0.65344 -0.361975 0
M  V30 4137 H 395.256 1.248 -1.49703 0
M  V30 4138 H 394.352 2.77424 -1.42978 0
M  V30 4139 N 394.653 0.992116 1.22453 0
M  V30 4140 C 396.064 0.702776 1.72968 0
M  V30 4141 C 396.415 -0.780399 1.80012 0
M  V30 4142 O 395.54 -1.61007 1.44589 0
M  V30 4143 C 396.135 1.26903 3.14135 0
M  V30 4144 C 394.694 1.02909 3.62059 0
M  V30 4145 C 393.841 1.38969 2.39964 0
M  V30 4146 H 396.792 1.16457 1.07812 0
M  V30 4147 H 396.813 0.647223 3.74955 0
M  V30 4148 H 396.325 2.34851 3.08977 0
M  V30 4149 H 394.426 -0.0337979 3.72585 0
M  V30 4150 H 394.539 1.69191 4.48231 0
M  V30 4151 H 392.903 0.808279 2.41535 0
M  V30 4152 H 393.686 2.4792 2.37467 0
M  V30 4153 N 396.131 -1.37776 0.765217 0
M  V30 4154 C 397.542 -1.82521 0.392819 0
M  V30 4155 C 397.893 -1.63789 -1.08017 0
M  V30 4156 O 397.018 -1.14542 -1.83601 0
M  V30 4157 C 397.613 -3.31358 0.706214 0
M  V30 4158 C 396.172 -3.74406 0.386952 0
M  V30 4159 C 395.319 -2.60394 0.953422 0
M  V30 4160 H 398.27 -1.2634 0.960412 0
M  V30 4161 H 398.291 -3.80498 -0.0114706 0
M  V30 4162 H 397.803 -3.44959 1.77833 0
M  V30 4163 H 395.904 -3.66377 -0.678112 0
M  V30 4164 H 396.017 -4.70749 0.890636 0
M  V30 4165 H 394.381 -2.51878 0.378064 0
M  V30 4166 H 395.164 -2.76791 2.03081 0
M  V30 4167 N 397.609 -0.515225 -1.4894 0
M  V30 4168 C 398.541 0.292481 -2.27326 0
M  V30 4169 C 399.554 0.917838 -1.3446 0
M  V30 4170 O 400.743 0.798772 -1.5963 0
M  V30 4171 C 397.843 1.42803 -3.07344 0
M  V30 4172 C 397.016 0.907347 -4.27885 0
M  V30 4173 C 396.075 1.92222 -4.89834 0
M  V30 4174 O 395.101 1.48506 -5.49486 0
M  V30 4175 N 396.303 3.25355 -4.80754 0
M  V30 4176 H 399.068 -0.379721 -2.97285 0
M  V30 4177 H 396.629 -0.348638 -1.58102 0
M  V30 4178 H 398.621 2.10481 -3.45658 0
M  V30 4179 H 397.191 2.00414 -2.39902 0
M  V30 4180 H 396.411 0.0550218 -3.94162 0
M  V30 4181 H 397.699 0.538108 -5.05946 0
M  V30 4182 H 397.097 3.6355 -4.33414 0
M  V30 4183 H 395.654 3.88707 -5.23211 0
M  V30 4184 N 399.087 1.5561 -0.249682 0
M  V30 4185 C 400.034 2.21496 0.648694 0
M  V30 4186 C 401.004 1.17977 1.16921 0
M  V30 4187 O 402.189 1.46434 1.22318 0
M  V30 4188 C 399.329 2.92039 1.83868 0
M  V30 4189 C 398.442 4.10219 1.35442 0
M  V30 4190 C 397.577 4.6847 2.50419 0
M  V30 4191 C 396.616 5.78893 1.98869 0
M  V30 4192 N 395.753 6.31315 3.07223 0
M  V30 4193 H 400.593 2.97892 0.0801582 0
M  V30 4194 H 398.13 1.47074 0.0278031 0
M  V30 4195 H 400.088 3.31138 2.53778 0
M  V30 4196 H 398.718 2.18111 2.37965 0
M  V30 4197 H 397.77 3.76413 0.54928 0
M  V30 4198 H 399.082 4.89927 0.936649 0
M  V30 4199 H 398.236 5.10158 3.28366 0
M  V30 4200 H 396.975 3.87984 2.95499 0
M  V30 4201 H 395.98 5.3668 1.19393 0
M  V30 4202 H 397.205 6.61232 1.54755 0
M  V30 4203 H 395.151 5.53733 3.51732 0
M  V30 4204 H 395.068 7.06224 2.69784 0
M  V30 4205 H 396.336 6.77662 3.8522 0
M  V30 4206 N 400.565 -0.0233959 1.57583 0
M  V30 4207 C 401.79 -0.728376 1.94189 0
M  V30 4208 C 402.215 -1.67793 0.850119 0
M  V30 4209 O 401.573 -1.80262 -0.19371 0
M  V30 4210 C 401.621 -1.45669 3.29868 0
M  V30 4211 O 400.725 -2.57013 3.22518 0
M  V30 4212 H 400.066 -0.195493 0.63457 0
M  V30 4213 H 402.596 0.0228214 2.04587 0
M  V30 4214 H 402.606 -1.82535 3.6489 0
M  V30 4215 H 401.281 -0.760314 4.08891 0
M  V30 4216 H 399.858 -2.22648 2.99136 0
M  V30 4217 N 402.043 -1.548 -0.295768 0
M  V30 4218 C 403.454 -1.65274 -0.868411 0
M  V30 4219 C 403.805 -0.56481 -1.87894 0
M  V30 4220 O 402.93 0.29767 -2.14343 0
M  V30 4221 C 403.525 -2.99603 -1.58188 0
M  V30 4222 C 402.084 -3.12181 -2.10286 0
M  V30 4223 C 401.231 -2.6098 -0.93727 0
M  V30 4224 H 404.182 -1.58534 -0.0726422 0
M  V30 4225 H 404.203 -2.91319 -2.44772 0
M  V30 4226 H 403.715 -3.78764 -0.846151 0
M  V30 4227 H 401.816 -2.3775 -2.8689 0
M  V30 4228 H 401.929 -4.18415 -2.33379 0
M  V30 4229 H 400.293 -2.17564 -1.32431 0
M  V30 4230 H 401.076 -3.42623 -0.215414 0
M  V30 4231 N 403.521 0.559213 -1.47345 0
M  V30 4232 C 404.484 1.64854 -1.59235 0
M  V30 4233 C 405.484 1.53851 -0.467607 0
M  V30 4234 O 406.674 1.58045 -0.732617 0
M  V30 4235 C 403.806 3.04388 -1.53496 0
M  V30 4236 H 404.999 1.55662 -2.56339 0
M  V30 4237 H 402.552 0.778973 -1.35505 0
M  V30 4238 H 403.287 3.19115 -0.577604 0
M  V30 4239 H 403.072 3.13783 -2.35123 0
M  V30 4240 H 404.562 3.83642 -1.6495 0
M  V30 4241 N 404.999 1.35443 0.805782 0
M  V30 4242 C 406.227 1.31878 1.59423 0
M  V30 4243 C 406.642 -0.103562 1.88516 0
M  V30 4244 O 405.999 -1.05575 1.48863 0
M  V30 4245 C 406.05 2.12426 2.92502 0
M  V30 4246 O 405.771 3.49115 2.6467 0
M  V30 4247 C 407.272 2.16455 3.86862 0
M  V30 4248 H 404.492 0.453002 0.495005 0
M  V30 4249 H 407.036 1.78309 1.00131 0
M  V30 4250 H 405.191 1.69593 3.48306 0
M  V30 4251 H 405.605 3.90957 3.49647 0
M  V30 4252 H 407.079 2.77204 4.77349 0
M  V30 4253 H 407.556 1.16352 4.23508 0
M  V30 4254 H 408.162 2.59453 3.36993 0
M  V30 4255 N 406.477 -1.02803 1.19454 0
M  V30 4256 C 407.407 -2.12999 0.956758 0
M  V30 4257 C 408.388 -1.69743 -0.110188 0
M  V30 4258 O 409.573 -1.94148 0.0450038 0
M  V30 4259 C 406.703 -3.43746 0.495553 0
M  V30 4260 C 405.657 -4.00688 1.50443 0
M  V30 4261 C 404.983 -5.27067 0.900275 0
M  V30 4262 C 406.283 -4.35397 2.8849 0
M  V30 4263 H 407.977 -2.33148 1.87836 0
M  V30 4264 H 405.523 -1.12045 0.904539 0
M  V30 4265 H 407.476 -4.2021 0.316493 0
M  V30 4266 H 406.2 -3.23321 -0.461646 0
M  V30 4267 H 404.859 -3.2632 1.67065 0
M  V30 4268 H 404.507 -5.02959 -0.064503 0
M  V30 4269 H 404.207 -5.66127 1.57397 0
M  V30 4270 H 405.731 -6.06196 0.73203 0
M  V30 4271 H 407.145 -5.02795 2.75446 0
M  V30 4272 H 405.542 -4.85541 3.52661 0
M  V30 4273 H 406.612 -3.44662 3.41081 0
M  V30 4274 N 407.956 -0.998596 -1.21925 0
M  V30 4275 C 409.204 -0.676325 -1.90448 0
M  V30 4276 C 409.525 0.794719 -1.78071 0
M  V30 4277 O 408.795 1.5701 -1.17152 0
M  V30 4278 H 407.375 -0.247165 -0.704925 0
M  V30 4279 H 410.037 -1.26633 -1.48156 0
M  V30 4280 H 409.133 -0.943858 -2.97486 0
M  V30 4281 N 409.434 1.37368 -0.772513 0
M  V30 4282 C 410.364 2.32856 -0.173304 0
M  V30 4283 C 411.345 1.55818 0.682262 0
M  V30 4284 O 412.53 1.84052 0.619566 0
M  V30 4285 C 409.66 3.40048 0.706007 0
M  V30 4286 C 408.614 4.27973 -0.0483144 0
M  V30 4287 C 407.94 5.26184 0.950491 0
M  V30 4288 C 409.24 5.07665 -1.22776 0
M  V30 4289 H 410.934 2.83217 -0.971002 0
M  V30 4290 H 408.48 1.3617 -0.468377 0
M  V30 4291 H 410.433 4.05827 1.13501 0
M  V30 4292 H 409.157 2.88214 1.53623 0
M  V30 4293 H 407.816 3.63726 -0.458107 0
M  V30 4294 H 407.464 4.7063 1.77529 0
M  V30 4295 H 407.164 5.85872 0.450314 0
M  V30 4296 H 408.688 5.94838 1.37842 0
M  V30 4297 H 410.102 5.66578 -0.875366 0
M  V30 4298 H 408.499 5.76681 -1.66007 0
M  V30 4299 H 409.569 4.40294 -2.03149 0
M  V30 4300 N 410.912 0.523116 1.48665 0
M  V30 4301 C 411.822 -0.247406 2.33292 0
M  V30 4302 C 412.838 -0.945769 1.46052 0
M  V30 4303 O 414.014 -0.922253 1.79043 0
M  V30 4304 C 411.079 -1.28487 3.22012 0
M  V30 4305 C 410.14 -0.597592 4.2512 0
M  V30 4306 C 409.373 -1.58563 5.09601 0
M  V30 4307 O 409.596 -2.81763 4.95949 0
M  V30 4308 O 408.53 -1.12879 5.91221 0
M  V30 4309 H 412.356 0.445869 3.00409 0
M  V30 4310 H 409.941 0.284128 1.46673 0
M  V30 4311 H 411.823 -1.88459 3.7691 0
M  V30 4312 H 410.498 -1.96068 2.57564 0
M  V30 4313 H 409.405 0.0424407 3.74076 0
M  V30 4314 H 410.738 0.0361517 4.92187 0
M  V30 4315 N 412.39 -1.55475 0.257931 0
M  V30 4316 C 413.3 -2.2549 -0.647425 0
M  V30 4317 C 414.316 -1.2748 -1.18427 0
M  V30 4318 O 415.492 -1.6038 -1.2182 0
M  V30 4319 C 412.557 -2.94916 -1.82278 0
M  V30 4320 C 411.618 -4.08363 -1.32432 0
M  V30 4321 C 410.851 -4.74469 -2.44366 0
M  V30 4322 O 411.074 -4.39701 -3.63344 0
M  V30 4323 O 410.008 -5.62763 -2.13497 0
M  V30 4324 H 413.834 -3.03593 -0.0807707 0
M  V30 4325 H 411.419 -1.49377 0.0259962 0
M  V30 4326 H 413.301 -3.38606 -2.50846 0
M  V30 4327 H 411.976 -2.19744 -2.37685 0
M  V30 4328 H 410.883 -3.69166 -0.605605 0
M  V30 4329 H 412.216 -4.85385 -0.816211 0
M  V30 4330 N 413.868 0.0150385 -1.57593 0
M  V30 4331 C 414.798 1.01047 -2.10503 0
M  V30 4332 C 415.779 1.36816 -1.01071 0
M  V30 4333 O 416.964 1.45455 -1.28672 0
M  V30 4334 C 414.094 2.30708 -2.59598 0
M  V30 4335 C 413.048 2.09142 -3.73421 0
M  V30 4336 C 412.374 3.44685 -4.08774 0
M  V30 4337 C 413.674 1.46619 -5.01298 0
M  V30 4338 H 415.368 0.569978 -2.93925 0
M  V30 4339 H 412.914 0.272724 -1.41394 0
M  V30 4340 H 414.867 3.00687 -2.95238 0
M  V30 4341 H 413.591 2.76843 -1.73279 0
M  V30 4342 H 412.25 1.41592 -3.38153 0
M  V30 4343 H 411.898 3.88495 -3.195 0
M  V30 4344 H 411.598 3.31077 -4.8545 0
M  V30 4345 H 413.122 4.16004 -4.4696 0
M  V30 4346 H 414.536 2.06535 -5.34805 0
M  V30 4347 H 412.933 1.43544 -5.82679 0
M  V30 4348 H 414.003 0.433611 -4.82957 0
M  V30 4349 N 415.346 1.54954 0.287554 0
M  V30 4350 C 416.593 1.74873 1.02106 0
M  V30 4351 C 416.921 0.541829 1.86801 0
M  V30 4352 O 416.176 -0.475992 1.89823 0
M  V30 4353 C 416.475 2.99833 1.94512 0
M  V30 4354 C 416.141 4.33029 1.25686 0
M  V30 4355 C 414.803 4.69233 1.06649 0
M  V30 4356 C 417.155 5.15542 0.765913 0
M  V30 4357 C 414.483 5.85518 0.372222 0
M  V30 4358 C 416.835 6.32542 0.0853101 0
M  V30 4359 C 415.499 6.67398 -0.1169 0
M  V30 4360 H 414.769 0.639906 0.373632 0
M  V30 4361 H 417.416 1.89219 0.294665 0
M  V30 4362 H 415.721 2.80325 2.73725 0
M  V30 4363 H 417.418 3.1244 2.51361 0
M  V30 4364 H 414.008 4.04564 1.41512 0
M  V30 4365 H 418.192 4.88059 0.90066 0
M  V30 4366 H 413.448 6.11057 0.204695 0
M  V30 4367 H 417.622 6.95741 -0.302936 0
M  V30 4368 H 415.249 7.57357 -0.656859 0
M  V30 4369 N 416.824 -0.551391 1.4764 0
M  V30 4370 C 418.049 -1.33837 1.58437 0
M  V30 4371 C 418.474 -1.866 0.237063 0
M  V30 4372 O 417.832 -1.6328 -0.787994 0
M  V30 4373 C 417.88 -2.48014 2.61766 0
M  V30 4374 O 416.984 -3.50419 2.1744 0
M  V30 4375 H 416.325 -0.397299 0.532024 0
M  V30 4376 H 418.855 -0.665759 1.93465 0
M  V30 4377 H 418.865 -2.94503 2.82369 0
M  V30 4378 H 417.54 -2.08969 3.5959 0
M  V30 4379 H 416.117 -3.10196 2.06961 0
M  V30 4380 N 418.302 -1.35869 -0.798587 0
M  V30 4381 C 419.53 -1.32722 -1.58722 0
M  V30 4382 C 419.945 0.0935631 -1.88568 0
M  V30 4383 O 419.302 1.04784 -1.49421 0
M  V30 4384 C 419.353 -2.13974 -2.91371 0
M  V30 4385 O 419.074 -3.50514 -2.62815 0
M  V30 4386 C 420.575 -2.18504 -3.85708 0
M  V30 4387 H 417.795 -0.45562 -0.492596 0
M  V30 4388 H 420.339 -1.78837 -0.991843 0
M  V30 4389 H 418.494 -1.71438 -3.47402 0
M  V30 4390 H 418.908 -3.92806 -3.47568 0
M  V30 4391 H 420.382 -2.79732 -4.75872 0
M  V30 4392 H 420.859 -1.18597 -4.22885 0
M  V30 4393 H 421.465 -2.61236 -3.35612 0
M  V30 4394 N 419.78 1.02168 -1.19998 0
M  V30 4395 C 421.191 1.57135 -1.00825 0
M  V30 4396 C 421.542 1.91276 0.436818 0
M  V30 4397 O 420.667 1.71679 1.3174 0
M  V30 4398 C 421.262 2.85514 -1.82393 0
M  V30 4399 C 419.821 3.37027 -1.67601 0
M  V30 4400 C 418.968 2.10388 -1.80644 0
M  V30 4401 H 421.919 0.846106 -1.34264 0
M  V30 4402 H 421.94 3.56711 -1.32429 0
M  V30 4403 H 421.452 2.60634 -2.87561 0
M  V30 4404 H 419.553 3.66878 -0.650485 0
M  V30 4405 H 419.666 4.09572 -2.4857 0
M  V30 4406 H 418.03 2.22601 -1.23778 0
M  V30 4407 H 418.813 1.8794 -2.87286 0
M  V30 4408 N 421.258 1.00505 1.21394 0
M  V30 4409 C 422.506 0.686415 1.90086 0
M  V30 4410 C 422.827 -0.785264 1.7849 0
M  V30 4411 O 422.097 -1.56387 1.17983 0
M  V30 4412 H 420.677 0.2509 0.703604 0
M  V30 4413 H 423.339 1.27417 1.47482 0
M  V30 4414 H 422.435 0.959621 2.96981 0
M  V30 4415 N 422.737 -1.36956 0.779787 0
M  V30 4416 C 423.687 -2.27539 0.144892 0
M  V30 4417 C 424.671 -1.46493 -0.665488 0
M  V30 4418 O 425.863 -1.68968 -0.527141 0
M  V30 4419 C 422.992 -3.35512 -0.727082 0
M  V30 4420 C 422.078 -4.24001 0.0915642 0
M  V30 4421 N 422.469 -4.92757 1.14125 0
M  V30 4422 C 420.767 -4.45807 -0.131141 0
M  V30 4423 C 421.468 -5.58138 1.6388 0
M  V30 4424 N 420.444 -5.35241 0.94962 0
M  V30 4425 H 424.246 -2.78176 0.948446 0
M  V30 4426 H 421.76 -1.50169 0.618315 0
M  V30 4427 H 423.757 -3.99324 -1.19776 0
M  V30 4428 H 422.417 -2.86431 -1.52929 0
M  V30 4429 H 423.428 -4.94984 1.52353 0
M  V30 4430 H 420.105 -4.07582 -0.904621 0
M  V30 4431 H 421.495 -6.23071 2.51461 0
M  V30 4432 N 424.215 -0.530993 -1.48385 0
M  V30 4433 C 425.145 0.219985 -2.32461 0
M  V30 4434 C 426.126 0.934111 -1.42156 0
M  V30 4435 O 427.311 0.919694 -1.71042 0
M  V30 4436 C 424.441 1.26674 -3.23375 0
M  V30 4437 C 423.395 0.67069 -4.22712 0
M  V30 4438 C 422.721 1.82017 -5.02766 0
M  V30 4439 C 424.021 -0.358268 -5.2107 0
M  V30 4440 H 425.715 -0.48187 -2.95497 0
M  V30 4441 H 423.261 -0.233182 -1.42099 0
M  V30 4442 H 425.214 1.80006 -3.81019 0
M  V30 4443 H 423.938 1.99818 -2.58341 0
M  V30 4444 H 422.597 0.158878 -3.66256 0
M  V30 4445 H 422.245 2.54002 -4.34157 0
M  V30 4446 H 421.945 1.42727 -5.70003 0
M  V30 4447 H 423.469 2.35725 -5.63264 0
M  V30 4448 H 424.883 0.0880081 -5.73232 0
M  V30 4449 H 423.28 -0.66861 -5.96364 0
M  V30 4450 H 424.35 -1.26367 -4.68145 0
M  V30 4451 N 425.693 1.55336 -0.266172 0
M  V30 4452 C 426.641 2.23587 0.641228 0
M  V30 4453 C 427.635 1.22986 1.16494 0
M  V30 4454 O 428.841 1.40943 1.1196 0
M  V30 4455 H 425.216 0.717452 0.225315 0
M  V30 4456 H 427.187 2.9837 0.0426561 0
M  V30 4457 C 425.936 2.96369 1.81826 0
M  V30 4458 H 425.259 3.73563 1.42445 0
M  V30 4459 H 426.699 3.47459 2.42998 0
M  V30 4460 C 425.158 2.0133 2.70125 0
M  V30 4461 O 425.688 1.55875 3.70224 0
M  V30 4462 N 423.894 1.6802 2.37102 0
M  V30 4463 H 423.441 2.05181 1.55751 0
M  V30 4464 H 423.399 1.047 2.96454 0
M  V30 4465 N 427.171 -0.0066808 1.57599 0
M  V30 4466 C 428.448 -0.729586 1.81484 0
M  V30 4467 C 428.828 -1.92359 0.869558 0
M  V30 4468 O 428.176 -2.28348 -0.0832533 0
M  V30 4469 C 428.386 -1.1416 3.29801 0
M  V30 4470 C 429.734 -1.54823 3.95367 0
M  V30 4471 O 430.758 -1.23558 3.34084 0
M  V30 4472 O 429.617 -2.12937 5.03309 0
M  V30 4473 H 426.711 -0.354674 0.747085 0
M  V30 4474 H 429.257 0.0182609 1.6969 0
M  V30 4475 H 428.029 -0.290231 3.90222 0
M  V30 4476 H 427.652 -1.94876 3.46568 0
M  V30 4477 N 428.649 -1.55105 -0.279332 0
M  V30 4478 C 429.926 -1.66119 -1.03267 0
M  V30 4479 C 430.306 -0.523525 -2.04505 0
M  V30 4480 O 429.654 0.477194 -2.23462 0
M  V30 4481 C 429.864 -3.05067 -1.69515 0
M  V30 4482 C 431.212 -3.62606 -2.20912 0
M  V30 4483 O 432.236 -3.07659 -1.79512 0
M  V30 4484 O 431.095 -4.58861 -2.96831 0
M  V30 4485 H 428.189 -0.674429 -0.478618 0
M  V30 4486 H 430.735 -1.67446 -0.275694 0
M  V30 4487 H 429.507 -3.79311 -0.9612 0
M  V30 4488 H 429.13 -3.07611 -2.51915 0
M  V30 4489 N 430.127 0.543554 -1.4793 0
M  V30 4490 C 431.09 1.63156 -1.60975 0
M  V30 4491 C 432.09 1.53346 -0.483899 0
M  V30 4492 O 433.28 1.5726 -0.749339 0
M  V30 4493 C 430.412 3.02743 -1.56716 0
M  V30 4494 H 431.605 1.52934 -2.57975 0
M  V30 4495 H 429.158 0.764557 -1.36324 0
M  V30 4496 H 429.893 3.18484 -0.611418 0
M  V30 4497 H 429.678 3.11272 -2.38438 0
M  V30 4498 H 431.168 3.81871 -1.6901 0
M  V30 4499 N 431.605 1.3629 0.791371 0
M  V30 4500 C 432.882 1.20962 1.53712 0
M  V30 4501 C 433.262 -0.205021 2.10102 0
M  V30 4502 O 432.61 -1.21042 1.93807 0
M  V30 4503 C 432.82 2.29002 2.63361 0
M  V30 4504 C 434.168 2.65572 3.31295 0
M  V30 4505 O 435.192 2.2803 2.73643 0
M  V30 4506 O 434.051 3.3018 4.35481 0
M  V30 4507 H 431.145 0.47086 0.679867 0
M  V30 4508 H 433.691 1.48016 0.830021 0
M  V30 4509 H 432.463 3.2382 2.19674 0
M  V30 4510 H 432.086 2.03303 3.41692 0
M  V30 4511 N 433.083 -1.0153 1.20538 0
M  V30 4512 C 434.311 -1.78746 1.04199 0
M  V30 4513 C 434.726 -1.84323 -0.408733 0
M  V30 4514 O 434.083 -1.29714 -1.28377 0
M  V30 4515 C 434.134 -3.23152 1.62035 0
M  V30 4516 O 433.855 -3.17918 3.0143 0
M  V30 4517 C 435.356 -4.16911 1.50666 0
M  V30 4518 H 432.576 -0.56208 0.366479 0
M  V30 4519 H 435.12 -1.27794 1.59653 0
M  V30 4520 H 433.275 -3.71248 1.10697 0
M  V30 4521 H 433.689 -4.08567 3.28897 0
M  V30 4522 H 435.163 -5.16072 1.95892 0
M  V30 4523 H 435.64 -4.36791 0.459363 0
M  V30 4524 H 436.246 -3.74698 2.01201 0
M  V30 4525 N 434.561 -1.01147 -1.20859 0
M  V30 4526 C 435.807 -0.698899 -1.90377 0
M  V30 4527 C 436.14 0.76904 -1.78324 0
M  V30 4528 O 435.415 1.55817 -1.16409 0
M  V30 4529 C 435.698 -1.12878 -3.41951 0
M  V30 4530 C 435.551 -2.65665 -3.62963 0
M  V30 4531 C 436.87 -0.696114 -4.3456 0
M  V30 4532 H 433.989 -0.255372 -0.691342 0
M  V30 4533 H 436.631 -1.25831 -1.42361 0
M  V30 4534 H 434.781 -0.652827 -3.82976 0
M  V30 4535 H 436.453 -3.21074 -3.31224 0
M  V30 4536 H 434.696 -3.06878 -3.06608 0
M  V30 4537 H 435.367 -2.90797 -4.69192 0
M  V30 4538 H 437.843 -1.10521 -4.01154 0
M  V30 4539 H 436.719 -1.025 -5.39245 0
M  V30 4540 H 436.98 0.402465 -4.40264 0
M  V30 4541 N 436.039 1.36541 -0.78704 0
M  V30 4542 C 436.969 2.32659 -0.197992 0
M  V30 4543 C 437.95 1.56533 0.665697 0
M  V30 4544 O 439.135 1.84698 0.60001 0
M  V30 4545 C 436.265 3.40778 0.669901 0
M  V30 4546 C 435.219 4.27897 -0.0937039 0
M  V30 4547 C 434.545 5.27163 0.894629 0
M  V30 4548 C 435.845 5.06334 -1.28154 0
M  V30 4549 H 437.539 2.82171 -1.00099 0
M  V30 4550 H 435.085 1.35665 -0.482793 0
M  V30 4551 H 437.038 4.07008 1.09191 0
M  V30 4552 H 435.762 2.89827 1.50558 0
M  V30 4553 H 434.421 3.6322 -0.49666 0
M  V30 4554 H 434.069 4.72486 1.72527 0
M  V30 4555 H 433.769 5.86317 0.388149 0
M  V30 4556 H 435.293 5.96266 1.31525 0
M  V30 4557 H 436.707 5.65617 -0.93541 0
M  V30 4558 H 435.104 5.74888 -1.72115 0
M  V30 4559 H 436.174 4.38114 -2.07807 0
M  V30 4560 N 437.518 0.538854 1.48102 0
M  V30 4561 C 438.764 0.00801365 2.02798 0
M  V30 4562 C 439.097 -1.3309 1.41424 0
M  V30 4563 O 438.372 -1.86169 0.563158 0
M  V30 4564 C 438.655 -0.104589 3.59948 0
M  V30 4565 C 438.508 1.26012 4.31788 0
M  V30 4566 C 439.827 -0.827055 4.32259 0
M  V30 4567 H 436.946 0.00438624 0.736987 0
M  V30 4568 H 439.588 0.6976 1.7673 0
M  V30 4569 H 437.738 -0.691893 3.82289 0
M  V30 4570 H 439.41 1.88922 4.2084 0
M  V30 4571 H 437.653 1.83968 3.92859 0
M  V30 4572 H 438.324 1.13424 5.40221 0
M  V30 4573 H 440.8 -0.328578 4.14801 0
M  V30 4574 H 439.676 -0.87476 5.41885 0
M  V30 4575 H 439.937 -1.87927 4.0017 0
M  V30 4576 N 438.996 -1.55193 0.274407 0
M  V30 4577 C 440.242 -1.99877 -0.343086 0
M  V30 4578 C 440.575 -1.16256 -1.55558 0
M  V30 4579 O 439.85 -0.232462 -1.93106 0
M  V30 4580 C 440.133 -3.52706 -0.725965 0
M  V30 4581 C 439.986 -4.47081 0.493818 0
M  V30 4582 C 441.305 -4.11422 -1.56268 0
M  V30 4583 H 438.424 -0.726625 -0.123229 0
M  V30 4584 H 441.066 -1.86136 0.38121 0
M  V30 4585 H 439.216 -3.64546 -1.34307 0
M  V30 4586 H 440.888 -4.47186 1.13237 0
M  V30 4587 H 439.131 -4.1877 1.13201 0
M  V30 4588 H 439.802 -5.51699 0.18217 0
M  V30 4589 H 442.278 -4.02855 -1.04151 0
M  V30 4590 H 441.154 -5.18568 -1.79939 0
M  V30 4591 H 441.415 -3.61607 -2.54348 0
M  V30 4592 N 440.474 -0.00167713 -1.576 0
M  V30 4593 C 441.722 0.681471 -1.90264 0
M  V30 4594 C 442.043 1.7422 -0.875924 0
M  V30 4595 O 441.313 1.95709 0.0864412 0
M  V30 4596 H 439.893 0.254696 -0.702239 0
M  V30 4597 H 442.555 -0.0429996 -1.94853 0
M  V30 4598 H 441.651 1.15166 -2.90075 0
M  V30 4599 N 441.952 1.55251 0.271103 0
M  V30 4600 C 442.862 1.9136 1.35714 0
M  V30 4601 C 443.878 0.811075 1.5394 0
M  V30 4602 O 445.054 1.11031 1.6803 0
M  V30 4603 C 442.119 2.1798 2.69603 0
M  V30 4604 C 441.18 3.4153 2.60107 0
M  V30 4605 C 440.413 3.66871 3.8761 0
M  V30 4606 O 440.636 2.94689 4.8838 0
M  V30 4607 O 439.57 4.60405 3.87699 0
M  V30 4608 H 443.396 2.83815 1.08088 0
M  V30 4609 H 440.981 1.41821 0.469792 0
M  V30 4610 H 442.863 2.36518 3.48765 0
M  V30 4611 H 441.538 1.28708 2.97012 0
M  V30 4612 H 440.445 3.28325 1.79314 0
M  V30 4613 H 441.778 4.31027 2.37647 0
M  V30 4614 N 443.43 -0.535701 1.48216 0
M  V30 4615 C 444.393 -1.623 1.61838 0
M  V30 4616 C 445.393 -1.53087 0.492024 0
M  V30 4617 O 446.583 -1.5686 0.757668 0
M  V30 4618 C 443.715 -3.01907 1.58319 0
M  V30 4619 H 444.908 -1.51564 2.58783 0
M  V30 4620 H 442.461 -0.757317 1.36727 0
M  V30 4621 H 443.196 -3.18155 0.628299 0
M  V30 4622 H 442.981 -3.10003 2.40085 0
M  V30 4623 H 444.471 -3.80969 1.71033 0
M  V30 4624 N 444.908 -1.36708 -0.784132 0
M  V30 4625 C 446.156 -1.30972 -1.53918 0
M  V30 4626 C 446.477 0.109086 -1.94695 0
M  V30 4627 O 445.747 1.05048 -1.65353 0
M  V30 4628 H 444.327 -0.481819 -0.570841 0
M  V30 4629 H 446.989 -1.71063 -0.934002 0
M  V30 4630 H 446.085 -1.94061 -2.44431 0
M  V30 4631 N 446.386 1.0089 -1.21074 0
M  V30 4632 C 447.611 1.78727 -1.05221 0
M  V30 4633 C 448.036 1.83932 0.393795 0
M  V30 4634 O 447.394 1.28004 1.28393 0
M  V30 4635 C 447.442 3.20665 -1.64944 0
M  V30 4636 O 446.546 4.02632 -0.892273 0
M  V30 4637 H 445.887 0.550973 -0.370574 0
M  V30 4638 H 448.417 1.26847 -1.60534 0
M  V30 4639 H 448.427 3.71352 -1.69002 0
M  V30 4640 H 447.102 3.16191 -2.70177 0
M  V30 4641 H 445.679 3.61207 -0.926492 0
M  V30 4642 N 447.864 1.01787 1.20321 0
M  V30 4643 C 449.112 0.706538 1.89347 0
M  V30 4644 C 449.433 -0.766289 1.79313 0
M  V30 4645 O 448.703 -1.55126 1.19635 0
M  V30 4646 H 447.283 0.258348 0.700903 0
M  V30 4647 H 449.945 1.28974 1.46122 0
M  V30 4648 H 449.041 0.991066 2.95946 0
M  V30 4649 N 449.342 -1.36122 0.79427 0
M  V30 4650 C 450.289 -2.29982 0.194101 0
M  V30 4651 C 451.259 -1.52214 -0.664833 0
M  V30 4652 O 452.444 -1.80702 -0.612498 0
M  V30 4653 C 449.584 -3.38706 -0.661244 0
M  V30 4654 C 448.697 -4.31456 0.216766 0
M  V30 4655 C 447.832 -5.27265 -0.645411 0
M  V30 4656 C 446.871 -6.11653 0.233756 0
M  V30 4657 N 446.008 -6.99636 -0.587682 0
M  V30 4658 H 450.848 -2.80722 0.999965 0
M  V30 4659 H 448.385 -1.38172 0.504677 0
M  V30 4660 H 450.343 -4.00394 -1.17219 0
M  V30 4661 H 448.973 -2.89274 -1.43249 0
M  V30 4662 H 448.025 -3.7088 0.845724 0
M  V30 4663 H 449.337 -4.90724 0.893973 0
M  V30 4664 H 448.491 -5.94266 -1.22198 0
M  V30 4665 H 447.23 -4.68463 -1.35623 0
M  V30 4666 H 446.235 -5.4361 0.82269 0
M  V30 4667 H 447.46 -6.72531 0.942247 0
M  V30 4668 H 445.406 -6.43337 -1.2827 0
M  V30 4669 H 445.323 -7.55993 0.0317402 0
M  V30 4670 H 446.591 -7.71001 -1.14792 0
M  V30 4671 N 450.82 -0.546701 -1.47814 0
M  V30 4672 C 452.045 -0.021268 -2.07389 0
M  V30 4673 C 452.47 1.25822 -1.39822 0
M  V30 4674 O 451.828 1.75111 -0.46968 0
M  V30 4675 C 451.876 0.168502 -3.60206 0
M  V30 4676 O 450.98 1.23347 -3.93522 0
M  V30 4677 H 450.321 -0.0466108 -0.662362 0
M  V30 4678 H 452.851 -0.759387 -1.89985 0
M  V30 4679 H 452.861 0.385982 -4.0617 0
M  V30 4680 H 451.536 -0.766075 -4.08784 0
M  V30 4681 H 450.113 0.997319 -3.59316 0
M  V30 4682 N 452.299 1.55045 -0.282633 0
M  V30 4683 C 453.527 2.04168 0.33512 0
M  V30 4684 C 453.942 1.16071 1.48906 0
M  V30 4685 O 453.299 0.182391 1.81586 0
M  V30 4686 C 453.35 3.52332 0.808957 0
M  V30 4687 O 453.071 4.37078 -0.299038 0
M  V30 4688 C 454.572 4.17375 1.49375 0
M  V30 4689 H 451.792 0.666744 0.0754543 0
M  V30 4690 H 454.336 2.00205 -0.416918 0
M  V30 4691 H 452.491 3.56715 1.51106 0
M  V30 4692 H 452.905 5.24458 0.0665514 0
M  V30 4693 H 454.379 5.22627 1.77664 0
M  V30 4694 H 454.856 3.65999 2.42778 0
M  V30 4695 H 455.462 4.17016 0.835305 0
M  V30 4696 N 453.777 0.010035 1.57597 0
M  V30 4697 C 454.707 -0.976857 2.12084 0
M  V30 4698 C 455.688 -1.35191 1.03235 0
M  V30 4699 O 456.873 -1.43389 1.3097 0
M  V30 4700 C 454.003 -2.26548 2.63236 0
M  V30 4701 C 452.957 -2.03175 3.76701 0
M  V30 4702 C 452.283 -3.38138 4.14206 0
M  V30 4703 C 453.583 -1.38625 5.03568 0
M  V30 4704 H 455.277 -0.523145 2.94794 0
M  V30 4705 H 452.823 -0.250195 1.4181 0
M  V30 4706 H 454.776 -2.95952 2.99984 0
M  V30 4707 H 453.5 -2.74051 1.77661 0
M  V30 4708 H 452.159 -1.36195 3.40362 0
M  V30 4709 H 451.807 -3.83363 3.25641 0
M  V30 4710 H 451.507 -3.23312 4.90656 0
M  V30 4711 H 453.031 -4.08841 4.53521 0
M  V30 4712 H 454.445 -1.98 5.38023 0
M  V30 4713 H 452.842 -1.34256 5.84889 0
M  V30 4714 H 453.912 -0.356722 4.83586 0
M  V30 4715 N 455.255 -1.55392 -0.262866 0
M  V30 4716 C 456.185 -1.91978 -1.32917 0
M  V30 4717 C 457.166 -0.7828 -1.51017 0
M  V30 4718 O 458.351 -1.04178 -1.63892 0
M  V30 4719 C 455.481 -2.20055 -2.68687 0
M  V30 4720 C 454.435 -3.35854 -2.65304 0
M  V30 4721 C 453.761 -3.49435 -4.04721 0
M  V30 4722 C 455.061 -4.71977 -2.23685 0
M  V30 4723 H 456.755 -2.81292 -1.02544 0
M  V30 4724 H 454.301 -1.3534 -0.491846 0
M  V30 4725 H 456.254 -2.44237 -3.43404 0
M  V30 4726 H 454.978 -1.27551 -3.00663 0
M  V30 4727 H 453.637 -3.11655 -1.93045 0
M  V30 4728 H 453.285 -2.54379 -4.33936 0
M  V30 4729 H 452.985 -4.27297 -4.0335 0
M  V30 4730 H 454.509 -3.7592 -4.81161 0
M  V30 4731 H 455.923 -4.95637 -2.88127 0
M  V30 4732 H 454.32 -5.52828 -2.33456 0
M  V30 4733 H 455.39 -4.70115 -1.18827 0
M  V30 4734 N 456.733 0.527833 -1.48498 0
M  V30 4735 C 457.665 1.6482 -1.5927 0
M  V30 4736 C 458.678 1.55659 -0.476869 0
M  V30 4737 O 459.867 1.62081 -0.747806 0
M  V30 4738 C 456.967 3.0348 -1.50842 0
M  V30 4739 C 456.14 3.381 -2.77502 0
M  V30 4740 C 455.199 4.5605 -2.62497 0
M  V30 4741 O 454.225 4.59165 -3.36387 0
M  V30 4742 N 455.427 5.54353 -1.72257 0
M  V30 4743 H 458.192 1.56015 -2.55889 0
M  V30 4744 H 455.753 0.715152 -1.45249 0
M  V30 4745 H 457.745 3.80264 -1.38496 0
M  V30 4746 H 456.315 3.06352 -0.621887 0
M  V30 4747 H 455.535 2.50473 -3.04396 0
M  V30 4748 H 456.823 3.58017 -3.61527 0
M  V30 4749 H 456.221 5.54617 -1.11431 0
M  V30 4750 H 454.778 6.30347 -1.65849 0
M  V30 4751 N 458.211 1.37122 0.776871 0
M  V30 4752 C 459.627 1.1781 1.07671 0
M  V30 4753 C 459.827 0.0107454 2.01497 0
M  V30 4754 O 458.883 -0.650756 2.4397 0
M  V30 4755 C 460.196 2.49451 1.67913 0
M  V30 4756 C 461.744 2.55927 1.80195 0
M  V30 4757 C 462.219 3.87686 2.43851 0
M  V30 4758 N 463.71 3.891 2.51307 0
M  V30 4759 C 464.445 4.87797 3.014 0
M  V30 4760 N 463.941 5.96888 3.51705 0
M  V30 4761 N 465.734 4.75205 3.00227 0
M  V30 4762 H 457.885 2.11843 0.153778 0
M  V30 4763 H 460.148 0.938927 0.130844 0
M  V30 4764 H 459.854 3.35207 1.06439 0
M  V30 4765 H 459.728 2.66169 2.67271 0
M  V30 4766 H 462.115 1.70582 2.40803 0
M  V30 4767 H 462.196 2.43097 0.796069 0
M  V30 4768 H 461.84 4.73444 1.83884 0
M  V30 4769 H 461.77 3.97817 3.45035 0
M  V30 4770 H 464.261 3.10293 2.157 0
M  V30 4771 H 464.574 6.68155 3.88316 0
M  V30 4772 H 462.919 6.0054 3.49824 0
M  V30 4773 H 466.11 3.89103 2.60224 0
M  V30 4774 H 466.283 5.52279 3.38957 0
M  V30 4775 N 459.689 -1.00246 1.21608 0
M  V30 4776 C 460.619 -2.10921 1.00172 0
M  V30 4777 C 461.6 -1.69938 -0.0741587 0
M  V30 4778 O 462.785 -1.94009 0.0861753 0
M  V30 4779 C 459.915 -3.42618 0.568355 0
M  V30 4780 C 458.869 -3.97407 1.58909 0
M  V30 4781 C 458.195 -5.25038 1.01187 0
M  V30 4782 C 459.495 -4.2918 2.97661 0
M  V30 4783 H 461.189 -2.29112 1.92739 0
M  V30 4784 H 458.735 -1.10101 0.928102 0
M  V30 4785 H 460.688 -4.19444 0.405555 0
M  V30 4786 H 459.412 -3.24227 -0.392961 0
M  V30 4787 H 458.071 -3.22703 1.73949 0
M  V30 4788 H 457.719 -5.02982 0.0421965 0
M  V30 4789 H 457.419 -5.62661 1.6937 0
M  V30 4790 H 458.943 -6.04507 0.860448 0
M  V30 4791 H 460.357 -4.96839 2.86049 0
M  V30 4792 H 458.754 -4.77952 3.6288 0
M  V30 4793 H 459.824 -3.3735 3.48315 0
M  V30 4794 N 461.167 -1.02423 -1.1978 0
M  V30 4795 C 462.117 -0.571689 -2.20716 0
M  V30 4796 C 463.101 0.377077 -1.56419 0
M  V30 4797 O 464.293 0.198801 -1.7588 0
M  V30 4798 C 461.422 0.0808555 -3.43205 0
M  V30 4799 C 460.508 -0.890073 -4.14655 0
M  V30 4800 N 460.899 -2.05065 -4.62366 0
M  V30 4801 C 459.197 -0.71252 -4.40272 0
M  V30 4802 C 459.898 -2.66264 -5.17183 0
M  V30 4803 N 458.874 -1.94264 -5.07703 0
M  V30 4804 H 462.676 -1.45636 -2.55279 0
M  V30 4805 H 460.19 -0.890596 -1.35802 0
M  V30 4806 H 462.187 0.422654 -4.14752 0
M  V30 4807 H 460.847 0.961274 -3.10144 0
M  V30 4808 H 461.858 -2.43026 -4.57339 0
M  V30 4809 H 458.535 0.119199 -4.1733 0
M  V30 4810 H 459.925 -3.64526 -5.64421 0
M  V30 4811 N 462.645 1.35699 -0.801477 0
M  V30 4812 C 463.575 2.32436 -0.222658 0
M  V30 4813 C 464.556 1.5723 0.649057 0
M  V30 4814 O 465.741 1.85324 0.580387 0
M  V30 4815 C 462.871 3.41469 0.633719 0
M  V30 4816 C 461.825 4.27774 -0.139083 0
M  V30 4817 C 461.151 5.28082 0.838666 0
M  V30 4818 C 462.451 5.04946 -1.33517 0
M  V30 4819 H 464.145 2.81094 -1.03086 0
M  V30 4820 H 461.691 1.35146 -0.497155 0
M  V30 4821 H 463.644 4.08143 1.04868 0
M  V30 4822 H 462.368 2.91408 1.47475 0
M  V30 4823 H 461.027 3.62673 -0.535156 0
M  V30 4824 H 460.675 4.7429 1.67506 0
M  V30 4825 H 460.375 5.86695 0.32594 0
M  V30 4826 H 461.899 5.97628 1.25194 0
M  V30 4827 H 463.313 5.64593 -0.995349 0
M  V30 4828 H 461.71 5.7303 -1.78202 0
M  V30 4829 H 462.78 4.35886 -2.12442 0
M  V30 4830 N 464.123 0.554532 1.47522 0
M  V30 4831 C 465.053 -0.182974 2.32782 0
M  V30 4832 C 466.034 -0.911377 1.43624 0
M  V30 4833 O 467.219 -0.892366 1.72483 0
M  V30 4834 C 464.349 -1.21513 3.25349 0
M  V30 4835 C 463.303 -0.603355 4.23726 0
M  V30 4836 C 462.629 -1.73995 5.05598 0
M  V30 4837 C 463.929 0.441121 5.20434 0
M  V30 4838 H 465.623 0.52882 2.94693 0
M  V30 4839 H 463.169 0.255759 1.41711 0
M  V30 4840 H 465.122 -1.73922 3.83835 0
M  V30 4841 H 463.846 -1.95683 2.61487 0
M  V30 4842 H 462.505 -0.10059 3.66462 0
M  V30 4843 H 462.153 -2.47063 4.38143 0
M  V30 4844 H 461.853 -1.3364 5.72201 0
M  V30 4845 H 463.377 -2.26735 5.66942 0
M  V30 4846 H 464.791 0.00319931 5.733 0
M  V30 4847 H 463.188 0.763402 5.95224 0
M  V30 4848 H 464.258 1.33799 4.66075 0
M  V30 4849 N 465.601 -1.54893 0.290851 0
M  V30 4850 C 466.847 -2.00949 -0.314784 0
M  V30 4851 C 467.202 -1.1757 -1.52299 0
M  V30 4852 O 466.495 -0.241558 -1.90071 0
M  V30 4853 C 466.689 -3.49815 -0.732397 0
M  V30 4854 C 466.518 -4.47603 0.433799 0
M  V30 4855 C 465.288 -4.96806 0.922599 0
M  V30 4856 C 467.486 -4.98233 1.27546 0
M  V30 4857 N 465.468 -5.78426 2.05662 0
M  V30 4858 C 466.839 -5.77455 2.25712 0
M  V30 4859 C 468.894 -4.80439 1.307 0
M  V30 4860 C 467.597 -6.40778 3.26796 0
M  V30 4861 C 469.623 -5.44574 2.30637 0
M  V30 4862 C 468.985 -6.23619 3.27533 0
M  V30 4863 H 465.084 -0.777905 -0.0799257 0
M  V30 4864 H 467.668 -1.9015 0.418458 0
M  V30 4865 H 465.839 -3.60925 -1.43483 0
M  V30 4866 H 467.571 -3.82681 -1.31671 0
M  V30 4867 H 464.326 -4.70961 0.49926 0
M  V30 4868 H 464.75 -6.23923 2.62772 0
M  V30 4869 H 469.392 -4.18918 0.571622 0
M  V30 4870 H 467.11 -7.01439 4.01258 0
M  V30 4871 H 470.696 -5.32739 2.33838 0
M  V30 4872 H 469.576 -6.72367 4.03599 0
M  V30 4873 N 467.08 -0.0183926 -1.57589 0
M  V30 4874 C 468.043 0.951986 -2.08494 0
M  V30 4875 C 469.043 1.26092 -0.997874 0
M  V30 4876 O 470.233 1.20304 -1.25987 0
M  V30 4877 C 467.365 2.27165 -2.54182 0
M  V30 4878 H 468.558 0.511307 -2.95509 0
M  V30 4879 H 466.111 0.229444 -1.54607 0
M  V30 4880 H 466.846 2.75884 -1.70465 0
M  V30 4881 H 466.631 2.06057 -3.33591 0
M  V30 4882 H 468.121 2.9674 -2.93828 0
M  V30 4883 N 468.558 1.5553 0.254621 0
M  V30 4884 C 469.521 1.88872 1.29846 0
M  V30 4885 C 470.521 0.764591 1.41459 0
M  V30 4886 O 471.711 1.03265 1.40293 0
M  V30 4887 C 468.843 2.11032 2.67728 0
M  V30 4888 H 470.036 2.82201 1.01502 0
M  V30 4889 H 467.589 1.48303 0.493556 0
M  V30 4890 H 468.324 1.20146 3.01223 0
M  V30 4891 H 468.109 2.92895 2.60682 0
M  V30 4892 H 469.599 2.38038 3.43115 0
M  V30 4893 N 470.036 -0.519951 1.48776 0
M  V30 4894 C 471.284 -1.2727 1.56993 0
M  V30 4895 C 471.605 -1.9339 0.25004 0
M  V30 4896 O 470.875 -1.81822 -0.729216 0
M  V30 4897 H 469.455 -0.472732 0.578389 0
M  V30 4898 H 472.117 -0.604234 1.85297 0
M  V30 4899 H 471.213 -2.04669 2.3562 0
M  V30 4900 N 471.514 -1.37532 -0.769588 0
M  V30 4901 C 472.446 -1.29347 -1.89214 0
M  V30 4902 C 473.459 -0.208842 -1.61455 0
M  V30 4903 O 474.648 -0.465158 -1.72333 0
M  V30 4904 C 471.748 -0.977649 -3.24492 0
M  V30 4905 C 470.921 -2.16817 -3.7988 0
M  V30 4906 C 469.98 -1.82229 -4.93639 0
M  V30 4907 O 469.006 -2.54548 -5.09111 0
M  V30 4908 N 470.208 -0.767696 -5.75401 0
M  V30 4909 H 472.973 -2.26073 -1.96751 0
M  V30 4910 H 470.534 -1.31185 -0.948795 0
M  V30 4911 H 472.526 -0.727065 -3.98115 0
M  V30 4912 H 471.096 -0.0988777 -3.12444 0
M  V30 4913 H 470.316 -2.58038 -2.9801 0
M  V30 4914 H 471.604 -2.96308 -4.13617 0
M  V30 4915 H 471.002 -0.167626 -5.65452 0
M  V30 4916 H 469.559 -0.576973 -6.49241 0
M  V30 4917 N 472.992 0.995999 -1.22138 0
M  V30 4918 C 474.269 1.70834 -0.952642 0
M  V30 4919 C 474.649 2.04257 0.533119 0
M  V30 4920 O 473.997 1.72343 1.50034 0
M  V30 4921 C 474.207 2.96119 -1.84701 0
M  V30 4922 C 475.555 3.68962 -2.10124 0
M  V30 4923 O 476.579 3.0612 -1.82124 0
M  V30 4924 O 475.438 4.82017 -2.57531 0
M  V30 4925 H 472.532 0.745498 -0.357997 0
M  V30 4926 H 475.078 1.05262 -1.33109 0
M  V30 4927 H 473.85 2.67898 -2.85213 0
M  V30 4928 H 473.473 3.6943 -1.46995 0
M  V30 4929 N 474.47 1.03057 1.19235 0
M  V30 4930 C 475.717 0.728019 1.88961 0
M  V30 4931 C 476.045 -0.743515 1.79728 0
M  V30 4932 O 475.3 -1.55729 1.1852 0
M  V30 4933 C 475.599 1.1268 3.39172 0
M  V30 4934 C 475.265 2.5969 3.68608 0
M  V30 4935 C 473.927 2.99854 3.76352 0
M  V30 4936 C 476.279 3.54793 3.81801 0
M  V30 4937 C 473.607 4.34031 3.94758 0
M  V30 4938 C 475.959 4.88675 4.0172 0
M  V30 4939 C 474.623 5.28526 4.07697 0
M  V30 4940 H 473.893 0.266401 0.691456 0
M  V30 4941 H 476.54 1.29373 1.41191 0
M  V30 4942 H 474.845 0.479722 3.88852 0
M  V30 4943 H 476.542 0.870203 3.91444 0
M  V30 4944 H 473.132 2.27575 3.63191 0
M  V30 4945 H 477.316 3.24914 3.7516 0
M  V30 4946 H 472.572 4.6444 3.97625 0
M  V30 4947 H 476.746 5.6228 4.1087 0
M  V30 4948 H 474.373 6.32506 4.21712 0
M  V30 4949 N 475.948 -1.35272 0.808662 0
M  V30 4950 C 476.88 -2.28507 0.178149 0
M  V30 4951 C 477.893 -1.50377 -0.623754 0
M  V30 4952 O 479.082 -1.72583 -0.455774 0
M  V30 4953 C 476.182 -3.30038 -0.769959 0
M  V30 4954 C 475.355 -4.37398 -0.0139749 0
M  V30 4955 C 474.414 -5.18775 -0.880875 0
M  V30 4956 O 473.44 -5.68236 -0.331059 0
M  V30 4957 N 474.642 -5.37087 -2.20267 0
M  V30 4958 H 477.407 -2.83255 0.979106 0
M  V30 4959 H 474.968 -1.47643 0.664308 0
M  V30 4960 H 476.96 -3.81371 -1.35418 0
M  V30 4961 H 475.53 -2.75789 -1.47171 0
M  V30 4962 H 474.75 -3.86971 0.751468 0
M  V30 4963 H 476.038 -5.06268 0.506965 0
M  V30 4964 H 475.436 -4.9855 -2.67328 0
M  V30 4965 H 473.993 -5.91593 -2.73608 0
M  V30 4966 N 477.426 -0.562348 -1.47226 0
M  V30 4967 C 478.336 0.185466 -2.33866 0
M  V30 4968 C 479.352 0.906713 -1.48508 0
M  V30 4969 O 480.528 0.874458 -1.81425 0
M  V30 4970 C 477.593 1.19904 -3.25306 0
M  V30 4971 C 476.654 0.484669 -4.26555 0
M  V30 4972 C 475.887 1.44996 -5.13626 0
M  V30 4973 O 476.11 2.68515 -5.03245 0
M  V30 4974 O 475.044 0.971642 -5.94006 0
M  V30 4975 H 478.87 -0.525361 -2.99121 0
M  V30 4976 H 476.455 -0.322916 -1.45868 0
M  V30 4977 H 478.337 1.78399 -3.81774 0
M  V30 4978 H 477.012 1.8917 -2.62672 0
M  V30 4979 H 475.919 -0.141605 -3.73832 0
M  V30 4980 H 477.252 -0.166634 -4.91918 0
M  V30 4981 N 478.904 1.54736 -0.299062 0
M  V30 4982 C 480.151 2.00101 0.310784 0
M  V30 4983 C 480.479 1.18746 1.54045 0
M  V30 4984 O 479.734 0.251198 1.94081 0
M  V30 4985 C 480.033 3.50199 0.713835 0
M  V30 4986 C 479.699 4.48997 -0.413873 0
M  V30 4987 C 478.361 4.7573 -0.723462 0
M  V30 4988 C 480.713 5.07839 -1.17257 0
M  V30 4989 C 478.041 5.5857 -1.79491 0
M  V30 4990 C 480.393 5.91844 -2.23392 0
M  V30 4991 C 479.057 6.16889 -2.54959 0
M  V30 4992 H 478.327 0.732221 0.113724 0
M  V30 4993 H 480.974 1.86888 -0.417756 0
M  V30 4994 H 479.279 3.61012 1.52243 0
M  V30 4995 H 480.976 3.82723 1.19684 0
M  V30 4996 H 477.566 4.28292 -0.162476 0
M  V30 4997 H 481.75 4.87188 -0.946651 0
M  V30 4998 H 477.006 5.76213 -2.04423 0
M  V30 4999 H 481.18 6.36465 -2.8264 0
M  V30 5000 H 478.807 6.80869 -3.38114 0
M  V30 5001 N 480.382 0.0267497 1.57577 0
M  V30 5002 C 481.312 -0.954308 2.13108 0
M  V30 5003 C 482.293 -1.34088 1.04663 0
M  V30 5004 O 483.478 -1.41992 1.32484 0
M  V30 5005 C 480.608 -2.23744 2.65624 0
M  V30 5006 C 479.562 -1.99168 3.78835 0
M  V30 5007 C 478.888 -3.33726 4.17769 0
M  V30 5008 C 480.188 -1.33277 5.0501 0
M  V30 5009 H 481.882 -0.491848 2.95332 0
M  V30 5010 H 479.428 -0.23514 1.42067 0
M  V30 5011 H 481.381 -2.92754 3.03106 0
M  V30 5012 H 480.105 -2.72151 1.80558 0
M  V30 5013 H 478.764 -1.32577 3.41788 0
M  V30 5014 H 478.412 -3.79888 3.29688 0
M  V30 5015 H 478.112 -3.18089 4.94058 0
M  V30 5016 H 479.636 -4.04008 4.57832 0
M  V30 5017 H 481.05 -1.92283 5.40093 0
M  V30 5018 H 479.447 -1.28045 5.8628 0
M  V30 5019 H 480.517 -0.305411 4.83937 0
M  V30 5020 N 481.861 -1.55662 -0.24637 0
M  V30 5021 C 483.108 -1.77519 -0.974335 0
M  V30 5022 C 483.436 -0.591165 -1.85298 0
M  V30 5023 O 482.691 0.425497 -1.91018 0
M  V30 5024 C 482.99 -3.04885 -1.86494 0
M  V30 5025 C 482.656 -4.36209 -1.14161 0
M  V30 5026 C 481.318 -4.71896 -0.941701 0
M  V30 5027 C 483.67 -5.17391 -0.628957 0
M  V30 5028 C 480.998 -5.86299 -0.216852 0
M  V30 5029 C 483.35 -6.32546 0.0824273 0
M  V30 5030 C 482.014 -6.66853 0.293807 0
M  V30 5031 H 481.284 -0.649588 -0.356535 0
M  V30 5032 H 483.931 -1.89934 -0.244394 0
M  V30 5033 H 482.236 -2.87484 -2.66196 0
M  V30 5034 H 483.933 -3.18994 -2.42989 0
M  V30 5035 H 480.523 -4.08174 -1.30736 0
M  V30 5036 H 484.707 -4.90276 -0.770943 0
M  V30 5037 H 479.963 -6.11385 -0.0426124 0
M  V30 5038 H 484.137 -6.94693 0.487292 0
M  V30 5039 H 481.764 -7.55349 0.857428 0
M  V30 5040 N 483.339 0.512053 -1.4905 0
M  V30 5041 C 484.585 1.26874 -1.58212 0
M  V30 5042 C 484.918 1.9241 -0.263073 0
M  V30 5043 O 484.193 1.80181 0.732476 0
M  V30 5044 C 484.476 2.34428 -2.73341 0
M  V30 5045 C 484.329 1.73466 -4.15006 0
M  V30 5046 C 485.648 3.36073 -2.84154 0
M  V30 5047 H 482.767 0.459924 -0.575881 0
M  V30 5048 H 485.409 0.568587 -1.81293 0
M  V30 5049 H 483.559 2.94146 -2.53792 0
M  V30 5050 H 485.231 1.17661 -4.46042 0
M  V30 5051 H 483.474 1.03921 -4.21168 0
M  V30 5052 H 484.145 2.51426 -4.91415 0
M  V30 5053 H 486.621 2.86332 -3.01916 0
M  V30 5054 H 485.497 4.08703 -3.66406 0
M  V30 5055 H 485.758 3.97725 -1.93048 0
M  V30 5056 N 484.817 1.37938 0.762283 0
M  V30 5057 C 486.064 1.33668 1.52115 0
M  V30 5058 C 486.392 -0.0759538 1.94352 0
M  V30 5059 O 485.647 -1.05121 1.6507 0
M  V30 5060 C 485.946 2.23042 2.79261 0
M  V30 5061 C 485.612 3.71159 2.56031 0
M  V30 5062 C 484.274 4.11523 2.49404 0
M  V30 5063 C 486.626 4.64955 2.35513 0
M  V30 5064 C 483.954 5.43784 2.20263 0
M  V30 5065 C 486.306 5.97464 2.07894 0
M  V30 5066 C 484.97 6.36922 1.99718 0
M  V30 5067 H 484.24 0.489127 0.556629 0
M  V30 5068 H 486.887 1.70224 0.877262 0
M  V30 5069 H 485.192 1.79512 3.48256 0
M  V30 5070 H 486.889 2.17047 3.37182 0
M  V30 5071 H 483.479 3.39153 2.62056 0
M  V30 5072 H 487.663 4.34623 2.39617 0
M  V30 5073 H 482.919 5.73307 2.12435 0
M  V30 5074 H 487.093 6.6969 1.91019 0
M  V30 5075 H 484.72 7.39331 1.76902 0
M  V30 5076 N 486.295 -0.989507 1.22664 0
M  V30 5077 C 487.706 -1.54406 1.04955 0
M  V30 5078 C 488.057 -1.92366 -0.385951 0
M  V30 5079 O 487.182 -1.75111 -1.27142 0
M  V30 5080 C 487.777 -2.80578 1.89899 0
M  V30 5081 C 486.336 -3.32464 1.76478 0
M  V30 5082 C 485.483 -2.05524 1.86159 0
M  V30 5083 H 488.434 -0.810211 1.3646 0
M  V30 5084 H 488.455 -3.53075 1.4184 0
M  V30 5085 H 487.967 -2.52918 2.94371 0
M  V30 5086 H 486.068 -3.65024 0.747528 0
M  V30 5087 H 486.181 -4.02838 2.59342 0
M  V30 5088 H 484.545 -2.19241 1.29636 0
M  V30 5089 H 485.328 -1.80258 2.92168 0
M  V30 5090 N 487.773 -1.03688 -1.18687 0
M  V30 5091 C 489.02 -0.73803 -1.88572 0
M  V30 5092 C 489.348 0.733973 -1.8012 0
M  V30 5093 O 488.603 1.55098 -1.19344 0
M  V30 5094 C 488.902 -1.14477 -3.3857 0
M  V30 5095 C 488.568 -2.61641 -3.67226 0
M  V30 5096 C 487.23 -3.01846 -3.74757 0
M  V30 5097 C 489.582 -3.56812 -3.79914 0
M  V30 5098 C 486.91 -4.36118 -3.92451 0
M  V30 5099 C 489.262 -4.90799 -3.99123 0
M  V30 5100 C 487.926 -5.3068 -4.04888 0
M  V30 5101 H 487.196 -0.270064 -0.690034 0
M  V30 5102 H 489.843 -1.3012 -1.40503 0
M  V30 5103 H 488.148 -0.500337 -3.88592 0
M  V30 5104 H 489.845 -0.89095 -3.90977 0
M  V30 5105 H 486.435 -2.29498 -3.61979 0
M  V30 5106 H 490.619 -3.26899 -3.73431 0
M  V30 5107 H 485.875 -4.66542 -3.95157 0
M  V30 5108 H 490.049 -5.64451 -4.07882 0
M  V30 5109 H 487.676 -6.34733 -4.18351 0
M  V30 5110 N 489.251 1.34841 -0.815825 0
M  V30 5111 C 490.476 2.03261 -0.41226 0
M  V30 5112 C 490.901 1.61055 0.971751 0
M  V30 5113 O 490.259 0.7917 1.63101 0
M  V30 5114 C 490.307 3.56914 -0.514289 0
M  V30 5115 O 489.411 4.09728 0.468675 0
M  V30 5116 H 488.752 0.641664 -0.170771 0
M  V30 5117 H 491.282 1.72241 -1.10427 0
M  V30 5118 H 491.292 4.06156 -0.387457 0
M  V30 5119 H 489.967 3.86982 -1.52375 0
M  V30 5120 H 488.544 3.71681 0.301316 0
M  V30 5121 N 490.729 0.570148 1.46925 0
M  V30 5122 C 491.969 0.0534743 2.0433 0
M  V30 5123 C 492.333 -1.27729 1.4335 0
M  V30 5124 O 493.534 -1.88244 1.91879 0
M  V30 5125 C 491.805 -0.0244296 3.57392 0
M  V30 5126 S 493.364 -0.485351 4.36108 0
M  V30 5127 H 490.182 0.0313908 0.710307 0
M  V30 5128 H 492.784 0.759808 1.80131 0
M  V30 5129 H 491.488 0.948261 3.99295 0
M  V30 5130 H 491.019 -0.753922 3.86108 0
M  V30 5131 H 493.034 -1.74258 4.64595 0
M  V30 5132 N 492.207 -1.54576 0.307264 0
M  V30 5133 C 493.623 -1.59534 -0.0459251 0
M  V30 5134 C 493.823 -1.32414 -1.51884 0
M  V30 5135 O 492.879 -1.1006 -2.27251 0
M  V30 5136 C 494.192 -2.98566 0.357649 0
M  V30 5137 C 495.74 -3.11491 0.306937 0
M  V30 5138 C 496.215 -4.52842 0.685427 0
M  V30 5139 N 497.706 -4.58782 0.638203 0
M  V30 5140 C 498.441 -5.66238 0.903458 0
M  V30 5141 N 497.937 -6.81703 1.23501 0
M  V30 5142 N 499.73 -5.55937 0.830102 0
M  V30 5143 H 491.881 -1.70464 1.26712 0
M  V30 5144 H 494.144 -0.79647 0.514139 0
M  V30 5145 H 493.85 -3.23356 1.38325 0
M  V30 5146 H 493.724 -3.76117 -0.285565 0
M  V30 5147 H 496.111 -2.86446 -0.709424 0
M  V30 5148 H 496.192 -2.36081 0.984861 0
M  V30 5149 H 495.836 -4.78618 1.69963 0
M  V30 5150 H 495.766 -5.26598 -0.0146346 0
M  V30 5151 H 498.257 -3.75849 0.393138 0
M  V30 5152 H 498.57 -7.59582 1.42322 0
M  V30 5153 H 496.915 -6.8324 1.27311 0
M  V30 5154 H 500.106 -4.64608 0.570693 0
M  V30 5155 H 500.279 -6.39597 1.04019 0
M  V30 5156 N 493.685 -0.035106 -1.57561 0
M  V30 5157 C 494.617 0.973604 -2.07494 0
M  V30 5158 C 495.63 1.28504 -0.999534 0
M  V30 5159 O 496.819 1.24864 -1.27559 0
M  V30 5160 C 493.919 2.29945 -2.48955 0
M  V30 5161 C 493.092 2.1723 -3.79644 0
M  V30 5162 C 492.151 3.328 -4.07592 0
M  V30 5163 O 491.177 3.09418 -4.77754 0
M  V30 5164 N 492.379 4.56779 -3.58236 0
M  V30 5165 H 495.144 0.547525 -2.94656 0
M  V30 5166 H 492.705 0.151515 -1.61189 0
M  V30 5167 H 494.697 3.06097 -2.64739 0
M  V30 5168 H 493.267 2.64173 -1.67126 0
M  V30 5169 H 492.487 1.25768 -3.73599 0
M  V30 5170 H 493.775 2.05945 -4.65257 0
M  V30 5171 H 493.173 4.78668 -3.01485 0
M  V30 5172 H 491.73 5.30079 -3.79288 0
M  V30 5173 N 495.163 1.55791 0.238111 0
M  V30 5174 C 496.093 1.94068 1.29846 0
M  V30 5175 C 497.074 0.806726 1.49753 0
M  V30 5176 O 498.259 1.06772 1.62214 0
M  V30 5177 C 495.389 2.24302 2.65153 0
M  V30 5178 C 494.343 3.40032 2.59927 0
M  V30 5179 C 493.669 3.55829 3.99111 0
M  V30 5180 C 494.969 4.75476 2.16148 0
M  V30 5181 H 496.663 2.82887 0.980563 0
M  V30 5182 H 494.209 1.36105 0.470253 0
M  V30 5183 H 496.162 2.4967 3.39475 0
M  V30 5184 H 494.886 1.32318 2.98596 0
M  V30 5185 H 493.545 3.14687 1.88063 0
M  V30 5186 H 493.193 2.6125 4.29834 0
M  V30 5187 H 492.893 4.3366 3.96501 0
M  V30 5188 H 494.417 3.83528 4.7512 0
M  V30 5189 H 495.831 5.00158 2.80205 0
M  V30 5190 H 494.228 5.56472 2.24631 0
M  V30 5191 H 495.298 4.71946 1.11333 0
M  V30 5192 N 496.642 -0.504142 1.49319 0
M  V30 5193 C 497.574 -1.62265 1.61872 0
M  V30 5194 C 498.587 -1.54881 0.501573 0
M  V30 5195 O 499.776 -1.6087 0.773497 0
M  V30 5196 C 496.876 -3.01042 1.55651 0
M  V30 5197 C 496.049 -3.33642 2.82845 0
M  V30 5198 C 495.108 -4.51816 2.69719 0
M  V30 5199 O 494.134 -4.53755 3.4365 0
M  V30 5200 N 495.336 -5.51543 1.81055 0
M  V30 5201 H 498.101 -1.51924 2.58339 0
M  V30 5202 H 495.662 -0.691954 1.46368 0
M  V30 5203 H 497.654 -3.78013 1.44528 0
M  V30 5204 H 496.224 -3.05323 0.670546 0
M  V30 5205 H 495.444 -2.45598 3.08343 0
M  V30 5206 H 496.732 -3.5222 3.67177 0
M  V30 5207 H 496.13 -5.52774 1.20241 0
M  V30 5208 H 494.687 -6.27629 1.75856 0
M  V30 5209 N 498.12 -1.38341 -0.754957 0
M  V30 5210 C 499.36 -1.35888 -1.52689 0
M  V30 5211 C 499.724 0.0513682 -1.91931 0
M  V30 5212 O 500.925 0.200761 -2.68049 0
M  V30 5213 C 499.196 -2.28666 -2.74676 0
M  V30 5214 S 500.755 -2.4422 -3.64558 0
M  V30 5215 H 497.573 -0.482165 -0.522531 0
M  V30 5216 H 500.175 -1.74253 -0.886358 0
M  V30 5217 H 498.879 -3.30023 -2.43953 0
M  V30 5218 H 498.41 -1.91445 -3.43675 0
M  V30 5219 H 500.425 -1.66525 -4.67423 0
M  V30 5220 N 499.598 0.982988 -1.23187 0
M  V30 5221 C 500.531 2.07302 -0.953993 0
M  V30 5222 C 501.509 1.62249 0.106753 0
M  V30 5223 O 502.693 1.88481 -0.0269525 0
M  V30 5224 C 499.82 3.35873 -0.436716 0
M  V30 5225 C 498.866 3.99862 -1.48367 0
M  V30 5226 S 499.699 4.39443 -3.06023 0
M  V30 5227 C 500.855 5.7117 -2.55959 0
M  V30 5228 H 501.088 2.30554 -1.87702 0
M  V30 5229 H 498.621 1.11883 -1.06403 0
M  V30 5230 H 500.579 4.10244 -0.144872 0
M  V30 5231 H 499.24 3.10634 0.465351 0
M  V30 5232 H 498.433 4.92471 -1.07182 0
M  V30 5233 H 498.035 3.31857 -1.72473 0
M  V30 5234 H 500.327 6.47977 -1.97818 0
M  V30 5235 H 501.27 6.17194 -3.47098 0
M  V30 5236 H 501.678 5.29046 -1.96902 0
M  V30 5237 N 501.076 1.04316 1.18135 0
M  V30 5238 C 502.039 0.640794 2.2006 0
M  V30 5239 C 503.039 -0.303124 1.57917 0
M  V30 5240 O 504.229 -0.0881855 1.73977 0
M  V30 5241 C 501.361 -0.060148 3.40847 0
M  V30 5242 H 502.554 1.54281 2.57172 0
M  V30 5243 H 500.107 0.836004 1.32063 0
M  V30 5244 H 500.842 -0.975845 3.0927 0
M  V30 5245 H 500.627 0.618319 3.87194 0
M  V30 5246 H 502.117 -0.328082 4.16309 0
M  V30 5247 N 502.554 -1.34406 0.822964 0
M  V30 5248 C 503.501 -2.29519 0.24284 0
M  V30 5249 C 504.471 -1.5359 -0.632397 0
M  V30 5250 O 505.656 -1.8196 -0.57403 0
M  V30 5251 C 502.796 -3.40032 -0.58925 0
M  V30 5252 C 501.909 -4.30899 0.308236 0
M  V30 5253 C 501.044 -5.28515 -0.533425 0
M  V30 5254 C 500.083 -6.1102 0.363444 0
M  V30 5255 N 499.22 -7.00725 -0.439147 0
M  V30 5256 H 504.06 -2.78537 1.05929 0
M  V30 5257 H 501.597 -1.3707 0.533872 0
M  V30 5258 H 503.555 -4.0279 -1.087 0
M  V30 5259 H 502.185 -2.92248 -1.37081 0
M  V30 5260 H 501.237 -3.69002 0.924203 0
M  V30 5261 H 502.549 -4.88717 0.997862 0
M  V30 5262 H 501.703 -5.96725 -1.09565 0
M  V30 5263 H 500.442 -4.71235 -1.25656 0
M  V30 5264 H 499.447 -5.41743 0.937812 0
M  V30 5265 H 500.672 -6.70381 1.08469 0
M  V30 5266 H 498.618 -6.45913 -1.14595 0
M  V30 5267 H 498.535 -7.55756 0.19209 0
M  V30 5268 H 499.803 -7.73263 -0.984124 0
M  V30 5269 N 504.032 -0.577932 -1.46621 0
M  V30 5270 C 505.443 -0.150071 -1.86096 0
M  V30 5271 C 505.794 1.28563 -1.48209 0
M  V30 5272 O 504.919 1.97036 -0.894754 0
M  V30 5273 C 505.514 -0.265576 -3.37758 0
M  V30 5274 C 504.073 0.10738 -3.76247 0
M  V30 5275 C 503.22 -0.603711 -2.70649 0
M  V30 5276 H 506.171 -0.786438 -1.37844 0
M  V30 5277 H 506.192 0.510352 -3.77062 0
M  V30 5278 H 505.704 -1.3106 -3.65301 0
M  V30 5279 H 503.805 1.15272 -3.54321 0
M  V30 5280 H 503.918 -0.26561 -4.78363 0
M  V30 5281 H 502.282 -0.0444884 -2.54661 0
M  V30 5282 H 503.065 -1.65029 -3.01032 0
M  V30 5283 N 505.51 1.54411 -0.315457 0
M  V30 5284 C 506.44 2.27002 0.547039 0
M  V30 5285 C 507.421 1.27492 1.12605 0
M  V30 5286 O 508.606 1.5629 1.15269 0
M  V30 5287 C 505.736 3.02171 1.71201 0
M  V30 5288 C 504.69 4.0895 1.26268 0
M  V30 5289 C 504.016 4.71915 2.51396 0
M  V30 5290 C 505.316 5.20891 0.383419 0
M  V30 5291 H 507.01 2.99343 -0.0584517 0
M  V30 5292 H 504.556 1.4397 -0.0295527 0
M  V30 5293 H 506.509 3.51681 2.32161 0
M  V30 5294 H 505.233 2.27433 2.34397 0
M  V30 5295 H 503.892 3.60312 0.676062 0
M  V30 5296 H 503.54 3.93801 3.12937 0
M  V30 5297 H 503.24 5.44039 2.22026 0
M  V30 5298 H 504.764 5.24195 3.13133 0
M  V30 5299 H 506.178 5.66206 0.899082 0
M  V30 5300 H 504.575 5.99821 0.182857 0
M  V30 5301 H 505.645 4.81324 -0.587821 0
M  V30 5302 N 506.988 0.0434614 1.5754 0
M  V30 5303 C 508.213 -0.645358 1.97104 0
M  V30 5304 C 508.638 -1.64037 0.920521 0
M  V30 5305 O 507.996 -1.80922 -0.11708 0
M  V30 5306 C 508.044 -1.31547 3.35749 0
M  V30 5307 O 507.148 -2.43103 3.33129 0
M  V30 5308 H 506.489 -0.168403 0.64229 0
M  V30 5309 H 509.019 0.109573 2.04306 0
M  V30 5310 H 509.029 -1.66895 3.72304 0
M  V30 5311 H 507.704 -0.586205 4.11748 0
M  V30 5312 H 506.281 -2.0976 3.0831 0
M  V30 5313 N 508.466 -1.55915 -0.229846 0
M  V30 5314 C 509.712 -1.78807 -0.956868 0
M  V30 5315 C 510.045 -0.611687 -1.84315 0
M  V30 5316 O 509.32 0.389398 -1.90562 0
M  V30 5317 C 509.603 -3.11718 -1.80288 0
M  V30 5318 C 509.456 -4.3979 -0.943649 0
M  V30 5319 C 510.775 -3.40999 -2.78222 0
M  V30 5320 H 507.894 -0.6505 -0.346437 0
M  V30 5321 H 510.536 -1.88648 -0.226252 0
M  V30 5322 H 508.686 -3.03459 -2.42579 0
M  V30 5323 H 510.358 -4.60059 -0.338121 0
M  V30 5324 H 508.601 -4.33086 -0.248705 0
M  V30 5325 H 509.272 -5.29208 -1.5698 0
M  V30 5326 H 511.748 -3.49332 -2.26067 0
M  V30 5327 H 510.624 -4.35183 -3.34526 0
M  V30 5328 H 510.885 -2.62754 -3.55546 0
M  V30 5329 N 509.944 0.496216 -1.49584 0
M  V30 5330 C 511.36 0.827814 -1.36453 0
M  V30 5331 C 511.56 1.97464 -0.401285 0
M  V30 5332 O 510.616 2.51958 0.165296 0
M  V30 5333 C 511.929 1.16352 -2.77277 0
M  V30 5334 C 513.477 1.27145 -2.86013 0
M  V30 5335 C 513.952 1.64042 -4.27615 0
M  V30 5336 N 515.443 1.71082 -4.30448 0
M  V30 5337 C 516.178 2.01085 -5.36984 0
M  V30 5338 N 515.674 2.2928 -6.5376 0
M  V30 5339 N 517.467 2.02376 -5.24405 0
M  V30 5340 H 509.618 -0.259947 -2.10803 0
M  V30 5341 H 511.881 -0.0537163 -0.946477 0
M  V30 5342 H 511.587 0.394153 -3.49484 0
M  V30 5343 H 511.461 2.10582 -3.12946 0
M  V30 5344 H 513.848 2.03152 -2.1404 0
M  V30 5345 H 513.929 0.309542 -2.5392 0
M  V30 5346 H 513.573 0.88583 -5.00115 0
M  V30 5347 H 513.503 2.6134 -4.57175 0
M  V30 5348 H 515.994 1.51434 -3.46232 0
M  V30 5349 H 516.307 2.51376 -7.30774 0
M  V30 5350 H 514.652 2.26726 -6.56978 0
M  V30 5351 H 517.843 1.79829 -4.32179 0
M  V30 5352 H 518.016 2.25425 -6.07526 0
M  V30 5353 N 511.423 1.38739 0.74761 0
M  V30 5354 C 512.651 1.38521 1.53686 0
M  V30 5355 C 513.066 -0.0235129 1.88785 0
M  V30 5356 O 512.423 -0.991662 1.53207 0
M  V30 5357 C 512.474 2.24641 2.83229 0
M  V30 5358 O 512.195 3.60026 2.49625 0
M  V30 5359 C 513.696 2.32669 3.77333 0
M  V30 5360 H 510.916 0.473589 0.475347 0
M  V30 5361 H 513.46 1.82395 0.924786 0
M  V30 5362 H 511.615 1.84213 3.40799 0
M  V30 5363 H 512.029 4.05435 3.3275 0
M  V30 5364 H 513.503 2.97201 4.65162 0
M  V30 5365 H 513.98 1.3421 4.18192 0
M  V30 5366 H 514.586 2.73512 3.25685 0
M  V30 5367 N 512.901 -0.976442 1.23707 0
M  V30 5368 C 513.831 -2.08749 1.04624 0
M  V30 5369 C 514.812 -1.70057 -0.0380956 0
M  V30 5370 O 515.997 -1.93782 0.127308 0
M  V30 5371 C 513.127 -3.41335 0.640902 0
M  V30 5372 C 512.081 -3.93947 1.67302 0
M  V30 5373 C 511.407 -5.22774 1.12301 0
M  V30 5374 C 512.707 -4.22769 3.06697 0
M  V30 5375 H 514.401 -2.24972 1.97555 0
M  V30 5376 H 511.947 -1.08108 0.951247 0
M  V30 5377 H 513.9 -4.18489 0.494434 0
M  V30 5378 H 512.624 -3.24988 -0.324099 0
M  V30 5379 H 511.283 -3.18941 1.80755 0
M  V30 5380 H 510.931 -5.0278 0.148877 0
M  V30 5381 H 510.631 -5.58942 1.81267 0
M  V30 5382 H 512.155 -6.02546 0.988479 0
M  V30 5383 H 513.569 -4.90659 2.96524 0
M  V30 5384 H 511.966 -4.70147 3.72937 0
M  V30 5385 H 513.036 -3.29885 3.55392 0
M  V30 5386 N 514.379 -1.04941 -1.1758 0
M  V30 5387 C 515.309 -0.669172 -2.23706 0
M  V30 5388 C 516.29 0.331835 -1.66832 0
M  V30 5389 O 517.475 0.209988 -1.93061 0
M  V30 5390 C 514.605 -0.0404889 -3.47276 0
M  V30 5391 C 513.559 -0.965983 -4.16957 0
M  V30 5392 C 512.885 -0.201312 -5.34321 0
M  V30 5393 C 514.185 -2.28902 -4.69469 0
M  V30 5394 H 515.879 -1.55639 -2.55767 0
M  V30 5395 H 513.425 -0.749793 -1.22939 0
M  V30 5396 H 515.378 0.237298 -4.20731 0
M  V30 5397 H 514.102 0.881658 -3.14475 0
M  V30 5398 H 512.761 -1.22829 -3.45411 0
M  V30 5399 H 512.409 0.723519 -4.97769 0
M  V30 5400 H 512.109 -0.817968 -5.81879 0
M  V30 5401 H 513.633 0.0692499 -6.10561 0
M  V30 5402 H 515.047 -2.07132 -5.34574 0
M  V30 5403 H 513.444 -2.85942 -5.27596 0
M  V30 5404 H 514.514 -2.92937 -3.86414 0
M  V30 5405 N 515.857 1.33968 -0.830081 0
M  V30 5406 C 517.104 1.98063 -0.421566 0
M  V30 5407 C 517.432 1.65787 1.0171 0
M  V30 5408 O 516.687 0.925348 1.72441 0
M  V30 5409 C 516.986 3.52679 -0.57898 0
M  V30 5410 C 516.652 4.04884 -1.98443 0
M  V30 5411 C 515.314 4.18852 -2.36888 0
M  V30 5412 C 517.666 4.32879 -2.90285 0
M  V30 5413 C 514.994 4.58145 -3.66497 0
M  V30 5414 C 517.346 4.7362 -4.19364 0
M  V30 5415 C 516.01 4.85794 -4.57778 0
M  V30 5416 H 515.28 0.724765 -0.154262 0
M  V30 5417 H 517.927 1.59792 -1.05541 0
M  V30 5418 H 516.232 3.91556 0.138219 0
M  V30 5419 H 517.929 4.00261 -0.243317 0
M  V30 5420 H 514.519 3.9448 -1.67581 0
M  V30 5421 H 518.703 4.21619 -2.61823 0
M  V30 5422 H 513.959 4.65762 -3.96075 0
M  V30 5423 H 518.133 4.9424 -4.90612 0
M  V30 5424 H 515.76 5.15998 -5.58256 0
M  V30 5425 N 517.335 0.585699 1.46312 0
M  V30 5426 C 518.245 -0.148236 2.34131 0
M  V30 5427 C 519.261 -0.882972 1.49932 0
M  V30 5428 O 520.437 -0.845484 1.82794 0
M  V30 5429 C 517.502 -1.14714 3.27172 0
M  V30 5430 C 516.563 -0.416746 4.27272 0
M  V30 5431 C 515.796 -1.36806 5.15868 0
M  V30 5432 O 516.019 -2.60475 5.07454 0
M  V30 5433 O 514.953 -0.877018 5.95476 0
M  V30 5434 H 518.779 0.572882 2.98248 0
M  V30 5435 H 516.364 0.346082 1.45336 0
M  V30 5436 H 518.246 -1.72303 3.84564 0
M  V30 5437 H 516.921 -1.84967 2.65648 0
M  V30 5438 H 515.828 0.201061 3.73559 0
M  V30 5439 H 517.161 0.244872 4.9159 0
M  V30 5440 N 518.813 -1.54241 0.323641 0
M  V30 5441 C 519.763 -2.21071 -0.557833 0
M  V30 5442 C 520.747 -1.19126 -1.08157 0
M  V30 5443 O 521.939 -1.44755 -1.01857 0
M  V30 5444 C 519.068 -2.97208 -1.71821 0
M  V30 5445 C 518.154 -4.06491 -1.20936 0
M  V30 5446 N 518.545 -5.04052 -0.420202 0
M  V30 5447 C 516.843 -4.20443 -1.48808 0
M  V30 5448 C 517.544 -5.81516 -0.146413 0
M  V30 5449 N 516.52 -5.38641 -0.732562 0
M  V30 5450 H 520.322 -2.93853 0.0523921 0
M  V30 5451 H 517.836 -1.61883 0.129502 0
M  V30 5452 H 519.833 -3.4357 -2.36146 0
M  V30 5453 H 518.493 -2.25947 -2.33191 0
M  V30 5454 H 519.504 -5.17862 -0.0630401 0
M  V30 5455 H 516.181 -3.60396 -2.10762 0
M  V30 5456 H 517.571 -6.70119 0.488895 0
M  V30 5457 N 520.291 -0.0518155 -1.57515 0
M  V30 5458 C 521.531 0.625712 -1.94587 0
M  V30 5459 C 521.895 1.6797 -0.930053 0
M  V30 5460 O 523.096 2.41135 -1.18774 0
M  V30 5461 C 521.367 1.20574 -3.36447 0
M  V30 5462 S 522.926 1.90118 -3.95475 0
M  V30 5463 H 519.744 0.205434 -0.680675 0
M  V30 5464 H 522.346 -0.120906 -1.95126 0
M  V30 5465 H 521.05 0.426521 -4.08178 0
M  V30 5466 H 520.581 1.98916 -3.39405 0
M  V30 5467 H 522.596 3.18184 -3.80753 0
M  V30 5468 N 521.769 1.56035 0.221574 0
M  V30 5469 C 523.009 1.80822 0.953038 0
M  V30 5470 C 523.373 0.625316 1.81532 0
M  V30 5471 O 524.574 0.752491 2.58052 0
M  V30 5472 C 522.845 3.10503 1.76983 0
M  V30 5473 S 524.404 3.56604 2.55693 0
M  V30 5474 H 521.222 0.634849 0.320137 0
M  V30 5475 H 523.824 1.94274 0.218619 0
M  V30 5476 H 522.528 3.94636 1.12651 0
M  V30 5477 H 522.059 2.99858 2.54655 0
M  V30 5478 H 524.074 3.1994 3.79279 0
M  V30 5479 N 523.247 -0.488276 1.49845 0
M  V30 5480 C 524.493 -1.24065 1.61182 0
M  V30 5481 C 524.848 -1.9004 0.300435 0
M  V30 5482 O 524.141 -1.78341 -0.700365 0
M  V30 5483 C 524.335 -2.32152 2.71735 0
M  V30 5484 C 524.164 -1.76778 4.13497 0
M  V30 5485 C 522.934 -1.57513 4.80123 0
M  V30 5486 C 525.132 -1.27242 4.98311 0
M  V30 5487 N 523.114 -0.972015 6.06156 0
M  V30 5488 C 524.485 -0.791457 6.14928 0
M  V30 5489 C 526.54 -1.15934 4.84214 0
M  V30 5490 C 525.243 -0.208593 7.18997 0
M  V30 5491 C 527.269 -0.590436 5.88445 0
M  V30 5492 C 526.631 -0.119767 7.04298 0
M  V30 5493 H 522.73 -0.443487 0.644083 0
M  V30 5494 H 525.314 -0.545551 1.86901 0
M  V30 5495 H 523.485 -2.99108 2.47768 0
M  V30 5496 H 525.217 -2.99187 2.72523 0
M  V30 5497 H 521.972 -1.82247 4.37131 0
M  V30 5498 H 522.396 -0.689367 6.73481 0
M  V30 5499 H 527.038 -1.5092 3.94947 0
M  V30 5500 H 524.756 0.153501 8.07954 0
M  V30 5501 H 528.342 -0.505548 5.79599 0
M  V30 5502 H 527.222 0.313568 7.83573 0
M  V30 5503 N 524.725 -1.39134 -0.740242 0
M  V30 5504 C 526.136 -1.32208 -1.31825 0
M  V30 5505 C 526.487 0.0159919 -1.96193 0
M  V30 5506 O 525.612 0.918111 -1.95958 0
M  V30 5507 C 526.207 -2.39436 -2.39699 0
M  V30 5508 C 524.766 -2.36048 -2.93187 0
M  V30 5509 C 523.913 -2.21599 -1.66701 0
M  V30 5510 H 526.864 -1.49298 -0.538133 0
M  V30 5511 H 526.885 -2.05922 -3.19963 0
M  V30 5512 H 526.397 -3.36811 -1.92821 0
M  V30 5513 H 524.498 -1.42295 -3.44359 0
M  V30 5514 H 524.611 -3.30704 -3.46658 0
M  V30 5515 H 522.975 -1.68681 -1.90837 0
M  V30 5516 H 523.758 -3.20936 -1.21882 0
M  V30 5517 N 526.204 0.969867 -1.24223 0
M  V30 5518 C 527.481 1.68774 -0.988664 0
M  V30 5519 C 527.861 2.05342 0.489673 0
M  V30 5520 O 527.209 1.75486 1.46345 0
M  V30 5521 C 527.419 2.92135 -1.90941 0
M  V30 5522 C 528.767 3.64422 -2.17903 0
M  V30 5523 O 529.791 3.02188 -1.88576 0
M  V30 5524 O 528.65 4.76446 -2.67697 0
M  V30 5525 H 525.744 0.737736 -0.37373 0
M  V30 5526 H 528.29 1.02415 -1.35312 0
M  V30 5527 H 527.062 2.61788 -2.90831 0
M  V30 5528 H 526.685 3.66228 -1.54798 0
M  V30 5529 N 527.682 1.05563 1.17022 0
M  V30 5530 C 528.928 0.769074 1.87652 0
M  V30 5531 C 529.261 -0.702326 1.81055 0
M  V30 5532 O 528.536 -1.5139 1.22112 0
M  V30 5533 C 528.819 1.25492 3.37526 0
M  V30 5534 C 528.672 2.78953 3.52853 0
M  V30 5535 C 529.991 0.856919 4.31677 0
M  V30 5536 H 527.11 0.280854 0.681388 0
M  V30 5537 H 529.752 1.31027 1.37593 0
M  V30 5538 H 527.902 0.794516 3.80289 0
M  V30 5539 H 529.574 3.33146 3.19079 0
M  V30 5540 H 527.817 3.18046 2.95007 0
M  V30 5541 H 528.488 3.08011 4.58076 0
M  V30 5542 H 530.964 1.25334 3.96775 0
M  V30 5543 H 529.84 1.22443 5.35069 0
M  V30 5544 H 530.101 -0.238787 4.41455 0
M  V30 5545 N 529.16 -1.33526 0.837174 0
M  V30 5546 C 530.408 -1.97446 0.431211 0
M  V30 5547 C 530.729 -1.6665 -1.01255 0
M  V30 5548 O 529.999 -0.964559 -1.70508 0
M  V30 5549 H 528.579 -0.73043 0.156463 0
M  V30 5550 H 531.241 -1.62918 1.06976 0
M  V30 5551 H 530.337 -3.07001 0.561877 0
M  V30 5552 N 530.638 -0.59345 -1.46 0
M  V30 5553 C 531.57 0.171569 -2.28557 0
M  V30 5554 C 532.583 0.845273 -1.39137 0
M  V30 5555 O 533.772 0.713033 -1.6364 0
M  V30 5556 C 530.872 1.26311 -3.14482 0
M  V30 5557 C 530.045 0.679258 -4.32094 0
M  V30 5558 C 529.104 1.65987 -4.99334 0
M  V30 5559 O 528.13 1.19171 -5.56585 0
M  V30 5560 N 529.332 2.99414 -4.97324 0
M  V30 5561 H 532.097 -0.536771 -2.94854 0
M  V30 5562 H 529.658 -0.431954 -1.56031 0
M  V30 5563 H 531.65 1.91863 -3.5633 0
M  V30 5564 H 530.22 1.87416 -2.50188 0
M  V30 5565 H 529.44 -0.153992 -3.93899 0
M  V30 5566 H 530.728 0.26916 -5.08088 0
M  V30 5567 H 530.126 3.40064 -4.52076 0
M  V30 5568 H 528.683 3.60426 -5.4308 0
M  V30 5569 N 532.116 1.54067 -0.331816 0
M  V30 5570 C 533.026 2.28322 0.539104 0
M  V30 5571 C 534.042 1.32985 1.1221 0
M  V30 5572 O 535.218 1.6601 1.1403 0
M  V30 5573 C 532.283 3.03277 1.68 0
M  V30 5574 C 531.344 4.14216 1.12798 0
M  V30 5575 C 530.577 4.85588 2.2145 0
M  V30 5576 O 530.8 4.56536 3.41952 0
M  V30 5577 O 529.734 5.72309 1.86404 0
M  V30 5578 H 533.56 3.03632 -0.0641692 0
M  V30 5579 H 531.145 1.49083 -0.0972365 0
M  V30 5580 H 533.027 3.50189 2.34405 0
M  V30 5581 H 531.702 2.30834 2.2693 0
M  V30 5582 H 530.609 3.71635 0.428782 0
M  V30 5583 H 531.942 4.88727 0.583698 0
M  V30 5584 N 533.594 0.0601682 1.57485 0
M  V30 5585 C 534.871 -0.651956 1.84415 0
M  V30 5586 C 535.251 -1.88498 0.950361 0
M  V30 5587 O 534.599 -2.28496 0.0136719 0
M  V30 5588 C 534.809 -1.00069 3.34346 0
M  V30 5589 C 536.157 -1.37915 4.01578 0
M  V30 5590 O 537.181 -1.09277 3.39024 0
M  V30 5591 O 536.04 -1.91399 5.11887 0
M  V30 5592 H 533.134 -0.322668 0.761455 0
M  V30 5593 H 535.68 0.0902159 1.6946 0
M  V30 5594 H 534.452 -0.124463 3.91102 0
M  V30 5595 H 534.075 -1.80001 3.54521 0
M  V30 5596 N 535.072 -1.5615 -0.213296 0
M  V30 5597 C 536.321 -1.78743 -0.93455 0
M  V30 5598 C 536.634 -0.630199 -1.8517 0
M  V30 5599 O 537.84 -0.739966 -2.61222 0
M  V30 5600 C 536.296 -3.16571 -1.71203 0
M  V30 5601 C 535.904 -4.40043 -0.840617 0
M  V30 5602 C 537.648 -3.48485 -2.42401 0
M  V30 5603 C 535.555 -5.68895 -1.61592 0
M  V30 5604 H 534.485 -0.666426 -0.352692 0
M  V30 5605 H 537.136 -1.82532 -0.188227 0
M  V30 5606 H 535.518 -3.06981 -2.50157 0
M  V30 5607 H 536.692 -4.6071 -0.0910326 0
M  V30 5608 H 535.007 -4.15706 -0.240365 0
M  V30 5609 H 537.604 -4.41983 -3.00924 0
M  V30 5610 H 537.947 -2.71371 -3.15695 0
M  V30 5611 H 538.48 -3.59442 -1.7043 0
M  V30 5612 H 535.219 -6.48925 -0.926106 0
M  V30 5613 H 534.739 -5.52275 -2.33991 0
M  V30 5614 H 536.418 -6.09365 -2.17447 0
M  V30 5615 N 536.55 0.480323 -1.50102 0
M  V30 5616 C 537.797 1.23307 -1.60629 0
M  V30 5617 C 538.125 1.92135 -0.302375 0
M  V30 5618 O 537.38 1.82321 0.711154 0
M  V30 5619 C 537.679 2.30708 -2.72963 0
M  V30 5620 C 537.345 1.79195 -4.13763 0
M  V30 5621 C 536.007 1.64867 -4.52076 0
M  V30 5622 C 538.359 1.40878 -5.018 0
M  V30 5623 C 535.687 1.10631 -5.76175 0
M  V30 5624 C 538.039 0.880872 -6.26437 0
M  V30 5625 C 536.703 0.724146 -6.6356 0
M  V30 5626 H 535.973 0.451211 -0.587784 0
M  V30 5627 H 538.62 0.53051 -1.84005 0
M  V30 5628 H 536.925 3.06834 -2.43639 0
M  V30 5629 H 538.622 2.88692 -2.78313 0
M  V30 5630 H 535.212 1.91313 -3.83533 0
M  V30 5631 H 539.396 1.50786 -4.7284 0
M  V30 5632 H 534.652 0.972263 -6.0362 0
M  V30 5633 H 538.826 0.575269 -6.9402 0
M  V30 5634 H 536.453 0.301722 -7.59601 0
M  V30 5635 N 538.028 1.39524 0.732853 0
M  V30 5636 C 538.96 1.34318 1.85718 0
M  V30 5637 C 539.973 0.251576 1.60844 0
M  V30 5638 O 541.162 0.510685 1.71039 0
M  V30 5639 C 538.262 1.06334 3.21786 0
M  V30 5640 C 537.435 2.26813 3.73998 0
M  V30 5641 C 536.494 1.95253 4.88634 0
M  V30 5642 O 535.52 2.67957 5.02183 0
M  V30 5643 N 536.722 0.919984 5.73164 0
M  V30 5644 H 539.487 2.3121 1.90688 0
M  V30 5645 H 537.048 1.33654 0.91368 0
M  V30 5646 H 539.04 0.832363 3.96048 0
M  V30 5647 H 537.61 0.181682 3.12072 0
M  V30 5648 H 536.83 2.65849 2.91064 0
M  V30 5649 H 538.118 3.0717 4.05616 0
M  V30 5650 H 537.516 0.317487 5.64808 0
M  V30 5651 H 536.073 0.748905 6.47483 0
M  V30 5652 N 539.506 -0.963266 1.24736 0
M  V30 5653 C 540.436 -2.07628 1.06832 0
M  V30 5654 C 541.417 -1.70088 -0.0200566 0
M  V30 5655 O 542.602 -1.93636 0.147854 0
M  V30 5656 C 539.732 -3.40636 0.677069 0
M  V30 5657 C 538.686 -3.9215 1.71471 0
M  V30 5658 C 538.012 -5.21553 1.1784 0
M  V30 5659 C 539.312 -4.19493 3.11164 0
M  V30 5660 H 541.006 -2.22864 1.9993 0
M  V30 5661 H 538.552 -1.07093 0.96266 0
M  V30 5662 H 540.505 -4.17941 0.538792 0
M  V30 5663 H 539.229 -3.25313 -0.289612 0
M  V30 5664 H 537.888 -3.17005 1.84128 0
M  V30 5665 H 537.536 -5.02593 0.202195 0
M  V30 5666 H 537.236 -5.56988 1.87185 0
M  V30 5667 H 538.76 -6.01463 1.05233 0
M  V30 5668 H 540.174 -4.87487 3.01711 0
M  V30 5669 H 538.571 -4.66165 3.77902 0
M  V30 5670 H 539.641 -3.26097 3.58871 0
M  V30 5671 N 540.985 -1.06182 -1.16461 0
M  V30 5672 C 541.915 -0.692861 -2.22984 0
M  V30 5673 C 542.896 0.314122 -1.67174 0
M  V30 5674 O 544.081 0.189499 -1.93273 0
M  V30 5675 C 541.211 -0.07732 -3.47214 0
M  V30 5676 C 540.165 -1.01015 -4.15909 0
M  V30 5677 C 539.491 -0.257973 -5.34077 0
M  V30 5678 C 540.791 -2.33868 -4.67015 0
M  V30 5679 H 542.485 -1.58343 -2.54102 0
M  V30 5680 H 540.031 -0.76279 -1.22137 0
M  V30 5681 H 541.984 0.19266 -4.20959 0
M  V30 5682 H 540.708 0.848254 -3.15392 0
M  V30 5683 H 539.367 -1.26486 -3.44088 0
M  V30 5684 H 539.015 0.670684 -4.98509 0
M  V30 5685 H 538.715 -0.879638 -5.80979 0
M  V30 5686 H 540.239 0.00448788 -6.106 0
M  V30 5687 H 541.653 -2.1279 -5.32347 0
M  V30 5688 H 540.05 -2.91522 -5.24533 0
M  V30 5689 H 541.12 -2.97019 -3.83286 0
M  V30 5690 N 542.463 1.3308 -0.844243 0
M  V30 5691 C 543.393 2.3161 -0.296493 0
M  V30 5692 C 544.374 1.59215 0.598707 0
M  V30 5693 O 545.559 1.87077 0.521134 0
M  V30 5694 C 542.689 3.43313 0.524762 0
M  V30 5695 C 541.643 4.27115 -0.275106 0
M  V30 5696 C 540.969 5.30483 0.670236 0
M  V30 5697 C 542.269 5.00443 -1.49514 0
M  V30 5698 H 543.963 2.77672 -1.11976 0
M  V30 5699 H 541.509 1.33496 -0.539899 0
M  V30 5700 H 543.462 4.11273 0.918298 0
M  V30 5701 H 542.186 2.95952 1.3813 0
M  V30 5702 H 540.845 3.60787 -0.650267 0
M  V30 5703 H 540.493 4.79379 1.52332 0
M  V30 5704 H 540.193 5.87435 0.139123 0
M  V30 5705 H 541.717 6.01308 1.06117 0
M  V30 5706 H 543.131 5.61141 -1.17447 0
M  V30 5707 H 541.528 5.67071 -1.96343 0
M  V30 5708 H 542.598 4.28906 -2.26202 0
M  V30 5709 N 543.941 0.601185 1.45683 0
M  V30 5710 C 545.218 0.0261659 1.95582 0
M  V30 5711 C 545.598 -1.4399 1.5437 0
M  V30 5712 O 544.946 -2.13919 0.80318 0
M  V30 5713 C 545.156 0.217557 3.48321 0
M  V30 5714 C 546.504 0.0950076 4.24494 0
M  V30 5715 O 547.528 0.147345 3.55895 0
M  V30 5716 O 546.387 -0.025261 5.46494 0
M  V30 5717 H 543.481 -0.0393688 0.826062 0
M  V30 5718 H 546.027 0.670798 1.55879 0
M  V30 5719 H 544.799 1.23601 3.71266 0
M  V30 5720 H 544.422 -0.46264 3.94899 0
M  V30 5721 N 545.419 -1.53889 0.339982 0
M  V30 5722 C 546.369 -2.2165 -0.534354 0
M  V30 5723 C 547.353 -1.20266 -1.06887 0
M  V30 5724 O 548.545 -1.45827 -1.00316 0
M  V30 5725 C 545.674 -2.99014 -1.68659 0
M  V30 5726 C 544.76 -4.07751 -1.16618 0
M  V30 5727 N 545.151 -5.04469 -0.366717 0
M  V30 5728 C 543.449 -4.21998 -1.4434 0
M  V30 5729 C 544.15 -5.81638 -0.0847275 0
M  V30 5730 N 543.126 -5.39388 -0.675391 0
M  V30 5731 H 546.928 -2.93781 0.0835562 0
M  V30 5732 H 544.442 -1.61736 0.146665 0
M  V30 5733 H 546.439 -3.46056 -2.32489 0
M  V30 5734 H 545.099 -2.28408 -2.30781 0
M  V30 5735 H 546.11 -5.17899 -0.00811038 0
M  V30 5736 H 542.787 -3.62612 -2.06928 0
M  V30 5737 H 544.177 -6.69563 0.559943 0
M  V30 5738 N 546.897 -0.0685191 -1.57451 0
M  V30 5739 C 548.308 0.464634 -1.80826 0
M  V30 5740 C 548.659 1.69847 -0.982169 0
M  V30 5741 O 547.784 2.15439 -0.203734 0
M  V30 5742 C 548.379 0.849721 -3.27971 0
M  V30 5743 C 546.938 1.32776 -3.52204 0
M  V30 5744 C 546.085 0.311332 -2.75547 0
M  V30 5745 H 549.036 -0.294248 -1.55948 0
M  V30 5746 H 549.057 1.71138 -3.39841 0
M  V30 5747 H 548.569 -0.0484736 -3.8807 0
M  V30 5748 H 546.67 2.24456 -2.97406 0
M  V30 5749 H 546.783 1.30794 -4.60901 0
M  V30 5750 H 545.147 0.787915 -2.42206 0
M  V30 5751 H 545.93 -0.579078 -3.38381 0
M  V30 5752 N 548.375 1.56261 0.205012 0
M  V30 5753 C 549.652 1.70856 0.952233 0
M  V30 5754 C 550.032 0.620501 2.01775 0
M  V30 5755 O 549.38 -0.370035 2.25484 0
M  V30 5756 C 549.59 3.12807 1.54767 0
M  V30 5757 C 550.938 3.72733 2.0336 0
M  V30 5758 O 551.962 3.15873 1.64629 0
M  V30 5759 O 550.821 4.72501 2.746 0
M  V30 5760 H 547.915 0.696496 0.445895 0
M  V30 5761 H 550.461 1.6857 0.195489 0
M  V30 5762 H 549.233 3.83465 0.779132 0
M  V30 5763 H 548.856 3.1928 2.36951 0
M  V30 5764 N 549.853 -0.472356 1.50355 0
M  V30 5765 C 551.269 -0.806001 1.37753 0
M  V30 5766 C 551.469 -1.968 0.432649 0
M  V30 5767 O 550.525 -2.52189 -0.12519 0
M  V30 5768 C 551.838 -1.11926 2.79093 0
M  V30 5769 C 553.386 -1.22579 2.87999 0
M  V30 5770 C 553.861 -1.57218 4.3017 0
M  V30 5771 N 555.352 -1.64212 4.33115 0
M  V30 5772 C 556.087 -1.92517 5.40116 0
M  V30 5773 N 555.583 -2.1885 6.57325 0
M  V30 5774 N 557.376 -1.94008 5.27558 0
M  V30 5775 H 549.527 0.293451 2.10363 0
M  V30 5776 H 551.79 0.0687672 0.945503 0
M  V30 5777 H 551.496 -0.338504 3.50067 0
M  V30 5778 H 551.37 -2.05577 3.16256 0
M  V30 5779 H 553.757 -1.99722 2.17245 0
M  V30 5780 H 553.838 -0.269107 2.54381 0
M  V30 5781 H 553.482 -0.806154 5.01461 0
M  V30 5782 H 553.412 -2.54034 4.61275 0
M  V30 5783 H 555.903 -1.45906 3.48597 0
M  V30 5784 H 556.216 -2.39718 7.3468 0
M  V30 5785 H 554.561 -2.16245 6.60502 0
M  V30 5786 H 557.752 -1.72931 4.34986 0
M  V30 5787 H 557.925 -2.15731 6.11035 0
M  V30 5788 N 551.331 -1.39911 -0.725443 0
M  V30 5789 C 552.577 -1.37858 -1.48738 0
M  V30 5790 C 552.91 0.0224187 -1.94187 0
M  V30 5791 O 552.185 0.989204 -1.67466 0
M  V30 5792 C 552.468 -2.3594 -2.72038 0
M  V30 5793 C 552.321 -3.85023 -2.32546 0
M  V30 5794 C 553.64 -2.31704 -3.74167 0
M  V30 5795 H 550.759 -0.502074 -0.539528 0
M  V30 5796 H 553.401 -1.70974 -0.828728 0
M  V30 5797 H 551.551 -2.0783 -3.28236 0
M  V30 5798 H 553.223 -4.2392 -1.81905 0
M  V30 5799 H 551.466 -4.01334 -1.64661 0
M  V30 5800 H 552.137 -4.49152 -3.20884 0
M  V30 5801 H 554.613 -2.5658 -3.27576 0
M  V30 5802 H 553.489 -3.02395 -4.58092 0
M  V30 5803 H 553.75 -1.3253 -4.21768 0
M  V30 5804 N 552.809 0.956637 -1.25245 0
M  V30 5805 C 553.739 2.07058 -1.07931 0
M  V30 5806 C 554.72 1.70096 0.0110361 0
M  V30 5807 O 555.905 1.93555 -0.158121 0
M  V30 5808 C 553.035 3.40272 -0.695124 0
M  V30 5809 C 551.989 3.91235 -1.73549 0
M  V30 5810 C 551.315 5.20921 -1.20604 0
M  V30 5811 C 552.615 4.17837 -3.13385 0
M  V30 5812 H 554.309 2.218 -2.01109 0
M  V30 5813 H 551.855 1.06581 -0.968326 0
M  V30 5814 H 553.808 4.1765 -0.560949 0
M  V30 5815 H 552.532 3.25462 0.272355 0
M  V30 5816 H 551.191 3.16025 -1.85807 0
M  V30 5817 H 550.839 5.02479 -0.228846 0
M  V30 5818 H 550.539 5.55987 -1.90136 0
M  V30 5819 H 552.063 6.00897 -1.08421 0
M  V30 5820 H 553.477 4.8588 -3.04292 0
M  V30 5821 H 551.874 4.64154 -3.80369 0
M  V30 5822 H 552.944 3.2419 -3.60595 0
M  V30 5823 N 554.287 1.06798 1.15896 0
M  V30 5824 C 555.217 0.704677 2.22613 0
M  V30 5825 C 556.198 -0.305252 1.67339 0
M  V30 5826 O 557.383 -0.179247 1.93371 0
M  V30 5827 C 554.513 0.0957325 3.47168 0
M  V30 5828 C 553.467 1.0322 4.15367 0
M  V30 5829 C 552.793 0.286293 5.33933 0
M  V30 5830 C 554.093 2.36341 4.65768 0
M  V30 5831 H 555.787 1.59688 2.53259 0
M  V30 5832 H 553.333 0.769257 1.21731 0
M  V30 5833 H 555.286 -0.170333 4.21056 0
M  V30 5834 H 554.01 -0.831516 3.15838 0
M  V30 5835 H 552.669 1.28309 3.43413 0
M  V30 5836 H 552.317 -0.644237 4.98857 0
M  V30 5837 H 552.017 0.910436 5.80504 0
M  V30 5838 H 553.541 0.0278938 6.10594 0
M  V30 5839 H 554.955 2.1561 5.31211 0
M  V30 5840 H 553.352 2.94299 5.2298 0
M  V30 5841 H 554.422 2.99047 3.81705 0
M  V30 5842 N 555.766 -1.3263 0.851289 0
M  V30 5843 C 556.994 -2.01563 0.466899 0
M  V30 5844 C 557.409 -1.63996 -0.935447 0
M  V30 5845 O 556.766 -0.85957 -1.6099 0
M  V30 5846 C 556.817 -3.56613 0.592433 0
M  V30 5847 O 556.538 -3.92828 1.93954 0
M  V30 5848 C 558.039 -4.42818 0.206612 0
M  V30 5849 H 555.259 -0.645307 0.183902 0
M  V30 5850 H 557.803 -1.69285 1.1473 0
M  V30 5851 H 555.958 -3.87379 -0.0401936 0
M  V30 5852 H 556.372 -4.87545 1.9339 0
M  V30 5853 H 557.846 -5.50918 0.345462 0
M  V30 5854 H 558.323 -4.30844 -0.85264 0
M  V30 5855 H 558.929 -4.17434 0.814176 0
M  V30 5856 N 557.244 -0.608902 -1.45362 0
M  V30 5857 C 558.491 -0.104607 -2.0223 0
M  V30 5858 C 558.819 1.26534 -1.47714 0
M  V30 5859 O 558.074 1.84855 -0.642435 0
M  V30 5860 C 558.373 -0.0167296 -3.57396 0
M  V30 5861 C 558.039 -1.32251 -4.31069 0
M  V30 5862 C 556.701 -1.68019 -4.50914 0
M  V30 5863 C 559.053 -2.18542 -4.73169 0
M  V30 5864 C 556.381 -2.89828 -5.10114 0
M  V30 5865 C 558.733 -3.39602 -5.33717 0
M  V30 5866 C 557.397 -3.7562 -5.51784 0
M  V30 5867 H 556.667 -0.0382785 -0.740011 0
M  V30 5868 H 559.314 -0.790782 -1.7441 0
M  V30 5869 H 557.619 0.752715 -3.84502 0
M  V30 5870 H 559.316 0.389634 -3.99103 0
M  V30 5871 H 555.906 -1.03411 -4.15938 0
M  V30 5872 H 560.09 -1.92208 -4.5757 0
M  V30 5873 H 555.346 -3.17839 -5.22291 0
M  V30 5874 H 559.52 -4.06716 -5.65292 0
M  V30 5875 H 557.147 -4.70093 -5.97425 0
M  V30 5876 N 558.722 1.53707 -0.348139 0
M  V30 5877 C 559.999 1.93247 0.302475 0
M  V30 5878 C 560.379 1.28012 1.67857 0
M  V30 5879 O 559.727 0.43274 2.24365 0
M  V30 5880 C 559.937 3.47031 0.370159 0
M  V30 5881 C 561.285 4.20066 0.61882 0
M  V30 5882 O 562.309 3.53319 0.452087 0
M  V30 5883 O 561.168 5.38318 0.94215 0
M  V30 5884 H 558.262 0.807736 0.177458 0
M  V30 5885 H 560.808 1.64927 -0.399651 0
M  V30 5886 H 559.58 3.86745 -0.59534 0
M  V30 5887 H 559.203 3.81532 1.11888 0
M  V30 5888 N 560.2 0.0768682 1.57412 0
M  V30 5889 C 561.448 -0.589918 1.93299 0
M  V30 5890 C 561.769 -1.69842 0.958049 0
M  V30 5891 O 561.039 -1.95899 0.00703261 0
M  V30 5892 H 559.619 -0.220901 0.713591 0
M  V30 5893 H 562.281 0.135917 1.94425 0
M  V30 5894 H 561.377 -1.01195 2.95239 0
M  V30 5895 N 561.678 -1.56367 -0.196722 0
M  V30 5896 C 562.925 -1.80529 -0.917366 0
M  V30 5897 C 563.253 -0.649817 -1.83324 0
M  V30 5898 O 562.508 0.36451 -1.92275 0
M  V30 5899 C 562.807 -3.10663 -1.767 0
M  V30 5900 C 562.473 -4.3962 -1.00225 0
M  V30 5901 C 561.135 -4.74653 -0.791095 0
M  V30 5902 C 563.487 -5.1913 -0.464035 0
M  V30 5903 C 560.815 -5.86692 -0.0302155 0
M  V30 5904 C 563.167 -6.31964 0.283625 0
M  V30 5905 C 561.831 -6.65581 0.505813 0
M  V30 5906 H 561.101 -0.660602 -0.335688 0
M  V30 5907 H 563.748 -1.90615 -0.183844 0
M  V30 5908 H 562.053 -2.95807 -2.56915 0
M  V30 5909 H 563.75 -3.26563 -2.32718 0
M  V30 5910 H 560.34 -4.12127 -1.17684 0
M  V30 5911 H 564.524 -4.9248 -0.614575 0
M  V30 5912 H 559.78 -6.11211 0.151917 0
M  V30 5913 H 563.954 -6.92791 0.708057 0
M  V30 5914 H 561.581 -7.52239 1.0973 0
M  V30 5915 N 563.156 0.464375 -1.50603 0
M  V30 5916 C 564.433 1.22549 -1.5245 0
M  V30 5917 C 564.813 2.09327 -0.273035 0
M  V30 5918 O 564.161 2.16074 0.743242 0
M  V30 5919 C 564.371 2.05074 -2.82393 0
M  V30 5920 C 565.719 2.63036 -3.33313 0
M  V30 5921 O 566.743 2.1531 -2.8376 0
M  V30 5922 O 565.602 3.5001 -4.19709 0
M  V30 5923 H 562.696 0.556471 -0.611775 0
M  V30 5924 H 565.242 0.475648 -1.62898 0
M  V30 5925 H 564.014 1.41169 -3.64948 0
M  V30 5926 H 563.637 2.87179 -2.7498 0
M  V30 5927 N 564.634 1.40294 0.718013 0
M  V30 5928 C 565.544 1.42678 1.86226 0
M  V30 5929 C 566.56 0.319655 1.71039 0
M  V30 5930 O 567.736 0.563852 1.93346 0
M  V30 5931 C 564.801 1.2852 3.21999 0
M  V30 5932 C 563.862 2.49354 3.49458 0
M  V30 5933 C 563.095 2.35863 4.78753 0
M  V30 5934 O 563.318 1.37114 5.53675 0
M  V30 5935 O 562.252 3.25189 5.06494 0
M  V30 5936 H 566.078 2.39167 1.87171 0
M  V30 5937 H 563.663 1.2159 0.868112 0
M  V30 5938 H 565.545 1.22824 4.03103 0
M  V30 5939 H 564.22 0.351359 3.21787 0
M  V30 5940 H 563.127 2.60628 2.68373 0
M  V30 5941 H 564.46 3.41491 3.54464 0
M  V30 5942 N 566.112 -0.949982 1.2575 0
M  V30 5943 C 567.359 -1.69515 1.10774 0
M  V30 5944 C 567.687 -1.91316 -0.350479 0
M  V30 5945 O 566.942 -1.48515 -1.27443 0
M  V30 5946 C 567.241 -3.08039 1.81237 0
M  V30 5947 C 566.907 -3.06023 3.31151 0
M  V30 5948 C 565.569 -3.0518 3.72047 0
M  V30 5949 C 567.921 -2.98998 4.26907 0
M  V30 5950 C 565.249 -2.95067 5.07102 0
M  V30 5951 C 567.601 -2.90426 5.61992 0
M  V30 5952 C 566.265 -2.87922 6.0221 0
M  V30 5953 H 565.535 -0.6203 0.405351 0
M  V30 5954 H 568.182 -1.10953 1.56082 0
M  V30 5955 H 566.487 -3.70172 1.28373 0
M  V30 5956 H 568.184 -3.64526 1.67098 0
M  V30 5957 H 564.774 -3.07453 2.98614 0
M  V30 5958 H 568.958 -2.98764 3.963 0
M  V30 5959 H 564.214 -2.915 5.37436 0
M  V30 5960 H 568.388 -2.83952 6.35881 0
M  V30 5961 H 566.015 -2.79841 7.06819 0
M  V30 5962 N 567.59 -1.07411 -1.15328 0
M  V30 5963 C 568.537 -0.694995 -2.20087 0
M  V30 5964 C 569.507 0.313904 -1.63107 0
M  V30 5965 O 570.692 0.200216 -1.89747 0
M  V30 5966 C 567.832 -0.0996218 -3.44956 0
M  V30 5967 C 566.945 -1.16007 -4.16133 0
M  V30 5968 C 566.08 -0.529636 -5.28553 0
M  V30 5969 C 565.119 -1.57283 -5.91548 0
M  V30 5970 N 564.256 -0.964932 -6.95438 0
M  V30 5971 H 569.096 -1.5927 -2.51867 0
M  V30 5972 H 566.633 -0.796115 -1.23695 0
M  V30 5973 H 568.591 0.263197 -4.16369 0
M  V30 5974 H 567.221 0.761435 -3.13691 0
M  V30 5975 H 566.273 -1.64045 -3.4321 0
M  V30 5976 H 567.585 -1.95101 -4.59061 0
M  V30 5977 H 566.739 -0.114487 -6.06592 0
M  V30 5978 H 565.478 0.29307 -4.86819 0
M  V30 5979 H 564.483 -1.99775 -5.12221 0
M  V30 5980 H 565.708 -2.39783 -6.35359 0
M  V30 5981 H 563.654 -0.16314 -6.55797 0
M  V30 5982 H 563.571 -1.69311 -7.36797 0
M  V30 5983 H 564.839 -0.575305 -7.77374 0
M  V30 5984 N 569.068 1.32177 -0.85831 0
M  V30 5985 C 570.315 1.97125 -0.463484 0
M  V30 5986 C 570.643 1.67907 0.981705 0
M  V30 5987 O 569.898 0.961717 1.70439 0
M  V30 5988 C 570.197 3.51372 -0.653658 0
M  V30 5989 C 569.863 4.00584 -2.06987 0
M  V30 5990 C 568.525 4.13733 -2.4572 0
M  V30 5991 C 570.877 4.26624 -2.99402 0
M  V30 5992 C 568.205 4.50268 -3.76132 0
M  V30 5993 C 570.557 4.64618 -4.29316 0
M  V30 5994 C 569.221 4.75975 -4.67979 0
M  V30 5995 H 568.491 0.72133 -0.169601 0
M  V30 5996 H 571.138 1.57517 -1.08907 0
M  V30 5997 H 569.443 3.91761 0.0551328 0
M  V30 5998 H 571.14 3.99655 -0.328163 0
M  V30 5999 H 567.73 3.90837 -1.75911 0
M  V30 6000 H 571.914 4.1597 -2.70708 0
M  V30 6001 H 567.17 4.57256 -4.05865 0
M  V30 6002 H 571.344 4.83722 -5.00985 0
M  V30 6003 H 568.971 5.04041 -5.69076 0
M  V30 6004 N 570.547 0.616602 1.45037 0
M  V30 6005 C 571.963 0.280994 1.57107 0
M  V30 6006 C 572.163 -1.21627 1.60653 0
M  V30 6007 O 571.219 -1.9997 1.54169 0
M  V30 6008 C 572.532 0.960116 2.8496 0
M  V30 6009 C 574.08 0.936884 2.98649 0
M  V30 6010 C 574.555 1.59619 4.29285 0
M  V30 6011 N 576.046 1.5621 4.36065 0
M  V30 6012 C 576.781 2.04131 5.35834 0
M  V30 6013 N 576.277 2.60177 6.4209 0
M  V30 6014 N 578.07 1.94845 5.27249 0
M  V30 6015 H 570.221 1.58867 1.40979 0
M  V30 6016 H 572.484 0.666024 0.674623 0
M  V30 6017 H 572.19 2.01473 2.88273 0
M  V30 6018 H 572.064 0.488921 3.74018 0
M  V30 6019 H 574.451 -0.109209 2.94898 0
M  V30 6020 H 574.532 1.44643 2.10979 0
M  V30 6021 H 574.176 2.64166 4.33796 0
M  V30 6022 H 574.106 1.06159 5.15789 0
M  V30 6023 H 576.597 1.15276 3.59889 0
M  V30 6024 H 576.91 2.94513 7.1448 0
M  V30 6025 H 575.255 2.64221 6.42816 0
M  V30 6026 H 578.446 1.50792 4.43147 0
M  V30 6027 H 578.619 2.32504 6.04852 0
M  V30 6028 N 572.025 -1.5352 0.356285 0
M  V30 6029 C 573.272 -2.01117 -0.236303 0
M  V30 6030 C 573.6 -1.24381 -1.49531 0
M  V30 6031 O 572.855 -0.323057 -1.93015 0
M  V30 6032 C 573.154 -3.52607 -0.583369 0
M  V30 6033 C 572.82 -4.47151 0.58023 0
M  V30 6034 C 571.482 -4.72718 0.899528 0
M  V30 6035 C 573.834 -5.03137 1.36024 0
M  V30 6036 C 571.162 -5.51523 2.00098 0
M  V30 6037 C 573.514 -5.83145 2.45204 0
M  V30 6038 C 572.178 -6.07001 2.77679 0
M  V30 6039 H 571.448 -0.735938 -0.0864695 0
M  V30 6040 H 574.095 -1.85209 0.48683 0
M  V30 6041 H 572.4 -3.66413 -1.38739 0
M  V30 6042 H 574.097 -3.86901 -1.05397 0
M  V30 6043 H 570.687 -4.27394 0.321322 0
M  V30 6044 H 574.871 -4.83339 1.12682 0
M  V30 6045 H 570.127 -5.68229 2.25668 0
M  V30 6046 H 574.301 -6.25537 3.06067 0
M  V30 6047 H 571.928 -6.67851 3.63151 0
M  V30 6048 N 573.503 -0.0852151 -1.57369 0
M  V30 6049 C 574.731 0.58946 -1.98325 0
M  V30 6050 C 575.146 1.62333 -0.96403 0
M  V30 6051 O 574.503 1.82438 0.0476395 0
M  V30 6052 C 574.554 1.24604 -3.39347 0
M  V30 6053 O 574.275 0.253532 -4.37366 0
M  V30 6054 C 575.776 2.00726 -3.95252 0
M  V30 6055 H 572.996 0.158783 -0.651942 0
M  V30 6056 H 575.54 -0.161584 -2.03861 0
M  V30 6057 H 573.695 1.94808 -3.34856 0
M  V30 6058 H 574.109 0.726207 -5.19448 0
M  V30 6059 H 575.583 2.42039 -4.96106 0
M  V30 6060 H 576.06 2.86919 -3.32527 0
M  V30 6061 H 576.666 1.3536 -4.03185 0
M  V30 6062 N 574.981 1.5647 0.188427 0
M  V30 6063 C 576.258 1.71857 0.934058 0
M  V30 6064 C 576.638 0.641867 2.01105 0
M  V30 6065 O 575.986 -0.346098 2.25864 0
M  V30 6066 C 576.196 3.14431 1.5144 0
M  V30 6067 C 577.544 3.74869 1.99396 0
M  V30 6068 O 578.568 3.17601 1.61269 0
M  V30 6069 O 577.427 4.75387 2.69573 0
M  V30 6070 H 574.521 0.701186 0.438483 0
M  V30 6071 H 577.067 1.68768 0.177599 0
M  V30 6072 H 575.839 3.8427 0.738416 0
M  V30 6073 H 575.462 3.21775 2.33552 0
M  V30 6074 N 576.459 -0.456382 1.50847 0
M  V30 6075 C 577.875 -0.791345 1.386 0
M  V30 6076 C 578.075 -1.9633 0.453498 0
M  V30 6077 O 577.131 -2.52308 -0.0984353 0
M  V30 6078 C 578.444 -1.08959 2.80265 0
M  V30 6079 C 579.992 -1.19517 2.89283 0
M  V30 6080 C 580.467 -1.52647 4.31814 0
M  V30 6081 N 581.958 -1.59609 4.34832 0
M  V30 6082 C 582.693 -1.86777 5.42127 0
M  V30 6083 N 582.189 -2.11866 6.59609 0
M  V30 6084 N 583.982 -1.88402 5.29586 0
M  V30 6085 H 576.133 0.315746 2.1004 0
M  V30 6086 H 578.396 0.0787916 0.94472 0
M  V30 6087 H 578.102 -0.301355 3.50407 0
M  V30 6088 H 577.976 -2.02211 3.18419 0
M  V30 6089 H 580.363 -1.97406 2.19351 0
M  V30 6090 H 580.444 -0.242111 2.54652 0
M  V30 6091 H 580.088 -0.752922 5.02288 0
M  V30 6092 H 580.018 -2.49127 4.63943 0
M  V30 6093 H 582.509 -1.42201 3.50125 0
M  V30 6094 H 582.822 -2.31912 7.37182 0
M  V30 6095 H 581.167 -2.09228 6.62758 0
M  V30 6096 H 584.358 -1.68307 4.36795 0
M  V30 6097 H 584.531 -2.09238 6.13289 0
M  V30 6098 N 577.937 -1.40673 -0.710563 0
M  V30 6099 C 578.847 -1.43663 -1.85467 0
M  V30 6100 C 579.863 -0.328721 -1.70867 0
M  V30 6101 O 581.039 -0.574098 -1.93044 0
M  V30 6102 C 578.104 -1.30226 -3.21313 0
M  V30 6103 C 577.165 -2.51204 -3.48131 0
M  V30 6104 C 576.398 -2.38398 -4.77495 0
M  V30 6105 O 576.621 -1.40048 -5.5294 0
M  V30 6106 O 575.555 -3.2787 -5.04762 0
M  V30 6107 H 579.381 -2.40156 -1.859 0
M  V30 6108 H 576.966 -1.22049 -0.861652 0
M  V30 6109 H 578.848 -1.2496 -4.02446 0
M  V30 6110 H 577.523 -0.368419 -3.21597 0
M  V30 6111 H 576.43 -2.62048 -2.66987 0
M  V30 6112 H 577.763 -3.43366 -3.52648 0
M  V30 6113 N 579.415 0.9433 -1.26252 0
M  V30 6114 C 580.831 1.21644 -1.03319 0
M  V30 6115 C 581.031 2.0003 0.242983 0
M  V30 6116 O 580.087 2.33838 0.952688 0
M  V30 6117 C 581.4 1.97978 -2.2633 0
M  V30 6118 C 582.948 2.10978 -2.31209 0
M  V30 6119 C 583.423 2.90713 -3.53907 0
M  V30 6120 N 584.914 2.98287 -3.54371 0
M  V30 6121 C 585.649 3.60406 -4.45976 0
M  V30 6122 N 585.145 4.24043 -5.47868 0
M  V30 6123 N 586.938 3.57658 -4.33633 0
M  V30 6124 H 579.089 0.419221 -2.08222 0
M  V30 6125 H 581.352 0.247995 -0.914988 0
M  V30 6126 H 581.058 1.47788 -3.19142 0
M  V30 6127 H 580.932 2.9865 -2.30408 0
M  V30 6128 H 583.319 2.6036 -1.38913 0
M  V30 6129 H 583.4 1.09575 -2.31143 0
M  V30 6130 H 583.044 2.42018 -4.46531 0
M  V30 6131 H 582.974 3.92367 -3.5122 0
M  V30 6132 H 585.465 2.53044 -2.80673 0
M  V30 6133 H 585.778 4.69334 -6.13959 0
M  V30 6134 H 584.123 4.22637 -5.51728 0
M  V30 6135 H 587.314 3.07134 -3.53251 0
M  V30 6136 H 587.487 4.05782 -5.05218 0
M  V30 6137 N 580.893 1.08022 1.14757 0
M  V30 6138 C 581.843 0.676345 2.17737 0
M  V30 6139 C 582.827 -0.302018 1.5804 0
M  V30 6140 O 584.019 -0.11466 1.76628 0
M  V30 6141 C 581.148 0.082984 3.432 0
M  V30 6142 C 580.234 1.0869 4.09936 0
M  V30 6143 N 580.625 2.26891 4.52055 0
M  V30 6144 C 578.923 0.921768 4.36371 0
M  V30 6145 C 579.624 2.90636 5.0389 0
M  V30 6146 N 578.6 2.18266 4.97856 0
M  V30 6147 H 582.402 1.5765 2.4804 0
M  V30 6148 H 579.916 0.954374 1.31398 0
M  V30 6149 H 581.913 -0.224289 4.16296 0
M  V30 6150 H 580.573 -0.812206 3.14378 0
M  V30 6151 H 581.584 2.6457 4.45223 0
M  V30 6152 H 578.261 0.0800499 4.17423 0
M  V30 6153 H 579.651 3.9104 5.46386 0
M  V30 6154 N 582.371 -1.3172 0.865308 0
M  V30 6155 C 583.611 -1.98675 0.480365 0
M  V30 6156 C 583.975 -1.66929 -0.948621 0
M  V30 6157 O 585.176 -2.27059 -1.43867 0
M  V30 6158 C 583.447 -3.49972 0.724858 0
M  V30 6159 S 585.006 -4.36598 0.439078 0
M  V30 6160 H 581.824 -0.687967 0.179506 0
M  V30 6161 H 584.426 -1.60215 1.12033 0
M  V30 6162 H 583.13 -3.70567 1.76375 0
M  V30 6163 H 582.661 -3.93335 0.0717173 0
M  V30 6164 H 584.676 -4.90792 -0.730564 0
M  V30 6165 N 583.85 -0.624285 -1.44708 0
M  V30 6166 C 585.075 -0.131171 -2.06985 0
M  V30 6167 C 585.5 1.18234 -1.46295 0
M  V30 6168 O 584.858 1.72375 -0.561842 0
M  V30 6169 C 584.906 -0.0226724 -3.60593 0
M  V30 6170 O 584.01 1.02314 -3.99507 0
M  V30 6171 H 583.351 -0.0816556 -0.65896 0
M  V30 6172 H 585.88 -0.859027 -1.85693 0
M  V30 6173 H 585.891 0.170138 -4.07645 0
M  V30 6174 H 584.566 -0.981685 -4.04148 0
M  V30 6175 H 583.143 0.805452 -3.64097 0
M  V30 6176 N 585.328 1.53329 -0.364422 0
M  V30 6177 C 586.739 1.86345 0.115039 0
M  V30 6178 C 587.09 1.28505 1.4826 0
M  V30 6179 O 586.215 0.606639 2.07723 0
M  V30 6180 C 586.81 3.38114 0.215522 0
M  V30 6181 C 585.369 3.70932 0.639237 0
M  V30 6182 C 584.516 2.76471 -0.214261 0
M  V30 6183 H 587.467 1.47593 -0.583258 0
M  V30 6184 H 587.488 3.66031 1.0393 0
M  V30 6185 H 587 3.80182 -0.779948 0
M  V30 6186 H 585.101 3.3442 1.64298 0
M  V30 6187 H 585.214 4.77302 0.41465 0
M  V30 6188 H 583.578 2.52724 0.316678 0
M  V30 6189 H 584.361 3.21373 -1.20725 0
M  V30 6190 N 586.806 0.0935595 1.57322 0
M  V30 6191 C 588.034 -0.578934 1.98635 0
M  V30 6192 C 588.449 -1.61819 0.972626 0
M  V30 6193 O 587.806 -1.82461 -0.0379638 0
M  V30 6194 C 587.857 -1.22802 3.40003 0
M  V30 6195 O 587.578 -0.230334 4.37494 0
M  V30 6196 C 589.079 -1.98627 3.96311 0
M  V30 6197 H 586.299 -0.155324 0.652775 0
M  V30 6198 H 588.843 0.172393 2.03772 0
M  V30 6199 H 586.998 -1.93029 3.35885 0
M  V30 6200 H 587.412 -0.698649 5.19826 0
M  V30 6201 H 588.886 -2.39405 4.97382 0
M  V30 6202 H 589.363 -2.85151 3.34044 0
M  V30 6203 H 589.969 -1.3322 4.03897 0
M  V30 6204 N 588.284 -1.56567 -0.180126 0
M  V30 6205 C 589.561 -1.7235 -0.924931 0
M  V30 6206 C 589.941 -0.652523 -2.00762 0
M  V30 6207 O 589.289 0.334115 -2.26044 0
M  V30 6208 C 589.499 -3.1523 -1.49771 0
M  V30 6209 C 590.847 -3.75921 -1.97405 0
M  V30 6210 O 591.871 -3.18452 -1.59583 0
M  V30 6211 O 590.73 -4.7681 -2.67048 0
M  V30 6212 H 587.824 -0.703502 -0.434758 0
M  V30 6213 H 590.37 -1.6886 -0.168647 0
M  V30 6214 H 589.142 -3.84656 -0.718027 0
M  V30 6215 H 588.765 -3.23009 -2.31842 0
M  V30 6216 N 589.762 0.448376 -1.51087 0
M  V30 6217 C 591.173 1.0286 -1.5581 0
M  V30 6218 C 591.524 1.92583 -0.374989 0
M  V30 6219 O 590.649 2.10316 0.509533 0
M  V30 6220 C 591.244 1.87223 -2.8237 0
M  V30 6221 C 589.803 2.40314 -2.897 0
M  V30 6222 C 588.95 1.19238 -2.50355 0
M  V30 6223 H 591.901 0.230075 -1.57023 0
M  V30 6224 H 591.922 2.72553 -2.6551 0
M  V30 6225 H 591.434 1.21894 -3.68461 0
M  V30 6226 H 589.535 3.09129 -2.08014 0
M  V30 6227 H 589.648 2.73866 -3.93108 0
M  V30 6228 H 588.012 1.53428 -2.03303 0
M  V30 6229 H 588.795 0.555367 -3.38778 0
M  V30 6230 N 591.24 1.41047 0.703093 0
M  V30 6231 C 592.468 1.4334 1.49202 0
M  V30 6232 C 592.883 0.0365596 1.88765 0
M  V30 6233 O 592.24 -0.942419 1.56284 0
M  V30 6234 C 592.291 2.33538 2.75939 0
M  V30 6235 O 592.012 3.67786 2.38045 0
M  V30 6236 C 593.513 2.44555 3.6974 0
M  V30 6237 H 590.733 0.488472 0.460039 0
M  V30 6238 H 593.277 1.85245 0.86629 0
M  V30 6239 H 591.432 1.94962 3.34766 0
M  V30 6240 H 591.846 4.15816 3.19683 0
M  V30 6241 H 593.32 3.11849 4.55471 0
M  V30 6242 H 593.797 1.47447 4.1371 0
M  V30 6243 H 594.403 2.83735 3.16819 0
M  V30 6244 N 592.718 -0.936591 1.26751 0
M  V30 6245 C 593.943 -1.72288 1.15462 0
M  V30 6246 C 594.368 -1.85915 -0.285887 0
M  V30 6247 O 593.726 -1.35272 -1.20711 0
M  V30 6248 C 593.774 -3.10503 1.83359 0
M  V30 6249 O 592.878 -3.96745 1.1255 0
M  V30 6250 H 592.219 -0.52843 0.402067 0
M  V30 6251 H 594.749 -1.17271 1.67656 0
M  V30 6252 H 594.759 -3.60867 1.90365 0
M  V30 6253 H 593.434 -2.99901 2.88153 0
M  V30 6254 H 592.011 -3.55191 1.13551 0
M  V30 6255 N 594.196 -1.08629 -1.14182 0
M  V30 6256 C 595.442 -0.818556 -1.85546 0
M  V30 6257 C 595.775 0.654076 -1.82854 0
M  V30 6258 O 595.05 1.48099 -1.26083 0
M  V30 6259 C 595.333 -1.34397 -3.3408 0
M  V30 6260 C 595.186 -2.8821 -3.45333 0
M  V30 6261 C 596.505 -0.971069 -4.29253 0
M  V30 6262 H 593.624 -0.298821 -0.673702 0
M  V30 6263 H 596.266 -1.34629 -1.34071 0
M  V30 6264 H 594.416 -0.895064 -3.78049 0
M  V30 6265 H 596.088 -3.41488 -3.10134 0
M  V30 6266 H 594.331 -3.25756 -2.86471 0
M  V30 6267 H 595.002 -3.20047 -4.49749 0
M  V30 6268 H 597.478 -1.35809 -3.93313 0
M  V30 6269 H 596.354 -1.36586 -5.31635 0
M  V30 6270 H 596.615 0.121659 -4.41933 0
M  V30 6271 N 595.674 1.31259 -0.872281 0
M  V30 6272 C 596.606 2.27396 -0.28697 0
M  V30 6273 C 597.619 1.53181 0.551297 0
M  V30 6274 O 598.808 1.74561 0.372914 0
M  V30 6275 C 595.908 3.33335 0.611617 0
M  V30 6276 C 595.081 4.36966 -0.194729 0
M  V30 6277 C 594.14 5.22387 0.632358 0
M  V30 6278 O 593.166 5.69169 0.0595691 0
M  V30 6279 N 594.368 5.46985 1.94391 0
M  V30 6280 H 597.133 2.78261 -1.11314 0
M  V30 6281 H 594.694 1.44306 -0.733994 0
M  V30 6282 H 596.686 3.87398 1.17068 0
M  V30 6283 H 595.256 2.82496 1.33846 0
M  V30 6284 H 594.476 3.82945 -0.935241 0
M  V30 6285 H 595.764 5.03273 -0.747935 0
M  V30 6286 H 595.162 5.10737 2.43237 0
M  V30 6287 H 593.719 6.03973 2.45071 0
M  V30 6288 N 597.152 0.631951 1.44375 0
M  V30 6289 C 598.38 0.143867 2.06399 0
M  V30 6290 C 598.795 -1.18188 1.47231 0
M  V30 6291 O 598.152 -1.72511 0.595498 0
M  V30 6292 C 598.203 0.0238253 3.61492 0
M  V30 6293 O 597.924 1.29715 4.18456 0
M  V30 6294 C 599.425 -0.492856 4.40552 0
M  V30 6295 H 596.645 0.0800542 0.666207 0
M  V30 6296 H 599.189 0.866586 1.85231 0
M  V30 6297 H 597.344 -0.649338 3.81919 0
M  V30 6298 H 597.758 1.14252 5.11905 0
M  V30 6299 H 599.232 -0.525861 5.49489 0
M  V30 6300 H 599.709 -1.52006 4.12057 0
M  V30 6301 H 600.315 0.147085 4.25046 0
M  V30 6302 N 598.631 -1.53133 0.372548 0
M  V30 6303 C 599.561 -2.28876 -0.462412 0
M  V30 6304 C 600.542 -1.31583 -1.07796 0
M  V30 6305 O 601.727 -1.60461 -1.09389 0
M  V30 6306 C 598.857 -3.08317 -1.59868 0
M  V30 6307 C 597.811 -4.13355 -1.11003 0
M  V30 6308 C 597.137 -4.8092 -2.33708 0
M  V30 6309 C 598.437 -5.21955 -0.18983 0
M  V30 6310 H 600.131 -2.9892 0.169511 0
M  V30 6311 H 597.677 -1.43761 0.0829658 0
M  V30 6312 H 599.63 -3.60055 -2.18949 0
M  V30 6313 H 598.354 -2.35976 -2.25794 0
M  V30 6314 H 597.013 -3.62573 -0.541869 0
M  V30 6315 H 596.661 -4.05144 -2.98106 0
M  V30 6316 H 596.361 -5.51904 -2.01682 0
M  V30 6317 H 597.885 -5.35455 -2.93462 0
M  V30 6318 H 599.299 -5.69153 -0.688319 0
M  V30 6319 H 597.696 -6.00087 0.0398887 0
M  V30 6320 H 598.766 -4.78811 0.766057 0
M  V30 6321 N 600.109 -0.101901 -1.5727 0
M  V30 6322 C 601.039 0.851544 -2.17419 0
M  V30 6323 C 602.02 1.28942 -1.10941 0
M  V30 6324 O 603.205 1.35509 -1.39107 0
M  V30 6325 C 600.335 2.10816 -2.75996 0
M  V30 6326 C 599.289 1.80867 -3.87906 0
M  V30 6327 C 598.615 3.13413 -4.33216 0
M  V30 6328 C 599.915 1.0903 -5.10793 0
M  V30 6329 H 601.609 0.350381 -2.97343 0
M  V30 6330 H 599.155 0.16709 -1.43027 0
M  V30 6331 H 601.108 2.77959 -3.16729 0
M  V30 6332 H 599.832 2.63227 -1.93337 0
M  V30 6333 H 598.491 1.16119 -3.47724 0
M  V30 6334 H 598.139 3.63725 -3.47438 0
M  V30 6335 H 597.839 2.94155 -5.08671 0
M  V30 6336 H 599.363 3.81704 -4.76586 0
M  V30 6337 H 600.777 1.66295 -5.48652 0
M  V30 6338 H 599.174 0.99927 -5.91722 0
M  V30 6339 H 600.244 0.0741704 -4.84843 0
M  V30 6340 N 601.587 1.56661 0.17182 0
M  V30 6341 C 602.834 1.81965 0.888529 0
M  V30 6342 C 603.162 0.6789 1.82267 0
M  V30 6343 O 602.417 -0.333875 1.92831 0
M  V30 6344 C 602.716 3.13435 1.71736 0
M  V30 6345 C 602.382 4.41159 0.932184 0
M  V30 6346 C 601.044 4.75851 0.715481 0
M  V30 6347 C 603.396 5.19803 0.381387 0
M  V30 6348 C 600.724 5.86666 -0.063126 0
M  V30 6349 C 603.076 6.31433 -0.384129 0
M  V30 6350 C 601.74 6.64692 -0.611637 0
M  V30 6351 H 601.01 0.665859 0.325136 0
M  V30 6352 H 603.657 1.90884 0.153495 0
M  V30 6353 H 601.962 2.99857 2.52177 0
M  V30 6354 H 603.659 3.30224 2.27493 0
M  V30 6355 H 600.249 4.13947 1.11112 0
M  V30 6356 H 604.433 4.93396 0.536148 0
M  V30 6357 H 599.689 6.10892 -0.249136 0
M  V30 6358 H 603.863 6.91577 -0.818185 0
M  V30 6359 H 601.49 7.50398 -1.21684 0
M  V30 6360 N 603.065 -0.440357 1.51323 0
M  V30 6361 C 604.013 -1.55492 1.72988 0
M  V30 6362 C 605.007 -1.58564 0.596138 0
M  V30 6363 O 606.213 -1.62345 0.777443 0
M  V30 6364 H 602.588 -0.516532 0.546533 0
M  V30 6365 H 604.559 -1.34392 2.66423 0
M  V30 6366 C 603.308 -2.93176 1.86931 0
M  V30 6367 H 602.631 -2.91543 2.73574 0
M  V30 6368 H 604.071 -3.70537 2.06103 0
M  V30 6369 C 602.53 -3.30988 0.628365 0
M  V30 6370 O 603.06 -4.01106 -0.218367 0
M  V30 6371 N 601.266 -2.86719 0.473339 0
M  V30 6372 H 600.813 -2.2983 1.16345 0
M  V30 6373 H 600.771 -3.12381 -0.355727 0
M  V30 6374 N 604.543 -1.41418 -0.695603 0
M  V30 6375 C 605.473 -1.46035 -1.82197 0
M  V30 6376 C 606.454 -0.319025 -1.67082 0
M  V30 6377 O 607.639 -0.530462 -1.86815 0
M  V30 6378 C 604.769 -1.34179 -3.20333 0
M  V30 6379 C 603.723 -2.46123 -3.50154 0
M  V30 6380 C 603.049 -2.19332 -4.87645 0
M  V30 6381 C 604.349 -3.88463 -3.49133 0
M  V30 6382 H 606.043 -2.40303 -1.78591 0
M  V30 6383 H 603.589 -1.15663 -0.857797 0
M  V30 6384 H 605.542 -1.36021 -3.98844 0
M  V30 6385 H 604.266 -0.363952 -3.24566 0
M  V30 6386 H 602.925 -2.43563 -2.73994 0
M  V30 6387 H 602.573 -1.19891 -4.88503 0
M  V30 6388 H 602.273 -2.94344 -5.08562 0
M  V30 6389 H 603.797 -2.22889 -5.68465 0
M  V30 6390 H 605.211 -3.92738 -4.17648 0
M  V30 6391 H 603.608 -4.63158 -3.81582 0
M  V30 6392 H 604.678 -4.16617 -2.48109 0
M  V30 6393 N 606.021 0.929856 -1.27246 0
M  V30 6394 C 606.951 2.04722 -1.12299 0
M  V30 6395 C 607.932 1.70082 -0.0250464 0
M  V30 6396 O 609.117 1.93176 -0.199141 0
M  V30 6397 C 606.247 3.38721 -0.767145 0
M  V30 6398 C 605.201 3.87466 -1.81808 0
M  V30 6399 C 604.527 5.18246 -1.31626 0
M  V30 6400 C 605.827 4.11095 -3.22177 0
M  V30 6401 H 607.521 2.17485 -2.05769 0
M  V30 6402 H 605.067 1.04503 -0.990715 0
M  V30 6403 H 607.02 4.16366 -0.649413 0
M  V30 6404 H 605.744 3.25967 0.203259 0
M  V30 6405 H 604.403 3.12012 -1.92468 0
M  V30 6406 H 604.051 5.01881 -0.335378 0
M  V30 6407 H 603.751 5.51829 -2.01887 0
M  V30 6408 H 605.275 5.98462 -1.21143 0
M  V30 6409 H 606.689 4.79316 -3.1453 0
M  V30 6410 H 605.086 4.55982 -3.90129 0
M  V30 6411 H 606.156 3.16468 -3.67391 0
M  V30 6412 N 607.499 1.09233 1.13605 0
M  V30 6413 C 608.431 0.687794 2.18637 0
M  V30 6414 C 609.444 -0.26936 1.60556 0
M  V30 6415 O 610.633 -0.0557162 1.78413 0
M  V30 6416 C 607.733 -0.00751901 3.38899 0
M  V30 6417 C 606.906 0.97067 4.26494 0
M  V30 6418 C 605.965 0.309129 5.25291 0
M  V30 6419 O 604.991 0.956149 5.61112 0
M  V30 6420 N 606.193 -0.937555 5.72879 0
M  V30 6421 H 608.958 1.59141 2.53957 0
M  V30 6422 H 606.519 0.979515 1.28907 0
M  V30 6423 H 608.511 -0.461238 4.02063 0
M  V30 6424 H 607.081 -0.813353 3.01833 0
M  V30 6425 H 606.301 1.603 3.60135 0
M  V30 6426 H 607.589 1.63323 4.81875 0
M  V30 6427 H 606.987 -1.48281 5.4592 0
M  V30 6428 H 605.544 -1.33463 6.3799 0
M  V30 6429 N 608.977 -1.30795 0.87923 0
M  V30 6430 C 610.225 -1.95974 0.493809 0
M  V30 6431 C 610.546 -1.69787 -0.959021 0
M  V30 6432 O 609.816 -1.01832 -1.67353 0
M  V30 6433 H 608.396 -0.725083 0.179622 0
M  V30 6434 H 611.058 -1.59432 1.12105 0
M  V30 6435 H 610.154 -3.05058 0.659263 0
M  V30 6436 N 610.455 -0.639598 -1.44038 0
M  V30 6437 C 611.403 0.0723409 -2.32487 0
M  V30 6438 C 612.397 0.827129 -1.47834 0
M  V30 6439 O 613.603 0.73907 -1.64127 0
M  V30 6440 H 609.978 0.0421696 -0.750817 0
M  V30 6441 H 611.949 -0.691593 -2.90275 0
M  V30 6442 C 610.698 1.03452 -3.31953 0
M  V30 6443 H 610.021 0.46315 -3.97108 0
M  V30 6444 H 611.461 1.502 -3.96505 0
M  V30 6445 C 609.92 2.12392 -2.61518 0
M  V30 6446 O 610.45 3.2059 -2.42044 0
M  V30 6447 N 608.656 1.88563 -2.21116 0
M  V30 6448 H 608.203 1.00577 -2.37154 0
M  V30 6449 H 608.161 2.61651 -1.74316 0
M  V30 6450 N 611.933 1.52934 -0.380664 0
M  V30 6451 C 612.863 2.29118 0.450268 0
M  V30 6452 C 613.844 1.32153 1.07096 0
M  V30 6453 O 615.029 1.61038 1.08537 0
M  V30 6454 C 612.159 3.09161 1.58231 0
M  V30 6455 C 611.113 4.13938 1.0881 0
M  V30 6456 C 610.439 4.82153 2.31155 0
M  V30 6457 C 611.739 5.22048 0.162146 0
M  V30 6458 H 613.433 2.98826 -0.185361 0
M  V30 6459 H 610.979 1.43715 -0.0905886 0
M  V30 6460 H 612.932 3.61211 2.17036 0
M  V30 6461 H 611.656 2.3717 2.2454 0
M  V30 6462 H 610.315 3.62855 0.522633 0
M  V30 6463 H 609.963 4.06719 2.95953 0
M  V30 6464 H 609.663 5.52966 1.98752 0
M  V30 6465 H 611.187 5.37004 2.90618 0
M  V30 6466 H 612.601 5.6951 0.658126 0
M  V30 6467 H 610.998 6.00057 -0.0717122 0
M  V30 6468 H 612.068 4.78398 -0.791438 0
M  V30 6469 N 613.412 0.11024 1.57214 0
M  V30 6470 C 614.342 -0.840002 2.17867 0
M  V30 6471 C 615.323 -1.28352 1.11624 0
M  V30 6472 O 616.508 -1.3477 1.39824 0
M  V30 6473 C 613.638 -2.09349 2.77111 0
M  V30 6474 C 612.592 -1.78807 3.8886 0
M  V30 6475 C 611.918 -3.11112 4.34872 0
M  V30 6476 C 613.218 -1.0632 5.11364 0
M  V30 6477 H 614.912 -0.334608 2.97524 0
M  V30 6478 H 612.458 -0.159502 1.43114 0
M  V30 6479 H 614.411 -2.76275 3.18198 0
M  V30 6480 H 613.135 -2.62198 1.9473 0
M  V30 6481 H 611.794 -1.14273 3.48335 0
M  V30 6482 H 611.442 -3.61877 3.49362 0
M  V30 6483 H 611.142 -2.91453 5.10224 0
M  V30 6484 H 612.666 -3.79171 4.78604 0
M  V30 6485 H 614.08 -1.63383 5.49526 0
M  V30 6486 H 612.477 -0.967876 5.92243 0
M  V30 6487 H 613.547 -0.0484569 4.84876 0
M  V30 6488 N 614.89 -1.56749 -0.16351 0
M  V30 6489 C 615.837 -1.97011 -1.2023 0
M  V30 6490 C 616.807 -0.835186 -1.43575 0
M  V30 6491 O 617.992 -1.09594 -1.56185 0
M  V30 6492 C 615.132 -2.34186 -2.53478 0
M  V30 6493 C 614.245 -3.60893 -2.37446 0
M  V30 6494 C 613.38 -3.87245 -3.63614 0
M  V30 6495 C 612.419 -5.07274 -3.42548 0
M  V30 6496 N 611.556 -5.29719 -4.60806 0
M  V30 6497 H 616.396 -2.85562 -0.851958 0
M  V30 6498 H 613.933 -1.41292 -0.409257 0
M  V30 6499 H 615.891 -2.53764 -3.31149 0
M  V30 6500 H 614.521 -1.48736 -2.86492 0
M  V30 6501 H 613.573 -3.49185 -1.50911 0
M  V30 6502 H 614.885 -4.48722 -2.1783 0
M  V30 6503 H 614.039 -4.07232 -4.49719 0
M  V30 6504 H 612.778 -2.97806 -3.86216 0
M  V30 6505 H 611.783 -4.87177 -2.5483 0
M  V30 6506 H 613.008 -5.98251 -3.2136 0
M  V30 6507 H 610.954 -4.43233 -4.83612 0
M  V30 6508 H 610.871 -6.11786 -4.44132 0
M  V30 6509 H 612.139 -5.54192 -5.48171 0
M  V30 6510 N 616.368 0.432326 -1.51554 0
M  V30 6511 C 617.316 1.54572 -1.73811 0
M  V30 6512 C 618.31 1.58246 -0.604539 0
M  V30 6513 O 619.516 1.6193 -0.786041 0
M  V30 6514 H 615.891 0.513626 -0.549265 0
M  V30 6515 H 617.862 1.32977 -2.67132 0
M  V30 6516 C 616.611 2.92181 -1.88483 0
M  V30 6517 H 615.934 2.90088 -2.75116 0
M  V30 6518 H 617.374 3.69439 -2.08065 0
M  V30 6519 C 615.833 3.3065 -0.645909 0
M  V30 6520 O 616.363 4.01216 0.197093 0
M  V30 6521 N 614.569 2.86464 -0.488538 0
M  V30 6522 H 614.116 2.29209 -1.17562 0
M  V30 6523 H 614.074 3.12565 0.339156 0
M  V30 6524 N 617.846 1.41785 0.688094 0
M  V30 6525 C 618.809 1.43936 1.78368 0
M  V30 6526 C 619.809 0.328866 1.57401 0
M  V30 6527 O 620.999 0.589093 1.63937 0
M  V30 6528 C 618.131 1.25804 3.16838 0
M  V30 6529 H 619.324 2.41472 1.77852 0
M  V30 6530 H 616.877 1.28037 0.896448 0
M  V30 6531 H 617.612 0.291386 3.22988 0
M  V30 6532 H 617.397 2.06272 3.33458 0
M  V30 6533 H 618.887 1.30162 3.96797 0
M  V30 6534 N 619.324 -0.923095 1.27737 0
M  V30 6535 C 620.74 -1.19985 1.05241 0
M  V30 6536 C 620.94 -2.00391 -0.21113 0
M  V30 6537 O 619.996 -2.35324 -0.915366 0
M  V30 6538 C 621.309 -1.94352 2.29451 0
M  V30 6539 C 622.857 -2.07273 2.34536 0
M  V30 6540 C 623.332 -2.85046 3.58487 0
M  V30 6541 N 624.823 -2.92612 3.59072 0
M  V30 6542 C 625.558 -3.53266 4.51654 0
M  V30 6543 N 625.054 -4.15274 5.54545 0
M  V30 6544 N 626.847 -3.50714 4.39268 0
M  V30 6545 H 618.998 -0.386042 2.08862 0
M  V30 6546 H 621.261 -0.233407 0.918817 0
M  V30 6547 H 620.967 -1.42692 3.21453 0
M  V30 6548 H 620.841 -2.94947 2.3513 0
M  V30 6549 H 623.228 -2.58117 1.43037 0
M  V30 6550 H 623.309 -1.05884 2.32857 0
M  V30 6551 H 622.953 -2.34884 4.50324 0
M  V30 6552 H 622.883 -3.8673 3.57418 0
M  V30 6553 H 625.374 -2.48547 2.84663 0
M  V30 6554 H 625.687 -4.59507 6.21348 0
M  V30 6555 H 624.032 -4.13806 5.58382 0
M  V30 6556 H 627.223 -3.01475 3.58093 0
M  V30 6557 H 627.396 -3.97693 5.1161 0
M  V30 6558 N 620.802 -1.09834 -1.13024 0
M  V30 6559 C 621.749 -0.741522 -2.18564 0
M  V30 6560 C 622.719 0.279236 -1.63736 0
M  V30 6561 O 623.904 0.159923 -1.90129 0
M  V30 6562 C 621.044 -0.17277 -3.44667 0
M  V30 6563 C 620.157 -1.24808 -4.13578 0
M  V30 6564 C 619.292 -0.641631 -5.27311 0
M  V30 6565 C 618.331 -1.69795 -5.88078 0
M  V30 6566 N 617.468 -1.11223 -6.93234 0
M  V30 6567 H 622.308 -1.64576 -2.48432 0
M  V30 6568 H 619.845 -0.822174 -1.21978 0
M  V30 6569 H 621.803 0.17482 -4.16834 0
M  V30 6570 H 620.433 0.694725 -3.15235 0
M  V30 6571 H 619.485 -1.71288 -3.39653 0
M  V30 6572 H 620.797 -2.04795 -4.54819 0
M  V30 6573 H 619.951 -0.243128 -6.06213 0
M  V30 6574 H 618.69 0.189742 -4.87331 0
M  V30 6575 H 617.695 -2.10595 -5.07868 0
M  V30 6576 H 618.92 -2.53206 -6.3013 0
M  V30 6577 H 616.866 -0.302208 -6.55304 0
M  V30 6578 H 616.783 -1.84901 -7.3304 0
M  V30 6579 H 618.051 -0.740068 -7.75979 0
M  V30 6580 N 622.28 1.30327 -0.886154 0
M  V30 6581 C 623.526 1.96388 -0.505941 0
M  V30 6582 C 623.859 1.69784 0.942712 0
M  V30 6583 O 623.134 1.00322 1.6663 0
M  V30 6584 C 623.417 3.51488 -0.782826 0
M  V30 6585 C 623.27 3.87603 -2.28219 0
M  V30 6586 C 624.589 4.39331 -0.260128 0
M  V30 6587 H 621.708 0.713327 -0.185292 0
M  V30 6588 H 624.35 1.54178 -1.11036 0
M  V30 6589 H 622.5 3.87572 -0.268399 0
M  V30 6590 H 624.172 3.61537 -2.86512 0
M  V30 6591 H 622.415 3.3563 -2.74837 0
M  V30 6592 H 623.086 4.95806 -2.42653 0
M  V30 6593 H 625.562 4.10162 -0.700444 0
M  V30 6594 H 624.438 5.46769 -0.483179 0
M  V30 6595 H 624.699 4.34072 0.838674 0
M  V30 6596 N 623.758 0.647228 1.43697 0
M  V30 6597 C 625.004 0.158422 2.0218 0
M  V30 6598 C 625.337 -1.22233 1.50907 0
M  V30 6599 O 624.612 -1.81478 0.699702 0
M  V30 6600 C 624.895 0.1627 3.59732 0
M  V30 6601 C 624.748 1.57694 4.21251 0
M  V30 6602 C 626.067 -0.504138 4.37203 0
M  V30 6603 H 623.186 0.059042 0.734631 0
M  V30 6604 H 625.828 0.826772 1.71069 0
M  V30 6605 H 623.978 -0.406414 3.86368 0
M  V30 6606 H 625.65 2.19618 4.05667 0
M  V30 6607 H 623.893 2.12603 3.7813 0
M  V30 6608 H 624.564 1.53183 5.3032 0
M  V30 6609 H 627.04 -0.0199841 4.16095 0
M  V30 6610 H 625.916 -0.470394 5.46881 0
M  V30 6611 H 626.177 -1.57726 4.13007 0
M  V30 6612 N 625.236 -1.5273 0.388769 0
M  V30 6613 C 626.464 -2.05992 -0.193677 0
M  V30 6614 C 626.879 -1.26053 -1.40557 0
M  V30 6615 O 626.236 -0.307049 -1.79898 0
M  V30 6616 C 626.287 -3.57068 -0.564321 0
M  V30 6617 O 626.008 -4.3398 0.599422 0
M  V30 6618 C 627.509 -4.26674 -1.20269 0
M  V30 6619 H 624.729 -0.670358 -0.0293445 0
M  V30 6620 H 627.273 -1.96857 0.553844 0
M  V30 6621 H 625.428 -3.66277 -1.26174 0
M  V30 6622 H 625.842 -5.2367 0.294895 0
M  V30 6623 H 627.316 -5.33625 -1.4124 0
M  V30 6624 H 627.793 -3.81854 -2.16989 0
M  V30 6625 H 628.399 -4.2178 -0.546047 0
M  V30 6626 N 626.714 -0.118576 -1.57153 0
M  V30 6627 C 627.939 0.550582 -1.99958 0
M  V30 6628 C 628.364 1.59458 -0.997736 0
M  V30 6629 O 627.722 1.81274 0.0306269 0
M  V30 6630 C 627.77 1.15379 -3.41643 0
M  V30 6631 O 626.874 2.26932 -3.44348 0
M  V30 6632 H 626.215 0.137567 -0.649593 0
M  V30 6633 H 628.745 -0.206926 -2.03551 0
M  V30 6634 H 628.755 1.48942 -3.79843 0
M  V30 6635 H 627.43 0.389087 -4.14076 0
M  V30 6636 H 626.007 1.94812 -3.17967 0
M  V30 6637 N 628.193 1.56834 0.155195 0
M  V30 6638 C 629.609 1.51315 0.50755 0
M  V30 6639 C 629.809 0.825614 1.83809 0
M  V30 6640 O 628.865 0.39271 2.49427 0
M  V30 6641 C 630.178 2.96074 0.52542 0
M  V30 6642 C 631.726 3.06968 0.611505 0
M  V30 6643 C 632.201 4.53218 0.660115 0
M  V30 6644 N 633.692 4.5753 0.722564 0
M  V30 6645 C 634.427 5.68056 0.781023 0
M  V30 6646 N 633.923 6.88173 0.799327 0
M  V30 6647 N 635.716 5.56068 0.821278 0
M  V30 6648 H 627.867 1.9993 -0.717063 0
M  V30 6649 H 630.13 0.911507 -0.260496 0
M  V30 6650 H 629.836 3.49599 -0.383875 0
M  V30 6651 H 629.71 3.51587 1.36624 0
M  V30 6652 H 632.097 2.53468 1.51122 0
M  V30 6653 H 632.178 2.54513 -0.256306 0
M  V30 6654 H 631.822 5.07354 -0.23541 0
M  V30 6655 H 631.752 5.03447 1.5443 0
M  V30 6656 H 634.243 3.71054 0.716049 0
M  V30 6657 H 634.556 7.6816 0.845553 0
M  V30 6658 H 632.901 6.90751 0.767337 0
M  V30 6659 H 636.092 4.61142 0.804091 0
M  V30 6660 H 636.265 6.42223 0.863372 0
M  V30 6661 N 629.671 -0.424282 1.51781 0
M  V30 6662 C 631.082 -1.00368 1.57427 0
M  V30 6663 C 631.433 -1.91962 0.40558 0
M  V30 6664 O 630.558 -2.111 -0.47601 0
M  V30 6665 C 631.153 -1.82707 2.85313 0
M  V30 6666 C 629.712 -2.35675 2.93487 0
M  V30 6667 C 628.859 -1.1524 2.5222 0
M  V30 6668 H 631.81 -0.205064 1.5737 0
M  V30 6669 H 631.831 -2.68294 2.69812 0
M  V30 6670 H 631.343 -1.16017 3.70353 0
M  V30 6671 H 629.444 -3.05781 2.12906 0
M  V30 6672 H 629.557 -2.67578 3.97415 0
M  V30 6673 H 627.921 -1.50174 2.05718 0
M  V30 6674 H 628.704 -0.5014 3.39619 0
M  V30 6675 N 631.149 -1.42148 -0.680565 0
M  V30 6676 C 632.112 -1.4488 -1.77602 0
M  V30 6677 C 633.112 -0.337209 -1.57224 0
M  V30 6678 O 634.302 -0.597778 -1.63622 0
M  V30 6679 C 631.434 -1.27483 -3.16166 0
M  V30 6680 H 632.627 -2.42412 -1.76568 0
M  V30 6681 H 630.18 -1.28511 -0.889645 0
M  V30 6682 H 630.915 -0.30851 -3.22829 0
M  V30 6683 H 630.7 -2.08037 -3.3236 0
M  V30 6684 H 632.19 -1.32265 -3.96101 0
M  V30 6685 N 632.627 0.916307 -1.28225 0
M  V30 6686 C 633.59 1.99996 -1.11957 0
M  V30 6687 C 634.59 1.60688 -0.0600152 0
M  V30 6688 O 635.78 1.71499 -0.30558 0
M  V30 6689 C 632.912 3.33458 -0.708411 0
M  V30 6690 H 634.105 2.15858 -2.08196 0
M  V30 6691 H 631.658 1.09863 -1.11175 0
M  V30 6692 H 632.393 3.23297 0.254859 0
M  V30 6693 H 632.178 3.63349 -1.47377 0
M  V30 6694 H 633.668 4.13014 -0.617164 0
M  V30 6695 N 634.105 1.10431 1.1244 0
M  V30 6696 C 635.351 0.847972 1.84221 0
M  V30 6697 C 635.684 -0.624903 1.83871 0
M  V30 6698 O 634.959 -1.46074 1.28423 0
M  V30 6699 C 635.242 1.39695 3.319 0
M  V30 6700 C 635.095 2.93668 3.40704 0
M  V30 6701 C 636.414 1.03924 4.27654 0
M  V30 6702 H 633.533 0.309502 0.668863 0
M  V30 6703 H 636.175 1.36745 1.31912 0
M  V30 6704 H 634.325 0.955095 3.76577 0
M  V30 6705 H 635.997 3.46379 3.04662 0
M  V30 6706 H 634.24 3.30272 2.81252 0
M  V30 6707 H 634.911 3.27162 4.446 0
M  V30 6708 H 637.387 1.42049 3.91102 0
M  V30 6709 H 636.263 1.45027 5.29394 0
M  V30 6710 H 636.524 -0.051336 4.4207 0
M  V30 6711 N 635.583 -1.29855 0.893053 0
M  V30 6712 C 636.808 -2.00512 0.530066 0
M  V30 6713 C 637.233 -1.66446 -0.876199 0
M  V30 6714 O 636.591 -0.885446 -1.58207 0
M  V30 6715 C 636.639 -3.53308 0.721505 0
M  V30 6716 O 635.743 -4.11764 -0.228994 0
M  V30 6717 H 635.084 -0.630617 0.207891 0
M  V30 6718 H 637.614 -1.6551 1.20282 0
M  V30 6719 H 637.624 -4.03206 0.623599 0
M  V30 6720 H 636.299 -3.77439 1.74678 0
M  V30 6721 H 634.876 -3.72805 -0.0841034 0
M  V30 6722 N 637.061 -0.65484 -1.43351 0
M  V30 6723 C 638.024 0.0263562 -2.29185 0
M  V30 6724 C 639.024 0.748951 -1.42293 0
M  V30 6725 O 640.214 0.589957 -1.63906 0
M  V30 6726 C 637.346 1.04806 -3.2439 0
M  V30 6727 H 638.539 -0.728883 -2.90908 0
M  V30 6728 H 636.092 -0.416149 -1.50658 0
M  V30 6729 H 636.827 1.83247 -2.67565 0
M  V30 6730 H 636.612 0.533554 -3.88453 0
M  V30 6731 H 638.102 1.52372 -3.88809 0
M  V30 6732 N 638.539 1.52521 -0.396863 0
M  V30 6733 C 639.786 2.01672 0.182898 0
M  V30 6734 C 640.114 1.28302 1.46181 0
M  V30 6735 O 639.369 0.374118 1.92091 0
M  V30 6736 C 639.668 3.5403 0.489677 0
M  V30 6737 C 639.334 4.45456 -0.698581 0
M  V30 6738 C 637.996 4.70166 -1.02454 0
M  V30 6739 C 640.348 4.99354 -1.49316 0
M  V30 6740 C 637.676 5.46024 -2.1465 0
M  V30 6741 C 640.028 5.76439 -2.60579 0
M  V30 6742 C 638.692 5.99426 -2.93675 0
M  V30 6743 H 637.962 0.737971 0.066927 0
M  V30 6744 H 640.609 1.83853 -0.535764 0
M  V30 6745 H 638.914 3.69963 1.28976 0
M  V30 6746 H 640.611 3.8956 0.951018 0
M  V30 6747 H 637.201 4.26392 -0.434525 0
M  V30 6748 H 641.385 4.80182 -1.25457 0
M  V30 6749 H 636.641 5.62046 -2.40654 0
M  V30 6750 H 640.815 6.17202 -3.22544 0
M  V30 6751 H 638.442 6.57988 -3.80731 0
M  V30 6752 N 640.017 0.126909 1.57088 0
M  V30 6753 C 640.947 -0.816847 2.18746 0
M  V30 6754 C 641.928 -1.27161 1.12979 0
M  V30 6755 O 643.113 -1.33279 1.41246 0
M  V30 6756 C 640.243 -2.06398 2.79315 0
M  V30 6757 C 639.197 -1.74673 3.90735 0
M  V30 6758 C 638.523 -3.06482 4.38147 0
M  V30 6759 C 639.823 -1.0089 5.12463 0
M  V30 6760 H 641.517 -0.303032 2.97863 0
M  V30 6761 H 639.063 -0.144314 1.43275 0
M  V30 6762 H 641.016 -2.72885 3.2111 0
M  V30 6763 H 639.74 -2.60118 1.975 0
M  V30 6764 H 638.399 -1.10572 3.49527 0
M  V30 6765 H 638.047 -3.58152 3.5318 0
M  V30 6766 H 637.747 -2.86025 5.13287 0
M  V30 6767 H 639.271 -3.74073 4.82599 0
M  V30 6768 H 640.685 -1.57546 5.51228 0
M  V30 6769 H 639.082 -0.905006 5.93237 0
M  V30 6770 H 640.152 0.00297335 4.849 0
M  V30 6771 N 641.495 -1.56914 -0.146875 0
M  V30 6772 C 642.911 -1.51582 -0.499518 0
M  V30 6773 C 643.111 -0.83535 -1.83369 0
M  V30 6774 O 642.167 -0.405932 -2.49216 0
M  V30 6775 C 643.48 -2.96349 -0.509711 0
M  V30 6776 C 645.028 -3.07288 -0.595217 0
M  V30 6777 C 645.503 -4.53562 -0.636071 0
M  V30 6778 N 646.994 -4.57906 -0.69829 0
M  V30 6779 C 647.729 -5.68462 -0.750886 0
M  V30 6780 N 647.225 -6.88588 -0.76282 0
M  V30 6781 N 649.018 -5.56496 -0.791777 0
M  V30 6782 H 641.169 -1.99547 0.727656 0
M  V30 6783 H 643.432 -0.910113 0.265327 0
M  V30 6784 H 643.138 -3.4939 0.402409 0
M  V30 6785 H 643.012 -3.52307 -1.34758 0
M  V30 6786 H 645.399 -2.54266 -1.49776 0
M  V30 6787 H 645.48 -2.54373 0.2698 0
M  V30 6788 H 645.124 -5.07222 0.262313 0
M  V30 6789 H 645.054 -5.04259 -1.51758 0
M  V30 6790 H 647.545 -3.71429 -0.696362 0
M  V30 6791 H 647.858 -7.68598 -0.804804 0
M  V30 6792 H 646.203 -6.91148 -0.730694 0
M  V30 6793 H 649.394 -4.61562 -0.779624 0
M  V30 6794 H 649.567 -6.42671 -0.829301 0
M  V30 6795 N 642.974 0.416227 -1.52004 0
M  V30 6796 C 643.921 1.50666 -1.74838 0
M  V30 6797 C 644.891 1.55245 -0.590599 0
M  V30 6798 O 646.076 1.71928 -0.827374 0
M  V30 6799 C 643.216 2.88185 -1.89851 0
M  V30 6800 C 642.329 2.92971 -3.17478 0
M  V30 6801 C 641.464 4.21745 -3.22962 0
M  V30 6802 C 640.503 4.20478 -4.4482 0
M  V30 6803 N 639.64 5.40811 -4.47736 0
M  V30 6804 H 644.48 1.30498 -2.67907 0
M  V30 6805 H 642.017 0.633568 -1.32757 0
M  V30 6806 H 643.975 3.68007 -1.96537 0
M  V30 6807 H 642.605 3.06865 -1.00169 0
M  V30 6808 H 641.657 2.05684 -3.19997 0
M  V30 6809 H 642.969 2.87899 -4.07328 0
M  V30 6810 H 642.123 5.09954 -3.28682 0
M  V30 6811 H 640.862 4.29503 -2.31038 0
M  V30 6812 H 639.867 3.30659 -4.39254 0
M  V30 6813 H 641.092 4.14366 -5.38031 0
M  V30 6814 H 639.038 5.4925 -3.58692 0
M  V30 6815 H 638.955 5.37705 -5.31422 0
M  V30 6816 H 640.223 6.30993 -4.57676 0
M  V30 6817 N 644.452 1.42507 0.673017 0
M  V30 6818 C 645.682 1.46261 1.45916 0
M  V30 6819 C 646.09 0.0729724 1.89059 0
M  V30 6820 O 645.433 -0.922987 1.58829 0
M  V30 6821 C 645.495 2.32853 2.73898 0
M  V30 6822 C 645.159 3.80699 2.52819 0
M  V30 6823 C 646.156 4.72307 2.17306 0
M  V30 6824 C 643.841 4.24983 2.67758 0
M  V30 6825 C 645.835 6.06192 1.97003 0
M  V30 6826 C 643.522 5.58927 2.4707 0
M  V30 6827 C 644.52 6.49348 2.11746 0
M  V30 6828 O 644.208 7.80817 1.91259 0
M  V30 6829 H 643.94 0.499561 0.455428 0
M  V30 6830 H 646.494 1.87697 0.834196 0
M  V30 6831 H 644.724 1.86268 3.38882 0
M  V30 6832 H 646.413 2.28041 3.35786 0
M  V30 6833 H 647.179 4.39378 2.05359 0
M  V30 6834 H 643.058 3.54893 2.94231 0
M  V30 6835 H 646.602 6.76731 1.69355 0
M  V30 6836 H 642.499 5.91429 2.58615 0
M  V30 6837 H 643.267 7.92194 2.05843 0
M  V30 6838 N 645.93 -0.909495 1.28709 0
M  V30 6839 C 647.179 -1.65365 1.15487 0
M  V30 6840 C 647.492 -1.93364 -0.294941 0
M  V30 6841 O 648.698 -2.65905 -0.548338 0
M  V30 6842 C 647.154 -2.97923 2.01916 0
M  V30 6843 C 646.762 -2.77556 3.51663 0
M  V30 6844 C 648.506 -3.75814 1.97393 0
M  V30 6845 C 646.413 -4.0578 4.30229 0
M  V30 6846 H 645.343 -0.620323 0.42862 0
M  V30 6847 H 647.994 -1.00894 1.53273 0
M  V30 6848 H 646.376 -3.63552 1.5699 0
M  V30 6849 H 647.55 -2.2058 4.04575 0
M  V30 6850 H 645.865 -2.13072 3.57756 0
M  V30 6851 H 648.462 -4.70866 2.53357 0
M  V30 6852 H 648.805 -4.05277 0.951643 0
M  V30 6853 H 649.338 -3.1701 2.40311 0
M  V30 6854 H 646.077 -3.81488 5.33055 0
M  V30 6855 H 645.597 -4.62351 3.82089 0
M  V30 6856 H 647.276 -4.74004 4.40374 0
M  V30 6857 N 647.408 -1.11026 -1.11852 0
M  V30 6858 C 648.824 -0.843294 -1.35502 0
M  V30 6859 C 649.024 0.534179 -1.9429 0
M  V30 6860 O 648.08 1.28585 -2.17307 0
M  V30 6861 C 649.393 -1.94793 -2.29077 0
M  V30 6862 C 650.941 -1.97709 -2.42652 0
M  V30 6863 C 651.416 -3.07364 -3.39546 0
M  V30 6864 N 652.907 -3.0671 -3.47107 0
M  V30 6865 C 653.642 -3.88197 -4.22008 0
M  V30 6866 N 653.138 -4.79635 -4.99922 0
M  V30 6867 N 654.931 -3.76391 -4.17476 0
M  V30 6868 H 647.082 -1.99805 -0.720538 0
M  V30 6869 H 649.345 -0.868633 -0.379711 0
M  V30 6870 H 649.051 -2.93971 -1.93065 0
M  V30 6871 H 648.925 -1.84039 -3.29256 0
M  V30 6872 H 651.312 -0.991604 -2.77941 0
M  V30 6873 H 651.393 -2.1254 -1.4234 0
M  V30 6874 H 651.037 -4.06136 -3.04985 0
M  V30 6875 H 650.967 -2.89774 -4.39703 0
M  V30 6876 H 653.458 -2.40457 -2.91528 0
M  V30 6877 H 653.771 -5.38357 -5.54429 0
M  V30 6878 H 652.116 -4.8366 -4.99097 0
M  V30 6879 H 655.307 -3.04303 -3.55693 0
M  V30 6880 H 655.48 -4.40131 -4.75593 0
M  V30 6881 N 648.886 1.2938 -0.899927 0
M  V30 6882 C 650.114 1.99691 -0.541386 0
M  V30 6883 C 650.529 1.67355 0.873936 0
M  V30 6884 O 649.886 0.918728 1.57688 0
M  V30 6885 C 649.937 3.54168 -0.72438 0
M  V30 6886 O 649.658 3.85359 -2.08399 0
M  V30 6887 C 651.159 4.41746 -0.370819 0
M  V30 6888 H 648.379 0.638037 -0.207726 0
M  V30 6889 H 650.923 1.6491 -1.20934 0
M  V30 6890 H 649.078 3.87261 -0.103607 0
M  V30 6891 H 649.492 4.80032 -2.11352 0
M  V30 6892 H 650.966 5.49256 -0.549693 0
M  V30 6893 H 651.443 4.33712 0.692148 0
M  V30 6894 H 652.049 4.14125 -0.968543 0
M  V30 6895 N 650.364 0.662433 1.43002 0
M  V30 6896 C 651.274 -0.0239199 2.34588 0
M  V30 6897 C 652.29 -0.802255 1.54402 0
M  V30 6898 O 653.466 -0.747401 1.87018 0
M  V30 6899 C 650.531 -0.972098 3.32793 0
M  V30 6900 C 649.592 -0.189673 4.28881 0
M  V30 6901 C 648.825 -1.09269 5.22395 0
M  V30 6902 O 649.048 -2.33209 5.20547 0
M  V30 6903 O 647.982 -0.560136 5.99288 0
M  V30 6904 H 651.808 0.730171 2.94792 0
M  V30 6905 H 649.393 0.422635 1.43297 0
M  V30 6906 H 651.275 -1.51676 3.93157 0
M  V30 6907 H 649.95 -1.70626 2.75079 0
M  V30 6908 H 648.857 0.398794 3.71968 0
M  V30 6909 H 650.19 0.50511 4.89601 0
M  V30 6910 N 651.842 -1.52309 0.404946 0
M  V30 6911 C 653.089 -2.01767 -0.1722 0
M  V30 6912 C 653.417 -1.29075 -1.45498 0
M  V30 6913 O 652.672 -0.3843 -1.9189 0
M  V30 6914 C 652.971 -3.54284 -0.470895 0
M  V30 6915 C 652.637 -4.45079 0.722194 0
M  V30 6916 C 651.299 -4.69617 1.04946 0
M  V30 6917 C 653.651 -4.98555 1.51962 0
M  V30 6918 C 650.979 -5.44878 2.17543 0
M  V30 6919 C 653.331 -5.75049 2.63632 0
M  V30 6920 C 651.995 -5.9786 2.9685 0
M  V30 6921 H 651.265 -0.738316 -0.0630125 0
M  V30 6922 H 653.912 -1.83566 0.545506 0
M  V30 6923 H 652.217 -3.70642 -1.27012 0
M  V30 6924 H 653.914 -3.90058 -0.930346 0
M  V30 6925 H 650.504 -4.26155 0.457131 0
M  V30 6926 H 654.688 -4.79509 1.28002 0
M  V30 6927 H 649.944 -5.60762 2.43631 0
M  V30 6928 H 654.118 -6.15483 3.25813 0
M  V30 6929 H 651.745 -6.5596 3.84215 0
M  V30 6930 N 653.32 -0.135238 -1.57019 0
M  V30 6931 C 654.268 0.826099 -2.17436 0
M  V30 6932 C 655.262 1.26378 -1.12805 0
M  V30 6933 O 656.468 1.23363 -1.31079 0
M  V30 6934 H 652.843 0.284568 -0.696078 0
M  V30 6935 H 654.814 0.292212 -2.96966 0
M  V30 6936 C 653.563 2.05991 -2.80112 0
M  V30 6937 H 652.886 1.73209 -3.60331 0
M  V30 6938 H 654.326 2.71225 -3.25903 0
M  V30 6939 C 652.785 2.86027 -1.78017 0
M  V30 6940 O 653.315 3.81971 -1.24344 0
M  V30 6941 N 651.521 2.50332 -1.47588 0
M  V30 6942 H 651.068 1.72377 -1.91426 0
M  V30 6943 H 651.026 3.04177 -0.795228 0
M  V30 6944 N 654.798 1.5699 0.138552 0
M  V30 6945 C 655.728 2.01933 1.17241 0
M  V30 6946 C 656.709 0.90033 1.44319 0
M  V30 6947 O 657.894 1.16872 1.55095 0
M  V30 6948 C 655.024 2.40711 2.50351 0
M  V30 6949 C 653.978 3.55874 2.37776 0
M  V30 6950 C 653.304 3.80491 3.75674 0
M  V30 6951 C 654.604 4.8826 1.85472 0
M  V30 6952 H 656.298 2.88551 0.798672 0
M  V30 6953 H 653.844 1.3882 0.382743 0
M  V30 6954 H 655.797 2.70754 3.22909 0
M  V30 6955 H 654.521 1.5104 2.89576 0
M  V30 6956 H 653.18 3.2601 1.67669 0
M  V30 6957 H 652.828 2.88057 4.12349 0
M  V30 6958 H 652.528 4.57998 3.68119 0
M  V30 6959 H 654.052 4.12967 4.49767 0
M  V30 6960 H 655.466 5.16965 2.4783 0
M  V30 6961 H 653.863 5.69631 1.88787 0
M  V30 6962 H 654.933 4.78071 0.810935 0
M  V30 6963 N 656.276 -0.40816 1.52223 0
M  V30 6964 C 657.223 -1.49737 1.75635 0
M  V30 6965 C 658.193 -1.5493 0.598824 0
M  V30 6966 O 659.378 -1.71487 0.83648 0
M  V30 6967 C 656.518 -2.87174 1.91376 0
M  V30 6968 C 655.631 -2.91283 3.19027 0
M  V30 6969 C 654.766 -4.20026 3.25195 0
M  V30 6970 C 653.805 -4.18113 4.47044 0
M  V30 6971 N 652.942 -5.38429 4.50598 0
M  V30 6972 H 657.782 -1.29075 2.68596 0
M  V30 6973 H 655.319 -0.626518 1.33091 0
M  V30 6974 H 657.277 -3.66959 1.98486 0
M  V30 6975 H 655.907 -3.06329 1.01795 0
M  V30 6976 H 654.959 -2.03984 3.21084 0
M  V30 6977 H 656.271 -2.85734 4.08849 0
M  V30 6978 H 655.425 -5.08204 3.31382 0
M  V30 6979 H 654.164 -4.28271 2.33313 0
M  V30 6980 H 653.169 -3.28325 4.41002 0
M  V30 6981 H 654.394 -4.11507 5.40221 0
M  V30 6982 H 652.34 -5.4734 3.616 0
M  V30 6983 H 652.257 -5.34879 5.34266 0
M  V30 6984 H 653.525 -6.28557 4.61016 0
M  V30 6985 N 657.755 -1.42862 -0.66545 0
M  V30 6986 C 659.003 -1.43546 -1.42264 0
M  V30 6987 C 659.324 -0.0563116 -1.94919 0
M  V30 6988 O 658.594 0.906568 -1.73661 0
M  V30 6989 H 657.174 -0.528464 -0.527953 0
M  V30 6990 H 659.836 -1.78363 -0.785665 0
M  V30 6991 H 658.932 -2.14079 -2.27105 0
M  V30 6992 N 659.233 0.902656 -1.29189 0
M  V30 6993 C 660.48 1.65287 -1.16989 0
M  V30 6994 C 660.808 1.92485 0.279232 0
M  V30 6995 O 660.063 1.53143 1.21843 0
M  V30 6996 C 660.362 3.011 -1.92545 0
M  V30 6997 C 660.028 2.93521 -3.42281 0
M  V30 6998 C 658.69 2.91161 -3.83117 0
M  V30 6999 C 661.042 2.82947 -4.3771 0
M  V30 7000 C 658.37 2.76043 -5.17704 0
M  V30 7001 C 660.722 2.69368 -5.72384 0
M  V30 7002 C 659.386 2.65373 -6.12482 0
M  V30 7003 H 658.656 0.604828 -0.428094 0
M  V30 7004 H 661.303 1.05084 -1.60092 0
M  V30 7005 H 659.608 3.65153 -1.42024 0
M  V30 7006 H 661.305 3.58073 -1.80512 0
M  V30 7007 H 657.895 2.96158 -3.09819 0
M  V30 7008 H 662.079 2.83849 -4.07116 0
M  V30 7009 H 657.335 2.71352 -5.47885 0
M  V30 7010 H 661.509 2.60156 -6.45981 0
M  V30 7011 H 659.136 2.53415 -7.16718 0
M  V30 7012 N 660.711 1.11618 1.11262 0
M  V30 7013 C 661.936 0.889013 1.8738 0
M  V30 7014 C 662.361 -0.555884 1.79698 0
M  V30 7015 O 661.719 -1.39272 1.16073 0
M  V30 7016 C 661.767 1.35759 3.34069 0
M  V30 7017 O 660.871 0.530499 4.08974 0
M  V30 7018 H 660.212 0.320082 0.581759 0
M  V30 7019 H 662.742 1.48611 1.40627 0
M  V30 7020 H 662.752 1.35291 3.84916 0
M  V30 7021 H 661.427 2.40973 3.38976 0
M  V30 7022 H 660.004 0.601439 3.68018 0
M  V30 7023 N 662.189 -1.289 0.906776 0
M  V30 7024 C 663.099 -2.31256 0.394707 0
M  V30 7025 C 664.115 -1.66231 -0.514121 0
M  V30 7026 O 665.291 -1.97347 -0.401994 0
M  V30 7027 C 662.356 -3.44792 -0.363191 0
M  V30 7028 C 661.417 -4.25391 0.578012 0
M  V30 7029 C 660.65 -5.33506 -0.143811 0
M  V30 7030 O 660.873 -5.53786 -1.36665 0
M  V30 7031 O 659.807 -5.99673 0.5173 0
M  V30 7032 H 663.633 -2.77051 1.24405 0
M  V30 7033 H 661.218 -1.33466 0.671346 0
M  V30 7034 H 663.1 -4.139 -0.791503 0
M  V30 7035 H 661.775 -3.01093 -1.18848 0
M  V30 7036 H 660.682 -3.58899 1.05558 0
M  V30 7037 H 662.015 -4.72752 1.36992 0
M  V30 7038 N 663.667 -0.670007 -1.42649 0
M  V30 7039 C 664.599 0.0501746 -2.29145 0
M  V30 7040 C 665.612 0.770331 -1.43422 0
M  V30 7041 O 666.801 0.625288 -1.6719 0
M  V30 7042 C 663.901 1.09463 -3.20735 0
M  V30 7043 C 663.074 0.44926 -4.35087 0
M  V30 7044 C 662.133 1.39285 -5.07431 0
M  V30 7045 O 661.159 0.894997 -5.6212 0
M  V30 7046 N 662.361 2.72631 -5.12496 0
M  V30 7047 H 665.126 -0.692312 -2.91594 0
M  V30 7048 H 662.687 -0.514056 -1.53522 0
M  V30 7049 H 664.679 1.72705 -3.65999 0
M  V30 7050 H 663.249 1.73891 -2.59771 0
M  V30 7051 H 662.469 -0.362573 -3.92529 0
M  V30 7052 H 663.757 -0.000544776 -5.088 0
M  V30 7053 H 663.155 3.15623 -4.69467 0
M  V30 7054 H 661.712 3.31132 -5.61422 0
M  V30 7055 N 665.145 1.52092 -0.413018 0
M  V30 7056 C 666.393 2.01456 0.161178 0
M  V30 7057 C 666.714 1.30034 1.45314 0
M  V30 7058 O 665.984 0.427435 1.9118 0
M  V30 7059 H 664.564 0.744376 0.0625526 0
M  V30 7060 H 667.226 1.86974 -0.550151 0
M  V30 7061 H 666.322 3.1008 0.354517 0
M  V30 7062 N 666.623 0.143563 1.56945 0
M  V30 7063 C 667.872 -0.50835 1.95189 0
M  V30 7064 C 668.185 -1.66239 1.03073 0
M  V30 7065 O 669.391 -2.3787 1.30882 0
M  V30 7066 C 667.847 -0.955735 3.46978 0
M  V30 7067 C 667.455 0.171183 4.47673 0
M  V30 7068 C 669.199 -1.57763 3.94095 0
M  V30 7069 C 667.106 -0.294279 5.90667 0
M  V30 7070 H 666.036 -0.193679 0.728701 0
M  V30 7071 H 668.687 0.227357 1.82086 0
M  V30 7072 H 667.069 -1.7466 3.55401 0
M  V30 7073 H 668.243 0.948049 4.50942 0
M  V30 7074 H 666.558 0.701273 4.10452 0
M  V30 7075 H 669.155 -1.93745 4.98364 0
M  V30 7076 H 669.498 -2.46531 3.35452 0
M  V30 7077 H 670.031 -0.851728 3.88575 0
M  V30 7078 H 666.77 0.557939 6.53121 0
M  V30 7079 H 666.29 -1.0371 5.90766 0
M  V30 7080 H 667.969 -0.747426 6.42668 0
M  V30 7081 N 668.101 -1.57061 -0.130224 0
M  V30 7082 C 669.011 -2.02802 -1.17934 0
M  V30 7083 C 670.027 -0.946378 -1.46013 0
M  V30 7084 O 671.203 -1.25708 -1.57351 0
M  V30 7085 C 668.268 -2.41368 -2.48882 0
M  V30 7086 C 667.329 -3.63561 -2.28301 0
M  V30 7087 C 666.562 -4.00279 -3.53005 0
M  V30 7088 O 666.785 -3.37463 -4.59864 0
M  V30 7089 O 665.719 -4.93441 -3.44673 0
M  V30 7090 H 669.545 -2.92394 -0.820958 0
M  V30 7091 H 667.13 -1.45475 -0.340197 0
M  V30 7092 H 669.012 -2.66958 -3.26054 0
M  V30 7093 H 667.687 -1.54926 -2.84217 0
M  V30 7094 H 666.594 -3.43136 -1.49025 0
M  V30 7095 H 667.927 -4.50673 -1.97875 0
M  V30 7096 N 669.579 0.400081 -1.52437 0
M  V30 7097 C 670.509 1.4947 -1.7939 0
M  V30 7098 C 671.49 1.57383 -0.645329 0
M  V30 7099 O 672.675 1.72511 -0.891826 0
M  V30 7100 C 669.805 2.87201 -1.95276 0
M  V30 7101 C 668.759 2.94134 -3.10917 0
M  V30 7102 C 668.085 4.34207 -3.1204 0
M  V30 7103 C 669.385 2.64791 -4.50203 0
M  V30 7104 H 671.079 1.27165 -2.71052 0
M  V30 7105 H 668.625 0.610312 -1.30427 0
M  V30 7106 H 670.578 3.63772 -2.12715 0
M  V30 7107 H 669.302 3.10819 -1.00294 0
M  V30 7108 H 667.961 2.20009 -2.93243 0
M  V30 7109 H 667.609 4.54848 -2.14761 0
M  V30 7110 H 667.309 4.39768 -3.89715 0
M  V30 7111 H 668.833 5.127 -3.31619 0
M  V30 7112 H 670.247 3.31083 -4.68035 0
M  V30 7113 H 668.644 2.81717 -5.29864 0
M  V30 7114 H 669.714 1.60184 -4.57678 0
M  V30 7115 N 671.057 1.43213 0.657864 0
M  V30 7116 C 672.287 1.478 1.44356 0
M  V30 7117 C 672.695 0.0930206 1.88971 0
M  V30 7118 O 672.038 -0.906089 1.59799 0
M  V30 7119 C 672.1 2.35745 2.71412 0
M  V30 7120 C 671.764 3.83359 2.48767 0
M  V30 7121 C 672.761 4.74585 2.12285 0
M  V30 7122 C 670.446 4.27799 2.63235 0
M  V30 7123 C 672.44 6.08247 1.90562 0
M  V30 7124 C 670.127 5.61516 2.41128 0
M  V30 7125 C 671.125 6.51557 2.04847 0
M  V30 7126 O 670.813 7.82802 1.82967 0
M  V30 7127 H 670.545 0.504363 0.450104 0
M  V30 7128 H 673.099 1.88572 0.814241 0
M  V30 7129 H 671.329 1.89852 3.36887 0
M  V30 7130 H 673.018 2.31589 3.33348 0
M  V30 7131 H 673.784 4.41531 2.00687 0
M  V30 7132 H 669.663 3.57993 2.90451 0
M  V30 7133 H 673.207 6.78489 1.62168 0
M  V30 7134 H 669.104 5.94139 2.52327 0
M  V30 7135 H 669.872 7.94332 1.97429 0
M  V30 7136 N 672.536 -0.895792 1.29666 0
M  V30 7137 C 673.466 -2.01673 1.17688 0
M  V30 7138 C 674.447 -1.69955 0.0701317 0
M  V30 7139 O 675.632 -1.9258 0.250289 0
M  V30 7140 C 672.762 -3.36568 0.856681 0
M  V30 7141 C 671.716 -3.82509 1.92017 0
M  V30 7142 C 671.042 -5.14574 1.4532 0
M  V30 7143 C 672.342 -4.02409 3.32963 0
M  V30 7144 H 674.036 -2.11953 2.11463 0
M  V30 7145 H 671.582 -1.01839 1.01807 0
M  V30 7146 H 673.535 -4.14498 0.759577 0
M  V30 7147 H 672.259 -3.26391 -0.116763 0
M  V30 7148 H 670.918 -3.068 2.00673 0
M  V30 7149 H 670.566 -5.00815 0.468325 0
M  V30 7150 H 670.266 -5.46283 2.16447 0
M  V30 7151 H 671.79 -5.9504 1.36968 0
M  V30 7152 H 673.204 -4.70808 3.27127 0
M  V30 7153 H 671.601 -4.45478 4.02082 0
M  V30 7154 H 672.671 -3.06616 3.75652 0
M  V30 7155 N 674.014 -1.12206 -1.10668 0
M  V30 7156 C 675.43 -0.857619 -1.346 0
M  V30 7157 C 675.63 0.513542 -1.94846 0
M  V30 7158 O 674.686 1.26273 -2.18658 0
M  V30 7159 C 675.999 -1.97212 -2.26998 0
M  V30 7160 C 677.547 -2.00272 -2.40542 0
M  V30 7161 C 678.022 -3.10948 -3.36267 0
M  V30 7162 N 679.513 -3.10375 -3.43834 0
M  V30 7163 C 680.248 -3.92651 -4.17867 0
M  V30 7164 N 679.744 -4.84911 -4.94807 0
M  V30 7165 N 681.537 -3.80798 -4.1346 0
M  V30 7166 H 673.688 -2.00558 -0.699306 0
M  V30 7167 H 675.951 -0.872612 -0.370477 0
M  V30 7168 H 675.657 -2.96002 -1.89936 0
M  V30 7169 H 675.531 -1.87521 -3.27286 0
M  V30 7170 H 677.918 -1.02103 -2.76874 0
M  V30 7171 H 677.999 -2.14037 -1.40077 0
M  V30 7172 H 677.643 -4.09348 -3.00661 0
M  V30 7173 H 677.573 -2.94421 -4.36605 0
M  V30 7174 H 680.064 -2.43536 -2.88961 0
M  V30 7175 H 680.377 -5.44207 -5.48688 0
M  V30 7176 H 678.722 -4.88926 -4.93939 0
M  V30 7177 H 681.913 -3.08058 -3.52445 0
M  V30 7178 H 682.086 -4.4515 -4.70898 0
M  V30 7179 N 675.492 1.28418 -0.913599 0
M  V30 7180 C 676.439 2.27301 -0.400373 0
M  V30 7181 C 677.409 1.57582 0.52509 0
M  V30 7182 O 678.594 1.85482 0.447318 0
M  V30 7183 C 675.734 3.43284 0.35361 0
M  V30 7184 C 674.847 4.27752 -0.604341 0
M  V30 7185 C 673.982 5.30934 0.168075 0
M  V30 7186 C 673.021 6.07065 -0.783499 0
M  V30 7187 N 672.158 7.02086 -0.0446112 0
M  V30 7188 H 676.998 2.70579 -1.24865 0
M  V30 7189 H 674.535 1.33067 -0.627028 0
M  V30 7190 H 676.493 4.09322 0.806945 0
M  V30 7191 H 675.123 3.00997 1.16623 0
M  V30 7192 H 674.175 3.61759 -1.17621 0
M  V30 7193 H 675.487 4.80682 -1.33216 0
M  V30 7194 H 674.641 6.02855 0.681979 0
M  V30 7195 H 673.38 4.78771 0.928947 0
M  V30 7196 H 672.385 5.33995 -1.30878 0
M  V30 7197 H 673.61 6.61317 -1.54392 0
M  V30 7198 H 671.556 6.52273 0.698272 0
M  V30 7199 H 671.473 7.52637 -0.712258 0
M  V30 7200 H 672.741 7.78205 0.449102 0
M  V30 7201 N 676.97 0.677563 1.42291 0
M  V30 7202 C 678.386 0.347376 1.55774 0
M  V30 7203 C 678.586 -1.14703 1.65667 0
M  V30 7204 O 677.642 -1.93252 1.62512 0
M  V30 7205 C 678.955 1.08011 2.80631 0
M  V30 7206 C 680.503 1.06271 2.94407 0
M  V30 7207 C 680.978 1.77683 4.22129 0
M  V30 7208 N 682.469 1.74564 4.29047 0
M  V30 7209 C 683.204 2.26673 5.26694 0
M  V30 7210 N 682.7 2.87176 6.30477 0
M  V30 7211 N 684.493 2.17032 5.18511 0
M  V30 7212 H 676.644 1.64703 1.34114 0
M  V30 7213 H 678.907 0.694038 0.645768 0
M  V30 7214 H 678.613 2.13518 2.79469 0
M  V30 7215 H 678.487 0.647115 3.71608 0
M  V30 7216 H 680.874 0.0159658 2.95096 0
M  V30 7217 H 680.955 1.53461 2.04654 0
M  V30 7218 H 680.599 2.82327 4.22201 0
M  V30 7219 H 680.529 1.2794 5.10822 0
M  V30 7220 H 683.02 1.30436 3.54676 0
M  V30 7221 H 683.333 3.24551 7.01346 0
M  V30 7222 H 681.678 2.91247 6.31031 0
M  V30 7223 H 684.869 1.69451 4.36353 0
M  V30 7224 H 685.042 2.57948 5.94446 0
M  V30 7225 N 678.448 -1.51871 0.421078 0
M  V30 7226 C 679.398 -2.24171 -0.416111 0
M  V30 7227 C 680.382 -1.25763 -1.00362 0
M  V30 7228 O 681.574 -1.5094 -0.924452 0
M  V30 7229 C 678.703 -3.07533 -1.52571 0
M  V30 7230 C 677.789 -4.1336 -0.948399 0
M  V30 7231 N 678.18 -5.05704 -0.0987933 0
M  V30 7232 C 676.478 -4.29055 -1.21768 0
M  V30 7233 C 677.179 -5.8127 0.223705 0
M  V30 7234 N 676.155 -5.4221 -0.388524 0
M  V30 7235 H 679.957 -2.92925 0.239166 0
M  V30 7236 H 677.471 -1.60732 0.232191 0
M  V30 7237 H 679.468 -3.57893 -2.13819 0
M  V30 7238 H 678.128 -2.4032 -2.18349 0
M  V30 7239 H 679.139 -5.17214 0.266428 0
M  V30 7240 H 675.816 -3.73071 -1.87416 0
M  V30 7241 H 677.206 -6.65653 0.914076 0
M  V30 7242 N 679.926 -0.151884 -1.56866 0
M  V30 7243 C 680.876 0.797799 -2.13586 0
M  V30 7244 C 681.86 1.20613 -1.06496 0
M  V30 7245 O 683.052 1.17173 -1.32663 0
M  V30 7246 C 680.181 2.03493 -2.76488 0
M  V30 7247 C 679.267 1.64948 -3.90708 0
M  V30 7248 N 679.658 0.972513 -4.96363 0
M  V30 7249 C 677.956 1.94186 -4.01507 0
M  V30 7250 C 678.657 0.785661 -5.7637 0
M  V30 7251 N 677.633 1.32105 -5.27304 0
M  V30 7252 H 681.435 0.271403 -2.92644 0
M  V30 7253 H 678.949 0.049487 -1.62325 0
M  V30 7254 H 680.946 2.72532 -3.15487 0
M  V30 7255 H 679.606 2.56646 -1.98904 0
M  V30 7256 H 680.617 0.632724 -5.1402 0
M  V30 7257 H 677.294 2.49154 -3.35005 0
M  V30 7258 H 678.684 0.251749 -6.71428 0
M  V30 7259 N 681.404 1.57128 0.121893 0
M  V30 7260 C 682.314 2.03425 1.16857 0
M  V30 7261 C 683.33 0.954108 1.45509 0
M  V30 7262 O 684.506 1.26541 1.56682 0
M  V30 7263 C 681.571 2.42685 2.47599 0
M  V30 7264 C 680.632 3.64767 2.2637 0
M  V30 7265 C 679.865 4.02145 3.50878 0
M  V30 7266 O 680.088 3.39897 4.58068 0
M  V30 7267 O 679.022 4.95262 3.42051 0
M  V30 7268 H 682.848 2.92825 0.80544 0
M  V30 7269 H 680.433 1.45654 0.332477 0
M  V30 7270 H 682.315 2.68684 3.24634 0
M  V30 7271 H 680.99 1.56432 2.83392 0
M  V30 7272 H 679.897 3.43922 1.47203 0
M  V30 7273 H 681.23 4.51716 1.95482 0
M  V30 7274 N 682.882 -0.391992 1.52647 0
M  V30 7275 C 684.293 -0.970064 1.5952 0
M  V30 7276 C 684.644 -1.91059 0.446207 0
M  V30 7277 O 683.769 -2.12062 -0.431125 0
M  V30 7278 C 684.364 -1.76614 2.89125 0
M  V30 7279 C 682.923 -2.29396 2.9842 0
M  V30 7280 C 682.07 -1.09864 2.54608 0
M  V30 7281 H 685.021 -0.171638 1.57769 0
M  V30 7282 H 685.042 -2.62511 2.75442 0
M  V30 7283 H 684.554 -1.08135 3.72731 0
M  V30 7284 H 682.655 -3.01196 2.19344 0
M  V30 7285 H 682.768 -2.59088 4.03002 0
M  V30 7286 H 681.132 -1.45777 2.08857 0
M  V30 7287 H 681.915 -0.429249 3.40606 0
M  V30 7288 N 684.36 -1.4356 -0.65026 0
M  V30 7289 C 685.608 -1.45046 -1.40734 0
M  V30 7290 C 685.929 -0.0769822 -1.94848 0
M  V30 7291 O 685.199 0.888098 -1.74613 0
M  V30 7292 H 683.779 -0.534034 -0.522318 0
M  V30 7293 H 686.441 -1.79186 -0.766703 0
M  V30 7294 H 685.537 -2.16476 -2.24822 0
M  V30 7295 N 685.838 0.888903 -1.30139 0
M  V30 7296 C 687.084 1.6428 -1.18912 0
M  V30 7297 C 687.417 1.92499 0.256477 0
M  V30 7298 O 686.692 1.54312 1.18397 0
M  V30 7299 C 686.975 2.9851 -2.01405 0
M  V30 7300 C 686.828 2.77288 -3.54163 0
M  V30 7301 C 688.147 3.99383 -1.84882 0
M  V30 7302 H 685.266 0.596148 -0.433333 0
M  V30 7303 H 687.908 1.0289 -1.5973 0
M  V30 7304 H 686.058 3.50907 -1.66722 0
M  V30 7305 H 687.73 2.31709 -3.98884 0
M  V30 7306 H 685.973 2.11867 -3.78543 0
M  V30 7307 H 686.644 3.72717 -4.07168 0
M  V30 7308 H 689.12 3.56132 -2.15196 0
M  V30 7309 H 687.996 4.91222 -2.44934 0
M  V30 7310 H 688.257 4.34674 -0.806902 0
M  V30 7311 N 687.317 1.12792 1.10072 0
M  V30 7312 C 688.28 0.802264 2.14701 0
M  V30 7313 C 689.28 -0.18515 1.59731 0
M  V30 7314 O 690.47 0.041109 1.74151 0
M  V30 7315 C 687.602 0.19285 3.40354 0
M  V30 7316 H 688.795 1.72932 2.45019 0
M  V30 7317 H 686.348 0.931662 1.25498 0
M  V30 7318 H 687.083 -0.743748 3.15656 0
M  V30 7319 H 686.868 0.903827 3.81541 0
M  V30 7320 H 688.358 -0.0183704 4.17596 0
M  V30 7321 N 688.795 -1.27931 0.920396 0
M  V30 7322 C 690.072 -1.89728 0.475687 0
M  V30 7323 C 690.452 -1.8337 -1.04588 0
M  V30 7324 O 689.8 -1.27404 -1.89685 0
M  V30 7325 C 690.01 -3.33959 1.01354 0
M  V30 7326 C 691.358 -4.10907 1.06963 0
M  V30 7327 O 692.382 -3.42945 0.962646 0
M  V30 7328 O 691.241 -5.32399 1.23343 0
M  V30 7329 H 688.335 -0.81294 0.151845 0
M  V30 7330 H 690.881 -1.36252 1.01161 0
M  V30 7331 H 689.653 -3.32843 2.05746 0
M  V30 7332 H 689.276 -3.94944 0.458829 0
M  V30 7333 N 690.273 -0.685099 -1.4193 0
M  V30 7334 C 691.689 -0.355632 -1.55587 0
M  V30 7335 C 691.889 1.13823 -1.66273 0
M  V30 7336 O 690.945 1.92387 -1.63534 0
M  V30 7337 C 692.258 -1.09498 -2.80055 0
M  V30 7338 C 693.806 -1.07831 -2.93839 0
M  V30 7339 C 694.281 -1.79919 -4.21181 0
M  V30 7340 N 695.772 -1.76837 -4.28115 0
M  V30 7341 C 696.507 -2.29463 -5.25485 0
M  V30 7342 N 696.003 -2.90516 -6.28945 0
M  V30 7343 N 697.796 -2.19779 -5.17353 0
M  V30 7344 H 689.947 -1.65412 -1.33239 0
M  V30 7345 H 692.21 -0.697453 -0.642078 0
M  V30 7346 H 691.916 -2.14997 -2.78333 0
M  V30 7347 H 691.79 -0.666813 -3.71259 0
M  V30 7348 H 694.177 -0.0316152 -2.95083 0
M  V30 7349 H 694.258 -1.54545 -2.03837 0
M  V30 7350 H 693.902 -2.84562 -4.20698 0
M  V30 7351 H 693.832 -1.30647 -5.10136 0
M  V30 7352 H 696.323 -1.32315 -3.53979 0
M  V30 7353 H 696.636 -3.28266 -6.99615 0
M  V30 7354 H 694.981 -2.94589 -6.29478 0
M  V30 7355 H 698.172 -1.71763 -4.35448 0
M  V30 7356 H 698.345 -2.61097 -5.9307 0
M  V30 7357 N 691.751 1.51645 -0.429126 0
M  V30 7358 C 692.681 2.30434 0.377148 0
M  V30 7359 C 693.662 1.35493 1.02838 0
M  V30 7360 O 694.847 1.6441 1.03359 0
M  V30 7361 C 691.977 3.14038 1.48315 0
M  V30 7362 C 690.931 4.1719 0.955855 0
M  V30 7363 C 690.257 4.89263 2.15698 0
M  V30 7364 C 691.557 5.223 -0.00402136 0
M  V30 7365 H 693.251 2.98085 -0.280336 0
M  V30 7366 H 690.797 1.43354 -0.136265 0
M  V30 7367 H 692.75 3.67933 2.05435 0
M  V30 7368 H 691.474 2.44193 2.16881 0
M  V30 7369 H 690.133 3.64335 0.406929 0
M  V30 7370 H 689.781 4.15929 2.82864 0
M  V30 7371 H 689.481 5.59009 1.81059 0
M  V30 7372 H 691.005 5.45978 2.73387 0
M  V30 7373 H 692.419 5.71315 0.476607 0
M  V30 7374 H 690.816 5.99525 -0.26258 0
M  V30 7375 H 691.886 4.75638 -0.943236 0
M  V30 7376 N 693.229 0.160201 1.56784 0
M  V30 7377 C 694.478 -0.487619 1.95717 0
M  V30 7378 C 694.791 -1.65136 1.0483 0
M  V30 7379 O 695.997 -2.36468 1.33398 0
M  V30 7380 C 694.453 -0.91888 3.47972 0
M  V30 7381 C 694.061 0.218655 4.47466 0
M  V30 7382 C 695.805 -1.53575 3.95746 0
M  V30 7383 C 693.712 -0.231614 5.90946 0
M  V30 7384 H 692.642 -0.185939 0.730714 0
M  V30 7385 H 695.293 0.246657 1.81835 0
M  V30 7386 H 693.675 -1.70881 3.57234 0
M  V30 7387 H 694.849 0.995825 4.49911 0
M  V30 7388 H 693.164 0.744767 4.09685 0
M  V30 7389 H 695.761 -1.88448 5.00391 0
M  V30 7390 H 696.104 -2.42959 3.38048 0
M  V30 7391 H 696.637 -0.810467 3.89456 0
M  V30 7392 H 693.376 0.62718 6.52493 0
M  V30 7393 H 692.896 -0.974379 5.91833 0
M  V30 7394 H 694.575 -0.67922 6.43425 0
M  V30 7395 N 694.707 -1.5719 -0.113559 0
M  V30 7396 C 696.123 -1.52607 -0.467253 0
M  V30 7397 C 696.323 -0.874058 -1.81556 0
M  V30 7398 O 695.379 -0.458703 -2.48299 0
M  V30 7399 C 696.692 -2.97363 -0.446736 0
M  V30 7400 C 698.24 -3.08482 -0.529903 0
M  V30 7401 C 698.715 -4.54809 -0.539721 0
M  V30 7402 N 700.206 -4.59284 -0.601005 0
M  V30 7403 C 700.941 -5.69927 -0.630138 0
M  V30 7404 N 700.437 -6.90051 -0.616589 0
M  V30 7405 N 702.23 -5.5805 -0.673558 0
M  V30 7406 H 694.381 -1.97958 0.769819 0
M  V30 7407 H 696.644 -0.90428 0.284572 0
M  V30 7408 H 696.35 -3.48458 0.47643 0
M  V30 7409 H 696.224 -3.55086 -1.27254 0
M  V30 7410 H 698.611 -2.57386 -1.44349 0
M  V30 7411 H 698.692 -2.53744 0.323695 0
M  V30 7412 H 698.336 -5.06552 0.369843 0
M  V30 7413 H 698.266 -5.07364 -1.41028 0
M  V30 7414 H 700.757 -3.72822 -0.617419 0
M  V30 7415 H 701.07 -7.70132 -0.641592 0
M  V30 7416 H 699.415 -6.92543 -0.583927 0
M  V30 7417 H 702.606 -4.63112 -0.681544 0
M  V30 7418 H 702.779 -6.44286 -0.692794 0
M  V30 7419 N 696.185 0.383891 -1.52853 0
M  V30 7420 C 697.115 1.47559 -1.80965 0
M  V30 7421 C 698.096 1.5669 -0.661986 0
M  V30 7422 O 699.281 1.71556 -0.910072 0
M  V30 7423 C 696.411 2.85114 -1.98312 0
M  V30 7424 C 695.365 2.9082 -3.14019 0
M  V30 7425 C 694.691 4.30873 -3.16627 0
M  V30 7426 C 695.991 2.60001 -4.52986 0
M  V30 7427 H 697.685 1.24283 -2.72386 0
M  V30 7428 H 695.231 0.596445 -1.31067 0
M  V30 7429 H 697.184 3.61496 -2.16561 0
M  V30 7430 H 695.908 3.09738 -1.03585 0
M  V30 7431 H 694.567 2.16886 -2.9556 0
M  V30 7432 H 694.215 4.52545 -2.19573 0
M  V30 7433 H 693.915 4.3561 -3.94357 0
M  V30 7434 H 695.439 5.09154 -3.37038 0
M  V30 7435 H 696.853 3.261 -4.71521 0
M  V30 7436 H 695.25 2.76081 -5.32822 0
M  V30 7437 H 696.32 1.5532 -4.59351 0
M  V30 7438 N 697.663 1.43903 0.642637 0
M  V30 7439 C 698.593 1.52697 1.76652 0
M  V30 7440 C 699.574 0.380816 1.65782 0
M  V30 7441 O 700.759 0.599432 1.84717 0
M  V30 7442 C 697.889 1.45975 3.15133 0
M  V30 7443 C 696.843 2.58949 3.40778 0
M  V30 7444 C 696.169 2.37279 4.79169 0
M  V30 7445 C 697.469 4.01153 3.34475 0
M  V30 7446 H 699.163 2.46766 1.69549 0
M  V30 7447 H 696.709 1.18767 0.814279 0
M  V30 7448 H 698.662 1.5073 3.93521 0
M  V30 7449 H 697.386 0.484162 3.22991 0
M  V30 7450 H 696.045 2.53564 2.64765 0
M  V30 7451 H 695.693 1.37939 4.83717 0
M  V30 7452 H 695.393 3.13016 4.97287 0
M  V30 7453 H 696.917 2.43834 5.59801 0
M  V30 7454 H 698.331 4.07968 4.02784 0
M  V30 7455 H 696.728 4.77001 3.64129 0
M  V30 7456 H 697.798 4.25539 2.32475 0
M  V30 7457 N 699.141 -0.881989 1.30609 0
M  V30 7458 C 700.073 -1.99375 1.13058 0
M  V30 7459 C 701.086 -1.62636 0.0729879 0
M  V30 7460 O 702.275 -1.75621 0.319301 0
M  V30 7461 C 699.375 -3.31536 0.702651 0
M  V30 7462 C 698.548 -3.96693 1.84265 0
M  V30 7463 C 697.607 -5.07158 1.40277 0
M  V30 7464 O 696.633 -5.28628 2.11048 0
M  V30 7465 N 697.835 -5.79808 0.283449 0
M  V30 7466 H 700.6 -2.14981 2.08814 0
M  V30 7467 H 698.161 -1.05526 1.22784 0
M  V30 7468 H 700.153 -4.02804 0.391331 0
M  V30 7469 H 698.723 -3.12175 -0.162954 0
M  V30 7470 H 697.943 -3.1856 2.32192 0
M  V30 7471 H 699.231 -4.36964 2.60653 0
M  V30 7472 H 698.629 -5.64871 -0.306189 0
M  V30 7473 H 697.186 -6.51792 0.0315985 0
M  V30 7474 N 700.619 -1.13374 -1.09472 0
M  V30 7475 C 701.529 -0.824029 -2.19652 0
M  V30 7476 C 702.545 0.19118 -1.72947 0
M  V30 7477 O 703.721 0.0223464 -2.01388 0
M  V30 7478 C 700.786 -0.294009 -3.45451 0
M  V30 7479 C 699.847 -1.3704 -4.0684 0
M  V30 7480 C 699.08 -0.86558 -5.26634 0
M  V30 7481 O 699.303 0.29702 -5.69626 0
M  V30 7482 O 698.237 -1.63968 -5.79136 0
M  V30 7483 H 702.063 -1.74454 -2.48595 0
M  V30 7484 H 699.648 -0.911155 -1.18399 0
M  V30 7485 H 701.53 -0.00381039 -4.214 0
M  V30 7486 H 700.205 0.598921 -3.18111 0
M  V30 7487 H 699.112 -1.71391 -3.3253 0
M  V30 7488 H 700.445 -2.23746 -4.38405 0
M  V30 7489 N 702.098 1.27442 -0.927168 0
M  V30 7490 C 703.326 1.98498 -0.583622 0
M  V30 7491 C 703.741 1.69171 0.838241 0
M  V30 7492 O 703.098 0.951969 1.55704 0
M  V30 7493 C 703.149 3.52552 -0.799341 0
M  V30 7494 O 702.87 3.80851 -2.16527 0
M  V30 7495 C 704.371 4.4086 -0.464436 0
M  V30 7496 H 701.591 0.633487 -0.221213 0
M  V30 7497 H 704.135 1.62308 -1.24404 0
M  V30 7498 H 702.29 3.86955 -0.185728 0
M  V30 7499 H 702.704 4.75441 -2.21487 0
M  V30 7500 H 704.178 5.47967 -0.666075 0
M  V30 7501 H 704.655 4.35082 0.599995 0
M  V30 7502 H 705.261 4.11977 -1.05617 0
M  V30 7503 N 703.576 0.692616 1.41565 0
M  V30 7504 C 704.801 0.229776 2.06123 0
M  V30 7505 C 705.226 -1.11119 1.5177 0
M  V30 7506 O 704.584 -1.69498 0.643444 0
M  V30 7507 C 704.632 0.19469 3.60074 0
M  V30 7508 O 703.736 -0.831366 4.03933 0
M  V30 7509 H 703.077 0.113002 0.654314 0
M  V30 7510 H 705.607 0.946645 1.81383 0
M  V30 7511 H 705.617 0.0245487 4.07993 0
M  V30 7512 H 704.292 1.17339 3.99004 0
M  V30 7513 H 702.869 -0.630819 3.67526 0
M  V30 7514 N 705.054 -1.51416 0.437162 0
M  V30 7515 C 706.017 -2.26312 -0.362729 0
M  V30 7516 C 707.017 -1.29748 -0.949847 0
M  V30 7517 O 708.207 -1.53462 -0.824325 0
M  V30 7518 C 705.339 -3.05475 -1.5132 0
M  V30 7519 H 706.532 -2.98459 0.29365 0
M  V30 7520 H 704.085 -1.55137 0.190327 0
M  V30 7521 H 704.82 -2.37744 -2.20563 0
M  V30 7522 H 704.605 -3.76401 -1.09838 0
M  V30 7523 H 706.095 -3.62209 -2.07833 0
M  V30 7524 N 706.532 -0.168513 -1.56696 0
M  V30 7525 C 707.462 0.758563 -2.20835 0
M  V30 7526 C 708.443 1.24121 -1.1631 0
M  V30 7527 O 709.628 1.29487 -1.4473 0
M  V30 7528 C 706.758 1.9892 -2.8469 0
M  V30 7529 C 705.712 1.64252 -3.95228 0
M  V30 7530 C 705.038 2.94757 -4.46119 0
M  V30 7531 C 706.338 0.872675 -5.14958 0
M  V30 7532 H 708.032 0.223953 -2.98561 0
M  V30 7533 H 705.578 0.106277 -1.43607 0
M  V30 7534 H 707.531 2.64275 -3.28233 0
M  V30 7535 H 706.255 2.5479 -2.04327 0
M  V30 7536 H 704.914 1.01266 -3.52336 0
M  V30 7537 H 704.562 3.48662 -3.62552 0
M  V30 7538 H 704.262 2.72316 -5.2069 0
M  V30 7539 H 705.786 3.61147 -4.92347 0
M  V30 7540 H 707.2 1.42875 -5.55211 0
M  V30 7541 H 705.597 0.747402 -5.95428 0
M  V30 7542 H 706.667 -0.131535 -4.84722 0
M  V30 7543 N 708.01 1.57248 0.105221 0
M  V30 7544 C 708.96 1.9777 1.1345 0
M  V30 7545 C 709.944 0.854654 1.36325 0
M  V30 7546 O 711.136 1.11844 1.37186 0
M  V30 7547 C 708.265 2.39717 2.45745 0
M  V30 7548 C 707.351 3.58686 2.26286 0
M  V30 7549 N 707.742 4.73942 1.76671 0
M  V30 7550 C 706.04 3.64586 2.56891 0
M  V30 7551 C 706.741 5.55923 1.71245 0
M  V30 7552 N 705.717 4.98803 2.16093 0
M  V30 7553 H 709.519 2.84336 0.743664 0
M  V30 7554 H 707.033 1.59359 0.312787 0
M  V30 7555 H 709.03 2.66971 3.20206 0
M  V30 7556 H 707.69 1.54523 2.85574 0
M  V30 7557 H 708.701 4.9689 1.46016 0
M  V30 7558 H 705.378 2.90031 3.00314 0
M  V30 7559 H 706.768 6.58398 1.34022 0
M  V30 7560 N 709.488 -0.375779 1.53054 0
M  V30 7561 C 710.736 -1.11727 1.68409 0
M  V30 7562 C 711.057 -1.90127 0.43323 0
M  V30 7563 O 710.327 -1.87945 -0.552595 0
M  V30 7564 H 708.907 -0.415451 0.620813 0
M  V30 7565 H 711.569 -0.424869 1.90213 0
M  V30 7566 H 710.665 -1.8128 2.54055 0
M  V30 7567 N 710.966 -1.44241 -0.634997 0
M  V30 7568 C 711.896 -1.53632 -1.7584 0
M  V30 7569 C 712.877 -0.389603 -1.65578 0
M  V30 7570 O 714.062 -0.609219 -1.84397 0
M  V30 7571 C 711.192 -1.47644 -3.14354 0
M  V30 7572 C 710.146 -2.60752 -3.394 0
M  V30 7573 C 709.472 -2.39817 -4.77904 0
M  V30 7574 C 710.772 -4.02921 -3.32343 0
M  V30 7575 H 712.466 -2.47662 -1.68238 0
M  V30 7576 H 710.012 -1.19197 -0.807969 0
M  V30 7577 H 711.965 -1.52815 -3.92716 0
M  V30 7578 H 710.689 -0.501284 -3.2273 0
M  V30 7579 H 709.348 -2.54965 -2.63417 0
M  V30 7580 H 708.996 -1.40502 -4.82978 0
M  V30 7581 H 708.696 -3.15649 -4.9562 0
M  V30 7582 H 710.22 -2.46799 -5.585 0
M  V30 7583 H 711.634 -4.10098 -4.00615 0
M  V30 7584 H 710.031 -4.78925 -3.61595 0
M  V30 7585 H 711.101 -4.26766 -2.30215 0
M  V30 7586 N 712.444 0.87505 -1.31075 0
M  V30 7587 C 713.684 1.64174 -1.21763 0
M  V30 7588 C 714.048 1.90713 0.221933 0
M  V30 7589 O 715.249 2.652 0.438458 0
M  V30 7590 C 713.52 2.93932 -2.0332 0
M  V30 7591 S 715.079 3.84841 -2.10815 0
M  V30 7592 H 711.897 0.563358 -0.433761 0
M  V30 7593 H 714.499 1.03788 -1.65675 0
M  V30 7594 H 713.203 2.72349 -3.07009 0
M  V30 7595 H 712.734 3.59345 -1.60108 0
M  V30 7596 H 714.749 4.80385 -1.24276 0
M  V30 7597 N 713.922 1.13953 1.08869 0
M  V30 7598 C 714.872 0.790812 2.13846 0
M  V30 7599 C 715.856 -0.217819 1.59419 0
M  V30 7600 O 717.048 -0.0208723 1.76988 0
M  V30 7601 C 714.177 0.26479 3.42277 0
M  V30 7602 C 713.263 1.30267 4.03598 0
M  V30 7603 N 713.654 2.50535 4.39393 0
M  V30 7604 C 711.952 1.15178 4.30871 0
M  V30 7605 C 712.653 3.16938 4.87776 0
M  V30 7606 N 711.629 2.44349 4.85587 0
M  V30 7607 H 715.431 1.70577 2.39334 0
M  V30 7608 H 712.945 1.02268 1.26154 0
M  V30 7609 H 714.942 -0.00330398 4.169 0
M  V30 7610 H 713.602 -0.644419 3.18241 0
M  V30 7611 H 714.613 2.87798 4.30572 0
M  V30 7612 H 711.29 0.301204 4.16412 0
M  V30 7613 H 712.68 4.19453 5.2489 0
M  V30 7614 N 715.4 -1.26948 0.933913 0
M  V30 7615 C 716.33 -2.29017 0.45534 0
M  V30 7616 C 717.311 -1.62961 -0.487605 0
M  V30 7617 O 718.496 -1.90223 -0.391022 0
M  V30 7618 C 715.626 -3.46112 -0.287015 0
M  V30 7619 C 714.58 -4.24205 0.568682 0
M  V30 7620 C 713.906 -5.3384 -0.303206 0
M  V30 7621 C 715.206 -4.88954 1.83633 0
M  V30 7622 H 716.9 -2.69298 1.30839 0
M  V30 7623 H 714.446 -1.29459 0.630579 0
M  V30 7624 H 716.399 -4.16622 -0.6328 0
M  V30 7625 H 715.123 -3.04765 -1.17414 0
M  V30 7626 H 713.782 -3.5545 0.897261 0
M  V30 7627 H 713.43 -4.88734 -1.18947 0
M  V30 7628 H 713.13 -5.86998 0.265879 0
M  V30 7629 H 714.654 -6.0719 -0.644423 0
M  V30 7630 H 716.068 -5.51717 1.55823 0
M  V30 7631 H 714.465 -5.52198 2.34941 0
M  V30 7632 H 715.535 -4.12305 2.55211 0
M  V30 7633 N 716.879 -0.700114 -1.41195 0
M  V30 7634 C 718.29 -0.307249 -1.84154 0
M  V30 7635 C 718.641 1.15539 -1.58572 0
M  V30 7636 O 717.766 1.88744 -1.05852 0
M  V30 7637 C 718.361 -0.550872 -3.34292 0
M  V30 7638 C 716.92 -0.211877 -3.75803 0
M  V30 7639 C 716.067 -0.830915 -2.64558 0
M  V30 7640 H 719.018 -0.900431 -1.30683 0
M  V30 7641 H 719.039 0.188954 -3.80031 0
M  V30 7642 H 718.551 -1.61548 -3.5288 0
M  V30 7643 H 716.652 0.848283 -3.62815 0
M  V30 7644 H 716.765 -0.67007 -4.74391 0
M  V30 7645 H 715.129 -0.260155 -2.53368 0
M  V30 7646 H 715.912 -1.89948 -2.85963 0
M  V30 7647 N 718.357 1.51182 -0.445186 0
M  V30 7648 C 719.603 2.02452 0.11882 0
M  V30 7649 C 719.936 1.32824 1.41673 0
M  V30 7650 O 719.211 0.445637 1.89326 0
M  V30 7651 C 719.494 3.5859 0.329475 0
M  V30 7652 C 719.347 4.38823 -0.987638 0
M  V30 7653 C 720.666 4.26241 1.09575 0
M  V30 7654 H 717.785 0.735819 0.0417092 0
M  V30 7655 H 720.427 1.80747 -0.585718 0
M  V30 7656 H 718.577 3.77214 0.9296 0
M  V30 7657 H 720.249 4.3183 -1.62235 0
M  V30 7658 H 718.492 4.03594 -1.59041 0
M  V30 7659 H 719.163 5.46257 -0.794192 0
M  V30 7660 H 721.639 4.11934 0.587328 0
M  V30 7661 H 720.515 5.35354 1.21191 0
M  V30 7662 H 720.776 3.87635 2.12584 0
M  V30 7663 N 719.835 0.176821 1.56605 0
M  V30 7664 C 721.082 -0.466715 1.97048 0
M  V30 7665 C 721.41 -1.6288 1.06302 0
M  V30 7666 O 720.665 -1.95453 0.0982571 0
M  V30 7667 C 720.964 -0.986208 3.43524 0
M  V30 7668 C 720.63 0.0605667 4.50859 0
M  V30 7669 C 719.292 0.348242 4.79938 0
M  V30 7670 C 721.644 0.770794 5.15469 0
M  V30 7671 C 718.972 1.35144 5.70923 0
M  V30 7672 C 721.324 1.76301 6.07537 0
M  V30 7673 C 719.988 2.05808 6.3498 0
M  V30 7674 H 719.258 -0.170783 0.721051 0
M  V30 7675 H 721.905 0.269942 1.89588 0
M  V30 7676 H 720.21 -1.80079 3.47964 0
M  V30 7677 H 721.907 -1.49323 3.72161 0
M  V30 7678 H 718.497 -0.173823 4.28247 0
M  V30 7679 H 722.681 0.56176 4.9311 0
M  V30 7680 H 717.937 1.58616 5.90467 0
M  V30 7681 H 722.111 2.31868 6.56666 0
M  V30 7682 H 719.738 2.8369 7.05283 0
M  V30 7683 N 721.313 -1.57302 -0.09688 0
M  V30 7684 C 722.538 -1.9058 -0.818169 0
M  V30 7685 C 722.963 -0.770921 -1.71576 0
M  V30 7686 O 722.321 0.277588 -1.79162 0
M  V30 7687 C 722.369 -3.22714 -1.60898 0
M  V30 7688 O 721.473 -3.10178 -2.71779 0
M  V30 7689 H 720.814 -0.624759 -0.224882 0
M  V30 7690 H 723.344 -2.04471 -0.07264 0
M  V30 7691 H 723.354 -3.55978 -1.99358 0
M  V30 7692 H 722.029 -4.04899 -0.950227 0
M  V30 7693 H 720.606 -2.88424 -2.3636 0
M  V30 7694 N 722.791 0.367657 -1.53252 0
M  V30 7695 C 724.037 1.10864 -1.70531 0
M  V30 7696 C 724.392 1.87051 -0.4505 0
M  V30 7697 O 723.685 1.83342 0.556431 0
M  V30 7698 C 723.879 2.09825 -2.89324 0
M  V30 7699 C 723.708 1.43361 -4.26237 0
M  V30 7700 C 722.478 1.18861 -4.91121 0
M  V30 7701 C 724.676 0.872409 -5.06847 0
M  V30 7702 N 722.658 0.487258 -6.11963 0
M  V30 7703 C 724.029 0.300301 -6.19272 0
M  V30 7704 C 726.084 0.770895 -4.91896 0
M  V30 7705 C 724.787 -0.363419 -7.18381 0
M  V30 7706 C 726.813 0.12096 -5.91276 0
M  V30 7707 C 726.175 -0.440283 -7.03023 0
M  V30 7708 H 722.274 0.390902 -0.677288 0
M  V30 7709 H 724.858 0.395305 -1.90645 0
M  V30 7710 H 723.029 2.78473 -2.70753 0
M  V30 7711 H 724.761 2.76585 -2.95436 0
M  V30 7712 H 721.516 1.46934 -4.5023 0
M  V30 7713 H 721.94 0.152005 -6.76829 0
M  V30 7714 H 726.582 1.19058 -4.05691 0
M  V30 7715 H 724.3 -0.795057 -8.04179 0
M  V30 7716 H 727.886 0.0433702 -5.81784 0
M  V30 7717 H 726.766 -0.935244 -7.78603 0
M  V30 7718 N 724.269 1.44576 0.627338 0
M  V30 7719 C 725.202 1.46206 1.75212 0
M  V30 7720 C 726.18 0.320483 1.5941 0
M  V30 7721 O 727.364 0.518028 1.81242 0
M  V30 7722 C 724.491 1.29834 3.12827 0
M  V30 7723 C 723.537 2.47603 3.47268 0
M  V30 7724 S 724.37 4.10125 3.44322 0
M  V30 7725 C 725.526 3.96183 4.84551 0
M  V30 7726 H 725.759 2.41378 1.73563 0
M  V30 7727 H 723.292 1.3192 0.802283 0
M  V30 7728 H 725.25 1.21075 3.92239 0
M  V30 7729 H 723.911 0.361662 3.12011 0
M  V30 7730 H 723.104 2.3202 4.47418 0
M  V30 7731 H 722.706 2.53121 2.75329 0
M  V30 7732 H 724.998 3.60107 5.73872 0
M  V30 7733 H 725.941 4.96176 5.05188 0
M  V30 7734 H 726.349 3.28177 4.59304 0
M  V30 7735 N 725.747 -0.868086 1.31537 0
M  V30 7736 C 726.993 -1.62367 1.2151 0
M  V30 7737 C 727.326 -1.92883 -0.225819 0
M  V30 7738 O 726.601 -1.56176 -1.15927 0
M  V30 7739 C 726.884 -2.95268 2.06129 0
M  V30 7740 C 726.737 -2.71619 3.58529 0
M  V30 7741 C 728.056 -3.96391 1.91212 0
M  V30 7742 H 725.175 -0.589178 0.442762 0
M  V30 7743 H 727.817 -1.00336 1.61347 0
M  V30 7744 H 725.967 -3.4821 1.72284 0
M  V30 7745 H 727.639 -2.25334 4.0252 0
M  V30 7746 H 725.882 -2.05817 3.81866 0
M  V30 7747 H 726.553 -3.66192 4.13047 0
M  V30 7748 H 729.029 -3.52663 2.20834 0
M  V30 7749 H 727.905 -4.87263 2.52718 0
M  V30 7750 H 728.166 -4.33335 0.875953 0
M  V30 7751 N 727.225 -1.14528 -1.08264 0
M  V30 7752 C 728.45 -0.938381 -1.84957 0
M  V30 7753 C 728.875 0.508044 -1.81109 0
M  V30 7754 O 728.233 1.36146 -1.19724 0
M  V30 7755 C 728.281 -1.44568 -3.30352 0
M  V30 7756 O 727.385 -0.638745 -4.07423 0
M  V30 7757 H 726.726 -0.335394 -0.573068 0
M  V30 7758 H 729.256 -1.52287 -1.36637 0
M  V30 7759 H 729.266 -1.45449 -3.81194 0
M  V30 7760 H 727.941 -2.49876 -3.32468 0
M  V30 7761 H 726.518 -0.698801 -3.66294 0
M  V30 7762 N 728.703 1.26451 -0.940633 0
M  V30 7763 C 729.65 2.264 -0.448497 0
M  V30 7764 C 730.62 1.5866 0.491546 0
M  V30 7765 O 731.805 1.86389 0.407874 0
M  V30 7766 C 728.945 3.43956 0.280715 0
M  V30 7767 C 728.058 4.26374 -0.694937 0
M  V30 7768 C 727.193 5.31171 0.0554186 0
M  V30 7769 C 726.232 6.05266 -0.912091 0
M  V30 7770 N 725.369 7.01833 -0.193524 0
M  V30 7771 H 730.209 2.67869 -1.30576 0
M  V30 7772 H 727.746 1.31707 -0.655112 0
M  V30 7773 H 729.704 4.10941 0.71994 0
M  V30 7774 H 728.334 3.03403 1.10212 0
M  V30 7775 H 727.386 3.59183 -1.25267 0
M  V30 7776 H 728.698 4.77748 -1.43382 0
M  V30 7777 H 727.852 6.04166 0.553951 0
M  V30 7778 H 726.591 4.80634 0.827183 0
M  V30 7779 H 725.596 5.31099 -1.42175 0
M  V30 7780 H 726.821 6.57893 -1.68385 0
M  V30 7781 H 724.767 6.53607 0.559758 0
M  V30 7782 H 724.684 7.50957 -0.871744 0
M  V30 7783 H 725.952 7.78983 0.283932 0
M  V30 7784 N 730.181 0.707592 1.40822 0
M  V30 7785 C 731.421 0.247986 2.0289 0
M  V30 7786 C 731.785 -1.13484 1.54872 0
M  V30 7787 O 732.986 -1.69098 2.08948 0
M  V30 7788 C 731.257 0.316326 3.55997 0
M  V30 7789 S 732.816 -0.0674698 4.38748 0
M  V30 7790 H 729.634 0.09895 0.704081 0
M  V30 7791 H 732.236 0.928039 1.72069 0
M  V30 7792 H 730.94 1.32453 3.88438 0
M  V30 7793 H 730.471 -0.382474 3.91536 0
M  V30 7794 H 732.486 -1.29182 4.79089 0
M  V30 7795 N 731.66 -1.50943 0.453197 0
M  V30 7796 C 732.61 -2.25003 -0.368467 0
M  V30 7797 C 733.594 -1.27864 -0.976714 0
M  V30 7798 O 734.786 -1.52867 -0.892228 0
M  V30 7799 C 731.915 -3.10701 -1.46014 0
M  V30 7800 C 731.001 -4.15278 -0.860506 0
M  V30 7801 N 731.392 -5.05799 0.00849611 0
M  V30 7802 C 729.69 -4.31542 -1.1264 0
M  V30 7803 C 730.391 -5.80664 0.346951 0
M  V30 7804 N 729.367 -5.42912 -0.273426 0
M  V30 7805 H 733.169 -2.92352 0.301246 0
M  V30 7806 H 730.683 -1.60203 0.266233 0
M  V30 7807 H 732.68 -3.62348 -2.06179 0
M  V30 7808 H 731.34 -2.44898 -2.13202 0
M  V30 7809 H 732.351 -5.16533 0.376077 0
M  V30 7810 H 729.028 -3.76962 -1.7946 0
M  V30 7811 H 730.418 -6.63565 1.05507 0
M  V30 7812 N 733.138 -0.185124 -1.56509 0
M  V30 7813 C 734.07 0.771401 -2.15829 0
M  V30 7814 C 735.083 1.18392 -1.11747 0
M  V30 7815 O 736.272 1.12137 -1.38879 0
M  V30 7816 C 733.372 2.05169 -2.69739 0
M  V30 7817 C 732.545 1.80056 -3.98621 0
M  V30 7818 C 731.604 2.92435 -4.37456 0
M  V30 7819 O 730.63 2.62473 -5.05071 0
M  V30 7820 N 731.832 4.20554 -4.00143 0
M  V30 7821 H 734.597 0.264184 -2.98533 0
M  V30 7822 H 732.158 -0.00281069 -1.619 0
M  V30 7823 H 734.15 2.7947 -2.92709 0
M  V30 7824 H 732.72 2.47041 -1.91545 0
M  V30 7825 H 731.94 0.895862 -3.83885 0
M  V30 7826 H 733.228 1.60662 -4.82768 0
M  V30 7827 H 732.626 4.47753 -3.45736 0
M  V30 7828 H 731.183 4.91514 -4.28085 0
M  V30 7829 N 734.616 1.57351 0.0885366 0
M  V30 7830 C 735.526 2.05858 1.12516 0
M  V30 7831 C 736.542 0.984758 1.43452 0
M  V30 7832 O 737.718 1.29836 1.53963 0
M  V30 7833 C 734.783 2.47882 2.42395 0
M  V30 7834 C 733.844 3.69487 2.18582 0
M  V30 7835 C 733.077 4.09497 3.42268 0
M  V30 7836 O 733.3 3.49536 4.50755 0
M  V30 7837 O 732.234 5.02406 3.31469 0
M  V30 7838 H 736.06 2.94467 0.743146 0
M  V30 7839 H 733.645 1.46326 0.301507 0
M  V30 7840 H 735.527 2.75509 3.18862 0
M  V30 7841 H 734.202 1.62408 2.8001 0
M  V30 7842 H 733.109 3.46967 1.39875 0
M  V30 7843 H 734.442 4.55761 1.85857 0
M  V30 7844 N 736.094 -0.359525 1.53444 0
M  V30 7845 C 737.024 -1.44662 1.8329 0
M  V30 7846 C 738.005 -1.55617 0.68683 0
M  V30 7847 O 739.19 -1.70086 0.93725 0
M  V30 7848 C 736.32 -2.81923 2.02822 0
M  V30 7849 C 735.274 -2.85787 3.18606 0
M  V30 7850 C 734.6 -4.25781 3.23442 0
M  V30 7851 C 735.9 -2.52762 4.57065 0
M  V30 7852 H 737.594 -1.19934 2.74329 0
M  V30 7853 H 735.14 -0.575517 1.31999 0
M  V30 7854 H 737.093 -3.58005 2.22285 0
M  V30 7855 H 735.817 -3.08051 1.085 0
M  V30 7856 H 734.476 -2.12157 2.98973 0
M  V30 7857 H 734.124 -4.48994 2.26745 0
M  V30 7858 H 733.824 -4.29281 4.01238 0
M  V30 7859 H 735.348 -5.03727 3.45096 0
M  V30 7860 H 736.762 -3.18557 4.76649 0
M  V30 7861 H 735.159 -2.67569 5.37147 0
M  V30 7862 H 736.229 -1.47993 4.61764 0
M  V30 7863 N 737.572 -1.44907 -0.619662 0
M  V30 7864 C 738.502 -1.55488 -1.742 0
M  V30 7865 C 739.483 -0.407143 -1.65156 0
M  V30 7866 O 740.668 -0.628743 -1.8374 0
M  V30 7867 C 737.798 -1.5097 -3.1277 0
M  V30 7868 C 736.752 -2.64337 -3.36615 0
M  V30 7869 C 736.078 -2.44872 -4.75333 0
M  V30 7870 C 737.378 -4.06423 -3.28051 0
M  V30 7871 H 739.072 -2.49432 -1.65602 0
M  V30 7872 H 736.618 -1.20047 -0.795281 0
M  V30 7873 H 738.571 -1.56971 -3.91073 0
M  V30 7874 H 737.295 -0.535486 -3.2218 0
M  V30 7875 H 735.954 -2.57744 -2.60698 0
M  V30 7876 H 735.602 -1.45617 -4.81461 0
M  V30 7877 H 735.302 -3.20888 -4.92244 0
M  V30 7878 H 736.826 -2.52709 -5.55851 0
M  V30 7879 H 738.24 -4.14324 -3.96243 0
M  V30 7880 H 736.637 -4.82733 -3.56495 0
M  V30 7881 H 737.707 -4.29183 -2.25676 0
M  V30 7882 N 739.05 0.861098 -1.31996 0
M  V30 7883 C 739.98 1.98482 -1.22993 0
M  V30 7884 C 740.961 1.6971 -0.115168 0
M  V30 7885 O 742.146 1.91849 -0.30126 0
M  V30 7886 C 739.276 3.34179 -0.945615 0
M  V30 7887 C 738.23 3.77284 -2.02091 0
M  V30 7888 C 737.556 5.1054 -1.58912 0
M  V30 7889 C 738.856 3.93439 -3.43515 0
M  V30 7890 H 740.55 2.06271 -2.17008 0
M  V30 7891 H 738.096 0.991043 -1.04472 0
M  V30 7892 H 740.049 4.12338 -0.869206 0
M  V30 7893 H 738.773 3.26586 0.0301849 0
M  V30 7894 H 737.432 3.01371 -2.08737 0
M  V30 7895 H 737.08 4.99397 -0.600942 0
M  V30 7896 H 736.78 5.40352 -2.30854 0
M  V30 7897 H 738.304 5.91199 -1.52696 0
M  V30 7898 H 739.718 4.6197 -3.39495 0
M  V30 7899 H 738.115 4.34661 -4.13751 0
M  V30 7900 H 739.185 2.96548 -3.8365 0
M  V30 7901 N 740.528 1.15101 1.07655 0
M  V30 7902 C 741.46 0.802722 2.14684 0
M  V30 7903 C 742.473 -0.183874 1.61758 0
M  V30 7904 O 743.662 0.0389349 1.78458 0
M  V30 7905 C 740.762 0.172135 3.38463 0
M  V30 7906 C 739.935 1.19538 4.20749 0
M  V30 7907 C 738.994 0.58714 5.22914 0
M  V30 7908 O 738.02 1.25224 5.55255 0
M  V30 7909 N 739.222 -0.632566 5.77043 0
M  V30 7910 H 741.987 1.72379 2.45164 0
M  V30 7911 H 739.548 1.04647 1.23534 0
M  V30 7912 H 741.54 -0.247465 4.03943 0
M  V30 7913 H 740.11 -0.652214 3.0572 0
M  V30 7914 H 739.33 1.79165 3.51132 0
M  V30 7915 H 740.618 1.88636 4.7254 0
M  V30 7916 H 740.016 -1.19135 5.53013 0
M  V30 7917 H 738.573 -0.994566 6.44167 0
M  V30 7918 N 742.006 -1.2595 0.947325 0
M  V30 7919 C 742.916 -2.29883 0.468079 0
M  V30 7920 C 743.932 -1.67783 -0.460975 0
M  V30 7921 O 745.108 -1.98526 -0.339006 0
M  V30 7922 C 742.173 -3.45773 -0.253315 0
M  V30 7923 C 741.234 -4.23337 0.713054 0
M  V30 7924 C 740.467 -5.33694 0.025993 0
M  V30 7925 O 740.69 -5.57853 -1.18978 0
M  V30 7926 O 739.624 -5.97724 0.70782 0
M  V30 7927 H 743.45 -2.72952 1.33156 0
M  V30 7928 H 741.035 -1.31263 0.713468 0
M  V30 7929 H 742.917 -4.16209 -0.659423 0
M  V30 7930 H 741.592 -3.04721 -1.09209 0
M  V30 7931 H 740.499 -3.55359 1.16923 0
M  V30 7932 H 741.832 -4.68154 1.51963 0
M  V30 7933 N 743.484 -0.715051 -1.40445 0
M  V30 7934 C 744.732 -0.253826 -2.005 0
M  V30 7935 C 745.053 1.15681 -1.5698 0
M  V30 7936 O 744.323 1.78414 -0.809027 0
M  V30 7937 H 742.903 -0.0908537 -0.741454 0
M  V30 7938 H 745.565 -0.920561 -1.7179 0
M  V30 7939 H 744.661 -0.286499 -3.10782 0
M  V30 7940 N 744.962 1.50701 -0.461195 0
M  V30 7941 C 746.21 2.01867 0.0970051 0
M  V30 7942 C 746.531 1.34591 1.41104 0
M  V30 7943 O 745.801 0.488041 1.89723 0
M  V30 7944 H 744.381 0.74599 0.0388392 0
M  V30 7945 H 747.043 1.85129 -0.609357 0
M  V30 7946 H 746.139 3.11051 0.255688 0
M  V30 7947 N 746.441 0.193421 1.56409 0
M  V30 7948 C 747.666 -0.454552 2.02358 0
M  V30 7949 C 748.091 -1.54516 1.07268 0
M  V30 7950 O 747.449 -1.81214 0.0558962 0
M  V30 7951 C 747.497 -0.989469 3.46759 0
M  V30 7952 O 746.601 -2.10244 3.54783 0
M  V30 7953 H 745.942 -0.106417 0.655417 0
M  V30 7954 H 748.472 0.303807 2.02332 0
M  V30 7955 H 748.482 -1.30649 3.86516 0
M  V30 7956 H 747.157 -0.191083 4.15461 0
M  V30 7957 H 745.734 -1.79419 3.26899 0
M  V30 7958 N 747.919 -1.57396 -0.0801906 0
M  V30 7959 C 749.33 -1.75642 -0.633002 0
M  V30 7960 C 749.681 -0.817708 -1.78348 0
M  V30 7961 O 748.806 0.000233743 -2.164 0
M  V30 7962 C 749.401 -3.18502 -1.15507 0
M  V30 7963 C 747.96 -3.38121 -1.65381 0
M  V30 7964 C 747.107 -2.71386 -0.569661 0
M  V30 7965 H 750.058 -1.58027 0.145949 0
M  V30 7966 H 750.079 -3.22198 -2.02408 0
M  V30 7967 H 749.591 -3.86799 -0.317515 0
M  V30 7968 H 747.692 -2.74926 -2.51488 0
M  V30 7969 H 747.805 -4.46521 -1.73654 0
M  V30 7970 H 746.169 -2.33702 -1.0127 0
M  V30 7971 H 746.952 -3.42332 0.257561 0
M  V30 7972 N 749.397 0.351382 -1.53633 0
M  V30 7973 C 750.344 1.43115 -1.81071 0
M  V30 7974 C 751.314 1.52601 -0.655913 0
M  V30 7975 O 752.499 1.68264 -0.89955 0
M  V30 7976 C 749.639 2.79874 -2.01903 0
M  V30 7977 C 748.752 2.79242 -3.29618 0
M  V30 7978 C 747.887 4.07667 -3.40559 0
M  V30 7979 C 746.926 4.01233 -4.62254 0
M  V30 7980 N 746.063 5.21334 -4.70271 0
M  V30 7981 H 750.903 1.19017 -2.73201 0
M  V30 7982 H 748.44 0.576691 -1.35324 0
M  V30 7983 H 750.398 3.5934 -2.11969 0
M  V30 7984 H 749.028 3.0234 -1.13094 0
M  V30 7985 H 748.08 1.91927 -3.28433 0
M  V30 7986 H 749.392 2.70363 -4.19172 0
M  V30 7987 H 748.546 4.95555 -3.50015 0
M  V30 7988 H 747.285 4.19317 -2.49047 0
M  V30 7989 H 746.29 3.11732 -4.52884 0
M  V30 7990 H 747.515 3.91173 -5.55122 0
M  V30 7991 H 745.461 5.33543 -3.81665 0
M  V30 7992 H 745.378 5.14681 -5.5375 0
M  V30 7993 H 746.646 6.11014 -4.84027 0
M  V30 7994 N 750.875 1.45233 0.611969 0
M  V30 7995 C 752.103 1.52539 1.39784 0
M  V30 7996 C 752.518 0.156533 1.8815 0
M  V30 7997 O 751.875 -0.84112 1.61961 0
M  V30 7998 C 751.926 2.50614 2.60528 0
M  V30 7999 O 751.647 3.8218 2.14173 0
M  V30 8000 C 753.148 2.67574 3.53439 0
M  V30 8001 H 750.368 0.51674 0.428043 0
M  V30 8002 H 752.912 1.90379 0.746727 0
M  V30 8003 H 751.067 2.15858 3.2169 0
M  V30 8004 H 751.481 4.35305 2.92592 0
M  V30 8005 H 752.955 3.40184 4.34717 0
M  V30 8006 H 753.432 1.73458 4.03496 0
M  V30 8007 H 754.038 3.0331 2.98133 0
M  V30 8008 N 752.353 -0.854086 1.3245 0
M  V30 8009 C 753.581 -1.64074 1.26045 0
M  V30 8010 C 753.996 -1.8802 -0.171456 0
M  V30 8011 O 753.353 -1.4496 -1.10873 0
M  V30 8012 C 753.404 -2.9997 2.01743 0
M  V30 8013 O 753.125 -2.77084 3.39346 0
M  V30 8014 C 754.626 -3.94414 2.02368 0
M  V30 8015 H 751.846 -0.511015 0.434862 0
M  V30 8016 H 754.39 -1.06494 1.74583 0
M  V30 8017 H 752.545 -3.54193 1.56926 0
M  V30 8018 H 752.959 -3.63514 3.78098 0
M  V30 8019 H 754.433 -4.87032 2.59815 0
M  V30 8020 H 754.91 -4.27427 1.01009 0
M  V30 8021 H 755.516 -3.46127 2.47135 0
M  V30 8022 N 753.831 -1.1567 -1.07043 0
M  V30 8023 C 755.059 -0.957471 -1.83412 0
M  V30 8024 C 755.474 0.494271 -1.82215 0
M  V30 8025 O 754.831 1.34288 -1.23584 0
M  V30 8026 C 754.882 -1.46784 -3.30359 0
M  V30 8027 O 754.603 -2.86271 -3.31633 0
M  V30 8028 C 756.104 -1.31054 -4.23485 0
M  V30 8029 H 753.324 -0.33986 -0.578564 0
M  V30 8030 H 755.868 -1.53518 -1.35102 0
M  V30 8031 H 754.023 -0.932586 -3.76007 0
M  V30 8032 H 754.437 -3.0948 -4.23465 0
M  V30 8033 H 755.911 -1.71605 -5.24648 0
M  V30 8034 H 756.388 -0.255107 -4.38458 0
M  V30 8035 H 756.994 -1.83503 -3.83676 0
M  V30 8036 N 755.309 1.25446 -0.953992 0
M  V30 8037 C 756.586 1.884 -0.525823 0
M  V30 8038 C 756.966 1.86079 0.996891 0
M  V30 8039 O 756.314 1.32389 1.8624 0
M  V30 8040 C 756.524 3.31154 -1.10172 0
M  V30 8041 C 757.872 4.07926 -1.17819 0
M  V30 8042 O 758.896 3.40273 -1.05323 0
M  V30 8043 O 757.755 5.28942 -1.37415 0
M  V30 8044 H 754.849 0.808629 -0.173345 0
M  V30 8045 H 757.395 1.33522 -1.04738 0
M  V30 8046 H 756.167 3.27271 -2.14499 0
M  V30 8047 H 755.79 3.93588 -0.56338 0
M  V30 8048 N 756.787 0.722489 1.40064 0
M  V30 8049 C 757.72 0.0233443 2.28188 0
M  V30 8050 C 758.698 -0.7606 1.43714 0
M  V30 8051 O 759.882 -0.745791 1.73119 0
M  V30 8052 C 757.009 -0.974264 3.24385 0
M  V30 8053 C 756.055 -0.280307 4.25578 0
M  V30 8054 S 756.888 0.996769 5.26141 0
M  V30 8055 C 758.044 0.00143923 6.259 0
M  V30 8056 H 758.277 0.770705 2.87137 0
M  V30 8057 H 755.81 0.513783 1.45601 0
M  V30 8058 H 757.768 -1.5446 3.80332 0
M  V30 8059 H 756.429 -1.69438 2.6448 0
M  V30 8060 H 755.622 -1.03471 4.93264 0
M  V30 8061 H 755.224 0.217657 3.73366 0
M  V30 8062 H 757.516 -0.843126 6.72233 0
M  V30 8063 H 758.459 0.645104 7.05155 0
M  V30 8064 H 758.867 -0.365371 5.63316 0
M  V30 8065 N 758.265 -1.50454 0.469181 0
M  V30 8066 C 759.495 -2.06429 -0.0840913 0
M  V30 8067 C 759.903 -1.3334 -1.34227 0
M  V30 8068 O 759.246 -0.395656 -1.79389 0
M  V30 8069 C 759.308 -3.56797 -0.440049 0
M  V30 8070 C 758.972 -4.51359 0.715838 0
M  V30 8071 C 759.969 -4.94754 1.59732 0
M  V30 8072 C 757.654 -4.94069 0.905621 0
M  V30 8073 C 759.648 -5.79564 2.653 0
M  V30 8074 C 757.335 -5.78662 1.96453 0
M  V30 8075 C 758.333 -6.21311 2.83658 0
M  V30 8076 O 758.021 -7.04218 3.87727 0
M  V30 8077 H 757.753 -0.675994 0.00289751 0
M  V30 8078 H 760.307 -1.94629 0.656417 0
M  V30 8079 H 758.537 -3.66492 -1.23372 0
M  V30 8080 H 760.226 -3.95145 -0.928181 0
M  V30 8081 H 760.992 -4.62428 1.46237 0
M  V30 8082 H 756.871 -4.60394 0.236326 0
M  V30 8083 H 760.415 -6.12774 3.33398 0
M  V30 8084 H 756.312 -6.10401 2.09955 0
M  V30 8085 H 757.08 -7.22464 3.84692 0
M  V30 8086 N 759.743 -0.201713 -1.56304 0
M  V30 8087 C 760.673 0.71155 -2.22394 0
M  V30 8088 C 761.654 1.21625 -1.18917 0
M  V30 8089 O 762.839 1.26388 -1.47444 0
M  V30 8090 C 759.969 1.92837 -2.88845 0
M  V30 8091 C 758.923 1.55831 -3.98623 0
M  V30 8092 C 758.249 2.85228 -4.52271 0
M  V30 8093 C 759.549 0.763249 -5.16693 0
M  V30 8094 H 761.243 0.160573 -2.98969 0
M  V30 8095 H 758.789 0.0757916 -1.438 0
M  V30 8096 H 760.742 2.57253 -3.33764 0
M  V30 8097 H 759.466 2.50398 -2.09686 0
M  V30 8098 H 758.125 0.9377 -3.54405 0
M  V30 8099 H 757.773 3.40893 -3.69866 0
M  V30 8100 H 757.473 2.6121 -5.26349 0
M  V30 8101 H 758.997 3.50622 -4.99897 0
M  V30 8102 H 760.411 1.31066 -5.58117 0
M  V30 8103 H 758.808 0.620935 -5.96879 0
M  V30 8104 H 759.878 -0.234322 -4.84334 0
M  V30 8105 N 761.222 1.57436 0.0718424 0
M  V30 8106 C 762.152 2.06724 1.08571 0
M  V30 8107 C 763.133 0.960731 1.40371 0
M  V30 8108 O 764.318 1.23345 1.49999 0
M  V30 8109 C 761.448 2.51112 2.39916 0
M  V30 8110 C 760.402 3.65639 2.22469 0
M  V30 8111 C 759.728 3.96082 3.59198 0
M  V30 8112 C 761.028 4.95687 1.64596 0
M  V30 8113 H 762.722 2.91679 0.675569 0
M  V30 8114 H 760.268 1.40319 0.32352 0
M  V30 8115 H 762.221 2.84206 3.11135 0
M  V30 8116 H 760.945 1.63186 2.8291 0
M  V30 8117 H 759.604 3.32828 1.53691 0
M  V30 8118 H 759.252 3.05287 3.99761 0
M  V30 8119 H 758.952 4.73199 3.48362 0
M  V30 8120 H 760.476 4.31672 4.31847 0
M  V30 8121 H 761.89 5.27011 2.25681 0
M  V30 8122 H 760.287 5.77126 1.64457 0
M  V30 8123 H 761.357 4.8108 0.60744 0
M  V30 8124 N 762.7 -0.34323 1.53817 0
M  V30 8125 C 763.949 -1.08086 1.70295 0
M  V30 8126 C 764.262 -1.89794 0.47302 0
M  V30 8127 O 765.468 -2.66498 0.518754 0
M  V30 8128 C 763.924 -1.97097 3.01133 0
M  V30 8129 C 763.532 -1.20594 4.31464 0
M  V30 8130 C 765.276 -2.70715 3.26976 0
M  V30 8131 C 763.183 -2.08636 5.53376 0
M  V30 8132 H 762.113 -0.407228 0.634572 0
M  V30 8133 H 764.764 -0.340328 1.80316 0
M  V30 8134 H 763.146 -2.74971 2.84969 0
M  V30 8135 H 764.32 -0.476282 4.58332 0
M  V30 8136 H 762.635 -0.587426 4.12236 0
M  V30 8137 H 765.232 -3.36857 4.15248 0
M  V30 8138 H 765.575 -3.37299 2.43998 0
M  V30 8139 H 766.108 -1.99914 3.43917 0
M  V30 8140 H 762.847 -1.46594 6.38898 0
M  V30 8141 H 762.367 -2.7939 5.30755 0
M  V30 8142 H 764.046 -2.67682 5.89029 0
M  V30 8143 N 764.178 -1.45556 -0.604258 0
M  V30 8144 C 765.108 -1.57327 -1.72541 0
M  V30 8145 C 766.089 -0.424637 -1.64714 0
M  V30 8146 O 767.274 -0.648196 -1.83063 0
M  V30 8147 C 764.404 -1.54279 -3.11152 0
M  V30 8148 C 763.358 -2.67893 -3.33792 0
M  V30 8149 C 762.684 -2.499 -4.72709 0
M  V30 8150 C 763.984 -4.0988 -3.23722 0
M  V30 8151 H 765.678 -2.51175 -1.62947 0
M  V30 8152 H 763.224 -1.20884 -0.782504 0
M  V30 8153 H 765.177 -1.6111 -3.89386 0
M  V30 8154 H 763.901 -0.569627 -3.21594 0
M  V30 8155 H 762.56 -2.60495 -2.57949 0
M  V30 8156 H 762.208 -1.50715 -4.79889 0
M  V30 8157 H 761.908 -3.26091 -4.88813 0
M  V30 8158 H 763.432 -2.5859 -5.5314 0
M  V30 8159 H 764.846 -4.18503 -3.91826 0
M  V30 8160 H 763.243 -4.86487 -3.51355 0
M  V30 8161 H 764.313 -4.31553 -2.21111 0
M  V30 8162 N 765.656 0.84705 -1.32902 0
M  V30 8163 C 766.588 1.96308 -1.18304 0
M  V30 8164 C 767.601 1.62386 -0.116082 0
M  V30 8165 O 768.79 1.74713 -0.365751 0
M  V30 8166 C 765.89 3.29556 -0.790305 0
M  V30 8167 C 765.063 3.91668 -1.94717 0
M  V30 8168 C 764.122 5.0326 -1.53674 0
M  V30 8169 O 763.148 5.22847 -2.24989 0
M  V30 8170 N 764.35 5.78852 -0.437075 0
M  V30 8171 H 767.115 2.09369 -2.14441 0
M  V30 8172 H 764.676 1.02233 -1.25539 0
M  V30 8173 H 766.668 4.01624 -0.49799 0
M  V30 8174 H 765.238 3.12497 0.0801286 0
M  V30 8175 H 764.458 3.12292 -2.40557 0
M  V30 8176 H 765.746 4.299 -2.72146 0
M  V30 8177 H 765.144 5.65484 0.156316 0
M  V30 8178 H 763.701 6.51479 -0.204399 0
M  V30 8179 N 767.134 1.16236 1.06428 0
M  V30 8180 C 768.084 0.835994 2.12121 0
M  V30 8181 C 769.068 -0.183955 1.59845 0
M  V30 8182 O 770.26 0.0166741 1.76992 0
M  V30 8183 C 767.389 0.337333 3.41639 0
M  V30 8184 C 766.475 1.38798 4.00744 0
M  V30 8185 N 766.866 2.59799 4.3398 0
M  V30 8186 C 765.164 1.24292 4.28331 0
M  V30 8187 C 765.865 3.27213 4.80943 0
M  V30 8188 N 764.841 2.54594 4.80294 0
M  V30 8189 H 768.643 1.75615 2.35662 0
M  V30 8190 H 766.157 1.04921 1.23957 0
M  V30 8191 H 768.154 0.0851274 4.16813 0
M  V30 8192 H 766.814 -0.57677 3.19536 0
M  V30 8193 H 767.825 2.96867 4.24371 0
M  V30 8194 H 764.502 0.389464 4.15679 0
M  V30 8195 H 765.892 4.30492 5.15874 0
M  V30 8196 N 768.612 -1.24939 0.960631 0
M  V30 8197 C 769.859 -1.92818 0.618663 0
M  V30 8198 C 770.187 -1.75177 -0.845173 0
M  V30 8199 O 769.442 -1.09412 -1.62258 0
M  V30 8200 C 769.741 -3.45066 0.930809 0
M  V30 8201 C 769.407 -3.82869 2.38164 0
M  V30 8202 C 768.069 -3.92899 2.7782 0
M  V30 8203 C 770.421 -4.01483 3.32356 0
M  V30 8204 C 767.749 -4.18955 4.10723 0
M  V30 8205 C 770.101 -4.29033 4.6488 0
M  V30 8206 C 768.765 -4.37282 5.04322 0
M  V30 8207 H 768.035 -0.705571 0.226385 0
M  V30 8208 H 770.682 -1.48365 1.21079 0
M  V30 8209 H 768.987 -3.9096 0.256355 0
M  V30 8210 H 770.684 -3.95783 0.644712 0
M  V30 8211 H 767.274 -3.75622 2.06413 0
M  V30 8212 H 771.458 -3.93143 3.02907 0
M  V30 8213 H 766.714 -4.23558 4.40918 0
M  V30 8214 H 770.888 -4.42381 5.3784 0
M  V30 8215 H 768.515 -4.57225 6.0733 0
M  V30 8216 N 770.09 -0.729906 -1.39679 0
M  V30 8217 C 771.02 -0.101618 -2.33279 0
M  V30 8218 C 772.001 0.729854 -1.53646 0
M  V30 8219 O 773.186 0.67587 -1.82059 0
M  V30 8220 C 770.316 0.81024 -3.37716 0
M  V30 8221 C 769.27 0.0833126 -4.27919 0
M  V30 8222 C 768.596 1.11185 -5.23012 0
M  V30 8223 C 769.896 -1.07107 -5.112 0
M  V30 8224 H 771.59 -0.883452 -2.86069 0
M  V30 8225 H 769.136 -0.426283 -1.37546 0
M  V30 8226 H 771.089 1.25927 -4.02145 0
M  V30 8227 H 769.813 1.62413 -2.83354 0
M  V30 8228 H 768.472 -0.346043 -3.64963 0
M  V30 8229 H 768.12 1.91917 -4.64948 0
M  V30 8230 H 767.82 0.63026 -5.8421 0
M  V30 8231 H 769.344 1.56068 -5.90318 0
M  V30 8232 H 770.758 -0.700726 -5.69002 0
M  V30 8233 H 769.155 -1.48196 -5.81514 0
M  V30 8234 H 770.225 -1.89513 -4.46332 0
M  V30 8235 N 771.568 1.50203 -0.477153 0
M  V30 8236 C 772.498 2.31517 0.303646 0
M  V30 8237 C 773.479 1.38696 0.984753 0
M  V30 8238 O 774.664 1.67615 0.980758 0
M  V30 8239 C 771.794 3.18598 1.38249 0
M  V30 8240 C 770.748 4.2002 0.822645 0
M  V30 8241 C 770.074 4.95878 2.00024 0
M  V30 8242 C 771.374 5.22023 -0.170185 0
M  V30 8243 H 773.068 2.97042 -0.375027 0
M  V30 8244 H 770.614 1.42848 -0.181802 0
M  V30 8245 H 772.567 3.74282 1.93625 0
M  V30 8246 H 771.291 2.5097 2.09002 0
M  V30 8247 H 769.95 3.65445 0.290813 0
M  V30 8248 H 769.598 4.24717 2.69489 0
M  V30 8249 H 769.298 5.64487 1.63183 0
M  V30 8250 H 770.822 5.54399 2.55878 0
M  V30 8251 H 772.236 5.72543 0.294606 0
M  V30 8252 H 770.633 5.98386 -0.453181 0
M  V30 8253 H 771.703 4.72396 -1.09408 0
M  V30 8254 N 773.046 0.209999 1.56195 0
M  V30 8255 C 773.996 -0.717978 2.164 0
M  V30 8256 C 774.98 -1.16577 1.10899 0
M  V30 8257 O 776.172 -1.12169 1.3692 0
M  V30 8258 C 773.301 -1.93091 2.8385 0
M  V30 8259 C 772.387 -1.50333 3.96561 0
M  V30 8260 N 772.778 -0.787621 4.9963 0
M  V30 8261 C 771.076 -1.79151 4.08437 0
M  V30 8262 C 771.777 -0.571204 5.78889 0
M  V30 8263 N 770.753 -1.12444 5.31843 0
M  V30 8264 H 774.555 -0.162603 2.9345 0
M  V30 8265 H 772.069 0.0107928 1.62396 0
M  V30 8266 H 774.066 -2.60635 3.25384 0
M  V30 8267 H 772.726 -2.49087 2.08293 0
M  V30 8268 H 773.737 -0.441513 5.16015 0
M  V30 8269 H 770.414 -2.36549 3.44022 0
M  V30 8270 H 771.804 -0.00237941 6.719 0
M  V30 8271 N 774.524 -1.57472 -0.0634922 0
M  V30 8272 C 775.487 -2.03268 -1.059 0
M  V30 8273 C 776.487 -0.931028 -1.31105 0
M  V30 8274 O 777.677 -1.19567 -1.26686 0
M  V30 8275 C 774.809 -2.42039 -2.40062 0
M  V30 8276 H 776.002 -2.92454 -0.664119 0
M  V30 8277 H 773.555 -1.53206 -0.309444 0
M  V30 8278 H 774.29 -1.55904 -2.84367 0
M  V30 8279 H 774.075 -3.22437 -2.23108 0
M  V30 8280 H 775.565 -2.78017 -3.11603 0
M  V30 8281 N 776.003 0.335068 -1.53997 0
M  V30 8282 C 777.231 1.09418 -1.756 0
M  V30 8283 C 777.646 1.82083 -0.499138 0
M  V30 8284 O 777.003 1.74646 0.529631 0
M  V30 8285 C 777.054 2.10115 -2.94166 0
M  V30 8286 O 776.775 1.40404 -4.14992 0
M  V30 8287 C 778.276 2.98336 -3.27888 0
M  V30 8288 H 775.496 0.32595 -0.586513 0
M  V30 8289 H 778.04 0.384693 -2.00849 0
M  V30 8290 H 776.195 2.76616 -2.71224 0
M  V30 8291 H 776.609 2.07743 -4.81605 0
M  V30 8292 H 778.083 3.6491 -4.1418 0
M  V30 8293 H 778.56 3.64814 -2.44556 0
M  V30 8294 H 779.166 2.37412 -3.52868 0
M  V30 8295 N 777.481 1.45874 0.596531 0
M  V30 8296 C 778.892 1.44798 1.17857 0
M  V30 8297 C 779.243 0.181443 1.95359 0
M  V30 8298 O 778.368 -0.716336 2.042 0
M  V30 8299 C 778.963 2.62333 2.14398 0
M  V30 8300 C 777.522 2.64342 2.67955 0
M  V30 8301 C 776.669 2.37244 1.43564 0
M  V30 8302 H 779.62 1.53954 0.385222 0
M  V30 8303 H 779.641 2.37063 2.97626 0
M  V30 8304 H 779.153 3.54499 1.57963 0
M  V30 8305 H 777.254 1.76213 3.28298 0
M  V30 8306 H 777.367 3.63897 3.11634 0
M  V30 8307 H 775.731 1.87022 1.72901 0
M  V30 8308 H 776.514 3.31568 0.889805 0
M  V30 8309 N 778.959 -0.83999 1.33349 0
M  V30 8310 C 780.37 -1.41139 1.22216 0
M  V30 8311 C 780.721 -1.95551 -0.159398 0
M  V30 8312 O 779.846 -1.88721 -1.05893 0
M  V30 8313 C 780.441 -2.56564 2.21269 0
M  V30 8314 C 779 -3.09661 2.13979 0
M  V30 8315 C 778.147 -1.82457 2.08818 0
M  V30 8316 H 781.098 -0.645853 1.44964 0
M  V30 8317 H 781.119 -3.34163 1.81976 0
M  V30 8318 H 780.631 -2.16932 3.21811 0
M  V30 8319 H 778.732 -3.53841 1.16736 0
M  V30 8320 H 778.845 -3.6991 3.04472 0
M  V30 8321 H 777.209 -2.0266 1.54276 0
M  V30 8322 H 777.992 -1.45022 3.11165 0
M  V30 8323 N 780.437 -1.16799 -1.0581 0
M  V30 8324 C 781.714 -0.862616 -1.75551 0
M  V30 8325 C 782.094 0.6385 -2.01212 0
M  V30 8326 O 781.442 1.58784 -1.64317 0
M  V30 8327 C 781.652 -1.6907 -3.05314 0
M  V30 8328 C 783 -1.90675 -3.79379 0
M  V30 8329 O 784.024 -1.65976 -3.15167 0
M  V30 8330 O 782.883 -2.32145 -4.94743 0
M  V30 8331 H 779.977 -0.318789 -0.763088 0
M  V30 8332 H 782.523 -1.27461 -1.12034 0
M  V30 8333 H 781.295 -2.70912 -2.82352 0
M  V30 8334 H 780.918 -1.27606 -3.76567 0
M  V30 8335 N 781.915 1.24427 -0.967243 0
M  V30 8336 C 783.14 1.9708 -0.646069 0
M  V30 8337 C 783.565 1.71272 0.777665 0
M  V30 8338 O 782.923 0.976179 1.52776 0
M  V30 8339 C 782.971 3.48501 -0.926266 0
M  V30 8340 O 782.075 4.12398 -0.0114653 0
M  V30 8341 H 781.416 0.617423 -0.244304 0
M  V30 8342 H 783.946 1.58215 -1.29727 0
M  V30 8343 H 783.956 3.98885 -0.857619 0
M  V30 8344 H 782.631 3.66613 -1.96386 0
M  V30 8345 H 781.208 3.72661 -0.133396 0
M  V30 8346 N 783.393 0.737304 1.3929 0
M  V30 8347 C 784.356 0.10731 2.28949 0
M  V30 8348 C 785.356 -0.664716 1.46418 0
M  V30 8349 O 786.546 -0.493392 1.67067 0
M  V30 8350 C 783.678 -0.857145 3.29948 0
M  V30 8351 H 784.871 0.89725 2.86163 0
M  V30 8352 H 782.424 0.503279 1.47976 0
M  V30 8353 H 783.159 -1.67336 2.77794 0
M  V30 8354 H 782.944 -0.306167 3.90903 0
M  V30 8355 H 784.434 -1.29444 3.97031 0
M  V30 8356 N 784.871 -1.49948 0.485112 0
M  V30 8357 C 786.096 -2.073 -0.0645059 0
M  V30 8358 C 786.521 -1.345 -1.31497 0
M  V30 8359 O 785.879 -0.39687 -1.76903 0
M  V30 8360 C 785.927 -3.59201 -0.317304 0
M  V30 8361 O 785.031 -3.88085 -1.39514 0
M  V30 8362 H 784.372 -0.663723 0.0191822 0
M  V30 8363 H 786.902 -1.92963 0.680179 0
M  V30 8364 H 786.912 -4.04227 -0.553604 0
M  V30 8365 H 785.587 -4.11602 0.596387 0
M  V30 8366 H 784.164 -3.54885 -1.14504 0
M  V30 8367 N 786.349 -0.21828 -1.56081 0
M  V30 8368 C 787.281 0.725447 -2.17416 0
M  V30 8369 C 788.294 1.15995 -1.14233 0
M  V30 8370 O 789.483 1.09166 -1.41227 0
M  V30 8371 C 786.583 1.99401 -2.7403 0
M  V30 8372 C 785.756 1.7156 -4.02351 0
M  V30 8373 C 784.815 2.8309 -4.43561 0
M  V30 8374 O 783.841 2.51701 -5.10525 0
M  V30 8375 N 785.043 4.11972 -4.08973 0
M  V30 8376 H 787.808 0.200801 -2.99027 0
M  V30 8377 H 785.369 -0.0371514 -1.61857 0
M  V30 8378 H 787.361 2.73198 -2.98571 0
M  V30 8379 H 785.931 2.42923 -1.96742 0
M  V30 8380 H 785.151 0.814233 -3.85699 0
M  V30 8381 H 786.439 1.50385 -4.86068 0
M  V30 8382 H 785.837 4.40319 -3.55156 0
M  V30 8383 H 784.394 4.82323 -4.38415 0
M  V30 8384 N 787.827 1.57504 0.0551401 0
M  V30 8385 C 789.075 1.87684 0.74962 0
M  V30 8386 C 789.396 0.812547 1.77264 0
M  V30 8387 O 788.666 -0.15694 1.9527 0
M  V30 8388 H 787.246 0.6926 0.279846 0
M  V30 8389 H 789.908 1.94881 0.0272745 0
M  V30 8390 H 789.004 2.85734 1.25548 0
M  V30 8391 N 789.305 -0.326896 1.54172 0
M  V30 8392 C 790.235 -1.40741 1.86317 0
M  V30 8393 C 791.216 -1.54125 0.719684 0
M  V30 8394 O 792.401 -1.6806 0.973117 0
M  V30 8395 C 789.531 -2.77557 2.08757 0
M  V30 8396 C 788.485 -2.78965 3.24596 0
M  V30 8397 C 787.811 -4.18824 3.32401 0
M  V30 8398 C 789.111 -2.4301 4.62324 0
M  V30 8399 H 790.805 -1.14088 2.76811 0
M  V30 8400 H 788.351 -0.547389 1.3319 0
M  V30 8401 H 790.304 -3.53209 2.29829 0
M  V30 8402 H 789.028 -3.0568 1.15009 0
M  V30 8403 H 787.687 -2.05767 3.03406 0
M  V30 8404 H 787.335 -4.44083 2.36218 0
M  V30 8405 H 787.035 -4.20673 4.10253 0
M  V30 8406 H 788.559 -4.96294 3.55703 0
M  V30 8407 H 789.973 -3.08375 4.83299 0
M  V30 8408 H 788.37 -2.56116 5.42701 0
M  V30 8409 H 789.44 -1.38165 4.64799 0
M  V30 8410 N 790.784 -1.46188 -0.588786 0
M  V30 8411 C 792.032 -1.50885 -1.34455 0
M  V30 8412 C 792.353 -0.159555 -1.94346 0
M  V30 8413 O 791.623 0.813239 -1.78222 0
M  V30 8414 H 790.203 -0.555707 -0.499198 0
M  V30 8415 H 792.865 -1.82277 -0.690014 0
M  V30 8416 H 791.961 -2.25816 -2.15438 0
M  V30 8417 N 792.262 0.832906 -1.33792 0
M  V30 8418 C 793.673 1.40489 -1.22963 0
M  V30 8419 C 794.024 1.95633 0.149026 0
M  V30 8420 O 793.149 1.8928 1.04891 0
M  V30 8421 C 793.744 2.55387 -2.22627 0
M  V30 8422 C 792.303 3.08522 -2.15618 0
M  V30 8423 C 791.45 1.81347 -2.09782 0
M  V30 8424 H 794.401 0.638156 -1.45304 0
M  V30 8425 H 794.422 3.33193 -1.83746 0
M  V30 8426 H 793.934 2.15222 -3.22957 0
M  V30 8427 H 792.035 3.53217 -1.18611 0
M  V30 8428 H 792.148 3.6829 -3.0643 0
M  V30 8429 H 790.512 2.01839 -1.55349 0
M  V30 8430 H 791.295 1.43369 -3.1193 0
M  V30 8431 N 793.74 1.17359 1.05189 0
M  V30 8432 C 794.965 0.98709 1.82404 0
M  V30 8433 C 795.39 -0.459848 1.82392 0
M  V30 8434 O 794.748 -1.32924 1.23292 0
M  V30 8435 C 794.796 1.53276 3.26403 0
M  V30 8436 O 793.9 0.746541 4.05587 0
M  V30 8437 H 793.241 0.35047 0.563974 0
M  V30 8438 H 795.771 1.55856 1.32552 0
M  V30 8439 H 795.781 1.55504 3.77203 0
M  V30 8440 H 794.456 2.58603 3.25726 0
M  V30 8441 H 793.033 0.795671 3.64312 0
M  V30 8442 N 795.218 -1.23913 0.973828 0
M  V30 8443 C 796.148 -2.27453 0.527969 0
M  V30 8444 C 797.129 -1.6443 -0.435513 0
M  V30 8445 O 798.314 -1.9137 -0.330306 0
M  V30 8446 C 795.444 -3.4685 -0.176757 0
M  V30 8447 C 794.398 -4.22181 0.703352 0
M  V30 8448 C 793.724 -5.34534 -0.133215 0
M  V30 8449 C 795.024 -4.82865 1.99096 0
M  V30 8450 H 796.718 -2.65 1.3934 0
M  V30 8451 H 794.264 -1.27388 0.671446 0
M  V30 8452 H 796.217 -4.18424 -0.499934 0
M  V30 8453 H 794.941 -3.08346 -1.07659 0
M  V30 8454 H 793.6 -3.52416 1.00989 0
M  V30 8455 H 793.248 -4.92271 -1.03338 0
M  V30 8456 H 792.948 -5.85855 0.452494 0
M  V30 8457 H 794.472 -6.08933 -0.450924 0
M  V30 8458 H 795.886 -5.46481 1.73297 0
M  V30 8459 H 794.283 -5.44444 2.52389 0
M  V30 8460 H 795.353 -4.03977 2.68199 0
M  V30 8461 N 796.696 -0.74468 -1.38897 0
M  V30 8462 C 797.626 -0.126355 -2.33158 0
M  V30 8463 C 798.607 0.713517 -1.54412 0
M  V30 8464 O 799.792 0.656523 -1.82766 0
M  V30 8465 C 796.922 0.774375 -3.38557 0
M  V30 8466 C 795.876 0.0379214 -4.27983 0
M  V30 8467 C 795.202 1.05631 -5.24162 0
M  V30 8468 C 796.502 -1.12523 -5.10035 0
M  V30 8469 H 798.196 -0.913744 -2.85116 0
M  V30 8470 H 795.742 -0.440847 -1.37086 0
M  V30 8471 H 797.695 1.21655 -4.03458 0
M  V30 8472 H 796.419 1.59399 -2.85061 0
M  V30 8473 H 795.078 -0.384733 -3.64576 0
M  V30 8474 H 794.726 1.86975 -4.66958 0
M  V30 8475 H 794.426 0.568261 -5.84846 0
M  V30 8476 H 795.95 1.49799 -5.9194 0
M  V30 8477 H 797.364 -0.761037 -5.68226 0
M  V30 8478 H 795.761 -1.54355 -5.79909 0
M  V30 8479 H 796.831 -1.94237 -4.44297 0
M  V30 8480 N 798.174 1.49689 -0.493057 0
M  V30 8481 C 799.59 1.58907 -0.148526 0
M  V30 8482 C 799.79 1.4991 1.34645 0
M  V30 8483 O 798.846 1.36893 2.12171 0
M  V30 8484 C 800.159 2.91996 -0.718265 0
M  V30 8485 C 801.707 3.05443 -0.683658 0
M  V30 8486 C 802.182 4.41138 -1.23132 0
M  V30 8487 N 803.673 4.47608 -1.19167 0
M  V30 8488 C 804.408 5.51038 -1.5857 0
M  V30 8489 N 803.904 6.61612 -2.05528 0
M  V30 8490 N 805.697 5.41706 -1.50036 0
M  V30 8491 H 797.848 1.5378 -1.46511 0
M  V30 8492 H 800.111 0.727996 -0.607228 0
M  V30 8493 H 799.817 3.04123 -1.7664 0
M  V30 8494 H 799.691 3.76798 -0.17419 0
M  V30 8495 H 802.078 2.92949 0.355626 0
M  V30 8496 H 802.159 2.22344 -1.26479 0
M  V30 8497 H 801.803 4.54382 -2.26935 0
M  V30 8498 H 801.733 5.22864 -0.626201 0
M  V30 8499 H 804.224 3.68274 -0.847524 0
M  V30 8500 H 804.537 7.36622 -2.33685 0
M  V30 8501 H 802.882 6.62674 -2.09497 0
M  V30 8502 H 806.073 4.54212 -1.13176 0
M  V30 8503 H 806.246 6.22188 -1.81068 0
M  V30 8504 N 799.652 0.226554 1.55963 0
M  V30 8505 C 800.9 -0.402991 1.98041 0
M  V30 8506 C 801.221 -1.59938 1.11557 0
M  V30 8507 O 800.491 -1.9494 0.193719 0
M  V30 8508 H 799.071 -0.15188 0.731397 0
M  V30 8509 H 801.733 0.320613 1.92245 0
M  V30 8510 H 800.829 -0.725937 3.0354 0
M  V30 8511 N 801.13 -1.57531 -0.0467866 0
M  V30 8512 C 802.546 -1.54451 -0.402107 0
M  V30 8513 C 802.746 -0.950275 -1.77685 0
M  V30 8514 O 801.802 -0.563602 -2.4613 0
M  V30 8515 C 803.115 -2.9899 -0.320212 0
M  V30 8516 C 804.663 -3.10452 -0.398588 0
M  V30 8517 C 805.138 -4.56689 -0.346335 0
M  V30 8518 N 806.629 -4.6142 -0.405666 0
M  V30 8519 C 807.364 -5.72087 -0.387845 0
M  V30 8520 N 806.86 -6.92045 -0.32336 0
M  V30 8521 N 808.653 -5.60404 -0.436263 0
M  V30 8522 H 800.804 -1.94515 0.853087 0
M  V30 8523 H 803.067 -0.891397 0.322669 0
M  V30 8524 H 802.773 -3.46124 0.623794 0
M  V30 8525 H 802.647 -3.60164 -1.1208 0
M  V30 8526 H 805.034 -2.63276 -1.33302 0
M  V30 8527 H 805.115 -2.52142 0.431026 0
M  V30 8528 H 804.759 -5.04527 0.584356 0
M  V30 8529 H 804.689 -5.12889 -1.19382 0
M  V30 8530 H 807.18 -3.75105 -0.458737 0
M  V30 8531 H 807.493 -7.7216 -0.314375 0
M  V30 8532 H 805.838 -6.94396 -0.28967 0
M  V30 8533 H 809.029 -4.65586 -0.48451 0
M  V30 8534 H 809.202 -6.46645 -0.418907 0
M  V30 8535 N 802.608 0.318715 -1.54344 0
M  V30 8536 C 803.538 1.39751 -1.87061 0
M  V30 8537 C 804.519 1.53741 -0.727848 0
M  V30 8538 O 805.704 1.67541 -0.982016 0
M  V30 8539 C 802.834 2.76446 -2.10226 0
M  V30 8540 C 801.788 2.77239 -3.26071 0
M  V30 8541 C 801.114 4.17056 -3.34617 0
M  V30 8542 C 802.414 2.40555 -4.63606 0
M  V30 8543 H 804.108 1.12619 -2.77412 0
M  V30 8544 H 801.654 0.540318 -1.33479 0
M  V30 8545 H 803.607 3.51985 -2.31699 0
M  V30 8546 H 802.331 3.05066 -1.16629 0
M  V30 8547 H 800.99 2.04155 -3.04493 0
M  V30 8548 H 800.638 4.42824 -2.3857 0
M  V30 8549 H 800.338 4.18492 -4.12478 0
M  V30 8550 H 801.862 4.94401 -3.5833 0
M  V30 8551 H 803.276 3.05808 -4.84927 0
M  V30 8552 H 801.673 2.53234 -5.44052 0
M  V30 8553 H 802.743 1.35698 -4.65526 0
M  V30 8554 N 804.086 1.46499 0.581025 0
M  V30 8555 C 805.497 1.4604 1.16315 0
M  V30 8556 C 805.848 0.202154 1.95156 0
M  V30 8557 O 804.973 -0.694638 2.04948 0
M  V30 8558 C 805.568 2.64593 2.11604 0
M  V30 8559 C 804.127 2.6717 2.65136 0
M  V30 8560 C 803.274 2.38753 1.4104 0
M  V30 8561 H 806.225 1.54354 0.368871 0
M  V30 8562 H 806.246 2.40207 2.95095 0
M  V30 8563 H 805.758 3.56154 1.54194 0
M  V30 8564 H 803.859 1.79685 3.26411 0
M  V30 8565 H 803.972 3.67182 3.07757 0
M  V30 8566 H 802.336 1.88845 1.70908 0
M  V30 8567 H 803.119 3.32493 0.854588 0
M  V30 8568 N 805.565 -0.825799 1.34232 0
M  V30 8569 C 806.793 -1.61363 1.29497 0
M  V30 8570 C 807.208 -1.88341 -0.131536 0
M  V30 8571 O 806.565 -1.47279 -1.07773 0
M  V30 8572 C 806.616 -2.95623 2.08061 0
M  V30 8573 O 806.337 -2.69824 3.45147 0
M  V30 8574 C 807.838 -3.90032 2.10688 0
M  V30 8575 H 805.058 -0.501676 0.445603 0
M  V30 8576 H 807.602 -1.02767 1.76803 0
M  V30 8577 H 805.757 -3.50785 1.64404 0
M  V30 8578 H 806.171 -3.55412 3.85723 0
M  V30 8579 H 807.645 -4.81411 2.70087 0
M  V30 8580 H 808.122 -4.25188 1.10052 0
M  V30 8581 H 808.728 -3.40807 2.54422 0
M  V30 8582 N 807.043 -1.17915 -1.04565 0
M  V30 8583 C 807.973 -0.925033 -2.14395 0
M  V30 8584 C 808.954 0.135375 -1.6956 0
M  V30 8585 O 810.139 -0.0161774 -1.94193 0
M  V30 8586 C 807.269 -0.444469 -3.44444 0
M  V30 8587 C 806.223 -1.44478 -4.02877 0
M  V30 8588 C 805.549 -0.821933 -5.28345 0
M  V30 8589 C 806.849 -2.81995 -4.39632 0
M  V30 8590 H 808.543 -1.84354 -2.35911 0
M  V30 8591 H 806.089 -0.887806 -1.13375 0
M  V30 8592 H 808.042 -0.254078 -4.20633 0
M  V30 8593 H 806.766 0.509592 -3.226 0
M  V30 8594 H 805.425 -1.62203 -3.28764 0
M  V30 8595 H 805.073 0.139161 -5.02807 0
M  V30 8596 H 804.773 -1.48976 -5.68401 0
M  V30 8597 H 806.297 -0.641959 -6.07216 0
M  V30 8598 H 807.711 -2.67952 -5.06828 0
M  V30 8599 H 806.108 -3.45414 -4.90723 0
M  V30 8600 H 807.178 -3.35927 -3.49687 0
M  V30 8601 N 808.521 1.23394 -0.980386 0
M  V30 8602 C 809.451 2.2717 -0.540024 0
M  V30 8603 C 810.432 1.64659 0.426787 0
M  V30 8604 O 811.617 1.91543 0.320153 0
M  V30 8605 C 808.747 3.46939 0.15836 0
M  V30 8606 C 807.701 4.21802 -0.725732 0
M  V30 8607 C 807.027 5.34597 0.104866 0
M  V30 8608 C 808.327 4.81802 -2.01654 0
M  V30 8609 H 810.021 2.64257 -1.40743 0
M  V30 8610 H 807.567 1.2703 -0.678193 0
M  V30 8611 H 809.52 4.18683 0.477737 0
M  V30 8612 H 808.244 3.08912 1.06022 0
M  V30 8613 H 806.903 3.51875 -1.02857 0
M  V30 8614 H 806.551 4.92812 1.00726 0
M  V30 8615 H 806.251 5.85607 -0.483557 0
M  V30 8616 H 807.775 6.09163 0.418624 0
M  V30 8617 H 809.189 5.45554 -1.76193 0
M  V30 8618 H 807.586 5.43098 -2.55273 0
M  V30 8619 H 808.656 4.02549 -2.70338 0
M  V30 8620 N 809.999 0.752036 1.385 0
M  V30 8621 C 810.949 0.0990189 2.27785 0
M  V30 8622 C 811.933 -0.694867 1.45122 0
M  V30 8623 O 813.125 -0.561077 1.67872 0
M  V30 8624 C 810.254 -0.794531 3.33979 0
M  V30 8625 C 809.34 0.00611984 4.241 0
M  V30 8626 N 809.731 1.04174 4.94956 0
M  V30 8627 C 808.029 -0.220934 4.45452 0
M  V30 8628 C 808.73 1.52601 5.61327 0
M  V30 8629 N 807.706 0.84159 5.37046 0
M  V30 8630 H 811.508 0.892208 2.8003 0
M  V30 8631 H 809.022 0.587934 1.51384 0
M  V30 8632 H 811.019 -1.27797 3.96829 0
M  V30 8633 H 809.679 -1.58669 2.83292 0
M  V30 8634 H 810.69 1.42349 4.97953 0
M  V30 8635 H 807.367 -0.986556 4.05676 0
M  V30 8636 H 808.757 2.38857 6.2801 0
M  V30 8637 N 811.477 -1.49425 0.500989 0
M  V30 8638 C 812.407 -2.31971 -0.266775 0
M  V30 8639 C 813.388 -1.40245 -0.962563 0
M  V30 8640 O 814.573 -1.69154 -0.953968 0
M  V30 8641 C 811.703 -3.20757 -1.33163 0
M  V30 8642 C 810.657 -4.21275 -0.75572 0
M  V30 8643 C 809.983 -4.98997 -1.92109 0
M  V30 8644 C 811.283 -5.21686 0.253213 0
M  V30 8645 H 812.977 -2.96408 0.422237 0
M  V30 8646 H 810.523 -1.4254 0.204505 0
M  V30 8647 H 812.476 -3.77315 -1.87646 0
M  V30 8648 H 811.2 -2.54263 -2.04983 0
M  V30 8649 H 809.859 -3.65861 -0.232637 0
M  V30 8650 H 809.507 -4.28951 -2.62698 0
M  V30 8651 H 809.207 -5.67011 -1.54182 0
M  V30 8652 H 810.731 -5.584 -2.47026 0
M  V30 8653 H 812.145 -5.72939 -0.203483 0
M  V30 8654 H 810.542 -5.9759 0.548322 0
M  V30 8655 H 811.612 -4.70596 1.16909 0
M  V30 8656 N 812.955 -0.234822 -1.55841 0
M  V30 8657 C 814.203 0.392483 -1.98252 0
M  V30 8658 C 814.524 1.59344 -1.12404 0
M  V30 8659 O 813.794 1.94834 -0.204055 0
M  V30 8660 H 812.374 0.147999 -0.732192 0
M  V30 8661 H 815.036 -0.330804 -1.92072 0
M  V30 8662 H 814.132 0.709829 -3.03921 0
M  V30 8663 N 814.433 1.57553 0.0384317 0
M  V30 8664 C 815.849 1.54663 0.39391 0
M  V30 8665 C 816.049 0.959685 1.77179 0
M  V30 8666 O 815.105 0.576647 2.45827 0
M  V30 8667 C 816.418 2.99156 0.304352 0
M  V30 8668 C 817.966 3.10659 0.382119 0
M  V30 8669 C 818.441 4.56866 0.322111 0
M  V30 8670 N 819.932 4.61629 0.38119 0
M  V30 8671 C 820.667 5.72284 0.357501 0
M  V30 8672 N 820.163 6.92207 0.286654 0
M  V30 8673 N 821.956 5.60628 0.406538 0
M  V30 8674 H 814.107 1.9406 -0.86339 0
M  V30 8675 H 816.37 0.889673 -0.327392 0
M  V30 8676 H 816.076 3.45788 -0.642141 0
M  V30 8677 H 815.95 3.60753 1.10168 0
M  V30 8678 H 818.337 2.6398 1.31904 0
M  V30 8679 H 818.418 2.5191 -0.444391 0
M  V30 8680 H 818.062 5.0421 -0.611104 0
M  V30 8681 H 817.992 5.13515 1.1666 0
M  V30 8682 H 820.483 3.75343 0.438838 0
M  V30 8683 H 820.796 7.72316 0.273421 0
M  V30 8684 H 819.141 6.9454 0.252841 0
M  V30 8685 H 822.332 4.65836 0.459812 0
M  V30 8686 H 822.505 6.46858 0.384608 0
M  V30 8687 N 815.911 -0.310526 1.54511 0
M  V30 8688 C 816.841 -1.38757 1.878 0
M  V30 8689 C 817.822 -1.53353 0.735991 0
M  V30 8690 O 819.007 -1.67018 0.990887 0
M  V30 8691 C 816.137 -2.75327 2.11689 0
M  V30 8692 C 815.091 -2.75506 3.27537 0
M  V30 8693 C 814.417 -4.15275 3.36824 0
M  V30 8694 C 815.717 -2.38093 4.64875 0
M  V30 8695 H 817.411 -1.11146 2.78005 0
M  V30 8696 H 814.957 -0.533232 1.33763 0
M  V30 8697 H 816.91 -3.50752 2.33562 0
M  V30 8698 H 815.634 -3.04443 1.18245 0
M  V30 8699 H 814.293 -2.02538 3.05572 0
M  V30 8700 H 813.941 -4.41553 2.40915 0
M  V30 8701 H 813.641 -4.16299 4.14692 0
M  V30 8702 H 815.165 -4.92493 3.60947 0
M  V30 8703 H 816.579 -3.03232 4.86542 0
M  V30 8704 H 814.976 -2.50345 5.45387 0
M  V30 8705 H 816.046 -1.33227 4.66239 0
M  V30 8706 N 817.389 -1.46805 -0.573248 0
M  V30 8707 C 818.352 -1.57655 -1.66366 0
M  V30 8708 C 819.352 -0.452905 -1.5429 0
M  V30 8709 O 820.542 -0.717502 -1.58737 0
M  V30 8710 C 817.674 -1.50584 -3.05839 0
M  V30 8711 H 818.867 -2.54842 -1.581 0
M  V30 8712 H 816.42 -1.34756 -0.791868 0
M  V30 8713 H 817.155 -0.547127 -3.19651 0
M  V30 8714 H 816.94 -2.32118 -3.16012 0
M  V30 8715 H 818.43 -1.61282 -3.85199 0
M  V30 8716 N 818.867 0.818669 -1.34668 0
M  V30 8717 C 819.797 1.94468 -1.29245 0
M  V30 8718 C 820.778 1.69257 -0.169101 0
M  V30 8719 O 821.963 1.90794 -0.362143 0
M  V30 8720 C 819.093 3.31001 -1.05145 0
M  V30 8721 C 818.047 3.70663 -2.13992 0
M  V30 8722 C 817.373 5.05226 -1.75074 0
M  V30 8723 C 818.673 3.82312 -3.55858 0
M  V30 8724 H 820.367 1.99263 -2.2346 0
M  V30 8725 H 817.913 0.957304 -1.07572 0
M  V30 8726 H 819.866 4.09364 -0.999949 0
M  V30 8727 H 818.59 3.26517 -0.0737312 0
M  V30 8728 H 817.249 2.94578 -2.18219 0
M  V30 8729 H 816.897 4.97233 -0.759518 0
M  V30 8730 H 816.597 5.32734 -2.47928 0
M  V30 8731 H 818.121 5.86042 -1.71427 0
M  V30 8732 H 819.535 4.50935 -3.5402 0
M  V30 8733 H 817.932 4.21278 -4.2737 0
M  V30 8734 H 819.002 2.84193 -3.9289 0
M  V30 8735 N 820.346 1.18468 1.03938 0
M  V30 8736 C 821.592 0.992302 1.77553 0
M  V30 8737 C 821.947 -0.472959 1.86496 0
M  V30 8738 O 821.24 -1.34662 1.36296 0
M  V30 8739 C 821.434 1.58229 3.20466 0
M  V30 8740 C 821.263 3.1034 3.25452 0
M  V30 8741 C 820.033 3.79166 3.34008 0
M  V30 8742 C 822.231 4.07814 3.13357 0
M  V30 8743 N 820.213 5.18768 3.28258 0
M  V30 8744 C 821.584 5.33946 3.15121 0
M  V30 8745 C 823.639 3.99315 2.97409 0
M  V30 8746 C 822.342 6.52565 3.02574 0
M  V30 8747 C 824.368 5.17532 2.86208 0
M  V30 8748 C 823.73 6.42557 2.88617 0
M  V30 8749 H 819.829 0.417131 0.661457 0
M  V30 8750 H 822.413 1.50265 1.23808 0
M  V30 8751 H 820.584 1.0981 3.72554 0
M  V30 8752 H 822.316 1.32531 3.82384 0
M  V30 8753 H 819.071 3.29905 3.39794 0
M  V30 8754 H 819.495 5.91783 3.28818 0
M  V30 8755 H 824.137 3.03485 2.94375 0
M  V30 8756 H 821.855 7.48592 3.0436 0
M  V30 8757 H 825.441 5.12748 2.7492 0
M  V30 8758 H 824.321 7.32494 2.80039 0
M  V30 8759 N 821.824 -1.22873 0.986916 0
M  V30 8760 C 823.072 -1.91084 0.658121 0
M  V30 8761 C 823.393 -1.77304 -0.811675 0
M  V30 8762 O 822.663 -1.15649 -1.58121 0
M  V30 8763 H 821.243 -0.707251 0.240427 0
M  V30 8764 H 823.905 -1.49357 1.25213 0
M  V30 8765 H 823.001 -2.98373 0.915428 0
M  V30 8766 N 823.302 -0.75937 -1.38099 0
M  V30 8767 C 824.232 -0.151077 -2.33011 0
M  V30 8768 C 825.213 0.697099 -1.5516 0
M  V30 8769 O 826.398 0.637101 -1.83452 0
M  V30 8770 C 823.528 0.738423 -3.39359 0
M  V30 8771 C 822.482 -0.0074741 -4.27999 0
M  V30 8772 C 821.808 1.00066 -5.25253 0
M  V30 8773 C 823.108 -1.17926 -5.08813 0
M  V30 8774 H 824.802 -0.943933 -2.84131 0
M  V30 8775 H 822.348 -0.455362 -1.36611 0
M  V30 8776 H 824.301 1.17369 -4.04725 0
M  V30 8777 H 823.025 1.56366 -2.86735 0
M  V30 8778 H 821.684 -0.423379 -3.64147 0
M  V30 8779 H 821.332 1.82012 -4.68914 0
M  V30 8780 H 821.032 0.506199 -5.85416 0
M  V30 8781 H 822.556 1.43512 -5.93495 0
M  V30 8782 H 823.97 -0.821262 -5.67387 0
M  V30 8783 H 822.367 -1.60497 -5.78239 0
M  V30 8784 H 823.437 -1.98938 -4.42212 0
M  V30 8785 N 824.78 1.49157 -0.508906 0
M  V30 8786 C 826.028 2.02073 0.0327335 0
M  V30 8787 C 826.349 1.39012 1.3675 0
M  V30 8788 O 825.619 0.548153 1.88075 0
M  V30 8789 H 824.199 0.746848 0.0150864 0
M  V30 8790 H 826.861 1.83097 -0.667946 0
M  V30 8791 H 825.957 3.11707 0.1566 0
M  V30 8792 N 826.258 0.243083 1.55714 0
M  V30 8793 C 827.191 -0.698623 2.17243 0
M  V30 8794 C 828.169 -1.1756 1.12331 0
M  V30 8795 O 829.353 -1.25444 1.40699 0
M  V30 8796 C 826.48 -1.94901 2.77004 0
M  V30 8797 C 825.526 -1.61022 3.94936 0
M  V30 8798 S 826.359 -0.716173 5.30689 0
M  V30 8799 C 827.515 -1.97565 5.93901 0
M  V30 8800 H 827.748 -0.175724 2.9678 0
M  V30 8801 H 825.281 0.0275727 1.54375 0
M  V30 8802 H 827.239 -2.66687 3.12071 0
M  V30 8803 H 825.9 -2.44304 1.9742 0
M  V30 8804 H 825.093 -2.5398 4.35328 0
M  V30 8805 H 824.695 -0.972829 3.61126 0
M  V30 8806 H 826.987 -2.92333 6.11186 0
M  V30 8807 H 827.93 -1.61528 6.8943 0
M  V30 8808 H 828.338 -2.126 5.22935 0
M  V30 8809 N 827.736 -1.57571 -0.0300757 0
M  V30 8810 C 828.976 -1.91074 -0.725946 0
M  V30 8811 C 829.34 -0.841545 -1.72575 0
M  V30 8812 O 830.541 -1.06088 -2.46979 0
M  V30 8813 C 828.812 -3.2973 -1.37888 0
M  V30 8814 S 830.371 -3.85065 -2.10405 0
M  V30 8815 H 827.189 -0.669084 -0.240515 0
M  V30 8816 H 829.791 -1.9549 0.019384 0
M  V30 8817 H 828.495 -4.05411 -0.637974 0
M  V30 8818 H 828.026 -3.28614 -2.16278 0
M  V30 8819 H 830.041 -3.63711 -3.37533 0
M  V30 8820 N 829.214 0.302327 -1.54673 0
M  V30 8821 C 830.454 1.04568 -1.75627 0
M  V30 8822 C 830.818 1.84535 -0.530175 0
M  V30 8823 O 832.019 2.61613 -0.61743 0
M  V30 8824 C 830.29 1.92873 -3.0089 0
M  V30 8825 S 831.849 2.73872 -3.4284 0
M  V30 8826 H 828.667 0.352682 -0.617362 0
M  V30 8827 H 831.269 0.319239 -1.92876 0
M  V30 8828 H 829.973 1.32998 -3.88252 0
M  V30 8829 H 829.504 2.69887 -2.86225 0
M  V30 8830 H 831.519 3.95386 -2.99807 0
M  V30 8831 N 830.692 1.47107 0.565454 0
M  V30 8832 C 831.922 1.56681 1.34664 0
M  V30 8833 C 832.33 0.213011 1.87997 0
M  V30 8834 O 831.673 -0.802629 1.65238 0
M  V30 8835 C 831.735 2.52528 2.55871 0
M  V30 8836 C 831.399 3.98403 2.23883 0
M  V30 8837 C 832.396 4.87125 1.81673 0
M  V30 8838 C 830.081 4.43674 2.35496 0
M  V30 8839 C 832.075 6.19135 1.51494 0
M  V30 8840 C 829.762 5.75714 2.0493 0
M  V30 8841 C 830.76 6.63266 1.62996 0
M  V30 8842 O 830.448 7.92853 1.32813 0
M  V30 8843 H 830.18 0.531967 0.417117 0
M  V30 8844 H 832.734 1.93368 0.692669 0
M  V30 8845 H 830.964 2.10893 3.24131 0
M  V30 8846 H 832.653 2.5232 3.17945 0
M  V30 8847 H 833.419 4.534 1.72201 0
M  V30 8848 H 829.298 3.7574 2.67096 0
M  V30 8849 H 832.842 6.87429 1.1869 0
M  V30 8850 H 828.739 6.08983 2.14031 0
M  V30 8851 H 829.507 8.0528 1.46513 0
M  V30 8852 N 832.17 -0.811516 1.35101 0
M  V30 8853 C 833.416 -1.57068 1.28287 0
M  V30 8854 C 833.749 -1.93667 -0.143808 0
M  V30 8855 O 833.024 -1.60953 -1.09199 0
M  V30 8856 C 833.307 -2.86259 2.18466 0
M  V30 8857 C 833.16 -2.56168 3.69727 0
M  V30 8858 C 834.479 -3.87924 2.07852 0
M  V30 8859 H 831.598 -0.569869 0.467353 0
M  V30 8860 H 834.24 -0.934023 1.65457 0
M  V30 8861 H 832.39 -3.4059 1.86898 0
M  V30 8862 H 834.062 -2.08059 4.11715 0
M  V30 8863 H 832.305 -1.89436 3.90252 0
M  V30 8864 H 832.976 -3.48344 4.28206 0
M  V30 8865 H 835.452 -3.4298 2.35593 0
M  V30 8866 H 834.328 -4.76106 2.73157 0
M  V30 8867 H 834.589 -4.2923 1.05896 0
M  V30 8868 N 833.648 -1.19017 -1.03309 0
M  V30 8869 C 834.895 -0.990214 -1.76638 0
M  V30 8870 C 835.223 0.479435 -1.88498 0
M  V30 8871 O 834.478 1.37223 -1.39529 0
M  V30 8872 C 834.777 -1.59927 -3.19622 0
M  V30 8873 C 834.443 -3.09632 -3.27779 0
M  V30 8874 C 833.105 -3.50491 -3.29712 0
M  V30 8875 C 835.457 -4.05644 -3.27264 0
M  V30 8876 C 832.785 -4.85921 -3.28782 0
M  V30 8877 C 835.137 -5.41 -3.27875 0
M  V30 8878 C 833.801 -5.81295 -3.28104 0
M  V30 8879 H 833.071 -0.362345 -0.646364 0
M  V30 8880 H 835.718 -1.48197 -1.21284 0
M  V30 8881 H 834.023 -1.0297 -3.78027 0
M  V30 8882 H 835.72 -1.41989 -3.7502 0
M  V30 8883 H 832.31 -2.77073 -3.26999 0
M  V30 8884 H 836.494 -3.75124 -3.24955 0
M  V30 8885 H 831.75 -5.16427 -3.27281 0
M  V30 8886 H 835.924 -6.15157 -3.26428 0
M  V30 8887 H 833.551 -6.86211 -3.27138 0
M  V30 8888 N 835.127 1.22348 -0.993418 0
M  V30 8889 C 836.352 1.95666 -0.687727 0
M  V30 8890 C 836.777 1.72883 0.741161 0
M  V30 8891 O 836.135 1.00837 1.50671 0
M  V30 8892 C 836.183 3.46457 -0.99998 0
M  V30 8893 O 835.287 4.12281 -0.0989386 0
M  V30 8894 H 834.628 0.612102 -0.257346 0
M  V30 8895 H 837.158 1.55428 -1.33054 0
M  V30 8896 H 837.168 3.96976 -0.942035 0
M  V30 8897 H 835.843 3.62365 -2.04118 0
M  V30 8898 H 834.42 3.72295 -0.212413 0
M  V30 8899 N 836.605 0.766683 1.37694 0
M  V30 8900 C 837.568 0.155849 2.2867 0
M  V30 8901 C 838.568 -0.633509 1.47795 0
M  V30 8902 O 839.758 -0.457844 1.68076 0
M  V30 8903 C 836.89 -0.786965 3.31692 0
M  V30 8904 H 838.083 0.957748 2.84196 0
M  V30 8905 H 835.636 0.534554 1.46875 0
M  V30 8906 H 836.371 -1.61406 2.8128 0
M  V30 8907 H 836.156 -0.223182 3.91464 0
M  V30 8908 H 837.646 -1.20994 3.99688 0
M  V30 8909 N 838.083 -1.48885 0.516809 0
M  V30 8910 C 839.015 -2.27357 -0.290061 0
M  V30 8911 C 840.028 -1.34558 -0.916406 0
M  V30 8912 O 841.217 -1.59715 -0.797073 0
M  V30 8913 C 838.317 -3.07496 -1.42476 0
M  V30 8914 C 837.49 -4.27982 -0.902793 0
M  V30 8915 C 836.549 -4.90038 -1.91701 0
M  V30 8916 O 835.575 -5.49643 -1.47922 0
M  V30 8917 N 836.777 -4.811 -3.24843 0
M  V30 8918 H 839.542 -2.97244 0.382884 0
M  V30 8919 H 837.103 -1.58064 0.35032 0
M  V30 8920 H 839.095 -3.45882 -2.10113 0
M  V30 8921 H 837.665 -2.40115 -2.00159 0
M  V30 8922 H 836.885 -3.94167 -0.0508272 0
M  V30 8923 H 838.173 -5.06003 -0.532723 0
M  V30 8924 H 837.571 -4.33801 -3.63088 0
M  V30 8925 H 836.128 -5.23625 -3.8815 0
M  V30 8926 N 839.561 -0.251338 -1.55583 0
M  V30 8927 C 840.493 0.679167 -2.18906 0
M  V30 8928 C 841.506 1.13545 -1.16667 0
M  V30 8929 O 842.695 1.06146 -1.4351 0
M  V30 8930 C 839.795 1.93544 -2.78198 0
M  V30 8931 C 838.968 1.62987 -4.05899 0
M  V30 8932 C 838.027 2.73618 -4.49466 0
M  V30 8933 O 837.053 2.40815 -5.15749 0
M  V30 8934 N 838.255 4.03204 -4.1762 0
M  V30 8935 H 841.02 0.137328 -2.99385 0
M  V30 8936 H 838.581 -0.0714754 -1.61742 0
M  V30 8937 H 840.573 2.66804 -3.04299 0
M  V30 8938 H 839.143 2.38695 -2.0185 0
M  V30 8939 H 838.363 0.732237 -3.8734 0
M  V30 8940 H 839.651 1.40041 -4.89148 0
M  V30 8941 H 839.049 4.32686 -3.64416 0
M  V30 8942 H 837.606 4.72916 -4.48547 0
M  V30 8943 N 841.039 1.57585 0.0217189 0
M  V30 8944 C 841.969 2.10073 1.01939 0
M  V30 8945 C 842.95 1.0049 1.37243 0
M  V30 8946 O 844.135 1.28055 1.45999 0
M  V30 8947 C 841.265 2.58618 2.31806 0
M  V30 8948 C 840.219 3.72531 2.10724 0
M  V30 8949 C 839.545 4.07309 3.46415 0
M  V30 8950 C 840.845 5.00672 1.48743 0
M  V30 8951 H 842.539 2.9368 0.582432 0
M  V30 8952 H 840.085 1.41277 0.278715 0
M  V30 8953 H 842.038 2.9396 3.01936 0
M  V30 8954 H 840.762 1.72104 2.77575 0
M  V30 8955 H 839.421 3.37549 1.43025 0
M  V30 8956 H 839.069 3.17851 3.89846 0
M  V30 8957 H 838.769 4.84042 3.33132 0
M  V30 8958 H 840.293 4.45192 4.17895 0
M  V30 8959 H 841.707 5.33925 2.088 0
M  V30 8960 H 840.104 5.82065 1.46013 0
M  V30 8961 H 841.174 4.82769 0.45408 0
M  V30 8962 N 842.517 -0.29412 1.54831 0
M  V30 8963 C 843.449 -1.38476 1.82639 0
M  V30 8964 C 844.462 -1.46517 0.709694 0
M  V30 8965 O 845.651 -1.48712 0.987269 0
M  V30 8966 C 842.751 -2.76791 1.95551 0
M  V30 8967 C 841.924 -2.91599 3.26019 0
M  V30 8968 C 840.983 -4.10456 3.29261 0
M  V30 8969 O 840.009 -4.02214 4.02756 0
M  V30 8970 N 841.211 -5.21422 2.55145 0
M  V30 8971 H 843.976 -1.14974 2.76769 0
M  V30 8972 H 841.537 -0.484206 1.5449 0
M  V30 8973 H 843.529 -3.5456 1.95113 0
M  V30 8974 H 842.099 -2.93209 1.08384 0
M  V30 8975 H 841.319 -2.00886 3.39173 0
M  V30 8976 H 842.607 -2.98409 4.12104 0
M  V30 8977 H 842.005 -5.31 1.95078 0
M  V30 8978 H 840.562 -5.97501 2.60454 0
M  V30 8979 N 843.995 -1.47404 -0.557645 0
M  V30 8980 C 844.958 -1.59411 -1.64684 0
M  V30 8981 C 845.958 -0.469244 -1.53801 0
M  V30 8982 O 847.148 -0.734298 -1.57967 0
M  V30 8983 C 844.28 -1.5382 -3.04224 0
M  V30 8984 H 845.473 -2.56504 -1.55389 0
M  V30 8985 H 843.026 -1.35588 -0.777531 0
M  V30 8986 H 843.761 -0.581 -3.19053 0
M  V30 8987 H 843.546 -2.35456 -3.13533 0
M  V30 8988 H 845.036 -1.65358 -3.83466 0
M  V30 8989 N 845.473 0.80434 -1.35529 0
M  V30 8990 C 846.436 1.89788 -1.28503 0
M  V30 8991 C 847.436 1.59601 -0.195983 0
M  V30 8992 O 848.626 1.68292 -0.449827 0
M  V30 8993 C 845.758 3.26255 -0.98847 0
M  V30 8994 H 846.951 1.97436 -2.25741 0
M  V30 8995 H 844.504 1.00046 -1.20086 0
M  V30 8996 H 845.239 3.24294 -0.0200541 0
M  V30 8997 H 845.024 3.49551 -1.77641 0
M  V30 8998 H 846.514 4.06298 -0.964975 0
M  V30 8999 N 846.951 1.19563 1.02676 0
M  V30 9000 C 847.883 0.893054 2.11086 0
M  V30 9001 C 848.896 -0.115101 1.62393 0
M  V30 9002 O 850.085 0.11459 1.78132 0
M  V30 9003 C 847.185 0.315533 3.37428 0
M  V30 9004 C 846.358 1.37276 4.153 0
M  V30 9005 C 845.417 0.808398 5.19953 0
M  V30 9006 O 844.443 1.48661 5.49444 0
M  V30 9007 N 845.645 -0.387253 5.79207 0
M  V30 9008 H 848.41 1.82622 2.37633 0
M  V30 9009 H 845.971 1.09792 1.18984 0
M  V30 9010 H 847.963 -0.0759166 4.04629 0
M  V30 9011 H 846.533 -0.521961 3.08211 0
M  V30 9012 H 845.753 1.93897 3.43217 0
M  V30 9013 H 847.041 2.08509 4.64114 0
M  V30 9014 H 846.439 -0.955725 5.57568 0
M  V30 9015 H 844.996 -0.720457 6.47806 0
M  V30 9016 N 848.429 -1.21819 0.999893 0
M  V30 9017 C 849.675 -1.91035 0.680701 0
M  V30 9018 C 850.008 -1.77582 -0.786021 0
M  V30 9019 O 849.283 -1.14917 -1.56921 0
M  V30 9020 C 849.566 -3.43013 1.0961 0
M  V30 9021 C 849.419 -3.65481 2.6219 0
M  V30 9022 C 850.738 -4.35204 0.654616 0
M  V30 9023 H 847.857 -0.693748 0.248763 0
M  V30 9024 H 850.499 -1.43555 1.24466 0
M  V30 9025 H 848.649 -3.83581 0.616253 0
M  V30 9026 H 850.321 -3.34273 3.17899 0
M  V30 9027 H 848.564 -3.09522 3.03938 0
M  V30 9028 H 849.235 -4.71945 2.86307 0
M  V30 9029 H 851.711 -4.0219 1.06688 0
M  V30 9030 H 850.587 -5.40198 0.973492 0
M  V30 9031 H 850.848 -4.3986 -0.444458 0
M  V30 9032 N 849.908 -0.773975 -1.37286 0
M  V30 9033 C 851.133 -0.349561 -2.04433 0
M  V30 9034 C 851.558 1.02082 -1.5799 0
M  V30 9035 O 850.916 1.65458 -0.741172 0
M  V30 9036 C 850.964 -0.404292 -3.58326 0
M  V30 9037 O 850.068 0.594447 -4.08093 0
M  V30 9038 H 849.409 -0.150959 -0.646612 0
M  V30 9039 H 851.939 -1.05079 -1.75555 0
M  V30 9040 H 851.949 -0.262378 -4.07155 0
M  V30 9041 H 850.624 -1.40403 -3.91484 0
M  V30 9042 H 849.201 0.415468 -3.70578 0
M  V30 9043 N 851.386 1.48609 -0.524698 0
M  V30 9044 C 852.797 1.86516 -0.0828846 0
M  V30 9045 C 853.148 1.43478 1.33822 0
M  V30 9046 O 852.273 0.823139 2.00133 0
M  V30 9047 C 852.868 3.38495 -0.143639 0
M  V30 9048 C 851.427 3.75615 0.242951 0
M  V30 9049 C 850.574 2.72649 -0.505747 0
M  V30 9050 H 853.525 1.40589 -0.736233 0
M  V30 9051 H 853.546 3.74977 0.645955 0
M  V30 9052 H 853.058 3.69789 -1.17805 0
M  V30 9053 H 851.159 3.49935 1.27971 0
M  V30 9054 H 851.272 4.7901 -0.0929834 0
M  V30 9055 H 849.636 2.54656 0.0473482 0
M  V30 9056 H 850.419 3.06786 -1.54069 0
M  V30 9057 N 852.864 0.259585 1.55447 0
M  V30 9058 C 854.141 -0.412595 1.91199 0
M  V30 9059 C 854.521 -1.74909 1.18194 0
M  V30 9060 O 853.869 -2.26474 0.303603 0
M  V30 9061 C 854.079 -0.568195 3.44344 0
M  V30 9062 C 855.427 -0.858253 4.15836 0
M  V30 9063 O 856.451 -0.653588 3.50152 0
M  V30 9064 O 855.31 -1.24874 5.32042 0
M  V30 9065 H 852.404 -0.223403 0.796254 0
M  V30 9066 H 854.95 0.30459 1.66944 0
M  V30 9067 H 853.722 0.372989 3.89518 0
M  V30 9068 H 853.345 -1.33544 3.74502 0
M  V30 9069 N 854.342 -1.57594 -0.0133615 0
M  V30 9070 C 855.619 -1.81173 -0.737273 0
M  V30 9071 C 855.999 -0.861395 -1.92726 0
M  V30 9072 O 855.347 0.0929324 -2.28311 0
M  V30 9073 C 855.557 -3.29314 -1.15557 0
M  V30 9074 C 856.905 -3.94707 -1.56498 0
M  V30 9075 O 857.929 -3.33557 -1.24973 0
M  V30 9076 O 856.788 -5.02402 -2.15069 0
M  V30 9077 H 853.882 -0.745575 -0.357837 0
M  V30 9078 H 856.428 -1.69696 0.0110674 0
M  V30 9079 H 855.2 -3.90096 -0.30677 0
M  V30 9080 H 854.823 -3.45739 -1.96343 0
M  V30 9081 N 855.82 0.285905 -1.54985 0
M  V30 9082 C 857.069 1.01691 -1.74189 0
M  V30 9083 C 857.382 1.87908 -0.543135 0
M  V30 9084 O 858.588 2.64389 -0.617305 0
M  V30 9085 C 857.044 1.85785 -3.0824 0
M  V30 9086 C 856.652 1.04497 -4.35642 0
M  V30 9087 C 858.396 2.58393 -3.36798 0
M  V30 9088 C 856.303 1.87955 -5.60738 0
M  V30 9089 H 855.233 0.383396 -0.649248 0
M  V30 9090 H 857.884 0.27317 -1.81455 0
M  V30 9091 H 856.266 2.64205 -2.94978 0
M  V30 9092 H 857.44 0.305847 -4.59784 0
M  V30 9093 H 855.755 0.434023 -4.14132 0
M  V30 9094 H 858.352 3.21214 -4.27464 0
M  V30 9095 H 858.695 3.28011 -2.56349 0
M  V30 9096 H 859.228 1.87012 -3.511 0
M  V30 9097 H 855.967 1.22781 -6.43898 0
M  V30 9098 H 855.487 2.59499 -5.40759 0
M  V30 9099 H 857.166 2.45636 -5.98558 0
M  V30 9100 N 857.298 1.47698 0.54982 0
M  V30 9101 C 858.523 1.58579 1.33669 0
M  V30 9102 C 858.948 0.239049 1.86575 0
M  V30 9103 O 858.306 -0.786256 1.63364 0
M  V30 9104 C 858.354 2.62029 2.47736 0
M  V30 9105 O 857.458 2.17813 3.50188 0
M  V30 9106 H 856.799 0.532447 0.396732 0
M  V30 9107 H 859.329 1.93536 0.6637 0
M  V30 9108 H 859.339 2.82682 2.94202 0
M  V30 9109 H 858.014 3.59812 2.08586 0
M  V30 9110 H 856.591 2.07291 3.09976 0
M  V30 9111 N 858.776 -0.797141 1.35954 0
M  V30 9112 C 859.706 -1.92387 1.32323 0
M  V30 9113 C 860.687 -1.68967 0.196007 0
M  V30 9114 O 861.872 -1.90193 0.39245 0
M  V30 9115 C 859.002 -3.29286 1.10398 0
M  V30 9116 C 857.956 -3.67212 2.19862 0
M  V30 9117 C 857.282 -5.02377 1.8309 0
M  V30 9118 C 858.582 -3.76602 3.61896 0
M  V30 9119 H 860.276 -1.95683 2.26602 0
M  V30 9120 H 857.822 -0.94007 1.09081 0
M  V30 9121 H 859.775 -4.07721 1.06495 0
M  V30 9122 H 858.499 -3.26358 0.125668 0
M  V30 9123 H 857.158 -2.91069 2.22878 0
M  V30 9124 H 856.806 -4.95961 0.838527 0
M  V30 9125 H 856.506 -5.28722 2.56372 0
M  V30 9126 H 858.03 -5.8324 1.80729 0
M  V30 9127 H 859.444 -4.45246 3.6115 0
M  V30 9128 H 857.841 -4.14425 4.34018 0
M  V30 9129 H 858.911 -2.77906 3.97361 0
M  V30 9130 N 860.254 -1.20106 -1.0204 0
M  V30 9131 C 861.502 -1.0069 -1.75231 0
M  V30 9132 C 861.823 0.462491 -1.89436 0
M  V30 9133 O 861.093 1.33455 -1.4341 0
M  V30 9134 H 859.673 -0.369576 -0.649171 0
M  V30 9135 H 862.335 -1.51149 -1.23044 0
M  V30 9136 H 861.431 -1.46205 -2.75736 0
M  V30 9137 N 861.732 1.21287 -1.00634 0
M  V30 9138 C 862.979 1.90389 -0.6898 0
M  V30 9139 C 863.307 1.78193 0.779574 0
M  V30 9140 O 862.562 1.15358 1.58085 0
M  V30 9141 C 862.861 3.41374 -1.05824 0
M  V30 9142 C 862.527 3.73766 -2.5221 0
M  V30 9143 C 861.189 3.82317 -2.92211 0
M  V30 9144 C 863.541 3.88871 -3.47028 0
M  V30 9145 C 860.869 4.03423 -4.2599 0
M  V30 9146 C 863.221 4.11484 -4.80483 0
M  V30 9147 C 861.885 4.18263 -5.20204 0
M  V30 9148 H 861.155 0.696683 -0.252416 0
M  V30 9149 H 863.802 1.43769 -1.26502 0
M  V30 9150 H 862.107 3.8974 -0.401281 0
M  V30 9151 H 863.804 3.93118 -0.79116 0
M  V30 9152 H 860.394 3.67702 -2.20212 0
M  V30 9153 H 864.578 3.8163 -3.17289 0
M  V30 9154 H 859.834 4.06902 -4.56334 0
M  V30 9155 H 864.008 4.22115 -5.53888 0
M  V30 9156 H 861.635 4.34369 -6.23881 0
M  V30 9157 N 863.21 0.781244 1.36873 0
M  V30 9158 C 864.14 0.188128 2.32741 0
M  V30 9159 C 865.121 -0.672326 1.56249 0
M  V30 9160 O 866.306 -0.607835 1.84442 0
M  V30 9161 C 863.436 -0.684341 3.40491 0
M  V30 9162 C 862.39 0.0755641 4.27933 0
M  V30 9163 C 861.716 -0.916968 5.26779 0
M  V30 9164 C 863.016 1.26006 5.06873 0
M  V30 9165 H 864.71 0.989016 2.82593 0
M  V30 9166 H 862.256 0.477038 1.35869 0
M  V30 9167 H 864.209 -1.10915 4.06541 0
M  V30 9168 H 862.933 -1.51785 2.89187 0
M  V30 9169 H 861.592 0.481258 3.63427 0
M  V30 9170 H 861.24 -1.74528 4.71751 0
M  V30 9171 H 860.94 -0.413 5.86147 0
M  V30 9172 H 862.464 -1.34052 5.95703 0
M  V30 9173 H 863.878 0.911425 5.66009 0
M  V30 9174 H 862.275 1.69676 5.75613 0
M  V30 9175 H 863.345 2.05948 4.38991 0
M  V30 9176 N 864.689 -1.48329 0.532571 0
M  V30 9177 C 865.935 -2.028 -0.000583219 0
M  V30 9178 C 866.268 -1.40858 -1.33688 0
M  V30 9179 O 865.543 -0.555261 -1.86406 0
M  V30 9180 C 865.826 -3.59901 -0.119846 0
M  V30 9181 C 865.679 -4.32318 1.2418 0
M  V30 9182 C 866.998 -4.31904 -0.845372 0
M  V30 9183 H 864.117 -0.736999 0.00126205 0
M  V30 9184 H 866.759 -1.77024 0.690102 0
M  V30 9185 H 864.909 -3.81993 -0.708092 0
M  V30 9186 H 866.581 -4.21637 1.87136 0
M  V30 9187 H 864.824 -3.93635 1.82301 0
M  V30 9188 H 865.495 -5.40697 1.11132 0
M  V30 9189 H 867.971 -4.14658 -0.346159 0
M  V30 9190 H 866.847 -5.41509 -0.897723 0
M  V30 9191 H 867.108 -3.99369 -1.89622 0
M  V30 9192 N 866.167 -0.267825 -1.55308 0
M  V30 9193 C 867.583 0.0865107 -1.59365 0
M  V30 9194 C 867.783 1.55205 -1.28505 0
M  V30 9195 O 866.839 2.29978 -1.04241 0
M  V30 9196 C 868.152 -0.28155 -2.99379 0
M  V30 9197 C 869.7 -0.227565 -3.12172 0
M  V30 9198 C 870.175 -0.569959 -4.5444 0
M  V30 9199 N 871.666 -0.521238 -4.60258 0
M  V30 9200 C 872.401 -0.759061 -5.68354 0
M  V30 9201 N 871.897 -1.06112 -6.84626 0
M  V30 9202 N 873.69 -0.688351 -5.57869 0
M  V30 9203 H 865.841 -1.22332 -1.73633 0
M  V30 9204 H 868.104 -0.493703 -0.809297 0
M  V30 9205 H 867.81 -1.3005 -3.26772 0
M  V30 9206 H 867.684 0.381192 -3.75269 0
M  V30 9207 H 870.071 0.782093 -2.84548 0
M  V30 9208 H 870.152 -0.924461 -2.38511 0
M  V30 9209 H 869.796 -1.57727 -4.82788 0
M  V30 9210 H 869.726 0.148646 -5.2639 0
M  V30 9211 H 872.217 -0.297359 -3.76728 0
M  V30 9212 H 872.53 -1.22945 -7.62958 0
M  V30 9213 H 870.875 -1.09881 -6.86259 0
M  V30 9214 H 874.066 -0.452268 -4.6591 0
M  V30 9215 H 874.239 -0.877081 -6.42037 0
M  V30 9216 N 867.645 1.57599 0.00500368 0
M  V30 9217 C 868.608 2.07058 0.982832 0
M  V30 9218 C 869.608 0.979045 1.27559 0
M  V30 9219 O 870.798 1.24187 1.22161 0
M  V30 9220 C 867.93 2.50782 2.30914 0
M  V30 9221 H 869.123 2.94718 0.555119 0
M  V30 9222 H 866.676 1.54249 0.25237 0
M  V30 9223 H 867.411 1.66351 2.78385 0
M  V30 9224 H 867.196 3.30495 2.10987 0
M  V30 9225 H 868.686 2.89391 3.0107 0
M  V30 9226 N 869.123 -0.277682 1.55134 0
M  V30 9227 C 870.07 -1.34313 1.87693 0
M  V30 9228 C 871.04 -1.49298 0.727973 0
M  V30 9229 O 872.225 -1.6378 0.978807 0
M  V30 9230 C 869.365 -2.69922 2.15026 0
M  V30 9231 C 868.478 -2.63197 3.42565 0
M  V30 9232 C 867.613 -3.90955 3.59622 0
M  V30 9233 C 866.652 -3.78722 4.8087 0
M  V30 9234 N 865.789 -4.98303 4.94609 0
M  V30 9235 H 870.629 -1.05847 2.78569 0
M  V30 9236 H 868.166 -0.511469 1.37922 0
M  V30 9237 H 870.124 -3.48817 2.28872 0
M  V30 9238 H 868.754 -2.966 1.2739 0
M  V30 9239 H 867.806 -1.76038 3.37216 0
M  V30 9240 H 869.118 -2.50056 4.31594 0
M  V30 9241 H 868.272 -4.78291 3.7326 0
M  V30 9242 H 867.011 -4.06957 2.6877 0
M  V30 9243 H 866.016 -2.89769 4.67241 0
M  V30 9244 H 867.241 -3.64242 5.73153 0
M  V30 9245 H 865.187 -5.14725 4.06687 0
M  V30 9246 H 865.104 -4.87675 5.77676 0
M  V30 9247 H 866.372 -5.87225 5.12628 0
M  V30 9248 N 870.601 -1.47988 -0.541979 0
M  V30 9249 C 871.849 -1.55086 -1.29587 0
M  V30 9250 C 872.17 -0.221304 -1.9374 0
M  V30 9251 O 871.44 0.756128 -1.80719 0
M  V30 9252 H 870.02 -0.571307 -0.481266 0
M  V30 9253 H 872.682 -1.8438 -0.631675 0
M  V30 9254 H 871.778 -2.32556 -2.08144 0
M  V30 9255 N 872.079 0.78992 -1.36375 0
M  V30 9256 C 873.325 1.55007 -1.3077 0
M  V30 9257 C 873.658 1.93871 0.112979 0
M  V30 9258 O 872.933 1.6267 1.06625 0
M  V30 9259 C 873.216 2.82748 -2.22993 0
M  V30 9260 C 873.069 2.50253 -3.73756 0
M  V30 9261 C 874.388 3.84569 -2.13998 0
M  V30 9262 H 871.507 0.562362 -0.476359 0
M  V30 9263 H 874.149 0.907582 -1.66922 0
M  V30 9264 H 872.299 3.37573 -1.92292 0
M  V30 9265 H 873.971 2.01482 -4.14973 0
M  V30 9266 H 872.214 1.83203 -3.93216 0
M  V30 9267 H 872.885 3.41487 -4.33694 0
M  V30 9268 H 875.361 3.39188 -2.4102 0
M  V30 9269 H 874.237 4.717 -2.80697 0
M  V30 9270 H 874.498 4.27491 -1.12711 0
M  V30 9271 N 873.557 1.20646 1.01402 0
M  V30 9272 C 874.803 1.0197 1.753 0
M  V30 9273 C 875.136 -0.446803 1.8899 0
M  V30 9274 O 874.411 -1.33169 1.41762 0
M  V30 9275 C 874.694 1.70693 3.17074 0
M  V30 9276 C 874.547 3.24805 3.11162 0
M  V30 9277 C 875.866 1.44212 4.15802 0
M  V30 9278 H 872.985 0.371844 0.636318 0
M  V30 9279 H 875.627 1.48696 1.18277 0
M  V30 9280 H 873.777 1.30968 3.65759 0
M  V30 9281 H 875.449 3.73841 2.70261 0
M  V30 9282 H 873.692 3.55576 2.48492 0
M  V30 9283 H 874.363 3.68049 4.11393 0
M  V30 9284 H 876.839 1.7868 3.75783 0
M  V30 9285 H 875.715 1.94825 5.13161 0
M  V30 9286 H 875.976 0.370252 4.40547 0
M  V30 9287 N 875.035 -1.20752 1.01276 0
M  V30 9288 C 876.446 -1.7175 0.732033 0
M  V30 9289 C 876.797 -1.8131 -0.749733 0
M  V30 9290 O 875.922 -1.47301 -1.58529 0
M  V30 9291 C 876.517 -3.11936 1.32217 0
M  V30 9292 C 875.076 -3.6026 1.09039 0
M  V30 9293 C 874.223 -2.37571 1.43022 0
M  V30 9294 H 877.174 -1.0582 1.1827 0
M  V30 9295 H 877.195 -3.73802 0.710771 0
M  V30 9296 H 876.707 -3.04946 2.40061 0
M  V30 9297 H 874.808 -3.72588 0.0294464 0
M  V30 9298 H 874.921 -4.45295 1.76775 0
M  V30 9299 H 873.285 -2.40128 0.849159 0
M  V30 9300 H 874.068 -2.33225 2.51915 0
M  V30 9301 N 876.513 -0.788492 -1.36457 0
M  V30 9302 C 877.761 -0.359749 -1.98872 0
M  V30 9303 C 878.082 1.07197 -1.62892 0
M  V30 9304 O 877.352 1.73875 -0.902463 0
M  V30 9305 H 875.932 -0.130029 -0.735596 0
M  V30 9306 H 878.594 -1.01033 -1.66668 0
M  V30 9307 H 877.69 -0.450835 -3.08827 0
M  V30 9308 N 877.991 1.48044 -0.54043 0
M  V30 9309 C 879.216 2.07396 -0.0124765 0
M  V30 9310 C 879.641 1.39288 1.26414 0
M  V30 9311 O 878.999 0.462252 1.75308 0
M  V30 9312 C 879.047 3.60131 0.18377 0
M  V30 9313 O 878.151 3.92995 1.25014 0
M  V30 9314 H 877.492 0.662554 -0.0438026 0
M  V30 9315 H 880.022 1.90306 -0.751327 0
M  V30 9316 H 880.032 4.06003 0.403197 0
M  V30 9317 H 878.707 4.09105 -0.74874 0
M  V30 9318 H 877.284 3.5889 1.01254 0
M  V30 9319 N 879.47 0.276058 1.55163 0
M  V30 9320 C 880.698 -0.343772 2.04024 0
M  V30 9321 C 881.113 -1.49397 1.15438 0
M  V30 9322 O 880.47 -1.81662 0.174692 0
M  V30 9323 C 880.521 -0.823885 3.51986 0
M  V30 9324 O 880.242 0.280507 4.37201 0
M  V30 9325 C 881.743 -1.51143 4.16738 0
M  V30 9326 H 878.963 -0.07828 0.666418 0
M  V30 9327 H 881.507 0.408427 2.0038 0
M  V30 9328 H 879.662 -1.52617 3.56071 0
M  V30 9329 H 880.076 -0.0887831 5.24425 0
M  V30 9330 H 881.55 -1.79878 5.2187 0
M  V30 9331 H 882.027 -2.44327 3.64967 0
M  V30 9332 H 882.633 -0.852975 4.16659 0
M  V30 9333 N 880.948 -1.576 0.00335426 0
M  V30 9334 C 881.911 -2.07576 -0.971838 0
M  V30 9335 C 882.911 -0.985796 -1.27038 0
M  V30 9336 O 884.101 -1.24833 -1.21501 0
M  V30 9337 C 881.233 -2.52003 -2.29581 0
M  V30 9338 H 882.426 -2.95008 -0.539481 0
M  V30 9339 H 879.979 -1.54381 -0.244186 0
M  V30 9340 H 880.714 -1.67825 -2.77498 0
M  V30 9341 H 880.499 -3.31609 -2.09231 0
M  V30 9342 H 881.989 -2.90983 -2.99531 0
M  V30 9343 N 882.426 0.269451 -1.5528 0
M  V30 9344 C 883.837 0.840233 -1.66724 0
M  V30 9345 C 884.188 1.86909 -0.596621 0
M  V30 9346 O 883.313 2.14817 0.261246 0
M  V30 9347 C 883.908 1.5308 -3.02245 0
M  V30 9348 C 882.467 2.04957 -3.15705 0
M  V30 9349 C 881.614 0.892838 -2.62533 0
M  V30 9350 H 884.565 0.0457236 -1.58634 0
M  V30 9351 H 884.586 2.39792 -2.95432 0
M  V30 9352 H 884.098 0.781741 -3.80145 0
M  V30 9353 H 882.199 2.82813 -2.42585 0
M  V30 9354 H 882.312 2.26244 -4.22316 0
M  V30 9355 H 880.676 1.28719 -2.19781 0
M  V30 9356 H 881.459 0.157229 -3.4294 0
M  V30 9357 N 883.904 1.48273 0.534124 0
M  V30 9358 C 884.834 1.6538 1.64839 0
M  V30 9359 C 885.815 0.502741 1.62501 0
M  V30 9360 O 887 0.734799 1.79762 0
M  V30 9361 C 884.13 1.68949 3.03436 0
M  V30 9362 C 883.084 2.83513 3.20631 0
M  V30 9363 C 882.41 2.72169 4.60248 0
M  V30 9364 C 883.71 4.24858 3.03797 0
M  V30 9365 H 885.404 2.58663 1.50777 0
M  V30 9366 H 882.95 1.24479 0.723937 0
M  V30 9367 H 884.903 1.79505 3.81256 0
M  V30 9368 H 883.627 0.722415 3.1851 0
M  V30 9369 H 882.286 2.72505 2.45227 0
M  V30 9370 H 881.934 1.7344 4.72152 0
M  V30 9371 H 881.634 3.49042 4.72698 0
M  V30 9372 H 883.158 2.84687 5.40172 0
M  V30 9373 H 884.572 4.36721 3.71413 0
M  V30 9374 H 882.969 5.02697 3.27743 0
M  V30 9375 H 884.039 4.41611 2.0027 0
M  V30 9376 N 885.382 -0.782676 1.36792 0
M  V30 9377 C 886.292 -1.92679 1.33835 0
M  V30 9378 C 887.308 -1.72344 0.23952 0
M  V30 9379 O 888.484 -1.95766 0.473045 0
M  V30 9380 C 885.549 -3.27644 1.1336 0
M  V30 9381 C 884.61 -3.6071 2.32781 0
M  V30 9382 C 883.843 -4.89234 2.13273 0
M  V30 9383 O 884.066 -5.59468 1.11136 0
M  V30 9384 O 883 -5.21112 3.01208 0
M  V30 9385 H 886.826 -1.98124 2.30175 0
M  V30 9386 H 884.411 -0.923887 1.17408 0
M  V30 9387 H 886.293 -4.08394 1.03886 0
M  V30 9388 H 884.968 -3.23076 0.200868 0
M  V30 9389 H 883.875 -2.80238 2.47825 0
M  V30 9390 H 885.208 -3.70008 3.24584 0
M  V30 9391 N 886.86 -1.21182 -1.00761 0
M  V30 9392 C 888.107 -1.02746 -1.74498 0
M  V30 9393 C 888.435 0.439344 -1.89473 0
M  V30 9394 O 887.69 1.34232 -1.42409 0
M  V30 9395 C 887.989 -1.6667 -3.16158 0
M  V30 9396 C 887.655 -3.16515 -3.21137 0
M  V30 9397 C 886.317 -3.57405 -3.22203 0
M  V30 9398 C 888.669 -4.12495 -3.18587 0
M  V30 9399 C 885.997 -4.92786 -3.18401 0
M  V30 9400 C 888.349 -5.47833 -3.16326 0
M  V30 9401 C 887.013 -5.88124 -3.157 0
M  V30 9402 H 886.283 -0.375974 -0.638533 0
M  V30 9403 H 888.93 -1.50736 -1.18114 0
M  V30 9404 H 887.235 -1.10966 -3.75758 0
M  V30 9405 H 888.932 -1.49911 -3.71924 0
M  V30 9406 H 885.522 -2.83947 -3.21048 0
M  V30 9407 H 889.706 -3.81932 -3.16925 0
M  V30 9408 H 884.962 -5.23253 -3.16253 0
M  V30 9409 H 889.136 -6.21942 -3.13306 0
M  V30 9410 H 886.763 -6.92995 -3.12508 0
M  V30 9411 N 888.338 1.20213 -1.01915 0
M  V30 9412 C 889.268 2.25336 -0.612023 0
M  V30 9413 C 890.249 1.65933 0.374186 0
M  V30 9414 O 891.434 1.92464 0.259053 0
M  V30 9415 C 888.564 3.47267 0.047904 0
M  V30 9416 C 887.518 4.1928 -0.859557 0
M  V30 9417 C 886.844 5.3466 -0.0652655 0
M  V30 9418 C 888.144 4.75143 -2.1688 0
M  V30 9419 H 889.838 2.59645 -1.49079 0
M  V30 9420 H 887.384 1.24808 -0.718263 0
M  V30 9421 H 889.337 4.19991 0.344294 0
M  V30 9422 H 888.061 3.12129 0.961404 0
M  V30 9423 H 886.72 3.48425 -1.13999 0
M  V30 9424 H 886.368 4.95767 0.849964 0
M  V30 9425 H 886.068 5.83772 -0.669618 0
M  V30 9426 H 887.592 6.10187 0.224612 0
M  V30 9427 H 889.006 5.39672 -1.9346 0
M  V30 9428 H 887.403 5.34702 -2.72422 0
M  V30 9429 H 888.473 3.93744 -2.83008 0
M  V30 9430 N 889.816 0.795718 1.36037 0
M  V30 9431 C 890.766 0.171437 2.27355 0
M  V30 9432 C 891.75 -0.648346 1.47259 0
M  V30 9433 O 892.942 -0.507386 1.69572 0
M  V30 9434 C 890.071 -0.687876 3.36338 0
M  V30 9435 C 889.157 0.141041 4.23865 0
M  V30 9436 N 889.548 1.19868 4.91391 0
M  V30 9437 C 887.846 -0.0791045 4.4593 0
M  V30 9438 C 888.547 1.70382 5.56188 0
M  V30 9439 N 887.523 1.01202 5.34097 0
M  V30 9440 H 891.325 0.980846 2.7705 0
M  V30 9441 H 888.839 0.635798 1.49437 0
M  V30 9442 H 890.836 -1.15107 4.00694 0
M  V30 9443 H 889.496 -1.49576 2.88196 0
M  V30 9444 H 890.507 1.58119 4.93172 0
M  V30 9445 H 887.184 -0.856993 4.0861 0
M  V30 9446 H 888.574 2.58715 6.20093 0
M  V30 9447 N 891.294 -1.47756 0.548274 0
M  V30 9448 C 892.543 -2.01691 0.0187961 0
M  V30 9449 C 892.856 -1.42894 -1.33569 0
M  V30 9450 O 894.062 -1.88438 -1.95457 0
M  V30 9451 C 892.518 -3.59896 -0.016847 0
M  V30 9452 C 892.126 -4.27683 1.33385 0
M  V30 9453 C 893.87 -4.21614 -0.494188 0
M  V30 9454 C 891.777 -5.7787 1.2578 0
M  V30 9455 H 890.707 -0.753993 0.00325648 0
M  V30 9456 H 893.358 -1.69838 0.694792 0
M  V30 9457 H 891.74 -3.88672 -0.758304 0
M  V30 9458 H 892.914 -4.10559 2.09232 0
M  V30 9459 H 891.229 -3.77915 1.7484 0
M  V30 9460 H 893.826 -5.3166 -0.569342 0
M  V30 9461 H 894.169 -3.88176 -1.50417 0
M  V30 9462 H 894.702 -3.97336 0.192138 0
M  V30 9463 H 891.441 -6.15912 2.2435 0
M  V30 9464 H 890.961 -5.97355 0.540997 0
M  V30 9465 H 892.64 -6.39897 0.956109 0
M  V30 9466 N 892.772 -0.284283 -1.55015 0
M  V30 9467 C 894 0.332948 -2.04203 0
M  V30 9468 C 894.415 1.48783 -1.16229 0
M  V30 9469 O 893.772 1.81567 -0.184323 0
M  V30 9470 C 893.823 0.805207 -3.52418 0
M  V30 9471 O 893.544 -0.303689 -4.37046 0
M  V30 9472 C 895.045 1.48931 -4.17534 0
M  V30 9473 H 892.265 0.0747447 -0.666824 0
M  V30 9474 H 894.809 -0.419048 -2.00161 0
M  V30 9475 H 892.964 1.50727 -3.56876 0
M  V30 9476 H 893.378 0.0609703 -5.24465 0
M  V30 9477 H 894.852 1.77108 -5.22816 0
M  V30 9478 H 895.329 2.42389 -3.66257 0
M  V30 9479 H 895.935 0.830867 -4.17105 0
M  V30 9480 N 894.251 1.57596 -0.0117121 0
M  V30 9481 C 895.498 1.91071 0.670667 0
M  V30 9482 C 895.826 0.886457 1.73125 0
M  V30 9483 O 895.081 -0.107135 1.95407 0
M  V30 9484 C 895.38 3.31296 1.34082 0
M  V30 9485 C 895.046 4.49011 0.412305 0
M  V30 9486 C 893.708 4.80945 0.156691 0
M  V30 9487 C 896.06 5.20709 -0.226294 0
M  V30 9488 C 893.388 5.81943 -0.745619 0
M  V30 9489 C 895.74 6.22668 -1.11655 0
M  V30 9490 C 894.404 6.53053 -1.38123 0
M  V30 9491 H 893.674 0.69918 0.245415 0
M  V30 9492 H 896.321 1.91373 -0.0697511 0
M  V30 9493 H 894.626 3.27174 2.15557 0
M  V30 9494 H 896.323 3.54461 1.87506 0
M  V30 9495 H 892.913 4.24067 0.621705 0
M  V30 9496 H 897.097 4.96282 -0.0418456 0
M  V30 9497 H 892.353 6.03839 -0.958566 0
M  V30 9498 H 896.527 6.77351 -1.61767 0
M  V30 9499 H 894.154 7.31132 -2.08208 0
M  V30 9500 N 895.729 -0.261212 1.5542 0
M  V30 9501 C 896.661 -1.34571 1.85535 0
M  V30 9502 C 897.674 -1.44979 0.740612 0
M  V30 9503 O 898.863 -1.46584 1.01859 0
M  V30 9504 C 895.963 -2.7258 2.01378 0
M  V30 9505 C 895.136 -2.84618 3.32131 0
M  V30 9506 C 894.195 -4.03379 3.37893 0
M  V30 9507 O 893.221 -3.93581 4.11197 0
M  V30 9508 N 894.423 -5.15893 2.66148 0
M  V30 9509 H 897.188 -1.09078 2.79145 0
M  V30 9510 H 894.749 -0.451327 1.55482 0
M  V30 9511 H 896.741 -3.50342 2.0259 0
M  V30 9512 H 895.311 -2.90844 1.14579 0
M  V30 9513 H 894.531 -1.93647 3.43358 0
M  V30 9514 H 895.819 -2.896 4.18341 0
M  V30 9515 H 895.217 -5.26743 2.06297 0
M  V30 9516 H 893.774 -5.91842 2.73069 0
M  V30 9517 N 897.207 -1.48554 -0.526253 0
M  V30 9518 C 898.447 -1.58362 -1.29232 0
M  V30 9519 C 898.811 -0.253353 -1.90321 0
M  V30 9520 O 900.012 -0.226439 -2.67845 0
M  V30 9521 C 898.283 -2.69294 -2.3498 0
M  V30 9522 S 899.842 -2.98891 -3.21262 0
M  V30 9523 H 896.66 -0.558859 -0.439543 0
M  V30 9524 H 899.262 -1.86094 -0.599099 0
M  V30 9525 H 897.966 -3.64504 -1.88587 0
M  V30 9526 H 897.497 -2.43475 -3.09004 0
M  V30 9527 H 899.512 -2.38475 -4.35137 0
M  V30 9528 N 898.685 0.775411 -1.37205 0
M  V30 9529 C 899.932 1.53384 -1.32211 0
M  V30 9530 C 900.26 1.9427 0.0944958 0
M  V30 9531 O 899.515 1.64059 1.06692 0
M  V30 9532 C 899.814 2.81377 -2.20367 0
M  V30 9533 C 899.48 2.59561 -3.68699 0
M  V30 9534 C 898.142 2.53319 -4.09124 0
M  V30 9535 C 900.494 2.39939 -4.62686 0
M  V30 9536 C 897.822 2.25442 -5.41658 0
M  V30 9537 C 900.174 2.13586 -5.95453 0
M  V30 9538 C 898.838 2.05786 -6.34987 0
M  V30 9539 H 898.108 0.561271 -0.483793 0
M  V30 9540 H 900.755 0.893466 -1.6938 0
M  V30 9541 H 899.06 3.49954 -1.76181 0
M  V30 9542 H 900.757 3.39238 -2.13819 0
M  V30 9543 H 897.347 2.6528 -3.36637 0
M  V30 9544 H 901.531 2.43753 -4.32317 0
M  V30 9545 H 896.787 2.17896 -5.71254 0
M  V30 9546 H 900.961 1.97401 -6.67837 0
M  V30 9547 H 898.588 1.83948 -7.37609 0
M  V30 9548 N 900.163 1.21714 1.00117 0
M  V30 9549 C 901.41 1.0367 1.73951 0
M  V30 9550 C 901.738 -0.429289 1.89703 0
M  V30 9551 O 900.993 -1.33475 1.43119 0
M  V30 9552 C 901.292 1.68345 3.15269 0
M  V30 9553 C 900.958 3.18214 3.19454 0
M  V30 9554 C 899.62 3.59109 3.20303 0
M  V30 9555 C 901.972 4.14179 3.16394 0
M  V30 9556 C 899.3 4.94467 3.15783 0
M  V30 9557 C 901.652 5.49502 3.13416 0
M  V30 9558 C 900.316 5.8979 3.12577 0
M  V30 9559 H 899.586 0.379355 0.63653 0
M  V30 9560 H 902.233 1.51361 1.17312 0
M  V30 9561 H 900.538 1.12957 3.75164 0
M  V30 9562 H 902.235 1.51882 3.71124 0
M  V30 9563 H 898.825 2.85646 3.19538 0
M  V30 9564 H 903.009 3.83607 3.14895 0
M  V30 9565 H 898.265 5.24923 3.13473 0
M  V30 9566 H 902.439 6.23595 3.10003 0
M  V30 9567 H 900.066 6.94643 3.08829 0
M  V30 9568 N 901.641 -1.19671 1.02551 0
M  V30 9569 C 902.604 -2.20987 0.608055 0
M  V30 9570 C 903.604 -1.5745 -0.326534 0
M  V30 9571 O 904.794 -1.73827 -0.114003 0
M  V30 9572 C 901.926 -3.4072 -0.11074 0
M  V30 9573 H 903.119 -2.59434 1.50446 0
M  V30 9574 H 900.672 -1.3329 0.816307 0
M  V30 9575 H 901.407 -3.07787 -1.02165 0
M  V30 9576 H 901.192 -3.88069 0.560772 0
M  V30 9577 H 902.682 -4.15776 -0.389848 0
M  V30 9578 N 903.119 -0.802921 -1.35613 0
M  V30 9579 C 904.082 -0.216422 -2.28176 0
M  V30 9580 C 905.082 0.594101 -1.49422 0
M  V30 9581 O 906.272 0.41312 -1.6923 0
M  V30 9582 C 903.404 0.698746 -3.33662 0
M  V30 9583 H 904.597 -1.03276 -2.81557 0
M  V30 9584 H 902.15 -0.573307 -1.45406 0
M  V30 9585 H 902.885 1.53891 -2.85461 0
M  V30 9586 H 902.67 0.119314 -3.91918 0
M  V30 9587 H 904.16 1.10354 -4.02755 0
M  V30 9588 N 904.597 1.47463 -0.556102 0
M  V30 9589 C 905.844 2.02475 -0.0316337 0
M  V30 9590 C 906.172 1.43057 1.31777 0
M  V30 9591 O 905.427 0.575376 1.87051 0
M  V30 9592 C 905.726 3.57224 0.112126 0
M  V30 9593 C 905.392 4.35557 -1.16624 0
M  V30 9594 C 904.054 4.56678 -1.51654 0
M  V30 9595 C 906.406 4.8074 -2.01342 0
M  V30 9596 C 903.734 5.20231 -2.7125 0
M  V30 9597 C 906.086 5.45613 -3.2014 0
M  V30 9598 C 904.75 5.64967 -3.55484 0
M  V30 9599 H 904.02 0.74091 -0.0115756 0
M  V30 9600 H 906.667 1.77148 -0.727392 0
M  V30 9601 H 904.972 3.81538 0.890842 0
M  V30 9602 H 906.669 3.97438 0.533261 0
M  V30 9603 H 903.259 4.19395 -0.883489 0
M  V30 9604 H 907.443 4.64201 -1.75587 0
M  V30 9605 H 902.699 5.3341 -2.98804 0
M  V30 9606 H 906.873 5.79587 -3.86073 0
M  V30 9607 H 904.5 6.13984 -4.4825 0
M  V30 9608 N 906.075 0.2925 1.54862 0
M  V30 9609 C 907.305 -0.321646 2.04081 0
M  V30 9610 C 907.713 -1.48712 1.16967 0
M  V30 9611 O 907.056 -1.82755 0.18609 0
M  V30 9612 C 907.118 -0.848678 3.49339 0
M  V30 9613 C 906.782 0.190416 4.56603 0
M  V30 9614 C 907.779 1.01595 5.09877 0
M  V30 9615 C 905.464 0.329666 5.01217 0
M  V30 9616 C 907.458 1.96676 6.06298 0
M  V30 9617 C 905.145 1.28393 5.9746 0
M  V30 9618 C 906.143 2.10097 6.49883 0
M  V30 9619 O 905.831 3.03907 7.44242 0
M  V30 9620 H 905.563 -0.075098 0.671816 0
M  V30 9621 H 908.117 0.427531 2.00901 0
M  V30 9622 H 906.347 -1.64823 3.49815 0
M  V30 9623 H 908.036 -1.37779 3.81801 0
M  V30 9624 H 908.802 0.919197 4.7621 0
M  V30 9625 H 904.681 -0.296317 4.60047 0
M  V30 9626 H 908.225 2.60488 6.47141 0
M  V30 9627 H 904.122 1.38144 6.30545 0
M  V30 9628 H 904.89 2.98787 7.62016 0
M  V30 9629 N 907.553 -1.57587 0.0200696 0
M  V30 9630 C 908.483 -2.12702 -0.963333 0
M  V30 9631 C 909.464 -1.04094 -1.34531 0
M  V30 9632 O 910.649 -1.31881 -1.42552 0
M  V30 9633 C 907.779 -2.64673 -2.24868 0
M  V30 9634 C 906.733 -3.77987 -2.00772 0
M  V30 9635 C 906.059 -4.16351 -3.35494 0
M  V30 9636 C 907.359 -5.0444 -1.35416 0
M  V30 9637 H 909.053 -2.95121 -0.504363 0
M  V30 9638 H 906.599 -1.41966 -0.24116 0
M  V30 9639 H 908.552 -3.01862 -2.94036 0
M  V30 9640 H 907.276 -1.79403 -2.72914 0
M  V30 9641 H 905.935 -3.41223 -1.34025 0
M  V30 9642 H 905.583 -3.28075 -3.81282 0
M  V30 9643 H 905.283 -4.92705 -3.20181 0
M  V30 9644 H 906.807 -4.56115 -4.05945 0
M  V30 9645 H 908.221 -5.39273 -1.94571 0
M  V30 9646 H 906.618 -5.85732 -1.30529 0
M  V30 9647 H 907.688 -4.83803 -0.325923 0
M  V30 9648 N 909.032 0.252966 -1.55557 0
M  V30 9649 C 909.995 1.29645 -1.8901 0
M  V30 9650 C 910.995 1.41378 -0.766096 0
M  V30 9651 O 912.185 1.40183 -1.03414 0
M  V30 9652 C 909.317 2.67504 -2.11316 0
M  V30 9653 H 910.51 1.01202 -2.82309 0
M  V30 9654 H 908.063 0.491977 -1.48355 0
M  V30 9655 H 908.798 3.01095 -1.20466 0
M  V30 9656 H 908.583 2.6037 -2.93172 0
M  V30 9657 H 910.073 3.42861 -2.38403 0
M  V30 9658 N 910.51 1.48831 0.518367 0
M  V30 9659 C 911.44 1.67119 1.63075 0
M  V30 9660 C 912.421 0.519948 1.61958 0
M  V30 9661 O 913.606 0.753824 1.78972 0
M  V30 9662 C 910.736 1.72158 3.01627 0
M  V30 9663 C 909.69 2.86898 3.17606 0
M  V30 9664 C 909.016 2.77035 4.57335 0
M  V30 9665 C 910.316 4.28057 2.99274 0
M  V30 9666 H 912.01 2.60248 1.48025 0
M  V30 9667 H 909.556 1.2524 0.710694 0
M  V30 9668 H 911.509 1.83539 3.7933 0
M  V30 9669 H 910.233 0.756157 3.17726 0
M  V30 9670 H 908.892 2.75091 2.42323 0
M  V30 9671 H 908.54 1.78438 4.70286 0
M  V30 9672 H 908.24 3.54036 4.6897 0
M  V30 9673 H 909.764 2.904 5.37122 0
M  V30 9674 H 911.178 4.40636 3.6676 0
M  V30 9675 H 909.575 5.06145 3.22393 0
M  V30 9676 H 910.645 4.4371 1.95574 0
M  V30 9677 N 911.988 -0.768124 1.37614 0
M  V30 9678 C 913.213 -1.56239 1.36397 0
M  V30 9679 C 913.638 -1.8804 -0.0475839 0
M  V30 9680 O 912.996 -1.495 -1.02564 0
M  V30 9681 C 913.044 -2.84716 2.21289 0
M  V30 9682 O 912.148 -3.79249 1.62001 0
M  V30 9683 H 911.489 -0.473119 0.465891 0
M  V30 9684 H 914.019 -0.950415 1.81186 0
M  V30 9685 H 914.029 -3.33784 2.34632 0
M  V30 9686 H 912.704 -2.60899 3.2389 0
M  V30 9687 H 911.281 -3.37904 1.57719 0
M  V30 9688 N 913.466 -1.22244 -0.994698 0
M  V30 9689 C 914.429 -0.992308 -2.06606 0
M  V30 9690 C 915.429 0.0405872 -1.60749 0
M  V30 9691 O 916.619 -0.197737 -1.73074 0
M  V30 9692 C 913.751 -0.498499 -3.37236 0
M  V30 9693 H 914.944 -1.9429 -2.28455 0
M  V30 9694 H 912.497 -1.04087 -1.166 0
M  V30 9695 H 913.232 0.456531 -3.21071 0
M  V30 9696 H 913.017 -1.24367 -3.71854 0
M  V30 9697 H 914.507 -0.35768 -4.16065 0
M  V30 9698 N 914.944 1.19125 -1.03184 0
M  V30 9699 C 916.221 1.84674 -0.644574 0
M  V30 9700 C 916.601 1.92042 0.876534 0
M  V30 9701 O 915.949 1.43965 1.77444 0
M  V30 9702 C 916.159 3.23477 -1.3101 0
M  V30 9703 C 917.507 3.99608 -1.43524 0
M  V30 9704 O 918.531 3.32886 -1.2675 0
M  V30 9705 O 917.39 5.19132 -1.70776 0
M  V30 9706 H 914.484 0.795968 -0.22442 0
M  V30 9707 H 917.03 1.2659 -1.13018 0
M  V30 9708 H 915.802 3.12967 -2.34878 0
M  V30 9709 H 915.425 3.89209 -0.812547 0
M  V30 9710 N 916.422 0.810101 1.35185 0
M  V30 9711 C 917.668 0.392698 1.98962 0
M  V30 9712 C 918.001 -1.03835 1.64109 0
M  V30 9713 O 917.276 -1.721 0.9062 0
M  V30 9714 C 917.559 0.580349 3.55393 0
M  V30 9715 C 917.412 2.05658 4.00031 0
M  V30 9716 C 918.731 0.00822618 4.40099 0
M  V30 9717 H 915.85 0.144157 0.722764 0
M  V30 9718 H 918.492 1.02029 1.60281 0
M  V30 9719 H 916.642 0.0461106 3.88473 0
M  V30 9720 H 918.314 2.65348 3.77344 0
M  V30 9721 H 916.557 2.55174 3.50811 0
M  V30 9722 H 917.228 2.13875 5.08883 0
M  V30 9723 H 919.704 0.464517 4.13499 0
M  V30 9724 H 918.58 0.169414 5.48638 0
M  V30 9725 H 918.841 -1.08576 4.2856 0
M  V30 9726 N 917.9 -1.47166 0.563914 0
M  V30 9727 C 919.311 -1.86231 0.132307 0
M  V30 9728 C 919.662 -1.46976 -1.29971 0
M  V30 9729 O 918.787 -0.875911 -1.97881 0
M  V30 9730 C 919.382 -3.37996 0.233335 0
M  V30 9731 C 917.941 -3.76127 -0.143278 0
M  V30 9732 C 917.088 -2.71212 0.577857 0
M  V30 9733 H 920.039 -1.38588 0.773249 0
M  V30 9734 H 920.06 -3.76558 -0.546309 0
M  V30 9735 H 919.572 -3.66535 1.27568 0
M  V30 9736 H 917.673 -3.53205 -1.18648 0
M  V30 9737 H 917.786 -4.78595 0.219952 0
M  V30 9738 H 916.15 -2.54692 0.020186 0
M  V30 9739 H 916.933 -3.02593 1.62149 0
M  V30 9740 N 919.378 -0.300708 -1.54705 0
M  V30 9741 C 920.789 0.191995 -1.8571 0
M  V30 9742 C 921.14 1.53447 -1.22264 0
M  V30 9743 O 920.265 2.10054 -0.520226 0
M  V30 9744 C 920.86 0.355148 -3.36933 0
M  V30 9745 C 919.419 0.792071 -3.67972 0
M  V30 9746 C 918.566 -0.099756 -2.77121 0
M  V30 9747 H 921.517 -0.521729 -1.49879 0
M  V30 9748 H 921.538 1.18977 -3.61421 0
M  V30 9749 H 921.05 -0.622075 -3.83082 0
M  V30 9750 H 919.151 1.77986 -3.27341 0
M  V30 9751 H 919.264 0.611661 -4.75179 0
M  V30 9752 H 917.628 0.420909 -2.51198 0
M  V30 9753 H 918.411 -1.07333 -3.2609 0
M  V30 9754 N 920.856 1.57574 -0.0284266 0
M  V30 9755 C 921.819 2.09096 0.938691 0
M  V30 9756 C 922.819 1.00588 1.25454 0
M  V30 9757 O 924.009 1.2675 1.19499 0
M  V30 9758 C 921.141 2.55624 2.25542 0
M  V30 9759 H 922.334 2.95829 0.49248 0
M  V30 9760 H 919.887 1.5475 0.219594 0
M  V30 9761 H 920.622 1.72218 2.74793 0
M  V30 9762 H 920.407 3.34896 2.03929 0
M  V30 9763 H 921.897 2.95712 2.94863 0
M  V30 9764 N 922.334 -0.244713 1.55689 0
M  V30 9765 C 923.264 -1.30667 1.93516 0
M  V30 9766 C 924.245 -1.50094 0.800371 0
M  V30 9767 O 925.43 -1.62665 1.06083 0
M  V30 9768 C 922.56 -2.66101 2.23176 0
M  V30 9769 C 921.514 -2.61366 3.38927 0
M  V30 9770 C 920.84 -4.00616 3.54134 0
M  V30 9771 C 922.14 -2.18161 4.74555 0
M  V30 9772 H 923.834 -0.992546 2.82469 0
M  V30 9773 H 921.38 -0.476018 1.35905 0
M  V30 9774 H 923.333 -3.4053 2.48228 0
M  V30 9775 H 922.057 -2.99154 1.31051 0
M  V30 9776 H 920.716 -1.89395 3.13887 0
M  V30 9777 H 920.364 -4.30938 2.59426 0
M  V30 9778 H 920.064 -3.98335 4.31975 0
M  V30 9779 H 921.588 -4.76741 3.8151 0
M  V30 9780 H 923.002 -2.82323 4.98965 0
M  V30 9781 H 921.399 -2.26988 5.55515 0
M  V30 9782 H 922.469 -1.13333 4.7147 0
M  V30 9783 N 923.813 -1.49104 -0.510467 0
M  V30 9784 C 924.743 -1.67981 -1.62187 0
M  V30 9785 C 925.724 -0.528529 -1.6168 0
M  V30 9786 O 926.909 -0.763305 -1.7857 0
M  V30 9787 C 924.039 -1.73755 -3.0071 0
M  V30 9788 C 922.993 -2.88579 -3.1608 0
M  V30 9789 C 922.319 -2.79457 -4.5586 0
M  V30 9790 C 923.619 -4.29638 -2.97 0
M  V30 9791 H 925.313 -2.61029 -1.46643 0
M  V30 9792 H 922.859 -1.25615 -0.704042 0
M  V30 9793 H 924.812 -1.85548 -3.78352 0
M  V30 9794 H 923.536 -0.772996 -3.17321 0
M  V30 9795 H 922.195 -2.76372 -2.40861 0
M  V30 9796 H 921.843 -1.80929 -4.69333 0
M  V30 9797 H 921.543 -3.56518 -4.67086 0
M  V30 9798 H 923.067 -2.93245 -5.35574 0
M  V30 9799 H 924.481 -4.42575 -3.64418 0
M  V30 9800 H 922.878 -5.07847 -3.19704 0
M  V30 9801 H 923.948 -4.44741 -1.93219 0
M  V30 9802 N 925.291 0.760815 -1.38019 0
M  V30 9803 C 926.707 1.06289 -1.19058 0
M  V30 9804 C 926.907 2.01471 -0.0342603 0
M  V30 9805 O 925.963 2.44713 0.62224 0
M  V30 9806 C 927.276 1.6499 -2.51394 0
M  V30 9807 C 928.824 1.77196 -2.58013 0
M  V30 9808 C 929.299 2.3931 -3.90506 0
M  V30 9809 N 930.79 2.46749 -3.92007 0
M  V30 9810 C 931.525 2.95687 -4.91281 0
M  V30 9811 N 931.021 3.44715 -6.00952 0
M  V30 9812 N 932.814 2.94661 -4.78677 0
M  V30 9813 H 924.965 0.129045 -2.12008 0
M  V30 9814 H 927.228 0.119878 -0.94039 0
M  V30 9815 H 926.934 1.0252 -3.36426 0
M  V30 9816 H 926.808 2.64146 -2.6927 0
M  V30 9817 H 929.195 2.38796 -1.7338 0
M  V30 9818 H 929.276 0.767645 -2.4401 0
M  V30 9819 H 928.92 1.78346 -4.75558 0
M  V30 9820 H 928.85 3.40369 -4.01817 0
M  V30 9821 H 931.341 2.12064 -3.12789 0
M  V30 9822 H 931.654 3.80492 -6.72641 0
M  V30 9823 H 929.999 3.42791 -6.04582 0
M  V30 9824 H 933.19 2.55665 -3.92113 0
M  V30 9825 H 933.363 3.32489 -5.56197 0
M  V30 9826 N 926.769 1.22769 0.988202 0
M  V30 9827 C 927.719 0.969202 2.06375 0
M  V30 9828 C 928.703 -0.0819274 1.60691 0
M  V30 9829 O 929.895 0.129201 1.76528 0
M  V30 9830 C 927.024 0.553919 3.38802 0
M  V30 9831 C 926.11 1.64003 3.91106 0
M  V30 9832 N 926.501 2.86872 4.16579 0
M  V30 9833 C 924.799 1.5128 4.1956 0
M  V30 9834 C 925.5 3.57137 4.5916 0
M  V30 9835 N 924.476 2.84624 4.63131 0
M  V30 9836 H 928.278 1.90247 2.24017 0
M  V30 9837 H 925.792 1.12592 1.17033 0
M  V30 9838 H 927.789 0.350033 4.15428 0
M  V30 9839 H 926.449 -0.37239 3.22558 0
M  V30 9840 H 927.46 3.23254 4.04632 0
M  V30 9841 H 924.137 0.653032 4.12361 0
M  V30 9842 H 925.527 4.62428 4.87452 0
M  V30 9843 N 928.247 -1.18576 1.03814 0
M  V30 9844 C 929.177 -2.24334 0.647795 0
M  V30 9845 C 930.158 -1.66508 -0.34774 0
M  V30 9846 O 931.343 -1.92852 -0.228401 0
M  V30 9847 C 928.473 -3.47299 0.00734922 0
M  V30 9848 C 927.427 -4.17859 0.926152 0
M  V30 9849 C 926.753 -5.34489 0.150317 0
M  V30 9850 C 928.053 -4.71632 2.24411 0
M  V30 9851 H 929.747 -2.57241 1.53191 0
M  V30 9852 H 927.293 -1.23649 0.738028 0
M  V30 9853 H 929.246 -4.20486 -0.277434 0
M  V30 9854 H 927.97 -3.13619 -0.911626 0
M  V30 9855 H 926.629 -3.46567 1.19528 0
M  V30 9856 H 926.277 -4.97056 -0.770985 0
M  V30 9857 H 925.977 -5.82633 0.762407 0
M  V30 9858 H 927.501 -6.10467 -0.127508 0
M  V30 9859 H 928.915 -5.36526 2.02021 0
M  V30 9860 H 927.312 -5.303 2.80894 0
M  V30 9861 H 928.382 -3.89192 2.89236 0
M  V30 9862 N 929.725 -0.817259 -1.34754 0
M  V30 9863 C 930.972 -0.402648 -1.98457 0
M  V30 9864 C 931.3 1.03287 -1.64809 0
M  V30 9865 O 930.555 1.73316 -0.908851 0
M  V30 9866 C 930.854 -0.5453 -3.53216 0
M  V30 9867 C 930.52 -1.9457 -4.06759 0
M  V30 9868 C 929.182 -2.32881 -4.21094 0
M  V30 9869 C 931.534 -2.86141 -4.35629 0
M  V30 9870 C 928.862 -3.62108 -4.61622 0
M  V30 9871 C 931.214 -4.14826 -4.776 0
M  V30 9872 C 929.878 -4.53121 -4.9014 0
M  V30 9873 H 929.148 -0.147339 -0.726204 0
M  V30 9874 H 931.795 -1.04011 -1.60791 0
M  V30 9875 H 930.1 0.175576 -3.91406 0
M  V30 9876 H 931.797 -0.205112 -4.00475 0
M  V30 9877 H 928.387 -1.6381 -3.96061 0
M  V30 9878 H 932.571 -2.57788 -4.24098 0
M  V30 9879 H 927.827 -3.91613 -4.69521 0
M  V30 9880 H 932.001 -4.85874 -4.98899 0
M  V30 9881 H 929.628 -5.53307 -5.21302 0
M  V30 9882 N 931.203 1.46865 -0.571711 0
M  V30 9883 C 932.151 2.31897 0.180714 0
M  V30 9884 C 933.145 1.43815 0.895191 0
M  V30 9885 O 934.351 1.60501 0.814828 0
M  V30 9886 H 930.726 0.748032 0.077148 0
M  V30 9887 H 932.697 2.93185 -0.555432 0
M  V30 9888 C 931.446 3.26766 1.18824 0
M  V30 9889 H 930.769 3.94515 0.64789 0
M  V30 9890 H 932.209 3.89067 1.68532 0
M  V30 9891 C 930.668 2.51325 2.2436 0
M  V30 9892 O 931.198 2.26825 3.31532 0
M  V30 9893 N 929.404 2.12079 1.98673 0
M  V30 9894 H 928.951 2.32204 1.1153 0
M  V30 9895 H 928.909 1.61921 2.69498 0
M  V30 9896 N 932.681 0.308908 1.54543 0
M  V30 9897 C 933.921 -0.298811 2.02204 0
M  V30 9898 C 934.285 -1.50484 1.19242 0
M  V30 9899 O 935.486 -2.18445 1.56637 0
M  V30 9900 C 933.757 -0.638849 3.51644 0
M  V30 9901 S 935.316 -1.22831 4.21258 0
M  V30 9902 H 932.134 -0.0912638 0.705118 0
M  V30 9903 H 934.736 0.438622 1.90516 0
M  V30 9904 H 933.44 0.24726 4.09654 0
M  V30 9905 H 932.971 -1.40687 3.67384 0
M  V30 9906 H 934.986 -2.51579 4.27694 0
M  V30 9907 N 934.159 -1.57557 0.0367827 0
M  V30 9908 C 935.407 -1.91735 -0.63892 0
M  V30 9909 C 935.728 -0.914515 -1.72226 0
M  V30 9910 O 934.998 0.0428248 -1.95853 0
M  V30 9911 H 933.578 -0.707738 -0.23899 0
M  V30 9912 H 936.24 -1.94708 0.0863931 0
M  V30 9913 H 935.336 -2.92568 -1.08676 0
M  V30 9914 N 935.637 0.236453 -1.55816 0
M  V30 9915 C 937.053 0.585465 -1.48474 0
M  V30 9916 C 937.253 1.8785 -0.72902 0
M  V30 9917 O 936.309 2.51131 -0.262614 0
M  V30 9918 C 937.622 0.678506 -2.92945 0
M  V30 9919 C 939.17 0.770135 -3.03378 0
M  V30 9920 C 939.645 0.894649 -4.49177 0
M  V30 9921 N 941.136 0.959253 -4.53158 0
M  V30 9922 C 941.871 1.07505 -5.63232 0
M  V30 9923 N 941.367 1.15572 -6.83092 0
M  V30 9924 N 943.16 1.10902 -5.51051 0
M  V30 9925 H 935.311 -0.612241 -2.03385 0
M  V30 9926 H 937.574 -0.212796 -0.923808 0
M  V30 9927 H 937.28 -0.201757 -3.51121 0
M  V30 9928 H 937.154 1.54703 -3.44016 0
M  V30 9929 H 939.541 1.64085 -2.45276 0
M  V30 9930 H 939.622 -0.123753 -2.555 0
M  V30 9931 H 939.266 0.0284537 -5.07892 0
M  V30 9932 H 939.196 1.80373 -4.94745 0
M  V30 9933 H 941.687 0.907827 -3.66834 0
M  V30 9934 H 942 1.24343 -7.62731 0
M  V30 9935 H 940.345 1.12511 -6.85833 0
M  V30 9936 H 943.536 1.04255 -4.56343 0
M  V30 9937 H 943.709 1.19581 -6.36871 0
M  V30 9938 N 937.115 1.49373 0.502552 0
M  V30 9939 C 938.526 1.52 1.0841 0
M  V30 9940 C 938.877 0.305317 1.9381 0
M  V30 9941 O 938.002 -0.585023 2.08342 0
M  V30 9942 C 938.597 2.75437 1.97281 0
M  V30 9943 C 937.156 2.80848 2.50602 0
M  V30 9944 C 936.303 2.45894 1.28186 0
M  V30 9945 H 939.254 1.56092 0.286533 0
M  V30 9946 H 939.275 2.55511 2.81947 0
M  V30 9947 H 938.787 3.63827 1.35098 0
M  V30 9948 H 936.888 1.96735 3.16427 0
M  V30 9949 H 937.001 3.82979 2.8786 0
M  V30 9950 H 935.365 1.97639 1.60657 0
M  V30 9951 H 936.148 3.36556 0.677139 0
M  V30 9952 N 938.594 -0.753485 1.38421 0
M  V30 9953 C 939.842 -1.50962 1.34368 0
M  V30 9954 C 940.163 -1.94889 -0.0656895 0
M  V30 9955 O 939.433 -1.67652 -1.01339 0
M  V30 9956 H 938.013 -0.559967 0.494415 0
M  V30 9957 H 940.675 -0.895665 1.73101 0
M  V30 9958 H 939.771 -2.40048 1.99458 0
M  V30 9959 N 940.072 -1.23292 -0.981677 0
M  V30 9960 C 941.02 -1.0104 -2.09508 0
M  V30 9961 C 942.014 0.0501977 -1.69326 0
M  V30 9962 O 943.22 -0.103197 -1.79704 0
M  V30 9963 H 939.595 -0.309629 -0.685298 0
M  V30 9964 H 941.566 -1.95493 -2.25444 0
M  V30 9965 C 940.315 -0.616885 -3.42184 0
M  V30 9966 H 939.638 -1.4247 -3.73554 0
M  V30 9967 H 941.078 -0.500688 -4.21033 0
M  V30 9968 C 939.537 0.674721 -3.30074 0
M  V30 9969 O 940.067 1.72421 -3.62814 0
M  V30 9970 N 938.273 0.650151 -2.83234 0
M  V30 9971 H 937.82 -0.204225 -2.56789 0
M  V30 9972 H 937.778 1.51458 -2.75514 0
M  V30 9973 N 941.55 1.18024 -1.04442 0
M  V30 9974 C 942.775 1.92573 -0.770097 0
M  V30 9975 C 943.2 1.75871 0.667169 0
M  V30 9976 O 942.558 1.07136 1.46258 0
M  V30 9977 C 942.606 3.41904 -1.14602 0
M  V30 9978 O 941.71 4.11491 -0.273712 0
M  V30 9979 H 941.051 0.600636 -0.283076 0
M  V30 9980 H 943.581 1.49645 -1.39526 0
M  V30 9981 H 943.591 3.92623 -1.10956 0
M  V30 9982 H 942.266 3.53382 -2.19304 0
M  V30 9983 H 940.843 3.71059 -0.370124 0
M  V30 9984 N 943.028 0.824394 1.34319 0
M  V30 9985 C 944.439 0.471802 1.8064 0
M  V30 9986 C 944.79 -1.00793 1.6833 0
M  V30 9987 O 943.915 -1.78447 1.22416 0
M  V30 9988 C 944.51 0.849609 3.27974 0
M  V30 9989 C 943.069 0.549365 3.72369 0
M  V30 9990 C 942.216 1.06573 2.56003 0
M  V30 9991 H 945.167 1.01443 1.22045 0
M  V30 9992 H 945.188 0.153968 3.80188 0
M  V30 9993 H 944.7 1.92663 3.36902 0
M  V30 9994 H 942.801 -0.518182 3.68979 0
M  V30 9995 H 942.914 1.09446 4.66432 0
M  V30 9996 H 941.278 0.487214 2.49997 0
M  V30 9997 H 942.061 2.14923 2.677 0
M  V30 9998 N 944.506 -1.46559 0.579492 0
M  V30 9999 C 945.439 -2.27287 -0.203894 0
M  V30 10000 C 946.417 -1.3543 -0.899865 0
M  V30 10001 O 947.601 -1.64836 -0.914398 0
M  V30 10002 C 944.728 -3.13077 -1.2923 0
M  V30 10003 C 943.774 -4.20675 -0.702505 0
M  V30 10004 S 944.607 -5.3345 0.468136 0
M  V30 10005 C 945.763 -6.22806 -0.621544 0
M  V30 10006 H 945.996 -2.93382 0.481083 0
M  V30 10007 H 943.529 -1.49992 0.366311 0
M  V30 10008 H 945.487 -3.63069 -1.91548 0
M  V30 10009 H 944.148 -2.46302 -1.94921 0
M  V30 10010 H 943.341 -4.80516 -1.52053 0
M  V30 10011 H 942.943 -3.73678 -0.155046 0
M  V30 10012 H 945.235 -6.60503 -1.50803 0
M  V30 10013 H 946.178 -7.08075 -0.059961 0
M  V30 10014 H 946.586 -5.56882 -0.924242 0
M  V30 10015 N 945.984 -0.3171 -1.54377 0
M  V30 10016 C 946.947 0.53905 -2.22771 0
M  V30 10017 C 947.947 1.04865 -1.21901 0
M  V30 10018 O 949.137 0.942108 -1.46526 0
M  V30 10019 C 946.269 1.74804 -2.92671 0
M  V30 10020 H 947.462 -0.0587417 -2.99842 0
M  V30 10021 H 945.015 -0.068107 -1.56152 0
M  V30 10022 H 945.75 2.38524 -2.1972 0
M  V30 10023 H 945.535 1.39011 -3.66631 0
M  V30 10024 H 947.025 2.35592 -3.44799 0
M  V30 10025 N 947.462 1.57535 -0.0451378 0
M  V30 10026 C 948.878 1.56533 0.311373 0
M  V30 10027 C 949.078 1.05225 1.71843 0
M  V30 10028 O 948.134 0.706144 2.42425 0
M  V30 10029 C 949.447 3.00349 0.145348 0
M  V30 10030 C 950.995 3.12248 0.216908 0
M  V30 10031 C 951.47 4.57931 0.0794834 0
M  V30 10032 N 952.961 4.63 0.135954 0
M  V30 10033 C 953.696 5.73375 0.0536426 0
M  V30 10034 N 953.192 6.92753 -0.0806725 0
M  V30 10035 N 954.985 5.61995 0.108789 0
M  V30 10036 H 947.136 1.89211 -0.965044 0
M  V30 10037 H 949.399 0.871068 -0.374091 0
M  V30 10038 H 949.105 3.41898 -0.824533 0
M  V30 10039 H 948.979 3.66086 0.908903 0
M  V30 10040 H 951.366 2.70601 1.17726 0
M  V30 10041 H 951.447 2.49201 -0.577299 0
M  V30 10042 H 951.091 5.00262 -0.877516 0
M  V30 10043 H 951.021 5.18977 0.892758 0
M  V30 10044 H 953.512 3.77142 0.23926 0
M  V30 10045 H 953.825 7.7268 -0.136351 0
M  V30 10046 H 952.17 6.94904 -0.115675 0
M  V30 10047 H 955.361 4.67619 0.212235 0
M  V30 10048 H 955.534 6.47987 0.0411822 0
M  V30 10049 N 948.94 -0.228186 1.55939 0
M  V30 10050 C 949.87 -1.28607 1.94891 0
M  V30 10051 C 950.851 -1.49236 0.816245 0
M  V30 10052 O 952.036 -1.61531 1.07803 0
M  V30 10053 C 949.166 -2.63719 2.25986 0
M  V30 10054 C 948.12 -2.57757 3.4168 0
M  V30 10055 C 947.446 -3.96837 3.58364 0
M  V30 10056 C 948.746 -2.13116 4.76843 0
M  V30 10057 H 950.44 -0.962531 2.83506 0
M  V30 10058 H 947.986 -0.461577 1.36402 0
M  V30 10059 H 949.939 -3.37878 2.51826 0
M  V30 10060 H 948.663 -2.97747 1.34217 0
M  V30 10061 H 947.322 -1.86055 3.15878 0
M  V30 10062 H 946.97 -4.28162 2.63982 0
M  V30 10063 H 946.67 -3.93731 4.36176 0
M  V30 10064 H 948.194 -4.72668 3.86545 0
M  V30 10065 H 949.608 -2.77015 5.01932 0
M  V30 10066 H 948.005 -2.21083 5.57891 0
M  V30 10067 H 949.075 -1.08326 4.72645 0
M  V30 10068 N 950.418 -1.49637 -0.494624 0
M  V30 10069 C 951.348 -1.69692 -1.60396 0
M  V30 10070 C 952.329 -0.545648 -1.61111 0
M  V30 10071 O 953.514 -0.782202 -1.77751 0
M  V30 10072 C 950.644 -1.76934 -2.9885 0
M  V30 10073 C 949.598 -2.91915 -3.13001 0
M  V30 10074 C 948.924 -2.84276 -4.5287 0
M  V30 10075 C 950.224 -4.32764 -2.92426 0
M  V30 10076 H 951.918 -2.6257 -1.43866 0
M  V30 10077 H 949.464 -1.26355 -0.690679 0
M  V30 10078 H 951.417 -1.8955 -3.76362 0
M  V30 10079 H 950.141 -0.806609 -3.16483 0
M  V30 10080 H 948.8 -2.78911 -2.37916 0
M  V30 10081 H 948.448 -1.85897 -4.67388 0
M  V30 10082 H 948.148 -3.61452 -4.63278 0
M  V30 10083 H 949.672 -2.98909 -5.32434 0
M  V30 10084 H 951.086 -4.46415 -3.59703 0
M  V30 10085 H 949.483 -5.1121 -3.143 0
M  V30 10086 H 950.553 -4.46765 -1.88491 0
M  V30 10087 N 951.896 0.746133 -1.38819 0
M  V30 10088 C 953.307 1.32384 -1.31648 0
M  V30 10089 C 953.658 1.96185 0.0243086 0
M  V30 10090 O 952.783 1.95567 0.92641 0
M  V30 10091 C 953.378 2.40712 -2.38418 0
M  V30 10092 C 951.937 2.94185 -2.34803 0
M  V30 10093 C 951.084 1.67639 -2.20891 0
M  V30 10094 H 954.035 0.544457 -1.49068 0
M  V30 10095 H 954.056 3.20833 -2.04564 0
M  V30 10096 H 953.568 1.94247 -3.3599 0
M  V30 10097 H 951.669 3.44959 -1.40834 0
M  V30 10098 H 951.782 3.48057 -3.29231 0
M  V30 10099 H 950.146 1.9155 -1.67871 0
M  V30 10100 H 950.929 1.23242 -3.20416 0
M  V30 10101 N 953.375 1.23811 0.975125 0
M  V30 10102 C 954.603 1.10019 1.75224 0
M  V30 10103 C 955.018 -0.34791 1.85567 0
M  V30 10104 O 954.375 -1.24043 1.33864 0
M  V30 10105 C 954.426 1.72572 3.1765 0
M  V30 10106 O 954.147 3.11719 3.07836 0
M  V30 10107 C 955.648 1.64292 4.11732 0
M  V30 10108 H 952.868 0.38476 0.549728 0
M  V30 10109 H 955.412 1.63768 1.22476 0
M  V30 10110 H 953.567 1.22843 3.67408 0
M  V30 10111 H 953.981 3.42152 3.97533 0
M  V30 10112 H 955.455 2.12754 5.09352 0
M  V30 10113 H 955.932 0.602722 4.35045 0
M  V30 10114 H 956.538 2.13411 3.6788 0
M  V30 10115 N 954.853 -1.17469 1.05066 0
M  V30 10116 C 955.786 -2.2031 0.594863 0
M  V30 10117 C 956.764 -1.58196 -0.375878 0
M  V30 10118 O 957.948 -1.8629 -0.287798 0
M  V30 10119 C 955.075 -3.38452 -0.129614 0
M  V30 10120 C 954.121 -4.19007 0.795943 0
M  V30 10121 S 954.954 -4.8433 2.28441 0
M  V30 10122 C 956.11 -6.05862 1.57107 0
M  V30 10123 H 956.343 -2.58632 1.46618 0
M  V30 10124 H 953.876 -1.28063 0.862511 0
M  V30 10125 H 955.834 -4.06914 -0.541416 0
M  V30 10126 H 954.495 -2.98521 -0.976948 0
M  V30 10127 H 953.688 -5.0345 0.235396 0
M  V30 10128 H 953.29 -3.55976 1.14705 0
M  V30 10129 H 955.582 -6.71895 0.86969 0
M  V30 10130 H 956.525 -6.66442 2.39292 0
M  V30 10131 H 956.933 -5.54477 1.05903 0
M  V30 10132 N 956.331 -0.831506 -1.3388 0
M  V30 10133 C 957.571 -0.429648 -1.99833 0
M  V30 10134 C 957.935 0.990796 -1.6446 0
M  V30 10135 O 959.136 1.49599 -2.23324 0
M  V30 10136 C 957.407 -0.635558 -3.51704 0
M  V30 10137 S 958.966 -0.327824 -4.37574 0
M  V30 10138 H 955.784 -0.161939 -0.692313 0
M  V30 10139 H 958.386 -1.07919 -1.63015 0
M  V30 10140 H 957.09 -1.66887 -3.74936 0
M  V30 10141 H 956.621 0.0284073 -3.9339 0
M  V30 10142 H 958.636 0.855231 -4.88774 0
M  V30 10143 N 957.809 1.4625 -0.587256 0
M  V30 10144 C 959.058 2.01571 -0.0722643 0
M  V30 10145 C 959.371 1.46385 1.29733 0
M  V30 10146 O 960.577 1.93554 1.90392 0
M  V30 10147 C 959.033 3.59814 -0.078579 0
M  V30 10148 C 958.641 4.23996 -1.44678 0
M  V30 10149 C 960.385 4.22776 0.382231 0
M  V30 10150 C 958.292 5.74332 -1.41057 0
M  V30 10151 H 957.222 0.753642 -0.0232461 0
M  V30 10152 H 959.873 1.67936 -0.739577 0
M  V30 10153 H 958.255 3.90546 0.654988 0
M  V30 10154 H 959.429 4.04867 -2.20043 0
M  V30 10155 H 957.744 3.73147 -1.84799 0
M  V30 10156 H 960.341 5.32983 0.428182 0
M  V30 10157 H 960.684 3.92027 1.40072 0
M  V30 10158 H 961.217 3.96687 -0.297417 0
M  V30 10159 H 957.956 6.09747 -2.40601 0
M  V30 10160 H 957.476 5.95711 -0.699185 0
M  V30 10161 H 959.155 6.37137 -1.12543 0
M  V30 10162 N 959.287 0.325282 1.54207 0
M  V30 10163 C 960.219 -0.57395 2.21897 0
M  V30 10164 C 961.232 -1.0785 1.21952 0
M  V30 10165 O 962.421 -0.991782 1.48411 0
M  V30 10166 C 959.521 -1.8005 2.87115 0
M  V30 10167 C 958.694 -1.43435 4.13213 0
M  V30 10168 C 957.753 -2.51862 4.62009 0
M  V30 10169 O 956.779 -2.15934 5.26651 0
M  V30 10170 N 957.981 -3.8282 4.36382 0
M  V30 10171 H 960.746 0.00566918 2.99699 0
M  V30 10172 H 958.307 0.148563 1.61217 0
M  V30 10173 H 960.299 -2.51981 3.16682 0
M  V30 10174 H 958.869 -2.28792 2.13009 0
M  V30 10175 H 958.089 -0.546598 3.90392 0
M  V30 10176 H 959.377 -1.16544 4.95273 0
M  V30 10177 H 958.775 -4.14807 3.84645 0
M  V30 10178 H 957.332 -4.50976 4.70599 0
M  V30 10179 N 960.765 -1.57509 0.0534917 0
M  V30 10180 C 961.728 -2.10563 -0.905307 0
M  V30 10181 C 962.728 -1.02571 -1.23838 0
M  V30 10182 O 963.918 -1.28635 -1.17468 0
M  V30 10183 C 961.05 -2.5918 -2.21447 0
M  V30 10184 H 962.243 -2.96575 -0.445354 0
M  V30 10185 H 959.796 -1.55079 -0.194947 0
M  V30 10186 H 960.531 -1.76568 -2.72019 0
M  V30 10187 H 960.316 -3.38098 -1.98575 0
M  V30 10188 H 961.806 -3.00365 -2.90122 0
M  V30 10189 N 962.243 0.219913 -1.56058 0
M  V30 10190 C 963.468 0.965073 -1.83579 0
M  V30 10191 C 963.893 1.77092 -0.634024 0
M  V30 10192 O 963.251 1.76434 0.417205 0
M  V30 10193 C 963.299 1.85705 -3.09105 0
M  V30 10194 O 962.403 2.95261 -2.87914 0
M  V30 10195 H 961.744 0.273173 -0.605204 0
M  V30 10196 H 964.274 0.23273 -2.03272 0
M  V30 10197 H 964.284 2.26655 -3.39252 0
M  V30 10198 H 962.959 1.26476 -3.96203 0
M  V30 10199 H 961.536 2.58246 -2.69005 0
M  V30 10200 N 963.721 1.49897 0.486681 0
M  V30 10201 C 964.631 1.70379 1.6127 0
M  V30 10202 C 965.647 0.58659 1.63814 0
M  V30 10203 O 966.823 0.863044 1.81971 0
M  V30 10204 C 963.888 1.77911 2.97571 0
M  V30 10205 C 962.949 3.01569 3.0554 0
M  V30 10206 C 962.182 3.08732 4.35339 0
M  V30 10207 O 962.405 2.23099 5.2496 0
M  V30 10208 O 961.339 4.01325 4.48578 0
M  V30 10209 H 965.165 2.65799 1.46916 0
M  V30 10210 H 962.75 1.33808 0.664516 0
M  V30 10211 H 964.632 1.85135 3.78554 0
M  V30 10212 H 963.307 0.856722 3.12157 0
M  V30 10213 H 962.214 2.99854 2.23693 0
M  V30 10214 H 963.547 3.93335 2.95886 0
M  V30 10215 N 965.199 -0.738761 1.39212 0
M  V30 10216 C 966.447 -1.49529 1.35962 0
M  V30 10217 C 966.768 -1.94948 -0.0450152 0
M  V30 10218 O 966.038 -1.68717 -0.995552 0
M  V30 10219 H 964.618 -0.554692 0.500326 0
M  V30 10220 H 967.28 -0.877255 1.74041 0
M  V30 10221 H 966.376 -2.37919 2.01993 0
M  V30 10222 N 966.677 -1.24326 -0.968545 0
M  V30 10223 C 967.624 -1.0349 -2.06297 0
M  V30 10224 C 968.594 0.0515333 -1.6602 0
M  V30 10225 O 969.779 -0.102924 -1.90522 0
M  V30 10226 C 966.919 -0.64487 -3.39021 0
M  V30 10227 C 966.032 -1.80469 -3.92498 0
M  V30 10228 C 965.167 -1.36032 -5.13487 0
M  V30 10229 C 964.206 -2.49014 -5.59159 0
M  V30 10230 N 963.343 -2.05451 -6.71367 0
M  V30 10231 H 968.183 -1.97161 -2.23454 0
M  V30 10232 H 965.72 -0.982028 -1.0952 0
M  V30 10233 H 967.678 -0.399771 -4.1528 0
M  V30 10234 H 966.308 0.254845 -3.21792 0
M  V30 10235 H 965.36 -2.16348 -3.12886 0
M  V30 10236 H 966.672 -2.65365 -4.22354 0
M  V30 10237 H 965.826 -1.07405 -5.97117 0
M  V30 10238 H 964.565 -0.481887 -4.85313 0
M  V30 10239 H 963.57 -2.78402 -4.74102 0
M  V30 10240 H 964.795 -3.37413 -5.89346 0
M  V30 10241 H 962.741 -1.20004 -6.4493 0
M  V30 10242 H 962.658 -2.83901 -7.00668 0
M  V30 10243 H 963.926 -1.79962 -7.58442 0
M  V30 10244 N 968.156 1.1691 -1.05688 0
M  V30 10245 C 969.433 1.83266 -0.683601 0
M  V30 10246 C 969.813 1.93858 0.835602 0
M  V30 10247 O 969.161 1.47696 1.7435 0
M  V30 10248 C 969.371 3.20625 -1.37842 0
M  V30 10249 C 970.719 3.96473 -1.51967 0
M  V30 10250 O 971.743 3.30122 -1.33783 0
M  V30 10251 O 970.602 5.15393 -1.81749 0
M  V30 10252 H 967.696 0.791028 -0.241254 0
M  V30 10253 H 970.242 1.24165 -1.15677 0
M  V30 10254 H 969.014 3.07914 -2.41463 0
M  V30 10255 H 968.637 3.87398 -0.894921 0
M  V30 10256 N 969.634 0.838594 1.33437 0
M  V30 10257 C 970.859 0.446701 2.02532 0
M  V30 10258 C 971.284 -0.944275 1.62681 0
M  V30 10259 O 970.642 -1.61733 0.81927 0
M  V30 10260 C 970.69 0.574794 3.55989 0
M  V30 10261 O 969.794 -0.399063 4.10465 0
M  V30 10262 H 969.135 0.181637 0.638674 0
M  V30 10263 H 971.665 1.13335 1.70342 0
M  V30 10264 H 971.675 0.456339 4.0544 0
M  V30 10265 H 970.35 1.58921 3.8434 0
M  V30 10266 H 968.927 -0.238187 3.72139 0
M  V30 10267 N 971.112 -1.45937 0.595003 0
M  V30 10268 C 972.337 -2.07207 0.0894416 0
M  V30 10269 C 972.762 -1.43884 -1.21157 0
M  V30 10270 O 972.12 -0.526998 -1.73472 0
M  V30 10271 C 972.168 -3.60565 -0.0499828 0
M  V30 10272 O 971.272 -3.97364 -1.10342 0
M  V30 10273 H 970.613 -0.660471 0.0683627 0
M  V30 10274 H 973.143 -1.87386 0.82144 0
M  V30 10275 H 973.153 -4.0722 -0.252234 0
M  V30 10276 H 971.828 -4.06044 0.90006 0
M  V30 10277 H 970.405 -3.62401 -0.878645 0
M  V30 10278 N 972.59 -0.333456 -1.54032 0
M  V30 10279 C 973.836 0.266527 -2.01041 0
M  V30 10280 C 974.169 1.51006 -1.2211 0
M  V30 10281 O 973.444 1.92078 -0.306016 0
M  V30 10282 C 973.727 0.59078 -3.55221 0
M  V30 10283 C 973.58 -0.664143 -4.4487 0
M  V30 10284 C 974.899 1.40447 -4.17088 0
M  V30 10285 H 972.018 0.0953979 -0.7308 0
M  V30 10286 H 974.66 -0.451995 -1.84545 0
M  V30 10287 H 972.81 1.20292 -3.69408 0
M  V30 10288 H 974.482 -1.30227 -4.42537 0
M  V30 10289 H 972.725 -1.29106 -4.14143 0
M  V30 10290 H 973.396 -0.392664 -5.50602 0
M  V30 10291 H 975.872 0.886946 -4.06537 0
M  V30 10292 H 974.748 1.6001 -5.2506 0
M  V30 10293 H 975.009 2.40357 -3.71054 0
M  V30 10294 N 974.068 1.57479 -0.061844 0
M  V30 10295 C 975.031 2.1104 0.894127 0
M  V30 10296 C 976.031 1.03227 1.23292 0
M  V30 10297 O 977.221 1.29256 1.16784 0
M  V30 10298 C 974.353 2.6035 2.20069 0
M  V30 10299 H 975.546 2.96807 0.429619 0
M  V30 10300 H 973.099 1.55181 0.18672 0
M  V30 10301 H 973.834 1.78008 2.71079 0
M  V30 10302 H 973.619 3.39146 1.9678 0
M  V30 10303 H 975.109 3.019 2.88525 0
M  V30 10304 N 975.546 -0.211634 1.56173 0
M  V30 10305 C 976.509 -1.24588 1.92381 0
M  V30 10306 C 977.509 -1.39297 0.803311 0
M  V30 10307 O 978.699 -1.37392 1.07094 0
M  V30 10308 C 975.831 -2.61807 2.18335 0
M  V30 10309 H 977.024 -0.936814 2.84893 0
M  V30 10310 H 974.577 -0.452471 1.49607 0
M  V30 10311 H 975.312 -2.97795 1.28407 0
M  V30 10312 H 975.097 -2.52506 2.99972 0
M  V30 10313 H 976.587 -3.3642 2.4741 0
M  V30 10314 N 977.024 -1.50153 -0.478725 0
M  V30 10315 C 977.954 -1.71384 -1.58587 0
M  V30 10316 C 978.935 -0.562705 -1.60523 0
M  V30 10317 O 980.12 -0.80101 -1.76911 0
M  V30 10318 C 977.25 -1.80094 -2.96957 0
M  V30 10319 C 976.204 -2.95218 -3.09888 0
M  V30 10320 C 975.53 -2.89063 -4.49829 0
M  V30 10321 C 976.83 -4.35841 -2.8782 0
M  V30 10322 H 978.524 -2.64081 -1.41073 0
M  V30 10323 H 976.07 -1.27081 -0.677239 0
M  V30 10324 H 978.023 -1.93531 -3.74331 0
M  V30 10325 H 976.747 -0.840131 -3.1561 0
M  V30 10326 H 975.406 -2.81419 -2.34944 0
M  V30 10327 H 975.054 -1.90844 -4.6539 0
M  V30 10328 H 974.754 -3.66345 -4.59418 0
M  V30 10329 H 976.278 -3.04539 -5.29234 0
M  V30 10330 H 977.692 -4.50205 -3.54948 0
M  V30 10331 H 976.089 -5.14515 -3.0886 0
M  V30 10332 H 977.159 -4.48739 -1.83742 0
M  V30 10333 N 978.502 0.731368 -1.39602 0
M  V30 10334 C 979.432 1.85855 -1.41351 0
M  V30 10335 C 980.413 1.67839 -0.2764 0
M  V30 10336 O 981.598 1.88104 -0.482747 0
M  V30 10337 C 978.728 3.23644 -1.25983 0
M  V30 10338 C 977.682 3.56304 -2.37132 0
M  V30 10339 C 977.008 4.93069 -2.0685 0
M  V30 10340 C 978.308 3.58906 -3.79452 0
M  V30 10341 H 980.002 1.84648 -2.3568 0
M  V30 10342 H 977.548 0.886955 -1.13442 0
M  V30 10343 H 979.501 4.02176 -1.25826 0
M  V30 10344 H 978.225 3.25387 -0.281234 0
M  V30 10345 H 976.884 2.80104 -2.36511 0
M  V30 10346 H 976.532 4.91396 -1.0742 0
M  V30 10347 H 976.232 5.15888 -2.81306 0
M  V30 10348 H 977.756 5.73953 -2.0835 0
M  V30 10349 H 979.17 4.27508 -3.81982 0
M  V30 10350 H 977.567 3.93246 -4.53297 0
M  V30 10351 H 978.637 2.58631 -4.10168 0
M  V30 10352 N 979.98 1.24838 0.961938 0
M  V30 10353 C 980.912 1.00369 2.06055 0
M  V30 10354 C 981.925 -0.0288583 1.62774 0
M  V30 10355 O 983.114 0.208853 1.77274 0
M  V30 10356 C 980.214 0.493953 3.35281 0
M  V30 10357 C 979.387 1.59097 4.07439 0
M  V30 10358 C 978.446 1.08288 5.14937 0
M  V30 10359 O 977.472 1.77577 5.40791 0
M  V30 10360 N 978.674 -0.0796836 5.80445 0
M  V30 10361 H 981.439 1.94962 2.27618 0
M  V30 10362 H 979 1.15945 1.12997 0
M  V30 10363 H 980.992 0.138675 4.04462 0
M  V30 10364 H 979.562 -0.357851 3.10545 0
M  V30 10365 H 978.782 2.11817 3.32456 0
M  V30 10366 H 980.07 2.32817 4.52409 0
M  V30 10367 H 979.468 -0.658827 5.6185 0
M  V30 10368 H 978.025 -0.376057 6.50714 0
M  V30 10369 N 981.458 -1.16348 1.06306 0
M  V30 10370 C 982.405 -2.20741 0.673962 0
M  V30 10371 C 983.375 -1.628 -0.329454 0
M  V30 10372 O 984.56 -1.89547 -0.218313 0
M  V30 10373 C 981.7 -3.45036 0.0667008 0
M  V30 10374 C 980.813 -4.17221 1.12031 0
M  V30 10375 C 979.948 -5.29034 0.479176 0
M  V30 10376 C 978.987 -5.93021 1.51631 0
M  V30 10377 N 978.124 -6.96327 0.898528 0
M  V30 10378 H 982.964 -2.53376 1.56859 0
M  V30 10379 H 980.501 -1.24449 0.784276 0
M  V30 10380 H 982.459 -4.16099 -0.302916 0
M  V30 10381 H 981.089 -3.1295 -0.791333 0
M  V30 10382 H 980.141 -3.4476 1.60763 0
M  V30 10383 H 981.453 -4.60902 1.90712 0
M  V30 10384 H 980.607 -6.06674 0.0565993 0
M  V30 10385 H 979.346 -4.86517 -0.33951 0
M  V30 10386 H 978.351 -5.14104 1.94878 0
M  V30 10387 H 979.576 -6.37618 2.3371 0
M  V30 10388 H 977.522 -6.55923 0.100555 0
M  V30 10389 H 977.439 -7.38379 1.62272 0
M  V30 10390 H 978.707 -7.77888 0.5011 0
M  V30 10391 N 982.937 -0.845659 -1.3299 0
M  V30 10392 C 983.9 -0.288905 -2.27372 0
M  V30 10393 C 984.9 0.546263 -1.51237 0
M  V30 10394 O 986.09 0.359072 -1.70459 0
M  V30 10395 C 983.222 0.59224 -3.35716 0
M  V30 10396 H 984.415 -1.12181 -2.78128 0
M  V30 10397 H 981.968 -0.619276 -1.43508 0
M  V30 10398 H 982.703 1.44732 -2.90212 0
M  V30 10399 H 982.488 -0.00543255 -3.921 0
M  V30 10400 H 983.978 0.974848 -4.06062 0
M  V30 10401 N 984.415 1.45619 -0.602734 0
M  V30 10402 C 985.325 2.34288 0.120902 0
M  V30 10403 C 986.341 1.50952 0.865414 0
M  V30 10404 O 987.517 1.83768 0.824094 0
M  V30 10405 C 984.582 3.28489 1.10888 0
M  V30 10406 C 983.643 4.2773 0.366853 0
M  V30 10407 C 982.876 5.17429 1.30776 0
M  V30 10408 O 983.099 5.10459 2.54535 0
M  V30 10409 O 982.033 5.96459 0.807464 0
M  V30 10410 H 985.859 2.97559 -0.60765 0
M  V30 10411 H 983.444 1.44922 -0.363019 0
M  V30 10412 H 985.326 3.86549 1.67803 0
M  V30 10413 H 984.001 2.67789 1.81854 0
M  V30 10414 H 982.908 3.73299 -0.244643 0
M  V30 10415 H 984.241 4.91271 -0.302226 0
M  V30 10416 N 985.893 0.34162 1.53853 0
M  V30 10417 C 987.304 -0.14269 1.86154 0
M  V30 10418 C 987.655 -1.50151 1.2629 0
M  V30 10419 O 986.78 -2.08601 0.575735 0
M  V30 10420 C 987.375 -0.265691 3.37757 0
M  V30 10421 C 985.934 -0.694231 3.69942 0
M  V30 10422 C 985.081 0.173195 2.76759 0
M  V30 10423 H 988.032 0.561284 1.48443 0
M  V30 10424 H 988.053 -1.09352 3.64448 0
M  V30 10425 H 987.565 0.723424 3.81298 0
M  V30 10426 H 985.666 -1.69244 3.31945 0
M  V30 10427 H 985.779 -0.485461 4.76634 0
M  V30 10428 H 984.143 -0.35416 2.52226 0
M  V30 10429 H 984.926 1.15941 3.23129 0
M  V30 10430 N 987.371 -1.57444 0.0701946 0
M  V30 10431 C 988.321 -2.09154 -0.90767 0
M  V30 10432 C 989.305 -1.00087 -1.25982 0
M  V30 10433 O 990.497 -1.26397 -1.23906 0
M  V30 10434 C 987.626 -2.65544 -2.17581 0
M  V30 10435 C 986.712 -3.81613 -1.85021 0
M  V30 10436 N 987.103 -4.90641 -1.22904 0
M  V30 10437 C 985.401 -3.90878 -2.1478 0
M  V30 10438 C 986.102 -5.71511 -1.084 0
M  V30 10439 N 985.078 -5.1973 -1.59318 0
M  V30 10440 H 988.88 -2.90839 -0.423051 0
M  V30 10441 H 986.394 -1.61848 -0.13374 0
M  V30 10442 H 988.391 -3.00904 -2.88552 0
M  V30 10443 H 987.051 -1.85304 -2.66632 0
M  V30 10444 H 988.062 -5.1004 -0.898878 0
M  V30 10445 H 984.739 -3.21611 -2.66219 0
M  V30 10446 H 986.129 -6.69214 -0.600183 0
M  V30 10447 N 988.849 0.203349 -1.56283 0
M  V30 10448 C 989.797 1.27157 -1.94766 0
M  V30 10449 C 990.791 1.4756 -0.832005 0
M  V30 10450 O 991.997 1.48519 -1.01696 0
M  V30 10451 H 988.372 0.426712 -0.61921 0
M  V30 10452 H 990.343 0.919921 -2.83866 0
M  V30 10453 C 989.092 2.6108 -2.29636 0
M  V30 10454 H 988.415 2.46193 -3.15006 0
M  V30 10455 H 989.855 3.34591 -2.60433 0
M  V30 10456 C 988.314 3.17456 -1.12799 0
M  V30 10457 O 988.844 3.99717 -0.398661 0
M  V30 10458 N 987.05 2.76084 -0.906975 0
M  V30 10459 H 986.597 2.09294 -1.50179 0
M  V30 10460 H 986.555 3.14143 -0.127005 0
M  V30 10461 N 990.327 1.50405 0.470755 0
M  V30 10462 C 991.257 1.72222 1.57676 0
M  V30 10463 C 992.238 0.57121 1.60222 0
M  V30 10464 O 993.423 0.810381 1.76484 0
M  V30 10465 C 990.553 1.81666 2.95998 0
M  V30 10466 C 989.507 2.96857 3.08318 0
M  V30 10467 C 988.833 2.91445 4.4829 0
M  V30 10468 C 990.133 4.37361 2.85504 0
M  V30 10469 H 991.827 2.64825 1.39671 0
M  V30 10470 H 989.373 1.27438 0.67049 0
M  V30 10471 H 991.326 1.95514 3.73299 0
M  V30 10472 H 990.05 0.856856 3.1516 0
M  V30 10473 H 988.709 2.82661 2.33449 0
M  V30 10474 H 988.357 1.93309 4.64371 0
M  V30 10475 H 988.057 3.68776 4.57469 0
M  V30 10476 H 989.581 3.07341 5.27611 0
M  V30 10477 H 990.995 4.52081 3.52555 0
M  V30 10478 H 989.392 5.16145 3.06127 0
M  V30 10479 H 990.462 4.49708 1.81359 0
M  V30 10480 N 991.805 -0.723954 1.39988 0
M  V30 10481 C 992.737 -1.84859 1.35498 0
M  V30 10482 C 993.75 -1.60681 0.261812 0
M  V30 10483 O 994.939 -1.7071 0.521566 0
M  V30 10484 C 992.039 -3.21103 1.08381 0
M  V30 10485 C 991.212 -3.72546 2.2919 0
M  V30 10486 C 990.271 -4.8738 1.9836 0
M  V30 10487 O 989.297 -5.00467 2.71149 0
M  V30 10488 N 990.499 -5.72566 0.956461 0
M  V30 10489 H 993.264 -1.89212 2.3242 0
M  V30 10490 H 990.825 -0.905152 1.34233 0
M  V30 10491 H 992.817 -3.9551 0.857564 0
M  V30 10492 H 991.387 -3.1195 0.201549 0
M  V30 10493 H 990.607 -2.89365 2.67697 0
M  V30 10494 H 991.895 -4.03652 3.09746 0
M  V30 10495 H 991.293 -5.64595 0.353444 0
M  V30 10496 H 989.85 -6.46993 0.790118 0
M  V30 10497 N 993.283 -1.25346 -0.955304 0
M  V30 10498 C 994.532 -1.0945 -1.69421 0
M  V30 10499 C 994.845 0.364459 -1.92175 0
M  V30 10500 O 996.051 0.643843 -2.63755 0
M  V30 10501 C 994.507 -1.91045 -3.05008 0
M  V30 10502 C 994.115 -3.41428 -2.90053 0
M  V30 10503 C 995.859 -1.83716 -3.82686 0
M  V30 10504 C 993.766 -4.1532 -4.21026 0
M  V30 10505 H 992.696 -0.405978 -0.635372 0
M  V30 10506 H 995.347 -1.49536 -1.06354 0
M  V30 10507 H 993.729 -1.43781 -3.68975 0
M  V30 10508 H 994.903 -3.9636 -2.35022 0
M  V30 10509 H 993.218 -3.49842 -2.25831 0
M  V30 10510 H 995.815 -2.36217 -4.79693 0
M  V30 10511 H 996.158 -0.804919 -4.08444 0
M  V30 10512 H 996.691 -2.28726 -3.25468 0
M  V30 10513 H 993.43 -5.18955 -4.00457 0
M  V30 10514 H 992.95 -3.65172 -4.75825 0
M  V30 10515 H 994.629 -4.22999 -4.89572 0
M  V30 10516 N 994.761 1.15782 -1.06922 0
M  V30 10517 C 995.989 1.90355 -0.81072 0
M  V30 10518 C 996.404 1.77779 0.635614 0
M  V30 10519 O 995.761 1.12675 1.43564 0
M  V30 10520 C 995.812 3.4085 -1.2043 0
M  V30 10521 O 995.533 3.53057 -2.59388 0
M  V30 10522 C 997.034 4.32457 -0.974473 0
M  V30 10523 H 994.254 0.60343 -0.293451 0
M  V30 10524 H 996.798 1.46723 -1.42452 0
M  V30 10525 H 994.953 3.82162 -0.634909 0
M  V30 10526 H 995.367 4.46426 -2.75326 0
M  V30 10527 H 996.841 5.36488 -1.29942 0
M  V30 10528 H 997.318 4.39109 0.0894481 0
M  V30 10529 H 997.924 3.96882 -1.52856 0
M  V30 10530 N 996.239 0.8527 1.3254 0
M  V30 10531 C 997.202 0.300959 2.27215 0
M  V30 10532 C 998.202 -0.538235 1.51525 0
M  V30 10533 O 999.392 -0.350027 1.70647 0
M  V30 10534 C 996.524 -0.574428 3.36025 0
M  V30 10535 H 997.717 1.13655 2.77529 0
M  V30 10536 H 995.27 0.626878 1.43178 0
M  V30 10537 H 996.005 -1.43191 2.90976 0
M  V30 10538 H 995.79 0.0262265 3.92091 0
M  V30 10539 H 997.28 -0.9533 4.06573 0
M  V30 10540 N 997.718 -1.45297 0.610449 0
M  V30 10541 C 998.681 -2.28995 -0.0968194 0
M  V30 10542 C 999.681 -1.39923 -0.792353 0
M  V30 10543 O 1000.87 -1.62014 -0.64008 0
M  V30 10544 C 998.003 -3.21013 -1.14731 0
M  V30 10545 H 999.196 -2.93012 0.639082 0
M  V30 10546 H 996.749 -1.51867 0.369624 0
M  V30 10547 H 997.484 -2.61803 -1.91388 0
M  V30 10548 H 997.269 -3.86628 -0.652753 0
M  V30 10549 H 998.759 -3.8394 -1.64256 0
M  V30 10550 N 999.196 -0.349774 -1.5367 0
M  V30 10551 C 1000.44 0.244827 -2.01015 0
M  V30 10552 C 1000.77 1.50057 -1.23746 0
M  V30 10553 O 1000.03 1.9315 -0.314872 0
M  V30 10554 C 1000.32 0.598311 -3.52356 0
M  V30 10555 C 999.991 -0.56127 -4.47393 0
M  V30 10556 C 998.653 -0.879481 -4.73095 0
M  V30 10557 C 1001 -1.3389 -5.03709 0
M  V30 10558 C 998.333 -1.97758 -5.52366 0
M  V30 10559 C 1000.68 -2.4273 -5.84179 0
M  V30 10560 C 999.349 -2.75103 -6.08173 0
M  V30 10561 H 998.619 0.0895884 -0.735564 0
M  V30 10562 H 1001.27 -0.478975 -1.85413 0
M  V30 10563 H 999.571 1.40291 -3.65822 0
M  V30 10564 H 1001.27 1.07036 -3.86451 0
M  V30 10565 H 997.858 -0.303201 -4.27526 0
M  V30 10566 H 1002.04 -1.10632 -4.83812 0
M  V30 10567 H 997.298 -2.23257 -5.6918 0
M  V30 10568 H 1001.47 -3.03412 -6.26828 0
M  V30 10569 H 999.099 -3.60317 -6.69385 0
M  V30 10570 N 1000.67 1.57404 -0.0785433 0
M  V30 10571 C 1001.6 2.16131 0.883726 0
M  V30 10572 C 1002.58 1.09015 1.30575 0
M  V30 10573 O 1003.77 1.3708 1.37559 0
M  V30 10574 C 1000.9 2.72836 2.1489 0
M  V30 10575 C 999.854 3.85178 1.86605 0
M  V30 10576 C 999.18 4.28516 3.1981 0
M  V30 10577 C 1000.48 5.09118 1.16601 0
M  V30 10578 H 1002.17 2.9679 0.394484 0
M  V30 10579 H 999.72 1.42763 0.188304 0
M  V30 10580 H 1001.67 3.12567 2.8263 0
M  V30 10581 H 1000.4 1.89408 2.66068 0
M  V30 10582 H 999.056 3.45962 1.21268 0
M  V30 10583 H 998.704 3.42 3.68843 0
M  V30 10584 H 998.404 5.04249 3.01674 0
M  V30 10585 H 999.928 4.70868 3.88737 0
M  V30 10586 H 1001.34 5.46123 1.74422 0
M  V30 10587 H 999.739 5.90173 1.087 0
M  V30 10588 H 1000.81 4.8468 0.146138 0
M  V30 10589 N 1002.15 -0.195058 1.56388 0
M  V30 10590 C 1003.11 -1.2254 1.93692 0
M  V30 10591 C 1004.11 -1.38437 0.81804 0
M  V30 10592 O 1005.3 -1.36248 1.08545 0
M  V30 10593 C 1002.44 -2.59476 2.21099 0
M  V30 10594 H 1003.63 -0.906544 2.8587 0
M  V30 10595 H 1001.18 -0.436577 1.50079 0
M  V30 10596 H 1001.92 -2.96417 1.31558 0
M  V30 10597 H 1001.7 -2.4931 3.02634 0
M  V30 10598 H 1003.19 -3.33777 2.50964 0
M  V30 10599 N 1003.63 -1.50653 -0.462772 0
M  V30 10600 C 1004.88 -1.61737 -1.21184 0
M  V30 10601 C 1005.2 -0.32369 -1.92295 0
M  V30 10602 O 1004.47 0.659269 -1.84473 0
M  V30 10603 H 1003.05 -0.596015 -0.450306 0
M  V30 10604 H 1005.71 -1.87469 -0.533051 0
M  V30 10605 H 1004.81 -2.43262 -1.95525 0
M  V30 10606 N 1005.11 0.71652 -1.4037 0
M  V30 10607 C 1006.04 1.84345 -1.43315 0
M  V30 10608 C 1007.02 1.67537 -0.294186 0
M  V30 10609 O 1008.2 1.87582 -0.502671 0
M  V30 10610 C 1005.33 3.2229 -1.29408 0
M  V30 10611 C 1004.29 3.53769 -2.40897 0
M  V30 10612 C 1003.61 4.90847 -2.12068 0
M  V30 10613 C 1004.91 3.54862 -3.83237 0
M  V30 10614 H 1006.61 1.82138 -2.37626 0
M  V30 10615 H 1004.15 0.874873 -1.14376 0
M  V30 10616 H 1006.11 4.00819 -1.30085 0
M  V30 10617 H 1004.83 3.2507 -0.31573 0
M  V30 10618 H 1003.49 2.77579 -2.39469 0
M  V30 10619 H 1003.14 4.90229 -1.12626 0
M  V30 10620 H 1002.84 5.12875 -2.86762 0
M  V30 10621 H 1004.36 5.71711 -2.14426 0
M  V30 10622 H 1005.78 4.23432 -3.86494 0
M  V30 10623 H 1004.17 3.88416 -4.57442 0
M  V30 10624 H 1005.24 2.54266 -4.12888 0
M  V30 10625 N 1006.59 1.25851 0.948643 0
M  V30 10626 C 1007.52 1.09248 2.06367 0
M  V30 10627 C 1008.5 -0.000205168 1.701 0
M  V30 10628 O 1009.68 0.170442 1.93451 0
M  V30 10629 C 1006.81 0.716777 3.39823 0
M  V30 10630 C 1005.77 1.76036 3.90122 0
M  V30 10631 C 1005.09 1.23918 5.20143 0
M  V30 10632 C 1006.39 3.16039 4.15833 0
M  V30 10633 H 1008.09 2.02518 2.20515 0
M  V30 10634 H 1005.63 0.975093 1.05962 0
M  V30 10635 H 1007.59 0.587531 4.17284 0
M  V30 10636 H 1006.31 -0.251626 3.25629 0
M  V30 10637 H 1004.97 1.87815 3.14835 0
M  V30 10638 H 1004.62 0.260836 5.02323 0
M  V30 10639 H 1004.32 1.93673 5.54765 0
M  V30 10640 H 1005.84 1.12245 6.00194 0
M  V30 10641 H 1007.25 3.0738 4.83933 0
M  V30 10642 H 1005.65 3.83317 4.61723 0
M  V30 10643 H 1006.72 3.62652 3.21887 0
M  V30 10644 N 1008.06 -1.15214 1.07534 0
M  V30 10645 C 1009.29 -1.90463 0.820883 0
M  V30 10646 C 1009.71 -1.77578 -0.620305 0
M  V30 10647 O 1009.07 -1.10976 -1.43366 0
M  V30 10648 C 1009.12 -3.38746 1.23627 0
M  V30 10649 O 1008.22 -4.1062 0.382715 0
M  V30 10650 H 1007.57 -0.59292 0.298901 0
M  V30 10651 H 1010.1 -1.45893 1.43445 0
M  V30 10652 H 1010.11 -3.89543 1.21327 0
M  V30 10653 H 1008.78 -3.47443 2.28596 0
M  V30 10654 H 1007.36 -3.69947 0.468374 0
M  V30 10655 N 1009.54 -0.859717 -1.32086 0
M  V30 10656 C 1010.96 -0.55025 -1.49815 0
M  V30 10657 C 1011.16 0.917966 -1.79376 0
M  V30 10658 O 1010.21 1.70073 -1.86632 0
M  V30 10659 C 1011.53 -1.44161 -2.6389 0
M  V30 10660 C 1013.08 -1.44257 -2.77775 0
M  V30 10661 C 1013.55 -2.31926 -3.94936 0
M  V30 10662 N 1015.04 -2.2975 -4.02206 0
M  V30 10663 C 1015.78 -2.9431 -4.92107 0
M  V30 10664 N 1015.27 -3.68001 -5.86981 0
M  V30 10665 N 1017.07 -2.83671 -4.8527 0
M  V30 10666 H 1009.22 -1.80987 -1.11164 0
M  V30 10667 H 1011.48 -0.773313 -0.548353 0
M  V30 10668 H 1011.19 -2.48588 -2.4879 0
M  V30 10669 H 1011.06 -1.13268 -3.59792 0
M  V30 10670 H 1013.45 -0.405923 -2.92295 0
M  V30 10671 H 1013.53 -1.79169 -1.82571 0
M  V30 10672 H 1013.17 -3.35661 -3.81174 0
M  V30 10673 H 1013.1 -1.94344 -4.89426 0
M  V30 10674 H 1015.59 -1.76177 -3.3432 0
M  V30 10675 H 1015.91 -4.14417 -6.52287 0
M  V30 10676 H 1014.25 -3.72109 -5.86992 0
M  V30 10677 H 1017.44 -2.25647 -4.10123 0
M  V30 10678 H 1017.61 -3.34267 -5.5513 0
M  V30 10679 N 1011.02 1.44971 -0.618145 0
M  V30 10680 C 1011.93 2.34403 0.0960457 0
M  V30 10681 C 1012.95 1.51862 0.849355 0
M  V30 10682 O 1014.12 1.84632 0.804557 0
M  V30 10683 C 1011.19 3.29646 1.07397 0
M  V30 10684 C 1010.25 4.28095 0.321466 0
M  V30 10685 C 1009.48 5.18787 1.25281 0
M  V30 10686 O 1009.7 5.1313 2.49106 0
M  V30 10687 O 1008.64 5.97282 0.744156 0
M  V30 10688 H 1012.46 2.96898 -0.639176 0
M  V30 10689 H 1010.05 1.44529 -0.37837 0
M  V30 10690 H 1011.93 3.88307 1.63694 0
M  V30 10691 H 1010.61 2.69702 1.79004 0
M  V30 10692 H 1009.51 3.73019 -0.284223 0
M  V30 10693 H 1010.85 4.90923 -0.354315 0
M  V30 10694 N 1012.5 0.357919 1.53482 0
M  V30 10695 C 1013.45 -0.50845 2.22258 0
M  V30 10696 C 1014.43 -1.05476 1.21506 0
M  V30 10697 O 1015.62 -0.986075 1.46988 0
M  V30 10698 C 1012.75 -1.65157 3.00962 0
M  V30 10699 C 1011.84 -1.11851 4.09084 0
M  V30 10700 N 1012.23 -0.307818 5.04862 0
M  V30 10701 C 1010.53 -1.39405 4.23653 0
M  V30 10702 C 1011.23 -0.016842 5.81698 0
M  V30 10703 N 1010.21 -0.612396 5.40139 0
M  V30 10704 H 1014.01 0.117836 2.93664 0
M  V30 10705 H 1011.52 0.16553 1.61554 0
M  V30 10706 H 1013.52 -2.28435 3.48745 0
M  V30 10707 H 1012.18 -2.281 2.31086 0
M  V30 10708 H 1013.19 0.0523313 5.17874 0
M  V30 10709 H 1009.87 -2.02682 3.65002 0
M  V30 10710 H 1011.26 0.638046 6.68864 0
M  V30 10711 N 1013.98 -1.5736 0.0868897 0
M  V30 10712 C 1015.22 -1.95147 -0.573512 0
M  V30 10713 C 1015.58 -0.967591 -1.66299 0
M  V30 10714 O 1014.87 0.00774571 -1.91598 0
M  V30 10715 C 1015.06 -3.37316 -1.18123 0
M  V30 10716 C 1014.89 -4.49443 -0.152145 0
M  V30 10717 C 1013.66 -5.04586 0.268496 0
M  V30 10718 C 1015.86 -5.10592 0.616502 0
M  V30 10719 N 1013.84 -6.00264 1.28671 0
M  V30 10720 C 1015.21 -6.0191 1.48677 0
M  V30 10721 C 1017.27 -4.93359 0.67092 0
M  V30 10722 C 1015.97 -6.77844 2.40664 0
M  V30 10723 C 1018 -5.69949 1.57837 0
M  V30 10724 C 1017.36 -6.60927 2.43628 0
M  V30 10725 H 1013.46 -0.760898 -0.180439 0
M  V30 10726 H 1016.04 -1.93978 0.167548 0
M  V30 10727 H 1014.21 -3.39194 -1.89214 0
M  V30 10728 H 1015.95 -3.62301 -1.80332 0
M  V30 10729 H 1012.7 -4.73454 -0.117625 0
M  V30 10730 H 1013.13 -6.52804 1.79377 0
M  V30 10731 H 1017.77 -4.22794 0.0218207 0
M  V30 10732 H 1015.49 -7.47677 3.06603 0
M  V30 10733 H 1019.07 -5.58631 1.6255 0
M  V30 10734 H 1017.95 -7.19156 3.12705 0
M  V30 10735 N 1015.45 0.186762 -1.56489 0
M  V30 10736 C 1016.7 0.904063 -1.80752 0
M  V30 10737 C 1017.02 1.83443 -0.661343 0
M  V30 10738 O 1016.29 1.93272 0.319811 0
M  V30 10739 H 1014.87 0.336828 -0.66675 0
M  V30 10740 H 1017.54 0.190275 -1.93969 0
M  V30 10741 H 1016.63 1.49021 -2.74225 0
M  V30 10742 N 1016.93 1.50896 0.454776 0
M  V30 10743 C 1017.86 1.73885 1.5584 0
M  V30 10744 C 1018.84 0.588172 1.59607 0
M  V30 10745 O 1020.03 0.829054 1.75614 0
M  V30 10746 C 1017.16 1.84796 2.94054 0
M  V30 10747 C 1016.11 3.00111 3.05152 0
M  V30 10748 C 1015.44 2.96183 4.45174 0
M  V30 10749 C 1016.74 4.40365 2.80849 0
M  V30 10750 H 1018.43 2.66292 1.36854 0
M  V30 10751 H 1015.98 1.28142 0.656936 0
M  V30 10752 H 1017.93 1.99462 3.71204 0
M  V30 10753 H 1016.66 0.890235 3.14233 0
M  V30 10754 H 1015.31 2.85121 2.30438 0
M  V30 10755 H 1014.96 1.98224 4.62295 0
M  V30 10756 H 1014.66 3.73608 4.53532 0
M  V30 10757 H 1016.19 3.1292 5.24322 0
M  V30 10758 H 1017.6 4.55795 3.47741 0
M  V30 10759 H 1016 5.19363 3.00636 0
M  V30 10760 H 1017.07 4.51606 1.76579 0
M  V30 10761 N 1018.41 -0.709066 1.40748 0
M  V30 10762 C 1019.34 -1.83583 1.4429 0
M  V30 10763 C 1020.32 -1.67378 0.303067 0
M  V30 10764 O 1021.51 -1.87312 0.512612 0
M  V30 10765 C 1018.64 -3.21599 1.31116 0
M  V30 10766 C 1017.59 -3.52486 2.4277 0
M  V30 10767 C 1016.92 -4.89716 2.14668 0
M  V30 10768 C 1018.22 -3.52824 3.85113 0
M  V30 10769 H 1019.91 -1.80876 2.38588 0
M  V30 10770 H 1017.46 -0.868795 1.14839 0
M  V30 10771 H 1019.41 -4.00123 1.32209 0
M  V30 10772 H 1018.13 -3.24898 0.332965 0
M  V30 10773 H 1016.79 -2.76305 2.40937 0
M  V30 10774 H 1016.44 -4.89625 1.15224 0
M  V30 10775 H 1016.14 -5.11347 2.89478 0
M  V30 10776 H 1017.66 -5.70566 2.17455 0
M  V30 10777 H 1019.08 -4.21377 3.88734 0
M  V30 10778 H 1017.48 -3.85984 4.59496 0
M  V30 10779 H 1018.55 -2.52073 4.14231 0
M  V30 10780 N 1019.89 -1.26353 -0.941956 0
M  V30 10781 C 1020.85 -1.07904 -2.02211 0
M  V30 10782 C 1021.85 -0.0276283 -1.60776 0
M  V30 10783 O 1023.04 -0.270965 -1.7208 0
M  V30 10784 C 1020.17 -0.641084 -3.34818 0
M  V30 10785 H 1021.37 -2.03804 -2.20009 0
M  V30 10786 H 1018.92 -1.08939 -1.12081 0
M  V30 10787 H 1019.66 0.319943 -3.22718 0
M  V30 10788 H 1019.44 -1.40027 -3.66244 0
M  V30 10789 H 1020.93 -0.533826 -4.14174 0
M  V30 10790 N 1021.37 1.14642 -1.08144 0
M  V30 10791 C 1022.28 2.23257 -0.720668 0
M  V30 10792 C 1023.29 1.71866 0.271648 0
M  V30 10793 O 1024.47 2.01064 0.116266 0
M  V30 10794 C 1021.53 3.46447 -0.132542 0
M  V30 10795 C 1020.6 4.12789 -1.17913 0
M  V30 10796 C 1019.83 5.30099 -0.618971 0
M  V30 10797 O 1020.05 5.6762 0.562418 0
M  V30 10798 O 1018.99 5.86154 -1.36774 0
M  V30 10799 H 1022.81 2.56463 -1.62667 0
M  V30 10800 H 1020.4 1.22521 -0.854932 0
M  V30 10801 H 1022.28 4.20959 0.19277 0
M  V30 10802 H 1020.95 3.14971 0.746662 0
M  V30 10803 H 1019.86 3.40163 -1.55693 0
M  V30 10804 H 1021.19 4.48365 -2.03051 0
M  V30 10805 N 1022.85 0.866709 1.31628 0
M  V30 10806 C 1024.09 0.482479 1.98624 0
M  V30 10807 C 1024.45 -0.946844 1.6703 0
M  V30 10808 O 1025.65 -1.43626 2.27212 0
M  V30 10809 C 1023.92 0.728582 3.49895 0
M  V30 10810 S 1025.48 0.443724 4.36551 0
M  V30 10811 H 1022.3 0.180238 0.687776 0
M  V30 10812 H 1024.9 1.12203 1.60096 0
M  V30 10813 H 1023.6 1.76769 3.70379 0
M  V30 10814 H 1023.14 0.075903 3.93327 0
M  V30 10815 H 1025.15 -0.72534 4.9087 0
M  V30 10816 N 1024.32 -1.44642 0.625825 0
M  V30 10817 C 1025.26 -2.28882 -0.120614 0
M  V30 10818 C 1026.27 -1.40985 -0.81407 0
M  V30 10819 O 1027.46 -1.65188 -0.676404 0
M  V30 10820 C 1024.56 -3.17217 -1.19274 0
M  V30 10821 C 1023.73 -4.33499 -0.582839 0
M  V30 10822 C 1022.79 -5.02908 -1.54823 0
M  V30 10823 O 1021.82 -5.59102 -1.06743 0
M  V30 10824 N 1023.02 -5.0387 -2.88262 0
M  V30 10825 H 1025.78 -2.93585 0.602318 0
M  V30 10826 H 1023.34 -1.5503 0.466604 0
M  V30 10827 H 1025.34 -3.60515 -1.83878 0
M  V30 10828 H 1023.91 -2.54301 -1.81797 0
M  V30 10829 H 1023.13 -3.93458 0.241696 0
M  V30 10830 H 1024.41 -5.08561 -0.155914 0
M  V30 10831 H 1023.81 -4.59539 -3.2991 0
M  V30 10832 H 1022.37 -5.50974 -3.4824 0
M  V30 10833 N 1025.8 -0.366053 -1.5329 0
M  V30 10834 C 1027.03 0.224236 -2.05681 0
M  V30 10835 C 1027.44 1.42412 -1.23952 0
M  V30 10836 O 1026.8 1.80334 -0.280309 0
M  V30 10837 C 1026.85 0.617266 -3.56191 0
M  V30 10838 O 1026.57 -0.534931 -4.34822 0
M  V30 10839 C 1028.07 1.26589 -4.24841 0
M  V30 10840 H 1025.29 0.0392928 -0.669849 0
M  V30 10841 H 1027.84 -0.52456 -1.97658 0
M  V30 10842 H 1025.99 1.31598 -3.64364 0
M  V30 10843 H 1026.41 -0.217123 -5.2405 0
M  V30 10844 H 1027.88 1.49146 -5.31469 0
M  V30 10845 H 1028.36 2.22633 -3.78591 0
M  V30 10846 H 1028.96 0.6086 -4.20923 0
M  V30 10847 N 1027.28 1.57312 -0.0952337 0
M  V30 10848 C 1028.5 1.99119 0.580206 0
M  V30 10849 C 1028.93 0.973955 1.60922 0
M  V30 10850 O 1028.29 -0.0575338 1.81209 0
M  V30 10851 C 1028.34 3.39893 1.20438 0
M  V30 10852 O 1027.44 3.40941 2.32019 0
M  V30 10853 H 1026.78 0.64748 0.147195 0
M  V30 10854 H 1029.31 2.03836 -0.176686 0
M  V30 10855 H 1029.32 3.7759 1.54564 0
M  V30 10856 H 1028 4.13453 0.450514 0
M  V30 10857 H 1026.57 3.1504 1.9951 0
M  V30 10858 N 1028.76 -0.17846 1.56586 0
M  V30 10859 C 1029.67 -1.24115 1.9908 0
M  V30 10860 C 1030.68 -1.48854 0.901031 0
M  V30 10861 O 1031.86 -1.61142 1.2081 0
M  V30 10862 C 1028.92 -2.56187 2.33601 0
M  V30 10863 C 1027.99 -2.39373 3.56369 0
M  V30 10864 C 1027.22 -3.65147 3.89234 0
M  V30 10865 O 1027.44 -4.70024 3.23162 0
M  V30 10866 O 1026.38 -3.59683 4.82609 0
M  V30 10867 H 1030.2 -0.910482 2.89731 0
M  V30 10868 H 1027.79 -0.38477 1.4436 0
M  V30 10869 H 1029.67 -3.34109 2.56806 0
M  V30 10870 H 1028.34 -2.88847 1.46113 0
M  V30 10871 H 1027.25 -1.59506 3.38391 0
M  V30 10872 H 1028.58 -2.1164 4.44375 0
M  V30 10873 N 1030.24 -1.51135 -0.446768 0
M  V30 10874 C 1031.18 -1.71767 -1.54158 0
M  V30 10875 C 1032.15 -0.559201 -1.56404 0
M  V30 10876 O 1033.34 -0.792567 -1.7356 0
M  V30 10877 C 1030.48 -1.84006 -2.91952 0
M  V30 10878 C 1029.59 -3.11511 -2.99308 0
M  V30 10879 C 1028.73 -3.144 -4.28166 0
M  V30 10880 C 1027.76 -4.36258 -4.29355 0
M  V30 10881 N 1026.9 -4.3675 -5.49722 0
M  V30 10882 H 1031.74 -2.65224 -1.35869 0
M  V30 10883 H 1029.28 -1.31453 -0.660186 0
M  V30 10884 H 1031.24 -1.89083 -3.71892 0
M  V30 10885 H 1029.87 -0.939661 -3.08821 0
M  V30 10886 H 1028.92 -3.15788 -2.12089 0
M  V30 10887 H 1030.23 -4.01445 -2.96047 0
M  V30 10888 H 1029.38 -3.18341 -5.16473 0
M  V30 10889 H 1028.12 -2.22338 -4.3407 0
M  V30 10890 H 1027.13 -4.32503 -3.39442 0
M  V30 10891 H 1028.35 -5.29574 -4.25122 0
M  V30 10892 H 1026.3 -3.47554 -5.56365 0
M  V30 10893 H 1026.22 -5.20481 -5.48302 0
M  V30 10894 H 1027.48 -4.4487 -6.40086 0
M  V30 10895 N 1031.71 0.701592 -1.41122 0
M  V30 10896 C 1032.68 1.79733 -1.42227 0
M  V30 10897 C 1033.68 1.57708 -0.313831 0
M  V30 10898 O 1034.87 1.64492 -0.573423 0
M  V30 10899 C 1032 3.18024 -1.22775 0
M  V30 10900 H 1033.19 1.80148 -2.39764 0
M  V30 10901 H 1030.74 0.908624 -1.27176 0
M  V30 10902 H 1031.48 3.23252 -0.260552 0
M  V30 10903 H 1031.26 3.35411 -2.0308 0
M  V30 10904 H 1032.75 3.98021 -1.2637 0
M  V30 10905 N 1033.19 1.2685 0.935242 0
M  V30 10906 C 1034.12 1.1143 2.05196 0
M  V30 10907 C 1035.1 0.0178362 1.70091 0
M  V30 10908 O 1036.29 0.190951 1.93259 0
M  V30 10909 C 1033.42 0.752779 3.39044 0
M  V30 10910 C 1032.37 1.80164 3.88233 0
M  V30 10911 C 1031.7 1.29428 5.18799 0
M  V30 10912 C 1033 3.20431 4.12457 0
M  V30 10913 H 1034.69 2.04845 2.18355 0
M  V30 10914 H 1032.24 0.986276 1.04922 0
M  V30 10915 H 1034.19 0.631757 4.16637 0
M  V30 10916 H 1032.91 -0.217075 3.25878 0
M  V30 10917 H 1031.57 1.91144 3.12825 0
M  V30 10918 H 1031.22 0.3141 5.02018 0
M  V30 10919 H 1030.92 1.99546 5.5268 0
M  V30 10920 H 1032.45 1.18605 5.9897 0
M  V30 10921 H 1033.86 3.12495 4.80645 0
M  V30 10922 H 1032.26 3.88193 4.57631 0
M  V30 10923 H 1033.33 3.66046 3.18023 0
M  V30 10924 N 1034.67 -1.14067 1.0875 0
M  V30 10925 C 1035.6 -2.21385 0.74236 0
M  V30 10926 C 1036.58 -1.67833 -0.276805 0
M  V30 10927 O 1037.77 -1.93647 -0.1464 0
M  V30 10928 C 1034.9 -3.46956 0.154644 0
M  V30 10929 C 1033.85 -4.13555 1.10255 0
M  V30 10930 C 1033.18 -5.3337 0.376877 0
M  V30 10931 C 1034.48 -4.6169 2.44213 0
M  V30 10932 H 1036.17 -2.50512 1.63964 0
M  V30 10933 H 1033.72 -1.20408 0.789807 0
M  V30 10934 H 1035.67 -4.21284 -0.0988419 0
M  V30 10935 H 1034.39 -3.17203 -0.777789 0
M  V30 10936 H 1033.05 -3.41186 1.34119 0
M  V30 10937 H 1032.7 -4.99879 -0.559472 0
M  V30 10938 H 1032.4 -5.78875 1.00884 0
M  V30 10939 H 1033.92 -6.10458 0.131527 0
M  V30 10940 H 1035.34 -5.27475 2.24595 0
M  V30 10941 H 1033.74 -5.17909 3.03134 0
M  V30 10942 H 1034.81 -3.76574 3.05483 0
M  V30 10943 N 1036.15 -0.873678 -1.31166 0
M  V30 10944 C 1037.56 -0.566109 -1.49223 0
M  V30 10945 C 1037.76 0.898889 -1.80339 0
M  V30 10946 O 1036.82 1.68084 -1.88425 0
M  V30 10947 C 1038.13 -1.46952 -2.62346 0
M  V30 10948 C 1039.68 -1.47195 -2.76229 0
M  V30 10949 C 1040.16 -2.36102 -3.92454 0
M  V30 10950 N 1041.65 -2.34003 -3.99746 0
M  V30 10951 C 1042.38 -2.99513 -4.88958 0
M  V30 10952 N 1041.88 -3.74206 -5.83045 0
M  V30 10953 N 1043.67 -2.88802 -4.82234 0
M  V30 10954 H 1035.82 -1.82156 -1.09239 0
M  V30 10955 H 1038.09 -0.779086 -0.54012 0
M  V30 10956 H 1037.79 -2.51213 -2.4614 0
M  V30 10957 H 1037.67 -1.17077 -3.5857 0
M  V30 10958 H 1040.05 -0.436902 -2.91848 0
M  V30 10959 H 1040.13 -1.81095 -1.80661 0
M  V30 10960 H 1039.78 -3.39685 -3.77593 0
M  V30 10961 H 1039.71 -1.99524 -4.87337 0
M  V30 10962 H 1042.2 -1.79713 -3.32433 0
M  V30 10963 H 1042.51 -4.21312 -6.47855 0
M  V30 10964 H 1040.86 -3.78314 -5.83012 0
M  V30 10965 H 1044.05 -2.29984 -4.07707 0
M  V30 10966 H 1044.22 -3.40136 -5.51554 0
M  V30 10967 N 1037.63 1.44308 -0.633487 0
M  V30 10968 C 1039.04 1.56768 -0.29931 0
M  V30 10969 C 1039.24 1.62061 1.19743 0
M  V30 10970 O 1038.3 1.56492 1.98158 0
M  V30 10971 C 1039.61 2.8382 -0.993307 0
M  V30 10972 C 1041.16 2.97536 -0.971674 0
M  V30 10973 C 1041.63 4.27393 -1.64618 0
M  V30 10974 N 1043.13 4.34212 -1.61288 0
M  V30 10975 C 1043.86 5.33415 -2.1037 0
M  V30 10976 N 1043.36 6.3901 -2.67653 0
M  V30 10977 N 1045.15 5.24939 -2.00985 0
M  V30 10978 H 1037.3 1.39115 -1.60501 0
M  V30 10979 H 1039.56 0.666804 -0.673852 0
M  V30 10980 H 1039.27 2.85902 -2.04823 0
M  V30 10981 H 1039.14 3.73422 -0.532537 0
M  V30 10982 H 1041.53 2.95005 0.0747854 0
M  V30 10983 H 1041.61 2.09276 -1.47096 0
M  V30 10984 H 1041.26 4.30683 -2.6921 0
M  V30 10985 H 1041.19 5.14515 -1.12171 0
M  V30 10986 H 1043.68 3.58519 -1.19468 0
M  V30 10987 H 1043.99 7.10994 -3.02831 0
M  V30 10988 H 1042.33 6.39689 -2.71705 0
M  V30 10989 H 1045.53 4.41357 -1.55953 0
M  V30 10990 H 1045.7 6.02097 -2.39547 0
M  V30 10991 N 1039.1 0.374177 1.53094 0
M  V30 10992 C 1040.04 -0.503065 2.23611 0
M  V30 10993 C 1041.05 -1.03915 1.25321 0
M  V30 10994 O 1042.24 -0.944064 1.51492 0
M  V30 10995 C 1039.34 -1.70825 2.92698 0
M  V30 10996 C 1038.51 -1.30217 4.17567 0
M  V30 10997 C 1037.57 -2.37036 4.69788 0
M  V30 10998 O 1036.6 -1.99069 5.33254 0
M  V30 10999 N 1037.8 -3.68743 4.4834 0
M  V30 11000 H 1040.56 0.101013 2.9953 0
M  V30 11001 H 1038.12 0.199778 1.60663 0
M  V30 11002 H 1040.12 -2.41779 3.24538 0
M  V30 11003 H 1038.69 -2.219 2.2018 0
M  V30 11004 H 1037.91 -0.422121 3.91933 0
M  V30 11005 H 1039.19 -1.00728 4.9873 0
M  V30 11006 H 1038.59 -4.0236 3.97647 0
M  V30 11007 H 1037.15 -4.35776 4.84709 0
M  V30 11008 N 1040.58 -1.57259 0.103575 0
M  V30 11009 C 1041.55 -2.13337 -0.837859 0
M  V30 11010 C 1042.55 -1.06459 -1.20512 0
M  V30 11011 O 1043.74 -1.32307 -1.13316 0
M  V30 11012 C 1040.87 -2.66093 -2.13089 0
M  V30 11013 H 1042.06 -2.97842 -0.350775 0
M  V30 11014 H 1039.61 -1.55621 -0.145511 0
M  V30 11015 H 1040.35 -1.85133 -2.66264 0
M  V30 11016 H 1040.13 -3.44244 -1.87719 0
M  V30 11017 H 1041.62 -3.09443 -2.80419 0
M  V30 11018 N 1042.06 0.170153 -1.56679 0
M  V30 11019 C 1043.3 0.893073 -1.83857 0
M  V30 11020 C 1043.66 1.79378 -0.684661 0
M  V30 11021 O 1044.87 2.55439 -0.836926 0
M  V30 11022 C 1043.14 1.66679 -3.16153 0
M  V30 11023 S 1044.7 2.43831 -3.64818 0
M  V30 11024 H 1041.51 0.299091 -0.645031 0
M  V30 11025 H 1044.12 0.154628 -1.94888 0
M  V30 11026 H 1042.82 0.996152 -3.98127 0
M  V30 11027 H 1042.35 2.44658 -3.08068 0
M  V30 11028 H 1044.37 3.68555 -3.32237 0
M  V30 11029 N 1043.54 1.5137 0.438746 0
M  V30 11030 C 1044.5 1.71993 1.51496 0
M  V30 11031 C 1045.5 0.589978 1.49586 0
M  V30 11032 O 1046.69 0.857505 1.51633 0
M  V30 11033 C 1043.82 1.77508 2.91039 0
M  V30 11034 H 1045.02 2.68041 1.34514 0
M  V30 11035 H 1042.57 1.41338 0.667326 0
M  V30 11036 H 1043.3 0.832698 3.13427 0
M  V30 11037 H 1043.09 2.59627 2.9383 0
M  V30 11038 H 1044.58 1.95308 3.69113 0
M  V30 11039 N 1045.02 -0.694098 1.41492 0
M  V30 11040 C 1046.43 -1.00487 1.23994 0
M  V30 11041 C 1046.63 -2.01078 0.130346 0
M  V30 11042 O 1045.69 -2.47403 -0.504775 0
M  V30 11043 C 1047 -1.52808 2.58979 0
M  V30 11044 C 1048.55 -1.64684 2.66173 0
M  V30 11045 C 1049.02 -2.20406 4.01479 0
M  V30 11046 N 1050.52 -2.27765 4.03333 0
M  V30 11047 C 1051.25 -2.7191 5.04829 0
M  V30 11048 N 1050.75 -3.1565 6.16714 0
M  V30 11049 N 1052.54 -2.71487 4.9219 0
M  V30 11050 H 1044.69 -0.027746 2.12382 0
M  V30 11051 H 1046.95 -0.0748741 0.945039 0
M  V30 11052 H 1046.66 -0.863519 3.40934 0
M  V30 11053 H 1046.53 -2.50998 2.81566 0
M  V30 11054 H 1048.92 -2.30251 1.84576 0
M  V30 11055 H 1049 -0.65035 2.47395 0
M  V30 11056 H 1048.65 -1.55454 4.83525 0
M  V30 11057 H 1048.58 -3.2081 4.17599 0
M  V30 11058 H 1051.07 -1.96899 3.22551 0
M  V30 11059 H 1051.38 -3.47966 6.90029 0
M  V30 11060 H 1049.72 -3.13555 6.20248 0
M  V30 11061 H 1052.92 -2.36666 4.03865 0
M  V30 11062 H 1053.09 -3.05573 5.71427 0
M  V30 11063 N 1046.49 -1.27344 -0.928501 0
M  V30 11064 C 1047.74 -1.14813 -1.67897 0
M  V30 11065 C 1048.1 0.303129 -1.89997 0
M  V30 11066 O 1047.39 1.21844 -1.47867 0
M  V30 11067 C 1047.58 -1.86439 -3.04918 0
M  V30 11068 C 1047.41 -3.38381 -2.96189 0
M  V30 11069 C 1046.18 -4.07698 -2.98514 0
M  V30 11070 C 1048.38 -4.3437 -2.75367 0
M  V30 11071 N 1046.36 -5.46215 -2.80218 0
M  V30 11072 C 1047.73 -5.60149 -2.65768 0
M  V30 11073 C 1049.79 -4.2447 -2.60249 0
M  V30 11074 C 1048.49 -6.77157 -2.42593 0
M  V30 11075 C 1050.52 -5.41198 -2.3845 0
M  V30 11076 C 1049.88 -6.65933 -2.29593 0
M  V30 11077 H 1045.98 -0.47499 -0.621215 0
M  V30 11078 H 1048.56 -1.60802 -1.09776 0
M  V30 11079 H 1046.73 -1.42907 -3.61154 0
M  V30 11080 H 1048.46 -1.6642 -3.68899 0
M  V30 11081 H 1045.22 -3.59158 -3.08711 0
M  V30 11082 H 1045.64 -6.18985 -2.74203 0
M  V30 11083 H 1050.29 -3.28756 -2.65856 0
M  V30 11084 H 1048 -7.72955 -2.35725 0
M  V30 11085 H 1051.59 -5.35417 -2.27639 0
M  V30 11086 H 1050.47 -7.54732 -2.12952 0
M  V30 11087 N 1047.97 1.13488 -1.09353 0
M  V30 11088 C 1049.21 1.86397 -0.83877 0
M  V30 11089 C 1049.58 1.81568 0.624259 0
M  V30 11090 O 1050.78 2.49709 0.994923 0
M  V30 11091 C 1049.05 3.30583 -1.35828 0
M  V30 11092 S 1050.61 4.20995 -1.23728 0
M  V30 11093 H 1047.43 0.643022 -0.303387 0
M  V30 11094 H 1050.03 1.36788 -1.39676 0
M  V30 11095 H 1048.73 3.31652 -2.41734 0
M  V30 11096 H 1048.26 3.85255 -0.796386 0
M  V30 11097 H 1050.28 4.95845 -0.187745 0
M  V30 11098 N 1049.45 0.880621 1.30701 0
M  V30 11099 C 1050.38 0.360251 2.30704 0
M  V30 11100 C 1051.36 -0.554572 1.60806 0
M  V30 11101 O 1052.55 -0.469345 1.88443 0
M  V30 11102 C 1049.68 -0.429888 3.44629 0
M  V30 11103 C 1048.63 0.392786 4.26194 0
M  V30 11104 C 1047.96 -0.52369 5.32129 0
M  V30 11105 C 1049.26 1.63258 4.96129 0
M  V30 11106 H 1050.95 1.19591 2.74478 0
M  V30 11107 H 1048.5 0.576508 1.31956 0
M  V30 11108 H 1050.45 -0.804532 4.13649 0
M  V30 11109 H 1049.17 -1.29916 2.99649 0
M  V30 11110 H 1047.83 0.749514 3.58856 0
M  V30 11111 H 1047.48 -1.39054 4.83397 0
M  V30 11112 H 1047.18 0.0229272 5.87596 0
M  V30 11113 H 1048.71 -0.894946 6.04006 0
M  V30 11114 H 1050.12 1.32877 5.57689 0
M  V30 11115 H 1048.52 2.11906 5.61441 0
M  V30 11116 H 1049.59 2.37944 4.22505 0
M  V30 11117 N 1050.93 -1.4397 0.641131 0
M  V30 11118 C 1051.89 -2.29149 -0.0482243 0
M  V30 11119 C 1052.89 -1.41572 -0.762495 0
M  V30 11120 O 1054.08 -1.63335 -0.605571 0
M  V30 11121 C 1051.21 -3.23375 -1.07896 0
M  V30 11122 H 1052.41 -2.9159 0.70109 0
M  V30 11123 H 1049.96 -1.51048 0.401754 0
M  V30 11124 H 1050.7 -2.65804 -1.85792 0
M  V30 11125 H 1050.48 -3.87926 -0.570597 0
M  V30 11126 H 1051.97 -3.87337 -1.56075 0
M  V30 11127 N 1052.41 -0.382291 -1.52893 0
M  V30 11128 C 1053.82 -0.031941 -1.59568 0
M  V30 11129 C 1054.02 1.45245 -1.39664 0
M  V30 11130 O 1053.08 2.21612 -1.21013 0
M  V30 11131 C 1054.39 -0.502846 -2.96466 0
M  V30 11132 C 1055.94 -0.4585 -3.09624 0
M  V30 11133 C 1056.42 -0.905481 -4.4896 0
M  V30 11134 N 1057.91 -0.861211 -4.55124 0
M  V30 11135 C 1058.64 -1.17856 -5.61157 0
M  V30 11136 N 1058.14 -1.56603 -6.74868 0
M  V30 11137 N 1059.93 -1.10027 -5.51226 0
M  V30 11138 H 1052.08 -1.34875 -1.64081 0
M  V30 11139 H 1054.34 -0.552375 -0.770446 0
M  V30 11140 H 1054.05 -1.53931 -3.16225 0
M  V30 11141 H 1053.92 0.101777 -3.77063 0
M  V30 11142 H 1056.31 0.568868 -2.89565 0
M  V30 11143 H 1056.39 -1.09884 -2.30996 0
M  V30 11144 H 1056.04 -1.93105 -4.69759 0
M  V30 11145 H 1055.97 -0.242227 -5.26043 0
M  V30 11146 H 1058.46 -0.575988 -3.73485 0
M  V30 11147 H 1058.77 -1.792 -7.51736 0
M  V30 11148 H 1057.12 -1.60484 -6.76217 0
M  V30 11149 H 1060.31 -0.796623 -4.61272 0
M  V30 11150 H 1060.48 -1.35091 -6.33762 0
M  V30 11151 N 1053.89 1.57202 -0.111913 0
M  V30 11152 C 1055.11 1.99723 0.559054 0
M  V30 11153 C 1055.54 0.990968 1.59879 0
M  V30 11154 O 1054.89 -0.038311 1.8126 0
M  V30 11155 C 1054.94 3.41151 1.16826 0
M  V30 11156 O 1054.05 3.43383 2.2839 0
M  V30 11157 H 1053.39 0.649004 0.140319 0
M  V30 11158 H 1055.92 2.03637 -0.198295 0
M  V30 11159 H 1055.93 3.79208 1.50551 0
M  V30 11160 H 1054.6 4.13907 0.406637 0
M  V30 11161 H 1053.18 3.17138 1.96158 0
M  V30 11162 N 1055.36 -0.161842 1.56767 0
M  V30 11163 C 1056.29 -1.20226 2.0017 0
M  V30 11164 C 1057.27 -1.4564 0.878807 0
M  V30 11165 O 1058.46 -1.56813 1.14557 0
M  V30 11166 C 1055.59 -2.53897 2.36968 0
M  V30 11167 C 1054.54 -2.43033 3.52305 0
M  V30 11168 C 1053.87 -3.81281 3.74872 0
M  V30 11169 C 1055.17 -1.927 4.85453 0
M  V30 11170 H 1056.86 -0.84142 2.87333 0
M  V30 11171 H 1054.41 -0.403309 1.38237 0
M  V30 11172 H 1056.36 -3.26893 2.6593 0
M  V30 11173 H 1055.09 -2.91787 1.46724 0
M  V30 11174 H 1053.75 -1.7249 3.23485 0
M  V30 11175 H 1053.39 -4.1658 2.81904 0
M  V30 11176 H 1053.09 -3.74877 4.52483 0
M  V30 11177 H 1054.62 -4.55848 4.06245 0
M  V30 11178 H 1056.03 -2.55477 5.13229 0
M  V30 11179 H 1054.43 -1.97222 5.66766 0
M  V30 11180 H 1055.5 -0.881816 4.76814 0
M  V30 11181 N 1056.84 -1.516 -0.430713 0
M  V30 11182 C 1058.26 -1.39923 -0.767706 0
M  V30 11183 C 1058.46 -0.486756 -1.95532 0
M  V30 11184 O 1057.51 0.0555965 -2.52439 0
M  V30 11185 C 1058.83 -2.82074 -1.04187 0
M  V30 11186 C 1060.37 -2.9127 -1.1459 0
M  V30 11187 C 1060.85 -4.34342 -1.45295 0
M  V30 11188 N 1062.34 -4.37479 -1.52206 0
M  V30 11189 C 1063.08 -5.45219 -1.77549 0
M  V30 11190 N 1062.57 -6.6311 -2.0064 0
M  V30 11191 N 1064.36 -5.32707 -1.79386 0
M  V30 11192 H 1056.52 -2.09474 0.351351 0
M  V30 11193 H 1058.78 -0.943247 0.0948151 0
M  V30 11194 H 1058.48 -3.50868 -0.241837 0
M  V30 11195 H 1058.36 -3.21805 -1.96777 0
M  V30 11196 H 1060.75 -2.2267 -1.93655 0
M  V30 11197 H 1060.83 -2.55026 -0.198854 0
M  V30 11198 H 1060.47 -5.03494 -0.667559 0
M  V30 11199 H 1060.4 -4.68105 -2.41217 0
M  V30 11200 H 1062.89 -3.52488 -1.36237 0
M  V30 11201 H 1063.2 -7.41012 -2.19366 0
M  V30 11202 H 1061.55 -6.66214 -1.97948 0
M  V30 11203 H 1064.74 -4.39589 -1.60869 0
M  V30 11204 H 1064.91 -6.16752 -1.98799 0
M  V30 11205 N 1058.32 0.686584 -1.41858 0
M  V30 11206 C 1059.27 1.80038 -1.44413 0
M  V30 11207 C 1060.24 1.63415 -0.297427 0
M  V30 11208 O 1061.42 1.84138 -0.499789 0
M  V30 11209 C 1058.56 3.17988 -1.34082 0
M  V30 11210 C 1057.67 3.45979 -2.58693 0
M  V30 11211 C 1056.81 4.73592 -2.4059 0
M  V30 11212 C 1055.85 4.94581 -3.60633 0
M  V30 11213 N 1054.99 6.13426 -3.41545 0
M  V30 11214 H 1059.83 1.77189 -2.396 0
M  V30 11215 H 1057.36 0.865158 -1.18968 0
M  V30 11216 H 1059.32 3.97689 -1.26092 0
M  V30 11217 H 1057.95 3.1999 -0.424975 0
M  V30 11218 H 1057 2.60617 -2.77097 0
M  V30 11219 H 1058.31 3.57386 -3.47961 0
M  V30 11220 H 1057.47 5.61364 -2.30119 0
M  V30 11221 H 1056.21 4.64448 -1.48794 0
M  V30 11222 H 1055.21 4.05254 -3.71549 0
M  V30 11223 H 1056.44 5.05578 -4.53395 0
M  V30 11224 H 1054.38 6.05477 -2.52456 0
M  V30 11225 H 1054.3 6.25641 -4.24393 0
M  V30 11226 H 1055.57 7.03908 -3.34864 0
M  V30 11227 N 1059.8 1.27835 0.921735 0
M  V30 11228 C 1060.75 1.07723 2.00947 0
M  V30 11229 C 1061.73 0.00336676 1.609 0
M  V30 11230 O 1062.92 0.222593 1.75595 0
M  V30 11231 C 1060.05 0.732732 3.35389 0
M  V30 11232 C 1059.14 1.84504 3.81863 0
M  V30 11233 N 1059.53 3.08551 4.00787 0
M  V30 11234 C 1057.83 1.73308 4.10951 0
M  V30 11235 C 1058.53 3.80974 4.39584 0
M  V30 11236 N 1057.5 3.08773 4.47393 0
M  V30 11237 H 1061.31 2.01854 2.13617 0
M  V30 11238 H 1058.82 1.18637 1.109 0
M  V30 11239 H 1060.82 0.56975 4.12988 0
M  V30 11240 H 1059.48 -0.200885 3.24078 0
M  V30 11241 H 1060.49 3.44248 3.86928 0
M  V30 11242 H 1057.17 0.870698 4.0832 0
M  V30 11243 H 1058.56 4.87617 4.62255 0
M  V30 11244 N 1061.28 -1.12907 1.09954 0
M  V30 11245 C 1062.52 -1.84306 0.838912 0
M  V30 11246 C 1062.85 -1.83825 -0.635508 0
M  V30 11247 O 1062.11 -1.27556 -1.48418 0
M  V30 11248 C 1062.4 -3.31885 1.32616 0
M  V30 11249 C 1062.07 -3.52542 2.81114 0
M  V30 11250 C 1060.73 -3.57888 3.21667 0
M  V30 11251 C 1063.08 -3.60065 3.76833 0
M  V30 11252 C 1060.41 -3.68296 4.567 0
M  V30 11253 C 1062.76 -3.72001 5.11662 0
M  V30 11254 C 1061.43 -3.75602 5.51797 0
M  V30 11255 H 1060.7 -0.674422 0.30698 0
M  V30 11256 H 1063.35 -1.33261 1.37527 0
M  V30 11257 H 1061.65 -3.85318 0.709719 0
M  V30 11258 H 1063.35 -3.85588 1.10105 0
M  V30 11259 H 1059.94 -3.4904 2.48735 0
M  V30 11260 H 1064.12 -3.55209 3.46612 0
M  V30 11261 H 1059.38 -3.69352 4.87226 0
M  V30 11262 H 1063.55 -3.76765 5.8568 0
M  V30 11263 H 1061.18 -3.83419 6.56425 0
M  V30 11264 N 1062.75 -0.88754 -1.30232 0
M  V30 11265 C 1063.7 -0.327649 -2.25633 0
M  V30 11266 C 1064.69 0.545362 -1.51376 0
M  V30 11267 O 1065.88 0.389366 -1.72664 0
M  V30 11268 C 1063.01 0.454546 -3.40277 0
M  V30 11269 C 1062.09 -0.432698 -4.21887 0
M  V30 11270 N 1062.49 -1.53434 -4.81966 0
M  V30 11271 C 1060.78 -0.228275 -4.45415 0
M  V30 11272 C 1061.48 -2.08292 -5.43129 0
M  V30 11273 N 1060.46 -1.37754 -5.25856 0
M  V30 11274 H 1064.26 -1.16937 -2.69635 0
M  V30 11275 H 1061.78 -0.737232 -1.44702 0
M  V30 11276 H 1063.77 0.87231 -4.07672 0
M  V30 11277 H 1062.43 1.29367 -2.97816 0
M  V30 11278 H 1063.44 -1.91717 -4.81108 0
M  V30 11279 H 1060.12 0.573475 -4.13543 0
M  V30 11280 H 1061.51 -3.00818 -6.00798 0
M  V30 11281 N 1064.23 1.43628 -0.648757 0
M  V30 11282 C 1065.46 2.06732 -0.166284 0
M  V30 11283 C 1065.88 1.48281 1.15734 0
M  V30 11284 O 1065.24 0.591018 1.71396 0
M  V30 11285 C 1065.29 3.60502 -0.0838732 0
M  V30 11286 O 1064.39 4.01186 0.955185 0
M  V30 11287 H 1063.73 0.657479 -0.0928285 0
M  V30 11288 H 1066.26 1.84208 -0.890421 0
M  V30 11289 H 1066.27 4.07875 0.100923 0
M  V30 11290 H 1064.95 4.02424 -1.05014 0
M  V30 11291 H 1063.53 3.65412 0.743537 0
M  V30 11292 N 1065.71 0.390394 1.52688 0
M  V30 11293 C 1066.96 -0.192697 2.00777 0
M  V30 11294 C 1067.27 -1.4781 1.28108 0
M  V30 11295 O 1068.48 -2.1413 1.66914 0
M  V30 11296 C 1066.93 -0.393955 3.57737 0
M  V30 11297 C 1066.54 0.878259 4.39307 0
M  V30 11298 C 1068.29 -0.933352 4.14112 0
M  V30 11299 C 1066.19 0.645218 5.8787 0
M  V30 11300 H 1065.12 -0.0757862 0.750182 0
M  V30 11301 H 1067.77 0.512961 1.76184 0
M  V30 11302 H 1066.16 -1.16149 3.78583 0
M  V30 11303 H 1067.33 1.65049 4.30227 0
M  V30 11304 H 1065.65 1.34269 3.94158 0
M  V30 11305 H 1068.24 -1.12343 5.22765 0
M  V30 11306 H 1068.59 -1.90272 3.70273 0
M  V30 11307 H 1069.12 -0.225361 3.97161 0
M  V30 11308 H 1065.86 1.58562 6.36033 0
M  V30 11309 H 1065.38 -0.0880609 5.99735 0
M  V30 11310 H 1067.06 0.280178 6.46393 0
M  V30 11311 N 1067.19 -1.57141 0.120249 0
M  V30 11312 C 1068.6 -1.82256 -0.404931 0
M  V30 11313 C 1068.95 -1.03748 -1.66526 0
M  V30 11314 O 1068.08 -0.274456 -2.14653 0
M  V30 11315 C 1068.67 -3.30588 -0.741431 0
M  V30 11316 C 1067.23 -3.56379 -1.21124 0
M  V30 11317 C 1066.38 -2.76421 -0.220569 0
M  V30 11318 H 1069.33 -1.54897 0.345361 0
M  V30 11319 H 1069.35 -3.45284 -1.59872 0
M  V30 11320 H 1068.86 -3.87701 0.176036 0
M  V30 11321 H 1066.96 -3.04625 -2.14556 0
M  V30 11322 H 1067.07 -4.64952 -1.1557 0
M  V30 11323 H 1065.44 -2.44666 -0.707857 0
M  V30 11324 H 1066.22 -3.36294 0.690018 0
M  V30 11325 N 1068.67 0.153526 -1.5685 0
M  V30 11326 C 1070.08 0.714247 -1.72498 0
M  V30 11327 C 1070.43 1.81968 -0.733621 0
M  V30 11328 O 1069.55 2.16163 0.10118 0
M  V30 11329 C 1070.15 1.30238 -3.12767 0
M  V30 11330 C 1068.71 1.80974 -3.30038 0
M  V30 11331 C 1067.85 0.695638 -2.68433 0
M  V30 11332 H 1070.81 -0.0720733 -1.58536 0
M  V30 11333 H 1070.83 2.17217 -3.12405 0
M  V30 11334 H 1070.34 0.497605 -3.84897 0
M  V30 11335 H 1068.44 2.64039 -2.62895 0
M  V30 11336 H 1068.55 1.94294 -4.37934 0
M  V30 11337 H 1066.92 1.12061 -2.28723 0
M  V30 11338 H 1067.7 -0.0975885 -3.43161 0
M  V30 11339 N 1070.14 1.51827 0.422667 0
M  V30 11340 C 1071.11 1.7359 1.49663 0
M  V30 11341 C 1072.11 0.605811 1.48952 0
M  V30 11342 O 1073.3 0.87354 1.50715 0
M  V30 11343 C 1070.43 1.80585 2.8914 0
M  V30 11344 H 1071.62 2.69453 1.31664 0
M  V30 11345 H 1069.18 1.42038 0.652298 0
M  V30 11346 H 1069.91 0.865895 3.12526 0
M  V30 11347 H 1069.7 2.62729 2.9106 0
M  V30 11348 H 1071.19 1.99212 3.67021 0
M  V30 11349 N 1071.62 -0.679052 1.4222 0
M  V30 11350 C 1072.59 -1.77448 1.45069 0
M  V30 11351 C 1073.59 -1.57189 0.338882 0
M  V30 11352 O 1074.78 -1.63559 0.599519 0
M  V30 11353 C 1071.91 -3.1603 1.27819 0
M  V30 11354 H 1073.1 -1.7631 2.426 0
M  V30 11355 H 1070.65 -0.888277 1.28605 0
M  V30 11356 H 1071.39 -3.22796 0.311946 0
M  V30 11357 H 1071.17 -3.32138 2.08391 0
M  V30 11358 H 1072.66 -3.9596 1.32686 0
M  V30 11359 N 1073.1 -1.28322 -0.914942 0
M  V30 11360 C 1074.51 -1.13937 -1.47903 0
M  V30 11361 C 1074.86 0.271072 -1.94318 0
M  V30 11362 O 1073.99 1.16522 -1.8235 0
M  V30 11363 C 1074.58 -2.06221 -2.68809 0
M  V30 11364 C 1073.14 -1.95903 -3.21402 0
M  V30 11365 C 1072.29 -1.98031 -1.94111 0
M  V30 11366 H 1075.24 -1.41029 -0.727772 0
M  V30 11367 H 1075.26 -1.6255 -3.44031 0
M  V30 11368 H 1074.77 -3.08866 -2.34997 0
M  V30 11369 H 1072.87 -0.962907 -3.59943 0
M  V30 11370 H 1072.99 -2.82799 -3.86732 0
M  V30 11371 H 1071.35 -1.42423 -2.11158 0
M  V30 11372 H 1072.13 -3.02354 -1.62595 0
M  V30 11373 N 1074.58 1.12322 -1.10551 0
M  V30 11374 C 1075.83 1.83495 -0.846998 0
M  V30 11375 C 1076.15 1.8457 0.629205 0
M  V30 11376 O 1075.42 1.30968 1.45686 0
M  V30 11377 H 1074 0.679479 -0.310351 0
M  V30 11378 H 1076.66 1.36004 -1.39602 0
M  V30 11379 H 1075.76 2.87651 -1.21092 0
M  V30 11380 N 1076.06 0.894434 1.2976 0
M  V30 11381 C 1076.97 0.372622 2.31622 0
M  V30 11382 C 1077.98 -0.52996 1.65733 0
M  V30 11383 O 1079.16 -0.420807 1.96955 0
M  V30 11384 C 1076.22 -0.396076 3.4443 0
M  V30 11385 C 1075.28 0.537394 4.25923 0
M  V30 11386 C 1074.52 -0.194713 5.33345 0
M  V30 11387 O 1074.74 -1.41943 5.52457 0
M  V30 11388 O 1073.67 0.460055 6.00139 0
M  V30 11389 H 1077.5 1.21756 2.78225 0
M  V30 11390 H 1075.09 0.65858 1.34101 0
M  V30 11391 H 1076.97 -0.830962 4.13126 0
M  V30 11392 H 1075.64 -1.21716 2.99945 0
M  V30 11393 H 1074.55 1.02129 3.5989 0
M  V30 11394 H 1075.88 1.32475 4.74037 0
M  V30 11395 N 1077.53 -1.43282 0.656365 0
M  V30 11396 C 1078.5 -2.29188 -0.0239173 0
M  V30 11397 C 1079.5 -1.42373 -0.747436 0
M  V30 11398 O 1080.69 -1.63969 -0.588213 0
M  V30 11399 C 1077.82 -3.24501 -1.0446 0
M  V30 11400 H 1079.01 -2.9083 0.731978 0
M  V30 11401 H 1076.57 -1.50614 0.417752 0
M  V30 11402 H 1077.3 -2.6776 -1.82962 0
M  V30 11403 H 1077.09 -3.88509 -0.52942 0
M  V30 11404 H 1078.58 -3.88971 -1.51958 0
M  V30 11405 N 1079.01 -0.398486 -1.52479 0
M  V30 11406 C 1079.96 0.432212 -2.26717 0
M  V30 11407 C 1080.93 1.05007 -1.28696 0
M  V30 11408 O 1082.12 1.07636 -1.57541 0
M  V30 11409 C 1079.26 1.54868 -3.08399 0
M  V30 11410 C 1078.37 0.952779 -4.21362 0
M  V30 11411 C 1077.5 2.04106 -4.90423 0
M  V30 11412 C 1076.54 1.42153 -5.95364 0
M  V30 11413 N 1075.68 2.44951 -6.57984 0
M  V30 11414 H 1080.52 -0.207303 -2.97278 0
M  V30 11415 H 1078.06 -0.114066 -1.46657 0
M  V30 11416 H 1080.01 2.20684 -3.54054 0
M  V30 11417 H 1078.64 2.15837 -2.4003 0
M  V30 11418 H 1077.7 0.183962 -3.79955 0
M  V30 11419 H 1079.01 0.460131 -4.96673 0
M  V30 11420 H 1078.16 2.77672 -5.39429 0
M  V30 11421 H 1076.9 2.56733 -4.14656 0
M  V30 11422 H 1075.91 0.671161 -5.45688 0
M  V30 11423 H 1077.13 0.903093 -6.73068 0
M  V30 11424 H 1075.08 2.9673 -5.85053 0
M  V30 11425 H 1074.99 2.00468 -7.28937 0
M  V30 11426 H 1076.26 3.18119 -7.11632 0
M  V30 11427 N 1080.49 1.57075 -0.12858 0
M  V30 11428 C 1081.72 2.00305 0.537839 0
M  V30 11429 C 1082.14 1.00787 1.58819 0
M  V30 11430 O 1081.5 -0.0190839 1.8129 0
M  V30 11431 C 1081.55 3.42371 1.13201 0
M  V30 11432 O 1080.65 3.45786 2.24735 0
M  V30 11433 H 1079.99 0.650456 0.133428 0
M  V30 11434 H 1082.52 2.03415 -0.219882 0
M  V30 11435 H 1082.53 3.80783 1.4652 0
M  V30 11436 H 1081.21 4.14315 0.362713 0
M  V30 11437 H 1079.78 3.19201 1.92783 0
M  V30 11438 N 1081.97 -0.145205 1.5693 0
M  V30 11439 C 1083.22 -0.858786 1.83719 0
M  V30 11440 C 1083.55 -1.80738 0.710452 0
M  V30 11441 O 1082.82 -1.92389 -0.285791 0
M  V30 11442 C 1083.11 -1.6317 3.2101 0
M  V30 11443 C 1082.96 -0.704472 4.44249 0
M  V30 11444 C 1084.28 -2.59377 3.55544 0
M  V30 11445 H 1081.4 -0.310757 0.66828 0
M  V30 11446 H 1084.04 -0.123918 1.89595 0
M  V30 11447 H 1082.19 -2.25816 3.16132 0
M  V30 11448 H 1083.86 -0.08887 4.61214 0
M  V30 11449 H 1082.1 -0.0141693 4.33798 0
M  V30 11450 H 1082.78 -1.28135 5.36922 0
M  V30 11451 H 1085.25 -2.06848 3.61044 0
M  V30 11452 H 1084.13 -3.10506 4.52634 0
M  V30 11453 H 1084.39 -3.40819 2.81594 0
M  V30 11454 N 1083.45 -1.52049 -0.414609 0
M  V30 11455 C 1084.4 -1.7138 -1.50376 0
M  V30 11456 C 1085.38 -0.567692 -1.50553 0
M  V30 11457 O 1086.57 -0.824541 -1.56622 0
M  V30 11458 C 1083.7 -1.86291 -2.88358 0
M  V30 11459 C 1082.79 -3.06757 -2.9285 0
M  V30 11460 N 1083.18 -4.29557 -2.67048 0
M  V30 11461 C 1081.48 -3.06478 -3.24018 0
M  V30 11462 C 1082.18 -5.10988 -2.77968 0
M  V30 11463 N 1081.15 -4.46117 -3.10613 0
M  V30 11464 H 1084.96 -2.63972 -1.29213 0
M  V30 11465 H 1082.47 -1.50006 -0.622244 0
M  V30 11466 H 1084.47 -1.98256 -3.66743 0
M  V30 11467 H 1083.13 -0.948959 -3.10524 0
M  V30 11468 H 1084.14 -4.58122 -2.41546 0
M  V30 11469 H 1080.82 -2.24799 -3.51812 0
M  V30 11470 H 1082.21 -6.18806 -2.6178 0
M  V30 11471 N 1084.93 0.6715 -1.42579 0
M  V30 11472 C 1085.89 1.76676 -1.46008 0
M  V30 11473 C 1086.89 1.57007 -0.347213 0
M  V30 11474 O 1088.08 1.63238 -0.608185 0
M  V30 11475 C 1085.21 3.15348 -1.29494 0
M  V30 11476 H 1086.4 1.75021 -2.43531 0
M  V30 11477 H 1083.96 0.881444 -1.29075 0
M  V30 11478 H 1084.69 3.22626 -0.32906 0
M  V30 11479 H 1084.48 3.31028 -2.10149 0
M  V30 11480 H 1085.97 3.95251 -1.34784 0
M  V30 11481 N 1086.4 1.28806 0.908124 0
M  V30 11482 C 1087.34 1.07538 2.01273 0
M  V30 11483 C 1088.31 -0.0102454 1.62597 0
M  V30 11484 O 1089.5 0.138797 1.87988 0
M  V30 11485 C 1086.63 0.635337 3.32688 0
M  V30 11486 C 1085.67 1.71843 3.90349 0
M  V30 11487 S 1086.5 3.31571 4.20501 0
M  V30 11488 C 1087.66 2.89416 5.54968 0
M  V30 11489 H 1087.89 2.01058 2.19005 0
M  V30 11490 H 1085.43 1.12857 1.05369 0
M  V30 11491 H 1087.38 0.388159 4.08661 0
M  V30 11492 H 1086.05 -0.280122 3.12848 0
M  V30 11493 H 1085.24 1.36228 4.8524 0
M  V30 11494 H 1084.84 1.91869 3.21033 0
M  V30 11495 H 1087.13 2.35936 6.35091 0
M  V30 11496 H 1088.08 3.83126 5.955 0
M  V30 11497 H 1088.48 2.27962 5.16424 0
M  V30 11498 N 1087.88 -1.11734 1.11145 0
M  V30 11499 C 1089.29 -1.64928 0.874959 0
M  V30 11500 C 1089.64 -1.87012 -0.593375 0
M  V30 11501 O 1088.77 -1.60206 -1.45475 0
M  V30 11502 C 1089.36 -2.99608 1.58178 0
M  V30 11503 C 1087.92 -3.49723 1.39179 0
M  V30 11504 C 1087.07 -2.24595 1.62642 0
M  V30 11505 H 1090.02 -0.954154 1.26813 0
M  V30 11506 H 1090.04 -3.66434 1.02501 0
M  V30 11507 H 1089.55 -2.83504 2.65042 0
M  V30 11508 H 1087.65 -3.70998 0.345111 0
M  V30 11509 H 1087.77 -4.28711 2.13878 0
M  V30 11510 H 1086.13 -2.32067 1.04961 0
M  V30 11511 H 1086.91 -2.11036 2.70774 0
M  V30 11512 N 1089.36 -0.901303 -1.29284 0
M  V30 11513 C 1090.61 -0.527 -1.95108 0
M  V30 11514 C 1090.93 0.930065 -1.71391 0
M  V30 11515 O 1090.2 1.65601 -1.04658 0
M  V30 11516 H 1088.78 -0.191903 -0.721929 0
M  V30 11517 H 1091.44 -1.14795 -1.57506 0
M  V30 11518 H 1090.54 -0.710945 -3.03895 0
M  V30 11519 N 1090.84 1.42931 -0.663954 0
M  V30 11520 C 1092.08 2.01683 -0.181738 0
M  V30 11521 C 1092.41 1.52437 1.20802 0
M  V30 11522 O 1091.67 0.71254 1.82267 0
M  V30 11523 C 1091.97 3.57072 -0.153163 0
M  V30 11524 C 1091.63 4.25706 -1.48612 0
M  V30 11525 C 1090.29 4.4417 -1.85111 0
M  V30 11526 C 1092.65 4.6448 -2.36448 0
M  V30 11527 C 1089.97 4.98677 -3.09092 0
M  V30 11528 C 1092.33 5.20362 -3.5973 0
M  V30 11529 C 1090.99 5.37041 -3.96412 0
M  V30 11530 H 1090.26 0.73801 -0.0665026 0
M  V30 11531 H 1092.91 1.71264 -0.856791 0
M  V30 11532 H 1091.21 3.87095 0.605372 0
M  V30 11533 H 1092.91 4.00299 0.236981 0
M  V30 11534 H 1089.5 4.11686 -1.19215 0
M  V30 11535 H 1093.68 4.49898 -2.09537 0
M  V30 11536 H 1088.94 5.09776 -3.37547 0
M  V30 11537 H 1093.11 5.49352 -4.28001 0
M  V30 11538 H 1090.74 5.79042 -4.92559 0
M  V30 11539 N 1092.32 0.406567 1.52266 0
M  V30 11540 C 1093.56 -0.171391 2.00971 0
M  V30 11541 C 1093.88 -1.46443 1.29668 0
M  V30 11542 O 1095.08 -2.12348 1.69176 0
M  V30 11543 C 1093.54 -0.35599 3.58135 0
M  V30 11544 C 1093.15 0.924803 4.38351 0
M  V30 11545 C 1094.89 -0.889378 4.15079 0
M  V30 11546 C 1092.8 0.707534 5.87152 0
M  V30 11547 H 1091.73 -0.0678253 0.750943 0
M  V30 11548 H 1094.38 0.531619 1.7563 0
M  V30 11549 H 1092.76 -1.12127 3.79794 0
M  V30 11550 H 1093.94 1.69603 4.28452 0
M  V30 11551 H 1092.25 1.38442 3.92712 0
M  V30 11552 H 1094.85 -1.06792 5.23927 0
M  V30 11553 H 1095.19 -1.86334 3.7227 0
M  V30 11554 H 1095.72 -0.183224 3.97378 0
M  V30 11555 H 1092.46 1.65299 6.34316 0
M  V30 11556 H 1091.98 -0.024446 5.99795 0
M  V30 11557 H 1093.66 0.348721 6.4606 0
M  V30 11558 N 1093.79 -1.57004 0.136909 0
M  V30 11559 C 1095.04 -1.96873 -0.511137 0
M  V30 11560 C 1095.4 -1.02001 -1.63137 0
M  V30 11561 O 1094.69 -0.0532138 -1.91526 0
M  V30 11562 C 1094.88 -3.40903 -1.07331 0
M  V30 11563 C 1094.71 -4.49699 -0.00908112 0
M  V30 11564 C 1093.48 -5.03477 0.42889 0
M  V30 11565 C 1095.68 -5.08372 0.778631 0
M  V30 11566 N 1093.66 -5.95867 1.47702 0
M  V30 11567 C 1095.03 -5.96875 1.67751 0
M  V30 11568 C 1097.09 -4.90975 0.827538 0
M  V30 11569 C 1095.79 -6.69845 2.62108 0
M  V30 11570 C 1097.82 -5.64639 1.75889 0
M  V30 11571 C 1097.18 -6.52842 2.64531 0
M  V30 11572 H 1093.28 -0.766253 -0.156141 0
M  V30 11573 H 1095.86 -1.93347 0.229176 0
M  V30 11574 H 1094.03 -3.45042 -1.78327 0
M  V30 11575 H 1095.76 -3.67855 -1.68715 0
M  V30 11576 H 1092.52 -4.73588 0.03306 0
M  V30 11577 H 1092.94 -6.46767 2.00055 0
M  V30 11578 H 1097.59 -4.22511 0.156318 0
M  V30 11579 H 1095.3 -7.37544 3.30235 0
M  V30 11580 H 1098.89 -5.53177 1.80241 0
M  V30 11581 H 1097.77 -7.08843 3.35426 0
M  V30 11582 N 1095.27 0.136881 -1.57004 0
M  V30 11583 C 1096.2 1.17026 -2.02057 0
M  V30 11584 C 1097.18 1.44223 -0.901866 0
M  V30 11585 O 1098.37 1.54971 -1.17037 0
M  V30 11586 C 1095.5 2.50095 -2.40977 0
M  V30 11587 C 1094.45 2.37398 -3.56127 0
M  V30 11588 C 1093.78 3.75268 -3.80891 0
M  V30 11589 C 1095.08 1.84952 -4.88457 0
M  V30 11590 H 1096.77 0.795601 -2.88636 0
M  V30 11591 H 1094.32 0.381266 -1.38861 0
M  V30 11592 H 1096.27 3.22621 -2.71097 0
M  V30 11593 H 1095 2.89416 -1.51348 0
M  V30 11594 H 1093.65 1.67322 -3.26188 0
M  V30 11595 H 1093.3 4.12043 -2.88496 0
M  V30 11596 H 1093 3.67631 -4.5839 0
M  V30 11597 H 1094.53 4.49327 -4.13446 0
M  V30 11598 H 1095.94 2.4728 -5.17229 0
M  V30 11599 H 1094.34 1.88181 -5.69832 0
M  V30 11600 H 1095.41 0.805848 -4.78157 0
M  V30 11601 N 1096.75 1.52266 0.40654 0
M  V30 11602 C 1098 1.6568 1.15035 0
M  V30 11603 C 1098.31 0.394135 1.91588 0
M  V30 11604 O 1099.52 0.408113 2.68415 0
M  V30 11605 C 1097.97 2.92725 2.0938 0
M  V30 11606 C 1097.58 4.26108 1.38332 0
M  V30 11607 C 1099.33 3.15502 2.84004 0
M  V30 11608 C 1097.23 5.44275 2.3134 0
M  V30 11609 H 1096.16 0.61719 0.43312 0
M  V30 11610 H 1098.81 1.78755 0.414598 0
M  V30 11611 H 1097.2 2.73355 2.86519 0
M  V30 11612 H 1098.37 4.55971 0.665396 0
M  V30 11613 H 1096.69 4.09454 0.757384 0
M  V30 11614 H 1099.28 4.00964 3.5374 0
M  V30 11615 H 1099.63 2.29842 3.471 0
M  V30 11616 H 1100.16 3.35357 2.13964 0
M  V30 11617 H 1096.9 6.3229 1.72887 0
M  V30 11618 H 1096.42 5.18749 3.01098 0
M  V30 11619 H 1098.1 5.77457 2.91809 0
M  V30 11620 N 1098.23 -0.663929 1.42933 0
M  V30 11621 C 1099.64 -0.978346 1.26097 0
M  V30 11622 C 1099.84 -2.00756 0.172968 0
M  V30 11623 O 1098.9 -2.48418 -0.452184 0
M  V30 11624 C 1100.21 -1.4728 2.62162 0
M  V30 11625 C 1101.76 -1.59001 2.69606 0
M  V30 11626 C 1102.24 -2.1184 4.06064 0
M  V30 11627 N 1103.73 -2.19158 4.08074 0
M  V30 11628 C 1104.46 -2.61141 5.10483 0
M  V30 11629 N 1103.96 -3.02498 6.23271 0
M  V30 11630 N 1105.75 -2.60986 4.97838 0
M  V30 11631 H 1097.9 0.0173096 2.12393 0
M  V30 11632 H 1100.17 -0.0548116 0.946414 0
M  V30 11633 H 1099.87 -0.791008 3.42689 0
M  V30 11634 H 1099.75 -2.4497 2.86827 0
M  V30 11635 H 1102.13 -2.26284 1.89418 0
M  V30 11636 H 1102.21 -0.597728 2.48718 0
M  V30 11637 H 1101.86 -1.45162 4.86714 0
M  V30 11638 H 1101.79 -3.1188 4.2431 0
M  V30 11639 H 1104.28 -1.90013 3.26655 0
M  V30 11640 H 1104.59 -3.33251 6.97254 0
M  V30 11641 H 1102.94 -3.00328 6.2676 0
M  V30 11642 H 1106.13 -2.28046 4.08794 0
M  V30 11643 H 1106.3 -2.93384 5.7778 0
M  V30 11644 N 1099.71 -1.29285 -0.901281 0
M  V30 11645 C 1100.93 -1.20169 -1.69039 0
M  V30 11646 C 1101.36 0.234509 -1.86632 0
M  V30 11647 O 1100.71 1.16935 -1.38549 0
M  V30 11648 C 1100.76 -1.91852 -3.05328 0
M  V30 11649 O 1099.87 -1.23448 -3.9349 0
M  V30 11650 H 1099.21 -0.416486 -0.517141 0
M  V30 11651 H 1101.74 -1.70826 -1.12603 0
M  V30 11652 H 1101.75 -2.00244 -3.5548 0
M  V30 11653 H 1100.42 -2.96313 -2.91841 0
M  V30 11654 H 1099 -1.23303 -3.51924 0
M  V30 11655 N 1101.18 1.11143 -1.11736 0
M  V30 11656 C 1102.11 2.19339 -0.800795 0
M  V30 11657 C 1103.1 1.68508 0.23221 0
M  V30 11658 O 1104.28 1.93967 0.0950063 0
M  V30 11659 C 1101.41 3.46424 -0.246579 0
M  V30 11660 C 1100.36 4.10487 -1.21181 0
M  V30 11661 C 1099.69 5.32183 -0.518158 0
M  V30 11662 C 1100.99 4.55052 -2.56368 0
M  V30 11663 H 1102.68 2.46077 -1.70548 0
M  V30 11664 H 1100.23 1.18271 -0.821454 0
M  V30 11665 H 1102.18 4.21398 -0.0128889 0
M  V30 11666 H 1100.91 3.19154 0.693415 0
M  V30 11667 H 1099.57 3.3751 -1.43118 0
M  V30 11668 H 1099.21 5.01187 0.426742 0
M  V30 11669 H 1098.91 5.75997 -1.16196 0
M  V30 11670 H 1100.44 6.09895 -0.293333 0
M  V30 11671 H 1101.85 5.21335 -2.38501 0
M  V30 11672 H 1100.25 5.0969 -3.16758 0
M  V30 11673 H 1101.32 3.68343 -3.1536 0
M  V30 11674 N 1102.66 0.908147 1.28804 0
M  V30 11675 C 1103.89 0.553287 1.99054 0
M  V30 11676 C 1104.3 -0.868455 1.68091 0
M  V30 11677 O 1103.64 -1.58599 0.926939 0
M  V30 11678 C 1103.71 0.675823 3.5309 0
M  V30 11679 C 1103.37 2.06608 4.0763 0
M  V30 11680 C 1104.37 3.03819 4.21889 0
M  V30 11681 C 1102.05 2.37775 4.42457 0
M  V30 11682 C 1104.05 4.30316 4.7022 0
M  V30 11683 C 1101.73 3.64512 4.90484 0
M  V30 11684 C 1102.73 4.60597 5.04321 0
M  V30 11685 O 1102.42 5.85082 5.51302 0
M  V30 11686 H 1102.15 0.210152 0.642504 0
M  V30 11687 H 1104.7 1.22188 1.65104 0
M  V30 11688 H 1102.93 -0.0498253 3.86668 0
M  V30 11689 H 1104.62 0.328884 4.04565 0
M  V30 11690 H 1105.39 2.81057 3.95262 0
M  V30 11691 H 1101.27 1.63742 4.3094 0
M  V30 11692 H 1104.81 5.05318 4.80936 0
M  V30 11693 H 1100.71 3.87101 5.1655 0
M  V30 11694 H 1101.48 5.87791 5.69599 0
M  V30 11695 N 1104.14 -1.42577 0.671525 0
M  V30 11696 C 1105.05 -2.34598 -0.00898225 0
M  V30 11697 C 1106.07 -1.54909 -0.792407 0
M  V30 11698 O 1107.24 -1.87491 -0.735477 0
M  V30 11699 C 1104.31 -3.33405 -0.950888 0
M  V30 11700 C 1103.37 -4.28993 -0.16236 0
M  V30 11701 C 1102.6 -5.2308 -1.0594 0
M  V30 11702 O 1102.82 -5.22022 -2.2989 0
M  V30 11703 O 1101.76 -5.99632 -0.521966 0
M  V30 11704 H 1105.58 -2.94321 0.748927 0
M  V30 11705 H 1103.17 -1.43025 0.43175 0
M  V30 11706 H 1105.05 -3.94115 -1.49169 0
M  V30 11707 H 1103.73 -2.7616 -1.68871 0
M  V30 11708 H 1102.63 -3.71707 0.42247 0
M  V30 11709 H 1103.97 -4.8927 0.536274 0
M  V30 11710 N 1105.62 -0.414636 -1.52048 0
M  V30 11711 C 1106.55 0.452854 -2.23662 0
M  V30 11712 C 1107.53 1.04348 -1.24701 0
M  V30 11713 O 1108.71 1.09029 -1.53769 0
M  V30 11714 C 1105.84 1.62908 -2.96949 0
M  V30 11715 C 1104.89 1.16132 -4.10385 0
M  V30 11716 S 1105.72 0.121936 -5.35361 0
M  V30 11717 C 1106.88 1.30336 -6.12179 0
M  V30 11718 H 1107.11 -0.155202 -2.96895 0
M  V30 11719 H 1104.64 -0.198972 -1.53113 0
M  V30 11720 H 1106.6 2.30351 -3.39777 0
M  V30 11721 H 1105.26 2.20849 -2.23348 0
M  V30 11722 H 1104.45 2.04025 -4.60858 0
M  V30 11723 H 1104.06 0.565452 -3.69701 0
M  V30 11724 H 1106.35 2.22596 -6.39889 0
M  V30 11725 H 1107.29 0.839052 -7.03111 0
M  V30 11726 H 1107.7 1.53165 -5.43324 0
M  V30 11727 N 1107.1 1.56929 -0.145233 0
M  V30 11728 C 1108.03 2.13796 0.826078 0
M  V30 11729 C 1109.04 1.08697 1.21197 0
M  V30 11730 O 1110.23 1.3598 1.15635 0
M  V30 11731 C 1107.33 2.6443 2.11967 0
M  V30 11732 C 1106.5 3.9391 1.90142 0
M  V30 11733 C 1105.56 4.29872 3.03474 0
M  V30 11734 O 1104.59 4.98227 2.75242 0
M  V30 11735 N 1105.79 3.8931 4.30602 0
M  V30 11736 H 1108.56 2.97764 0.340073 0
M  V30 11737 H 1106.12 1.61854 0.0383928 0
M  V30 11738 H 1108.11 2.85502 2.86829 0
M  V30 11739 H 1106.68 1.85196 2.51836 0
M  V30 11740 H 1105.9 3.81481 0.993268 0
M  V30 11741 H 1107.19 4.78523 1.72896 0
M  V30 11742 H 1106.58 3.34229 4.56407 0
M  V30 11743 H 1105.14 4.15438 5.0225 0
M  V30 11744 N 1108.58 -0.128553 1.57075 0
M  V30 11745 C 1109.49 -1.17718 2.02927 0
M  V30 11746 C 1110.5 -1.45912 0.947932 0
M  V30 11747 O 1111.68 -1.57217 1.25876 0
M  V30 11748 C 1108.74 -2.48625 2.41633 0
M  V30 11749 C 1107.8 -2.27914 3.63804 0
M  V30 11750 C 1107.04 -3.52579 4.00654 0
M  V30 11751 O 1107.26 -4.59505 3.37952 0
M  V30 11752 O 1106.19 -3.44147 4.93808 0
M  V30 11753 H 1110.02 -0.817846 2.92481 0
M  V30 11754 H 1107.6 -0.338649 1.45511 0
M  V30 11755 H 1109.49 -3.2577 2.67305 0
M  V30 11756 H 1108.16 -2.84052 1.55229 0
M  V30 11757 H 1107.07 -1.4866 3.43294 0
M  V30 11758 H 1108.4 -1.97395 4.50883 0
M  V30 11759 N 1110.05 -1.5248 -0.398459 0
M  V30 11760 C 1110.96 -1.79492 -1.51062 0
M  V30 11761 C 1111.98 -0.681101 -1.60116 0
M  V30 11762 O 1113.16 -0.967671 -1.7663 0
M  V30 11763 C 1110.22 -1.94958 -2.86692 0
M  V30 11764 C 1109.28 -3.1887 -2.87438 0
M  V30 11765 C 1108.51 -3.33588 -4.16599 0
M  V30 11766 O 1108.74 -2.53327 -5.11059 0
M  V30 11767 O 1107.67 -4.26795 -4.24416 0
M  V30 11768 H 1111.5 -2.73913 -1.31169 0
M  V30 11769 H 1109.08 -1.37455 -0.585372 0
M  V30 11770 H 1110.96 -2.06891 -3.67116 0
M  V30 11771 H 1109.64 -1.03726 -3.06631 0
M  V30 11772 H 1108.55 -3.12386 -2.0583 0
M  V30 11773 H 1109.88 -4.09917 -2.7245 0
M  V30 11774 N 1111.53 0.65634 -1.43283 0
M  V30 11775 C 1112.95 0.971645 -1.26614 0
M  V30 11776 C 1113.15 2.00662 -0.183612 0
M  V30 11777 O 1112.2 2.48654 0.439003 0
M  V30 11778 C 1113.52 1.45888 -2.6294 0
M  V30 11779 C 1115.06 1.57569 -2.70446 0
M  V30 11780 C 1115.54 2.09684 -4.07181 0
M  V30 11781 N 1117.03 2.16991 -4.0923 0
M  V30 11782 C 1117.77 2.5843 -5.11861 0
M  V30 11783 N 1117.26 2.99188 -6.24867 0
M  V30 11784 N 1119.05 2.58342 -4.99215 0
M  V30 11785 H 1111.21 -0.028573 -2.12381 0
M  V30 11786 H 1113.47 0.0497918 -0.946691 0
M  V30 11787 H 1113.17 0.772823 -3.43104 0
M  V30 11788 H 1113.05 2.43445 -2.88122 0
M  V30 11789 H 1115.44 2.25277 -1.90616 0
M  V30 11790 H 1115.52 0.584529 -2.49032 0
M  V30 11791 H 1115.16 1.42579 -4.87477 0
M  V30 11792 H 1115.09 3.09625 -4.25958 0
M  V30 11793 H 1117.58 1.88278 -3.27658 0
M  V30 11794 H 1117.89 3.29549 -6.99012 0
M  V30 11795 H 1116.24 2.97 -6.28344 0
M  V30 11796 H 1119.43 2.25875 -4.09998 0
M  V30 11797 H 1119.6 2.90316 -5.79328 0
M  V30 11798 N 1113.01 1.29761 0.894412 0
M  V30 11799 C 1113.94 1.17902 2.01547 0
M  V30 11800 C 1114.92 0.0719402 1.69948 0
M  V30 11801 O 1116.11 0.252338 1.92554 0
M  V30 11802 C 1113.24 0.860262 3.36477 0
M  V30 11803 C 1112.19 1.92424 3.82305 0
M  V30 11804 C 1111.52 1.45868 5.14419 0
M  V30 11805 C 1112.82 3.33391 4.02054 0
M  V30 11806 H 1114.51 2.11688 2.11727 0
M  V30 11807 H 1112.06 1.01916 1.01731 0
M  V30 11808 H 1114.01 0.763987 4.14417 0
M  V30 11809 H 1112.73 -0.113289 3.26403 0
M  V30 11810 H 1111.39 2.00999 3.06586 0
M  V30 11811 H 1111.04 0.473654 5.00765 0
M  V30 11812 H 1110.74 2.17028 5.46052 0
M  V30 11813 H 1112.26 1.37601 5.94894 0
M  V30 11814 H 1113.68 3.27628 4.7046 0
M  V30 11815 H 1112.07 4.02555 4.4505 0
M  V30 11816 H 1113.14 3.75978 3.06216 0
M  V30 11817 N 1114.49 -1.10549 1.12324 0
M  V30 11818 C 1115.45 -2.15039 0.793156 0
M  V30 11819 C 1116.45 -1.59651 -0.19192 0
M  V30 11820 O 1117.64 -1.74167 0.0337262 0
M  V30 11821 C 1114.77 -3.40433 0.17842 0
M  V30 11822 H 1115.97 -2.4575 1.71892 0
M  V30 11823 H 1113.52 -1.25892 0.926333 0
M  V30 11824 H 1114.25 -3.15338 -0.757122 0
M  V30 11825 H 1114.04 -3.81921 0.887645 0
M  V30 11826 H 1115.53 -4.17584 -0.0360724 0
M  V30 11827 N 1115.97 -0.914965 -1.28321 0
M  V30 11828 C 1117.38 -0.613297 -1.47346 0
M  V30 11829 C 1117.58 0.84106 -1.83108 0
M  V30 11830 O 1116.64 1.62004 -1.93678 0
M  V30 11831 C 1117.95 -1.55224 -2.57538 0
M  V30 11832 C 1119.5 -1.55909 -2.71407 0
M  V30 11833 C 1119.97 -2.48468 -3.84744 0
M  V30 11834 N 1121.46 -2.46602 -3.92099 0
M  V30 11835 C 1122.2 -3.14917 -4.79182 0
M  V30 11836 N 1121.7 -3.92566 -5.70845 0
M  V30 11837 N 1123.49 -3.03998 -4.72802 0
M  V30 11838 H 1115.64 -1.85539 -1.03388 0
M  V30 11839 H 1117.9 -0.795875 -0.515061 0
M  V30 11840 H 1117.61 -2.58917 -2.38023 0
M  V30 11841 H 1117.48 -1.28426 -3.54664 0
M  V30 11842 H 1119.87 -0.52953 -2.9031 0
M  V30 11843 H 1119.95 -1.86751 -1.74808 0
M  V30 11844 H 1119.59 -3.51526 -3.66595 0
M  V30 11845 H 1119.52 -2.14928 -4.80743 0
M  V30 11846 H 1122.02 -1.90199 -3.26547 0
M  V30 11847 H 1122.33 -4.41709 -6.34123 0
M  V30 11848 H 1120.67 -3.96671 -5.70681 0
M  V30 11849 H 1123.86 -2.42839 -4.00184 0
M  V30 11850 H 1124.04 -3.57511 -5.40454 0
M  V30 11851 N 1117.44 1.42219 -0.679077 0
M  V30 11852 C 1118.39 2.308 -0.00340316 0
M  V30 11853 C 1119.36 1.462 0.788334 0
M  V30 11854 O 1120.55 1.75023 0.759716 0
M  V30 11855 C 1117.69 3.32084 0.938854 0
M  V30 11856 C 1116.8 4.31772 0.140485 0
M  V30 11857 C 1115.93 5.20128 1.07888 0
M  V30 11858 C 1114.97 6.11493 0.27245 0
M  V30 11859 N 1114.11 6.92388 1.16378 0
M  V30 11860 H 1118.95 2.88024 -0.764587 0
M  V30 11861 H 1116.49 1.41869 -0.38878 0
M  V30 11862 H 1118.44 3.89339 1.49903 0
M  V30 11863 H 1117.07 2.76448 1.66662 0
M  V30 11864 H 1116.13 3.76599 -0.536376 0
M  V30 11865 H 1117.44 4.96432 -0.485433 0
M  V30 11866 H 1116.59 5.82137 1.70884 0
M  V30 11867 H 1115.33 4.55655 1.73868 0
M  V30 11868 H 1114.34 5.48549 -0.370693 0
M  V30 11869 H 1115.56 6.78017 -0.383315 0
M  V30 11870 H 1113.51 6.30538 1.8099 0
M  V30 11871 H 1113.42 7.5367 0.593043 0
M  V30 11872 H 1114.69 7.58879 1.78107 0
M  V30 11873 N 1118.92 0.422693 1.51826 0
M  V30 11874 C 1119.88 -0.384307 2.25955 0
M  V30 11875 C 1120.88 -0.962184 1.28836 0
M  V30 11876 O 1122.07 -0.838931 1.52668 0
M  V30 11877 C 1119.21 -1.54228 3.04018 0
M  V30 11878 H 1120.4 0.265157 2.98726 0
M  V30 11879 H 1117.95 0.175515 1.55311 0
M  V30 11880 H 1118.69 -2.22822 2.35629 0
M  V30 11881 H 1118.47 -1.13425 3.75336 0
M  V30 11882 H 1119.96 -2.1128 3.60209 0
M  V30 11883 N 1120.4 -1.5685 0.153553 0
M  V30 11884 C 1121.36 -2.15894 -0.769564 0
M  V30 11885 C 1122.36 -1.10239 -1.17064 0
M  V30 11886 O 1123.55 -1.35845 -1.09049 0
M  V30 11887 C 1120.68 -2.72738 -2.04516 0
M  V30 11888 H 1121.88 -2.98807 -0.255842 0
M  V30 11889 H 1119.43 -1.56005 -0.0959279 0
M  V30 11890 H 1120.17 -1.9351 -2.60239 0
M  V30 11891 H 1119.95 -3.50042 -1.76672 0
M  V30 11892 H 1121.44 -3.18208 -2.70432 0
M  V30 11893 N 1121.88 0.120221 -1.57141 0
M  V30 11894 C 1123.29 0.473718 -1.52408 0
M  V30 11895 C 1123.49 1.81925 -0.866354 0
M  V30 11896 O 1122.55 2.48491 -0.448173 0
M  V30 11897 C 1123.86 0.459338 -2.97171 0
M  V30 11898 C 1125.41 0.542975 -3.08254 0
M  V30 11899 C 1125.89 0.558996 -4.54576 0
M  V30 11900 N 1127.38 0.620469 -4.59026 0
M  V30 11901 C 1128.11 0.654292 -5.69655 0
M  V30 11902 N 1127.61 0.645835 -6.89783 0
M  V30 11903 N 1129.4 0.697208 -5.57759 0
M  V30 11904 H 1121.55 -0.76142 -1.98283 0
M  V30 11905 H 1123.81 -0.280736 -0.905479 0
M  V30 11906 H 1123.52 -0.461654 -3.48657 0
M  V30 11907 H 1123.39 1.28759 -3.54543 0
M  V30 11908 H 1125.78 1.45439 -2.56772 0
M  V30 11909 H 1125.86 -0.312936 -2.53879 0
M  V30 11910 H 1125.51 -0.348367 -5.06704 0
M  V30 11911 H 1125.44 1.43177 -5.06762 0
M  V30 11912 H 1127.93 0.633218 -3.72557 0
M  V30 11913 H 1128.24 0.674233 -7.69853 0
M  V30 11914 H 1126.59 0.613279 -6.92289 0
M  V30 11915 H 1129.78 0.70117 -4.62819 0
M  V30 11916 H 1129.95 0.7201 -6.43986 0
M  V30 11917 N 1123.36 1.52689 0.390367 0
M  V30 11918 C 1124.6 1.67335 1.13329 0
M  V30 11919 C 1124.93 0.415068 1.90531 0
M  V30 11920 O 1124.2 -0.570504 1.87409 0
M  V30 11921 H 1122.78 0.616821 0.421356 0
M  V30 11922 H 1125.44 1.89799 0.443 0
M  V30 11923 H 1124.53 2.52314 1.83696 0
M  V30 11924 N 1124.83 -0.648732 1.43629 0
M  V30 11925 C 1125.76 -1.77298 1.51947 0
M  V30 11926 C 1126.75 -1.65942 0.373785 0
M  V30 11927 O 1127.93 -1.8497 0.591596 0
M  V30 11928 C 1125.06 -3.15749 1.44638 0
M  V30 11929 C 1124.01 -3.41872 2.57502 0
M  V30 11930 C 1123.34 -4.8017 2.35246 0
M  V30 11931 C 1124.64 -3.36173 3.99731 0
M  V30 11932 H 1126.33 -1.70594 2.46045 0
M  V30 11933 H 1123.88 -0.819306 1.1842 0
M  V30 11934 H 1125.83 -3.94156 1.4906 0
M  V30 11935 H 1124.56 -3.23194 0.470466 0
M  V30 11936 H 1123.22 -2.65838 2.5244 0
M  V30 11937 H 1122.86 -4.84297 1.35887 0
M  V30 11938 H 1122.56 -4.9861 3.10906 0
M  V30 11939 H 1124.09 -5.6083 2.41459 0
M  V30 11940 H 1125.5 -4.0451 4.06257 0
M  V30 11941 H 1123.9 -3.66148 4.75453 0
M  V30 11942 H 1124.97 -2.34277 4.24549 0
M  V30 11943 N 1126.31 -1.30234 -0.887518 0
M  V30 11944 C 1127.26 -1.16302 -2.01436 0
M  V30 11945 C 1128.25 -0.0755422 -1.69231 0
M  V30 11946 O 1129.46 -0.236213 -1.78443 0
M  V30 11947 H 1125.84 -0.35961 -0.660443 0
M  V30 11948 H 1127.81 -2.11677 -2.10322 0
M  V30 11949 C 1126.56 -0.869009 -3.36665 0
M  V30 11950 H 1125.88 -1.69787 -3.61956 0
M  V30 11951 H 1127.32 -0.811621 -4.16159 0
M  V30 11952 C 1125.78 0.428021 -3.3417 0
M  V30 11953 O 1126.31 1.45033 -3.74604 0
M  V30 11954 N 1124.51 0.438264 -2.87276 0
M  V30 11955 H 1124.06 -0.394142 -2.54567 0
M  V30 11956 H 1124.02 1.30604 -2.85989 0
M  V30 11957 N 1127.79 1.09952 -1.12909 0
M  V30 11958 C 1129.04 1.82286 -0.888797 0
M  V30 11959 C 1129.37 1.85218 0.58379 0
M  V30 11960 O 1128.64 1.31645 1.43177 0
M  V30 11961 C 1128.93 3.28706 -1.47053 0
M  V30 11962 C 1128.78 3.34078 -3.01184 0
M  V30 11963 C 1130.1 4.25233 -1.13424 0
M  V30 11964 H 1127.22 0.661803 -0.324324 0
M  V30 11965 H 1129.86 1.28833 -1.3965 0
M  V30 11966 H 1128.01 3.74356 -1.03874 0
M  V30 11967 H 1129.68 2.96871 -3.5308 0
M  V30 11968 H 1127.93 2.73825 -3.36455 0
M  V30 11969 H 1128.6 4.37202 -3.36984 0
M  V30 11970 H 1131.07 3.87841 -1.50726 0
M  V30 11971 H 1129.95 5.26033 -1.56783 0
M  V30 11972 H 1130.21 4.42075 -0.0471496 0
M  V30 11973 N 1129.27 0.921757 1.27833 0
M  V30 11974 C 1130.52 0.557974 1.94245 0
M  V30 11975 C 1130.84 -0.90268 1.72849 0
M  V30 11976 O 1130.11 -1.63915 1.07279 0
M  V30 11977 H 1128.69 0.203364 0.718785 0
M  V30 11978 H 1131.35 1.17286 1.5566 0
M  V30 11979 H 1130.45 0.759202 3.02725 0
M  V30 11980 N 1130.75 -1.41857 0.686609 0
M  V30 11981 C 1131.7 -2.27999 -0.00734666 0
M  V30 11982 C 1132.68 -1.41723 -0.761808 0
M  V30 11983 O 1133.87 -1.65072 -0.638776 0
M  V30 11984 C 1131 -3.29909 -0.949462 0
M  V30 11985 C 1130.09 -4.23666 -0.191722 0
M  V30 11986 N 1130.48 -4.99277 0.809715 0
M  V30 11987 C 1128.78 -4.43937 -0.428489 0
M  V30 11988 C 1129.48 -5.67834 1.2625 0
M  V30 11989 N 1128.45 -5.40387 0.590151 0
M  V30 11990 H 1132.26 -2.83887 0.760608 0
M  V30 11991 H 1129.77 -1.53962 0.516676 0
M  V30 11992 H 1131.77 -3.90436 -1.46169 0
M  V30 11993 H 1130.43 -2.75582 -1.71711 0
M  V30 11994 H 1131.44 -5.04051 1.18966 0
M  V30 11995 H 1128.11 -4.00633 -1.17472 0
M  V30 11996 H 1129.5 -6.38469 2.09301 0
M  V30 11997 N 1132.22 -0.430739 -1.51599 0
M  V30 11998 C 1133.15 0.374695 -2.30474 0
M  V30 11999 C 1134.14 1.02694 -1.35602 0
M  V30 12000 O 1135.32 1.03184 -1.6452 0
M  V30 12001 C 1132.45 1.47981 -3.14196 0
M  V30 12002 C 1131.4 0.951415 -4.17291 0
M  V30 12003 C 1130.73 2.15177 -4.89492 0
M  V30 12004 C 1132.03 -0.00957951 -5.22299 0
M  V30 12005 H 1133.72 -0.283508 -2.98055 0
M  V30 12006 H 1131.27 -0.13779 -1.43339 0
M  V30 12007 H 1133.22 2.05043 -3.68151 0
M  V30 12008 H 1131.95 2.16621 -2.44424 0
M  V30 12009 H 1130.61 0.403052 -3.64378 0
M  V30 12010 H 1130.25 2.82421 -4.1623 0
M  V30 12011 H 1129.95 1.80464 -5.59202 0
M  V30 12012 H 1131.48 2.72806 -5.46269 0
M  V30 12013 H 1132.89 0.470527 -5.71366 0
M  V30 12014 H 1131.29 -0.268959 -5.99497 0
M  V30 12015 H 1132.36 -0.948297 -4.75537 0
M  V30 12016 N 1133.7 1.56767 -0.161869 0
M  V30 12017 C 1134.65 2.17502 0.772102 0
M  V30 12018 C 1135.62 1.11223 1.23364 0
M  V30 12019 O 1136.8 1.39332 1.30351 0
M  V30 12020 C 1133.94 2.81248 1.99984 0
M  V30 12021 C 1133.06 4.01962 1.58274 0
M  V30 12022 C 1132.19 4.53662 2.76341 0
M  V30 12023 C 1131.23 5.66807 2.31076 0
M  V30 12024 N 1130.37 6.13059 3.42203 0
M  V30 12025 H 1135.21 2.96971 0.247382 0
M  V30 12026 H 1132.75 1.46685 0.110382 0
M  V30 12027 H 1134.7 3.16359 2.7198 0
M  V30 12028 H 1133.33 2.04398 2.49842 0
M  V30 12029 H 1132.39 3.72733 0.759874 0
M  V30 12030 H 1133.7 4.83891 1.2104 0
M  V30 12031 H 1132.85 4.90905 3.56507 0
M  V30 12032 H 1131.59 3.7077 3.16829 0
M  V30 12033 H 1130.6 5.29125 1.49354 0
M  V30 12034 H 1131.82 6.51494 1.91657 0
M  V30 12035 H 1129.77 5.33099 3.82285 0
M  V30 12036 H 1129.68 6.89953 3.09033 0
M  V30 12037 H 1130.95 6.54951 4.22682 0
M  V30 12038 N 1135.18 -0.111886 1.57202 0
M  V30 12039 C 1136.11 -1.13796 2.03894 0
M  V30 12040 C 1137.09 -1.4277 0.924696 0
M  V30 12041 O 1138.28 -1.53089 1.19488 0
M  V30 12042 C 1135.41 -2.46229 2.44925 0
M  V30 12043 C 1134.36 -2.31702 3.59859 0
M  V30 12044 C 1133.69 -3.69161 3.86813 0
M  V30 12045 C 1134.99 -1.77158 4.91337 0
M  V30 12046 H 1136.68 -0.749581 2.89865 0
M  V30 12047 H 1134.23 -0.359126 1.3945 0
M  V30 12048 H 1136.18 -3.18267 2.76195 0
M  V30 12049 H 1134.9 -2.86971 1.55933 0
M  V30 12050 H 1133.56 -1.62112 3.28809 0
M  V30 12051 H 1133.21 -4.07401 2.95015 0
M  V30 12052 H 1132.91 -3.60292 4.6418 0
M  V30 12053 H 1134.43 -4.42693 4.20542 0
M  V30 12054 H 1135.85 -2.3902 5.21097 0
M  V30 12055 H 1134.25 -1.79091 5.72753 0
M  V30 12056 H 1135.32 -0.729675 4.79379 0
M  V30 12057 N 1136.66 -1.52894 -0.382264 0
M  V30 12058 C 1137.89 -1.72152 -1.14766 0
M  V30 12059 C 1138.3 -0.442911 -1.83531 0
M  V30 12060 O 1137.66 0.583085 -1.72935 0
M  V30 12061 C 1137.71 -2.87566 -2.19062 0
M  V30 12062 O 1137.43 -4.10478 -1.53099 0
M  V30 12063 C 1138.93 -3.18559 -3.08277 0
M  V30 12064 H 1136.15 -0.576212 -0.343832 0
M  V30 12065 H 1138.7 -1.99571 -0.446273 0
M  V30 12066 H 1136.85 -2.62589 -2.84826 0
M  V30 12067 H 1137.26 -4.74989 -2.22454 0
M  V30 12068 H 1138.74 -4.02763 -3.77473 0
M  V30 12069 H 1139.22 -2.33222 -3.72161 0
M  V30 12070 H 1139.82 -3.454 -2.48151 0
M  V30 12071 N 1138.14 0.641106 -1.43971 0
M  V30 12072 C 1139.38 1.40084 -1.46228 0
M  V30 12073 C 1139.71 1.94287 -0.0911011 0
M  V30 12074 O 1138.97 1.73481 0.905688 0
M  V30 12075 C 1139.27 2.59092 -2.46183 0
M  V30 12076 C 1138.93 2.23237 -3.9176 0
M  V30 12077 C 1137.59 2.13171 -4.31407 0
M  V30 12078 C 1139.95 1.94746 -4.83449 0
M  V30 12079 C 1137.27 1.72788 -5.60679 0
M  V30 12080 C 1139.63 1.55858 -6.13099 0
M  V30 12081 C 1138.29 1.44326 -6.5171 0
M  V30 12082 H 1137.56 0.512603 -0.535088 0
M  V30 12083 H 1140.21 0.727956 -1.77124 0
M  V30 12084 H 1138.51 3.31568 -2.08734 0
M  V30 12085 H 1140.21 3.17313 -2.4518 0
M  V30 12086 H 1136.8 2.31986 -3.60389 0
M  V30 12087 H 1140.98 2.01438 -4.53582 0
M  V30 12088 H 1136.24 1.62455 -5.89422 0
M  V30 12089 H 1140.41 1.32848 -6.83611 0
M  V30 12090 H 1138.04 1.12806 -7.51784 0
M  V30 12091 N 1139.62 1.30703 0.880598 0
M  V30 12092 C 1140.86 1.21066 1.64688 0
M  V30 12093 C 1141.22 -0.230015 1.90617 0
M  V30 12094 O 1142.42 -0.449696 2.65012 0
M  V30 12095 C 1140.69 2.02072 2.94791 0
M  V30 12096 S 1142.25 2.09182 3.85731 0
M  V30 12097 H 1139.07 0.431369 0.565192 0
M  V30 12098 H 1141.67 1.65234 1.04489 0
M  V30 12099 H 1140.37 3.05851 2.73648 0
M  V30 12100 H 1139.91 1.58583 3.60021 0
M  V30 12101 H 1141.92 1.22239 4.80908 0
M  V30 12102 N 1141.09 -1.09351 1.1349 0
M  V30 12103 C 1142.32 -1.85844 0.92069 0
M  V30 12104 C 1142.74 -1.80616 -0.525303 0
M  V30 12105 O 1142.1 -1.1842 -1.37282 0
M  V30 12106 C 1142.15 -3.31716 1.4141 0
M  V30 12107 O 1141.25 -4.08014 0.599838 0
M  V30 12108 H 1140.59 -0.576242 0.32991 0
M  V30 12109 H 1143.12 -1.38084 1.50976 0
M  V30 12110 H 1143.13 -3.82564 1.41805 0
M  V30 12111 H 1141.81 -3.34837 2.46692 0
M  V30 12112 H 1140.39 -3.66944 0.663816 0
M  V30 12113 N 1142.57 -0.928524 -1.27343 0
M  V30 12114 C 1143.82 -0.570235 -1.94618 0
M  V30 12115 C 1144.15 0.886381 -1.72792 0
M  V30 12116 O 1143.43 1.63242 -1.05747 0
M  V30 12117 C 1143.71 -0.897964 -3.48724 0
M  V30 12118 C 1143.56 -2.40839 -3.7989 0
M  V30 12119 C 1144.88 -0.404429 -4.38238 0
M  V30 12120 H 1142 -0.208645 -0.70685 0
M  V30 12121 H 1144.64 -1.16045 -1.50444 0
M  V30 12122 H 1142.79 -0.395679 -3.8648 0
M  V30 12123 H 1144.46 -2.98243 -3.51921 0
M  V30 12124 H 1142.71 -2.85723 -3.26412 0
M  V30 12125 H 1143.38 -2.58823 -4.8756 0
M  V30 12126 H 1145.85 -0.834918 -4.07637 0
M  V30 12127 H 1144.73 -0.662684 -5.44885 0
M  V30 12128 H 1144.99 0.695507 -4.36595 0
M  V30 12129 N 1144.05 1.41491 -0.694123 0
M  V30 12130 C 1145.3 2.00854 -0.224033 0
M  V30 12131 C 1145.62 1.55246 1.17999 0
M  V30 12132 O 1144.89 0.782452 1.79595 0
M  V30 12133 H 1143.47 0.742721 -0.0798368 0
M  V30 12134 H 1146.13 1.73137 -0.894958 0
M  V30 12135 H 1145.23 3.11173 -0.240332 0
M  V30 12136 N 1145.53 0.438773 1.51369 0
M  V30 12137 C 1146.94 -0.0240139 1.86685 0
M  V30 12138 C 1147.29 -1.41816 1.35583 0
M  V30 12139 O 1146.41 -2.04517 0.707232 0
M  V30 12140 C 1147.01 -0.0503527 3.38763 0
M  V30 12141 C 1145.57 -0.457556 3.73609 0
M  V30 12142 C 1144.72 0.348852 2.75097 0
M  V30 12143 H 1147.67 0.654552 1.44573 0
M  V30 12144 H 1147.69 -0.859534 3.70665 0
M  V30 12145 H 1147.2 0.964451 3.75925 0
M  V30 12146 H 1145.3 -1.47791 3.42036 0
M  V30 12147 H 1145.41 -0.181357 4.78757 0
M  V30 12148 H 1143.78 -0.193037 2.53967 0
M  V30 12149 H 1144.56 1.36256 3.15102 0
M  V30 12150 N 1147.01 -1.56678 0.170181 0
M  V30 12151 C 1148.23 -2.01223 -0.481362 0
M  V30 12152 C 1148.65 -1.05039 -1.56883 0
M  V30 12153 O 1148.01 -0.0510751 -1.82429 0
M  V30 12154 C 1148.06 -3.45588 -1.06073 0
M  V30 12155 O 1147.78 -4.38097 -0.0166754 0
M  V30 12156 C 1149.28 -4.05527 -1.79061 0
M  V30 12157 H 1146.5 -0.659574 -0.1233 0
M  V30 12158 H 1149.04 -2.02689 0.271576 0
M  V30 12159 H 1147.2 -3.449 -1.76417 0
M  V30 12160 H 1147.61 -5.22615 -0.444276 0
M  V30 12161 H 1149.09 -5.08467 -2.1486 0
M  V30 12162 H 1149.56 -3.47554 -2.68519 0
M  V30 12163 H 1150.17 -4.09914 -1.13361 0
M  V30 12164 N 1148.48 0.103547 -1.57259 0
M  V30 12165 C 1149.39 1.14475 -2.04774 0
M  V30 12166 C 1150.41 1.44385 -0.971025 0
M  V30 12167 O 1151.59 1.55195 -1.28361 0
M  V30 12168 C 1148.65 2.4475 -2.45558 0
M  V30 12169 C 1147.71 2.22098 -3.67384 0
M  V30 12170 C 1146.94 3.4616 -4.06213 0
M  V30 12171 O 1147.17 4.5407 -3.45219 0
M  V30 12172 O 1146.1 3.36248 -4.9922 0
M  V30 12173 H 1149.93 0.771211 -2.93745 0
M  V30 12174 H 1147.51 0.315456 -1.46032 0
M  V30 12175 H 1149.39 3.21476 -2.72454 0
M  V30 12176 H 1148.07 2.81547 -1.59728 0
M  V30 12177 H 1146.98 1.43179 -3.45616 0
M  V30 12178 H 1148.31 1.90197 -4.53967 0
M  V30 12179 N 1149.96 1.53094 0.37415 0
M  V30 12180 C 1151.2 1.70558 1.12647 0
M  V30 12181 C 1151.57 0.443515 1.86807 0
M  V30 12182 O 1152.77 0.49472 2.64208 0
M  V30 12183 C 1151.04 2.91565 2.06699 0
M  V30 12184 S 1152.6 3.29692 2.89567 0
M  V30 12185 H 1149.41 0.600238 0.381097 0
M  V30 12186 H 1152.02 1.91177 0.408865 0
M  V30 12187 H 1150.72 3.81625 1.50965 0
M  V30 12188 H 1150.25 2.73323 2.82945 0
M  V30 12189 H 1152.27 2.81036 4.08942 0
M  V30 12190 N 1151.44 -0.633461 1.44309 0
M  V30 12191 C 1152.4 -1.72743 1.50641 0
M  V30 12192 C 1153.4 -1.56031 0.388718 0
M  V30 12193 O 1154.59 -1.61568 0.651251 0
M  V30 12194 C 1151.72 -3.11804 1.37809 0
M  V30 12195 H 1152.92 -1.68503 2.48086 0
M  V30 12196 H 1150.47 -0.846912 1.31366 0
M  V30 12197 H 1151.21 -3.2164 0.414483 0
M  V30 12198 H 1150.99 -3.2534 2.18852 0
M  V30 12199 H 1152.48 -3.91538 1.45216 0
M  V30 12200 N 1152.92 -1.31168 -0.873655 0
M  V30 12201 C 1153.88 -1.18471 -1.96207 0
M  V30 12202 C 1154.88 -0.112814 -1.60404 0
M  V30 12203 O 1156.07 -0.3618 -1.70401 0
M  V30 12204 C 1153.2 -0.817662 -3.30949 0
M  V30 12205 H 1154.4 -2.1518 -2.08896 0
M  V30 12206 H 1151.95 -1.14727 -1.06149 0
M  V30 12207 H 1152.68 0.148428 -3.2396 0
M  V30 12208 H 1152.47 -1.59244 -3.58307 0
M  V30 12209 H 1153.96 -0.75262 -4.10762 0
M  V30 12210 N 1154.4 1.08748 -1.14068 0
M  V30 12211 C 1155.33 2.17591 -0.84714 0
M  V30 12212 C 1156.31 1.68962 0.196415 0
M  V30 12213 O 1157.49 1.94125 0.0538415 0
M  V30 12214 C 1154.62 3.45823 -0.320005 0
M  V30 12215 C 1153.58 4.07824 -1.2986 0
M  V30 12216 C 1152.9 5.30965 -0.630925 0
M  V30 12217 C 1154.2 4.49512 -2.65963 0
M  V30 12218 H 1155.9 2.42404 -1.75729 0
M  V30 12219 H 1153.44 1.16502 -0.846356 0
M  V30 12220 H 1155.4 4.21276 -0.102271 0
M  V30 12221 H 1154.12 3.20553 0.625561 0
M  V30 12222 H 1152.78 3.34398 -1.50245 0
M  V30 12223 H 1152.43 5.01979 0.320337 0
M  V30 12224 H 1152.13 5.73402 -1.28388 0
M  V30 12225 H 1153.65 6.09136 -0.422635 0
M  V30 12226 H 1155.06 5.16159 -2.49506 0
M  V30 12227 H 1153.46 5.02857 -3.27498 0
M  V30 12228 H 1154.53 3.6157 -3.23102 0
M  V30 12229 N 1155.87 0.935264 1.26849 0
M  V30 12230 C 1156.84 0.44485 2.24842 0
M  V30 12231 C 1157.84 -0.440781 1.54641 0
M  V30 12232 O 1159.03 -0.240793 1.72528 0
M  V30 12233 C 1156.16 -0.359566 3.38998 0
M  V30 12234 H 1157.35 1.31074 2.6974 0
M  V30 12235 H 1154.91 0.716665 1.38901 0
M  V30 12236 H 1155.64 -1.24396 2.99493 0
M  V30 12237 H 1155.43 0.275529 3.91131 0
M  V30 12238 H 1156.92 -0.692804 4.11813 0
M  V30 12239 N 1157.35 -1.41121 0.701616 0
M  V30 12240 C 1158.6 -2.0113 0.235147 0
M  V30 12241 C 1158.93 -1.55587 -1.16718 0
M  V30 12242 O 1158.18 -0.760615 -1.80314 0
M  V30 12243 C 1158.48 -3.5654 0.247781 0
M  V30 12244 C 1158.15 -4.21616 1.59846 0
M  V30 12245 C 1156.81 -4.39106 1.96822 0
M  V30 12246 C 1159.16 -4.58048 2.48679 0
M  V30 12247 C 1156.49 -4.90307 3.22205 0
M  V30 12248 C 1158.84 -5.10642 3.734 0
M  V30 12249 C 1157.51 -5.26343 4.10512 0
M  V30 12250 H 1156.78 -0.735987 0.0860462 0
M  V30 12251 H 1159.42 -1.68932 0.901898 0
M  V30 12252 H 1157.73 -3.88564 -0.502528 0
M  V30 12253 H 1159.42 -4.00787 -0.130766 0
M  V30 12254 H 1156.01 -4.08381 1.30088 0
M  V30 12255 H 1160.2 -4.44184 2.21391 0
M  V30 12256 H 1155.45 -5.00647 3.50945 0
M  V30 12257 H 1159.63 -5.37811 4.42416 0
M  V30 12258 H 1157.26 -5.65779 5.07738 0
M  V30 12259 N 1158.83 -0.446794 -1.51134 0
M  V30 12260 C 1160.08 0.116666 -2.02464 0
M  V30 12261 C 1160.41 1.41532 -1.32975 0
M  V30 12262 O 1159.68 1.89278 -0.447651 0
M  V30 12263 C 1159.97 0.325659 -3.58624 0
M  V30 12264 C 1159.82 -0.992307 -4.38718 0
M  V30 12265 C 1161.14 1.09121 -4.26357 0
M  V30 12266 H 1158.26 0.0409262 -0.735863 0
M  V30 12267 H 1160.9 -0.587641 -1.80684 0
M  V30 12268 H 1159.05 0.925585 -3.77313 0
M  V30 12269 H 1160.72 -1.62694 -4.31658 0
M  V30 12270 H 1158.97 -1.5947 -4.03425 0
M  V30 12271 H 1159.64 -0.800005 -5.46172 0
M  V30 12272 H 1162.11 0.582944 -4.11996 0
M  V30 12273 H 1160.99 1.20621 -5.35483 0
M  V30 12274 H 1161.25 2.12171 -3.87861 0
M  V30 12275 N 1160.31 1.56586 -0.178487 0
M  V30 12276 C 1161.24 2.21313 0.744486 0
M  V30 12277 C 1162.22 1.17098 1.23377 0
M  V30 12278 O 1163.4 1.45551 1.28563 0
M  V30 12279 C 1160.53 2.8595 1.97103 0
M  V30 12280 C 1159.49 3.96266 1.61732 0
M  V30 12281 C 1158.81 4.47987 2.91911 0
M  V30 12282 C 1160.11 5.15503 0.839868 0
M  V30 12283 H 1161.81 2.98698 0.204938 0
M  V30 12284 H 1159.35 1.43672 0.0971306 0
M  V30 12285 H 1161.31 3.29909 2.6218 0
M  V30 12286 H 1160.03 2.05946 2.53484 0
M  V30 12287 H 1158.69 3.52974 0.990208 0
M  V30 12288 H 1158.34 3.64765 3.46346 0
M  V30 12289 H 1158.04 5.22413 2.68995 0
M  V30 12290 H 1159.56 4.94637 3.58004 0
M  V30 12291 H 1160.98 5.5611 1.39337 0
M  V30 12292 H 1159.37 5.95891 0.709473 0
M  V30 12293 H 1160.44 4.84628 -0.162396 0
M  V30 12294 N 1161.79 -0.095206 1.57312 0
M  V30 12295 C 1162.72 -1.14173 1.98739 0
M  V30 12296 C 1163.73 -1.36323 0.889934 0
M  V30 12297 O 1164.92 -1.34977 1.16805 0
M  V30 12298 C 1162.02 -2.49729 2.29104 0
M  V30 12299 C 1161.19 -2.47857 3.60396 0
M  V30 12300 C 1160.25 -3.65341 3.78699 0
M  V30 12301 O 1159.28 -3.47837 4.50553 0
M  V30 12302 N 1160.48 -4.84818 3.19268 0
M  V30 12303 H 1163.25 -0.789126 2.89124 0
M  V30 12304 H 1160.81 -0.284187 1.59386 0
M  V30 12305 H 1162.8 -3.26925 2.38541 0
M  V30 12306 H 1161.37 -2.7708 1.44726 0
M  V30 12307 H 1160.59 -1.56208 3.61929 0
M  V30 12308 H 1161.88 -2.43685 4.46649 0
M  V30 12309 H 1161.27 -5.01943 2.60902 0
M  V30 12310 H 1159.83 -5.59607 3.34191 0
M  V30 12311 N 1163.26 -1.53291 -0.366026 0
M  V30 12312 C 1164.21 -1.76077 -1.44847 0
M  V30 12313 C 1165.2 -0.615302 -1.4867 0
M  V30 12314 O 1166.39 -0.873952 -1.53919 0
M  V30 12315 C 1163.52 -1.95371 -2.82286 0
M  V30 12316 C 1162.61 -3.15918 -2.82943 0
M  V30 12317 N 1163 -4.37835 -2.53247 0
M  V30 12318 C 1161.29 -3.16631 -3.14103 0
M  V30 12319 C 1162 -5.19573 -2.6157 0
M  V30 12320 N 1160.97 -4.55773 -2.96263 0
M  V30 12321 H 1164.77 -2.67949 -1.2075 0
M  V30 12322 H 1162.29 -1.5191 -0.574206 0
M  V30 12323 H 1164.28 -2.09823 -3.6025 0
M  V30 12324 H 1162.94 -1.04727 -3.07347 0
M  V30 12325 H 1163.96 -4.65575 -2.26848 0
M  V30 12326 H 1160.63 -2.35878 -3.44482 0
M  V30 12327 H 1162.02 -6.26821 -2.41961 0
M  V30 12328 N 1164.74 0.6258 -1.44643 0
M  V30 12329 C 1165.67 1.74858 -1.54748 0
M  V30 12330 C 1166.65 1.65327 -0.400138 0
M  V30 12331 O 1167.84 1.84005 -0.620948 0
M  V30 12332 C 1164.97 3.13408 -1.49643 0
M  V30 12333 C 1163.92 3.37733 -2.62908 0
M  V30 12334 C 1163.25 4.76367 -2.42855 0
M  V30 12335 C 1164.55 3.29771 -4.05029 0
M  V30 12336 H 1166.24 1.66658 -2.48728 0
M  V30 12337 H 1163.79 0.800363 -1.19709 0
M  V30 12338 H 1165.74 3.91735 -1.55312 0
M  V30 12339 H 1164.47 3.22404 -0.521824 0
M  V30 12340 H 1163.12 2.61788 -2.56637 0
M  V30 12341 H 1162.77 4.82074 -1.43575 0
M  V30 12342 H 1162.47 4.936 -3.18799 0
M  V30 12343 H 1164 5.56917 -2.50351 0
M  V30 12344 H 1165.41 3.97996 -4.12641 0
M  V30 12345 H 1163.81 3.58538 -4.81218 0
M  V30 12346 H 1164.88 2.27493 -4.28223 0
M  V30 12347 N 1166.22 1.31629 0.866686 0
M  V30 12348 C 1167.64 1.10358 1.15296 0
M  V30 12349 C 1167.84 -0.123807 2.01119 0
M  V30 12350 O 1166.89 -0.81219 2.39081 0
M  V30 12351 C 1168.21 2.37684 1.84193 0
M  V30 12352 C 1169.75 2.43326 1.9688 0
M  V30 12353 C 1170.23 3.70541 2.69191 0
M  V30 12354 N 1171.72 3.71454 2.76724 0
M  V30 12355 C 1172.45 4.66585 3.33295 0
M  V30 12356 N 1171.95 5.72075 3.90771 0
M  V30 12357 N 1173.74 4.541 3.31284 0
M  V30 12358 H 1165.89 2.10343 0.29487 0
M  V30 12359 H 1168.16 0.928096 0.193239 0
M  V30 12360 H 1167.86 3.27352 1.28582 0
M  V30 12361 H 1167.74 2.47731 2.84445 0
M  V30 12362 H 1170.12 1.54124 2.51654 0
M  V30 12363 H 1170.21 2.3724 0.956596 0
M  V30 12364 H 1169.85 4.60111 2.15083 0
M  V30 12365 H 1169.78 3.73894 3.70825 0
M  V30 12366 H 1172.27 2.952 2.35936 0
M  V30 12367 H 1172.58 6.40738 4.32058 0
M  V30 12368 H 1170.93 5.75844 3.89138 0
M  V30 12369 H 1174.12 3.70861 2.85622 0
M  V30 12370 H 1174.29 5.28416 3.75074 0
M  V30 12371 N 1167.7 -1.08142 1.14644 0
M  V30 12372 C 1169.12 -1.32656 0.887388 0
M  V30 12373 C 1169.32 -1.95942 -0.470012 0
M  V30 12374 O 1168.37 -2.21417 -1.21371 0
M  V30 12375 C 1169.68 -2.22549 2.02219 0
M  V30 12376 C 1171.23 -2.36021 2.0558 0
M  V30 12377 C 1171.71 -3.29257 3.18361 0
M  V30 12378 N 1173.2 -3.36835 3.17957 0
M  V30 12379 C 1173.93 -4.09017 4.01862 0
M  V30 12380 N 1173.43 -4.83882 4.95812 0
M  V30 12381 N 1175.22 -4.04875 3.89913 0
M  V30 12382 H 1167.37 -0.654457 2.02066 0
M  V30 12383 H 1169.64 -0.350947 0.880648 0
M  V30 12384 H 1169.34 -1.83296 3.00159 0
M  V30 12385 H 1169.22 -3.23027 1.94765 0
M  V30 12386 H 1171.6 -2.74531 1.08245 0
M  V30 12387 H 1171.68 -1.35275 2.17105 0
M  V30 12388 H 1171.33 -2.91468 4.15944 0
M  V30 12389 H 1171.26 -4.29938 3.04074 0
M  V30 12390 H 1173.75 -2.83465 2.49912 0
M  V30 12391 H 1174.06 -5.3643 5.56294 0
M  V30 12392 H 1172.41 -4.82926 4.99808 0
M  V30 12393 H 1175.6 -3.45496 3.15833 0
M  V30 12394 H 1175.77 -4.60866 4.55529 0
M  V30 12395 N 1169.18 -0.941978 -1.26351 0
M  V30 12396 C 1170.59 -0.632522 -1.75659 0
M  V30 12397 C 1170.94 0.852287 -1.76722 0
M  V30 12398 O 1170.06 1.66701 -1.37985 0
M  V30 12399 C 1170.66 -1.14145 -3.18993 0
M  V30 12400 C 1169.22 -0.882391 -3.65911 0
M  V30 12401 C 1168.37 -1.29189 -2.45368 0
M  V30 12402 H 1171.32 -1.12019 -1.12416 0
M  V30 12403 H 1171.34 -0.495639 -3.77258 0
M  V30 12404 H 1170.85 -2.22213 -3.18187 0
M  V30 12405 H 1168.95 0.183873 -3.72146 0
M  V30 12406 H 1169.06 -1.50996 -4.54683 0
M  V30 12407 H 1167.43 -0.710316 -2.44595 0
M  V30 12408 H 1168.21 -2.38152 -2.47262 0
M  V30 12409 N 1170.66 1.40747 -0.709091 0
M  V30 12410 C 1171.9 2.013 -0.246174 0
M  V30 12411 C 1172.23 1.56078 1.15556 0
M  V30 12412 O 1171.51 0.777941 1.78265 0
M  V30 12413 C 1171.79 3.58685 -0.318945 0
M  V30 12414 C 1171.65 4.13997 -1.75859 0
M  V30 12415 C 1172.96 4.38981 0.31358 0
M  V30 12416 H 1170.08 0.73137 -0.0909255 0
M  V30 12417 H 1172.73 1.67312 -0.900365 0
M  V30 12418 H 1170.88 3.8777 0.23805 0
M  V30 12419 H 1172.55 3.95735 -2.37047 0
M  V30 12420 H 1170.79 3.6853 -2.28841 0
M  V30 12421 H 1171.46 5.23158 -1.76095 0
M  V30 12422 H 1173.94 4.15789 -0.160939 0
M  V30 12423 H 1172.81 5.48409 0.232184 0
M  V30 12424 H 1173.07 4.19474 1.39621 0
M  V30 12425 N 1172.13 0.454803 1.50895 0
M  V30 12426 C 1173.1 -0.336293 2.26719 0
M  V30 12427 C 1174.1 -0.93464 1.30848 0
M  V30 12428 O 1175.29 -0.80636 1.54413 0
M  V30 12429 C 1172.42 -1.47744 3.07221 0
M  V30 12430 H 1173.61 0.328462 2.98096 0
M  V30 12431 H 1171.16 0.208419 1.54904 0
M  V30 12432 H 1171.9 -2.17773 2.40302 0
M  V30 12433 H 1171.68 -1.05438 3.77658 0
M  V30 12434 H 1173.17 -2.03592 3.6461 0
M  V30 12435 N 1173.61 -1.56489 0.186789 0
M  V30 12436 C 1174.54 -2.21705 -0.732739 0
M  V30 12437 C 1175.52 -1.17751 -1.22755 0
M  V30 12438 O 1176.71 -1.46231 -1.27789 0
M  V30 12439 C 1173.84 -2.86992 -1.95584 0
M  V30 12440 C 1172.79 -3.97118 -1.59628 0
M  V30 12441 C 1172.12 -4.49529 -2.89531 0
M  V30 12442 C 1173.42 -5.15941 -0.812518 0
M  V30 12443 H 1175.11 -2.98802 -0.189094 0
M  V30 12444 H 1172.66 -1.43722 -0.0895099 0
M  V30 12445 H 1174.61 -3.31295 -2.60426 0
M  V30 12446 H 1173.33 -2.07287 -2.52388 0
M  V30 12447 H 1171.99 -3.53494 -0.971475 0
M  V30 12448 H 1171.64 -3.66596 -3.44407 0
M  V30 12449 H 1171.34 -5.23832 -2.66221 0
M  V30 12450 H 1172.87 -4.96528 -3.55376 0
M  V30 12451 H 1174.28 -5.56841 -1.36386 0
M  V30 12452 H 1172.68 -5.96259 -0.677862 0
M  V30 12453 H 1173.75 -4.84535 0.188095 0
M  V30 12454 N 1175.09 0.086862 -1.5736 0
M  V30 12455 C 1176.02 1.13117 -1.99342 0
M  V30 12456 C 1177.03 1.35849 -0.897151 0
M  V30 12457 O 1178.22 1.34356 -1.17519 0
M  V30 12458 C 1175.32 2.48511 -2.30425 0
M  V30 12459 C 1174.5 2.45942 -3.61706 0
M  V30 12460 C 1173.56 3.63327 -3.80631 0
M  V30 12461 O 1172.58 3.45443 -4.52392 0
M  V30 12462 N 1173.78 4.83118 -3.21835 0
M  V30 12463 H 1176.55 0.773782 -2.89539 0
M  V30 12464 H 1174.11 0.275731 -1.59535 0
M  V30 12465 H 1176.1 3.25656 -2.40272 0
M  V30 12466 H 1174.67 2.76308 -1.46194 0
M  V30 12467 H 1173.89 1.54287 -3.62752 0
M  V30 12468 H 1175.18 2.41313 -4.47935 0
M  V30 12469 H 1174.58 5.00552 -2.6356 0
M  V30 12470 H 1173.13 5.57827 -3.37154 0
M  V30 12471 N 1176.57 1.53483 0.357892 0
M  V30 12472 C 1177.5 1.83444 1.44466 0
M  V30 12473 C 1178.48 0.688486 1.55544 0
M  V30 12474 O 1179.66 0.93906 1.69986 0
M  V30 12475 C 1176.79 2.03122 2.81707 0
M  V30 12476 C 1175.75 3.1891 2.85448 0
M  V30 12477 C 1175.07 3.23895 4.25436 0
M  V30 12478 C 1176.37 4.57334 2.52275 0
M  V30 12479 H 1178.07 2.74456 1.19642 0
M  V30 12480 H 1175.61 1.3206 0.574112 0
M  V30 12481 H 1177.57 2.22666 3.57768 0
M  V30 12482 H 1176.29 1.08827 3.07935 0
M  V30 12483 H 1174.95 2.99199 2.11838 0
M  V30 12484 H 1174.6 2.27223 4.48753 0
M  V30 12485 H 1174.3 4.01694 4.28854 0
M  V30 12486 H 1175.82 3.45632 5.0336 0
M  V30 12487 H 1177.24 4.76988 3.1805 0
M  V30 12488 H 1175.63 5.37431 2.66998 0
M  V30 12489 H 1176.7 4.61921 1.47501 0
M  V30 12490 N 1178.05 -0.61812 1.44973 0
M  V30 12491 C 1179.32 -1.37705 1.38913 0
M  V30 12492 C 1179.7 -2.1103 0.054385 0
M  V30 12493 O 1179.05 -2.07197 -0.963409 0
M  V30 12494 C 1179.26 -2.33265 2.59593 0
M  V30 12495 C 1180.61 -2.96197 3.04224 0
M  V30 12496 O 1181.63 -2.43589 2.59891 0
M  V30 12497 O 1180.49 -3.91666 3.8113 0
M  V30 12498 H 1177.59 -0.61694 0.55074 0
M  V30 12499 H 1180.13 -0.642088 1.57084 0
M  V30 12500 H 1178.9 -1.78271 3.48332 0
M  V30 12501 H 1178.53 -3.14158 2.43702 0
M  V30 12502 N 1179.52 -1.32087 -0.859693 0
M  V30 12503 C 1180.75 -1.25167 -1.64368 0
M  V30 12504 C 1181.16 0.183572 -1.88307 0
M  V30 12505 O 1180.5 1.12945 -1.44876 0
M  V30 12506 C 1180.57 -1.93641 -3.02892 0
M  V30 12507 C 1180.23 -3.4298 -3.02017 0
M  V30 12508 C 1181.23 -4.38551 -2.79229 0
M  V30 12509 C 1178.91 -3.84835 -3.22812 0
M  V30 12510 C 1180.91 -5.73952 -2.77232 0
M  V30 12511 C 1178.59 -5.20346 -3.20442 0
M  V30 12512 C 1179.59 -6.14716 -2.97681 0
M  V30 12513 O 1179.28 -7.47748 -2.95175 0
M  V30 12514 H 1179.01 -0.433327 -0.518848 0
M  V30 12515 H 1181.57 -1.7468 -1.08055 0
M  V30 12516 H 1179.8 -1.3869 -3.60974 0
M  V30 12517 H 1181.48 -1.80497 -3.63559 0
M  V30 12518 H 1182.25 -4.07542 -2.62935 0
M  V30 12519 H 1178.13 -3.11806 -3.39555 0
M  V30 12520 H 1181.67 -6.47584 -2.59385 0
M  V30 12521 H 1177.57 -5.50987 -3.36279 0
M  V30 12522 H 1178.34 -7.57046 -3.11165 0
M  V30 12523 N 1181 1.07532 -1.15215 0
M  V30 12524 C 1181.95 2.16785 -0.843022 0
M  V30 12525 C 1182.94 1.68411 0.182802 0
M  V30 12526 O 1184.15 1.7996 0.0380164 0
M  V30 12527 H 1180.52 0.707465 -0.254945 0
M  V30 12528 H 1182.5 2.40078 -1.77215 0
M  V30 12529 C 1181.24 3.45967 -0.346699 0
M  V30 12530 H 1180.57 3.83574 -1.12744 0
M  V30 12531 H 1182.01 4.23663 -0.169039 0
M  V30 12532 C 1180.47 3.23768 0.931437 0
M  V30 12533 O 1181 3.48179 2.00336 0
M  V30 12534 N 1179.2 2.77264 0.870217 0
M  V30 12535 H 1178.75 2.576 -0.00226223 0
M  V30 12536 H 1178.71 2.6279 1.72594 0
M  V30 12537 N 1182.48 0.948665 1.2585 0
M  V30 12538 C 1183.71 0.616741 1.98018 0
M  V30 12539 C 1184.13 -0.803005 1.70098 0
M  V30 12540 O 1183.49 -1.54208 0.953392 0
M  V30 12541 C 1183.54 0.874429 3.49837 0
M  V30 12542 O 1182.64 -0.0497568 4.1237 0
M  V30 12543 H 1181.98 0.235112 0.620982 0
M  V30 12544 H 1184.51 1.27364 1.60124 0
M  V30 12545 H 1184.52 0.798309 4.00114 0
M  V30 12546 H 1183.2 1.90922 3.69488 0
M  V30 12547 H 1181.77 0.0780591 3.72818 0
M  V30 12548 N 1183.96 -1.40369 0.716545 0
M  V30 12549 C 1185.2 -2.01167 0.256846 0
M  V30 12550 C 1185.54 -1.56689 -1.14727 0
M  V30 12551 O 1184.81 -0.787384 -1.7785 0
M  V30 12552 C 1185.1 -3.58511 0.337963 0
M  V30 12553 C 1184.95 -4.13059 1.78052 0
M  V30 12554 C 1186.27 -4.39142 -0.290295 0
M  V30 12555 H 1183.39 -0.730877 0.0948028 0
M  V30 12556 H 1186.03 -1.66833 0.909225 0
M  V30 12557 H 1184.18 -3.87891 -0.217482 0
M  V30 12558 H 1185.85 -3.94472 2.39143 0
M  V30 12559 H 1184.09 -3.67311 2.30793 0
M  V30 12560 H 1184.76 -5.22217 1.78867 0
M  V30 12561 H 1187.24 -4.15697 0.182987 0
M  V30 12562 H 1186.12 -5.48524 -0.203097 0
M  V30 12563 H 1186.38 -4.20209 -1.37394 0
M  V30 12564 N 1185.44 -0.462799 -1.50652 0
M  V30 12565 C 1186.68 0.0948568 -2.01877 0
M  V30 12566 C 1187.01 1.4096 -1.34741 0
M  V30 12567 O 1186.28 1.89671 -0.49006 0
M  V30 12568 H 1184.86 0.0380453 -0.746031 0
M  V30 12569 H 1187.52 -0.611327 -1.85064 0
M  V30 12570 H 1186.61 0.252378 -3.11078 0
M  V30 12571 N 1186.91 1.56388 -0.195085 0
M  V30 12572 C 1188.19 1.89329 0.491303 0
M  V30 12573 C 1188.57 1.10861 1.79647 0
M  V30 12574 O 1187.92 0.209696 2.27536 0
M  V30 12575 C 1188.13 3.417 0.710096 0
M  V30 12576 C 1189.48 4.11931 1.02947 0
M  V30 12577 O 1190.5 3.4715 0.797817 0
M  V30 12578 O 1189.36 5.26423 1.46767 0
M  V30 12579 H 1186.45 0.786335 0.256137 0
M  V30 12580 H 1189 1.68061 -0.235298 0
M  V30 12581 H 1187.77 3.90727 -0.211604 0
M  V30 12582 H 1187.4 3.6866 1.48916 0
M  V30 12583 N 1188.39 -0.0785156 1.57404 0
M  V30 12584 C 1189.64 -0.777722 1.86103 0
M  V30 12585 C 1189.95 -1.79079 0.786771 0
M  V30 12586 O 1191.16 -2.53908 0.961393 0
M  V30 12587 C 1189.62 -1.43407 3.30095 0
M  V30 12588 C 1189.22 -0.459912 4.45633 0
M  V30 12589 C 1190.97 -2.11603 3.68 0
M  V30 12590 C 1188.88 -1.12179 5.80663 0
M  V30 12591 H 1187.81 -0.294205 0.694233 0
M  V30 12592 H 1190.46 -0.0309003 1.83474 0
M  V30 12593 H 1188.84 -2.22892 3.27315 0
M  V30 12594 H 1190.01 0.304642 4.59792 0
M  V30 12595 H 1188.33 0.117242 4.16235 0
M  V30 12596 H 1190.92 -2.61887 4.66175 0
M  V30 12597 H 1191.27 -2.91244 2.9746 0
M  V30 12598 H 1191.8 -1.38958 3.72741 0
M  V30 12599 H 1188.54 -0.365842 6.54478 0
M  V30 12600 H 1188.06 -1.85737 5.70317 0
M  V30 12601 H 1189.74 -1.64355 6.25777 0
M  V30 12602 N 1189.87 -1.5367 -0.349747 0
M  V30 12603 C 1191.12 -1.70281 -1.08853 0
M  V30 12604 C 1191.44 -0.465438 -1.89364 0
M  V30 12605 O 1190.71 0.520615 -1.88856 0
M  V30 12606 H 1189.29 -0.627775 -0.404854 0
M  V30 12607 H 1191.95 -1.90906 -0.392523 0
M  V30 12608 H 1191.05 -2.57096 -1.76941 0
M  V30 12609 N 1191.35 0.610423 -1.45298 0
M  V30 12610 C 1192.59 1.37154 -1.49388 0
M  V30 12611 C 1192.93 1.93737 -0.134025 0
M  V30 12612 O 1192.2 1.74888 0.851138 0
M  V30 12613 C 1192.49 2.52155 -2.5708 0
M  V30 12614 C 1192.34 2.00786 -4.02498 0
M  V30 12615 C 1193.66 3.54294 -2.61082 0
M  V30 12616 H 1190.78 0.497346 -0.54389 0
M  V30 12617 H 1193.42 0.688358 -1.77092 0
M  V30 12618 H 1191.57 3.10434 -2.33587 0
M  V30 12619 H 1193.24 1.47178 -4.37191 0
M  V30 12620 H 1191.48 1.31809 -4.1329 0
M  V30 12621 H 1192.15 2.83674 -4.73533 0
M  V30 12622 H 1194.63 3.05851 -2.82125 0
M  V30 12623 H 1193.51 4.32254 -3.38301 0
M  V30 12624 H 1193.77 4.09726 -1.66063 0
M  V30 12625 N 1192.83 1.32541 0.852676 0
M  V30 12626 C 1193.74 1.23646 1.99371 0
M  V30 12627 C 1194.75 0.149673 1.73355 0
M  V30 12628 O 1195.93 0.370716 1.97959 0
M  V30 12629 C 1192.99 0.961873 3.3309 0
M  V30 12630 C 1192.05 2.1373 3.72315 0
M  V30 12631 C 1191.29 1.87572 4.99652 0
M  V30 12632 O 1191.51 0.819247 5.64486 0
M  V30 12633 O 1190.44 2.73732 5.36054 0
M  V30 12634 H 1194.27 2.19573 2.09813 0
M  V30 12635 H 1191.86 1.12451 0.983627 0
M  V30 12636 H 1193.74 0.825316 4.13239 0
M  V30 12637 H 1192.41 0.0327745 3.23683 0
M  V30 12638 H 1191.32 2.32933 2.92733 0
M  V30 12639 H 1192.65 3.04925 3.86369 0
M  V30 12640 N 1194.3 -1.0692 1.15784 0
M  V30 12641 C 1195.24 -2.14168 0.816375 0
M  V30 12642 C 1196.25 -1.61872 -0.17357 0
M  V30 12643 O 1197.44 -1.78429 0.0502973 0
M  V30 12644 C 1194.54 -3.38346 0.193682 0
M  V30 12645 C 1193.71 -4.19979 1.22215 0
M  V30 12646 C 1192.77 -5.2253 0.620424 0
M  V30 12647 O 1191.8 -5.54446 1.28757 0
M  V30 12648 N 1193 -5.77434 -0.595811 0
M  V30 12649 H 1195.76 -2.44062 1.73937 0
M  V30 12650 H 1193.32 -1.22865 1.05431 0
M  V30 12651 H 1195.32 -4.04092 -0.22174 0
M  V30 12652 H 1193.89 -3.06129 -0.632735 0
M  V30 12653 H 1193.11 -3.49984 1.81397 0
M  V30 12654 H 1194.39 -4.71329 1.91641 0
M  V30 12655 H 1193.79 -5.5376 -1.15611 0
M  V30 12656 H 1192.35 -6.44788 -0.953529 0
M  V30 12657 N 1195.78 -0.955326 -1.25345 0
M  V30 12658 C 1196.71 -0.494145 -2.28211 0
M  V30 12659 C 1197.69 0.459875 -1.63766 0
M  V30 12660 O 1198.88 0.358679 -1.90859 0
M  V30 12661 C 1196.01 0.228228 -3.46549 0
M  V30 12662 C 1194.96 -0.640601 -4.23179 0
M  V30 12663 C 1194.29 0.212553 -5.34277 0
M  V30 12664 C 1195.59 -1.91906 -4.85767 0
M  V30 12665 H 1197.28 -1.35391 -2.67039 0
M  V30 12666 H 1194.83 -0.652462 -1.2837 0
M  V30 12667 H 1196.78 0.561995 -4.17636 0
M  V30 12668 H 1195.51 1.12224 -3.06714 0
M  V30 12669 H 1194.16 -0.957462 -3.53876 0
M  V30 12670 H 1193.81 1.10634 -4.90682 0
M  V30 12671 H 1193.51 -0.365473 -5.86462 0
M  V30 12672 H 1195.04 0.541271 -6.08196 0
M  V30 12673 H 1196.45 -1.65165 -5.48993 0
M  V30 12674 H 1194.85 -2.44279 -5.48131 0
M  V30 12675 H 1195.92 -2.62173 -4.07914 0
M  V30 12676 N 1197.26 1.39987 -0.723979 0
M  V30 12677 C 1198.19 2.3332 -0.0917282 0
M  V30 12678 C 1199.17 1.53335 0.736361 0
M  V30 12679 O 1200.36 1.81771 0.683582 0
M  V30 12680 C 1197.49 3.3737 0.824549 0
M  V30 12681 C 1196.44 4.2788 0.101452 0
M  V30 12682 C 1195.77 5.22536 1.13401 0
M  V30 12683 C 1197.07 5.11649 -1.04939 0
M  V30 12684 H 1198.76 2.86441 -0.871318 0
M  V30 12685 H 1196.31 1.37725 -0.420448 0
M  V30 12686 H 1198.26 4.01607 1.27631 0
M  V30 12687 H 1196.98 2.82663 1.63613 0
M  V30 12688 H 1195.64 3.65107 -0.330569 0
M  V30 12689 H 1195.29 4.64131 1.93886 0
M  V30 12690 H 1194.99 5.83938 0.65502 0
M  V30 12691 H 1196.52 5.89651 1.58569 0
M  V30 12692 H 1197.93 5.69293 -0.6766 0
M  V30 12693 H 1196.33 5.82137 -1.45729 0
M  V30 12694 H 1197.4 4.47132 -1.8762 0
M  V30 12695 N 1198.74 0.470782 1.50404 0
M  V30 12696 C 1200.15 0.0155901 1.86693 0
M  V30 12697 C 1200.5 -1.38908 1.38561 0
M  V30 12698 O 1199.63 -2.02971 0.750454 0
M  V30 12699 C 1200.22 0.0215152 3.38793 0
M  V30 12700 C 1198.78 -0.378206 3.74495 0
M  V30 12701 C 1197.93 0.407126 2.74295 0
M  V30 12702 H 1200.88 0.68507 1.43152 0
M  V30 12703 H 1200.9 -0.780717 3.72404 0
M  V30 12704 H 1200.41 1.04397 3.73795 0
M  V30 12705 H 1198.51 -1.40503 3.45094 0
M  V30 12706 H 1198.63 -0.0797643 4.79034 0
M  V30 12707 H 1196.99 -0.139123 2.5432 0
M  V30 12708 H 1197.77 1.42909 3.12141 0
M  V30 12709 N 1200.22 -1.56282 0.203376 0
M  V30 12710 C 1201.46 -1.99712 -0.43527 0
M  V30 12711 C 1201.82 -1.0876 -1.58225 0
M  V30 12712 O 1203.02 -1.4146 -2.28566 0
M  V30 12713 C 1201.29 -3.46501 -0.875885 0
M  V30 12714 S 1202.85 -4.11957 -1.5112 0
M  V30 12715 H 1199.67 -0.697305 -0.138879 0
M  V30 12716 H 1202.27 -1.93052 0.308392 0
M  V30 12717 H 1200.98 -4.10388 -0.0311623 0
M  V30 12718 H 1200.51 -3.56996 -1.65281 0
M  V30 12719 H 1202.52 -4.09645 -2.80009 0
M  V30 12720 N 1201.7 0.070167 -1.57444 0
M  V30 12721 C 1202.63 1.08351 -2.06839 0
M  V30 12722 C 1203.61 1.40269 -0.962224 0
M  V30 12723 O 1204.79 1.49867 -1.23505 0
M  V30 12724 C 1201.92 2.39649 -2.51368 0
M  V30 12725 C 1200.88 2.22079 -3.65875 0
M  V30 12726 C 1200.2 3.58776 -3.96464 0
M  V30 12727 C 1201.5 1.64069 -4.95862 0
M  V30 12728 H 1203.2 0.672465 -2.9175 0
M  V30 12729 H 1200.74 0.322027 -1.40353 0
M  V30 12730 H 1202.69 3.10833 -2.84537 0
M  V30 12731 H 1201.42 2.82736 -1.63487 0
M  V30 12732 H 1200.08 1.53337 -3.32992 0
M  V30 12733 H 1199.73 3.99436 -3.05712 0
M  V30 12734 H 1199.43 3.47859 -4.7357 0
M  V30 12735 H 1200.95 4.31387 -4.32131 0
M  V30 12736 H 1202.36 2.2512 -5.27251 0
M  V30 12737 H 1200.76 1.63843 -5.773 0
M  V30 12738 H 1201.83 0.60232 -4.81145 0
M  V30 12739 N 1203.17 1.53854 0.341593 0
M  V30 12740 C 1204.42 1.70856 1.07948 0
M  V30 12741 C 1204.74 0.475474 1.89114 0
M  V30 12742 O 1204.01 -0.510592 1.89129 0
M  V30 12743 H 1202.59 0.629914 0.401519 0
M  V30 12744 H 1205.25 1.91112 0.382393 0
M  V30 12745 H 1204.35 2.5803 1.75575 0
M  V30 12746 N 1204.65 -0.602709 1.4562 0
M  V30 12747 C 1205.9 -1.36359 1.50113 0
M  V30 12748 C 1206.23 -1.93663 0.144297 0
M  V30 12749 O 1205.51 -1.75337 -0.841851 0
M  V30 12750 C 1205.79 -2.50788 2.58413 0
M  V30 12751 C 1205.64 -1.98649 4.03557 0
M  V30 12752 C 1206.96 -3.52905 2.62957 0
M  V30 12753 H 1204.08 -0.494455 0.54652 0
M  V30 12754 H 1206.72 -0.678957 1.77455 0
M  V30 12755 H 1204.87 -3.09191 2.3523 0
M  V30 12756 H 1206.54 -1.44857 4.37966 0
M  V30 12757 H 1204.79 -1.29615 4.13984 0
M  V30 12758 H 1205.46 -2.81159 4.7503 0
M  V30 12759 H 1207.93 -3.0435 2.83743 0
M  V30 12760 H 1206.81 -4.30454 3.40589 0
M  V30 12761 H 1207.07 -4.0884 1.68233 0
M  V30 12762 N 1206.13 -1.32992 -0.845635 0
M  V30 12763 C 1207.37 -1.2539 -1.61421 0
M  V30 12764 C 1207.73 0.179395 -1.9116 0
M  V30 12765 O 1208.93 0.379275 -2.66111 0
M  V30 12766 C 1207.21 -2.09817 -2.8933 0
M  V30 12767 S 1208.76 -2.19335 -3.80049 0
M  V30 12768 H 1205.58 -0.446202 -0.553556 0
M  V30 12769 H 1208.18 -1.67946 -1.00072 0
M  V30 12770 H 1206.89 -3.12999 -2.65443 0
M  V30 12771 H 1206.42 -1.68073 -3.5569 0
M  V30 12772 H 1208.43 -1.34946 -4.77498 0
M  V30 12773 N 1207.61 1.06304 -1.1635 0
M  V30 12774 C 1208.55 2.13776 -0.869965 0
M  V30 12775 C 1209.52 1.65105 0.181541 0
M  V30 12776 O 1210.71 1.90743 0.0467705 0
M  V30 12777 C 1207.85 3.43034 -0.377077 0
M  V30 12778 C 1206.96 4.0544 -1.4914 0
M  V30 12779 C 1206.1 5.22572 -0.953538 0
M  V30 12780 C 1205.14 5.76961 -2.04407 0
M  V30 12781 N 1204.27 6.85409 -1.52181 0
M  V30 12782 H 1209.11 2.38224 -1.79034 0
M  V30 12783 H 1206.65 1.16882 -0.893136 0
M  V30 12784 H 1208.61 4.17136 -0.0729426 0
M  V30 12785 H 1207.24 3.18804 0.506359 0
M  V30 12786 H 1206.29 3.28886 -1.9115 0
M  V30 12787 H 1207.6 4.41859 -2.31434 0
M  V30 12788 H 1206.76 6.037 -0.602579 0
M  V30 12789 H 1205.5 4.87598 -0.099897 0
M  V30 12790 H 1204.5 4.9447 -2.40373 0
M  V30 12791 H 1205.73 6.13987 -2.90167 0
M  V30 12792 H 1203.67 6.52354 -0.690697 0
M  V30 12793 H 1203.59 7.2077 -2.28092 0
M  V30 12794 H 1204.86 7.70217 -1.19942 0
M  V30 12795 N 1209.09 0.96196 1.24836 0
M  V30 12796 C 1210.05 0.492443 2.23847 0
M  V30 12797 C 1211.05 -0.40788 1.55541 0
M  V30 12798 O 1212.24 -0.204143 1.73 0
M  V30 12799 C 1209.37 -0.287578 3.39685 0
M  V30 12800 H 1210.56 1.36767 2.66899 0
M  V30 12801 H 1208.12 0.745967 1.3735 0
M  V30 12802 H 1208.85 -1.18015 3.02064 0
M  V30 12803 H 1208.64 0.358431 3.90458 0
M  V30 12804 H 1210.13 -0.605297 4.1319 0
M  V30 12805 N 1210.56 -1.39601 0.731392 0
M  V30 12806 C 1211.49 -2.33268 0.1041 0
M  V30 12807 C 1212.47 -1.53724 -0.728219 0
M  V30 12808 O 1213.66 -1.82131 -0.673933 0
M  V30 12809 C 1210.79 -3.37802 -0.806646 0
M  V30 12810 C 1209.74 -4.27928 -0.0787588 0
M  V30 12811 C 1209.07 -5.23131 -1.10628 0
M  V30 12812 C 1210.37 -5.11086 1.07651 0
M  V30 12813 H 1212.06 -2.85975 0.886496 0
M  V30 12814 H 1209.61 -1.375 0.427746 0
M  V30 12815 H 1211.56 -4.02278 -1.25499 0
M  V30 12816 H 1210.29 -2.83527 -1.62112 0
M  V30 12817 H 1208.95 -3.64926 0.349926 0
M  V30 12818 H 1208.59 -4.65152 -1.91422 0
M  V30 12819 H 1208.29 -5.84277 -0.624043 0
M  V30 12820 H 1209.82 -5.90483 -1.5544 0
M  V30 12821 H 1211.23 -5.68927 0.706781 0
M  V30 12822 H 1209.63 -5.81356 1.48814 0
M  V30 12823 H 1210.7 -4.46131 1.89988 0
M  V30 12824 N 1212.04 -0.478751 -1.50152 0
M  V30 12825 C 1213.27 0.0709455 -2.06478 0
M  V30 12826 C 1213.68 1.33376 -1.34192 0
M  V30 12827 O 1213.02 1.79133 -0.40707 0
M  V30 12828 C 1213.09 0.417322 -3.5707 0
M  V30 12829 C 1212.75 -0.744563 -4.50894 0
M  V30 12830 C 1213.75 -1.62879 -4.93727 0
M  V30 12831 C 1211.43 -0.937062 -4.93482 0
M  V30 12832 C 1213.43 -2.68985 -5.77863 0
M  V30 12833 C 1211.11 -2.00134 -5.77399 0
M  V30 12834 C 1212.11 -2.87609 -6.19492 0
M  V30 12835 O 1211.8 -3.92203 -7.01735 0
M  V30 12836 H 1211.53 -0.00720177 -0.675962 0
M  V30 12837 H 1214.08 -0.668797 -1.94207 0
M  V30 12838 H 1212.31 1.21036 -3.6727 0
M  V30 12839 H 1214 0.903002 -3.95728 0
M  V30 12840 H 1214.77 -1.49179 -4.61488 0
M  V30 12841 H 1210.65 -0.265636 -4.60234 0
M  V30 12842 H 1214.19 -3.37293 -6.10639 0
M  V30 12843 H 1210.09 -2.13837 -6.09052 0
M  V30 12844 H 1210.86 -3.89284 -7.2 0
M  V30 12845 N 1213.52 1.56172 -0.211661 0
M  V30 12846 C 1214.45 2.22843 0.697375 0
M  V30 12847 C 1215.43 1.19689 1.20866 0
M  V30 12848 O 1216.62 1.48245 1.25447 0
M  V30 12849 C 1213.75 2.90067 1.90993 0
M  V30 12850 C 1212.7 3.99608 1.5329 0
M  V30 12851 C 1212.03 4.54078 2.82343 0
M  V30 12852 C 1213.33 5.17169 0.730333 0
M  V30 12853 H 1215.02 2.99065 0.141533 0
M  V30 12854 H 1212.57 1.43846 0.0666337 0
M  V30 12855 H 1214.52 3.35396 2.55123 0
M  V30 12856 H 1213.24 2.11276 2.49058 0
M  V30 12857 H 1211.9 3.54995 0.915115 0
M  V30 12858 H 1211.55 3.72029 3.38531 0
M  V30 12859 H 1211.25 5.28001 2.57853 0
M  V30 12860 H 1212.77 5.02119 3.47432 0
M  V30 12861 H 1214.19 5.5894 1.2751 0
M  V30 12862 H 1212.59 5.97262 0.582916 0
M  V30 12863 H 1213.66 4.84174 -0.265157 0
M  V30 12864 N 1215 -0.0618163 1.57479 0
M  V30 12865 C 1216.41 -0.416827 1.54061 0
M  V30 12866 C 1216.61 -1.78584 0.933277 0
M  V30 12867 O 1215.67 -2.46656 0.54009 0
M  V30 12868 C 1216.98 -0.348728 2.98671 0
M  V30 12869 C 1218.53 -0.428194 3.10057 0
M  V30 12870 C 1219.01 -0.389898 4.56337 0
M  V30 12871 N 1220.5 -0.449677 4.61012 0
M  V30 12872 C 1221.23 -0.442418 5.71691 0
M  V30 12873 N 1220.73 -0.389381 6.91705 0
M  V30 12874 N 1222.52 -0.489719 5.59963 0
M  V30 12875 H 1214.67 0.834487 1.9532 0
M  V30 12876 H 1216.94 0.314149 0.894435 0
M  V30 12877 H 1216.64 0.590738 3.46703 0
M  V30 12878 H 1216.52 -1.15511 3.59078 0
M  V30 12879 H 1218.9 -1.35808 2.61992 0
M  V30 12880 H 1218.98 0.406946 2.52542 0
M  V30 12881 H 1218.63 0.536186 5.05062 0
M  V30 12882 H 1218.56 -1.24271 5.11727 0
M  V30 12883 H 1221.05 -0.49451 3.74651 0
M  V30 12884 H 1221.36 -0.388042 7.71825 0
M  V30 12885 H 1219.71 -0.355918 6.94088 0
M  V30 12886 H 1222.9 -0.528915 4.65102 0
M  V30 12887 H 1223.07 -0.480592 6.46215 0
M  V30 12888 N 1216.48 -1.54033 -0.333429 0
M  V30 12889 C 1217.75 -1.62404 -1.09015 0
M  V30 12890 C 1218.13 -0.451653 -2.06212 0
M  V30 12891 O 1217.48 0.555086 -2.21655 0
M  V30 12892 C 1217.69 -2.98949 -1.80085 0
M  V30 12893 C 1219.04 -3.54655 -2.33464 0
M  V30 12894 O 1220.06 -3.0119 -1.90166 0
M  V30 12895 O 1218.92 -4.48195 -3.12703 0
M  V30 12896 H 1216.02 -0.65727 -0.501921 0
M  V30 12897 H 1218.56 -1.66378 -0.33411 0
M  V30 12898 H 1217.33 -3.75716 -1.09332 0
M  V30 12899 H 1216.96 -2.98609 -2.62523 0
M  V30 12900 N 1217.95 0.594978 -1.45938 0
M  V30 12901 C 1218.9 1.726 -1.55923 0
M  V30 12902 C 1219.9 1.63893 -0.428411 0
M  V30 12903 O 1221.1 1.69535 -0.604815 0
M  V30 12904 H 1217.48 0.570447 -0.489994 0
M  V30 12905 H 1219.45 1.61308 -2.51043 0
M  V30 12906 C 1218.2 3.10988 -1.55505 0
M  V30 12907 H 1217.52 3.18353 -2.4185 0
M  V30 12908 H 1218.96 3.8992 -1.66548 0
M  V30 12909 C 1217.42 3.35721 -0.281573 0
M  V30 12910 O 1217.95 3.96676 0.633336 0
M  V30 12911 N 1216.16 2.90083 -0.173314 0
M  V30 12912 H 1215.7 2.4066 -0.91872 0
M  V30 12913 H 1215.66 3.07005 0.677903 0
M  V30 12914 N 1219.43 1.33438 0.838571 0
M  V30 12915 C 1220.38 1.23698 1.96981 0
M  V30 12916 C 1221.37 0.138299 1.68835 0
M  V30 12917 O 1222.58 0.302278 1.77444 0
M  V30 12918 H 1218.96 0.383874 0.646641 0
M  V30 12919 H 1220.93 2.19337 2.02321 0
M  V30 12920 C 1219.68 0.993362 3.33208 0
M  V30 12921 H 1219 1.83104 3.55405 0
M  V30 12922 H 1220.44 0.965517 4.1286 0
M  V30 12923 C 1218.9 -0.303701 3.35528 0
M  V30 12924 O 1219.43 -1.3103 3.79729 0
M  V30 12925 N 1217.63 -0.331342 2.88705 0
M  V30 12926 H 1217.18 0.488351 2.52929 0
M  V30 12927 H 1217.14 -1.199 2.9064 0
M  V30 12928 N 1220.91 -1.05686 1.16912 0
M  V30 12929 C 1222.16 -1.77987 0.948875 0
M  V30 12930 C 1222.47 -1.8845 -0.524011 0
M  V30 12931 O 1223.68 -2.57442 -0.862322 0
M  V30 12932 C 1222.13 -3.19927 1.64848 0
M  V30 12933 C 1221.74 -3.1761 3.15956 0
M  V30 12934 C 1223.49 -3.96719 1.51044 0
M  V30 12935 C 1221.39 -4.54307 3.78628 0
M  V30 12936 H 1220.32 -0.667119 0.35138 0
M  V30 12937 H 1222.97 -1.18496 1.40111 0
M  V30 12938 H 1221.36 -3.79714 1.12397 0
M  V30 12939 H 1222.53 -2.67369 3.75301 0
M  V30 12940 H 1220.85 -2.54317 3.29715 0
M  V30 12941 H 1223.44 -4.97779 1.95243 0
M  V30 12942 H 1223.79 -4.13748 0.460268 0
M  V30 12943 H 1224.32 -3.43468 2.00685 0
M  V30 12944 H 1221.06 -4.42484 4.8362 0
M  V30 12945 H 1220.58 -5.04717 3.24069 0
M  V30 12946 H 1222.26 -5.23255 3.80543 0
M  V30 12947 N 1222.39 -0.968567 -1.24324 0
M  V30 12948 C 1223.61 -0.648166 -1.97012 0
M  V30 12949 C 1224.04 0.775842 -1.71354 0
M  V30 12950 O 1223.4 1.52672 -0.977804 0
M  V30 12951 C 1223.44 -0.929974 -3.48402 0
M  V30 12952 O 1222.55 -0.015854 -4.12397 0
M  V30 12953 H 1221.89 -0.244961 -0.617163 0
M  V30 12954 H 1224.42 -1.29895 -1.58077 0
M  V30 12955 H 1224.43 -0.861863 -3.98793 0
M  V30 12956 H 1223.1 -1.96776 -3.66404 0
M  V30 12957 H 1221.68 -0.137361 -3.72647 0
M  V30 12958 N 1223.87 1.39211 -0.738786 0
M  V30 12959 C 1225.14 1.9442 -0.214533 0
M  V30 12960 C 1225.52 1.67528 1.28443 0
M  V30 12961 O 1224.87 1.0056 2.05183 0
M  V30 12962 C 1225.08 3.44603 -0.552232 0
M  V30 12963 C 1226.43 4.21602 -0.503663 0
M  V30 12964 O 1227.45 3.52819 -0.489647 0
M  V30 12965 O 1226.31 5.44194 -0.50153 0
M  V30 12966 H 1223.41 0.826011 -0.0404247 0
M  V30 12967 H 1225.95 1.48689 -0.817902 0
M  V30 12968 H 1224.72 3.57626 -1.58806 0
M  V30 12969 H 1224.35 3.9752 0.0799096 0
M  V30 12970 N 1225.34 0.486708 1.49896 0
M  V30 12971 C 1226.76 0.141788 1.58969 0
M  V30 12972 C 1226.96 -1.35279 1.49338 0
M  V30 12973 O 1226.02 -2.1275 1.35992 0
M  V30 12974 C 1227.33 0.70588 2.92297 0
M  V30 12975 C 1228.88 0.670704 3.0573 0
M  V30 12976 C 1229.35 1.21261 4.41656 0
M  V30 12977 N 1230.84 1.17269 4.4811 0
M  V30 12978 C 1231.58 1.56233 5.51705 0
M  V30 12979 N 1231.07 2.02721 6.62477 0
M  V30 12980 N 1232.87 1.47738 5.42337 0
M  V30 12981 H 1225.02 1.45858 1.544 0
M  V30 12982 H 1227.28 0.604137 0.730563 0
M  V30 12983 H 1226.99 1.7535 3.04869 0
M  V30 12984 H 1226.86 0.158215 3.76868 0
M  V30 12985 H 1229.25 -0.368041 2.92796 0
M  V30 12986 H 1229.33 1.25535 2.22878 0
M  V30 12987 H 1228.97 2.25006 4.5534 0
M  V30 12988 H 1228.9 0.604031 5.23124 0
M  V30 12989 H 1231.39 0.831905 3.6863 0
M  V30 12990 H 1231.71 2.3056 7.37606 0
M  V30 12991 H 1230.05 2.06686 6.63556 0
M  V30 12992 H 1233.24 1.11249 4.54688 0
M  V30 12993 H 1233.42 1.78429 6.2295 0
M  V30 12994 N 1226.82 -1.56058 0.219941 0
M  V30 12995 C 1228.07 -1.97869 -0.411383 0
M  V30 12996 C 1228.39 -1.10878 -1.60409 0
M  V30 12997 O 1227.66 -0.185454 -1.9502 0
M  V30 12998 H 1226.24 -0.730747 -0.154979 0
M  V30 12999 H 1228.9 -1.92379 0.312461 0
M  V30 13000 H 1228 -3.0323 -0.738798 0
M  V30 13001 N 1228.3 0.053464 -1.57509 0
M  V30 13002 C 1229.55 0.748016 -1.87317 0
M  V30 13003 C 1229.86 1.77805 -0.815161 0
M  V30 13004 O 1231.07 2.52347 -1.00167 0
M  V30 13005 C 1229.53 1.38137 -3.32334 0
M  V30 13006 C 1229.13 0.388958 -4.46308 0
M  V30 13007 C 1230.88 2.05722 -3.7132 0
M  V30 13008 C 1228.78 1.02927 -5.82374 0
M  V30 13009 H 1227.71 0.283123 -0.698826 0
M  V30 13010 H 1230.37 0.00170723 -1.835 0
M  V30 13011 H 1228.75 2.17656 -3.3082 0
M  V30 13012 H 1229.92 -0.377752 -4.59249 0
M  V30 13013 H 1228.24 -0.183447 -4.15996 0
M  V30 13014 H 1230.83 2.54437 -4.70283 0
M  V30 13015 H 1231.18 2.86475 -3.02056 0
M  V30 13016 H 1231.71 1.3301 -3.74904 0
M  V30 13017 H 1228.45 0.261674 -6.54977 0
M  V30 13018 H 1227.97 1.7664 -5.732 0
M  V30 13019 H 1229.65 1.54378 -6.28312 0
M  V30 13020 N 1229.78 1.54207 0.325255 0
M  V30 13021 C 1231.02 1.74055 1.07164 0
M  V30 13022 C 1231.38 0.502722 1.85302 0
M  V30 13023 O 1232.58 0.578525 2.62501 0
M  V30 13024 C 1230.86 2.97994 1.97319 0
M  V30 13025 S 1232.41 3.38737 2.78931 0
M  V30 13026 H 1229.23 0.612059 0.361808 0
M  V30 13027 H 1231.83 1.92381 0.347837 0
M  V30 13028 H 1230.54 3.86235 1.38747 0
M  V30 13029 H 1230.07 2.82187 2.74106 0
M  V30 13030 H 1232.08 2.93904 3.99794 0
M  V30 13031 N 1231.26 -0.58723 1.46251 0
M  V30 13032 C 1232.2 -1.69662 1.56472 0
M  V30 13033 C 1233.17 -1.60978 0.409294 0
M  V30 13034 O 1234.36 -1.80257 0.625451 0
M  V30 13035 C 1231.5 -3.07996 1.55669 0
M  V30 13036 C 1230.61 -3.27337 2.81913 0
M  V30 13037 C 1229.75 -4.55894 2.72644 0
M  V30 13038 C 1228.79 -4.68562 3.93847 0
M  V30 13039 N 1227.92 -5.8844 3.82991 0
M  V30 13040 H 1232.76 -1.60262 2.51237 0
M  V30 13041 H 1230.3 -0.781148 1.24645 0
M  V30 13042 H 1232.26 -3.88058 1.53189 0
M  V30 13043 H 1230.89 -3.16303 0.6444 0
M  V30 13044 H 1229.94 -2.4091 2.94392 0
M  V30 13045 H 1231.25 -3.32567 3.71754 0
M  V30 13046 H 1230.41 -5.44178 2.68244 0
M  V30 13047 H 1229.15 -4.53094 1.80435 0
M  V30 13048 H 1228.15 -3.78696 3.98584 0
M  V30 13049 H 1229.38 -4.73144 4.87146 0
M  V30 13050 H 1227.32 -5.86647 2.93566 0
M  V30 13051 H 1227.24 -5.94919 4.66484 0
M  V30 13052 H 1228.51 -6.79168 3.82559 0
M  V30 13053 N 1232.74 -1.33881 -0.831482 0
M  V30 13054 C 1233.67 -1.27384 -1.95693 0
M  V30 13055 C 1234.65 -0.152943 -1.69411 0
M  V30 13056 O 1235.83 -0.34392 -1.9113 0
M  V30 13057 C 1232.96 -1.01982 -3.31989 0
M  V30 13058 C 1231.92 -2.10445 -3.72689 0
M  V30 13059 C 1231.24 -1.70245 -5.06873 0
M  V30 13060 C 1232.54 -3.52194 -3.8569 0
M  V30 13061 H 1234.24 -2.21549 -2.01386 0
M  V30 13062 H 1231.78 -1.06653 -0.967526 0
M  V30 13063 H 1233.73 -0.960841 -4.103 0
M  V30 13064 H 1232.46 -0.0425709 -3.26572 0
M  V30 13065 H 1231.12 -2.15398 -2.96647 0
M  V30 13066 H 1230.77 -0.712036 -4.97935 0
M  V30 13067 H 1230.47 -2.42834 -5.35075 0
M  V30 13068 H 1231.99 -1.65827 -5.87651 0
M  V30 13069 H 1233.4 -3.49701 -4.54293 0
M  V30 13070 H 1231.8 -4.23331 -4.25336 0
M  V30 13071 H 1232.87 -3.9016 -2.87929 0
M  V30 13072 N 1234.21 1.05064 -1.1747 0
M  V30 13073 C 1235.46 1.77481 -0.958301 0
M  V30 13074 C 1235.78 1.88725 0.51401 0
M  V30 13075 O 1236.98 2.57895 0.848657 0
M  V30 13076 C 1235.44 3.19048 -1.66543 0
M  V30 13077 C 1235.05 3.1593 -3.17636 0
M  V30 13078 C 1236.79 3.95912 -1.53146 0
M  V30 13079 C 1234.7 4.52293 -3.81032 0
M  V30 13080 H 1233.63 0.665247 -0.354913 0
M  V30 13081 H 1236.28 1.17751 -1.40737 0
M  V30 13082 H 1234.66 3.79113 -1.1441 0
M  V30 13083 H 1235.83 2.65375 -3.76713 0
M  V30 13084 H 1234.15 2.52564 -3.31059 0
M  V30 13085 H 1236.75 4.96737 -1.9788 0
M  V30 13086 H 1237.09 4.13498 -0.482203 0
M  V30 13087 H 1237.62 3.42399 -2.02504 0
M  V30 13088 H 1234.36 4.39913 -4.8596 0
M  V30 13089 H 1233.88 5.02991 -3.26741 0
M  V30 13090 H 1235.56 5.2123 -3.83312 0
M  V30 13091 N 1235.69 0.975146 1.23809 0
M  V30 13092 C 1236.6 0.51917 2.28783 0
M  V30 13093 C 1237.62 -0.423487 1.68768 0
M  V30 13094 O 1238.79 -0.294699 1.99232 0
M  V30 13095 C 1235.86 -0.176229 3.46252 0
M  V30 13096 C 1234.92 0.807177 4.21643 0
M  V30 13097 C 1234.15 0.144869 5.33503 0
M  V30 13098 O 1234.38 -1.06522 5.60365 0
M  V30 13099 O 1233.31 0.84079 5.95999 0
M  V30 13100 H 1237.14 1.39204 2.69919 0
M  V30 13101 H 1234.72 0.74253 1.29641 0
M  V30 13102 H 1236.6 -0.566547 4.17574 0
M  V30 13103 H 1235.28 -1.02394 3.07078 0
M  V30 13104 H 1234.18 1.2481 3.52666 0
M  V30 13105 H 1235.52 1.62354 4.64653 0
M  V30 13106 N 1237.17 -1.38817 0.746158 0
M  V30 13107 C 1238.41 -2.02129 0.303843 0
M  V30 13108 C 1238.77 -1.57943 -1.0917 0
M  V30 13109 O 1239.97 -2.13532 -1.63272 0
M  V30 13110 C 1238.25 -3.5499 0.414379 0
M  V30 13111 S 1239.8 -4.38767 0.0535495 0
M  V30 13112 H 1236.62 -0.701084 0.118329 0
M  V30 13113 H 1239.22 -1.69444 0.975137 0
M  V30 13114 H 1237.93 -3.84638 1.43114 0
M  V30 13115 H 1237.46 -3.92442 -0.274355 0
M  V30 13116 H 1239.47 -4.82469 -1.15921 0
M  V30 13117 N 1238.65 -0.49465 -1.49636 0
M  V30 13118 C 1239.61 0.276064 -2.27531 0
M  V30 13119 C 1240.61 0.899619 -1.3328 0
M  V30 13120 O 1241.8 0.765136 -1.56497 0
M  V30 13121 C 1238.93 1.39547 -3.1103 0
M  V30 13122 H 1240.13 -0.407381 -2.9712 0
M  V30 13123 H 1237.68 -0.249416 -1.54297 0
M  V30 13124 H 1238.41 2.11326 -2.45992 0
M  V30 13125 H 1238.2 0.953877 -3.8032 0
M  V30 13126 H 1239.69 1.93853 -3.69879 0
M  V30 13127 N 1240.13 1.55939 -0.228214 0
M  V30 13128 C 1241.06 2.2357 0.6737 0
M  V30 13129 C 1242.04 1.20964 1.1959 0
M  V30 13130 O 1243.22 1.49568 1.23867 0
M  V30 13131 C 1240.35 2.92076 1.87906 0
M  V30 13132 C 1239.31 4.01211 1.49043 0
M  V30 13133 C 1238.63 4.57047 2.77511 0
M  V30 13134 C 1239.93 5.17914 0.67544 0
M  V30 13135 H 1241.63 2.99199 0.109806 0
M  V30 13136 H 1239.17 1.43908 0.0513732 0
M  V30 13137 H 1241.12 3.38083 2.51551 0
M  V30 13138 H 1239.85 2.13906 2.46803 0
M  V30 13139 H 1238.51 3.55945 0.877411 0
M  V30 13140 H 1238.16 3.75599 3.34566 0
M  V30 13141 H 1237.86 5.30707 2.52239 0
M  V30 13142 H 1239.38 5.05776 3.42087 0
M  V30 13143 H 1240.79 5.60261 1.21575 0
M  V30 13144 H 1239.19 5.97847 0.519536 0
M  V30 13145 H 1240.26 4.83866 -0.316495 0
M  V30 13146 N 1241.6 -0.0451101 1.57535 0
M  V30 13147 C 1242.55 -1.05817 2.01958 0
M  V30 13148 C 1243.54 -1.32963 0.906077 0
M  V30 13149 O 1244.73 -1.32816 1.16999 0
M  V30 13150 C 1241.86 -2.36414 2.48924 0
M  V30 13151 C 1240.95 -2.12428 3.67063 0
M  V30 13152 N 1241.34 -1.58448 4.80341 0
M  V30 13153 C 1239.63 -2.42785 3.74128 0
M  V30 13154 C 1240.34 -1.49896 5.62055 0
M  V30 13155 N 1239.31 -1.96892 5.0669 0
M  V30 13156 H 1243.11 -0.634569 2.86968 0
M  V30 13157 H 1240.63 -0.251719 1.60437 0
M  V30 13158 H 1242.62 -3.09781 2.79001 0
M  V30 13159 H 1241.28 -2.79467 1.65313 0
M  V30 13160 H 1242.3 -1.26939 5.02102 0
M  V30 13161 H 1238.97 -2.89022 3.01285 0
M  V30 13162 H 1240.36 -1.08788 6.63035 0
M  V30 13163 N 1243.08 -1.54377 -0.317073 0
M  V30 13164 C 1244.32 -1.74621 -1.06239 0
M  V30 13165 C 1244.69 -0.512542 -1.85032 0
M  V30 13166 O 1245.89 -0.592438 -2.6219 0
M  V30 13167 C 1244.16 -2.99036 -1.95735 0
M  V30 13168 S 1245.72 -3.40212 -2.77131 0
M  V30 13169 H 1242.54 -0.613969 -0.358557 0
M  V30 13170 H 1245.14 -1.92562 -0.33763 0
M  V30 13171 H 1243.84 -3.86965 -1.36697 0
M  V30 13172 H 1243.37 -2.83636 -2.72606 0
M  V30 13173 H 1245.39 -2.9602 -3.98229 0
M  V30 13174 N 1244.56 0.579466 -1.4656 0
M  V30 13175 C 1245.47 1.71609 -1.59961 0
M  V30 13176 C 1246.49 1.67162 -0.483002 0
M  V30 13177 O 1247.66 1.87012 -0.747561 0
M  V30 13178 C 1244.73 3.08114 -1.58954 0
M  V30 13179 C 1243.79 3.238 -2.81872 0
M  V30 13180 C 1243.02 4.53794 -2.80904 0
M  V30 13181 O 1243.24 5.37884 -1.89835 0
M  V30 13182 O 1242.18 4.72796 -3.72488 0
M  V30 13183 H 1246 1.6325 -2.56092 0
M  V30 13184 H 1243.59 0.746891 -1.2939 0
M  V30 13185 H 1245.47 3.8939 -1.611 0
M  V30 13186 H 1244.15 3.16903 -0.65984 0
M  V30 13187 H 1243.05 2.42006 -2.85279 0
M  V30 13188 H 1244.39 3.19904 -3.74062 0
M  V30 13189 N 1246.04 1.3432 0.824371 0
M  V30 13190 C 1246.97 1.21619 1.94271 0
M  V30 13191 C 1247.98 0.143628 1.62165 0
M  V30 13192 O 1249.17 0.395353 1.74067 0
M  V30 13193 C 1246.27 0.846128 3.28167 0
M  V30 13194 C 1245.45 2.01337 3.88307 0
M  V30 13195 C 1244.5 1.62194 5.00579 0
M  V30 13196 O 1243.53 2.33831 5.18953 0
M  V30 13197 N 1244.73 0.535262 5.78027 0
M  V30 13198 H 1247.5 2.17963 2.05699 0
M  V30 13199 H 1245.06 1.27256 1.00088 0
M  V30 13200 H 1247.05 0.566086 4.00721 0
M  V30 13201 H 1245.62 -0.0270764 3.12588 0
M  V30 13202 H 1244.84 2.45823 3.08164 0
M  V30 13203 H 1246.13 2.79404 4.25219 0
M  V30 13204 H 1245.53 -0.0603126 5.65668 0
M  V30 13205 H 1244.08 0.314946 6.51039 0
M  V30 13206 N 1247.52 -1.0444 1.18026 0
M  V30 13207 C 1248.45 -2.14297 0.927314 0
M  V30 13208 C 1249.43 -1.69575 -0.13357 0
M  V30 13209 O 1250.61 -1.94191 0.0182439 0
M  V30 13210 C 1247.74 -3.44397 0.448134 0
M  V30 13211 C 1246.7 -4.02723 1.44907 0
M  V30 13212 C 1246.02 -5.28257 0.827555 0
M  V30 13213 C 1247.32 -4.39331 2.82463 0
M  V30 13214 H 1249.02 -2.35715 1.84605 0
M  V30 13215 H 1246.56 -1.13281 0.889012 0
M  V30 13216 H 1248.52 -4.20606 0.258554 0
M  V30 13217 H 1247.24 -3.22654 -0.506159 0
M  V30 13218 H 1245.9 -3.28591 1.62552 0
M  V30 13219 H 1245.55 -5.02822 -0.13381 0
M  V30 13220 H 1245.25 -5.68242 1.49581 0
M  V30 13221 H 1246.77 -6.07147 0.64842 0
M  V30 13222 H 1248.18 -5.06543 2.68491 0
M  V30 13223 H 1246.58 -4.90355 3.45936 0
M  V30 13224 H 1247.65 -3.4933 3.36299 0
M  V30 13225 N 1248.99 -0.981699 -1.2329 0
M  V30 13226 C 1249.93 -0.481042 -2.24095 0
M  V30 13227 C 1250.94 0.417818 -1.57347 0
M  V30 13228 O 1252.13 0.221746 -1.77117 0
M  V30 13229 C 1249.23 0.323324 -3.37354 0
M  V30 13230 C 1248.4 -0.568975 -4.33684 0
M  V30 13231 C 1247.46 0.181761 -5.25886 0
M  V30 13232 O 1246.49 -0.429059 -5.67581 0
M  V30 13233 N 1247.69 1.46737 -5.61648 0
M  V30 13234 H 1250.45 -1.34781 -2.67683 0
M  V30 13235 H 1248.01 -0.855117 -1.37475 0
M  V30 13236 H 1250.01 0.833934 -3.96015 0
M  V30 13237 H 1248.58 1.09111 -2.9294 0
M  V30 13238 H 1247.8 -1.2604 -3.73507 0
M  V30 13239 H 1249.08 -1.17704 -4.94998 0
M  V30 13240 H 1248.48 1.98513 -5.29725 0
M  V30 13241 H 1247.04 1.92339 -6.22775 0
M  V30 13242 N 1250.47 1.3842 -0.753509 0
M  V30 13243 C 1251.42 2.30457 -0.12574 0
M  V30 13244 C 1252.39 1.50173 0.709728 0
M  V30 13245 O 1253.57 1.78804 0.665872 0
M  V30 13246 C 1250.71 3.36593 0.761503 0
M  V30 13247 C 1249.83 4.31909 -0.0885848 0
M  V30 13248 C 1248.96 5.25116 0.801655 0
M  V30 13249 C 1248 6.12078 -0.0520719 0
M  V30 13250 N 1247.14 6.97583 0.795124 0
M  V30 13251 H 1251.98 2.83567 -0.916187 0
M  V30 13252 H 1249.52 1.39609 -0.463436 0
M  V30 13253 H 1251.47 3.96738 1.29054 0
M  V30 13254 H 1250.1 2.84894 1.51774 0
M  V30 13255 H 1249.16 3.73227 -0.735249 0
M  V30 13256 H 1250.47 4.93161 -0.747899 0
M  V30 13257 H 1249.62 5.90377 1.39786 0
M  V30 13258 H 1248.36 4.6423 1.4947 0
M  V30 13259 H 1247.37 5.45813 -0.660946 0
M  V30 13260 H 1248.59 6.75032 -0.742178 0
M  V30 13261 H 1246.54 6.39246 1.47312 0
M  V30 13262 H 1246.45 7.55754 0.192705 0
M  V30 13263 H 1247.72 7.67254 1.3763 0
M  V30 13264 N 1251.95 0.502579 1.49372 0
M  V30 13265 C 1252.88 -0.264307 2.31999 0
M  V30 13266 C 1253.86 -0.96107 1.40348 0
M  V30 13267 O 1255.05 -0.952167 1.69255 0
M  V30 13268 C 1252.18 -1.32822 3.20898 0
M  V30 13269 C 1251.13 -0.751236 4.21355 0
M  V30 13270 C 1250.46 -1.91578 4.99201 0
M  V30 13271 C 1251.76 0.258764 5.21659 0
M  V30 13272 H 1253.45 0.425391 2.96363 0
M  V30 13273 H 1251 0.206022 1.42519 0
M  V30 13274 H 1252.95 -1.87245 3.77515 0
M  V30 13275 H 1251.67 -2.04712 2.54481 0
M  V30 13276 H 1250.33 -0.228743 3.65886 0
M  V30 13277 H 1249.98 -2.62241 4.2923 0
M  V30 13278 H 1249.68 -1.53578 5.67175 0
M  V30 13279 H 1251.2 -2.46432 5.58663 0
M  V30 13280 H 1252.62 -0.197385 5.7296 0
M  V30 13281 H 1251.02 0.554681 5.97531 0
M  V30 13282 H 1252.09 1.1741 4.70471 0
M  V30 13283 N 1253.43 -1.55816 0.23648 0
M  V30 13284 C 1254.39 -2.1967 -0.654041 0
M  V30 13285 C 1255.39 -1.1629 -1.11056 0
M  V30 13286 O 1256.58 -1.41435 -1.01695 0
M  V30 13287 C 1253.71 -2.83196 -1.89771 0
M  V30 13288 H 1254.91 -2.99743 -0.0970911 0
M  V30 13289 H 1252.46 -1.56295 -0.013098 0
M  V30 13290 H 1253.19 -2.07033 -2.49616 0
M  V30 13291 H 1252.98 -3.58915 -1.57868 0
M  V30 13292 H 1254.47 -3.32095 -2.53184 0
M  V30 13293 N 1254.91 0.036755 -1.57557 0
M  V30 13294 C 1255.84 1.03939 -2.09091 0
M  V30 13295 C 1256.82 1.38196 -0.991761 0
M  V30 13296 O 1258 1.47214 -1.26656 0
M  V30 13297 C 1255.13 2.34263 -2.56394 0
M  V30 13298 C 1254.09 2.14269 -3.70504 0
M  V30 13299 C 1253.41 3.50286 -4.03985 0
M  V30 13300 C 1254.71 1.53514 -4.9923 0
M  V30 13301 H 1256.41 0.610429 -2.93111 0
M  V30 13302 H 1253.95 0.292183 -1.41005 0
M  V30 13303 H 1255.91 3.04727 -2.91066 0
M  V30 13304 H 1254.63 2.79205 -1.69447 0
M  V30 13305 H 1253.29 1.46239 -3.36169 0
M  V30 13306 H 1252.94 3.92861 -3.14116 0
M  V30 13307 H 1252.64 3.37735 -4.80842 0
M  V30 13308 H 1254.16 4.22124 -4.41184 0
M  V30 13309 H 1255.57 2.13885 -5.31908 0
M  V30 13310 H 1253.97 1.51561 -5.80646 0
M  V30 13311 H 1255.04 0.500126 -4.82314 0
M  V30 13312 N 1256.39 1.54543 0.308881 0
M  V30 13313 C 1257.63 1.73449 1.04506 0
M  V30 13314 C 1257.96 0.516034 1.8753 0
M  V30 13315 O 1257.22 -0.502106 1.89149 0
M  V30 13316 C 1257.51 2.97124 1.98626 0
M  V30 13317 C 1257.18 4.31256 1.31641 0
M  V30 13318 C 1255.84 4.67719 1.13105 0
M  V30 13319 C 1258.19 5.14437 0.836888 0
M  V30 13320 C 1255.52 5.84949 0.452878 0
M  V30 13321 C 1257.87 6.32365 0.172473 0
M  V30 13322 C 1256.54 6.67495 -0.0249143 0
M  V30 13323 H 1255.81 0.634697 0.382415 0
M  V30 13324 H 1258.46 1.88795 0.320714 0
M  V30 13325 H 1256.76 2.76526 2.77562 0
M  V30 13326 H 1258.46 3.08946 2.55643 0
M  V30 13327 H 1255.05 4.02576 1.47074 0
M  V30 13328 H 1259.23 4.86772 0.967834 0
M  V30 13329 H 1254.49 6.10717 0.288886 0
M  V30 13330 H 1258.66 6.96092 -0.207027 0
M  V30 13331 H 1256.29 7.5819 -0.552425 0
M  V30 13332 N 1257.86 -0.571685 1.46866 0
M  V30 13333 C 1258.81 -1.70098 1.58649 0
M  V30 13334 C 1259.81 -1.63191 0.45443 0
M  V30 13335 O 1261.01 -1.68551 0.63171 0
M  V30 13336 H 1257.39 -0.56258 0.499007 0
M  V30 13337 H 1259.36 -1.57293 2.53577 0
M  V30 13338 C 1258.11 -3.08475 1.60433 0
M  V30 13339 H 1257.43 -3.14465 2.46884 0
M  V30 13340 H 1258.87 -3.87221 1.7273 0
M  V30 13341 C 1257.33 -3.35231 0.334948 0
M  V30 13342 O 1257.86 -3.97633 -0.570149 0
M  V30 13343 N 1256.06 -2.8977 0.219441 0
M  V30 13344 H 1255.61 -2.39168 0.956891 0
M  V30 13345 H 1255.57 -3.08044 -0.628975 0
M  V30 13346 N 1259.34 -1.34755 -0.817236 0
M  V30 13347 C 1260.29 -1.26816 -1.94988 0
M  V30 13348 C 1261.28 -0.165142 -1.68593 0
M  V30 13349 O 1262.49 -0.330469 -1.7694 0
M  V30 13350 H 1258.86 -0.394113 -0.640452 0
M  V30 13351 H 1260.84 -2.22528 -1.98806 0
M  V30 13352 C 1259.58 -1.04625 -3.31586 0
M  V30 13353 H 1258.91 -1.88735 -3.52447 0
M  V30 13354 H 1260.35 -1.03108 -4.11272 0
M  V30 13355 C 1258.81 0.250283 -3.35969 0
M  V30 13356 O 1259.34 1.24972 -3.81765 0
M  V30 13357 N 1257.54 0.285369 -2.89195 0
M  V30 13358 H 1257.09 -0.528528 -2.5212 0
M  V30 13359 H 1257.05 1.15261 -2.9251 0
M  V30 13360 N 1260.82 1.03812 -1.18578 0
M  V30 13361 C 1261.77 2.11883 -0.915115 0
M  V30 13362 C 1262.74 1.65453 0.146479 0
M  V30 13363 O 1263.92 1.90799 0.00630058 0
M  V30 13364 C 1261.06 3.42157 -0.449755 0
M  V30 13365 C 1260.17 4.02185 -1.57706 0
M  V30 13366 C 1259.31 5.20431 -1.06417 0
M  V30 13367 C 1258.35 5.72496 -2.16599 0
M  V30 13368 N 1257.49 6.82027 -1.66685 0
M  V30 13369 H 1262.33 2.34373 -1.84047 0
M  V30 13370 H 1259.86 1.14962 -0.917728 0
M  V30 13371 H 1261.82 4.16888 -0.161407 0
M  V30 13372 H 1260.45 3.19806 0.438622 0
M  V30 13373 H 1259.5 3.24757 -1.98083 0
M  V30 13374 H 1260.81 4.36851 -2.40754 0
M  V30 13375 H 1259.97 6.02286 -0.730497 0
M  V30 13376 H 1258.71 4.87276 -0.203301 0
M  V30 13377 H 1257.71 4.8926 -2.50808 0
M  V30 13378 H 1258.94 6.07694 -3.03126 0
M  V30 13379 H 1256.88 6.50742 -0.828916 0
M  V30 13380 H 1256.8 7.1577 -2.43329 0
M  V30 13381 H 1258.07 7.67499 -1.36253 0
M  V30 13382 N 1262.3 0.988223 1.22768 0
M  V30 13383 C 1263.23 0.554478 2.26821 0
M  V30 13384 C 1264.21 -0.416293 1.64927 0
M  V30 13385 O 1265.39 -0.30795 1.91743 0
M  V30 13386 C 1262.52 -0.136266 3.47033 0
M  V30 13387 C 1261.48 0.752575 4.21332 0
M  V30 13388 C 1260.8 -0.0708236 5.34653 0
M  V30 13389 C 1262.1 2.04717 4.80508 0
M  V30 13390 H 1263.8 1.42423 2.63355 0
M  V30 13391 H 1261.34 0.686267 1.26595 0
M  V30 13392 H 1263.3 -0.451068 4.18979 0
M  V30 13393 H 1262.02 -1.04053 3.09581 0
M  V30 13394 H 1260.68 1.05095 3.51213 0
M  V30 13395 H 1260.33 -0.975859 4.93443 0
M  V30 13396 H 1260.03 0.520835 5.85287 0
M  V30 13397 H 1261.55 -0.379828 6.09417 0
M  V30 13398 H 1262.97 1.79663 5.44421 0
M  V30 13399 H 1261.36 2.58726 5.41462 0
M  V30 13400 H 1262.43 2.72896 4.00819 0
M  V30 13401 N 1263.78 -1.38018 0.760839 0
M  V30 13402 C 1265 -2.04231 0.331285 0
M  V30 13403 C 1265.42 -1.57385 -1.04285 0
M  V30 13404 O 1264.78 -0.750168 -1.66369 0
M  V30 13405 C 1264.83 -3.59772 0.353021 0
M  V30 13406 O 1264.55 -4.049 1.67294 0
M  V30 13407 C 1266.05 -4.4321 -0.0894942 0
M  V30 13408 H 1263.27 -0.656145 0.140408 0
M  V30 13409 H 1265.81 -1.76567 1.03172 0
M  V30 13410 H 1263.97 -3.86246 -0.298735 0
M  V30 13411 H 1264.38 -4.99369 1.60408 0
M  V30 13412 H 1265.86 -5.51995 -0.0231262 0
M  V30 13413 H 1266.33 -4.2419 -1.13839 0
M  V30 13414 H 1266.94 -4.21939 0.533661 0
M  V30 13415 N 1265.25 -0.510493 -1.49103 0
M  V30 13416 C 1266.53 0.0941122 -1.95373 0
M  V30 13417 C 1266.91 1.53207 -1.45227 0
M  V30 13418 O 1266.26 2.18452 -0.670161 0
M  V30 13419 C 1266.47 -0.00302507 -3.49 0
M  V30 13420 C 1267.82 0.166117 -4.24275 0
M  V30 13421 O 1268.84 0.0717097 -3.56128 0
M  V30 13422 O 1267.7 0.361155 -5.45305 0
M  V30 13423 H 1264.79 0.0900741 -0.82208 0
M  V30 13424 H 1267.34 -0.573707 -1.59708 0
M  V30 13425 H 1266.11 -1.00545 -3.78162 0
M  V30 13426 H 1265.73 0.704518 -3.91308 0
M  V30 13427 N 1266.73 1.55688 -0.24474 0
M  V30 13428 C 1267.98 1.98498 0.379852 0
M  V30 13429 C 1268.3 1.13416 1.58625 0
M  V30 13430 O 1267.57 0.216456 1.947 0
M  V30 13431 H 1266.15 0.73312 0.143334 0
M  V30 13432 H 1268.81 1.91858 -0.343027 0
M  V30 13433 H 1267.91 3.04367 0.690463 0
M  V30 13434 N 1268.21 -0.0283989 1.57574 0
M  V30 13435 C 1269.45 -0.723912 1.91151 0
M  V30 13436 C 1269.81 -1.72485 0.843381 0
M  V30 13437 O 1271.01 -2.46866 1.06351 0
M  V30 13438 C 1269.29 -1.37537 3.29876 0
M  V30 13439 S 1270.84 -2.09995 3.85289 0
M  V30 13440 H 1267.66 -0.239802 0.66934 0
M  V30 13441 H 1270.26 0.0214644 1.95488 0
M  V30 13442 H 1268.97 -0.633659 4.05479 0
M  V30 13443 H 1268.5 -2.15928 3.28844 0
M  V30 13444 H 1270.51 -3.37146 3.6407 0
M  V30 13445 N 1269.69 -1.54705 -0.300681 0
M  V30 13446 C 1270.65 -1.84934 -1.35395 0
M  V30 13447 C 1271.65 -0.72226 -1.43666 0
M  V30 13448 O 1272.84 -0.990543 -1.43296 0
M  V30 13449 C 1269.97 -2.02991 -2.73875 0
M  V30 13450 H 1271.17 -2.79063 -1.09835 0
M  V30 13451 H 1268.72 -1.46772 -0.537365 0
M  V30 13452 H 1269.45 -1.11151 -3.04657 0
M  V30 13453 H 1269.24 -2.85027 -2.69262 0
M  V30 13454 H 1270.73 -2.27747 -3.5003 0
M  V30 13455 N 1271.17 0.563888 -1.47167 0
M  V30 13456 C 1272.12 1.66687 -1.55562 0
M  V30 13457 C 1273.1 1.55455 -0.415024 0
M  V30 13458 O 1274.29 1.64051 -0.664557 0
M  V30 13459 C 1271.42 3.05469 -1.56665 0
M  V30 13460 C 1270.51 3.21928 -2.76085 0
M  V30 13461 N 1270.9 3.08477 -4.00844 0
M  V30 13462 C 1269.2 3.52913 -2.72706 0
M  V30 13463 C 1269.9 3.27447 -4.80784 0
M  V30 13464 N 1268.87 3.53474 -4.12986 0
M  V30 13465 H 1272.68 1.54846 -2.498 0
M  V30 13466 H 1270.19 0.76846 -1.43068 0
M  V30 13467 H 1272.19 3.84655 -1.60768 0
M  V30 13468 H 1270.85 3.18427 -0.635174 0
M  V30 13469 H 1271.86 2.85944 -4.31806 0
M  V30 13470 H 1268.53 3.7244 -1.88666 0
M  V30 13471 H 1269.92 3.22072 -5.89677 0
M  V30 13472 N 1272.64 1.35187 0.810078 0
M  V30 13473 C 1273.87 1.31528 1.60359 0
M  V30 13474 C 1274.29 -0.105385 1.87805 0
M  V30 13475 O 1273.65 -1.07113 1.46276 0
M  V30 13476 C 1273.7 2.12429 2.91386 0
M  V30 13477 O 1272.8 1.50262 3.84051 0
M  V30 13478 H 1272.15 0.451122 0.487222 0
M  V30 13479 H 1274.68 1.78178 1.00568 0
M  V30 13480 H 1274.69 2.24257 3.40841 0
M  V30 13481 H 1273.36 3.15714 2.70735 0
M  V30 13482 H 1271.94 1.47253 3.42594 0
M  V30 13483 N 1274.12 -1.03182 1.19127 0
M  V30 13484 C 1275.06 -2.10977 0.869702 0
M  V30 13485 C 1276.03 -1.61687 -0.172032 0
M  V30 13486 O 1277.22 -1.88436 -0.0490025 0
M  V30 13487 C 1274.34 -3.37359 0.301049 0
M  V30 13488 C 1273.39 -4.05515 1.32137 0
M  V30 13489 S 1274.22 -4.51415 2.88071 0
M  V30 13490 C 1275.38 -5.81018 2.32741 0
M  V30 13491 H 1275.61 -2.37929 1.78261 0
M  V30 13492 H 1273.15 -1.16079 1.01809 0
M  V30 13493 H 1275.1 -4.10495 -0.0205205 0
M  V30 13494 H 1273.76 -3.08507 -0.590118 0
M  V30 13495 H 1272.96 -4.9639 0.872547 0
M  V30 13496 H 1272.56 -3.38536 1.58963 0
M  V30 13497 H 1274.85 -6.5542 1.71552 0
M  V30 13498 H 1275.79 -6.30677 3.21951 0
M  V30 13499 H 1276.2 -5.36549 1.75429 0
M  V30 13500 N 1275.6 -0.99472 -1.22242 0
M  V30 13501 C 1276.56 -0.551619 -2.22463 0
M  V30 13502 C 1277.56 0.366498 -1.56568 0
M  V30 13503 O 1278.75 0.158204 -1.7348 0
M  V30 13504 C 1275.89 0.197416 -3.40328 0
M  V30 13505 H 1277.08 -1.43795 -2.63179 0
M  V30 13506 H 1274.63 -0.782121 -1.35324 0
M  V30 13507 H 1275.37 1.09965 -3.05087 0
M  V30 13508 H 1275.15 -0.461829 -3.89371 0
M  V30 13509 H 1276.64 0.495534 -4.1465 0
M  V30 13510 N 1277.08 1.37613 -0.768148 0
M  V30 13511 C 1278.03 2.30311 -0.150176 0
M  V30 13512 C 1279 1.50918 0.69376 0
M  V30 13513 O 1280.18 1.795 0.64687 0
M  V30 13514 C 1277.32 3.37382 0.72576 0
M  V30 13515 C 1276.43 4.31791 -0.13439 0
M  V30 13516 C 1275.57 5.25937 0.745915 0
M  V30 13517 C 1274.61 6.11988 -0.116988 0
M  V30 13518 N 1273.74 6.98387 0.721091 0
M  V30 13519 H 1278.58 2.82579 -0.946212 0
M  V30 13520 H 1276.12 1.3911 -0.478217 0
M  V30 13521 H 1278.08 3.98084 1.24839 0
M  V30 13522 H 1276.71 2.86488 1.48743 0
M  V30 13523 H 1275.76 3.72426 -0.774793 0
M  V30 13524 H 1277.07 4.9234 -0.800163 0
M  V30 13525 H 1276.23 5.91826 1.33516 0
M  V30 13526 H 1274.97 4.6579 1.44538 0
M  V30 13527 H 1273.97 5.45081 -0.7188 0
M  V30 13528 H 1275.2 6.74207 -0.813732 0
M  V30 13529 H 1273.14 6.40772 1.40524 0
M  V30 13530 H 1273.06 7.55916 0.112536 0
M  V30 13531 H 1274.33 7.6867 1.29485 0
M  V30 13532 N 1278.56 0.518393 1.4883 0
M  V30 13533 C 1279.49 -0.239685 2.32267 0
M  V30 13534 C 1280.47 -0.94613 1.41359 0
M  V30 13535 O 1281.65 -0.934162 1.70256 0
M  V30 13536 C 1278.78 -1.29411 3.22289 0
M  V30 13537 C 1277.74 -0.706504 4.22129 0
M  V30 13538 C 1277.06 -1.86273 5.01205 0
M  V30 13539 C 1278.36 0.314079 5.21355 0
M  V30 13540 H 1280.06 0.4568 2.95895 0
M  V30 13541 H 1277.6 0.221126 1.42292 0
M  V30 13542 H 1279.56 -1.8323 3.7948 0
M  V30 13543 H 1278.28 -2.02001 2.56638 0
M  V30 13544 H 1276.94 -0.189924 3.66108 0
M  V30 13545 H 1276.59 -2.57674 4.31988 0
M  V30 13546 H 1276.29 -1.47554 5.68772 0
M  V30 13547 H 1277.81 -2.40492 5.61245 0
M  V30 13548 H 1279.22 -0.136604 5.73137 0
M  V30 13549 H 1277.62 0.618026 5.96909 0
M  V30 13550 H 1278.69 1.22394 4.69199 0
M  V30 13551 N 1280.03 -1.55556 0.252993 0
M  V30 13552 C 1280.96 -2.24613 -0.638047 0
M  V30 13553 C 1281.95 -1.22852 -1.1765 0
M  V30 13554 O 1283.13 -1.51519 -1.21472 0
M  V30 13555 C 1280.26 -2.95029 -1.83236 0
M  V30 13556 C 1279.21 -4.03531 -1.42641 0
M  V30 13557 C 1278.54 -4.61404 -2.70204 0
M  V30 13558 C 1279.84 -5.18923 -0.592958 0
M  V30 13559 H 1281.53 -2.99335 -0.0621918 0
M  V30 13560 H 1279.08 -1.43972 -0.0284722 0
M  V30 13561 H 1281.03 -3.42042 -2.46141 0
M  V30 13562 H 1279.76 -2.17805 -2.43369 0
M  V30 13563 H 1278.42 -3.57296 -0.820672 0
M  V30 13564 H 1278.06 -3.80874 -3.28548 0
M  V30 13565 H 1277.76 -5.34652 -2.43764 0
M  V30 13566 H 1279.29 -5.11154 -3.33997 0
M  V30 13567 H 1280.7 -5.62124 -1.12646 0
M  V30 13568 H 1279.1 -5.98598 -0.424358 0
M  V30 13569 H 1280.17 -4.83301 0.393434 0
M  V30 13570 N 1281.51 0.0200419 -1.57587 0
M  V30 13571 C 1282.48 1.00255 -2.06111 0
M  V30 13572 C 1283.48 1.28488 -0.966829 0
M  V30 13573 O 1284.67 1.2334 -1.23015 0
M  V30 13574 C 1281.8 2.33296 -2.48567 0
M  V30 13575 H 1282.99 0.583216 -2.94174 0
M  V30 13576 H 1280.54 0.267077 -1.54001 0
M  V30 13577 H 1281.28 2.79959 -1.63687 0
M  V30 13578 H 1281.06 2.14131 -3.28467 0
M  V30 13579 H 1282.55 3.03817 -2.86505 0
M  V30 13580 N 1282.99 1.54862 0.292472 0
M  V30 13581 C 1284.23 1.76289 1.03448 0
M  V30 13582 C 1284.59 0.541914 1.84194 0
M  V30 13583 O 1285.8 0.634075 2.61214 0
M  V30 13584 C 1284.07 3.02112 1.90953 0
M  V30 13585 S 1285.63 3.44577 2.71683 0
M  V30 13586 H 1282.44 0.619596 0.348744 0
M  V30 13587 H 1285.05 1.93075 0.306952 0
M  V30 13588 H 1283.75 3.89091 1.30523 0
M  V30 13589 H 1283.28 2.87937 2.68059 0
M  V30 13590 H 1285.3 3.02318 3.93469 0
M  V30 13591 N 1284.47 -0.556076 1.47464 0
M  V30 13592 C 1285.88 -0.882115 1.33007 0
M  V30 13593 C 1286.08 -1.9892 0.321407 0
M  V30 13594 O 1285.14 -2.51088 -0.266668 0
M  V30 13595 C 1286.45 -1.27428 2.72365 0
M  V30 13596 C 1288 -1.38564 2.80658 0
M  V30 13597 C 1288.48 -1.81136 4.20659 0
M  V30 13598 N 1289.97 -1.88284 4.23206 0
M  V30 13599 C 1290.7 -2.22555 5.28447 0
M  V30 13600 N 1290.2 -2.55432 6.43993 0
M  V30 13601 N 1291.99 -2.23339 5.15826 0
M  V30 13602 H 1284.14 0.17481 2.11679 0
M  V30 13603 H 1286.41 0.0155421 0.947873 0
M  V30 13604 H 1286.11 -0.53463 3.47613 0
M  V30 13605 H 1285.99 -2.23019 3.04208 0
M  V30 13606 H 1288.37 -2.1161 2.05682 0
M  V30 13607 H 1288.45 -0.411588 2.52467 0
M  V30 13608 H 1288.1 -1.08659 4.96141 0
M  V30 13609 H 1288.03 -2.79546 4.46275 0
M  V30 13610 H 1290.52 -1.65259 3.3985 0
M  V30 13611 H 1290.83 -2.80612 7.20053 0
M  V30 13612 H 1289.18 -2.5301 6.47311 0
M  V30 13613 H 1292.37 -1.97094 4.24584 0
M  V30 13614 H 1292.54 -2.49717 5.97951 0
M  V30 13615 N 1285.95 -1.35615 -0.802897 0
M  V30 13616 C 1286.88 -1.24695 -1.92312 0
M  V30 13617 C 1287.89 -0.169409 -1.61916 0
M  V30 13618 O 1289.08 -0.422995 -1.73416 0
M  V30 13619 C 1286.18 -0.898229 -3.2678 0
M  V30 13620 C 1285.35 -2.07489 -3.85054 0
M  V30 13621 C 1284.41 -1.70137 -4.97936 0
M  V30 13622 O 1283.44 -2.42057 -5.15167 0
M  V30 13623 N 1284.64 -0.627153 -5.77102 0
M  V30 13624 H 1287.41 -2.21208 -2.02205 0
M  V30 13625 H 1284.97 -1.28832 -0.980503 0
M  V30 13626 H 1286.96 -0.629766 -3.9977 0
M  V30 13627 H 1285.53 -0.0226571 -3.12592 0
M  V30 13628 H 1284.75 -2.50694 -3.04214 0
M  V30 13629 H 1286.04 -2.86133 -4.2072 0
M  V30 13630 H 1285.44 -0.0296879 -5.65692 0
M  V30 13631 H 1283.99 -0.41848 -6.50455 0
M  V30 13632 N 1287.43 1.02549 -1.19673 0
M  V30 13633 C 1288.37 2.13015 -0.934209 0
M  V30 13634 C 1289.37 1.69035 0.111208 0
M  V30 13635 O 1290.57 1.79959 -0.0383449 0
M  V30 13636 H 1286.95 0.696015 -0.284722 0
M  V30 13637 H 1288.92 2.32346 -1.87238 0
M  V30 13638 C 1287.67 3.44185 -0.493124 0
M  V30 13639 H 1286.99 3.78447 -1.28911 0
M  V30 13640 H 1288.43 4.22565 -0.348577 0
M  V30 13641 C 1286.89 3.27427 0.793277 0
M  V30 13642 O 1287.42 3.56362 1.85388 0
M  V30 13643 N 1285.63 2.80706 0.751837 0
M  V30 13644 H 1285.17 2.57359 -0.111517 0
M  V30 13645 H 1285.13 2.69874 1.61292 0
M  V30 13646 N 1288.9 1.00119 1.21713 0
M  V30 13647 C 1290.15 0.681723 1.9068 0
M  V30 13648 C 1290.48 -0.787121 1.77861 0
M  V30 13649 O 1289.73 -1.58573 1.14687 0
M  V30 13650 C 1290.03 1.04376 3.41819 0
M  V30 13651 C 1289.7 2.50624 3.74831 0
M  V30 13652 C 1288.36 2.90587 3.83552 0
M  V30 13653 C 1290.71 3.45377 3.90339 0
M  V30 13654 C 1288.04 4.24276 4.05225 0
M  V30 13655 C 1290.39 4.78734 4.13517 0
M  V30 13656 C 1289.06 5.18427 4.20464 0
M  V30 13657 H 1288.33 0.24946 0.697747 0
M  V30 13658 H 1290.97 1.25892 1.44304 0
M  V30 13659 H 1289.28 0.384756 3.89906 0
M  V30 13660 H 1290.98 0.774488 3.9345 0
M  V30 13661 H 1287.57 2.18651 3.68632 0
M  V30 13662 H 1291.75 3.15669 3.82971 0
M  V30 13663 H 1287.01 4.54605 4.08833 0
M  V30 13664 H 1291.18 5.52094 4.24459 0
M  V30 13665 H 1288.81 6.22034 4.3701 0
M  V30 13666 N 1290.38 -1.37203 0.775435 0
M  V30 13667 C 1291.31 -2.32819 0.17826 0
M  V30 13668 C 1292.29 -1.55963 -0.678944 0
M  V30 13669 O 1293.48 -1.84183 -0.615648 0
M  V30 13670 C 1290.61 -3.40198 -0.698768 0
M  V30 13671 C 1289.56 -4.27961 0.057423 0
M  V30 13672 C 1288.89 -5.26385 -0.93929 0
M  V30 13673 C 1290.19 -5.07402 1.23856 0
M  V30 13674 H 1291.88 -2.8301 0.977028 0
M  V30 13675 H 1289.43 -1.3607 0.471274 0
M  V30 13676 H 1291.38 -4.06067 -1.12637 0
M  V30 13677 H 1290.1 -2.88541 -1.53009 0
M  V30 13678 H 1288.76 -3.63628 0.465848 0
M  V30 13679 H 1288.41 -4.71007 -1.76527 0
M  V30 13680 H 1288.11 -5.85966 -0.437844 0
M  V30 13681 H 1289.64 -5.9513 -1.36576 0
M  V30 13682 H 1291.05 -5.6639 0.887423 0
M  V30 13683 H 1289.45 -5.76327 1.67234 0
M  V30 13684 H 1290.52 -4.3986 2.04085 0
M  V30 13685 N 1291.86 -0.526279 -1.48553 0
M  V30 13686 C 1292.82 0.227739 -2.28066 0
M  V30 13687 C 1293.82 0.871146 -1.35158 0
M  V30 13688 O 1295.01 0.731769 -1.58085 0
M  V30 13689 C 1292.14 1.32918 -3.1392 0
M  V30 13690 H 1293.34 -0.470313 -2.96189 0
M  V30 13691 H 1290.89 -0.282089 -1.53733 0
M  V30 13692 H 1291.63 2.0606 -2.50419 0
M  V30 13693 H 1291.41 0.872991 -3.82258 0
M  V30 13694 H 1292.9 1.85964 -3.73908 0
M  V30 13695 N 1293.34 1.5542 -0.261239 0
M  V30 13696 C 1294.27 2.24949 0.626126 0
M  V30 13697 C 1295.25 1.23474 1.16997 0
M  V30 13698 O 1296.43 1.52161 1.20667 0
M  V30 13699 C 1293.56 2.95996 1.81669 0
M  V30 13700 C 1292.52 4.04282 1.40499 0
M  V30 13701 C 1291.84 4.62831 2.67753 0
M  V30 13702 C 1293.14 5.1923 0.56543 0
M  V30 13703 H 1294.84 2.99364 0.0463164 0
M  V30 13704 H 1292.38 1.43985 0.0208366 0
M  V30 13705 H 1294.34 3.43343 2.44323 0
M  V30 13706 H 1293.06 2.19093 2.42211 0
M  V30 13707 H 1291.72 3.57726 0.801712 0
M  V30 13708 H 1291.37 3.82611 3.26524 0
M  V30 13709 H 1291.07 5.35938 2.40925 0
M  V30 13710 H 1292.59 5.12918 3.31281 0
M  V30 13711 H 1294.01 5.62714 1.09663 0
M  V30 13712 H 1292.4 5.98814 0.392607 0
M  V30 13713 H 1293.47 4.83086 -0.419059 0
M  V30 13714 N 1294.82 -0.0116844 1.57596 0
M  V30 13715 C 1296.23 -0.367602 1.55309 0
M  V30 13716 C 1296.43 -1.75524 0.98962 0
M  V30 13717 O 1295.49 -2.44813 0.618289 0
M  V30 13718 C 1296.8 -0.253532 2.99629 0
M  V30 13719 C 1298.35 -0.329335 3.11263 0
M  V30 13720 C 1298.82 -0.24452 4.57347 0
M  V30 13721 N 1300.31 -0.302782 4.62209 0
M  V30 13722 C 1301.05 -0.260315 5.72809 0
M  V30 13723 N 1300.55 -0.169124 6.92594 0
M  V30 13724 N 1302.34 -0.311323 5.61237 0
M  V30 13725 H 1294.49 0.896204 1.92567 0
M  V30 13726 H 1296.75 0.342445 0.883988 0
M  V30 13727 H 1296.46 0.70074 3.44648 0
M  V30 13728 H 1296.33 -1.04029 3.62571 0
M  V30 13729 H 1298.72 -1.27405 2.66181 0
M  V30 13730 H 1298.8 0.487084 2.5112 0
M  V30 13731 H 1298.44 0.696597 5.031 0
M  V30 13732 H 1298.37 -1.07927 5.15421 0
M  V30 13733 H 1300.87 -0.375067 3.76034 0
M  V30 13734 H 1301.18 -0.142296 7.72669 0
M  V30 13735 H 1299.52 -0.134919 6.94869 0
M  V30 13736 H 1302.71 -0.380678 4.6655 0
M  V30 13737 H 1302.89 -0.274761 6.47417 0
M  V30 13738 N 1296.29 -1.55015 -0.284256 0
M  V30 13739 C 1297.22 -1.90128 -1.3555 0
M  V30 13740 C 1298.2 -0.761914 -1.52082 0
M  V30 13741 O 1299.39 -1.01909 -1.65312 0
M  V30 13742 C 1296.52 -2.16332 -2.71695 0
M  V30 13743 C 1295.47 -3.32166 -2.69907 0
M  V30 13744 C 1294.8 -3.43824 -4.09498 0
M  V30 13745 C 1296.1 -4.6885 -2.30168 0
M  V30 13746 H 1297.79 -2.79852 -1.06411 0
M  V30 13747 H 1295.34 -1.34649 -0.510451 0
M  V30 13748 H 1297.29 -2.39482 -3.46737 0
M  V30 13749 H 1296.02 -1.23395 -3.02392 0
M  V30 13750 H 1294.68 -3.08965 -1.97322 0
M  V30 13751 H 1294.32 -2.48375 -4.374 0
M  V30 13752 H 1294.02 -4.21698 -4.092 0
M  V30 13753 H 1295.55 -3.69254 -4.86296 0
M  V30 13754 H 1296.96 -4.91619 -2.9493 0
M  V30 13755 H 1295.36 -5.49558 -2.41052 0
M  V30 13756 H 1296.43 -4.68433 -1.25294 0
M  V30 13757 N 1297.77 0.548248 -1.47757 0
M  V30 13758 C 1299.02 1.30243 -1.54535 0
M  V30 13759 C 1299.34 1.93832 -0.213089 0
M  V30 13760 O 1298.61 1.80397 0.763782 0
M  V30 13761 H 1297.19 0.483684 -0.569262 0
M  V30 13762 H 1299.85 0.639485 -1.8411 0
M  V30 13763 H 1298.95 2.09128 -2.31672 0
M  V30 13764 N 1299.25 1.36039 0.795694 0
M  V30 13765 C 1300.2 1.29902 1.92946 0
M  V30 13766 C 1301.19 0.191943 1.68309 0
M  V30 13767 O 1302.4 0.358577 1.76392 0
M  V30 13768 H 1298.77 0.404252 0.634101 0
M  V30 13769 H 1300.74 2.25663 1.95241 0
M  V30 13770 C 1299.49 1.09887 3.29879 0
M  V30 13771 H 1298.82 1.94318 3.494 0
M  V30 13772 H 1300.26 1.09638 4.0958 0
M  V30 13773 C 1298.71 -0.196802 3.36325 0
M  V30 13774 O 1299.24 -1.18883 3.83705 0
M  V30 13775 N 1297.45 -0.239325 2.89613 0
M  V30 13776 H 1297 0.568571 2.51247 0
M  V30 13777 H 1296.96 -1.10593 2.94307 0
M  V30 13778 N 1300.73 -1.01913 1.20215 0
M  V30 13779 C 1301.68 -2.12516 0.945493 0
M  V30 13780 C 1302.67 -1.69091 -0.102243 0
M  V30 13781 O 1303.88 -1.79936 0.047888 0
M  V30 13782 H 1300.25 -0.694496 0.288409 0
M  V30 13783 H 1302.22 -2.31349 1.88468 0
M  V30 13784 C 1300.97 -3.43919 0.51137 0
M  V30 13785 H 1300.29 -3.77758 1.30916 0
M  V30 13786 H 1301.73 -4.22374 0.370981 0
M  V30 13787 C 1300.19 -3.27844 -0.775902 0
M  V30 13788 O 1300.72 -3.5734 -1.83496 0
M  V30 13789 N 1298.93 -2.81101 -0.73694 0
M  V30 13790 H 1298.48 -2.57296 0.125164 0
M  V30 13791 H 1298.43 -2.70726 -1.59859 0
M  V30 13792 N 1302.21 -1.00763 -1.2118 0
M  V30 13793 C 1303.44 -0.709715 -1.94027 0
M  V30 13794 C 1303.84 0.732135 -1.7446 0
M  V30 13795 O 1303.19 1.50731 -1.05004 0
M  V30 13796 C 1303.25 -0.95427 -3.46603 0
M  V30 13797 C 1302.91 -2.38347 -3.89923 0
M  V30 13798 C 1303.91 -3.36383 -3.96412 0
M  V30 13799 C 1301.6 -2.72183 -4.22163 0
M  V30 13800 C 1303.59 -4.66321 -4.34538 0
M  V30 13801 C 1301.28 -4.02336 -4.59966 0
M  V30 13802 C 1302.27 -4.99216 -4.66125 0
M  V30 13803 O 1301.96 -6.27041 -5.03065 0
M  V30 13804 H 1301.69 -0.260545 -0.623773 0
M  V30 13805 H 1304.25 -1.34922 -1.54872 0
M  V30 13806 H 1302.48 -0.257599 -3.85841 0
M  V30 13807 H 1304.17 -0.649333 -4.00673 0
M  V30 13808 H 1304.93 -3.11578 -3.71677 0
M  V30 13809 H 1300.81 -1.97468 -4.16566 0
M  V30 13810 H 1304.36 -5.41938 -4.3926 0
M  V30 13811 H 1300.25 -4.26924 -4.84155 0
M  V30 13812 H 1301.02 -6.31196 -5.21089 0
M  V30 13813 N 1303.68 1.3679 -0.7827 0
M  V30 13814 C 1304.93 1.98664 -0.348634 0
M  V30 13815 C 1305.25 1.62827 1.08382 0
M  V30 13816 O 1306.45 2.17886 1.61982 0
M  V30 13817 C 1304.91 3.55319 -0.572392 0
M  V30 13818 C 1304.52 4.00086 -2.01582 0
M  V30 13819 C 1306.26 4.24017 -0.202496 0
M  V30 13820 C 1304.17 5.49493 -2.18659 0
M  V30 13821 H 1303.1 0.743294 -0.126612 0
M  V30 13822 H 1305.75 1.56177 -0.963383 0
M  V30 13823 H 1304.13 3.95842 0.111973 0
M  V30 13824 H 1305.3 3.7078 -2.73603 0
M  V30 13825 H 1303.62 3.44205 -2.34333 0
M  V30 13826 H 1306.22 5.3381 -0.308459 0
M  V30 13827 H 1306.56 4.07559 0.84859 0
M  V30 13828 H 1307.09 3.88834 -0.839834 0
M  V30 13829 H 1303.83 5.7089 -3.22126 0
M  V30 13830 H 1303.35 5.80447 -1.51134 0
M  V30 13831 H 1305.03 6.15621 -1.99048 0
M  V30 13832 N 1305.16 0.53415 1.48272 0
M  V30 13833 C 1306.39 0.00574475 2.06899 0
M  V30 13834 C 1306.81 -1.27754 1.39012 0
M  V30 13835 O 1306.16 -1.76102 0.478993 0
M  V30 13836 C 1306.21 -0.217576 3.60845 0
M  V30 13837 O 1305.93 1.01487 4.26183 0
M  V30 13838 C 1307.44 -0.785888 4.36278 0
M  V30 13839 H 1304.66 0.0353967 0.670066 0
M  V30 13840 H 1307.2 0.740984 1.90603 0
M  V30 13841 H 1305.35 -0.902875 3.76732 0
M  V30 13842 H 1305.77 0.7982 5.18391 0
M  V30 13843 H 1307.24 -0.891551 5.44753 0
M  V30 13844 H 1307.72 -1.79178 4.00989 0
M  V30 13845 H 1308.33 -0.137022 4.25079 0
M  V30 13846 N 1306.64 -1.55279 0.269478 0
M  V30 13847 C 1307.6 -2.21008 -0.607299 0
M  V30 13848 C 1308.6 -1.18619 -1.08564 0
M  V30 13849 O 1309.79 -1.4356 -0.986721 0
M  V30 13850 C 1306.93 -2.87157 -1.83721 0
M  V30 13851 H 1308.12 -2.99881 -0.0334894 0
M  V30 13852 H 1305.67 -1.56287 0.0200573 0
M  V30 13853 H 1306.41 -2.12281 -2.45168 0
M  V30 13854 H 1306.19 -3.62183 -1.5022 0
M  V30 13855 H 1307.68 -3.37391 -2.46083 0
M  V30 13856 N 1308.12 0.00332656 -1.576 0
M  V30 13857 C 1309.08 0.980628 -2.07163 0
M  V30 13858 C 1310.08 1.27455 -0.980402 0
M  V30 13859 O 1311.27 1.22029 -1.24317 0
M  V30 13860 C 1308.4 2.30647 -2.51028 0
M  V30 13861 H 1309.6 0.551982 -2.94776 0
M  V30 13862 H 1307.15 0.250728 -1.54276 0
M  V30 13863 H 1307.88 2.78207 -1.66647 0
M  V30 13864 H 1307.67 2.10635 -3.30719 0
M  V30 13865 H 1309.16 3.00761 -2.89711 0
M  V30 13866 N 1309.6 1.55164 0.276031 0
M  V30 13867 C 1310.84 1.7528 1.00604 0
M  V30 13868 C 1311.17 0.555256 1.86928 0
M  V30 13869 O 1310.44 -0.429917 1.91124 0
M  V30 13870 H 1309.02 0.646377 0.374441 0
M  V30 13871 H 1311.68 1.92562 0.300992 0
M  V30 13872 H 1310.77 2.65245 1.64473 0
M  V30 13873 N 1311.07 -0.540404 1.48045 0
M  V30 13874 C 1312.04 -1.62813 1.61322 0
M  V30 13875 C 1313.04 -1.53243 0.487161 0
M  V30 13876 O 1314.23 -1.571 0.752684 0
M  V30 13877 C 1311.36 -3.02408 1.5736 0
M  V30 13878 H 1312.55 -1.52385 2.583 0
M  V30 13879 H 1310.11 -0.761654 1.36486 0
M  V30 13880 H 1310.84 -3.18353 0.618195 0
M  V30 13881 H 1310.63 -3.10763 2.39099 0
M  V30 13882 H 1312.12 -3.8151 1.69822 0
M  V30 13883 N 1312.55 -1.36459 -0.788468 0
M  V30 13884 C 1313.48 -1.26727 -1.90979 0
M  V30 13885 C 1314.5 -0.186572 -1.61727 0
M  V30 13886 O 1315.69 -0.441364 -1.72957 0
M  V30 13887 C 1312.79 -0.932838 -3.25809 0
M  V30 13888 C 1311.96 -2.11562 -3.82832 0
M  V30 13889 C 1311.02 -1.75409 -4.96103 0
M  V30 13890 O 1310.04 -2.47508 -5.1257 0
M  V30 13891 N 1311.25 -0.688327 -5.76405 0
M  V30 13892 H 1314.01 -2.2334 -1.99848 0
M  V30 13893 H 1311.57 -1.29865 -0.966784 0
M  V30 13894 H 1313.56 -0.672131 -3.9908 0
M  V30 13895 H 1312.13 -0.0558103 -3.1255 0
M  V30 13896 H 1311.35 -2.53907 -3.01538 0
M  V30 13897 H 1312.64 -2.9058 -4.17661 0
M  V30 13898 H 1312.04 -0.0896854 -5.65629 0
M  V30 13899 H 1310.6 -0.487446 -6.49975 0
M  V30 13900 N 1314.03 1.01274 -1.20754 0
M  V30 13901 C 1315.28 1.75191 -1.02156 0
M  V30 13902 C 1315.61 1.89038 0.444791 0
M  V30 13903 O 1314.88 1.41903 1.33018 0
M  V30 13904 C 1315.17 3.16892 -1.71031 0
M  V30 13905 C 1315.02 3.10816 -3.25136 0
M  V30 13906 C 1316.34 4.15648 -1.44654 0
M  V30 13907 H 1313.46 0.635922 -0.372521 0
M  V30 13908 H 1316.1 1.18119 -1.48822 0
M  V30 13909 H 1314.25 3.6562 -1.31357 0
M  V30 13910 H 1315.92 2.69863 -3.74128 0
M  V30 13911 H 1314.17 2.48113 -3.5584 0
M  V30 13912 H 1314.84 4.11001 -3.68487 0
M  V30 13913 H 1317.31 3.75592 -1.7908 0
M  V30 13914 H 1316.19 5.12954 -1.95371 0
M  V30 13915 H 1316.45 4.40507 -0.37494 0
M  V30 13916 N 1315.51 1.01404 1.20644 0
M  V30 13917 C 1316.44 0.602465 2.25594 0
M  V30 13918 C 1317.42 -0.381216 1.65773 0
M  V30 13919 O 1318.61 -0.267209 1.92353 0
M  V30 13920 C 1315.74 -0.0626245 3.47244 0
M  V30 13921 C 1314.69 0.841776 4.1964 0
M  V30 13922 C 1314.02 0.0426002 5.34683 0
M  V30 13923 C 1315.32 2.14864 4.76058 0
M  V30 13924 H 1317.01 1.47977 2.60275 0
M  V30 13925 H 1314.56 0.712966 1.25111 0
M  V30 13926 H 1316.51 -0.362095 4.19841 0
M  V30 13927 H 1315.23 -0.974627 3.11719 0
M  V30 13928 H 1313.89 1.12521 3.48905 0
M  V30 13929 H 1313.54 -0.870973 4.95402 0
M  V30 13930 H 1313.24 0.644866 5.84051 0
M  V30 13931 H 1314.76 -0.250476 6.10086 0
M  V30 13932 H 1316.18 1.9117 5.40488 0
M  V30 13933 H 1314.57 2.70153 5.35852 0
M  V30 13934 H 1315.64 2.81336 3.9494 0
M  V30 13935 N 1316.99 -1.36373 0.789944 0
M  V30 13936 C 1317.95 -2.28372 0.194639 0
M  V30 13937 C 1318.95 -1.48849 -0.608332 0
M  V30 13938 O 1320.14 -1.68829 -0.42925 0
M  V30 13939 C 1317.27 -3.3298 -0.730553 0
M  V30 13940 H 1318.47 -2.82529 1.00585 0
M  V30 13941 H 1316.02 -1.45946 0.559406 0
M  V30 13942 H 1316.75 -2.8398 -1.56608 0
M  V30 13943 H 1316.54 -3.91787 -0.156706 0
M  V30 13944 H 1318.03 -4.01684 -1.14192 0
M  V30 13945 N 1318.47 -0.542005 -1.47987 0
M  V30 13946 C 1319.38 0.217677 -2.33588 0
M  V30 13947 C 1320.39 0.927093 -1.47245 0
M  V30 13948 O 1321.57 0.899378 -1.80203 0
M  V30 13949 C 1318.63 1.24376 -3.23622 0
M  V30 13950 C 1317.69 0.543407 -4.25847 0
M  V30 13951 C 1316.93 1.5206 -5.11579 0
M  V30 13952 O 1317.15 2.75425 -4.99497 0
M  V30 13953 O 1316.08 1.05341 -5.9261 0
M  V30 13954 H 1319.91 -0.484089 -2.99817 0
M  V30 13955 H 1317.49 -0.302783 -1.463 0
M  V30 13956 H 1319.38 1.83644 -3.7928 0
M  V30 13957 H 1318.05 1.92772 -2.6004 0
M  V30 13958 H 1316.96 -0.090074 -3.73992 0
M  V30 13959 H 1318.29 -0.0988264 -4.92101 0
M  V30 13960 N 1319.94 1.55134 -0.277709 0
M  V30 13961 C 1321.19 1.99259 0.337662 0
M  V30 13962 C 1321.51 1.16755 1.56183 0
M  V30 13963 O 1320.78 0.257707 1.94198 0
M  V30 13964 H 1319.36 0.735995 0.127751 0
M  V30 13965 H 1322.02 1.91087 -0.383646 0
M  V30 13966 H 1321.12 3.05763 0.625747 0
M  V30 13967 N 1321.42 0.00503138 1.57599 0
M  V30 13968 C 1322.35 -0.983586 2.11773 0
M  V30 13969 C 1323.33 -1.35518 1.02805 0
M  V30 13970 O 1324.52 -1.43804 1.30514 0
M  V30 13971 C 1321.65 -2.27383 2.62515 0
M  V30 13972 C 1320.6 -2.0437 3.76054 0
M  V30 13973 C 1319.93 -3.39451 4.1313 0
M  V30 13974 C 1321.23 -1.40223 5.03125 0
M  V30 13975 H 1322.92 -0.532501 2.94627 0
M  V30 13976 H 1320.47 -0.254696 1.4173 0
M  V30 13977 H 1322.42 -2.96903 2.99043 0
M  V30 13978 H 1321.14 -2.74614 1.7679 0
M  V30 13979 H 1319.8 -1.37275 3.39928 0
M  V30 13980 H 1319.45 -3.84395 3.24422 0
M  V30 13981 H 1319.15 -3.24868 4.89627 0
M  V30 13982 H 1320.68 -4.10279 4.52221 0
M  V30 13983 H 1322.09 -1.99708 5.37392 0
M  V30 13984 H 1320.49 -1.36112 5.8446 0
M  V30 13985 H 1321.56 -0.372073 4.8347 0
M  V30 13986 N 1322.9 -1.55308 -0.267798 0
M  V30 13987 C 1324.32 -1.47264 -0.61526 0
M  V30 13988 C 1324.52 -0.691025 -1.8928 0
M  V30 13989 O 1323.57 -0.211964 -2.51609 0
M  V30 13990 C 1324.88 -2.91519 -0.73739 0
M  V30 13991 C 1326.43 -3.01764 -0.831102 0
M  V30 13992 C 1326.91 -4.47283 -0.984965 0
M  V30 13993 N 1328.4 -4.51134 -1.05036 0
M  V30 13994 C 1329.13 -5.60952 -1.1883 0
M  V30 13995 N 1328.63 -6.80625 -1.29311 0
M  V30 13996 N 1330.42 -5.48705 -1.21982 0
M  V30 13997 H 1322.57 -2.04577 0.57114 0
M  V30 13998 H 1324.84 -0.927908 0.194141 0
M  V30 13999 H 1324.54 -3.51456 0.130974 0
M  V30 14000 H 1324.42 -3.40829 -1.61603 0
M  V30 14001 H 1326.8 -2.4192 -1.68993 0
M  V30 14002 H 1326.88 -2.55698 0.0722509 0
M  V30 14003 H 1326.53 -5.07732 -0.130776 0
M  V30 14004 H 1326.46 -4.91011 -1.90305 0
M  V30 14005 H 1328.95 -3.6493 -0.981551 0
M  V30 14006 H 1329.26 -7.60071 -1.39685 0
M  V30 14007 H 1327.61 -6.83426 -1.26306 0
M  V30 14008 H 1330.8 -4.5415 -1.13428 0
M  V30 14009 H 1330.97 -6.34332 -1.32388 0
M  V30 14010 N 1324.38 0.532545 -1.4833 0
M  V30 14011 C 1325.63 1.28597 -1.55908 0
M  V30 14012 C 1325.95 1.93595 -0.233635 0
M  V30 14013 O 1325.22 1.81197 0.744605 0
M  V30 14014 H 1323.8 0.477619 -0.57436 0
M  V30 14015 H 1326.46 0.619922 -1.84778 0
M  V30 14016 H 1325.55 2.0666 -2.33877 0
M  V30 14017 N 1325.86 1.36875 0.78122 0
M  V30 14018 C 1326.8 1.31941 1.91557 0
M  V30 14019 C 1327.8 0.209783 1.68096 0
M  V30 14020 O 1329 0.377266 1.76002 0
M  V30 14021 H 1325.38 0.410955 0.629778 0
M  V30 14022 H 1327.35 2.27721 1.92836 0
M  V30 14023 C 1326.1 1.13379 3.28695 0
M  V30 14024 H 1325.42 1.98013 3.47319 0
M  V30 14025 H 1326.86 1.13976 4.08394 0
M  V30 14026 C 1325.32 -0.161119 3.36515 0
M  V30 14027 O 1325.85 -1.14806 3.84945 0
M  V30 14028 N 1324.06 -0.208594 2.8985 0
M  V30 14029 H 1323.6 0.595187 2.5063 0
M  V30 14030 H 1323.56 -1.07465 2.95463 0
M  V30 14031 N 1327.33 -1.00632 1.21289 0
M  V30 14032 C 1328.56 -1.77967 1.05524 0
M  V30 14033 C 1328.98 -1.84621 -0.395023 0
M  V30 14034 O 1328.33 -1.30664 -1.27409 0
M  V30 14035 C 1328.38 -3.21939 1.64432 0
M  V30 14036 O 1328.11 -3.15669 3.03784 0
M  V30 14037 C 1329.61 -4.1578 1.5376 0
M  V30 14038 H 1326.83 -0.559341 0.370646 0
M  V30 14039 H 1329.37 -1.26604 1.60598 0
M  V30 14040 H 1327.53 -3.70415 1.13453 0
M  V30 14041 H 1327.94 -4.06112 3.31924 0
M  V30 14042 H 1329.41 -5.14602 1.99722 0
M  V30 14043 H 1329.89 -4.36438 0.491811 0
M  V30 14044 H 1330.5 -3.73192 2.0398 0
M  V30 14045 N 1328.81 -1.02043 -1.20104 0
M  V30 14046 C 1330.04 -0.731142 -1.94085 0
M  V30 14047 C 1330.46 0.702467 -1.74491 0
M  V30 14048 O 1329.82 1.48387 -1.04168 0
M  V30 14049 C 1329.87 -1.07691 -3.44144 0
M  V30 14050 O 1328.97 -0.190751 -4.11959 0
M  V30 14051 H 1328.31 -0.270917 -0.606218 0
M  V30 14052 H 1330.84 -1.36483 -1.52426 0
M  V30 14053 H 1330.85 -1.03023 -3.94779 0
M  V30 14054 H 1329.53 -2.1214 -3.57728 0
M  V30 14055 H 1328.1 -0.29529 -3.71729 0
M  V30 14056 N 1330.29 1.35952 -0.797165 0
M  V30 14057 C 1331.22 2.32506 -0.215277 0
M  V30 14058 C 1332.2 1.57023 0.654046 0
M  V30 14059 O 1333.39 1.85139 0.586268 0
M  V30 14060 C 1330.52 3.41266 0.644557 0
M  V30 14061 C 1329.47 4.27816 -0.125501 0
M  V30 14062 C 1328.8 5.27813 0.855428 0
M  V30 14063 C 1330.1 5.05367 -1.31913 0
M  V30 14064 H 1331.79 2.8142 -1.02193 0
M  V30 14065 H 1329.34 1.35303 -0.492862 0
M  V30 14066 H 1331.29 4.07808 1.06163 0
M  V30 14067 H 1330.01 2.90938 1.484 0
M  V30 14068 H 1328.67 3.62841 -0.523639 0
M  V30 14069 H 1328.32 4.73755 1.69011 0
M  V30 14070 H 1328.02 5.86589 0.344566 0
M  V30 14071 H 1329.54 5.97227 1.2709 0
M  V30 14072 H 1330.96 5.64907 -0.977418 0
M  V30 14073 H 1329.36 5.73593 -1.76382 0
M  V30 14074 H 1330.43 4.36558 -2.11057 0
M  V30 14075 N 1331.77 0.549846 1.47697 0
M  V30 14076 C 1332.7 -0.239345 2.27947 0
M  V30 14077 C 1333.71 -0.886206 1.36566 0
M  V30 14078 O 1334.9 -0.761298 1.61451 0
M  V30 14079 C 1332 -1.35591 3.10593 0
M  V30 14080 C 1331.18 -0.807234 4.29887 0
M  V30 14081 C 1330.23 -1.80738 4.94187 0
M  V30 14082 O 1329.26 -1.35641 5.52802 0
M  V30 14083 N 1330.46 -3.14046 4.88216 0
M  V30 14084 H 1333.23 0.449001 2.96318 0
M  V30 14085 H 1330.79 0.385443 1.57245 0
M  V30 14086 H 1332.78 -2.02356 3.50477 0
M  V30 14087 H 1331.35 -1.94761 2.44514 0
M  V30 14088 H 1330.57 0.0369877 3.94183 0
M  V30 14089 H 1331.86 -0.419877 5.07065 0
M  V30 14090 H 1331.26 -3.53335 4.41781 0
M  V30 14091 H 1329.81 -3.7639 5.32141 0
M  V30 14092 N 1333.25 -1.54984 0.285932 0
M  V30 14093 C 1334.49 -1.9983 -0.327737 0
M  V30 14094 C 1334.82 -1.17435 -1.55046 0
M  V30 14095 O 1334.08 -0.234735 -1.94287 0
M  V30 14096 C 1334.38 -3.49581 -0.7435 0
M  V30 14097 C 1334.04 -4.49331 0.375792 0
M  V30 14098 C 1332.7 -4.76327 0.683103 0
M  V30 14099 C 1335.06 -5.08815 1.12947 0
M  V30 14100 C 1332.38 -5.60071 1.74748 0
M  V30 14101 C 1334.74 -5.93716 2.18366 0
M  V30 14102 C 1333.4 -6.19028 2.4972 0
M  V30 14103 H 1332.67 -0.731231 -0.119928 0
M  V30 14104 H 1335.32 -1.87235 0.401896 0
M  V30 14105 H 1333.62 -3.59708 -1.55298 0
M  V30 14106 H 1335.32 -3.81694 -1.22924 0
M  V30 14107 H 1331.91 -4.28414 0.126159 0
M  V30 14108 H 1336.09 -4.87973 0.905313 0
M  V30 14109 H 1331.35 -5.77925 1.9953 0
M  V30 14110 H 1335.52 -6.38838 2.77233 0
M  V30 14111 H 1333.15 -6.83711 3.3233 0
M  V30 14112 N 1334.72 -0.0133892 -1.57594 0
M  V30 14113 C 1335.65 0.972341 -2.12292 0
M  V30 14114 C 1336.64 1.34971 -1.03522 0
M  V30 14115 O 1337.82 1.4311 -1.31275 0
M  V30 14116 C 1334.95 2.25988 -2.63717 0
M  V30 14117 C 1333.9 2.02373 -3.77133 0
M  V30 14118 C 1333.23 3.37256 -4.14925 0
M  V30 14119 C 1334.53 1.37553 -5.03861 0
M  V30 14120 H 1336.22 0.516869 -2.94905 0
M  V30 14121 H 1333.77 0.247176 -1.41863 0
M  V30 14122 H 1335.72 2.95313 -3.00613 0
M  V30 14123 H 1334.45 2.73672 -1.78244 0
M  V30 14124 H 1333.11 1.3547 -3.40651 0
M  V30 14125 H 1332.75 3.82669 -3.26456 0
M  V30 14126 H 1332.45 3.22267 -4.91343 0
M  V30 14127 H 1333.98 4.07875 -4.5439 0
M  V30 14128 H 1335.39 1.96855 -5.38443 0
M  V30 14129 H 1333.79 1.33011 -5.85174 0
M  V30 14130 H 1334.86 0.346429 -4.83661 0
M  V30 14131 N 1336.2 1.55448 0.259558 0
M  V30 14132 C 1337.45 1.76337 0.987396 0
M  V30 14133 C 1337.77 0.57505 1.86328 0
M  V30 14134 O 1337.04 -0.409621 1.9157 0
M  V30 14135 H 1335.62 0.650312 0.367565 0
M  V30 14136 H 1338.28 1.9287 0.280551 0
M  V30 14137 H 1337.38 2.66975 1.61651 0
M  V30 14138 N 1337.68 -0.524672 1.4861 0
M  V30 14139 C 1338.93 -1.28021 1.56898 0
M  V30 14140 C 1339.26 -1.92948 0.245203 0
M  V30 14141 O 1338.51 -1.8013 -0.764966 0
M  V30 14142 C 1338.81 -2.3871 2.65993 0
M  V30 14143 C 1338.48 -1.914 4.08261 0
M  V30 14144 C 1337.14 -1.78215 4.46982 0
M  V30 14145 C 1339.49 -1.55713 4.97396 0
M  V30 14146 C 1336.82 -1.27687 5.72637 0
M  V30 14147 C 1339.17 -1.06645 6.23546 0
M  V30 14148 C 1337.83 -0.920818 6.61118 0
M  V30 14149 H 1337.1 -0.468461 0.57413 0
M  V30 14150 H 1339.75 -0.584901 1.82349 0
M  V30 14151 H 1338.06 -3.13932 2.34422 0
M  V30 14152 H 1339.75 -2.96827 2.6962 0
M  V30 14153 H 1336.34 -2.02614 3.77684 0
M  V30 14154 H 1340.53 -1.64757 4.68155 0
M  V30 14155 H 1335.78 -1.15103 6.00468 0
M  V30 14156 H 1339.96 -0.781048 6.92006 0
M  V30 14157 H 1337.58 -0.527091 7.5837 0
M  V30 14158 N 1339.16 -1.37287 -0.77395 0
M  V30 14159 C 1340.4 -1.33577 -1.53391 0
M  V30 14160 C 1340.76 0.0798979 -1.92234 0
M  V30 14161 O 1340.05 1.03803 -1.61045 0
M  V30 14162 C 1340.25 -2.20667 -2.81142 0
M  V30 14163 C 1340.08 -3.70559 -2.54786 0
M  V30 14164 C 1338.85 -4.39675 -2.49025 0
M  V30 14165 C 1341.04 -4.63472 -2.22932 0
M  V30 14166 N 1339.03 -5.75121 -2.14729 0
M  V30 14167 C 1340.4 -5.87279 -1.98756 0
M  V30 14168 C 1342.45 -4.51879 -2.09068 0
M  V30 14169 C 1341.15 -7.00793 -1.62117 0
M  V30 14170 C 1343.18 -5.65276 -1.7383 0
M  V30 14171 C 1342.54 -6.88132 -1.50513 0
M  V30 14172 H 1338.64 -0.544075 -0.561699 0
M  V30 14173 H 1341.23 -1.72487 -0.903115 0
M  V30 14174 H 1339.4 -1.83976 -3.42063 0
M  V30 14175 H 1341.13 -2.08231 -3.47019 0
M  V30 14176 H 1337.88 -3.92653 -2.64804 0
M  V30 14177 H 1338.31 -6.46696 -2.00284 0
M  V30 14178 H 1342.95 -3.57468 -2.25779 0
M  V30 14179 H 1340.67 -7.9514 -1.44145 0
M  V30 14180 H 1344.25 -5.58276 -1.63765 0
M  V30 14181 H 1343.13 -7.74391 -1.23648 0
M  V30 14182 N 1340.64 0.999871 -1.21821 0
M  V30 14183 C 1341.88 1.73497 -1.0365 0
M  V30 14184 C 1342.21 1.90194 0.430271 0
M  V30 14185 O 1341.48 1.45655 1.31002 0
M  V30 14186 H 1340.06 0.642804 -0.380541 0
M  V30 14187 H 1342.72 1.20461 -1.53216 0
M  V30 14188 H 1341.81 2.73215 -1.50864 0
M  V30 14189 N 1342.11 1.02678 1.19562 0
M  V30 14190 C 1343.06 0.599259 2.24748 0
M  V30 14191 C 1344.06 -0.367079 1.65375 0
M  V30 14192 O 1345.26 -0.235887 1.78448 0
M  V30 14193 H 1341.64 0.175517 0.73123 0
M  V30 14194 H 1343.61 1.4971 2.58127 0
M  V30 14195 C 1342.36 -0.0362515 3.47681 0
M  V30 14196 H 1341.68 0.698343 3.93654 0
M  V30 14197 H 1343.12 -0.298361 4.22949 0
M  V30 14198 C 1341.58 -1.28218 3.11547 0
M  V30 14199 O 1342.11 -2.37446 3.24009 0
M  V30 14200 N 1340.32 -1.17014 2.66 0
M  V30 14201 H 1339.86 -0.28132 2.56059 0
M  V30 14202 H 1339.82 -2.00473 2.42194 0
M  V30 14203 N 1343.59 -1.35528 0.804364 0
M  V30 14204 C 1345.01 -1.51962 0.487831 0
M  V30 14205 C 1345.21 -1.75426 -0.991353 0
M  V30 14206 O 1344.26 -1.7944 -1.77644 0
M  V30 14207 C 1345.58 -2.69626 1.33126 0
M  V30 14208 C 1347.13 -2.83502 1.32648 0
M  V30 14209 C 1347.6 -4.04188 2.15397 0
M  V30 14210 N 1349.09 -4.11362 2.12922 0
M  V30 14211 C 1349.83 -5.03856 2.73709 0
M  V30 14212 N 1349.32 -6.01696 3.43415 0
M  V30 14213 N 1351.12 -4.96585 2.63363 0
M  V30 14214 H 1343.27 -1.18553 1.76235 0
M  V30 14215 H 1345.53 -0.57986 0.749977 0
M  V30 14216 H 1345.24 -2.58857 2.38088 0
M  V30 14217 H 1345.11 -3.64168 0.982934 0
M  V30 14218 H 1347.5 -2.93723 0.284712 0
M  V30 14219 H 1347.58 -1.89824 1.71466 0
M  V30 14220 H 1347.22 -3.94728 3.19613 0
M  V30 14221 H 1347.15 -4.97044 1.7394 0
M  V30 14222 H 1349.64 -3.41319 1.62203 0
M  V30 14223 H 1349.96 -6.68866 3.8709 0
M  V30 14224 H 1348.3 -6.01877 3.47519 0
M  V30 14225 H 1351.49 -4.19103 2.08496 0
M  V30 14226 H 1351.66 -5.68478 3.11026 0
M  V30 14227 N 1345.07 -0.557671 -1.47404 0
M  V30 14228 C 1346.32 -0.0338384 -2.02772 0
M  V30 14229 C 1346.65 1.31278 -1.43107 0
M  V30 14230 O 1345.93 1.85436 -0.58682 0
M  V30 14231 C 1346.21 0.0587427 -3.60052 0
M  V30 14232 C 1346.06 -1.315 -4.30148 0
M  V30 14233 C 1347.38 0.771942 -4.33277 0
M  V30 14234 H 1344.5 -0.0137711 -0.736871 0
M  V30 14235 H 1347.14 -0.720049 -1.75827 0
M  V30 14236 H 1345.29 0.643154 -3.83139 0
M  V30 14237 H 1346.96 -1.94265 -4.184 0
M  V30 14238 H 1345.21 -1.88956 -3.90484 0
M  V30 14239 H 1345.88 -1.20294 -5.38733 0
M  V30 14240 H 1348.35 0.275729 -4.15185 0
M  V30 14241 H 1347.23 0.805683 -5.42955 0
M  V30 14242 H 1347.49 1.82816 -4.0253 0
M  V30 14243 N 1346.55 1.54831 -0.294147 0
M  V30 14244 C 1347.8 1.99606 0.316509 0
M  V30 14245 C 1348.12 1.18405 1.54936 0
M  V30 14246 O 1347.39 0.278289 1.93913 0
M  V30 14247 H 1345.97 0.737309 0.119938 0
M  V30 14248 H 1348.63 1.90669 -0.403891 0
M  V30 14249 H 1347.73 3.06409 0.593282 0
M  V30 14250 N 1348.03 0.0217466 1.57585 0
M  V30 14251 C 1349.3 -0.696733 1.8277 0
M  V30 14252 C 1349.68 -1.90759 0.904112 0
M  V30 14253 O 1349.03 -2.28461 -0.0420522 0
M  V30 14254 C 1349.24 -1.08193 3.31806 0
M  V30 14255 C 1350.59 -1.47667 3.98095 0
M  V30 14256 O 1351.61 -1.17511 3.36258 0
M  V30 14257 O 1350.47 -2.03825 5.07068 0
M  V30 14258 H 1347.57 -0.341141 0.75336 0
M  V30 14259 H 1350.11 0.0488652 1.6963 0
M  V30 14260 H 1348.89 -0.219799 3.90682 0
M  V30 14261 H 1348.51 -1.88593 3.50026 0
M  V30 14262 N 1349.51 -1.55583 -0.251311 0
M  V30 14263 C 1350.42 -1.93073 -1.33266 0
M  V30 14264 C 1351.43 -0.830612 -1.52895 0
M  V30 14265 O 1352.61 -1.13162 -1.66602 0
M  V30 14266 C 1349.67 -2.21396 -2.66805 0
M  V30 14267 C 1348.73 -3.44815 -2.55737 0
M  V30 14268 C 1347.97 -3.71777 -3.82907 0
M  V30 14269 O 1348.19 -3.00884 -4.84587 0
M  V30 14270 O 1347.12 -4.65305 -3.81805 0
M  V30 14271 H 1350.95 -2.85168 -1.04465 0
M  V30 14272 H 1348.53 -1.42408 -0.451693 0
M  V30 14273 H 1350.42 -2.4094 -3.45725 0
M  V30 14274 H 1349.09 -1.3248 -2.95348 0
M  V30 14275 H 1348 -3.30582 -1.75118 0
M  V30 14276 H 1349.33 -4.34019 -2.32139 0
M  V30 14277 N 1350.98 0.516783 -1.48886 0
M  V30 14278 C 1352.23 1.26936 -1.57263 0
M  V30 14279 C 1352.55 1.93337 -0.254156 0
M  V30 14280 O 1351.82 1.81977 0.725345 0
M  V30 14281 H 1350.4 0.4715 -0.579393 0
M  V30 14282 H 1353.06 0.600289 -1.85425 0
M  V30 14283 H 1352.16 2.04167 -2.36055 0
M  V30 14284 N 1352.46 1.37696 0.766659 0
M  V30 14285 C 1353.42 1.33688 1.86172 0
M  V30 14286 C 1354.42 0.239922 1.59 0
M  V30 14287 O 1355.61 0.496066 1.66988 0
M  V30 14288 C 1352.75 1.07807 3.23405 0
M  V30 14289 H 1353.94 2.311 1.91136 0
M  V30 14290 H 1351.49 1.22799 0.966961 0
M  V30 14291 H 1352.23 0.109477 3.24115 0
M  V30 14292 H 1352.01 1.87213 3.4452 0
M  V30 14293 H 1353.5 1.07665 4.03482 0
M  V30 14294 N 1353.94 -0.993397 1.22349 0
M  V30 14295 C 1354.87 -2.08543 0.950925 0
M  V30 14296 C 1355.88 -1.62648 -0.0702741 0
M  V30 14297 O 1357.07 -1.77748 0.16367 0
M  V30 14298 C 1354.17 -3.36429 0.408466 0
M  V30 14299 C 1353.35 -4.11356 1.48676 0
M  V30 14300 C 1352.41 -5.17526 0.951478 0
M  V30 14301 O 1351.43 -5.45135 1.63757 0
M  V30 14302 N 1352.63 -5.80055 -0.227378 0
M  V30 14303 H 1355.4 -2.32506 1.89106 0
M  V30 14304 H 1352.96 -1.15911 1.13032 0
M  V30 14305 H 1354.95 -4.04684 0.0356968 0
M  V30 14306 H 1353.52 -3.09534 -0.436767 0
M  V30 14307 H 1352.74 -3.37739 2.03288 0
M  V30 14308 H 1354.03 -4.58187 2.21228 0
M  V30 14309 H 1353.43 -5.59992 -0.801601 0
M  V30 14310 H 1351.98 -6.49546 -0.541538 0
M  V30 14311 N 1355.42 -1.03311 -1.19015 0
M  V30 14312 C 1356.38 -0.622114 -2.20596 0
M  V30 14313 C 1357.38 0.316502 -1.57654 0
M  V30 14314 O 1358.57 0.102932 -1.73896 0
M  V30 14315 C 1355.7 0.0890432 -3.40784 0
M  V30 14316 H 1356.9 -1.52095 -2.58471 0
M  V30 14317 H 1354.45 -0.824777 -1.32767 0
M  V30 14318 H 1355.18 1.00203 -3.08431 0
M  V30 14319 H 1354.97 -0.58547 -3.87704 0
M  V30 14320 H 1356.46 0.363366 -4.16016 0
M  V30 14321 N 1356.9 1.35099 -0.81154 0
M  V30 14322 C 1357.83 2.32264 -0.239925 0
M  V30 14323 C 1358.81 1.57708 0.637354 0
M  V30 14324 O 1359.99 1.85751 0.566598 0
M  V30 14325 C 1357.12 3.41931 0.608325 0
M  V30 14326 C 1356.08 4.27659 -0.170869 0
M  V30 14327 C 1355.4 5.28691 0.799398 0
M  V30 14328 C 1356.7 5.0394 -1.37266 0
M  V30 14329 H 1358.4 2.8032 -1.05172 0
M  V30 14330 H 1355.94 1.34773 -0.507185 0
M  V30 14331 H 1357.89 4.08911 1.01832 0
M  V30 14332 H 1356.62 2.92496 1.45306 0
M  V30 14333 H 1355.28 3.62265 -0.562094 0
M  V30 14334 H 1354.93 4.75521 1.63977 0
M  V30 14335 H 1354.63 5.86921 0.282331 0
M  V30 14336 H 1356.15 5.98542 1.20749 0
M  V30 14337 H 1357.56 5.63838 -1.03728 0
M  V30 14338 H 1355.96 5.7169 -1.82456 0
M  V30 14339 H 1357.03 4.34295 -2.15676 0
M  V30 14340 N 1358.37 0.56548 1.47106 0
M  V30 14341 C 1359.34 -0.167191 2.28589 0
M  V30 14342 C 1360.34 -0.835005 1.3742 0
M  V30 14343 O 1361.53 -0.689598 1.59969 0
M  V30 14344 C 1358.66 -1.24548 3.17333 0
M  V30 14345 H 1359.85 0.548677 2.94838 0
M  V30 14346 H 1357.4 0.322749 1.52931 0
M  V30 14347 H 1358.14 -1.99348 2.55794 0
M  V30 14348 H 1357.92 -0.771335 3.84438 0
M  V30 14349 H 1359.41 -1.75985 3.78707 0
M  V30 14350 N 1359.85 -1.54672 0.302354 0
M  V30 14351 C 1360.76 -2.27251 -0.582578 0
M  V30 14352 C 1361.78 -1.30819 -1.14727 0
M  V30 14353 O 1362.95 -1.63803 -1.17177 0
M  V30 14354 C 1360.02 -3.00016 -1.73757 0
M  V30 14355 C 1359.08 -4.11988 -1.20682 0
M  V30 14356 C 1358.31 -4.81273 -2.30676 0
M  V30 14357 O 1358.54 -4.49927 -3.50602 0
M  V30 14358 O 1357.47 -5.68647 -1.97291 0
M  V30 14359 H 1361.3 -3.03699 0.00621365 0
M  V30 14360 H 1358.88 -1.49242 0.0687684 0
M  V30 14361 H 1360.76 -3.45652 -2.41045 0
M  V30 14362 H 1359.44 -2.26462 -2.31294 0
M  V30 14363 H 1358.35 -3.70749 -0.499625 0
M  V30 14364 H 1359.68 -4.87524 -0.676858 0
M  V30 14365 N 1361.33 -0.0301034 -1.57571 0
M  V30 14366 C 1362.29 0.936465 -2.09196 0
M  V30 14367 C 1363.29 1.25347 -1.00722 0
M  V30 14368 O 1364.48 1.19364 -1.26877 0
M  V30 14369 C 1361.62 2.2527 -2.55864 0
M  V30 14370 H 1362.81 0.489332 -2.95881 0
M  V30 14371 H 1360.36 0.217948 -1.54773 0
M  V30 14372 H 1361.1 2.7461 -1.72511 0
M  V30 14373 H 1360.88 2.03573 -3.35113 0
M  V30 14374 H 1362.37 2.94549 -2.96025 0
M  V30 14375 N 1362.81 1.55714 0.243056 0
M  V30 14376 C 1363.74 1.93655 1.30461 0
M  V30 14377 C 1364.72 0.801968 1.50008 0
M  V30 14378 O 1365.9 1.06256 1.62552 0
M  V30 14379 C 1363.03 2.23459 2.65863 0
M  V30 14380 C 1361.99 3.39205 2.61006 0
M  V30 14381 C 1361.31 3.5456 4.00239 0
M  V30 14382 C 1362.61 4.74787 2.17656 0
M  V30 14383 H 1364.31 2.82575 0.98954 0
M  V30 14384 H 1361.85 1.35955 0.474572 0
M  V30 14385 H 1363.81 2.48591 3.40266 0
M  V30 14386 H 1362.53 1.31369 2.99014 0
M  V30 14387 H 1361.19 3.14088 1.89061 0
M  V30 14388 H 1360.84 2.59884 4.30661 0
M  V30 14389 H 1360.54 4.32399 3.97876 0
M  V30 14390 H 1362.06 3.82017 4.76335 0
M  V30 14391 H 1363.48 4.99266 2.81792 0
M  V30 14392 H 1361.87 5.55756 2.26397 0
M  V30 14393 H 1362.94 4.7159 1.12831 0
M  V30 14394 N 1364.29 -0.50888 1.49158 0
M  V30 14395 C 1365.53 -1.261 1.57934 0
M  V30 14396 C 1365.86 -1.93199 0.264405 0
M  V30 14397 O 1365.13 -1.82359 -0.715684 0
M  V30 14398 H 1363.71 -0.468421 0.581886 0
M  V30 14399 H 1366.37 -0.590447 1.85741 0
M  V30 14400 H 1365.46 -2.02913 2.37135 0
M  V30 14401 N 1365.76 -1.381 -0.759346 0
M  V30 14402 C 1367.04 -1.24517 -1.50847 0
M  V30 14403 C 1367.42 0.155929 -2.10523 0
M  V30 14404 O 1366.77 1.16485 -1.96579 0
M  V30 14405 C 1366.98 -2.35086 -2.57945 0
M  V30 14406 C 1368.33 -2.73232 -3.25007 0
M  V30 14407 O 1369.35 -2.34355 -2.68247 0
M  V30 14408 O 1368.21 -3.40254 -4.27656 0
M  V30 14409 H 1365.3 -0.486599 -0.668693 0
M  V30 14410 H 1367.85 -1.49913 -0.795249 0
M  V30 14411 H 1366.62 -3.28858 -2.12056 0
M  V30 14412 H 1366.25 -2.11222 -3.36854 0
M  V30 14413 N 1367.24 0.986894 -1.22875 0
M  V30 14414 C 1368.19 2.06271 -0.971398 0
M  V30 14415 C 1369.18 1.607 0.0802173 0
M  V30 14416 O 1370.37 1.76514 -0.131079 0
M  V30 14417 C 1367.5 3.38743 -0.557524 0
M  V30 14418 C 1366.58 3.90931 -1.64419 0
M  V30 14419 N 1366.97 4.16273 -2.87315 0
M  V30 14420 C 1365.27 4.19398 -1.51727 0
M  V30 14421 C 1365.97 4.5878 -3.57625 0
M  V30 14422 N 1364.95 4.62828 -2.85116 0
M  V30 14423 H 1368.75 2.23814 -1.90485 0
M  V30 14424 H 1366.27 1.16913 -1.12717 0
M  V30 14425 H 1368.26 4.1539 -0.354453 0
M  V30 14426 H 1366.92 3.22597 0.368957 0
M  V30 14427 H 1367.93 4.04288 -3.23684 0
M  V30 14428 H 1364.61 4.12291 -0.65742 0
M  V30 14429 H 1366 4.8696 -4.62947 0
M  V30 14430 N 1368.72 1.0394 1.18466 0
M  V30 14431 C 1369.65 0.587413 2.21545 0
M  V30 14432 C 1370.67 -0.34227 1.59161 0
M  V30 14433 O 1371.85 -0.136988 1.77974 0
M  V30 14434 C 1368.95 -0.161999 3.38513 0
M  V30 14435 C 1368.13 0.775243 4.30475 0
M  V30 14436 C 1367.19 0.0693526 5.26154 0
M  V30 14437 O 1366.21 0.69937 5.64887 0
M  V30 14438 N 1367.41 -1.19773 5.68009 0
M  V30 14439 H 1370.18 1.47399 2.60948 0
M  V30 14440 H 1367.74 0.919734 1.33239 0
M  V30 14441 H 1369.73 -0.644041 3.99542 0
M  V30 14442 H 1368.3 -0.950099 2.97812 0
M  V30 14443 H 1367.52 1.43717 3.67068 0
M  V30 14444 H 1368.81 1.41187 4.88819 0
M  V30 14445 H 1368.21 -1.73013 5.38593 0
M  V30 14446 H 1366.77 -1.62407 6.31243 0
M  V30 14447 N 1370.2 -1.34667 0.818693 0
M  V30 14448 C 1371.42 -2.03173 0.416585 0
M  V30 14449 C 1371.85 -1.61261 -0.968321 0
M  V30 14450 O 1371.21 -0.79517 -1.62932 0
M  V30 14451 C 1371.25 -3.56803 0.521884 0
M  V30 14452 O 1370.36 -4.09827 -0.459953 0
M  V30 14453 H 1369.7 -0.6413 0.172136 0
M  V30 14454 H 1372.23 -1.72006 1.10794 0
M  V30 14455 H 1372.24 -4.06073 0.3961 0
M  V30 14456 H 1370.91 -3.86656 1.53198 0
M  V30 14457 H 1369.49 -3.71744 -0.293405 0
M  V30 14458 N 1371.68 -0.573274 -1.46804 0
M  V30 14459 C 1372.61 0.153316 -2.32996 0
M  V30 14460 C 1373.59 0.893013 -1.44773 0
M  V30 14461 O 1374.77 0.870329 -1.73606 0
M  V30 14462 C 1371.9 1.1736 -3.2687 0
M  V30 14463 C 1370.86 0.549347 -4.2446 0
M  V30 14464 C 1370.18 1.67542 -5.07773 0
M  V30 14465 C 1371.48 -0.50736 -5.1983 0
M  V30 14466 H 1373.18 -0.566305 -2.93995 0
M  V30 14467 H 1370.72 -0.273785 -1.41373 0
M  V30 14468 H 1372.68 1.6902 -3.86019 0
M  V30 14469 H 1371.4 1.92337 -2.63958 0
M  V30 14470 H 1370.06 0.0539142 -3.6656 0
M  V30 14471 H 1369.71 2.41463 -4.41253 0
M  V30 14472 H 1369.41 1.26343 -5.73856 0
M  V30 14473 H 1370.93 2.19496 -5.69784 0
M  V30 14474 H 1372.34 -0.0762061 -5.73249 0
M  V30 14475 H 1370.74 -0.839139 -5.94204 0
M  V30 14476 H 1371.81 -1.39723 -4.64333 0
M  V30 14477 N 1373.15 1.5451 -0.310553 0
M  V30 14478 C 1374.57 1.59543 0.0425296 0
M  V30 14479 C 1374.77 1.32737 1.51602 0
M  V30 14480 O 1373.83 1.10543 2.27016 0
M  V30 14481 C 1375.14 2.98489 -0.364002 0
M  V30 14482 C 1376.69 3.11425 -0.313566 0
M  V30 14483 C 1377.16 4.52695 -0.695064 0
M  V30 14484 N 1378.65 4.58645 -0.647966 0
M  V30 14485 C 1379.39 5.66044 -0.915508 0
M  V30 14486 N 1378.88 6.81439 -1.24951 0
M  V30 14487 N 1380.68 5.55759 -0.841933 0
M  V30 14488 H 1372.83 1.70194 -1.27074 0
M  V30 14489 H 1375.09 0.795374 -0.515833 0
M  V30 14490 H 1374.8 3.23061 -1.39012 0
M  V30 14491 H 1374.67 3.76177 0.27756 0
M  V30 14492 H 1377.06 2.86596 0.703326 0
M  V30 14493 H 1377.14 2.35871 -0.989883 0
M  V30 14494 H 1376.78 4.78255 -1.70981 0
M  V30 14495 H 1376.71 5.266 0.00342684 0
M  V30 14496 H 1379.2 3.75765 -0.401137 0
M  V30 14497 H 1379.52 7.59277 -1.43938 0
M  V30 14498 H 1377.86 6.82968 -1.28764 0
M  V30 14499 H 1381.05 4.64486 -0.58058 0
M  V30 14500 H 1381.23 6.39374 -1.0538 0
M  V30 14501 N 1374.63 0.0384594 1.57553 0
M  V30 14502 C 1375.88 -0.633249 1.93291 0
M  V30 14503 C 1376.23 -1.69196 0.915995 0
M  V30 14504 O 1375.53 -1.91484 -0.0666597 0
M  V30 14505 C 1375.72 -1.28439 3.33524 0
M  V30 14506 C 1375.55 -0.290279 4.48762 0
M  V30 14507 C 1374.32 0.113206 5.05173 0
M  V30 14508 C 1376.52 0.459201 5.12246 0
M  V30 14509 N 1374.5 1.10151 6.03937 0
M  V30 14510 C 1375.87 1.30097 6.06197 0
M  V30 14511 C 1377.93 0.518891 4.95189 0
M  V30 14512 C 1376.63 2.19706 6.84924 0
M  V30 14513 C 1378.66 1.40236 5.74533 0
M  V30 14514 C 1378.02 2.23189 6.68106 0
M  V30 14515 H 1374.12 -0.203752 0.754989 0
M  V30 14516 H 1376.7 0.107819 1.94401 0
M  V30 14517 H 1374.87 -1.99555 3.33215 0
M  V30 14518 H 1376.6 -1.91388 3.56585 0
M  V30 14519 H 1373.36 -0.26316 4.72868 0
M  V30 14520 H 1373.78 1.59218 6.58011 0
M  V30 14521 H 1378.42 -0.108201 4.22662 0
M  V30 14522 H 1376.14 2.83467 7.56751 0
M  V30 14523 H 1379.73 1.45295 5.63365 0
M  V30 14524 H 1378.61 2.90443 7.28432 0
M  V30 14525 N 1376.11 -1.55841 -0.234795 0
M  V30 14526 C 1377.04 -1.94344 -1.29432 0
M  V30 14527 C 1378.02 -0.809912 -1.49581 0
M  V30 14528 O 1379.21 -1.07117 -1.61986 0
M  V30 14529 C 1376.34 -2.24866 -2.64675 0
M  V30 14530 C 1375.29 -3.40584 -2.59203 0
M  V30 14531 C 1374.62 -3.56678 -3.98353 0
M  V30 14532 C 1375.92 -4.75935 -2.15135 0
M  V30 14533 H 1377.61 -2.83096 -0.97454 0
M  V30 14534 H 1375.16 -1.36205 -0.467355 0
M  V30 14535 H 1377.11 -2.50392 -3.38942 0
M  V30 14536 H 1375.83 -1.32953 -2.98314 0
M  V30 14537 H 1374.49 -3.15087 -1.87393 0
M  V30 14538 H 1374.14 -2.62164 -4.29277 0
M  V30 14539 H 1373.84 -4.34503 -3.95577 0
M  V30 14540 H 1375.37 -3.84538 -4.74302 0
M  V30 14541 H 1376.78 -5.00753 -2.7914 0
M  V30 14542 H 1375.18 -5.56949 -2.23446 0
M  V30 14543 H 1376.25 -4.72182 -1.10328 0
M  V30 14544 N 1377.59 0.500963 -1.49426 0
M  V30 14545 C 1378.81 1.28383 -1.62888 0
M  V30 14546 C 1379.24 1.85688 -0.300262 0
M  V30 14547 O 1378.6 1.6586 0.73212 0
M  V30 14548 C 1378.65 2.38987 -2.70033 0
M  V30 14549 O 1377.75 3.42837 -2.29208 0
M  V30 14550 H 1377.09 0.379012 -0.545202 0
M  V30 14551 H 1379.62 0.59971 -1.95613 0
M  V30 14552 H 1379.63 2.84749 -2.92202 0
M  V30 14553 H 1378.31 1.96643 -3.66475 0
M  V30 14554 H 1376.88 3.02993 -2.1737 0
M  V30 14555 N 1379.07 1.38501 0.752011 0
M  V30 14556 C 1380 1.38577 1.87933 0
M  V30 14557 C 1380.98 0.251454 1.68231 0
M  V30 14558 O 1382.16 0.45477 1.888 0
M  V30 14559 C 1379.29 1.21164 3.25479 0
M  V30 14560 C 1378.25 2.31816 3.59785 0
M  V30 14561 C 1377.57 1.99508 4.96085 0
M  V30 14562 C 1378.87 3.74082 3.645 0
M  V30 14563 H 1380.57 2.32913 1.88127 0
M  V30 14564 H 1378.11 1.12113 0.903698 0
M  V30 14565 H 1380.07 1.19842 4.04 0
M  V30 14566 H 1378.79 0.232899 3.25769 0
M  V30 14567 H 1377.45 2.32327 2.83584 0
M  V30 14568 H 1377.1 1.00114 4.92936 0
M  V30 14569 H 1376.8 2.73617 5.20007 0
M  V30 14570 H 1378.32 1.99807 5.76983 0
M  V30 14571 H 1379.74 3.75593 4.33131 0
M  V30 14572 H 1378.13 4.47409 3.99931 0
M  V30 14573 H 1379.2 4.06284 2.64692 0
M  V30 14574 N 1380.55 -0.980364 1.23396 0
M  V30 14575 C 1381.79 -1.72421 1.06765 0
M  V30 14576 C 1382.12 -1.90151 -0.394515 0
M  V30 14577 O 1381.4 -1.4538 -1.29209 0
M  V30 14578 C 1381.68 -3.12246 1.79372 0
M  V30 14579 C 1381.54 -3.02087 3.33262 0
M  V30 14580 C 1382.85 -4.11667 1.55624 0
M  V30 14581 H 1379.97 -0.625822 0.389251 0
M  V30 14582 H 1382.62 -1.14132 1.51901 0
M  V30 14583 H 1380.77 -3.62008 1.41004 0
M  V30 14584 H 1382.44 -2.59848 3.81152 0
M  V30 14585 H 1380.68 -2.38592 3.62293 0
M  V30 14586 H 1381.35 -4.01087 3.79254 0
M  V30 14587 H 1383.83 -3.70712 1.88975 0
M  V30 14588 H 1382.7 -5.07593 2.08902 0
M  V30 14589 H 1382.96 -4.39358 0.491601 0
M  V30 14590 N 1382.02 -1.04567 -1.17913 0
M  V30 14591 C 1383.27 -0.750538 -1.87647 0
M  V30 14592 C 1383.59 0.72423 -1.81052 0
M  V30 14593 O 1382.86 1.52292 -1.23223 0
M  V30 14594 H 1381.44 -0.274636 -0.694683 0
M  V30 14595 H 1384.1 -1.32349 -1.43072 0
M  V30 14596 H 1383.2 -1.05987 -2.93553 0
M  V30 14597 N 1383.5 1.34231 -0.825823 0
M  V30 14598 C 1384.45 2.31378 -0.23809 0
M  V30 14599 C 1385.44 1.57537 0.622767 0
M  V30 14600 O 1386.65 1.72512 0.513783 0
M  V30 14601 H 1383.02 0.74974 -0.0582516 0
M  V30 14602 H 1385 2.78471 -1.07221 0
M  V30 14603 C 1383.74 3.42778 0.582969 0
M  V30 14604 H 1383.07 3.99739 -0.0701208 0
M  V30 14605 H 1384.51 4.12983 0.960266 0
M  V30 14606 C 1382.97 2.87486 1.75651 0
M  V30 14607 O 1383.5 2.82603 2.85479 0
M  V30 14608 N 1381.7 2.4427 1.57418 0
M  V30 14609 H 1381.25 2.48441 0.680792 0
M  V30 14610 H 1381.21 2.07626 2.36091 0
M  V30 14611 N 1384.98 0.581051 1.46498 0
M  V30 14612 C 1385.93 -0.165944 2.32007 0
M  V30 14613 C 1386.92 -0.886015 1.44382 0
M  V30 14614 O 1388.13 -0.804592 1.61017 0
M  V30 14615 H 1384.5 -0.0723834 0.748508 0
M  V30 14616 H 1386.47 0.574089 2.92826 0
M  V30 14617 C 1385.22 -1.16741 3.27516 0
M  V30 14618 H 1384.55 -0.622756 3.9492 0
M  V30 14619 H 1385.99 -1.66052 3.90132 0
M  V30 14620 C 1384.44 -2.22755 2.52749 0
M  V30 14621 O 1384.97 -3.30081 2.28932 0
M  V30 14622 N 1383.18 -1.97318 2.1334 0
M  V30 14623 H 1382.73 -1.10049 2.3291 0
M  V30 14624 H 1382.69 -2.68461 1.63633 0
M  V30 14625 N 1386.46 -1.54343 0.318742 0
M  V30 14626 C 1387.71 -1.9966 -0.286146 0
M  V30 14627 C 1388.02 -1.21073 -1.53625 0
M  V30 14628 O 1389.23 -1.56744 -2.21684 0
M  V30 14629 C 1387.68 -3.5551 -0.560405 0
M  V30 14630 C 1387.29 -4.42926 0.672373 0
M  V30 14631 C 1389.03 -4.09307 -1.12551 0
M  V30 14632 C 1386.94 -5.9024 0.370285 0
M  V30 14633 H 1385.87 -0.74583 -0.110698 0
M  V30 14634 H 1388.52 -1.78386 0.430215 0
M  V30 14635 H 1386.9 -3.72753 -1.33683 0
M  V30 14636 H 1388.08 -4.37458 1.448 0
M  V30 14637 H 1386.39 -3.99993 1.15736 0
M  V30 14638 H 1388.99 -5.16955 -1.36607 0
M  V30 14639 H 1389.33 -3.60994 -2.07338 0
M  V30 14640 H 1389.87 -3.95677 -0.410385 0
M  V30 14641 H 1386.6 -6.42738 1.28719 0
M  V30 14642 H 1386.12 -5.98672 -0.367731 0
M  V30 14643 H 1387.8 -6.46996 -0.0216582 0
M  V30 14644 N 1387.94 -0.0468143 -1.5753 0
M  V30 14645 C 1389.18 0.626699 -1.92138 0
M  V30 14646 C 1389.5 1.7164 -0.925463 0
M  V30 14647 O 1388.77 1.95876 0.0303531 0
M  V30 14648 H 1387.35 0.234479 -0.709245 0
M  V30 14649 H 1390.02 -0.0987892 -1.94649 0
M  V30 14650 H 1389.11 1.06811 -2.93254 0
M  V30 14651 N 1389.41 1.55964 0.226527 0
M  V30 14652 C 1390.64 1.83168 0.972846 0
M  V30 14653 C 1391.06 0.626512 1.7736 0
M  V30 14654 O 1390.42 -0.42468 1.76256 0
M  V30 14655 C 1390.47 3.08315 1.87014 0
M  V30 14656 O 1389.57 2.8666 2.96479 0
M  V30 14657 H 1388.92 0.604041 0.275736 0
M  V30 14658 H 1391.45 2.03172 0.241345 0
M  V30 14659 H 1391.46 3.38288 2.28091 0
M  V30 14660 H 1390.13 3.95663 1.28154 0
M  V30 14661 H 1388.71 2.67907 2.59384 0
M  V30 14662 N 1390.89 -0.493031 1.4969 0
M  V30 14663 C 1392.14 -1.24849 1.59814 0
M  V30 14664 C 1392.47 -1.92059 0.287555 0
M  V30 14665 O 1391.75 -1.81099 -0.709471 0
M  V30 14666 C 1392.03 -2.30929 2.76304 0
M  V30 14667 C 1391.88 -1.68167 4.17181 0
M  V30 14668 C 1393.2 -3.32427 2.8841 0
M  V30 14669 H 1390.32 -0.452553 0.581691 0
M  V30 14670 H 1392.96 -0.545455 1.82002 0
M  V30 14671 H 1391.11 -2.9089 2.57517 0
M  V30 14672 H 1392.78 -1.11971 4.47504 0
M  V30 14673 H 1391.03 -0.985496 4.22458 0
M  V30 14674 H 1391.7 -2.45148 4.94577 0
M  V30 14675 H 1394.17 -2.82464 3.05537 0
M  V30 14676 H 1393.05 -4.04004 3.71581 0
M  V30 14677 H 1393.31 -3.95234 1.98097 0
M  V30 14678 N 1392.37 -1.38898 -0.744656 0
M  V30 14679 C 1393.62 -1.35327 -1.50104 0
M  V30 14680 C 1393.94 0.0532788 -1.94927 0
M  V30 14681 O 1393.21 1.0027 -1.68294 0
M  V30 14682 H 1391.79 -0.49797 -0.556808 0
M  V30 14683 H 1394.45 -1.73667 -0.884625 0
M  V30 14684 H 1393.55 -2.00983 -2.38773 0
M  V30 14685 N 1393.85 0.973806 -1.23914 0
M  V30 14686 C 1394.81 2.04892 -1.02723 0
M  V30 14687 C 1395.81 1.60795 0.0132972 0
M  V30 14688 O 1397 1.72714 -0.227084 0
M  V30 14689 C 1394.13 3.36341 -0.555667 0
M  V30 14690 H 1395.33 2.25124 -1.98139 0
M  V30 14691 H 1392.88 1.14817 -1.06051 0
M  V30 14692 H 1393.61 3.21799 0.40197 0
M  V30 14693 H 1393.4 3.69689 -1.30661 0
M  V30 14694 H 1394.89 4.15398 -0.428248 0
M  V30 14695 N 1395.33 1.05191 1.17357 0
M  V30 14696 C 1396.26 0.610878 2.20909 0
M  V30 14697 C 1397.27 -0.325369 1.59515 0
M  V30 14698 O 1398.46 -0.118104 1.78109 0
M  V30 14699 C 1395.56 -0.126086 3.38665 0
M  V30 14700 C 1394.73 0.820857 4.29629 0
M  V30 14701 C 1393.79 0.125154 5.26051 0
M  V30 14702 O 1392.82 0.759245 5.64114 0
M  V30 14703 N 1394.02 -1.13742 5.69248 0
M  V30 14704 H 1396.79 1.50158 2.5937 0
M  V30 14705 H 1394.35 0.933814 1.32256 0
M  V30 14706 H 1396.34 -0.601627 4.00203 0
M  V30 14707 H 1394.91 -0.918459 2.98803 0
M  V30 14708 H 1394.13 1.47602 3.65523 0
M  V30 14709 H 1395.42 1.46363 4.87294 0
M  V30 14710 H 1394.81 -1.67291 5.40398 0
M  V30 14711 H 1393.37 -1.55703 6.3293 0
M  V30 14712 N 1396.8 -1.33791 0.83293 0
M  V30 14713 C 1397.77 -2.27637 0.267196 0
M  V30 14714 C 1398.77 -1.50709 -0.560669 0
M  V30 14715 O 1399.96 -1.70109 -0.375321 0
M  V30 14716 C 1397.09 -3.35136 -0.624248 0
M  V30 14717 H 1398.28 -2.79186 1.09522 0
M  V30 14718 H 1395.84 -1.44093 0.605554 0
M  V30 14719 H 1396.57 -2.88818 -1.47494 0
M  V30 14720 H 1396.36 -3.92087 -0.0319827 0
M  V30 14721 H 1397.85 -4.05113 -1.01355 0
M  V30 14722 N 1398.28 -0.588812 -1.46187 0
M  V30 14723 C 1399.21 0.128595 -2.33146 0
M  V30 14724 C 1400.19 0.877608 -1.45712 0
M  V30 14725 O 1401.38 0.851866 -1.74519 0
M  V30 14726 C 1398.51 1.13886 -3.28096 0
M  V30 14727 C 1397.46 0.504296 -4.25019 0
M  V30 14728 C 1396.79 1.62147 -5.09522 0
M  V30 14729 C 1398.09 -0.562466 -5.19263 0
M  V30 14730 H 1399.78 -0.597455 -2.93378 0
M  V30 14731 H 1397.33 -0.288764 -1.41075 0
M  V30 14732 H 1399.28 1.64916 -3.8779 0
M  V30 14733 H 1398.01 1.89527 -2.65983 0
M  V30 14734 H 1396.66 0.0150325 -3.66597 0
M  V30 14735 H 1396.31 2.36769 -4.4379 0
M  V30 14736 H 1396.01 1.20249 -5.75164 0
M  V30 14737 H 1397.54 2.13441 -5.7208 0
M  V30 14738 H 1398.95 -0.137003 -5.73136 0
M  V30 14739 H 1397.35 -0.902115 -5.93281 0
M  V30 14740 H 1398.42 -1.4464 -4.62825 0
M  V30 14741 N 1399.76 1.54172 -0.326923 0
M  V30 14742 C 1400.72 2.2311 0.524855 0
M  V30 14743 C 1401.72 1.22567 1.04087 0
M  V30 14744 O 1402.91 1.47123 0.932759 0
M  V30 14745 C 1400.05 2.93778 1.72937 0
M  V30 14746 H 1401.24 2.99799 -0.0778327 0
M  V30 14747 H 1398.79 1.56105 -0.0780484 0
M  V30 14748 H 1399.53 2.21234 2.3712 0
M  V30 14749 H 1399.31 3.67509 1.36674 0
M  V30 14750 H 1400.8 3.46292 2.33392 0
M  V30 14751 N 1401.24 0.0551678 1.57503 0
M  V30 14752 C 1402.17 -0.915714 2.14795 0
M  V30 14753 C 1403.15 -1.32179 1.07065 0
M  V30 14754 O 1404.33 -1.39579 1.35023 0
M  V30 14755 C 1401.46 -2.18916 2.69616 0
M  V30 14756 C 1400.42 -1.92303 3.82366 0
M  V30 14757 C 1399.74 -3.26136 4.23721 0
M  V30 14758 C 1401.04 -1.24146 5.07331 0
M  V30 14759 H 1402.74 -0.438499 2.96171 0
M  V30 14760 H 1400.28 -0.209477 1.42468 0
M  V30 14761 H 1402.24 -2.87239 3.08337 0
M  V30 14762 H 1400.96 -2.6885 1.85437 0
M  V30 14763 H 1399.62 -1.26391 3.44123 0
M  V30 14764 H 1399.27 -3.73879 3.36487 0
M  V30 14765 H 1398.97 -3.09126 4.99715 0
M  V30 14766 H 1400.49 -3.95684 4.65045 0
M  V30 14767 H 1401.91 -1.8251 5.43473 0
M  V30 14768 H 1400.3 -1.17449 5.88494 0
M  V30 14769 H 1401.37 -0.218073 4.84409 0
M  V30 14770 N 1402.72 -1.56081 -0.218252 0
M  V30 14771 C 1403.65 -1.87704 -1.29779 0
M  V30 14772 C 1404.63 -0.734747 -1.45053 0
M  V30 14773 O 1405.81 -0.98344 -1.60813 0
M  V30 14774 C 1402.94 -2.08695 -2.66766 0
M  V30 14775 C 1401.98 -3.31385 -2.68489 0
M  V30 14776 S 1402.82 -4.87212 -2.22227 0
M  V30 14777 C 1403.97 -5.11243 -3.61083 0
M  V30 14778 H 1404.21 -2.78975 -1.02762 0
M  V30 14779 H 1401.74 -1.48559 -0.420653 0
M  V30 14780 H 1403.7 -2.21472 -3.4563 0
M  V30 14781 H 1402.36 -1.18215 -2.91005 0
M  V30 14782 H 1401.55 -3.43127 -3.69161 0
M  V30 14783 H 1401.15 -3.17482 -1.9769 0
M  V30 14784 H 1403.45 -5.00344 -4.56796 0
M  V30 14785 H 1404.39 -6.13115 -3.54254 0
M  V30 14786 H 1404.8 -4.38964 -3.54924 0
M  V30 14787 N 1404.2 0.485086 -1.49949 0
M  V30 14788 C 1405.13 1.59312 -1.7071 0
M  V30 14789 C 1406.11 1.6076 -0.555896 0
M  V30 14790 O 1407.29 1.77249 -0.793504 0
M  V30 14791 C 1404.42 2.97718 -1.78834 0
M  V30 14792 C 1403.38 3.11136 -2.93902 0
M  V30 14793 C 1402.7 4.51051 -2.87154 0
M  V30 14794 C 1404 2.89665 -4.34617 0
M  V30 14795 H 1405.7 1.42192 -2.6348 0
M  V30 14796 H 1403.24 0.68262 -1.26792 0
M  V30 14797 H 1405.19 3.75148 -1.91943 0
M  V30 14798 H 1403.92 3.15963 -0.826744 0
M  V30 14799 H 1402.58 2.36135 -2.80421 0
M  V30 14800 H 1402.23 4.66195 -1.88869 0
M  V30 14801 H 1401.93 4.60967 -3.64394 0
M  V30 14802 H 1403.45 5.3052 -3.02293 0
M  V30 14803 H 1404.86 3.56853 -4.48697 0
M  V30 14804 H 1403.26 3.11039 -5.13201 0
M  V30 14805 H 1404.33 1.85642 -4.47956 0
M  V30 14806 N 1405.67 1.39291 0.737279 0
M  V30 14807 C 1406.64 1.37607 1.83294 0
M  V30 14808 C 1407.64 0.273594 1.58455 0
M  V30 14809 O 1408.83 0.531375 1.65898 0
M  V30 14810 C 1405.96 1.14642 3.21045 0
M  V30 14811 H 1407.15 2.35102 1.86191 0
M  V30 14812 H 1404.7 1.24822 0.940696 0
M  V30 14813 H 1405.44 0.178202 3.2381 0
M  V30 14814 H 1405.22 1.94479 3.40471 0
M  V30 14815 H 1406.71 1.162 4.01108 0
M  V30 14816 N 1407.15 -0.967221 1.24429 0
M  V30 14817 C 1408.1 -2.06187 1.03709 0
M  V30 14818 C 1409.07 -1.66025 -0.0497665 0
M  V30 14819 O 1410.25 -1.90511 0.104951 0
M  V30 14820 C 1407.39 -3.38952 0.648477 0
M  V30 14821 C 1406.51 -3.92306 1.80886 0
M  V30 14822 C 1405.64 -5.13342 1.36579 0
M  V30 14823 C 1404.68 -5.58893 2.49609 0
M  V30 14824 N 1403.82 -6.71148 2.06165 0
M  V30 14825 H 1408.66 -2.23244 1.97399 0
M  V30 14826 H 1406.19 -1.09415 0.983192 0
M  V30 14827 H 1408.15 -4.15237 0.40419 0
M  V30 14828 H 1406.78 -3.21819 -0.25142 0
M  V30 14829 H 1405.83 -3.12656 2.1668 0
M  V30 14830 H 1407.15 -4.22071 2.65815 0
M  V30 14831 H 1406.3 -5.97003 1.0804 0
M  V30 14832 H 1405.04 -4.85262 0.487051 0
M  V30 14833 H 1404.04 -4.73805 2.78906 0
M  V30 14834 H 1405.27 -5.88987 3.3804 0
M  V30 14835 H 1403.22 -6.44802 1.20691 0
M  V30 14836 H 1403.13 -7.00366 2.84647 0
M  V30 14837 H 1404.4 -7.5825 1.80769 0
M  V30 14838 N 1408.63 -1.05812 -1.16797 0
M  V30 14839 C 1409.58 -0.658636 -2.2308 0
M  V30 14840 C 1410.57 0.323104 -1.6629 0
M  V30 14841 O 1411.78 0.188492 -1.7901 0
M  V30 14842 H 1408.15 -0.194843 -0.72632 0
M  V30 14843 H 1410.12 -1.56501 -2.54067 0
M  V30 14844 C 1408.87 -0.0559428 -3.47655 0
M  V30 14845 H 1408.2 -0.802468 -3.91664 0
M  V30 14846 H 1409.64 0.186118 -4.23591 0
M  V30 14847 C 1408.09 1.19913 -3.14837 0
M  V30 14848 O 1408.62 2.28772 -3.30191 0
M  V30 14849 N 1406.83 1.09921 -2.69009 0
M  V30 14850 H 1406.38 0.213331 -2.56715 0
M  V30 14851 H 1406.34 1.93981 -2.47424 0
M  V30 14852 N 1410.11 1.33347 -0.840014 0
M  V30 14853 C 1411.35 1.98037 -0.43692 0
M  V30 14854 C 1411.69 1.66382 1.00154 0
M  V30 14855 O 1410.96 0.944311 1.70038 0
M  V30 14856 C 1411.24 3.54012 -0.65937 0
M  V30 14857 C 1411.1 3.9535 -2.14518 0
M  V30 14858 C 1412.42 4.39972 -0.106258 0
M  V30 14859 H 1409.54 0.719373 -0.160221 0
M  V30 14860 H 1412.18 1.57969 -1.05574 0
M  V30 14861 H 1410.33 3.88274 -0.132633 0
M  V30 14862 H 1412 3.7134 -2.73687 0
M  V30 14863 H 1410.24 3.4504 -2.62926 0
M  V30 14864 H 1410.91 5.03992 -2.25158 0
M  V30 14865 H 1413.39 4.12362 -0.556511 0
M  V30 14866 H 1412.27 5.48125 -0.291583 0
M  V30 14867 H 1412.53 4.30872 0.990032 0
M  V30 14868 N 1411.59 0.596556 1.45873 0
M  V30 14869 C 1412.52 -0.177354 2.2751 0
M  V30 14870 C 1413.5 -0.883999 1.36471 0
M  V30 14871 O 1414.68 -0.895098 1.65892 0
M  V30 14872 C 1411.81 -1.25567 3.14564 0
M  V30 14873 C 1410.85 -0.653363 4.21466 0
M  V30 14874 S 1411.69 0.53036 5.32867 0
M  V30 14875 C 1412.84 -0.548817 6.23489 0
M  V30 14876 H 1413.08 0.515289 2.928 0
M  V30 14877 H 1410.61 0.383791 1.49554 0
M  V30 14878 H 1412.57 -1.87298 3.6528 0
M  V30 14879 H 1411.23 -1.92033 2.4856 0
M  V30 14880 H 1410.42 -1.46435 4.82258 0
M  V30 14881 H 1410.02 -0.111425 3.73834 0
M  V30 14882 H 1412.31 -1.43085 6.62218 0
M  V30 14883 H 1413.26 0.0226785 7.08096 0
M  V30 14884 H 1413.67 -0.859188 5.57923 0
M  V30 14885 N 1413.06 -1.53996 0.335095 0
M  V30 14886 C 1413.99 -2.2768 -0.518087 0
M  V30 14887 C 1414.97 -1.28915 -1.10972 0
M  V30 14888 O 1416.16 -1.57745 -1.1327 0
M  V30 14889 C 1413.29 -3.04327 -1.67339 0
M  V30 14890 C 1412.24 -4.10525 -1.2105 0
M  V30 14891 C 1411.57 -4.75078 -2.45366 0
M  V30 14892 C 1412.87 -5.21337 -0.317055 0
M  V30 14893 H 1414.56 -2.99244 0.0965669 0
M  V30 14894 H 1412.11 -1.4392 0.0478842 0
M  V30 14895 H 1414.06 -3.54608 -2.27664 0
M  V30 14896 H 1412.79 -2.30399 -2.31481 0
M  V30 14897 H 1411.45 -3.61144 -0.630124 0
M  V30 14898 H 1411.09 -3.97754 -3.07897 0
M  V30 14899 H 1410.79 -5.46822 -2.1508 0
M  V30 14900 H 1412.32 -5.2814 -3.06432 0
M  V30 14901 H 1413.73 -5.67305 -0.826905 0
M  V30 14902 H 1412.13 -6.00006 -0.106458 0
M  V30 14903 H 1413.2 -4.80536 0.649068 0
M  V30 14904 N 1414.54 -0.0635198 -1.57472 0
M  V30 14905 C 1415.45 0.921531 -2.15743 0
M  V30 14906 C 1416.47 1.33294 -1.11842 0
M  V30 14907 O 1417.64 1.40733 -1.4407 0
M  V30 14908 C 1414.71 2.17378 -2.70088 0
M  V30 14909 C 1413.77 1.81956 -3.88832 0
M  V30 14910 C 1413 3.01211 -4.40577 0
M  V30 14911 O 1413.23 4.14971 -3.9135 0
M  V30 14912 O 1412.16 2.81507 -5.32012 0
M  V30 14913 H 1415.99 0.455899 -3.00259 0
M  V30 14914 H 1413.57 0.159085 -1.48551 0
M  V30 14915 H 1415.45 2.90826 -3.04956 0
M  V30 14916 H 1414.13 2.63055 -1.88637 0
M  V30 14917 H 1413.03 1.05786 -3.58832 0
M  V30 14918 H 1414.37 1.41069 -4.71551 0
M  V30 14919 N 1416.02 1.56195 0.209972 0
M  V30 14920 C 1416.93 1.96539 1.28101 0
M  V30 14921 C 1417.95 0.870858 1.50639 0
M  V30 14922 O 1419.12 1.17539 1.63544 0
M  V30 14923 C 1416.19 2.28392 2.60841 0
M  V30 14924 C 1415.25 3.51474 2.46505 0
M  V30 14925 C 1414.48 3.81798 3.72915 0
M  V30 14926 O 1414.7 3.13627 4.76439 0
M  V30 14927 O 1413.64 4.75264 3.69334 0
M  V30 14928 H 1417.46 2.87838 0.968671 0
M  V30 14929 H 1415.05 1.43556 0.413777 0
M  V30 14930 H 1416.93 2.50022 3.39215 0
M  V30 14931 H 1415.61 1.40264 2.91732 0
M  V30 14932 H 1414.51 3.35109 1.66292 0
M  V30 14933 H 1415.85 4.40021 2.2055 0
M  V30 14934 N 1417.5 -0.477127 1.50204 0
M  V30 14935 C 1418.43 -1.58405 1.71552 0
M  V30 14936 C 1419.41 -1.60463 0.564413 0
M  V30 14937 O 1420.59 -1.76826 0.802893 0
M  V30 14938 C 1417.72 -2.96765 1.8041 0
M  V30 14939 C 1416.68 -3.09573 2.95548 0
M  V30 14940 C 1416 -4.49522 2.89542 0
M  V30 14941 C 1417.3 -2.87356 4.36147 0
M  V30 14942 H 1419 -1.40792 2.64231 0
M  V30 14943 H 1416.54 -0.675886 1.27153 0
M  V30 14944 H 1418.5 -3.74125 1.9393 0
M  V30 14945 H 1417.22 -3.1552 0.843489 0
M  V30 14946 H 1415.88 -2.34645 2.81669 0
M  V30 14947 H 1415.53 -4.65186 1.91339 0
M  V30 14948 H 1415.23 -4.59028 3.66834 0
M  V30 14949 H 1416.75 -5.28909 3.05102 0
M  V30 14950 H 1418.17 -3.54469 4.50583 0
M  V30 14951 H 1416.56 -3.08313 5.14843 0
M  V30 14952 H 1417.63 -1.83264 4.48935 0
M  V30 14953 N 1418.98 -1.3968 -0.729882 0
M  V30 14954 C 1420.22 -1.3862 -1.50213 0
M  V30 14955 C 1420.58 0.0167409 -1.91993 0
M  V30 14956 O 1421.78 0.15238 -2.68368 0
M  V30 14957 C 1420.05 -2.33583 -2.70507 0
M  V30 14958 S 1421.61 -2.50756 -3.60093 0
M  V30 14959 H 1418.43 -0.491511 -0.513749 0
M  V30 14960 H 1421.03 -1.75823 -0.854783 0
M  V30 14961 H 1419.74 -3.34369 -2.37961 0
M  V30 14962 H 1419.27 -1.97613 -3.40166 0
M  V30 14963 H 1421.28 -1.74929 -4.64343 0
M  V30 14964 N 1420.45 0.960609 -1.2494 0
M  V30 14965 C 1421.38 2.074 -1.07274 0
M  V30 14966 C 1422.37 1.70092 0.0164365 0
M  V30 14967 O 1423.55 1.93604 -0.151975 0
M  V30 14968 C 1420.68 3.40491 -0.684317 0
M  V30 14969 C 1419.63 3.91784 -1.72306 0
M  V30 14970 C 1418.96 5.21301 -1.18949 0
M  V30 14971 C 1420.26 4.18829 -3.12056 0
M  V30 14972 H 1421.95 2.22438 -2.00404 0
M  V30 14973 H 1419.5 1.06888 -0.964937 0
M  V30 14974 H 1421.45 4.17826 -0.547686 0
M  V30 14975 H 1420.18 3.25374 0.282687 0
M  V30 14976 H 1418.84 3.16613 -1.84802 0
M  V30 14977 H 1418.48 5.02549 -0.212892 0
M  V30 14978 H 1418.18 5.56588 -1.8837 0
M  V30 14979 H 1419.71 6.01238 -1.06513 0
M  V30 14980 H 1421.12 4.86844 -3.02748 0
M  V30 14981 H 1419.52 4.6536 -3.78894 0
M  V30 14982 H 1420.59 3.25333 -3.59564 0
M  V30 14983 N 1421.93 1.0643 1.16234 0
M  V30 14984 C 1422.84 0.687446 2.24302 0
M  V30 14985 C 1423.86 -0.297132 1.71444 0
M  V30 14986 O 1425.03 -0.146101 2.00869 0
M  V30 14987 C 1422.1 0.0810973 3.46605 0
M  V30 14988 C 1421.16 1.11772 4.14494 0
M  V30 14989 C 1420.39 0.54021 5.30959 0
M  V30 14990 O 1420.62 -0.646619 5.66723 0
M  V30 14991 O 1419.55 1.28057 5.8812 0
M  V30 14992 H 1423.38 1.58842 2.58849 0
M  V30 14993 H 1420.96 0.836649 1.23776 0
M  V30 14994 H 1422.84 -0.25524 4.20626 0
M  V30 14995 H 1421.52 -0.793338 3.13828 0
M  V30 14996 H 1420.43 1.50626 3.42436 0
M  V30 14997 H 1421.76 1.96373 4.5133 0
M  V30 14998 N 1423.41 -1.329 0.847073 0
M  V30 14999 C 1424.32 -2.32815 0.288878 0
M  V30 15000 C 1425.34 -1.63715 -0.589363 0
M  V30 15001 O 1426.51 -1.9531 -0.491537 0
M  V30 15002 C 1423.58 -3.42778 -0.519988 0
M  V30 15003 C 1422.64 -4.27584 0.383496 0
M  V30 15004 C 1421.87 -5.32296 -0.386862 0
M  V30 15005 O 1422.09 -5.4698 -1.61768 0
M  V30 15006 O 1421.03 -6.01408 0.2434 0
M  V30 15007 H 1424.85 -2.82434 1.11647 0
M  V30 15008 H 1422.44 -1.36388 0.609807 0
M  V30 15009 H 1424.32 -4.09862 -0.979357 0
M  V30 15010 H 1423 -2.95362 -1.3245 0
M  V30 15011 H 1421.9 -3.63338 0.890879 0
M  V30 15012 H 1423.24 -4.78505 1.15299 0
M  V30 15013 N 1424.89 -0.604284 -1.45555 0
M  V30 15014 C 1425.84 0.129013 -2.32242 0
M  V30 15015 C 1426.83 0.862933 -1.45773 0
M  V30 15016 O 1428.04 0.778874 -1.62276 0
M  V30 15017 H 1424.41 0.0604661 -0.749565 0
M  V30 15018 H 1426.38 -0.620603 -2.91875 0
M  V30 15019 C 1425.13 1.11516 -3.29332 0
M  V30 15020 H 1424.45 0.559849 -3.95861 0
M  V30 15021 H 1425.89 1.59824 -3.92724 0
M  V30 15022 C 1424.35 2.18706 -2.5626 0
M  V30 15023 O 1424.88 3.26397 -2.34154 0
M  V30 15024 N 1423.09 1.93899 -2.16452 0
M  V30 15025 H 1422.64 1.0633 -2.34631 0
M  V30 15026 H 1422.59 2.65824 -1.67884 0
M  V30 15027 N 1426.37 1.53816 -0.343257 0
M  V30 15028 C 1427.32 2.21763 0.529635 0
M  V30 15029 C 1428.3 1.20494 1.06631 0
M  V30 15030 O 1429.49 1.46041 1.00006 0
M  V30 15031 C 1426.62 2.99372 1.68022 0
M  V30 15032 C 1425.71 4.07999 1.1575 0
M  V30 15033 N 1426.1 5.04546 0.355979 0
M  V30 15034 C 1424.4 4.22304 1.43442 0
M  V30 15035 C 1425.1 5.81655 0.0723481 0
M  V30 15036 N 1424.07 5.39531 0.66391 0
M  V30 15037 H 1427.88 2.93763 -0.0898087 0
M  V30 15038 H 1425.39 1.61705 -0.150107 0
M  V30 15039 H 1427.39 3.4655 2.31752 0
M  V30 15040 H 1426.05 2.28899 2.30294 0
M  V30 15041 H 1427.06 5.179 -0.00291228 0
M  V30 15042 H 1423.73 3.63051 2.06155 0
M  V30 15043 H 1425.12 6.69442 -0.574192 0
M  V30 15044 N 1427.84 0.0718701 1.57436 0
M  V30 15045 C 1428.77 -0.89288 2.15754 0
M  V30 15046 C 1429.76 -1.31036 1.0846 0
M  V30 15047 O 1430.94 -1.38139 1.36496 0
M  V30 15048 C 1428.07 -2.16044 2.71923 0
M  V30 15049 C 1427.02 -1.88236 3.84384 0
M  V30 15050 C 1426.35 -3.21624 4.27156 0
M  V30 15051 C 1427.65 -1.18758 5.0862 0
M  V30 15052 H 1429.34 -0.407061 2.9662 0
M  V30 15053 H 1426.89 -0.194354 1.42682 0
M  V30 15054 H 1428.84 -2.83952 3.11366 0
M  V30 15055 H 1427.57 -2.66868 1.88279 0
M  V30 15056 H 1426.23 -1.22734 3.45445 0
M  V30 15057 H 1425.87 -3.70289 3.40433 0
M  V30 15058 H 1425.57 -3.03809 5.02965 0
M  V30 15059 H 1427.1 -3.90729 4.69215 0
M  V30 15060 H 1428.51 -1.76735 5.45378 0
M  V30 15061 H 1426.91 -1.11201 5.89707 0
M  V30 15062 H 1427.98 -0.166682 4.84613 0
M  V30 15063 N 1429.32 -1.56304 -0.201686 0
M  V30 15064 C 1430.25 -1.90538 -1.27389 0
M  V30 15065 C 1431.27 -0.795422 -1.42045 0
M  V30 15066 O 1432.46 -1.07381 -1.42589 0
M  V30 15067 C 1429.56 -2.11638 -2.64694 0
M  V30 15068 C 1428.73 -3.42755 -2.71731 0
M  V30 15069 C 1427.79 -3.53047 -3.90185 0
M  V30 15070 O 1426.81 -4.25923 -3.77595 0
M  V30 15071 N 1428.02 -2.85649 -5.05356 0
M  V30 15072 H 1430.78 -2.83106 -0.983411 0
M  V30 15073 H 1428.34 -1.57092 -0.391638 0
M  V30 15074 H 1430.33 -2.15818 -3.42352 0
M  V30 15075 H 1428.9 -1.256 -2.86258 0
M  V30 15076 H 1428.12 -3.50501 -1.80397 0
M  V30 15077 H 1429.41 -4.29092 -2.73418 0
M  V30 15078 H 1428.81 -2.26256 -5.18483 0
M  V30 15079 H 1427.37 -2.95465 -5.80985 0
M  V30 15080 N 1430.8 0.469154 -1.50455 0
M  V30 15081 C 1432.08 1.23033 -1.5206 0
M  V30 15082 C 1432.46 2.09412 -0.266388 0
M  V30 15083 O 1431.81 2.15837 0.750099 0
M  V30 15084 C 1432.02 2.05969 -2.81741 0
M  V30 15085 C 1433.36 2.64093 -3.32476 0
M  V30 15086 O 1434.39 2.1621 -2.83075 0
M  V30 15087 O 1433.25 3.51341 -4.18595 0
M  V30 15088 H 1430.34 0.55841 -0.610006 0
M  V30 15089 H 1432.89 0.480818 -1.62746 0
M  V30 15090 H 1431.66 1.42327 -3.64498 0
M  V30 15091 H 1431.28 2.8805 -2.74067 0
M  V30 15092 N 1432.28 1.40065 0.722464 0
M  V30 15093 C 1433.19 1.42086 1.86678 0
M  V30 15094 C 1434.2 0.314223 1.71139 0
M  V30 15095 O 1435.38 0.55771 1.93524 0
M  V30 15096 C 1432.45 1.27498 3.22405 0
M  V30 15097 C 1431.51 2.48243 3.50248 0
M  V30 15098 C 1430.74 2.34342 4.79499 0
M  V30 15099 O 1430.96 1.35355 5.54108 0
M  V30 15100 O 1429.9 3.23579 5.07523 0
M  V30 15101 H 1433.72 2.38571 1.87929 0
M  V30 15102 H 1431.31 1.21314 0.871968 0
M  V30 15103 H 1433.19 1.21543 4.03491 0
M  V30 15104 H 1431.86 0.341141 3.21897 0
M  V30 15105 H 1430.77 2.59775 2.69199 0
M  V30 15106 H 1432.1 3.40364 3.55547 0
M  V30 15107 N 1433.76 -0.95397 1.25448 0
M  V30 15108 C 1435.01 -1.6953 1.10018 0
M  V30 15109 C 1435.33 -1.9166 -0.359385 0
M  V30 15110 O 1434.6 -1.50417 -1.25506 0
M  V30 15111 H 1433.18 -0.628238 0.404136 0
M  V30 15112 H 1435.84 -1.14691 1.57581 0
M  V30 15113 H 1434.93 -2.67427 1.60901 0
M  V30 15114 N 1435.24 -1.07045 -1.15668 0
M  V30 15115 C 1436.48 -0.792908 -1.86657 0
M  V30 15116 C 1436.81 0.679213 -1.81935 0
M  V30 15117 O 1436.09 1.49822 -1.2403 0
M  V30 15118 C 1436.37 -1.2978 -3.35901 0
M  V30 15119 C 1436.23 -2.83424 -3.49272 0
M  V30 15120 C 1437.54 -0.911821 -4.30551 0
M  V30 15121 H 1434.66 -0.289509 -0.677756 0
M  V30 15122 H 1437.31 -1.32769 -1.35913 0
M  V30 15123 H 1435.46 -0.84288 -3.79246 0
M  V30 15124 H 1437.13 -3.37182 -3.14811 0
M  V30 15125 H 1435.37 -3.21777 -2.90933 0
M  V30 15126 H 1436.04 -3.13819 -4.54116 0
M  V30 15127 H 1438.52 -1.30376 -3.95147 0
M  V30 15128 H 1437.39 -1.29247 -5.33467 0
M  V30 15129 H 1437.65 0.18255 -4.41723 0
M  V30 15130 N 1436.71 1.32449 -0.85411 0
M  V30 15131 C 1437.95 1.99075 -0.463504 0
M  V30 15132 C 1438.32 1.66118 0.962739 0
M  V30 15133 O 1439.52 2.25831 1.45787 0
M  V30 15134 C 1437.79 3.50574 -0.695161 0
M  V30 15135 S 1439.35 4.36954 -0.402047 0
M  V30 15136 H 1436.17 0.689464 -0.173666 0
M  V30 15137 H 1438.77 1.61159 -1.1067 0
M  V30 15138 H 1437.47 3.72049 -1.73227 0
M  V30 15139 H 1437 3.93381 -0.0383675 0
M  V30 15140 H 1439.02 4.90155 0.772147 0
M  V30 15141 N 1438.19 0.611994 1.45232 0
M  V30 15142 C 1439.42 0.113618 2.07089 0
M  V30 15143 C 1439.84 -1.1947 1.45288 0
M  V30 15144 O 1439.2 -1.72845 0.547207 0
M  V30 15145 C 1439.25 -0.00789978 3.60599 0
M  V30 15146 O 1438.35 -1.05697 3.98625 0
M  V30 15147 H 1437.69 0.076066 0.659629 0
M  V30 15148 H 1440.22 0.843253 1.86415 0
M  V30 15149 H 1440.23 -0.204692 4.07486 0
M  V30 15150 H 1438.91 0.947386 4.04966 0
M  V30 15151 H 1437.48 -0.836291 3.63401 0
M  V30 15152 N 1439.67 -1.53632 0.351409 0
M  V30 15153 C 1440.6 -2.28217 -0.49391 0
M  V30 15154 C 1441.58 -1.30085 -1.09599 0
M  V30 15155 O 1442.77 -1.58938 -1.1159 0
M  V30 15156 C 1439.9 -3.06085 -1.64102 0
M  V30 15157 C 1438.85 -4.11786 -1.16689 0
M  V30 15158 C 1438.18 -4.77654 -2.40314 0
M  V30 15159 C 1439.48 -5.21644 -0.261742 0
M  V30 15160 H 1441.17 -2.99125 0.1283 0
M  V30 15161 H 1438.72 -1.43861 0.0631462 0
M  V30 15162 H 1440.67 -3.57003 -2.2389 0
M  V30 15163 H 1439.39 -2.32842 -2.29025 0
M  V30 15164 H 1438.05 -3.61792 -0.591784 0
M  V30 15165 H 1437.7 -4.00997 -3.03661 0
M  V30 15166 H 1437.4 -5.49072 -2.09268 0
M  V30 15167 H 1438.92 -5.3136 -3.00813 0
M  V30 15168 H 1440.34 -5.6815 -0.766689 0
M  V30 15169 H 1438.73 -6.00085 -0.0428132 0
M  V30 15170 H 1439.8 -4.79821 0.699999 0
M  V30 15171 N 1441.15 -0.0802183 -1.57396 0
M  V30 15172 C 1442.11 0.869437 -2.12069 0
M  V30 15173 C 1443.11 1.22079 -1.04658 0
M  V30 15174 O 1444.3 1.15267 -1.3061 0
M  V30 15175 C 1441.43 2.17016 -2.62901 0
M  V30 15176 H 1442.63 0.394952 -2.97288 0
M  V30 15177 H 1440.18 0.168597 -1.55388 0
M  V30 15178 H 1440.91 2.68983 -1.8116 0
M  V30 15179 H 1440.7 1.92808 -3.4142 0
M  V30 15180 H 1442.19 2.84982 -3.05246 0
M  V30 15181 N 1442.63 1.56409 0.193394 0
M  V30 15182 C 1443.54 1.97886 1.26009 0
M  V30 15183 C 1444.55 0.886786 1.49707 0
M  V30 15184 O 1445.73 1.19267 1.62288 0
M  V30 15185 C 1442.79 2.31145 2.58404 0
M  V30 15186 C 1441.85 3.54069 2.42763 0
M  V30 15187 C 1441.09 3.85732 3.68845 0
M  V30 15188 O 1441.31 3.18662 4.73086 0
M  V30 15189 O 1440.24 4.79155 3.64272 0
M  V30 15190 H 1444.07 2.88849 0.938087 0
M  V30 15191 H 1441.65 1.43987 0.398528 0
M  V30 15192 H 1443.54 2.53606 3.36544 0
M  V30 15193 H 1442.21 1.4335 2.90228 0
M  V30 15194 H 1441.12 3.36854 1.62728 0
M  V30 15195 H 1442.45 4.42335 2.15871 0
M  V30 15196 N 1444.1 -0.461169 1.50702 0
M  V30 15197 C 1445.35 -1.21012 1.61866 0
M  V30 15198 C 1445.67 -1.9226 0.325736 0
M  V30 15199 O 1444.94 -1.84543 -0.657306 0
M  V30 15200 H 1443.52 -0.449671 0.596494 0
M  V30 15201 H 1446.18 -0.531056 1.87525 0
M  V30 15202 H 1445.28 -1.95266 2.4347 0
M  V30 15203 N 1445.58 -1.40446 -0.715026 0
M  V30 15204 C 1446.51 -1.43511 -1.84193 0
M  V30 15205 C 1447.49 -0.295969 -1.67505 0
M  V30 15206 O 1448.68 -0.504667 -1.87528 0
M  V30 15207 C 1445.81 -1.29751 -3.22152 0
M  V30 15208 C 1444.76 -2.41274 -3.53512 0
M  V30 15209 C 1444.09 -2.12591 -4.90621 0
M  V30 15210 C 1445.39 -3.83614 -3.54454 0
M  V30 15211 H 1447.08 -2.37819 -1.81885 0
M  V30 15212 H 1444.63 -1.14469 -0.873655 0
M  V30 15213 H 1446.58 -1.30511 -4.0068 0
M  V30 15214 H 1445.3 -0.319189 -3.25037 0
M  V30 15215 H 1443.96 -2.39764 -2.77324 0
M  V30 15216 H 1443.61 -1.13148 -4.90109 0
M  V30 15217 H 1443.31 -2.87308 -5.1257 0
M  V30 15218 H 1444.84 -2.15034 -5.71483 0
M  V30 15219 H 1446.25 -3.86945 -4.23021 0
M  V30 15220 H 1444.65 -4.57855 -3.87929 0
M  V30 15221 H 1445.72 -4.13159 -2.53827 0
M  V30 15222 N 1447.06 0.947303 -1.25952 0
M  V30 15223 C 1448.01 2.04511 -1.06976 0
M  V30 15224 C 1448.98 1.66084 0.023347 0
M  V30 15225 O 1450.16 1.9032 -0.135247 0
M  V30 15226 C 1447.3 3.37878 -0.70232 0
M  V30 15227 C 1446.41 3.89379 -1.87105 0
M  V30 15228 C 1445.55 5.11104 -1.44728 0
M  V30 15229 C 1444.59 5.54852 -2.58469 0
M  V30 15230 N 1443.73 6.67784 -2.16817 0
M  V30 15231 H 1448.57 2.20075 -2.00925 0
M  V30 15232 H 1446.1 1.07837 -1.00048 0
M  V30 15233 H 1448.06 4.14542 -0.470199 0
M  V30 15234 H 1446.69 3.22179 0.20019 0
M  V30 15235 H 1445.74 3.09169 -2.21627 0
M  V30 15236 H 1447.05 4.17789 -2.72496 0
M  V30 15237 H 1446.21 5.95208 -1.17525 0
M  V30 15238 H 1444.95 4.84426 -0.564191 0
M  V30 15239 H 1443.95 4.69308 -2.86409 0
M  V30 15240 H 1445.18 5.83534 -3.47368 0
M  V30 15241 H 1443.12 6.428 -1.30934 0
M  V30 15242 H 1443.04 6.95749 -2.95753 0
M  V30 15243 H 1444.31 7.55278 -1.92809 0
M  V30 15244 N 1448.54 1.07657 1.15099 0
M  V30 15245 C 1449.49 0.699678 2.19939 0
M  V30 15246 C 1450.46 -0.310432 1.63173 0
M  V30 15247 O 1451.64 -0.196177 1.89789 0
M  V30 15248 C 1448.78 0.106963 3.44934 0
M  V30 15249 C 1447.89 1.16892 4.15885 0
M  V30 15250 C 1447.03 0.540884 5.28439 0
M  V30 15251 C 1446.07 1.58542 5.91211 0
M  V30 15252 N 1445.2 0.979731 6.95231 0
M  V30 15253 H 1450.04 1.59805 2.51528 0
M  V30 15254 H 1447.58 0.798746 1.23525 0
M  V30 15255 H 1449.54 -0.254335 4.16424 0
M  V30 15256 H 1448.17 -0.754756 3.13852 0
M  V30 15257 H 1447.22 1.64775 3.4286 0
M  V30 15258 H 1448.53 1.96078 4.58645 0
M  V30 15259 H 1447.69 0.127397 6.06566 0
M  V30 15260 H 1446.43 -0.282708 4.8688 0
M  V30 15261 H 1445.43 2.00865 5.11794 0
M  V30 15262 H 1446.66 2.41135 6.34847 0
M  V30 15263 H 1444.6 0.177098 6.55761 0
M  V30 15264 H 1444.52 1.70878 7.36435 0
M  V30 15265 H 1445.79 0.591849 7.7725 0
M  V30 15266 N 1450.02 -1.31994 0.861122 0
M  V30 15267 C 1450.96 -2.30666 0.299352 0
M  V30 15268 C 1451.96 -1.59133 -0.580779 0
M  V30 15269 O 1453.16 -1.73813 -0.467864 0
M  V30 15270 H 1449.54 -0.747932 0.0781091 0
M  V30 15271 H 1451.51 -2.7553 1.14567 0
M  V30 15272 C 1450.26 -3.44203 -0.491883 0
M  V30 15273 H 1449.58 -3.99412 0.17608 0
M  V30 15274 H 1451.02 -4.15384 -0.850434 0
M  V30 15275 C 1449.48 -2.92042 -1.67967 0
M  V30 15276 O 1450.01 -2.90073 -2.77886 0
M  V30 15277 N 1448.22 -2.48358 -1.50887 0
M  V30 15278 H 1447.76 -2.50159 -0.614683 0
M  V30 15279 H 1447.72 -2.13813 -2.30503 0
M  V30 15280 N 1451.49 -0.619688 -1.44906 0
M  V30 15281 C 1452.72 -0.124598 -2.07025 0
M  V30 15282 C 1453.14 1.18698 -1.45919 0
M  V30 15283 O 1452.5 1.72552 -0.556366 0
M  V30 15284 C 1452.55 -0.0112238 -3.60598 0
M  V30 15285 O 1451.65 1.03582 -3.9918 0
M  V30 15286 H 1451 -0.0795631 -0.659216 0
M  V30 15287 H 1453.53 -0.853127 -1.85965 0
M  V30 15288 H 1453.54 0.183079 -4.07589 0
M  V30 15289 H 1452.21 -0.968849 -4.04458 0
M  V30 15290 H 1450.79 0.817008 -3.6384 0
M  V30 15291 N 1452.97 1.53444 -0.359552 0
M  V30 15292 C 1454.2 2.06058 0.235576 0
M  V30 15293 C 1454.62 1.23175 1.42161 0
M  V30 15294 O 1453.98 0.249338 1.79577 0
M  V30 15295 C 1454.03 3.55351 0.613025 0
M  V30 15296 O 1453.13 3.75229 1.71104 0
M  V30 15297 H 1452.47 0.663038 0.0357266 0
M  V30 15298 H 1455 1.97923 -0.518408 0
M  V30 15299 H 1455.01 3.9827 0.885722 0
M  V30 15300 H 1453.69 4.15122 -0.254243 0
M  V30 15301 H 1452.27 3.4421 1.43437 0
M  V30 15302 N 1454.45 0.0885642 1.57351 0
M  V30 15303 C 1455.38 -0.869946 2.16689 0
M  V30 15304 C 1456.36 -1.29878 1.09844 0
M  V30 15305 O 1457.55 -1.36684 1.37954 0
M  V30 15306 C 1454.68 -2.13148 2.74199 0
M  V30 15307 C 1453.63 -1.84149 3.86359 0
M  V30 15308 C 1452.96 -3.17075 4.30543 0
M  V30 15309 C 1454.26 -1.13357 5.09851 0
M  V30 15310 H 1455.95 -0.375578 2.97035 0
M  V30 15311 H 1453.5 -0.17921 1.42881 0
M  V30 15312 H 1455.45 -2.80634 3.14361 0
M  V30 15313 H 1454.17 -2.64856 1.91098 0
M  V30 15314 H 1452.83 -1.19063 3.46727 0
M  V30 15315 H 1452.48 -3.66658 3.44342 0
M  V30 15316 H 1452.18 -2.98457 5.06159 0
M  V30 15317 H 1453.7 -3.85731 4.73333 0
M  V30 15318 H 1455.12 -1.70941 5.47222 0
M  V30 15319 H 1453.52 -1.0494 5.90853 0
M  V30 15320 H 1454.59 -0.115273 4.84763 0
M  V30 15321 N 1455.93 -1.56509 -0.185096 0
M  V30 15322 C 1456.88 -1.95336 -1.22934 0
M  V30 15323 C 1457.85 -0.81532 -1.44713 0
M  V30 15324 O 1459.03 -1.07431 -1.57681 0
M  V30 15325 C 1456.17 -2.30671 -2.56681 0
M  V30 15326 C 1455.28 -3.57586 -2.42397 0
M  V30 15327 C 1454.42 -3.82197 -3.68916 0
M  V30 15328 C 1453.46 -5.02505 -3.49507 0
M  V30 15329 N 1452.59 -5.23319 -4.68062 0
M  V30 15330 H 1457.43 -2.84361 -0.89123 0
M  V30 15331 H 1454.97 -1.40715 -0.428689 0
M  V30 15332 H 1456.93 -2.49176 -3.34615 0
M  V30 15333 H 1455.56 -1.44773 -2.88514 0
M  V30 15334 H 1454.61 -3.47072 -1.55709 0
M  V30 15335 H 1455.92 -4.45677 -2.23994 0
M  V30 15336 H 1455.08 -4.00996 -4.55288 0
M  V30 15337 H 1453.82 -2.92455 -3.90284 0
M  V30 15338 H 1452.82 -4.83619 -2.6152 0
M  V30 15339 H 1454.05 -5.93765 -3.29574 0
M  V30 15340 H 1451.99 -4.36526 -4.89674 0
M  V30 15341 H 1451.91 -6.05608 -4.52521 0
M  V30 15342 H 1453.18 -5.46585 -5.55757 0
M  V30 15343 N 1457.41 0.45317 -1.50944 0
M  V30 15344 C 1458.66 1.20076 -1.62064 0
M  V30 15345 C 1458.97 1.92709 -0.335034 0
M  V30 15346 O 1460.17 2.69543 -0.32538 0
M  V30 15347 C 1458.63 2.18283 -2.86148 0
M  V30 15348 C 1458.24 1.5137 -4.21653 0
M  V30 15349 C 1459.98 2.93572 -3.0662 0
M  V30 15350 C 1457.89 2.47968 -5.36904 0
M  V30 15351 H 1456.82 0.451894 -0.603579 0
M  V30 15352 H 1459.47 0.46937 -1.77396 0
M  V30 15353 H 1457.85 2.94789 -2.64415 0
M  V30 15354 H 1459.03 0.805295 -4.53709 0
M  V30 15355 H 1457.34 0.882935 -4.06931 0
M  V30 15356 H 1459.94 3.65903 -3.89897 0
M  V30 15357 H 1460.28 3.54003 -2.1906 0
M  V30 15358 H 1460.81 2.24175 -3.28619 0
M  V30 15359 H 1457.55 1.92249 -6.26674 0
M  V30 15360 H 1457.07 3.16907 -5.09244 0
M  V30 15361 H 1458.75 3.09428 -5.6821 0
M  V30 15362 N 1458.88 1.40823 0.707568 0
M  V30 15363 C 1459.81 1.44485 1.83429 0
M  V30 15364 C 1460.8 0.304848 1.67346 0
M  V30 15365 O 1461.98 0.514605 1.87258 0
M  V30 15366 C 1459.11 1.31458 3.21459 0
M  V30 15367 C 1458.06 2.43145 3.52228 0
M  V30 15368 C 1457.39 2.15189 4.89487 0
M  V30 15369 C 1458.69 3.85489 3.52414 0
M  V30 15370 H 1460.38 2.38781 1.80622 0
M  V30 15371 H 1457.93 1.14931 0.867572 0
M  V30 15372 H 1459.88 1.32635 3.99983 0
M  V30 15373 H 1458.61 0.336422 3.24863 0
M  V30 15374 H 1457.27 2.41231 2.76049 0
M  V30 15375 H 1456.91 1.15745 4.89502 0
M  V30 15376 H 1456.61 2.90022 5.11039 0
M  V30 15377 H 1458.14 2.18062 5.70334 0
M  V30 15378 H 1459.55 3.89183 4.20963 0
M  V30 15379 H 1457.95 4.59906 3.85495 0
M  V30 15380 H 1459.02 4.14499 2.51632 0
M  V30 15381 N 1460.36 -0.94061 1.26453 0
M  V30 15382 C 1461.31 -2.03941 1.08059 0
M  V30 15383 C 1462.28 -1.66094 -0.0145388 0
M  V30 15384 O 1463.46 -1.90246 0.145338 0
M  V30 15385 C 1460.6 -3.37501 0.720228 0
M  V30 15386 C 1459.72 -3.88381 1.89167 0
M  V30 15387 C 1458.85 -5.10329 1.47437 0
M  V30 15388 C 1457.89 -5.53473 2.61408 0
M  V30 15389 N 1457.03 -6.66624 2.20355 0
M  V30 15390 H 1461.87 -2.19006 2.0209 0
M  V30 15391 H 1459.41 -1.07305 1.00618 0
M  V30 15392 H 1461.36 -4.14287 0.492177 0
M  V30 15393 H 1459.99 -3.2228 -0.183101 0
M  V30 15394 H 1459.05 -3.0799 2.23264 0
M  V30 15395 H 1460.36 -4.16338 2.74708 0
M  V30 15396 H 1459.51 -5.94577 1.20679 0
M  V30 15397 H 1458.25 -4.8412 0.589873 0
M  V30 15398 H 1457.26 -4.67782 2.88894 0
M  V30 15399 H 1458.48 -5.81684 3.50458 0
M  V30 15400 H 1456.43 -6.42097 1.34341 0
M  V30 15401 H 1456.34 -6.9417 2.99439 0
M  V30 15402 H 1457.61 -7.54245 1.96811 0
M  V30 15403 N 1461.84 -1.08266 -1.14527 0
M  V30 15404 C 1462.77 -0.732968 -2.21698 0
M  V30 15405 C 1463.75 0.283917 -1.67714 0
M  V30 15406 O 1464.94 0.154607 -1.93584 0
M  V30 15407 C 1462.07 -0.139935 -3.47018 0
M  V30 15408 C 1461.02 -1.08501 -4.14019 0
M  V30 15409 C 1460.35 -0.354263 -5.33525 0
M  V30 15410 C 1461.65 -2.42254 -4.62721 0
M  V30 15411 H 1463.34 -1.629 -2.51205 0
M  V30 15412 H 1460.89 -0.784696 -1.20742 0
M  V30 15413 H 1462.84 0.1167 -4.21238 0
M  V30 15414 H 1461.56 0.791228 -3.16871 0
M  V30 15415 H 1460.22 -1.32672 -3.41751 0
M  V30 15416 H 1459.87 0.580658 -4.99637 0
M  V30 15417 H 1459.57 -0.984287 -5.79297 0
M  V30 15418 H 1461.09 -0.105648 -6.10509 0
M  V30 15419 H 1462.51 -2.22357 -5.28422 0
M  V30 15420 H 1460.91 -3.00935 -5.1919 0
M  V30 15421 H 1461.98 -3.03884 -3.77866 0
M  V30 15422 N 1463.32 1.31536 -0.86811 0
M  V30 15423 C 1464.54 2.01487 -0.491705 0
M  V30 15424 C 1464.97 1.64744 0.907803 0
M  V30 15425 O 1464.33 0.855093 1.59868 0
M  V30 15426 C 1464.38 3.54621 -0.65395 0
M  V30 15427 O 1463.48 4.11252 0.307532 0
M  V30 15428 H 1462.82 0.634469 -0.195819 0
M  V30 15429 H 1465.35 1.67775 -1.17101 0
M  V30 15430 H 1465.36 4.04323 -0.546539 0
M  V30 15431 H 1464.04 3.80704 -1.67443 0
M  V30 15432 H 1462.61 3.72577 0.155233 0
M  V30 15433 N 1464.8 0.627364 1.44575 0
M  V30 15434 C 1465.75 -0.0920488 2.32418 0
M  V30 15435 C 1466.74 -0.839633 1.47128 0
M  V30 15436 O 1467.95 -0.752958 1.63495 0
M  V30 15437 H 1464.32 -0.0485336 0.750432 0
M  V30 15438 H 1466.29 0.666959 2.90851 0
M  V30 15439 C 1465.04 -1.06262 3.31064 0
M  V30 15440 H 1464.36 -0.4968 3.96701 0
M  V30 15441 H 1465.8 -1.53556 3.95217 0
M  V30 15442 C 1464.26 -2.14601 2.59707 0
M  V30 15443 O 1464.79 -3.2263 2.39317 0
M  V30 15444 N 1463 -1.90431 2.19509 0
M  V30 15445 H 1462.55 -1.02584 2.36293 0
M  V30 15446 H 1462.5 -2.6312 1.72091 0
M  V30 15447 N 1466.28 -1.53251 0.367684 0
M  V30 15448 C 1467.22 -2.27318 -0.4929 0
M  V30 15449 C 1468.22 -1.30376 -1.08159 0
M  V30 15450 O 1469.42 -1.47996 -1.02455 0
M  V30 15451 H 1465.8 -0.730709 -0.177677 0
M  V30 15452 H 1467.77 -2.98005 0.153525 0
M  V30 15453 C 1466.52 -3.07678 -1.61955 0
M  V30 15454 H 1465.84 -3.82117 -1.17587 0
M  V30 15455 H 1467.28 -3.62678 -2.19638 0
M  V30 15456 C 1465.74 -2.18648 -2.5631 0
M  V30 15457 O 1466.27 -1.79869 -3.5918 0
M  V30 15458 N 1464.48 -1.83239 -2.25548 0
M  V30 15459 H 1464.02 -2.14973 -1.4193 0
M  V30 15460 H 1463.98 -1.23957 -2.88933 0
M  V30 15461 N 1467.75 -0.0969077 -1.57302 0
M  V30 15462 C 1468.99 0.569724 -1.963 0
M  V30 15463 C 1469.36 1.65238 -0.977779 0
M  V30 15464 O 1470.56 2.37634 -1.25632 0
M  V30 15465 C 1468.83 1.10889 -3.39762 0
M  V30 15466 S 1470.39 1.78714 -4.00758 0
M  V30 15467 H 1467.21 0.185855 -0.686279 0
M  V30 15468 H 1469.81 -0.176741 -1.94699 0
M  V30 15469 H 1468.51 0.309441 -4.09232 0
M  V30 15470 H 1468.04 1.89114 -3.44963 0
M  V30 15471 H 1470.06 3.07149 -3.8971 0
M  V30 15472 N 1469.23 1.56605 0.176793 0
M  V30 15473 C 1470.48 1.80875 0.892578 0
M  V30 15474 C 1470.79 0.673245 1.83648 0
M  V30 15475 O 1472 0.800732 2.59423 0
M  V30 15476 C 1470.46 3.20481 1.63768 0
M  V30 15477 C 1470.06 4.41885 0.737685 0
M  V30 15478 C 1471.81 3.54048 2.34202 0
M  V30 15479 C 1469.71 5.72512 1.48271 0
M  V30 15480 H 1468.64 0.674476 0.337042 0
M  V30 15481 H 1471.3 1.82922 0.145574 0
M  V30 15482 H 1469.68 3.12736 2.42924 0
M  V30 15483 H 1470.85 4.60797 -0.0165186 0
M  V30 15484 H 1469.17 4.16153 0.143277 0
M  V30 15485 H 1471.76 4.48886 2.90526 0
M  V30 15486 H 1472.11 2.78665 3.09276 0
M  V30 15487 H 1472.64 3.63322 1.61995 0
M  V30 15488 H 1469.38 6.5091 0.774399 0
M  V30 15489 H 1468.9 5.57586 2.21038 0
M  V30 15490 H 1470.58 6.14274 2.03165 0
M  V30 15491 N 1470.71 -0.445159 1.51182 0
M  V30 15492 C 1471.94 -1.21787 1.67259 0
M  V30 15493 C 1472.35 -1.85206 0.366641 0
M  V30 15494 O 1471.71 -1.70376 -0.654095 0
M  V30 15495 C 1471.76 -2.30765 2.78262 0
M  V30 15496 O 1471.48 -1.69942 4.03796 0
M  V30 15497 C 1472.98 -3.21186 3.05539 0
M  V30 15498 H 1470.2 -0.367364 0.561502 0
M  V30 15499 H 1472.75 -0.528415 1.97555 0
M  V30 15500 H 1470.9 -2.9544 2.50587 0
M  V30 15501 H 1471.32 -2.41905 4.65384 0
M  V30 15502 H 1472.79 -3.93805 3.8681 0
M  V30 15503 H 1473.27 -3.81487 2.17634 0
M  V30 15504 H 1473.87 -2.62221 3.34844 0
M  V30 15505 N 1472.19 -1.41197 -0.700089 0
M  V30 15506 C 1473.42 -1.43449 -1.4868 0
M  V30 15507 C 1473.83 -0.0368799 -1.89164 0
M  V30 15508 O 1473.17 0.953129 -1.57039 0
M  V30 15509 C 1473.23 -2.27583 -2.78291 0
M  V30 15510 C 1472.89 -3.75805 -2.60038 0
M  V30 15511 C 1473.89 -4.68074 -2.2628 0
M  V30 15512 C 1471.58 -4.19796 -2.75819 0
M  V30 15513 C 1473.57 -6.02322 -2.08535 0
M  V30 15514 C 1471.26 -5.5411 -2.57692 0
M  V30 15515 C 1472.26 -6.45189 -2.24099 0
M  V30 15516 O 1471.94 -7.77025 -2.06125 0
M  V30 15517 H 1471.68 -0.490779 -0.464879 0
M  V30 15518 H 1474.23 -1.86071 -0.869864 0
M  V30 15519 H 1472.46 -1.79767 -3.42375 0
M  V30 15520 H 1474.15 -2.21591 -3.40077 0
M  V30 15521 H 1474.91 -4.35379 -2.13707 0
M  V30 15522 H 1470.79 -3.49213 -3.0095 0
M  V30 15523 H 1474.34 -6.73376 -1.82238 0
M  V30 15524 H 1470.23 -5.86386 -2.69854 0
M  V30 15525 H 1471 -7.88121 -2.20924 0
M  V30 15526 N 1473.67 0.933891 -1.2695 0
M  V30 15527 C 1474.6 2.05078 -1.11649 0
M  V30 15528 C 1475.58 1.70089 -0.0196463 0
M  V30 15529 O 1476.76 1.93239 -0.193007 0
M  V30 15530 C 1473.89 3.38963 -0.756387 0
M  V30 15531 C 1472.85 3.88041 -1.80577 0
M  V30 15532 C 1472.17 5.18661 -1.2998 0
M  V30 15533 C 1473.47 4.12116 -3.2087 0
M  V30 15534 H 1475.17 2.18137 -2.05077 0
M  V30 15535 H 1472.71 1.04817 -0.987392 0
M  V30 15536 H 1474.66 4.1657 -0.63619 0
M  V30 15537 H 1473.39 3.25901 0.213607 0
M  V30 15538 H 1472.05 3.12622 -1.91477 0
M  V30 15539 H 1471.7 5.01985 -0.319442 0
M  V30 15540 H 1471.4 5.52467 -2.00134 0
M  V30 15541 H 1472.92 5.98844 -1.19242 0
M  V30 15542 H 1474.33 4.80312 -3.13006 0
M  V30 15543 H 1472.73 4.57218 -3.88679 0
M  V30 15544 H 1473.8 3.17633 -3.66384 0
M  V30 15545 N 1475.14 1.08871 1.13951 0
M  V30 15546 C 1476.39 0.819665 1.84732 0
M  V30 15547 C 1476.71 -0.656535 1.83615 0
M  V30 15548 O 1475.98 -1.47614 1.28791 0
M  V30 15549 H 1474.56 0.30023 0.684011 0
M  V30 15550 H 1477.22 1.37568 1.38062 0
M  V30 15551 H 1476.32 1.16809 2.89417 0
M  V30 15552 N 1476.62 -1.31073 0.875073 0
M  V30 15553 C 1477.58 -2.26672 0.339481 0
M  V30 15554 C 1478.58 -1.52416 -0.512439 0
M  V30 15555 O 1479.77 -1.71217 -0.321012 0
M  V30 15556 C 1476.91 -3.36952 -0.517311 0
M  V30 15557 H 1478.1 -2.7556 1.18349 0
M  V30 15558 H 1475.65 -1.42093 0.65109 0
M  V30 15559 H 1476.39 -2.93364 -1.38231 0
M  V30 15560 H 1476.17 -3.9199 0.092773 0
M  V30 15561 H 1477.66 -4.08133 -0.884154 0
M  V30 15562 N 1478.1 -0.635022 -1.4424 0
M  V30 15563 C 1479.01 0.0686832 -2.34499 0
M  V30 15564 C 1480.03 0.831574 -1.52843 0
M  V30 15565 O 1481.2 0.782954 -1.85558 0
M  V30 15566 C 1478.27 1.03543 -3.30877 0
M  V30 15567 C 1477.33 0.271484 -4.28441 0
M  V30 15568 C 1476.56 1.19218 -5.20214 0
M  V30 15569 O 1476.78 2.43101 -5.16002 0
M  V30 15570 O 1475.72 0.6744 -5.9811 0
M  V30 15571 H 1479.54 -0.673781 -2.96132 0
M  V30 15572 H 1477.13 -0.395211 -1.44078 0
M  V30 15573 H 1479.01 1.59151 -3.90191 0
M  V30 15574 H 1477.69 1.75844 -2.71773 0
M  V30 15575 H 1476.59 -0.327736 -3.72662 0
M  V30 15576 H 1477.93 -0.411584 -4.90476 0
M  V30 15577 N 1479.58 1.53054 -0.375806 0
M  V30 15578 C 1480.54 2.24666 0.453608 0
M  V30 15579 C 1481.54 1.25816 1.00135 0
M  V30 15580 O 1482.73 1.50016 0.885481 0
M  V30 15581 C 1479.86 2.99131 1.63503 0
M  V30 15582 H 1481.06 2.994 -0.173172 0
M  V30 15583 H 1478.61 1.55778 -0.127673 0
M  V30 15584 H 1479.34 2.28666 2.29962 0
M  V30 15585 H 1479.13 3.71671 1.24913 0
M  V30 15586 H 1480.62 3.53542 2.22256 0
M  V30 15587 N 1481.06 0.105248 1.57248 0
M  V30 15588 C 1481.99 -0.846915 2.176 0
M  V30 15589 C 1482.97 -1.28706 1.11216 0
M  V30 15590 O 1484.15 -1.35213 1.39396 0
M  V30 15591 C 1481.28 -2.10228 2.76445 0
M  V30 15592 C 1480.24 -1.80041 3.8829 0
M  V30 15593 C 1479.56 -3.12491 4.33882 0
M  V30 15594 C 1480.86 -1.07943 5.11024 0
M  V30 15595 H 1482.56 -0.344052 2.97417 0
M  V30 15596 H 1480.1 -0.164045 1.43063 0
M  V30 15597 H 1482.06 -2.77284 3.17319 0
M  V30 15598 H 1480.78 -2.62815 1.93897 0
M  V30 15599 H 1479.44 -1.15379 3.4797 0
M  V30 15600 H 1479.09 -3.62985 3.48211 0
M  V30 15601 H 1478.79 -2.93072 5.09296 0
M  V30 15602 H 1480.31 -3.80688 4.77398 0
M  V30 15603 H 1481.72 -1.65127 5.49004 0
M  V30 15604 H 1480.12 -0.986674 5.91933 0
M  V30 15605 H 1481.19 -0.0638511 4.84858 0
M  V30 15606 N 1482.53 -1.56697 -0.168486 0
M  V30 15607 C 1483.46 -1.99659 -1.21073 0
M  V30 15608 C 1484.45 -0.872625 -1.46011 0
M  V30 15609 O 1485.63 -1.13891 -1.57297 0
M  V30 15610 C 1482.76 -2.35889 -2.54899 0
M  V30 15611 C 1481.71 -3.51272 -2.44524 0
M  V30 15612 C 1481.04 -3.73253 -3.82866 0
M  V30 15613 C 1482.34 -4.84631 -1.94756 0
M  V30 15614 H 1484.03 -2.86974 -0.853593 0
M  V30 15615 H 1481.58 -1.38065 -0.409165 0
M  V30 15616 H 1483.53 -2.64542 -3.28017 0
M  V30 15617 H 1482.26 -1.45486 -2.92406 0
M  V30 15618 H 1480.92 -3.22751 -1.7386 0
M  V30 15619 H 1480.56 -2.80136 -4.17772 0
M  V30 15620 H 1480.26 -4.5089 -3.76792 0
M  V30 15621 H 1481.79 -4.04309 -4.57566 0
M  V30 15622 H 1483.2 -5.12142 -2.5765 0
M  V30 15623 H 1481.6 -5.65925 -1.99623 0
M  V30 15624 H 1482.67 -4.76436 -0.902021 0
M  V30 15625 N 1484.01 0.437135 -1.51416 0
M  V30 15626 C 1484.94 1.54894 -1.68939 0
M  V30 15627 C 1485.96 1.52493 -0.570059 0
M  V30 15628 O 1487.15 1.57266 -0.844381 0
M  V30 15629 C 1484.25 2.9381 -1.68904 0
M  V30 15630 C 1483.42 3.20714 -2.97425 0
M  V30 15631 C 1482.48 4.39355 -2.89575 0
M  V30 15632 O 1481.5 4.37999 -3.63519 0
M  V30 15633 N 1482.71 5.42931 -2.05441 0
M  V30 15634 H 1485.47 1.40267 -2.64849 0
M  V30 15635 H 1483.03 0.626075 -1.49305 0
M  V30 15636 H 1485.02 3.71201 -1.61221 0
M  V30 15637 H 1483.59 3.02034 -0.805871 0
M  V30 15638 H 1482.81 2.31621 -3.18975 0
M  V30 15639 H 1484.1 3.35516 -3.825 0
M  V30 15640 H 1483.5 5.4687 -1.44742 0
M  V30 15641 H 1482.06 6.19173 -2.03636 0
M  V30 15642 N 1485.49 1.41566 0.692592 0
M  V30 15643 C 1486.45 1.43369 1.78824 0
M  V30 15644 C 1487.45 0.323867 1.57505 0
M  V30 15645 O 1488.64 0.583885 1.64123 0
M  V30 15646 C 1485.78 1.24798 3.17235 0
M  V30 15647 H 1486.97 2.40906 1.78617 0
M  V30 15648 H 1484.52 1.27752 0.900508 0
M  V30 15649 H 1485.26 0.281129 3.23079 0
M  V30 15650 H 1485.04 2.05212 3.34111 0
M  V30 15651 H 1486.53 1.28902 3.97208 0
M  V30 15652 N 1486.97 -0.927146 1.27443 0
M  V30 15653 C 1487.9 -2.04483 1.12735 0
M  V30 15654 C 1488.88 -1.70076 0.0286662 0
M  V30 15655 O 1490.06 -1.93133 0.203252 0
M  V30 15656 C 1487.19 -3.38557 0.774352 0
M  V30 15657 C 1486.15 -3.87078 1.82632 0
M  V30 15658 C 1485.47 -5.17964 1.32729 0
M  V30 15659 C 1486.77 -4.10409 3.23051 0
M  V30 15660 H 1488.47 -2.17046 2.06231 0
M  V30 15661 H 1486.01 -1.04292 0.992937 0
M  V30 15662 H 1487.97 -4.16227 0.658273 0
M  V30 15663 H 1486.69 -3.26009 -0.196321 0
M  V30 15664 H 1485.35 -3.11602 1.93132 0
M  V30 15665 H 1485 -5.01808 0.346059 0
M  V30 15666 H 1484.7 -5.51398 2.03061 0
M  V30 15667 H 1486.22 -5.98203 1.22416 0
M  V30 15668 H 1487.64 -4.78646 3.15549 0
M  V30 15669 H 1486.03 -4.5515 3.91099 0
M  V30 15670 H 1487.1 -3.15685 3.68064 0
M  V30 15671 N 1488.45 -1.09474 -1.13372 0
M  V30 15672 C 1489.36 -0.746674 -2.224 0
M  V30 15673 C 1490.37 0.251572 -1.72172 0
M  V30 15674 O 1491.55 0.092793 -2.01186 0
M  V30 15675 C 1488.61 -0.172965 -3.46268 0
M  V30 15676 C 1487.67 -1.22722 -4.11385 0
M  V30 15677 C 1486.91 -0.680794 -5.2934 0
M  V30 15678 O 1487.13 0.496135 -5.68238 0
M  V30 15679 O 1486.06 -1.43605 -5.84518 0
M  V30 15680 H 1489.89 -1.65649 -2.54547 0
M  V30 15681 H 1487.48 -0.869172 -1.21514 0
M  V30 15682 H 1489.36 0.143629 -4.21155 0
M  V30 15683 H 1488.03 0.709853 -3.15821 0
M  V30 15684 H 1486.94 -1.59652 -3.38323 0
M  V30 15685 H 1488.27 -2.0827 -4.45965 0
M  V30 15686 N 1489.92 1.30607 -0.882012 0
M  V30 15687 C 1491.34 1.48859 -0.575599 0
M  V30 15688 C 1491.54 1.80908 0.887388 0
M  V30 15689 O 1490.6 1.89492 1.6688 0
M  V30 15690 C 1491.91 2.61405 -1.48619 0
M  V30 15691 C 1493.46 2.75286 -1.48951 0
M  V30 15692 C 1493.93 3.90942 -2.38596 0
M  V30 15693 N 1495.42 3.98248 -2.36543 0
M  V30 15694 C 1496.16 4.87041 -3.0262 0
M  V30 15695 N 1495.65 5.80651 -3.77911 0
M  V30 15696 N 1497.45 4.80385 -2.91867 0
M  V30 15697 H 1489.6 1.08076 -1.82848 0
M  V30 15698 H 1491.86 0.535148 -0.782509 0
M  V30 15699 H 1491.57 2.44535 -2.52775 0
M  V30 15700 H 1491.44 3.57818 -1.19358 0
M  V30 15701 H 1493.83 2.91564 -0.455477 0
M  V30 15702 H 1493.91 1.79504 -1.82242 0
M  V30 15703 H 1493.55 3.75422 -3.42083 0
M  V30 15704 H 1493.48 4.86057 -2.02623 0
M  V30 15705 H 1495.97 3.31282 -1.81827 0
M  V30 15706 H 1496.29 6.45159 -4.25428 0
M  V30 15707 H 1494.63 5.80592 -3.82019 0
M  V30 15708 H 1497.82 4.06234 -2.32576 0
M  V30 15709 H 1498 5.49377 -3.43641 0
M  V30 15710 N 1491.4 0.642663 1.43901 0
M  V30 15711 C 1492.35 -0.0673926 2.32502 0
M  V30 15712 C 1493.34 -0.823981 1.4801 0
M  V30 15713 O 1494.55 -0.735575 1.64284 0
M  V30 15714 H 1490.93 -0.0405715 0.750905 0
M  V30 15715 H 1492.9 0.69777 2.90127 0
M  V30 15716 C 1491.65 -1.02745 3.32173 0
M  V30 15717 H 1490.97 -0.454697 3.97206 0
M  V30 15718 H 1492.41 -1.49355 3.96824 0
M  V30 15719 C 1490.87 -2.11835 2.61969 0
M  V30 15720 O 1491.4 -3.20074 2.42725 0
M  V30 15721 N 1489.6 -1.88092 2.21517 0
M  V30 15722 H 1489.15 -1.00072 2.37368 0
M  V30 15723 H 1489.11 -2.61279 1.74873 0
M  V30 15724 N 1492.88 -1.52852 0.383918 0
M  V30 15725 C 1494.16 -1.939 -0.25729 0
M  V30 15726 C 1494.54 -1.31895 -1.64824 0
M  V30 15727 O 1493.89 -0.484987 -2.23294 0
M  V30 15728 C 1494.1 -3.47801 -0.289064 0
M  V30 15729 C 1495.44 -4.21396 -0.520611 0
M  V30 15730 O 1496.47 -3.54278 -0.369502 0
M  V30 15731 O 1495.33 -5.4037 -0.816254 0
M  V30 15732 H 1492.42 -0.811658 -0.158558 0
M  V30 15733 H 1494.97 -1.63949 0.438034 0
M  V30 15734 H 1493.74 -3.8525 0.685441 0
M  V30 15735 H 1493.36 -3.8404 -1.02953 0
M  V30 15736 N 1494.36 -0.113586 -1.5719 0
M  V30 15737 C 1495.59 0.553592 -1.99356 0
M  V30 15738 C 1496 1.60567 -0.993154 0
M  V30 15739 O 1495.36 1.82494 0.0147252 0
M  V30 15740 C 1495.41 1.18462 -3.41539 0
M  V30 15741 O 1495.13 0.174602 -4.37752 0
M  V30 15742 C 1496.63 1.93564 -3.98808 0
M  V30 15743 H 1493.85 0.146998 -0.6547 0
M  V30 15744 H 1496.4 -0.198329 -2.03536 0
M  V30 15745 H 1494.55 1.88736 -3.38316 0
M  V30 15746 H 1494.97 0.632395 -5.20674 0
M  V30 15747 H 1496.44 2.33051 -5.00391 0
M  V30 15748 H 1496.92 2.80874 -3.37648 0
M  V30 15749 H 1497.52 1.28066 -4.0556 0
M  V30 15750 N 1495.84 1.56784 0.160173 0
M  V30 15751 C 1497.09 1.81812 0.873344 0
M  V30 15752 C 1497.4 0.692686 1.82924 0
M  V30 15753 O 1498.61 0.828202 2.5856 0
M  V30 15754 C 1497.06 3.222 1.6036 0
M  V30 15755 C 1496.67 4.42642 0.690776 0
M  V30 15756 C 1498.41 3.56512 2.30433 0
M  V30 15757 C 1496.32 5.74052 1.4219 0
M  V30 15758 H 1495.25 0.678013 0.32987 0
M  V30 15759 H 1497.9 1.83066 0.126164 0
M  V30 15760 H 1496.28 3.15295 2.39593 0
M  V30 15761 H 1497.46 4.60754 -0.0653914 0
M  V30 15762 H 1495.77 4.16282 0.09913 0
M  V30 15763 H 1498.37 4.51942 2.85749 0
M  V30 15764 H 1498.71 2.8193 3.06303 0
M  V30 15765 H 1499.25 3.65019 1.58132 0
M  V30 15766 H 1495.98 6.51694 0.705318 0
M  V30 15767 H 1495.5 5.59899 2.15111 0
M  V30 15768 H 1497.18 6.16395 1.96639 0
M  V30 15769 N 1497.32 -0.429099 1.51646 0
M  V30 15770 C 1498.25 -1.52867 1.76505 0
M  V30 15771 C 1499.23 -1.58586 0.615178 0
M  V30 15772 O 1500.41 -1.74182 0.858742 0
M  V30 15773 C 1497.54 -2.90875 1.8976 0
M  V30 15774 C 1496.5 -3.00014 3.05247 0
M  V30 15775 C 1495.82 -4.40082 3.03696 0
M  V30 15776 C 1497.12 -2.73334 4.45068 0
M  V30 15777 H 1498.82 -1.32315 2.68576 0
M  V30 15778 H 1496.36 -0.635091 1.29238 0
M  V30 15779 H 1498.31 -3.67765 2.05734 0
M  V30 15780 H 1497.04 -3.12677 0.943442 0
M  V30 15781 H 1495.7 -2.25565 2.88991 0
M  V30 15782 H 1495.35 -4.58864 2.06042 0
M  V30 15783 H 1495.05 -4.47125 3.81252 0
M  V30 15784 H 1496.57 -5.18935 3.21774 0
M  V30 15785 H 1497.98 -3.39954 4.61632 0
M  V30 15786 H 1496.38 -2.91777 5.24391 0
M  V30 15787 H 1497.45 -1.68889 4.54538 0
M  V30 15788 N 1498.79 -1.41931 -0.685074 0
M  V30 15789 C 1499.7 -1.46985 -1.82846 0
M  V30 15790 C 1500.72 -0.359487 -1.70246 0
M  V30 15791 O 1501.9 -0.608824 -1.91977 0
M  V30 15792 C 1498.96 -1.36001 -3.18912 0
M  V30 15793 C 1498.02 -2.57442 -3.43543 0
M  V30 15794 C 1497.25 -2.46972 -4.73118 0
M  V30 15795 O 1497.48 -1.49999 -5.50324 0
M  V30 15796 O 1496.41 -3.36922 -4.98766 0
M  V30 15797 H 1500.24 -2.4347 -1.81538 0
M  V30 15798 H 1497.82 -1.23583 -0.839497 0
M  V30 15799 H 1499.7 -1.32198 -4.00127 0
M  V30 15800 H 1498.38 -0.426366 -3.2088 0
M  V30 15801 H 1497.29 -2.66821 -2.62217 0
M  V30 15802 H 1498.62 -3.49671 -3.46398 0
M  V30 15803 N 1500.27 0.920374 -1.27933 0
M  V30 15804 C 1501.52 1.67131 -1.1487 0
M  V30 15805 C 1501.85 1.91816 0.303343 0
M  V30 15806 O 1501.13 1.51379 1.22125 0
M  V30 15807 C 1501.41 3.03332 -1.94066 0
M  V30 15808 C 1501.26 2.85842 -3.47296 0
M  V30 15809 C 1502.58 4.03773 -1.75087 0
M  V30 15810 H 1499.7 0.606537 -0.418666 0
M  V30 15811 H 1502.34 1.06755 -1.57173 0
M  V30 15812 H 1500.49 3.54869 -1.58116 0
M  V30 15813 H 1502.16 2.41367 -3.93115 0
M  V30 15814 H 1500.41 2.21035 -3.73264 0
M  V30 15815 H 1501.08 3.82535 -3.97958 0
M  V30 15816 H 1503.55 3.61274 -2.06447 0
M  V30 15817 H 1502.43 4.97048 -2.32882 0
M  V30 15818 H 1502.69 4.36512 -0.700665 0
M  V30 15819 N 1501.75 1.10074 1.1279 0
M  V30 15820 C 1503 0.852005 1.84696 0
M  V30 15821 C 1503.35 -0.615785 1.8228 0
M  V30 15822 O 1502.64 -1.448 1.25473 0
M  V30 15823 C 1502.84 1.32969 3.31744 0
M  V30 15824 C 1502.67 2.84239 3.4848 0
M  V30 15825 C 1501.44 3.52197 3.62333 0
M  V30 15826 C 1503.63 3.82356 3.4396 0
M  V30 15827 N 1501.62 4.91825 3.67397 0
M  V30 15828 C 1502.99 5.07974 3.55474 0
M  V30 15829 C 1505.04 3.75116 3.27402 0
M  V30 15830 C 1503.75 6.27208 3.52139 0
M  V30 15831 C 1505.77 4.93845 3.25378 0
M  V30 15832 C 1505.13 6.1831 3.3745 0
M  V30 15833 H 1501.23 0.364722 0.691738 0
M  V30 15834 H 1503.82 1.40239 1.35059 0
M  V30 15835 H 1501.99 0.806668 3.79931 0
M  V30 15836 H 1503.72 1.02559 3.91489 0
M  V30 15837 H 1500.47 3.02636 3.64292 0
M  V30 15838 H 1500.9 5.64579 3.73604 0
M  V30 15839 H 1505.54 2.79808 3.16966 0
M  V30 15840 H 1503.26 7.2281 3.61347 0
M  V30 15841 H 1506.84 4.89949 3.13754 0
M  V30 15842 H 1505.72 7.08641 3.35854 0
M  V30 15843 N 1503.23 -1.30138 0.888926 0
M  V30 15844 C 1504.16 -2.3047 0.374934 0
M  V30 15845 C 1505.14 -1.61156 -0.544322 0
M  V30 15846 O 1506.32 -1.88738 -0.457337 0
M  V30 15847 C 1503.45 -3.44896 -0.407935 0
M  V30 15848 C 1502.41 -4.25935 0.419916 0
M  V30 15849 C 1501.73 -5.32452 -0.489797 0
M  V30 15850 C 1503.03 -4.9508 1.66413 0
M  V30 15851 H 1504.73 -2.73711 1.21337 0
M  V30 15852 H 1502.27 -1.31586 0.584899 0
M  V30 15853 H 1504.23 -4.14153 -0.778177 0
M  V30 15854 H 1502.95 -3.0047 -1.28005 0
M  V30 15855 H 1501.61 -3.58372 0.772348 0
M  V30 15856 H 1501.26 -4.84273 -1.35974 0
M  V30 15857 H 1500.96 -5.87569 0.0603412 0
M  V30 15858 H 1502.48 -6.04563 -0.856468 0
M  V30 15859 H 1503.9 -5.56831 1.36425 0
M  V30 15860 H 1502.29 -5.6008 2.15477 0
M  V30 15861 H 1503.36 -4.20981 2.4063 0
M  V30 15862 N 1504.71 -0.650285 -1.43559 0
M  V30 15863 C 1506.12 -0.317586 -1.56408 0
M  V30 15864 C 1506.32 1.17844 -1.63447 0
M  V30 15865 O 1505.38 1.96318 -1.58794 0
M  V30 15866 C 1506.69 -1.02636 -2.82642 0
M  V30 15867 C 1508.24 -1.00633 -2.96381 0
M  V30 15868 C 1508.71 -1.69595 -4.25443 0
M  V30 15869 N 1510.2 -1.66345 -4.323 0
M  V30 15870 C 1510.94 -2.16581 -5.30924 0
M  V30 15871 N 1510.44 -2.75092 -6.35843 0
M  V30 15872 N 1512.23 -2.07098 -5.22558 0
M  V30 15873 H 1504.38 -1.62114 -1.37233 0
M  V30 15874 H 1506.64 -0.681588 -0.658895 0
M  V30 15875 H 1506.35 -2.08146 -2.83493 0
M  V30 15876 H 1506.22 -0.576081 -3.72775 0
M  V30 15877 H 1508.61 0.0403519 -2.95072 0
M  V30 15878 H 1508.69 -1.49528 -2.07545 0
M  V30 15879 H 1508.33 -2.74218 -4.27512 0
M  V30 15880 H 1508.26 -1.18168 -5.1317 0
M  V30 15881 H 1510.76 -1.23644 -3.571 0
M  V30 15882 H 1511.07 -3.11108 -7.07412 0
M  V30 15883 H 1509.41 -2.79152 -6.36474 0
M  V30 15884 H 1512.6 -1.61093 -4.39507 0
M  V30 15885 H 1512.78 -2.46557 -5.99261 0
M  V30 15886 N 1506.18 1.52647 -0.392018 0
M  V30 15887 C 1507.43 2.01215 0.188926 0
M  V30 15888 C 1507.75 1.28019 1.47092 0
M  V30 15889 O 1507.02 0.401048 1.91751 0
M  V30 15890 H 1505.6 0.743444 0.0728049 0
M  V30 15891 H 1508.26 1.87715 -0.524332 0
M  V30 15892 H 1507.36 3.09562 0.397216 0
M  V30 15893 N 1507.66 0.121921 1.57128 0
M  V30 15894 C 1508.61 -0.844503 2.16728 0
M  V30 15895 C 1509.6 -1.2733 1.1173 0
M  V30 15896 O 1510.81 -1.2447 1.30028 0
M  V30 15897 H 1507.19 -0.290459 0.693641 0
M  V30 15898 H 1509.16 -0.317379 2.96707 0
M  V30 15899 C 1507.91 -2.08359 2.78356 0
M  V30 15900 H 1507.23 -1.76258 3.5885 0
M  V30 15901 H 1508.67 -2.73978 3.23592 0
M  V30 15902 C 1507.13 -2.87526 1.75586 0
M  V30 15903 O 1507.66 -3.83011 1.21101 0
M  V30 15904 N 1505.86 -2.51575 1.4546 0
M  V30 15905 H 1505.41 -1.73993 1.89958 0
M  V30 15906 H 1505.37 -3.0484 0.769411 0
M  V30 15907 N 1509.14 -1.56867 -0.151857 0
M  V30 15908 C 1510.37 -1.87237 -0.880343 0
M  V30 15909 C 1510.78 -0.709565 -1.74959 0
M  V30 15910 O 1510.14 0.320818 -1.79658 0
M  V30 15911 C 1510.19 -3.16811 -1.74107 0
M  V30 15912 O 1509.91 -4.28611 -0.906858 0
M  V30 15913 C 1511.41 -3.60662 -2.57755 0
M  V30 15914 H 1508.63 -0.62074 -0.254799 0
M  V30 15915 H 1511.18 -2.03977 -0.146104 0
M  V30 15916 H 1509.33 -3.01838 -2.42842 0
M  V30 15917 H 1509.75 -5.02673 -1.49733 0
M  V30 15918 H 1511.22 -4.54176 -3.13732 0
M  V30 15919 H 1511.7 -2.85716 -3.33561 0
M  V30 15920 H 1512.3 -3.78312 -1.94319 0
M  V30 15921 N 1510.62 0.421051 -1.51871 0
M  V30 15922 C 1511.87 1.16908 -1.65344 0
M  V30 15923 C 1512.19 1.90801 -0.377538 0
M  V30 15924 O 1511.45 1.84972 0.639061 0
M  V30 15925 C 1511.75 2.19819 -2.81806 0
M  V30 15926 C 1511.41 1.62821 -4.20476 0
M  V30 15927 C 1510.08 1.47 -4.58197 0
M  V30 15928 C 1512.43 1.21079 -5.06941 0
M  V30 15929 C 1509.76 0.879359 -5.80073 0
M  V30 15930 C 1512.11 0.634373 -6.29411 0
M  V30 15931 C 1510.77 0.4632 -6.65891 0
M  V30 15932 H 1510.04 0.427798 -0.605037 0
M  V30 15933 H 1512.69 0.457896 -1.85945 0
M  V30 15934 H 1510.99 2.97037 -2.55492 0
M  V30 15935 H 1512.69 2.77548 -2.89427 0
M  V30 15936 H 1509.28 1.76115 -3.90745 0
M  V30 15937 H 1513.46 1.32115 -4.78392 0
M  V30 15938 H 1508.72 0.734646 -6.0697 0
M  V30 15939 H 1512.89 0.302484 -6.95743 0
M  V30 15940 H 1510.52 0.00341397 -7.602 0
M  V30 15941 N 1512.1 1.42293 0.677538 0
M  V30 15942 C 1513.32 1.46214 1.47092 0
M  V30 15943 C 1513.75 0.0740989 1.87954 0
M  V30 15944 O 1513.1 -0.926831 1.55819 0
M  V30 15945 C 1513.15 2.39236 2.69812 0
M  V30 15946 O 1512.26 1.86183 3.6798 0
M  V30 15947 H 1511.6 0.495507 0.442006 0
M  V30 15948 H 1514.13 1.86952 0.831274 0
M  V30 15949 H 1514.14 2.55723 3.17915 0
M  V30 15950 H 1512.81 3.40081 2.39411 0
M  V30 15951 H 1511.39 1.79237 3.26999 0
M  V30 15952 N 1513.57 -0.913576 1.28419 0
M  V30 15953 C 1514.5 -2.03275 1.14897 0
M  V30 15954 C 1515.49 -1.70036 0.0467034 0
M  V30 15955 O 1516.67 -1.92907 0.223725 0
M  V30 15956 C 1513.8 -3.37717 0.810217 0
M  V30 15957 C 1512.75 -3.85119 1.86728 0
M  V30 15958 C 1512.08 -5.16527 1.38215 0
M  V30 15959 C 1513.38 -4.06959 3.27386 0
M  V30 15960 H 1515.07 -2.14847 2.08522 0
M  V30 15961 H 1512.62 -1.03233 1.00394 0
M  V30 15962 H 1514.57 -4.15505 0.702382 0
M  V30 15963 H 1513.3 -3.26199 -0.161732 0
M  V30 15964 H 1511.96 -3.09536 1.96426 0
M  V30 15965 H 1511.6 -5.01413 0.399263 0
M  V30 15966 H 1511.3 -5.49213 2.08898 0
M  V30 15967 H 1512.83 -5.96871 1.28754 0
M  V30 15968 H 1514.24 -4.75272 3.20608 0
M  V30 15969 H 1512.64 -4.50977 3.95904 0
M  V30 15970 H 1513.71 -3.11764 3.71391 0
M  V30 15971 N 1515.05 -1.1067 -1.12204 0
M  V30 15972 C 1515.96 -0.770221 -2.21596 0
M  V30 15973 C 1516.98 0.233297 -1.72429 0
M  V30 15974 O 1518.15 0.0714493 -2.01273 0
M  V30 15975 C 1515.22 -0.209682 -3.46065 0
M  V30 15976 C 1514.28 -1.27079 -4.1006 0
M  V30 15977 C 1513.51 -0.736899 -5.28588 0
M  V30 15978 O 1513.74 0.435838 -5.68732 0
M  V30 15979 O 1512.67 -1.49797 -5.82962 0
M  V30 15980 H 1516.5 -1.6834 -2.52776 0
M  V30 15981 H 1514.08 -0.882012 -1.20586 0
M  V30 15982 H 1515.96 0.0989516 -4.21284 0
M  V30 15983 H 1514.64 0.676316 -3.16556 0
M  V30 15984 H 1513.55 -1.63231 -3.3661 0
M  V30 15985 H 1514.88 -2.12989 -4.4373 0
M  V30 15986 N 1516.53 1.29665 -0.895815 0
M  V30 15987 C 1517.44 2.31582 -0.375086 0
M  V30 15988 C 1518.46 1.65789 0.528196 0
M  V30 15989 O 1519.63 1.96999 0.41871 0
M  V30 15990 C 1516.7 3.44472 0.39241 0
M  V30 15991 C 1515.76 4.25866 -0.541926 0
M  V30 15992 C 1514.99 5.33365 0.189037 0
M  V30 15993 O 1515.21 5.52607 1.41355 0
M  V30 15994 O 1514.15 6.0009 -0.466441 0
M  V30 15995 H 1517.97 2.78095 -1.22052 0
M  V30 15996 H 1515.56 1.34031 -0.660007 0
M  V30 15997 H 1517.44 4.13214 0.826565 0
M  V30 15998 H 1516.12 3.00074 1.21397 0
M  V30 15999 H 1515.02 3.59781 -1.02512 0
M  V30 16000 H 1516.36 4.73896 -1.32979 0
M  V30 16001 N 1518.01 0.657889 1.43212 0
M  V30 16002 C 1519.25 0.173443 2.02057 0
M  V30 16003 C 1519.59 -1.21108 1.51811 0
M  V30 16004 O 1518.86 -1.80953 0.71317 0
M  V30 16005 C 1519.15 0.189429 3.59601 0
M  V30 16006 C 1519 1.6082 4.20068 0
M  V30 16007 C 1520.32 -0.471633 4.37566 0
M  V30 16008 H 1517.44 0.0644999 0.734172 0
M  V30 16009 H 1520.08 0.839462 1.7045 0
M  V30 16010 H 1518.23 -0.377689 3.8666 0
M  V30 16011 H 1519.9 2.22627 4.04024 0
M  V30 16012 H 1518.14 2.15407 3.7654 0
M  V30 16013 H 1518.81 1.5712 5.29167 0
M  V30 16014 H 1521.29 0.0109387 4.16099 0
M  V30 16015 H 1520.17 -0.429739 5.47215 0
M  V30 16016 H 1520.43 -1.54652 4.14168 0
M  V30 16017 N 1519.49 -1.52437 0.400108 0
M  V30 16018 C 1520.76 -1.94162 -0.23671 0
M  V30 16019 C 1521.14 -1.33636 -1.63416 0
M  V30 16020 O 1520.49 -0.508643 -2.22767 0
M  V30 16021 C 1520.7 -3.48088 -0.252159 0
M  V30 16022 C 1522.05 -4.21925 -0.475887 0
M  V30 16023 O 1523.07 -3.5465 -0.331905 0
M  V30 16024 O 1521.93 -5.41205 -0.758895 0
M  V30 16025 H 1519.03 -0.813294 -0.14994 0
M  V30 16026 H 1521.57 -1.63475 0.455399 0
M  V30 16027 H 1520.34 -3.84501 0.726263 0
M  V30 16028 H 1519.97 -3.8511 -0.988742 0
M  V30 16029 N 1520.96 -0.130252 -1.57061 0
M  V30 16030 C 1521.91 0.815767 -2.15902 0
M  V30 16031 C 1522.88 1.2558 -1.08715 0
M  V30 16032 O 1524.07 1.33132 -1.36677 0
M  V30 16033 C 1521.21 2.0561 -2.77162 0
M  V30 16034 C 1520.32 1.6634 -3.98692 0
M  V30 16035 C 1519.45 2.85425 -4.48002 0
M  V30 16036 C 1518.49 2.42449 -5.62036 0
M  V30 16037 N 1517.63 3.54486 -6.0604 0
M  V30 16038 H 1522.47 0.307164 -2.96413 0
M  V30 16039 H 1520.01 0.139913 -1.46433 0
M  V30 16040 H 1521.97 2.78298 -3.10815 0
M  V30 16041 H 1520.6 2.5391 -1.99323 0
M  V30 16042 H 1519.65 0.834817 -3.71127 0
M  V30 16043 H 1520.96 1.30765 -4.81354 0
M  V30 16044 H 1520.11 3.66325 -4.83623 0
M  V30 16045 H 1518.85 3.24235 -3.64312 0
M  V30 16046 H 1517.86 1.59985 -5.26008 0
M  V30 16047 H 1519.08 2.04744 -6.475 0
M  V30 16048 H 1517.03 3.92948 -5.25289 0
M  V30 16049 H 1516.95 3.22871 -6.83586 0
M  V30 16050 H 1518.21 4.35792 -6.46302 0
M  V30 16051 N 1522.44 1.56945 0.143535 0
M  V30 16052 C 1523.37 2.0156 1.17881 0
M  V30 16053 C 1524.35 0.895744 1.44604 0
M  V30 16054 O 1525.54 1.16379 1.55466 0
M  V30 16055 C 1522.67 2.39915 2.51114 0
M  V30 16056 C 1521.62 3.55117 2.38905 0
M  V30 16057 C 1520.95 3.79296 3.7688 0
M  V30 16058 C 1522.25 4.87668 1.87021 0
M  V30 16059 H 1523.94 2.88296 0.80783 0
M  V30 16060 H 1521.49 1.38698 0.387149 0
M  V30 16061 H 1523.44 2.69727 3.23767 0
M  V30 16062 H 1522.17 1.5012 2.90055 0
M  V30 16063 H 1520.83 3.25476 1.68703 0
M  V30 16064 H 1520.47 2.86747 4.13262 0
M  V30 16065 H 1520.17 4.56827 3.69571 0
M  V30 16066 H 1521.7 4.11537 4.51076 0
M  V30 16067 H 1523.11 5.16176 2.4947 0
M  V30 16068 H 1521.51 5.69029 1.90594 0
M  V30 16069 H 1522.58 4.77811 0.82611 0
M  V30 16070 N 1523.92 -0.412991 1.52093 0
M  V30 16071 C 1525.17 -1.15801 1.65634 0
M  V30 16072 C 1525.49 -1.91127 0.386737 0
M  V30 16073 O 1524.76 -1.86541 -0.598262 0
M  V30 16074 H 1523.34 -0.430467 0.610498 0
M  V30 16075 H 1526 -0.471127 1.8912 0
M  V30 16076 H 1525.1 -1.87421 2.49559 0
M  V30 16077 N 1525.4 -1.4265 -0.669982 0
M  V30 16078 C 1526.64 -1.44866 -1.44199 0
M  V30 16079 C 1527 -0.0647049 -1.91891 0
M  V30 16080 O 1528.2 0.0384187 -2.68773 0
M  V30 16081 C 1526.48 -2.44846 -2.60356 0
M  V30 16082 S 1528.03 -2.65803 -3.49134 0
M  V30 16083 H 1524.85 -0.512859 -0.49244 0
M  V30 16084 H 1527.45 -1.7929 -0.779442 0
M  V30 16085 H 1526.16 -3.44161 -2.23565 0
M  V30 16086 H 1525.69 -2.11863 -3.31478 0
M  V30 16087 H 1527.7 -1.94466 -4.56506 0
M  V30 16088 N 1526.88 0.906753 -1.28902 0
M  V30 16089 C 1528.29 1.18635 -1.06761 0
M  V30 16090 C 1528.49 2.00643 0.185594 0
M  V30 16091 O 1527.55 2.3647 0.885324 0
M  V30 16092 C 1528.86 1.91414 -2.31907 0
M  V30 16093 C 1530.41 2.04269 -2.37156 0
M  V30 16094 C 1530.89 2.80458 -3.62088 0
M  V30 16095 N 1532.38 2.88016 -3.62769 0
M  V30 16096 C 1533.11 3.47485 -4.56116 0
M  V30 16097 N 1532.61 4.08178 -5.59788 0
M  V30 16098 N 1534.4 3.45092 -4.43698 0
M  V30 16099 H 1526.55 0.359413 -2.09337 0
M  V30 16100 H 1528.81 0.221688 -0.921715 0
M  V30 16101 H 1528.52 1.38587 -3.23244 0
M  V30 16102 H 1528.39 2.91929 -2.38867 0
M  V30 16103 H 1530.78 2.56275 -1.46312 0
M  V30 16104 H 1530.86 1.0291 -2.34186 0
M  V30 16105 H 1530.51 2.2913 -4.53279 0
M  V30 16106 H 1530.44 3.82147 -3.62314 0
M  V30 16107 H 1532.93 2.44902 -2.87805 0
M  V30 16108 H 1533.24 4.51557 -6.27149 0
M  V30 16109 H 1531.59 4.06661 -5.63606 0
M  V30 16110 H 1534.78 2.96891 -3.61903 0
M  V30 16111 H 1534.95 3.91145 -5.16633 0
M  V30 16112 N 1528.36 1.11264 1.11616 0
M  V30 16113 C 1529.63 0.772174 1.79713 0
M  V30 16114 C 1530.01 -0.740055 1.97703 0
M  V30 16115 O 1529.36 -1.66939 1.56024 0
M  V30 16116 C 1529.57 1.53316 3.13521 0
M  V30 16117 C 1530.92 1.71124 3.88589 0
M  V30 16118 O 1531.94 1.49725 3.23204 0
M  V30 16119 O 1530.8 2.0667 5.05915 0
M  V30 16120 H 1527.9 0.279548 0.77832 0
M  V30 16121 H 1530.44 1.21596 1.18375 0
M  V30 16122 H 1529.21 2.56194 2.95771 0
M  V30 16123 H 1528.84 1.08281 3.82572 0
M  V30 16124 N 1529.83 -1.29188 0.902679 0
M  V30 16125 C 1531.06 -1.99576 0.545635 0
M  V30 16126 C 1531.48 -1.67541 -0.870372 0
M  V30 16127 O 1530.83 -0.922082 -1.57493 0
M  V30 16128 C 1530.88 -3.54013 0.731916 0
M  V30 16129 O 1530.61 -3.84914 2.09219 0
M  V30 16130 C 1532.11 -4.41666 0.38022 0
M  V30 16131 H 1529.33 -0.637593 0.209083 0
M  V30 16132 H 1531.87 -1.64652 1.21284 0
M  V30 16133 H 1530.03 -3.87239 0.111849 0
M  V30 16134 H 1530.44 -4.79581 2.12373 0
M  V30 16135 H 1531.91 -5.49138 0.561382 0
M  V30 16136 H 1532.39 -4.33858 -0.682915 0
M  V30 16137 H 1533 -4.13918 0.977354 0
M  V30 16138 N 1531.31 -0.665475 -1.42861 0
M  V30 16139 C 1532.73 -0.334157 -1.56063 0
M  V30 16140 C 1532.93 1.16104 -1.64688 0
M  V30 16141 O 1531.98 1.94622 -1.60867 0
M  V30 16142 C 1533.3 -1.05628 -2.81537 0
M  V30 16143 C 1534.84 -1.03771 -2.95297 0
M  V30 16144 C 1535.32 -1.74098 -4.2362 0
M  V30 16145 N 1536.81 -1.7092 -4.30512 0
M  V30 16146 C 1537.55 -2.222 -5.28597 0
M  V30 16147 N 1537.04 -2.81821 -6.32889 0
M  V30 16148 N 1538.83 -2.12628 -5.20332 0
M  V30 16149 H 1530.99 -1.6356 -1.35506 0
M  V30 16150 H 1533.25 -0.688538 -0.651628 0
M  V30 16151 H 1532.95 -2.11141 -2.81269 0
M  V30 16152 H 1532.83 -0.615586 -3.72143 0
M  V30 16153 H 1535.22 0.00905324 -2.95099 0
M  V30 16154 H 1535.3 -1.51721 -2.05948 0
M  V30 16155 H 1534.94 -2.78737 -4.2458 0
M  V30 16156 H 1534.87 -1.23604 -5.11888 0
M  V30 16157 H 1537.36 -1.27425 -3.55769 0
M  V30 16158 H 1537.67 -3.18594 -7.04072 0
M  V30 16159 H 1536.02 -2.85887 -6.33478 0
M  V30 16160 H 1539.21 -1.65746 -4.37774 0
M  V30 16161 H 1539.38 -2.52899 -5.96612 0
M  V30 16162 N 1532.79 1.52222 -0.408187 0
M  V30 16163 C 1533.72 2.29892 0.408868 0
M  V30 16164 C 1534.7 1.34063 1.04695 0
M  V30 16165 O 1535.89 1.6297 1.05615 0
M  V30 16166 C 1533.02 3.11964 1.52629 0
M  V30 16167 C 1531.97 4.15833 1.01326 0
M  V30 16168 C 1531.3 4.86244 2.2242 0
M  V30 16169 C 1532.6 5.22256 0.0679573 0
M  V30 16170 H 1534.29 2.98443 -0.23923 0
M  V30 16171 H 1531.84 1.43528 -0.116496 0
M  V30 16172 H 1533.79 3.65067 2.10486 0
M  V30 16173 H 1532.51 2.41181 2.20225 0
M  V30 16174 H 1531.17 3.63739 0.4571 0
M  V30 16175 H 1530.82 4.11991 2.88569 0
M  V30 16176 H 1530.52 5.56461 1.88746 0
M  V30 16177 H 1532.04 5.42159 2.80885 0
M  V30 16178 H 1533.46 5.70604 0.555295 0
M  V30 16179 H 1531.85 5.9983 -0.179934 0
M  V30 16180 H 1532.92 4.76892 -0.877599 0
M  V30 16181 N 1534.27 0.138579 1.5699 0
M  V30 16182 C 1535.2 -0.800568 2.19347 0
M  V30 16183 C 1536.18 -1.26318 1.13921 0
M  V30 16184 O 1537.36 -1.32226 1.42232 0
M  V30 16185 C 1534.49 -2.04317 2.80842 0
M  V30 16186 C 1533.45 -1.71764 3.92022 0
M  V30 16187 C 1532.77 -3.03217 4.40413 0
M  V30 16188 C 1534.07 -0.970789 5.13199 0
M  V30 16189 H 1535.77 -0.280888 2.98079 0
M  V30 16190 H 1533.31 -0.133663 1.43378 0
M  V30 16191 H 1535.27 -2.70491 3.2313 0
M  V30 16192 H 1533.99 -2.58643 1.99428 0
M  V30 16193 H 1532.65 -1.07972 3.50339 0
M  V30 16194 H 1532.3 -3.55517 3.55832 0
M  V30 16195 H 1532 -2.82203 5.15398 0
M  V30 16196 H 1533.52 -3.70477 4.85365 0
M  V30 16197 H 1534.94 -1.53445 5.52384 0
M  V30 16198 H 1533.33 -0.860895 5.93893 0
M  V30 16199 H 1534.4 0.0390088 4.84884 0
M  V30 16200 N 1535.75 -1.57019 -0.13521 0
M  V30 16201 C 1536.68 -2.02182 -1.16811 0
M  V30 16202 C 1537.66 -0.9034 -1.44127 0
M  V30 16203 O 1538.84 -1.17202 -1.54846 0
M  V30 16204 C 1535.97 -2.41243 -2.49838 0
M  V30 16205 C 1534.93 -3.56379 -2.37018 0
M  V30 16206 C 1534.25 -3.8129 -3.74863 0
M  V30 16207 C 1535.55 -4.88653 -1.84432 0
M  V30 16208 H 1537.25 -2.8872 -0.792529 0
M  V30 16209 H 1534.79 -1.38901 -0.379788 0
M  V30 16210 H 1536.74 -2.7144 -3.22332 0
M  V30 16211 H 1535.47 -1.51656 -2.89254 0
M  V30 16212 H 1534.13 -3.26366 -1.66975 0
M  V30 16213 H 1533.78 -2.88934 -4.11735 0
M  V30 16214 H 1533.48 -4.58781 -3.67143 0
M  V30 16215 H 1535 -4.13924 -4.48887 0
M  V30 16216 H 1536.41 -5.17492 -2.46729 0
M  V30 16217 H 1534.81 -5.70032 -1.87574 0
M  V30 16218 H 1535.88 -4.78242 -0.800759 0
M  V30 16219 O 1537.26 0.279757 -1.59059 0
M  V30 16220 H 1537.95 0.92542 -1.70164 0
M  V30 END ATOM
M  V30 BEGIN BOND
M  V30 END BOND
M  V30 END CTAB
M  END
$$$$
