drugbank_target|Q9HTN2 Acetylglutamate kinase (DB04075)
 OpenBabel12092120023D

  0  0  0     0  0            999 V3000
M  V30 BEGIN CTAB
M  V30 COUNTS 4564 4587 0 0 0
M  V30 BEGIN ATOM
M  V30 1 H -0.908 1.98254 -0.117106 0
M  V30 2 N 0 1.576 0 0
M  V30 3 C 0.933 2.03868 1.02534 0
M  V30 4 C 1.911 0.928543 1.3348 0
M  V30 5 O 3.095 1.19667 1.45644 0
M  V30 6 C 0.222 2.43627 2.35294 0
M  V30 7 C -0.732 3.65373 2.2001 0
M  V30 8 S 0.101 5.13292 1.52614 0
M  V30 9 C 1.257 5.56322 2.86805 0
M  V30 10 H 1.49 2.90518 0.631377 0
M  V30 11 H -0.977 1.52953 0.210867 0
M  V30 12 H 0.981 2.67203 3.11629 0
M  V30 13 H -0.358 1.57376 2.7183 0
M  V30 14 H -1.165 3.90944 3.18086 0
M  V30 15 H -1.563 3.418 1.51819 0
M  V30 16 H 0.729 5.58782 3.83104 0
M  V30 17 H 1.672 6.56266 2.65933 0
M  V30 18 H 2.08 4.83886 2.90714 0
M  V30 19 N 1.4781 -0.272755 1.55222 0
M  V30 20 C 2.7061 -1.02255 1.79865 0
M  V30 21 C 3.1211 -1.79924 0.572088 0
M  V30 22 O 2.4781 -1.76638 -0.458842 0
M  V30 23 C 2.5291 -1.98094 3.02392 0
M  V30 24 O 2.2501 -1.23572 4.20311 0
M  V30 25 C 3.7511 -2.84884 3.39641 0
M  V30 26 H 0.9711 -0.302057 0.599168 0
M  V30 27 H 3.5151 -0.303465 2.02236 0
M  V30 28 H 1.6701 -2.65465 2.82147 0
M  V30 29 H 2.0841 -1.88172 4.89583 0
M  V30 30 H 3.5581 -3.47927 4.28545 0
M  V30 31 H 4.0351 -3.54665 2.59055 0
M  V30 32 H 4.6411 -2.23003 3.62146 0
M  V30 33 N 2.9562 -1.48159 -0.537278 0
M  V30 34 C 3.8862 -1.65029 -1.6519 0
M  V30 35 C 4.8672 -0.499281 -1.62607 0
M  V30 36 O 6.0522 -0.730972 -1.79918 0
M  V30 37 C 3.1822 -1.68303 -3.03795 0
M  V30 38 C 2.1362 -2.8283 -3.21234 0
M  V30 39 C 1.4622 -2.71189 -4.60826 0
M  V30 40 C 2.7622 -4.24211 -3.04701 0
M  V30 41 H 4.4562 -2.58341 -1.51328 0
M  V30 42 H 2.0022 -1.24325 -0.726585 0
M  V30 43 H 3.9552 -1.78693 -3.81637 0
M  V30 44 H 2.6792 -0.715635 -3.18663 0
M  V30 45 H 1.3382 -2.71983 -2.45807 0
M  V30 46 H 0.9862 -1.72435 -4.7252 0
M  V30 47 H 0.6862 -3.48035 -4.7344 0
M  V30 48 H 2.2102 -2.83537 -5.40777 0
M  V30 49 H 3.6242 -4.3593 -3.72341 0
M  V30 50 H 2.0212 -5.01998 -3.28813 0
M  V30 51 H 3.0912 -4.41184 -2.01209 0
M  V30 52 N 4.4343 0.785586 -1.36625 0
M  V30 53 C 5.6593 1.57963 -1.34397 0
M  V30 54 C 6.0843 1.87964 0.071526 0
M  V30 55 O 5.4423 1.48182 1.0446 0
M  V30 56 C 5.4903 2.87511 -2.17646 0
M  V30 57 O 4.5943 3.81281 -1.57158 0
M  V30 58 H 3.9353 0.479014 -0.459828 0
M  V30 59 H 6.4653 0.973411 -1.79961 0
M  V30 60 H 6.4753 3.36745 -2.30362 0
M  V30 61 H 5.1503 2.65002 -3.20541 0
M  V30 62 H 3.7273 3.39885 -1.53403 0
M  V30 63 N 5.9124 1.20967 1.01018 0
M  V30 64 C 7.3284 0.965905 1.27053 0
M  V30 65 C 7.5284 -0.350785 1.98423 0
M  V30 66 O 6.5844 -1.07773 2.28344 0
M  V30 67 C 7.8974 2.15294 2.09926 0
M  V30 68 C 9.4454 2.19463 2.23171 0
M  V30 69 C 9.9204 3.3767 3.09424 0
M  V30 70 N 11.4114 3.37724 3.17012 0
M  V30 71 C 12.1464 4.25837 3.83993 0
M  V30 72 N 11.6424 5.24138 4.53047 0
M  V30 73 N 13.4354 4.1366 3.80581 0
M  V30 74 H 5.5864 2.0565 0.531194 0
M  V30 75 H 7.8494 0.90024 0.297106 0
M  V30 76 H 7.5554 3.10684 1.64828 0
M  V30 77 H 7.4294 2.13923 3.10672 0
M  V30 78 H 9.8164 1.24632 2.6749 0
M  V30 79 H 9.8974 2.2488 1.21912 0
M  V30 80 H 9.5414 4.32791 2.65808 0
M  V30 81 H 9.4714 3.29491 4.10784 0
M  V30 82 H 11.9624 2.6658 2.6785 0
M  V30 83 H 12.2754 5.87684 5.01844 0
M  V30 84 H 10.6204 5.28068 4.5185 0
M  V30 85 H 13.8114 3.36127 3.25785 0
M  V30 86 H 13.9844 4.82538 4.32505 0
M  V30 87 N 7.3905 -1.2043 1.01659 0
M  V30 88 C 8.6675 -1.8548 0.621004 0
M  V30 89 C 9.0475 -1.9091 -0.900919 0
M  V30 90 O 8.3955 -1.41694 -1.79263 0
M  V30 91 C 8.6055 -3.25119 1.2688 0
M  V30 92 C 9.9535 -4.01403 1.38423 0
M  V30 93 O 10.9775 -3.34473 1.22501 0
M  V30 94 O 9.8365 -5.21265 1.64151 0
M  V30 95 H 6.9305 -0.798761 0.214266 0
M  V30 96 H 9.4765 -1.28019 1.11396 0
M  V30 97 H 8.2485 -3.15932 2.30873 0
M  V30 98 H 7.8715 -3.90212 0.762917 0
M  V30 99 N 8.8686 -0.792821 -1.36206 0
M  V30 100 C 10.1456 -0.290627 -1.93429 0
M  V30 101 C 10.5256 1.21773 -1.72437 0
M  V30 102 O 9.8736 2.0108 -1.08531 0
M  V30 103 C 10.0836 -0.686973 -3.42172 0
M  V30 104 C 11.4316 -0.668643 -4.19302 0
M  V30 105 O 12.4556 -0.627658 -3.50626 0
M  V30 106 O 11.3146 -0.714597 -5.41808 0
M  V30 107 H 8.4086 -0.0727927 -0.82379 0
M  V30 108 H 10.9546 -0.875593 -1.45367 0
M  V30 109 H 9.7266 -1.72711 -3.51122 0
M  V30 110 H 9.3496 -0.0760733 -3.97527 0
M  V30 111 N 10.3467 1.47872 -0.545128 0
M  V30 112 C 11.3097 2.28337 0.198717 0
M  V30 113 C 12.3097 1.36255 0.853888 0
M  V30 114 O 13.4997 1.59003 0.711606 0
M  V30 115 C 10.6317 3.15585 1.28915 0
M  V30 116 H 11.8247 2.95567 -0.507941 0
M  V30 117 H 9.3777 1.53362 -0.301616 0
M  V30 118 H 10.1127 2.53019 2.02859 0
M  V30 119 H 9.8977 3.83337 0.824309 0
M  V30 120 H 11.3877 3.76243 1.81194 0
M  V30 121 N 11.8248 0.280983 1.55075 0
M  V30 122 C 12.7878 -0.590896 2.21452 0
M  V30 123 C 13.7878 -1.07682 1.19421 0
M  V30 124 O 14.9778 -0.97605 1.44288 0
M  V30 125 C 12.1098 -1.81587 2.88511 0
M  V30 126 H 13.3028 -0.0112554 2.99898 0
M  V30 127 H 10.8558 0.0316438 1.56268 0
M  V30 128 H 11.5908 -2.43587 2.14093 0
M  V30 129 H 11.3758 -1.4753 3.63287 0
M  V30 130 H 12.8658 -2.43575 3.39206 0
M  V30 131 N 13.3029 -1.57598 0.00835791 0
M  V30 132 C 14.2349 -2.05811 -1.00868 0
M  V30 133 C 15.2479 -0.977579 -1.30182 0
M  V30 134 O 16.4369 -1.25421 -1.27011 0
M  V30 135 C 13.5369 -2.45016 -2.34137 0
M  V30 136 C 12.7099 -3.75903 -2.23643 0
M  V30 137 C 11.7689 -4.01884 -3.3967 0
M  V30 138 O 10.7949 -4.72433 -3.17483 0
M  V30 139 N 11.9969 -3.50432 -4.62793 0
M  V30 140 H 14.7619 -2.93684 -0.597458 0
M  V30 141 H 12.3229 -1.60909 -0.178852 0
M  V30 142 H 14.3149 -2.59506 -3.10546 0
M  V30 143 H 12.8849 -1.62618 -2.66972 0
M  V30 144 H 12.1049 -3.7141 -1.32091 0
M  V30 145 H 13.3929 -4.61695 -2.13812 0
M  V30 146 H 12.7909 -2.93317 -4.83716 0
M  V30 147 H 11.3479 -3.70236 -5.3644 0
M  V30 148 N 14.781 0.264519 -1.55364 0
M  V30 149 C 16.027 0.99646 -1.76631 0
M  V30 150 C 16.36 1.85632 -0.570478 0
M  V30 151 O 15.635 1.89647 0.43175 0
M  V30 152 C 15.918 1.87187 -3.07625 0
M  V30 153 C 15.771 1.04138 -4.37579 0
M  V30 154 C 17.09 2.85749 -3.34717 0
M  V30 155 H 14.209 0.360841 -0.642622 0
M  V30 156 H 16.851 0.268218 -1.88097 0
M  V30 157 H 15.001 2.49279 -2.9798 0
M  V30 158 H 16.673 0.440517 -4.59192 0
M  V30 159 H 14.916 0.345115 -4.32425 0
M  V30 160 H 15.587 1.68729 -5.2558 0
M  V30 161 H 18.063 2.33793 -3.4421 0
M  V30 162 H 16.939 3.44136 -4.27623 0
M  V30 163 H 17.2 3.61311 -2.54768 0
M  V30 164 N 16.2591 1.48442 0.529413 0
M  V30 165 C 17.2221 1.62524 1.61612 0
M  V30 166 C 18.2221 0.498509 1.52877 0
M  V30 167 O 19.4121 0.76431 1.56537 0
M  V30 168 C 16.5441 1.59597 3.01233 0
M  V30 169 H 17.7371 2.59423 1.50465 0
M  V30 170 H 15.2901 1.37047 0.751514 0
M  V30 171 H 16.0251 0.641781 3.17886 0
M  V30 172 H 15.8101 2.41397 3.08982 0
M  V30 173 H 17.3001 1.72646 3.80241 0
M  V30 174 N 17.7372 -0.778329 1.37039 0
M  V30 175 C 18.6842 -1.89139 1.32269 0
M  V30 176 C 19.6542 -1.65017 0.189387 0
M  V30 177 O 20.8392 -1.87024 0.377693 0
M  V30 178 C 17.9792 -3.26112 1.12894 0
M  V30 179 C 17.0922 -3.62233 2.35396 0
M  V30 180 C 16.2272 -4.8838 2.08946 0
M  V30 181 C 15.2662 -5.17212 3.2735 0
M  V30 182 N 14.4032 -6.34546 3.00492 0
M  V30 183 H 19.2432 -1.92552 2.27437 0
M  V30 184 H 16.7802 -0.941473 1.13025 0
M  V30 185 H 18.7382 -4.05116 0.996835 0
M  V30 186 H 17.3682 -3.22091 0.213758 0
M  V30 187 H 16.4202 -2.78265 2.5937 0
M  V30 188 H 17.7322 -3.79481 3.23721 0
M  V30 189 H 16.8862 -5.75274 1.92729 0
M  V30 190 H 15.6252 -4.73222 1.17949 0
M  V30 191 H 14.6302 -4.28796 3.44113 0
M  V30 192 H 15.8552 -5.34283 4.19188 0
M  V30 193 H 13.8012 -6.20759 2.12118 0
M  V30 194 H 13.7182 -6.52179 3.82358 0
M  V30 195 H 14.9862 -7.24394 2.87879 0
M  V30 196 N 19.2153 -1.21501 -1.00376 0
M  V30 197 C 20.4613 -1.03452 -1.74429 0
M  V30 198 C 20.7943 0.430764 -1.89362 0
M  V30 199 O 20.0693 1.31962 -1.42886 0
M  V30 200 C 20.3523 -1.73375 -3.15615 0
M  V30 201 C 20.2053 -3.27431 -3.08397 0
M  V30 202 C 21.5243 -1.47732 -4.14564 0
M  V30 203 H 18.6433 -0.377226 -0.633143 0
M  V30 204 H 21.2853 -1.49693 -1.17013 0
M  V30 205 H 19.4353 -1.34064 -3.64636 0
M  V30 206 H 21.1073 -3.76119 -2.67081 0
M  V30 207 H 19.3503 -3.5767 -2.45468 0
M  V30 208 H 20.0213 -3.71524 -4.08258 0
M  V30 209 H 22.4973 -1.8186 -3.74254 0
M  V30 210 H 21.3733 -1.99169 -5.11491 0
M  V30 211 H 21.6343 -0.407589 -4.40217 0
M  V30 212 N 20.6934 1.19889 -1.02296 0
M  V30 213 C 21.6234 2.25141 -0.619174 0
M  V30 214 C 22.6044 1.66051 0.368915 0
M  V30 215 O 23.7894 1.92546 0.252941 0
M  V30 216 C 20.9194 3.4728 0.0368783 0
M  V30 217 C 19.8734 4.19005 -0.872865 0
M  V30 218 C 19.1994 5.34637 -0.0822402 0
M  V30 219 C 20.4994 4.74452 -2.18387 0
M  V30 220 H 22.1934 2.59171 -1.49903 0
M  V30 221 H 19.7394 1.24579 -0.722222 0
M  V30 222 H 21.6924 4.20098 0.330958 0
M  V30 223 H 20.4164 3.12433 0.95149 0
M  V30 224 H 19.0754 3.48061 -1.15105 0
M  V30 225 H 18.7234 4.96034 0.83422 0
M  V30 226 H 18.4234 5.83557 -0.688149 0
M  V30 227 H 19.9474 6.10255 0.205238 0
M  V30 228 H 21.3614 5.39055 -1.95172 0
M  V30 229 H 19.7584 5.33834 -2.74119 0
M  V30 230 H 20.8284 3.92844 -2.84257 0
M  V30 231 N 22.1715 0.800033 1.35784 0
M  V30 232 C 23.3965 0.388511 2.03729 0
M  V30 233 C 23.8215 -0.990481 1.5991 0
M  V30 234 O 23.1795 -1.64013 0.772612 0
M  V30 235 C 23.2275 0.4726 3.5749 0
M  V30 236 O 22.3315 -0.51646 4.09153 0
M  V30 237 H 21.6725 0.163271 0.643614 0
M  V30 238 H 24.2025 1.0841 1.73518 0
M  V30 239 H 24.2125 0.34003 4.06581 0
M  V30 240 H 22.8875 1.47848 3.88734 0
M  V30 241 H 21.4645 -0.344673 3.71304 0
M  V30 242 N 23.6496 -1.47581 0.552962 0
M  V30 243 C 24.5596 -2.33743 -0.200353 0
M  V30 244 C 25.5756 -1.47928 -0.916151 0
M  V30 245 O 26.7516 -1.80865 -0.885993 0
M  V30 246 C 23.8166 -3.24536 -1.21973 0
M  V30 247 C 22.8776 -4.26238 -0.511819 0
M  V30 248 C 22.1106 -5.12693 -1.48263 0
M  V30 249 O 22.3336 -5.01525 -2.71714 0
M  V30 250 O 21.2676 -5.93375 -1.00945 0
M  V30 251 H 25.0936 -2.9945 0.506304 0
M  V30 252 H 22.6786 -1.46071 0.313622 0
M  V30 253 H 24.5606 -3.80631 -1.80827 0
M  V30 254 H 23.2356 -2.61462 -1.90839 0
M  V30 255 H 22.1426 -3.73914 0.117799 0
M  V30 256 H 23.4756 -4.92014 0.135308 0
M  V30 257 N 25.1277 -0.289203 -1.54924 0
M  V30 258 C 26.0907 0.579144 -2.21762 0
M  V30 259 C 27.0907 1.07047 -1.1999 0
M  V30 260 O 28.2807 0.968384 -1.44803 0
M  V30 261 C 25.4127 1.80055 -2.8947 0
M  V30 262 H 26.6057 -0.00464908 -2.999 0
M  V30 263 H 24.1587 -0.0399306 -1.56249 0
M  V30 264 H 24.8937 2.42449 -2.15381 0
M  V30 265 H 24.6787 1.45602 -3.64064 0
M  V30 266 H 26.1687 2.41773 -3.40493 0
M  V30 267 N 26.6058 1.57591 -0.0167156 0
M  V30 268 C 27.5358 2.12496 0.967858 0
M  V30 269 C 28.5168 1.03807 1.34752 0
M  V30 270 O 29.7018 1.31577 1.42833 0
M  V30 271 C 26.8318 2.64194 2.25431 0
M  V30 272 C 25.7858 3.77559 2.01576 0
M  V30 273 C 25.1118 4.15636 3.36379 0
M  V30 274 C 26.4118 5.04151 1.36489 0
M  V30 275 H 28.1058 2.95013 0.510643 0
M  V30 276 H 25.6518 1.41915 0.244181 0
M  V30 277 H 27.6048 3.01236 2.94678 0
M  V30 278 H 26.3288 1.78821 2.73296 0
M  V30 279 H 24.9878 3.40937 1.34751 0
M  V30 280 H 24.6358 3.27263 3.81979 0
M  V30 281 H 24.3358 4.92022 3.21229 0
M  V30 282 H 25.8598 4.5525 4.06915 0
M  V30 283 H 27.2738 5.38857 1.95718 0
M  V30 284 H 25.6708 5.85453 1.31776 0
M  V30 285 H 26.7408 4.83733 0.336219 0
M  V30 286 N 28.0839 -0.256276 1.55502 0
M  V30 287 C 29.4949 -0.826068 1.67431 0
M  V30 288 C 29.8459 -1.86396 0.612446 0
M  V30 289 O 28.9709 -2.15031 -0.243025 0
M  V30 290 C 29.5659 -1.50512 3.03532 0
M  V30 291 C 28.1249 -2.02273 3.17431 0
M  V30 292 C 27.2719 -0.870548 2.63281 0
M  V30 293 H 30.2229 -0.0322728 1.58667 0
M  V30 294 H 30.2439 -2.37279 2.97454 0
M  V30 295 H 29.7559 -0.749484 3.80794 0
M  V30 296 H 27.8569 -2.80746 2.44974 0
M  V30 297 H 27.9699 -2.22655 4.24219 0
M  V30 298 H 26.3339 -1.26851 2.20864 0
M  V30 299 H 27.1169 -0.128149 3.43061 0
M  V30 300 N 29.562 -1.4872 -0.521534 0
M  V30 301 C 30.792 -1.6061 -1.29954 0
M  V30 302 C 31.2 -0.268728 -1.87282 0
M  V30 303 O 30.543 0.753221 -1.67548 0
M  V30 304 C 30.605 -2.60013 -2.48261 0
M  V30 305 C 30.269 -4.04874 -2.11957 0
M  V30 306 C 31.266 -4.92304 -1.67132 0
M  V30 307 C 28.951 -4.5047 -2.22221 0
M  V30 308 C 30.945 -6.2336 -1.33047 0
M  V30 309 C 28.632 -5.81544 -1.87748 0
M  V30 310 C 29.63 -6.67812 -1.43234 0
M  V30 311 O 29.318 -7.96446 -1.09217 0
M  V30 312 H 29.05 -0.544116 -0.401141 0
M  V30 313 H 31.604 -1.95339 -0.634958 0
M  V30 314 H 29.834 -2.20422 -3.17728 0
M  V30 315 H 31.523 -2.61648 -3.10315 0
M  V30 316 H 32.289 -4.58312 -1.58665 0
M  V30 317 H 28.168 -3.83504 -2.55823 0
M  V30 318 H 31.712 -6.90649 -0.982299 0
M  V30 319 H 27.609 -6.15069 -1.95858 0
M  V30 320 H 28.377 -8.09275 -1.22542 0
M  V30 321 N 31.0401 0.771051 -1.3745 0
M  V30 322 C 32.2891 1.52491 -1.3202 0
M  V30 323 C 32.6021 1.9538 0.0927347 0
M  V30 324 O 33.8081 2.70159 0.269503 0
M  V30 325 C 32.2641 2.75366 -2.31736 0
M  V30 326 C 31.8721 2.39573 -3.78562 0
M  V30 327 C 33.6161 3.53307 -2.35318 0
M  V30 328 C 31.5231 3.58954 -4.70007 0
M  V30 329 H 30.4531 0.572506 -0.490666 0
M  V30 330 H 33.1041 0.844474 -1.62914 0
M  V30 331 H 31.4861 3.45303 -1.93861 0
M  V30 332 H 32.6601 1.77415 -4.25277 0
M  V30 333 H 30.9751 1.74805 -3.77932 0
M  V30 334 H 33.5721 4.42039 -3.00842 0
M  V30 335 H 33.9151 3.93217 -1.36698 0
M  V30 336 H 34.4481 2.90367 -2.71904 0
M  V30 337 H 31.1871 3.24125 -5.69757 0
M  V30 338 H 30.7071 4.20214 -4.27996 0
M  V30 339 H 32.3861 4.25758 -4.87175 0
M  V30 340 N 32.5182 1.22032 0.997298 0
M  V30 341 C 33.9342 0.979326 1.26021 0
M  V30 342 C 34.1342 -0.32972 1.98784 0
M  V30 343 O 33.1902 -1.05345 2.29475 0
M  V30 344 C 34.5032 2.17509 2.07631 0
M  V30 345 C 36.0512 2.21817 2.2083 0
M  V30 346 C 36.5262 3.40933 3.05825 0
M  V30 347 N 38.0172 3.41067 3.13412 0
M  V30 348 C 38.7522 4.29885 3.79455 0
M  V30 349 N 38.2482 5.28914 4.47462 0
M  V30 350 N 40.0412 4.17673 3.76173 0
M  V30 351 H 32.1922 2.06202 0.509352 0
M  V30 352 H 34.4552 0.90334 0.287541 0
M  V30 353 H 34.1612 3.12415 1.61524 0
M  V30 354 H 34.0352 2.17206 3.08385 0
M  V30 355 H 36.4222 1.27462 2.66153 0
M  V30 356 H 36.5032 2.2616 1.1952 0
M  V30 357 H 36.1472 4.35586 2.61203 0
M  V30 358 H 36.0772 3.33829 4.07266 0
M  V30 359 H 38.5682 2.69406 2.65007 0
M  V30 360 H 38.8812 5.92973 4.95583 0
M  V30 361 H 37.2262 5.32831 4.46224 0
M  V30 362 H 40.4172 3.39564 3.22202 0
M  V30 363 H 40.5902 4.87098 4.27363 0
M  V30 364 N 33.9963 -1.19345 1.0293 0
M  V30 365 C 35.4123 -1.41069 0.746446 0
M  V30 366 C 35.6123 -1.90078 -0.668776 0
M  V30 367 O 34.6683 -2.0778 -1.4347 0
M  V30 368 C 35.9813 -2.42141 1.78292 0
M  V30 369 C 37.5293 -2.55887 1.80252 0
M  V30 370 C 38.0043 -3.60214 2.8286 0
M  V30 371 N 39.4953 -3.67711 2.81679 0
M  V30 372 C 40.2303 -4.48128 3.57727 0
M  V30 373 N 39.7263 -5.32248 4.43491 0
M  V30 374 N 41.5193 -4.42782 3.46267 0
M  V30 375 H 33.6703 -0.858536 1.94275 0
M  V30 376 H 35.9333 -0.439541 0.839945 0
M  V30 377 H 35.6393 -2.13155 2.79746 0
M  V30 378 H 35.5133 -3.41323 1.60557 0
M  V30 379 H 37.9003 -2.84196 0.794757 0
M  V30 380 H 37.9813 -1.56858 2.02062 0
M  V30 381 H 37.6253 -3.32647 3.83807 0
M  V30 382 H 37.5553 -4.58895 2.58307 0
M  V30 383 H 40.0463 -3.07634 2.19476 0
M  V30 384 H 40.3593 -5.90729 4.98256 0
M  V30 385 H 38.7043 -5.31707 4.47564 0
M  V30 386 H 41.8953 -3.76107 2.78677 0
M  V30 387 H 42.0683 -5.05215 4.05785 0
M  V30 388 N 35.4744 -0.807222 -1.35358 0
M  V30 389 C 36.7214 -0.387888 -1.9875 0
M  V30 390 C 37.0494 1.04509 -1.64037 0
M  V30 391 O 36.3044 1.73986 -0.895946 0
M  V30 392 C 36.6034 -0.519036 -3.53611 0
M  V30 393 C 36.2694 -1.91542 -4.08194 0
M  V30 394 C 34.9314 -2.29745 -4.22813 0
M  V30 395 C 37.2834 -2.82896 -4.37744 0
M  V30 396 C 34.6114 -3.58668 -4.643 0
M  V30 397 C 36.9634 -4.11265 -4.8067 0
M  V30 398 C 35.6274 -4.49466 -4.93494 0
M  V30 399 H 34.8974 -0.141938 -0.727279 0
M  V30 400 H 37.5444 -1.02814 -1.6156 0
M  V30 401 H 35.8494 0.204658 -3.91265 0
M  V30 402 H 37.5464 -0.175345 -4.00616 0
M  V30 403 H 34.1364 -1.60862 -3.97268 0
M  V30 404 H 38.3204 -2.54629 -4.26002 0
M  V30 405 H 33.5764 -3.88113 -4.72418 0
M  V30 406 H 37.7504 -4.82153 -5.02496 0
M  V30 407 H 35.3774 -5.49418 -5.25399 0
M  V30 408 N 36.9525 1.47285 -0.560781 0
M  V30 409 C 38.1985 2.02764 -0.0381184 0
M  V30 410 C 38.5315 1.43384 1.30976 0
M  V30 411 O 37.8065 0.590733 1.85312 0
M  V30 412 C 38.0895 3.60064 0.0511427 0
M  V30 413 C 37.9425 4.2987 -1.32408 0
M  V30 414 C 39.2615 4.33439 0.762795 0
M  V30 415 H 36.3805 0.736841 -0.0153264 0
M  V30 416 H 39.0225 1.75675 -0.723759 0
M  V30 417 H 37.1725 3.83274 0.635065 0
M  V30 418 H 38.8445 4.17989 -1.95148 0
M  V30 419 H 37.0875 3.90085 -1.8978 0
M  V30 420 H 37.7585 5.38478 -1.21431 0
M  V30 421 H 40.2345 4.15243 0.266965 0
M  V30 422 H 39.1105 5.43124 0.794221 0
M  V30 423 H 39.3715 4.02915 1.81966 0
M  V30 424 N 38.4306 0.297415 1.54768 0
M  V30 425 C 39.6786 -0.312295 1.99673 0
M  V30 426 C 39.9996 -1.54686 1.18732 0
M  V30 427 O 39.2696 -1.93854 0.282382 0
M  V30 428 H 37.8496 -0.118381 0.73756 0
M  V30 429 H 40.5116 0.407915 1.90583 0
M  V30 430 H 39.6076 -0.586813 3.06534 0
M  V30 431 N 39.9087 -1.5758 0.0250728 0
M  V30 432 C 40.8557 -2.09973 -0.958129 0
M  V30 433 C 41.8257 -1.00085 -1.3256 0
M  V30 434 O 43.0107 -1.27481 -1.41962 0
M  V30 435 C 40.1507 -2.62812 -2.2366 0
M  V30 436 C 39.2637 -3.86693 -1.92594 0
M  V30 437 C 38.3987 -4.27941 -3.14707 0
M  V30 438 C 37.4377 -5.44591 -2.79442 0
M  V30 439 N 36.5747 -5.81014 -3.94167 0
M  V30 440 H 41.4147 -2.937 -0.504428 0
M  V30 441 H 38.9517 -1.45172 -0.237392 0
M  V30 442 H 40.9097 -2.91536 -2.98434 0
M  V30 443 H 39.5397 -1.81922 -2.66654 0
M  V30 444 H 38.5917 -3.64723 -1.0808 0
M  V30 445 H 39.9037 -4.71547 -1.62619 0
M  V30 446 H 39.0577 -4.58079 -3.97804 0
M  V30 447 H 37.7967 -3.41845 -3.4784 0
M  V30 448 H 36.8017 -5.1415 -1.94755 0
M  V30 449 H 38.0267 -6.32382 -2.47528 0
M  V30 450 H 35.9727 -4.97874 -4.2715 0
M  V30 451 H 35.8897 -6.60498 -3.67801 0
M  V30 452 H 37.1577 -6.15756 -4.7798 0
M  V30 453 N 41.3868 0.248026 -1.55636 0
M  V30 454 C 42.6148 0.993808 -1.81469 0
M  V30 455 C 43.0298 1.78991 -0.60064 0
M  V30 456 O 42.3868 1.77345 0.430682 0
M  V30 457 C 42.4378 1.93258 -3.05506 0
M  V30 458 O 42.1588 1.16869 -4.22224 0
M  V30 459 C 43.6598 2.79444 -3.4413 0
M  V30 460 H 40.8798 0.292486 -0.603898 0
M  V30 461 H 43.4238 0.271253 -2.02693 0
M  V30 462 H 41.5788 2.60943 -2.86335 0
M  V30 463 H 41.9928 1.80359 -4.92515 0
M  V30 464 H 43.4668 3.41066 -4.34026 0
M  V30 465 H 43.9438 3.50499 -2.64665 0
M  V30 466 H 44.5498 2.17214 -3.65648 0
M  V30 467 N 42.8649 1.48995 0.513639 0
M  V30 468 C 43.7949 1.67636 1.62544 0
M  V30 469 C 44.7759 0.525087 1.61793 0
M  V30 470 O 45.9609 0.759502 1.78732 0
M  V30 471 C 43.0909 1.73114 3.01079 0
M  V30 472 C 42.0449 2.87905 3.16693 0
M  V30 473 C 41.3709 2.78486 4.56453 0
M  V30 474 C 42.6709 4.29005 2.97913 0
M  V30 475 H 44.3649 2.60716 1.47198 0
M  V30 476 H 41.9109 1.25465 0.706714 0
M  V30 477 H 43.8639 1.84742 3.78746 0
M  V30 478 H 42.5879 0.766241 3.17484 0
M  V30 479 H 41.2469 2.75859 2.41448 0
M  V30 480 H 40.8949 1.7993 4.69717 0
M  V30 481 H 40.5949 3.55523 4.67843 0
M  V30 482 H 42.1189 2.92104 5.36197 0
M  V30 483 H 43.5329 4.41798 3.65359 0
M  V30 484 H 41.9299 5.07166 3.20785 0
M  V30 485 H 42.9999 4.44329 1.94165 0
M  V30 486 N 44.343 -0.763751 1.37857 0
M  V30 487 C 45.589 -1.52483 1.33704 0
M  V30 488 C 45.922 -1.94051 -0.0759612 0
M  V30 489 O 45.197 -1.64675 -1.03501 0
M  V30 490 C 45.48 -2.78441 2.28348 0
M  V30 491 C 45.333 -2.43075 3.78463 0
M  V30 492 C 46.652 -3.80415 2.21298 0
M  V30 493 H 43.771 -0.553169 0.487005 0
M  V30 494 H 46.413 -0.875562 1.68624 0
M  V30 495 H 44.563 -3.33842 1.987 0
M  V30 496 H 46.235 -1.93527 4.18742 0
M  V30 497 H 44.478 -1.75666 3.96641 0
M  V30 498 H 45.149 -3.33149 4.40132 0
M  V30 499 H 47.625 -3.34527 2.47449 0
M  V30 500 H 46.501 -4.66257 2.89647 0
M  V30 501 H 46.762 -4.25262 1.20849 0
M  V30 502 N 45.8211 -1.22559 -0.990812 0
M  V30 503 C 47.0701 -1.04553 -1.72486 0
M  V30 504 C 47.3831 0.419349 -1.91052 0
M  V30 505 O 48.5891 0.719121 -2.61803 0
M  V30 506 C 47.0451 -1.82231 -3.10355 0
M  V30 507 C 46.6531 -3.32981 -2.99713 0
M  V30 508 C 48.3971 -1.7268 -3.87791 0
M  V30 509 C 46.3041 -4.03091 -4.32748 0
M  V30 510 H 45.2341 -0.387614 -0.646739 0
M  V30 511 H 47.8851 -1.46429 -1.10593 0
M  V30 512 H 46.2671 -1.33155 -3.72942 0
M  V30 513 H 47.4411 -3.89466 -2.46278 0
M  V30 514 H 45.7561 -3.43231 -2.35758 0
M  V30 515 H 48.3531 -2.22381 -4.86262 0
M  V30 516 H 48.6961 -0.687607 -4.10582 0
M  V30 517 H 49.2291 -2.1931 -3.31885 0
M  V30 518 H 45.9681 -5.07273 -4.15156 0
M  V30 519 H 45.4881 -3.51394 -4.86089 0
M  V30 520 H 47.1671 -4.08804 -5.01486 0
M  V30 521 N 47.2992 1.18797 -1.03562 0
M  V30 522 C 48.2462 2.22253 -0.622259 0
M  V30 523 C 49.2162 1.61987 0.36736 0
M  V30 524 O 50.4012 1.88986 0.262492 0
M  V30 525 C 47.5412 3.45097 0.0138462 0
M  V30 526 C 46.6542 4.19722 -1.02263 0
M  V30 527 C 45.7892 5.30009 -0.355573 0
M  V30 528 C 44.8282 5.96399 -1.37749 0
M  V30 529 N 43.9652 6.98234 -0.735766 0
M  V30 530 H 48.8052 2.56968 -1.50903 0
M  V30 531 H 46.3422 1.26245 -0.755017 0
M  V30 532 H 48.3002 4.15279 0.399948 0
M  V30 533 H 46.9302 3.11018 0.864158 0
M  V30 534 H 45.9822 3.48418 -1.52673 0
M  V30 535 H 47.2942 4.65227 -1.79903 0
M  V30 536 H 46.4482 6.0664 0.0850095 0
M  V30 537 H 45.1872 4.85592 0.452967 0
M  V30 538 H 44.1922 5.18512 -1.82826 0
M  V30 539 H 45.4172 6.42899 -2.18764 0
M  V30 540 H 43.3632 6.55979 0.0525597 0
M  V30 541 H 43.2802 7.41965 -1.44995 0
M  V30 542 H 44.5482 7.78845 -0.31941 0
M  V30 543 N 48.7773 0.814389 1.34928 0
M  V30 544 C 50.0073 0.41054 2.0248 0
M  V30 545 C 50.4153 -0.985625 1.61499 0
M  V30 546 O 49.7583 -1.64781 0.811976 0
M  V30 547 C 49.8203 0.423384 3.56998 0
M  V30 548 C 49.4843 1.77141 4.21272 0
M  V30 549 C 50.4813 2.73093 4.42398 0
M  V30 550 C 48.1663 2.05755 4.58225 0
M  V30 551 C 50.1603 3.95838 4.9959 0
M  V30 552 C 47.8473 3.28762 5.1513 0
M  V30 553 C 48.8453 4.23621 5.35755 0
M  V30 554 O 48.5333 5.44456 5.91458 0
M  V30 555 H 48.2653 0.163997 0.655806 0
M  V30 556 H 50.8193 1.10155 1.73364 0
M  V30 557 H 49.0493 -0.324276 3.85338 0
M  V30 558 H 50.7383 0.0407683 4.0588 0
M  V30 559 H 51.5043 2.5228 4.14222 0
M  V30 560 H 47.3833 1.32727 4.4148 0
M  V30 561 H 50.9273 4.69891 5.15605 0
M  V30 562 H 46.8243 3.49443 5.42734 0
M  V30 563 H 47.5923 5.4586 6.09901 0
M  V30 564 N 50.2554 -1.46986 0.568584 0
M  V30 565 C 51.5034 -2.02041 0.0487022 0
M  V30 566 C 51.8244 -1.44408 -1.31039 0
M  V30 567 O 51.0944 -0.623477 -1.85714 0
M  V30 568 H 49.6744 -0.746849 0.015014 0
M  V30 569 H 52.3364 -1.80257 0.741168 0
M  V30 570 H 51.4324 -3.12085 -0.0308961 0
M  V30 571 N 51.7335 -0.305618 -1.54608 0
M  V30 572 C 52.9815 0.301701 -1.99835 0
M  V30 573 C 53.3025 1.54054 -1.19551 0
M  V30 574 O 52.5725 1.93702 -0.292658 0
M  V30 575 H 51.1525 0.114468 -0.738178 0
M  V30 576 H 53.8145 -0.418016 -1.90364 0
M  V30 577 H 52.9105 0.570548 -3.06841 0
M  V30 578 N 53.2116 1.57565 -0.0334293 0
M  V30 579 C 54.1596 2.1164 0.96496 0
M  V30 580 C 55.1536 1.04398 1.33407 0
M  V30 581 O 56.3596 1.22828 1.3158 0
M  V30 582 H 52.7346 0.676222 0.32898 0
M  V30 583 H 54.7056 2.94455 0.483614 0
M  V30 584 C 53.4546 2.66207 2.23672 0
M  V30 585 H 52.7776 3.48378 1.96145 0
M  V30 586 H 54.2176 3.07685 2.9173 0
M  V30 587 C 52.6766 1.59151 2.96939 0
M  V30 588 O 53.2066 0.993858 3.89211 0
M  V30 589 N 51.4126 1.31093 2.59351 0
M  V30 590 H 50.9596 1.7988 1.84393 0
M  V30 591 H 50.9176 0.596889 3.08682 0
M  V30 592 N 54.6897 -0.239769 1.55765 0
M  V30 593 C 55.6527 -1.28038 1.90103 0
M  V30 594 C 56.6527 -1.40723 0.778055 0
M  V30 595 O 57.8427 -1.39301 1.04599 0
M  V30 596 C 54.9747 -2.65702 2.13577 0
M  V30 597 H 56.1677 -0.988048 2.83157 0
M  V30 598 H 53.7207 -0.479382 1.48767 0
M  V30 599 H 54.4557 -3.00063 1.23015 0
M  V30 600 H 54.2407 -2.57875 2.95369 0
M  V30 601 H 55.7307 -3.40828 2.41301 0
M  V30 602 N 56.1678 -1.49265 -0.50573 0
M  V30 603 C 57.1008 -1.60183 -1.62532 0
M  V30 604 C 58.0788 -0.451107 -1.56217 0
M  V30 605 O 59.2628 -0.666016 -1.76342 0
M  V30 606 C 56.3898 -1.55238 -3.01029 0
M  V30 607 C 55.4358 -2.7545 -3.25621 0
M  V30 608 S 56.2688 -4.37174 -3.09256 0
M  V30 609 C 57.4248 -4.34866 -4.50158 0
M  V30 610 H 57.6578 -2.54894 -1.53025 0
M  V30 611 H 55.1908 -1.38098 -0.690535 0
M  V30 612 H 57.1488 -1.53071 -3.80893 0
M  V30 613 H 55.8098 -0.618238 -3.07956 0
M  V30 614 H 55.0028 -2.68197 -4.26716 0
M  V30 615 H 54.6048 -2.75005 -2.53472 0
M  V30 616 H 56.8968 -4.06295 -5.42154 0
M  V30 617 H 57.8398 -5.36223 -4.62462 0
M  V30 618 H 58.2478 -3.65007 -4.30616 0
M  V30 619 N 57.6459 0.756429 -1.3826 0
M  V30 620 C 58.5559 1.9009 -1.37488 0
M  V30 621 C 59.5719 1.71855 -0.272366 0
M  V30 622 O 60.7479 1.94827 -0.510318 0
M  V30 623 C 57.8129 3.25421 -1.19592 0
M  V30 624 C 56.8739 3.56202 -2.39622 0
M  V30 625 C 56.1069 4.85075 -2.2257 0
M  V30 626 O 56.3299 5.57246 -1.21793 0
M  V30 627 O 55.2639 5.15269 -3.11098 0
M  V30 628 H 59.0899 1.93695 -2.33914 0
M  V30 629 H 56.6749 0.901313 -1.1915 0
M  V30 630 H 58.5569 4.06337 -1.11661 0
M  V30 631 H 57.2319 3.22634 -0.262486 0
M  V30 632 H 56.1389 2.75458 -2.53128 0
M  V30 633 H 57.4719 3.63747 -3.31586 0
M  V30 634 N 59.124 1.23083 0.984299 0
M  V30 635 C 60.349 1.088 1.76571 0
M  V30 636 C 60.774 -0.356657 1.84688 0
M  V30 637 O 60.132 -1.25788 1.30565 0
M  V30 638 C 60.18 1.71371 3.17277 0
M  V30 639 O 59.284 0.973213 4.00752 0
M  V30 640 H 58.625 0.381599 0.543395 0
M  V30 641 H 61.155 1.63057 1.23587 0
M  V30 642 H 61.165 1.76449 3.67872 0
M  V30 643 H 59.84 2.76493 3.10684 0
M  V30 644 H 58.417 0.999078 3.59267 0
M  V30 645 N 60.6021 -1.18246 1.0419 0
M  V30 646 C 61.5121 -2.25574 0.644476 0
M  V30 647 C 62.5281 -1.70845 -0.329826 0
M  V30 648 O 63.7041 -2.00554 -0.184443 0
M  V30 649 C 60.7691 -3.46697 0.014877 0
M  V30 650 C 59.8301 -4.16554 1.03834 0
M  V30 651 C 59.0631 -5.31894 0.438692 0
M  V30 652 O 59.2861 -5.65385 -0.754752 0
M  V30 653 O 58.2201 -5.90459 1.168 0
M  V30 654 H 62.0461 -2.61836 1.53869 0
M  V30 655 H 59.6311 -1.25352 0.812854 0
M  V30 656 H 61.5131 -4.20062 -0.335538 0
M  V30 657 H 60.1881 -3.12255 -0.853138 0
M  V30 658 H 59.0951 -3.45251 1.44057 0
M  V30 659 H 60.4281 -4.54998 1.87716 0
M  V30 660 N 62.0802 -0.821533 -1.34494 0
M  V30 661 C 62.9902 -0.244355 -2.33324 0
M  V30 662 C 64.0062 0.620527 -1.62559 0
M  V30 663 O 65.1822 0.528754 -1.94335 0
M  V30 664 C 62.2472 0.585368 -3.41723 0
M  V30 665 C 61.3082 -0.301752 -4.28238 0
M  V30 666 C 60.5412 0.488466 -5.3146 0
M  V30 667 O 60.7642 1.72186 -5.4379 0
M  V30 668 O 59.6982 -0.12848 -6.01763 0
M  V30 669 H 63.5242 -1.06231 -2.84515 0
M  V30 670 H 61.1092 -0.583645 -1.37528 0
M  V30 671 H 62.9912 1.05747 -4.07916 0
M  V30 672 H 61.6662 1.38068 -2.92778 0
M  V30 673 H 60.5732 -0.821315 -3.64973 0
M  V30 674 H 61.9062 -1.06138 -4.8062 0
M  V30 675 N 63.5583 1.46682 -0.576371 0
M  V30 676 C 64.4883 2.33028 0.148397 0
M  V30 677 C 65.4693 1.44961 0.889956 0
M  V30 678 O 66.6543 1.73789 0.866662 0
M  V30 679 C 63.7843 3.27117 1.1667 0
M  V30 680 C 62.7383 4.24575 0.540386 0
M  V30 681 C 62.0643 5.08126 1.6647 0
M  V30 682 C 63.3643 5.19722 -0.518331 0
M  V30 683 H 65.0583 2.93875 -0.572509 0
M  V30 684 H 62.6043 1.41315 -0.276768 0
M  V30 685 H 64.5573 3.86374 1.68204 0
M  V30 686 H 63.2813 2.64364 1.9178 0
M  V30 687 H 61.9403 3.66571 0.0461769 0
M  V30 688 H 61.5883 4.41762 2.40531 0
M  V30 689 H 61.2883 5.74122 1.25131 0
M  V30 690 H 62.8123 5.70246 2.18293 0
M  V30 691 H 64.2263 5.73232 -0.0883058 0
M  V30 692 H 62.6233 5.94026 -0.851679 0
M  V30 693 H 63.6933 4.64037 -1.40703 0
M  V30 694 N 65.0364 0.313813 1.54444 0
M  V30 695 C 65.9834 -0.55655 2.23989 0
M  V30 696 C 66.9534 -1.11943 1.22711 0
M  V30 697 O 68.1384 -1.16158 1.51367 0
M  V30 698 C 65.2784 -1.71635 2.99392 0
M  V30 699 C 64.3914 -1.18364 4.15468 0
M  V30 700 C 63.5264 -2.30834 4.78424 0
M  V30 701 C 62.5654 -1.74762 5.86622 0
M  V30 702 N 61.7024 -2.80855 6.43479 0
M  V30 703 H 66.5424 0.0430893 2.97969 0
M  V30 704 H 64.0794 0.0330359 1.47063 0
M  V30 705 H 66.0374 -2.39868 3.41349 0
M  V30 706 H 64.6674 -2.28742 2.27765 0
M  V30 707 H 63.7194 -0.393163 3.78363 0
M  V30 708 H 65.0314 -0.733262 4.93381 0
M  V30 709 H 64.1854 -3.0699 5.23299 0
M  V30 710 H 62.9244 -2.79204 3.99871 0
M  V30 711 H 61.9294 -0.970995 5.41158 0
M  V30 712 H 63.1544 -1.2728 6.67066 0
M  V30 713 H 61.1004 -3.28535 5.67804 0
M  V30 714 H 61.0174 -2.40351 7.16776 0
M  V30 715 H 62.2854 -3.5687 6.93011 0
M  V30 716 N 66.5145 -1.57545 0.0417849 0
M  V30 717 C 67.4775 -2.09885 -0.92093 0
M  V30 718 C 68.4775 -1.01648 -1.24596 0
M  V30 719 O 69.6675 -1.27759 -1.1842 0
M  V30 720 C 66.7995 -2.57527 -2.23367 0
M  V30 721 H 67.9925 -2.96236 -0.467382 0
M  V30 722 H 65.5455 -1.5493 -0.206467 0
M  V30 723 H 66.2805 -1.74542 -2.73323 0
M  V30 724 H 66.0655 -3.36613 -2.01083 0
M  V30 725 H 67.5555 -2.98201 -2.92346 0
M  V30 726 N 67.9926 0.231505 -1.5589 0
M  V30 727 C 69.2406 0.955461 -1.78088 0
M  V30 728 C 69.5616 1.85262 -0.608533 0
M  V30 729 O 68.8316 1.92277 0.375035 0
M  V30 730 H 67.4116 0.355787 -0.656829 0
M  V30 731 H 70.0736 0.245751 -1.93344 0
M  V30 732 H 69.1696 1.56814 -2.69844 0
M  V30 733 N 69.4707 1.49531 0.497807 0
M  V30 734 C 70.7177 1.59179 1.25173 0
M  V30 735 C 71.0457 0.279932 1.92475 0
M  V30 736 O 70.3007 -0.732383 1.81479 0
M  V30 737 C 70.5997 2.70252 2.33878 0
M  V30 738 C 70.2657 4.11644 1.84012 0
M  V30 739 C 68.9277 4.50121 1.70132 0
M  V30 740 C 71.2797 5.00121 1.46725 0
M  V30 741 C 68.6077 5.74845 1.17348 0
M  V30 742 C 70.9597 6.25366 0.95392 0
M  V30 743 C 69.6237 6.6267 0.801538 0
M  V30 744 H 68.8937 0.582478 0.45804 0
M  V30 745 H 71.5407 1.83373 0.551948 0
M  V30 746 H 69.8457 2.40041 3.09657 0
M  V30 747 H 71.5427 2.74925 2.9192 0
M  V30 748 H 68.1327 3.81274 1.95775 0
M  V30 749 H 72.3167 4.71048 1.56294 0
M  V30 750 H 67.5727 6.02444 1.04264 0
M  V30 751 H 71.7467 6.93301 0.656225 0
M  V30 752 H 69.3737 7.59197 0.390351 0
M  V30 753 N 70.9488 -0.749086 1.3866 0
M  V30 754 C 71.9118 -1.84457 1.36045 0
M  V30 755 C 72.9118 -1.58682 0.260122 0
M  V30 756 O 74.1018 -1.66343 0.517261 0
M  V30 757 C 71.2338 -3.22008 1.11911 0
M  V30 758 H 72.4268 -1.88182 2.33512 0
M  V30 759 H 69.9798 -0.951266 1.24019 0
M  V30 760 H 70.7148 -3.2395 0.150686 0
M  V30 761 H 70.4998 -3.42111 1.91579 0
M  V30 762 H 71.9898 -4.0208 1.12788 0
M  V30 763 N 72.4269 -1.23603 -0.977757 0
M  V30 764 C 73.8429 -0.999251 -1.24447 0
M  V30 765 C 74.0429 0.298053 -1.99283 0
M  V30 766 O 73.0989 1.01681 -2.31122 0
M  V30 767 C 74.4119 -2.20784 -2.04144 0
M  V30 768 C 75.9599 -2.25303 -2.17273 0
M  V30 769 C 76.4349 -3.45755 -3.00362 0
M  V30 770 N 77.9259 -3.4601 -3.07947 0
M  V30 771 C 78.6609 -4.35868 -3.72568 0
M  V30 772 N 78.1569 -5.35966 -4.38991 0
M  V30 773 N 79.9499 -4.23605 -3.6948 0
M  V30 774 H 72.1009 -2.06986 -0.476483 0
M  V30 775 H 74.3639 -0.907801 -0.273134 0
M  V30 776 H 74.0699 -3.14945 -1.56533 0
M  V30 777 H 73.9439 -2.22085 -3.04891 0
M  V30 778 H 76.3309 -1.3168 -2.64092 0
M  V30 779 H 76.4119 -2.28033 -1.15907 0
M  V30 780 H 76.0559 -4.39687 -2.5424 0
M  V30 781 H 75.9859 -3.40266 -4.01904 0
M  V30 782 H 78.4769 -2.73588 -2.60688 0
M  V30 783 H 78.7899 -6.00783 -4.86086 0
M  V30 784 H 77.1349 -5.39863 -4.37691 0
M  V30 785 H 80.3259 -3.44647 -3.16759 0
M  V30 786 H 80.4989 -4.93836 -4.1956 0
M  V30 787 N 73.905 1.17692 -1.04816 0
M  V30 788 C 75.182 1.83768 -0.669963 0
M  V30 789 C 75.562 1.93232 0.849986 0
M  V30 790 O 74.91 1.46397 1.75443 0
M  V30 791 C 75.12 3.21641 -1.35455 0
M  V30 792 C 76.468 3.97592 -1.49017 0
M  V30 793 O 77.492 3.31107 -1.31326 0
M  V30 794 O 76.351 5.16729 -1.77914 0
M  V30 795 H 73.445 0.792799 -0.235368 0
M  V30 796 H 75.991 1.25021 -1.14751 0
M  V30 797 H 74.763 3.097 -2.39168 0
M  V30 798 H 74.386 3.88052 -0.866107 0
M  V30 799 N 75.3831 0.828654 1.34056 0
M  V30 800 C 76.6291 0.42008 1.98402 0
M  V30 801 C 76.9621 -1.01564 1.65525 0
M  V30 802 O 76.2371 -1.70834 0.929831 0
M  V30 803 C 76.5201 0.62927 3.54559 0
M  V30 804 C 76.3731 2.11152 3.97159 0
M  V30 805 C 77.6921 0.0688756 4.40046 0
M  V30 806 H 74.8111 0.154104 0.720709 0
M  V30 807 H 77.4531 1.04228 1.5886 0
M  V30 808 H 75.6031 0.0996418 3.88372 0
M  V30 809 H 77.2751 2.70522 3.73651 0
M  V30 810 H 75.5181 2.59985 3.47261 0
M  V30 811 H 76.1891 2.20868 5.05887 0
M  V30 812 H 78.6651 0.521458 4.1282 0
M  V30 813 H 77.5411 0.245006 5.48353 0
M  V30 814 H 77.8021 -1.0266 4.30015 0
M  V30 815 N 76.8612 -1.46375 0.584142 0
M  V30 816 C 78.1072 -2.02678 0.0703716 0
M  V30 817 C 78.4402 -1.4545 -1.28678 0
M  V30 818 O 77.7152 -0.62014 -1.84349 0
M  V30 819 C 77.9982 -3.60099 0.00614674 0
M  V30 820 C 77.8512 -4.27709 1.3923 0
M  V30 821 C 79.1702 -4.34598 -0.693742 0
M  V30 822 H 76.2892 -0.736504 0.027047 0
M  V30 823 H 78.9312 -1.74501 0.751615 0
M  V30 824 H 77.0812 -3.84236 -0.574009 0
M  V30 825 H 78.7532 -4.14832 2.01773 0
M  V30 826 H 76.9962 -3.87016 1.95962 0
M  V30 827 H 77.6672 -5.36478 1.29982 0
M  V30 828 H 80.1432 -4.15615 -0.200869 0
M  V30 829 H 79.0192 -5.44318 -0.707714 0
M  V30 830 H 79.2802 -4.05759 -1.75533 0
M  V30 831 N 78.3393 -0.321999 -1.54275 0
M  V30 832 C 79.2693 0.537411 -2.27231 0
M  V30 833 C 80.2503 1.12064 -1.27968 0
M  V30 834 O 81.4353 1.14606 -1.56777 0
M  V30 835 C 78.5653 1.69919 -3.02894 0
M  V30 836 C 77.5193 1.24534 -4.09482 0
M  V30 837 C 76.8453 2.49394 -4.72977 0
M  V30 838 C 78.1453 0.361335 -5.21049 0
M  V30 839 H 79.8393 -0.0711406 -2.99315 0
M  V30 840 H 77.3853 -0.0356555 -1.43956 0
M  V30 841 H 79.3383 2.30668 -3.52662 0
M  V30 842 H 78.0623 2.33431 -2.28424 0
M  V30 843 H 76.7213 0.660782 -3.60596 0
M  V30 844 H 76.3693 3.11265 -3.95124 0
M  V30 845 H 76.0693 2.19718 -5.44975 0
M  V30 846 H 77.5933 3.10908 -5.25517 0
M  V30 847 H 79.0073 0.875072 -5.66582 0
M  V30 848 H 77.4043 0.157428 -5.99893 0
M  V30 849 H 78.4743 -0.60822 -4.8107 0
M  V30 850 N 79.8174 1.5752 -0.0501392 0
M  V30 851 C 80.7504 2.07026 0.959962 0
M  V30 852 C 81.7284 0.970539 1.30458 0
M  V30 853 O 82.9124 1.2424 1.41763 0
M  V30 854 C 80.0394 2.5099 2.27424 0
M  V30 855 C 79.0854 3.72188 2.08275 0
M  V30 856 S 79.9184 5.17888 1.36207 0
M  V30 857 C 81.0744 5.65165 2.6896 0
M  V30 858 H 81.3074 2.9238 0.538631 0
M  V30 859 H 78.8404 1.53547 0.162099 0
M  V30 860 H 80.7984 2.76982 3.02971 0
M  V30 861 H 79.4594 1.65944 2.66686 0
M  V30 862 H 78.6524 4.00866 3.05487 0
M  V30 863 H 78.2544 3.46457 1.40868 0
M  V30 864 H 80.5464 5.70687 3.65133 0
M  V30 865 H 81.4894 6.64394 2.4492 0
M  V30 866 H 81.8974 4.9289 2.75172 0
M  V30 867 N 81.2955 -0.223234 1.56011 0
M  V30 868 C 82.2425 -1.27664 1.92277 0
M  V30 869 C 83.2125 -1.46659 0.779763 0
M  V30 870 O 84.3975 -1.60256 1.03551 0
M  V30 871 C 81.5375 -2.62234 2.24338 0
M  V30 872 C 80.6505 -2.51051 3.51564 0
M  V30 873 C 79.7855 -3.78133 3.7308 0
M  V30 874 C 78.8245 -3.61665 4.93827 0
M  V30 875 N 77.9615 -4.80693 5.11741 0
M  V30 876 H 82.8015 -0.960358 2.82101 0
M  V30 877 H 80.3385 -0.462901 1.39627 0
M  V30 878 H 82.2965 -3.40596 2.40936 0
M  V30 879 H 80.9265 -2.91961 1.3769 0
M  V30 880 H 79.9785 -1.64132 3.43169 0
M  V30 881 H 81.2905 -2.34803 4.40079 0
M  V30 882 H 80.4445 -4.64938 3.89766 0
M  V30 883 H 79.1835 -3.97304 2.82844 0
M  V30 884 H 78.1885 -2.73244 4.77093 0
M  V30 885 H 79.4135 -3.43966 5.85546 0
M  V30 886 H 77.3595 -5.00181 4.24446 0
M  V30 887 H 77.2765 -4.67165 5.94384 0
M  V30 888 H 78.5445 -5.6893 5.3286 0
M  V30 889 N 82.7736 -1.49793 -0.48987 0
M  V30 890 C 83.7366 -1.66752 -1.57246 0
M  V30 891 C 84.7366 -0.538867 -1.51502 0
M  V30 892 O 85.9266 -0.805545 -1.54456 0
M  V30 893 C 83.0586 -1.67528 -2.96896 0
M  V30 894 H 84.2516 -2.63321 -1.43534 0
M  V30 895 H 81.8046 -1.38992 -0.714914 0
M  V30 896 H 82.5396 -0.725837 -3.16073 0
M  V30 897 H 82.3246 -2.49504 -3.02473 0
M  V30 898 H 83.8146 -1.82667 -3.7553 0
M  V30 899 N 84.2517 0.741722 -1.39055 0
M  V30 900 C 85.4977 1.50336 -1.36113 0
M  V30 901 C 85.8307 1.94148 0.0450796 0
M  V30 902 O 85.1057 1.66301 1.00868 0
M  V30 903 C 85.3887 2.74773 -2.32749 0
M  V30 904 C 85.2417 2.37023 -3.82283 0
M  V30 905 C 86.5607 3.76846 -2.27322 0
M  V30 906 H 83.6797 0.545351 -0.495743 0
M  V30 907 H 86.3217 0.848624 -1.69995 0
M  V30 908 H 84.4717 3.30639 -2.03986 0
M  V30 909 H 86.1437 1.8684 -4.21768 0
M  V30 910 H 84.3867 1.69334 -3.99385 0
M  V30 911 H 85.0577 3.26104 -4.45376 0
M  V30 912 H 87.5337 3.30548 -2.5274 0
M  V30 913 H 86.4097 4.6159 -2.97028 0
M  V30 914 H 86.6707 4.23286 -1.27599 0
M  V30 915 N 85.7298 1.2412 0.971189 0
M  V30 916 C 86.9778 1.07668 1.71032 0
M  V30 917 C 87.2988 -0.385797 1.91146 0
M  V30 918 O 86.5688 -1.27569 1.4867 0
M  V30 919 H 85.1488 0.395429 0.633755 0
M  V30 920 H 87.8108 1.55984 1.16855 0
M  V30 921 H 86.9068 1.57195 2.69622 0
M  V30 922 N 87.2079 -1.17134 1.05439 0
M  V30 923 C 88.4569 -1.86791 0.761049 0
M  V30 924 C 88.7699 -1.82072 -0.714795 0
M  V30 925 O 89.9759 -2.47223 -1.12218 0
M  V30 926 C 88.4319 -3.35166 1.31117 0
M  V30 927 C 88.0399 -3.48381 2.81664 0
M  V30 928 C 89.7839 -4.10134 1.09499 0
M  V30 929 C 87.6909 -4.90793 3.29964 0
M  V30 930 H 86.6209 -0.699681 0.281002 0
M  V30 931 H 89.2719 -1.3226 1.27199 0
M  V30 932 H 87.6539 -3.8925 0.72803 0
M  V30 933 H 88.8279 -3.04502 3.45855 0
M  V30 934 H 87.1429 -2.86836 3.01851 0
M  V30 935 H 89.7399 -5.152 1.43084 0
M  V30 936 H 90.0829 -4.16287 0.0328772 0
M  V30 937 H 90.6159 -3.62264 1.64346 0
M  V30 938 H 87.3549 -4.89816 4.35616 0
M  V30 939 H 86.8749 -5.35333 2.70516 0
M  V30 940 H 88.5539 -5.59573 3.24787 0
M  V30 941 N 88.686 -0.835752 -1.33615 0
M  V30 942 C 89.634 -0.255238 -2.31195 0
M  V30 943 C 90.628 0.61107 -1.57995 0
M  V30 944 O 91.834 0.500979 -1.72888 0
M  V30 945 H 88.209 -0.0638085 -0.749288 0
M  V30 946 H 90.18 -1.09283 -2.77669 0
M  V30 947 C 88.929 0.55754 -3.43201 0
M  V30 948 H 88.252 -0.0997553 -3.99676 0
M  V30 949 H 89.692 0.929622 -4.13683 0
M  V30 950 C 88.151 1.73515 -2.88781 0
M  V30 951 O 88.681 2.83376 -2.84712 0
M  V30 952 N 86.887 1.55603 -2.4543 0
M  V30 953 H 86.434 0.662354 -2.48939 0
M  V30 954 H 86.392 2.34545 -2.09371 0
M  V30 955 N 90.1641 1.46063 -0.591896 0
M  V30 956 C 91.5751 1.85944 -0.167822 0
M  V30 957 C 91.9261 1.49429 1.27143 0
M  V30 958 O 91.0511 0.913515 1.96173 0
M  V30 959 C 91.6461 3.37489 -0.297794 0
M  V30 960 C 90.2051 3.76332 0.0714732 0
M  V30 961 C 89.3521 2.7006 -0.629509 0
M  V30 962 H 92.3031 1.37087 -0.799555 0
M  V30 963 H 92.3241 3.77532 0.474349 0
M  V30 964 H 91.8361 3.64034 -1.3454 0
M  V30 965 H 89.9371 3.55405 1.11886 0
M  V30 966 H 90.0501 4.78088 -0.311245 0
M  V30 967 H 88.4141 2.54607 -0.0687867 0
M  V30 968 H 89.1971 2.99444 -1.67894 0
M  V30 969 N 91.6422 0.330177 1.54103 0
M  V30 970 C 92.8882 -0.270806 2.00984 0
M  V30 971 C 93.2212 -1.51265 1.21789 0
M  V30 972 O 92.4962 -1.92142 0.301927 0
M  V30 973 C 92.7792 -0.598339 3.55094 0
M  V30 974 C 92.6322 0.654674 4.4501 0
M  V30 975 C 93.9512 -1.41334 4.16789 0
M  V30 976 H 91.0702 -0.0969531 0.730595 0
M  V30 977 H 93.7122 0.448066 1.84641 0
M  V30 978 H 91.8622 -1.21078 3.69151 0
M  V30 979 H 93.5342 1.29285 4.42813 0
M  V30 980 H 91.7772 1.28224 4.14416 0
M  V30 981 H 92.4482 0.380944 5.50684 0
M  V30 982 H 94.9242 -0.895597 4.06347 0
M  V30 983 H 93.8002 -1.61127 5.24718 0
M  V30 984 H 94.0612 -2.41146 3.70541 0
M  V30 985 N 93.1203 -1.57491 0.0584922 0
M  V30 986 C 94.3663 -1.93264 -0.614558 0
M  V30 987 C 94.6993 -0.937717 -1.7006 0
M  V30 988 O 93.9743 0.0351652 -1.94468 0
M  V30 989 C 94.2573 -3.3938 -1.20386 0
M  V30 990 C 94.1103 -4.49625 -0.125375 0
M  V30 991 C 95.4293 -3.86039 -2.11334 0
M  V30 992 H 92.5483 -0.702791 -0.221933 0
M  V30 993 H 95.1903 -1.8961 0.12175 0
M  V30 994 H 93.3403 -3.42626 -1.83139 0
M  V30 995 H 95.0123 -4.58506 0.506971 0
M  V30 996 H 93.2553 -4.30354 0.545672 0
M  V30 997 H 93.9263 -5.48967 -0.577861 0
M  V30 998 H 96.4023 -3.84716 -1.58534 0
M  V30 999 H 95.2783 -4.88914 -2.49507 0
M  V30 1000 H 95.5393 -3.23215 -3.01636 0
M  V30 1001 N 94.5984 0.214957 -1.56127 0
M  V30 1002 C 95.8444 0.939762 -1.79712 0
M  V30 1003 C 96.1774 1.83723 -0.629247 0
M  V30 1004 O 95.4524 1.90925 0.371197 0
M  V30 1005 C 95.7354 1.77306 -3.13424 0
M  V30 1006 C 95.5884 0.90164 -4.40671 0
M  V30 1007 C 96.9074 2.74956 -3.43638 0
M  V30 1008 H 94.0264 0.340214 -0.653776 0
M  V30 1009 H 96.6684 0.20824 -1.88855 0
M  V30 1010 H 94.8184 2.39673 -3.0576 0
M  V30 1011 H 96.4904 0.294206 -4.60361 0
M  V30 1012 H 94.7334 0.207368 -4.33304 0
M  V30 1013 H 95.4044 1.51923 -5.30682 0
M  V30 1014 H 97.8804 2.22724 -3.51473 0
M  V30 1015 H 96.7564 3.30358 -4.38355 0
M  V30 1016 H 97.0174 3.53023 -2.66134 0
M  V30 1017 N 96.0765 1.50051 0.48192 0
M  V30 1018 C 97.0265 1.64512 1.5786 0
M  V30 1019 C 98.0105 0.500073 1.52932 0
M  V30 1020 O 99.2025 0.753964 1.60139 0
M  V30 1021 C 96.3315 1.73263 2.9637 0
M  V30 1022 C 95.4175 2.93409 3.06222 0
M  V30 1023 N 95.8085 4.17236 2.85915 0
M  V30 1024 C 94.1065 2.91742 3.37346 0
M  V30 1025 C 94.8075 4.981 3.00451 0
M  V30 1026 N 93.7835 4.3184 3.30174 0
M  V30 1027 H 97.5855 2.57955 1.40842 0
M  V30 1028 H 95.0995 1.47086 0.688439 0
M  V30 1029 H 97.0965 1.81724 3.75209 0
M  V30 1030 H 95.7565 0.809711 3.14442 0
M  V30 1031 H 96.7675 4.46909 2.6171 0
M  V30 1032 H 93.4445 2.08907 3.61475 0
M  V30 1033 H 94.8345 6.06532 2.89082 0
M  V30 1034 N 97.5546 -0.734337 1.39446 0
M  V30 1035 C 98.8026 -1.49096 1.36436 0
M  V30 1036 C 99.1236 -1.94961 -0.0388255 0
M  V30 1037 O 98.3936 -1.69033 -0.990191 0
M  V30 1038 H 96.9736 -0.5531 0.502085 0
M  V30 1039 H 99.6356 -0.871725 1.74319 0
M  V30 1040 H 98.7316 -2.37276 2.02747 0
M  V30 1041 N 99.0327 -1.24633 -0.964593 0
M  V30 1042 C 100.281 -1.08573 -1.70459 0
M  V30 1043 C 100.602 0.375655 -1.91347 0
M  V30 1044 O 99.8717 1.26779 -1.49345 0
M  V30 1045 H 98.4517 -0.398784 -0.631649 0
M  V30 1046 H 101.114 -1.56601 -1.16026 0
M  V30 1047 H 100.21 -1.58623 -2.68785 0
M  V30 1048 N 100.511 1.16574 -1.06058 0
M  V30 1049 C 101.759 1.86677 -0.77434 0
M  V30 1050 C 102.08 1.81959 0.701147 0
M  V30 1051 O 101.35 1.2515 1.50713 0
M  V30 1052 H 99.9298 0.691134 -0.283449 0
M  V30 1053 H 102.592 1.41378 -1.34158 0
M  V30 1054 H 101.688 2.92181 -1.09711 0
M  V30 1055 N 101.989 0.842826 1.3317 0
M  V30 1056 C 103.4 0.496651 1.79973 0
M  V30 1057 C 103.751 -0.984641 1.69703 0
M  V30 1058 O 102.876 -1.76743 1.24863 0
M  V30 1059 C 103.471 0.894727 3.26772 0
M  V30 1060 C 102.03 0.600629 3.71577 0
M  V30 1061 C 101.177 1.10091 2.5451 0
M  V30 1062 H 104.128 1.03116 1.20635 0
M  V30 1063 H 104.149 0.206347 3.7994 0
M  V30 1064 H 103.661 1.97287 3.34215 0
M  V30 1065 H 101.762 -0.467284 3.69658 0
M  V30 1066 H 101.875 1.15863 4.64879 0
M  V30 1067 H 100.239 0.52162 2.49301 0
M  V30 1068 H 101.022 2.18591 2.64713 0
M  V30 1069 N 103.467 -1.45747 0.599634 0
M  V30 1070 C 104.399 -2.28628 -0.161879 0
M  V30 1071 C 105.412 -1.39494 -0.839367 0
M  V30 1072 O 106.601 -1.63941 -0.706089 0
M  V30 1073 C 103.701 -3.15014 -1.24976 0
M  V30 1074 C 102.874 -4.32378 -0.660935 0
M  V30 1075 C 101.933 -5.00033 -1.63869 0
M  V30 1076 O 100.959 -5.57085 -1.1681 0
M  V30 1077 N 102.161 -4.98589 -2.97303 0
M  V30 1078 H 104.926 -2.94624 0.549265 0
M  V30 1079 H 102.487 -1.55847 0.438565 0
M  V30 1080 H 104.479 -3.5714 -1.9035 0
M  V30 1081 H 103.049 -2.5098 -1.86354 0
M  V30 1082 H 102.269 -3.9383 0.170688 0
M  V30 1083 H 103.557 -5.08197 -0.247619 0
M  V30 1084 H 102.955 -4.53514 -3.38145 0
M  V30 1085 H 101.512 -5.44603 -3.58121 0
M  V30 1086 N 104.945 -0.338344 -1.53925 0
M  V30 1087 C 106.194 0.260732 -2.00008 0
M  V30 1088 C 106.507 1.52073 -1.23017 0
M  V30 1089 O 107.713 2.19672 -1.5955 0
M  V30 1090 C 106.169 0.51515 -3.56194 0
M  V30 1091 C 105.777 -0.728645 -4.42035 0
M  V30 1092 C 107.521 1.07337 -4.10706 0
M  V30 1093 C 105.428 -0.445315 -5.89721 0
M  V30 1094 H 104.358 0.101205 -0.747177 0
M  V30 1095 H 107.009 -0.452866 -1.77824 0
M  V30 1096 H 105.391 1.28932 -3.74423 0
M  V30 1097 H 106.565 -1.50352 -4.35581 0
M  V30 1098 H 104.88 -1.20813 -3.98489 0
M  V30 1099 H 107.477 1.30022 -5.18651 0
M  V30 1100 H 107.82 2.0273 -3.63602 0
M  V30 1101 H 108.353 0.360034 -3.96167 0
M  V30 1102 H 105.092 -1.36883 -6.41049 0
M  V30 1103 H 104.612 0.291569 -5.99091 0
M  V30 1104 H 106.291 -0.0606218 -6.46972 0
M  V30 1105 N 106.423 1.57458 -0.0668435 0
M  V30 1106 C 107.671 1.92919 0.602214 0
M  V30 1107 C 107.992 0.947215 1.70449 0
M  V30 1108 O 107.262 -0.00544117 1.95899 0
M  V30 1109 H 105.842 0.71217 0.22544 0
M  V30 1110 H 108.504 1.94508 -0.123535 0
M  V30 1111 H 107.6 2.94589 1.03073 0
M  V30 1112 N 107.901 -0.206675 1.56239 0
M  V30 1113 C 109.178 -0.954051 1.70755 0
M  V30 1114 C 109.558 -2.01841 0.618353 0
M  V30 1115 O 108.906 -2.25444 -0.372434 0
M  V30 1116 C 109.116 -1.551 3.12642 0
M  V30 1117 C 110.464 -2.03757 3.72516 0
M  V30 1118 O 111.488 -1.64965 3.15698 0
M  V30 1119 O 110.347 -2.75103 4.72208 0
M  V30 1120 H 107.441 -0.446636 0.696021 0
M  V30 1121 H 109.987 -0.197283 1.68549 0
M  V30 1122 H 108.759 -0.783212 3.83382 0
M  V30 1123 H 108.382 -2.37291 3.19028 0
M  V30 1124 N 109.379 -1.50304 -0.473955 0
M  V30 1125 C 110.309 -1.71886 -1.58042 0
M  V30 1126 C 111.29 -0.567799 -1.60344 0
M  V30 1127 O 112.475 -0.806623 -1.76656 0
M  V30 1128 C 109.605 -1.81036 -2.96384 0
M  V30 1129 C 108.559 -2.962 -3.08949 0
M  V30 1130 C 107.885 -2.9049 -4.48909 0
M  V30 1131 C 109.185 -4.36752 -2.86434 0
M  V30 1132 H 110.879 -2.64527 -1.40234 0
M  V30 1133 H 108.425 -1.27295 -0.673201 0
M  V30 1134 H 110.378 -1.94719 -3.73714 0
M  V30 1135 H 109.102 -0.850147 -3.15341 0
M  V30 1136 H 107.761 -2.82164 -2.3405 0
M  V30 1137 H 107.409 -1.92321 -4.64781 0
M  V30 1138 H 107.109 -3.67802 -4.58253 0
M  V30 1139 H 108.633 -3.06218 -5.28264 0
M  V30 1140 H 110.047 -4.5133 -3.53517 0
M  V30 1141 H 108.444 -5.15493 -3.07225 0
M  V30 1142 H 109.514 -4.49321 -1.82316 0
M  V30 1143 N 110.857 0.726932 -1.39834 0
M  V30 1144 C 111.787 1.85405 -1.41941 0
M  V30 1145 C 112.768 1.67751 -0.281728 0
M  V30 1146 O 113.953 1.8795 -0.488717 0
M  V30 1147 C 111.083 3.23243 -1.2701 0
M  V30 1148 C 110.037 3.55549 -2.38262 0
M  V30 1149 C 109.363 4.9241 -2.08415 0
M  V30 1150 C 110.663 3.577 -3.80589 0
M  V30 1151 H 112.357 1.83899 -2.36266 0
M  V30 1152 H 109.903 0.883349 -1.13723 0
M  V30 1153 H 111.856 4.01775 -1.27103 0
M  V30 1154 H 110.58 3.25296 -0.291564 0
M  V30 1155 H 109.239 2.79351 -2.37399 0
M  V30 1156 H 108.887 4.91052 -1.0898 0
M  V30 1157 H 108.587 5.14992 -2.82943 0
M  V30 1158 H 110.111 5.73289 -2.10171 0
M  V30 1159 H 111.525 4.26293 -3.83337 0
M  V30 1160 H 109.922 3.91804 -4.54543 0
M  V30 1161 H 110.992 2.57328 -4.10987 0
M  V30 1162 N 112.336 1.25143 0.95797 0
M  V30 1163 C 113.283 1.05235 2.05412 0
M  V30 1164 C 114.253 -0.0374561 1.66058 0
M  V30 1165 O 115.438 0.119073 1.90428 0
M  V30 1166 C 112.578 0.673589 3.38462 0
M  V30 1167 C 111.691 1.8379 3.90954 0
M  V30 1168 C 110.826 1.40381 5.12315 0
M  V30 1169 C 109.865 2.53746 5.57027 0
M  V30 1170 N 109.002 2.11136 6.69601 0
M  V30 1171 H 113.842 1.99048 2.21774 0
M  V30 1172 H 111.379 0.991277 1.08683 0
M  V30 1173 H 113.337 0.434964 4.14926 0
M  V30 1174 H 111.967 -0.227554 3.21997 0
M  V30 1175 H 111.019 2.18992 3.11041 0
M  V30 1176 H 112.331 2.68937 4.20089 0
M  V30 1177 H 111.485 1.12464 5.96185 0
M  V30 1178 H 110.224 0.523015 4.84887 0
M  V30 1179 H 109.229 2.82412 4.71724 0
M  V30 1180 H 110.454 3.42398 5.86464 0
M  V30 1181 H 108.4 1.25468 6.4389 0
M  V30 1182 H 108.317 2.89832 6.98236 0
M  V30 1183 H 109.585 1.86385 7.56889 0
M  V30 1184 N 113.814 -1.1601 1.06675 0
M  V30 1185 C 115.23 -1.38622 0.790948 0
M  V30 1186 C 115.43 -1.92109 -0.607965 0
M  V30 1187 O 114.486 -2.12239 -1.36787 0
M  V30 1188 C 115.799 -2.36347 1.85905 0
M  V30 1189 C 117.347 -2.50023 1.88301 0
M  V30 1190 C 117.822 -3.51033 2.94176 0
M  V30 1191 N 119.313 -3.58563 2.93235 0
M  V30 1192 C 120.048 -4.36521 3.71803 0
M  V30 1193 N 119.544 -5.17869 4.602 0
M  V30 1194 N 121.337 -4.31541 3.60178 0
M  V30 1195 H 113.488 -0.796294 1.96908 0
M  V30 1196 H 115.751 -0.412597 0.853503 0
M  V30 1197 H 115.457 -2.04147 2.86386 0
M  V30 1198 H 115.331 -3.36042 1.71334 0
M  V30 1199 H 117.718 -2.81524 0.884769 0
M  V30 1200 H 117.799 -1.5035 2.06951 0
M  V30 1201 H 117.443 -3.20268 3.94196 0
M  V30 1202 H 117.373 -4.50445 2.72776 0
M  V30 1203 H 119.864 -3.00496 2.29152 0
M  V30 1204 H 120.177 -5.74578 5.16797 0
M  V30 1205 H 118.522 -5.17199 4.64253 0
M  V30 1206 H 121.713 -3.67051 2.90502 0
M  V30 1207 H 121.886 -4.9205 4.21653 0
M  V30 1208 N 115.292 -0.849877 -1.32721 0
M  V30 1209 C 116.222 -0.306308 -2.31482 0
M  V30 1210 C 117.203 0.591952 -1.59468 0
M  V30 1211 O 118.388 0.513199 -1.87296 0
M  V30 1212 C 115.518 0.510204 -3.43532 0
M  V30 1213 C 114.472 -0.293209 -4.26994 0
M  V30 1214 C 113.798 0.647743 -5.30762 0
M  V30 1215 C 115.098 -1.51634 -4.99804 0
M  V30 1216 H 116.792 -1.13153 -2.77195 0
M  V30 1217 H 114.338 -0.545553 -1.33266 0
M  V30 1218 H 116.291 0.900856 -4.11658 0
M  V30 1219 H 115.015 1.36874 -2.96535 0
M  V30 1220 H 113.674 -0.665555 -3.60508 0
M  V30 1221 H 113.322 1.50299 -4.8002 0
M  V30 1222 H 113.022 0.11422 -5.87489 0
M  V30 1223 H 114.546 1.03567 -6.01753 0
M  V30 1224 H 115.96 -1.19824 -5.60638 0
M  V30 1225 H 114.357 -1.98745 -5.66234 0
M  V30 1226 H 115.427 -2.28018 -4.27943 0
M  V30 1227 N 116.77 1.45427 -0.607355 0
M  V30 1228 C 117.995 2.07124 -0.107006 0
M  V30 1229 C 118.42 1.44906 1.19933 0
M  V30 1230 O 117.778 0.541687 1.73019 0
M  V30 1231 C 117.826 3.60595 0.0194119 0
M  V30 1232 O 116.93 3.98285 1.0697 0
M  V30 1233 H 116.271 0.659868 -0.0739597 0
M  V30 1234 H 118.801 1.86683 -0.837297 0
M  V30 1235 H 118.811 4.07419 0.2177 0
M  V30 1236 H 117.486 4.05266 -0.934453 0
M  V30 1237 H 116.063 3.63133 0.847889 0
M  V30 1238 N 118.248 0.346503 1.53744 0
M  V30 1239 C 119.497 -0.250122 2.00143 0
M  V30 1240 C 119.81 -1.51418 1.23822 0
M  V30 1241 O 121.016 -2.18823 1.60713 0
M  V30 1242 C 119.472 -0.496252 3.56462 0
M  V30 1243 C 119.08 0.752077 4.41642 0
M  V30 1244 C 120.824 -1.05157 4.11269 0
M  V30 1245 C 118.731 0.476583 5.89477 0
M  V30 1246 H 117.661 -0.0972409 0.747703 0
M  V30 1247 H 120.312 0.46229 1.77581 0
M  V30 1248 H 118.694 -1.26944 3.75102 0
M  V30 1249 H 119.868 1.5266 4.34778 0
M  V30 1250 H 118.183 1.22925 3.97842 0
M  V30 1251 H 120.78 -1.27269 5.19333 0
M  V30 1252 H 121.123 -2.00799 3.64672 0
M  V30 1253 H 121.656 -0.339019 3.96353 0
M  V30 1254 H 118.395 1.4028 6.40314 0
M  V30 1255 H 117.915 -0.259794 5.99237 0
M  V30 1256 H 119.594 0.0949315 6.4693 0
M  V30 1257 N 119.726 -1.57421 0.075193 0
M  V30 1258 C 120.636 -2.1642 -0.905511 0
M  V30 1259 C 121.652 -1.12828 -1.32461 0
M  V30 1260 O 122.828 -1.45109 -1.39661 0
M  V30 1261 C 119.893 -2.71693 -2.15369 0
M  V30 1262 C 118.954 -3.90171 -1.79068 0
M  V30 1263 C 118.187 -4.42798 -2.97936 0
M  V30 1264 O 118.41 -3.94416 -4.12058 0
M  V30 1265 O 117.344 -5.34085 -2.77555 0
M  V30 1266 H 121.17 -3.00588 -0.433626 0
M  V30 1267 H 118.755 -1.48664 -0.148067 0
M  V30 1268 H 120.637 -3.07104 -2.88557 0
M  V30 1269 H 119.312 -1.90582 -2.61649 0
M  V30 1270 H 118.219 -3.59606 -1.03122 0
M  V30 1271 H 119.552 -4.72584 -1.37569 0
M  V30 1272 N 121.204 0.198386 -1.56346 0
M  V30 1273 C 122.429 0.939682 -1.84891 0
M  V30 1274 C 122.854 1.76202 -0.658369 0
M  V30 1275 O 122.212 1.76993 0.392851 0
M  V30 1276 C 122.26 1.81428 -3.11635 0
M  V30 1277 O 121.364 2.91265 -2.91956 0
M  V30 1278 H 120.705 0.264807 -0.608912 0
M  V30 1279 H 123.235 0.204695 -2.03573 0
M  V30 1280 H 123.245 2.21958 -3.42343 0
M  V30 1281 H 121.92 1.21004 -3.97908 0
M  V30 1282 H 120.497 2.54514 -2.72538 0
M  V30 1283 N 122.682 1.50554 0.465978 0
M  V30 1284 C 123.632 1.66177 1.56106 0
M  V30 1285 C 124.616 0.516265 1.52393 0
M  V30 1286 O 125.808 0.770906 1.5933 0
M  V30 1287 C 122.937 1.76396 2.94515 0
M  V30 1288 C 122.023 2.9664 3.03093 0
M  V30 1289 N 122.414 4.20245 2.81474 0
M  V30 1290 C 120.712 2.95304 3.34233 0
M  V30 1291 C 121.413 5.01259 2.95151 0
M  V30 1292 N 120.389 4.35318 3.25576 0
M  V30 1293 H 124.191 2.59434 1.38099 0
M  V30 1294 H 121.705 1.47808 0.6728 0
M  V30 1295 H 123.702 1.85694 3.73261 0
M  V30 1296 H 122.362 0.843017 3.13565 0
M  V30 1297 H 123.373 4.4966 2.56956 0
M  V30 1298 H 120.05 2.12729 3.59239 0
M  V30 1299 H 121.44 6.09564 2.82632 0
M  V30 1300 N 124.16 -0.719506 1.40217 0
M  V30 1301 C 125.407 -1.47933 1.38283 0
M  V30 1302 C 125.735 -1.94493 -0.0161536 0
M  V30 1303 O 124.99 -1.68224 -0.999956 0
M  V30 1304 C 125.289 -2.72271 2.31524 0
M  V30 1305 C 124.955 -2.44496 3.78857 0
M  V30 1306 C 123.617 -2.36631 4.18998 0
M  V30 1307 C 125.969 -2.21104 4.71977 0
M  V30 1308 C 123.297 -2.03437 5.503 0
M  V30 1309 C 125.649 -1.89423 6.03574 0
M  V30 1310 C 124.313 -1.80038 6.42762 0
M  V30 1311 H 123.583 -0.541325 0.506012 0
M  V30 1312 H 126.23 -0.824502 1.72842 0
M  V30 1313 H 124.535 -3.42572 1.90137 0
M  V30 1314 H 126.232 -3.30348 2.27313 0
M  V30 1315 H 122.822 -2.51503 3.47051 0
M  V30 1316 H 127.006 -2.26139 4.41786 0
M  V30 1317 H 122.262 -1.94705 5.79569 0
M  V30 1318 H 126.436 -1.70336 6.75247 0
M  V30 1319 H 124.063 -1.54083 7.44421 0
M  V30 1320 N 125.638 -1.25649 -0.95132 0
M  V30 1321 C 126.887 -1.09988 -1.69073 0
M  V30 1322 C 127.2 0.358355 -1.92289 0
M  V30 1323 O 128.406 0.635466 -2.63958 0
M  V30 1324 C 126.862 -1.92012 -3.044 0
M  V30 1325 C 126.47 -3.42347 -2.88968 0
M  V30 1326 C 128.214 -1.8493 -3.82101 0
M  V30 1327 C 126.121 -4.16655 -4.19705 0
M  V30 1328 H 125.051 -0.407993 -0.63408 0
M  V30 1329 H 127.702 -1.49873 -1.05879 0
M  V30 1330 H 126.084 -1.44952 -3.68517 0
M  V30 1331 H 127.258 -3.97104 -2.33762 0
M  V30 1332 H 125.573 -3.50557 -2.24719 0
M  V30 1333 H 128.17 -2.37739 -4.78941 0
M  V30 1334 H 128.513 -0.817883 -4.08187 0
M  V30 1335 H 129.046 -2.29758 -3.2474 0
M  V30 1336 H 125.785 -5.20224 -3.98807 0
M  V30 1337 H 125.305 -3.66681 -4.74663 0
M  V30 1338 H 126.984 -4.24551 -4.88227 0
M  V30 1339 N 127.117 1.15442 -1.07289 0
M  V30 1340 C 128.394 1.82306 -0.708792 0
M  V30 1341 C 128.774 1.94991 0.808807 0
M  V30 1342 O 128.122 1.50085 1.72298 0
M  V30 1343 C 128.332 3.18695 -1.42247 0
M  V30 1344 C 129.68 3.94341 -1.57417 0
M  V30 1345 O 130.704 3.28247 -1.38319 0
M  V30 1346 O 129.563 5.12839 -1.88834 0
M  V30 1347 H 126.657 0.787628 -0.252132 0
M  V30 1348 H 129.203 1.22559 -1.17377 0
M  V30 1349 H 127.975 3.04557 -2.45684 0
M  V30 1350 H 127.598 3.86128 -0.948223 0
M  V30 1351 N 128.595 0.856903 1.32268 0
M  V30 1352 C 129.843 0.460474 1.96784 0
M  V30 1353 C 130.164 -0.987701 1.68135 0
M  V30 1354 O 129.434 -1.69058 0.989765 0
M  V30 1355 H 128.014 0.167289 0.728027 0
M  V30 1356 H 130.676 1.09383 1.61312 0
M  V30 1357 H 129.772 0.60739 3.06133 0
M  V30 1358 N 130.073 -1.45103 0.615059 0
M  V30 1359 C 131.006 -2.27717 -0.148408 0
M  V30 1360 C 131.984 -1.37584 -0.866572 0
M  V30 1361 O 133.168 -1.67017 -0.87393 0
M  V30 1362 C 130.295 -3.16136 -1.21557 0
M  V30 1363 C 129.341 -4.22263 -0.599712 0
M  V30 1364 S 130.174 -5.3215 0.598081 0
M  V30 1365 C 131.33 -6.24137 -0.469484 0
M  V30 1366 H 131.563 -2.92121 0.552483 0
M  V30 1367 H 129.096 -1.49054 0.402778 0
M  V30 1368 H 131.054 -3.67633 -1.82638 0
M  V30 1369 H 129.715 -2.50982 -1.88857 0
M  V30 1370 H 128.908 -4.84081 -1.4029 0
M  V30 1371 H 128.51 -3.73945 -0.063876 0
M  V30 1372 H 130.802 -6.63984 -1.34652 0
M  V30 1373 H 131.745 -7.0801 0.112725 0
M  V30 1374 H 132.153 -5.58971 -0.788168 0
M  V30 1375 N 131.551 -0.354651 -1.53558 0
M  V30 1376 C 132.967 -0.00315426 -1.596 0
M  V30 1377 C 133.167 1.47741 -1.37021 0
M  V30 1378 O 132.223 2.23759 -1.16996 0
M  V30 1379 C 133.536 -0.44929 -2.97325 0
M  V30 1380 C 135.084 -0.402578 -3.104 0
M  V30 1381 C 135.559 -0.824355 -4.5052 0
M  V30 1382 N 137.05 -0.778979 -4.56603 0
M  V30 1383 C 137.785 -1.07715 -5.63192 0
M  V30 1384 N 137.281 -1.44405 -6.77583 0
M  V30 1385 N 139.074 -1.00066 -5.53121 0
M  V30 1386 H 131.225 -1.31893 -1.66487 0
M  V30 1387 H 133.488 -0.538388 -0.780284 0
M  V30 1388 H 133.194 -1.48202 -3.1895 0
M  V30 1389 H 133.068 0.169772 -3.76818 0
M  V30 1390 H 135.455 0.621004 -2.88492 0
M  V30 1391 H 135.536 -1.05699 -2.32941 0
M  V30 1392 H 135.18 -1.846 -4.73165 0
M  V30 1393 H 135.11 -0.147304 -5.26394 0
M  V30 1394 H 137.601 -0.508528 -3.74463 0
M  V30 1395 H 137.914 -1.65612 -7.54846 0
M  V30 1396 H 136.259 -1.4826 -6.79002 0
M  V30 1397 H 139.45 -0.713293 -4.62633 0
M  V30 1398 H 139.623 -1.23638 -6.36096 0
M  V30 1399 N 133.029 1.57378 -0.0835403 0
M  V30 1400 C 134.275 1.94217 0.583733 0
M  V30 1401 C 134.608 0.964653 1.68547 0
M  V30 1402 O 133.883 -0.00422258 1.945 0
M  V30 1403 C 134.166 3.41253 1.14972 0
M  V30 1404 C 134.019 4.49768 0.0538277 0
M  V30 1405 C 135.338 3.89352 2.05166 0
M  V30 1406 H 132.457 0.706233 0.210724 0
M  V30 1407 H 135.099 1.89392 -0.1519 0
M  V30 1408 H 133.249 3.45496 1.77665 0
M  V30 1409 H 134.921 4.57641 -0.579851 0
M  V30 1410 H 133.164 4.29432 -0.614068 0
M  V30 1411 H 133.835 5.49817 0.490452 0
M  V30 1412 H 136.311 3.87189 1.52393 0
M  V30 1413 H 135.187 4.92822 2.41698 0
M  V30 1414 H 135.448 3.27973 2.96456 0
M  V30 1415 N 134.507 -0.190092 1.56449 0
M  V30 1416 C 135.735 -0.925772 1.85033 0
M  V30 1417 C 136.15 -1.76638 0.666658 0
M  V30 1418 O 135.507 -1.78822 -0.364565 0
M  V30 1419 C 135.558 -1.81786 3.12468 0
M  V30 1420 O 135.279 -1.01118 4.26271 0
M  V30 1421 C 136.78 -2.6648 3.54265 0
M  V30 1422 H 134 -0.269872 0.614337 0
M  V30 1423 H 136.544 -0.195837 2.0356 0
M  V30 1424 H 134.699 -2.50136 2.95822 0
M  V30 1425 H 135.113 -1.61956 4.98869 0
M  V30 1426 H 136.587 -3.24722 4.46385 0
M  V30 1427 H 137.064 -3.40434 2.77491 0
M  V30 1428 H 137.67 -2.03493 3.73458 0
M  V30 1429 N 135.985 -1.50799 -0.457987 0
M  V30 1430 C 137.262 -1.52968 -1.21902 0
M  V30 1431 C 137.642 -0.281906 -2.09209 0
M  V30 1432 O 136.99 0.734076 -2.16388 0
M  V30 1433 C 137.2 -2.8326 -2.03875 0
M  V30 1434 C 138.548 -3.34425 -2.6162 0
M  V30 1435 O 139.572 -2.8467 -2.14106 0
M  V30 1436 O 138.431 -4.21188 -3.48228 0
M  V30 1437 H 135.525 -0.614129 -0.553873 0
M  V30 1438 H 138.071 -1.63098 -0.468739 0
M  V30 1439 H 136.843 -3.65543 -1.39621 0
M  V30 1440 H 136.466 -2.76195 -2.8601 0
M  V30 1441 N 137.463 0.71206 -1.40597 0
M  V30 1442 C 138.426 1.80785 -1.40888 0
M  V30 1443 C 139.426 1.57937 -0.302103 0
M  V30 1444 O 140.616 1.64913 -0.561182 0
M  V30 1445 C 137.748 3.18927 -1.20409 0
M  V30 1446 H 138.941 1.81924 -2.38419 0
M  V30 1447 H 136.494 0.91805 -1.26497 0
M  V30 1448 H 137.229 3.23436 -0.236522 0
M  V30 1449 H 137.014 3.36911 -2.00582 0
M  V30 1450 H 138.504 3.98949 -1.23408 0
M  V30 1451 N 138.941 1.26152 0.944643 0
M  V30 1452 C 139.904 1.07474 2.0244 0
M  V30 1453 C 140.904 0.0242064 1.60782 0
M  V30 1454 O 142.094 0.267302 1.72137 0
M  V30 1455 C 139.226 0.633956 3.34953 0
M  V30 1456 H 140.419 2.03336 2.20442 0
M  V30 1457 H 137.972 1.087 1.12312 0
M  V30 1458 H 138.707 -0.326811 3.22649 0
M  V30 1459 H 138.492 1.39247 3.66542 0
M  V30 1460 H 139.982 0.52501 4.14287 0
M  V30 1461 N 140.419 -1.14872 1.07899 0
M  V30 1462 C 141.647 -1.89661 0.82683 0
M  V30 1463 C 142.062 -1.78312 -0.620519 0
M  V30 1464 O 141.419 -1.13888 -1.42604 0
M  V30 1465 C 141.47 -3.39817 1.23316 0
M  V30 1466 O 141.191 -3.50845 2.62372 0
M  V30 1467 C 142.692 -4.31615 1.0111 0
M  V30 1468 H 139.912 -0.60092 0.298557 0
M  V30 1469 H 142.456 -1.4551 1.43691 0
M  V30 1470 H 140.611 -3.8161 0.667286 0
M  V30 1471 H 141.025 -4.44076 2.79101 0
M  V30 1472 H 142.499 -5.35367 1.34486 0
M  V30 1473 H 142.976 -4.39169 -0.0522168 0
M  V30 1474 H 143.582 -3.95572 1.56215 0
M  V30 1475 N 141.898 -0.863906 -1.31812 0
M  V30 1476 C 142.831 -0.259963 -2.26714 0
M  V30 1477 C 143.809 0.607392 -1.50829 0
M  V30 1478 O 144.993 0.562155 -1.79922 0
M  V30 1479 C 142.12 0.632456 -3.32743 0
M  V30 1480 C 141.166 -0.162743 -4.26189 0
M  V30 1481 S 141.999 -1.53726 -5.12961 0
M  V30 1482 C 143.155 -0.650803 -6.22507 0
M  V30 1483 H 143.388 -1.06445 -2.77591 0
M  V30 1484 H 140.921 -0.662071 -1.39485 0
M  V30 1485 H 142.879 1.14167 -3.94305 0
M  V30 1486 H 141.54 1.41083 -2.80632 0
M  V30 1487 H 140.733 0.517366 -5.01338 0
M  V30 1488 H 140.335 -0.60385 -3.69093 0
M  V30 1489 H 142.627 0.141134 -6.77353 0
M  V30 1490 H 143.57 -1.37322 -6.94657 0
M  V30 1491 H 143.978 -0.221041 -5.64067 0
M  V30 1492 N 143.376 1.44774 -0.622745 0
M  V30 1493 C 144.653 1.95522 -0.0551974 0
M  V30 1494 C 145.033 1.5649 1.41683 0
M  V30 1495 O 144.381 0.834848 2.12703 0
M  V30 1496 C 144.591 3.4796 -0.269242 0
M  V30 1497 C 145.939 4.24306 -0.158014 0
M  V30 1498 O 146.963 3.55637 -0.200162 0
M  V30 1499 O 145.822 5.46471 -0.0558693 0
M  V30 1500 H 142.916 0.826556 0.0271015 0
M  V30 1501 H 145.462 1.54866 -0.693864 0
M  V30 1502 H 144.234 3.6939 -1.29099 0
M  V30 1503 H 143.857 3.95543 0.403966 0
M  V30 1504 N 144.854 0.36279 1.53368 0
M  V30 1505 C 146.1 -0.228113 2.01513 0
M  V30 1506 C 146.433 -1.48648 1.2497 0
M  V30 1507 O 145.708 -1.91459 0.342616 0
M  V30 1508 C 145.991 -0.522884 3.56284 0
M  V30 1509 C 145.844 0.74892 4.43521 0
M  V30 1510 C 147.163 -1.32461 4.19693 0
M  V30 1511 H 144.282 -0.0814343 0.732487 0
M  V30 1512 H 146.924 0.48713 1.83649 0
M  V30 1513 H 145.074 -1.1322 3.71636 0
M  V30 1514 H 146.746 1.38648 4.39971 0
M  V30 1515 H 144.989 1.36986 4.11603 0
M  V30 1516 H 145.66 0.497667 5.49752 0
M  V30 1517 H 148.136 -0.809203 4.08156 0
M  V30 1518 H 147.012 -1.49961 5.28018 0
M  V30 1519 H 147.273 -2.33232 3.75573 0
M  V30 1520 N 146.332 -1.57332 0.0918853 0
M  V30 1521 C 147.578 -1.94524 -0.573425 0
M  V30 1522 C 147.911 -0.973578 -1.68033 0
M  V30 1523 O 147.186 -0.00609226 -1.94499 0
M  V30 1524 C 147.469 -3.41858 -1.13161 0
M  V30 1525 C 147.322 -4.4979 -0.0299747 0
M  V30 1526 C 148.641 -3.90435 -2.03098 0
M  V30 1527 H 145.76 -0.70734 -0.206975 0
M  V30 1528 H 148.402 -1.89309 0.161942 0
M  V30 1529 H 146.552 -3.46433 -1.7583 0
M  V30 1530 H 148.224 -4.57327 0.604112 0
M  V30 1531 H 146.467 -4.291 0.636833 0
M  V30 1532 H 147.138 -5.50069 -0.461287 0
M  V30 1533 H 149.614 -3.87992 -1.50338 0
M  V30 1534 H 148.49 -4.94097 -2.39081 0
M  V30 1535 H 148.751 -3.29541 -2.94712 0
M  V30 1536 N 147.81 0.181792 -1.56548 0
M  V30 1537 C 148.72 1.24538 -1.98815 0
M  V30 1538 C 149.736 1.49045 -0.897861 0
M  V30 1539 O 150.912 1.61399 -1.20467 0
M  V30 1540 C 147.977 2.56683 -2.33055 0
M  V30 1541 C 147.038 2.40131 -3.55859 0
M  V30 1542 C 146.271 3.65975 -3.88456 0
M  V30 1543 O 146.494 4.70711 -3.22161 0
M  V30 1544 O 145.428 3.6071 -4.81842 0
M  V30 1545 H 149.254 0.916647 -2.89536 0
M  V30 1546 H 146.839 0.387842 -1.44278 0
M  V30 1547 H 148.721 3.34655 -2.56094 0
M  V30 1548 H 147.396 2.89157 -1.45498 0
M  V30 1549 H 146.303 1.60226 -3.38051 0
M  V30 1550 H 147.636 2.12585 -4.43924 0
M  V30 1551 N 149.288 1.51039 0.449983 0
M  V30 1552 C 150.221 1.66105 1.56474 0
M  V30 1553 C 151.199 0.508776 1.54435 0
M  V30 1554 O 152.383 0.731005 1.73749 0
M  V30 1555 C 149.51 1.66304 2.9506 0
M  V30 1556 C 148.556 2.87346 3.15174 0
M  V30 1557 S 149.389 4.4835 2.92818 0
M  V30 1558 C 150.545 4.51274 4.33708 0
M  V30 1559 H 150.778 2.60397 1.43459 0
M  V30 1560 H 148.311 1.40565 0.638805 0
M  V30 1561 H 150.269 1.67103 3.74949 0
M  V30 1562 H 148.93 0.732108 3.05449 0
M  V30 1563 H 148.123 2.83849 4.16468 0
M  V30 1564 H 147.725 2.84223 2.43091 0
M  V30 1565 H 150.017 4.26136 5.26701 0
M  V30 1566 H 150.96 5.53017 4.42242 0
M  V30 1567 H 151.368 3.80738 4.16772 0
M  V30 1568 N 150.766 -0.704594 1.40972 0
M  V30 1569 C 152.012 -1.46675 1.40051 0
M  V30 1570 C 152.345 -1.94199 0.00641102 0
M  V30 1571 O 151.62 -1.68916 -0.964235 0
M  V30 1572 C 151.903 -2.68505 2.39952 0
M  V30 1573 C 151.756 -2.26805 3.88432 0
M  V30 1574 C 153.075 -3.70686 2.37233 0
M  V30 1575 H 150.194 -0.532015 0.510028 0
M  V30 1576 H 152.836 -0.803255 1.72185 0
M  V30 1577 H 150.986 -3.25114 2.1268 0
M  V30 1578 H 152.658 -1.75592 4.26574 0
M  V30 1579 H 150.901 -1.58685 4.03734 0
M  V30 1580 H 151.572 -3.14181 4.53866 0
M  V30 1581 H 154.048 -3.23731 2.61415 0
M  V30 1582 H 152.924 -4.53553 3.09162 0
M  V30 1583 H 153.185 -4.19754 1.38777 0
M  V30 1584 N 152.244 -1.26651 -0.937939 0
M  V30 1585 C 153.174 -1.10993 -2.05433 0
M  V30 1586 C 154.155 -0.0142161 -1.70094 0
M  V30 1587 O 155.34 -0.186837 -1.93299 0
M  V30 1588 C 152.47 -0.745561 -3.39203 0
M  V30 1589 C 151.424 -1.79337 -3.88616 0
M  V30 1590 C 150.75 -1.28324 -5.19073 0
M  V30 1591 C 152.05 -3.19553 -4.13138 0
M  V30 1592 H 153.744 -2.0438 -2.1879 0
M  V30 1593 H 151.29 -0.984041 -1.05131 0
M  V30 1594 H 153.243 -0.622888 -4.16771 0
M  V30 1595 H 151.967 0.22401 -3.25831 0
M  V30 1596 H 150.626 -1.90477 -3.13231 0
M  V30 1597 H 150.274 -0.303414 -5.02084 0
M  V30 1598 H 149.974 -1.98369 -5.53103 0
M  V30 1599 H 151.498 -1.1733 -5.99221 0
M  V30 1600 H 152.912 -3.11471 -4.81309 0
M  V30 1601 H 151.309 -3.87218 -4.58457 0
M  V30 1602 H 152.379 -3.65368 -3.18801 0
M  V30 1603 N 153.722 1.14298 -1.08507 0
M  V30 1604 C 154.97 1.84993 -0.813763 0
M  V30 1605 C 155.291 1.83405 0.662393 0
M  V30 1606 O 154.561 1.28319 1.48024 0
M  V30 1607 H 153.141 0.684966 -0.298045 0
M  V30 1608 H 155.803 1.385 -1.37126 0
M  V30 1609 H 154.899 2.89788 -1.15884 0
M  V30 1610 N 155.201 0.870884 1.31352 0
M  V30 1611 C 156.449 0.48132 1.96285 0
M  V30 1612 C 156.77 -0.969813 1.69173 0
M  V30 1613 O 156.04 -1.67998 1.00764 0
M  V30 1614 H 154.62 0.175002 0.726212 0
M  V30 1615 H 157.282 1.11087 1.60143 0
M  V30 1616 H 156.378 0.639825 3.05471 0
M  V30 1617 N 156.679 -1.44442 0.630414 0
M  V30 1618 C 157.611 -2.2892 -0.113347 0
M  V30 1619 C 158.624 -1.41243 -0.80959 0
M  V30 1620 O 159.813 -1.65402 -0.671156 0
M  V30 1621 C 156.913 -3.17594 -1.18266 0
M  V30 1622 C 156.086 -4.33682 -0.569073 0
M  V30 1623 C 155.145 -5.03397 -1.53226 0
M  V30 1624 O 154.171 -5.59438 -1.04967 0
M  V30 1625 N 155.373 -5.04783 -2.86661 0
M  V30 1626 H 158.138 -2.93392 0.611636 0
M  V30 1627 H 155.699 -1.54881 0.471523 0
M  V30 1628 H 157.691 -3.61097 -1.82732 0
M  V30 1629 H 156.261 -2.54876 -1.80988 0
M  V30 1630 H 155.481 -3.9338 0.254187 0
M  V30 1631 H 156.769 -5.08608 -0.139767 0
M  V30 1632 H 156.167 -4.60584 -3.28449 0
M  V30 1633 H 154.724 -5.52077 -3.46489 0
M  V30 1634 N 158.157 -0.370918 -1.53173 0
M  V30 1635 C 159.403 0.217423 -2.01631 0
M  V30 1636 C 159.736 1.47983 -1.25756 0
M  V30 1637 O 159.011 1.91274 -0.352764 0
M  V30 1638 C 159.294 0.503982 -3.56556 0
M  V30 1639 C 159.147 -0.77243 -4.43118 0
M  V30 1640 C 160.466 1.30234 -4.20389 0
M  V30 1641 H 157.585 0.0775486 -0.732909 0
M  V30 1642 H 160.227 -0.496863 -1.83388 0
M  V30 1643 H 158.377 1.11248 -3.72231 0
M  V30 1644 H 160.049 -1.4098 -4.39229 0
M  V30 1645 H 158.292 -1.39167 -4.10871 0
M  V30 1646 H 158.963 -0.526815 -5.4948 0
M  V30 1647 H 161.439 0.787546 -4.08579 0
M  V30 1648 H 160.315 1.47158 -5.28806 0
M  V30 1649 H 160.576 2.31237 -3.76805 0
M  V30 1650 N 159.635 1.57281 -0.100228 0
M  V30 1651 C 160.583 2.15542 0.874328 0
M  V30 1652 C 161.577 1.09962 1.28859 0
M  V30 1653 O 162.783 1.28298 1.26252 0
M  V30 1654 H 159.158 0.689567 0.300003 0
M  V30 1655 H 161.129 2.96241 0.35829 0
M  V30 1656 C 159.878 2.75454 2.1218 0
M  V30 1657 H 159.201 3.56384 1.81193 0
M  V30 1658 H 160.641 3.19781 2.78417 0
M  V30 1659 C 159.1 1.71602 2.89921 0
M  V30 1660 O 159.63 1.15804 3.84646 0
M  V30 1661 N 157.836 1.41975 2.53558 0
M  V30 1662 H 157.383 1.87539 1.76598 0
M  V30 1663 H 157.341 0.727274 3.05873 0
M  V30 1664 N 161.113 -0.173488 1.56642 0
M  V30 1665 C 162.06 -1.21482 1.96242 0
M  V30 1666 C 163.03 -1.44104 0.826027 0
M  V30 1667 O 164.215 -1.5688 1.08597 0
M  V30 1668 C 161.355 -2.54964 2.32567 0
M  V30 1669 C 160.468 -2.39739 3.59373 0
M  V30 1670 C 159.603 -3.66072 3.84921 0
M  V30 1671 C 158.642 -3.45771 5.05083 0
M  V30 1672 N 157.779 -4.64169 5.26775 0
M  V30 1673 H 162.619 -0.870123 2.85014 0
M  V30 1674 H 160.156 -0.418245 1.41029 0
M  V30 1675 H 162.114 -3.32758 2.5165 0
M  V30 1676 H 160.744 -2.87433 1.46908 0
M  V30 1677 H 159.796 -1.53131 3.48217 0
M  V30 1678 H 161.108 -2.20683 4.47326 0
M  V30 1679 H 160.262 -4.52303 4.0436 0
M  V30 1680 H 159.001 -3.88105 2.9534 0
M  V30 1681 H 158.006 -2.57927 4.85545 0
M  V30 1682 H 159.231 -3.25163 5.96193 0
M  V30 1683 H 157.177 -4.86425 4.40144 0
M  V30 1684 H 157.094 -4.48019 6.08946 0
M  V30 1685 H 158.362 -5.51689 5.5069 0
M  V30 1686 N 162.591 -1.51276 -0.441967 0
M  V30 1687 C 163.868 -1.54252 -1.20273 0
M  V30 1688 C 164.248 -0.30408 -2.08898 0
M  V30 1689 O 163.596 0.711084 -2.17154 0
M  V30 1690 C 163.806 -2.85406 -2.00859 0
M  V30 1691 C 165.154 -3.37181 -2.58059 0
M  V30 1692 O 166.178 -2.86925 -2.11074 0
M  V30 1693 O 165.037 -4.24858 -3.43741 0
M  V30 1694 H 162.131 -0.619969 -0.547328 0
M  V30 1695 H 164.677 -1.63586 -0.451413 0
M  V30 1696 H 163.449 -3.67003 -1.35736 0
M  V30 1697 H 163.072 -2.79213 -2.83065 0
M  V30 1698 N 164.069 0.697108 -1.41344 0
M  V30 1699 C 165.318 1.45279 -1.39918 0
M  V30 1700 C 165.631 1.95597 -0.0109624 0
M  V30 1701 O 166.837 2.71208 0.125919 0
M  V30 1702 C 165.293 2.62695 -2.46007 0
M  V30 1703 C 164.901 2.19169 -3.90729 0
M  V30 1704 C 166.645 3.40336 -2.53715 0
M  V30 1705 C 164.552 3.33535 -4.88373 0
M  V30 1706 H 163.482 0.545692 -0.520323 0
M  V30 1707 H 166.133 0.756929 -1.67161 0
M  V30 1708 H 164.515 3.34541 -2.11892 0
M  V30 1709 H 165.689 1.54623 -4.34083 0
M  V30 1710 H 164.004 1.54525 -3.86666 0
M  V30 1711 H 166.601 4.2547 -3.2385 0
M  V30 1712 H 166.944 3.85418 -1.5735 0
M  V30 1713 H 167.477 2.75546 -2.86913 0
M  V30 1714 H 164.216 2.93468 -5.86137 0
M  V30 1715 H 163.736 3.96936 -4.49668 0
M  V30 1716 H 165.415 3.99335 -5.09059 0
M  V30 1717 N 165.547 1.27147 0.931209 0
M  V30 1718 C 166.793 1.13446 1.68101 0
M  V30 1719 C 167.126 -0.319628 1.91552 0
M  V30 1720 O 166.401 -1.23407 1.50336 0
M  V30 1721 C 166.684 1.91482 3.0497 0
M  V30 1722 C 166.537 3.44855 2.88782 0
M  V30 1723 C 167.856 1.71651 4.05246 0
M  V30 1724 H 164.975 0.413498 0.610072 0
M  V30 1725 H 167.617 1.56261 1.08086 0
M  V30 1726 H 165.767 1.55095 3.56199 0
M  V30 1727 H 167.439 3.9105 2.44698 0
M  V30 1728 H 165.682 3.71373 2.24198 0
M  V30 1729 H 166.353 3.94694 3.85902 0
M  V30 1730 H 168.829 2.0337 3.63015 0
M  V30 1731 H 167.705 2.28651 4.99009 0
M  V30 1732 H 167.966 0.663555 4.37092 0
M  V30 1733 N 167.025 -1.13721 1.09112 0
M  V30 1734 C 167.973 -2.21103 0.722219 0
M  V30 1735 C 168.967 -1.67147 -0.275374 0
M  V30 1736 O 170.173 -1.79477 -0.137176 0
M  V30 1737 H 166.548 -0.720445 0.215553 0
M  V30 1738 H 168.519 -2.49483 1.63709 0
M  V30 1739 C 167.268 -3.47352 0.15543 0
M  V30 1740 H 166.591 -3.89206 0.914246 0
M  V30 1741 H 168.031 -4.2395 -0.0647967 0
M  V30 1742 C 166.49 -3.1814 -1.10852 0
M  V30 1743 O 167.02 -3.36604 -2.19227 0
M  V30 1744 N 165.226 -2.72045 -1.02176 0
M  V30 1745 H 164.773 -2.57221 -0.139764 0
M  V30 1746 H 164.731 -2.52875 -1.8682 0
M  V30 1747 N 168.503 -0.877838 -1.30888 0
M  V30 1748 C 169.433 -0.35534 -2.3078 0
M  V30 1749 C 170.414 0.557994 -1.60687 0
M  V30 1750 O 171.599 0.473355 -1.88343 0
M  V30 1751 C 168.729 0.437221 -3.44537 0
M  V30 1752 C 167.683 -0.383715 -4.26276 0
M  V30 1753 C 167.009 0.535014 -5.32017 0
M  V30 1754 C 168.309 -1.62201 -4.96476 0
M  V30 1755 H 170.003 -1.19007 -2.74732 0
M  V30 1756 H 167.549 -0.573698 -1.32078 0
M  V30 1757 H 169.502 0.813334 -4.13477 0
M  V30 1758 H 168.226 1.30553 -2.99372 0
M  V30 1759 H 166.885 -0.741874 -3.59015 0
M  V30 1760 H 166.533 1.40083 -4.831 0
M  V30 1761 H 166.233 -0.0104211 -5.87599 0
M  V30 1762 H 167.757 0.907799 -6.03814 0
M  V30 1763 H 169.171 -1.31689 -5.5797 0
M  V30 1764 H 167.568 -2.10711 -5.61891 0
M  V30 1765 H 168.638 -2.37044 -4.23011 0
M  V30 1766 N 169.982 1.44106 -0.638065 0
M  V30 1767 C 171.231 2.01194 -0.142744 0
M  V30 1768 C 171.544 1.50835 1.24532 0
M  V30 1769 O 172.75 2.00096 1.83504 0
M  V30 1770 C 171.206 3.59319 -0.20442 0
M  V30 1771 C 170.814 4.18674 -1.59423 0
M  V30 1772 C 172.558 4.23854 0.234079 0
M  V30 1773 C 170.465 5.69045 -1.61065 0
M  V30 1774 H 169.395 0.752367 -0.0495998 0
M  V30 1775 H 172.046 1.65246 -0.797881 0
M  V30 1776 H 170.428 3.92598 0.517946 0
M  V30 1777 H 171.602 3.96921 -2.34074 0
M  V30 1778 H 169.917 3.66453 -1.97741 0
M  V30 1779 H 172.514 5.34155 0.241443 0
M  V30 1780 H 172.857 3.96688 1.2627 0
M  V30 1781 H 173.39 3.95403 -0.436025 0
M  V30 1782 H 170.129 6.00956 -2.61787 0
M  V30 1783 H 169.649 5.929 -0.90718 0
M  V30 1784 H 171.328 6.32809 -1.34766 0
M  V30 1785 N 171.46 0.379036 1.52974 0
M  V30 1786 C 172.408 -0.476033 2.27677 0
M  V30 1787 C 173.402 -1.0719 1.31174 0
M  V30 1788 O 174.608 -1.01355 1.48752 0
M  V30 1789 H 170.983 -0.172255 0.732006 0
M  V30 1790 H 172.954 0.175615 2.97883 0
M  V30 1791 C 171.703 -1.5967 3.0887 0
M  V30 1792 H 171.026 -1.1475 3.82978 0
M  V30 1793 H 172.466 -2.16943 3.64296 0
M  V30 1794 C 170.925 -2.54682 2.20542 0
M  V30 1795 O 171.455 -3.57836 1.82527 0
M  V30 1796 N 169.661 -2.24183 1.84907 0
M  V30 1797 H 169.208 -1.40333 2.1602 0
M  V30 1798 H 169.166 -2.88006 1.26096 0
M  V30 1799 N 172.938 -1.57226 0.108567 0
M  V30 1800 C 174.354 -1.5766 -0.248058 0
M  V30 1801 C 174.554 -1.12063 -1.67464 0
M  V30 1802 O 173.61 -0.803236 -2.39383 0
M  V30 1803 C 174.923 -3.0069 -0.0242287 0
M  V30 1804 C 176.471 -3.12868 -0.0909372 0
M  V30 1805 C 176.946 -4.57879 0.105067 0
M  V30 1806 N 178.437 -4.63172 0.0506846 0
M  V30 1807 C 179.172 -5.73126 0.177396 0
M  V30 1808 N 178.668 -6.91866 0.359696 0
M  V30 1809 N 180.461 -5.61977 0.117709 0
M  V30 1810 H 172.612 -1.85169 1.04049 0
M  V30 1811 H 174.875 -0.85529 0.40888 0
M  V30 1812 H 174.581 -3.38299 0.961604 0
M  V30 1813 H 174.455 -3.6945 -0.76068 0
M  V30 1814 H 176.842 -2.75124 -1.06729 0
M  V30 1815 H 176.923 -2.46672 0.677225 0
M  V30 1816 H 176.567 -4.96321 1.07834 0
M  V30 1817 H 176.497 -5.22153 -0.682954 0
M  V30 1818 H 178.988 -3.778 -0.0871266 0
M  V30 1819 H 179.301 -7.71503 0.447529 0
M  V30 1820 H 177.646 -6.93874 0.395536 0
M  V30 1821 H 180.837 -4.68094 -0.0236741 0
M  V30 1822 H 181.01 -6.47627 0.219905 0
M  V30 1823 N 174.416 0.165178 -1.56732 0
M  V30 1824 C 175.366 1.20917 -1.93295 0
M  V30 1825 C 176.35 1.39488 -0.801985 0
M  V30 1826 O 177.542 1.41356 -1.06525 0
M  V30 1827 C 174.671 2.54718 -2.3016 0
M  V30 1828 C 173.757 2.39815 -3.49785 0
M  V30 1829 N 174.148 1.94637 -4.66851 0
M  V30 1830 C 172.446 2.70623 -3.54513 0
M  V30 1831 C 173.147 1.92344 -5.4898 0
M  V30 1832 N 172.123 2.34978 -4.9019 0
M  V30 1833 H 175.925 0.851675 -2.81289 0
M  V30 1834 H 173.439 0.373399 -1.58049 0
M  V30 1835 H 175.436 3.30165 -2.54552 0
M  V30 1836 H 174.096 2.91265 -1.43508 0
M  V30 1837 H 175.107 1.6488 -4.90953 0
M  V30 1838 H 171.784 3.11167 -2.78354 0
M  V30 1839 H 173.174 1.5906 -6.52801 0
M  V30 1840 N 175.894 1.51508 0.433938 0
M  V30 1841 C 177.142 1.6402 1.18075 0
M  V30 1842 C 177.463 0.360328 1.91642 0
M  V30 1843 O 176.733 -0.623945 1.85698 0
M  V30 1844 H 175.313 0.6045 0.43885 0
M  V30 1845 H 177.975 1.88452 0.497178 0
M  V30 1846 H 177.071 2.46949 1.90847 0
M  V30 1847 N 177.372 -0.689602 1.41712 0
M  V30 1848 C 178.62 -1.4468 1.4111 0
M  V30 1849 C 178.941 -1.94986 0.0232196 0
M  V30 1850 O 178.211 -1.72097 -0.935913 0
M  V30 1851 H 176.791 -0.536847 0.519427 0
M  V30 1852 H 179.453 -0.815825 1.77004 0
M  V30 1853 H 178.549 -2.30706 2.10193 0
M  V30 1854 N 178.85 -1.27639 -0.924453 0
M  V30 1855 C 180.075 -1.17101 -1.71179 0
M  V30 1856 C 180.5 0.268134 -1.86179 0
M  V30 1857 O 179.858 1.19415 -1.36418 0
M  V30 1858 C 179.906 -1.86313 -3.08739 0
M  V30 1859 O 179.01 -1.16331 -3.95652 0
M  V30 1860 H 178.351 -0.407091 -0.524569 0
M  V30 1861 H 180.881 -1.68767 -1.15666 0
M  V30 1862 H 180.891 -1.938 -3.59034 0
M  V30 1863 H 179.566 -2.91001 -2.97138 0
M  V30 1864 H 178.143 -1.16935 -3.54091 0
M  V30 1865 N 180.328 1.1314 -1.09713 0
M  V30 1866 C 181.291 2.16831 -0.742751 0
M  V30 1867 C 182.291 1.59159 0.229129 0
M  V30 1868 O 183.481 1.74199 0.00693237 0
M  V30 1869 C 180.613 3.40756 -0.0989168 0
M  V30 1870 H 181.806 2.49695 -1.66109 0
M  V30 1871 H 179.359 1.2802 -0.896699 0
M  V30 1872 H 180.094 3.13485 0.830514 0
M  V30 1873 H 179.879 3.83888 -0.798265 0
M  V30 1874 H 181.369 4.17386 0.133524 0
M  V30 1875 N 181.806 0.884767 1.30421 0
M  V30 1876 C 183.055 0.499164 1.95426 0
M  V30 1877 C 183.368 -0.95645 1.70621 0
M  V30 1878 O 184.574 -1.44889 2.29607 0
M  V30 1879 C 183.03 0.84177 3.49917 0
M  V30 1880 C 182.638 2.31514 3.83543 0
M  V30 1881 C 184.382 0.525355 4.21237 0
M  V30 1882 C 182.289 2.59939 5.31212 0
M  V30 1883 H 181.219 0.182944 0.73147 0
M  V30 1884 H 183.87 1.07971 1.48373 0
M  V30 1885 H 182.252 0.190311 3.95542 0
M  V30 1886 H 183.426 3.0109 3.48829 0
M  V30 1887 H 181.741 2.59907 3.25326 0
M  V30 1888 H 184.338 0.714762 5.29901 0
M  V30 1889 H 184.681 -0.535222 4.12845 0
M  V30 1890 H 185.214 1.134 3.81294 0
M  V30 1891 H 181.953 3.64736 5.44654 0
M  V30 1892 H 181.473 1.94972 5.67227 0
M  V30 1893 H 183.152 2.45429 5.98643 0
M  V30 1894 N 183.284 -1.43765 0.645699 0
M  V30 1895 C 184.532 -2.01499 0.155731 0
M  V30 1896 C 184.853 -1.51151 -1.232 0
M  V30 1897 O 184.123 -0.721044 -1.82148 0
M  V30 1898 H 182.703 -0.745003 0.0545817 0
M  V30 1899 H 185.365 -1.76075 0.835677 0
M  V30 1900 H 184.461 -3.1181 0.134577 0
M  V30 1901 N 184.763 -0.387143 -1.52771 0
M  V30 1902 C 185.693 0.440551 -2.29306 0
M  V30 1903 C 186.674 1.06535 -1.32606 0
M  V30 1904 O 187.859 1.07853 -1.61497 0
M  V30 1905 C 184.989 1.56919 -3.09829 0
M  V30 1906 C 183.943 1.07054 -4.14395 0
M  V30 1907 C 183.269 2.29109 -4.83129 0
M  V30 1908 C 184.569 0.140015 -5.22112 0
M  V30 1909 H 186.263 -0.198026 -2.98744 0
M  V30 1910 H 183.809 -0.09668 -1.43675 0
M  V30 1911 H 185.762 2.15503 -3.62128 0
M  V30 1912 H 184.486 2.23532 -2.3812 0
M  V30 1913 H 183.145 0.507247 -3.63074 0
M  V30 1914 H 182.793 2.94227 -4.0797 0
M  V30 1915 H 182.493 1.96406 -5.53804 0
M  V30 1916 H 184.017 2.88339 -5.38231 0
M  V30 1917 H 185.431 0.633978 -5.69784 0
M  V30 1918 H 183.828 -0.0971485 -6.00021 0
M  V30 1919 H 184.898 -0.811711 -4.78058 0
M  V30 1920 N 186.241 1.57166 -0.116904 0
M  V30 1921 C 187.469 1.99473 0.549383 0
M  V30 1922 C 187.884 0.996541 1.60357 0
M  V30 1923 O 187.241 -0.0108731 1.82497 0
M  V30 1924 C 187.292 3.41788 1.17741 0
M  V30 1925 O 187.013 4.37788 0.165362 0
M  V30 1926 C 188.514 3.99216 1.92722 0
M  V30 1927 H 185.734 0.655009 0.145616 0
M  V30 1928 H 188.278 2.03494 -0.202625 0
M  V30 1929 H 186.433 3.38713 1.88021 0
M  V30 1930 H 186.847 5.20806 0.621403 0
M  V30 1931 H 188.321 5.00882 2.31995 0
M  V30 1932 H 188.798 3.3824 2.80161 0
M  V30 1933 H 189.404 4.0583 1.27209 0
M  V30 1934 N 187.719 -0.156864 1.56817 0
M  V30 1935 C 188.967 -0.869404 1.82444 0
M  V30 1936 C 189.288 -1.82147 0.69623 0
M  V30 1937 O 188.558 -1.93847 -0.28287 0
M  V30 1938 H 187.138 -0.324043 0.673056 0
M  V30 1939 H 189.8 -0.153224 1.94297 0
M  V30 1940 H 188.896 -1.43761 2.77019 0
M  V30 1941 N 189.197 -1.51736 -0.425897 0
M  V30 1942 C 190.144 -1.73875 -1.51776 0
M  V30 1943 C 191.114 -0.580702 -1.55618 0
M  V30 1944 O 192.299 -0.81641 -1.72451 0
M  V30 1945 C 189.439 -1.88012 -2.89388 0
M  V30 1946 C 188.552 -3.15606 -2.94986 0
M  V30 1947 C 187.687 -3.20271 -4.23793 0
M  V30 1948 C 186.726 -4.42134 -4.23302 0
M  V30 1949 N 185.863 -4.44284 -5.43651 0
M  V30 1950 H 190.703 -2.67071 -1.32201 0
M  V30 1951 H 188.24 -1.32351 -0.642008 0
M  V30 1952 H 190.198 -1.9419 -3.69251 0
M  V30 1953 H 188.828 -0.98213 -3.07496 0
M  V30 1954 H 187.88 -3.18681 -2.07717 0
M  V30 1955 H 189.192 -4.05486 -2.90486 0
M  V30 1956 H 188.346 -3.25428 -5.12036 0
M  V30 1957 H 187.085 -2.28299 -4.30965 0
M  V30 1958 H 186.09 -4.3714 -3.3345 0
M  V30 1959 H 187.315 -5.35382 -4.17783 0
M  V30 1960 H 185.261 -3.55188 -5.51523 0
M  V30 1961 H 185.178 -5.27988 -5.41078 0
M  V30 1962 H 186.446 -4.53649 -6.33895 0
M  V30 1963 N 190.675 0.682077 -1.42076 0
M  V30 1964 C 191.952 1.43755 -1.32642 0
M  V30 1965 C 192.332 2.11063 0.0396611 0
M  V30 1966 O 191.68 2.02701 1.05474 0
M  V30 1967 C 191.89 2.44596 -2.48946 0
M  V30 1968 C 193.238 3.09454 -2.9073 0
M  V30 1969 O 194.262 2.54922 -2.48783 0
M  V30 1970 O 193.121 4.08253 -3.63307 0
M  V30 1971 H 190.215 0.640857 -0.522715 0
M  V30 1972 H 192.761 0.711415 -1.54068 0
M  V30 1973 H 191.533 1.93609 -3.40046 0
M  V30 1974 H 191.156 3.24701 -2.29467 0
M  V30 1975 N 192.153 1.28127 0.917671 0
M  V30 1976 C 193.116 1.11744 2.00115 0
M  V30 1977 C 194.116 0.0583052 1.60694 0
M  V30 1978 O 195.306 0.303755 1.71531 0
M  V30 1979 C 192.438 0.704862 3.33533 0
M  V30 1980 H 193.631 2.07966 2.16079 0
M  V30 1981 H 191.184 1.11058 1.09981 0
M  V30 1982 H 191.919 -0.258299 3.2327 0
M  V30 1983 H 191.704 1.4699 3.63505 0
M  V30 1984 H 193.194 0.612768 4.1308 0
M  V30 1985 N 193.631 -1.12557 1.10312 0
M  V30 1986 C 194.541 -2.21841 0.763142 0
M  V30 1987 C 195.557 -1.72354 -0.238801 0
M  V30 1988 O 196.733 -2.01249 -0.0778746 0
M  V30 1989 C 193.798 -3.46131 0.198632 0
M  V30 1990 C 192.859 -4.10464 1.25769 0
M  V30 1991 C 192.092 -5.28821 0.72002 0
M  V30 1992 O 192.315 -5.6859 -0.453993 0
M  V30 1993 O 191.249 -5.83437 1.47935 0
M  V30 1994 H 195.075 -2.53312 1.67532 0
M  V30 1995 H 192.66 -1.20867 0.878157 0
M  V30 1996 H 194.542 -4.2125 -0.112401 0
M  V30 1997 H 193.217 -3.16338 -0.686419 0
M  V30 1998 H 192.124 -3.3713 1.62156 0
M  V30 1999 H 193.457 -4.44408 2.11571 0
M  V30 2000 N 195.109 -0.891671 -1.2995 0
M  V30 2001 C 196.039 -0.379797 -2.30391 0
M  V30 2002 C 197.02 0.540919 -1.6127 0
M  V30 2003 O 198.205 0.453352 -1.88834 0
M  V30 2004 C 195.335 0.400654 -3.44981 0
M  V30 2005 C 194.289 -0.428905 -4.25846 0
M  V30 2006 C 193.615 0.478557 -5.32554 0
M  V30 2007 C 194.915 -1.67458 -4.94727 0
M  V30 2008 H 196.609 -1.21914 -2.73454 0
M  V30 2009 H 194.155 -0.587675 -1.31462 0
M  V30 2010 H 196.108 0.769434 -4.14316 0
M  V30 2011 H 194.832 1.27371 -3.0074 0
M  V30 2012 H 193.491 -0.779911 -3.58208 0
M  V30 2013 H 193.139 1.34951 -4.84559 0
M  V30 2014 H 192.839 -0.0727433 -5.87555 0
M  V30 2015 H 194.363 0.843705 -6.04743 0
M  V30 2016 H 195.777 -1.376 -5.56542 0
M  V30 2017 H 194.174 -2.16659 -5.59624 0
M  V30 2018 H 195.244 -2.41518 -4.20473 0
M  V30 2019 N 196.587 1.43421 -0.653314 0
M  V30 2020 C 197.836 2.01032 -0.164076 0
M  V30 2021 C 198.149 1.52147 1.22926 0
M  V30 2022 O 199.355 2.02031 1.81371 0
M  V30 2023 C 197.811 3.59082 -0.24252 0
M  V30 2024 C 197.419 4.1696 -1.63855 0
M  V30 2025 C 199.163 4.24079 0.18911 0
M  V30 2026 C 197.07 5.67304 -1.67092 0
M  V30 2027 H 196 0.751798 -0.0575769 0
M  V30 2028 H 198.651 1.6439 -0.815362 0
M  V30 2029 H 197.033 3.93125 0.476276 0
M  V30 2030 H 198.207 3.94416 -2.38271 0
M  V30 2031 H 196.522 3.64335 -2.01616 0
M  V30 2032 H 199.119 5.34381 0.184775 0
M  V30 2033 H 199.462 3.98005 1.22056 0
M  V30 2034 H 199.995 3.94918 -0.477938 0
M  V30 2035 H 196.734 5.98145 -2.68146 0
M  V30 2036 H 196.254 5.91904 -0.970014 0
M  V30 2037 H 197.933 6.31344 -1.4147 0
M  V30 2038 N 198.065 0.39524 1.52563 0
M  V30 2039 C 199.481 0.0454682 1.59535 0
M  V30 2040 C 199.681 -1.44056 1.4089 0
M  V30 2041 O 198.737 -2.20579 1.22888 0
M  V30 2042 C 200.05 0.527963 2.96029 0
M  V30 2043 C 201.598 0.484733 3.09224 0
M  V30 2044 C 202.073 0.943512 4.48176 0
M  V30 2045 N 203.564 0.899765 4.54377 0
M  V30 2046 C 204.299 1.22609 5.60138 0
M  V30 2047 N 203.795 1.62319 6.73516 0
M  V30 2048 N 205.588 1.14696 5.50274 0
M  V30 2049 H 197.739 1.36261 1.62931 0
M  V30 2050 H 200.002 0.558887 0.765735 0
M  V30 2051 H 199.708 1.56607 3.14908 0
M  V30 2052 H 199.582 -0.0698056 3.77135 0
M  V30 2053 H 201.969 -0.544298 2.90037 0
M  V30 2054 H 202.05 1.11838 2.30056 0
M  V30 2055 H 201.694 1.9708 4.68104 0
M  V30 2056 H 201.624 0.286817 5.25818 0
M  V30 2057 H 204.115 0.607632 3.72983 0
M  V30 2058 H 204.428 1.85567 7.5019 0
M  V30 2059 H 202.773 1.66211 6.74833 0
M  V30 2060 H 205.964 0.835701 4.6058 0
M  V30 2061 H 206.137 1.40459 6.32594 0
M  V30 2062 N 199.544 -1.57102 0.125237 0
M  V30 2063 C 200.507 -2.14471 -0.80838 0
M  V30 2064 C 201.507 -1.0811 -1.19033 0
M  V30 2065 O 202.697 -1.33856 -1.11482 0
M  V30 2066 C 199.829 -2.69005 -2.09402 0
M  V30 2067 H 201.022 -2.98297 -0.309696 0
M  V30 2068 H 198.575 -1.55807 -0.124051 0
M  V30 2069 H 199.31 -1.88785 -2.63687 0
M  V30 2070 H 199.095 -3.46799 -1.82957 0
M  V30 2071 H 200.585 -3.13278 -2.76128 0
M  V30 2072 N 201.022 0.148545 -1.56898 0
M  V30 2073 C 201.969 1.18345 -1.98149 0
M  V30 2074 C 202.939 1.42772 -0.848848 0
M  V30 2075 O 204.124 1.55132 -1.11079 0
M  V30 2076 C 201.264 2.51231 -2.36594 0
M  V30 2077 C 200.377 2.33991 -3.63142 0
M  V30 2078 C 199.512 3.59902 -3.90697 0
M  V30 2079 C 198.551 3.37692 -5.1052 0
M  V30 2080 N 197.688 4.5573 -5.34092 0
M  V30 2081 H 202.528 0.82467 -2.86362 0
M  V30 2082 H 200.065 0.395756 -1.41676 0
M  V30 2083 H 202.023 3.28713 -2.56912 0
M  V30 2084 H 200.653 2.85059 -1.51463 0
M  V30 2085 H 199.705 1.47572 -3.50609 0
M  V30 2086 H 201.017 2.13539 -4.5078 0
M  V30 2087 H 200.171 4.45813 -4.11505 0
M  V30 2088 H 198.91 3.83357 -3.01477 0
M  V30 2089 H 197.915 2.5017 -4.89587 0
M  V30 2090 H 199.14 3.15637 -6.0129 0
M  V30 2091 H 197.086 4.79361 -4.47827 0
M  V30 2092 H 197.003 4.38274 -6.15996 0
M  V30 2093 H 198.271 5.42858 -5.59397 0
M  V30 2094 N 202.5 1.5196 0.417844 0
M  V30 2095 C 203.447 1.74678 1.50852 0
M  V30 2096 C 204.417 0.588947 1.55308 0
M  V30 2097 O 205.602 0.825544 1.72016 0
M  V30 2098 C 202.742 1.89544 2.88387 0
M  V30 2099 C 201.855 3.17166 2.93309 0
M  V30 2100 C 200.99 3.22513 4.22088 0
M  V30 2101 C 200.029 4.44372 4.20951 0
M  V30 2102 N 199.166 4.47161 5.41287 0
M  V30 2103 H 204.006 2.67768 1.30783 0
M  V30 2104 H 201.543 1.32689 0.63498 0
M  V30 2105 H 203.501 1.96146 3.68216 0
M  V30 2106 H 202.131 0.998424 3.06971 0
M  V30 2107 H 201.183 3.19778 2.06024 0
M  V30 2108 H 202.495 4.07021 2.88332 0
M  V30 2109 H 201.649 3.28139 5.10303 0
M  V30 2110 H 200.388 2.30581 4.29748 0
M  V30 2111 H 199.393 4.38902 3.31127 0
M  V30 2112 H 200.618 5.3759 4.14938 0
M  V30 2113 H 198.564 3.58108 5.49632 0
M  V30 2114 H 198.481 5.3085 5.3827 0
M  V30 2115 H 199.749 4.57005 6.3148 0
M  V30 2116 N 203.978 -0.674533 1.42435 0
M  V30 2117 C 204.908 -1.80009 1.48724 0
M  V30 2118 C 205.889 -1.6659 0.343793 0
M  V30 2119 O 207.074 -1.86007 0.558137 0
M  V30 2120 C 204.204 -3.18306 1.38919 0
M  V30 2121 C 203.158 -3.46461 2.51294 0
M  V30 2122 C 202.484 -4.84335 2.26547 0
M  V30 2123 C 203.784 -3.43328 3.93603 0
M  V30 2124 H 205.478 -1.75004 2.42928 0
M  V30 2125 H 203.024 -0.840533 1.16923 0
M  V30 2126 H 204.977 -3.9678 1.41927 0
M  V30 2127 H 203.701 -3.2399 0.412094 0
M  V30 2128 H 202.36 -2.70348 2.47604 0
M  V30 2129 H 202.008 -4.86669 1.2713 0
M  V30 2130 H 201.708 -5.04136 3.01861 0
M  V30 2131 H 203.232 -5.65094 2.31304 0
M  V30 2132 H 204.646 -4.11772 3.98894 0
M  V30 2133 H 203.043 -3.74664 4.68771 0
M  V30 2134 H 204.113 -2.41897 4.20255 0
M  V30 2135 N 205.456 -1.28612 -0.910864 0
M  V30 2136 C 206.684 -1.18792 -1.69399 0
M  V30 2137 C 207.099 0.253039 -1.87097 0
M  V30 2138 O 206.456 1.17071 -1.40003 0
M  V30 2139 C 206.507 -1.88511 -3.08457 0
M  V30 2140 O 206.228 -3.26979 -2.91576 0
M  V30 2141 C 207.729 -1.85029 -4.02839 0
M  V30 2142 H 204.949 -0.412233 -0.529438 0
M  V30 2143 H 207.493 -1.69788 -1.13984 0
M  V30 2144 H 205.648 -1.41379 -3.60681 0
M  V30 2145 H 206.062 -3.61936 -3.79608 0
M  V30 2146 H 207.536 -2.38395 -4.97867 0
M  V30 2147 H 208.013 -0.823303 -4.31414 0
M  V30 2148 H 208.619 -2.31853 -3.56545 0
M  V30 2149 N 206.934 1.1197 -1.10907 0
M  V30 2150 C 208.18 1.8386 -0.855773 0
M  V30 2151 C 208.513 1.84134 0.617103 0
M  V30 2152 O 207.788 1.29041 1.45529 0
M  V30 2153 C 208.071 3.31305 -1.411 0
M  V30 2154 C 207.924 3.39456 -2.9511 0
M  V30 2155 C 209.243 4.2721 -1.05736 0
M  V30 2156 H 206.362 0.667545 -0.312334 0
M  V30 2157 H 209.004 1.31331 -1.37303 0
M  V30 2158 H 207.154 3.76169 -0.97105 0
M  V30 2159 H 208.826 3.03191 -3.47668 0
M  V30 2160 H 207.069 2.79849 -3.31462 0
M  V30 2161 H 207.74 4.43209 -3.29044 0
M  V30 2162 H 210.216 3.90497 -1.43706 0
M  V30 2163 H 209.092 5.28775 -1.47269 0
M  V30 2164 H 209.353 4.42088 0.0325958 0
M  V30 2165 N 208.412 0.89855 1.29475 0
M  V30 2166 C 209.64 0.539261 1.99749 0
M  V30 2167 C 210.055 -0.875716 1.67262 0
M  V30 2168 O 209.412 -1.57786 0.917049 0
M  V30 2169 C 209.463 0.72061 3.54245 0
M  V30 2170 O 209.184 2.07989 3.8558 0
M  V30 2171 C 210.685 0.366118 4.41786 0
M  V30 2172 H 207.905 0.207047 0.638258 0
M  V30 2173 H 210.449 1.20758 1.65039 0
M  V30 2174 H 208.604 0.0994862 3.87272 0
M  V30 2175 H 209.018 2.10841 4.80257 0
M  V30 2176 H 210.492 0.543848 5.49314 0
M  V30 2177 H 210.969 -0.696763 4.33638 0
M  V30 2178 H 211.575 0.964135 4.14228 0
M  V30 2179 N 209.89 -1.43072 0.660911 0
M  V30 2180 C 211.306 -1.56169 0.329173 0
M  V30 2181 C 211.506 -1.64317 -1.16629 0
M  V30 2182 O 210.562 -1.60245 -1.95135 0
M  V30 2183 C 211.875 -2.81873 1.04729 0
M  V30 2184 C 213.423 -2.95627 1.02828 0
M  V30 2185 C 213.898 -4.24174 1.72744 0
M  V30 2186 N 215.389 -4.31055 1.69545 0
M  V30 2187 C 216.124 -5.29304 2.20511 0
M  V30 2188 N 215.62 -6.33786 2.79799 0
M  V30 2189 N 217.413 -5.21008 2.10966 0
M  V30 2190 H 209.564 -1.36027 1.63127 0
M  V30 2191 H 211.827 -0.653823 0.686454 0
M  V30 2192 H 211.533 -2.81942 2.10242 0
M  V30 2193 H 211.407 -3.72338 0.603702 0
M  V30 2194 H 213.794 -2.95094 -0.0184742 0
M  V30 2195 H 213.875 -2.06431 1.51063 0
M  V30 2196 H 213.519 -4.25467 2.7738 0
M  V30 2197 H 213.449 -5.1228 1.2197 0
M  V30 2198 H 215.94 -3.56174 1.26288 0
M  V30 2199 H 216.253 -7.05086 3.16344 0
M  V30 2200 H 214.598 -6.34387 2.83863 0
M  V30 2201 H 217.789 -4.38301 1.64347 0
M  V30 2202 H 217.962 -5.97416 2.50993 0
M  V30 2203 N 211.368 -0.403325 -1.52352 0
M  V30 2204 C 212.3 0.4603 -2.2453 0
M  V30 2205 C 213.313 1.01505 -1.27282 0
M  V30 2206 O 214.502 0.914982 -1.53266 0
M  V30 2207 C 211.602 1.65208 -2.95905 0
M  V30 2208 C 210.775 1.22224 -4.19976 0
M  V30 2209 C 209.834 2.28028 -4.74226 0
M  V30 2210 O 208.86 1.88857 -5.36956 0
M  V30 2211 N 210.062 3.6012 -4.55295 0
M  V30 2212 H 212.827 -0.158156 -2.99282 0
M  V30 2213 H 210.388 -0.230402 -1.60252 0
M  V30 2214 H 212.38 2.35541 -3.29093 0
M  V30 2215 H 210.95 2.17658 -2.24374 0
M  V30 2216 H 210.17 0.34725 -3.92668 0
M  V30 2217 H 211.458 0.911924 -5.00561 0
M  V30 2218 H 210.856 3.94698 -4.05253 0
M  V30 2219 H 209.413 4.26447 -4.92936 0
M  V30 2220 N 212.846 1.57033 -0.133567 0
M  V30 2221 C 214.074 2.00044 0.528195 0
M  V30 2222 C 214.489 1.01349 1.59291 0
M  V30 2223 O 213.846 0.00848369 1.82498 0
M  V30 2224 C 213.897 3.43018 1.1411 0
M  V30 2225 O 213.618 4.37939 0.11892 0
M  V30 2226 C 215.119 4.01237 1.88477 0
M  V30 2227 H 212.339 0.656517 0.138661 0
M  V30 2228 H 214.883 2.03267 -0.224196 0
M  V30 2229 H 213.038 3.40688 1.84418 0
M  V30 2230 H 213.452 5.21436 0.56613 0
M  V30 2231 H 214.926 5.03314 2.26669 0
M  V30 2232 H 215.403 3.41193 2.76558 0
M  V30 2233 H 216.009 4.07156 1.22898 0
M  V30 2234 N 214.325 -0.140222 1.56975 0
M  V30 2235 C 215.736 -0.699596 1.73097 0
M  V30 2236 C 216.087 -1.8134 0.749022 0
M  V30 2237 O 215.212 -2.16241 -0.0828503 0
M  V30 2238 C 215.807 -1.27582 3.1386 0
M  V30 2239 C 214.366 -1.78169 3.31561 0
M  V30 2240 C 213.513 -0.672855 2.69013 0
M  V30 2241 H 216.464 0.0855115 1.58469 0
M  V30 2242 H 216.485 -2.14561 3.14235 0
M  V30 2243 H 215.997 -0.464955 3.85305 0
M  V30 2244 H 214.098 -2.61801 2.65124 0
M  V30 2245 H 214.211 -1.90574 4.39566 0
M  V30 2246 H 212.575 -1.10118 2.29665 0
M  V30 2247 H 213.358 0.126679 3.43066 0
M  V30 2248 N 215.803 -1.52179 -0.40978 0
M  V30 2249 C 216.713 -1.78364 -1.52392 0
M  V30 2250 C 217.729 -0.669183 -1.60617 0
M  V30 2251 O 218.905 -0.954518 -1.77344 0
M  V30 2252 C 215.97 -1.92822 -2.88133 0
M  V30 2253 C 215.031 -3.16725 -2.898 0
M  V30 2254 C 214.264 -3.30483 -4.19067 0
M  V30 2255 O 214.487 -2.49522 -5.12928 0
M  V30 2256 O 213.421 -4.2363 -4.27576 0
M  V30 2257 H 217.247 -2.72931 -1.33201 0
M  V30 2258 H 214.832 -1.37016 -0.59557 0
M  V30 2259 H 216.714 -2.04157 -3.68643 0
M  V30 2260 H 215.389 -1.01444 -3.07393 0
M  V30 2261 H 214.296 -3.10848 -2.08146 0
M  V30 2262 H 215.629 -4.07881 -2.75489 0
M  V30 2263 N 217.281 0.66697 -1.42791 0
M  V30 2264 C 218.214 1.79177 -1.41318 0
M  V30 2265 C 219.192 1.60234 -0.276401 0
M  V30 2266 O 220.376 1.82602 -0.46785 0
M  V30 2267 C 217.503 3.16289 -1.21157 0
M  V30 2268 C 216.549 3.53964 -2.37932 0
M  V30 2269 S 217.382 3.55501 -4.00474 0
M  V30 2270 C 218.538 4.95292 -3.8267 0
M  V30 2271 H 218.771 1.80153 -2.365 0
M  V30 2272 H 216.304 0.838357 -1.29657 0
M  V30 2273 H 218.262 3.95428 -1.10212 0
M  V30 2274 H 216.923 3.1289 -0.275481 0
M  V30 2275 H 216.116 4.53646 -2.19594 0
M  V30 2276 H 215.718 2.82204 -2.45432 0
M  V30 2277 H 218.01 5.83584 -3.44145 0
M  V30 2278 H 218.953 5.18679 -4.82055 0
M  V30 2279 H 219.361 4.68179 -3.15386 0
M  V30 2280 N 218.759 1.29093 0.90403 0
M  V30 2281 C 219.987 1.19689 1.68766 0
M  V30 2282 C 220.402 -0.243113 1.87228 0
M  V30 2283 O 219.759 -1.16326 1.40621 0
M  V30 2284 C 219.81 1.90144 3.07453 0
M  V30 2285 O 219.531 3.2852 2.89838 0
M  V30 2286 C 221.032 1.87162 4.01852 0
M  V30 2287 H 218.252 0.415035 0.527244 0
M  V30 2288 H 220.796 1.7039 1.13082 0
M  V30 2289 H 218.951 1.43289 3.59926 0
M  V30 2290 H 219.365 3.63944 3.77684 0
M  V30 2291 H 220.839 2.41032 4.96596 0
M  V30 2292 H 221.316 0.84617 4.30972 0
M  V30 2293 H 221.922 2.33741 3.5531 0
M  V30 2294 N 220.237 -1.11381 1.11499 0
M  V30 2295 C 221.184 -2.17439 0.773887 0
M  V30 2296 C 222.154 -1.64132 -0.254899 0
M  V30 2297 O 223.339 -1.90345 -0.13168 0
M  V30 2298 C 220.479 -3.44373 0.223917 0
M  V30 2299 C 219.592 -4.1168 1.30934 0
M  V30 2300 C 218.727 -5.263 0.71984 0
M  V30 2301 C 217.766 -5.85493 1.78507 0
M  V30 2302 N 216.903 -6.91507 1.21502 0
M  V30 2303 H 221.743 -2.45962 1.68246 0
M  V30 2304 H 219.28 -1.20744 0.840191 0
M  V30 2305 H 221.238 -4.17047 -0.112921 0
M  V30 2306 H 219.868 -3.16232 -0.647851 0
M  V30 2307 H 218.92 -3.37073 1.76312 0
M  V30 2308 H 220.232 -4.51729 2.11524 0
M  V30 2309 H 219.386 -6.05785 0.333094 0
M  V30 2310 H 218.125 -4.87559 -0.117377 0
M  V30 2311 H 217.13 -5.04686 2.18111 0
M  V30 2312 H 218.355 -6.26301 2.62533 0
M  V30 2313 H 216.301 -6.54783 0.399455 0
M  V30 2314 H 216.218 -7.30214 1.95763 0
M  V30 2315 H 217.486 -7.74795 0.855181 0
M  V30 2316 N 221.715 -0.905404 -1.28997 0
M  V30 2317 C 223.126 -0.581953 -1.77398 0
M  V30 2318 C 223.477 0.902552 -1.74208 0
M  V30 2319 O 222.602 1.70584 -1.33154 0
M  V30 2320 C 223.197 -1.04961 -3.22131 0
M  V30 2321 C 221.756 -0.777229 -3.68288 0
M  V30 2322 C 220.903 -1.22109 -2.48967 0
M  V30 2323 H 223.854 -1.08754 -1.15578 0
M  V30 2324 H 223.875 -0.387387 -3.78523 0
M  V30 2325 H 223.387 -2.13008 -3.24421 0
M  V30 2326 H 221.488 0.290383 -3.71467 0
M  V30 2327 H 221.601 -1.37911 -4.58822 0
M  V30 2328 H 219.965 -0.639971 -2.46529 0
M  V30 2329 H 220.748 -2.30972 -2.53982 0
M  V30 2330 N 223.193 1.4272 -0.668489 0
M  V30 2331 C 224.103 2.34596 0.0139753 0
M  V30 2332 C 225.119 1.5474 0.795703 0
M  V30 2333 O 226.295 1.87334 0.739466 0
M  V30 2334 C 223.36 3.33202 0.957982 0
M  V30 2335 C 222.421 4.28957 0.17149 0
M  V30 2336 C 221.654 5.22853 1.07053 0
M  V30 2337 O 221.877 5.21531 2.31001 0
M  V30 2338 O 220.811 5.9952 0.534727 0
M  V30 2339 H 224.637 2.9448 -0.742661 0
M  V30 2340 H 222.222 1.43117 -0.428705 0
M  V30 2341 H 224.104 3.93796 1.50008 0
M  V30 2342 H 222.779 2.758 1.69458 0
M  V30 2343 H 221.686 3.71796 -0.414558 0
M  V30 2344 H 223.019 4.89383 -0.52586 0
M  V30 2345 N 224.671 0.411399 1.52136 0
M  V30 2346 C 225.92 -0.165009 2.01024 0
M  V30 2347 C 226.233 -1.4603 1.30133 0
M  V30 2348 O 227.439 -2.1181 1.69849 0
M  V30 2349 C 225.895 -0.344618 3.58246 0
M  V30 2350 C 225.503 0.938716 4.38055 0
M  V30 2351 C 227.247 -0.876195 4.15359 0
M  V30 2352 C 225.154 0.726172 5.86925 0
M  V30 2353 H 224.084 -0.0654407 0.751155 0
M  V30 2354 H 226.735 0.537192 1.75461 0
M  V30 2355 H 225.117 -1.10921 3.80148 0
M  V30 2356 H 226.291 1.70963 4.27912 0
M  V30 2357 H 224.606 1.39688 3.92271 0
M  V30 2358 H 227.203 -1.05128 5.24263 0
M  V30 2359 H 227.546 -1.85152 3.7286 0
M  V30 2360 H 228.079 -0.170607 3.97434 0
M  V30 2361 H 224.818 1.67312 6.33788 0
M  V30 2362 H 224.338 -0.00540283 5.998 0
M  V30 2363 H 226.017 0.369231 6.45946 0
M  V30 2364 N 226.149 -1.5696 0.141893 0
M  V30 2365 C 227.398 -1.95135 -0.510427 0
M  V30 2366 C 227.711 -1.02896 -1.66348 0
M  V30 2367 O 228.917 -1.30629 -2.38009 0
M  V30 2368 C 227.373 -3.46876 -0.959427 0
M  V30 2369 C 226.981 -4.47691 0.166419 0
M  V30 2370 C 228.725 -3.93927 -1.58183 0
M  V30 2371 C 226.632 -5.90636 -0.300565 0
M  V30 2372 H 225.562 -0.728494 -0.194454 0
M  V30 2373 H 228.213 -1.8211 0.22542 0
M  V30 2374 H 226.595 -3.55215 -1.75038 0
M  V30 2375 H 227.769 -4.51043 0.94325 0
M  V30 2376 H 226.084 -4.10527 0.696905 0
M  V30 2377 H 228.681 -4.98158 -1.94275 0
M  V30 2378 H 229.024 -3.3519 -2.46888 0
M  V30 2379 H 229.557 -3.88484 -0.855863 0
M  V30 2380 H 226.296 -6.5318 0.550989 0
M  V30 2381 H 225.816 -5.90655 -1.04338 0
M  V30 2382 H 227.495 -6.42588 -0.754265 0
M  V30 2383 N 227.627 0.131896 -1.57047 0
M  V30 2384 C 228.904 0.871495 -1.75112 0
M  V30 2385 C 229.284 1.9866 -0.713949 0
M  V30 2386 O 228.632 2.26965 0.264447 0
M  V30 2387 C 228.842 1.40007 -3.19686 0
M  V30 2388 C 230.19 1.85752 -3.81813 0
M  V30 2389 O 231.214 1.49715 -3.23209 0
M  V30 2390 O 230.073 2.5226 -4.84796 0
M  V30 2391 H 227.167 0.412919 -0.716538 0
M  V30 2392 H 229.713 0.116641 -1.69299 0
M  V30 2393 H 228.485 0.599404 -3.86682 0
M  V30 2394 H 228.108 2.218 -3.29986 0
M  V30 2395 N 229.106 1.52395 0.401703 0
M  V30 2396 C 230.355 1.66044 1.14509 0
M  V30 2397 C 230.668 0.400216 1.91462 0
M  V30 2398 O 231.874 0.416632 2.68284 0
M  V30 2399 C 230.33 2.93388 2.0845 0
M  V30 2400 C 229.938 4.26545 1.36978 0
M  V30 2401 C 231.682 3.16402 2.83001 0
M  V30 2402 C 229.589 5.45007 2.29611 0
M  V30 2403 H 228.519 0.618562 0.431158 0
M  V30 2404 H 231.17 1.78886 0.40892 0
M  V30 2405 H 229.552 2.74263 2.8565 0
M  V30 2406 H 230.726 4.56179 0.650916 0
M  V30 2407 H 229.041 4.09692 0.74438 0
M  V30 2408 H 231.638 4.02085 3.52465 0
M  V30 2409 H 231.981 2.30943 3.46368 0
M  V30 2410 H 232.514 3.36034 2.12898 0
M  V30 2411 H 229.253 6.32835 1.70879 0
M  V30 2412 H 228.773 5.19702 2.9945 0
M  V30 2413 H 230.452 5.7838 2.89974 0
M  V30 2414 N 230.584 -0.659388 1.43143 0
M  V30 2415 C 231.832 -1.41654 1.44147 0
M  V30 2416 C 232.153 -1.94893 0.0645739 0
M  V30 2417 O 231.423 -1.74044 -0.899198 0
M  V30 2418 H 230.003 -0.525708 0.530697 0
M  V30 2419 H 232.665 -0.778097 1.78694 0
M  V30 2420 H 231.761 -2.26195 2.1504 0
M  V30 2421 N 232.062 -1.29571 -0.897171 0
M  V30 2422 C 233.012 -1.11539 -1.98855 0
M  V30 2423 C 233.996 -0.0340716 -1.60864 0
M  V30 2424 O 235.188 -0.256062 -1.75138 0
M  V30 2425 C 232.317 -0.796603 -3.3393 0
M  V30 2426 C 231.403 -1.91758 -3.78272 0
M  V30 2427 N 231.794 -3.16143 -3.94826 0
M  V30 2428 C 230.092 -1.81119 -4.07568 0
M  V30 2429 C 230.793 -3.89293 -4.32233 0
M  V30 2430 N 229.769 -3.17255 -4.41419 0
M  V30 2431 H 233.571 -2.05894 -2.09726 0
M  V30 2432 H 231.085 -1.20732 -1.08616 0
M  V30 2433 H 233.082 -0.648459 -4.11826 0
M  V30 2434 H 231.742 0.139003 -3.24402 0
M  V30 2435 H 232.753 -3.5157 -3.80288 0
M  V30 2436 H 229.43 -0.948461 -4.06584 0
M  V30 2437 H 230.82 -4.9635 -4.52865 0
M  V30 2438 N 233.54 1.10788 -1.12088 0
M  V30 2439 C 234.786 1.82942 -0.875226 0
M  V30 2440 C 235.119 1.84779 0.597538 0
M  V30 2441 O 234.394 1.30578 1.44152 0
M  V30 2442 C 234.677 3.29789 -1.44606 0
M  V30 2443 C 234.53 3.36307 -2.98693 0
M  V30 2444 C 235.849 4.26064 -1.10261 0
M  V30 2445 H 232.968 0.664195 -0.319397 0
M  V30 2446 H 235.61 1.29867 -1.38689 0
M  V30 2447 H 233.76 3.75118 -1.01089 0
M  V30 2448 H 235.432 2.99487 -3.50864 0
M  V30 2449 H 233.675 2.76318 -3.34411 0
M  V30 2450 H 234.346 4.39694 -3.33726 0
M  V30 2451 H 236.822 3.88951 -1.4784 0
M  V30 2452 H 235.698 5.27183 -1.52869 0
M  V30 2453 H 235.959 4.42098 -0.0142953 0
M  V30 2454 N 235.018 0.912232 1.28515 0
M  V30 2455 C 236.266 0.543523 1.94654 0
M  V30 2456 C 236.587 -0.9155 1.72173 0
M  V30 2457 O 235.857 -1.64708 1.06058 0
M  V30 2458 H 234.437 0.198017 0.720277 0
M  V30 2459 H 237.099 1.16126 1.56527 0
M  V30 2460 H 236.195 0.736684 3.03281 0
M  V30 2461 N 236.496 -1.42363 0.676048 0
M  V30 2462 C 237.406 -2.346 -0.00153389 0
M  V30 2463 C 238.422 -1.5516 -0.787485 0
M  V30 2464 O 239.598 -1.87723 -0.729521 0
M  V30 2465 C 236.663 -3.33705 -0.940298 0
M  V30 2466 C 235.724 -4.29042 -0.148739 0
M  V30 2467 C 234.957 -5.23413 -1.04279 0
M  V30 2468 O 235.18 -5.22749 -2.28232 0
M  V30 2469 O 234.114 -5.99795 -0.502925 0
M  V30 2470 H 237.94 -2.94082 0.758268 0
M  V30 2471 H 235.525 -1.42888 0.436289 0
M  V30 2472 H 237.407 -3.94586 -1.47917 0
M  V30 2473 H 236.082 -2.76695 -1.67993 0
M  V30 2474 H 234.989 -3.71571 0.43427 0
M  V30 2475 H 236.322 -4.89097 0.551805 0
M  V30 2476 N 237.974 -0.419461 -1.51915 0
M  V30 2477 C 239.22 0.153166 -2.02221 0
M  V30 2478 C 239.553 1.43907 -1.30401 0
M  V30 2479 O 238.828 1.90055 -0.413438 0
M  V30 2480 C 239.111 0.390291 -3.57979 0
M  V30 2481 C 238.964 -0.913014 -4.40436 0
M  V30 2482 C 240.283 1.16794 -4.2432 0
M  V30 2483 H 237.402 0.0541924 -0.735005 0
M  V30 2484 H 240.044 -0.554955 -1.81715 0
M  V30 2485 H 238.194 0.993491 -3.75582 0
M  V30 2486 H 239.866 -1.54882 -4.34522 0
M  V30 2487 H 238.109 -1.52168 -4.06236 0
M  V30 2488 H 238.78 -0.701361 -5.47526 0
M  V30 2489 H 241.256 0.657161 -4.10878 0
M  V30 2490 H 240.132 1.3026 -5.3322 0
M  V30 2491 H 240.393 2.19132 -3.83971 0
M  V30 2492 N 239.452 1.56882 -0.150215 0
M  V30 2493 C 240.68 2.00593 0.506948 0
M  V30 2494 C 241.095 1.03033 1.58208 0
M  V30 2495 O 240.452 0.0278396 1.82479 0
M  V30 2496 C 240.503 3.44209 1.10465 0
M  V30 2497 O 240.224 4.3804 0.0724636 0
M  V30 2498 C 241.725 4.03214 1.84211 0
M  V30 2499 H 238.945 0.65795 0.13169 0
M  V30 2500 H 241.489 2.03018 -0.245743 0
M  V30 2501 H 239.644 3.42625 1.80795 0
M  V30 2502 H 240.058 5.22007 0.510793 0
M  V30 2503 H 241.532 5.0569 2.21318 0
M  V30 2504 H 242.009 3.44107 2.72923 0
M  V30 2505 H 242.615 4.08437 1.18572 0
M  V30 2506 N 240.93 -0.123565 1.57115 0
M  V30 2507 C 242.178 -0.83051 1.84247 0
M  V30 2508 C 242.499 -1.80629 0.73471 0
M  V30 2509 O 241.769 -1.94403 -0.241688 0
M  V30 2510 H 240.349 -0.309694 0.679778 0
M  V30 2511 H 243.011 -0.111976 1.94578 0
M  V30 2512 H 242.107 -1.37852 2.80006 0
M  V30 2513 N 242.408 -1.52605 -0.393616 0
M  V30 2514 C 243.654 -1.67672 -1.14079 0
M  V30 2515 C 243.987 -0.413121 -1.89755 0
M  V30 2516 O 243.262 0.588952 -1.85369 0
M  V30 2517 C 243.545 -2.9088 -2.12276 0
M  V30 2518 C 243.398 -4.27329 -1.40394 0
M  V30 2519 C 244.717 -3.09628 -3.12759 0
M  V30 2520 H 241.836 -0.610168 -0.413356 0
M  V30 2521 H 244.478 -1.85193 -0.424696 0
M  V30 2522 H 242.628 -2.76073 -2.73342 0
M  V30 2523 H 244.3 -4.53894 -0.82327 0
M  V30 2524 H 242.543 -4.2802 -0.705801 0
M  V30 2525 H 243.214 -5.09615 -2.12123 0
M  V30 2526 H 245.69 -3.23436 -2.61779 0
M  V30 2527 H 244.566 -3.97322 -3.78717 0
M  V30 2528 H 244.827 -2.23637 -3.81365 0
M  V30 2529 N 243.887 0.651787 -1.4349 0
M  V30 2530 C 244.835 1.78586 -1.49029 0
M  V30 2531 C 245.829 1.65448 -0.363767 0
M  V30 2532 O 247.035 1.71777 -0.537821 0
M  V30 2533 H 243.41 0.589236 -0.467231 0
M  V30 2534 H 245.381 1.71035 -2.44519 0
M  V30 2535 C 244.13 3.16851 -1.43181 0
M  V30 2536 H 243.453 3.27598 -2.29171 0
M  V30 2537 H 244.893 3.96156 -1.51118 0
M  V30 2538 C 243.352 3.36568 -0.149616 0
M  V30 2539 O 243.882 3.93885 0.788509 0
M  V30 2540 N 242.088 2.90539 -0.0593484 0
M  V30 2541 H 241.635 2.4408 -0.823575 0
M  V30 2542 H 241.593 3.04108 0.797853 0
M  V30 2543 N 245.365 1.30045 0.890287 0
M  V30 2544 C 246.611 1.18737 1.64406 0
M  V30 2545 C 246.944 -0.258525 1.92472 0
M  V30 2546 O 246.219 -1.18562 1.54186 0
M  V30 2547 C 246.502 2.01087 2.98724 0
M  V30 2548 C 246.355 3.53867 2.77665 0
M  V30 2549 C 247.674 1.84457 3.9958 0
M  V30 2550 H 244.793 0.432698 0.596608 0
M  V30 2551 H 247.435 1.5962 1.0306 0
M  V30 2552 H 245.585 1.66349 3.51084 0
M  V30 2553 H 247.257 3.98637 2.32133 0
M  V30 2554 H 245.5 3.78318 2.12269 0
M  V30 2555 H 246.171 4.06772 3.7315 0
M  V30 2556 H 248.647 2.14817 3.56361 0
M  V30 2557 H 247.523 2.44411 4.91482 0
M  V30 2558 H 247.784 0.802276 4.3476 0
M  V30 2559 N 246.843 -1.10192 1.12674 0
M  V30 2560 C 248.091 -1.81845 0.881861 0
M  V30 2561 C 248.412 -1.85737 -0.593867 0
M  V30 2562 O 247.682 -1.33724 -1.4316 0
M  V30 2563 H 246.262 -0.673432 0.323261 0
M  V30 2564 H 248.924 -1.33316 1.42172 0
M  V30 2565 H 248.02 -2.85288 1.2656 0
M  V30 2566 N 248.321 -0.919034 -1.28029 0
M  V30 2567 C 249.251 -0.428581 -2.29533 0
M  V30 2568 C 250.232 0.50659 -1.62381 0
M  V30 2569 O 251.417 0.413195 -1.89753 0
M  V30 2570 C 248.547 0.327388 -3.45753 0
M  V30 2571 C 247.501 -0.519137 -4.2484 0
M  V30 2572 C 246.827 0.365486 -5.33449 0
M  V30 2573 C 248.127 -1.77914 -4.91064 0
M  V30 2574 H 249.821 -1.27687 -2.70807 0
M  V30 2575 H 247.367 -0.615428 -1.30186 0
M  V30 2576 H 249.32 0.681378 -4.15855 0
M  V30 2577 H 248.044 1.20963 -3.03374 0
M  V30 2578 H 246.703 -0.855717 -3.56473 0
M  V30 2579 H 246.351 1.24642 -4.87312 0
M  V30 2580 H 246.051 -0.197356 -5.87268 0
M  V30 2581 H 247.575 0.715241 -6.06396 0
M  V30 2582 H 248.989 -1.49374 -5.53498 0
M  V30 2583 H 247.386 -2.2848 -5.54903 0
M  V30 2584 H 248.456 -2.50382 -4.15255 0
M  V30 2585 N 249.799 1.42003 -0.683588 0
M  V30 2586 C 250.729 2.33487 -0.024866 0
M  V30 2587 C 251.71 1.51163 0.779975 0
M  V30 2588 O 252.895 1.79739 0.735362 0
M  V30 2589 C 250.025 3.3487 0.920836 0
M  V30 2590 C 248.979 4.27414 0.223958 0
M  V30 2591 C 248.305 5.19074 1.2832 0
M  V30 2592 C 249.605 5.14445 -0.90242 0
M  V30 2593 H 251.299 2.88819 -0.788921 0
M  V30 2594 H 248.845 1.38873 -0.38083 0
M  V30 2595 H 250.798 3.97787 1.39081 0
M  V30 2596 H 249.522 2.77861 1.71642 0
M  V30 2597 H 248.181 3.65904 -0.225864 0
M  V30 2598 H 247.829 4.58387 2.071 0
M  V30 2599 H 247.529 5.81822 0.821995 0
M  V30 2600 H 249.053 5.84867 1.75392 0
M  V30 2601 H 250.467 5.70998 -0.513272 0
M  V30 2602 H 248.864 5.86072 -1.28997 0
M  V30 2603 H 249.934 4.52322 -1.74737 0
M  V30 2604 N 251.277 0.427512 1.51691 0
M  V30 2605 C 252.225 -0.403359 2.29076 0
M  V30 2606 C 253.219 -1.02962 1.34518 0
M  V30 2607 O 254.425 -0.965715 1.51901 0
M  V30 2608 H 250.8 -0.148879 0.737115 0
M  V30 2609 H 252.771 0.270295 2.97173 0
M  V30 2610 C 251.52 -1.49763 3.13794 0
M  V30 2611 H 250.843 -1.02508 3.86435 0
M  V30 2612 H 252.283 -2.05244 3.71014 0
M  V30 2613 C 250.742 -2.47536 2.28533 0
M  V30 2614 O 251.272 -3.51848 1.93819 0
M  V30 2615 N 249.478 -2.18187 1.91945 0
M  V30 2616 H 249.025 -1.33389 2.20375 0
M  V30 2617 H 248.983 -2.83848 1.35195 0
M  V30 2618 N 252.755 -1.56801 0.158532 0
M  V30 2619 C 253.688 -2.13148 -0.815065 0
M  V30 2620 C 254.666 -1.0581 -1.23462 0
M  V30 2621 O 255.85 -1.3371 -1.32868 0
M  V30 2622 C 252.977 -2.6606 -2.09594 0
M  V30 2623 C 252.023 -3.85651 -1.82141 0
M  V30 2624 S 252.856 -5.26041 -1.00207 0
M  V30 2625 C 254.012 -5.8235 -2.29389 0
M  V30 2626 H 254.245 -2.95396 -0.335937 0
M  V30 2627 H 251.778 -1.54299 -0.0559391 0
M  V30 2628 H 253.736 -2.97195 -2.8317 0
M  V30 2629 H 252.397 -1.83921 -2.54621 0
M  V30 2630 H 251.59 -4.20958 -2.77147 0
M  V30 2631 H 251.192 -3.55338 -1.16667 0
M  V30 2632 H 253.484 -5.94485 -3.24952 0
M  V30 2633 H 254.427 -6.79688 -1.9857 0
M  V30 2634 H 254.835 -5.10675 -2.40564 0
M  V30 2635 N 254.233 0.115231 -1.57178 0
M  V30 2636 C 255.163 1.1423 -2.03651 0
M  V30 2637 C 256.144 1.42967 -0.921655 0
M  V30 2638 O 257.329 1.53343 -1.19162 0
M  V30 2639 C 254.459 2.4675 -2.44401 0
M  V30 2640 C 253.413 2.32467 -3.59365 0
M  V30 2641 C 252.739 3.69984 -3.86026 0
M  V30 2642 C 254.039 1.78203 -4.90959 0
M  V30 2643 H 255.733 0.755749 -2.89705 0
M  V30 2644 H 253.279 0.362093 -1.39373 0
M  V30 2645 H 255.232 3.18854 -2.75517 0
M  V30 2646 H 253.956 2.87302 -1.55322 0
M  V30 2647 H 252.615 1.62811 -3.28463 0
M  V30 2648 H 252.263 4.08028 -2.94147 0
M  V30 2649 H 251.963 3.61279 -4.63412 0
M  V30 2650 H 253.487 4.43587 -4.19599 0
M  V30 2651 H 254.901 2.40128 -5.20587 0
M  V30 2652 H 253.298 1.8031 -5.72371 0
M  V30 2653 H 254.368 0.739876 -4.79222 0
M  V30 2654 N 255.711 1.52812 0.385517 0
M  V30 2655 C 256.957 1.68275 1.13188 0
M  V30 2656 C 257.29 0.423179 1.89533 0
M  V30 2657 O 256.565 -0.579113 1.85679 0
M  V30 2658 C 256.848 2.92001 2.1073 0
M  V30 2659 C 256.701 4.28067 1.38125 0
M  V30 2660 C 258.02 3.11283 3.11113 0
M  V30 2661 H 255.139 0.612352 0.410115 0
M  V30 2662 H 257.781 1.85415 0.414869 0
M  V30 2663 H 255.931 2.77519 2.71874 0
M  V30 2664 H 257.603 4.54324 0.799187 0
M  V30 2665 H 255.846 4.28388 0.683092 0
M  V30 2666 H 256.517 5.10733 2.09417 0
M  V30 2667 H 258.993 3.2482 2.6006 0
M  V30 2668 H 257.869 3.99325 3.76605 0
M  V30 2669 H 258.13 2.25656 3.80173 0
M  V30 2670 N 257.189 -0.644168 1.43834 0
M  V30 2671 C 258.136 -1.75671 1.49694 0
M  V30 2672 C 259.106 -1.6246 0.345809 0
M  V30 2673 O 260.291 -1.82573 0.554234 0
M  V30 2674 C 257.431 -3.13867 1.43463 0
M  V30 2675 C 256.544 -3.38147 2.6885 0
M  V30 2676 C 255.679 -4.66241 2.54544 0
M  V30 2677 C 254.718 -4.83657 3.75157 0
M  V30 2678 N 253.855 -6.03016 3.59605 0
M  V30 2679 H 258.695 -1.69998 2.44754 0
M  V30 2680 H 256.232 -0.829458 1.21484 0
M  V30 2681 H 258.19 -3.9377 1.37843 0
M  V30 2682 H 256.82 -3.18588 0.519783 0
M  V30 2683 H 255.872 -2.52276 2.84712 0
M  V30 2684 H 257.184 -3.46899 3.58417 0
M  V30 2685 H 256.338 -5.54285 2.46683 0
M  V30 2686 H 255.077 -4.59826 1.62516 0
M  V30 2687 H 254.082 -3.94046 3.83416 0
M  V30 2688 H 255.307 -4.91896 4.68204 0
M  V30 2689 H 253.253 -5.97715 2.7032 0
M  V30 2690 H 253.17 -6.12766 4.42779 0
M  V30 2691 H 254.438 -6.93657 3.55613 0
M  V30 2692 N 258.668 -1.30515 -0.883378 0
M  V30 2693 C 259.916 -1.19194 -1.63209 0
M  V30 2694 C 260.237 0.253205 -1.93349 0
M  V30 2695 O 259.507 1.17025 -1.57105 0
M  V30 2696 H 258.087 -0.438148 -0.605009 0
M  V30 2697 H 260.749 -1.63663 -1.05832 0
M  V30 2698 H 259.845 -1.75396 -2.58153 0
M  V30 2699 N 260.146 1.09593 -1.13257 0
M  V30 2700 C 261.423 1.78293 -0.804432 0
M  V30 2701 C 261.803 1.99004 0.70431 0
M  V30 2702 O 261.151 1.59007 1.641 0
M  V30 2703 C 261.361 3.10707 -1.5894 0
M  V30 2704 C 262.709 3.85443 -1.78099 0
M  V30 2705 O 263.733 3.20454 -1.55525 0
M  V30 2706 O 262.592 5.02108 -2.15753 0
M  V30 2707 H 259.686 0.773156 -0.293528 0
M  V30 2708 H 262.232 1.16164 -1.23709 0
M  V30 2709 H 261.004 2.91106 -2.61482 0
M  V30 2710 H 260.627 3.80558 -1.15157 0
M  V30 2711 N 261.624 0.925811 1.2754 0
M  V30 2712 C 262.871 0.565255 1.94451 0
M  V30 2713 C 263.199 -0.89316 1.7278 0
M  V30 2714 O 262.454 -1.65213 1.04895 0
M  V30 2715 C 262.753 0.835296 3.47502 0
M  V30 2716 C 262.419 2.27515 3.89291 0
M  V30 2717 C 261.081 2.66879 4.00411 0
M  V30 2718 C 263.433 3.21158 4.10496 0
M  V30 2719 C 260.761 3.99014 4.30122 0
M  V30 2720 C 263.113 4.52871 4.4169 0
M  V30 2721 C 261.777 4.92072 4.51023 0
M  V30 2722 H 261.047 0.206841 0.711546 0
M  V30 2723 H 263.694 1.16942 1.51647 0
M  V30 2724 H 261.999 0.148442 3.91519 0
M  V30 2725 H 263.696 0.535322 3.97411 0
M  V30 2726 H 260.286 1.95976 3.81171 0
M  V30 2727 H 264.47 2.9195 4.01346 0
M  V30 2728 H 259.726 4.2907 4.35556 0
M  V30 2729 H 263.9 5.25436 4.57045 0
M  V30 2730 H 261.527 5.9449 4.738 0
M  V30 2731 N 263.102 -1.41638 0.69111 0
M  V30 2732 C 264.351 -2.00526 0.217318 0
M  V30 2733 C 264.664 -1.55353 -1.18848 0
M  V30 2734 O 265.87 -2.06769 -1.75951 0
M  V30 2735 C 264.326 -3.58313 0.337639 0
M  V30 2736 C 263.934 -4.12469 1.74852 0
M  V30 2737 C 265.678 -4.24431 -0.0766066 0
M  V30 2738 C 263.585 -5.62675 1.82074 0
M  V30 2739 H 262.515 -0.750008 0.0774893 0
M  V30 2740 H 265.166 -1.6217 0.858661 0
M  V30 2741 H 263.548 -3.9425 -0.371879 0
M  V30 2742 H 264.722 -3.8796 2.48644 0
M  V30 2743 H 263.037 -3.58861 2.11205 0
M  V30 2744 H 265.634 -5.34683 -0.0430284 0
M  V30 2745 H 265.977 -4.01101 -1.1146 0
M  V30 2746 H 266.51 -3.93512 0.582476 0
M  V30 2747 H 263.249 -5.90826 2.83911 0
M  V30 2748 H 262.769 -5.89124 1.12661 0
M  V30 2749 H 264.448 -6.27371 1.58159 0
M  V30 2750 N 264.58 -0.43555 -1.51462 0
M  V30 2751 C 265.991 0.0279871 -1.86679 0
M  V30 2752 C 266.342 1.42104 -1.35281 0
M  V30 2753 O 265.467 2.04667 -0.702878 0
M  V30 2754 C 266.062 0.0575626 -3.38751 0
M  V30 2755 C 264.621 0.465507 -3.7351 0
M  V30 2756 C 263.768 -0.342996 -2.75171 0
M  V30 2757 H 266.719 -0.651473 -1.44712 0
M  V30 2758 H 266.74 0.867421 -3.70481 0
M  V30 2759 H 266.252 -0.956448 -3.7613 0
M  V30 2760 H 264.353 1.48519 -3.41721 0
M  V30 2761 H 264.466 0.191546 -4.78717 0
M  V30 2762 H 262.83 0.198442 -2.53926 0
M  V30 2763 H 263.613 -1.35585 -3.15391 0
M  V30 2764 N 266.058 1.56714 -0.166846 0
M  V30 2765 C 267.304 1.97039 0.479962 0
M  V30 2766 C 267.637 1.05264 1.63197 0
M  V30 2767 O 266.912 0.0988833 1.94248 0
M  V30 2768 C 267.195 3.46867 0.967212 0
M  V30 2769 C 267.048 4.49421 -0.18466 0
M  V30 2770 C 268.367 3.9968 1.84238 0
M  V30 2771 H 265.486 0.71641 0.172992 0
M  V30 2772 H 268.128 1.8832 -0.252079 0
M  V30 2773 H 266.278 3.54428 1.59101 0
M  V30 2774 H 267.95 4.53924 -0.821621 0
M  V30 2775 H 266.193 4.25573 -0.840837 0
M  V30 2776 H 266.864 5.51644 0.198317 0
M  V30 2777 H 269.34 3.94723 1.31655 0
M  V30 2778 H 268.216 5.04941 2.15234 0
M  V30 2779 H 268.477 3.43226 2.78654 0
M  V30 2780 N 267.536 -0.106894 1.57237 0
M  V30 2781 C 268.785 -0.811163 1.8467 0
M  V30 2782 C 269.098 -1.80469 0.754342 0
M  V30 2783 O 270.304 -2.55601 0.915439 0
M  V30 2784 C 268.76 -1.49337 3.27454 0
M  V30 2785 C 268.368 -0.540217 4.44731 0
M  V30 2786 C 270.112 -2.18206 3.64124 0
M  V30 2787 C 268.019 -1.22634 5.78545 0
M  V30 2788 H 266.949 -0.306679 0.688813 0
M  V30 2789 H 269.6 -0.0639887 1.83388 0
M  V30 2790 H 267.982 -2.2876 3.23241 0
M  V30 2791 H 269.156 0.221659 4.60267 0
M  V30 2792 H 267.471 0.042146 4.16379 0
M  V30 2793 H 270.068 -2.70253 4.61376 0
M  V30 2794 H 270.411 -2.96562 2.92158 0
M  V30 2795 H 270.944 -1.45658 3.70174 0
M  V30 2796 H 267.683 -0.483832 6.53712 0
M  V30 2797 H 267.203 -1.95993 5.66874 0
M  V30 2798 H 268.882 -1.75615 6.2271 0
M  V30 2799 N 269.014 -1.53014 -0.377408 0
M  V30 2800 C 269.977 -1.77957 -1.44444 0
M  V30 2801 C 270.977 -0.649763 -1.47087 0
M  V30 2802 O 272.167 -0.917897 -1.48055 0
M  V30 2803 C 269.299 -1.89089 -2.83651 0
M  V30 2804 H 270.492 -2.73243 -1.23606 0
M  V30 2805 H 268.045 -1.43912 -0.609844 0
M  V30 2806 H 268.78 -0.958293 -3.09818 0
M  V30 2807 H 268.565 -2.71254 -2.83132 0
M  V30 2808 H 270.055 -2.1002 -3.60945 0
M  V30 2809 N 270.492 0.636531 -1.44174 0
M  V30 2810 C 271.903 1.21806 -1.41493 0
M  V30 2811 C 272.254 1.95785 -0.1275 0
M  V30 2812 O 271.379 2.02147 0.772376 0
M  V30 2813 C 271.974 2.21551 -2.56321 0
M  V30 2814 C 270.533 2.75143 -2.56853 0
M  V30 2815 C 269.68 1.50052 -2.33195 0
M  V30 2816 H 272.631 0.427531 -1.52833 0
M  V30 2817 H 272.652 3.0405 -2.28765 0
M  V30 2818 H 272.164 1.67679 -3.50008 0
M  V30 2819 H 270.265 3.33033 -1.67093 0
M  V30 2820 H 270.378 3.2155 -3.55165 0
M  V30 2821 H 268.742 1.77993 -1.82183 0
M  V30 2822 H 269.525 0.980903 -3.28988 0
M  V30 2823 N 271.97 1.30982 0.876444 0
M  V30 2824 C 273.219 1.19658 1.62373 0
M  V30 2825 C 273.532 -0.245636 1.94052 0
M  V30 2826 O 274.738 -0.48049 2.67214 0
M  V30 2827 C 273.194 2.09433 2.92687 0
M  V30 2828 C 272.802 3.58613 2.68516 0
M  V30 2829 C 274.546 2.06893 3.70669 0
M  V30 2830 C 272.453 4.40416 3.94699 0
M  V30 2831 H 271.383 0.444268 0.609214 0
M  V30 2832 H 274.034 1.55791 0.969605 0
M  V30 2833 H 272.416 1.66191 3.59439 0
M  V30 2834 H 273.59 4.10058 2.10212 0
M  V30 2835 H 271.905 3.63063 2.03898 0
M  V30 2836 H 274.502 2.65258 4.64265 0
M  V30 2837 H 274.845 1.05448 4.02724 0
M  V30 2838 H 275.378 2.48301 3.10792 0
M  V30 2839 H 272.117 5.42591 3.67798 0
M  V30 2840 H 271.637 3.93731 4.52477 0
M  V30 2841 H 273.316 4.52294 4.62644 0
M  V30 2842 N 273.449 -1.08991 1.13837 0
M  V30 2843 C 274.697 -1.80899 0.901098 0
M  V30 2844 C 275.018 -1.86356 -0.574134 0
M  V30 2845 O 274.288 -1.35235 -1.41733 0
M  V30 2846 H 272.868 -0.669966 0.330386 0
M  V30 2847 H 275.53 -1.318 1.43578 0
M  V30 2848 H 274.626 -2.83929 1.29578 0
M  V30 2849 N 274.927 -0.932562 -1.27047 0
M  V30 2850 C 276.173 -0.576412 -1.94436 0
M  V30 2851 C 276.506 0.880891 -1.73072 0
M  V30 2852 O 275.781 1.62905 -1.06264 0
M  V30 2853 C 276.064 -0.909031 -3.48437 0
M  V30 2854 C 275.917 -2.42044 -3.79123 0
M  V30 2855 C 277.236 -0.418341 -4.38107 0
M  V30 2856 H 274.355 -0.210888 -0.706184 0
M  V30 2857 H 276.997 -1.16522 -1.50075 0
M  V30 2858 H 275.147 -0.407947 -3.86352 0
M  V30 2859 H 276.819 -2.99359 -3.50973 0
M  V30 2860 H 275.062 -2.86758 -3.25503 0
M  V30 2861 H 275.733 -2.6037 -4.86736 0
M  V30 2862 H 278.209 -0.847856 -4.0737 0
M  V30 2863 H 277.085 -0.679981 -5.44672 0
M  V30 2864 H 277.346 0.681642 -4.36814 0
M  V30 2865 N 276.405 1.4127 -0.698611 0
M  V30 2866 C 277.653 2.00782 -0.230409 0
M  V30 2867 C 277.974 1.5562 1.17505 0
M  V30 2868 O 277.244 0.78815 1.79346 0
M  V30 2869 H 275.824 0.742464 -0.0821944 0
M  V30 2870 H 278.486 1.72852 -0.90045 0
M  V30 2871 H 277.582 3.11095 -0.25021 0
M  V30 2872 N 277.883 0.443576 1.51229 0
M  V30 2873 C 279.108 -0.121648 2.07043 0
M  V30 2874 C 279.533 -1.35156 1.30823 0
M  V30 2875 O 278.891 -1.7793 0.347934 0
M  V30 2876 C 278.939 -0.41624 3.5819 0
M  V30 2877 O 278.043 -1.50163 3.8409 0
M  V30 2878 H 277.384 0.000871367 0.663999 0
M  V30 2879 H 279.914 0.626706 1.94765 0
M  V30 2880 H 279.924 -0.664867 4.02546 0
M  V30 2881 H 278.599 0.482653 4.1309 0
M  V30 2882 H 277.176 -1.24248 3.51592 0
M  V30 2883 N 279.361 -1.56624 0.175154 0
M  V30 2884 C 280.309 -2.19468 -0.770495 0
M  V30 2885 C 281.303 -1.15985 -1.23466 0
M  V30 2886 O 282.509 -1.34176 -1.19987 0
M  V30 2887 H 278.884 -0.703095 -0.266761 0
M  V30 2888 H 280.855 -2.97613 -0.216542 0
M  V30 2889 C 279.604 -2.85264 -1.98796 0
M  V30 2890 H 278.927 -3.64623 -1.63983 0
M  V30 2891 H 280.367 -3.327 -2.62843 0
M  V30 2892 C 278.826 -1.85239 -2.81404 0
M  V30 2893 O 279.356 -1.34024 -3.78682 0
M  V30 2894 N 277.562 -1.53911 -2.46495 0
M  V30 2895 H 277.109 -1.95751 -1.67449 0
M  V30 2896 H 277.067 -0.872382 -3.02054 0
M  V30 2897 N 280.839 0.0985539 -1.57292 0
M  V30 2898 C 282.087 0.801092 -1.85545 0
M  V30 2899 C 282.408 1.79438 -0.763353 0
M  V30 2900 O 281.678 1.94763 0.21073 0
M  V30 2901 H 280.258 0.29884 -0.684619 0
M  V30 2902 H 282.92 0.0810064 -1.94732 0
M  V30 2903 H 282.016 1.3338 -2.82163 0
M  V30 2904 N 282.317 1.53212 0.369288 0
M  V30 2905 C 283.227 1.82342 1.47609 0
M  V30 2906 C 284.243 0.711532 1.58787 0
M  V30 2907 O 285.419 1.0012 1.74751 0
M  V30 2908 C 282.484 2.00393 2.8292 0
M  V30 2909 C 281.545 3.24297 2.81301 0
M  V30 2910 C 280.778 3.41478 4.10157 0
M  V30 2911 O 281.001 2.63033 5.06132 0
M  V30 2912 O 279.935 4.34817 4.16194 0
M  V30 2913 H 283.761 2.76366 1.25918 0
M  V30 2914 H 281.346 1.38547 0.559034 0
M  V30 2915 H 283.228 2.13859 3.63101 0
M  V30 2916 H 281.903 1.09559 3.04596 0
M  V30 2917 H 280.81 3.16257 1.99831 0
M  V30 2918 H 282.143 4.15041 2.64578 0
M  V30 2919 N 283.795 -0.628877 1.44509 0
M  V30 2920 C 285.02 -1.42048 1.5112 0
M  V30 2921 C 285.445 -1.87594 0.137818 0
M  V30 2922 O 284.803 -1.58873 -0.873437 0
M  V30 2923 C 284.851 -2.61541 2.48251 0
M  V30 2924 O 283.955 -3.61453 1.98559 0
M  V30 2925 H 283.296 -0.424942 0.510216 0
M  V30 2926 H 285.826 -0.767374 1.89664 0
M  V30 2927 H 285.836 -3.09057 2.66361 0
M  V30 2928 H 284.511 -2.27736 3.48007 0
M  V30 2929 H 283.088 -3.20731 1.90227 0
M  V30 2930 N 285.273 -1.31445 -0.869486 0
M  V30 2931 C 286.503 -1.23942 -1.65294 0
M  V30 2932 C 286.911 0.197561 -1.88166 0
M  V30 2933 O 286.254 1.14019 -1.44033 0
M  V30 2934 C 286.316 -1.91385 -3.04322 0
M  V30 2935 C 285.98 -3.40726 -3.04557 0
M  V30 2936 C 286.977 -4.36464 -2.82481 0
M  V30 2937 C 284.662 -3.82425 -3.25663 0
M  V30 2938 C 286.656 -5.71876 -2.8149 0
M  V30 2939 C 284.343 -5.1795 -3.243 0
M  V30 2940 C 285.341 -6.12486 -3.02241 0
M  V30 2941 O 285.029 -7.45534 -3.00724 0
M  V30 2942 H 284.761 -0.429459 -0.522054 0
M  V30 2943 H 287.315 -1.73873 -1.0935 0
M  V30 2944 H 285.545 -1.36004 -3.61994 0
M  V30 2945 H 287.234 -1.77791 -3.64891 0
M  V30 2946 H 288 -4.05576 -2.65956 0
M  V30 2947 H 283.879 -3.09274 -3.41863 0
M  V30 2948 H 287.423 -6.45638 -2.64191 0
M  V30 2949 H 283.32 -5.48473 -3.40365 0
M  V30 2950 H 284.088 -7.54713 -3.16782 0
M  V30 2951 N 286.751 1.08385 -1.14413 0
M  V30 2952 C 287.699 2.17406 -0.826888 0
M  V30 2953 C 288.693 1.6827 0.195312 0
M  V30 2954 O 289.899 1.79927 0.0513892 0
M  V30 2955 H 286.274 0.70934 -0.249681 0
M  V30 2956 H 288.245 2.41388 -1.75426 0
M  V30 2957 C 286.994 3.46215 -0.320979 0
M  V30 2958 H 286.317 3.84401 -1.0989 0
M  V30 2959 H 287.757 4.23777 -0.137549 0
M  V30 2960 C 286.216 3.23067 0.955472 0
M  V30 2961 O 286.746 3.4668 2.02918 0
M  V30 2962 N 284.952 2.7661 0.890798 0
M  V30 2963 H 284.499 2.57594 0.0168815 0
M  V30 2964 H 284.457 2.61501 1.74542 0
M  V30 2965 N 288.23 0.939286 1.26551 0
M  V30 2966 C 289.479 0.581601 1.93133 0
M  V30 2967 C 289.792 -0.883224 1.74524 0
M  V30 2968 O 290.998 -1.3502 2.35546 0
M  V30 2969 C 289.454 0.989425 3.46032 0
M  V30 2970 C 289.062 2.47573 3.73379 0
M  V30 2971 C 290.806 0.703544 4.18629 0
M  V30 2972 C 288.713 2.82235 5.19709 0
M  V30 2973 H 287.643 0.213803 0.723052 0
M  V30 2974 H 290.294 1.14167 1.4366 0
M  V30 2975 H 288.676 0.357902 3.94379 0
M  V30 2976 H 289.85 3.15614 3.35744 0
M  V30 2977 H 288.165 2.73471 3.1401 0
M  V30 2978 H 290.762 0.938869 5.26393 0
M  V30 2979 H 291.105 -0.359639 4.14744 0
M  V30 2980 H 291.638 1.2947 3.76141 0
M  V30 2981 H 288.377 3.87509 5.28694 0
M  V30 2982 H 287.897 2.18854 5.58447 0
M  V30 2983 H 289.576 2.70599 5.87695 0
M  V30 2984 N 289.708 -1.40897 0.706093 0
M  V30 2985 C 290.656 -2.32572 0.0361893 0
M  V30 2986 C 291.65 -1.51532 -0.757266 0
M  V30 2987 O 292.856 -1.67396 -0.661703 0
M  V30 2988 H 289.231 -0.751966 -0.00709935 0
M  V30 2989 H 291.202 -2.86733 0.826249 0
M  V30 2990 C 289.951 -3.36418 -0.87854 0
M  V30 2991 H 289.274 -3.98836 -0.277401 0
M  V30 2992 H 290.714 -4.0308 -1.3154 0
M  V30 2993 C 289.173 -2.71141 -1.99961 0
M  V30 2994 O 289.703 -2.56735 -3.0895 0
M  V30 2995 N 287.909 -2.29671 -1.78043 0
M  V30 2996 H 287.456 -2.41588 -0.894042 0
M  V30 2997 H 287.414 -1.86332 -2.53235 0
M  V30 2998 N 291.186 -0.45159 -1.50991 0
M  V30 2999 C 292.149 0.341117 -2.26647 0
M  V30 3000 C 293.149 0.937422 -1.30649 0
M  V30 3001 O 294.339 0.809644 -1.54241 0
M  V30 3002 C 291.471 1.48398 -3.06905 0
M  V30 3003 H 292.664 -0.322117 -2.98165 0
M  V30 3004 H 290.217 -0.205122 -1.54948 0
M  V30 3005 H 290.952 2.18284 -2.39838 0
M  V30 3006 H 290.737 1.06241 -3.77432 0
M  V30 3007 H 292.227 2.04367 -3.64176 0
M  V30 3008 N 292.664 1.56529 -0.183458 0
M  V30 3009 C 293.941 1.88959 0.50536 0
M  V30 3010 C 294.321 1.09523 1.80466 0
M  V30 3011 O 293.669 0.19278 2.27685 0
M  V30 3012 C 293.879 3.41162 0.73547 0
M  V30 3013 C 295.227 4.11155 1.06005 0
M  V30 3014 O 296.251 3.46548 0.823594 0
M  V30 3015 O 295.11 5.25318 1.50675 0
M  V30 3016 H 292.204 0.78441 0.261973 0
M  V30 3017 H 294.75 1.68231 -0.222802 0
M  V30 3018 H 293.522 3.90874 -0.182561 0
M  V30 3019 H 293.145 3.67543 1.51651 0
M  V30 3020 N 294.142 -0.090211 1.57342 0
M  V30 3021 C 295.072 -1.10976 2.05443 0
M  V30 3022 C 296.053 -1.41482 0.944284 0
M  V30 3023 O 297.238 -1.51428 1.21586 0
M  V30 3024 C 294.368 -2.42831 2.48295 0
M  V30 3025 C 293.322 -2.26721 3.63018 0
M  V30 3026 C 292.648 -3.63796 3.91863 0
M  V30 3027 C 293.948 -1.7037 4.93732 0
M  V30 3028 H 295.642 -0.709564 2.9087 0
M  V30 3029 H 293.188 -0.339874 1.39932 0
M  V30 3030 H 295.141 -3.14431 2.80555 0
M  V30 3031 H 293.865 -2.84795 1.59873 0
M  V30 3032 H 292.524 -1.57565 3.31012 0
M  V30 3033 H 292.172 -4.03297 3.00601 0
M  V30 3034 H 291.872 -3.53861 4.69101 0
M  V30 3035 H 293.396 -4.36855 4.26603 0
M  V30 3036 H 294.81 -2.31816 5.24342 0
M  V30 3037 H 293.207 -1.71181 5.75167 0
M  V30 3038 H 294.277 -0.663542 4.80339 0
M  V30 3039 N 295.62 -1.53406 -0.361157 0
M  V30 3040 C 296.866 -1.70054 -1.10496 0
M  V30 3041 C 297.199 -0.453278 -1.88836 0
M  V30 3042 O 296.474 0.5495 -1.86576 0
M  V30 3043 C 296.757 -2.95317 -2.06058 0
M  V30 3044 C 296.61 -4.3021 -1.31298 0
M  V30 3045 C 297.929 -3.16193 -3.06121 0
M  V30 3046 H 295.048 -0.618799 -0.400321 0
M  V30 3047 H 297.69 -1.86052 -0.385318 0
M  V30 3048 H 295.84 -2.81809 -2.67425 0
M  V30 3049 H 297.512 -4.55538 -0.726807 0
M  V30 3050 H 295.755 -4.29421 -0.614853 0
M  V30 3051 H 296.426 -5.14 -2.01265 0
M  V30 3052 H 298.902 -3.28916 -2.5486 0
M  V30 3053 H 297.778 -4.05266 -3.70204 0
M  V30 3054 H 298.039 -2.31676 -3.76535 0
M  V30 3055 N 297.098 0.621204 -1.44841 0
M  V30 3056 C 298.061 1.71459 -1.521 0
M  V30 3057 C 299.061 1.55696 -0.401933 0
M  V30 3058 O 300.251 1.61011 -0.664925 0
M  V30 3059 C 297.383 3.10624 -1.40447 0
M  V30 3060 H 298.576 1.66394 -2.49506 0
M  V30 3061 H 296.129 0.835745 -1.3208 0
M  V30 3062 H 296.864 3.21277 -0.441737 0
M  V30 3063 H 296.649 3.23473 -2.21602 0
M  V30 3064 H 298.139 3.90293 -1.4853 0
M  V30 3065 N 298.576 1.31904 0.862503 0
M  V30 3066 C 299.824 1.21776 1.61292 0
M  V30 3067 C 300.145 -0.222413 1.93727 0
M  V30 3068 O 299.415 -1.1451 1.58947 0
M  V30 3069 H 297.995 0.447717 0.597962 0
M  V30 3070 H 300.657 1.65326 1.03215 0
M  V30 3071 H 299.753 1.7948 2.5533 0
M  V30 3072 N 300.054 -1.07777 1.14986 0
M  V30 3073 C 301.001 -2.14867 0.842672 0
M  V30 3074 C 301.971 -1.6486 -0.202552 0
M  V30 3075 O 303.156 -1.90668 -0.0710568 0
M  V30 3076 C 300.296 -3.43486 0.333363 0
M  V30 3077 C 299.409 -4.07306 1.43965 0
M  V30 3078 C 298.544 -5.23744 0.886914 0
M  V30 3079 C 297.583 -5.79517 1.97043 0
M  V30 3080 N 296.72 -6.87291 1.4344 0
M  V30 3081 H 301.56 -2.40485 1.75986 0
M  V30 3082 H 299.097 -1.1801 0.878179 0
M  V30 3083 H 301.055 -4.17195 0.0198163 0
M  V30 3084 H 299.685 -3.18133 -0.546916 0
M  V30 3085 H 298.737 -3.31293 1.86946 0
M  V30 3086 H 300.049 -4.44771 2.25788 0
M  V30 3087 H 299.203 -6.04419 0.525651 0
M  V30 3088 H 297.942 -4.87685 0.0377957 0
M  V30 3089 H 296.947 -4.97491 2.34057 0
M  V30 3090 H 298.172 -6.17632 2.82325 0
M  V30 3091 H 296.118 -6.5318 0.607567 0
M  V30 3092 H 296.035 -7.23617 2.18895 0
M  V30 3093 H 297.303 -7.71682 1.10124 0
M  V30 3094 N 301.532 -0.945985 -1.26051 0
M  V30 3095 C 302.778 -0.597002 -1.93814 0
M  V30 3096 C 303.111 0.862484 -1.73997 0
M  V30 3097 O 302.386 1.61769 -1.07986 0
M  V30 3098 C 302.669 -0.945937 -3.47454 0
M  V30 3099 C 302.522 -2.46052 -3.76535 0
M  V30 3100 C 303.841 -0.464785 -4.37639 0
M  V30 3101 H 300.96 -0.218366 -0.703907 0
M  V30 3102 H 303.602 -1.18107 -1.48831 0
M  V30 3103 H 301.752 -0.448902 -3.85898 0
M  V30 3104 H 303.424 -3.03065 -3.47778 0
M  V30 3105 H 301.667 -2.90194 -3.22444 0
M  V30 3106 H 302.338 -2.65517 -4.83947 0
M  V30 3107 H 304.814 -0.891016 -4.06448 0
M  V30 3108 H 303.69 -0.737712 -5.4392 0
M  V30 3109 H 303.951 0.635274 -4.37512 0
M  V30 3110 N 303.011 1.40521 -0.713556 0
M  V30 3111 C 303.974 2.29098 -0.0684347 0
M  V30 3112 C 304.974 1.45268 0.689472 0
M  V30 3113 O 306.164 1.66205 0.521677 0
M  V30 3114 C 303.296 3.28446 0.913024 0
M  V30 3115 H 304.489 2.87645 -0.84855 0
M  V30 3116 H 302.042 1.48809 -0.47809 0
M  V30 3117 H 302.777 2.74913 1.72027 0
M  V30 3118 H 302.562 3.90327 0.372472 0
M  V30 3119 H 304.052 3.94777 1.36165 0
M  V30 3120 N 304.489 0.459591 1.5075 0
M  V30 3121 C 305.399 -0.34613 2.32033 0
M  V30 3122 C 306.415 -1.00686 1.41909 0
M  V30 3123 O 307.591 -0.997361 1.7497 0
M  V30 3124 C 304.656 -1.42029 3.16273 0
M  V30 3125 C 303.717 -0.777362 4.22203 0
M  V30 3126 C 302.95 -1.80034 5.02418 0
M  V30 3127 O 303.173 -3.02544 4.83553 0
M  V30 3128 O 302.107 -1.37853 5.85901 0
M  V30 3129 H 305.933 0.318054 3.0203 0
M  V30 3130 H 303.518 0.221663 1.47746 0
M  V30 3131 H 305.4 -2.04275 3.68578 0
M  V30 3132 H 304.075 -2.06815 2.49016 0
M  V30 3133 H 302.982 -0.116256 3.73919 0
M  V30 3134 H 304.315 -0.172634 4.91897 0
M  V30 3135 N 305.967 -1.56429 0.191757 0
M  V30 3136 C 306.93 -2.17707 -0.716688 0
M  V30 3137 C 307.93 -1.13061 -1.14341 0
M  V30 3138 O 309.12 -1.38464 -1.05704 0
M  V30 3139 C 306.252 -2.77644 -1.97804 0
M  V30 3140 H 307.445 -2.99342 -0.1829 0
M  V30 3141 H 304.998 -1.56193 -0.0578566 0
M  V30 3142 H 305.733 -1.99799 -2.55443 0
M  V30 3143 H 305.518 -3.54246 -1.68083 0
M  V30 3144 H 307.008 -3.24708 -2.62592 0
M  V30 3145 N 307.445 0.0818655 -1.57387 0
M  V30 3146 C 308.375 1.09885 -2.06028 0
M  V30 3147 C 309.356 1.4098 -0.951774 0
M  V30 3148 O 310.541 1.50781 -1.22387 0
M  V30 3149 C 307.671 2.4151 -2.4958 0
M  V30 3150 C 306.625 2.24792 -3.64215 0
M  V30 3151 C 305.951 3.61712 -3.93787 0
M  V30 3152 C 307.251 1.67749 -4.94629 0
M  V30 3153 H 308.945 0.694128 -2.91243 0
M  V30 3154 H 306.491 0.332448 -1.4011 0
M  V30 3155 H 308.444 3.12939 -2.82219 0
M  V30 3156 H 307.168 2.83943 -1.61381 0
M  V30 3157 H 305.827 1.55807 -3.31843 0
M  V30 3158 H 305.475 4.01697 -3.02735 0
M  V30 3159 H 305.175 3.51368 -4.70971 0
M  V30 3160 H 306.699 4.34587 -4.28913 0
M  V30 3161 H 308.113 2.29032 -5.25564 0
M  V30 3162 H 306.51 1.68128 -5.76067 0
M  V30 3163 H 307.58 0.638059 -4.80684 0
M  V30 3164 N 308.923 1.53595 0.353017 0
M  V30 3165 C 309.87 1.80919 1.43308 0
M  V30 3166 C 310.84 0.654288 1.5267 0
M  V30 3167 O 312.025 0.897759 1.6836 0
M  V30 3168 C 309.165 2.01605 2.80089 0
M  V30 3169 C 308.278 3.29321 2.79593 0
M  V30 3170 C 307.413 3.40125 4.0803 0
M  V30 3171 C 306.452 4.61826 4.01725 0
M  V30 3172 N 305.589 4.69716 5.21834 0
M  V30 3173 H 310.429 2.73074 1.19308 0
M  V30 3174 H 307.966 1.35263 0.578131 0
M  V30 3175 H 309.924 2.11586 3.59565 0
M  V30 3176 H 308.554 1.12772 3.0246 0
M  V30 3177 H 307.606 3.28229 1.92276 0
M  V30 3178 H 308.918 4.18884 2.70809 0
M  V30 3179 H 308.072 3.49488 4.95927 0
M  V30 3180 H 306.811 2.48601 4.19582 0
M  V30 3181 H 305.816 4.52552 3.12213 0
M  V30 3182 H 307.041 5.54705 3.91764 0
M  V30 3183 H 304.987 3.81097 5.33948 0
M  V30 3184 H 304.904 5.53202 5.1527 0
M  V30 3185 H 306.172 4.83376 6.11529 0
M  V30 3186 N 310.401 -0.613514 1.45168 0
M  V30 3187 C 311.364 -1.7065 1.53007 0
M  V30 3188 C 312.364 -1.5548 0.410184 0
M  V30 3189 O 313.554 -1.60656 0.673455 0
M  V30 3190 C 310.686 -3.09875 1.42093 0
M  V30 3191 H 311.879 -1.65068 2.50385 0
M  V30 3192 H 309.432 -0.828728 1.32521 0
M  V30 3193 H 310.167 -3.21039 0.458769 0
M  V30 3194 H 309.952 -3.22293 2.23315 0
M  V30 3195 H 311.442 -3.895 1.50598 0
M  V30 3196 N 311.879 -1.3236 -0.855495 0
M  V30 3197 C 312.789 -1.23221 -1.99634 0
M  V30 3198 C 313.805 -0.145983 -1.73387 0
M  V30 3199 O 314.981 -0.366502 -1.98037 0
M  V30 3200 C 312.046 -0.954782 -3.33294 0
M  V30 3201 C 311.107 -2.12937 -3.72769 0
M  V30 3202 C 310.34 -1.86508 -5.00051 0
M  V30 3203 O 310.563 -0.807231 -5.64659 0
M  V30 3204 O 309.497 -2.72591 -5.36636 0
M  V30 3205 H 313.323 -2.19126 -2.1028 0
M  V30 3206 H 310.908 -1.12241 -0.986018 0
M  V30 3207 H 312.79 -0.816519 -4.13414 0
M  V30 3208 H 311.465 -0.0258854 -3.2369 0
M  V30 3209 H 310.372 -2.3231 -2.93228 0
M  V30 3210 H 311.705 -3.04102 -3.87018 0
M  V30 3211 N 313.357 1.07166 -1.15556 0
M  V30 3212 C 314.304 2.14417 -0.854055 0
M  V30 3213 C 315.274 1.64965 0.193806 0
M  V30 3214 O 316.459 1.90703 0.0609443 0
M  V30 3215 C 313.599 3.43304 -0.351574 0
M  V30 3216 C 312.712 4.06537 -1.46123 0
M  V30 3217 C 311.847 5.23266 -0.914677 0
M  V30 3218 C 310.886 5.78464 -2.00114 0
M  V30 3219 N 310.023 6.86521 -1.47083 0
M  V30 3220 H 314.863 2.39548 -1.77259 0
M  V30 3221 H 312.4 1.17543 -0.884425 0
M  V30 3222 H 314.358 4.17179 -0.0419409 0
M  V30 3223 H 312.988 3.18419 0.530037 0
M  V30 3224 H 312.04 3.30297 -1.88701 0
M  V30 3225 H 313.352 4.43567 -2.28144 0
M  V30 3226 H 312.506 6.04131 -0.557698 0
M  V30 3227 H 311.245 4.87658 -0.0636583 0
M  V30 3228 H 310.25 4.96243 -2.36692 0
M  V30 3229 H 311.475 6.16126 -2.85597 0
M  V30 3230 H 309.421 6.52849 -0.642198 0
M  V30 3231 H 309.338 7.22446 -2.22729 0
M  V30 3232 H 310.606 7.71087 -1.14215 0
M  V30 3233 N 314.835 0.952656 1.25548 0
M  V30 3234 C 315.765 0.489287 2.28316 0
M  V30 3235 C 316.746 -0.463359 1.63667 0
M  V30 3236 O 317.931 -0.36274 1.90782 0
M  V30 3237 C 315.061 -0.235603 3.465 0
M  V30 3238 C 314.015 0.631593 4.23314 0
M  V30 3239 C 313.341 -0.223923 5.34231 0
M  V30 3240 C 314.641 1.90871 4.86174 0
M  V30 3241 H 316.335 1.34822 2.67326 0
M  V30 3242 H 313.881 0.649728 1.28509 0
M  V30 3243 H 315.834 -0.570882 4.17515 0
M  V30 3244 H 314.558 -1.12877 3.06474 0
M  V30 3245 H 313.217 0.949929 3.54079 0
M  V30 3246 H 312.865 -1.11678 4.90446 0
M  V30 3247 H 312.565 0.35299 5.86539 0
M  V30 3248 H 314.089 -0.554214 6.0808 0
M  V30 3249 H 315.503 1.63997 5.49343 0
M  V30 3250 H 313.9 2.43112 5.4865 0
M  V30 3251 H 314.97 2.61304 4.08471 0
M  V30 3252 N 316.313 -1.40141 0.720998 0
M  V30 3253 C 317.246 -2.2819 0.020916 0
M  V30 3254 C 318.224 -1.43633 -0.762129 0
M  V30 3255 O 319.408 -1.7304 -0.747633 0
M  V30 3256 C 316.535 -3.24281 -0.977715 0
M  V30 3257 C 315.581 -4.25548 -0.284836 0
M  V30 3258 S 316.414 -5.26247 0.991169 0
M  V30 3259 C 317.57 -6.259 -0.0052214 0
M  V30 3260 H 317.803 -2.87218 0.767649 0
M  V30 3261 H 315.336 -1.45656 0.512233 0
M  V30 3262 H 317.294 -3.80167 -1.54865 0
M  V30 3263 H 315.955 -2.643 -1.69719 0
M  V30 3264 H 315.148 -4.93154 -1.03996 0
M  V30 3265 H 314.75 -3.73389 0.213684 0
M  V30 3266 H 317.042 -6.72143 -0.850279 0
M  V30 3267 H 317.985 -7.05224 0.637599 0
M  V30 3268 H 318.393 -5.63277 -0.371366 0
M  V30 3269 N 317.792 -0.46758 -1.50504 0
M  V30 3270 C 318.722 0.318381 -2.31319 0
M  V30 3271 C 319.703 0.993564 -1.38066 0
M  V30 3272 O 320.888 0.991411 -1.66987 0
M  V30 3273 C 318.018 1.40275 -3.17711 0
M  V30 3274 C 316.972 0.849373 -4.19487 0
M  V30 3275 C 316.298 2.03177 -4.94594 0
M  V30 3276 C 317.598 -0.136942 -5.2212 0
M  V30 3277 H 319.292 -0.356106 -2.97275 0
M  V30 3278 H 316.838 -0.172703 -1.42961 0
M  V30 3279 H 318.791 1.96004 -3.73042 0
M  V30 3280 H 317.515 2.10596 -2.49634 0
M  V30 3281 H 316.174 0.314076 -3.65252 0
M  V30 3282 H 315.822 2.72187 -4.22993 0
M  V30 3283 H 315.522 1.66774 -5.63436 0
M  V30 3284 H 317.046 2.59403 -5.52759 0
M  V30 3285 H 318.46 0.331056 -5.72343 0
M  V30 3286 H 316.857 -0.41507 -5.98663 0
M  V30 3287 H 317.927 -1.06398 -4.73083 0
M  V30 3288 N 319.27 1.56325 -0.20005 0
M  V30 3289 C 320.2 2.22318 0.713916 0
M  V30 3290 C 321.181 1.18788 1.21752 0
M  V30 3291 O 322.366 1.47309 1.26545 0
M  V30 3292 C 319.496 2.88639 1.93144 0
M  V30 3293 C 318.45 3.98457 1.56255 0
M  V30 3294 C 317.776 4.51967 2.85709 0
M  V30 3295 C 319.076 5.16612 0.768747 0
M  V30 3296 H 320.77 2.98952 0.163755 0
M  V30 3297 H 318.316 1.43792 0.0773219 0
M  V30 3298 H 320.269 3.33491 2.57608 0
M  V30 3299 H 318.993 2.09419 2.50621 0
M  V30 3300 H 317.652 3.54305 0.941471 0
M  V30 3301 H 317.3 3.69503 3.41287 0
M  V30 3302 H 317 5.26071 2.6177 0
M  V30 3303 H 318.524 4.99523 3.51154 0
M  V30 3304 H 319.938 5.57977 1.3166 0
M  V30 3305 H 318.335 5.96812 0.627286 0
M  V30 3306 H 319.405 4.84358 -0.229168 0
M  V30 3307 N 320.748 -0.0735177 1.57428 0
M  V30 3308 C 321.976 -0.785969 1.9139 0
M  V30 3309 C 322.391 -1.71207 0.795847 0
M  V30 3310 O 321.748 -1.81033 -0.230915 0
M  V30 3311 C 321.799 -1.58107 3.25091 0
M  V30 3312 O 321.52 -0.6922 4.32597 0
M  V30 3313 C 323.021 -2.39467 3.73055 0
M  V30 3314 H 320.241 -0.223558 0.632663 0
M  V30 3315 H 322.785 -0.044302 2.04452 0
M  V30 3316 H 320.94 -2.27503 3.13562 0
M  V30 3317 H 321.354 -1.24504 5.09508 0
M  V30 3318 H 322.828 -2.90716 4.69242 0
M  V30 3319 H 323.305 -3.18913 3.01979 0
M  V30 3320 H 323.911 -1.7523 3.87523 0
M  V30 3321 N 322.226 -1.5378 -0.344866 0
M  V30 3322 C 323.174 -1.82373 -1.4437 0
M  V30 3323 C 324.168 -0.694128 -1.54526 0
M  V30 3324 O 325.374 -0.877442 -1.57165 0
M  V30 3325 H 321.749 -0.577765 -0.481344 0
M  V30 3326 H 323.72 -2.74306 -1.17468 0
M  V30 3327 C 322.469 -2.04898 -2.80913 0
M  V30 3328 H 321.792 -2.9127 -2.73865 0
M  V30 3329 H 323.232 -2.28871 -3.56923 0
M  V30 3330 C 321.691 -0.834116 -3.26411 0
M  V30 3331 O 322.221 -0.0328885 -4.01687 0
M  V30 3332 N 320.427 -0.65171 -2.83198 0
M  V30 3333 H 319.974 -1.30489 -2.22104 0
M  V30 3334 H 319.932 0.159686 -3.13994 0
M  V30 3335 N 323.704 0.605807 -1.45491 0
M  V30 3336 C 324.953 1.36086 -1.48874 0
M  V30 3337 C 325.266 1.95131 -0.135333 0
M  V30 3338 O 326.472 2.7146 -0.0468144 0
M  V30 3339 C 324.928 2.46518 -2.62215 0
M  V30 3340 C 324.536 1.93877 -4.03876 0
M  V30 3341 C 326.28 3.23512 -2.74846 0
M  V30 3342 C 324.187 3.01801 -5.08596 0
M  V30 3343 H 323.117 0.511497 -0.553974 0
M  V30 3344 H 325.768 0.649089 -1.71636 0
M  V30 3345 H 324.15 3.20388 -2.32739 0
M  V30 3346 H 325.324 1.26704 -4.43038 0
M  V30 3347 H 323.639 1.29622 -3.95711 0
M  V30 3348 H 326.236 4.04013 -3.50253 0
M  V30 3349 H 326.579 3.74631 -1.81542 0
M  V30 3350 H 327.112 2.56742 -3.03856 0
M  V30 3351 H 323.851 2.55597 -6.03614 0
M  V30 3352 H 323.371 3.67535 -4.74002 0
M  V30 3353 H 325.05 3.66152 -5.33424 0
M  V30 3354 N 325.182 1.32811 0.848464 0
M  V30 3355 C 326.145 1.22194 1.9391 0
M  V30 3356 C 327.145 0.143404 1.60159 0
M  V30 3357 O 328.335 0.394253 1.6968 0
M  V30 3358 C 325.467 0.88067 3.29328 0
M  V30 3359 H 326.66 2.19127 2.04752 0
M  V30 3360 H 324.213 1.16731 1.0394 0
M  V30 3361 H 324.948 -0.0865776 3.24184 0
M  V30 3362 H 324.733 1.66052 3.55203 0
M  V30 3363 H 326.223 0.830871 4.09251 0
M  V30 3364 N 326.66 -1.06551 1.16123 0
M  V30 3365 C 327.908 -1.78947 0.939267 0
M  V30 3366 C 328.229 -1.87532 -0.534476 0
M  V30 3367 O 327.499 -1.38211 -1.38833 0
M  V30 3368 H 326.079 -0.662807 0.344523 0
M  V30 3369 H 328.741 -1.28725 1.46342 0
M  V30 3370 H 327.837 -2.81117 1.35572 0
M  V30 3371 N 328.138 -0.959301 -1.25041 0
M  V30 3372 C 329.068 -0.501388 -2.28053 0
M  V30 3373 C 330.049 0.454673 -1.63911 0
M  V30 3374 O 331.234 0.352618 -1.90972 0
M  V30 3375 C 328.364 0.217224 -3.4662 0
M  V30 3376 C 327.318 -0.654034 -4.22973 0
M  V30 3377 C 326.644 0.195589 -5.34342 0
M  V30 3378 C 327.944 -1.93447 -4.85155 0
M  V30 3379 H 329.638 -1.36238 -2.66608 0
M  V30 3380 H 327.184 -0.656534 -1.28163 0
M  V30 3381 H 329.137 0.548732 -4.17812 0
M  V30 3382 H 327.861 1.1125 -3.07068 0
M  V30 3383 H 326.52 -0.968693 -3.5357 0
M  V30 3384 H 326.168 1.09076 -4.91031 0
M  V30 3385 H 325.868 -0.384091 -5.86343 0
M  V30 3386 H 327.392 0.521958 -6.08365 0
M  V30 3387 H 328.806 -1.66908 -5.48466 0
M  V30 3388 H 327.203 -2.46018 -5.47353 0
M  V30 3389 H 328.273 -2.63466 -4.07079 0
M  V30 3390 N 329.616 1.39756 -0.72842 0
M  V30 3391 C 330.549 2.28176 -0.0330172 0
M  V30 3392 C 331.527 1.44035 0.754501 0
M  V30 3393 O 332.711 1.73434 0.738445 0
M  V30 3394 C 329.838 3.24795 0.960504 0
M  V30 3395 C 328.884 4.25693 0.262264 0
M  V30 3396 S 329.717 5.25714 -1.01906 0
M  V30 3397 C 330.873 6.25894 -0.0279717 0
M  V30 3398 H 331.106 2.86807 -0.78287 0
M  V30 3399 H 328.639 1.45382 -0.519951 0
M  V30 3400 H 330.597 3.80983 1.52846 0
M  V30 3401 H 329.258 2.65196 1.68315 0
M  V30 3402 H 328.451 4.93699 1.01379 0
M  V30 3403 H 328.053 3.7327 -0.233482 0
M  V30 3404 H 330.345 6.72585 0.814621 0
M  V30 3405 H 331.288 7.04876 -0.67499 0
M  V30 3406 H 331.696 5.63466 0.341489 0
M  V30 3407 N 331.094 0.475555 1.50254 0
M  V30 3408 C 332.371 -0.139685 1.95101 0
M  V30 3409 C 332.751 -1.56555 1.41611 0
M  V30 3410 O 332.099 -2.19956 0.618993 0
M  V30 3411 C 332.309 -0.0784298 3.48912 0
M  V30 3412 C 333.657 -0.265095 4.23772 0
M  V30 3413 O 334.681 -0.154808 3.55863 0
M  V30 3414 O 333.54 -0.488327 5.44314 0
M  V30 3415 H 330.634 -0.109236 0.819754 0
M  V30 3416 H 333.18 0.536276 1.61004 0
M  V30 3417 H 331.952 0.916918 3.80405 0
M  V30 3418 H 331.575 -0.795655 3.89558 0
M  V30 3419 N 332.573 -1.56217 0.208337 0
M  V30 3420 C 333.52 -2.19699 -0.707192 0
M  V30 3421 C 334.49 -1.14836 -1.20008 0
M  V30 3422 O 335.675 -1.4314 -1.26157 0
M  V30 3423 C 332.815 -2.87061 -1.91546 0
M  V30 3424 C 331.928 -4.06483 -1.46271 0
M  V30 3425 C 331.063 -4.61665 -2.62752 0
M  V30 3426 C 330.102 -5.73417 -2.14147 0
M  V30 3427 N 329.239 -6.22948 -3.23853 0
M  V30 3428 H 334.079 -2.97575 -0.159111 0
M  V30 3429 H 331.616 -1.46948 -0.0667874 0
M  V30 3430 H 333.574 -3.24294 -2.62468 0
M  V30 3431 H 332.204 -2.11725 -2.43664 0
M  V30 3432 H 331.256 -3.74825 -0.648886 0
M  V30 3433 H 332.568 -4.87271 -1.06622 0
M  V30 3434 H 331.722 -5.01272 -3.41776 0
M  V30 3435 H 330.461 -3.80013 -3.05682 0
M  V30 3436 H 329.466 -5.33326 -1.33581 0
M  V30 3437 H 330.691 -6.56897 -1.72232 0
M  V30 3438 H 328.637 -5.44213 -3.6629 0
M  V30 3439 H 328.554 -6.98823 -2.88414 0
M  V30 3440 H 329.822 -6.6721 -4.03052 0
M  V30 3441 N 334.051 0.0651679 -1.57465 0
M  V30 3442 C 334.983 1.10359 -2.00882 0
M  V30 3443 C 335.996 1.346 -0.915788 0
M  V30 3444 O 337.185 1.32723 -1.1936 0
M  V30 3445 C 334.285 2.45312 -2.33828 0
M  V30 3446 C 333.458 2.40934 -3.65061 0
M  V30 3447 C 332.517 3.58047 -3.85602 0
M  V30 3448 O 331.543 3.39175 -4.57109 0
M  V30 3449 N 332.745 4.78637 -3.28462 0
M  V30 3450 H 335.51 0.733807 -2.90578 0
M  V30 3451 H 333.071 0.253719 -1.599 0
M  V30 3452 H 335.063 3.22314 -2.44737 0
M  V30 3453 H 333.633 2.74267 -1.49988 0
M  V30 3454 H 332.853 1.49273 -3.64844 0
M  V30 3455 H 334.141 2.35117 -4.51218 0
M  V30 3456 H 333.539 4.96872 -2.70433 0
M  V30 3457 H 332.096 5.53127 -3.44809 0
M  V30 3458 N 335.529 1.53961 0.336706 0
M  V30 3459 C 336.777 1.71197 1.07405 0
M  V30 3460 C 337.098 0.481475 1.88962 0
M  V30 3461 O 336.368 -0.504585 1.8929 0
M  V30 3462 H 334.948 0.631185 0.399517 0
M  V30 3463 H 337.61 1.91232 0.376323 0
M  V30 3464 H 336.706 2.58587 1.74755 0
M  V30 3465 N 337.007 -0.598083 1.45811 0
M  V30 3466 C 337.939 -1.72231 1.51225 0
M  V30 3467 C 338.952 -1.57757 0.402059 0
M  V30 3468 O 340.141 -1.65464 0.669624 0
M  V30 3469 C 337.241 -3.10331 1.3619 0
M  V30 3470 C 336.414 -3.50955 2.61054 0
M  V30 3471 C 335.473 -4.68055 2.40439 0
M  V30 3472 O 334.499 -4.74691 3.14097 0
M  V30 3473 N 335.701 -5.61941 1.45612 0
M  V30 3474 H 338.466 -1.68046 2.48154 0
M  V30 3475 H 336.027 -0.783637 1.41671 0
M  V30 3476 H 338.019 -3.86439 1.20195 0
M  V30 3477 H 336.589 -3.0897 0.475015 0
M  V30 3478 H 335.809 -2.64711 2.92099 0
M  V30 3479 H 337.097 -3.74858 3.44034 0
M  V30 3480 H 336.495 -5.59301 0.848431 0
M  V30 3481 H 335.052 -6.37542 1.35585 0
M  V30 3482 N 338.485 -1.33259 -0.841409 0
M  V30 3483 C 339.731 -1.24757 -1.59886 0
M  V30 3484 C 340.064 0.186913 -1.93298 0
M  V30 3485 O 339.339 1.12757 -1.5848 0
M  V30 3486 C 339.622 -2.12036 -2.91055 0
M  V30 3487 C 339.475 -3.63929 -2.6434 0
M  V30 3488 C 340.794 -1.9916 -3.92458 0
M  V30 3489 H 337.913 -0.454542 -0.580138 0
M  V30 3490 H 340.555 -1.63335 -0.970647 0
M  V30 3491 H 338.705 -1.79265 -3.44669 0
M  V30 3492 H 340.377 -4.06978 -2.17178 0
M  V30 3493 H 338.62 -3.85935 -1.98082 0
M  V30 3494 H 339.291 -4.20341 -3.57796 0
M  V30 3495 H 341.767 -2.27895 -3.48143 0
M  V30 3496 H 340.643 -2.62484 -4.82072 0
M  V30 3497 H 340.904 -0.963082 -4.31482 0
M  V30 3498 N 339.963 1.05934 -1.16686 0
M  V30 3499 C 340.893 2.1546 -0.899949 0
M  V30 3500 C 341.874 1.69391 0.155154 0
M  V30 3501 O 343.059 1.94199 0.00648693 0
M  V30 3502 C 340.189 3.44939 -0.404241 0
M  V30 3503 C 339.143 4.04536 -1.39767 0
M  V30 3504 C 338.469 5.29268 -0.760216 0
M  V30 3505 C 339.769 4.42893 -2.76845 0
M  V30 3506 H 341.463 2.38046 -1.81588 0
M  V30 3507 H 339.009 1.14404 -0.874514 0
M  V30 3508 H 340.962 4.20901 -0.204971 0
M  V30 3509 H 339.686 3.21983 0.547206 0
M  V30 3510 H 338.345 3.30635 -1.58355 0
M  V30 3511 H 337.993 5.02611 0.197831 0
M  V30 3512 H 337.693 5.70101 -1.42332 0
M  V30 3513 H 339.217 6.07924 -0.57105 0
M  V30 3514 H 340.631 5.09921 -2.62019 0
M  V30 3515 H 339.028 4.94721 -3.39663 0
M  V30 3516 H 340.098 3.53584 -3.31823 0
M  V30 3517 N 341.441 0.965919 1.2453 0
M  V30 3518 C 342.669 0.644385 1.96609 0
M  V30 3519 C 343.084 -0.785823 1.71669 0
M  V30 3520 O 342.441 -1.52703 0.999399 0
M  V30 3521 C 342.492 0.907375 3.49927 0
M  V30 3522 O 342.213 2.28136 3.74013 0
M  V30 3523 C 343.714 0.599784 4.39224 0
M  V30 3524 H 340.934 0.240588 0.626385 0
M  V30 3525 H 343.478 1.29337 1.58405 0
M  V30 3526 H 341.633 0.304631 3.862 0
M  V30 3527 H 342.047 2.36002 4.68405 0
M  V30 3528 H 343.521 0.834263 5.45659 0
M  V30 3529 H 343.998 -0.465921 4.36722 0
M  V30 3530 H 344.604 1.18235 4.08535 0
M  V30 3531 N 342.919 -1.39368 0.735821 0
M  V30 3532 C 344.167 -2.00101 0.283562 0
M  V30 3533 C 344.488 -1.5868 -1.13338 0
M  V30 3534 O 343.758 -0.835423 -1.77193 0
M  V30 3535 H 342.338 -0.740024 0.101851 0
M  V30 3536 H 345 -1.70404 0.945962 0
M  V30 3537 H 344.096 -3.10323 0.332604 0
M  V30 3538 N 344.397 -0.483516 -1.5 0
M  V30 3539 C 345.327 0.293829 -2.31644 0
M  V30 3540 C 346.308 0.978864 -1.39112 0
M  V30 3541 O 347.493 0.973644 -1.68029 0
M  V30 3542 C 344.623 1.36897 -3.19181 0
M  V30 3543 C 343.577 0.804833 -4.20365 0
M  V30 3544 C 342.903 1.9792 -4.96721 0
M  V30 3545 C 344.203 -0.192313 -5.21946 0
M  V30 3546 H 345.897 -0.387616 -2.9688 0
M  V30 3547 H 343.443 -0.187856 -1.42769 0
M  V30 3548 H 345.396 1.92037 -3.751 0
M  V30 3549 H 344.12 2.07936 -2.51853 0
M  V30 3550 H 342.779 0.275319 -3.65565 0
M  V30 3551 H 342.427 2.67686 -4.25856 0
M  V30 3552 H 342.127 1.60789 -5.65173 0
M  V30 3553 H 343.651 2.53526 -5.55479 0
M  V30 3554 H 345.065 0.270333 -5.72662 0
M  V30 3555 H 343.462 -0.478543 -5.98189 0
M  V30 3556 H 344.532 -1.11409 -4.71928 0
M  V30 3557 N 345.875 1.56104 -0.216619 0
M  V30 3558 C 347.1 2.0301 0.424462 0
M  V30 3559 C 347.525 1.0955 1.52907 0
M  V30 3560 O 346.883 0.0827914 1.81111 0
M  V30 3561 C 346.931 3.4819 0.937883 0
M  V30 3562 O 346.035 3.57865 2.04955 0
M  V30 3563 H 345.376 0.656925 0.0966755 0
M  V30 3564 H 347.906 2.01859 -0.33381 0
M  V30 3565 H 347.916 3.88413 1.24897 0
M  V30 3566 H 346.591 4.15699 0.129387 0
M  V30 3567 H 345.168 3.29527 1.74546 0
M  V30 3568 N 347.353 -0.0568162 1.57498 0
M  V30 3569 C 348.581 -0.765626 1.92213 0
M  V30 3570 C 348.996 -1.70353 0.813961 0
M  V30 3571 O 348.353 -1.81268 -0.211701 0
M  V30 3572 C 348.404 -1.5465 3.2675 0
M  V30 3573 O 348.125 -0.646278 4.33307 0
M  V30 3574 C 349.626 -2.35497 3.75574 0
M  V30 3575 H 346.846 -0.216835 0.634999 0
M  V30 3576 H 349.39 -0.0226146 2.04487 0
M  V30 3577 H 347.545 -2.24165 3.15957 0
M  V30 3578 H 347.959 -1.19093 5.108 0
M  V30 3579 H 349.433 -2.85722 4.72299 0
M  V30 3580 H 349.91 -3.15692 3.05344 0
M  V30 3581 H 350.516 -1.7111 3.8936 0
M  V30 3582 N 348.832 -1.54138 -0.328536 0
M  V30 3583 C 349.742 -1.86192 -1.42723 0
M  V30 3584 C 350.758 -0.753382 -1.56844 0
M  V30 3585 O 351.934 -1.04718 -1.72035 0
M  V30 3586 C 348.999 -2.07824 -2.77507 0
M  V30 3587 C 348.06 -3.31641 -2.72603 0
M  V30 3588 C 347.293 -3.52232 -4.00959 0
M  V30 3589 O 347.516 -2.7636 -4.9898 0
M  V30 3590 O 346.45 -4.45699 -4.0452 0
M  V30 3591 H 350.276 -2.79608 -1.18547 0
M  V30 3592 H 347.861 -1.3998 -0.522104 0
M  V30 3593 H 349.743 -2.23411 -3.57303 0
M  V30 3594 H 348.418 -1.17596 -3.01584 0
M  V30 3595 H 347.325 -3.21444 -1.91376 0
M  V30 3596 H 348.658 -4.2191 -2.53481 0
M  V30 3597 N 350.31 0.590341 -1.46126 0
M  V30 3598 C 351.242 1.71427 -1.52136 0
M  V30 3599 C 352.255 1.57542 -0.41042 0
M  V30 3600 O 353.444 1.65106 -0.678389 0
M  V30 3601 C 350.544 3.09605 -1.37834 0
M  V30 3602 C 349.717 3.49566 -2.62912 0
M  V30 3603 C 348.776 4.66773 -2.42918 0
M  V30 3604 O 347.802 4.73019 -3.1661 0
M  V30 3605 N 349.004 5.61161 -1.4859 0
M  V30 3606 H 351.769 1.66728 -2.49042 0
M  V30 3607 H 349.33 0.776113 -1.42085 0
M  V30 3608 H 351.322 3.85796 -1.22243 0
M  V30 3609 H 349.892 3.08714 -0.491393 0
M  V30 3610 H 349.112 2.63158 -2.93499 0
M  V30 3611 H 350.4 3.73028 -3.46017 0
M  V30 3612 H 349.798 5.58844 -0.87808 0
M  V30 3613 H 348.355 6.36814 -1.38965 0
M  V30 3614 N 351.788 1.33704 0.83433 0
M  V30 3615 C 353.034 1.25603 1.59222 0
M  V30 3616 C 353.367 -0.176659 1.93395 0
M  V30 3617 O 352.642 -1.11915 1.59076 0
M  V30 3618 C 352.925 2.13576 2.89926 0
M  V30 3619 C 352.778 3.65326 2.62406 0
M  V30 3620 C 354.097 2.01238 3.91397 0
M  V30 3621 H 351.216 0.457613 0.577719 0
M  V30 3622 H 353.858 1.63848 0.961972 0
M  V30 3623 H 352.008 1.8109 3.43713 0
M  V30 3624 H 353.68 4.08124 2.15017 0
M  V30 3625 H 351.923 3.8698 1.96033 0
M  V30 3626 H 352.594 4.22232 3.55562 0
M  V30 3627 H 355.07 2.29738 3.46929 0
M  V30 3628 H 353.946 2.65036 4.80673 0
M  V30 3629 H 354.207 0.985951 4.30966 0
M  V30 3630 N 353.266 -1.05314 1.17247 0
M  V30 3631 C 354.214 -2.15137 0.884238 0
M  V30 3632 C 355.208 -1.68729 -0.15063 0
M  V30 3633 O 356.414 -1.8 -0.00366673 0
M  V30 3634 H 352.789 -0.702471 0.2684 0
M  V30 3635 H 354.76 -2.36652 1.81764 0
M  V30 3636 C 353.509 -3.45243 0.412659 0
M  V30 3637 H 352.832 -3.81352 1.20043 0
M  V30 3638 H 354.272 -4.23263 0.249858 0
M  V30 3639 C 352.731 -3.25487 -0.86948 0
M  V30 3640 O 353.261 -3.51938 -1.93655 0
M  V30 3641 N 351.467 -2.78875 -0.817147 0
M  V30 3642 H 351.014 -2.57549 0.0514211 0
M  V30 3643 H 350.972 -2.66036 -1.67547 0
M  V30 3644 N 354.744 -0.972509 -1.24016 0
M  V30 3645 C 355.654 -0.5143 -2.28893 0
M  V30 3646 C 356.67 0.427078 -1.68677 0
M  V30 3647 O 357.846 0.298939 -1.99169 0
M  V30 3648 C 354.911 0.183598 -3.46214 0
M  V30 3649 C 353.972 -0.798202 -4.21814 0
M  V30 3650 C 353.205 -0.133514 -5.33533 0
M  V30 3651 O 353.428 1.07714 -5.60137 0
M  V30 3652 O 352.362 -0.828103 -5.96176 0
M  V30 3653 H 356.188 -1.38629 -2.70214 0
M  V30 3654 H 353.773 -0.739769 -1.29799 0
M  V30 3655 H 355.655 0.575433 -4.17453 0
M  V30 3656 H 354.33 1.03048 -3.0686 0
M  V30 3657 H 353.237 -1.24059 -3.52931 0
M  V30 3658 H 354.57 -1.61364 -4.64997 0
M  V30 3659 N 356.222 1.38976 -0.743202 0
M  V30 3660 C 357.152 2.33171 -0.123873 0
M  V30 3661 C 358.133 1.54336 0.71516 0
M  V30 3662 O 359.318 1.82696 0.658467 0
M  V30 3663 C 356.448 3.38474 0.777978 0
M  V30 3664 C 355.402 4.27979 0.0424758 0
M  V30 3665 C 354.728 5.2405 1.06189 0
M  V30 3666 C 356.028 5.10155 -1.1198 0
M  V30 3667 H 357.722 2.85213 -0.910709 0
M  V30 3668 H 355.268 1.37133 -0.439388 0
M  V30 3669 H 357.221 4.03328 1.22084 0
M  V30 3670 H 355.945 2.84891 1.59702 0
M  V30 3671 H 354.604 3.64616 -0.380853 0
M  V30 3672 H 354.252 4.66758 1.87472 0
M  V30 3673 H 353.952 5.84785 0.574485 0
M  V30 3674 H 355.476 5.9178 1.50428 0
M  V30 3675 H 356.89 5.68307 -0.75499 0
M  V30 3676 H 355.287 5.80073 -1.53738 0
M  V30 3677 H 356.357 4.44504 -1.93764 0
M  V30 3678 N 357.7 0.491464 1.49741 0
M  V30 3679 C 358.949 -0.0582189 2.01616 0
M  V30 3680 C 359.262 -1.38927 1.3769 0
M  V30 3681 O 360.468 -2.02509 1.80838 0
M  V30 3682 C 358.924 -0.154235 3.59569 0
M  V30 3683 C 358.532 1.1696 4.32463 0
M  V30 3684 C 360.276 -0.65479 4.1942 0
M  V30 3685 C 358.183 1.03627 5.8225 0
M  V30 3686 H 357.113 -0.0255317 0.753568 0
M  V30 3687 H 359.764 0.629445 1.72367 0
M  V30 3688 H 358.146 -0.906138 3.85493 0
M  V30 3689 H 359.32 1.93405 4.18248 0
M  V30 3690 H 357.635 1.60285 3.84315 0
M  V30 3691 H 360.232 -0.771903 5.29099 0
M  V30 3692 H 360.575 -1.65127 3.8215 0
M  V30 3693 H 361.108 0.040304 3.9778 0
M  V30 3694 H 357.847 2.00672 6.24028 0
M  V30 3695 H 357.367 0.312546 5.98985 0
M  V30 3696 H 359.046 0.711114 6.4308 0
M  V30 3697 N 359.178 -1.55987 0.224894 0
M  V30 3698 C 360.141 -2.19178 -0.670348 0
M  V30 3699 C 361.141 -1.15461 -1.11917 0
M  V30 3700 O 362.331 -1.40675 -1.02743 0
M  V30 3701 C 359.463 -2.81777 -1.9187 0
M  V30 3702 H 360.656 -2.99662 -0.119364 0
M  V30 3703 H 358.209 -1.5628 -0.0247128 0
M  V30 3704 H 358.944 -2.05172 -2.51147 0
M  V30 3705 H 358.729 -3.57732 -1.60531 0
M  V30 3706 H 360.219 -3.30205 -2.55645 0
M  V30 3707 N 360.656 0.0484629 -1.57525 0
M  V30 3708 C 361.933 0.777447 -1.79486 0
M  V30 3709 C 362.313 1.94597 -0.818251 0
M  V30 3710 O 361.661 2.28047 0.143767 0
M  V30 3711 C 361.871 1.22864 -3.26658 0
M  V30 3712 C 363.219 1.65251 -3.91123 0
M  V30 3713 O 364.243 1.32372 -3.3069 0
M  V30 3714 O 363.102 2.26207 -4.97486 0
M  V30 3715 H 360.196 0.374357 -0.737419 0
M  V30 3716 H 362.742 0.0267359 -1.69679 0
M  V30 3717 H 361.514 0.393589 -3.89316 0
M  V30 3718 H 361.137 2.03996 -3.41279 0
M  V30 3719 N 362.134 1.5431 0.320358 0
M  V30 3720 C 363.382 1.72327 1.05583 0
M  V30 3721 C 363.703 0.50149 1.88441 0
M  V30 3722 O 362.973 -0.48448 1.89815 0
M  V30 3723 H 361.553 0.635387 0.3928 0
M  V30 3724 H 364.215 1.91621 0.356019 0
M  V30 3725 H 363.311 2.60426 1.72003 0
M  V30 3726 N 363.613 -0.582584 1.46437 0
M  V30 3727 C 364.841 -1.36682 1.55324 0
M  V30 3728 C 365.256 -1.87796 0.194409 0
M  V30 3729 O 364.613 -1.63623 -0.808318 0
M  V30 3730 C 364.664 -2.55426 2.55812 0
M  V30 3731 O 364.385 -2.0643 3.86417 0
M  V30 3732 C 365.886 -3.47976 2.74641 0
M  V30 3733 H 363.106 -0.417545 0.525259 0
M  V30 3734 H 365.65 -0.708219 1.91845 0
M  V30 3735 H 363.805 -3.17275 2.22295 0
M  V30 3736 H 364.219 -2.83762 4.41111 0
M  V30 3737 H 365.693 -4.27775 3.48874 0
M  V30 3738 H 366.17 -3.99919 1.81553 0
M  V30 3739 H 366.776 -2.91962 3.09255 0
M  V30 3740 N 365.091 -1.34144 -0.827227 0
M  V30 3741 C 366.34 -1.25602 -1.5782 0
M  V30 3742 C 366.653 0.173445 -1.94829 0
M  V30 3743 O 367.859 0.380984 -2.68814 0
M  V30 3744 C 366.315 -2.20151 -2.84713 0
M  V30 3745 C 365.923 -3.68331 -2.55021 0
M  V30 3746 C 367.667 -2.20508 -3.62735 0
M  V30 3747 C 365.574 -4.54762 -3.78082 0
M  V30 3748 H 364.504 -0.466573 -0.592306 0
M  V30 3749 H 367.155 -1.59283 -0.911116 0
M  V30 3750 H 365.537 -1.79417 -3.53023 0
M  V30 3751 H 366.711 -4.17577 -1.94849 0
M  V30 3752 H 365.026 -3.7038 -1.90283 0
M  V30 3753 H 367.623 -2.82306 -4.54101 0
M  V30 3754 H 367.966 -1.20322 -3.98533 0
M  V30 3755 H 368.499 -2.59664 -3.01362 0
M  V30 3756 H 365.238 -5.55867 -3.47407 0
M  V30 3757 H 364.758 -4.10254 -4.37552 0
M  V30 3758 H 366.437 -4.69153 -4.45538 0
M  V30 3759 N 366.569 1.04691 -1.17803 0
M  V30 3760 C 367.799 1.81183 -0.992788 0
M  V30 3761 C 368.207 1.8347 0.462098 0
M  V30 3762 O 367.55 1.2643 1.33271 0
M  V30 3763 C 367.612 3.28363 -1.46349 0
M  V30 3764 C 367.276 3.49749 -2.94151 0
M  V30 3765 C 368.273 3.41456 -3.92051 0
M  V30 3766 C 365.958 3.76548 -3.32441 0
M  V30 3767 C 367.952 3.59656 -5.26238 0
M  V30 3768 C 365.639 3.94396 -4.66792 0
M  V30 3769 C 366.637 3.8595 -5.635 0
M  V30 3770 O 366.325 4.03294 -6.9542 0
M  V30 3771 H 366.057 0.577622 -0.351182 0
M  V30 3772 H 368.611 1.32876 -1.5663 0
M  V30 3773 H 366.841 3.77609 -0.833574 0
M  V30 3774 H 368.53 3.86395 -1.24313 0
M  V30 3775 H 369.296 3.20723 -3.63815 0
M  V30 3776 H 365.175 3.82224 -2.57732 0
M  V30 3777 H 368.719 3.52979 -6.01707 0
M  V30 3778 H 364.616 4.14622 -4.94731 0
M  V30 3779 H 365.384 4.2049 -7.02232 0
M  V30 3780 N 368.047 0.979072 1.23499 0
M  V30 3781 C 369.295 0.645941 1.91499 0
M  V30 3782 C 369.616 -0.822948 1.76784 0
M  V30 3783 O 368.886 -1.58854 1.14639 0
M  V30 3784 H 367.466 0.235919 0.708767 0
M  V30 3785 H 370.128 1.2426 1.50152 0
M  V30 3786 H 369.224 0.896411 2.9895 0
M  V30 3787 N 369.525 -1.3858 0.750561 0
M  V30 3788 C 370.773 -1.99789 0.30477 0
M  V30 3789 C 371.094 -1.59874 -1.11649 0
M  V30 3790 O 370.364 -0.85417 -1.76297 0
M  V30 3791 H 368.944 -0.738902 0.109694 0
M  V30 3792 H 371.606 -1.69391 0.963983 0
M  V30 3793 H 370.702 -3.09952 0.365499 0
M  V30 3794 N 371.003 -0.499398 -1.49478 0
M  V30 3795 C 371.936 0.326491 -2.25852 0
M  V30 3796 C 372.914 0.971776 -1.30366 0
M  V30 3797 O 374.098 1.00219 -1.59651 0
M  V30 3798 C 371.225 1.45969 -3.05632 0
M  V30 3799 C 370.271 0.928938 -4.16261 0
M  V30 3800 S 371.104 -0.179012 -5.35201 0
M  V30 3801 C 372.26 0.957389 -6.18534 0
M  V30 3802 H 372.493 -0.321746 -2.95554 0
M  V30 3803 H 370.026 -0.284674 -1.51753 0
M  V30 3804 H 371.984 2.109 -3.52181 0
M  V30 3805 H 370.645 2.07953 -2.35402 0
M  V30 3806 H 369.838 1.77813 -4.71592 0
M  V30 3807 H 369.44 0.356869 -3.72293 0
M  V30 3808 H 371.732 1.86296 -6.51383 0
M  V30 3809 H 372.675 0.442733 -7.06715 0
M  V30 3810 H 373.083 1.224 -5.5107 0
M  V30 3811 N 372.481 1.55866 -0.233164 0
M  V30 3812 C 373.411 2.23783 0.666599 0
M  V30 3813 C 374.392 1.21343 1.19205 0
M  V30 3814 O 375.577 1.4996 1.23392 0
M  V30 3815 C 372.707 2.92671 1.86978 0
M  V30 3816 C 371.661 4.01682 1.47768 0
M  V30 3817 C 370.987 4.57926 2.76058 0
M  V30 3818 C 372.287 5.18126 0.658993 0
M  V30 3819 H 373.981 2.99232 0.100306 0
M  V30 3820 H 371.527 1.43924 0.046804 0
M  V30 3821 H 373.48 3.3888 2.50476 0
M  V30 3822 H 372.204 2.14688 2.46123 0
M  V30 3823 H 370.863 3.56222 0.866106 0
M  V30 3824 H 370.511 3.76659 3.33372 0
M  V30 3825 H 370.211 5.31505 2.50552 0
M  V30 3826 H 371.735 5.06859 3.40479 0
M  V30 3827 H 373.149 5.60644 1.19795 0
M  V30 3828 H 371.546 5.98009 0.500552 0
M  V30 3829 H 372.616 4.83763 -0.331856 0
M  V30 3830 N 373.959 -0.0401083 1.57549 0
M  V30 3831 C 375.37 -0.588097 1.77196 0
M  V30 3832 C 375.721 -1.76209 0.862832 0
M  V30 3833 O 374.846 -2.16331 0.0548389 0
M  V30 3834 C 375.441 -1.07363 3.21339 0
M  V30 3835 C 374 -1.56723 3.42221 0
M  V30 3836 C 373.147 -0.50041 2.72747 0
M  V30 3837 H 376.098 0.186119 1.57605 0
M  V30 3838 H 376.119 -1.94143 3.27244 0
M  V30 3839 H 375.631 -0.218975 3.87482 0
M  V30 3840 H 373.732 -2.4441 2.81237 0
M  V30 3841 H 373.845 -1.62234 4.50796 0
M  V30 3842 H 372.209 -0.952894 2.36203 0
M  V30 3843 H 372.992 0.344599 3.41566 0
M  V30 3844 N 375.437 -1.54477 -0.31217 0
M  V30 3845 C 376.384 -1.84655 -1.38461 0
M  V30 3846 C 377.354 -0.694536 -1.50882 0
M  V30 3847 O 378.539 -0.942081 -1.6592 0
M  V30 3848 C 375.679 -2.0896 -2.74645 0
M  V30 3849 C 374.792 -3.36618 -2.70763 0
M  V30 3850 C 373.927 -3.50824 -3.98868 0
M  V30 3851 C 372.966 -4.72315 -3.89339 0
M  V30 3852 N 372.103 -4.83387 -5.09197 0
M  V30 3853 H 376.943 -2.76142 -1.12026 0
M  V30 3854 H 374.48 -1.36748 -0.542065 0
M  V30 3855 H 376.438 -2.21045 -3.53829 0
M  V30 3856 H 375.068 -1.20752 -2.99364 0
M  V30 3857 H 374.12 -3.33211 -1.83506 0
M  V30 3858 H 375.432 -4.25917 -2.59608 0
M  V30 3859 H 374.586 -3.62513 -4.86486 0
M  V30 3860 H 373.325 -2.59638 -4.12843 0
M  V30 3861 H 372.33 -4.6067 -3.00105 0
M  V30 3862 H 373.555 -5.64897 -3.76919 0
M  V30 3863 H 371.501 -3.9512 -5.23657 0
M  V30 3864 H 371.418 -5.66669 -5.00422 0
M  V30 3865 H 372.686 -4.9942 -5.98498 0
M  V30 3866 N 376.915 0.57481 -1.46744 0
M  V30 3867 C 378.164 1.32898 -1.51727 0
M  V30 3868 C 378.477 1.948 -0.176692 0
M  V30 3869 O 379.683 2.71299 -0.104385 0
M  V30 3870 C 378.139 2.40901 -2.67385 0
M  V30 3871 C 377.747 1.85266 -4.07898 0
M  V30 3872 C 379.491 3.17609 -2.81646 0
M  V30 3873 C 377.398 2.90945 -5.14883 0
M  V30 3874 H 376.328 0.499631 -0.564699 0
M  V30 3875 H 378.979 0.612536 -1.72975 0
M  V30 3876 H 377.361 3.15379 -2.39483 0
M  V30 3877 H 378.535 1.17278 -4.45626 0
M  V30 3878 H 376.85 1.21199 -3.98371 0
M  V30 3879 H 379.447 3.96493 -3.58744 0
M  V30 3880 H 379.79 3.70696 -1.89448 0
M  V30 3881 H 380.323 2.50239 -3.09233 0
M  V30 3882 H 377.062 2.42736 -6.089 0
M  V30 3883 H 376.582 3.57398 -4.81691 0
M  V30 3884 H 378.261 3.54755 -5.41071 0
M  V30 3885 N 378.394 1.34581 0.820102 0
M  V30 3886 C 379.81 1.14325 1.11364 0
M  V30 3887 C 380.01 -0.0533648 2.01429 0
M  V30 3888 O 379.066 -0.728044 2.41776 0
M  V30 3889 C 380.379 2.43983 1.75764 0
M  V30 3890 C 381.927 2.50065 1.88246 0
M  V30 3891 C 382.402 3.79732 2.56061 0
M  V30 3892 N 383.893 3.80908 2.63558 0
M  V30 3893 C 384.628 4.77961 3.16766 0
M  V30 3894 N 384.124 5.85397 3.70517 0
M  V30 3895 N 385.917 4.65413 3.15194 0
M  V30 3896 H 378.068 2.11246 0.221096 0
M  V30 3897 H 380.331 0.934289 0.160649 0
M  V30 3898 H 380.037 3.31651 1.1705 0
M  V30 3899 H 379.911 2.57531 2.75604 0
M  V30 3900 H 382.298 1.62834 2.46108 0
M  V30 3901 H 382.379 2.40442 0.873006 0
M  V30 3902 H 382.023 4.67354 1.98853 0
M  V30 3903 H 381.953 3.86639 3.57516 0
M  V30 3904 H 384.444 3.03274 2.25463 0
M  V30 3905 H 384.757 6.55463 4.09376 0
M  V30 3906 H 383.102 5.89107 3.68752 0
M  V30 3907 H 386.293 3.80627 2.72471 0
M  V30 3908 H 386.466 5.41216 3.56356 0
M  V30 3909 N 379.872 -1.04064 1.18357 0
M  V30 3910 C 381.112 -1.78829 0.989921 0
M  V30 3911 C 381.476 -1.86106 -0.472095 0
M  V30 3912 O 382.677 -2.57076 -0.785187 0
M  V30 3913 C 380.948 -3.1823 1.6268 0
M  V30 3914 S 382.507 -4.09332 1.58091 0
M  V30 3915 H 379.325 -0.615754 0.355482 0
M  V30 3916 H 381.927 -1.24778 1.50501 0
M  V30 3917 H 380.631 -3.10543 2.68311 0
M  V30 3918 H 380.162 -3.77357 1.112 0
M  V30 3919 H 382.177 -4.92598 0.596817 0
M  V30 3920 N 381.35 -0.985608 -1.22978 0
M  V30 3921 C 382.313 -0.535071 -2.22867 0
M  V30 3922 C 383.313 0.378123 -1.56291 0
M  V30 3923 O 384.503 0.171092 -1.73358 0
M  V30 3924 C 381.635 0.222702 -3.40172 0
M  V30 3925 H 382.828 -1.41835 -2.6424 0
M  V30 3926 H 380.381 -0.772042 -1.35901 0
M  V30 3927 H 381.116 1.12229 -3.04262 0
M  V30 3928 H 380.901 -0.43288 -3.89703 0
M  V30 3929 H 382.391 0.526335 -4.1427 0
M  V30 3930 N 382.828 1.3818 -0.7579 0
M  V30 3931 C 383.758 2.33027 -0.148597 0
M  V30 3932 C 384.739 1.55085 0.69875 0
M  V30 3933 O 385.924 1.83384 0.639053 0
M  V30 3934 C 383.054 3.3928 0.742034 0
M  V30 3935 C 382.008 4.28 -0.00291946 0
M  V30 3936 C 381.334 5.25146 1.00625 0
M  V30 3937 C 382.634 5.08938 -1.17385 0
M  V30 3938 H 384.328 2.84231 -0.940909 0
M  V30 3939 H 381.874 1.36659 -0.453908 0
M  V30 3940 H 383.827 4.046 1.17799 0
M  V30 3941 H 382.551 2.86569 1.56671 0
M  V30 3942 H 381.21 3.64192 -0.419504 0
M  V30 3943 H 380.858 4.68721 1.8251 0
M  V30 3944 H 380.558 5.85361 0.512428 0
M  V30 3945 H 382.082 5.93342 1.44143 0
M  V30 3946 H 383.496 5.67474 -0.815224 0
M  V30 3947 H 381.893 5.7841 -1.59882 0
M  V30 3948 H 382.963 4.42424 -1.98468 0
M  V30 3949 N 384.306 0.507319 1.49211 0
M  V30 3950 C 385.216 -0.272136 2.33016 0
M  V30 3951 C 386.232 -0.961206 1.45041 0
M  V30 3952 O 387.408 -0.941191 1.78055 0
M  V30 3953 C 384.473 -1.31895 3.20631 0
M  V30 3954 C 383.534 -0.642648 4.24463 0
M  V30 3955 C 382.767 -1.63959 5.07891 0
M  V30 3956 O 382.99 -2.87007 4.92933 0
M  V30 3957 O 381.924 -1.19143 5.8999 0
M  V30 3958 H 385.75 0.413982 3.00865 0
M  V30 3959 H 383.335 0.268556 1.46966 0
M  V30 3960 H 385.217 -1.92446 3.7489 0
M  V30 3961 H 383.892 -1.98788 2.5547 0
M  V30 3962 H 382.799 0.00276252 3.741 0
M  V30 3963 H 384.132 -0.0160534 4.92197 0
M  V30 3964 N 385.784 -1.5574 0.241426 0
M  V30 3965 C 386.747 -2.19877 -0.647063 0
M  V30 3966 C 387.747 -1.16642 -1.10686 0
M  V30 3967 O 388.937 -1.41757 -1.01245 0
M  V30 3968 C 386.069 -2.83797 -1.88871 0
M  V30 3969 H 387.262 -2.99772 -0.087574 0
M  V30 3970 H 384.815 -1.56298 -0.00813574 0
M  V30 3971 H 385.55 -2.07824 -2.48957 0
M  V30 3972 H 385.335 -3.59414 -1.56728 0
M  V30 3973 H 386.825 -3.32898 -2.52129 0
M  V30 3974 N 387.262 0.0317525 -1.57568 0
M  V30 3975 C 388.508 0.724175 -1.8943 0
M  V30 3976 C 388.841 1.75149 -0.838836 0
M  V30 3977 O 388.116 1.93948 0.146422 0
M  V30 3978 C 388.399 1.39615 -3.31933 0
M  V30 3979 C 388.252 0.382537 -4.4817 0
M  V30 3980 C 389.571 2.33084 -3.73309 0
M  V30 3981 H 386.69 0.261797 -0.688935 0
M  V30 3982 H 389.332 -0.013017 -1.89996 0
M  V30 3983 H 387.482 2.02451 -3.31581 0
M  V30 3984 H 389.154 -0.243689 -4.60656 0
M  V30 3985 H 387.397 -0.29844 -4.32772 0
M  V30 3986 H 388.068 0.891145 -5.44759 0
M  V30 3987 H 390.544 1.80295 -3.7501 0
M  V30 3988 H 389.42 2.77084 -4.73831 0
M  V30 3989 H 389.681 3.19643 -3.05419 0
M  V30 3990 N 388.74 1.54641 0.303973 0
M  V30 3991 C 389.672 1.81754 1.39636 0
M  V30 3992 C 390.685 0.70035 1.46966 0
M  V30 3993 O 391.874 0.97778 1.49338 0
M  V30 3994 C 388.974 1.93785 2.7803 0
M  V30 3995 C 388.147 3.24156 2.93669 0
M  V30 3996 C 387.206 3.26641 4.12544 0
M  V30 3997 O 386.232 4.00187 4.04771 0
M  V30 3998 N 387.434 2.5182 5.23036 0
M  V30 3999 H 390.199 2.76031 1.16734 0
M  V30 4000 H 387.76 1.54178 0.494033 0
M  V30 4001 H 389.752 1.92852 3.55795 0
M  V30 4002 H 388.322 1.06515 2.93893 0
M  V30 4003 H 387.542 3.37887 2.03042 0
M  V30 4004 H 388.83 4.10195 3.01027 0
M  V30 4005 H 388.228 1.91692 5.32232 0
M  V30 4006 H 386.785 2.56644 5.99147 0
M  V30 4007 N 390.218 -0.567019 1.47046 0
M  V30 4008 C 391.466 -1.322 1.52864 0
M  V30 4009 C 391.787 -1.94088 0.188388 0
M  V30 4010 O 391.057 -1.7941 -0.786693 0
M  V30 4011 H 389.637 -0.490894 0.563056 0
M  V30 4012 H 392.299 -0.662879 1.83281 0
M  V30 4013 H 391.395 -2.12062 2.2899 0
M  V30 4014 N 391.696 -1.35014 -0.812953 0
M  V30 4015 C 392.944 -1.27678 -1.56661 0
M  V30 4016 C 393.265 0.150359 -1.94419 0
M  V30 4017 O 392.535 1.08532 -1.63088 0
M  V30 4018 H 391.115 -0.469602 -0.580933 0
M  V30 4019 H 393.777 -1.69043 -0.970076 0
M  V30 4020 H 392.873 -1.88833 -2.48492 0
M  V30 4021 N 393.175 1.03435 -1.18907 0
M  V30 4022 C 394.421 1.77005 -0.989798 0
M  V30 4023 C 394.754 1.88205 0.478816 0
M  V30 4024 O 394.029 1.39481 1.35556 0
M  V30 4025 C 394.312 3.19925 -1.65287 0
M  V30 4026 C 394.165 3.1663 -3.19477 0
M  V30 4027 C 395.484 4.18189 -1.37134 0
M  V30 4028 H 392.603 0.642538 -0.360991 0
M  V30 4029 H 395.245 1.20784 -1.46667 0
M  V30 4030 H 393.395 3.67929 -1.24741 0
M  V30 4031 H 395.067 2.76567 -3.692 0
M  V30 4032 H 393.31 2.54491 -3.51307 0
M  V30 4033 H 393.981 4.1758 -3.61013 0
M  V30 4034 H 396.457 3.78761 -1.72276 0
M  V30 4035 H 395.333 5.16394 -1.86087 0
M  V30 4036 H 395.594 4.41112 -0.295424 0
M  V30 4037 N 394.653 0.992116 1.22453 0
M  V30 4038 C 395.881 0.685944 1.95198 0
M  V30 4039 C 396.296 -0.749233 1.73297 0
M  V30 4040 O 395.653 -1.50549 1.03156 0
M  V30 4041 C 395.704 0.981395 3.47924 0
M  V30 4042 O 395.425 2.36018 3.6909 0
M  V30 4043 C 396.926 0.692815 4.37853 0
M  V30 4044 H 394.146 0.253821 0.621141 0
M  V30 4045 H 396.69 1.32668 1.55626 0
M  V30 4046 H 394.845 0.386481 3.85467 0
M  V30 4047 H 395.259 2.45884 4.63294 0
M  V30 4048 H 396.733 0.949818 5.43767 0
M  V30 4049 H 397.21 -0.373181 4.37612 0
M  V30 4050 H 397.816 1.26874 4.05935 0
M  V30 4051 N 396.131 -1.37776 0.765217 0
M  V30 4052 C 397.356 -2.04651 0.336537 0
M  V30 4053 C 397.781 -1.57337 -1.03086 0
M  V30 4054 O 397.139 -0.730621 -1.65927 0
M  V30 4055 C 397.187 -3.58577 0.381468 0
M  V30 4056 O 396.291 -4.07706 -0.62042 0
M  V30 4057 H 395.632 -0.64756 0.146838 0
M  V30 4058 H 398.162 -1.76221 1.03959 0
M  V30 4059 H 398.172 -4.07314 0.236448 0
M  V30 4060 H 396.847 -3.9237 1.37907 0
M  V30 4061 H 395.424 -3.70306 -0.439056 0
M  V30 4062 N 397.609 -0.515225 -1.4894 0
M  V30 4063 C 398.572 0.244681 -2.2789 0
M  V30 4064 C 399.572 0.881166 -1.34507 0
M  V30 4065 O 400.762 0.743497 -1.57537 0
M  V30 4066 C 397.894 1.35247 -3.12923 0
M  V30 4067 H 399.087 -0.448289 -2.96531 0
M  V30 4068 H 396.64 -0.270656 -1.53939 0
M  V30 4069 H 397.375 2.07916 -2.48881 0
M  V30 4070 H 397.16 0.901374 -3.81599 0
M  V30 4071 H 398.65 1.88737 -3.72516 0
M  V30 4072 N 399.087 1.5561 -0.249682 0
M  V30 4073 C 400.037 2.18157 0.662673 0
M  V30 4074 C 401.021 1.1383 1.13717 0
M  V30 4075 O 402.213 1.39731 1.08648 0
M  V30 4076 C 399.342 2.88672 1.85805 0
M  V30 4077 C 398.428 4.00258 1.40193 0
M  V30 4078 N 398.819 5.01473 0.660213 0
M  V30 4079 C 397.117 4.12864 1.68698 0
M  V30 4080 C 397.818 5.80155 0.423695 0
M  V30 4081 N 396.794 5.34533 0.988721 0
M  V30 4082 H 400.596 2.93769 0.0878688 0
M  V30 4083 H 398.11 1.62316 -0.0521183 0
M  V30 4084 H 400.107 3.31912 2.5227 0
M  V30 4085 H 398.767 2.14564 2.43705 0
M  V30 4086 H 399.778 5.16971 0.310047 0
M  V30 4087 H 396.455 3.4993 2.27717 0
M  V30 4088 H 397.845 6.71688 -0.168616 0
M  V30 4089 N 400.565 -0.0233959 1.57583 0
M  V30 4090 C 401.814 -0.712133 1.8871 0
M  V30 4091 C 402.127 -1.76217 0.848944 0
M  V30 4092 O 403.333 -2.50389 1.04964 0
M  V30 4093 C 401.789 -1.3177 3.3491 0
M  V30 4094 C 401.397 -0.303715 4.46969 0
M  V30 4095 C 403.141 -1.98598 3.75179 0
M  V30 4096 C 401.048 -0.917945 5.84233 0
M  V30 4097 H 399.978 -0.269735 0.704101 0
M  V30 4098 H 402.629 0.0333114 1.8347 0
M  V30 4099 H 401.011 -2.11304 3.34913 0
M  V30 4100 H 402.185 0.465325 4.58445 0
M  V30 4101 H 400.5 0.2628 4.1557 0
M  V30 4102 H 403.097 -2.45416 4.75053 0
M  V30 4103 H 403.44 -2.80659 3.07468 0
M  V30 4104 H 403.973 -1.25831 3.77374 0
M  V30 4105 H 400.712 -0.136633 6.55358 0
M  V30 4106 H 400.232 -1.65669 5.76467 0
M  V30 4107 H 401.911 -1.4236 6.31144 0
M  V30 4108 N 402.043 -1.548 -0.295768 0
M  V30 4109 C 403.292 -1.73538 -1.02798 0
M  V30 4110 C 403.605 -0.531159 -1.8825 0
M  V30 4111 O 404.811 -0.600458 -2.64777 0
M  V30 4112 C 403.267 -3.07051 -1.87744 0
M  V30 4113 C 402.875 -4.34968 -1.07269 0
M  V30 4114 C 404.619 -3.35146 -2.60533 0
M  V30 4115 C 402.526 -5.5953 -1.91521 0
M  V30 4116 H 401.456 -0.646794 -0.387522 0
M  V30 4117 H 404.107 -1.81278 -0.284718 0
M  V30 4118 H 402.489 -2.93289 -2.66078 0
M  V30 4119 H 403.663 -4.5958 -0.335117 0
M  V30 4120 H 401.978 -4.13847 -0.460384 0
M  V30 4121 H 404.575 -4.2541 -3.23929 0
M  V30 4122 H 404.918 -2.54255 -3.29636 0
M  V30 4123 H 405.451 -3.49902 -1.89244 0
M  V30 4124 H 402.19 -6.43103 -1.26878 0
M  V30 4125 H 401.71 -5.39096 -2.62937 0
M  V30 4126 H 403.389 -5.96982 -2.49442 0
M  V30 4127 N 403.521 0.559213 -1.47345 0
M  V30 4128 C 404.798 1.31997 -1.44348 0
M  V30 4129 C 405.178 2.1064 -0.139358 0
M  V30 4130 O 404.526 2.1091 0.879153 0
M  V30 4131 C 404.736 2.22618 -2.68779 0
M  V30 4132 C 406.084 2.83701 -3.1591 0
M  V30 4133 O 407.108 2.32921 -2.69493 0
M  V30 4134 O 405.967 3.75993 -3.966 0
M  V30 4135 H 403.061 0.594251 -0.575147 0
M  V30 4136 H 405.607 0.578282 -1.59543 0
M  V30 4137 H 404.379 1.64093 -3.55231 0
M  V30 4138 H 404.002 3.04085 -2.5616 0
M  V30 4139 N 404.999 1.35443 0.805782 0
M  V30 4140 C 406.247 1.28507 1.55982 0
M  V30 4141 C 406.568 -0.140046 1.94496 0
M  V30 4142 O 405.838 -1.07666 1.63661 0
M  V30 4143 H 404.418 0.472676 0.578434 0
M  V30 4144 H 407.08 1.69555 0.961098 0
M  V30 4145 H 406.176 1.90148 2.47488 0
M  V30 4146 N 406.477 -1.02803 1.19454 0
M  V30 4147 C 407.893 -1.28473 0.946937 0
M  V30 4148 C 408.093 -1.97881 -0.380202 0
M  V30 4149 O 407.149 -2.26719 -1.11151 0
M  V30 4150 C 408.462 -2.13099 2.12154 0
M  V30 4151 C 410.01 -2.26404 2.16126 0
M  V30 4152 C 410.485 -3.14402 3.33039 0
M  V30 4153 N 411.976 -3.21991 3.32981 0
M  V30 4154 C 412.711 -3.90272 4.20089 0
M  V30 4155 N 412.207 -4.60777 5.17355 0
M  V30 4156 N 414 -3.8668 4.07964 0
M  V30 4157 H 406.151 -0.561665 2.04839 0
M  V30 4158 H 408.414 -0.310438 0.89573 0
M  V30 4159 H 408.12 -1.69422 3.08203 0
M  V30 4160 H 407.994 -3.13813 2.09287 0
M  V30 4161 H 410.381 -2.69311 1.20647 0
M  V30 4162 H 410.462 -1.25237 2.23045 0
M  V30 4163 H 410.106 -2.72204 4.28798 0
M  V30 4164 H 410.036 -4.1563 3.23356 0
M  V30 4165 H 412.527 -2.71778 2.62574 0
M  V30 4166 H 412.84 -5.10513 5.80169 0
M  V30 4167 H 411.185 -4.5964 5.21302 0
M  V30 4168 H 414.376 -3.30739 3.31254 0
M  V30 4169 H 414.549 -4.39621 4.76064 0
M  V30 4170 N 407.956 -0.998596 -1.21925 0
M  V30 4171 C 409.202 -0.678667 -1.91107 0
M  V30 4172 C 409.535 0.78791 -1.77498 0
M  V30 4173 O 408.81 1.57043 -1.1475 0
M  V30 4174 C 409.093 -1.09245 -3.43129 0
M  V30 4175 C 408.946 -2.61801 -3.6576 0
M  V30 4176 C 410.265 -0.649984 -4.35274 0
M  V30 4177 H 407.384 -0.248025 -0.694012 0
M  V30 4178 H 410.026 -1.24314 -1.43688 0
M  V30 4179 H 408.176 -0.612171 -3.83647 0
M  V30 4180 H 409.848 -3.17543 -3.34611 0
M  V30 4181 H 408.091 -3.03609 -3.09845 0
M  V30 4182 H 408.762 -2.85804 -4.7225 0
M  V30 4183 H 411.238 -1.0626 -4.02303 0
M  V30 4184 H 410.114 -0.967743 -5.40302 0
M  V30 4185 H 410.375 0.449139 -4.39813 0
M  V30 4186 N 409.434 1.37368 -0.772513 0
M  V30 4187 C 410.845 1.8231 -0.402493 0
M  V30 4188 C 411.196 1.6436 1.07146 0
M  V30 4189 O 410.321 1.15514 1.82991 0
M  V30 4190 C 410.916 3.30979 -0.723776 0
M  V30 4191 C 409.475 3.74195 -0.406802 0
M  V30 4192 C 408.622 2.59885 -0.967218 0
M  V30 4193 H 411.573 1.25829 -0.967099 0
M  V30 4194 H 411.594 3.80499 -0.00870832 0
M  V30 4195 H 411.106 3.44011 -1.7966 0
M  V30 4196 H 409.207 3.66732 0.658673 0
M  V30 4197 H 409.32 4.7027 -0.915588 0
M  V30 4198 H 407.684 2.51674 -0.391416 0
M  V30 4199 H 408.467 2.7571 -2.04546 0
M  V30 4200 N 410.912 0.523116 1.48665 0
M  V30 4201 C 411.86 -0.256859 2.31177 0
M  V30 4202 C 412.854 -0.94199 1.40794 0
M  V30 4203 O 414.06 -0.867157 1.57735 0
M  V30 4204 H 410.435 -0.1017 0.745091 0
M  V30 4205 H 412.406 0.458739 2.94853 0
M  V30 4206 C 411.155 -1.29503 3.22683 0
M  V30 4207 H 410.478 -0.777248 3.92172 0
M  V30 4208 H 411.918 -1.81233 3.83315 0
M  V30 4209 C 410.377 -2.32501 2.43813 0
M  V30 4210 O 410.907 -3.3881 2.15803 0
M  V30 4211 N 409.113 -2.05538 2.05432 0
M  V30 4212 H 408.66 -1.19104 2.28412 0
M  V30 4213 H 408.618 -2.74676 1.52973 0
M  V30 4214 N 412.39 -1.55475 0.257931 0
M  V30 4215 C 413.353 -2.20551 -0.623706 0
M  V30 4216 C 414.353 -1.17809 -1.09443 0
M  V30 4217 O 415.543 -1.42823 -0.997362 0
M  V30 4218 C 412.675 -2.85784 -1.8585 0
M  V30 4219 H 413.868 -2.99848 -0.0557743 0
M  V30 4220 H 411.421 -1.56298 0.0084422 0
M  V30 4221 H 412.156 -2.10453 -2.46739 0
M  V30 4222 H 411.941 -3.61057 -1.52907 0
M  V30 4223 H 413.431 -3.35553 -2.48584 0
M  V30 4224 N 413.868 0.0150385 -1.57593 0
M  V30 4225 C 415.114 0.704043 -1.90187 0
M  V30 4226 C 415.447 1.74249 -0.857366 0
M  V30 4227 O 414.722 1.94092 0.125843 0
M  V30 4228 C 415.005 1.36087 -3.33395 0
M  V30 4229 C 414.858 0.334981 -4.48551 0
M  V30 4230 C 416.177 2.29112 -3.7576 0
M  V30 4231 H 413.296 0.254475 -0.691673 0
M  V30 4232 H 415.938 -0.0331678 -1.89971 0
M  V30 4233 H 414.088 1.98922 -3.3371 0
M  V30 4234 H 415.76 -0.292534 -4.60372 0
M  V30 4235 H 414.003 -0.344325 -4.32431 0
M  V30 4236 H 414.674 0.833316 -5.45674 0
M  V30 4237 H 417.15 1.76308 -3.76902 0
M  V30 4238 H 416.026 2.72043 -4.76743 0
M  V30 4239 H 416.287 3.16385 -3.08793 0
M  V30 4240 N 415.346 1.54954 0.287554 0
M  V30 4241 C 416.276 1.89839 1.35954 0
M  V30 4242 C 417.257 0.758675 1.52244 0
M  V30 4243 O 418.442 1.01557 1.65529 0
M  V30 4244 C 415.572 2.15753 2.72154 0
M  V30 4245 C 414.526 3.3159 2.70614 0
M  V30 4246 C 413.852 3.42952 4.10229 0
M  V30 4247 C 415.152 4.68359 2.31165 0
M  V30 4248 H 416.846 2.79625 1.07007 0
M  V30 4249 H 414.392 1.3454 0.513316 0
M  V30 4250 H 416.345 2.38743 3.47246 0
M  V30 4251 H 415.069 1.22752 3.02654 0
M  V30 4252 H 413.728 3.08545 1.97979 0
M  V30 4253 H 413.376 2.47443 4.37928 0
M  V30 4254 H 413.076 4.20826 4.10097 0
M  V30 4255 H 414.6 3.68218 4.87081 0
M  V30 4256 H 416.014 4.9099 2.95976 0
M  V30 4257 H 414.411 5.49044 2.42221 0
M  V30 4258 H 415.481 4.68165 1.26291 0
M  V30 4259 N 416.824 -0.551391 1.4764 0
M  V30 4260 C 417.754 -1.66757 1.63445 0
M  V30 4261 C 418.735 -1.63077 0.483742 0
M  V30 4262 O 419.92 -1.80607 0.71377 0
M  V30 4263 C 417.05 -3.05387 1.65396 0
M  V30 4264 C 416.004 -3.23918 2.79752 0
M  V30 4265 C 415.33 -4.63393 2.66779 0
M  V30 4266 C 416.63 -3.08735 4.21284 0
M  V30 4267 H 418.324 -1.53786 2.56886 0
M  V30 4268 H 415.87 -0.738415 1.23626 0
M  V30 4269 H 417.823 -3.83325 1.75043 0
M  V30 4270 H 416.547 -3.19332 0.685195 0
M  V30 4271 H 415.206 -2.48391 2.69625 0
M  V30 4272 H 414.854 -4.74144 1.67918 0
M  V30 4273 H 414.554 -4.7674 3.43501 0
M  V30 4274 H 416.078 -5.43458 2.78364 0
M  V30 4275 H 417.492 -3.76484 4.32357 0
M  V30 4276 H 415.889 -3.33588 4.98838 0
M  V30 4277 H 416.959 -2.0541 4.39243 0
M  V30 4278 N 418.302 -1.35869 -0.798587 0
M  V30 4279 C 419.212 -1.31578 -1.94228 0
M  V30 4280 C 420.228 -0.21939 -1.72611 0
M  V30 4281 O 421.404 -0.450167 -1.96305 0
M  V30 4282 C 418.469 -1.09528 -3.28944 0
M  V30 4283 C 417.53 -2.28556 -3.63402 0
M  V30 4284 C 416.763 -2.07549 -4.9169 0
M  V30 4285 O 416.986 -1.046 -5.60727 0
M  V30 4286 O 415.92 -2.95106 -5.24591 0
M  V30 4287 H 419.746 -2.27847 -2.00796 0
M  V30 4288 H 417.331 -1.16322 -0.937526 0
M  V30 4289 H 419.213 -0.991127 -4.09579 0
M  V30 4290 H 417.888 -0.16315 -3.23289 0
M  V30 4291 H 416.795 -2.44538 -2.83112 0
M  V30 4292 H 418.128 -3.20244 -3.73771 0
M  V30 4293 N 419.78 1.02168 -1.19998 0
M  V30 4294 C 421.029 1.75091 -1.0013 0
M  V30 4295 C 421.342 1.89923 0.467835 0
M  V30 4296 O 422.548 2.59888 0.785515 0
M  V30 4297 C 421.004 3.14892 -1.74273 0
M  V30 4298 C 420.612 3.0809 -3.25245 0
M  V30 4299 C 422.356 3.9206 -1.62755 0
M  V30 4300 C 420.263 4.42867 -3.91948 0
M  V30 4301 H 419.193 0.656394 -0.37103 0
M  V30 4302 H 421.844 1.14284 -1.43567 0
M  V30 4303 H 420.226 3.7621 -1.2362 0
M  V30 4304 H 421.4 2.5611 -3.83072 0
M  V30 4305 H 419.715 2.44416 -3.3712 0
M  V30 4306 H 422.312 4.91764 -2.09934 0
M  V30 4307 H 422.655 4.12199 -0.582894 0
M  V30 4308 H 423.188 3.37359 -2.10793 0
M  V30 4309 H 419.927 4.27931 -4.96543 0
M  V30 4310 H 419.447 4.94874 -3.3891 0
M  V30 4311 H 421.126 5.11728 -3.95909 0
M  V30 4312 N 421.258 1.00505 1.21394 0
M  V30 4313 C 422.505 0.687774 1.90462 0
M  V30 4314 C 422.833 -0.78147 1.7811 0
M  V30 4315 O 422.088 -1.58208 1.1519 0
M  V30 4316 C 422.387 1.0546 3.41486 0
M  V30 4317 C 422.053 2.51812 3.74034 0
M  V30 4318 C 420.715 2.91804 3.82628 0
M  V30 4319 C 423.067 3.46614 3.8924 0
M  V30 4320 C 420.395 4.2556 4.03876 0
M  V30 4321 C 422.747 4.80044 4.11995 0
M  V30 4322 C 421.411 5.19759 4.18816 0
M  V30 4323 H 420.681 0.251674 0.696951 0
M  V30 4324 H 423.328 1.26349 1.43903 0
M  V30 4325 H 421.633 0.397133 3.89782 0
M  V30 4326 H 423.33 0.786976 3.93202 0
M  V30 4327 H 419.92 2.1982 3.67936 0
M  V30 4328 H 424.104 3.16883 3.81967 0
M  V30 4329 H 419.36 4.55901 4.07387 0
M  V30 4330 H 423.534 5.53439 4.22704 0
M  V30 4331 H 421.161 6.23418 4.35033 0
M  V30 4332 N 422.737 -1.36956 0.779787 0
M  V30 4333 C 423.965 -2.03755 0.359398 0
M  V30 4334 C 424.38 -1.58807 -1.02106 0
M  V30 4335 O 423.737 -0.773024 -1.6532 0
M  V30 4336 C 423.788 -3.59251 0.402568 0
M  V30 4337 O 423.509 -4.02557 1.72858 0
M  V30 4338 C 425.01 -4.43291 -0.0284068 0
M  V30 4339 H 422.23 -0.654148 0.149437 0
M  V30 4340 H 424.774 -1.75128 1.05595 0
M  V30 4341 H 422.929 -3.86621 -0.245478 0
M  V30 4342 H 423.343 -4.97111 1.67275 0
M  V30 4343 H 424.817 -5.51975 0.0529466 0
M  V30 4344 H 425.294 -4.25719 -1.07982 0
M  V30 4345 H 425.9 -4.21163 0.591758 0
M  V30 4346 N 424.215 -0.530993 -1.48385 0
M  V30 4347 C 425.492 0.0671788 -1.95485 0
M  V30 4348 C 425.872 1.51191 -1.47324 0
M  V30 4349 O 425.22 2.17507 -0.700202 0
M  V30 4350 C 425.43 -0.0511206 -3.48963 0
M  V30 4351 C 426.778 0.107632 -4.24464 0
M  V30 4352 O 427.802 0.0226248 -3.56193 0
M  V30 4353 O 426.661 0.285972 -5.45751 0
M  V30 4354 H 423.755 0.0787365 -0.823243 0
M  V30 4355 H 426.301 -0.595662 -1.58902 0
M  V30 4356 H 425.073 -1.05747 -3.7674 0
M  V30 4357 H 424.696 0.650525 -3.92242 0
M  V30 4358 N 425.693 1.55336 -0.266172 0
M  V30 4359 C 426.918 2.04258 0.359661 0
M  V30 4360 C 427.343 1.14359 1.49344 0
M  V30 4361 O 426.701 0.140369 1.80756 0
M  V30 4362 C 426.749 3.50997 0.826635 0
M  V30 4363 O 425.853 3.64204 1.93466 0
M  V30 4364 H 425.194 0.659668 0.075727 0
M  V30 4365 H 427.724 2.00694 -0.39786 0
M  V30 4366 H 427.734 3.9219 1.12477 0
M  V30 4367 H 426.409 4.159 -0.00293032 0
M  V30 4368 H 424.986 3.34913 1.63974 0
M  V30 4369 N 427.171 -0.0066808 1.57599 0
M  V30 4370 C 428.419 -0.691552 1.899 0
M  V30 4371 C 428.74 -1.74682 0.866672 0
M  V30 4372 O 428.01 -1.95661 -0.0968189 0
M  V30 4373 H 426.59 -0.258416 0.700878 0
M  V30 4374 H 429.252 0.0326655 1.94873 0
M  V30 4375 H 428.348 -1.16702 2.8946 0
M  V30 4376 N 428.649 -1.55105 -0.279332 0
M  V30 4377 C 429.895 -1.75672 -1.01327 0
M  V30 4378 C 430.228 -0.552739 -1.86168 0
M  V30 4379 O 429.503 0.449827 -1.89227 0
M  V30 4380 C 429.786 -3.05825 -1.90114 0
M  V30 4381 C 429.639 -4.36565 -1.08309 0
M  V30 4382 C 430.958 -3.31975 -2.8893 0
M  V30 4383 H 428.077 -0.639149 -0.366957 0
M  V30 4384 H 430.719 -1.87833 -0.286154 0
M  V30 4385 H 428.869 -2.95588 -2.52111 0
M  V30 4386 H 430.541 -4.58751 -0.484314 0
M  V30 4387 H 428.784 -4.32076 -0.386362 0
M  V30 4388 H 429.455 -5.23946 -1.73737 0
M  V30 4389 H 431.931 -3.41963 -2.37067 0
M  V30 4390 H 430.807 -4.2432 -3.48201 0
M  V30 4391 H 431.068 -2.51309 -3.63725 0
M  V30 4392 N 430.127 0.543554 -1.4793 0
M  V30 4393 C 431.375 1.29752 -1.54948 0
M  V30 4394 C 431.696 1.93764 -0.219242 0
M  V30 4395 O 430.966 1.80639 0.75805 0
M  V30 4396 H 429.546 0.481874 -0.570795 0
M  V30 4397 H 432.208 0.633636 -1.84312 0
M  V30 4398 H 431.304 2.08392 -2.32334 0
M  V30 4399 N 431.605 1.3629 0.791371 0
M  V30 4400 C 432.833 1.33562 1.58016 0
M  V30 4401 C 433.248 -0.0835616 1.88615 0
M  V30 4402 O 432.605 -1.0399 1.49974 0
M  V30 4403 C 432.656 2.15517 2.90232 0
M  V30 4404 O 432.377 3.51902 2.60953 0
M  V30 4405 C 433.878 2.20546 3.84544 0
M  V30 4406 H 431.098 0.458226 0.490173 0
M  V30 4407 H 433.642 1.79361 0.982345 0
M  V30 4408 H 431.797 1.73278 3.46487 0
M  V30 4409 H 432.211 3.94644 3.4548 0
M  V30 4410 H 433.685 2.82252 4.74382 0
M  V30 4411 H 434.162 1.20838 4.2225 0
M  V30 4412 H 434.768 2.63013 3.34222 0
M  V30 4413 N 433.083 -1.0153 1.20538 0
M  V30 4414 C 434.013 -2.11972 0.979295 0
M  V30 4415 C 434.994 -1.6985 -0.0921787 0
M  V30 4416 O 436.179 -1.94089 0.0655932 0
M  V30 4417 C 433.309 -3.43201 0.531984 0
M  V30 4418 C 432.263 -3.9907 1.54685 0
M  V30 4419 C 431.589 -5.26082 0.956127 0
M  V30 4420 C 432.889 -4.32313 2.93092 0
M  V30 4421 H 434.583 -2.31143 1.90298 0
M  V30 4422 H 432.129 -1.11079 0.916372 0
M  V30 4423 H 434.082 -4.1985 0.361044 0
M  V30 4424 H 432.806 -3.23792 -0.427327 0
M  V30 4425 H 431.465 -3.2453 1.70517 0
M  V30 4426 H 431.113 -5.02999 -0.0111538 0
M  V30 4427 H 430.813 -5.64426 1.63393 0
M  V30 4428 H 432.337 -6.05386 0.796284 0
M  V30 4429 H 433.751 -4.99845 2.80763 0
M  V30 4430 H 432.148 -4.81774 3.57791 0
M  V30 4431 H 433.218 -3.41025 3.44717 0
M  V30 4432 N 434.561 -1.01147 -1.20859 0
M  V30 4433 C 435.81 -0.693214 -1.89413 0
M  V30 4434 C 436.123 0.779969 -1.79376 0
M  V30 4435 O 437.329 1.21057 -2.43017 0
M  V30 4436 C 435.785 -1.18949 -3.39675 0
M  V30 4437 C 435.393 -2.68921 -3.58309 0
M  V30 4438 C 437.137 -0.94642 -4.13815 0
M  V30 4439 C 435.044 -3.12056 -5.0237 0
M  V30 4440 H 433.974 -0.255595 -0.709357 0
M  V30 4441 H 436.625 -1.22349 -1.36759 0
M  V30 4442 H 435.007 -0.587228 -3.91622 0
M  V30 4443 H 436.181 -3.34652 -3.16772 0
M  V30 4444 H 434.496 -2.91314 -2.97532 0
M  V30 4445 H 437.093 -1.24417 -5.20023 0
M  V30 4446 H 437.436 0.117219 -4.16135 0
M  V30 4447 H 437.969 -1.5118 -3.67953 0
M  V30 4448 H 434.708 -4.17674 -5.05202 0
M  V30 4449 H 434.228 -2.51041 -5.44737 0
M  V30 4450 H 435.907 -3.04403 -5.70918 0
M  V30 4451 N 436.039 1.36541 -0.78704 0
M  V30 4452 C 437.264 2.0409 -0.369053 0
M  V30 4453 C 437.689 1.58957 1.00569 0
M  V30 4454 O 437.047 0.756926 1.64743 0
M  V30 4455 C 437.095 3.57924 -0.438466 0
M  V30 4456 O 436.199 4.08642 0.555479 0
M  V30 4457 H 435.54 0.645142 -0.157122 0
M  V30 4458 H 438.07 1.74545 -1.06749 0
M  V30 4459 H 438.08 4.06887 -0.301218 0
M  V30 4460 H 436.755 3.90127 -1.44132 0
M  V30 4461 H 435.332 3.70958 0.380088 0
M  V30 4462 N 437.518 0.538854 1.48102 0
M  V30 4463 C 438.466 -0.232325 2.31437 0
M  V30 4464 C 439.46 -0.927004 1.41785 0
M  V30 4465 O 440.666 -0.850378 1.58646 0
M  V30 4466 H 437.041 -0.0937916 0.746128 0
M  V30 4467 H 439.012 0.489986 2.9435 0
M  V30 4468 C 437.761 -1.26074 3.24038 0
M  V30 4469 H 437.084 -0.735609 3.92974 0
M  V30 4470 H 438.524 -1.77157 3.85216 0
M  V30 4471 C 436.983 -2.29902 2.46265 0
M  V30 4472 O 437.513 -3.36502 2.19384 0
M  V30 4473 N 435.719 -2.03348 2.07601 0
M  V30 4474 H 435.266 -1.16675 2.29662 0
M  V30 4475 H 435.224 -2.73038 1.55877 0
M  V30 4476 N 438.996 -1.55193 0.274407 0
M  V30 4477 C 440.412 -1.59401 -0.0797543 0
M  V30 4478 C 440.612 -1.29162 -1.54659 0
M  V30 4479 O 439.668 -1.05215 -2.29534 0
M  V30 4480 C 440.981 -2.99257 0.294238 0
M  V30 4481 C 442.529 -3.12072 0.240796 0
M  V30 4482 C 443.004 -4.54194 0.589218 0
M  V30 4483 N 444.495 -4.60033 0.540744 0
M  V30 4484 C 445.23 -5.68027 0.783147 0
M  V30 4485 N 444.726 -6.8417 1.09013 0
M  V30 4486 N 446.519 -5.57572 0.711993 0
M  V30 4487 H 438.67 -1.73113 1.23067 0
M  V30 4488 H 440.933 -0.807197 0.497129 0
M  V30 4489 H 440.639 -3.26217 1.31435 0
M  V30 4490 H 440.513 -3.75427 -0.365281 0
M  V30 4491 H 442.9 -2.84877 -0.770024 0
M  V30 4492 H 442.981 -2.38117 0.934563 0
M  V30 4493 H 442.625 -4.82115 1.59772 0
M  V30 4494 H 442.555 -5.26448 -0.126331 0
M  V30 4495 H 445.046 -3.76599 0.313327 0
M  V30 4496 H 445.359 -7.6243 1.26178 0
M  V30 4497 H 443.704 -6.85787 1.12789 0
M  V30 4498 H 446.895 -4.65714 0.472014 0
M  V30 4499 H 447.068 -6.41659 0.90429 0
M  V30 4500 N 440.474 -0.00167713 -1.576 0
M  V30 4501 C 441.421 0.989195 -2.08527 0
M  V30 4502 C 442.391 1.34031 -0.981065 0
M  V30 4503 O 443.576 1.43839 -1.2536 0
M  V30 4504 C 440.716 2.27537 -2.59463 0
M  V30 4505 C 439.829 1.98314 -3.83791 0
M  V30 4506 C 438.964 3.21025 -4.23222 0
M  V30 4507 C 438.003 2.87495 -5.40382 0
M  V30 4508 N 437.14 4.02749 -5.75098 0
M  V30 4509 H 441.98 0.547973 -2.92919 0
M  V30 4510 H 439.517 0.258917 -1.44803 0
M  V30 4511 H 441.475 3.02729 -2.87073 0
M  V30 4512 H 440.105 2.69325 -1.77943 0
M  V30 4513 H 439.157 1.13482 -3.63078 0
M  V30 4514 H 440.469 1.69601 -4.69081 0
M  V30 4515 H 439.623 4.04561 -4.52123 0
M  V30 4516 H 438.362 3.52877 -3.36644 0
M  V30 4517 H 437.367 2.02367 -5.11202 0
M  V30 4518 H 438.592 2.56889 -6.28637 0
M  V30 4519 H 436.538 4.34494 -4.91478 0
M  V30 4520 H 436.455 3.77566 -6.54966 0
M  V30 4521 H 437.723 4.87068 -6.08592 0
M  V30 4522 N 441.952 1.55251 0.271103 0
M  V30 4523 C 443.368 1.47133 0.618393 0
M  V30 4524 C 443.568 0.686994 1.89427 0
M  V30 4525 O 442.624 0.206609 2.51653 0
M  V30 4526 C 443.937 2.91361 0.743593 0
M  V30 4527 C 445.485 3.01587 0.837522 0
M  V30 4528 C 445.96 4.47073 0.994483 0
M  V30 4529 N 447.451 4.50909 1.05996 0
M  V30 4530 C 448.186 5.60698 1.20024 0
M  V30 4531 N 447.682 6.80348 1.30759 0
M  V30 4532 N 449.475 5.48444 1.23149 0
M  V30 4533 H 441.626 2.04698 -0.566784 0
M  V30 4534 H 443.889 0.928319 -0.192165 0
M  V30 4535 H 443.595 3.51483 -0.123493 0
M  V30 4536 H 443.469 3.40484 1.62328 0
M  V30 4537 H 445.856 2.4156 1.69507 0
M  V30 4538 H 445.937 2.55713 -0.0668086 0
M  V30 4539 H 445.581 5.07703 0.141582 0
M  V30 4540 H 445.511 4.90605 1.91349 0
M  V30 4541 H 448.002 3.6472 0.989316 0
M  V30 4542 H 448.315 7.59772 1.41303 0
M  V30 4543 H 446.66 6.83156 1.27761 0
M  V30 4544 H 449.851 4.53907 1.14394 0
M  V30 4545 H 450.024 6.34049 1.33738 0
M  V30 4546 N 443.43 -0.535701 1.48216 0
M  V30 4547 C 444.38 -1.63688 1.58714 0
M  V30 4548 C 445.364 -1.54635 0.444615 0
M  V30 4549 O 446.556 -1.62753 0.695742 0
M  V30 4550 C 443.685 -3.02423 1.62466 0
M  V30 4551 C 442.771 -3.16601 2.82178 0
M  V30 4552 N 443.162 -3.00771 4.06658 0
M  V30 4553 C 441.46 -3.47645 2.79391 0
M  V30 4554 C 442.161 -3.18213 4.86945 0
M  V30 4555 N 441.137 -3.45528 4.19656 0
M  V30 4556 H 444.939 -1.5005 2.5271 0
M  V30 4557 H 442.453 -0.741018 1.44508 0
M  V30 4558 H 444.45 -3.81517 1.6808 0
M  V30 4559 H 443.11 -3.17157 0.695826 0
M  V30 4560 H 444.121 -2.77652 4.37184 0
M  V30 4561 H 440.798 -3.68771 1.95739 0
M  V30 4562 H 442.188 -3.1076 5.95716 0
M  V30 4563 O 444.947 -1.46458 -0.680617 0
M  V30 4564 H 445.638 -1.40531 -1.33307 0
M  V30 END ATOM
M  V30 BEGIN BOND
M  V30 END BOND
M  V30 END CTAB
M  END
$$$$
