drugbank_target|Q9HU22 Glucose-1-phosphate thymidylyltransferase (DB01643; DB02452; DB02843; DB03723; DB03751; DB04272; DB04485)
 OpenBabel12092120223D

  0  0  0     0  0            999 V3000
M  V30 BEGIN CTAB
M  V30 COUNTS 4577 4627 0 0 0
M  V30 BEGIN ATOM
M  V30 1 H -0.908 1.98254 -0.117106 0
M  V30 2 N 0 1.576 0 0
M  V30 3 C 0.933 2.03868 1.02534 0
M  V30 4 C 1.911 0.928543 1.3348 0
M  V30 5 O 3.095 1.19667 1.45644 0
M  V30 6 C 0.222 2.43627 2.35294 0
M  V30 7 C -0.732 3.65373 2.2001 0
M  V30 8 S 0.101 5.13292 1.52614 0
M  V30 9 C 1.257 5.56322 2.86805 0
M  V30 10 H 1.49 2.90518 0.631377 0
M  V30 11 H -0.977 1.52953 0.210867 0
M  V30 12 H 0.981 2.67203 3.11629 0
M  V30 13 H -0.358 1.57376 2.7183 0
M  V30 14 H -1.165 3.90944 3.18086 0
M  V30 15 H -1.563 3.418 1.51819 0
M  V30 16 H 0.729 5.58782 3.83104 0
M  V30 17 H 1.672 6.56266 2.65933 0
M  V30 18 H 2.08 4.83886 2.90714 0
M  V30 19 N 1.4781 -0.272755 1.55222 0
M  V30 20 C 2.4251 -1.33716 1.88119 0
M  V30 21 C 3.3951 -1.49066 0.73271 0
M  V30 22 O 4.5801 -1.63469 0.984002 0
M  V30 23 C 1.7201 -2.69238 2.15882 0
M  V30 24 C 0.8331 -2.62108 3.43399 0
M  V30 25 C -0.0319 -3.89811 3.60861 0
M  V30 26 C -0.9929 -3.77193 4.8207 0
M  V30 27 N -1.8559 -4.9673 4.96189 0
M  V30 28 H 2.9841 -1.04962 2.78903 0
M  V30 29 H 0.5211 -0.507088 1.38083 0
M  V30 30 H 2.4791 -3.48089 2.29978 0
M  V30 31 H 1.1091 -2.96194 1.28331 0
M  V30 32 H 0.1611 -1.74967 3.37773 0
M  V30 33 H 1.4731 -2.48685 4.32386 0
M  V30 34 H 0.6271 -4.77103 3.74777 0
M  V30 35 H -0.6339 -4.06102 2.7006 0
M  V30 36 H -1.6289 -2.88284 4.68159 0
M  V30 37 H -0.4039 -3.62421 5.74307 0
M  V30 38 H -2.4579 -5.13431 4.08319 0
M  V30 39 H -2.5409 -4.85839 5.79221 0
M  V30 40 H -1.2729 -5.85594 5.1449 0
M  V30 41 N 2.9562 -1.48159 -0.537278 0
M  V30 42 C 4.3722 -1.34118 -0.865129 0
M  V30 43 C 4.5722 -0.346678 -1.98495 0
M  V30 44 O 3.6282 0.234715 -2.51407 0
M  V30 45 C 4.9412 -2.73963 -1.23954 0
M  V30 46 C 6.4892 -2.82397 -1.34984 0
M  V30 47 C 6.9642 -4.22928 -1.75772 0
M  V30 48 N 8.4552 -4.25566 -1.82887 0
M  V30 49 C 9.1902 -5.31235 -2.15817 0
M  V30 50 N 8.6862 -6.47189 -2.47222 0
M  V30 51 N 10.4792 -5.18624 -2.16761 0
M  V30 52 H 2.6302 -2.1144 0.201715 0
M  V30 53 H 4.8932 -0.947598 0.0275949 0
M  V30 54 H 4.5992 -3.48264 -0.490381 0
M  V30 55 H 4.4732 -3.0702 -2.19132 0
M  V30 56 H 6.8602 -2.08356 -2.08978 0
M  V30 57 H 6.9412 -2.5297 -0.379448 0
M  V30 58 H 6.5852 -4.97482 -1.02341 0
M  V30 59 H 6.5152 -4.49794 -2.73848 0
M  V30 60 H 9.0062 -3.41924 -1.60924 0
M  V30 61 H 9.3192 -7.23564 -2.71433 0
M  V30 62 H 7.6642 -6.50476 -2.44757 0
M  V30 63 H 10.8552 -4.27056 -1.91679 0
M  V30 64 H 11.0282 -6.01078 -2.42093 0
M  V30 65 N 4.4343 0.785586 -1.36625 0
M  V30 66 C 5.3813 1.89838 -1.31264 0
M  V30 67 C 6.3513 1.65115 -0.180633 0
M  V30 68 O 7.5363 1.87222 -0.36777 0
M  V30 69 C 4.6763 3.26706 -1.11163 0
M  V30 70 C 3.7893 3.63476 -2.33472 0
M  V30 71 C 2.9243 4.89481 -2.06353 0
M  V30 72 C 1.9633 5.18941 -3.24602 0
M  V30 73 N 1.1003 6.36131 -2.97123 0
M  V30 74 H 5.9403 1.93756 -2.26413 0
M  V30 75 H 3.4773 0.947454 -1.12524 0
M  V30 76 H 5.4353 4.05639 -0.975337 0
M  V30 77 H 4.0653 3.222 -0.196674 0
M  V30 78 H 3.1173 2.79636 -2.57891 0
M  V30 79 H 4.4293 3.81193 -3.21704 0
M  V30 80 H 3.5833 5.76288 -1.89675 0
M  V30 81 H 2.3223 4.73841 -1.15437 0
M  V30 82 H 1.3273 4.30615 -3.41834 0
M  V30 83 H 2.5523 5.36498 -4.16349 0
M  V30 84 H 0.4983 6.21875 -2.08823 0
M  V30 85 H 0.4153 6.54198 -3.78894 0
M  V30 86 H 1.6833 7.2591 -2.84033 0
M  V30 87 N 5.9124 1.20967 1.01018 0
M  V30 88 C 7.1604 1.02172 1.74371 0
M  V30 89 C 7.4814 -0.446414 1.89821 0
M  V30 90 O 6.7514 -1.32234 1.44537 0
M  V30 91 H 5.3314 0.375066 0.646014 0
M  V30 92 H 7.9934 1.52187 1.21758 0
M  V30 93 H 7.0894 1.48538 2.74487 0
M  V30 94 N 7.3905 -1.2043 1.01659 0
M  V30 95 C 8.6395 -1.89118 0.701237 0
M  V30 96 C 8.9525 -1.79705 -0.772358 0
M  V30 97 O 10.1585 -2.43528 -1.20026 0
M  V30 98 C 8.6145 -3.39168 1.20388 0
M  V30 99 C 8.2225 -3.57166 2.70438 0
M  V30 100 C 9.9665 -4.1341 0.963953 0
M  V30 101 C 7.8735 -5.01042 3.14183 0
M  V30 102 H 6.8035 -0.708267 0.2586 0
M  V30 103 H 9.4545 -1.36239 1.22927 0
M  V30 104 H 7.8365 -3.91369 0.603824 0
M  V30 105 H 9.0105 -3.15351 3.35992 0
M  V30 106 H 7.3255 -2.96294 2.92572 0
M  V30 107 H 9.9225 -5.19491 1.26621 0
M  V30 108 H 10.2655 -4.16181 -0.099578 0
M  V30 109 H 10.7985 -3.67309 1.52738 0
M  V30 110 H 7.5375 -5.03426 4.19812 0
M  V30 111 H 7.0575 -5.43668 2.53348 0
M  V30 112 H 8.7365 -5.69623 3.0682 0
M  V30 113 N 8.8686 -0.792821 -1.36206 0
M  V30 114 C 10.1176 -0.363353 -1.984 0
M  V30 115 C 10.4306 1.07172 -1.63626 0
M  V30 116 O 11.6366 1.60362 -2.19081 0
M  V30 117 C 10.0926 -0.59872 -3.54885 0
M  V30 118 C 9.7006 -2.04543 -3.9858 0
M  V30 119 C 11.4446 -0.233926 -4.23855 0
M  V30 120 C 9.3516 -2.22727 -5.47856 0
M  V30 121 H 8.2816 -0.13212 -0.742334 0
M  V30 122 H 10.9326 -0.974935 -1.55458 0
M  V30 123 H 9.3146 0.0826222 -3.95914 0
M  V30 124 H 10.4886 -2.76345 -3.68741 0
M  V30 125 H 8.8036 -2.36879 -3.42458 0
M  V30 126 H 11.4006 -0.348027 -5.33566 0
M  V30 127 H 11.7436 0.818351 -4.08177 0
M  V30 128 H 12.2766 -0.868639 -3.882 0
M  V30 129 H 9.0156 -3.2635 -5.68486 0
M  V30 130 H 8.5356 -1.55434 -5.7931 0
M  V30 131 H 10.2146 -2.03607 -6.14128 0
M  V30 132 N 10.3467 1.47872 -0.545128 0
M  V30 133 C 11.2767 2.32661 0.197793 0
M  V30 134 C 12.2577 1.43041 0.920504 0
M  V30 135 O 13.4427 1.71912 0.90333 0
M  V30 136 C 10.5727 3.24569 1.23582 0
M  V30 137 C 9.5267 4.23333 0.630323 0
M  V30 138 C 8.8527 5.0448 1.77211 0
M  V30 139 C 10.1527 5.20704 -0.407974 0
M  V30 140 H 11.8467 2.95024 -0.510045 0
M  V30 141 H 9.3927 1.4187 -0.246731 0
M  V30 142 H 11.3457 3.8272 1.76362 0
M  V30 143 H 10.0697 2.60236 1.97344 0
M  V30 144 H 8.7287 3.6639 0.123922 0
M  V30 145 H 8.3767 4.36561 2.49847 0
M  V30 146 H 8.0767 5.71339 1.37281 0
M  V30 147 H 9.6007 5.65487 2.3034 0
M  V30 148 H 11.0147 5.7329 0.033305 0
M  V30 149 H 9.4117 5.95699 -0.725486 0
M  V30 150 H 10.4817 4.66917 -1.30828 0
M  V30 151 N 11.8248 0.280983 1.55075 0
M  V30 152 C 12.7878 -0.590896 2.21452 0
M  V30 153 C 13.7878 -1.07682 1.19421 0
M  V30 154 O 14.9778 -0.97605 1.44288 0
M  V30 155 C 12.1098 -1.81587 2.88511 0
M  V30 156 H 13.3028 -0.0112554 2.99898 0
M  V30 157 H 10.8558 0.0316438 1.56268 0
M  V30 158 H 11.5908 -2.43587 2.14093 0
M  V30 159 H 11.3758 -1.4753 3.63287 0
M  V30 160 H 12.8658 -2.43575 3.39206 0
M  V30 161 N 13.3029 -1.57598 0.00835791 0
M  V30 162 C 14.5509 -1.90551 -0.6734 0
M  V30 163 C 14.8719 -0.883301 -1.73847 0
M  V30 164 O 14.1419 0.0781442 -1.95744 0
M  V30 165 H 12.7219 -0.703312 -0.251717 0
M  V30 166 H 15.3839 -1.94833 0.0512592 0
M  V30 167 H 14.4799 -2.9056 -1.13935 0
M  V30 168 N 14.781 0.264519 -1.55364 0
M  V30 169 C 16.029 0.993021 -1.76021 0
M  V30 170 C 16.35 1.86511 -0.569099 0
M  V30 171 O 15.62 1.91438 0.415735 0
M  V30 172 H 14.2 0.369639 -0.649135 0
M  V30 173 H 16.862 0.286707 -1.9278 0
M  V30 174 H 15.958 1.62502 -2.66457 0
M  V30 175 N 16.2591 1.48442 0.529413 0
M  V30 176 C 17.4841 1.60406 1.31471 0
M  V30 177 C 17.9091 0.264738 1.86228 0
M  V30 178 O 17.2671 -0.763668 1.64432 0
M  V30 179 C 17.3151 2.65419 2.44101 0
M  V30 180 O 16.4191 2.22618 3.47153 0
M  V30 181 H 15.7601 0.537863 0.389357 0
M  V30 182 H 18.2901 1.94432 0.636965 0
M  V30 183 H 18.3001 2.86709 2.90279 0
M  V30 184 H 16.9751 3.62652 2.03608 0
M  V30 185 H 15.5521 2.11543 3.0709 0
M  V30 186 N 17.7372 -0.778329 1.37039 0
M  V30 187 C 18.9852 -1.53361 1.31623 0
M  V30 188 C 19.3062 -1.94739 -0.100831 0
M  V30 189 O 18.5762 -1.65797 -1.04347 0
M  V30 190 H 17.1562 -0.568794 0.484234 0
M  V30 191 H 19.8182 -0.926742 1.71457 0
M  V30 192 H 18.9142 -2.43606 1.95096 0
M  V30 193 N 19.2153 -1.21501 -1.00376 0
M  V30 194 C 20.4433 -1.059 -1.77744 0
M  V30 195 C 20.8583 0.391125 -1.84704 0
M  V30 196 O 20.2153 1.27133 -1.30933 0
M  V30 197 C 20.2663 -1.65111 -3.21591 0
M  V30 198 O 19.9873 -3.0445 -3.15027 0
M  V30 199 C 21.4883 -1.54637 -4.15454 0
M  V30 200 H 18.7083 -0.371825 -0.558558 0
M  V30 201 H 21.2523 -1.60865 -1.26264 0
M  V30 202 H 19.4073 -1.14235 -3.70175 0
M  V30 203 H 19.8213 -3.3278 -4.0541 0
M  V30 204 H 21.2953 -2.00808 -5.14179 0
M  V30 205 H 21.7723 -0.501022 -4.36333 0
M  V30 206 H 22.3783 -2.04767 -3.72761 0
M  V30 207 N 20.6934 1.19889 -1.02296 0
M  V30 208 C 22.1094 1.41462 -0.738954 0
M  V30 209 C 22.3094 1.89721 0.678846 0
M  V30 210 O 21.3654 2.07016 1.4457 0
M  V30 211 C 22.6784 2.43083 -1.77005 0
M  V30 212 C 24.2264 2.5684 -1.78892 0
M  V30 213 C 24.7014 3.61709 -2.80945 0
M  V30 214 N 26.1924 3.69199 -2.79725 0
M  V30 215 C 26.9274 4.50019 -3.55345 0
M  V30 216 N 26.4234 5.34592 -4.40662 0
M  V30 217 N 28.2164 4.44612 -3.43914 0
M  V30 218 H 20.3674 0.868827 -1.93817 0
M  V30 219 H 22.6304 0.44399 -0.837602 0
M  V30 220 H 22.3364 2.14636 -2.78612 0
M  V30 221 H 22.2104 3.4217 -1.58744 0
M  V30 222 H 24.5974 2.84614 -0.779674 0
M  V30 223 H 24.6784 1.57927 -2.01228 0
M  V30 224 H 24.3224 3.34678 -3.82038 0
M  V30 225 H 24.2524 4.60259 -2.5587 0
M  V30 226 H 26.7434 3.08794 -2.17842 0
M  V30 227 H 27.0564 5.93363 -4.95116 0
M  V30 228 H 25.4014 5.34073 -4.44737 0
M  V30 229 H 28.5924 3.7758 -2.76679 0
M  V30 230 H 28.7654 5.0736 -4.031 0
M  V30 231 N 22.1715 0.800033 1.35784 0
M  V30 232 C 23.1015 0.220184 2.3246 0
M  V30 233 C 24.0825 -0.65073 1.57161 0
M  V30 234 O 25.2675 -0.582359 1.85263 0
M  V30 235 C 22.3975 -0.637353 3.41402 0
M  V30 236 C 21.3515 0.134531 4.27789 0
M  V30 237 C 20.6775 -0.844285 5.27992 0
M  V30 238 C 21.9775 1.32979 5.05088 0
M  V30 239 H 23.6715 1.02787 2.81203 0
M  V30 240 H 21.2175 0.495717 1.35199 0
M  V30 241 H 23.1705 -1.05302 4.08031 0
M  V30 242 H 21.8945 -1.47785 2.91251 0
M  V30 243 H 20.5535 0.531296 3.6273 0
M  V30 244 H 20.2015 -1.68011 4.74111 0
M  V30 245 H 19.9015 -0.332184 5.8666 0
M  V30 246 H 21.4255 -1.2583 5.97494 0
M  V30 247 H 22.8395 0.98934 5.64699 0
M  V30 248 H 21.2365 1.77593 5.7322 0
M  V30 249 H 22.3065 2.11978 4.36111 0
M  V30 250 N 23.6496 -1.47581 0.552962 0
M  V30 251 C 24.5996 -2.26961 -0.217423 0
M  V30 252 C 25.5836 -1.34099 -0.889168 0
M  V30 253 O 26.7756 -1.58483 -0.788176 0
M  V30 254 C 23.9046 -3.19756 -1.24944 0
M  V30 255 C 22.9906 -4.20097 -0.581327 0
M  V30 256 N 23.3816 -5.04614 0.346171 0
M  V30 257 C 21.6796 -4.38099 -0.835767 0
M  V30 258 C 22.3806 -5.77052 0.733854 0
M  V30 259 N 21.3566 -5.43526 0.0896567 0
M  V30 260 H 25.1586 -2.89688 0.495761 0
M  V30 261 H 22.6726 -1.58068 0.372597 0
M  V30 262 H 24.6696 -3.75305 -1.81527 0
M  V30 263 H 23.3296 -2.58585 -1.96376 0
M  V30 264 H 24.3406 -5.12869 0.720098 0
M  V30 265 H 21.0176 -3.88102 -1.53892 0
M  V30 266 H 22.4076 -6.5504 1.49574 0
M  V30 267 N 25.1277 -0.289203 -1.54924 0
M  V30 268 C 26.5387 0.205791 -1.85562 0
M  V30 269 C 26.8897 1.54351 -1.2112 0
M  V30 270 O 26.0147 2.10435 -0.504601 0
M  V30 271 C 26.6097 0.380177 -3.3666 0
M  V30 272 C 25.1687 0.819395 -3.67373 0
M  V30 273 C 24.3157 -0.079159 -2.77187 0
M  V30 274 H 27.2667 -0.510577 -1.50262 0
M  V30 275 H 27.2877 1.21659 -3.60526 0
M  V30 276 H 26.7997 -0.593589 -3.83534 0
M  V30 277 H 24.9007 1.80413 -3.26009 0
M  V30 278 H 25.0137 0.646957 -4.74712 0
M  V30 279 H 23.3777 0.439565 -2.50878 0
M  V30 280 H 24.1607 -1.04906 -3.26878 0
M  V30 281 N 26.6058 1.57591 -0.0167156 0
M  V30 282 C 27.5688 2.08393 0.954204 0
M  V30 283 C 28.5688 0.996531 1.26198 0
M  V30 284 O 29.7588 1.25858 1.20438 0
M  V30 285 C 26.8908 2.5394 2.27436 0
M  V30 286 H 28.0838 2.95455 0.514451 0
M  V30 287 H 25.6368 1.54582 0.231089 0
M  V30 288 H 26.3718 1.70171 2.76066 0
M  V30 289 H 26.1568 3.33371 2.06412 0
M  V30 290 H 27.6468 2.93512 2.97053 0
M  V30 291 N 28.0839 -0.256276 1.55502 0
M  V30 292 C 29.3119 -1.00342 1.8094 0
M  V30 293 C 29.7269 -1.79307 0.59114 0
M  V30 294 O 29.0839 -1.77114 -0.440081 0
M  V30 295 C 29.1349 -1.94875 3.04476 0
M  V30 296 O 28.8559 -1.19107 4.21598 0
M  V30 297 C 30.3569 -2.81266 3.42644 0
M  V30 298 H 27.5769 -0.295685 0.602338 0
M  V30 299 H 30.1209 -0.281998 2.02546 0
M  V30 300 H 28.2759 -2.62457 2.84947 0
M  V30 301 H 28.6899 -1.82969 4.91551 0
M  V30 302 H 30.1639 -3.43362 4.32211 0
M  V30 303 H 30.6409 -3.51897 2.62802 0
M  V30 304 H 31.2469 -2.1915 3.64491 0
M  V30 305 N 29.562 -1.4872 -0.521534 0
M  V30 306 C 30.492 -1.66771 -1.63431 0
M  V30 307 C 31.473 -0.516499 -1.62069 0
M  V30 308 O 32.658 -0.750013 -1.79132 0
M  V30 309 C 29.788 -1.71515 -3.01993 0
M  V30 310 C 28.742 -2.86222 -3.18216 0
M  V30 311 C 28.068 -2.76061 -4.57924 0
M  V30 312 C 29.368 -4.27419 -3.00184 0
M  V30 313 H 31.062 -2.59932 -1.48579 0
M  V30 314 H 28.608 -1.25089 -0.713358 0
M  V30 315 H 30.561 -1.82731 -3.7972 0
M  V30 316 H 29.285 -0.749393 -3.17886 0
M  V30 317 H 27.944 -2.74575 -2.42908 0
M  V30 318 H 27.592 -1.77437 -4.70665 0
M  V30 319 H 27.292 -3.53037 -4.69722 0
M  V30 320 H 28.816 -2.89256 -5.37739 0
M  V30 321 H 30.23 -4.39855 -3.67697 0
M  V30 322 H 28.627 -5.05458 -3.2347 0
M  V30 323 H 29.697 -4.43293 -1.96518 0
M  V30 324 N 31.0401 0.771051 -1.3745 0
M  V30 325 C 32.0031 1.86598 -1.33093 0
M  V30 326 C 33.0031 1.59076 -0.234845 0
M  V30 327 O 34.1931 1.67145 -0.490732 0
M  V30 328 C 31.3251 3.23747 -1.06773 0
M  V30 329 H 32.5181 1.91873 -2.30488 0
M  V30 330 H 30.0711 0.970876 -1.2249 0
M  V30 331 H 30.8061 3.24148 -0.099129 0
M  V30 332 H 30.5911 3.45115 -1.86112 0
M  V30 333 H 32.0811 4.03824 -1.06377 0
M  V30 334 N 32.5182 1.22032 0.997298 0
M  V30 335 C 33.7672 1.03637 1.73038 0
M  V30 336 C 34.0802 -0.429475 1.90827 0
M  V30 337 O 35.2862 -0.732995 2.61418 0
M  V30 338 C 33.7422 1.80582 3.11317 0
M  V30 339 C 33.3502 3.31387 3.01474 0
M  V30 340 C 35.0942 1.70621 3.88701 0
M  V30 341 C 33.0012 4.00791 4.3488 0
M  V30 342 H 31.9312 0.384179 0.648785 0
M  V30 343 H 34.5822 1.4584 1.11368 0
M  V30 344 H 32.9642 1.31175 3.73643 0
M  V30 345 H 34.1382 3.88155 2.4834 0
M  V30 346 H 32.4532 3.41976 2.37575 0
M  V30 347 H 35.0502 2.19799 4.87434 0
M  V30 348 H 35.3932 0.665823 4.10941 0
M  V30 349 H 35.9262 2.17547 3.33044 0
M  V30 350 H 32.6652 5.05064 4.1784 0
M  V30 351 H 32.1852 3.48811 4.87945 0
M  V30 352 H 33.8642 4.06139 5.03647 0
M  V30 353 N 33.9963 -1.19345 1.0293 0
M  V30 354 C 35.2213 -1.93538 0.745511 0
M  V30 355 C 35.6463 -1.75007 -0.689511 0
M  V30 356 O 35.0043 -1.05265 -1.47611 0
M  V30 357 C 35.0523 -3.43336 1.10239 0
M  V30 358 O 34.1563 -4.11806 0.221289 0
M  V30 359 H 33.4973 -0.604193 0.275404 0
M  V30 360 H 36.0273 -1.5141 1.37609 0
M  V30 361 H 36.0373 -3.94004 1.05947 0
M  V30 362 H 34.7123 -3.56146 2.14786 0
M  V30 363 H 33.2893 -3.715 0.322842 0
M  V30 364 N 35.4744 -0.807222 -1.35358 0
M  V30 365 C 36.4214 -0.216037 -2.29787 0
M  V30 366 C 37.3914 0.650278 -1.52842 0
M  V30 367 O 38.5764 0.595227 -1.81278 0
M  V30 368 C 35.7164 0.628893 -3.39321 0
M  V30 369 C 34.8294 -0.257927 -4.31229 0
M  V30 370 C 33.9644 0.595069 -5.27856 0
M  V30 371 C 33.0034 -0.292111 -6.11403 0
M  V30 372 N 32.1404 0.520895 -7.00165 0
M  V30 373 H 36.9804 -1.02671 -2.79755 0
M  V30 374 H 34.5174 -0.517839 -1.37684 0
M  V30 375 H 36.4754 1.13393 -4.01494 0
M  V30 376 H 35.1054 1.40482 -2.90628 0
M  V30 377 H 34.1574 -0.881076 -3.70056 0
M  V30 378 H 35.4694 -0.940759 -4.89848 0
M  V30 379 H 34.6234 1.16522 -5.95405 0
M  V30 380 H 33.3624 1.31146 -4.69736 0
M  V30 381 H 32.3674 -0.874525 -5.428 0
M  V30 382 H 33.5924 -1.00638 -6.71602 0
M  V30 383 H 31.5384 1.22125 -6.44532 0
M  V30 384 H 31.4554 -0.103877 -7.55929 0
M  V30 385 H 32.7234 1.0743 -7.72062 0
M  V30 386 N 36.9525 1.47285 -0.560781 0
M  V30 387 C 37.8845 2.28118 0.222438 0
M  V30 388 C 38.8975 1.37219 0.876056 0
M  V30 389 O 40.0865 1.62011 0.749307 0
M  V30 390 C 37.1865 3.1159 1.33285 0
M  V30 391 C 36.3595 4.30473 0.77534 0
M  V30 392 C 35.4185 4.95513 1.77069 0
M  V30 393 O 34.4445 5.53792 1.31539 0
M  V30 394 N 35.6465 4.90531 3.10418 0
M  V30 395 H 38.4115 2.95976 -0.470958 0
M  V30 396 H 35.9725 1.56955 -0.39709 0
M  V30 397 H 37.9645 3.51967 1.99752 0
M  V30 398 H 36.5345 2.45951 1.92943 0
M  V30 399 H 35.7545 3.94144 -0.0662113 0
M  V30 400 H 37.0425 5.07362 0.382272 0
M  V30 401 H 36.4405 4.44389 3.5005 0
M  V30 402 H 34.9975 5.34917 3.72434 0
M  V30 403 N 38.4306 0.297415 1.54768 0
M  V30 404 C 39.3606 -0.573494 2.26348 0
M  V30 405 C 40.3416 -1.14085 1.26169 0
M  V30 406 O 41.5266 -1.17086 1.54934 0
M  V30 407 C 38.6566 -1.74716 3.00153 0
M  V30 408 C 37.6106 -1.31032 4.07449 0
M  V30 409 C 36.9366 -2.56887 4.68949 0
M  V30 410 C 38.2366 -0.444183 5.20408 0
M  V30 411 H 39.9306 0.0235131 2.99391 0
M  V30 412 H 37.4766 0.0127488 1.43994 0
M  V30 413 H 39.4296 -2.3625 3.48947 0
M  V30 414 H 38.1536 -2.37035 2.24682 0
M  V30 415 H 36.8126 -0.718066 3.59499 0
M  V30 416 H 36.4606 -3.17512 3.90122 0
M  V30 417 H 36.1606 -2.2836 5.41411 0
M  V30 418 H 37.6846 -3.19229 5.20505 0
M  V30 419 H 39.0986 -0.9651 5.65118 0
M  V30 420 H 37.4956 -0.252846 5.99567 0
M  V30 421 H 38.5656 0.531609 4.81977 0
M  V30 422 N 39.9087 -1.5758 0.0250728 0
M  V30 423 C 40.8387 -2.13007 -0.956575 0
M  V30 424 C 41.8197 -1.0452 -1.342 0
M  V30 425 O 43.0047 -1.32332 -1.42133 0
M  V30 426 C 40.1347 -2.65386 -2.24026 0
M  V30 427 C 39.0887 -3.78623 -1.99571 0
M  V30 428 C 38.4147 -4.17414 -3.3417 0
M  V30 429 C 39.7147 -5.04867 -1.33814 0
M  V30 430 H 41.4087 -2.9528 -0.494991 0
M  V30 431 H 38.9547 -1.42042 -0.236651 0
M  V30 432 H 40.9077 -3.02794 -2.93076 0
M  V30 433 H 39.6317 -1.80268 -2.72343 0
M  V30 434 H 38.2907 -3.41646 -1.32941 0
M  V30 435 H 37.9387 -3.29284 -3.80238 0
M  V30 436 H 37.6387 -4.93719 -3.18615 0
M  V30 437 H 39.1627 -4.57402 -4.04495 0
M  V30 438 H 40.5767 -5.39888 -1.92857 0
M  V30 439 H 38.9737 -5.86144 -1.28669 0
M  V30 440 H 40.0437 -4.83904 -0.310561 0
M  V30 441 N 41.3868 0.248026 -1.55636 0
M  V30 442 C 42.7978 0.817177 -1.67866 0
M  V30 443 C 43.1488 1.86069 -0.622322 0
M  V30 444 O 42.2738 2.15157 0.231618 0
M  V30 445 C 42.8688 1.489 -3.04326 0
M  V30 446 C 41.4278 2.00587 -3.185 0
M  V30 447 C 40.5748 0.856573 -2.63739 0
M  V30 448 H 43.5258 0.0238579 -1.58682 0
M  V30 449 H 43.5468 2.35698 -2.98708 0
M  V30 450 H 43.0588 0.729279 -3.81186 0
M  V30 451 H 41.1598 2.79443 -2.4646 0
M  V30 452 H 41.2728 2.20402 -4.25393 0
M  V30 453 H 39.6368 1.25678 -2.21534 0
M  V30 454 H 40.4198 0.109953 -3.43124 0
M  V30 455 N 42.8649 1.48995 0.513639 0
M  V30 456 C 44.1109 1.58076 1.27042 0
M  V30 457 C 44.4439 0.261026 1.92438 0
M  V30 458 O 43.7189 -0.734393 1.80103 0
M  V30 459 C 44.0019 2.73091 2.34719 0
M  V30 460 C 43.8549 4.14821 1.73907 0
M  V30 461 C 45.1739 2.83796 3.36375 0
M  V30 462 H 42.2929 0.575391 0.460536 0
M  V30 463 H 44.9349 1.81232 0.570516 0
M  V30 464 H 43.0849 2.53479 2.94416 0
M  V30 465 H 44.7569 4.45917 1.18135 0
M  V30 466 H 42.9999 4.21058 1.0437 0
M  V30 467 H 43.6709 4.91147 2.51949 0
M  V30 468 H 46.1469 3.01611 2.86653 0
M  V30 469 H 45.0229 3.65971 4.09093 0
M  V30 470 H 45.2839 1.92624 3.9793 0
M  V30 471 N 44.343 -0.763751 1.37857 0
M  V30 472 C 45.573 -1.55067 1.3652 0
M  V30 473 C 45.981 -1.89135 -0.0494227 0
M  V30 474 O 45.324 -1.52529 -1.02375 0
M  V30 475 C 45.386 -2.8838 2.14656 0
M  V30 476 C 45.05 -2.76905 3.63555 0
M  V30 477 C 46.047 -2.4739 4.57268 0
M  V30 478 C 43.732 -2.94676 4.06781 0
M  V30 479 C 45.726 -2.35786 5.92186 0
M  V30 480 C 43.413 -2.82692 5.41782 0
M  V30 481 C 44.411 -2.53289 6.34298 0
M  V30 482 O 44.099 -2.41345 7.66817 0
M  V30 483 H 43.831 -0.486776 0.469069 0
M  V30 484 H 46.385 -0.953812 1.81911 0
M  V30 485 H 44.615 -3.50217 1.63967 0
M  V30 486 H 46.304 -3.49828 2.05852 0
M  V30 487 H 47.07 -2.33339 4.2518 0
M  V30 488 H 42.949 -3.16563 3.35126 0
M  V30 489 H 46.493 -2.12757 6.64365 0
M  V30 490 H 42.39 -2.96314 5.7347 0
M  V30 491 H 43.158 -2.56634 7.77226 0
M  V30 492 N 45.8211 -1.22559 -0.990812 0
M  V30 493 C 47.0981 -0.959875 -1.70428 0
M  V30 494 C 47.4781 0.524455 -2.04481 0
M  V30 495 O 46.8261 1.49302 -1.72977 0
M  V30 496 C 47.0361 -1.85955 -2.95333 0
M  V30 497 C 48.3841 -2.11687 -3.68068 0
M  V30 498 O 49.4081 -1.8342 -3.05345 0
M  V30 499 O 48.2671 -2.59572 -4.80921 0
M  V30 500 H 45.3611 -0.361154 -0.743974 0
M  V30 501 H 47.9071 -1.33554 -1.04697 0
M  V30 502 H 46.6791 -2.86346 -2.66687 0
M  V30 503 H 46.3021 -1.4856 -3.68803 0
M  V30 504 N 47.2992 1.18797 -1.03562 0
M  V30 505 C 48.2462 2.22253 -0.622259 0
M  V30 506 C 49.2162 1.61987 0.36736 0
M  V30 507 O 50.4012 1.88986 0.262492 0
M  V30 508 C 47.5412 3.45097 0.0138462 0
M  V30 509 C 46.6542 4.19722 -1.02263 0
M  V30 510 C 45.7892 5.30009 -0.355573 0
M  V30 511 C 44.8282 5.96399 -1.37749 0
M  V30 512 N 43.9652 6.98234 -0.735766 0
M  V30 513 H 48.8052 2.56968 -1.50903 0
M  V30 514 H 46.3422 1.26245 -0.755017 0
M  V30 515 H 48.3002 4.15279 0.399948 0
M  V30 516 H 46.9302 3.11018 0.864158 0
M  V30 517 H 45.9822 3.48418 -1.52673 0
M  V30 518 H 47.2942 4.65227 -1.79903 0
M  V30 519 H 46.4482 6.0664 0.0850095 0
M  V30 520 H 45.1872 4.85592 0.452967 0
M  V30 521 H 44.1922 5.18512 -1.82826 0
M  V30 522 H 45.4172 6.42899 -2.18764 0
M  V30 523 H 43.3632 6.55979 0.0525597 0
M  V30 524 H 43.2802 7.41965 -1.44995 0
M  V30 525 H 44.5482 7.78845 -0.31941 0
M  V30 526 N 48.7773 0.814389 1.34928 0
M  V30 527 C 50.1883 0.458364 1.80986 0
M  V30 528 C 50.5393 -1.02042 1.67577 0
M  V30 529 O 49.6643 -1.79352 1.21086 0
M  V30 530 C 50.2593 0.825212 3.28597 0
M  V30 531 C 48.8183 0.521677 3.72767 0
M  V30 532 C 47.9653 1.04668 2.56788 0
M  V30 533 H 50.9163 1.00533 1.22795 0
M  V30 534 H 50.9373 0.12571 3.80292 0
M  V30 535 H 50.4493 1.90154 3.38324 0
M  V30 536 H 48.5503 -0.545589 3.68584 0
M  V30 537 H 48.6633 1.05977 4.67232 0
M  V30 538 H 47.0273 0.468622 2.50352 0
M  V30 539 H 47.8103 2.12927 2.6929 0
M  V30 540 N 50.2554 -1.46986 0.568584 0
M  V30 541 C 51.1884 -2.27129 -0.220779 0
M  V30 542 C 52.1664 -1.34757 -0.909905 0
M  V30 543 O 53.3504 -1.64152 -0.926622 0
M  V30 544 C 50.4774 -3.12108 -1.31553 0
M  V30 545 C 49.5234 -4.20141 -0.733748 0
M  V30 546 S 50.3564 -5.33783 0.428479 0
M  V30 547 C 51.5124 -6.22327 -0.667811 0
M  V30 548 H 51.7454 -2.93731 0.459267 0
M  V30 549 H 49.2784 -1.5026 0.355154 0
M  V30 550 H 51.2364 -3.61636 -1.94241 0
M  V30 551 H 49.8974 -2.44847 -1.96746 0
M  V30 552 H 49.0904 -4.79373 -1.5562 0
M  V30 553 H 48.6924 -3.73553 -0.182812 0
M  V30 554 H 50.9844 -6.59364 -1.55708 0
M  V30 555 H 51.9274 -7.0801 -0.11258 0
M  V30 556 H 52.3354 -5.5618 -0.965601 0
M  V30 557 N 51.7335 -0.305618 -1.54608 0
M  V30 558 C 52.9825 0.303098 -1.9941 0
M  V30 559 C 53.2955 1.54648 -1.19764 0
M  V30 560 O 54.5015 2.23007 -1.54855 0
M  V30 561 C 52.9575 0.590588 -3.55021 0
M  V30 562 C 52.5655 -0.634719 -4.43481 0
M  V30 563 C 54.3095 1.16025 -4.08336 0
M  V30 564 C 52.2165 -0.320126 -5.90533 0
M  V30 565 H 51.1465 0.117031 -0.744862 0
M  V30 566 H 53.7975 -0.415045 -1.78745 0
M  V30 567 H 52.1795 1.36845 -3.71604 0
M  V30 568 H 53.3535 -1.41079 -4.38672 0
M  V30 569 H 51.6685 -1.12333 -4.00962 0
M  V30 570 H 54.2655 1.40994 -5.15776 0
M  V30 571 H 54.6085 2.10397 -3.5922 0
M  V30 572 H 55.1415 0.443985 -3.95315 0
M  V30 573 H 51.8805 -1.23254 -6.43808 0
M  V30 574 H 51.4005 0.418579 -5.98338 0
M  V30 575 H 53.0795 0.0766241 -6.46955 0
M  V30 576 N 53.2116 1.57565 -0.0334293 0
M  V30 577 C 54.4416 1.95996 0.653398 0
M  V30 578 C 54.8496 0.908749 1.65947 0
M  V30 579 O 54.1926 -0.117471 1.83324 0
M  V30 580 C 54.2546 3.30589 1.41249 0
M  V30 581 C 53.9186 4.53503 0.564263 0
M  V30 582 C 54.9156 5.19647 -0.16225 0
M  V30 583 C 52.6006 4.99801 0.500398 0
M  V30 584 C 54.5946 6.30412 -0.941255 0
M  V30 585 C 52.2816 6.10448 -0.282308 0
M  V30 586 C 53.2796 6.75612 -1.00184 0
M  V30 587 O 52.9676 7.84134 -1.77171 0
M  V30 588 H 52.6996 0.65027 0.184728 0
M  V30 589 H 55.2536 2.05199 -0.0907841 0
M  V30 590 H 53.4836 3.17888 2.20191 0
M  V30 591 H 55.1726 3.53892 1.98784 0
M  V30 592 H 55.9386 4.84846 -0.12227 0
M  V30 593 H 51.8176 4.48883 1.05002 0
M  V30 594 H 55.3616 6.81208 -1.50339 0
M  V30 595 H 51.2586 6.44686 -0.323989 0
M  V30 596 H 52.0266 8.00822 -1.69194 0
M  V30 597 N 54.6897 -0.239769 1.55765 0
M  V30 598 C 55.9197 -0.982743 1.8173 0
M  V30 599 C 56.3277 -1.7917 0.607835 0
M  V30 600 O 55.6707 -1.78525 -0.432973 0
M  V30 601 C 55.7327 -1.96332 3.01155 0
M  V30 602 C 55.3967 -1.34062 4.36894 0
M  V30 603 C 56.3937 -0.739539 5.14613 0
M  V30 604 C 54.0787 -1.35784 4.83599 0
M  V30 605 C 56.0727 -0.163989 6.37189 0
M  V30 606 C 53.7597 -0.778441 6.06122 0
M  V30 607 C 54.7577 -0.182548 6.82756 0
M  V30 608 O 54.4457 0.387887 8.02964 0
M  V30 609 H 54.1777 -0.294481 0.608487 0
M  V30 610 H 56.7317 -0.26572 2.03674 0
M  V30 611 H 54.9617 -2.71884 2.74984 0
M  V30 612 H 56.6507 -2.57032 3.14149 0
M  V30 613 H 57.4167 -0.718687 4.79646 0
M  V30 614 H 53.2957 -1.81105 4.23936 0
M  V30 615 H 56.8397 0.301753 6.96947 0
M  V30 616 H 52.7367 -0.796645 6.40565 0
M  V30 617 H 53.5047 0.28044 8.18019 0
M  V30 618 N 56.1678 -1.49265 -0.50573 0
M  V30 619 C 57.5788 -1.51769 -1.08734 0
M  V30 620 C 57.9298 -0.301192 -1.93874 0
M  V30 621 O 57.0548 0.589456 -2.08217 0
M  V30 622 C 57.6498 -2.75017 -1.97867 0
M  V30 623 C 56.2088 -2.80314 -2.51199 0
M  V30 624 C 55.3558 -2.4562 -1.28709 0
M  V30 625 H 58.3068 -1.56031 -0.289855 0
M  V30 626 H 58.3278 -2.5491 -2.82491 0
M  V30 627 H 57.8398 -3.63539 -1.35873 0
M  V30 628 H 55.9408 -1.96061 -3.16845 0
M  V30 629 H 56.0538 -3.82366 -2.88675 0
M  V30 630 H 54.4178 -1.97297 -1.61078 0
M  V30 631 H 55.2008 -3.36411 -0.6843 0
M  V30 632 N 57.6459 0.756429 -1.3826 0
M  V30 633 C 58.5759 1.88374 -1.37976 0
M  V30 634 C 59.5569 1.68311 -0.246082 0
M  V30 635 O 60.7419 1.88944 -0.44874 0
M  V30 636 C 57.8719 3.25864 -1.20125 0
M  V30 637 C 56.8259 3.60523 -2.30666 0
M  V30 638 C 56.1519 4.9672 -1.97923 0
M  V30 639 C 57.4519 3.65692 -3.72916 0
M  V30 640 H 59.1459 1.88869 -2.32312 0
M  V30 641 H 56.6919 0.907272 -1.11824 0
M  V30 642 H 58.6449 4.0438 -1.18552 0
M  V30 643 H 57.3689 3.25841 -0.222498 0
M  V30 644 H 56.0279 2.84324 -2.3142 0
M  V30 645 H 55.6759 4.93253 -0.985393 0
M  V30 646 H 55.3759 5.20878 -2.71955 0
M  V30 647 H 56.8999 5.77618 -1.97964 0
M  V30 648 H 58.3139 4.34328 -3.74208 0
M  V30 649 H 56.7109 4.01358 -4.4613 0
M  V30 650 H 57.7809 2.65987 -4.05436 0
M  V30 651 N 59.124 1.23083 0.984299 0
M  V30 652 C 60.349 1.088 1.76571 0
M  V30 653 C 60.774 -0.356657 1.84688 0
M  V30 654 O 60.132 -1.25788 1.30565 0
M  V30 655 C 60.18 1.71371 3.17277 0
M  V30 656 O 59.284 0.973213 4.00752 0
M  V30 657 H 58.625 0.381599 0.543395 0
M  V30 658 H 61.155 1.63057 1.23587 0
M  V30 659 H 61.165 1.76449 3.67872 0
M  V30 660 H 59.84 2.76493 3.10684 0
M  V30 661 H 58.417 0.999078 3.59267 0
M  V30 662 N 60.6021 -1.18246 1.0419 0
M  V30 663 C 61.8301 -1.92195 0.766072 0
M  V30 664 C 62.2451 -1.76247 -0.676933 0
M  V30 665 O 61.6021 -1.09293 -1.46155 0
M  V30 666 C 61.6531 -3.43568 1.12442 0
M  V30 667 O 61.3741 -3.59015 2.51078 0
M  V30 668 C 62.8751 -4.34613 0.873275 0
M  V30 669 H 60.0951 -0.610114 0.279288 0
M  V30 670 H 62.6391 -1.50007 1.38989 0
M  V30 671 H 60.7941 -3.8354 0.545542 0
M  V30 672 H 61.2081 -4.5273 2.64831 0
M  V30 673 H 62.6821 -5.39374 1.17385 0
M  V30 674 H 63.1591 -4.38781 -0.191909 0
M  V30 675 H 63.7651 -4.00341 1.43551 0
M  V30 676 N 62.0802 -0.821533 -1.34494 0
M  V30 677 C 63.0102 -0.257138 -2.3208 0
M  V30 678 C 63.9912 0.625645 -1.58176 0
M  V30 679 O 65.1762 0.552811 -1.86166 0
M  V30 680 C 62.3062 0.582958 -3.42372 0
M  V30 681 C 61.2602 -0.202571 -4.2752 0
M  V30 682 C 60.5862 0.760179 -5.29269 0
M  V30 683 C 61.8862 -1.40998 -5.02908 0
M  V30 684 H 63.5802 -1.07247 -2.79532 0
M  V30 685 H 61.1262 -0.517163 -1.34393 0
M  V30 686 H 63.0792 0.987972 -4.09655 0
M  V30 687 H 61.8032 1.43133 -2.93565 0
M  V30 688 H 60.4622 -0.588936 -3.61838 0
M  V30 689 H 60.1102 1.60447 -4.76724 0
M  V30 690 H 59.8102 0.238809 -5.87115 0
M  V30 691 H 61.3342 1.16308 -5.9942 0
M  V30 692 H 62.7482 -1.07905 -5.63054 0
M  V30 693 H 61.1452 -1.86689 -5.70322 0
M  V30 694 H 62.2152 -2.1889 -4.32684 0
M  V30 695 N 63.5583 1.46682 -0.576371 0
M  V30 696 C 64.4913 2.27243 0.208731 0
M  V30 697 C 65.4693 1.35238 0.902746 0
M  V30 698 O 66.6533 1.64641 0.917904 0
M  V30 699 C 63.7803 3.12802 1.29896 0
M  V30 700 C 62.8263 4.20524 0.711457 0
M  V30 701 S 63.6593 5.33548 -0.456781 0
M  V30 702 C 64.8153 6.22673 0.634798 0
M  V30 703 H 65.0483 2.93484 -0.474838 0
M  V30 704 H 62.5813 1.50069 -0.363118 0
M  V30 705 H 64.5393 3.62661 1.92321 0
M  V30 706 H 63.2003 2.45887 1.95444 0
M  V30 707 H 62.3933 4.80191 1.53076 0
M  V30 708 H 61.9953 3.73645 0.162999 0
M  V30 709 H 64.2873 6.60181 1.52209 0
M  V30 710 H 65.2303 7.0806 0.0750311 0
M  V30 711 H 65.6383 5.56684 0.936092 0
M  V30 712 N 65.0364 0.313813 1.54444 0
M  V30 713 C 65.9664 -0.549454 2.26943 0
M  V30 714 C 66.9474 -1.12741 1.27372 0
M  V30 715 O 68.1324 -1.15436 1.56167 0
M  V30 716 C 65.2624 -1.71523 3.01989 0
M  V30 717 C 64.2164 -1.26703 4.08816 0
M  V30 718 C 63.5424 -2.51898 4.71647 0
M  V30 719 C 64.8424 -0.388962 5.2085 0
M  V30 720 H 66.5364 0.0552661 2.99349 0
M  V30 721 H 64.0824 0.0280207 1.43973 0
M  V30 722 H 66.0354 -2.32535 3.51433 0
M  V30 723 H 64.7594 -2.34639 2.27183 0
M  V30 724 H 63.4184 -0.679896 3.6024 0
M  V30 725 H 63.0664 -3.13356 3.93468 0
M  V30 726 H 62.7664 -2.22605 5.43802 0
M  V30 727 H 64.2904 -3.1369 5.23861 0
M  V30 728 H 65.7044 -0.905107 5.6611 0
M  V30 729 H 64.1014 -0.18924 5.99802 0
M  V30 730 H 65.1714 0.582699 4.81386 0
M  V30 731 N 66.5145 -1.57545 0.0417849 0
M  V30 732 C 67.4775 -2.09885 -0.92093 0
M  V30 733 C 68.4775 -1.01648 -1.24596 0
M  V30 734 O 69.6675 -1.27759 -1.1842 0
M  V30 735 C 66.7995 -2.57527 -2.23367 0
M  V30 736 H 67.9925 -2.96236 -0.467382 0
M  V30 737 H 65.5455 -1.5493 -0.206467 0
M  V30 738 H 66.2805 -1.74542 -2.73323 0
M  V30 739 H 66.0655 -3.36613 -2.01083 0
M  V30 740 H 67.5555 -2.98201 -2.92346 0
M  V30 741 N 67.9926 0.231505 -1.5589 0
M  V30 742 C 69.2406 0.955461 -1.78088 0
M  V30 743 C 69.5616 1.85262 -0.608533 0
M  V30 744 O 68.8316 1.92277 0.375035 0
M  V30 745 H 67.4116 0.355787 -0.656829 0
M  V30 746 H 70.0736 0.245751 -1.93344 0
M  V30 747 H 69.1696 1.56814 -2.69844 0
M  V30 748 N 69.4707 1.49531 0.497807 0
M  V30 749 C 70.7197 1.58426 1.24837 0
M  V30 750 C 71.0327 0.277643 1.93619 0
M  V30 751 O 72.2387 0.24517 2.70391 0
M  V30 752 C 70.6947 2.79538 2.26686 0
M  V30 753 C 70.3027 4.16971 1.63828 0
M  V30 754 C 72.0467 2.97764 3.0255 0
M  V30 755 C 69.9537 5.29301 2.63807 0
M  V30 756 H 68.8837 0.58989 0.469623 0
M  V30 757 H 71.5347 1.75923 0.521857 0
M  V30 758 H 69.9167 2.55542 3.02514 0
M  V30 759 H 71.0907 4.51116 0.939711 0
M  V30 760 H 69.4057 4.04129 1.00342 0
M  V30 761 H 72.0027 3.78856 3.77323 0
M  V30 762 H 72.3457 2.08448 3.60354 0
M  V30 763 H 72.8787 3.21815 2.33838 0
M  V30 764 H 69.6177 6.20687 2.10779 0
M  V30 765 H 69.1377 4.99606 3.31894 0
M  V30 766 H 70.8167 5.58768 3.2617 0
M  V30 767 N 70.9488 -0.749086 1.3866 0
M  V30 768 C 72.3648 -1.05276 1.19955 0
M  V30 769 C 72.5648 -2.01435 0.05134 0
M  V30 770 O 71.6208 -2.45232 -0.60147 0
M  V30 771 C 72.9338 -1.62853 2.52783 0
M  V30 772 C 74.4818 -1.75002 2.59506 0
M  V30 773 C 74.9568 -2.35991 3.92521 0
M  V30 774 N 76.4478 -2.43416 3.94085 0
M  V30 775 C 77.1828 -2.91511 4.9377 0
M  V30 776 N 76.6788 -3.39608 6.03853 0
M  V30 777 N 78.4718 -2.90592 4.81157 0
M  V30 778 H 70.6228 -0.111066 2.12109 0
M  V30 779 H 72.8858 -0.111901 0.941373 0
M  V30 780 H 72.5918 -0.99664 3.37283 0
M  V30 781 H 72.4658 -2.61854 2.715 0
M  V30 782 H 74.8528 -2.37317 1.75398 0
M  V30 783 H 74.9338 -0.74693 2.44652 0
M  V30 784 H 74.5778 -1.74308 4.77053 0
M  V30 785 H 74.5078 -3.3695 4.04688 0
M  V30 786 H 76.9988 -2.09405 3.14576 0
M  V30 787 H 77.3118 -3.74775 6.75843 0
M  V30 788 H 75.6568 -3.37653 6.07466 0
M  V30 789 H 78.8478 -2.52332 3.94267 0
M  V30 790 H 79.0208 -3.27762 5.58996 0
M  V30 791 N 72.4269 -1.23603 -0.977757 0
M  V30 792 C 73.3369 -1.03632 -2.1047 0
M  V30 793 C 74.3529 0.0199435 -1.73989 0
M  V30 794 O 75.5289 -0.176076 -2.00629 0
M  V30 795 C 72.5939 -0.63276 -3.40877 0
M  V30 796 C 71.6549 -1.76437 -3.91367 0
M  V30 797 C 70.8879 -1.37997 -5.15551 0
M  V30 798 O 71.1109 -0.265357 -5.69782 0
M  V30 799 O 70.0449 -2.20201 -5.60174 0
M  V30 800 H 73.8709 -1.98086 -2.30208 0
M  V30 801 H 71.4559 -1.02332 -1.08851 0
M  V30 802 H 73.3379 -0.418761 -4.19314 0
M  V30 803 H 72.0129 0.282754 -3.22463 0
M  V30 804 H 70.9199 -2.03304 -3.14036 0
M  V30 805 H 72.2529 -2.6583 -4.14241 0
M  V30 806 N 73.905 1.17692 -1.04816 0
M  V30 807 C 75.154 1.87192 -0.751132 0
M  V30 808 C 75.467 1.8169 0.724441 0
M  V30 809 O 76.673 2.46625 1.13527 0
M  V30 810 C 75.129 3.35857 -1.29338 0
M  V30 811 C 74.737 3.4987 -2.79812 0
M  V30 812 C 76.481 4.10709 -1.07322 0
M  V30 813 C 74.388 4.92536 -3.27356 0
M  V30 814 H 73.318 0.701162 -0.277288 0
M  V30 815 H 75.969 1.32932 -1.26496 0
M  V30 816 H 74.351 3.89631 -0.707376 0
M  V30 817 H 75.525 3.06332 -3.44235 0
M  V30 818 H 73.84 2.88433 -3.00325 0
M  V30 819 H 76.437 5.15952 -1.4035 0
M  V30 820 H 76.78 4.16299 -0.0108001 0
M  V30 821 H 77.313 3.6313 -1.62423 0
M  V30 822 H 74.052 4.92119 -4.33012 0
M  V30 823 H 73.572 5.3676 -2.67673 0
M  V30 824 H 75.251 5.61288 -3.21815 0
M  V30 825 N 75.3831 0.828654 1.34056 0
M  V30 826 C 76.3131 0.269443 2.3194 0
M  V30 827 C 77.2941 -0.617247 1.58506 0
M  V30 828 O 78.4791 -0.542931 1.86456 0
M  V30 829 C 75.6091 -0.564793 3.42677 0
M  V30 830 C 74.5631 0.225241 4.27407 0
M  V30 831 C 73.8891 -0.7321 5.29664 0
M  V30 832 C 75.1891 1.43663 5.02154 0
M  V30 833 H 76.8831 1.08728 2.7896 0
M  V30 834 H 74.4291 0.524283 1.34117 0
M  V30 835 H 76.3821 -0.966233 4.10173 0
M  V30 836 H 75.1061 -1.41574 2.9432 0
M  V30 837 H 73.7651 0.608117 3.61521 0
M  V30 838 H 73.4131 -1.57916 4.77568 0
M  V30 839 H 73.1131 -0.20767 5.87233 0
M  V30 840 H 74.6371 -1.13128 6.00029 0
M  V30 841 H 76.0511 1.1089 5.62473 0
M  V30 842 H 74.4481 1.89711 5.69324 0
M  V30 843 H 75.5181 2.21181 4.31517 0
M  V30 844 N 76.8612 -1.46375 0.584142 0
M  V30 845 C 78.1102 -2.01585 0.0679741 0
M  V30 846 C 78.4232 -1.46109 -1.30045 0
M  V30 847 O 79.6292 -1.93148 -1.90804 0
M  V30 848 C 78.0852 -3.5983 0.0709207 0
M  V30 849 C 77.6932 -4.24303 1.43775 0
M  V30 850 C 79.4372 -4.22693 -0.391228 0
M  V30 851 C 77.3442 -5.74631 1.39834 0
M  V30 852 H 76.2742 -0.753689 0.0216421 0
M  V30 853 H 78.9252 -1.68093 0.736001 0
M  V30 854 H 77.3072 -3.90405 -0.663299 0
M  V30 855 H 78.4812 -4.05335 2.19181 0
M  V30 856 H 76.7962 -3.73539 1.84004 0
M  V30 857 H 79.3932 -5.3289 -0.439524 0
M  V30 858 H 79.7362 -3.91728 -1.40906 0
M  V30 859 H 80.2692 -3.96749 0.288974 0
M  V30 860 H 77.0082 -6.10258 2.39303 0
M  V30 861 H 76.5282 -5.95858 0.686505 0
M  V30 862 H 78.2072 -6.37375 1.11187 0
M  V30 863 N 78.3393 -0.321999 -1.54275 0
M  V30 864 C 79.5883 0.281931 -1.9972 0
M  V30 865 C 79.9013 1.53369 -1.21397 0
M  V30 866 O 81.1073 2.21352 -1.57211 0
M  V30 867 C 79.5633 0.5529 -3.55628 0
M  V30 868 C 79.1713 -0.681721 -4.42783 0
M  V30 869 C 80.9153 1.11687 -4.09544 0
M  V30 870 C 78.8223 -0.382742 -5.9016 0
M  V30 871 H 77.7523 0.109124 -0.746062 0
M  V30 872 H 80.4033 -0.43398 -1.78294 0
M  V30 873 H 78.7853 1.32896 -3.73035 0
M  V30 874 H 79.9593 -1.45723 -4.37151 0
M  V30 875 H 78.2743 -1.1658 -3.99748 0
M  V30 876 H 80.8713 1.35515 -5.17242 0
M  V30 877 H 81.2143 2.06575 -3.61431 0
M  V30 878 H 81.7473 0.402032 -3.95763 0
M  V30 879 H 78.4863 -1.30076 -6.42464 0
M  V30 880 H 78.0063 0.355094 -5.98748 0
M  V30 881 H 79.6853 0.00800157 -6.47 0
M  V30 882 N 79.8174 1.5752 -0.0501392 0
M  V30 883 C 81.0424 1.97376 0.636997 0
M  V30 884 C 81.4674 0.927466 1.63645 0
M  V30 885 O 80.8254 -0.10941 1.8097 0
M  V30 886 C 80.8734 3.36304 1.30123 0
M  V30 887 O 79.9774 3.34156 2.41689 0
M  V30 888 H 79.3184 0.642998 0.165679 0
M  V30 889 H 81.8484 2.04258 -0.118233 0
M  V30 890 H 81.8584 3.73008 1.65315 0
M  V30 891 H 80.5334 4.11993 0.568746 0
M  V30 892 H 79.1104 3.09196 2.08451 0
M  V30 893 N 81.2955 -0.223234 1.56011 0
M  V30 894 C 82.5235 -0.964812 1.83027 0
M  V30 895 C 82.9385 -1.78013 0.62904 0
M  V30 896 O 82.2955 -1.78008 -0.402414 0
M  V30 897 C 82.3465 -1.88373 3.08542 0
M  V30 898 O 82.0675 -1.10137 4.2403 0
M  V30 899 C 83.5685 -2.73934 3.48533 0
M  V30 900 H 80.7885 -0.282842 0.608475 0
M  V30 901 H 83.3325 -0.238971 2.03099 0
M  V30 902 H 81.4875 -2.56354 2.9045 0
M  V30 903 H 81.9015 -1.72501 4.95322 0
M  V30 904 H 83.3755 -3.34117 4.39397 0
M  V30 905 H 83.8525 -3.46244 2.70207 0
M  V30 906 H 84.4585 -2.11369 3.69057 0
M  V30 907 N 82.7736 -1.49793 -0.48987 0
M  V30 908 C 84.1846 -1.52914 -1.07118 0
M  V30 909 C 84.5356 -0.321738 -1.93544 0
M  V30 910 O 83.6606 0.567338 -2.08831 0
M  V30 911 C 84.2556 -2.771 -1.94938 0
M  V30 912 C 82.8146 -2.82963 -2.48212 0
M  V30 913 C 81.9616 -2.46972 -1.26096 0
M  V30 914 H 84.9126 -1.56329 -0.273289 0
M  V30 915 H 84.9336 -2.57892 -2.79771 0
M  V30 916 H 84.4456 -3.64959 -1.32009 0
M  V30 917 H 82.5466 -1.99411 -3.14748 0
M  V30 918 H 82.6596 -3.85406 -2.84603 0
M  V30 919 H 81.0236 -1.98994 -1.58976 0
M  V30 920 H 81.8066 -3.37118 -0.648581 0
M  V30 921 N 84.2517 0.741722 -1.39055 0
M  V30 922 C 85.1837 1.8657 -1.33133 0
M  V30 923 C 86.1967 1.61001 -0.241329 0
M  V30 924 O 87.3857 1.7136 -0.499784 0
M  V30 925 C 84.4857 3.22457 -1.04283 0
M  V30 926 C 83.6587 3.75435 -2.24427 0
M  V30 927 C 82.7177 4.89867 -1.92138 0
M  V30 928 O 81.7437 5.03879 -2.64754 0
M  V30 929 N 82.9457 5.73738 -0.88347 0
M  V30 930 H 85.7107 1.92156 -2.29991 0
M  V30 931 H 83.2717 0.922172 -1.3307 0
M  V30 932 H 85.2637 3.9657 -0.807128 0
M  V30 933 H 83.8337 3.12181 -0.161807 0
M  V30 934 H 83.0537 2.92751 -2.6399 0
M  V30 935 H 84.3417 4.07563 -3.04581 0
M  V30 936 H 83.7397 5.64999 -0.281517 0
M  V30 937 H 82.2967 6.47947 -0.707662 0
M  V30 938 N 85.7298 1.2412 0.971189 0
M  V30 939 C 87.0068 0.986867 1.6888 0
M  V30 940 C 87.3868 -0.491857 2.0529 0
M  V30 941 O 86.7348 -1.46531 1.75331 0
M  V30 942 C 86.9448 1.9063 2.92338 0
M  V30 943 C 88.2928 2.17515 3.64654 0
M  V30 944 O 89.3168 1.88254 3.02388 0
M  V30 945 O 88.1758 2.6719 4.7673 0
M  V30 946 H 85.2698 0.372944 0.738134 0
M  V30 947 H 87.8158 1.35203 1.02559 0
M  V30 948 H 86.5878 2.90552 2.62097 0
M  V30 949 H 86.2108 1.54408 3.66393 0
M  V30 950 N 87.2079 -1.17134 1.05439 0
M  V30 951 C 88.4359 -1.91372 0.786414 0
M  V30 952 C 88.8509 -1.76955 -0.658202 0
M  V30 953 O 88.2079 -1.10838 -1.44987 0
M  V30 954 C 88.2589 -3.42356 1.1608 0
M  V30 955 O 87.9799 -3.56332 2.54871 0
M  V30 956 C 89.4809 -4.33663 0.919322 0
M  V30 957 H 86.7009 -0.607118 0.285743 0
M  V30 958 H 89.2449 -1.48525 1.40572 0
M  V30 959 H 87.3999 -3.82939 0.586191 0
M  V30 960 H 87.8139 -4.49896 2.69618 0
M  V30 961 H 89.2879 -5.38099 1.231 0
M  V30 962 H 89.7649 -4.38959 -0.145359 0
M  V30 963 H 90.3709 -3.98796 1.47789 0
M  V30 964 N 88.686 -0.835752 -1.33615 0
M  V30 965 C 90.097 -0.487099 -1.80234 0
M  V30 966 C 90.448 0.993627 -1.69179 0
M  V30 967 O 89.573 1.77403 -1.23924 0
M  V30 968 C 90.168 -0.877385 -3.27242 0
M  V30 969 C 88.727 -0.580915 -3.7189 0
M  V30 970 C 87.874 -1.0874 -2.5509 0
M  V30 971 H 90.825 -1.02474 -1.2118 0
M  V30 972 H 90.846 -0.186195 -3.80044 0
M  V30 973 H 90.358 -1.95512 -3.35256 0
M  V30 974 H 88.459 0.486881 -3.69405 0
M  V30 975 H 88.572 -1.13396 -4.65487 0
M  V30 976 H 86.936 -0.508392 -2.49575 0
M  V30 977 H 87.719 -2.17184 -2.65868 0
M  V30 978 N 90.1641 1.46063 -0.591896 0
M  V30 979 C 91.5801 1.57561 -0.254288 0
M  V30 980 C 91.7801 1.58565 1.24336 0
M  V30 981 O 90.8361 1.50753 2.02558 0
M  V30 982 C 92.1491 2.86549 -0.911611 0
M  V30 983 C 93.6971 3.00197 -0.886059 0
M  V30 984 C 94.1721 4.31933 -1.5231 0
M  V30 985 N 95.6631 4.38654 -1.48786 0
M  V30 986 C 96.3981 5.39222 -1.95006 0
M  V30 987 N 95.8941 6.46414 -2.49241 0
M  V30 988 N 97.6871 5.3048 -1.85868 0
M  V30 989 H 89.8381 1.43655 -1.56451 0
M  V30 990 H 92.1011 0.68583 -0.654478 0
M  V30 991 H 91.8071 2.91651 -1.96551 0
M  V30 992 H 91.6811 3.74794 -0.425368 0
M  V30 993 H 94.0681 2.9467 0.159246 0
M  V30 994 H 94.1491 2.13403 -1.41041 0
M  V30 995 H 93.7931 4.38217 -2.56765 0
M  V30 996 H 93.7231 5.17516 -0.973891 0
M  V30 997 H 96.2141 3.61793 -1.09151 0
M  V30 998 H 96.5271 7.19376 -2.82344 0
M  V30 999 H 94.8721 6.47208 -2.53272 0
M  V30 1000 H 98.0631 4.45643 -1.43248 0
M  V30 1001 H 98.2361 6.08711 -2.22204 0
M  V30 1002 N 91.6422 0.330177 1.54103 0
M  V30 1003 C 92.8892 -0.270405 2.00686 0
M  V30 1004 C 93.2172 -1.51621 1.21825 0
M  V30 1005 O 92.4722 -1.93536 0.29025 0
M  V30 1006 C 92.7712 -0.643134 3.51566 0
M  V30 1007 C 92.4372 0.504251 4.48072 0
M  V30 1008 C 91.0992 0.819163 4.74176 0
M  V30 1009 C 93.4512 1.27465 5.05373 0
M  V30 1010 C 90.7792 1.90708 5.5484 0
M  V30 1011 C 93.1312 2.35271 5.87223 0
M  V30 1012 C 91.7952 2.67336 6.11627 0
M  V30 1013 H 91.0652 -0.0989482 0.734364 0
M  V30 1014 H 93.7122 0.455324 1.86008 0
M  V30 1015 H 92.0172 -1.44938 3.64006 0
M  V30 1016 H 93.7142 -1.11949 3.85056 0
M  V30 1017 H 90.3042 0.248733 4.27878 0
M  V30 1018 H 94.4882 1.04462 4.85182 0
M  V30 1019 H 89.7442 2.15991 5.71977 0
M  V30 1020 H 93.9182 2.95405 6.30641 0
M  V30 1021 H 91.5452 3.51763 6.73919 0
M  V30 1022 N 93.1203 -1.57491 0.0584922 0
M  V30 1023 C 94.0523 -2.08916 -0.942694 0
M  V30 1024 C 95.0653 -1.0185 -1.27006 0
M  V30 1025 O 96.2543 -1.29398 -1.22957 0
M  V30 1026 C 93.3543 -2.52341 -2.26224 0
M  V30 1027 C 92.5273 -3.82827 -2.1157 0
M  V30 1028 C 91.5863 -4.12487 -3.26712 0
M  V30 1029 O 90.6123 -4.82295 -3.02292 0
M  V30 1030 N 91.8143 -3.64978 -4.5141 0
M  V30 1031 H 94.5793 -2.95437 -0.503722 0
M  V30 1032 H 92.1403 -1.61397 -0.12757 0
M  V30 1033 H 94.1323 -2.69254 -3.02133 0
M  V30 1034 H 92.7023 -1.7103 -2.61663 0
M  V30 1035 H 91.9223 -3.75425 -1.20208 0
M  V30 1036 H 93.2103 -4.68263 -1.99015 0
M  V30 1037 H 92.6083 -3.08558 -4.7414 0
M  V30 1038 H 91.1653 -3.87115 -5.2439 0
M  V30 1039 N 94.5984 0.214957 -1.56127 0
M  V30 1040 C 95.5304 1.29004 -1.89448 0
M  V30 1041 C 96.5434 1.42716 -0.783326 0
M  V30 1042 O 97.7324 1.43496 -1.06166 0
M  V30 1043 C 94.8324 2.66482 -2.09381 0
M  V30 1044 C 94.0054 2.74633 -3.40434 0
M  V30 1045 C 93.0644 3.9317 -3.49719 0
M  V30 1046 O 92.0904 3.812 -4.227 0
M  V30 1047 N 93.2924 5.07765 -2.81346 0
M  V30 1048 H 96.0574 1.00743 -2.82261 0
M  V30 1049 H 93.6184 0.40497 -1.56753 0
M  V30 1050 H 95.6104 3.44173 -2.12901 0
M  V30 1051 H 94.1804 2.87314 -1.23163 0
M  V30 1052 H 93.4004 1.83368 -3.48955 0
M  V30 1053 H 94.6884 2.77054 -4.26754 0
M  V30 1054 H 94.0864 5.20386 -2.21843 0
M  V30 1055 H 92.6434 5.83474 -2.90519 0
M  V30 1056 N 96.0765 1.50051 0.48192 0
M  V30 1057 C 97.0065 1.71046 1.58951 0
M  V30 1058 C 97.9875 0.559288 1.60642 0
M  V30 1059 O 99.1725 0.797243 1.77081 0
M  V30 1060 C 96.3025 1.79462 2.97339 0
M  V30 1061 C 95.2565 2.94558 3.10515 0
M  V30 1062 C 94.5825 2.88105 4.50444 0
M  V30 1063 C 95.8825 4.35227 2.88747 0
M  V30 1064 H 97.5765 2.6378 1.41635 0
M  V30 1065 H 95.1225 1.26936 0.679942 0
M  V30 1066 H 97.0755 1.92734 3.74742 0
M  V30 1067 H 95.7995 0.833412 3.15788 0
M  V30 1068 H 94.4585 2.80918 2.35543 0
M  V30 1069 H 94.1065 1.89853 4.65795 0
M  V30 1070 H 93.8065 3.65366 4.60197 0
M  V30 1071 H 95.3305 3.03412 5.29881 0
M  V30 1072 H 96.7445 4.49449 3.55905 0
M  V30 1073 H 95.1415 5.13856 3.09955 0
M  V30 1074 H 96.2115 4.48347 1.84696 0
M  V30 1075 N 97.5546 -0.734337 1.39446 0
M  V30 1076 C 98.4846 -1.86155 1.40955 0
M  V30 1077 C 99.4656 -1.67898 0.272827 0
M  V30 1078 O 100.651 -1.88207 0.478743 0
M  V30 1079 C 97.7806 -3.23912 1.25294 0
M  V30 1080 C 96.7346 -3.56808 2.36373 0
M  V30 1081 C 96.0606 -4.93508 2.058 0
M  V30 1082 C 97.3606 -3.59713 3.78687 0
M  V30 1083 H 99.0546 -1.8515 2.35287 0
M  V30 1084 H 96.6006 -0.889367 1.13253 0
M  V30 1085 H 98.5536 -4.02443 1.2497 0
M  V30 1086 H 97.2776 -3.25446 0.274308 0
M  V30 1087 H 95.9366 -2.80606 2.35914 0
M  V30 1088 H 95.5846 -4.91623 1.06374 0
M  V30 1089 H 95.2846 -5.16486 2.80208 0
M  V30 1090 H 96.8086 -5.74396 2.07128 0
M  V30 1091 H 98.2226 -4.2832 3.81071 0
M  V30 1092 H 96.6196 -3.94209 4.52459 0
M  V30 1093 H 97.6896 -2.59504 4.09617 0
M  V30 1094 N 99.0327 -1.24633 -0.964593 0
M  V30 1095 C 100.281 -1.08573 -1.70459 0
M  V30 1096 C 100.602 0.375655 -1.91347 0
M  V30 1097 O 99.8717 1.26779 -1.49345 0
M  V30 1098 H 98.4517 -0.398784 -0.631649 0
M  V30 1099 H 101.114 -1.56601 -1.16026 0
M  V30 1100 H 100.21 -1.58623 -2.68785 0
M  V30 1101 N 100.511 1.16574 -1.06058 0
M  V30 1102 C 101.788 1.83048 -0.689416 0
M  V30 1103 C 102.168 1.94122 0.829443 0
M  V30 1104 O 101.516 1.48249 1.7388 0
M  V30 1105 C 101.726 3.20186 -1.38859 0
M  V30 1106 C 103.074 3.95989 -1.53226 0
M  V30 1107 O 104.098 3.29696 -1.3483 0
M  V30 1108 O 102.957 5.14813 -1.83384 0
M  V30 1109 H 100.051 0.790258 -0.243764 0
M  V30 1110 H 102.597 1.23797 -1.16071 0
M  V30 1111 H 101.369 3.07146 -2.4244 0
M  V30 1112 H 100.992 3.87112 -0.907216 0
M  V30 1113 N 101.989 0.842826 1.3317 0
M  V30 1114 C 103.237 0.439577 1.97262 0
M  V30 1115 C 103.558 -1.00548 1.67078 0
M  V30 1116 O 102.828 -1.70098 0.971779 0
M  V30 1117 H 101.408 0.159558 0.72976 0
M  V30 1118 H 104.07 1.07665 1.62463 0
M  V30 1119 H 103.166 0.574886 3.0676 0
M  V30 1120 N 103.467 -1.45747 0.599634 0
M  V30 1121 C 104.692 -2.07178 0.0960198 0
M  V30 1122 C 105.117 -1.44268 -1.207 0
M  V30 1123 O 104.475 -0.532503 -1.73303 0
M  V30 1124 C 104.523 -3.60579 -0.0385348 0
M  V30 1125 O 103.627 -3.97713 -1.0908 0
M  V30 1126 H 102.968 -0.660251 0.0704593 0
M  V30 1127 H 105.498 -1.87124 0.827385 0
M  V30 1128 H 105.508 -4.07298 -0.239304 0
M  V30 1129 H 104.183 -4.05756 0.912947 0
M  V30 1130 H 102.76 -3.62678 -0.867135 0
M  V30 1131 N 104.945 -0.338344 -1.53925 0
M  V30 1132 C 105.893 0.536231 -2.26335 0
M  V30 1133 C 106.887 1.1063 -1.28286 0
M  V30 1134 O 108.093 1.05264 -1.46012 0
M  V30 1135 H 104.468 0.191602 -0.727181 0
M  V30 1136 H 106.439 -0.0965747 -2.98244 0
M  V30 1137 C 105.188 1.67803 -3.04528 0
M  V30 1138 H 104.511 1.24864 -3.79801 0
M  V30 1139 H 105.951 2.26526 -3.58416 0
M  V30 1140 C 104.41 2.60439 -2.13712 0
M  V30 1141 O 104.94 3.6255 -1.72975 0
M  V30 1142 N 103.146 2.29006 -1.78898 0
M  V30 1143 H 102.693 1.46011 -2.12223 0
M  V30 1144 H 102.651 2.91248 -1.18416 0
M  V30 1145 N 106.423 1.57458 -0.0668435 0
M  V30 1146 C 107.669 1.94401 0.598316 0
M  V30 1147 C 108.024 0.946335 1.67518 0
M  V30 1148 O 107.317 -0.0321442 1.91573 0
M  V30 1149 C 107.511 3.35784 1.22409 0
M  V30 1150 C 107.34 4.49212 0.209367 0
M  V30 1151 C 106.11 5.04887 -0.204218 0
M  V30 1152 C 108.308 5.11335 -0.551431 0
M  V30 1153 N 106.29 6.01854 -1.21016 0
M  V30 1154 C 107.661 6.03754 -1.41 0
M  V30 1155 C 109.716 4.94173 -0.608038 0
M  V30 1156 C 108.419 6.80854 -2.32013 0
M  V30 1157 C 110.445 5.71912 -1.50566 0
M  V30 1158 C 109.807 6.63976 -2.35191 0
M  V30 1159 H 105.906 0.758538 0.190114 0
M  V30 1160 H 108.49 1.94175 -0.142832 0
M  V30 1161 H 106.661 3.36757 1.93518 0
M  V30 1162 H 108.393 3.59976 1.84931 0
M  V30 1163 H 105.148 4.73266 0.177908 0
M  V30 1164 H 105.572 6.55035 -1.71049 0
M  V30 1165 H 110.214 4.22788 0.032022 0
M  V30 1166 H 107.932 7.5152 -2.97057 0
M  V30 1167 H 111.518 5.60656 -1.55423 0
M  V30 1168 H 110.398 7.2308 -3.03522 0
M  V30 1169 N 107.901 -0.206675 1.56239 0
M  V30 1170 C 109.149 -0.927007 1.79586 0
M  V30 1171 C 109.47 -1.8427 0.637929 0
M  V30 1172 O 108.74 -1.92849 -0.344398 0
M  V30 1173 H 107.32 -0.345292 0.662407 0
M  V30 1174 H 109.982 -0.21496 1.93711 0
M  V30 1175 H 109.078 -1.52501 2.72305 0
M  V30 1176 N 109.379 -1.50304 -0.473955 0
M  V30 1177 C 110.309 -1.71886 -1.58042 0
M  V30 1178 C 111.29 -0.567799 -1.60344 0
M  V30 1179 O 112.475 -0.806623 -1.76656 0
M  V30 1180 C 109.605 -1.81036 -2.96384 0
M  V30 1181 C 108.559 -2.962 -3.08949 0
M  V30 1182 C 107.885 -2.9049 -4.48909 0
M  V30 1183 C 109.185 -4.36752 -2.86434 0
M  V30 1184 H 110.879 -2.64527 -1.40234 0
M  V30 1185 H 108.425 -1.27295 -0.673201 0
M  V30 1186 H 110.378 -1.94719 -3.73714 0
M  V30 1187 H 109.102 -0.850147 -3.15341 0
M  V30 1188 H 107.761 -2.82164 -2.3405 0
M  V30 1189 H 107.409 -1.92321 -4.64781 0
M  V30 1190 H 107.109 -3.67802 -4.58253 0
M  V30 1191 H 108.633 -3.06218 -5.28264 0
M  V30 1192 H 110.047 -4.5133 -3.53517 0
M  V30 1193 H 108.444 -5.15493 -3.07225 0
M  V30 1194 H 109.514 -4.49321 -1.82316 0
M  V30 1195 N 110.857 0.726932 -1.39834 0
M  V30 1196 C 112.134 1.47902 -1.28001 0
M  V30 1197 C 112.514 2.1083 0.106789 0
M  V30 1198 O 111.862 1.99242 1.11869 0
M  V30 1199 C 112.072 2.52392 -2.41038 0
M  V30 1200 C 113.42 3.18546 -2.80737 0
M  V30 1201 O 114.444 2.62708 -2.40547 0
M  V30 1202 O 113.303 4.19604 -3.50135 0
M  V30 1203 H 110.397 0.657163 -0.502062 0
M  V30 1204 H 112.943 0.760071 -1.51727 0
M  V30 1205 H 111.715 2.04329 -3.33715 0
M  V30 1206 H 111.338 3.31837 -2.19021 0
M  V30 1207 N 112.336 1.25143 0.95797 0
M  V30 1208 C 113.266 1.07711 2.07173 0
M  V30 1209 C 114.247 -0.0128462 1.70095 0
M  V30 1210 O 115.432 0.156061 1.93572 0
M  V30 1211 C 112.562 0.691503 3.40346 0
M  V30 1212 C 111.516 1.73132 3.9142 0
M  V30 1213 C 110.842 1.20049 5.21049 0
M  V30 1214 C 112.142 3.1294 4.1817 0
M  V30 1215 H 113.836 2.00873 2.22014 0
M  V30 1216 H 111.382 0.967191 1.06684 0
M  V30 1217 H 113.335 0.556505 4.17709 0
M  V30 1218 H 112.059 -0.275819 3.25433 0
M  V30 1219 H 110.718 1.8547 3.16222 0
M  V30 1220 H 110.366 0.223499 5.02503 0
M  V30 1221 H 110.066 1.89545 5.56189 0
M  V30 1222 H 111.59 1.07782 6.01012 0
M  V30 1223 H 113.004 3.03775 4.86203 0
M  V30 1224 H 111.401 3.79875 4.64559 0
M  V30 1225 H 112.471 3.6025 3.24573 0
M  V30 1226 N 113.814 -1.1601 1.06675 0
M  V30 1227 C 114.746 -2.20115 0.638921 0
M  V30 1228 C 115.759 -1.59916 -0.305057 0
M  V30 1229 O 116.948 -1.78245 -0.0954446 0
M  V30 1230 C 114.048 -3.38798 -0.0830083 0
M  V30 1231 C 113.221 -4.2855 0.875426 0
M  V30 1232 C 112.28 -5.25849 0.192042 0
M  V30 1233 O 111.306 -5.63102 0.830921 0
M  V30 1234 N 112.508 -5.70648 -1.06493 0
M  V30 1235 H 115.273 -2.57439 1.53444 0
M  V30 1236 H 112.834 -1.31057 0.950557 0
M  V30 1237 H 114.826 -4.00936 -0.550685 0
M  V30 1238 H 113.396 -2.99947 -0.880386 0
M  V30 1239 H 112.616 -3.63617 1.52238 0
M  V30 1240 H 113.904 -4.85393 1.52548 0
M  V30 1241 H 113.302 -5.42482 -1.60405 0
M  V30 1242 H 111.859 -6.34859 -1.47641 0
M  V30 1243 N 115.292 -0.849877 -1.32721 0
M  V30 1244 C 116.522 -0.46408 -2.0132 0
M  V30 1245 C 116.93 0.94246 -1.64056 0
M  V30 1246 O 116.273 1.6257 -0.855379 0
M  V30 1247 C 116.335 -0.517887 -3.5575 0
M  V30 1248 C 115.999 -1.88248 -4.16427 0
M  V30 1249 C 116.996 -2.84726 -4.35002 0
M  V30 1250 C 114.681 -2.17832 -4.52609 0
M  V30 1251 C 116.675 -4.08945 -4.8892 0
M  V30 1252 C 114.362 -3.42304 -5.06232 0
M  V30 1253 C 115.36 -4.37677 -5.24335 0
M  V30 1254 O 115.048 -5.59946 -5.76815 0
M  V30 1255 H 114.78 -0.181327 -0.651227 0
M  V30 1256 H 117.334 -1.14713 -1.70382 0
M  V30 1257 H 115.564 0.221997 -3.86062 0
M  V30 1258 H 117.253 -0.148366 -4.05629 0
M  V30 1259 H 118.019 -2.63174 -4.07388 0
M  V30 1260 H 113.898 -1.44385 -4.37806 0
M  V30 1261 H 117.442 -4.83396 -5.02966 0
M  V30 1262 H 113.339 -3.63709 -5.33278 0
M  V30 1263 H 114.107 -5.61838 -5.95214 0
M  V30 1264 N 116.77 1.45427 -0.607355 0
M  V30 1265 C 117.733 2.28974 0.101693 0
M  V30 1266 C 118.733 1.39754 0.795329 0
M  V30 1267 O 119.923 1.61878 0.643527 0
M  V30 1268 C 117.055 3.20768 1.15414 0
M  V30 1269 H 118.248 2.93147 -0.632844 0
M  V30 1270 H 115.801 1.51945 -0.366391 0
M  V30 1271 H 116.536 2.61395 1.91945 0
M  V30 1272 H 116.321 3.86489 0.66098 0
M  V30 1273 H 117.811 3.83589 1.65073 0
M  V30 1274 N 118.248 0.346503 1.53744 0
M  V30 1275 C 119.494 -0.249473 2.0126 0
M  V30 1276 C 119.827 -1.49965 1.23386 0
M  V30 1277 O 119.102 -1.91811 0.32229 0
M  V30 1278 C 119.385 -0.560643 3.55709 0
M  V30 1279 C 119.238 0.701836 4.44291 0
M  V30 1280 C 120.557 -1.36905 4.18264 0
M  V30 1281 H 117.676 -0.0891987 0.731582 0
M  V30 1282 H 120.318 0.467624 1.84156 0
M  V30 1283 H 118.468 -1.17156 3.70414 0
M  V30 1284 H 120.14 1.33974 4.41417 0
M  V30 1285 H 118.383 1.32612 4.13033 0
M  V30 1286 H 119.054 0.43933 5.50249 0
M  V30 1287 H 121.53 -0.852448 4.07275 0
M  V30 1288 H 120.406 -1.55553 5.26398 0
M  V30 1289 H 120.667 -2.37203 3.73078 0
M  V30 1290 N 119.726 -1.57421 0.075193 0
M  V30 1291 C 120.658 -2.09904 -0.920483 0
M  V30 1292 C 121.671 -1.03191 -1.25918 0
M  V30 1293 O 122.86 -1.30695 -1.21577 0
M  V30 1294 C 119.96 -2.54726 -2.23534 0
M  V30 1295 C 119.133 -3.8505 -2.07498 0
M  V30 1296 C 118.192 -4.15929 -3.22319 0
M  V30 1297 O 117.218 -4.85474 -2.9716 0
M  V30 1298 N 118.42 -3.69745 -4.47514 0
M  V30 1299 H 121.185 -2.95954 -0.472359 0
M  V30 1300 H 118.746 -1.61523 -0.110444 0
M  V30 1301 H 120.738 -2.72443 -2.9926 0
M  V30 1302 H 119.308 -1.73795 -2.59835 0
M  V30 1303 H 118.528 -3.76679 -1.16219 0
M  V30 1304 H 119.816 -4.70348 -1.94038 0
M  V30 1305 H 119.214 -3.13569 -4.7084 0
M  V30 1306 H 117.771 -3.92655 -5.20255 0
M  V30 1307 N 121.204 0.198386 -1.56346 0
M  V30 1308 C 122.615 0.763358 -1.70381 0
M  V30 1309 C 122.966 1.83995 -0.681203 0
M  V30 1310 O 122.091 2.15785 0.16305 0
M  V30 1311 C 122.686 1.39143 -3.08909 0
M  V30 1312 C 121.245 1.90352 -3.2472 0
M  V30 1313 C 120.392 0.772233 -2.6633 0
M  V30 1314 H 123.343 -0.0266377 -1.58678 0
M  V30 1315 H 123.364 2.26076 -3.06055 0
M  V30 1316 H 122.876 0.607638 -3.83314 0
M  V30 1317 H 120.977 2.71461 -2.55225 0
M  V30 1318 H 121.09 2.06757 -4.3219 0
M  V30 1319 H 119.454 1.18566 -2.2542 0
M  V30 1320 H 120.237 0.00073556 -3.433 0
M  V30 1321 N 122.682 1.50554 0.465978 0
M  V30 1322 C 123.907 1.65838 1.24549 0
M  V30 1323 C 124.332 0.343486 1.84937 0
M  V30 1324 O 123.69 -0.69324 1.67523 0
M  V30 1325 C 123.738 2.75533 2.32624 0
M  V30 1326 O 122.842 2.37142 3.37398 0
M  V30 1327 H 122.183 0.553893 0.366194 0
M  V30 1328 H 124.713 1.96959 0.553927 0
M  V30 1329 H 124.723 2.98763 2.77857 0
M  V30 1330 H 123.398 3.70962 1.88043 0
M  V30 1331 H 121.975 2.24377 2.97841 0
M  V30 1332 N 124.16 -0.719506 1.40217 0
M  V30 1333 C 125.571 -1.29848 1.34151 0
M  V30 1334 C 125.922 -1.96196 0.0131349 0
M  V30 1335 O 125.047 -1.973 -0.88892 0
M  V30 1336 C 125.642 -2.36118 2.42968 0
M  V30 1337 C 124.201 -2.8965 2.40374 0
M  V30 1338 C 123.348 -1.63393 2.24049 0
M  V30 1339 H 126.299 -0.51591 1.5008 0
M  V30 1340 H 126.32 -3.16871 2.10649 0
M  V30 1341 H 125.832 -1.878 3.39636 0
M  V30 1342 H 123.933 -3.42208 1.47392 0
M  V30 1343 H 124.046 -3.4171 3.35814 0
M  V30 1344 H 122.41 -1.88312 1.71495 0
M  V30 1345 H 123.193 -1.17104 3.2271 0
M  V30 1346 N 125.638 -1.25649 -0.95132 0
M  V30 1347 C 126.915 -1.01361 -1.67288 0
M  V30 1348 C 127.295 0.459135 -2.06046 0
M  V30 1349 O 126.643 1.43723 -1.7764 0
M  V30 1350 C 126.853 -1.95256 -2.89268 0
M  V30 1351 C 128.201 -2.23289 -3.61147 0
M  V30 1352 O 129.225 -1.93041 -2.99355 0
M  V30 1353 O 128.084 -2.74741 -4.72419 0
M  V30 1354 H 125.178 -0.38464 -0.732107 0
M  V30 1355 H 127.724 -1.36817 -1.00395 0
M  V30 1356 H 126.496 -2.94685 -2.57442 0
M  V30 1357 H 126.119 -1.60218 -3.6389 0
M  V30 1358 N 127.117 1.15442 -1.07289 0
M  V30 1359 C 128.365 1.85845 -0.794096 0
M  V30 1360 C 128.686 1.82692 0.681809 0
M  V30 1361 O 127.956 1.26741 1.49377 0
M  V30 1362 H 126.536 0.688089 -0.290763 0
M  V30 1363 H 129.198 1.39947 -1.3565 0
M  V30 1364 H 128.294 2.91001 -1.12804 0
M  V30 1365 N 128.595 0.856903 1.32268 0
M  V30 1366 C 129.525 0.31858 2.31316 0
M  V30 1367 C 130.506 -0.583487 1.59779 0
M  V30 1368 O 131.691 -0.503259 1.87566 0
M  V30 1369 C 128.821 -0.491979 3.43798 0
M  V30 1370 C 127.775 0.315849 4.26833 0
M  V30 1371 C 127.101 -0.619586 5.31098 0
M  V30 1372 C 128.401 1.54282 4.98993 0
M  V30 1373 H 130.095 1.14621 2.76591 0
M  V30 1374 H 127.641 0.552613 1.32974 0
M  V30 1375 H 129.594 -0.879012 4.1213 0
M  V30 1376 H 128.318 -1.35299 2.97257 0
M  V30 1377 H 126.977 0.684664 3.6015 0
M  V30 1378 H 126.625 -1.47751 4.8081 0
M  V30 1379 H 126.325 -0.0830621 5.87541 0
M  V30 1380 H 127.849 -1.00375 6.02293 0
M  V30 1381 H 129.263 1.22796 5.59995 0
M  V30 1382 H 127.66 2.01745 5.65172 0
M  V30 1383 H 128.73 2.30285 4.26728 0
M  V30 1384 N 130.073 -1.45103 0.615059 0
M  V30 1385 C 131.036 -2.29025 -0.0895485 0
M  V30 1386 C 132.036 -1.40174 -0.787906 0
M  V30 1387 O 133.226 -1.62217 -0.634933 0
M  V30 1388 C 130.358 -3.21376 -1.13711 0
M  V30 1389 H 131.551 -2.92807 0.648382 0
M  V30 1390 H 129.104 -1.51749 0.374444 0
M  V30 1391 H 129.839 -2.6241 -1.90556 0
M  V30 1392 H 129.624 -3.86834 -0.640475 0
M  V30 1393 H 131.114 -3.84459 -1.63036 0
M  V30 1394 N 131.551 -0.354651 -1.53558 0
M  V30 1395 C 132.483 0.5315 -2.22952 0
M  V30 1396 C 133.496 1.05503 -1.23988 0
M  V30 1397 O 134.685 0.963279 -1.50277 0
M  V30 1398 C 131.785 1.74538 -2.90499 0
M  V30 1399 C 130.958 1.35524 -4.15875 0
M  V30 1400 C 130.017 2.42999 -4.66731 0
M  V30 1401 O 129.043 2.05844 -5.30676 0
M  V30 1402 N 130.245 3.74423 -4.43608 0
M  V30 1403 H 133.01 -0.0628615 -2.99634 0
M  V30 1404 H 130.571 -0.179302 -1.60904 0
M  V30 1405 H 132.563 2.45892 -3.21433 0
M  V30 1406 H 131.133 2.24686 -2.17336 0
M  V30 1407 H 130.353 0.471998 -3.91364 0
M  V30 1408 H 131.641 1.07071 -4.97406 0
M  V30 1409 H 131.039 4.07391 -3.92491 0
M  V30 1410 H 129.596 4.41913 -4.7912 0
M  V30 1411 N 133.029 1.57378 -0.0835403 0
M  V30 1412 C 133.992 2.12252 0.864959 0
M  V30 1413 C 134.992 1.04916 1.21858 0
M  V30 1414 O 136.182 1.30853 1.14991 0
M  V30 1415 C 133.314 2.63358 2.16461 0
M  V30 1416 H 134.507 2.97371 0.388676 0
M  V30 1417 H 132.06 1.55423 0.165317 0
M  V30 1418 H 132.795 1.81727 2.686 0
M  V30 1419 H 132.58 3.41826 1.92087 0
M  V30 1420 H 134.07 3.05847 2.84337 0
M  V30 1421 N 134.507 -0.190092 1.56449 0
M  V30 1422 C 135.754 -0.909705 1.80916 0
M  V30 1423 C 136.082 -1.83047 0.657583 0
M  V30 1424 O 135.337 -1.92428 -0.356356 0
M  V30 1425 C 135.636 -1.75382 3.1141 0
M  V30 1426 C 135.302 -0.983606 4.40041 0
M  V30 1427 C 133.964 -0.770967 4.74984 0
M  V30 1428 C 136.316 -0.442024 5.19322 0
M  V30 1429 C 133.644 -0.0053448 5.867 0
M  V30 1430 C 135.996 0.310412 6.31838 0
M  V30 1431 C 134.66 0.534023 6.6536 0
M  V30 1432 H 133.93 -0.332885 0.662019 0
M  V30 1433 H 136.577 -0.175762 1.90692 0
M  V30 1434 H 134.882 -2.55659 2.96893 0
M  V30 1435 H 136.579 -2.31331 3.27547 0
M  V30 1436 H 133.169 -1.15936 4.12622 0
M  V30 1437 H 137.353 -0.593693 4.92736 0
M  V30 1438 H 132.609 0.177825 6.11141 0
M  V30 1439 H 136.783 0.737419 6.92485 0
M  V30 1440 H 134.41 1.12918 7.51767 0
M  V30 1441 N 135.985 -1.50799 -0.457987 0
M  V30 1442 C 136.915 -1.73553 -1.5621 0
M  V30 1443 C 137.896 -0.584774 -1.59732 0
M  V30 1444 O 139.081 -0.825314 -1.7579 0
M  V30 1445 C 136.211 -1.84169 -2.94447 0
M  V30 1446 C 135.165 -2.99461 -3.0579 0
M  V30 1447 C 134.491 -2.95235 -4.45803 0
M  V30 1448 C 135.791 -4.39766 -2.81786 0
M  V30 1449 H 137.485 -2.66 -1.37421 0
M  V30 1450 H 135.031 -1.28002 -0.659662 0
M  V30 1451 H 136.984 -1.98672 -3.71628 0
M  V30 1452 H 135.708 -0.883545 -3.14422 0
M  V30 1453 H 134.367 -2.8463 -2.31044 0
M  V30 1454 H 134.015 -1.97239 -4.62715 0
M  V30 1455 H 133.715 -3.72642 -4.54326 0
M  V30 1456 H 135.239 -3.11803 -5.24987 0
M  V30 1457 H 136.653 -4.55054 -3.4871 0
M  V30 1458 H 135.05 -5.18722 -3.0174 0
M  V30 1459 H 136.12 -4.51229 -1.7754 0
M  V30 1460 N 137.463 0.71206 -1.40597 0
M  V30 1461 C 138.712 1.46754 -1.38369 0
M  V30 1462 C 139.025 1.95598 0.0097839 0
M  V30 1463 O 140.231 2.71059 0.154677 0
M  V30 1464 C 138.687 2.65289 -2.43207 0
M  V30 1465 C 138.295 2.23301 -3.88382 0
M  V30 1466 C 140.039 3.43008 -2.50091 0
M  V30 1467 C 137.946 3.38696 -4.84808 0
M  V30 1468 H 136.876 0.55118 -0.514506 0
M  V30 1469 H 139.527 0.774616 -1.66349 0
M  V30 1470 H 137.909 3.36769 -2.08332 0
M  V30 1471 H 139.083 1.59218 -4.32419 0
M  V30 1472 H 137.398 1.58618 -3.85006 0
M  V30 1473 H 139.995 4.28881 -3.1932 0
M  V30 1474 H 140.338 3.87065 -1.53253 0
M  V30 1475 H 140.871 2.78574 -2.83974 0
M  V30 1476 H 137.61 2.99668 -5.82992 0
M  V30 1477 H 137.13 4.01683 -4.45433 0
M  V30 1478 H 138.809 4.04712 -5.04794 0
M  V30 1479 N 138.941 1.26152 0.944643 0
M  V30 1480 C 140.189 1.11271 1.6871 0
M  V30 1481 C 140.51 -0.345166 1.91921 0
M  V30 1482 O 139.78 -1.24387 1.51343 0
M  V30 1483 H 138.36 0.408783 0.625224 0
M  V30 1484 H 141.022 1.58427 1.1352 0
M  V30 1485 H 140.118 1.62879 2.66227 0
M  V30 1486 N 140.419 -1.14872 1.07899 0
M  V30 1487 C 141.329 -2.2341 0.715915 0
M  V30 1488 C 142.345 -1.71808 -0.275306 0
M  V30 1489 O 143.521 -2.01039 -0.120545 0
M  V30 1490 C 140.586 -3.46474 0.125168 0
M  V30 1491 C 139.647 -4.13039 1.17034 0
M  V30 1492 C 138.88 -5.30229 0.607688 0
M  V30 1493 O 139.103 -5.675 -0.574497 0
M  V30 1494 O 138.037 -5.86444 1.35526 0
M  V30 1495 H 141.863 -2.56808 1.62121 0
M  V30 1496 H 139.448 -1.22702 0.852322 0
M  V30 1497 H 141.33 -4.20917 -0.201729 0
M  V30 1498 H 140.005 -3.14811 -0.753364 0
M  V30 1499 H 138.912 -3.40493 1.54968 0
M  V30 1500 H 140.245 -4.48796 2.02097 0
M  V30 1501 N 141.898 -0.863906 -1.31812 0
M  V30 1502 C 143.123 -0.48527 -2.01643 0
M  V30 1503 C 143.548 0.913058 -1.64453 0
M  V30 1504 O 142.906 1.6014 -0.849985 0
M  V30 1505 C 142.954 -0.642625 -3.54828 0
M  V30 1506 O 142.058 0.320659 -4.11151 0
M  V30 1507 H 141.399 -0.193793 -0.635091 0
M  V30 1508 H 143.929 -1.16565 -1.68148 0
M  V30 1509 H 143.939 -0.533628 -4.04495 0
M  V30 1510 H 142.614 -1.66227 -3.81237 0
M  V30 1511 H 141.191 0.167126 -3.72525 0
M  V30 1512 N 143.376 1.44774 -0.622745 0
M  V30 1513 C 144.623 2.02121 -0.1239 0
M  V30 1514 C 144.951 1.48915 1.25118 0
M  V30 1515 O 144.206 0.660045 1.84233 0
M  V30 1516 C 144.505 3.57364 -0.0508323 0
M  V30 1517 C 144.171 4.29787 -1.36358 0
M  V30 1518 C 142.833 4.4929 -1.72314 0
M  V30 1519 C 145.185 4.71062 -2.23048 0
M  V30 1520 C 142.513 5.07325 -2.94682 0
M  V30 1521 C 144.865 5.30452 -3.44679 0
M  V30 1522 C 143.529 5.48175 -3.80868 0
M  V30 1523 H 142.799 0.739612 -0.0453381 0
M  V30 1524 H 145.446 1.73648 -0.807389 0
M  V30 1525 H 143.751 3.85202 0.715991 0
M  V30 1526 H 145.448 3.99456 0.351533 0
M  V30 1527 H 142.038 4.14932 -1.07375 0
M  V30 1528 H 146.222 4.55715 -1.96565 0
M  V30 1529 H 141.478 5.19235 -3.22809 0
M  V30 1530 H 145.652 5.61385 -4.12092 0
M  V30 1531 H 143.279 5.92912 -4.75773 0
M  V30 1532 N 144.854 0.36279 1.53368 0
M  V30 1533 C 146.103 -0.22888 2.00397 0
M  V30 1534 C 146.416 -1.50096 1.25421 0
M  V30 1535 O 147.622 -2.17106 1.63025 0
M  V30 1536 C 146.078 -0.458417 3.56969 0
M  V30 1537 C 145.686 0.798877 4.4082 0
M  V30 1538 C 147.43 -1.00789 4.12361 0
M  V30 1539 C 145.337 0.539078 5.88938 0
M  V30 1540 H 144.267 -0.089305 0.748693 0
M  V30 1541 H 146.918 0.481099 1.77081 0
M  V30 1542 H 145.3 -1.22959 3.76427 0
M  V30 1543 H 146.474 1.57262 4.33134 0
M  V30 1544 H 144.789 1.27137 3.96516 0
M  V30 1545 H 147.386 -1.21754 5.20653 0
M  V30 1546 H 147.729 -1.9692 3.66781 0
M  V30 1547 H 148.262 -0.296961 3.9669 0
M  V30 1548 H 145.001 1.47064 6.3879 0
M  V30 1549 H 144.521 -0.196222 5.99479 0
M  V30 1550 H 146.2 0.163542 6.46793 0
M  V30 1551 N 146.332 -1.57332 0.0918853 0
M  V30 1552 C 147.58 -1.93853 -0.571446 0
M  V30 1553 C 147.901 -0.974212 -1.6892 0
M  V30 1554 O 147.171 -0.0257254 -1.95883 0
M  V30 1555 H 145.751 -0.715666 -0.214082 0
M  V30 1556 H 148.413 -1.94287 0.154464 0
M  V30 1557 H 147.509 -2.96191 -0.983729 0
M  V30 1558 N 147.81 0.181792 -1.56548 0
M  V30 1559 C 148.758 1.24461 -1.965 0
M  V30 1560 C 149.752 1.464 -0.852261 0
M  V30 1561 O 150.958 1.47103 -1.03733 0
M  V30 1562 H 147.333 0.418138 -0.625031 0
M  V30 1563 H 149.304 0.880714 -2.85107 0
M  V30 1564 C 148.053 2.57891 -2.33212 0
M  V30 1565 H 147.376 2.41829 -3.18369 0
M  V30 1566 H 148.816 3.3097 -2.65019 0
M  V30 1567 C 147.275 3.15871 -1.17163 0
M  V30 1568 O 147.805 3.9913 -0.453708 0
M  V30 1569 N 146.011 2.74808 -0.944936 0
M  V30 1570 H 145.558 2.07205 -1.53049 0
M  V30 1571 H 145.516 3.13939 -0.170286 0
M  V30 1572 N 149.288 1.51039 0.449983 0
M  V30 1573 C 150.565 1.53612 1.21089 0
M  V30 1574 C 150.945 0.292997 2.09057 0
M  V30 1575 O 150.293 -0.72259 2.16774 0
M  V30 1576 C 150.503 2.84337 2.0237 0
M  V30 1577 C 151.851 3.35807 2.59843 0
M  V30 1578 O 152.875 2.85802 2.12593 0
M  V30 1579 O 151.734 4.23029 3.45989 0
M  V30 1580 H 148.828 0.617057 0.550608 0
M  V30 1581 H 151.374 1.63344 0.460082 0
M  V30 1582 H 150.146 3.66278 1.37681 0
M  V30 1583 H 149.769 2.77708 2.84542 0
M  V30 1584 N 150.766 -0.704594 1.40972 0
M  V30 1585 C 151.696 -1.83124 1.44872 0
M  V30 1586 C 152.677 -1.67281 0.30838 0
M  V30 1587 O 153.862 -1.87149 0.518556 0
M  V30 1588 C 150.992 -3.21181 1.32136 0
M  V30 1589 C 149.946 -3.51714 2.43888 0
M  V30 1590 C 149.272 -4.89032 2.16222 0
M  V30 1591 C 150.572 -3.516 3.86232 0
M  V30 1592 H 152.266 -1.80117 2.39161 0
M  V30 1593 H 149.812 -0.865145 1.15114 0
M  V30 1594 H 151.765 -3.99702 1.33479 0
M  V30 1595 H 150.489 -3.24791 0.343279 0
M  V30 1596 H 149.148 -2.75539 2.41813 0
M  V30 1597 H 148.796 -4.89256 1.16778 0
M  V30 1598 H 148.496 -5.10426 2.911 0
M  V30 1599 H 150.02 -5.69873 2.19265 0
M  V30 1600 H 151.434 -4.2014 3.9007 0
M  V30 1601 H 149.831 -3.84523 4.60719 0
M  V30 1602 H 150.901 -2.50757 4.15029 0
M  V30 1603 N 152.244 -1.26651 -0.937939 0
M  V30 1604 C 153.469 -1.15279 -1.72411 0
M  V30 1605 C 153.894 0.287866 -1.85884 0
M  V30 1606 O 153.252 1.20855 -1.35143 0
M  V30 1607 C 153.3 -1.83028 -3.10698 0
M  V30 1608 O 152.404 -1.12128 -3.96864 0
M  V30 1609 H 151.745 -0.401504 -0.528858 0
M  V30 1610 H 154.275 -1.67531 -1.1745 0
M  V30 1611 H 154.285 -1.89981 -3.6107 0
M  V30 1612 H 152.96 -2.87833 -3.00208 0
M  V30 1613 H 151.537 -1.13173 -3.55312 0
M  V30 1614 N 153.722 1.14298 -1.08507 0
M  V30 1615 C 154.685 2.17607 -0.719711 0
M  V30 1616 C 155.685 1.58907 0.245997 0
M  V30 1617 O 156.875 1.74181 0.0254081 0
M  V30 1618 C 154.007 3.40842 -0.0627695 0
M  V30 1619 H 155.2 2.51443 -1.63452 0
M  V30 1620 H 152.753 1.28963 -0.88307 0
M  V30 1621 H 153.488 3.12587 0.863716 0
M  V30 1622 H 153.273 3.84713 -0.757504 0
M  V30 1623 H 154.763 4.17221 0.177786 0
M  V30 1624 N 155.201 0.870884 1.31352 0
M  V30 1625 C 156.131 0.343096 2.30966 0
M  V30 1626 C 157.112 -0.566507 1.60389 0
M  V30 1627 O 158.297 -0.483336 1.88089 0
M  V30 1628 C 155.427 -0.455487 3.443 0
M  V30 1629 C 154.381 0.361103 4.26474 0
M  V30 1630 C 153.707 -0.563221 5.31725 0
M  V30 1631 C 155.007 1.59566 4.97329 0
M  V30 1632 H 156.701 1.17548 2.75359 0
M  V30 1633 H 154.247 0.566686 1.32381 0
M  V30 1634 H 156.2 -0.83525 4.13039 0
M  V30 1635 H 154.924 -1.32139 2.98675 0
M  V30 1636 H 153.583 0.722825 3.59403 0
M  V30 1637 H 153.231 -1.42643 4.82351 0
M  V30 1638 H 152.931 -0.0207409 5.87596 0
M  V30 1639 H 154.455 -0.939808 6.03324 0
M  V30 1640 H 155.869 1.28728 5.58661 0
M  V30 1641 H 154.266 2.07728 5.63 0
M  V30 1642 H 155.336 2.34798 4.24262 0
M  V30 1643 N 156.679 -1.44442 0.630414 0
M  V30 1644 C 157.925 -2.02351 0.134816 0
M  V30 1645 C 158.258 -1.4947 -1.23986 0
M  V30 1646 O 157.533 -0.678475 -1.82283 0
M  V30 1647 C 157.816 -3.59898 0.120707 0
M  V30 1648 C 157.669 -4.23063 1.52767 0
M  V30 1649 C 158.988 -4.36585 -0.555127 0
M  V30 1650 H 156.107 -0.73527 0.0504646 0
M  V30 1651 H 158.749 -1.72022 0.806751 0
M  V30 1652 H 156.899 -3.85868 -0.451477 0
M  V30 1653 H 158.571 -4.08202 2.14869 0
M  V30 1654 H 156.814 -3.80586 2.08175 0
M  V30 1655 H 157.485 -5.32071 1.46984 0
M  V30 1656 H 159.961 -4.16044 -0.0685429 0
M  V30 1657 H 158.837 -5.46294 -0.534185 0
M  V30 1658 H 159.098 -4.11138 -1.62535 0
M  V30 1659 N 158.157 -0.370918 -1.53173 0
M  V30 1660 C 159.087 0.464847 -2.28826 0
M  V30 1661 C 160.068 1.07936 -1.31468 0
M  V30 1662 O 161.253 1.0956 -1.60344 0
M  V30 1663 C 158.383 1.60196 -3.08147 0
M  V30 1664 C 157.337 1.11443 -4.13237 0
M  V30 1665 C 156.663 2.3422 -4.80672 0
M  V30 1666 C 157.963 0.195384 -5.21934 0
M  V30 1667 H 159.657 -0.166329 -2.98938 0
M  V30 1668 H 157.203 -0.0814359 -1.4377 0
M  V30 1669 H 159.156 2.19332 -3.59822 0
M  V30 1670 H 157.88 2.26045 -2.35735 0
M  V30 1671 H 156.539 0.545727 -3.62515 0
M  V30 1672 H 156.187 2.98537 -4.04827 0
M  V30 1673 H 155.887 2.02269 -5.51689 0
M  V30 1674 H 157.411 2.94032 -5.35143 0
M  V30 1675 H 158.825 0.694375 -5.69079 0
M  V30 1676 H 157.222 -0.0335027 -6.00091 0
M  V30 1677 H 158.292 -0.760961 -4.78892 0
M  V30 1678 N 159.635 1.57281 -0.100228 0
M  V30 1679 C 160.883 1.94153 0.561157 0
M  V30 1680 C 161.204 0.983157 1.68401 0
M  V30 1681 O 160.474 0.0361132 1.95867 0
M  V30 1682 H 159.054 0.716791 0.210283 0
M  V30 1683 H 161.716 1.94202 -0.164765 0
M  V30 1684 H 160.812 2.96709 0.968008 0
M  V30 1685 N 161.113 -0.173488 1.56642 0
M  V30 1686 C 162.39 -0.917617 1.7274 0
M  V30 1687 C 162.77 -2.00484 0.661027 0
M  V30 1688 O 162.118 -2.26184 -0.32453 0
M  V30 1689 C 162.328 -1.48433 3.15862 0
M  V30 1690 C 163.676 -1.95809 3.76754 0
M  V30 1691 O 164.7 -1.58231 3.19126 0
M  V30 1692 O 163.559 -2.65024 4.77938 0
M  V30 1693 H 160.653 -0.431772 0.705338 0
M  V30 1694 H 163.199 -0.161487 1.6893 0
M  V30 1695 H 161.971 -0.701715 3.84957 0
M  V30 1696 H 161.594 -2.30471 3.23989 0
M  V30 1697 N 162.591 -1.51276 -0.441967 0
M  V30 1698 C 163.539 -1.72823 -1.55676 0
M  V30 1699 C 164.533 -0.59445 -1.58627 0
M  V30 1700 O 165.739 -0.775715 -1.62427 0
M  V30 1701 H 162.114 -0.545983 -0.517113 0
M  V30 1702 H 164.085 -2.6628 -1.34675 0
M  V30 1703 C 162.834 -1.86619 -2.93375 0
M  V30 1704 H 162.157 -2.73264 -2.91834 0
M  V30 1705 H 163.597 -2.05709 -3.70756 0
M  V30 1706 C 162.056 -0.624842 -3.31055 0
M  V30 1707 O 162.586 0.222636 -4.01083 0
M  V30 1708 N 160.792 -0.470288 -2.86769 0
M  V30 1709 H 160.339 -1.161 -2.29953 0
M  V30 1710 H 160.297 0.359051 -3.12343 0
M  V30 1711 N 164.069 0.697108 -1.41344 0
M  V30 1712 C 164.999 1.82353 -1.45841 0
M  V30 1713 C 165.98 1.67115 -0.317247 0
M  V30 1714 O 167.165 1.86871 -0.528474 0
M  V30 1715 C 164.295 3.20476 -1.33838 0
M  V30 1716 C 163.249 3.50415 -2.4575 0
M  V30 1717 C 162.575 4.87878 -2.18813 0
M  V30 1718 C 163.875 3.49546 -3.88091 0
M  V30 1719 H 165.569 1.78846 -2.40113 0
M  V30 1720 H 163.115 0.859028 -1.15571 0
M  V30 1721 H 165.068 3.98988 -1.35596 0
M  V30 1722 H 163.792 3.24604 -0.360498 0
M  V30 1723 H 162.451 2.74253 -2.43271 0
M  V30 1724 H 162.099 4.8863 -1.19371 0
M  V30 1725 H 161.799 5.08875 -2.93803 0
M  V30 1726 H 163.323 5.68702 -2.22284 0
M  V30 1727 H 164.737 4.18066 -3.92293 0
M  V30 1728 H 163.134 3.82075 -4.62751 0
M  V30 1729 H 164.204 2.48552 -4.16353 0
M  V30 1730 N 165.547 1.27147 0.931209 0
M  V30 1731 C 166.777 1.15914 1.71019 0
M  V30 1732 C 167.185 -0.287112 1.87009 0
M  V30 1733 O 166.528 -1.20761 1.38429 0
M  V30 1734 C 166.59 1.76647 3.13107 0
M  V30 1735 C 166.254 3.25807 3.20467 0
M  V30 1736 C 167.251 4.22489 3.02983 0
M  V30 1737 C 164.936 3.66452 3.43538 0
M  V30 1738 C 166.93 5.57794 3.08454 0
M  V30 1739 C 164.617 5.01888 3.48643 0
M  V30 1740 C 165.615 5.97369 3.31119 0
M  V30 1741 O 165.303 7.30337 3.35952 0
M  V30 1742 H 165.035 0.404062 0.54195 0
M  V30 1743 H 167.589 1.68457 1.17521 0
M  V30 1744 H 165.819 1.18578 3.68071 0
M  V30 1745 H 167.508 1.60179 3.72958 0
M  V30 1746 H 168.274 3.92425 2.85004 0
M  V30 1747 H 164.153 2.92611 3.5623 0
M  V30 1748 H 167.697 6.32298 2.94694 0
M  V30 1749 H 163.594 5.31609 3.66145 0
M  V30 1750 H 164.362 7.38739 3.5243 0
M  V30 1751 N 167.025 -1.13721 1.09112 0
M  V30 1752 C 168.255 -1.88499 0.845671 0
M  V30 1753 C 168.663 -1.79218 -0.606432 0
M  V30 1754 O 168.006 -1.1544 -1.42896 0
M  V30 1755 C 168.068 -3.38954 1.19793 0
M  V30 1756 C 167.732 -3.72018 2.65428 0
M  V30 1757 C 168.729 -3.7153 3.63677 0
M  V30 1758 C 166.414 -4.01775 3.01467 0
M  V30 1759 C 168.408 -4.00336 4.95994 0
M  V30 1760 C 166.095 -4.30243 4.33975 0
M  V30 1761 C 167.093 -4.29508 5.31048 0
M  V30 1762 O 166.781 -4.5728 6.61173 0
M  V30 1763 H 166.513 -0.603702 0.304171 0
M  V30 1764 H 169.067 -1.44903 1.45576 0
M  V30 1765 H 167.297 -3.83039 0.530871 0
M  V30 1766 H 168.986 -3.95052 0.932146 0
M  V30 1767 H 169.752 -3.4862 3.37179 0
M  V30 1768 H 165.631 -4.01496 2.26544 0
M  V30 1769 H 169.175 -3.99678 5.71755 0
M  V30 1770 H 165.072 -4.52625 4.60219 0
M  V30 1771 H 165.84 -4.74964 6.66597 0
M  V30 1772 N 168.503 -0.877838 -1.30888 0
M  V30 1773 C 169.751 -0.491723 -1.96027 0
M  V30 1774 C 170.072 0.960827 -1.69685 0
M  V30 1775 O 169.342 1.67462 -1.01654 0
M  V30 1776 H 167.922 -0.17885 -0.725273 0
M  V30 1777 H 170.584 -1.11935 -1.59551 0
M  V30 1778 H 169.68 -0.656016 -3.05128 0
M  V30 1779 N 169.982 1.44106 -0.638065 0
M  V30 1780 C 170.932 2.27843 0.0847285 0
M  V30 1781 C 171.916 1.39055 0.809471 0
M  V30 1782 O 173.108 1.62808 0.694435 0
M  V30 1783 C 170.237 3.26497 1.06089 0
M  V30 1784 C 169.323 4.22772 0.33541 0
M  V30 1785 N 169.714 5.01737 -0.639787 0
M  V30 1786 C 168.012 4.42227 0.578921 0
M  V30 1787 C 168.713 5.71792 -1.06904 0
M  V30 1788 N 167.689 5.42079 -0.406395 0
M  V30 1789 H 171.491 2.86305 -0.663814 0
M  V30 1790 H 169.005 1.55627 -0.464122 0
M  V30 1791 H 171.002 3.8525 1.59337 0
M  V30 1792 H 169.662 2.69595 1.80966 0
M  V30 1793 H 170.673 5.07799 -1.01789 0
M  V30 1794 H 167.35 3.96415 1.31003 0
M  V30 1795 H 168.74 6.45205 -1.8751 0
M  V30 1796 N 171.46 0.379036 1.52974 0
M  V30 1797 C 172.737 -0.263479 1.93817 0
M  V30 1798 C 173.117 -1.65244 1.31368 0
M  V30 1799 O 172.465 -2.23448 0.477856 0
M  V30 1800 C 172.675 -0.300166 3.47707 0
M  V30 1801 C 174.023 -0.534061 4.21228 0
M  V30 1802 O 175.047 -0.38081 3.54159 0
M  V30 1803 O 173.906 -0.833501 5.40106 0
M  V30 1804 H 171 -0.161149 0.811147 0
M  V30 1805 H 173.546 0.432798 1.64088 0
M  V30 1806 H 172.318 0.673138 3.85467 0
M  V30 1807 H 171.941 -1.04179 3.83709 0
M  V30 1808 N 172.938 -1.57226 0.108567 0
M  V30 1809 C 174.185 -1.94833 -0.551943 0
M  V30 1810 C 174.513 -0.991204 -1.67348 0
M  V30 1811 O 173.768 -0.0131878 -1.95696 0
M  V30 1812 C 174.067 -3.38911 -1.13463 0
M  V30 1813 C 173.733 -4.50696 -0.135509 0
M  V30 1814 C 172.395 -4.80998 0.139252 0
M  V30 1815 C 174.747 -5.18333 0.545957 0
M  V30 1816 C 172.075 -5.76259 1.10194 0
M  V30 1817 C 174.427 -6.14627 1.49721 0
M  V30 1818 C 173.091 -6.43327 1.78006 0
M  V30 1819 H 172.361 -0.712944 -0.20197 0
M  V30 1820 H 175.008 -1.90582 0.18726 0
M  V30 1821 H 173.313 -3.39805 -1.95037 0
M  V30 1822 H 175.01 -3.65317 -1.65362 0
M  V30 1823 H 171.6 -4.27087 -0.359846 0
M  V30 1824 H 175.784 -4.95087 0.346842 0
M  V30 1825 H 171.04 -5.96804 1.32795 0
M  V30 1826 H 175.214 -6.66126 2.03099 0
M  V30 1827 H 172.841 -7.1695 2.52759 0
M  V30 1828 N 174.416 0.165178 -1.56732 0
M  V30 1829 C 175.366 1.20917 -1.93295 0
M  V30 1830 C 176.35 1.39488 -0.801985 0
M  V30 1831 O 177.542 1.41356 -1.06525 0
M  V30 1832 C 174.671 2.54718 -2.3016 0
M  V30 1833 C 173.757 2.39815 -3.49785 0
M  V30 1834 N 174.148 1.94637 -4.66851 0
M  V30 1835 C 172.446 2.70623 -3.54513 0
M  V30 1836 C 173.147 1.92344 -5.4898 0
M  V30 1837 N 172.123 2.34978 -4.9019 0
M  V30 1838 H 175.925 0.851675 -2.81289 0
M  V30 1839 H 173.439 0.373399 -1.58049 0
M  V30 1840 H 175.436 3.30165 -2.54552 0
M  V30 1841 H 174.096 2.91265 -1.43508 0
M  V30 1842 H 175.107 1.6488 -4.90953 0
M  V30 1843 H 171.784 3.11167 -2.78354 0
M  V30 1844 H 173.174 1.5906 -6.52801 0
M  V30 1845 N 175.894 1.51508 0.433938 0
M  V30 1846 C 176.804 1.75917 1.5521 0
M  V30 1847 C 177.82 0.643545 1.61662 0
M  V30 1848 O 178.996 0.926183 1.7884 0
M  V30 1849 C 176.061 1.88213 2.91164 0
M  V30 1850 C 175.122 3.12074 2.94802 0
M  V30 1851 C 174.355 3.23774 4.24271 0
M  V30 1852 O 174.578 2.4133 5.16833 0
M  V30 1853 O 173.512 4.16774 4.34262 0
M  V30 1854 H 177.338 2.70777 1.37527 0
M  V30 1855 H 174.923 1.36051 0.617293 0
M  V30 1856 H 176.805 1.98267 3.71845 0
M  V30 1857 H 175.48 0.965413 3.08968 0
M  V30 1858 H 174.387 3.07497 2.13065 0
M  V30 1859 H 175.72 4.03446 2.81943 0
M  V30 1860 N 177.372 -0.689602 1.41712 0
M  V30 1861 C 178.302 -1.81577 1.46806 0
M  V30 1862 C 179.283 -1.66945 0.326105 0
M  V30 1863 O 180.468 -1.86588 0.538377 0
M  V30 1864 C 177.598 -3.19762 1.35535 0
M  V30 1865 C 176.552 -3.49107 2.47605 0
M  V30 1866 C 175.878 -4.86711 2.21397 0
M  V30 1867 C 177.178 -3.47483 3.89939 0
M  V30 1868 H 178.872 -1.7757 2.41058 0
M  V30 1869 H 176.418 -0.852887 1.16025 0
M  V30 1870 H 178.371 -3.98263 1.3771 0
M  V30 1871 H 177.095 -3.24409 0.377708 0
M  V30 1872 H 175.754 -2.72959 2.44722 0
M  V30 1873 H 175.402 -4.8799 1.21961 0
M  V30 1874 H 175.102 -5.0731 2.96497 0
M  V30 1875 H 176.626 -5.67515 2.25297 0
M  V30 1876 H 178.04 -4.1598 3.94505 0
M  V30 1877 H 176.437 -3.79615 4.64771 0
M  V30 1878 H 177.507 -2.46341 4.17665 0
M  V30 1879 N 178.85 -1.27639 -0.924453 0
M  V30 1880 C 179.78 -1.13166 -2.04244 0
M  V30 1881 C 180.761 -0.032256 -1.70069 0
M  V30 1882 O 181.946 -0.207328 -1.9309 0
M  V30 1883 C 179.076 -0.781496 -3.38393 0
M  V30 1884 C 178.03 -1.83449 -3.86692 0
M  V30 1885 C 177.356 -1.33822 -5.17683 0
M  V30 1886 C 178.656 -3.23917 -4.09726 0
M  V30 1887 H 180.35 -2.06689 -2.1661 0
M  V30 1888 H 177.896 -0.995136 -1.04082 0
M  V30 1889 H 179.849 -0.667057 -4.16087 0
M  V30 1890 H 178.573 0.189439 -3.2605 0
M  V30 1891 H 177.232 -1.93789 -3.11193 0
M  V30 1892 H 176.88 -0.35665 -5.01734 0
M  V30 1893 H 176.58 -2.04224 -5.50968 0
M  V30 1894 H 178.104 -1.23679 -5.97943 0
M  V30 1895 H 179.518 -3.16559 -4.77978 0
M  V30 1896 H 177.915 -3.92059 -4.54324 0
M  V30 1897 H 178.985 -3.68729 -3.14908 0
M  V30 1898 N 180.328 1.1314 -1.09713 0
M  V30 1899 C 181.576 1.84119 -0.833338 0
M  V30 1900 C 181.897 1.84097 0.642904 0
M  V30 1901 O 181.167 1.29881 1.46655 0
M  V30 1902 H 179.747 0.681766 -0.305293 0
M  V30 1903 H 182.409 1.37038 -1.38588 0
M  V30 1904 H 181.505 2.88543 -1.18951 0
M  V30 1905 N 181.806 0.884767 1.30421 0
M  V30 1906 C 183.031 0.517288 2.00845 0
M  V30 1907 C 183.456 -0.886779 1.65885 0
M  V30 1908 O 182.814 -1.58768 0.875354 0
M  V30 1909 C 182.862 0.698994 3.5376 0
M  V30 1910 O 181.966 -0.255208 4.1161 0
M  V30 1911 H 181.307 0.203872 0.631927 0
M  V30 1912 H 183.837 1.19225 1.66272 0
M  V30 1913 H 183.847 0.597912 4.03595 0
M  V30 1914 H 182.522 1.72271 3.78544 0
M  V30 1915 H 181.099 -0.10784 3.72744 0
M  V30 1916 N 183.284 -1.43765 0.645699 0
M  V30 1917 C 184.247 -2.29163 -0.0409488 0
M  V30 1918 C 185.247 -1.41813 -0.757996 0
M  V30 1919 O 186.437 -1.63527 -0.600382 0
M  V30 1920 C 183.569 -3.23716 -1.06869 0
M  V30 1921 H 184.762 -2.91366 0.710345 0
M  V30 1922 H 182.315 -1.5092 0.406547 0
M  V30 1923 H 183.05 -2.66393 -1.84947 0
M  V30 1924 H 182.835 -3.88105 -0.558277 0
M  V30 1925 H 184.325 -3.87831 -1.54845 0
M  V30 1926 N 184.763 -0.387143 -1.52771 0
M  V30 1927 C 185.988 0.198407 -2.06449 0
M  V30 1928 C 186.413 1.39918 -1.25716 0
M  V30 1929 O 185.771 1.79099 -0.281657 0
M  V30 1930 C 185.819 0.548893 -3.56398 0
M  V30 1931 O 184.923 1.64315 -3.78252 0
M  V30 1932 H 184.264 0.0237731 -0.663574 0
M  V30 1933 H 186.794 -0.553989 -1.96957 0
M  V30 1934 H 186.804 0.813812 -3.99801 0
M  V30 1935 H 185.479 -0.329005 -4.14597 0
M  V30 1936 H 184.056 1.37211 -3.46738 0
M  V30 1937 N 186.241 1.57166 -0.116904 0
M  V30 1938 C 187.173 2.12271 0.864507 0
M  V30 1939 C 188.186 1.06494 1.23138 0
M  V30 1940 O 189.375 1.33873 1.18069 0
M  V30 1941 C 186.475 2.60564 2.16702 0
M  V30 1942 C 185.648 3.90416 1.97216 0
M  V30 1943 C 184.707 4.24329 3.11178 0
M  V30 1944 O 183.733 4.93182 2.84184 0
M  V30 1945 N 184.935 3.8148 4.37554 0
M  V30 1946 H 187.7 2.97102 0.393726 0
M  V30 1947 H 185.261 1.61759 0.0675805 0
M  V30 1948 H 187.253 2.80282 2.91932 0
M  V30 1949 H 185.823 1.80623 2.55135 0
M  V30 1950 H 185.043 3.79627 1.06192 0
M  V30 1951 H 186.331 4.75327 1.81499 0
M  V30 1952 H 185.729 3.25943 4.62361 0
M  V30 1953 H 184.286 4.06311 5.09661 0
M  V30 1954 N 187.719 -0.156864 1.56817 0
M  V30 1955 C 189.135 -0.50916 1.5126 0
M  V30 1956 C 189.335 -1.83897 0.823658 0
M  V30 1957 O 188.391 -2.49469 0.390055 0
M  V30 1958 C 189.704 -0.52857 2.96018 0
M  V30 1959 C 191.252 -0.614771 3.06903 0
M  V30 1960 C 191.727 -0.664938 4.53147 0
M  V30 1961 N 193.218 -0.727433 4.57452 0
M  V30 1962 C 193.953 -0.787067 5.67973 0
M  V30 1963 N 193.449 -0.806649 6.88088 0
M  V30 1964 N 195.242 -0.827195 5.5598 0
M  V30 1965 H 187.393 0.714935 2.00006 0
M  V30 1966 H 189.656 0.259526 0.911784 0
M  V30 1967 H 189.362 0.380154 3.49639 0
M  V30 1968 H 189.236 -1.36998 3.51442 0
M  V30 1969 H 191.623 -1.51392 2.53307 0
M  V30 1970 H 191.704 0.253597 2.5454 0
M  V30 1971 H 191.348 0.230011 5.07379 0
M  V30 1972 H 191.278 -1.54966 5.03282 0
M  V30 1973 H 193.769 -0.719998 3.70978 0
M  V30 1974 H 194.082 -0.853727 7.6807 0
M  V30 1975 H 192.427 -0.774687 6.90669 0
M  V30 1976 H 195.618 -0.808998 4.61056 0
M  V30 1977 H 195.791 -0.870206 6.4213 0
M  V30 1978 N 189.197 -1.51736 -0.425897 0
M  V30 1979 C 190.129 -1.70083 -1.53638 0
M  V30 1980 C 191.142 -0.581349 -1.52066 0
M  V30 1981 O 192.331 -0.856017 -1.56635 0
M  V30 1982 C 189.431 -1.71078 -2.9255 0
M  V30 1983 C 188.604 -2.99795 -3.185 0
M  V30 1984 C 187.663 -2.92825 -4.37196 0
M  V30 1985 O 186.689 -3.66756 -4.35291 0
M  V30 1986 N 187.891 -2.0946 -5.41393 0
M  V30 1987 H 190.656 -2.65882 -1.383 0
M  V30 1988 H 188.217 -1.49765 -0.614988 0
M  V30 1989 H 190.209 -1.63969 -3.69995 0
M  V30 1990 H 188.779 -0.828242 -3.01428 0
M  V30 1991 H 187.999 -3.20684 -2.2925 0
M  V30 1992 H 189.287 -3.84977 -3.32671 0
M  V30 1993 H 188.685 -1.48792 -5.45781 0
M  V30 1994 H 187.242 -2.08221 -6.17647 0
M  V30 1995 N 190.675 0.682077 -1.42076 0
M  V30 1996 C 191.903 1.47057 -1.4554 0
M  V30 1997 C 192.318 1.8869 -0.0645779 0
M  V30 1998 O 191.675 1.57666 0.919115 0
M  V30 1999 C 191.726 2.72442 -2.37609 0
M  V30 2000 O 191.447 2.32559 -3.71279 0
M  V30 2001 C 192.948 3.66069 -2.50017 0
M  V30 2002 H 190.168 0.452737 -0.495248 0
M  V30 2003 H 192.712 0.838695 -1.8651 0
M  V30 2004 H 190.867 3.31835 -1.9991 0
M  V30 2005 H 191.281 3.13475 -4.20516 0
M  V30 2006 H 192.755 4.50792 -3.18576 0
M  V30 2007 H 193.232 4.11476 -1.53572 0
M  V30 2008 H 193.838 3.12572 -2.88407 0
M  V30 2009 N 192.153 1.28127 0.917671 0
M  V30 2010 C 193.401 1.14825 1.66312 0
M  V30 2011 C 193.722 -0.304379 1.9261 0
M  V30 2012 O 192.992 -1.21149 1.53947 0
M  V30 2013 H 191.572 0.421953 0.616413 0
M  V30 2014 H 194.234 1.608 1.10134 0
M  V30 2015 H 193.33 1.68489 2.62712 0
M  V30 2016 N 193.631 -1.12557 1.10312 0
M  V30 2017 C 194.594 -2.16434 0.75424 0
M  V30 2018 C 195.594 -1.59278 -0.220685 0
M  V30 2019 O 196.784 -1.742 0.00230591 0
M  V30 2020 C 193.916 -3.40699 0.116987 0
M  V30 2021 H 195.109 -2.48811 1.67431 0
M  V30 2022 H 192.662 -1.27542 0.903475 0
M  V30 2023 H 193.397 -3.13921 -0.813877 0
M  V30 2024 H 193.182 -3.83459 0.818613 0
M  V30 2025 H 194.672 -4.17451 -0.111387 0
M  V30 2026 N 195.109 -0.891671 -1.2995 0
M  V30 2027 C 196.334 -0.527932 -2.00568 0
M  V30 2028 C 196.759 0.877969 -1.66353 0
M  V30 2029 O 196.117 1.58301 -0.883762 0
M  V30 2030 C 196.165 -0.717745 -3.53385 0
M  V30 2031 O 195.269 0.233376 -4.11739 0
M  V30 2032 H 194.61 -0.20722 -0.630837 0
M  V30 2033 H 197.14 -1.20105 -1.65638 0
M  V30 2034 H 197.15 -0.619307 -4.03272 0
M  V30 2035 H 195.825 -1.74276 -3.77625 0
M  V30 2036 H 194.402 0.0880706 -3.72796 0
M  V30 2037 N 196.587 1.43421 -0.653314 0
M  V30 2038 C 197.833 2.02111 -0.166992 0
M  V30 2039 C 198.166 1.51423 1.21592 0
M  V30 2040 O 197.441 0.707389 1.8118 0
M  V30 2041 C 197.724 3.5966 -0.177948 0
M  V30 2042 C 197.577 4.20579 -1.59478 0
M  V30 2043 C 198.896 4.37413 0.4856 0
M  V30 2044 H 196.015 0.734374 -0.0621557 0
M  V30 2045 H 198.657 1.70717 -0.834016 0
M  V30 2046 H 196.807 3.86537 0.390032 0
M  V30 2047 H 198.479 4.04732 -2.21336 0
M  V30 2048 H 196.722 3.77226 -2.14204 0
M  V30 2049 H 197.393 5.29665 -1.5543 0
M  V30 2050 H 199.869 4.161 0.00234528 0
M  V30 2051 H 198.745 5.47075 0.447207 0
M  V30 2052 H 199.006 4.13672 1.55974 0
M  V30 2053 N 198.065 0.39524 1.52563 0
M  V30 2054 C 199.312 -0.185044 2.01653 0
M  V30 2055 C 199.64 -1.46317 1.28146 0
M  V30 2056 O 198.895 -1.9213 0.372074 0
M  V30 2057 C 199.194 -0.493444 3.53977 0
M  V30 2058 C 198.86 0.69384 4.4553 0
M  V30 2059 C 197.522 1.01954 4.70275 0
M  V30 2060 C 199.874 1.48785 4.99512 0
M  V30 2061 C 197.202 2.14069 5.46252 0
M  V30 2062 C 199.554 2.59965 5.76716 0
M  V30 2063 C 198.218 2.93037 5.99738 0
M  V30 2064 H 197.488 -0.0677123 0.7379 0
M  V30 2065 H 200.135 0.533807 1.8391 0
M  V30 2066 H 198.44 -1.29369 3.69825 0
M  V30 2067 H 200.137 -0.955163 3.89458 0
M  V30 2068 H 196.727 0.429987 4.26438 0
M  V30 2069 H 200.911 1.24946 4.80315 0
M  V30 2070 H 196.167 2.40056 5.62302 0
M  V30 2071 H 200.341 3.21887 6.17545 0
M  V30 2072 H 197.968 3.8003 6.58393 0
M  V30 2073 N 199.544 -1.57102 0.125237 0
M  V30 2074 C 200.507 -2.14471 -0.80838 0
M  V30 2075 C 201.507 -1.0811 -1.19033 0
M  V30 2076 O 202.697 -1.33856 -1.11482 0
M  V30 2077 C 199.829 -2.69005 -2.09402 0
M  V30 2078 H 201.022 -2.98297 -0.309696 0
M  V30 2079 H 198.575 -1.55807 -0.124051 0
M  V30 2080 H 199.31 -1.88785 -2.63687 0
M  V30 2081 H 199.095 -3.46799 -1.82957 0
M  V30 2082 H 200.585 -3.13278 -2.76128 0
M  V30 2083 N 201.022 0.148545 -1.56898 0
M  V30 2084 C 202.252 0.875118 -1.8715 0
M  V30 2085 C 202.66 1.75322 -0.711262 0
M  V30 2086 O 202.003 1.80745 0.328151 0
M  V30 2087 C 202.065 1.7844 -3.12089 0
M  V30 2088 C 201.729 1.08361 -4.43967 0
M  V30 2089 C 202.726 0.438247 -5.1805 0
M  V30 2090 C 200.411 1.07358 -4.90693 0
M  V30 2091 C 202.405 -0.20779 -6.37061 0
M  V30 2092 C 200.092 0.42373 -6.09629 0
M  V30 2093 C 201.09 -0.215829 -6.82659 0
M  V30 2094 O 200.778 -0.855378 -7.99336 0
M  V30 2095 H 200.51 0.258504 -0.624621 0
M  V30 2096 H 203.064 0.14652 -2.04877 0
M  V30 2097 H 201.294 2.55389 -2.90367 0
M  V30 2098 H 202.983 2.38279 -3.286 0
M  V30 2099 H 203.749 0.437817 -4.8302 0
M  V30 2100 H 199.628 1.5608 -4.33774 0
M  V30 2101 H 203.172 -0.70758 -6.94002 0
M  V30 2102 H 199.069 0.421822 -6.4412 0
M  V30 2103 H 199.837 -0.756892 -8.14993 0
M  V30 2104 N 202.5 1.5196 0.417844 0
M  V30 2105 C 203.45 1.7106 1.5074 0
M  V30 2106 C 204.434 0.564487 1.50673 0
M  V30 2107 O 205.626 0.821206 1.56797 0
M  V30 2108 C 202.755 1.85677 2.88754 0
M  V30 2109 C 201.841 3.06133 2.93502 0
M  V30 2110 N 202.232 4.28987 2.67962 0
M  V30 2111 C 200.53 3.05787 3.24669 0
M  V30 2112 C 201.231 5.10395 2.79055 0
M  V30 2113 N 200.207 4.45455 3.11561 0
M  V30 2114 H 204.009 2.63696 1.29775 0
M  V30 2115 H 201.523 1.49873 0.625436 0
M  V30 2116 H 203.52 1.97475 3.67164 0
M  V30 2117 H 202.18 0.942348 3.10725 0
M  V30 2118 H 203.191 4.57607 2.4252 0
M  V30 2119 H 199.868 2.2405 3.52289 0
M  V30 2120 H 201.258 6.18247 2.63097 0
M  V30 2121 N 203.978 -0.674533 1.42435 0
M  V30 2122 C 205.224 -1.43671 1.43131 0
M  V30 2123 C 205.557 -1.94142 0.0476021 0
M  V30 2124 O 204.832 -1.70924 -0.928188 0
M  V30 2125 C 205.115 -2.63355 2.45594 0
M  V30 2126 C 204.968 -2.18514 3.93156 0
M  V30 2127 C 206.287 -3.65571 2.45043 0
M  V30 2128 H 203.406 -0.521077 0.521198 0
M  V30 2129 H 206.048 -0.766551 1.7385 0
M  V30 2130 H 204.198 -3.2053 2.19528 0
M  V30 2131 H 205.87 -1.66504 4.30202 0
M  V30 2132 H 204.113 -1.50086 4.07009 0
M  V30 2133 H 204.784 -3.04484 4.60428 0
M  V30 2134 H 207.26 -3.18113 2.68223 0
M  V30 2135 H 206.136 -4.46893 3.18713 0
M  V30 2136 H 206.397 -4.16716 1.47649 0
M  V30 2137 N 205.456 -1.28612 -0.910864 0
M  V30 2138 C 206.386 -1.15326 -2.03032 0
M  V30 2139 C 207.367 -0.0502924 -1.70026 0
M  V30 2140 O 208.552 -0.227797 -1.92859 0
M  V30 2141 C 205.682 -0.817343 -3.37545 0
M  V30 2142 C 204.636 -1.8754 -3.84724 0
M  V30 2143 C 203.962 -1.39305 -5.16235 0
M  V30 2144 C 205.262 -3.28244 -4.06267 0
M  V30 2145 H 206.956 -2.08975 -2.14406 0
M  V30 2146 H 204.502 -1.00612 -1.03021 0
M  V30 2147 H 206.455 -0.711151 -4.15356 0
M  V30 2148 H 205.179 0.154846 -3.26233 0
M  V30 2149 H 203.838 -1.97079 -3.09121 0
M  V30 2150 H 203.486 -0.409846 -5.01328 0
M  V30 2151 H 203.186 -2.10057 -5.48771 0
M  V30 2152 H 204.71 -1.30014 -5.96598 0
M  V30 2153 H 206.124 -3.21611 -4.74594 0
M  V30 2154 H 204.521 -3.96855 -4.5014 0
M  V30 2155 H 205.591 -3.72048 -3.10979 0
M  V30 2156 N 206.934 1.1197 -1.10907 0
M  V30 2157 C 208.211 1.79959 -0.766432 0
M  V30 2158 C 208.591 1.97466 0.746363 0
M  V30 2159 O 207.939 1.55491 1.67436 0
M  V30 2160 C 208.149 3.14009 -1.52314 0
M  V30 2161 C 209.497 3.89134 -1.69883 0
M  V30 2162 O 210.521 3.2368 -1.48692 0
M  V30 2163 O 209.38 5.06572 -2.05054 0
M  V30 2164 H 206.474 0.779208 -0.277062 0
M  V30 2165 H 209.02 1.18762 -1.21217 0
M  V30 2166 H 207.792 2.96587 -2.55249 0
M  V30 2167 H 207.415 3.82915 -1.07059 0
M  V30 2168 N 208.412 0.89855 1.29475 0
M  V30 2169 C 209.823 0.572537 1.77705 0
M  V30 2170 C 210.174 -0.911778 1.73727 0
M  V30 2171 O 209.299 -1.71288 1.32247 0
M  V30 2172 C 209.894 1.03252 3.22683 0
M  V30 2173 C 208.453 0.757687 3.68695 0
M  V30 2174 C 207.6 1.20787 2.49612 0
M  V30 2175 H 210.551 1.08139 1.16153 0
M  V30 2176 H 210.572 0.367307 3.78723 0
M  V30 2177 H 210.084 2.11285 3.25546 0
M  V30 2178 H 208.185 -0.310079 3.71308 0
M  V30 2179 H 208.298 1.35476 4.59547 0
M  V30 2180 H 206.662 0.626888 2.46865 0
M  V30 2181 H 207.445 2.29622 2.55203 0
M  V30 2182 N 209.89 -1.43072 0.660911 0
M  V30 2183 C 210.8 -2.34585 -0.0264163 0
M  V30 2184 C 211.816 -1.54316 -0.803898 0
M  V30 2185 O 212.992 -1.86939 -0.749391 0
M  V30 2186 C 210.057 -3.32689 -0.975639 0
M  V30 2187 C 209.118 -4.2886 -0.194236 0
M  V30 2188 C 208.351 -5.22278 -1.09825 0
M  V30 2189 O 208.574 -5.20299 -2.33763 0
M  V30 2190 O 207.508 -5.99228 -0.566513 0
M  V30 2191 H 211.334 -2.94869 0.727034 0
M  V30 2192 H 208.919 -1.43342 0.42111 0
M  V30 2193 H 210.801 -3.92995 -1.52094 0
M  V30 2194 H 209.476 -2.74898 -1.70918 0
M  V30 2195 H 208.383 -3.72011 0.394835 0
M  V30 2196 H 209.716 -4.89655 0.499899 0
M  V30 2197 N 211.368 -0.403325 -1.52352 0
M  V30 2198 C 212.784 -0.0539281 -1.59509 0
M  V30 2199 C 212.984 1.43307 -1.41652 0
M  V30 2200 O 212.04 2.19924 -1.24056 0
M  V30 2201 C 213.353 -0.543654 -2.95745 0
M  V30 2202 C 214.901 -0.501125 -3.08962 0
M  V30 2203 C 215.376 -0.967267 -4.47669 0
M  V30 2204 N 216.867 -0.923849 -4.53893 0
M  V30 2205 C 217.602 -1.25578 -5.5948 0
M  V30 2206 N 217.098 -1.65889 -6.72646 0
M  V30 2207 N 218.891 -1.17613 -5.49658 0
M  V30 2208 H 211.042 -1.37123 -1.62206 0
M  V30 2209 H 213.305 -0.56294 -0.76276 0
M  V30 2210 H 213.011 -1.58275 -3.14073 0
M  V30 2211 H 212.885 0.0498042 -3.77167 0
M  V30 2212 H 215.272 0.528909 -2.90321 0
M  V30 2213 H 215.353 -1.13056 -2.2946 0
M  V30 2214 H 214.997 -1.9956 -4.67053 0
M  V30 2215 H 214.927 -0.314698 -5.25659 0
M  V30 2216 H 217.418 -0.627403 -3.72655 0
M  V30 2217 H 217.731 -1.89543 -7.49195 0
M  V30 2218 H 216.076 -1.69787 -6.73942 0
M  V30 2219 H 219.267 -0.860115 -4.6013 0
M  V30 2220 H 219.44 -1.43812 -6.3184 0
M  V30 2221 N 212.846 1.57033 -0.133567 0
M  V30 2222 C 214.076 1.99754 0.527429 0
M  V30 2223 C 214.484 1.01245 1.59832 0
M  V30 2224 O 213.827 -0.000645496 1.837 0
M  V30 2225 C 213.889 3.38903 1.19939 0
M  V30 2226 C 213.553 4.56174 0.274709 0
M  V30 2227 C 214.55 5.17563 -0.492398 0
M  V30 2228 C 212.235 5.01972 0.18153 0
M  V30 2229 C 214.229 6.2315 -1.34027 0
M  V30 2230 C 211.916 6.07416 -0.669958 0
M  V30 2231 C 212.914 6.67874 -1.42947 0
M  V30 2232 O 212.602 7.71279 -2.2668 0
M  V30 2233 H 212.334 0.660702 0.142999 0
M  V30 2234 H 214.888 2.04207 -0.221099 0
M  V30 2235 H 213.118 3.31248 1.99528 0
M  V30 2236 H 214.807 3.65818 1.75875 0
M  V30 2237 H 215.573 4.83087 -0.430367 0
M  V30 2238 H 211.452 4.54652 0.762422 0
M  V30 2239 H 214.996 6.70268 -1.93357 0
M  V30 2240 H 210.893 6.41321 -0.73333 0
M  V30 2241 H 211.661 7.88441 -2.1978 0
M  V30 2242 N 214.325 -0.140222 1.56975 0
M  V30 2243 C 215.573 -0.850005 1.83356 0
M  V30 2244 C 215.894 -1.81399 0.71551 0
M  V30 2245 O 215.164 -1.94136 -0.262294 0
M  V30 2246 H 213.744 -0.316886 0.676456 0
M  V30 2247 H 216.406 -0.132608 1.94448 0
M  V30 2248 H 215.502 -1.40814 2.78528 0
M  V30 2249 N 215.803 -1.52179 -0.40978 0
M  V30 2250 C 217.049 -1.66453 -1.15851 0
M  V30 2251 C 217.382 -0.392972 -1.90182 0
M  V30 2252 O 216.657 0.608579 -1.84734 0
M  V30 2253 C 216.94 -2.88612 -2.15349 0
M  V30 2254 C 216.793 -4.25815 -1.44918 0
M  V30 2255 C 218.112 -3.06294 -3.16026 0
M  V30 2256 H 215.231 -0.60575 -0.419805 0
M  V30 2257 H 217.873 -1.84732 -0.444314 0
M  V30 2258 H 216.023 -2.73158 -2.76255 0
M  V30 2259 H 217.695 -4.52995 -0.871365 0
M  V30 2260 H 215.938 -4.27247 -0.751159 0
M  V30 2261 H 216.609 -5.07337 -2.17516 0
M  V30 2262 H 219.085 -3.20641 -2.65195 0
M  V30 2263 H 217.961 -3.93283 -3.8291 0
M  V30 2264 H 218.222 -2.19579 -3.83715 0
M  V30 2265 N 217.281 0.66697 -1.42791 0
M  V30 2266 C 218.527 1.4291 -1.43891 0
M  V30 2267 C 218.86 1.94114 -0.0578972 0
M  V30 2268 O 218.135 1.71414 0.91911 0
M  V30 2269 C 218.418 2.62049 -2.46987 0
M  V30 2270 C 218.271 2.16426 -3.94309 0
M  V30 2271 C 219.59 3.64266 -2.46978 0
M  V30 2272 H 216.709 0.518306 -0.523954 0
M  V30 2273 H 219.351 0.757321 -1.74255 0
M  V30 2274 H 217.501 3.19361 -2.21225 0
M  V30 2275 H 219.173 1.64221 -4.31079 0
M  V30 2276 H 217.416 1.47925 -4.078 0
M  V30 2277 H 218.087 3.02038 -4.62036 0
M  V30 2278 H 220.563 3.16686 -2.69906 0
M  V30 2279 H 219.439 4.45196 -3.21079 0
M  V30 2280 H 219.7 4.15927 -1.49857 0
M  V30 2281 N 218.759 1.29093 0.90403 0
M  V30 2282 C 219.669 1.15727 2.0407 0
M  V30 2283 C 220.685 0.0815308 1.73809 0
M  V30 2284 O 221.861 0.292749 1.99261 0
M  V30 2285 C 218.926 0.830424 3.36608 0
M  V30 2286 C 217.987 1.98955 3.80415 0
M  V30 2287 C 217.22 1.6782 5.06628 0
M  V30 2288 O 217.443 0.597105 5.67266 0
M  V30 2289 O 216.377 2.52486 5.46383 0
M  V30 2290 H 220.203 2.11171 2.18267 0
M  V30 2291 H 217.788 1.08504 1.027 0
M  V30 2292 H 219.67 0.662521 4.16159 0
M  V30 2293 H 218.345 -0.0942678 3.23563 0
M  V30 2294 H 217.252 2.21267 3.01648 0
M  V30 2295 H 218.585 2.89529 3.98037 0
M  V30 2296 N 220.237 -1.11381 1.11499 0
M  V30 2297 C 221.484 -1.83132 0.864231 0
M  V30 2298 C 221.812 -1.84683 -0.610114 0
M  V30 2299 O 221.067 -1.29589 -1.46646 0
M  V30 2300 C 221.366 -3.30026 1.37177 0
M  V30 2301 C 221.032 -3.48634 2.85946 0
M  V30 2302 C 219.694 -3.53421 3.26569 0
M  V30 2303 C 222.046 -3.54837 3.81759 0
M  V30 2304 C 219.374 -3.61967 4.61733 0
M  V30 2305 C 221.726 -3.64915 5.1674 0
M  V30 2306 C 220.39 -3.67962 5.5692 0
M  V30 2307 H 219.66 -0.670127 0.316245 0
M  V30 2308 H 222.307 -1.31354 1.3935 0
M  V30 2309 H 220.612 -3.84304 0.762753 0
M  V30 2310 H 222.309 -3.84034 1.15408 0
M  V30 2311 H 218.899 -3.45579 2.53521 0
M  V30 2312 H 223.083 -3.50399 3.51474 0
M  V30 2313 H 218.339 -3.62603 4.92269 0
M  V30 2314 H 222.513 -3.68658 5.90816 0
M  V30 2315 H 220.14 -3.74336 6.61647 0
M  V30 2316 N 221.715 -0.905404 -1.28997 0
M  V30 2317 C 222.992 -0.453513 -1.9027 0
M  V30 2318 C 223.372 1.06721 -1.82137 0
M  V30 2319 O 222.72 1.91159 -1.25182 0
M  V30 2320 C 222.93 -0.974494 -3.35119 0
M  V30 2321 C 224.278 -1.0216 -4.12127 0
M  V30 2322 O 225.302 -0.922557 -3.44046 0
M  V30 2323 O 224.161 -1.17121 -5.33802 0
M  V30 2324 H 221.255 -0.142347 -0.814657 0
M  V30 2325 H 223.801 -0.995642 -1.37423 0
M  V30 2326 H 222.573 -2.01848 -3.35221 0
M  V30 2327 H 222.196 -0.412706 -3.95452 0
M  V30 2328 N 223.193 1.4272 -0.668489 0
M  V30 2329 C 224.125 2.2914 0.052613 0
M  V30 2330 C 225.138 1.43339 0.771857 0
M  V30 2331 O 226.327 1.67123 0.627067 0
M  V30 2332 C 223.427 3.20618 1.09804 0
M  V30 2333 C 222.6 4.35039 0.45389 0
M  V30 2334 C 221.659 5.07282 1.39825 0
M  V30 2335 O 220.685 5.62024 0.900978 0
M  V30 2336 N 221.887 5.12206 2.73176 0
M  V30 2337 H 224.652 2.91668 -0.689209 0
M  V30 2338 H 222.213 1.53577 -0.512422 0
M  V30 2339 H 224.205 3.65815 1.73094 0
M  V30 2340 H 222.775 2.59585 1.74167 0
M  V30 2341 H 221.995 3.92567 -0.358396 0
M  V30 2342 H 223.283 5.088 0.00486972 0
M  V30 2343 H 222.681 4.6913 3.16122 0
M  V30 2344 H 221.238 5.61069 3.31729 0
M  V30 2345 N 224.671 0.411399 1.52136 0
M  V30 2346 C 225.919 -0.163322 2.01439 0
M  V30 2347 C 226.24 -1.45453 1.29879 0
M  V30 2348 O 225.51 -1.91225 0.4254 0
M  V30 2349 H 224.09 -0.0633447 0.744309 0
M  V30 2350 H 226.752 0.548161 1.87033 0
M  V30 2351 H 225.848 -0.357817 3.10042 0
M  V30 2352 N 226.149 -1.5696 0.141893 0
M  V30 2353 C 227.397 -1.95573 -0.509484 0
M  V30 2354 C 227.718 -1.02746 -1.65736 0
M  V30 2355 O 226.988 -0.0880311 -1.95702 0
M  V30 2356 H 225.568 -0.722115 -0.191205 0
M  V30 2357 H 228.23 -1.93697 0.216196 0
M  V30 2358 H 227.326 -2.99171 -0.889 0
M  V30 2359 N 227.627 0.131896 -1.57047 0
M  V30 2360 C 228.574 1.16236 -1.99393 0
M  V30 2361 C 229.544 1.41863 -0.863943 0
M  V30 2362 O 230.729 1.53946 -1.12718 0
M  V30 2363 C 227.869 2.48708 -2.39245 0
M  V30 2364 C 226.982 2.30127 -3.65603 0
M  V30 2365 C 226.117 3.55738 -3.94492 0
M  V30 2366 C 225.156 3.32259 -5.14073 0
M  V30 2367 N 224.293 4.50039 -5.38896 0
M  V30 2368 H 229.133 0.794251 -2.87221 0
M  V30 2369 H 226.67 0.380707 -1.42088 0
M  V30 2370 H 228.628 3.25969 -2.60384 0
M  V30 2371 H 227.258 2.83437 -1.54478 0
M  V30 2372 H 226.31 1.43845 -3.52154 0
M  V30 2373 H 227.622 2.08746 -4.5302 0
M  V30 2374 H 226.776 4.41423 -4.1621 0
M  V30 2375 H 225.515 3.80138 -3.05526 0
M  V30 2376 H 224.52 2.44963 -4.92212 0
M  V30 2377 H 225.745 3.09242 -6.04604 0
M  V30 2378 H 223.691 4.74584 -4.52886 0
M  V30 2379 H 223.608 4.31716 -6.2061 0
M  V30 2380 H 224.876 5.36895 -5.65123 0
M  V30 2381 N 229.106 1.52395 0.401703 0
M  V30 2382 C 230.069 1.75636 1.47257 0
M  V30 2383 C 231.069 0.62628 1.48103 0
M  V30 2384 O 232.259 0.894227 1.49497 0
M  V30 2385 C 229.391 1.84553 2.86624 0
M  V30 2386 H 230.584 2.71241 1.27938 0
M  V30 2387 H 228.137 1.42923 0.632662 0
M  V30 2388 H 228.872 0.908882 3.11303 0
M  V30 2389 H 228.657 2.66715 2.87412 0
M  V30 2390 H 230.147 2.04251 3.64241 0
M  V30 2391 N 230.584 -0.659388 1.43143 0
M  V30 2392 C 231.833 -1.41518 1.43721 0
M  V30 2393 C 232.146 -1.95499 0.0628176 0
M  V30 2394 O 233.352 -2.71446 -0.0539683 0
M  V30 2395 C 231.808 -2.5608 2.52885 0
M  V30 2396 C 231.416 -2.08733 3.96402 0
M  V30 2397 C 233.16 -3.3349 2.62649 0
M  V30 2398 C 231.067 -3.20469 4.97045 0
M  V30 2399 H 229.997 -0.531705 0.534608 0
M  V30 2400 H 232.648 -0.712343 1.69109 0
M  V30 2401 H 231.03 -3.28805 2.20688 0
M  V30 2402 H 232.204 -1.43059 4.3803 0
M  V30 2403 H 230.519 -1.44219 3.90627 0
M  V30 2404 H 233.116 -4.16734 3.35017 0
M  V30 2405 H 233.459 -3.8111 1.67513 0
M  V30 2406 H 233.992 -2.67842 2.94118 0
M  V30 2407 H 230.731 -2.77824 5.93712 0
M  V30 2408 H 230.251 -3.84874 4.60034 0
M  V30 2409 H 231.93 -3.85698 5.19467 0
M  V30 2410 N 232.062 -1.29571 -0.897171 0
M  V30 2411 C 233.287 -1.20705 -1.68656 0
M  V30 2412 C 233.712 0.228582 -1.86706 0
M  V30 2413 O 233.07 1.16494 -1.3892 0
M  V30 2414 C 233.118 -1.9282 -3.04717 0
M  V30 2415 O 232.222 -1.24697 -3.93096 0
M  V30 2416 H 231.563 -0.418126 -0.515816 0
M  V30 2417 H 234.093 -1.71183 -1.12061 0
M  V30 2418 H 234.103 -2.01372 -3.54843 0
M  V30 2419 H 232.778 -2.97239 -2.90899 0
M  V30 2420 H 231.355 -1.2442 -3.51531 0
M  V30 2421 N 233.54 1.10788 -1.12088 0
M  V30 2422 C 234.47 2.19083 -0.807755 0
M  V30 2423 C 235.451 1.6858 0.226859 0
M  V30 2424 O 236.636 1.93997 0.0888475 0
M  V30 2425 C 233.766 3.46344 -0.257576 0
M  V30 2426 C 232.72 4.101 -1.22483 0
M  V30 2427 C 232.046 5.32016 -0.535052 0
M  V30 2428 C 233.346 4.54236 -2.57811 0
M  V30 2429 H 235.04 2.45534 -1.71328 0
M  V30 2430 H 232.586 1.1801 -0.825205 0
M  V30 2431 H 234.539 4.21392 -0.0262679 0
M  V30 2432 H 233.263 3.19373 0.683278 0
M  V30 2433 H 231.922 3.37054 -1.44189 0
M  V30 2434 H 231.57 5.01319 0.410827 0
M  V30 2435 H 231.27 5.75625 -1.18024 0
M  V30 2436 H 232.794 6.09799 -0.312695 0
M  V30 2437 H 234.208 5.20575 -2.40155 0
M  V30 2438 H 232.605 5.08682 -3.18375 0
M  V30 2439 H 233.675 3.6734 -3.16528 0
M  V30 2440 N 235.018 0.912232 1.28515 0
M  V30 2441 C 235.928 0.404506 2.31086 0
M  V30 2442 C 236.944 -0.50707 1.66448 0
M  V30 2443 O 238.12 -0.393624 1.97516 0
M  V30 2444 C 235.185 -0.348572 3.44943 0
M  V30 2445 C 234.246 0.59604 4.25142 0
M  V30 2446 C 233.479 -0.121194 5.33562 0
M  V30 2447 O 233.702 -1.34317 5.5436 0
M  V30 2448 O 232.636 0.542716 5.99448 0
M  V30 2449 H 236.462 1.25579 2.76521 0
M  V30 2450 H 234.047 0.676998 1.33181 0
M  V30 2451 H 235.929 -0.77395 4.14232 0
M  V30 2452 H 234.604 -1.17571 3.01594 0
M  V30 2453 H 233.511 1.07079 3.58448 0
M  V30 2454 H 234.844 1.38995 4.72167 0
M  V30 2455 N 236.496 -1.42363 0.676048 0
M  V30 2456 C 237.406 -2.346 -0.00153389 0
M  V30 2457 C 238.422 -1.5516 -0.787485 0
M  V30 2458 O 239.598 -1.87723 -0.729521 0
M  V30 2459 C 236.663 -3.33705 -0.940298 0
M  V30 2460 C 235.724 -4.29042 -0.148739 0
M  V30 2461 C 234.957 -5.23413 -1.04279 0
M  V30 2462 O 235.18 -5.22749 -2.28232 0
M  V30 2463 O 234.114 -5.99795 -0.502925 0
M  V30 2464 H 237.94 -2.94082 0.758268 0
M  V30 2465 H 235.525 -1.42888 0.436289 0
M  V30 2466 H 237.407 -3.94586 -1.47917 0
M  V30 2467 H 236.082 -2.76695 -1.67993 0
M  V30 2468 H 234.989 -3.71571 0.43427 0
M  V30 2469 H 236.322 -4.89097 0.551805 0
M  V30 2470 N 237.974 -0.419461 -1.51915 0
M  V30 2471 C 238.921 0.400927 -2.27291 0
M  V30 2472 C 239.891 1.03224 -1.30131 0
M  V30 2473 O 241.076 1.05455 -1.59009 0
M  V30 2474 C 238.216 1.50603 -3.10504 0
M  V30 2475 C 237.329 0.89462 -4.22635 0
M  V30 2476 C 236.464 1.97328 -4.93189 0
M  V30 2477 C 235.503 1.33935 -5.97267 0
M  V30 2478 N 234.64 2.3586 -6.61298 0
M  V30 2479 H 239.48 -0.248251 -2.96964 0
M  V30 2480 H 237.017 -0.134266 -1.46486 0
M  V30 2481 H 238.975 2.15783 -3.57062 0
M  V30 2482 H 237.605 2.12509 -2.42981 0
M  V30 2483 H 236.657 0.131583 -3.80172 0
M  V30 2484 H 237.969 0.391641 -4.9726 0
M  V30 2485 H 237.123 2.70211 -5.43204 0
M  V30 2486 H 235.862 2.50994 -4.18155 0
M  V30 2487 H 234.867 0.595896 -5.46561 0
M  V30 2488 H 236.092 0.810252 -6.74249 0
M  V30 2489 H 234.038 2.88639 -5.89087 0
M  V30 2490 H 233.955 1.90403 -7.3163 0
M  V30 2491 H 235.223 3.08282 -7.15949 0
M  V30 2492 N 239.452 1.56882 -0.150215 0
M  V30 2493 C 240.863 1.82995 0.370076 0
M  V30 2494 C 241.214 1.06907 1.64515 0
M  V30 2495 O 240.339 0.315369 2.1409 0
M  V30 2496 C 240.934 3.31942 0.678208 0
M  V30 2497 C 239.493 3.58625 1.14301 0
M  V30 2498 C 238.64 2.76792 0.167778 0
M  V30 2499 H 241.591 1.54209 -0.374858 0
M  V30 2500 H 241.612 3.48272 1.53254 0
M  V30 2501 H 241.124 3.87294 -0.249991 0
M  V30 2502 H 239.225 3.08664 2.08704 0
M  V30 2503 H 239.338 4.67073 1.06676 0
M  V30 2504 H 237.702 2.45972 0.661037 0
M  V30 2505 H 238.485 3.34916 -0.754069 0
M  V30 2506 N 240.93 -0.123565 1.57115 0
M  V30 2507 C 241.86 -1.15309 2.03042 0
M  V30 2508 C 242.841 -1.43454 0.914061 0
M  V30 2509 O 244.026 -1.53973 1.18347 0
M  V30 2510 C 241.156 -2.48043 2.43089 0
M  V30 2511 C 240.11 -2.3437 3.58127 0
M  V30 2512 C 239.436 -3.72026 3.84059 0
M  V30 2513 C 240.736 -1.80804 4.90007 0
M  V30 2514 H 242.43 -0.771102 2.893 0
M  V30 2515 H 239.976 -0.369479 1.39179 0
M  V30 2516 H 241.929 -3.20311 2.73823 0
M  V30 2517 H 240.653 -2.88122 1.53796 0
M  V30 2518 H 239.312 -1.64551 3.27595 0
M  V30 2519 H 238.96 -4.09582 2.91979 0
M  V30 2520 H 238.66 -3.63732 4.6149 0
M  V30 2521 H 240.184 -4.45806 4.1724 0
M  V30 2522 H 241.598 -2.42886 5.19307 0
M  V30 2523 H 239.995 -1.83343 5.71407 0
M  V30 2524 H 241.065 -0.76528 4.78823 0
M  V30 2525 N 242.408 -1.52605 -0.393616 0
M  V30 2526 C 243.318 -1.79971 -1.50492 0
M  V30 2527 C 244.334 -0.686181 -1.59899 0
M  V30 2528 O 245.51 -0.973274 -1.76322 0
M  V30 2529 C 242.575 -1.95867 -2.86072 0
M  V30 2530 C 241.636 -3.19781 -2.86424 0
M  V30 2531 C 240.869 -3.34909 -4.15538 0
M  V30 2532 O 241.092 -2.54948 -5.10253 0
M  V30 2533 O 240.026 -4.28141 -4.23059 0
M  V30 2534 H 243.852 -2.74328 -1.30299 0
M  V30 2535 H 241.437 -1.3764 -0.581005 0
M  V30 2536 H 243.319 -2.08056 -3.66457 0
M  V30 2537 H 241.994 -1.04699 -3.063 0
M  V30 2538 H 240.901 -3.13038 -2.04837 0
M  V30 2539 H 242.234 -4.1078 -2.71147 0
M  V30 2540 N 243.887 0.651787 -1.4349 0
M  V30 2541 C 245.298 1.233 -1.40193 0
M  V30 2542 C 245.649 1.9591 -0.106727 0
M  V30 2543 O 244.774 2.01316 0.793773 0
M  V30 2544 C 245.369 2.24257 -2.53957 0
M  V30 2545 C 243.928 2.77852 -2.5392 0
M  V30 2546 C 243.075 1.52517 -2.3159 0
M  V30 2547 H 246.026 0.443717 -1.52371 0
M  V30 2548 H 246.047 3.0646 -2.25528 0
M  V30 2549 H 245.559 1.71382 -3.4821 0
M  V30 2550 H 243.66 3.34786 -1.63551 0
M  V30 2551 H 243.773 3.25299 -3.51735 0
M  V30 2552 H 242.137 1.79915 -1.80285 0
M  V30 2553 H 242.92 1.01574 -3.27929 0
M  V30 2554 N 245.365 1.30045 0.890287 0
M  V30 2555 C 246.312 1.15976 1.99545 0
M  V30 2556 C 247.282 0.0506202 1.66023 0
M  V30 2557 O 248.467 0.219847 1.89529 0
M  V30 2558 C 245.607 0.852054 3.34416 0
M  V30 2559 C 244.72 2.04255 3.80662 0
M  V30 2560 C 243.855 1.6734 5.04154 0
M  V30 2561 C 242.894 2.82916 5.42794 0
M  V30 2562 N 242.031 2.46333 6.57468 0
M  V30 2563 H 246.871 2.10524 2.10911 0
M  V30 2564 H 244.408 1.04749 1.03276 0
M  V30 2565 H 246.366 0.654296 4.12037 0
M  V30 2566 H 244.996 -0.0565502 3.2275 0
M  V30 2567 H 244.048 2.35172 2.98995 0
M  V30 2568 H 245.36 2.90826 4.05242 0
M  V30 2569 H 244.514 1.43908 5.89386 0
M  V30 2570 H 243.253 0.779308 4.81433 0
M  V30 2571 H 242.258 3.0702 4.56091 0
M  V30 2572 H 243.483 3.73004 5.6749 0
M  V30 2573 H 241.429 1.59423 6.36334 0
M  V30 2574 H 241.346 3.26436 6.81891 0
M  V30 2575 H 242.614 2.26244 7.45945 0
M  V30 2576 N 246.843 -1.10192 1.12674 0
M  V30 2577 C 248.068 -1.86523 0.906853 0
M  V30 2578 C 248.493 -1.80221 -0.538711 0
M  V30 2579 O 247.851 -1.17396 -1.38158 0
M  V30 2580 C 247.899 -3.32758 1.3894 0
M  V30 2581 O 247.003 -4.08449 0.5695 0
M  V30 2582 H 246.344 -0.578678 0.325619 0
M  V30 2583 H 248.874 -1.39203 1.49946 0
M  V30 2584 H 248.884 -3.83608 1.38958 0
M  V30 2585 H 247.559 -3.36661 2.44197 0
M  V30 2586 H 246.136 -3.67427 0.636528 0
M  V30 2587 N 248.321 -0.919034 -1.28029 0
M  V30 2588 C 249.269 -0.401753 -2.29104 0
M  V30 2589 C 250.263 0.509354 -1.61561 0
M  V30 2590 O 251.469 0.390014 -1.75724 0
M  V30 2591 H 247.844 -0.111331 -0.743713 0
M  V30 2592 H 249.815 -1.2672 -2.70156 0
M  V30 2593 C 248.564 0.338148 -3.46052 0
M  V30 2594 H 247.887 -0.353732 -3.98232 0
M  V30 2595 H 249.327 0.664653 -4.18758 0
M  V30 2596 C 247.786 1.54798 -2.99231 0
M  V30 2597 O 248.316 2.64696 -3.02157 0
M  V30 2598 N 246.522 1.3968 -2.54829 0
M  V30 2599 H 246.069 0.502698 -2.52647 0
M  V30 2600 H 246.027 2.20755 -2.23863 0
M  V30 2601 N 249.799 1.42003 -0.683588 0
M  V30 2602 C 251.029 2.05448 -0.217866 0
M  V30 2603 C 251.437 1.51491 1.13346 0
M  V30 2604 O 250.78 0.653048 1.717 0
M  V30 2605 C 250.842 3.59399 -0.0850118 0
M  V30 2606 C 250.506 4.36093 -1.36645 0
M  V30 2607 C 251.503 4.66169 -2.30179 0
M  V30 2608 C 249.188 4.75578 -1.61649 0
M  V30 2609 C 251.182 5.34676 -3.46988 0
M  V30 2610 C 248.869 5.43824 -2.78745 0
M  V30 2611 C 249.867 5.73299 -3.71238 0
M  V30 2612 O 249.555 6.40142 -4.86285 0
M  V30 2613 H 249.287 0.668344 -0.101454 0
M  V30 2614 H 251.841 1.82974 -0.933248 0
M  V30 2615 H 250.071 3.80566 0.686031 0
M  V30 2616 H 251.76 4.04457 0.341973 0
M  V30 2617 H 252.526 4.36156 -2.12115 0
M  V30 2618 H 248.405 4.52025 -0.905243 0
M  V30 2619 H 251.949 5.57599 -4.19201 0
M  V30 2620 H 247.846 5.73254 -2.96732 0
M  V30 2621 H 248.614 6.58636 -4.85944 0
M  V30 2622 N 251.277 0.427512 1.51691 0
M  V30 2623 C 252.24 -0.377132 2.26076 0
M  V30 2624 C 253.24 -0.958089 1.29141 0
M  V30 2625 O 254.43 -0.83408 1.52934 0
M  V30 2626 C 251.562 -1.53262 3.04506 0
M  V30 2627 H 252.755 0.27464 2.9864 0
M  V30 2628 H 250.308 0.180445 1.55255 0
M  V30 2629 H 251.043 -2.22072 2.36335 0
M  V30 2630 H 250.828 -1.12232 3.75694 0
M  V30 2631 H 252.318 -2.10135 3.60878 0
M  V30 2632 N 252.755 -1.56801 0.158532 0
M  V30 2633 C 254.001 -1.96781 -0.490405 0
M  V30 2634 C 254.334 -1.04397 -1.63753 0
M  V30 2635 O 253.609 -0.0885805 -1.94298 0
M  V30 2636 C 253.892 -3.4635 -0.985594 0
M  V30 2637 C 253.745 -4.49512 0.160824 0
M  V30 2638 C 255.064 -3.98697 -1.86355 0
M  V30 2639 H 252.183 -0.715482 -0.176788 0
M  V30 2640 H 254.825 -1.88451 0.242088 0
M  V30 2641 H 252.975 -3.53579 -1.60978 0
M  V30 2642 H 254.647 -4.54353 0.797537 0
M  V30 2643 H 252.89 -4.26013 0.818256 0
M  V30 2644 H 253.561 -5.51531 -0.227569 0
M  V30 2645 H 256.037 -3.94019 -1.33746 0
M  V30 2646 H 254.913 -5.03792 -2.17909 0
M  V30 2647 H 255.174 -3.41744 -2.8047 0
M  V30 2648 N 254.233 0.115231 -1.57178 0
M  V30 2649 C 255.461 0.836437 -1.89239 0
M  V30 2650 C 255.876 1.73256 -0.750175 0
M  V30 2651 O 255.233 1.80357 0.278832 0
M  V30 2652 C 255.284 1.66671 -3.20785 0
M  V30 2653 O 255.005 0.806652 -4.3061 0
M  V30 2654 C 256.506 2.49274 -3.66575 0
M  V30 2655 H 253.726 0.240253 -0.626514 0
M  V30 2656 H 256.27 0.0984932 -2.04263 0
M  V30 2657 H 254.425 2.35737 -3.0742 0
M  V30 2658 H 254.839 1.37969 -5.06028 0
M  V30 2659 H 256.313 3.03055 -4.6137 0
M  V30 2660 H 256.79 3.26807 -2.93417 0
M  V30 2661 H 257.396 1.85443 -3.82741 0
M  V30 2662 N 255.711 1.52812 0.385517 0
M  V30 2663 C 256.959 1.67694 1.12797 0
M  V30 2664 C 257.28 0.421115 1.90399 0
M  V30 2665 O 256.55 -0.564551 1.87589 0
M  V30 2666 H 255.13 0.618155 0.419396 0
M  V30 2667 H 257.792 1.89938 0.436972 0
M  V30 2668 H 256.888 2.52896 1.82894 0
M  V30 2669 N 257.189 -0.644168 1.43834 0
M  V30 2670 C 258.119 -1.76814 1.52509 0
M  V30 2671 C 259.1 -1.65823 0.379052 0
M  V30 2672 O 260.285 -1.84781 0.597466 0
M  V30 2673 C 257.415 -3.15288 1.4564 0
M  V30 2674 C 256.369 -3.41053 2.58586 0
M  V30 2675 C 255.695 -4.79421 2.36769 0
M  V30 2676 C 256.995 -3.34902 4.00797 0
M  V30 2677 H 258.689 -1.69812 2.46586 0
M  V30 2678 H 256.235 -0.815542 1.1868 0
M  V30 2679 H 258.188 -3.93681 1.50311 0
M  V30 2680 H 256.912 -3.23043 0.480725 0
M  V30 2681 H 255.571 -2.65035 2.53282 0
M  V30 2682 H 255.219 -4.83863 1.37424 0
M  V30 2683 H 254.919 -4.9762 3.12487 0
M  V30 2684 H 256.443 -5.6006 2.43238 0
M  V30 2685 H 257.857 -4.03218 4.07539 0
M  V30 2686 H 256.254 -3.64637 4.76613 0
M  V30 2687 H 257.324 -2.32928 4.25291 0
M  V30 2688 N 258.668 -1.30515 -0.883378 0
M  V30 2689 C 259.898 -1.22182 -1.66599 0
M  V30 2690 C 260.306 0.217507 -1.87946 0
M  V30 2691 O 259.649 1.1554 -1.42815 0
M  V30 2692 C 259.711 -1.88146 -3.06335 0
M  V30 2693 C 259.375 -3.37476 -3.08154 0
M  V30 2694 C 260.372 -4.33443 -2.87094 0
M  V30 2695 C 258.057 -3.7895 -3.29701 0
M  V30 2696 C 260.051 -5.68858 -2.8754 0
M  V30 2697 C 257.738 -5.14482 -3.29776 0
M  V30 2698 C 258.736 -6.09246 -3.0872 0
M  V30 2699 O 258.424 -7.42302 -3.08615 0
M  V30 2700 H 258.156 -0.423898 -0.52658 0
M  V30 2701 H 260.71 -1.72703 -1.11188 0
M  V30 2702 H 258.94 -1.32157 -3.63416 0
M  V30 2703 H 260.629 -1.7391 -3.66756 0
M  V30 2704 H 261.395 -4.02733 -2.70243 0
M  V30 2705 H 257.274 -3.05631 -3.45124 0
M  V30 2706 H 260.818 -6.428 -2.71024 0
M  V30 2707 H 256.715 -5.44832 -3.46163 0
M  V30 2708 H 257.483 -7.5131 -3.24769 0
M  V30 2709 N 260.146 1.09593 -1.13257 0
M  V30 2710 C 261.393 1.81734 -0.893257 0
M  V30 2711 C 261.721 1.8563 0.580656 0
M  V30 2712 O 260.976 1.31906 1.44566 0
M  V30 2713 C 261.275 3.27802 -1.42411 0
M  V30 2714 C 260.941 3.44041 -2.91456 0
M  V30 2715 C 259.603 3.48181 -3.3215 0
M  V30 2716 C 261.955 3.48719 -3.87356 0
M  V30 2717 C 259.283 3.54575 -4.67433 0
M  V30 2718 C 261.635 3.56648 -5.2248 0
M  V30 2719 C 260.299 3.59055 -5.62704 0
M  V30 2720 H 259.569 0.665011 -0.326866 0
M  V30 2721 H 262.216 1.2912 -1.41422 0
M  V30 2722 H 260.521 3.83042 -0.823795 0
M  V30 2723 H 262.218 3.82149 -1.21503 0
M  V30 2724 H 258.808 3.41502 -2.58987 0
M  V30 2725 H 262.992 3.44763 -3.57004 0
M  V30 2726 H 258.248 3.54725 -4.97976 0
M  V30 2727 H 262.422 3.59212 -5.96607 0
M  V30 2728 H 260.049 3.63763 -6.67518 0
M  V30 2729 N 261.624 0.925811 1.2754 0
M  V30 2730 C 262.854 0.580666 1.98272 0
M  V30 2731 C 263.262 -0.845207 1.69272 0
M  V30 2732 O 262.605 -1.57306 0.948707 0
M  V30 2733 C 262.667 0.724418 3.52126 0
M  V30 2734 C 262.331 2.12206 4.04744 0
M  V30 2735 C 263.328 3.09604 4.17662 0
M  V30 2736 C 261.013 2.4385 4.39138 0
M  V30 2737 C 263.007 4.36755 4.64246 0
M  V30 2738 C 260.694 3.71237 4.85414 0
M  V30 2739 C 261.692 4.67503 4.97926 0
M  V30 2740 O 261.38 5.92624 5.43187 0
M  V30 2741 H 261.112 0.218987 0.639547 0
M  V30 2742 H 263.666 1.24452 1.63404 0
M  V30 2743 H 261.896 0.0034663 3.867 0
M  V30 2744 H 263.585 0.384607 4.04074 0
M  V30 2745 H 264.351 2.86478 3.91351 0
M  V30 2746 H 260.23 1.69665 4.28643 0
M  V30 2747 H 263.774 5.11898 4.73927 0
M  V30 2748 H 259.671 3.94182 5.11166 0
M  V30 2749 H 260.439 5.95585 5.61445 0
M  V30 2750 N 263.102 -1.41638 0.69111 0
M  V30 2751 C 264.379 -1.95036 0.148421 0
M  V30 2752 C 264.759 -1.63072 -1.34055 0
M  V30 2753 O 264.107 -0.93538 -2.08478 0
M  V30 2754 C 264.317 -3.46279 0.434951 0
M  V30 2755 C 265.665 -4.23069 0.360275 0
M  V30 2756 O 266.689 -3.54277 0.369613 0
M  V30 2757 O 265.548 -5.45583 0.316534 0
M  V30 2758 H 262.642 -0.826908 0.0123654 0
M  V30 2759 H 265.188 -1.5138 0.766963 0
M  V30 2760 H 263.96 -3.6281 1.46576 0
M  V30 2761 H 263.583 -3.97019 -0.214787 0
M  V30 2762 N 264.58 -0.43555 -1.51462 0
M  V30 2763 C 265.512 0.41257 -2.25456 0
M  V30 2764 C 266.525 0.987822 -1.29406 0
M  V30 2765 O 267.714 0.882266 -1.55172 0
M  V30 2766 C 264.814 1.58894 -2.99342 0
M  V30 2767 C 263.987 1.13288 -4.22474 0
M  V30 2768 C 263.046 2.17917 -4.78956 0
M  V30 2769 O 262.072 1.77425 -5.40841 0
M  V30 2770 N 263.274 3.50382 -4.62832 0
M  V30 2771 H 266.039 -0.221603 -2.9888 0
M  V30 2772 H 263.6 -0.264342 -1.59727 0
M  V30 2773 H 265.592 2.28508 -3.34015 0
M  V30 2774 H 264.162 2.12849 -2.28941 0
M  V30 2775 H 263.382 0.263881 -3.93316 0
M  V30 2776 H 264.67 0.805542 -5.02383 0
M  V30 2777 H 264.068 3.86013 -4.13534 0
M  V30 2778 H 262.625 4.15895 -5.01871 0
M  V30 2779 N 266.058 1.56714 -0.166846 0
M  V30 2780 C 266.99 2.14914 0.796537 0
M  V30 2781 C 268.003 1.10357 1.19688 0
M  V30 2782 O 269.192 1.37561 1.13751 0
M  V30 2783 C 266.292 2.67326 2.08303 0
M  V30 2784 C 265.465 3.96493 1.84696 0
M  V30 2785 C 264.524 4.34014 2.97521 0
M  V30 2786 O 263.55 5.01973 2.6835 0
M  V30 2787 N 264.752 3.95208 4.25196 0
M  V30 2788 H 267.517 2.98205 0.299006 0
M  V30 2789 H 265.078 1.61892 0.0160839 0
M  V30 2790 H 267.07 2.89428 2.82867 0
M  V30 2791 H 265.64 1.88649 2.4926 0
M  V30 2792 H 264.86 3.82814 0.940602 0
M  V30 2793 H 266.148 4.8086 1.66285 0
M  V30 2794 H 265.546 3.40487 4.51758 0
M  V30 2795 H 264.103 4.2232 4.96477 0
M  V30 2796 N 267.536 -0.106894 1.57237 0
M  V30 2797 C 268.782 -0.81373 1.85759 0
M  V30 2798 C 269.115 -1.78952 0.754315 0
M  V30 2799 O 268.39 -1.93029 -0.23879 0
M  V30 2800 C 268.673 -1.55293 3.24894 0
M  V30 2801 C 268.526 -0.595929 4.45835 0
M  V30 2802 C 269.845 -2.5063 3.61763 0
M  V30 2803 H 266.964 -0.294369 0.67566 0
M  V30 2804 H 269.606 -0.0776472 1.89841 0
M  V30 2805 H 267.756 -2.1804 3.21544 0
M  V30 2806 H 269.428 0.0236262 4.61294 0
M  V30 2807 H 267.671 0.0916191 4.33703 0
M  V30 2808 H 268.342 -1.15004 5.39887 0
M  V30 2809 H 270.818 -1.97982 3.65981 0
M  V30 2810 H 269.694 -2.99376 4.60071 0
M  V30 2811 H 269.955 -3.3385 2.89821 0
M  V30 2812 N 269.014 -1.53014 -0.377408 0
M  V30 2813 C 270.26 -1.68872 -1.12294 0
M  V30 2814 C 270.593 -0.433224 -1.89306 0
M  V30 2815 O 269.868 0.569258 -1.85983 0
M  V30 2816 C 270.151 -2.93115 -2.09179 0
M  V30 2817 C 270.004 -4.28794 -1.35853 0
M  V30 2818 C 271.323 -3.12928 -3.09458 0
M  V30 2819 H 268.442 -0.614518 -0.406862 0
M  V30 2820 H 271.084 -1.85633 -0.40503 0
M  V30 2821 H 269.234 -2.78956 -2.70399 0
M  V30 2822 H 270.906 -4.54742 -0.775082 0
M  V30 2823 H 269.149 -4.28744 -0.660364 0
M  V30 2824 H 269.82 -5.11837 -2.06706 0
M  V30 2825 H 272.296 -3.26194 -2.58334 0
M  V30 2826 H 271.172 -4.01316 -3.74482 0
M  V30 2827 H 271.433 -2.27669 -3.78971 0
M  V30 2828 N 270.492 0.636531 -1.44174 0
M  V30 2829 C 271.769 1.39463 -1.37148 0
M  V30 2830 C 272.149 2.11082 -0.027507 0
M  V30 2831 O 271.497 2.05954 0.989716 0
M  V30 2832 C 271.707 2.36552 -2.56601 0
M  V30 2833 C 273.055 3.00048 -3.00427 0
M  V30 2834 O 274.079 2.46878 -2.56767 0
M  V30 2835 O 272.938 3.96488 -3.76111 0
M  V30 2836 H 270.032 0.623903 -0.542839 0
M  V30 2837 H 272.578 0.662039 -1.56253 0
M  V30 2838 H 271.35 1.82692 -3.46034 0
M  V30 2839 H 270.973 3.17236 -2.39681 0
M  V30 2840 N 271.97 1.30982 0.876444 0
M  V30 2841 C 273.219 1.19658 1.62373 0
M  V30 2842 C 273.532 -0.245636 1.94052 0
M  V30 2843 O 274.738 -0.48049 2.67214 0
M  V30 2844 C 273.194 2.09433 2.92687 0
M  V30 2845 C 272.802 3.58613 2.68516 0
M  V30 2846 C 274.546 2.06893 3.70669 0
M  V30 2847 C 272.453 4.40416 3.94699 0
M  V30 2848 H 271.383 0.444268 0.609214 0
M  V30 2849 H 274.034 1.55791 0.969605 0
M  V30 2850 H 272.416 1.66191 3.59439 0
M  V30 2851 H 273.59 4.10058 2.10212 0
M  V30 2852 H 271.905 3.63063 2.03898 0
M  V30 2853 H 274.502 2.65258 4.64265 0
M  V30 2854 H 274.845 1.05448 4.02724 0
M  V30 2855 H 275.378 2.48301 3.10792 0
M  V30 2856 H 272.117 5.42591 3.67798 0
M  V30 2857 H 271.637 3.93731 4.52477 0
M  V30 2858 H 273.316 4.52294 4.62644 0
M  V30 2859 N 273.449 -1.08991 1.13837 0
M  V30 2860 C 274.412 -2.13925 0.822715 0
M  V30 2861 C 275.412 -1.599 -0.1699 0
M  V30 2862 O 276.602 -1.74104 0.0577251 0
M  V30 2863 C 273.734 -3.40155 0.225318 0
M  V30 2864 H 274.927 -2.43358 1.75262 0
M  V30 2865 H 272.48 -1.24603 0.943594 0
M  V30 2866 H 273.215 -3.16352 -0.713594 0
M  V30 2867 H 273 -3.80661 0.940193 0
M  V30 2868 H 274.49 -4.17594 0.0214784 0
M  V30 2869 N 274.927 -0.932562 -1.27047 0
M  V30 2870 C 276.343 -0.633544 -1.46487 0
M  V30 2871 C 276.543 0.815746 -1.84249 0
M  V30 2872 O 275.599 1.59319 -1.95892 0
M  V30 2873 C 276.912 -1.58758 -2.55375 0
M  V30 2874 C 278.46 -1.59634 -2.69232 0
M  V30 2875 C 278.935 -2.53747 -3.81283 0
M  V30 2876 N 280.426 -2.51982 -3.88664 0
M  V30 2877 C 281.161 -3.21491 -4.74796 0
M  V30 2878 N 280.657 -4.00395 -5.65381 0
M  V30 2879 N 282.45 -3.10485 -4.68568 0
M  V30 2880 H 274.601 -1.86946 -1.00821 0
M  V30 2881 H 276.864 -0.802897 -0.504044 0
M  V30 2882 H 276.57 -2.62172 -2.34432 0
M  V30 2883 H 276.444 -1.33301 -3.52861 0
M  V30 2884 H 278.831 -0.569488 -2.89553 0
M  V30 2885 H 278.912 -1.89142 -1.72218 0
M  V30 2886 H 278.556 -3.56545 -3.61715 0
M  V30 2887 H 278.486 -2.21532 -4.77735 0
M  V30 2888 H 280.977 -1.94681 -3.23895 0
M  V30 2889 H 281.29 -4.50406 -6.27976 0
M  V30 2890 H 279.635 -4.04498 -5.65161 0
M  V30 2891 H 282.826 -2.48331 -3.96799 0
M  V30 2892 H 282.999 -3.64925 -5.35475 0
M  V30 2893 N 276.405 1.4127 -0.698611 0
M  V30 2894 C 277.682 1.94955 -0.158762 0
M  V30 2895 C 278.062 1.63781 1.33188 0
M  V30 2896 O 277.41 0.946423 2.07979 0
M  V30 2897 C 277.62 3.46044 -0.453309 0
M  V30 2898 C 278.968 4.22872 -0.382707 0
M  V30 2899 O 279.992 3.54076 -0.388396 0
M  V30 2900 O 278.851 5.45407 -0.345463 0
M  V30 2901 H 275.945 0.82683 -0.0167505 0
M  V30 2902 H 278.491 1.50971 -0.77498 0
M  V30 2903 H 277.263 3.62028 -1.48498 0
M  V30 2904 H 276.886 3.97128 0.19373 0
M  V30 2905 N 277.883 0.443576 1.51229 0
M  V30 2906 C 278.813 -0.355142 2.30783 0
M  V30 2907 C 279.794 -1.0154 1.36468 0
M  V30 2908 O 280.979 -1.01785 1.65389 0
M  V30 2909 C 278.109 -1.45312 3.15439 0
M  V30 2910 C 277.063 -0.916002 4.18083 0
M  V30 2911 C 276.389 -2.1102 4.91299 0
M  V30 2912 C 277.689 0.0538602 5.22272 0
M  V30 2913 H 279.383 0.308767 2.97804 0
M  V30 2914 H 276.929 0.149937 1.43217 0
M  V30 2915 H 278.882 -2.01914 3.69876 0
M  V30 2916 H 277.606 -2.14541 2.46252 0
M  V30 2917 H 276.265 -0.372145 3.64706 0
M  V30 2918 H 275.913 -2.78882 4.18609 0
M  V30 2919 H 275.613 -1.75717 5.60712 0
M  V30 2920 H 277.137 -2.68164 5.48562 0
M  V30 2921 H 278.551 -0.422069 5.71744 0
M  V30 2922 H 276.948 0.319776 5.99247 0
M  V30 2923 H 278.018 0.98858 4.74716 0
M  V30 2924 N 279.361 -1.56624 0.175154 0
M  V30 2925 C 280.308 -2.18149 -0.753634 0
M  V30 2926 C 281.278 -1.12265 -1.22417 0
M  V30 2927 O 282.463 -1.40432 -1.29165 0
M  V30 2928 C 279.603 -2.82933 -1.97592 0
M  V30 2929 C 278.716 -4.03289 -1.5486 0
M  V30 2930 C 277.851 -4.55988 -2.72485 0
M  V30 2931 C 276.89 -5.68746 -2.26262 0
M  V30 2932 N 276.027 -6.15938 -3.36994 0
M  V30 2933 H 280.867 -2.9717 -0.222195 0
M  V30 2934 H 278.404 -1.46774 -0.0979422 0
M  V30 2935 H 280.362 -3.18653 -2.69288 0
M  V30 2936 H 278.992 -2.06509 -2.481 0
M  V30 2937 H 278.044 -3.73364 -0.728246 0
M  V30 2938 H 279.356 -4.849 -1.16933 0
M  V30 2939 H 278.51 -4.9391 -3.52332 0
M  V30 2940 H 277.249 -3.73443 -3.13674 0
M  V30 2941 H 276.254 -5.30372 -1.44863 0
M  V30 2942 H 277.479 -6.53095 -1.86127 0
M  V30 2943 H 275.425 -5.36321 -3.77751 0
M  V30 2944 H 275.342 -6.92548 -3.03172 0
M  V30 2945 H 276.61 -6.58511 -4.17114 0
M  V30 2946 N 280.839 0.0985539 -1.57292 0
M  V30 2947 C 282.25 0.653457 -1.74891 0
M  V30 2948 C 282.601 1.7929 -0.796838 0
M  V30 2949 O 281.726 2.16385 0.0254886 0
M  V30 2950 C 282.321 1.19216 -3.17133 0
M  V30 2951 C 280.88 1.69316 -3.36168 0
M  V30 2952 C 280.027 0.601294 -2.70702 0
M  V30 2953 H 282.978 -0.127497 -1.58187 0
M  V30 2954 H 282.999 2.06154 -3.19814 0
M  V30 2955 H 282.511 0.362635 -3.86402 0
M  V30 2956 H 280.612 2.5468 -2.71972 0
M  V30 2957 H 280.725 1.78853 -4.44464 0
M  V30 2958 H 279.089 1.0399 -2.32504 0
M  V30 2959 H 279.872 -0.217592 -3.4261 0
M  V30 2960 N 282.317 1.53212 0.369288 0
M  V30 2961 C 283.542 1.73423 1.1375 0
M  V30 2962 C 283.967 0.460404 1.82378 0
M  V30 2963 O 283.325 -0.585298 1.71592 0
M  V30 2964 C 283.373 2.89769 2.1463 0
M  V30 2965 O 282.477 2.58119 3.21634 0
M  V30 2966 H 281.818 0.576061 0.330227 0
M  V30 2967 H 284.348 2.00083 0.427547 0
M  V30 2968 H 284.358 3.15829 2.58294 0
M  V30 2969 H 283.033 3.8217 1.64071 0
M  V30 2970 H 281.61 2.42864 2.82969 0
M  V30 2971 N 283.795 -0.628877 1.44509 0
M  V30 2972 C 285.206 -1.21054 1.42137 0
M  V30 2973 C 285.557 -1.95715 0.137881 0
M  V30 2974 O 284.682 -2.02554 -0.761645 0
M  V30 2975 C 285.277 -2.20189 2.57493 0
M  V30 2976 C 283.836 -2.73777 2.58308 0
M  V30 2977 C 282.983 -1.48813 2.33987 0
M  V30 2978 H 285.934 -0.41942 1.53057 0
M  V30 2979 H 285.955 -3.02833 2.30375 0
M  V30 2980 H 285.467 -1.6582 3.50892 0
M  V30 2981 H 283.568 -3.32142 1.68856 0
M  V30 2982 H 283.681 -3.19662 3.56865 0
M  V30 2983 H 282.045 -1.77024 1.83124 0
M  V30 2984 H 282.828 -0.963442 3.29504 0
M  V30 2985 N 285.273 -1.31445 -0.869486 0
M  V30 2986 C 286.689 -1.10113 -1.15531 0
M  V30 2987 C 286.889 0.128087 -2.01092 0
M  V30 2988 O 285.945 0.817276 -2.38908 0
M  V30 2989 C 287.258 -2.37291 -1.84698 0
M  V30 2990 C 288.806 -2.42906 -1.97397 0
M  V30 2991 C 289.281 -3.69967 -2.69979 0
M  V30 2992 N 290.772 -3.70864 -2.77514 0
M  V30 2993 C 291.507 -4.65875 -3.34287 0
M  V30 2994 N 291.003 -5.71242 -3.91988 0
M  V30 2995 N 292.796 -4.53394 -3.3225 0
M  V30 2996 H 284.947 -2.1028 -0.299347 0
M  V30 2997 H 287.21 -0.927683 -0.195214 0
M  V30 2998 H 286.916 -3.27078 -1.29278 0
M  V30 2999 H 286.79 -2.47125 -2.84972 0
M  V30 3000 H 289.177 -1.53588 -2.51982 0
M  V30 3001 H 289.258 -2.37036 -0.961643 0
M  V30 3002 H 288.902 -4.59652 -2.16062 0
M  V30 3003 H 288.832 -3.73103 -3.7162 0
M  V30 3004 H 291.323 -2.94697 -2.36563 0
M  V30 3005 H 291.636 -6.39817 -4.33421 0
M  V30 3006 H 289.981 -5.75015 -3.90362 0
M  V30 3007 H 293.172 -3.70252 -2.8641 0
M  V30 3008 H 293.345 -5.27617 -3.76197 0
M  V30 3009 N 286.751 1.08385 -1.14413 0
M  V30 3010 C 287.999 1.80419 -0.910679 0
M  V30 3011 C 288.32 1.86658 0.564243 0
M  V30 3012 O 287.59 1.35985 1.41014 0
M  V30 3013 H 286.17 0.668204 -0.333934 0
M  V30 3014 H 288.832 1.31037 -1.44275 0
M  V30 3015 H 287.928 2.83238 -1.31082 0
M  V30 3016 N 288.23 0.939286 1.26551 0
M  V30 3017 C 289.14 0.453432 2.30176 0
M  V30 3018 C 290.156 -0.471649 1.67486 0
M  V30 3019 O 291.332 -0.35164 1.98306 0
M  V30 3020 C 288.397 -0.275326 3.45605 0
M  V30 3021 C 287.458 0.686084 4.23782 0
M  V30 3022 C 286.691 -0.00798994 5.33699 0
M  V30 3023 O 286.914 -1.22528 5.57085 0
M  V30 3024 O 285.848 0.669746 5.98162 0
M  V30 3025 H 289.674 1.31416 2.73795 0
M  V30 3026 H 287.259 0.705095 1.31715 0
M  V30 3027 H 289.141 -0.685911 4.1578 0
M  V30 3028 H 287.816 -1.11147 3.0402 0
M  V30 3029 H 286.723 1.14658 3.56096 0
M  V30 3030 H 288.056 1.48979 4.69112 0
M  V30 3031 N 289.708 -1.40897 0.706093 0
M  V30 3032 C 290.638 -2.33418 0.0620085 0
M  V30 3033 C 291.619 -1.52385 -0.755827 0
M  V30 3034 O 292.804 -1.80886 -0.706674 0
M  V30 3035 C 289.934 -3.36293 -0.867445 0
M  V30 3036 C 288.888 -4.27716 -0.155932 0
M  V30 3037 C 288.214 -5.2105 -1.20046 0
M  V30 3038 C 289.514 -5.12944 0.984149 0
M  V30 3039 H 291.208 -2.87527 0.83477 0
M  V30 3040 H 288.754 -1.38249 0.402875 0
M  V30 3041 H 290.707 -3.99949 -1.32735 0
M  V30 3042 H 289.431 -2.80556 -1.67199 0
M  V30 3043 H 288.09 -3.65498 0.284047 0
M  V30 3044 H 287.738 -4.61624 -1.99781 0
M  V30 3045 H 287.438 -5.83056 -0.729328 0
M  V30 3046 H 288.962 -5.87584 -1.66066 0
M  V30 3047 H 290.376 -5.70109 0.604048 0
M  V30 3048 H 288.773 -5.83945 1.38304 0
M  V30 3049 H 289.843 -4.49485 1.81911 0
M  V30 3050 N 291.186 -0.45159 -1.50991 0
M  V30 3051 C 292.096 0.358431 -2.31846 0
M  V30 3052 C 293.112 1.01438 -1.41373 0
M  V30 3053 O 294.288 1.00663 -1.74439 0
M  V30 3054 C 291.353 1.43704 -3.15515 0
M  V30 3055 C 290.414 0.799742 -4.21785 0
M  V30 3056 C 289.647 1.82696 -5.01456 0
M  V30 3057 O 289.87 3.05105 -4.81941 0
M  V30 3058 O 288.804 1.40958 -5.85162 0
M  V30 3059 H 292.63 -0.302032 -3.02194 0
M  V30 3060 H 290.215 -0.213825 -1.47862 0
M  V30 3061 H 292.097 2.06227 -3.67489 0
M  V30 3062 H 290.772 2.08133 -2.47916 0
M  V30 3063 H 289.679 0.136084 -3.73852 0
M  V30 3064 H 291.012 0.198718 -4.91799 0
M  V30 3065 N 292.664 1.56529 -0.183458 0
M  V30 3066 C 293.913 1.96419 0.458511 0
M  V30 3067 C 294.226 1.0727 1.63562 0
M  V30 3068 O 295.432 1.36893 2.34462 0
M  V30 3069 C 293.888 3.49298 0.867122 0
M  V30 3070 C 293.496 4.47092 -0.285057 0
M  V30 3071 C 295.24 3.97983 1.47683 0
M  V30 3072 C 293.147 5.91225 0.143862 0
M  V30 3073 H 292.077 0.733394 0.175071 0
M  V30 3074 H 294.728 1.81448 -0.273624 0
M  V30 3075 H 293.11 3.59731 1.65559 0
M  V30 3076 H 294.284 4.48383 -1.0625 0
M  V30 3077 H 292.599 4.08535 -0.805503 0
M  V30 3078 H 295.196 5.03134 1.80999 0
M  V30 3079 H 295.539 3.41618 2.37914 0
M  V30 3080 H 296.072 3.90617 0.752562 0
M  V30 3081 H 292.811 6.5149 -0.723974 0
M  V30 3082 H 292.331 5.93214 0.886413 0
M  V30 3083 H 294.01 6.44362 0.583628 0
M  V30 3084 N 294.142 -0.090211 1.57342 0
M  V30 3085 C 295.37 -0.806224 1.90546 0
M  V30 3086 C 295.785 -1.72041 0.777644 0
M  V30 3087 O 295.142 -1.80778 -0.250103 0
M  V30 3088 C 295.193 -1.61546 3.23396 0
M  V30 3089 O 294.914 -0.738043 4.31839 0
M  V30 3090 C 296.415 -2.4341 3.70495 0
M  V30 3091 H 293.635 -0.230256 0.630257 0
M  V30 3092 H 296.179 -0.0659843 2.04394 0
M  V30 3093 H 294.334 -2.30816 3.11131 0
M  V30 3094 H 294.748 -1.29901 5.08159 0
M  V30 3095 H 296.222 -2.95676 4.66133 0
M  V30 3096 H 296.699 -3.22098 2.98579 0
M  V30 3097 H 297.305 -1.79331 3.85643 0
M  V30 3098 N 295.62 -1.53406 -0.361157 0
M  V30 3099 C 296.897 -1.60411 -1.11927 0
M  V30 3100 C 297.277 -0.414385 -2.06993 0
M  V30 3101 O 296.625 0.594976 -2.20618 0
M  V30 3102 C 296.835 -2.95652 -1.85448 0
M  V30 3103 C 298.183 -3.50386 -2.39823 0
M  V30 3104 O 299.207 -2.97711 -1.95568 0
M  V30 3105 O 298.066 -4.42482 -3.20737 0
M  V30 3106 H 295.16 -0.64811 -0.513695 0
M  V30 3107 H 297.706 -1.65749 -0.364065 0
M  V30 3108 H 296.478 -3.73682 -1.16091 0
M  V30 3109 H 296.101 -2.93825 -2.67866 0
M  V30 3110 N 297.098 0.621204 -1.44841 0
M  V30 3111 C 298.344 1.3826 -1.48365 0
M  V30 3112 C 298.677 1.93831 -0.119624 0
M  V30 3113 O 297.952 1.74251 0.864111 0
M  V30 3114 C 298.235 2.54058 -2.55199 0
M  V30 3115 C 298.088 2.03772 -4.00995 0
M  V30 3116 C 299.407 3.56225 -2.58442 0
M  V30 3117 H 296.526 0.501374 -0.540179 0
M  V30 3118 H 299.168 0.7015 -1.76576 0
M  V30 3119 H 297.318 3.12162 -2.31274 0
M  V30 3120 H 298.99 1.50423 -4.36086 0
M  V30 3121 H 297.233 1.34876 -4.12299 0
M  V30 3122 H 297.904 2.87185 -4.71411 0
M  V30 3123 H 300.38 3.07939 -2.79844 0
M  V30 3124 H 299.256 4.34756 -3.3508 0
M  V30 3125 H 299.517 4.10949 -1.63013 0
M  V30 3126 N 298.576 1.31904 0.862503 0
M  V30 3127 C 299.524 1.20125 1.9918 0
M  V30 3128 C 300.518 0.107824 1.69056 0
M  V30 3129 O 301.724 0.270223 1.7796 0
M  V30 3130 H 298.099 0.372148 0.65346 0
M  V30 3131 H 300.07 2.15652 2.06244 0
M  V30 3132 C 298.819 0.933099 3.34946 0
M  V30 3133 H 298.142 1.76664 3.5865 0
M  V30 3134 H 299.582 0.890892 4.14535 0
M  V30 3135 C 298.041 -0.364172 3.34926 0
M  V30 3136 O 298.571 -1.37858 3.77304 0
M  V30 3137 N 296.777 -0.383362 2.8806 0
M  V30 3138 H 296.324 0.442651 2.53768 0
M  V30 3139 H 296.282 -1.25123 2.8843 0
M  V30 3140 N 300.054 -1.07777 1.14986 0
M  V30 3141 C 301.47 -1.32373 0.891596 0
M  V30 3142 C 301.67 -1.9609 -0.463788 0
M  V30 3143 O 300.726 -2.21801 -1.20667 0
M  V30 3144 C 302.039 -2.21905 2.02925 0
M  V30 3145 C 303.587 -2.35367 2.06329 0
M  V30 3146 C 304.062 -3.28245 3.19405 0
M  V30 3147 N 305.553 -3.35824 3.19024 0
M  V30 3148 C 306.288 -4.07739 4.03158 0
M  V30 3149 N 305.784 -4.82306 4.97346 0
M  V30 3150 N 307.577 -4.03635 3.91197 0
M  V30 3151 H 299.728 -0.648039 2.02273 0
M  V30 3152 H 301.991 -0.348149 0.881757 0
M  V30 3153 H 301.697 -1.82342 3.0074 0
M  V30 3154 H 301.571 -3.22407 1.95789 0
M  V30 3155 H 303.958 -2.74186 1.09116 0
M  V30 3156 H 304.039 -1.34585 2.17533 0
M  V30 3157 H 303.683 -2.90146 4.16867 0
M  V30 3158 H 303.613 -4.28971 3.05437 0
M  V30 3159 H 306.104 -2.8267 2.50811 0
M  V30 3160 H 306.417 -5.34661 5.57994 0
M  V30 3161 H 304.762 -4.81337 5.01338 0
M  V30 3162 H 307.953 -3.44491 3.16928 0
M  V30 3163 H 308.126 -4.59417 4.5699 0
M  V30 3164 N 301.532 -0.945985 -1.26051 0
M  V30 3165 C 302.495 -0.463897 -2.24456 0
M  V30 3166 C 303.495 0.427655 -1.55009 0
M  V30 3167 O 304.685 0.226157 -1.72726 0
M  V30 3168 C 301.817 0.330812 -3.39291 0
M  V30 3169 H 303.01 -1.33357 -2.68619 0
M  V30 3170 H 300.563 -0.728416 -1.38289 0
M  V30 3171 H 301.298 1.21852 -3.00537 0
M  V30 3172 H 301.083 -0.308679 -3.90883 0
M  V30 3173 H 302.573 0.657865 -4.12386 0
M  V30 3174 N 303.011 1.40521 -0.713556 0
M  V30 3175 C 304.241 2.0494 -0.261395 0
M  V30 3176 C 304.649 1.53861 1.10107 0
M  V30 3177 O 303.992 0.689321 1.70276 0
M  V30 3178 C 304.054 3.59138 -0.161227 0
M  V30 3179 C 303.718 4.33096 -1.45865 0
M  V30 3180 C 304.715 4.61182 -2.40016 0
M  V30 3181 C 302.4 4.72043 -1.71701 0
M  V30 3182 C 304.394 5.27196 -3.58251 0
M  V30 3183 C 302.081 5.37789 -2.90218 0
M  V30 3184 C 303.079 5.65295 -3.83315 0
M  V30 3185 O 302.767 6.29683 -4.99754 0
M  V30 3186 H 302.499 0.666041 -0.115608 0
M  V30 3187 H 305.053 1.80954 -0.971849 0
M  V30 3188 H 303.283 3.81936 0.605153 0
M  V30 3189 H 304.972 4.05091 0.256105 0
M  V30 3190 H 305.738 4.31559 -2.21318 0
M  V30 3191 H 301.617 4.50003 -1.00092 0
M  V30 3192 H 305.161 5.48582 -4.30934 0
M  V30 3193 H 301.058 5.66831 -3.08825 0
M  V30 3194 H 301.826 6.4818 -4.99805 0
M  V30 3195 N 304.489 0.459591 1.5075 0
M  V30 3196 C 305.419 -0.330644 2.31147 0
M  V30 3197 C 306.4 -1.00087 1.37538 0
M  V30 3198 O 307.585 -1.00025 1.66459 0
M  V30 3199 C 304.715 -1.41958 3.16962 0
M  V30 3200 C 303.669 -0.871608 4.19031 0
M  V30 3201 C 302.995 -2.05797 4.9351 0
M  V30 3202 C 304.295 0.109251 5.22186 0
M  V30 3203 H 305.989 0.340336 2.97459 0
M  V30 3204 H 303.535 0.165119 1.4305 0
M  V30 3205 H 305.488 -1.9798 3.71997 0
M  V30 3206 H 304.212 -2.11917 2.48513 0
M  V30 3207 H 302.871 -0.333442 3.6508 0
M  V30 3208 H 302.519 -2.74427 4.21544 0
M  V30 3209 H 302.219 -1.6976 5.62544 0
M  V30 3210 H 303.743 -2.62331 5.51375 0
M  V30 3211 H 305.157 -0.361405 5.7216 0
M  V30 3212 H 303.554 0.383316 5.98875 0
M  V30 3213 H 304.624 1.03887 4.73641 0
M  V30 3214 N 305.967 -1.56429 0.191757 0
M  V30 3215 C 306.877 -2.22541 -0.742481 0
M  V30 3216 C 307.893 -1.22342 -1.23727 0
M  V30 3217 O 309.069 -1.55069 -1.28513 0
M  V30 3218 C 306.134 -2.8692 -1.94623 0
M  V30 3219 C 305.195 -4.02378 -1.49633 0
M  V30 3220 C 304.428 -4.63678 -2.6427 0
M  V30 3221 O 304.651 -4.23895 -3.81666 0
M  V30 3222 O 303.585 -5.53202 -2.37174 0
M  V30 3223 H 307.411 -3.02977 -0.209462 0
M  V30 3224 H 304.996 -1.49353 -0.0373832 0
M  V30 3225 H 306.878 -3.27663 -2.64982 0
M  V30 3226 H 305.553 -2.09466 -2.46791 0
M  V30 3227 H 304.46 -3.66265 -0.761636 0
M  V30 3228 H 305.793 -4.81487 -1.02134 0
M  V30 3229 N 307.445 0.0818655 -1.57387 0
M  V30 3230 C 308.861 0.436412 -1.53517 0
M  V30 3231 C 309.061 1.79758 -0.910459 0
M  V30 3232 O 308.117 2.47324 -0.508636 0
M  V30 3233 C 309.43 0.386734 -2.98203 0
M  V30 3234 C 310.978 0.467644 -3.09487 0
M  V30 3235 C 311.453 0.447978 -4.55804 0
M  V30 3236 N 312.944 0.508348 -4.60402 0
M  V30 3237 C 313.679 0.515184 -5.71081 0
M  V30 3238 N 313.175 0.477435 -6.91153 0
M  V30 3239 N 314.968 0.560988 -5.59294 0
M  V30 3240 H 307.119 -0.809546 -1.96367 0
M  V30 3241 H 309.382 -0.302733 -0.898363 0
M  V30 3242 H 309.088 -0.546539 -3.47427 0
M  V30 3243 H 308.962 1.20075 -3.57578 0
M  V30 3244 H 311.349 1.39134 -2.60242 0
M  V30 3245 H 311.43 -0.374753 -2.5304 0
M  V30 3246 H 311.074 -0.471826 -5.05704 0
M  V30 3247 H 311.004 1.30777 -5.10103 0
M  V30 3248 H 313.495 0.54218 -3.7399 0
M  V30 3249 H 313.808 0.486299 -7.71268 0
M  V30 3250 H 312.153 0.444278 -6.93579 0
M  V30 3251 H 315.344 0.5881 -4.64391 0
M  V30 3252 H 315.517 0.562846 -6.45551 0
M  V30 3253 N 308.923 1.53595 0.353017 0
M  V30 3254 C 310.171 1.70049 1.09215 0
M  V30 3255 C 310.492 0.461406 1.89463 0
M  V30 3256 O 309.762 -0.524633 1.88744 0
M  V30 3257 H 308.342 0.626912 0.40619 0
M  V30 3258 H 311.004 1.90822 0.396585 0
M  V30 3259 H 310.1 2.56718 1.77488 0
M  V30 3260 N 310.401 -0.613514 1.45168 0
M  V30 3261 C 311.333 -1.73825 1.4939 0
M  V30 3262 C 312.346 -1.58175 0.385304 0
M  V30 3263 O 313.535 -1.66165 0.652036 0
M  V30 3264 C 310.635 -3.11758 1.32891 0
M  V30 3265 C 309.808 -3.53704 2.57317 0
M  V30 3266 C 308.867 -4.70579 2.35462 0
M  V30 3267 O 307.893 -4.77996 3.09044 0
M  V30 3268 N 309.095 -5.63454 1.39644 0
M  V30 3269 H 311.86 -1.70669 2.46358 0
M  V30 3270 H 309.421 -0.79862 1.40832 0
M  V30 3271 H 311.413 -3.87692 1.1609 0
M  V30 3272 H 309.983 -3.09456 0.442218 0
M  V30 3273 H 309.203 -2.67794 2.89275 0
M  V30 3274 H 310.491 -3.78486 3.40038 0
M  V30 3275 H 309.889 -5.6017 0.789062 0
M  V30 3276 H 308.446 -6.38944 1.28816 0
M  V30 3277 N 311.879 -1.3236 -0.855495 0
M  V30 3278 C 312.809 -1.23833 -1.97958 0
M  V30 3279 C 313.79 -0.122361 -1.69659 0
M  V30 3280 O 314.975 -0.30939 -1.9172 0
M  V30 3281 C 312.105 -0.959772 -3.33775 0
M  V30 3282 C 311.059 -2.03689 -3.76424 0
M  V30 3283 C 310.385 -1.61075 -5.09862 0
M  V30 3284 C 311.685 -3.4518 -3.9198 0
M  V30 3285 H 313.379 -2.1788 -2.0535 0
M  V30 3286 H 310.925 -1.04891 -0.986605 0
M  V30 3287 H 312.878 -0.886678 -4.11966 0
M  V30 3288 H 311.602 0.0163404 -3.26596 0
M  V30 3289 H 310.261 -2.10012 -3.00484 0
M  V30 3290 H 309.909 -0.622107 -4.99138 0
M  V30 3291 H 309.609 -2.33143 -5.39368 0
M  V30 3292 H 311.133 -1.55201 -5.90546 0
M  V30 3293 H 312.547 -3.4145 -4.60526 0
M  V30 3294 H 310.944 -4.1559 -4.32903 0
M  V30 3295 H 312.014 -3.84903 -2.94919 0
M  V30 3296 N 313.357 1.07166 -1.15556 0
M  V30 3297 C 314.582 1.84053 -0.955988 0
M  V30 3298 C 315.007 1.81586 0.490739 0
M  V30 3299 O 314.365 1.21018 1.34997 0
M  V30 3300 C 314.413 3.28957 -1.47714 0
M  V30 3301 O 313.517 4.06795 -0.677593 0
M  V30 3302 H 312.858 0.569842 -0.340847 0
M  V30 3303 H 315.388 1.35178 -1.53584 0
M  V30 3304 H 315.398 3.79788 -1.4908 0
M  V30 3305 H 314.073 3.30068 -2.53037 0
M  V30 3306 H 312.65 3.6561 -0.733721 0
M  V30 3307 N 314.835 0.952656 1.25548 0
M  V30 3308 C 316.081 0.607272 1.93494 0
M  V30 3309 C 316.414 -0.853245 1.74452 0
M  V30 3310 O 315.689 -1.61194 1.08843 0
M  V30 3311 C 315.972 0.96435 3.46947 0
M  V30 3312 C 315.825 2.48045 3.75225 0
M  V30 3313 C 317.144 0.487987 4.37386 0
M  V30 3314 H 314.263 0.222096 0.702739 0
M  V30 3315 H 316.905 1.18895 1.48203 0
M  V30 3316 H 315.055 0.469361 3.85654 0
M  V30 3317 H 316.727 3.04905 3.46166 0
M  V30 3318 H 314.97 2.919 3.209 0
M  V30 3319 H 315.641 2.6808 4.82532 0
M  V30 3320 H 318.117 0.912558 4.0597 0
M  V30 3321 H 316.993 0.766547 5.43521 0
M  V30 3322 H 317.254 -0.612063 4.37843 0
M  V30 3323 N 316.313 -1.40141 0.720998 0
M  V30 3324 C 317.223 -2.34486 0.0731031 0
M  V30 3325 C 318.239 -1.57587 -0.737723 0
M  V30 3326 O 319.415 -1.89949 -0.669429 0
M  V30 3327 C 316.48 -3.36528 -0.833656 0
M  V30 3328 C 315.541 -4.29298 -0.0121673 0
M  V30 3329 C 314.774 -5.26466 -0.875742 0
M  V30 3330 O 314.997 -5.29745 -2.11485 0
M  V30 3331 O 313.931 -6.01092 -0.31185 0
M  V30 3332 H 317.757 -2.9152 0.851444 0
M  V30 3333 H 315.342 -1.41427 0.481527 0
M  V30 3334 H 317.224 -3.99093 -1.35289 0
M  V30 3335 H 315.899 -2.81899 -1.59105 0
M  V30 3336 H 314.806 -3.70001 0.552262 0
M  V30 3337 H 316.139 -4.87094 0.707129 0
M  V30 3338 N 317.792 -0.46758 -1.50504 0
M  V30 3339 C 319.041 0.0902868 -2.01498 0
M  V30 3340 C 319.354 1.411 -1.35463 0
M  V30 3341 O 320.56 2.0536 -1.77594 0
M  V30 3342 C 319.016 0.21142 -3.59278 0
M  V30 3343 C 318.624 -1.10065 -4.34269 0
M  V30 3344 C 320.368 0.721433 -4.18325 0
M  V30 3345 C 318.275 -0.943505 -5.83825 0
M  V30 3346 H 317.205 0.037517 -0.753066 0
M  V30 3347 H 319.856 -0.601943 -1.73346 0
M  V30 3348 H 318.238 0.967352 -3.84003 0
M  V30 3349 H 319.412 -1.86726 -4.21272 0
M  V30 3350 H 317.727 -1.5415 -3.86816 0
M  V30 3351 H 320.324 0.85598 -5.27804 0
M  V30 3352 H 320.667 1.71186 -3.79475 0
M  V30 3353 H 321.2 0.0229843 -3.97793 0
M  V30 3354 H 317.939 -1.90719 -6.27141 0
M  V30 3355 H 317.459 -0.217213 -5.99407 0
M  V30 3356 H 319.138 -0.608715 -6.4413 0
M  V30 3357 N 319.27 1.56325 -0.20005 0
M  V30 3358 C 320.203 2.15234 0.758267 0
M  V30 3359 C 321.181 1.09046 1.20614 0
M  V30 3360 O 322.365 1.37186 1.29276 0
M  V30 3361 C 319.492 2.71524 2.02466 0
M  V30 3362 C 318.538 3.90345 1.71852 0
M  V30 3363 S 319.371 5.28513 0.862249 0
M  V30 3364 C 320.527 5.88227 2.13868 0
M  V30 3365 H 320.76 2.96183 0.2575 0
M  V30 3366 H 318.293 1.54393 0.0150099 0
M  V30 3367 H 320.251 3.04598 2.75191 0
M  V30 3368 H 318.912 1.90607 2.49655 0
M  V30 3369 H 318.105 4.28158 2.65888 0
M  V30 3370 H 317.707 3.58306 1.07205 0
M  V30 3371 H 319.999 6.02891 3.09076 0
M  V30 3372 H 320.942 6.84714 1.80479 0
M  V30 3373 H 321.35 5.16874 2.2694 0
M  V30 3374 N 320.748 -0.0735177 1.57428 0
M  V30 3375 C 321.996 -0.771472 1.86796 0
M  V30 3376 C 322.317 -1.78201 0.791804 0
M  V30 3377 O 321.587 -1.95074 -0.179718 0
M  V30 3378 H 320.167 -0.28791 0.689287 0
M  V30 3379 H 322.829 -0.0500161 1.94836 0
M  V30 3380 H 321.925 -1.28874 2.8425 0
M  V30 3381 N 322.226 -1.5378 -0.344866 0
M  V30 3382 C 323.642 -1.44015 -0.687888 0
M  V30 3383 C 323.842 -0.595834 -1.92489 0
M  V30 3384 O 322.898 -0.0863064 -2.52352 0
M  V30 3385 C 324.211 -2.87481 -0.881758 0
M  V30 3386 C 325.759 -2.97247 -0.980459 0
M  V30 3387 C 326.234 -4.41819 -1.20665 0
M  V30 3388 N 327.725 -4.45339 -1.27389 0
M  V30 3389 C 328.46 -5.54333 -1.46639 0
M  V30 3390 N 327.956 -6.73335 -1.63071 0
M  V30 3391 N 329.749 -5.41944 -1.49176 0
M  V30 3392 H 321.9 -2.07169 0.468475 0
M  V30 3393 H 324.163 -0.93643 0.147655 0
M  V30 3394 H 323.869 -3.51672 -0.0443444 0
M  V30 3395 H 323.743 -3.32352 -1.78388 0
M  V30 3396 H 326.13 -2.33197 -1.8084 0
M  V30 3397 H 326.211 -2.5574 -0.0552713 0
M  V30 3398 H 325.855 -5.06449 -0.383652 0
M  V30 3399 H 325.785 -4.80917 -2.14539 0
M  V30 3400 H 328.276 -3.59585 -1.1622 0
M  V30 3401 H 328.589 -7.52165 -1.77391 0
M  V30 3402 H 326.934 -6.76282 -1.60209 0
M  V30 3403 H 330.125 -4.47932 -1.3592 0
M  V30 3404 H 330.298 -6.26946 -1.63837 0
M  V30 3405 N 323.704 0.605807 -1.45491 0
M  V30 3406 C 324.952 1.36207 -1.49305 0
M  V30 3407 C 325.273 1.94519 -0.136863 0
M  V30 3408 O 324.543 1.77261 0.833983 0
M  V30 3409 H 323.123 0.50565 -0.549843 0
M  V30 3410 H 325.785 0.711239 -1.81459 0
M  V30 3411 H 324.881 2.18058 -2.23287 0
M  V30 3412 N 325.182 1.32811 0.848464 0
M  V30 3413 C 326.412 1.26556 1.63301 0
M  V30 3414 C 326.82 -0.1676 1.88456 0
M  V30 3415 O 326.163 -1.11713 1.45828 0
M  V30 3416 C 326.225 1.96202 3.01239 0
M  V30 3417 C 325.889 3.45528 2.99098 0
M  V30 3418 C 326.886 4.40903 2.75501 0
M  V30 3419 C 324.571 3.87558 3.19537 0
M  V30 3420 C 326.565 5.76282 2.72356 0
M  V30 3421 C 324.252 5.23044 3.16019 0
M  V30 3422 C 325.25 6.17217 2.92458 0
M  V30 3423 O 324.938 7.50223 2.88825 0
M  V30 3424 H 324.67 0.43771 0.515156 0
M  V30 3425 H 327.224 1.7559 1.0657 0
M  V30 3426 H 325.454 1.41746 3.59785 0
M  V30 3427 H 327.143 1.83573 3.62016 0
M  V30 3428 H 327.909 4.09756 2.5947 0
M  V30 3429 H 323.788 3.14674 3.369 0
M  V30 3430 H 327.332 6.4976 2.53886 0
M  V30 3431 H 323.229 5.53818 3.31596 0
M  V30 3432 H 323.997 7.59657 3.04735 0
M  V30 3433 N 326.66 -1.06551 1.16123 0
M  V30 3434 C 327.623 -2.12132 0.867906 0
M  V30 3435 C 328.623 -1.60224 -0.135944 0
M  V30 3436 O 329.813 -1.73943 0.0946422 0
M  V30 3437 C 326.945 -3.396 0.297419 0
M  V30 3438 H 328.138 -2.39586 1.80385 0
M  V30 3439 H 325.691 -1.22574 0.969812 0
M  V30 3440 H 326.426 -3.17794 -0.64633 0
M  V30 3441 H 326.211 -3.78581 1.02073 0
M  V30 3442 H 327.701 -4.17455 0.110052 0
M  V30 3443 N 328.138 -0.959301 -1.25041 0
M  V30 3444 C 329.384 -0.627096 -1.93492 0
M  V30 3445 C 329.739 0.827484 -1.73696 0
M  V30 3446 O 329.032 1.58651 -1.07427 0
M  V30 3447 C 329.226 -0.927136 -3.45165 0
M  V30 3448 C 329.055 -2.40933 -3.79712 0
M  V30 3449 C 327.825 -3.0677 -4.01522 0
M  V30 3450 C 330.023 -3.38894 -3.86853 0
M  V30 3451 N 328.005 -4.44815 -4.231 0
M  V30 3452 C 329.376 -4.62263 -4.13174 0
M  V30 3453 C 331.431 -3.33668 -3.69554 0
M  V30 3454 C 330.134 -5.81052 -4.23995 0
M  V30 3455 C 332.16 -4.518 -3.81616 0
M  V30 3456 C 331.522 -5.73957 -4.08354 0
M  V30 3457 H 327.621 -0.280166 -0.73009 0
M  V30 3458 H 330.205 -1.23244 -1.50729 0
M  V30 3459 H 328.376 -0.350685 -3.86814 0
M  V30 3460 H 330.108 -0.554361 -4.00885 0
M  V30 3461 H 326.863 -2.57327 -3.97593 0
M  V30 3462 H 327.287 -5.16319 -4.37885 0
M  V30 3463 H 331.929 -2.40268 -3.47895 0
M  V30 3464 H 329.647 -6.74888 -4.44468 0
M  V30 3465 H 333.233 -4.49309 -3.69612 0
M  V30 3466 H 332.113 -6.6384 -4.17475 0
M  V30 3467 N 329.616 1.39756 -0.72842 0
M  V30 3468 C 330.546 2.33289 -0.0991354 0
M  V30 3469 C 331.527 1.53568 0.731489 0
M  V30 3470 O 332.712 1.81987 0.677807 0
M  V30 3471 C 329.842 3.3763 0.813834 0
M  V30 3472 C 328.796 4.2791 0.0878663 0
M  V30 3473 C 328.122 5.22894 1.11741 0
M  V30 3474 C 329.422 5.11314 -1.06563 0
M  V30 3475 H 331.116 2.86163 -0.880408 0
M  V30 3476 H 328.662 1.37591 -0.424819 0
M  V30 3477 H 330.615 4.0201 1.26355 0
M  V30 3478 H 329.339 2.83181 1.62715 0
M  V30 3479 H 327.998 3.65 -0.342159 0
M  V30 3480 H 327.646 4.64744 1.92412 0
M  V30 3481 H 327.346 5.84143 0.636477 0
M  V30 3482 H 328.87 5.90151 1.56697 0
M  V30 3483 H 330.284 5.69076 -0.694671 0
M  V30 3484 H 328.681 5.81671 -1.47577 0
M  V30 3485 H 329.751 4.46534 -1.89038 0
M  V30 3486 N 331.094 0.475555 1.50254 0
M  V30 3487 C 332.371 -0.139685 1.95101 0
M  V30 3488 C 332.751 -1.56555 1.41611 0
M  V30 3489 O 332.099 -2.19956 0.618993 0
M  V30 3490 C 332.309 -0.0784298 3.48912 0
M  V30 3491 C 333.657 -0.265095 4.23772 0
M  V30 3492 O 334.681 -0.154808 3.55863 0
M  V30 3493 O 333.54 -0.488327 5.44314 0
M  V30 3494 H 330.634 -0.109236 0.819754 0
M  V30 3495 H 333.18 0.536276 1.61004 0
M  V30 3496 H 331.952 0.916918 3.80405 0
M  V30 3497 H 331.575 -0.795655 3.89558 0
M  V30 3498 N 332.573 -1.56217 0.208337 0
M  V30 3499 C 333.801 -2.02337 -0.43215 0
M  V30 3500 C 334.216 -1.08834 -1.54275 0
M  V30 3501 O 333.573 -0.0955462 -1.8225 0
M  V30 3502 C 333.624 -3.48072 -0.976138 0
M  V30 3503 O 333.345 -4.38007 0.0901621 0
M  V30 3504 C 334.846 -4.09773 -1.69119 0
M  V30 3505 H 332.066 -0.662385 -0.10718 0
M  V30 3506 H 334.61 -2.01966 0.320923 0
M  V30 3507 H 332.765 -3.49099 -1.67954 0
M  V30 3508 H 333.179 -5.23543 -0.316701 0
M  V30 3509 H 334.653 -5.13556 -2.02397 0
M  V30 3510 H 335.13 -3.53999 -2.59964 0
M  V30 3511 H 335.736 -4.12556 -1.03332 0
M  V30 3512 N 334.051 0.0651679 -1.57465 0
M  V30 3513 C 335.299 0.761555 -1.87202 0
M  V30 3514 C 335.62 1.77778 -0.801243 0
M  V30 3515 O 334.89 1.95166 0.16937 0
M  V30 3516 H 333.47 0.284251 -0.690804 0
M  V30 3517 H 336.132 0.0396827 -1.9486 0
M  V30 3518 H 335.228 1.27365 -2.84929 0
M  V30 3519 N 335.529 1.53961 0.336706 0
M  V30 3520 C 336.757 1.75483 1.09605 0
M  V30 3521 C 337.172 0.4972 1.82136 0
M  V30 3522 O 336.529 -0.53149 1.74589 0
M  V30 3523 C 336.58 2.93943 2.10428 0
M  V30 3524 O 336.301 4.14842 1.40846 0
M  V30 3525 C 337.802 3.27571 2.98684 0
M  V30 3526 H 335.022 0.586166 0.326574 0
M  V30 3527 H 337.566 2.00808 0.38683 0
M  V30 3528 H 335.721 2.70929 2.76905 0
M  V30 3529 H 336.135 4.81383 2.08255 0
M  V30 3530 H 337.609 4.13791 3.6535 0
M  V30 3531 H 338.086 2.44168 3.65074 0
M  V30 3532 H 338.692 3.52615 2.37787 0
M  V30 3533 N 337.007 -0.598083 1.45811 0
M  V30 3534 C 337.957 -1.70272 1.51629 0
M  V30 3535 C 338.941 -1.56382 0.378629 0
M  V30 3536 O 340.133 -1.65557 0.626087 0
M  V30 3537 C 337.262 -3.09042 1.49493 0
M  V30 3538 C 336.348 -3.28284 2.68496 0
M  V30 3539 N 336.739 -3.17748 3.93535 0
M  V30 3540 C 335.037 -3.59182 2.64394 0
M  V30 3541 C 335.738 -3.38579 4.7301 0
M  V30 3542 N 334.714 -3.63016 4.04624 0
M  V30 3543 H 338.516 -1.60634 2.46118 0
M  V30 3544 H 336.03 -0.801642 1.41235 0
M  V30 3545 H 338.027 -3.88302 1.51747 0
M  V30 3546 H 336.687 -3.19823 0.560683 0
M  V30 3547 H 337.698 -2.95944 4.25014 0
M  V30 3548 H 334.375 -3.76742 1.79922 0
M  V30 3549 H 335.765 -3.35747 5.82 0
M  V30 3550 N 338.485 -1.33259 -0.841409 0
M  V30 3551 C 339.762 -1.15174 -1.58096 0
M  V30 3552 C 340.142 0.282858 -2.09196 0
M  V30 3553 O 339.49 1.28151 -1.89181 0
M  V30 3554 C 339.7 -2.1907 -2.71679 0
M  V30 3555 C 341.048 -2.53093 -3.40924 0
M  V30 3556 O 342.072 -2.17717 -2.81918 0
M  V30 3557 O 340.931 -3.1379 -4.47435 0
M  V30 3558 H 338.025 -0.445303 -0.696875 0
M  V30 3559 H 340.571 -1.44833 -0.884385 0
M  V30 3560 H 339.343 -3.15443 -2.31541 0
M  V30 3561 H 338.966 -1.90481 -3.49002 0
M  V30 3562 N 339.963 1.05934 -1.16686 0
M  V30 3563 C 341.188 1.83029 -0.975455 0
M  V30 3564 C 341.613 1.82096 0.471452 0
M  V30 3565 O 340.971 1.22443 1.33706 0
M  V30 3566 C 341.019 3.27372 -1.51195 0
M  V30 3567 O 340.123 4.06054 -0.720701 0
M  V30 3568 H 339.464 0.566194 -0.346872 0
M  V30 3569 H 341.994 1.33541 -1.55009 0
M  V30 3570 H 342.004 3.78186 -1.53099 0
M  V30 3571 H 340.679 3.27366 -2.56523 0
M  V30 3572 H 339.256 3.64812 -0.772458 0
M  V30 3573 N 341.441 0.965919 1.2453 0
M  V30 3574 C 342.371 0.513476 2.27784 0
M  V30 3575 C 343.352 -0.445974 1.6415 0
M  V30 3576 O 344.537 -0.342485 1.91156 0
M  V30 3577 C 341.667 -0.198839 3.4673 0
M  V30 3578 C 340.621 0.676456 4.2262 0
M  V30 3579 C 339.947 -0.167248 5.34438 0
M  V30 3580 C 341.247 1.96017 4.84123 0
M  V30 3581 H 342.941 1.3765 2.65881 0
M  V30 3582 H 340.487 0.663321 1.27813 0
M  V30 3583 H 342.44 -0.526567 4.18097 0
M  V30 3584 H 341.164 -1.0962 3.07654 0
M  V30 3585 H 339.823 0.98743 3.53052 0
M  V30 3586 H 339.471 -1.0647 4.91603 0
M  V30 3587 H 339.171 0.415181 5.86131 0
M  V30 3588 H 340.695 -0.489688 6.08633 0
M  V30 3589 H 342.109 1.69814 5.47573 0
M  V30 3590 H 340.506 2.48918 5.4604 0
M  V30 3591 H 341.576 2.65622 4.05676 0
M  V30 3592 N 342.919 -1.39368 0.735821 0
M  V30 3593 C 343.849 -2.33234 0.111506 0
M  V30 3594 C 344.83 -1.53954 -0.723334 0
M  V30 3595 O 346.015 -1.82344 -0.668147 0
M  V30 3596 C 343.145 -3.38057 -0.795917 0
M  V30 3597 C 342.099 -4.2795 -0.065172 0
M  V30 3598 C 341.425 -5.23479 -1.08967 0
M  V30 3599 C 342.725 -5.10741 1.09273 0
M  V30 3600 H 344.419 -2.85692 0.895571 0
M  V30 3601 H 341.965 -1.37364 0.432109 0
M  V30 3602 H 343.918 -4.02675 -1.24221 0
M  V30 3603 H 342.642 -2.8404 -1.61211 0
M  V30 3604 H 341.301 -3.64813 0.361511 0
M  V30 3605 H 340.949 -4.65758 -1.89944 0
M  V30 3606 H 340.649 -5.84472 -0.605489 0
M  V30 3607 H 342.173 -5.90974 -1.53565 0
M  V30 3608 H 343.587 -5.68699 0.724841 0
M  V30 3609 H 341.984 -5.8088 1.50659 0
M  V30 3610 H 343.054 -4.45525 1.91404 0
M  V30 3611 N 344.397 -0.483516 -1.5 0
M  V30 3612 C 345.307 0.309172 -2.32554 0
M  V30 3613 C 346.323 0.984159 -1.43493 0
M  V30 3614 O 347.499 0.969399 -1.76535 0
M  V30 3615 C 344.564 1.36979 -3.18493 0
M  V30 3616 C 343.625 0.710095 -4.23387 0
M  V30 3617 C 342.858 1.72018 -5.05218 0
M  V30 3618 O 343.081 2.94813 -4.88305 0
M  V30 3619 O 342.015 1.28515 -5.8802 0
M  V30 3620 H 345.841 -0.366064 -3.01486 0
M  V30 3621 H 343.426 -0.24514 -1.47375 0
M  V30 3622 H 345.308 1.98385 -3.71781 0
M  V30 3623 H 343.983 2.02828 -2.52275 0
M  V30 3624 H 342.89 0.0567539 -3.74057 0
M  V30 3625 H 344.223 0.0943557 -4.9211 0
M  V30 3626 N 345.875 1.56104 -0.216619 0
M  V30 3627 C 346.838 2.18819 0.681962 0
M  V30 3628 C 347.838 1.14866 1.12528 0
M  V30 3629 O 349.028 1.40128 1.03488 0
M  V30 3630 C 346.16 2.80756 1.93362 0
M  V30 3631 H 347.353 2.99595 0.135254 0
M  V30 3632 H 344.906 1.56265 0.0330003 0
M  V30 3633 H 345.641 2.03837 2.52232 0
M  V30 3634 H 345.426 3.56876 1.62426 0
M  V30 3635 H 346.916 3.28844 2.57393 0
M  V30 3636 N 347.353 -0.0568162 1.57498 0
M  V30 3637 C 348.601 -0.751617 1.87604 0
M  V30 3638 C 348.922 -1.77351 0.81066 0
M  V30 3639 O 348.192 -1.95254 -0.159018 0
M  V30 3640 H 346.772 -0.280583 0.692302 0
M  V30 3641 H 349.434 -0.0293483 1.94878 0
M  V30 3642 H 348.53 -1.25852 2.856 0
M  V30 3643 N 348.832 -1.54138 -0.328536 0
M  V30 3644 C 349.764 -1.79509 -1.4251 0
M  V30 3645 C 350.777 -0.67688 -1.48061 0
M  V30 3646 O 351.966 -0.953898 -1.50874 0
M  V30 3647 C 349.066 -1.89337 -2.81078 0
M  V30 3648 C 348.239 -3.19443 -2.98789 0
M  V30 3649 C 347.298 -3.20036 -4.17688 0
M  V30 3650 O 346.324 -3.93697 -4.11086 0
M  V30 3651 N 347.526 -2.43467 -5.26976 0
M  V30 3652 H 350.291 -2.74139 -1.21111 0
M  V30 3653 H 347.852 -1.53373 -0.518499 0
M  V30 3654 H 349.844 -1.87167 -3.58818 0
M  V30 3655 H 348.414 -1.01826 -2.95551 0
M  V30 3656 H 347.634 -3.34614 -2.08391 0
M  V30 3657 H 348.922 -4.05354 -3.07515 0
M  V30 3658 H 348.32 -1.83201 -5.35214 0
M  V30 3659 H 346.877 -2.4708 -6.03154 0
M  V30 3660 N 350.31 0.590341 -1.46126 0
M  V30 3661 C 351.557 1.34882 -1.5104 0
M  V30 3662 C 351.885 1.93849 -0.159021 0
M  V30 3663 O 351.14 1.76544 0.844436 0
M  V30 3664 C 351.439 2.5032 -2.55097 0
M  V30 3665 C 351.105 2.09394 -3.99331 0
M  V30 3666 C 349.767 1.97947 -4.38601 0
M  V30 3667 C 352.119 1.77712 -4.89967 0
M  V30 3668 C 349.447 1.53065 -5.66381 0
M  V30 3669 C 351.799 1.34312 -6.18177 0
M  V30 3670 C 350.463 1.21436 -6.56361 0
M  V30 3671 H 349.733 0.493568 -0.552695 0
M  V30 3672 H 352.38 0.665539 -1.79563 0
M  V30 3673 H 350.685 3.24062 -2.20207 0
M  V30 3674 H 352.382 3.08541 -2.56132 0
M  V30 3675 H 348.972 2.19235 -3.68285 0
M  V30 3676 H 353.156 1.85445 -4.60352 0
M  V30 3677 H 348.412 1.41733 -5.94745 0
M  V30 3678 H 352.586 1.08849 -6.87841 0
M  V30 3679 H 350.213 0.864345 -7.5527 0
M  V30 3680 N 351.788 1.33704 0.83433 0
M  V30 3681 C 353.037 1.24763 1.58484 0
M  V30 3682 C 353.35 -0.183775 1.94735 0
M  V30 3683 O 354.556 -0.395234 2.68608 0
M  V30 3684 C 353.012 2.18638 2.85876 0
M  V30 3685 C 352.62 3.66974 2.56971 0
M  V30 3686 C 354.364 2.18581 3.63899 0
M  V30 3687 C 352.271 4.5275 3.80488 0
M  V30 3688 H 351.201 0.463425 0.594772 0
M  V30 3689 H 353.852 1.58797 0.919551 0
M  V30 3690 H 352.234 1.77542 3.5397 0
M  V30 3691 H 353.408 4.16538 1.9706 0
M  V30 3692 H 351.723 3.69366 1.92244 0
M  V30 3693 H 354.32 2.79894 4.55591 0
M  V30 3694 H 354.663 1.18207 3.99165 0
M  V30 3695 H 355.196 2.58062 3.02735 0
M  V30 3696 H 351.935 5.54017 3.5035 0
M  V30 3697 H 351.455 4.07927 4.39722 0
M  V30 3698 H 353.134 4.66784 4.4802 0
M  V30 3699 N 353.266 -1.05314 1.17247 0
M  V30 3700 C 354.229 -2.112 0.890357 0
M  V30 3701 C 355.229 -1.60359 -0.118943 0
M  V30 3702 O 356.419 -1.73833 0.113086 0
M  V30 3703 C 353.551 -3.39266 0.333422 0
M  V30 3704 H 354.744 -2.37659 1.82916 0
M  V30 3705 H 352.297 -1.21538 0.982758 0
M  V30 3706 H 353.032 -3.18462 -0.612587 0
M  V30 3707 H 352.817 -3.77477 1.06082 0
M  V30 3708 H 354.307 -4.17315 0.154322 0
M  V30 3709 N 354.744 -0.972509 -1.24016 0
M  V30 3710 C 355.972 -0.654803 -1.96265 0
M  V30 3711 C 356.387 0.776708 -1.72083 0
M  V30 3712 O 355.744 1.52171 -1.00748 0
M  V30 3713 C 355.795 -0.92592 -3.49441 0
M  V30 3714 O 355.516 -2.30116 -3.72798 0
M  V30 3715 C 357.017 -0.623068 -4.38899 0
M  V30 3716 H 354.237 -0.243907 -0.6251 0
M  V30 3717 H 356.781 -1.30175 -1.57717 0
M  V30 3718 H 354.936 -0.325108 -3.86033 0
M  V30 3719 H 355.35 -2.38483 -4.67147 0
M  V30 3720 H 356.824 -0.863189 -5.45209 0
M  V30 3721 H 357.301 0.442754 -4.36963 0
M  V30 3722 H 357.907 -1.204 -4.07902 0
M  V30 3723 N 356.222 1.38976 -0.743202 0
M  V30 3724 C 357.152 2.33171 -0.123873 0
M  V30 3725 C 358.133 1.54336 0.71516 0
M  V30 3726 O 359.318 1.82696 0.658467 0
M  V30 3727 C 356.448 3.38474 0.777978 0
M  V30 3728 C 355.402 4.27979 0.0424758 0
M  V30 3729 C 354.728 5.2405 1.06189 0
M  V30 3730 C 356.028 5.10155 -1.1198 0
M  V30 3731 H 357.722 2.85213 -0.910709 0
M  V30 3732 H 355.268 1.37133 -0.439388 0
M  V30 3733 H 357.221 4.03328 1.22084 0
M  V30 3734 H 355.945 2.84891 1.59702 0
M  V30 3735 H 354.604 3.64616 -0.380853 0
M  V30 3736 H 354.252 4.66758 1.87472 0
M  V30 3737 H 353.952 5.84785 0.574485 0
M  V30 3738 H 355.476 5.9178 1.50428 0
M  V30 3739 H 356.89 5.68307 -0.75499 0
M  V30 3740 H 355.287 5.80073 -1.53738 0
M  V30 3741 H 356.357 4.44504 -1.93764 0
M  V30 3742 N 357.7 0.491464 1.49741 0
M  V30 3743 C 358.61 -0.296835 2.32715 0
M  V30 3744 C 359.626 -0.976536 1.44013 0
M  V30 3745 O 360.802 -0.960023 1.77047 0
M  V30 3746 C 357.867 -1.35288 3.19215 0
M  V30 3747 C 356.928 -0.687632 4.23757 0
M  V30 3748 C 356.161 -1.69336 5.06123 0
M  V30 3749 O 356.384 -2.92219 4.89861 0
M  V30 3750 O 355.318 -1.25394 5.88693 0
M  V30 3751 H 359.144 0.382048 3.01287 0
M  V30 3752 H 356.729 0.252953 1.47243 0
M  V30 3753 H 358.611 -1.96411 3.72828 0
M  V30 3754 H 357.286 -2.01487 2.53347 0
M  V30 3755 H 356.193 -0.0369159 3.74082 0
M  V30 3756 H 357.526 -0.0682566 4.92153 0
M  V30 3757 N 359.178 -1.55987 0.224894 0
M  V30 3758 C 360.126 -2.21808 -0.700283 0
M  V30 3759 C 361.12 -1.19854 -1.19714 0
M  V30 3760 O 362.326 -1.37925 -1.15658 0
M  V30 3761 H 358.701 -0.711226 -0.244258 0
M  V30 3762 H 360.672 -2.98152 -0.121749 0
M  V30 3763 C 359.421 -2.91444 -1.8962 0
M  V30 3764 H 358.744 -3.69655 -1.52299 0
M  V30 3765 H 360.184 -3.40894 -2.52125 0
M  V30 3766 C 358.643 -1.94098 -2.75368 0
M  V30 3767 O 359.173 -1.46004 -3.74227 0
M  V30 3768 N 357.379 -1.61675 -2.41474 0
M  V30 3769 H 356.926 -2.00979 -1.61137 0
M  V30 3770 H 356.884 -0.968036 -2.99126 0
M  V30 3771 N 360.656 0.0484629 -1.57525 0
M  V30 3772 C 362.072 0.40375 -1.54409 0
M  V30 3773 C 362.272 1.77786 -0.948384 0
M  V30 3774 O 361.328 2.46189 -0.560983 0
M  V30 3775 C 362.641 0.323394 -2.98956 0
M  V30 3776 C 364.189 0.401892 -3.10409 0
M  V30 3777 C 364.664 0.351195 -4.56652 0
M  V30 3778 N 366.155 0.410576 -4.61377 0
M  V30 3779 C 366.89 0.393933 -5.72045 0
M  V30 3780 N 366.386 0.330724 -6.9201 0
M  V30 3781 N 368.179 0.442227 -5.60358 0
M  V30 3782 H 360.33 -0.851016 -1.94606 0
M  V30 3783 H 362.593 -0.321721 -0.89174 0
M  V30 3784 H 362.299 -0.62011 -3.4619 0
M  V30 3785 H 362.173 1.12463 -3.60044 0
M  V30 3786 H 364.56 1.33582 -2.63134 0
M  V30 3787 H 364.641 -0.428342 -2.52188 0
M  V30 3788 H 364.285 -0.578987 -5.04589 0
M  V30 3789 H 364.215 1.19928 -5.12762 0
M  V30 3790 H 366.706 0.462729 -3.75056 0
M  V30 3791 H 367.019 0.322592 -7.72126 0
M  V30 3792 H 365.364 0.29706 -6.94365 0
M  V30 3793 H 368.555 0.489464 -4.65534 0
M  V30 3794 H 368.728 0.425788 -6.466 0
M  V30 3795 N 362.134 1.5431 0.320358 0
M  V30 3796 C 363.066 1.80262 1.41556 0
M  V30 3797 C 364.079 0.684723 1.477 0
M  V30 3798 O 365.268 0.961886 1.50366 0
M  V30 3799 C 362.368 1.90825 2.8007 0
M  V30 3800 C 361.541 3.21023 2.97091 0
M  V30 3801 C 360.6 3.22247 4.15985 0
M  V30 3802 O 359.626 3.95871 4.08992 0
M  V30 3803 N 360.828 2.46258 5.25678 0
M  V30 3804 H 363.593 2.74778 1.19655 0
M  V30 3805 H 361.154 1.53646 0.510358 0
M  V30 3806 H 363.146 1.89067 3.57821 0
M  V30 3807 H 361.716 1.03392 2.95006 0
M  V30 3808 H 360.936 3.35715 2.06614 0
M  V30 3809 H 362.224 4.0698 3.05361 0
M  V30 3810 H 361.622 1.86037 5.34235 0
M  V30 3811 H 360.179 2.50275 6.01835 0
M  V30 3812 N 363.613 -0.582584 1.46437 0
M  V30 3813 C 364.861 -1.33814 1.51453 0
M  V30 3814 C 365.182 -1.94277 0.167792 0
M  V30 3815 O 364.452 -1.78566 -0.805677 0
M  V30 3816 H 363.032 -0.496838 0.557818 0
M  V30 3817 H 365.694 -0.682281 1.82568 0
M  V30 3818 H 364.79 -2.14479 2.26728 0
M  V30 3819 N 365.091 -1.34144 -0.827227 0
M  V30 3820 C 366.021 -1.28005 -1.95287 0
M  V30 3821 C 367.002 -0.158321 -1.69362 0
M  V30 3822 O 368.187 -0.349987 -1.9102 0
M  V30 3823 C 365.317 -1.03036 -3.31664 0
M  V30 3824 C 364.271 -2.11628 -3.72019 0
M  V30 3825 C 363.597 -1.71854 -5.0633 0
M  V30 3826 C 364.897 -3.53417 -3.8457 0
M  V30 3827 H 366.591 -2.22187 -2.00682 0
M  V30 3828 H 364.137 -1.0696 -0.964135 0
M  V30 3829 H 366.09 -0.973863 -4.09993 0
M  V30 3830 H 364.814 -0.0529391 -3.26557 0
M  V30 3831 H 363.473 -2.16339 -2.95961 0
M  V30 3832 H 363.121 -0.727841 -4.97706 0
M  V30 3833 H 362.821 -2.44531 -5.34302 0
M  V30 3834 H 364.345 -1.67692 -5.87122 0
M  V30 3835 H 365.759 -3.51142 -4.5318 0
M  V30 3836 H 364.156 -4.24679 -4.2399 0
M  V30 3837 H 365.226 -3.91072 -2.86689 0
M  V30 3838 N 366.569 1.04691 -1.17803 0
M  V30 3839 C 367.516 2.12557 -0.899343 0
M  V30 3840 C 368.486 1.65339 0.158771 0
M  V30 3841 O 369.671 1.90789 0.0204797 0
M  V30 3842 C 366.811 3.42481 -0.424315 0
M  V30 3843 C 365.924 4.03346 -1.54713 0
M  V30 3844 C 365.059 5.21208 -1.02546 0
M  V30 3845 C 364.098 5.74089 -2.12339 0
M  V30 3846 N 363.235 6.83247 -1.61612 0
M  V30 3847 H 368.075 2.35734 -1.823 0
M  V30 3848 H 365.612 1.1564 -0.909159 0
M  V30 3849 H 367.57 4.16996 -0.130421 0
M  V30 3850 H 366.2 3.19471 0.462377 0
M  V30 3851 H 365.252 3.2622 -1.95664 0
M  V30 3852 H 366.564 4.38628 -2.37501 0
M  V30 3853 H 365.718 6.02812 -0.685718 0
M  V30 3854 H 364.457 4.87414 -0.167084 0
M  V30 3855 H 363.462 4.91111 -2.47165 0
M  V30 3856 H 364.687 6.0993 -2.98601 0
M  V30 3857 H 362.633 6.5134 -0.780533 0
M  V30 3858 H 362.55 7.17559 -2.38003 0
M  V30 3859 H 363.818 7.68491 -1.30545 0
M  V30 3860 N 368.047 0.979072 1.23499 0
M  V30 3861 C 369.293 0.648178 1.92163 0
M  V30 3862 C 369.626 -0.816049 1.76222 0
M  V30 3863 O 368.901 -1.58849 1.12237 0
M  V30 3864 C 369.184 1.03773 3.44824 0
M  V30 3865 C 369.037 2.55948 3.69879 0
M  V30 3866 C 370.356 0.580653 4.36253 0
M  V30 3867 H 367.475 0.236952 0.69787 0
M  V30 3868 H 370.117 1.22012 1.45647 0
M  V30 3869 H 368.267 0.551058 3.84572 0
M  V30 3870 H 369.939 3.12179 3.3962 0
M  V30 3871 H 368.182 2.98641 3.14636 0
M  V30 3872 H 368.853 2.78255 4.76737 0
M  V30 3873 H 371.329 0.998465 4.03943 0
M  V30 3874 H 370.205 0.881663 5.41773 0
M  V30 3875 H 370.466 -0.519052 4.39042 0
M  V30 3876 N 369.525 -1.3858 0.750561 0
M  V30 3877 C 370.488 -2.28836 0.129152 0
M  V30 3878 C 371.488 -1.47045 -0.650714 0
M  V30 3879 O 372.678 -1.6753 -0.477428 0
M  V30 3880 C 369.81 -3.30751 -0.825622 0
M  V30 3881 H 371.003 -2.85294 0.924516 0
M  V30 3882 H 368.556 -1.47489 0.517376 0
M  V30 3883 H 369.291 -2.79378 -1.64677 0
M  V30 3884 H 369.076 -3.91177 -0.268852 0
M  V30 3885 H 370.566 -3.98249 -1.2565 0
M  V30 3886 N 371.003 -0.499398 -1.49478 0
M  V30 3887 C 372.243 0.0440751 -2.04352 0
M  V30 3888 C 372.607 1.34423 -1.37093 0
M  V30 3889 O 373.808 1.97184 -1.82679 0
M  V30 3890 C 372.079 0.194918 -3.56868 0
M  V30 3891 S 373.638 0.69287 -4.33295 0
M  V30 3892 H 370.456 0.00253458 -0.710995 0
M  V30 3893 H 373.058 -0.673 -1.83551 0
M  V30 3894 H 371.762 -0.756672 -4.03364 0
M  V30 3895 H 371.293 0.93728 -3.82071 0
M  V30 3896 H 373.308 1.96226 -4.55752 0
M  V30 3897 N 372.481 1.55866 -0.233164 0
M  V30 3898 C 373.892 1.847 0.272554 0
M  V30 3899 C 374.243 1.15477 1.58617 0
M  V30 3900 O 373.368 0.42841 2.12117 0
M  V30 3901 C 373.963 3.35071 0.501299 0
M  V30 3902 C 372.522 3.6418 0.951304 0
M  V30 3903 C 371.669 2.77292 0.0208209 0
M  V30 3904 H 374.62 1.52005 -0.456074 0
M  V30 3905 H 374.641 3.55906 1.34577 0
M  V30 3906 H 374.153 3.85424 -0.454936 0
M  V30 3907 H 372.254 3.19293 1.92049 0
M  V30 3908 H 372.367 4.72071 0.817675 0
M  V30 3909 H 370.731 2.49131 0.529723 0
M  V30 3910 H 371.514 3.30448 -0.93054 0
M  V30 3911 N 373.959 -0.0401083 1.57549 0
M  V30 3912 C 374.869 -1.06133 2.0922 0
M  V30 3913 C 375.885 -1.40356 1.0284 0
M  V30 3914 O 377.061 -1.49897 1.34509 0
M  V30 3915 C 374.126 -2.34658 2.55218 0
M  V30 3916 C 373.187 -2.07117 3.76033 0
M  V30 3917 C 372.42 -3.29514 4.19829 0
M  V30 3918 O 372.643 -4.39794 3.63232 0
M  V30 3919 O 371.577 -3.15863 5.12362 0
M  V30 3920 H 375.403 -0.652244 2.96613 0
M  V30 3921 H 372.988 -0.256368 1.47184 0
M  V30 3922 H 374.87 -3.10239 2.85184 0
M  V30 3923 H 373.545 -2.74883 1.70941 0
M  V30 3924 H 372.452 -1.29139 3.51104 0
M  V30 3925 H 373.785 -1.71754 4.61261 0
M  V30 3926 N 375.437 -1.54477 -0.31217 0
M  V30 3927 C 376.347 -1.87695 -1.4074 0
M  V30 3928 C 377.363 -0.769975 -1.56036 0
M  V30 3929 O 378.539 -1.06537 -1.70915 0
M  V30 3930 C 375.604 -2.10755 -2.75287 0
M  V30 3931 C 374.665 -3.34514 -2.69071 0
M  V30 3932 C 373.898 -3.56465 -3.97201 0
M  V30 3933 O 374.121 -2.81637 -4.96021 0
M  V30 3934 O 373.055 -4.49964 -3.9977 0
M  V30 3935 H 376.881 -2.80849 -1.15574 0
M  V30 3936 H 374.466 -1.40526 -0.507228 0
M  V30 3937 H 376.348 -2.27188 -3.54913 0
M  V30 3938 H 375.023 -1.20788 -3.0032 0
M  V30 3939 H 373.93 -3.23456 -1.87955 0
M  V30 3940 H 375.263 -4.24575 -2.48992 0
M  V30 3941 N 376.915 0.57481 -1.46744 0
M  V30 3942 C 378.164 1.32898 -1.51727 0
M  V30 3943 C 378.477 1.948 -0.176692 0
M  V30 3944 O 379.683 2.71299 -0.104385 0
M  V30 3945 C 378.139 2.40901 -2.67385 0
M  V30 3946 C 377.747 1.85266 -4.07898 0
M  V30 3947 C 379.491 3.17609 -2.81646 0
M  V30 3948 C 377.398 2.90945 -5.14883 0
M  V30 3949 H 376.328 0.499631 -0.564699 0
M  V30 3950 H 378.979 0.612536 -1.72975 0
M  V30 3951 H 377.361 3.15379 -2.39483 0
M  V30 3952 H 378.535 1.17278 -4.45626 0
M  V30 3953 H 376.85 1.21199 -3.98371 0
M  V30 3954 H 379.447 3.96493 -3.58744 0
M  V30 3955 H 379.79 3.70696 -1.89448 0
M  V30 3956 H 380.323 2.50239 -3.09233 0
M  V30 3957 H 377.062 2.42736 -6.089 0
M  V30 3958 H 376.582 3.57398 -4.81691 0
M  V30 3959 H 378.261 3.54755 -5.41071 0
M  V30 3960 N 378.394 1.34581 0.820102 0
M  V30 3961 C 379.357 1.2628 1.91275 0
M  V30 3962 C 380.357 0.177344 1.59819 0
M  V30 3963 O 381.547 0.430156 1.68806 0
M  V30 3964 C 378.679 0.950327 3.27386 0
M  V30 3965 H 379.872 2.23421 2.00057 0
M  V30 3966 H 377.425 1.1891 1.0144 0
M  V30 3967 H 378.16 -0.0177938 3.24295 0
M  V30 3968 H 377.945 1.73549 3.51601 0
M  V30 3969 H 379.435 0.917492 4.07396 0
M  V30 3970 N 379.872 -1.04064 1.18357 0
M  V30 3971 C 381.102 -1.80654 1.00238 0
M  V30 3972 C 381.51 -1.83713 -0.452362 0
M  V30 3973 O 380.853 -1.27135 -1.32599 0
M  V30 3974 C 380.915 -3.27582 1.48088 0
M  V30 3975 C 380.579 -3.48184 2.96002 0
M  V30 3976 C 381.576 -3.39372 3.93856 0
M  V30 3977 C 379.261 -3.7478 3.34433 0
M  V30 3978 C 381.255 -3.5686 5.28138 0
M  V30 3979 C 378.942 -3.91915 4.68877 0
M  V30 3980 C 379.94 -3.82956 5.65539 0
M  V30 3981 O 379.628 -3.996 6.97549 0
M  V30 3982 H 379.36 -0.575751 0.354241 0
M  V30 3983 H 381.914 -1.32044 1.57333 0
M  V30 3984 H 380.144 -3.77161 0.853588 0
M  V30 3985 H 381.833 -3.8573 1.2636 0
M  V30 3986 H 382.599 -3.18789 3.65511 0
M  V30 3987 H 378.478 -3.80852 2.59756 0
M  V30 3988 H 382.022 -3.49783 6.03571 0
M  V30 3989 H 377.919 -4.11992 4.96923 0
M  V30 3990 H 378.687 -4.1676 7.04452 0
M  V30 3991 N 381.35 -0.985608 -1.22978 0
M  V30 3992 C 382.766 -0.695104 -1.43668 0
M  V30 3993 C 382.966 0.736866 -1.87543 0
M  V30 3994 O 382.022 1.50868 -2.02473 0
M  V30 3995 C 383.335 -1.69447 -2.48412 0
M  V30 3996 C 384.883 -1.70909 -2.62219 0
M  V30 3997 C 385.358 -2.6969 -3.70178 0
M  V30 3998 N 386.849 -2.6824 -3.77626 0
M  V30 3999 C 387.584 -3.41339 -4.60733 0
M  V30 4000 N 387.08 -4.24015 -5.4789 0
M  V30 4001 N 388.873 -3.30079 -4.54977 0
M  V30 4002 H 381.024 -1.91054 -0.928016 0
M  V30 4003 H 383.287 -0.823553 -0.469536 0
M  V30 4004 H 382.993 -2.7188 -2.23102 0
M  V30 4005 H 382.867 -1.48147 -3.46889 0
M  V30 4006 H 385.254 -0.691785 -2.86877 0
M  V30 4007 H 385.335 -1.96276 -1.6404 0
M  V30 4008 H 384.979 -3.71566 -3.46268 0
M  V30 4009 H 384.909 -2.41595 -4.67909 0
M  V30 4010 H 387.4 -2.08243 -3.15346 0
M  V30 4011 H 387.713 -4.76636 -6.08308 0
M  V30 4012 H 386.058 -4.28104 -5.47496 0
M  V30 4013 H 389.249 -2.64937 -3.85909 0
M  V30 4014 H 389.422 -3.87308 -5.19516 0
M  V30 4015 N 382.828 1.3818 -0.7579 0
M  V30 4016 C 383.76 2.2901 -0.0932177 0
M  V30 4017 C 384.773 1.47958 0.679136 0
M  V30 4018 O 385.962 1.70773 0.519514 0
M  V30 4019 C 383.062 3.26953 0.89192 0
M  V30 4020 C 382.235 4.37045 0.176303 0
M  V30 4021 C 381.294 5.15148 1.07281 0
M  V30 4022 O 380.32 5.66616 0.541728 0
M  V30 4023 N 381.522 5.28542 2.40049 0
M  V30 4024 H 384.287 2.86694 -0.873303 0
M  V30 4025 H 381.848 1.50007 -0.609054 0
M  V30 4026 H 383.84 3.76083 1.49479 0
M  V30 4027 H 382.41 2.70136 1.57306 0
M  V30 4028 H 381.63 3.89493 -0.607328 0
M  V30 4029 H 382.918 5.07801 -0.318718 0
M  V30 4030 H 382.316 4.88285 2.85647 0
M  V30 4031 H 380.873 5.8103 2.95376 0
M  V30 4032 N 384.306 0.507319 1.49211 0
M  V30 4033 C 385.253 -0.267728 2.29242 0
M  V30 4034 C 386.223 -0.954609 1.35928 0
M  V30 4035 O 387.408 -0.960046 1.64887 0
M  V30 4036 C 384.548 -1.32243 3.18756 0
M  V30 4037 C 383.661 -0.64669 4.27132 0
M  V30 4038 C 382.796 -1.68238 5.03855 0
M  V30 4039 C 381.835 -0.98885 6.0406 0
M  V30 4040 N 380.972 -1.96903 6.73924 0
M  V30 4041 H 385.812 0.420968 2.95012 0
M  V30 4042 H 383.349 0.219443 1.45454 0
M  V30 4043 H 385.307 -1.94599 3.69036 0
M  V30 4044 H 383.937 -1.97981 2.54958 0
M  V30 4045 H 382.989 0.0902926 3.80293 0
M  V30 4046 H 384.301 -0.101058 4.98698 0
M  V30 4047 H 383.455 -2.38081 5.58034 0
M  V30 4048 H 382.194 -2.26187 4.32077 0
M  V30 4049 H 381.199 -0.276222 5.49106 0
M  V30 4050 H 382.424 -0.415767 6.77826 0
M  V30 4051 H 380.37 -2.53803 6.04913 0
M  V30 4052 H 380.287 -1.47423 7.41487 0
M  V30 4053 H 381.555 -2.66015 7.32705 0
M  V30 4054 N 385.784 -1.5574 0.241426 0
M  V30 4055 C 387.03 -1.99846 -0.378555 0
M  V30 4056 C 387.385 -1.12665 -1.55963 0
M  V30 4057 O 386.678 -0.180966 -1.90743 0
M  V30 4058 C 386.872 -3.47308 -0.843317 0
M  V30 4059 C 386.701 -4.48756 0.291178 0
M  V30 4060 C 385.471 -4.9949 0.764077 0
M  V30 4061 C 387.669 -5.02039 1.11631 0
M  V30 4062 N 385.651 -5.84676 1.87156 0
M  V30 4063 C 387.022 -5.84343 2.07226 0
M  V30 4064 C 389.077 -4.84354 1.15349 0
M  V30 4065 C 387.78 -6.50851 3.06245 0
M  V30 4066 C 389.806 -5.51636 2.13195 0
M  V30 4067 C 389.168 -6.33724 3.07528 0
M  V30 4068 H 385.267 -0.774968 -0.104634 0
M  V30 4069 H 387.851 -1.91385 0.357751 0
M  V30 4070 H 386.022 -3.56178 -1.54893 0
M  V30 4071 H 387.754 -3.78299 -1.43779 0
M  V30 4072 H 384.509 -4.72311 0.349175 0
M  V30 4073 H 384.933 -6.31967 2.42789 0
M  V30 4074 H 389.575 -4.20525 0.438057 0
M  V30 4075 H 387.293 -7.1385 3.78739 0
M  V30 4076 H 390.879 -5.39909 2.16771 0
M  V30 4077 H 389.759 -6.84867 3.82003 0
M  V30 4078 N 387.262 0.0317525 -1.57568 0
M  V30 4079 C 388.511 0.722131 -1.8833 0
M  V30 4080 C 388.824 1.76664 -0.839587 0
M  V30 4081 O 390.03 2.50942 -1.03635 0
M  V30 4082 C 388.486 1.33544 -3.34207 0
M  V30 4083 C 388.094 0.327415 -4.46802 0
M  V30 4084 C 389.838 2.00585 -3.7412 0
M  V30 4085 C 387.745 0.948915 -5.83738 0
M  V30 4086 H 386.675 0.273466 -0.702661 0
M  V30 4087 H 389.326 -0.0235811 -1.83485 0
M  V30 4088 H 387.708 2.13077 -3.33788 0
M  V30 4089 H 388.882 -0.441006 -4.58685 0
M  V30 4090 H 387.197 -0.240758 -4.15703 0
M  V30 4091 H 389.794 2.47932 -4.73744 0
M  V30 4092 H 390.137 2.82285 -3.05975 0
M  V30 4093 H 390.67 1.27831 -3.76702 0
M  V30 4094 H 387.409 0.171387 -6.55276 0
M  V30 4095 H 386.929 1.68724 -5.7558 0
M  V30 4096 H 388.608 1.45705 -6.3038 0
M  V30 4097 N 388.74 1.54641 0.303973 0
M  V30 4098 C 390.017 1.64455 1.05896 0
M  V30 4099 C 390.397 0.490923 2.05312 0
M  V30 4100 O 389.745 -0.512685 2.22674 0
M  V30 4101 C 389.955 3.02331 1.74347 0
M  V30 4102 C 391.303 3.59045 2.26653 0
M  V30 4103 O 392.327 3.04764 1.84384 0
M  V30 4104 O 391.186 4.54081 3.04093 0
M  V30 4105 H 388.28 0.666729 0.489287 0
M  V30 4106 H 390.826 1.66986 0.302298 0
M  V30 4107 H 389.598 3.77734 1.02142 0
M  V30 4108 H 389.221 3.03565 2.56777 0
M  V30 4109 N 390.218 -0.567019 1.47046 0
M  V30 4110 C 391.181 -1.65696 1.58359 0
M  V30 4111 C 392.181 -1.54097 0.459441 0
M  V30 4112 O 393.371 -1.58432 0.724225 0
M  V30 4113 C 390.503 -3.05197 1.51879 0
M  V30 4114 H 391.696 -1.57019 2.5551 0
M  V30 4115 H 389.249 -0.786148 1.3509 0
M  V30 4116 H 389.984 -3.19417 0.560673 0
M  V30 4117 H 389.769 -3.15025 2.33455 0
M  V30 4118 H 391.259 -3.84511 1.62913 0
M  V30 4119 N 391.696 -1.35014 -0.812953 0
M  V30 4120 C 392.659 -1.27292 -1.90602 0
M  V30 4121 C 393.659 -0.185817 -1.59723 0
M  V30 4122 O 394.849 -0.439102 -1.68575 0
M  V30 4123 C 391.981 -0.967676 -3.26877 0
M  V30 4124 H 393.174 -2.24479 -1.9887 0
M  V30 4125 H 390.727 -1.19446 -1.00808 0
M  V30 4126 H 391.462 0.0005954 -3.243 0
M  V30 4127 H 391.247 -1.75412 -3.50675 0
M  V30 4128 H 392.737 -0.939085 -4.06904 0
M  V30 4129 N 393.175 1.03435 -1.18907 0
M  V30 4130 C 394.107 2.1165 -0.879595 0
M  V30 4131 C 395.12 1.62316 0.125439 0
M  V30 4132 O 396.309 1.78201 -0.103245 0
M  V30 4133 C 393.409 3.37622 -0.294042 0
M  V30 4134 C 392.582 4.16166 -1.34629 0
M  V30 4135 C 391.641 5.20457 -0.775274 0
M  V30 4136 O 390.667 5.50379 -1.4516 0
M  V30 4137 N 391.869 5.78949 0.424126 0
M  V30 4138 H 394.634 2.38791 -1.81105 0
M  V30 4139 H 392.195 1.19681 -1.09032 0
M  V30 4140 H 394.187 4.04572 0.101679 0
M  V30 4141 H 392.757 3.07873 0.541575 0
M  V30 4142 H 391.977 3.44444 -1.91707 0
M  V30 4143 H 393.265 4.65432 -2.05549 0
M  V30 4144 H 392.663 5.56948 0.991209 0
M  V30 4145 H 391.22 6.47334 0.761691 0
M  V30 4146 N 394.653 0.992116 1.22453 0
M  V30 4147 C 395.583 0.561677 2.26644 0
M  V30 4148 C 396.564 -0.411055 1.65059 0
M  V30 4149 O 397.749 -0.301861 1.9184 0
M  V30 4150 C 394.879 -0.125247 3.47074 0
M  V30 4151 C 393.833 0.765948 4.21091 0
M  V30 4152 C 393.159 -0.0538484 5.34673 0
M  V30 4153 C 394.459 2.06242 4.79856 0
M  V30 4154 H 396.153 1.43259 2.62902 0
M  V30 4155 H 393.699 0.690283 1.26377 0
M  V30 4156 H 395.652 -0.437764 4.1912 0
M  V30 4157 H 394.376 -1.03069 3.0991 0
M  V30 4158 H 393.035 1.0621 3.50878 0
M  V30 4159 H 392.683 -0.960188 4.9375 0
M  V30 4160 H 392.383 0.539415 5.85119 0
M  V30 4161 H 393.907 -0.360477 6.09535 0
M  V30 4162 H 395.321 1.8139 5.43848 0
M  V30 4163 H 393.718 2.60444 5.40638 0
M  V30 4164 H 394.788 2.74167 3.99951 0
M  V30 4165 N 396.131 -1.37776 0.765217 0
M  V30 4166 C 397.041 -2.34135 0.147666 0
M  V30 4167 C 398.057 -1.59854 -0.687215 0
M  V30 4168 O 399.233 -1.91983 -0.608659 0
M  V30 4169 C 396.298 -3.3901 -0.72617 0
M  V30 4170 C 395.359 -4.2912 0.124417 0
M  V30 4171 C 394.592 -5.28986 -0.707807 0
M  V30 4172 O 394.815 -5.36205 -1.94525 0
M  V30 4173 O 393.749 -6.01779 -0.12046 0
M  V30 4174 H 397.575 -2.88664 0.943758 0
M  V30 4175 H 395.16 -1.39824 0.526277 0
M  V30 4176 H 397.042 -4.03195 -1.22524 0
M  V30 4177 H 395.717 -2.86819 -1.50056 0
M  V30 4178 H 394.624 -3.68057 0.669696 0
M  V30 4179 H 395.957 -4.84598 0.861736 0
M  V30 4180 N 397.609 -0.515225 -1.4894 0
M  V30 4181 C 398.556 0.255567 -2.29381 0
M  V30 4182 C 399.526 0.947387 -1.36432 0
M  V30 4183 O 400.711 0.951288 -1.65394 0
M  V30 4184 C 397.851 1.30551 -3.19453 0
M  V30 4185 C 396.964 0.624029 -4.27469 0
M  V30 4186 C 396.099 1.65563 -5.0474 0
M  V30 4187 C 395.138 0.956802 -6.04576 0
M  V30 4188 N 394.275 1.93326 -6.74959 0
M  V30 4189 H 399.115 -0.436607 -2.94784 0
M  V30 4190 H 396.652 -0.227154 -1.45336 0
M  V30 4191 H 398.61 1.92639 -3.70062 0
M  V30 4192 H 397.24 1.96626 -2.56004 0
M  V30 4193 H 396.292 -0.110459 -3.8024 0
M  V30 4194 H 397.604 0.0746092 -4.98744 0
M  V30 4195 H 396.758 2.35119 -5.59289 0
M  V30 4196 H 395.497 2.23893 -4.3327 0
M  V30 4197 H 394.502 0.247097 -5.49244 0
M  V30 4198 H 395.727 0.379814 -6.78037 0
M  V30 4199 H 393.673 2.50591 -6.06251 0
M  V30 4200 H 393.59 1.43489 -7.42258 0
M  V30 4201 H 394.858 2.62126 -7.34105 0
M  V30 4202 N 399.087 1.5561 -0.249682 0
M  V30 4203 C 400.017 2.24477 0.642826 0
M  V30 4204 C 400.998 1.22601 1.17911 0
M  V30 4205 O 402.183 1.5126 1.21795 0
M  V30 4206 C 399.313 2.94638 1.83863 0
M  V30 4207 C 398.267 4.03227 1.435 0
M  V30 4208 C 397.593 4.60828 2.71186 0
M  V30 4209 C 398.893 5.18796 0.604002 0
M  V30 4210 H 400.587 2.99321 0.0685625 0
M  V30 4211 H 398.133 1.43965 0.0315363 0
M  V30 4212 H 400.086 3.41517 2.46868 0
M  V30 4213 H 398.81 2.17287 2.43832 0
M  V30 4214 H 397.469 3.57121 0.828275 0
M  V30 4215 H 397.117 3.80174 3.29358 0
M  V30 4216 H 396.817 5.34132 2.44901 0
M  V30 4217 H 398.341 5.10442 3.35084 0
M  V30 4218 H 399.755 5.61883 1.13842 0
M  V30 4219 H 398.152 5.98506 0.437097 0
M  V30 4220 H 399.222 4.83384 -0.383147 0
M  V30 4221 N 400.565 -0.0233959 1.57583 0
M  V30 4222 C 401.528 -1.00693 2.05897 0
M  V30 4223 C 402.528 -1.28693 0.964092 0
M  V30 4224 O 403.718 -1.23602 1.22753 0
M  V30 4225 C 400.85 -2.33825 2.4807 0
M  V30 4226 H 402.043 -0.589476 2.9405 0
M  V30 4227 H 399.596 -0.270354 1.53944 0
M  V30 4228 H 400.331 -2.80307 1.6309 0
M  V30 4229 H 400.116 -2.1483 3.2801 0
M  V30 4230 H 401.606 -3.04426 2.85857 0
M  V30 4231 N 402.043 -1.548 -0.295768 0
M  V30 4232 C 403.006 -1.85363 -1.34808 0
M  V30 4233 C 404.006 -0.726817 -1.43436 0
M  V30 4234 O 405.196 -0.995088 -1.42981 0
M  V30 4235 C 402.328 -2.03859 -2.73229 0
M  V30 4236 H 403.521 -2.7941 -1.08949 0
M  V30 4237 H 401.074 -1.46942 -0.532702 0
M  V30 4238 H 401.809 -1.12117 -3.04303 0
M  V30 4239 H 401.594 -2.8588 -2.68356 0
M  V30 4240 H 403.084 -2.28857 -3.49305 0
M  V30 4241 N 403.521 0.559213 -1.47345 0
M  V30 4242 C 404.932 1.14134 -1.47751 0
M  V30 4243 C 405.283 1.94834 -0.231103 0
M  V30 4244 O 404.408 2.05957 0.664137 0
M  V30 4245 C 405.003 2.07653 -2.67705 0
M  V30 4246 C 403.562 2.61141 -2.71076 0
M  V30 4247 C 402.709 1.3748 -2.40821 0
M  V30 4248 H 405.66 0.345917 -1.54884 0
M  V30 4249 H 405.681 2.91497 -2.44561 0
M  V30 4250 H 405.193 1.4889 -3.58404 0
M  V30 4251 H 403.294 3.23707 -1.84511 0
M  V30 4252 H 403.407 3.02272 -3.7171 0
M  V30 4253 H 401.771 1.68086 -1.91362 0
M  V30 4254 H 402.554 0.805135 -3.33725 0
M  V30 4255 N 404.999 1.35443 0.805782 0
M  V30 4256 C 405.929 1.31095 1.93226 0
M  V30 4257 C 406.91 0.185244 1.69088 0
M  V30 4258 O 408.095 0.380332 1.90439 0
M  V30 4259 C 405.225 1.08299 3.29983 0
M  V30 4260 C 404.179 2.17519 3.68605 0
M  V30 4261 C 403.505 1.79887 5.03532 0
M  V30 4262 C 404.805 3.5949 3.78898 0
M  V30 4263 H 406.499 2.25352 1.97122 0
M  V30 4264 H 404.045 1.0848 0.946996 0
M  V30 4265 H 405.998 1.03897 4.08391 0
M  V30 4266 H 404.722 0.104885 3.26432 0
M  V30 4267 H 403.381 2.2102 2.92482 0
M  V30 4268 H 403.029 0.80693 4.96485 0
M  V30 4269 H 402.729 2.53001 5.30344 0
M  V30 4270 H 404.253 1.77011 5.84379 0
M  V30 4271 H 405.667 3.58307 4.47536 0
M  V30 4272 H 404.064 4.31371 4.1718 0
M  V30 4273 H 405.134 3.95584 2.80431 0
M  V30 4274 N 406.477 -1.02803 1.19454 0
M  V30 4275 C 407.44 -2.09264 0.934955 0
M  V30 4276 C 408.44 -1.60576 -0.0849015 0
M  V30 4277 O 409.63 -1.73554 0.149933 0
M  V30 4278 C 406.762 -3.38482 0.40531 0
M  V30 4279 H 407.955 -2.33726 1.87916 0
M  V30 4280 H 405.508 -1.19426 1.00832 0
M  V30 4281 H 406.243 -3.19689 -0.544899 0
M  V30 4282 H 406.028 -3.75142 1.14065 0
M  V30 4283 H 407.518 -4.16894 0.242806 0
M  V30 4284 N 407.956 -0.998596 -1.21925 0
M  V30 4285 C 408.903 -0.553621 -2.24062 0
M  V30 4286 C 409.873 0.416999 -1.6078 0
M  V30 4287 O 411.058 0.320482 -1.88089 0
M  V30 4288 C 408.198 0.119959 -3.44891 0
M  V30 4289 C 407.311 -0.893077 -4.22668 0
M  V30 4290 C 406.446 -0.192424 -5.30851 0
M  V30 4291 C 405.485 -1.19344 -6.00353 0
M  V30 4292 N 404.622 -0.520707 -7.00166 0
M  V30 4293 H 409.462 -1.4293 -2.61486 0
M  V30 4294 H 406.999 -0.715838 -1.28507 0
M  V30 4295 H 408.957 0.527459 -4.13852 0
M  V30 4296 H 407.587 0.959389 -3.08214 0
M  V30 4297 H 406.639 -1.41886 -3.52948 0
M  V30 4298 H 407.951 -1.65512 -4.70539 0
M  V30 4299 H 407.105 0.271515 -6.06092 0
M  V30 4300 H 405.844 0.602075 -4.83969 0
M  V30 4301 H 404.849 -1.66795 -5.23889 0
M  V30 4302 H 406.074 -1.98891 -6.49322 0
M  V30 4303 H 404.02 0.254252 -6.55507 0
M  V30 4304 H 403.937 -1.2211 -7.46073 0
M  V30 4305 H 405.205 -0.0797596 -7.79459 0
M  V30 4306 N 409.434 1.37368 -0.772513 0
M  V30 4307 C 410.382 2.32134 -0.147111 0
M  V30 4308 C 411.376 1.54972 0.684106 0
M  V30 4309 O 412.582 1.70363 0.581083 0
M  V30 4310 H 408.957 0.751449 -0.028786 0
M  V30 4311 H 410.928 2.82464 -0.962112 0
M  V30 4312 C 409.677 3.40226 0.71703 0
M  V30 4313 H 409 3.99706 0.0867951 0
M  V30 4314 H 410.44 4.08897 1.12159 0
M  V30 4315 C 408.899 2.80372 1.86797 0
M  V30 4316 O 409.429 2.71183 2.96349 0
M  V30 4317 N 407.635 2.37904 1.66883 0
M  V30 4318 H 407.182 2.45578 0.777759 0
M  V30 4319 H 407.14 1.98202 2.44056 0
M  V30 4320 N 410.912 0.523116 1.48665 0
M  V30 4321 C 412.16 -0.0134497 2.02096 0
M  V30 4322 C 412.481 -1.35418 1.40311 0
M  V30 4323 O 411.751 -1.87543 0.566074 0
M  V30 4324 H 410.331 -0.00795915 0.746958 0
M  V30 4325 H 412.993 0.685388 1.82451 0
M  V30 4326 H 412.089 -0.126849 3.11842 0
M  V30 4327 N 412.39 -1.55475 0.257931 0
M  V30 4328 C 413.62 -2.03314 -0.367026 0
M  V30 4329 C 414.028 -1.13625 -1.51281 0
M  V30 4330 O 413.371 -0.145334 -1.83124 0
M  V30 4331 C 413.433 -3.47362 -0.926284 0
M  V30 4332 C 413.097 -4.56914 0.0886584 0
M  V30 4333 C 414.094 -5.12013 0.902123 0
M  V30 4334 C 411.779 -5.01827 0.217936 0
M  V30 4335 C 413.773 -6.10529 1.83122 0
M  V30 4336 C 411.46 -6.00172 1.15052 0
M  V30 4337 C 412.458 -6.54402 1.95568 0
M  V30 4338 O 412.146 -7.50827 2.87253 0
M  V30 4339 H 411.878 -0.669976 -0.0900443 0
M  V30 4340 H 414.432 -2.01804 0.382673 0
M  V30 4341 H 412.662 -3.46056 -1.72575 0
M  V30 4342 H 414.351 -3.78637 -1.46249 0
M  V30 4343 H 415.117 -4.78139 0.812891 0
M  V30 4344 H 410.996 -4.59272 -0.398721 0
M  V30 4345 H 414.54 -6.52783 2.46008 0
M  V30 4346 H 410.437 -6.33465 1.24064 0
M  V30 4347 H 411.205 -7.68483 2.81739 0
M  V30 4348 N 413.868 0.0150385 -1.57593 0
M  V30 4349 C 415.116 0.701613 -1.8953 0
M  V30 4350 C 415.437 1.75139 -0.857396 0
M  V30 4351 O 414.707 1.95607 0.107194 0
M  V30 4352 H 413.287 0.26213 -0.699498 0
M  V30 4353 H 415.949 -0.0223304 -1.94887 0
M  V30 4354 H 415.045 1.18236 -2.88837 0
M  V30 4355 N 415.346 1.54954 0.287554 0
M  V30 4356 C 416.278 1.83224 1.37701 0
M  V30 4357 C 417.291 0.715898 1.46215 0
M  V30 4358 O 418.48 0.993565 1.48292 0
M  V30 4359 C 415.58 1.96723 2.75959 0
M  V30 4360 C 414.753 3.27253 2.90215 0
M  V30 4361 C 413.812 3.30998 4.09056 0
M  V30 4362 O 412.838 4.04457 4.00503 0
M  V30 4363 N 414.04 2.57353 5.20336 0
M  V30 4364 H 416.805 2.77254 1.138 0
M  V30 4365 H 414.366 1.54694 0.477652 0
M  V30 4366 H 416.358 1.96615 3.5373 0
M  V30 4367 H 414.928 1.09626 2.92747 0
M  V30 4368 H 414.148 3.40022 1.99447 0
M  V30 4369 H 415.436 4.13365 2.96659 0
M  V30 4370 H 414.834 1.97327 5.30169 0
M  V30 4371 H 413.391 2.62984 5.96391 0
M  V30 4372 N 416.824 -0.551391 1.4764 0
M  V30 4373 C 418.054 -1.33163 1.57959 0
M  V30 4374 C 418.462 -1.87785 0.23094 0
M  V30 4375 O 417.805 -1.65996 -0.786825 0
M  V30 4376 C 417.867 -2.53449 2.54958 0
M  V30 4377 C 417.531 -2.20071 4.00522 0
M  V30 4378 C 418.528 -1.77017 4.88836 0
M  V30 4379 C 416.213 -2.31252 4.45901 0
M  V30 4380 C 418.207 -1.4558 6.20552 0
M  V30 4381 C 415.894 -1.99427 5.77644 0
M  V30 4382 C 416.892 -1.56659 6.64791 0
M  V30 4383 O 416.58 -1.25242 7.94084 0
M  V30 4384 H 416.312 -0.412022 0.535923 0
M  V30 4385 H 418.866 -0.674186 1.9402 0
M  V30 4386 H 417.096 -3.22104 2.13976 0
M  V30 4387 H 418.785 -3.15523 2.55343 0
M  V30 4388 H 419.551 -1.67867 4.55023 0
M  V30 4389 H 415.43 -2.63498 3.78272 0
M  V30 4390 H 418.974 -1.12125 6.8853 0
M  V30 4391 H 414.871 -2.08211 6.10998 0
M  V30 4392 H 415.639 -1.38822 8.06642 0
M  V30 4393 N 418.302 -1.35869 -0.798587 0
M  V30 4394 C 419.232 -1.32118 -1.92528 0
M  V30 4395 C 420.213 -0.194209 -1.68988 0
M  V30 4396 O 421.398 -0.390426 -1.90235 0
M  V30 4397 C 418.528 -1.10047 -3.29404 0
M  V30 4398 C 417.482 -2.19471 -3.67446 0
M  V30 4399 C 416.808 -1.82555 -5.02571 0
M  V30 4400 C 418.108 -3.61495 -3.76987 0
M  V30 4401 H 419.802 -2.26394 -1.95924 0
M  V30 4402 H 417.348 -1.08981 -0.94123 0
M  V30 4403 H 419.301 -1.06061 -4.07835 0
M  V30 4404 H 418.025 -0.122195 -3.26371 0
M  V30 4405 H 416.684 -2.22568 -2.91306 0
M  V30 4406 H 416.332 -0.833249 -4.9605 0
M  V30 4407 H 416.032 -2.5581 -5.28995 0
M  V30 4408 H 417.556 -1.80108 -5.83432 0
M  V30 4409 H 418.97 -3.60676 -4.4563 0
M  V30 4410 H 417.367 -4.33577 -4.14887 0
M  V30 4411 H 418.437 -3.97065 -2.78329 0
M  V30 4412 N 419.78 1.02168 -1.19998 0
M  V30 4413 C 420.727 2.10601 -0.944228 0
M  V30 4414 C 421.697 1.65639 0.123664 0
M  V30 4415 O 422.882 1.9079 -0.0199941 0
M  V30 4416 C 420.022 3.41504 -0.496865 0
M  V30 4417 C 419.135 3.99973 -1.63234 0
M  V30 4418 C 418.27 5.18915 -1.13579 0
M  V30 4419 C 417.309 5.69456 -2.24468 0
M  V30 4420 N 416.446 6.79665 -1.76068 0
M  V30 4421 H 421.286 2.31814 -1.8726 0
M  V30 4422 H 418.823 1.13686 -0.933483 0
M  V30 4423 H 420.781 4.16626 -0.218843 0
M  V30 4424 H 419.411 3.2038 0.394508 0
M  V30 4425 H 418.463 3.21997 -2.0254 0
M  V30 4426 H 419.775 4.33492 -2.46752 0
M  V30 4427 H 418.929 6.01222 -0.813429 0
M  V30 4428 H 417.668 4.8695 -0.270434 0
M  V30 4429 H 416.673 4.85757 -2.57526 0
M  V30 4430 H 417.898 6.03459 -3.11472 0
M  V30 4431 H 415.844 6.49538 -0.918516 0
M  V30 4432 H 415.761 7.12349 -2.5317 0
M  V30 4433 H 417.029 7.65549 -1.46817 0
M  V30 4434 N 421.258 1.00505 1.21394 0
M  V30 4435 C 422.674 0.717873 1.42544 0
M  V30 4436 C 422.874 -0.706936 1.88692 0
M  V30 4437 O 421.93 -1.47627 2.04847 0
M  V30 4438 C 423.243 1.73377 2.45684 0
M  V30 4439 C 424.791 1.75059 2.59467 0
M  V30 4440 C 425.266 2.75545 3.6584 0
M  V30 4441 N 426.757 2.74213 3.73311 0
M  V30 4442 C 427.492 3.48626 4.55245 0
M  V30 4443 N 426.988 4.32678 5.41075 0
M  V30 4444 N 428.781 3.37276 4.49668 0
M  V30 4445 H 420.932 1.92506 0.897503 0
M  V30 4446 H 423.195 0.830919 0.456375 0
M  V30 4447 H 422.901 2.75395 2.18748 0
M  V30 4448 H 422.775 1.53647 3.44489 0
M  V30 4449 H 425.162 0.737337 2.8574 0
M  V30 4450 H 425.243 1.98861 1.60897 0
M  V30 4451 H 424.887 3.77028 3.40313 0
M  V30 4452 H 424.817 2.49009 4.64007 0
M  V30 4453 H 427.308 2.13234 3.11993 0
M  V30 4454 H 427.621 4.86253 6.00648 0
M  V30 4455 H 425.966 4.3676 5.40616 0
M  V30 4456 H 429.157 2.71043 3.81646 0
M  V30 4457 H 429.33 3.95524 5.13288 0
M  V30 4458 N 422.737 -1.36956 0.779787 0
M  V30 4459 C 423.667 -2.32761 0.185651 0
M  V30 4460 C 424.648 -1.56177 -0.673989 0
M  V30 4461 O 425.833 -1.84378 -0.609797 0
M  V30 4462 C 422.963 -3.40418 -0.687964 0
M  V30 4463 C 421.917 -4.27941 0.0710102 0
M  V30 4464 C 421.243 -5.26681 -0.922573 0
M  V30 4465 C 422.543 -5.07006 1.25467 0
M  V30 4466 H 424.237 -2.82698 0.986008 0
M  V30 4467 H 421.783 -1.3592 0.475592 0
M  V30 4468 H 423.736 -4.06423 -1.11348 0
M  V30 4469 H 422.46 -2.89025 -1.52093 0
M  V30 4470 H 421.119 -3.63478 0.47739 0
M  V30 4471 H 420.767 -4.71565 -1.7503 0
M  V30 4472 H 420.467 -5.86103 -0.419237 0
M  V30 4473 H 421.991 -5.9556 -1.34686 0
M  V30 4474 H 423.405 -5.66105 0.905401 0
M  V30 4475 H 421.802 -5.75793 1.69063 0
M  V30 4476 H 422.872 -4.3921 2.05481 0
M  V30 4477 N 424.215 -0.530993 -1.48385 0
M  V30 4478 C 425.145 0.219985 -2.32461 0
M  V30 4479 C 426.126 0.934111 -1.42156 0
M  V30 4480 O 427.311 0.919694 -1.71042 0
M  V30 4481 C 424.441 1.26674 -3.23375 0
M  V30 4482 C 423.395 0.67069 -4.22712 0
M  V30 4483 C 422.721 1.82017 -5.02766 0
M  V30 4484 C 424.021 -0.358268 -5.2107 0
M  V30 4485 H 425.715 -0.48187 -2.95497 0
M  V30 4486 H 423.261 -0.233182 -1.42099 0
M  V30 4487 H 425.214 1.80006 -3.81019 0
M  V30 4488 H 423.938 1.99818 -2.58341 0
M  V30 4489 H 422.597 0.158878 -3.66256 0
M  V30 4490 H 422.245 2.54002 -4.34157 0
M  V30 4491 H 421.945 1.42727 -5.70003 0
M  V30 4492 H 423.469 2.35725 -5.63264 0
M  V30 4493 H 424.883 0.0880081 -5.73232 0
M  V30 4494 H 423.28 -0.66861 -5.96364 0
M  V30 4495 H 424.35 -1.26367 -4.68145 0
M  V30 4496 N 425.693 1.55336 -0.266172 0
M  V30 4497 C 426.921 2.03801 0.356756 0
M  V30 4498 C 427.336 1.14485 1.50129 0
M  V30 4499 O 426.693 0.163121 1.8177 0
M  V30 4500 C 426.744 3.51455 0.846281 0
M  V30 4501 O 426.465 4.37371 -0.252663 0
M  V30 4502 C 427.966 4.15767 1.53794 0
M  V30 4503 H 425.186 0.665906 0.0825218 0
M  V30 4504 H 427.73 2.00636 -0.39566 0
M  V30 4505 H 425.885 3.55092 1.54881 0
M  V30 4506 H 426.299 5.24358 0.122173 0
M  V30 4507 H 427.773 5.20714 1.83198 0
M  V30 4508 H 428.25 3.63404 2.46646 0
M  V30 4509 H 428.856 4.16107 0.879488 0
M  V30 4510 N 427.171 -0.0066808 1.57599 0
M  V30 4511 C 428.081 -1.01671 2.11424 0
M  V30 4512 C 429.097 -1.38143 1.05795 0
M  V30 4513 O 430.273 -1.47011 1.37658 0
M  V30 4514 C 427.338 -2.29192 2.60139 0
M  V30 4515 C 426.399 -1.99094 3.80342 0
M  V30 4516 C 425.632 -3.20535 4.26724 0
M  V30 4517 O 425.855 -4.3199 3.72479 0
M  V30 4518 O 424.789 -3.04924 5.18946 0
M  V30 4519 H 428.615 -0.589181 2.9793 0
M  V30 4520 H 426.2 -0.225091 1.47695 0
M  V30 4521 H 428.082 -3.0412 2.917 0
M  V30 4522 H 426.757 -2.71195 1.76733 0
M  V30 4523 H 425.664 -1.21663 3.53764 0
M  V30 4524 H 426.997 -1.61931 4.648 0
M  V30 4525 N 428.649 -1.55105 -0.279332 0
M  V30 4526 C 429.877 -1.7943 -1.03017 0
M  V30 4527 C 430.292 -0.564456 -1.80165 0
M  V30 4528 O 429.649 0.466326 -1.76442 0
M  V30 4529 C 429.7 -3.0155 -1.99374 0
M  V30 4530 O 429.421 -4.19784 -1.25352 0
M  V30 4531 C 430.922 -3.3843 -2.86321 0
M  V30 4532 H 428.142 -0.597882 -0.304594 0
M  V30 4533 H 430.686 -2.02105 -0.312035 0
M  V30 4534 H 428.841 -2.81019 -2.66659 0
M  V30 4535 H 429.255 -4.88781 -1.90246 0
M  V30 4536 H 430.729 -4.27066 -3.49741 0
M  V30 4537 H 431.206 -2.57549 -3.5576 0
M  V30 4538 H 431.812 -3.61197 -2.24536 0
M  V30 4539 N 430.127 0.543554 -1.4793 0
M  V30 4540 C 431.373 1.30201 -1.55485 0
M  V30 4541 C 431.706 1.92925 -0.222201 0
M  V30 4542 O 430.981 1.78586 0.77053 0
M  V30 4543 C 431.264 2.40174 -2.68307 0
M  V30 4544 C 431.117 1.8223 -4.11233 0
M  V30 4545 C 432.436 3.42024 -2.76961 0
M  V30 4546 H 429.555 0.472036 -0.565996 0
M  V30 4547 H 432.197 0.606914 -1.80046 0
M  V30 4548 H 430.347 2.99463 -2.47495 0
M  V30 4549 H 432.019 1.27096 -4.43446 0
M  V30 4550 H 430.262 1.12832 -4.18869 0
M  V30 4551 H 430.933 2.61793 -4.85972 0
M  V30 4552 H 433.409 2.92672 -2.95774 0
M  V30 4553 H 432.285 4.16383 -3.57654 0
M  V30 4554 H 432.546 4.0173 -1.84568 0
M  V30 4555 N 431.605 1.3629 0.791371 0
M  V30 4556 C 432.835 1.33368 1.57786 0
M  V30 4557 C 433.243 -0.0875188 1.88997 0
M  V30 4558 O 432.586 -1.05427 1.50435 0
M  V30 4559 C 432.648 2.08802 2.92646 0
M  V30 4560 C 432.312 3.57903 2.84174 0
M  V30 4561 C 433.309 4.52191 2.56553 0
M  V30 4562 C 430.994 4.00762 3.02812 0
M  V30 4563 C 432.988 5.87315 2.47669 0
M  V30 4564 C 430.675 5.35977 2.93551 0
M  V30 4565 C 431.673 6.29066 2.66017 0
M  V30 4566 O 431.361 7.61798 2.56746 0
M  V30 4567 H 431.093 0.459166 0.496128 0
M  V30 4568 H 433.647 1.79952 0.990269 0
M  V30 4569 H 431.877 1.56878 3.53449 0
M  V30 4570 H 433.566 1.98762 3.53904 0
M  V30 4571 H 434.332 4.20393 2.41858 0
M  V30 4572 H 430.211 3.2868 3.2325 0
M  V30 4573 H 433.755 6.59943 2.26099 0
M  V30 4574 H 429.652 5.67384 3.07808 0
M  V30 4575 H 430.42 7.71898 2.72242 0
M  V30 4576 O 433.122 -0.93083 1.31977 0
M  V30 4577 H 433.813 -1.56227 1.14512 0
M  V30 END ATOM
M  V30 BEGIN BOND
M  V30 END BOND
M  V30 END CTAB
M  END
$$$$
