drugbank_target|Q9HU21 dTDP-4-dehydrorhamnose 3,5-epimerase (DB01694)
 OpenBabel12092120223D

  0  0  0     0  0            999 V3000
M  V30 BEGIN CTAB
M  V30 COUNTS 2880 2923 0 0 0
M  V30 BEGIN ATOM
M  V30 1 H -0.908 1.98254 -0.117106 0
M  V30 2 N 0 1.576 0 0
M  V30 3 C 0.933 2.03868 1.02534 0
M  V30 4 C 1.911 0.928543 1.3348 0
M  V30 5 O 3.095 1.19667 1.45644 0
M  V30 6 C 0.222 2.43627 2.35294 0
M  V30 7 C -0.732 3.65373 2.2001 0
M  V30 8 S 0.101 5.13292 1.52614 0
M  V30 9 C 1.257 5.56322 2.86805 0
M  V30 10 H 1.49 2.90518 0.631377 0
M  V30 11 H -0.977 1.52953 0.210867 0
M  V30 12 H 0.981 2.67203 3.11629 0
M  V30 13 H -0.358 1.57376 2.7183 0
M  V30 14 H -1.165 3.90944 3.18086 0
M  V30 15 H -1.563 3.418 1.51819 0
M  V30 16 H 0.729 5.58782 3.83104 0
M  V30 17 H 1.672 6.56266 2.65933 0
M  V30 18 H 2.08 4.83886 2.90714 0
M  V30 19 N 1.4781 -0.272755 1.55222 0
M  V30 20 C 2.4251 -1.33716 1.88119 0
M  V30 21 C 3.3951 -1.49066 0.73271 0
M  V30 22 O 4.5801 -1.63469 0.984002 0
M  V30 23 C 1.7201 -2.69238 2.15882 0
M  V30 24 C 0.8331 -2.62108 3.43399 0
M  V30 25 C -0.0319 -3.89811 3.60861 0
M  V30 26 C -0.9929 -3.77193 4.8207 0
M  V30 27 N -1.8559 -4.9673 4.96189 0
M  V30 28 H 2.9841 -1.04962 2.78903 0
M  V30 29 H 0.5211 -0.507088 1.38083 0
M  V30 30 H 2.4791 -3.48089 2.29978 0
M  V30 31 H 1.1091 -2.96194 1.28331 0
M  V30 32 H 0.1611 -1.74967 3.37773 0
M  V30 33 H 1.4731 -2.48685 4.32386 0
M  V30 34 H 0.6271 -4.77103 3.74777 0
M  V30 35 H -0.6339 -4.06102 2.7006 0
M  V30 36 H -1.6289 -2.88284 4.68159 0
M  V30 37 H -0.4039 -3.62421 5.74307 0
M  V30 38 H -2.4579 -5.13431 4.08319 0
M  V30 39 H -2.5409 -4.85839 5.79221 0
M  V30 40 H -1.2729 -5.85594 5.1449 0
M  V30 41 N 2.9562 -1.48159 -0.537278 0
M  V30 42 C 3.9192 -1.61665 -1.62472 0
M  V30 43 C 4.9192 -0.490395 -1.5314 0
M  V30 44 O 6.1092 -0.755998 -1.5694 0
M  V30 45 C 3.2412 -1.57997 -3.02076 0
M  V30 46 H 4.4342 -2.58621 -1.51839 0
M  V30 47 H 1.9872 -1.36647 -0.758771 0
M  V30 48 H 2.7222 -0.624913 -3.18222 0
M  V30 49 H 2.5072 -2.39755 -3.10258 0
M  V30 50 H 3.9972 -1.70627 -3.81151 0
M  V30 51 N 4.4343 0.785586 -1.36625 0
M  V30 52 C 5.6623 1.57448 -1.3423 0
M  V30 53 C 6.0773 1.88649 0.0755653 0
M  V30 54 O 5.4343 1.50414 1.03354 0
M  V30 55 C 5.4853 2.89316 -2.16745 0
M  V30 56 O 5.2063 2.59459 -3.53005 0
M  V30 57 C 6.7073 3.83606 -2.22174 0
M  V30 58 H 3.9273 0.488226 -0.4603 0
M  V30 59 H 6.4713 0.974733 -1.79775 0
M  V30 60 H 4.6263 3.4575 -1.74745 0
M  V30 61 H 5.0403 3.43804 -3.96105 0
M  V30 62 H 6.5143 4.73181 -2.8426 0
M  V30 63 H 6.9913 4.21734 -1.22627 0
M  V30 64 H 7.5973 3.33104 -2.64427 0
M  V30 65 N 5.9124 1.20967 1.01018 0
M  V30 66 C 7.3284 0.965905 1.27053 0
M  V30 67 C 7.5284 -0.350785 1.98423 0
M  V30 68 O 6.5844 -1.07773 2.28344 0
M  V30 69 C 7.8974 2.15294 2.09926 0
M  V30 70 C 9.4454 2.19463 2.23171 0
M  V30 71 C 9.9204 3.3767 3.09424 0
M  V30 72 N 11.4114 3.37724 3.17012 0
M  V30 73 C 12.1464 4.25837 3.83993 0
M  V30 74 N 11.6424 5.24138 4.53047 0
M  V30 75 N 13.4354 4.1366 3.80581 0
M  V30 76 H 5.5864 2.0565 0.531194 0
M  V30 77 H 7.8494 0.90024 0.297106 0
M  V30 78 H 7.5554 3.10684 1.64828 0
M  V30 79 H 7.4294 2.13923 3.10672 0
M  V30 80 H 9.8164 1.24632 2.6749 0
M  V30 81 H 9.8974 2.2488 1.21912 0
M  V30 82 H 9.5414 4.32791 2.65808 0
M  V30 83 H 9.4714 3.29491 4.10784 0
M  V30 84 H 11.9624 2.6658 2.6785 0
M  V30 85 H 12.2754 5.87684 5.01844 0
M  V30 86 H 10.6204 5.28068 4.5185 0
M  V30 87 H 13.8114 3.36127 3.25785 0
M  V30 88 H 13.9844 4.82538 4.32505 0
M  V30 89 N 7.3905 -1.2043 1.01659 0
M  V30 90 C 8.3205 -2.25466 0.607226 0
M  V30 91 C 9.3015 -1.65853 -0.377716 0
M  V30 92 O 10.4865 -1.92409 -0.263149 0
M  V30 93 C 7.6165 -3.47256 -0.0552949 0
M  V30 94 C 6.5705 -4.19462 0.850632 0
M  V30 95 C 5.8965 -5.34673 0.0538859 0
M  V30 96 C 7.1965 -4.75603 2.15868 0
M  V30 97 H 8.8905 -2.59962 1.48526 0
M  V30 98 H 6.4365 -1.2496 0.715605 0
M  V30 99 H 8.3895 -4.19917 -0.353233 0
M  V30 100 H 7.1135 -3.11924 -0.968045 0
M  V30 101 H 5.7725 -3.48667 1.13257 0
M  V30 102 H 5.4205 -4.95585 -0.860514 0
M  V30 103 H 5.1205 -5.83913 0.657192 0
M  V30 104 H 6.6445 -6.10138 -0.237598 0
M  V30 105 H 8.0585 -5.40083 1.92311 0
M  V30 106 H 6.4555 -5.3528 2.71284 0
M  V30 107 H 7.5255 -3.94346 2.82169 0
M  V30 108 N 8.8686 -0.792821 -1.36206 0
M  V30 109 C 9.8316 -0.199459 -2.2833 0
M  V30 110 C 10.8316 0.605189 -1.48977 0
M  V30 111 O 12.0216 0.425685 -1.68919 0
M  V30 112 C 9.1536 0.723523 -3.33134 0
M  V30 113 H 10.3466 -1.01181 -2.82316 0
M  V30 114 H 7.8996 -0.562485 -1.45828 0
M  V30 115 H 8.6346 1.56008 -2.84309 0
M  V30 116 H 8.4196 0.148436 -3.91819 0
M  V30 117 H 9.9096 1.13344 -4.01924 0
M  V30 118 N 10.3467 1.47872 -0.545128 0
M  V30 119 C 11.5957 2.01695 -0.0145033 0
M  V30 120 C 11.9087 1.42609 1.33873 0
M  V30 121 O 13.1147 1.88021 1.95858 0
M  V30 122 C 11.5707 3.59892 0.0245068 0
M  V30 123 C 11.1787 4.27966 -1.32475 0
M  V30 124 C 12.9227 4.21507 0.50316 0
M  V30 125 C 10.8297 5.78136 -1.2455 0
M  V30 126 H 9.7597 0.753998 -0.00165172 0
M  V30 127 H 12.4107 1.69985 -0.691175 0
M  V30 128 H 10.7927 3.88509 0.766575 0
M  V30 129 H 11.9667 4.11003 -2.08357 0
M  V30 130 H 10.2817 3.78286 -1.74036 0
M  V30 131 H 12.8787 5.31538 0.580656 0
M  V30 132 H 13.2217 3.87855 1.51243 0
M  V30 133 H 13.7547 3.97376 -0.183681 0
M  V30 134 H 10.4937 6.16388 -2.23039 0
M  V30 135 H 10.0137 5.97469 -0.528282 0
M  V30 136 H 11.6927 6.40099 -0.942488 0
M  V30 137 N 11.8248 0.280983 1.55075 0
M  V30 138 C 13.2358 -0.215629 1.85451 0
M  V30 139 C 13.5868 -1.54991 1.203 0
M  V30 140 O 12.7118 -2.10699 0.493435 0
M  V30 141 C 13.3068 -0.398026 3.36454 0
M  V30 142 C 11.8658 -0.838866 3.66933 0
M  V30 143 C 11.0128 0.064458 2.77225 0
M  V30 144 H 13.9638 0.502601 1.50531 0
M  V30 145 H 13.9848 -1.23569 3.59876 0
M  V30 146 H 13.4968 0.573241 3.83843 0
M  V30 147 H 11.5978 -1.8214 3.25048 0
M  V30 148 H 11.7108 -0.672123 4.74362 0
M  V30 149 H 10.0748 -0.452863 2.50642 0
M  V30 150 H 10.8578 1.03172 3.2743 0
M  V30 151 N 13.3029 -1.57598 0.00835791 0
M  V30 152 C 14.5799 -1.82172 -0.712235 0
M  V30 153 C 14.9599 -0.887873 -1.9152 0
M  V30 154 O 14.3079 0.06146 -2.28417 0
M  V30 155 C 14.5179 -3.30875 -1.11008 0
M  V30 156 C 15.8659 -3.96826 -1.51044 0
M  V30 157 O 16.8899 -3.35248 -1.20364 0
M  V30 158 O 15.7489 -5.05318 -2.08125 0
M  V30 159 H 12.8429 -0.750435 -0.347529 0
M  V30 160 H 15.3889 -1.69665 0.0344523 0
M  V30 161 H 14.1609 -3.90481 -0.252982 0
M  V30 162 H 13.7839 -3.48412 -1.9156 0
M  V30 163 N 14.781 0.264519 -1.55364 0
M  V30 164 C 16.027 0.99646 -1.76631 0
M  V30 165 C 16.36 1.85632 -0.570478 0
M  V30 166 O 15.635 1.89647 0.43175 0
M  V30 167 C 15.918 1.87187 -3.07625 0
M  V30 168 C 15.771 1.04138 -4.37579 0
M  V30 169 C 17.09 2.85749 -3.34717 0
M  V30 170 H 14.209 0.360841 -0.642622 0
M  V30 171 H 16.851 0.268218 -1.88097 0
M  V30 172 H 15.001 2.49279 -2.9798 0
M  V30 173 H 16.673 0.440517 -4.59192 0
M  V30 174 H 14.916 0.345115 -4.32425 0
M  V30 175 H 15.587 1.68729 -5.2558 0
M  V30 176 H 18.063 2.33793 -3.4421 0
M  V30 177 H 16.939 3.44136 -4.27623 0
M  V30 178 H 17.2 3.61311 -2.54768 0
M  V30 179 N 16.2591 1.48442 0.529413 0
M  V30 180 C 17.5081 1.55742 1.28169 0
M  V30 181 C 17.8211 0.236511 1.94165 0
M  V30 182 O 19.0271 0.187761 2.7085 0
M  V30 183 C 17.4831 2.74667 2.32564 0
M  V30 184 C 17.0911 4.13402 1.72636 0
M  V30 185 C 18.8351 2.9128 3.08798 0
M  V30 186 C 16.7421 5.23587 2.74975 0
M  V30 187 H 15.6721 0.579796 0.48203 0
M  V30 188 H 18.3231 1.74776 0.559056 0
M  V30 189 H 16.7051 2.49067 3.07866 0
M  V30 190 H 17.8791 4.49022 1.03519 0
M  V30 191 H 16.1941 4.0191 1.08892 0
M  V30 192 H 18.7911 3.70767 3.85274 0
M  V30 193 H 19.1341 2.00757 3.64695 0
M  V30 194 H 19.6671 3.16782 2.40611 0
M  V30 195 H 16.4061 6.16076 2.23897 0
M  V30 196 H 15.9261 4.92454 3.42417 0
M  V30 197 H 17.6051 5.51724 3.37949 0
M  V30 198 N 17.7372 -0.778329 1.37039 0
M  V30 199 C 18.6672 -1.90546 1.34962 0
M  V30 200 C 19.6482 -1.68681 0.219274 0
M  V30 201 O 20.8332 -1.89634 0.418624 0
M  V30 202 C 17.9632 -3.27734 1.14925 0
M  V30 203 C 16.9172 -3.64147 2.24902 0
M  V30 204 C 16.2432 -4.99806 1.89996 0
M  V30 205 C 17.5432 -3.71579 3.67051 0
M  V30 206 H 19.2372 -1.92541 2.29277 0
M  V30 207 H 16.7832 -0.924948 1.10366 0
M  V30 208 H 18.7362 -4.06215 1.12104 0
M  V30 209 H 17.4602 -3.26154 0.170631 0
M  V30 210 H 16.1192 -2.8797 2.26868 0
M  V30 211 H 15.7672 -4.94759 0.906796 0
M  V30 212 H 15.4672 -5.25139 2.63634 0
M  V30 213 H 16.9912 -5.80694 1.88749 0
M  V30 214 H 18.4052 -4.40227 3.67251 0
M  V30 215 H 16.8022 -4.08405 4.39688 0
M  V30 216 H 17.8722 -2.72404 4.01154 0
M  V30 217 N 19.2153 -1.21501 -1.00376 0
M  V30 218 C 20.4623 -1.03299 -1.74171 0
M  V30 219 C 20.7903 0.433326 -1.89612 0
M  V30 220 O 20.0453 1.33779 -1.42834 0
M  V30 221 C 20.3443 -1.67673 -3.15627 0
M  V30 222 C 20.0103 -3.17533 -3.2013 0
M  V30 223 C 18.6723 -3.58427 -3.21067 0
M  V30 224 C 21.0243 -4.13504 -3.17275 0
M  V30 225 C 18.3523 -4.93794 -3.16835 0
M  V30 226 C 20.7043 -5.48834 -3.14585 0
M  V30 227 C 19.3683 -5.89123 -3.13831 0
M  V30 228 H 18.6383 -0.377999 -0.637336 0
M  V30 229 H 21.2853 -1.51111 -1.17634 0
M  V30 230 H 19.5903 -1.12158 -3.75404 0
M  V30 231 H 21.2873 -1.51091 -3.71446 0
M  V30 232 H 17.8773 -2.84965 -3.20145 0
M  V30 233 H 22.0613 -3.82936 -3.15711 0
M  V30 234 H 17.3173 -5.24255 -3.1459 0
M  V30 235 H 21.4913 -6.22934 -3.1133 0
M  V30 236 H 19.1183 -6.93984 -3.10307 0
M  V30 237 N 20.6934 1.19889 -1.02296 0
M  V30 238 C 21.6034 2.26571 -0.608508 0
M  V30 239 C 22.6194 1.70299 0.356964 0
M  V30 240 O 23.7954 2.00235 0.216326 0
M  V30 241 C 20.8604 3.46677 0.0402814 0
M  V30 242 C 19.9214 4.18153 -0.97194 0
M  V30 243 C 19.1544 5.32525 -0.354016 0
M  V30 244 O 19.3774 5.64112 0.844604 0
M  V30 245 O 18.3114 5.92242 -1.07391 0
M  V30 246 H 22.1374 2.64251 -1.49684 0
M  V30 247 H 19.7224 1.26629 -0.792809 0
M  V30 248 H 21.6044 4.19475 0.402324 0
M  V30 249 H 20.2794 3.10858 0.902707 0
M  V30 250 H 19.1864 3.47499 -1.38546 0
M  V30 251 H 20.5194 4.57927 -1.80454 0
M  V30 252 N 22.1715 0.800033 1.35784 0
M  V30 253 C 23.5825 0.439142 1.81462 0
M  V30 254 C 23.9335 -1.03813 1.66485 0
M  V30 255 O 23.0585 -1.80626 1.19177 0
M  V30 256 C 23.6535 0.790314 3.29453 0
M  V30 257 C 22.2125 0.482111 3.733 0
M  V30 258 C 21.3595 1.01938 2.57883 0
M  V30 259 H 24.3105 0.992254 1.23855 0
M  V30 260 H 24.3315 0.0853677 3.80404 0
M  V30 261 H 23.8435 1.86554 3.40322 0
M  V30 262 H 21.9445 -0.584652 3.67984 0
M  V30 263 H 22.0575 1.01015 4.6833 0
M  V30 264 H 20.4215 0.442043 2.50835 0
M  V30 265 H 21.2045 2.10059 2.71533 0
M  V30 266 N 23.6496 -1.47581 0.552962 0
M  V30 267 C 25.0656 -1.5818 0.212424 0
M  V30 268 C 25.2656 -1.55213 -1.28496 0
M  V30 269 O 24.3216 -1.45329 -2.06484 0
M  V30 270 C 25.6346 -2.88865 0.835318 0
M  V30 271 C 27.1826 -3.0244 0.806156 0
M  V30 272 C 27.6576 -4.35819 1.40804 0
M  V30 273 N 29.1486 -4.42444 1.37103 0
M  V30 274 C 29.8836 -5.44202 1.80641 0
M  V30 275 N 29.3796 -6.52795 2.32015 0
M  V30 276 N 31.1726 -5.35222 1.71738 0
M  V30 277 H 23.3236 -1.47753 1.52587 0
M  V30 278 H 25.5866 -0.702941 0.636064 0
M  V30 279 H 25.2926 -2.9676 1.88749 0
M  V30 280 H 25.1666 -3.7579 0.325848 0
M  V30 281 H 27.5536 -2.94144 -0.237317 0
M  V30 282 H 27.6346 -2.17068 1.35334 0
M  V30 283 H 27.2786 -4.44871 2.45056 0
M  V30 284 H 27.2086 -5.19916 0.836338 0
M  V30 285 H 29.6996 -3.6456 0.995202 0
M  V30 286 H 30.0126 -7.26609 2.63171 0
M  V30 287 H 28.3576 -6.53696 2.36023 0
M  V30 288 H 31.5486 -4.49284 1.31382 0
M  V30 289 H 31.7216 -6.14389 2.05987 0
M  V30 290 N 25.1277 -0.289203 -1.54924 0
M  V30 291 C 26.3737 0.323998 -2.00195 0
M  V30 292 C 26.7067 1.54441 -1.17735 0
M  V30 293 O 25.9817 1.92875 -0.250878 0
M  V30 294 C 26.2647 0.692276 -3.53383 0
M  V30 295 C 26.1177 -0.536457 -4.46589 0
M  V30 296 C 27.4367 1.52335 -4.12895 0
M  V30 297 H 24.5557 0.116289 -0.727768 0
M  V30 298 H 27.1977 -0.398954 -1.85764 0
M  V30 299 H 25.3477 1.30822 -3.65811 0
M  V30 300 H 27.0197 -1.17499 -4.46085 0
M  V30 301 H 25.2627 -1.17192 -4.1767 0
M  V30 302 H 25.9337 -0.234806 -5.515 0
M  V30 303 H 28.4097 1.00302 -4.0383 0
M  V30 304 H 27.2857 1.74982 -5.20262 0
M  V30 305 H 27.5467 2.50886 -3.64018 0
M  V30 306 N 26.6058 1.57591 -0.0167156 0
M  V30 307 C 27.8528 1.91283 0.664597 0
M  V30 308 C 28.1808 0.891949 1.72842 0
M  V30 309 O 27.4358 -0.100931 1.9544 0
M  V30 310 C 27.7348 3.3172 1.33029 0
M  V30 311 C 27.4008 4.4914 0.398047 0
M  V30 312 C 26.0628 4.80992 0.141421 0
M  V30 313 C 28.4148 5.20634 -0.242825 0
M  V30 314 C 25.7428 5.81703 -0.764092 0
M  V30 315 C 28.0948 6.22311 -1.13632 0
M  V30 316 C 26.7588 6.52611 -1.40196 0
M  V30 317 H 26.0288 0.699956 0.243193 0
M  V30 318 H 28.6758 1.9135 -0.0758267 0
M  V30 319 H 26.9808 3.27856 2.14517 0
M  V30 320 H 28.6778 3.55055 1.86379 0
M  V30 321 H 25.2678 4.24262 0.608238 0
M  V30 322 H 29.4518 4.96267 -0.0576019 0
M  V30 323 H 24.7078 6.03532 -0.977732 0
M  V30 324 H 28.8818 6.76834 -1.63917 0
M  V30 325 H 26.5088 7.30467 -2.10529 0
M  V30 326 N 28.0839 -0.256276 1.55502 0
M  V30 327 C 29.3319 -0.983672 1.76545 0
M  V30 328 C 29.6529 -1.86206 0.578982 0
M  V30 329 O 28.9229 -1.91656 -0.405577 0
M  V30 330 H 27.5029 -0.366191 0.651086 0
M  V30 331 H 30.1649 -0.276479 1.92929 0
M  V30 332 H 29.2609 -1.61087 2.67315 0
M  V30 333 N 29.562 -1.4872 -0.521534 0
M  V30 334 C 30.839 -1.4766 -1.2828 0
M  V30 335 C 31.219 -0.19292 -2.10217 0
M  V30 336 O 30.567 0.825193 -2.13079 0
M  V30 337 C 30.777 -2.74358 -2.15705 0
M  V30 338 C 32.125 -3.23028 -2.75569 0
M  V30 339 O 33.149 -2.75333 -2.25987 0
M  V30 340 O 32.008 -4.0604 -3.65778 0
M  V30 341 H 29.102 -0.590085 -0.579421 0
M  V30 342 H 31.648 -1.60963 -0.537492 0
M  V30 343 H 30.42 -3.59292 -1.54999 0
M  V30 344 H 30.043 -2.63816 -2.97467 0
M  V30 345 N 31.0401 0.771051 -1.3745 0
M  V30 346 C 32.3171 1.519 -1.23231 0
M  V30 347 C 32.6971 2.10383 0.173809 0
M  V30 348 O 32.0451 1.95583 1.18151 0
M  V30 349 C 32.2551 2.59933 -2.32886 0
M  V30 350 C 33.6031 3.27316 -2.70461 0
M  V30 351 O 34.6271 2.70228 -2.32068 0
M  V30 352 O 33.4861 4.30531 -3.36608 0
M  V30 353 H 30.5801 0.672803 -0.480901 0
M  V30 354 H 33.1261 0.807957 -1.49232 0
M  V30 355 H 31.8981 2.14842 -3.27045 0
M  V30 356 H 31.5211 3.38637 -2.08353 0
M  V30 357 N 32.5182 1.22032 0.997298 0
M  V30 358 C 33.9342 0.979326 1.26021 0
M  V30 359 C 34.1342 -0.32972 1.98784 0
M  V30 360 O 33.1902 -1.05345 2.29475 0
M  V30 361 C 34.5032 2.17509 2.07631 0
M  V30 362 C 36.0512 2.21817 2.2083 0
M  V30 363 C 36.5262 3.40933 3.05825 0
M  V30 364 N 38.0172 3.41067 3.13412 0
M  V30 365 C 38.7522 4.29885 3.79455 0
M  V30 366 N 38.2482 5.28914 4.47462 0
M  V30 367 N 40.0412 4.17673 3.76173 0
M  V30 368 H 32.1922 2.06202 0.509352 0
M  V30 369 H 34.4552 0.90334 0.287541 0
M  V30 370 H 34.1612 3.12415 1.61524 0
M  V30 371 H 34.0352 2.17206 3.08385 0
M  V30 372 H 36.4222 1.27462 2.66153 0
M  V30 373 H 36.5032 2.2616 1.1952 0
M  V30 374 H 36.1472 4.35586 2.61203 0
M  V30 375 H 36.0772 3.33829 4.07266 0
M  V30 376 H 38.5682 2.69406 2.65007 0
M  V30 377 H 38.8812 5.92973 4.95583 0
M  V30 378 H 37.2262 5.32831 4.46224 0
M  V30 379 H 40.4172 3.39564 3.22202 0
M  V30 380 H 40.5902 4.87098 4.27363 0
M  V30 381 N 33.9963 -1.19345 1.0293 0
M  V30 382 C 35.2443 -1.88665 0.724574 0
M  V30 383 C 35.5653 -1.80036 -0.749144 0
M  V30 384 O 34.8353 -1.2111 -1.53978 0
M  V30 385 H 33.4153 -0.698406 0.265025 0
M  V30 386 H 36.0773 -1.44885 1.30362 0
M  V30 387 H 35.1733 -2.94987 1.01926 0
M  V30 388 N 35.4744 -0.807222 -1.35358 0
M  V30 389 C 36.7214 -0.387888 -1.9875 0
M  V30 390 C 37.0494 1.04509 -1.64037 0
M  V30 391 O 36.3044 1.73986 -0.895946 0
M  V30 392 C 36.6034 -0.519036 -3.53611 0
M  V30 393 C 36.2694 -1.91542 -4.08194 0
M  V30 394 C 34.9314 -2.29745 -4.22813 0
M  V30 395 C 37.2834 -2.82896 -4.37744 0
M  V30 396 C 34.6114 -3.58668 -4.643 0
M  V30 397 C 36.9634 -4.11265 -4.8067 0
M  V30 398 C 35.6274 -4.49466 -4.93494 0
M  V30 399 H 34.8974 -0.141938 -0.727279 0
M  V30 400 H 37.5444 -1.02814 -1.6156 0
M  V30 401 H 35.8494 0.204658 -3.91265 0
M  V30 402 H 37.5464 -0.175345 -4.00616 0
M  V30 403 H 34.1364 -1.60862 -3.97268 0
M  V30 404 H 38.3204 -2.54629 -4.26002 0
M  V30 405 H 33.5764 -3.88113 -4.72418 0
M  V30 406 H 37.7504 -4.82153 -5.02496 0
M  V30 407 H 35.3774 -5.49418 -5.25399 0
M  V30 408 N 36.9525 1.47285 -0.560781 0
M  V30 409 C 38.1995 2.02464 -0.038062 0
M  V30 410 C 38.5275 1.43474 1.31322 0
M  V30 411 O 37.7825 0.581311 1.86867 0
M  V30 412 C 38.0815 3.57258 0.100784 0
M  V30 413 C 37.7475 4.35184 -1.18007 0
M  V30 414 C 36.4095 4.56194 -1.53103 0
M  V30 415 C 38.7615 4.80098 -2.02867 0
M  V30 416 C 36.0895 5.19367 -2.729 0
M  V30 417 C 38.4415 5.44593 -3.21871 0
M  V30 418 C 37.1055 5.63835 -3.57276 0
M  V30 419 H 36.3755 0.740869 -0.0139279 0
M  V30 420 H 39.0225 1.76916 -0.733012 0
M  V30 421 H 37.3275 3.81819 0.878724 0
M  V30 422 H 39.0245 3.97606 0.520639 0
M  V30 423 H 35.6145 4.19113 -0.8968 0
M  V30 424 H 39.7985 4.63642 -1.7706 0
M  V30 425 H 35.0545 5.32459 -3.00496 0
M  V30 426 H 39.2285 5.78358 -3.87911 0
M  V30 427 H 36.8555 6.12557 -4.50197 0
M  V30 428 N 38.4306 0.297415 1.54768 0
M  V30 429 C 39.6776 -0.312913 2.00068 0
M  V30 430 C 40.0056 -1.54171 1.18582 0
M  V30 431 O 39.2606 -1.94108 0.249133 0
M  V30 432 C 39.5596 -0.717561 3.50123 0
M  V30 433 C 39.2256 0.409095 4.4904 0
M  V30 434 C 37.8876 0.718399 4.75807 0
M  V30 435 C 40.2396 1.16717 5.07963 0
M  V30 436 C 37.5676 1.78896 5.5876 0
M  V30 437 C 39.9196 2.22762 5.92081 0
M  V30 438 C 38.5836 2.54303 6.1716 0
M  V30 439 H 37.8536 -0.114503 0.7321 0
M  V30 440 H 40.5006 0.415767 1.86932 0
M  V30 441 H 38.8056 -1.52627 3.60849 0
M  V30 442 H 40.5026 -1.20091 3.82595 0
M  V30 443 H 37.0926 0.157918 4.28309 0
M  V30 444 H 41.2766 0.941466 4.87289 0
M  V30 445 H 36.5326 2.0381 5.7643 0
M  V30 446 H 40.7066 2.81962 6.36765 0
M  V30 447 H 38.3336 3.3739 6.81229 0
M  V30 448 N 39.9087 -1.5758 0.0250728 0
M  V30 449 C 40.8187 -2.1343 -0.973905 0
M  V30 450 C 41.8347 -1.08556 -1.35984 0
M  V30 451 O 43.0107 -1.40592 -1.44207 0
M  V30 452 C 40.0757 -2.64703 -2.23904 0
M  V30 453 C 39.1367 -3.84276 -1.91391 0
M  V30 454 C 38.3697 -4.33095 -3.11873 0
M  V30 455 O 38.5927 -3.81107 -4.24398 0
M  V30 456 O 37.5267 -5.24984 -2.94406 0
M  V30 457 H 41.3527 -2.99057 -0.529036 0
M  V30 458 H 38.9377 -1.48118 -0.195288 0
M  V30 459 H 40.8197 -2.97769 -2.98181 0
M  V30 460 H 39.4947 -1.82161 -2.6758 0
M  V30 461 H 38.4017 -3.56143 -1.14511 0
M  V30 462 H 39.7347 -4.67968 -1.52534 0
M  V30 463 N 41.3868 0.248026 -1.55636 0
M  V30 464 C 42.6118 0.998028 -1.81808 0
M  V30 465 C 43.0368 1.78207 -0.601979 0
M  V30 466 O 42.3948 1.75653 0.448961 0
M  V30 467 C 42.4428 1.9125 -3.05705 0
M  V30 468 O 41.5468 3.00406 -2.82542 0
M  V30 469 H 40.8878 0.284045 -0.600179 0
M  V30 470 H 43.4178 0.269357 -2.02819 0
M  V30 471 H 43.4278 2.32737 -3.35108 0
M  V30 472 H 42.1028 1.33602 -3.93857 0
M  V30 473 H 40.6798 2.63056 -2.64303 0
M  V30 474 N 42.8649 1.48995 0.513639 0
M  V30 475 C 44.0949 1.61297 1.291 0
M  V30 476 C 44.5029 0.278656 1.87137 0
M  V30 477 O 43.8459 -0.744325 1.67945 0
M  V30 478 C 43.9079 2.61326 2.46879 0
M  V30 479 C 43.5719 4.05993 2.09807 0
M  V30 480 C 44.5689 4.93183 1.64519 0
M  V30 481 C 42.2539 4.51642 2.19829 0
M  V30 482 C 44.2479 6.24056 1.2974 0
M  V30 483 C 41.9349 5.82532 1.84662 0
M  V30 484 C 42.9329 6.68562 1.3969 0
M  V30 485 O 42.6209 7.97014 1.04992 0
M  V30 486 H 42.3529 0.546236 0.39825 0
M  V30 487 H 44.9069 1.95673 0.62459 0
M  V30 488 H 43.1369 2.22104 3.16554 0
M  V30 489 H 44.8259 2.6329 3.08923 0
M  V30 490 H 45.5919 4.59147 1.56233 0
M  V30 491 H 41.4709 3.84855 2.53786 0
M  V30 492 H 45.0149 6.91161 0.945659 0
M  V30 493 H 40.9119 6.16099 1.92594 0
M  V30 494 H 41.6799 8.09913 1.18249 0
M  V30 495 N 44.343 -0.763751 1.37857 0
M  V30 496 C 45.291 -1.89864 1.34367 0
M  V30 497 C 46.285 -1.67816 0.231143 0
M  V30 498 O 47.491 -1.75508 0.399617 0
M  V30 499 H 43.866 -0.624501 0.41893 0
M  V30 500 H 45.837 -1.89925 2.30155 0
M  V30 501 C 44.586 -3.27227 1.1755 0
M  V30 502 H 43.909 -3.44773 2.02414 0
M  V30 503 H 45.349 -4.06911 1.1916 0
M  V30 504 C 43.808 -3.36692 -0.118311 0
M  V30 505 O 44.338 -3.86374 -1.09902 0
M  V30 506 N 42.544 -2.90092 -0.171717 0
M  V30 507 H 42.091 -2.49853 0.627012 0
M  V30 508 H 42.049 -2.96806 -1.03699 0
M  V30 509 N 45.8211 -1.22559 -0.990812 0
M  V30 510 C 46.7531 -0.955325 -2.08342 0
M  V30 511 C 47.7661 0.0668408 -1.62663 0
M  V30 512 O 48.9551 -0.167421 -1.77713 0
M  V30 513 C 46.0551 -0.415566 -3.36342 0
M  V30 514 C 45.2281 -1.49544 -4.11042 0
M  V30 515 C 44.2871 -0.962399 -5.17324 0
M  V30 516 O 43.3131 -1.64907 -5.44788 0
M  V30 517 N 44.5151 0.215134 -5.80101 0
M  V30 518 H 47.2801 -1.89596 -2.32106 0
M  V30 519 H 44.8411 -1.13276 -1.15673 0
M  V30 520 H 46.8331 -0.0442386 -4.04676 0
M  V30 521 H 45.4031 0.430232 -3.09625 0
M  V30 522 H 44.6231 -2.04 -3.37309 0
M  V30 523 H 45.9111 -2.22195 -4.57719 0
M  V30 524 H 45.3091 0.789779 -5.6016 0
M  V30 525 H 43.8661 0.527826 -6.49659 0
M  V30 526 N 47.2992 1.18797 -1.03562 0
M  V30 527 C 48.7152 1.40671 -0.753917 0
M  V30 528 C 48.9152 1.9043 0.658686 0
M  V30 529 O 47.9712 2.08538 1.42366 0
M  V30 530 C 49.2842 2.41192 -1.79574 0
M  V30 531 C 50.8322 2.54928 -1.81606 0
M  V30 532 C 51.3072 3.58709 -2.84766 0
M  V30 533 N 52.7982 3.66212 -2.83625 0
M  V30 534 C 53.5332 4.46225 -3.60098 0
M  V30 535 N 53.0292 5.29888 -4.46308 0
M  V30 536 N 54.8222 4.40939 -3.4861 0
M  V30 537 H 46.9732 0.848221 -1.94728 0
M  V30 538 H 49.2362 0.435081 -0.842264 0
M  V30 539 H 48.9422 2.11669 -2.80872 0
M  V30 540 H 48.8162 3.40467 -1.62365 0
M  V30 541 H 51.2032 2.83771 -0.809817 0
M  V30 542 H 51.2842 1.55784 -2.02891 0
M  V30 543 H 50.9282 3.30607 -3.85566 0
M  V30 544 H 50.8582 4.57519 -2.60737 0
M  V30 545 H 53.3492 3.06466 -2.21105 0
M  V30 546 H 53.6622 5.88078 -5.01382 0
M  V30 547 H 52.0072 5.29326 -4.50377 0
M  V30 548 H 55.1982 3.74624 -2.80668 0
M  V30 549 H 55.3712 5.03056 -4.08459 0
M  V30 550 N 48.7773 0.814389 1.34928 0
M  V30 551 C 49.7403 0.235759 2.27984 0
M  V30 552 C 50.7403 -0.581412 1.49921 0
M  V30 553 O 51.9303 -0.398758 1.69575 0
M  V30 554 C 49.0623 -0.670433 3.34242 0
M  V30 555 H 50.2553 1.05659 2.80671 0
M  V30 556 H 47.8083 0.585614 1.44915 0
M  V30 557 H 48.5433 -1.51466 2.86755 0
M  V30 558 H 48.3283 -0.0860822 3.92005 0
M  V30 559 H 49.8183 -1.06935 4.03676 0
M  V30 560 N 50.2554 -1.46986 0.568584 0
M  V30 561 C 51.5024 -2.02441 0.0487986 0
M  V30 562 C 51.8304 -1.44169 -1.30559 0
M  V30 563 O 51.0854 -0.591213 -1.86556 0
M  V30 564 C 51.3844 -3.57306 -0.081836 0
M  V30 565 C 51.0504 -4.34552 1.20313 0
M  V30 566 C 49.7124 -4.55376 1.5552 0
M  V30 567 C 52.0644 -4.79016 2.05411 0
M  V30 568 C 49.3924 -5.17913 2.7565 0
M  V30 569 C 51.7444 -5.42879 3.24754 0
M  V30 570 C 50.4084 -5.61933 3.60261 0
M  V30 571 H 49.6784 -0.740785 0.0178567 0
M  V30 572 H 52.3254 -1.76525 0.742384 0
M  V30 573 H 50.6304 -3.8228 -0.858463 0
M  V30 574 H 52.3274 -3.97876 -0.499546 0
M  V30 575 H 48.9174 -4.18631 0.919014 0
M  V30 576 H 53.1014 -4.62696 1.79516 0
M  V30 577 H 48.3574 -5.30858 3.03315 0
M  V30 578 H 52.5314 -5.76293 3.90973 0
M  V30 579 H 50.1584 -6.10161 4.53439 0
M  V30 580 N 51.7335 -0.305618 -1.54608 0
M  V30 581 C 52.6435 0.57778 -2.27374 0
M  V30 582 C 53.6595 1.14451 -1.31061 0
M  V30 583 O 54.8355 1.16831 -1.6405 0
M  V30 584 C 51.9005 1.73123 -3.00382 0
M  V30 585 C 50.9615 1.19812 -4.12242 0
M  V30 586 C 50.1945 2.2966 -4.81759 0
M  V30 587 O 50.4175 3.49651 -4.50666 0
M  V30 588 O 49.3515 1.96091 -5.69062 0
M  V30 589 H 53.1775 -0.012624 -3.03697 0
M  V30 590 H 50.7625 -0.0719184 -1.49227 0
M  V30 591 H 52.6445 2.40315 -3.4616 0
M  V30 592 H 51.3195 2.30815 -2.26949 0
M  V30 593 H 50.2265 0.491798 -3.70853 0
M  V30 594 H 51.5595 0.666566 -4.87666 0
M  V30 595 N 53.2116 1.57565 -0.0334293 0
M  V30 596 C 54.1216 2.13943 0.962572 0
M  V30 597 C 55.1376 1.09276 1.35406 0
M  V30 598 O 56.3136 1.41355 1.4346 0
M  V30 599 C 53.3786 2.65887 2.22497 0
M  V30 600 C 52.4396 3.85286 1.8935 0
M  V30 601 C 51.6726 4.34743 3.09571 0
M  V30 602 O 51.8956 3.83352 4.22371 0
M  V30 603 O 50.8296 5.26538 2.91618 0
M  V30 604 H 54.6556 2.99333 0.513169 0
M  V30 605 H 52.2406 1.4822 0.18743 0
M  V30 606 H 54.1226 2.99346 2.96598 0
M  V30 607 H 52.7976 1.83578 2.6661 0
M  V30 608 H 51.7046 3.56746 1.1262 0
M  V30 609 H 53.0376 4.68771 1.5005 0
M  V30 610 N 54.6897 -0.239769 1.55765 0
M  V30 611 C 55.6527 -1.28038 1.90103 0
M  V30 612 C 56.6527 -1.40723 0.778055 0
M  V30 613 O 57.8427 -1.39301 1.04599 0
M  V30 614 C 54.9747 -2.65702 2.13577 0
M  V30 615 H 56.1677 -0.988048 2.83157 0
M  V30 616 H 53.7207 -0.479382 1.48767 0
M  V30 617 H 54.4557 -3.00063 1.23015 0
M  V30 618 H 54.2407 -2.57875 2.95369 0
M  V30 619 H 55.7307 -3.40828 2.41301 0
M  V30 620 N 56.1678 -1.49265 -0.50573 0
M  V30 621 C 57.4078 -1.60128 -1.27038 0
M  V30 622 C 57.7718 -0.279557 -1.89954 0
M  V30 623 O 58.9728 -0.263329 -2.67507 0
M  V30 624 C 57.2438 -2.72507 -2.31246 0
M  V30 625 S 58.8028 -3.0329 -3.17113 0
M  V30 626 H 55.6208 -0.564863 -0.4318 0
M  V30 627 H 58.2228 -1.86902 -0.573397 0
M  V30 628 H 56.9268 -3.67068 -1.83546 0
M  V30 629 H 56.4578 -2.4771 -3.05619 0
M  V30 630 H 58.4728 -2.44448 -4.31809 0
M  V30 631 N 57.6459 0.756429 -1.3826 0
M  V30 632 C 58.8939 1.51248 -1.34047 0
M  V30 633 C 59.2149 1.94875 0.0698372 0
M  V30 634 O 58.4849 1.67436 1.01696 0
M  V30 635 H 57.0649 0.561018 -0.493222 0
M  V30 636 H 59.7269 0.899347 -1.7291 0
M  V30 637 H 58.8229 2.40472 -1.98947 0
M  V30 638 N 59.124 1.23083 0.984299 0
M  V30 639 C 60.074 0.975749 2.06066 0
M  V30 640 C 61.058 -0.0768251 1.60716 0
M  V30 641 O 62.25 0.134805 1.76486 0
M  V30 642 C 59.379 0.564673 3.38624 0
M  V30 643 C 58.465 1.65244 3.90583 0
M  V30 644 N 58.856 2.88193 4.15666 0
M  V30 645 C 57.154 1.52612 4.19077 0
M  V30 646 C 57.855 3.58593 4.58024 0
M  V30 647 N 56.831 2.86093 4.62225 0
M  V30 648 H 60.633 1.90957 2.23411 0
M  V30 649 H 58.147 1.12963 1.16675 0
M  V30 650 H 60.144 0.36322 4.15315 0
M  V30 651 H 58.804 -0.362147 3.22674 0
M  V30 652 H 59.815 3.24537 4.03604 0
M  V30 653 H 56.492 0.666121 4.12152 0
M  V30 654 H 57.882 4.63974 4.85982 0
M  V30 655 N 60.6021 -1.18246 1.0419 0
M  V30 656 C 62.0131 -1.69914 0.773698 0
M  V30 657 C 62.3641 -1.83085 -0.705297 0
M  V30 658 O 61.4891 -1.51123 -1.5489 0
M  V30 659 C 62.0841 -3.08619 1.39784 0
M  V30 660 C 60.6431 -3.57494 1.17792 0
M  V30 661 C 59.7901 -2.34013 1.48773 0
M  V30 662 H 62.7411 -1.02904 1.20816 0
M  V30 663 H 62.7621 -3.71958 0.801714 0
M  V30 664 H 62.2741 -2.99001 2.47426 0
M  V30 665 H 60.3751 -3.72406 0.120295 0
M  V30 666 H 60.4881 -4.40852 1.87581 0
M  V30 667 H 58.8521 -2.37986 0.907463 0
M  V30 668 H 59.6351 -2.27013 2.57527 0
M  V30 669 N 62.0802 -0.821533 -1.34494 0
M  V30 670 C 63.3262 -0.409552 -1.98622 0
M  V30 671 C 63.6592 1.0244 -1.64984 0
M  V30 672 O 62.9342 1.71325 -0.920758 0
M  V30 673 C 63.2172 -0.610458 -3.54888 0
M  V30 674 C 63.0702 -2.09043 -3.98273 0
M  V30 675 C 64.3892 -0.0455379 -4.40076 0
M  V30 676 H 61.5082 -0.15028 -0.721516 0
M  V30 677 H 64.1502 -1.03384 -1.59411 0
M  V30 678 H 62.3002 -0.079044 -3.8842 0
M  V30 679 H 63.9722 -2.68537 -3.75081 0
M  V30 680 H 62.2152 -2.58139 -3.48635 0
M  V30 681 H 62.8862 -2.18182 -5.07051 0
M  V30 682 H 65.3622 -0.499557 -4.1309 0
M  V30 683 H 64.2382 -0.215922 -5.48475 0
M  V30 684 H 64.4992 1.04939 -4.29465 0
M  V30 685 N 63.5583 1.46682 -0.576371 0
M  V30 686 C 64.7833 2.07304 -0.0630475 0
M  V30 687 C 65.2083 1.42329 1.2298 0
M  V30 688 O 64.5663 0.504865 1.74129 0
M  V30 689 C 64.6143 3.60472 0.095895 0
M  V30 690 O 63.7183 3.95927 1.15394 0
M  V30 691 H 63.0593 0.661288 -0.0599463 0
M  V30 692 H 65.5893 1.88417 -0.797511 0
M  V30 693 H 65.5993 4.06865 0.304071 0
M  V30 694 H 64.2743 4.07157 -0.84828 0
M  V30 695 H 62.8513 3.61252 0.924724 0
M  V30 696 N 65.0364 0.313813 1.54444 0
M  V30 697 C 66.2834 -0.291675 2.00388 0
M  V30 698 C 66.6114 -1.52904 1.2021 0
M  V30 699 O 65.8664 -1.93833 0.269707 0
M  V30 700 C 66.1654 -0.680386 3.50864 0
M  V30 701 C 65.8314 0.456699 4.48581 0
M  V30 702 C 64.4934 0.768824 4.75018 0
M  V30 703 C 66.8454 1.22098 5.06697 0
M  V30 704 C 64.1734 1.84812 5.56831 0
M  V30 705 C 66.5254 2.29029 5.89685 0
M  V30 706 C 65.1894 2.60834 6.14428 0
M  V30 707 H 64.4594 -0.106732 0.733273 0
M  V30 708 H 67.1064 0.43557 1.86481 0
M  V30 709 H 65.4114 -1.48791 3.62448 0
M  V30 710 H 67.1084 -1.16026 3.83847 0
M  V30 711 H 63.6984 0.203337 4.28117 0
M  V30 712 H 67.8824 0.993096 4.86263 0
M  V30 713 H 63.1384 2.09912 5.74236 0
M  V30 714 H 67.3124 2.887 6.33739 0
M  V30 715 H 64.9394 3.44596 6.77612 0
M  V30 716 N 66.5145 -1.57545 0.0417849 0
M  V30 717 C 67.7605 -1.92601 -0.635021 0
M  V30 718 C 68.0935 -0.919627 -1.71045 0
M  V30 719 O 67.3685 0.0557892 -1.9442 0
M  V30 720 C 67.6515 -3.38085 -1.23979 0
M  V30 721 C 67.5045 -4.49467 -0.173057 0
M  V30 722 C 68.8235 -3.83776 -2.15416 0
M  V30 723 H 65.9425 -0.700397 -0.229374 0
M  V30 724 H 68.5845 -1.89728 0.101633 0
M  V30 725 H 66.7345 -3.40664 -1.86762 0
M  V30 726 H 68.4065 -4.59018 0.458312 0
M  V30 727 H 66.6495 -4.30909 0.499996 0
M  V30 728 H 67.3205 -5.48323 -0.636054 0
M  V30 729 H 69.7965 -3.83013 -1.62605 0
M  V30 730 H 68.6725 -4.8624 -2.54679 0
M  V30 731 H 68.9335 -3.19998 -3.05047 0
M  V30 732 N 67.9926 0.231505 -1.5589 0
M  V30 733 C 68.9246 1.31006 -1.8807 0
M  V30 734 C 69.9376 1.43539 -0.768145 0
M  V30 735 O 71.1266 1.44614 -1.04638 0
M  V30 736 C 68.2266 2.68688 -2.06543 0
M  V30 737 C 67.3996 2.78228 -3.37502 0
M  V30 738 C 66.4586 3.96857 -3.4553 0
M  V30 739 O 65.4846 3.85662 -4.18633 0
M  V30 740 N 66.6866 5.1072 -2.75944 0
M  V30 741 H 69.4516 1.03731 -2.81176 0
M  V30 742 H 67.0126 0.421573 -1.56315 0
M  V30 743 H 69.0046 3.46412 -2.09239 0
M  V30 744 H 67.5746 2.88605 -1.20109 0
M  V30 745 H 66.7946 1.87059 -3.46991 0
M  V30 746 H 68.0826 2.81564 -4.23791 0
M  V30 747 H 67.4806 5.2271 -2.16311 0
M  V30 748 H 66.0376 5.86523 -2.84314 0
M  V30 749 N 69.4707 1.49531 0.497807 0
M  V30 750 C 70.7477 1.49682 1.25915 0
M  V30 751 C 71.1277 0.226339 2.09883 0
M  V30 752 O 70.4757 -0.791189 2.14365 0
M  V30 753 C 70.6857 2.77755 2.11313 0
M  V30 754 C 72.0337 3.27371 2.70395 0
M  V30 755 O 73.0577 2.78894 2.21578 0
M  V30 756 O 71.9167 4.11808 3.59272 0
M  V30 757 H 69.0107 0.599228 0.56996 0
M  V30 758 H 71.5567 1.61798 0.511816 0
M  V30 759 H 70.3287 3.61713 1.49264 0
M  V30 760 H 69.9517 2.68515 2.93233 0
M  V30 761 N 70.9488 -0.749086 1.3866 0
M  V30 762 C 71.8968 -1.88428 1.36373 0
M  V30 763 C 72.8908 -1.67561 0.248929 0
M  V30 764 O 74.0968 -1.75074 0.41821 0
M  V30 765 H 70.4718 -0.620023 0.42553 0
M  V30 766 H 72.4428 -1.87473 2.32156 0
M  V30 767 C 71.1918 -3.25961 1.21014 0
M  V30 768 H 70.5148 -3.42607 2.06059 0
M  V30 769 H 71.9548 -4.05625 1.23469 0
M  V30 770 C 70.4138 -3.36799 -0.0825941 0
M  V30 771 O 70.9438 -3.87517 -1.05797 0
M  V30 772 N 69.1498 -2.90258 -0.140939 0
M  V30 773 H 68.6968 -2.49174 0.653477 0
M  V30 774 H 68.6548 -2.97889 -1.00545 0
M  V30 775 N 72.4269 -1.23603 -0.977757 0
M  V30 776 C 73.3769 -0.986664 -2.05545 0
M  V30 777 C 74.3609 0.0683009 -1.60755 0
M  V30 778 O 75.5529 -0.144162 -1.76412 0
M  V30 779 C 72.6819 -0.582623 -3.3832 0
M  V30 780 C 71.7679 -1.67313 -3.89701 0
M  V30 781 N 72.1589 -2.90394 -4.14132 0
M  V30 782 C 70.4569 -1.54832 -4.18262 0
M  V30 783 C 71.1579 -3.61017 -4.56116 0
M  V30 784 N 70.1339 -2.8854 -4.60701 0
M  V30 785 H 73.9359 -1.92139 -2.22396 0
M  V30 786 H 71.4499 -1.1358 -1.16074 0
M  V30 787 H 73.4469 -0.38524 -4.15116 0
M  V30 788 H 72.1069 0.34503 -3.22862 0
M  V30 789 H 73.1179 -3.26673 -4.01877 0
M  V30 790 H 69.7949 -0.687969 -4.11793 0
M  V30 791 H 71.1849 -4.66544 -4.83514 0
M  V30 792 N 73.905 1.17692 -1.04816 0
M  V30 793 C 75.13 1.92327 -0.776207 0
M  V30 794 C 75.555 1.76082 0.661581 0
M  V30 795 O 74.913 1.076 1.45917 0
M  V30 796 C 74.961 3.41539 -1.15687 0
M  V30 797 O 74.065 4.11402 -0.286775 0
M  V30 798 H 73.406 0.599735 -0.284981 0
M  V30 799 H 75.936 1.49201 -1.4 0
M  V30 800 H 75.946 3.92269 -1.12202 0
M  V30 801 H 74.621 3.52684 -2.20425 0
M  V30 802 H 73.198 3.70939 -0.381903 0
M  V30 803 N 75.3831 0.828654 1.34056 0
M  V30 804 C 76.7991 0.515135 1.51058 0
M  V30 805 C 76.9991 -0.959581 1.77184 0
M  V30 806 O 76.0551 -1.74382 1.82612 0
M  V30 807 C 77.3681 1.37963 2.67183 0
M  V30 808 C 78.9161 1.37735 2.81066 0
M  V30 809 C 79.3911 2.22645 4.00241 0
M  V30 810 N 80.8821 2.203 4.07458 0
M  V30 811 C 81.6171 2.82744 4.98842 0
M  V30 812 N 81.1131 3.54201 5.9541 0
M  V30 813 N 82.9061 2.72268 4.91759 0
M  V30 814 H 75.0571 1.78343 1.15358 0
M  V30 815 H 77.3201 0.760304 0.566252 0
M  V30 816 H 77.0261 2.42714 2.54525 0
M  V30 817 H 76.9001 1.0484 3.62338 0
M  V30 818 H 79.2871 0.337593 2.93163 0
M  V30 819 H 79.3681 1.74859 1.86703 0
M  V30 820 H 79.0121 3.26674 3.88905 0
M  V30 821 H 78.9421 1.82869 4.93829 0
M  V30 822 H 81.4331 1.68327 3.38341 0
M  V30 823 H 81.7461 3.9908 6.61782 0
M  V30 824 H 80.0911 3.58308 5.95517 0
M  V30 825 H 83.2821 2.16014 4.15278 0
M  V30 826 H 83.4551 3.21219 5.62781 0
M  V30 827 N 76.8612 -1.46375 0.584142 0
M  V30 828 C 78.0862 -2.07268 0.0740405 0
M  V30 829 C 78.5112 -1.42979 -1.22223 0
M  V30 830 O 77.8692 -0.514092 -1.73859 0
M  V30 831 C 77.9172 -3.60518 -0.0767769 0
M  V30 832 O 77.0212 -3.96533 -1.13292 0
M  V30 833 H 76.3622 -0.660961 0.0634524 0
M  V30 834 H 78.8922 -1.87991 0.807492 0
M  V30 835 H 78.9022 -4.07021 -0.282489 0
M  V30 836 H 77.5772 -4.06702 0.86986 0
M  V30 837 H 76.1542 -3.61738 -0.905553 0
M  V30 838 N 78.3393 -0.321999 -1.54275 0
M  V30 839 C 79.3023 0.531975 -2.22941 0
M  V30 840 C 80.3023 1.04478 -1.22234 0
M  V30 841 O 81.4923 0.937452 -1.46825 0
M  V30 842 C 78.6243 1.73874 -2.93224 0
M  V30 843 H 79.8173 -0.0682612 -2.99822 0
M  V30 844 H 77.3703 -0.0730644 -1.56129 0
M  V30 845 H 78.1053 2.37825 -2.20476 0
M  V30 846 H 77.8903 1.37847 -3.6707 0
M  V30 847 H 79.3803 2.34496 -3.45545 0
M  V30 848 N 79.8174 1.5752 -0.0501392 0
M  V30 849 C 81.2334 1.56631 0.306402 0
M  V30 850 C 81.4334 1.0577 1.71508 0
M  V30 851 O 80.4894 0.713837 2.422 0
M  V30 852 C 81.8024 3.00393 0.135811 0
M  V30 853 C 83.3504 3.12315 0.206993 0
M  V30 854 C 83.8254 4.57954 0.064944 0
M  V30 855 N 85.3164 4.63041 0.121254 0
M  V30 856 C 86.0514 5.73389 0.0354381 0
M  V30 857 N 85.5474 6.92724 -0.102666 0
M  V30 858 N 87.3404 5.62026 0.090946 0
M  V30 859 H 79.4914 1.88903 -0.971046 0
M  V30 860 H 81.7544 0.869876 -0.376855 0
M  V30 861 H 81.4604 3.41635 -0.835384 0
M  V30 862 H 81.3344 3.66373 0.897275 0
M  V30 863 H 83.7214 2.70973 1.16866 0
M  V30 864 H 83.8024 2.49016 -0.585208 0
M  V30 865 H 83.4464 4.99981 -0.893394 0
M  V30 866 H 83.3764 5.19258 0.876277 0
M  V30 867 H 85.8674 3.77216 0.227284 0
M  V30 868 H 86.1804 7.72633 -0.160882 0
M  V30 869 H 84.5254 6.94864 -0.137737 0
M  V30 870 H 87.7164 4.67684 0.197388 0
M  V30 871 H 87.8894 6.47997 0.0206089 0
M  V30 872 N 81.2955 -0.223234 1.56011 0
M  V30 873 C 82.5435 -0.946003 1.78592 0
M  V30 874 C 82.8645 -1.84936 0.618349 0
M  V30 875 O 82.1345 -1.92473 -0.364833 0
M  V30 876 H 80.7145 -0.352298 0.658707 0
M  V30 877 H 83.3765 -0.235494 1.93472 0
M  V30 878 H 82.4725 -1.55381 2.70672 0
M  V30 879 N 82.7736 -1.49793 -0.48987 0
M  V30 880 C 84.0196 -1.60078 -1.24511 0
M  V30 881 C 84.3526 -0.291608 -1.91998 0
M  V30 882 O 83.6276 0.705647 -1.81248 0
M  V30 883 C 83.9106 -2.76791 -2.30345 0
M  V30 884 C 83.7636 -4.17535 -1.67286 0
M  V30 885 C 85.0826 -2.89111 -3.31817 0
M  V30 886 H 82.2016 -0.582645 -0.451324 0
M  V30 887 H 84.8436 -1.82117 -0.541612 0
M  V30 888 H 82.9936 -2.5813 -2.90346 0
M  V30 889 H 84.6656 -4.4774 -1.11026 0
M  V30 890 H 82.9086 -4.22665 -0.976577 0
M  V30 891 H 83.5796 -4.95094 -2.44103 0
M  V30 892 H 86.0556 -3.06133 -2.81819 0
M  V30 893 H 84.9316 -3.72433 -4.03219 0
M  V30 894 H 85.1926 -1.9893 -3.94815 0
M  V30 895 N 84.2517 0.741722 -1.39055 0
M  V30 896 C 85.1817 1.869 -1.39966 0
M  V30 897 C 86.1627 1.6804 -0.26392 0
M  V30 898 O 87.3477 1.88458 -0.468755 0
M  V30 899 C 84.4777 3.24572 -1.23574 0
M  V30 900 C 83.4317 3.58056 -2.34477 0
M  V30 901 C 82.7577 4.94593 -2.0318 0
M  V30 902 C 84.0577 3.61716 -3.76774 0
M  V30 903 H 85.7517 1.86395 -2.34302 0
M  V30 904 H 83.2977 0.895361 -1.1278 0
M  V30 905 H 85.2507 4.031 -1.22834 0
M  V30 906 H 83.9747 3.25587 -0.257045 0
M  V30 907 H 82.6337 2.81854 -2.34423 0
M  V30 908 H 82.2817 4.92181 -1.03765 0
M  V30 909 H 81.9817 5.17964 -2.77465 0
M  V30 910 H 83.5057 5.75486 -2.04079 0
M  V30 911 H 84.9197 4.30335 -3.78794 0
M  V30 912 H 83.3167 3.96603 -4.50362 0
M  V30 913 H 84.3867 2.61672 -4.08235 0
M  V30 914 N 85.7298 1.2412 0.971189 0
M  V30 915 C 87.1458 1.00584 1.23916 0
M  V30 916 C 87.3458 -0.287481 1.99439 0
M  V30 917 O 86.4018 -1.00454 2.31658 0
M  V30 918 C 87.7148 2.21864 2.0297 0
M  V30 919 C 89.2628 2.26452 2.16076 0
M  V30 920 C 89.7378 3.47343 2.98524 0
M  V30 921 N 91.2288 3.47639 3.06107 0
M  V30 922 C 91.9638 4.37837 3.70251 0
M  V30 923 N 91.4598 5.38286 4.36142 0
M  V30 924 N 93.2528 4.25558 3.67228 0
M  V30 925 H 85.4038 2.07236 0.465499 0
M  V30 926 H 87.6668 0.909236 0.268315 0
M  V30 927 H 87.3728 3.15771 1.54861 0
M  V30 928 H 87.2468 2.23698 3.03709 0
M  V30 929 H 89.6338 1.33078 2.6339 0
M  V30 930 H 89.7148 2.28645 1.14696 0
M  V30 931 H 89.3588 4.41029 2.51905 0
M  V30 932 H 89.2888 3.42393 4.00093 0
M  V30 933 H 91.7798 2.74966 2.59233 0
M  V30 934 H 92.0928 6.03352 4.82894 0
M  V30 935 H 90.4378 5.42176 4.34822 0
M  V30 936 H 93.6288 3.46322 3.14927 0
M  V30 937 H 93.8018 4.96054 4.16935 0
M  V30 938 N 87.2079 -1.17134 1.05439 0
M  V30 939 C 88.4559 -1.87085 0.764429 0
M  V30 940 C 88.7769 -1.81584 -0.710787 0
M  V30 941 O 88.0469 -1.24349 -1.51374 0
M  V30 942 H 86.6269 -0.692627 0.279779 0
M  V30 943 H 89.2889 -1.42087 1.33406 0
M  V30 944 H 88.3849 -2.92759 1.0816 0
M  V30 945 N 88.686 -0.835752 -1.33615 0
M  V30 946 C 89.616 -0.281739 -2.31794 0
M  V30 947 C 90.597 0.608833 -1.58831 0
M  V30 948 O 91.782 0.533035 -1.86741 0
M  V30 949 C 88.912 0.546612 -3.42971 0
M  V30 950 C 87.866 -0.247904 -4.27281 0
M  V30 951 C 87.192 0.704001 -5.30045 0
M  V30 952 C 88.492 -1.46324 -5.01385 0
M  V30 953 H 90.186 -1.10206 -2.78379 0
M  V30 954 H 87.732 -0.531388 -1.33837 0
M  V30 955 H 89.685 0.944467 -4.1068 0
M  V30 956 H 88.409 1.40011 -2.95067 0
M  V30 957 H 87.068 -0.627281 -3.61194 0
M  V30 958 H 86.716 1.55381 -4.78399 0
M  V30 959 H 86.416 0.176524 -5.87335 0
M  V30 960 H 87.94 1.09944 -6.0062 0
M  V30 961 H 89.354 -1.13871 -5.61877 0
M  V30 962 H 87.751 -1.92728 -5.6831 0
M  V30 963 H 88.821 -2.23467 -4.30338 0
M  V30 964 N 90.1641 1.46063 -0.591896 0
M  V30 965 C 91.1141 2.27458 0.157172 0
M  V30 966 C 92.0981 1.3641 0.853301 0
M  V30 967 O 93.2901 1.60517 0.74588 0
M  V30 968 C 90.4191 3.22956 1.16423 0
M  V30 969 C 89.5051 4.2149 0.469742 0
M  V30 970 N 89.8961 5.03519 -0.479839 0
M  V30 971 C 88.1941 4.40161 0.719319 0
M  V30 972 C 88.8951 5.74904 -0.886591 0
M  V30 973 N 87.8711 5.43097 -0.233731 0
M  V30 974 H 91.6731 2.88272 -0.572392 0
M  V30 975 H 89.1871 1.57024 -0.414375 0
M  V30 976 H 91.1841 3.79986 1.71513 0
M  V30 977 H 89.8441 2.63701 1.89451 0
M  V30 978 H 90.8551 5.1078 -0.855823 0
M  V30 979 H 87.5321 3.92046 1.43548 0
M  V30 980 H 88.9221 6.50844 -1.66888 0
M  V30 981 N 91.6422 0.330177 1.54103 0
M  V30 982 C 92.8722 -0.271784 2.04805 0
M  V30 983 C 93.2802 -1.45816 1.20559 0
M  V30 984 O 92.6232 -1.82247 0.2306 0
M  V30 985 C 92.6852 -0.763238 3.51305 0
M  V30 986 C 92.3492 0.301705 4.56003 0
M  V30 987 C 93.3462 1.13999 5.07248 0
M  V30 988 C 91.0312 0.451793 5.00264 0
M  V30 989 C 93.0252 2.11402 6.01322 0
M  V30 990 C 90.7122 1.42924 5.94151 0
M  V30 991 C 91.7102 2.25882 6.44567 0
M  V30 992 O 91.3982 3.21965 7.3661 0
M  V30 993 H 91.1302 -0.058693 0.673447 0
M  V30 994 H 93.6842 0.476395 1.99799 0
M  V30 995 H 91.9142 -1.56244 3.5373 0
M  V30 996 H 93.6032 -1.28427 3.85047 0
M  V30 997 H 94.3692 1.03505 4.73827 0
M  V30 998 H 90.2482 -0.184044 4.60632 0
M  V30 999 H 93.7922 2.76192 6.40596 0
M  V30 1000 H 89.6892 1.53479 6.26988 0
M  V30 1001 H 90.4572 3.17281 7.54503 0
M  V30 1002 N 93.1203 -1.57491 0.0584922 0
M  V30 1003 C 94.0523 -2.08916 -0.942694 0
M  V30 1004 C 95.0653 -1.0185 -1.27006 0
M  V30 1005 O 96.2543 -1.29398 -1.22957 0
M  V30 1006 C 93.3543 -2.52341 -2.26224 0
M  V30 1007 C 92.5273 -3.82827 -2.1157 0
M  V30 1008 C 91.5863 -4.12487 -3.26712 0
M  V30 1009 O 90.6123 -4.82295 -3.02292 0
M  V30 1010 N 91.8143 -3.64978 -4.5141 0
M  V30 1011 H 94.5793 -2.95437 -0.503722 0
M  V30 1012 H 92.1403 -1.61397 -0.12757 0
M  V30 1013 H 94.1323 -2.69254 -3.02133 0
M  V30 1014 H 92.7023 -1.7103 -2.61663 0
M  V30 1015 H 91.9223 -3.75425 -1.20208 0
M  V30 1016 H 93.2103 -4.68263 -1.99015 0
M  V30 1017 H 92.6083 -3.08558 -4.7414 0
M  V30 1018 H 91.1653 -3.87115 -5.2439 0
M  V30 1019 N 94.5984 0.214957 -1.56127 0
M  V30 1020 C 95.8474 0.936451 -1.78643 0
M  V30 1021 C 96.1604 1.85237 -0.628229 0
M  V30 1022 O 97.3664 2.613 -0.737186 0
M  V30 1023 C 95.8224 1.7154 -3.16389 0
M  V30 1024 C 95.4304 0.845299 -4.39953 0
M  V30 1025 C 97.1744 2.42772 -3.48227 0
M  V30 1026 C 95.0814 1.62198 -5.68723 0
M  V30 1027 H 94.0114 0.353401 -0.666051 0
M  V30 1028 H 96.6624 0.190169 -1.82512 0
M  V30 1029 H 95.0444 2.50484 -3.06715 0
M  V30 1030 H 96.2184 0.0959353 -4.607 0
M  V30 1031 H 94.5334 0.244789 -4.1568 0
M  V30 1032 H 97.1304 3.01394 -4.41663 0
M  V30 1033 H 97.4734 3.15984 -2.71035 0
M  V30 1034 H 98.0064 1.70813 -3.5926 0
M  V30 1035 H 94.7454 0.933011 -6.48826 0
M  V30 1036 H 94.2654 2.34579 -5.52026 0
M  V30 1037 H 95.9444 2.18095 -6.09133 0
M  V30 1038 N 96.0765 1.50051 0.48192 0
M  V30 1039 C 97.4925 1.37237 0.814756 0
M  V30 1040 C 97.6925 0.420109 1.97072 0
M  V30 1041 O 96.7485 -0.141246 2.52105 0
M  V30 1042 C 98.0615 2.78375 1.13701 0
M  V30 1043 C 99.6095 2.87213 1.2441 0
M  V30 1044 C 100.084 4.29161 1.59954 0
M  V30 1045 N 101.575 4.32061 1.66967 0
M  V30 1046 C 102.31 5.38879 1.95952 0
M  V30 1047 N 101.806 6.55918 2.23031 0
M  V30 1048 N 103.599 5.26312 1.97363 0
M  V30 1049 H 95.7505 2.10546 -0.28005 0
M  V30 1050 H 98.0135 0.945921 -0.0627454 0
M  V30 1051 H 97.7195 3.49845 0.360787 0
M  V30 1052 H 97.5935 3.14941 2.07586 0
M  V30 1053 H 99.9805 2.15969 2.01101 0
M  V30 1054 H 100.061 2.54204 0.285299 0
M  V30 1055 H 99.7055 5.00938 0.838067 0
M  V30 1056 H 99.6355 4.59648 2.56966 0
M  V30 1057 H 102.126 3.47661 1.48123 0
M  V30 1058 H 102.439 7.33139 2.44391 0
M  V30 1059 H 100.784 6.59112 2.20447 0
M  V30 1060 H 103.975 4.33876 1.75697 0
M  V30 1061 H 104.148 6.09649 2.19618 0
M  V30 1062 N 97.5546 -0.734337 1.39446 0
M  V30 1063 C 98.4866 -1.85861 1.34121 0
M  V30 1064 C 99.4996 -1.60871 0.249864 0
M  V30 1065 O 100.689 -1.71093 0.508865 0
M  V30 1066 C 97.7886 -3.21899 1.05991 0
M  V30 1067 C 96.9616 -3.74239 2.26415 0
M  V30 1068 C 96.0206 -4.88841 1.94733 0
M  V30 1069 O 95.0466 -5.02468 2.67422 0
M  V30 1070 N 96.2486 -5.73261 0.913884 0
M  V30 1071 H 99.0136 -1.90934 2.31007 0
M  V30 1072 H 96.5746 -0.915102 1.33557 0
M  V30 1073 H 98.5666 -3.96136 0.828147 0
M  V30 1074 H 97.1366 -3.12091 0.178361 0
M  V30 1075 H 96.3566 -2.91347 2.65539 0
M  V30 1076 H 97.6446 -4.05942 3.06738 0
M  V30 1077 H 97.0426 -5.64842 0.311476 0
M  V30 1078 H 95.5996 -6.47563 0.742015 0
M  V30 1079 N 99.0327 -1.24633 -0.964593 0
M  V30 1080 C 99.9957 -1.0424 -2.04124 0
M  V30 1081 C 100.996 0.00137563 -1.608 0
M  V30 1082 O 102.186 -0.239883 -1.7254 0
M  V30 1083 C 99.3177 -0.580588 -3.3592 0
M  V30 1084 H 100.511 -1.99803 -2.23649 0
M  V30 1085 H 98.0637 -1.06899 -1.14027 0
M  V30 1086 H 98.7987 0.3781 -3.22088 0
M  V30 1087 H 98.5837 -1.33398 -3.6871 0
M  V30 1088 H 100.074 -0.459034 -4.15069 0
M  V30 1089 N 100.511 1.16574 -1.06058 0
M  V30 1090 C 101.443 2.2045 -0.627239 0
M  V30 1091 C 102.456 1.59752 0.313534 0
M  V30 1092 O 103.645 1.78192 0.104896 0
M  V30 1093 C 100.745 3.3875 0.100974 0
M  V30 1094 C 99.9178 4.29008 -0.852687 0
M  V30 1095 C 98.9768 5.25944 -0.164152 0
M  V30 1096 O 98.0028 5.63535 -0.801047 0
M  V30 1097 N 99.2048 5.70075 1.09518 0
M  V30 1098 H 101.97 2.58249 -1.52077 0
M  V30 1099 H 99.5308 1.3156 -0.943594 0
M  V30 1100 H 101.523 4.00638 0.57194 0
M  V30 1101 H 100.093 2.99476 0.89628 0
M  V30 1102 H 99.3128 3.64419 -1.50308 0
M  V30 1103 H 100.601 4.86195 -1.49972 0
M  V30 1104 H 99.9988 5.41624 1.6328 0
M  V30 1105 H 98.5558 6.34067 1.51006 0
M  V30 1106 N 101.989 0.842826 1.3317 0
M  V30 1107 C 103.237 0.439577 1.97262 0
M  V30 1108 C 103.558 -1.00548 1.67078 0
M  V30 1109 O 102.828 -1.70098 0.971779 0
M  V30 1110 H 101.408 0.159558 0.72976 0
M  V30 1111 H 104.07 1.07665 1.62463 0
M  V30 1112 H 103.166 0.574886 3.0676 0
M  V30 1113 N 103.467 -1.45747 0.599634 0
M  V30 1114 C 104.414 -2.30467 -0.123849 0
M  V30 1115 C 105.384 -1.41632 -0.86774 0
M  V30 1116 O 106.569 -1.70568 -0.855056 0
M  V30 1117 C 103.709 -3.26402 -1.12051 0
M  V30 1118 C 102.822 -4.3034 -0.37832 0
M  V30 1119 C 101.957 -5.13389 -1.364 0
M  V30 1120 C 100.996 -6.09061 -0.609171 0
M  V30 1121 N 100.133 -6.84918 -1.54374 0
M  V30 1122 H 104.973 -2.91802 0.604627 0
M  V30 1123 H 102.51 -1.43797 0.309972 0
M  V30 1124 H 104.468 -3.80482 -1.7114 0
M  V30 1125 H 103.098 -2.66839 -1.8165 0
M  V30 1126 H 102.15 -3.78984 0.327929 0
M  V30 1127 H 103.462 -4.98354 0.210997 0
M  V30 1128 H 102.616 -5.7183 -2.02719 0
M  V30 1129 H 101.355 -4.45376 -1.98725 0
M  V30 1130 H 100.36 -5.49758 0.0676979 0
M  V30 1131 H 101.585 -6.79099 0.00891991 0
M  V30 1132 H 99.531 -6.19601 -2.15478 0
M  V30 1133 H 99.448 -7.49254 -1.00766 0
M  V30 1134 H 100.716 -7.47906 -2.19676 0
M  V30 1135 N 104.945 -0.338344 -1.53925 0
M  V30 1136 C 105.875 0.51328 -2.27789 0
M  V30 1137 C 106.856 1.107 -1.29149 0
M  V30 1138 O 108.041 1.12937 -1.57984 0
M  V30 1139 C 105.171 1.66697 -3.04679 0
M  V30 1140 C 104.125 1.20183 -4.1078 0
M  V30 1141 C 103.451 2.44363 -4.75595 0
M  V30 1142 C 104.751 0.30605 -5.21403 0
M  V30 1143 H 106.445 -0.102883 -2.99223 0
M  V30 1144 H 103.991 -0.0509219 -1.4391 0
M  V30 1145 H 105.944 2.26915 -3.55088 0
M  V30 1146 H 104.668 2.30995 -2.30887 0
M  V30 1147 H 103.327 0.622499 -3.61276 0
M  V30 1148 H 102.975 3.07057 -3.98403 0
M  V30 1149 H 102.675 2.13925 -5.47275 0
M  V30 1150 H 104.199 3.05317 -5.28786 0
M  V30 1151 H 105.613 0.814929 -5.67478 0
M  V30 1152 H 104.01 0.0937929 -6.00027 0
M  V30 1153 H 105.08 -0.65921 -4.80398 0
M  V30 1154 N 106.423 1.57458 -0.0668435 0
M  V30 1155 C 107.669 1.93587 0.6043 0
M  V30 1156 C 108.002 0.946722 1.69561 0
M  V30 1157 O 107.277 -0.0248516 1.94484 0
M  V30 1158 C 107.56 3.40014 1.18585 0
M  V30 1159 C 107.413 4.49685 0.101529 0
M  V30 1160 C 108.732 3.87154 2.09284 0
M  V30 1161 H 105.851 0.703958 0.218202 0
M  V30 1162 H 108.493 1.89542 -0.131804 0
M  V30 1163 H 106.643 3.43592 1.81319 0
M  V30 1164 H 108.315 4.5823 -0.531279 0
M  V30 1165 H 106.558 4.30059 -0.568487 0
M  V30 1166 H 107.229 5.49266 0.54874 0
M  V30 1167 H 109.705 3.85551 1.56491 0
M  V30 1168 H 108.581 4.90231 2.46911 0
M  V30 1169 H 108.842 3.2481 2.99918 0
M  V30 1170 N 107.901 -0.206675 1.56239 0
M  V30 1171 C 109.317 -0.557025 1.49564 0
M  V30 1172 C 109.517 -1.86424 0.764735 0
M  V30 1173 O 108.573 -2.50584 0.310491 0
M  V30 1174 C 109.886 -0.622478 2.94186 0
M  V30 1175 C 111.434 -0.712099 3.04792 0
M  V30 1176 C 111.909 -0.808767 4.50803 0
M  V30 1177 N 113.4 -0.8726 4.54907 0
M  V30 1178 C 114.135 -0.967365 5.65181 0
M  V30 1179 N 113.631 -1.02515 6.85173 0
M  V30 1180 N 115.424 -1.00366 5.53067 0
M  V30 1181 H 107.575 0.650943 2.02179 0
M  V30 1182 H 109.838 0.230387 0.919579 0
M  V30 1183 H 109.544 0.268727 3.50672 0
M  V30 1184 H 109.418 -1.4811 3.46905 0
M  V30 1185 H 111.805 -1.59374 2.48363 0
M  V30 1186 H 111.886 0.172489 2.55218 0
M  V30 1187 H 111.53 0.0684754 5.07854 0
M  V30 1188 H 111.46 -1.70899 4.98098 0
M  V30 1189 H 113.951 -0.837657 3.68499 0
M  V30 1190 H 114.264 -1.09765 7.64965 0
M  V30 1191 H 112.609 -0.994026 6.87855 0
M  V30 1192 H 115.8 -0.95527 4.58249 0
M  V30 1193 H 115.973 -1.07405 6.39037 0
M  V30 1194 N 109.379 -1.50304 -0.473955 0
M  V30 1195 C 110.342 -1.6841 -1.55469 0
M  V30 1196 C 111.342 -0.554905 -1.50922 0
M  V30 1197 O 112.532 -0.821882 -1.53593 0
M  V30 1198 C 109.664 -1.70667 -2.95102 0
M  V30 1199 H 110.857 -2.64828 -1.40733 0
M  V30 1200 H 108.41 -1.39742 -0.700132 0
M  V30 1201 H 109.145 -0.75932 -3.15285 0
M  V30 1202 H 108.93 -2.52698 -2.9981 0
M  V30 1203 H 110.42 -1.8664 -3.73571 0
M  V30 1204 N 110.857 0.726932 -1.39834 0
M  V30 1205 C 112.085 1.51613 -1.40787 0
M  V30 1206 C 112.5 1.88799 -0.00451505 0
M  V30 1207 O 111.857 1.54662 0.968809 0
M  V30 1208 C 111.908 2.79863 -2.28821 0
M  V30 1209 O 111.629 2.44253 -3.63692 0
M  V30 1210 C 113.13 3.73837 -2.38245 0
M  V30 1211 H 110.35 0.468264 -0.480593 0
M  V30 1212 H 112.894 0.897607 -1.83748 0
M  V30 1213 H 111.049 3.38027 -1.89252 0
M  V30 1214 H 111.463 3.26695 -4.1033 0
M  V30 1215 H 112.937 4.60699 -3.04073 0
M  V30 1216 H 113.414 4.16153 -1.40403 0
M  V30 1217 H 114.02 3.21589 -2.78317 0
M  V30 1218 N 112.336 1.25143 0.95797 0
M  V30 1219 C 113.266 1.07711 2.07173 0
M  V30 1220 C 114.247 -0.0128462 1.70095 0
M  V30 1221 O 115.432 0.156061 1.93572 0
M  V30 1222 C 112.562 0.691503 3.40346 0
M  V30 1223 C 111.516 1.73132 3.9142 0
M  V30 1224 C 110.842 1.20049 5.21049 0
M  V30 1225 C 112.142 3.1294 4.1817 0
M  V30 1226 H 113.836 2.00873 2.22014 0
M  V30 1227 H 111.382 0.967191 1.06684 0
M  V30 1228 H 113.335 0.556505 4.17709 0
M  V30 1229 H 112.059 -0.275819 3.25433 0
M  V30 1230 H 110.718 1.8547 3.16222 0
M  V30 1231 H 110.366 0.223499 5.02503 0
M  V30 1232 H 110.066 1.89545 5.56189 0
M  V30 1233 H 111.59 1.07782 6.01012 0
M  V30 1234 H 113.004 3.03775 4.86203 0
M  V30 1235 H 111.401 3.79875 4.64559 0
M  V30 1236 H 112.471 3.6025 3.24573 0
M  V30 1237 N 113.814 -1.1601 1.06675 0
M  V30 1238 C 115.062 -1.86264 0.784229 0
M  V30 1239 C 115.383 -1.82328 -0.691488 0
M  V30 1240 O 114.653 -1.25947 -1.50047 0
M  V30 1241 H 113.233 -0.689621 0.28711 0
M  V30 1242 H 115.895 -1.40664 1.34906 0
M  V30 1243 H 114.991 -2.91595 1.11259 0
M  V30 1244 N 115.292 -0.849877 -1.32721 0
M  V30 1245 C 116.202 -0.293791 -2.32753 0
M  V30 1246 C 117.218 0.585906 -1.63839 0
M  V30 1247 O 118.394 0.487413 -1.95413 0
M  V30 1248 C 115.459 0.512752 -3.42887 0
M  V30 1249 C 114.52 -0.39252 -4.27502 0
M  V30 1250 C 113.753 0.375625 -5.32377 0
M  V30 1251 O 113.976 1.60613 -5.4732 0
M  V30 1252 O 112.91 -0.256094 -6.01355 0
M  V30 1253 H 116.736 -1.12242 -2.82197 0
M  V30 1254 H 114.321 -0.612685 -1.36259 0
M  V30 1255 H 116.203 0.970704 -4.10067 0
M  V30 1256 H 114.878 1.31826 -2.95641 0
M  V30 1257 H 113.785 -0.898547 -3.63149 0
M  V30 1258 H 115.118 -1.16309 -4.7826 0
M  V30 1259 N 116.77 1.45427 -0.607355 0
M  V30 1260 C 118.016 2.0254 -0.102607 0
M  V30 1261 C 118.349 1.47478 1.26348 0
M  V30 1262 O 117.624 0.64939 1.83339 0
M  V30 1263 C 117.907 3.60044 -0.0634347 0
M  V30 1264 C 117.76 4.2544 -1.46017 0
M  V30 1265 C 119.079 4.35646 0.624514 0
M  V30 1266 H 116.198 0.73598 -0.0387607 0
M  V30 1267 H 118.84 1.73284 -0.779282 0
M  V30 1268 H 116.99 3.85101 0.512808 0
M  V30 1269 H 118.662 4.11569 -2.08347 0
M  V30 1270 H 116.905 3.83849 -2.02094 0
M  V30 1271 H 117.576 5.34342 -1.385 0
M  V30 1272 H 120.052 4.15882 0.134723 0
M  V30 1273 H 118.928 5.45376 0.621028 0
M  V30 1274 H 119.189 4.08501 1.69055 0
M  V30 1275 N 118.248 0.346503 1.53744 0
M  V30 1276 C 119.495 -0.249104 2.00962 0
M  V30 1277 C 119.823 -1.5032 1.23426 0
M  V30 1278 O 119.078 -1.93217 0.310761 0
M  V30 1279 C 119.377 -0.605809 3.52228 0
M  V30 1280 C 119.043 0.551747 4.47512 0
M  V30 1281 C 117.705 0.86941 4.73281 0
M  V30 1282 C 120.057 1.32818 5.03993 0
M  V30 1283 C 117.385 1.96582 5.52786 0
M  V30 1284 C 119.737 2.41486 5.84694 0
M  V30 1285 C 118.401 2.73808 6.08757 0
M  V30 1286 H 117.671 -0.0911538 0.735372 0
M  V30 1287 H 120.318 0.475027 1.85515 0
M  V30 1288 H 118.623 -1.4107 3.65522 0
M  V30 1289 H 120.32 -1.07858 3.86222 0
M  V30 1290 H 116.91 0.294102 4.2759 0
M  V30 1291 H 121.094 1.09602 4.84047 0
M  V30 1292 H 116.35 2.22045 5.69654 0
M  V30 1293 H 120.524 3.02078 6.27473 0
M  V30 1294 H 118.151 3.58892 6.7015 0
M  V30 1295 N 119.726 -1.57421 0.075193 0
M  V30 1296 C 121.003 -1.85029 -0.634329 0
M  V30 1297 C 121.383 -0.968305 -1.87582 0
M  V30 1298 O 120.731 -0.0354749 -2.28472 0
M  V30 1299 C 120.941 -3.35286 -0.968742 0
M  V30 1300 C 122.289 -4.02875 -1.34077 0
M  V30 1301 O 123.313 -3.40051 -1.06037 0
M  V30 1302 O 122.172 -5.13691 -1.86506 0
M  V30 1303 H 119.266 -0.7645 -0.315387 0
M  V30 1304 H 121.812 -1.69366 0.106382 0
M  V30 1305 H 120.584 -3.91203 -0.0871376 0
M  V30 1306 H 120.207 -3.56223 -1.7661 0
M  V30 1307 N 121.204 0.198386 -1.56346 0
M  V30 1308 C 122.45 0.920648 -1.80698 0
M  V30 1309 C 122.783 1.83045 -0.648697 0
M  V30 1310 O 122.058 1.91308 0.350925 0
M  V30 1311 C 122.341 1.73971 -3.15287 0
M  V30 1312 C 122.194 0.85485 -4.41602 0
M  V30 1313 C 123.513 2.71296 -3.46535 0
M  V30 1314 H 120.632 0.333261 -0.657348 0
M  V30 1315 H 123.274 0.188198 -1.89066 0
M  V30 1316 H 121.424 2.36416 -3.08285 0
M  V30 1317 H 123.096 0.245362 -4.60647 0
M  V30 1318 H 121.339 0.161398 -4.335 0
M  V30 1319 H 122.01 1.46286 -5.32264 0
M  V30 1320 H 124.486 2.18983 -3.53816 0
M  V30 1321 H 123.362 3.2569 -4.41834 0
M  V30 1322 H 123.623 3.5018 -2.69864 0
M  V30 1323 N 122.682 1.50554 0.465978 0
M  V30 1324 C 123.645 1.69233 1.54574 0
M  V30 1325 C 124.645 0.562901 1.50626 0
M  V30 1326 O 125.835 0.830016 1.53155 0
M  V30 1327 C 122.967 1.7223 2.94193 0
M  V30 1328 H 124.16 2.65571 1.39327 0
M  V30 1329 H 121.713 1.40111 0.692711 0
M  V30 1330 H 122.448 0.77603 3.14878 0
M  V30 1331 H 122.233 2.54285 2.98466 0
M  V30 1332 H 123.723 1.88618 3.72576 0
M  V30 1333 N 124.16 -0.719506 1.40217 0
M  V30 1334 C 125.406 -1.48152 1.38488 0
M  V30 1335 C 125.739 -1.94195 -0.0141867 0
M  V30 1336 O 125.014 -1.67884 -0.982096 0
M  V30 1337 C 125.297 -2.71035 2.37091 0
M  V30 1338 C 125.15 -2.30912 3.86005 0
M  V30 1339 C 126.469 -3.73182 2.33288 0
M  V30 1340 H 123.588 -0.537395 0.504357 0
M  V30 1341 H 126.23 -0.821472 1.71324 0
M  V30 1342 H 124.38 -3.27352 2.0922 0
M  V30 1343 H 126.052 -1.80107 4.24687 0
M  V30 1344 H 124.295 -1.62958 4.02029 0
M  V30 1345 H 124.966 -3.18978 4.50508 0
M  V30 1346 H 127.442 -3.26485 2.57966 0
M  V30 1347 H 126.318 -4.56806 3.04334 0
M  V30 1348 H 126.579 -4.21202 1.34317 0
M  V30 1349 N 125.638 -1.25649 -0.95132 0
M  V30 1350 C 126.915 -1.01361 -1.67288 0
M  V30 1351 C 127.295 0.459135 -2.06046 0
M  V30 1352 O 126.643 1.43723 -1.7764 0
M  V30 1353 C 126.853 -1.95256 -2.89268 0
M  V30 1354 C 128.201 -2.23289 -3.61147 0
M  V30 1355 O 129.225 -1.93041 -2.99355 0
M  V30 1356 O 128.084 -2.74741 -4.72419 0
M  V30 1357 H 125.178 -0.38464 -0.732107 0
M  V30 1358 H 127.724 -1.36817 -1.00395 0
M  V30 1359 H 126.496 -2.94685 -2.57442 0
M  V30 1360 H 126.119 -1.60218 -3.6389 0
M  V30 1361 N 127.117 1.15442 -1.07289 0
M  V30 1362 C 128.047 2.22312 -0.714107 0
M  V30 1363 C 129.028 1.67467 0.298155 0
M  V30 1364 O 130.213 1.93445 0.171048 0
M  V30 1365 C 127.343 3.47124 -0.110448 0
M  V30 1366 C 126.297 4.14926 -1.04979 0
M  V30 1367 C 125.623 5.33807 -0.308924 0
M  V30 1368 C 126.923 4.64762 -2.38314 0
M  V30 1369 H 128.617 2.5258 -1.6076 0
M  V30 1370 H 126.163 1.21404 -0.77441 0
M  V30 1371 H 128.116 4.21124 0.152482 0
M  V30 1372 H 126.84 3.16187 0.81812 0
M  V30 1373 H 125.499 3.42866 -1.29764 0
M  V30 1374 H 125.147 4.99126 0.623084 0
M  V30 1375 H 124.847 5.80113 -0.935036 0
M  V30 1376 H 126.371 6.10576 -0.0537771 0
M  V30 1377 H 127.785 5.30292 -2.1786 0
M  V30 1378 H 126.182 5.21728 -2.96514 0
M  V30 1379 H 127.252 3.80434 -3.00663 0
M  V30 1380 N 128.595 0.856903 1.32268 0
M  V30 1381 C 130.011 0.547061 1.49931 0
M  V30 1382 C 130.211 -0.921781 1.7918 0
M  V30 1383 O 129.267 -1.70469 1.8627 0
M  V30 1384 C 130.58 1.43599 2.64196 0
M  V30 1385 C 132.128 1.43665 2.78081 0
M  V30 1386 C 132.603 2.31085 3.95428 0
M  V30 1387 N 134.094 2.28893 4.02694 0
M  V30 1388 C 134.829 2.93262 4.92732 0
M  V30 1389 N 134.325 3.66751 5.87763 0
M  V30 1390 N 136.118 2.82638 4.85873 0
M  V30 1391 H 128.269 1.8075 1.11549 0
M  V30 1392 H 130.532 0.772144 0.549997 0
M  V30 1393 H 130.238 2.48058 2.49319 0
M  V30 1394 H 130.112 1.12502 3.60032 0
M  V30 1395 H 132.499 0.399701 2.92381 0
M  V30 1396 H 132.58 1.7878 1.82952 0
M  V30 1397 H 132.224 3.34849 3.81888 0
M  V30 1398 H 132.154 1.93302 4.89839 0
M  V30 1399 H 134.645 1.75466 3.34694 0
M  V30 1400 H 134.958 4.13027 6.53168 0
M  V30 1401 H 133.303 3.70859 5.87783 0
M  V30 1402 H 136.494 2.24774 4.10602 0
M  V30 1403 H 136.667 3.33084 5.55841 0
M  V30 1404 N 130.073 -1.45103 0.615059 0
M  V30 1405 C 131.489 -1.57137 0.279322 0
M  V30 1406 C 131.689 -1.60523 -1.21797 0
M  V30 1407 O 130.745 -1.53956 -2.00134 0
M  V30 1408 C 132.058 -2.85062 0.957083 0
M  V30 1409 C 133.606 -2.98749 0.933706 0
M  V30 1410 C 134.081 -4.29455 1.59162 0
M  V30 1411 N 135.572 -4.36231 1.55746 0
M  V30 1412 C 136.307 -5.36051 2.0356 0
M  V30 1413 N 135.803 -6.42367 2.59494 0
M  V30 1414 N 137.596 -5.27456 1.94284 0
M  V30 1415 H 129.747 -1.41148 1.58717 0
M  V30 1416 H 132.01 -0.675331 0.665306 0
M  V30 1417 H 131.716 -2.88488 2.01166 0
M  V30 1418 H 131.59 -3.7407 0.48494 0
M  V30 1419 H 133.977 -2.94886 -0.112347 0
M  V30 1420 H 134.058 -2.11132 1.44419 0
M  V30 1421 H 133.702 -4.34077 2.63704 0
M  V30 1422 H 133.632 -5.15901 1.0561 0
M  V30 1423 H 136.123 -3.60011 1.14893 0
M  V30 1424 H 136.436 -7.14793 2.93752 0
M  V30 1425 H 134.781 -6.43097 2.63537 0
M  V30 1426 H 137.972 -4.43308 1.5032 0
M  V30 1427 H 138.145 -6.05099 2.3186 0
M  V30 1428 N 131.551 -0.354651 -1.53558 0
M  V30 1429 C 132.799 0.237972 -2.00694 0
M  V30 1430 C 133.12 1.50173 -1.24391 0
M  V30 1431 O 132.39 1.92673 -0.354135 0
M  V30 1432 H 130.97 0.0909256 -0.741446 0
M  V30 1433 H 133.632 -0.478368 -1.88938 0
M  V30 1434 H 132.728 0.47264 -3.085 0
M  V30 1435 N 133.029 1.57378 -0.0835403 0
M  V30 1436 C 134.254 1.98682 0.594987 0
M  V30 1437 C 134.679 0.961969 1.61641 0
M  V30 1438 O 134.037 -0.0709989 1.81161 0
M  V30 1439 C 134.085 3.38988 1.2296 0
M  V30 1440 O 133.189 3.39208 2.34546 0
M  V30 1441 H 132.53 0.646368 0.152002 0
M  V30 1442 H 135.06 2.03961 -0.161533 0
M  V30 1443 H 135.07 3.76431 1.57366 0
M  V30 1444 H 133.745 4.13107 0.481228 0
M  V30 1445 H 132.322 3.13548 2.01846 0
M  V30 1446 N 134.507 -0.190092 1.56449 0
M  V30 1447 C 135.918 -0.754312 1.70784 0
M  V30 1448 C 136.269 -1.83631 0.690951 0
M  V30 1449 O 135.394 -2.15868 -0.151604 0
M  V30 1450 C 135.989 -1.37503 3.09642 0
M  V30 1451 C 134.548 -1.88628 3.25725 0
M  V30 1452 C 133.695 -0.758098 2.66736 0
M  V30 1453 H 136.646 0.0350524 1.58661 0
M  V30 1454 H 136.667 -2.2445 3.0725 0
M  V30 1455 H 136.179 -0.587302 3.83631 0
M  V30 1456 H 134.28 -2.70103 2.56661 0
M  V30 1457 H 134.393 -2.04462 4.3328 0
M  V30 1458 H 132.757 -1.17369 2.26046 0
M  V30 1459 H 133.54 0.0174705 3.43296 0
M  V30 1460 N 135.985 -1.50799 -0.457987 0
M  V30 1461 C 137.213 -1.66218 -1.23203 0
M  V30 1462 C 137.628 -0.350894 -1.85511 0
M  V30 1463 O 136.985 0.668546 -1.69814 0
M  V30 1464 C 137.036 -2.76291 -2.33121 0
M  V30 1465 O 136.757 -4.02338 -1.73366 0
M  V30 1466 C 138.258 -3.028 -3.2377 0
M  V30 1467 H 135.478 -0.558361 -0.372121 0
M  V30 1468 H 138.022 -1.97099 -0.545179 0
M  V30 1469 H 136.177 -2.48068 -2.97558 0
M  V30 1470 H 136.591 -4.63312 -2.4585 0
M  V30 1471 H 138.065 -3.8345 -3.97077 0
M  V30 1472 H 138.542 -2.14385 -3.83322 0
M  V30 1473 H 139.148 -3.32604 -2.65056 0
M  V30 1474 N 137.463 0.71206 -1.40597 0
M  V30 1475 C 138.71 1.47197 -1.39065 0
M  V30 1476 C 139.038 1.94499 0.00583891 0
M  V30 1477 O 138.293 1.68752 0.99102 0
M  V30 1478 C 138.592 2.71039 -2.32965 0
M  V30 1479 C 138.258 2.42484 -3.80148 0
M  V30 1480 C 136.92 2.34406 -4.20247 0
M  V30 1481 C 139.272 2.18598 -4.73143 0
M  V30 1482 C 136.6 2.00516 -5.51371 0
M  V30 1483 C 138.952 1.8622 -6.0457 0
M  V30 1484 C 137.616 1.76626 -6.43708 0
M  V30 1485 H 136.886 0.538634 -0.508876 0
M  V30 1486 H 139.533 0.815325 -1.73276 0
M  V30 1487 H 137.838 3.41558 -1.91951 0
M  V30 1488 H 139.535 3.29138 -2.29061 0
M  V30 1489 H 136.125 2.49659 -3.4838 0
M  V30 1490 H 140.309 2.23793 -4.42979 0
M  V30 1491 H 135.565 1.91628 -5.80593 0
M  V30 1492 H 139.739 1.66752 -6.76141 0
M  V30 1493 H 137.366 1.50133 -7.45228 0
M  V30 1494 N 138.941 1.26152 0.944643 0
M  V30 1495 C 140.189 1.11271 1.6871 0
M  V30 1496 C 140.51 -0.345166 1.91921 0
M  V30 1497 O 139.78 -1.24387 1.51343 0
M  V30 1498 H 138.36 0.408783 0.625224 0
M  V30 1499 H 141.022 1.58427 1.1352 0
M  V30 1500 H 140.118 1.62879 2.66227 0
M  V30 1501 N 140.419 -1.14872 1.07899 0
M  V30 1502 C 141.351 -2.19425 0.662231 0
M  V30 1503 C 142.364 -1.60231 -0.288079 0
M  V30 1504 O 143.553 -1.78336 -0.076534 0
M  V30 1505 C 140.653 -3.38867 -0.0470695 0
M  V30 1506 C 139.826 -4.27597 0.920831 0
M  V30 1507 C 138.885 -5.25616 0.247805 0
M  V30 1508 O 137.911 -5.62189 0.890599 0
M  V30 1509 N 139.113 -5.71746 -1.00435 0
M  V30 1510 H 141.878 -2.55797 1.56166 0
M  V30 1511 H 139.439 -1.30042 0.964404 0
M  V30 1512 H 141.431 -4.01497 -0.50813 0
M  V30 1513 H 140.001 -3.00864 -0.848523 0
M  V30 1514 H 139.221 -3.61982 1.56087 0
M  V30 1515 H 140.509 -4.83748 1.57688 0
M  V30 1516 H 139.907 -5.44153 -1.54642 0
M  V30 1517 H 138.464 -6.36389 -1.40899 0
M  V30 1518 N 141.898 -0.863906 -1.31812 0
M  V30 1519 C 143.144 -0.481841 -1.9761 0
M  V30 1520 C 143.499 0.954048 -1.6708 0
M  V30 1521 O 142.792 1.66182 -0.953624 0
M  V30 1522 C 142.986 -0.668547 -3.51091 0
M  V30 1523 C 142.815 -2.12103 -3.96538 0
M  V30 1524 C 141.585 -2.76141 -4.23171 0
M  V30 1525 C 143.783 -3.09265 -4.10925 0
M  V30 1526 N 141.765 -4.12205 -4.54929 0
M  V30 1527 C 143.136 -4.30341 -4.46326 0
M  V30 1528 C 145.191 -3.05337 -3.93286 0
M  V30 1529 C 143.894 -5.48 -4.65928 0
M  V30 1530 C 145.92 -4.22248 -4.14078 0
M  V30 1531 C 145.282 -5.42085 -4.49804 0
M  V30 1532 H 141.381 -0.225238 -0.74886 0
M  V30 1533 H 143.965 -1.11723 -1.59455 0
M  V30 1534 H 142.136 -0.0627898 -3.88349 0
M  V30 1535 H 143.868 -0.255467 -4.03893 0
M  V30 1536 H 140.623 -2.27125 -4.15585 0
M  V30 1537 H 141.047 -4.82416 -4.74978 0
M  V30 1538 H 145.689 -2.138 -3.64759 0
M  V30 1539 H 143.407 -6.40059 -4.93305 0
M  V30 1540 H 146.993 -4.20654 -4.01922 0
M  V30 1541 H 145.873 -6.31044 -4.65567 0
M  V30 1542 N 143.376 1.44774 -0.622745 0
M  V30 1543 C 144.622 2.0242 -0.124083 0
M  V30 1544 C 144.955 1.4881 1.24777 0
M  V30 1545 O 144.23 0.668799 1.8264 0
M  V30 1546 C 144.513 3.59957 -0.101619 0
M  V30 1547 C 144.366 4.23867 -1.50521 0
M  V30 1548 C 145.685 4.36284 0.578272 0
M  V30 1549 H 142.804 0.735528 -0.0465645 0
M  V30 1550 H 145.446 1.72447 -0.797617 0
M  V30 1551 H 143.596 3.85623 0.471934 0
M  V30 1552 H 145.268 4.09336 -2.12701 0
M  V30 1553 H 143.511 3.81684 -2.06154 0
M  V30 1554 H 144.182 5.32843 -1.4416 0
M  V30 1555 H 146.658 4.16001 0.0906057 0
M  V30 1556 H 145.534 5.46004 0.563149 0
M  V30 1557 H 145.795 4.10271 1.64713 0
M  V30 1558 N 144.854 0.36279 1.53368 0
M  V30 1559 C 146.102 -0.227326 2.00817 0
M  V30 1560 C 146.423 -1.49511 1.25186 0
M  V30 1561 O 145.693 -1.92482 0.364348 0
M  V30 1562 H 144.273 -0.0869923 0.741917 0
M  V30 1563 H 146.935 0.488381 1.88682 0
M  V30 1564 H 146.031 -0.456273 3.08747 0
M  V30 1565 N 146.332 -1.57332 0.0918853 0
M  V30 1566 C 147.242 -2.17368 -0.882505 0
M  V30 1567 C 148.258 -1.14226 -1.31257 0
M  V30 1568 O 149.434 -1.46582 -1.38115 0
M  V30 1569 C 146.499 -2.73962 -2.12476 0
M  V30 1570 C 145.56 -3.92048 -1.7492 0
M  V30 1571 C 144.793 -4.45933 -2.93223 0
M  V30 1572 O 145.016 -3.98764 -4.07852 0
M  V30 1573 O 143.95 -5.36999 -2.71875 0
M  V30 1574 H 147.776 -3.01031 -0.40172 0
M  V30 1575 H 145.361 -1.48813 -0.132291 0
M  V30 1576 H 147.243 -3.10147 -2.85283 0
M  V30 1577 H 145.918 -1.93347 -2.59613 0
M  V30 1578 H 144.825 -3.6068 -0.993025 0
M  V30 1579 H 146.158 -4.74017 -1.32548 0
M  V30 1580 N 147.81 0.181792 -1.56548 0
M  V30 1581 C 149.226 0.53316 -1.50431 0
M  V30 1582 C 149.426 1.85184 -0.794297 0
M  V30 1583 O 148.482 2.50058 -0.350318 0
M  V30 1584 C 149.795 0.575597 -2.9514 0
M  V30 1585 C 151.343 0.663519 -3.05886 0
M  V30 1586 C 151.818 0.736946 -4.52032 0
M  V30 1587 N 153.309 0.800118 -4.56237 0
M  V30 1588 C 154.044 0.877327 -5.66649 0
M  V30 1589 N 153.54 0.916016 -6.86718 0
M  V30 1590 N 155.333 0.915542 -5.54594 0
M  V30 1591 H 147.484 -0.683025 -2.01118 0
M  V30 1592 H 149.747 -0.244988 -0.915797 0
M  V30 1593 H 149.453 -0.324482 -3.502 0
M  V30 1594 H 149.327 1.42572 -3.49218 0
M  V30 1595 H 151.714 1.55403 -2.50867 0
M  V30 1596 H 151.795 -0.21307 -2.54911 0
M  V30 1597 H 151.439 -0.149262 -5.07681 0
M  V30 1598 H 151.369 1.62953 -5.00753 0
M  V30 1599 H 153.86 0.778926 -3.69785 0
M  V30 1600 H 154.173 0.975813 -7.66614 0
M  V30 1601 H 152.518 0.884469 -6.89349 0
M  V30 1602 H 155.709 0.882245 -4.59711 0
M  V30 1603 H 155.882 0.972253 -6.40665 0
M  V30 1604 N 149.288 1.51039 0.449983 0
M  V30 1605 C 150.218 1.74379 1.55288 0
M  V30 1606 C 151.199 0.593236 1.5942 0
M  V30 1607 O 152.384 0.834625 1.7535 0
M  V30 1608 C 149.514 1.85728 2.93466 0
M  V30 1609 C 148.468 3.01078 3.04197 0
M  V30 1610 C 147.794 2.97595 4.44231 0
M  V30 1611 C 149.094 4.41254 2.7945 0
M  V30 1612 H 150.788 2.66725 1.36008 0
M  V30 1613 H 148.334 1.2835 0.652864 0
M  V30 1614 H 150.287 2.0064 3.70569 0
M  V30 1615 H 149.011 0.900207 3.13949 0
M  V30 1616 H 147.67 2.85851 2.29531 0
M  V30 1617 H 147.318 1.99691 4.61663 0
M  V30 1618 H 147.018 3.75046 4.52343 0
M  V30 1619 H 148.542 3.14583 5.23326 0
M  V30 1620 H 149.956 4.56897 3.46292 0
M  V30 1621 H 148.353 5.20315 2.98985 0
M  V30 1622 H 149.423 4.52164 1.75144 0
M  V30 1623 N 150.766 -0.704594 1.40972 0
M  V30 1624 C 151.991 -1.49858 1.43378 0
M  V30 1625 C 152.416 -1.88061 0.038184 0
M  V30 1626 O 151.774 -1.5402 -0.956425 0
M  V30 1627 C 151.822 -2.74333 2.34038 0
M  V30 1628 O 150.926 -3.7147 1.7912 0
M  V30 1629 H 150.267 -0.45139 0.486974 0
M  V30 1630 H 152.797 -0.866832 1.8533 0
M  V30 1631 H 152.807 -3.22741 2.49604 0
M  V30 1632 H 151.482 -2.45863 3.35446 0
M  V30 1633 H 150.059 -3.30363 1.72958 0
M  V30 1634 N 152.244 -1.26651 -0.937939 0
M  V30 1635 C 153.207 -1.08546 -2.01867 0
M  V30 1636 C 154.207 -0.0327327 -1.60767 0
M  V30 1637 O 155.397 -0.276427 -1.71993 0
M  V30 1638 C 152.529 -0.651711 -3.34613 0
M  V30 1639 H 153.722 -2.04502 -2.1936 0
M  V30 1640 H 151.275 -1.09294 -1.11734 0
M  V30 1641 H 152.01 0.309696 -3.22818 0
M  V30 1642 H 151.795 -1.41189 -3.65798 0
M  V30 1643 H 153.285 -0.546973 -4.14002 0
M  V30 1644 N 153.722 1.14298 -1.08507 0
M  V30 1645 C 154.632 2.23027 -0.727753 0
M  V30 1646 C 155.648 1.71952 0.26619 0
M  V30 1647 O 156.824 2.011 0.109882 0
M  V30 1648 C 153.889 3.46403 -0.143541 0
M  V30 1649 C 152.95 4.12413 -1.19223 0
M  V30 1650 C 152.183 5.29899 -0.635798 0
M  V30 1651 O 152.406 5.67796 0.544393 0
M  V30 1652 O 151.34 5.85717 -1.38634 0
M  V30 1653 H 155.166 2.55945 -1.63481 0
M  V30 1654 H 152.751 1.22248 -0.858817 0
M  V30 1655 H 154.633 4.21018 0.179404 0
M  V30 1656 H 153.308 3.15206 0.736659 0
M  V30 1657 H 152.215 3.39667 -1.56772 0
M  V30 1658 H 153.548 4.47718 -2.04474 0
M  V30 1659 N 155.201 0.870884 1.31352 0
M  V30 1660 C 156.149 0.316445 2.30437 0
M  V30 1661 C 157.143 -0.568965 1.59559 0
M  V30 1662 O 158.349 -0.454964 1.74155 0
M  V30 1663 H 154.724 0.0836521 0.747333 0
M  V30 1664 H 156.695 1.16606 2.74673 0
M  V30 1665 C 155.444 -0.46635 3.44558 0
M  V30 1666 H 154.767 0.205687 3.99271 0
M  V30 1667 H 156.207 -0.819614 4.16003 0
M  V30 1668 C 154.666 -1.65797 2.9328 0
M  V30 1669 O 155.196 -2.75728 2.92125 0
M  V30 1670 N 153.402 -1.49041 2.4947 0
M  V30 1671 H 152.949 -0.59612 2.50608 0
M  V30 1672 H 152.907 -2.28911 2.15516 0
M  V30 1673 N 156.679 -1.44442 0.630414 0
M  V30 1674 C 157.626 -2.30678 -0.0749355 0
M  V30 1675 C 158.596 -1.4344 -0.837502 0
M  V30 1676 O 159.781 -1.72343 -0.818684 0
M  V30 1677 C 156.921 -3.28706 -1.05103 0
M  V30 1678 C 156.034 -4.31046 -0.286954 0
M  V30 1679 C 155.169 -5.16167 -1.2548 0
M  V30 1680 C 154.208 -6.10216 -0.479843 0
M  V30 1681 N 153.345 -6.88039 -1.39811 0
M  V30 1682 H 158.185 -2.90454 0.666386 0
M  V30 1683 H 155.722 -1.43107 0.340404 0
M  V30 1684 H 157.68 -3.84027 -1.63031 0
M  V30 1685 H 156.31 -2.70632 -1.75949 0
M  V30 1686 H 155.362 -3.78203 0.408243 0
M  V30 1687 H 156.674 -4.97794 0.316657 0
M  V30 1688 H 155.828 -5.76002 -1.90544 0
M  V30 1689 H 154.567 -4.49491 -1.89233 0
M  V30 1690 H 153.572 -5.49491 0.184295 0
M  V30 1691 H 154.797 -6.78928 0.152965 0
M  V30 1692 H 152.743 -6.24032 -2.02287 0
M  V30 1693 H 152.66 -7.51223 -0.848508 0
M  V30 1694 H 153.928 -7.52397 -2.03762 0
M  V30 1695 N 158.157 -0.370918 -1.53173 0
M  V30 1696 C 159.573 -0.0200818 -1.59587 0
M  V30 1697 C 159.773 1.46279 -1.38581 0
M  V30 1698 O 158.829 2.22506 -1.19363 0
M  V30 1699 C 160.142 -0.4808 -2.96831 0
M  V30 1700 C 161.69 -0.435477 -3.09956 0
M  V30 1701 C 162.165 -0.872092 -4.4962 0
M  V30 1702 N 163.656 -0.827364 -4.55751 0
M  V30 1703 C 164.391 -1.13683 -5.62018 0
M  V30 1704 N 163.887 -1.51584 -6.76014 0
M  V30 1705 N 165.68 -1.05927 -5.52029 0
M  V30 1706 H 157.831 -1.33652 -1.65079 0
M  V30 1707 H 160.094 -0.546634 -0.774529 0
M  V30 1708 H 159.8 -1.51577 -3.1736 0
M  V30 1709 H 159.674 0.129796 -3.76977 0
M  V30 1710 H 162.061 0.590371 -2.89134 0
M  V30 1711 H 162.142 -1.08164 -2.31806 0
M  V30 1712 H 161.786 -1.89608 -4.71181 0
M  V30 1713 H 161.716 -0.203127 -5.26208 0
M  V30 1714 H 164.207 -0.548216 -3.73902 0
M  V30 1715 H 164.52 -1.73609 -7.53047 0
M  V30 1716 H 162.865 -1.55454 -6.77391 0
M  V30 1717 H 166.056 -0.762321 -4.61851 0
M  V30 1718 H 166.229 -1.30378 -6.34749 0
M  V30 1719 N 159.635 1.57281 -0.100228 0
M  V30 1720 C 160.567 2.11342 0.886972 0
M  V30 1721 C 161.58 1.05182 1.24261 0
M  V30 1722 O 162.769 1.32613 1.19483 0
M  V30 1723 C 159.869 2.5825 2.19454 0
M  V30 1724 C 159.042 3.88302 2.01346 0
M  V30 1725 C 158.101 4.21004 3.15661 0
M  V30 1726 O 157.127 4.9014 2.89398 0
M  V30 1727 N 158.329 3.76818 4.41575 0
M  V30 1728 H 161.094 2.96668 0.425216 0
M  V30 1729 H 158.655 1.61678 0.0847334 0
M  V30 1730 H 160.647 2.7717 2.94888 0
M  V30 1731 H 159.217 1.77907 2.57037 0
M  V30 1732 H 158.437 3.7848 1.10212 0
M  V30 1733 H 159.725 4.73375 1.8653 0
M  V30 1734 H 159.123 3.2102 4.65792 0
M  V30 1735 H 157.68 4.00882 5.13942 0
M  V30 1736 N 161.113 -0.173488 1.56642 0
M  V30 1737 C 162.046 -1.24353 1.91342 0
M  V30 1738 C 163.024 -1.4289 0.775965 0
M  V30 1739 O 164.208 -1.57932 1.02907 0
M  V30 1740 C 161.335 -2.60683 2.16245 0
M  V30 1741 C 160.381 -2.58894 3.38934 0
M  V30 1742 S 161.214 -2.0819 4.93373 0
M  V30 1743 C 162.37 -3.46302 5.21369 0
M  V30 1744 H 162.603 -0.947345 2.81803 0
M  V30 1745 H 160.136 -0.377958 1.49703 0
M  V30 1746 H 162.094 -3.39149 2.31275 0
M  V30 1747 H 160.755 -2.87502 1.26496 0
M  V30 1748 H 159.948 -3.59188 3.53553 0
M  V30 1749 H 159.55 -1.88522 3.2301 0
M  V30 1750 H 161.842 -4.42287 5.13214 0
M  V30 1751 H 162.785 -3.3656 6.23003 0
M  V30 1752 H 163.193 -3.42214 4.48943 0
M  V30 1753 N 162.591 -1.51276 -0.441967 0
M  V30 1754 C 163.837 -1.6492 -1.1905 0
M  V30 1755 C 164.192 -0.358731 -1.89026 0
M  V30 1756 O 163.485 0.645193 -1.8041 0
M  V30 1757 C 163.679 -2.78746 -2.23686 0
M  V30 1758 C 163.508 -4.18737 -1.63979 0
M  V30 1759 C 162.278 -4.84739 -1.42674 0
M  V30 1760 C 164.476 -5.01988 -1.11858 0
M  V30 1761 N 162.458 -6.08858 -0.785159 0
M  V30 1762 C 163.829 -6.17071 -0.601989 0
M  V30 1763 C 165.884 -4.87551 -1.0099 0
M  V30 1764 C 164.587 -7.19299 0.0126012 0
M  V30 1765 C 166.613 -5.89983 -0.409206 0
M  V30 1766 C 165.975 -7.04333 0.0968651 0
M  V30 1767 H 162.074 -0.657416 -0.423471 0
M  V30 1768 H 164.658 -1.8849 -0.48782 0
M  V30 1769 H 162.829 -2.56848 -2.91348 0
M  V30 1770 H 164.561 -2.81595 -2.90666 0
M  V30 1771 H 161.316 -4.42528 -1.68719 0
M  V30 1772 H 161.74 -6.75282 -0.481942 0
M  V30 1773 H 166.382 -3.99401 -1.38703 0
M  V30 1774 H 164.1 -8.071 0.401879 0
M  V30 1775 H 167.686 -5.8088 -0.327079 0
M  V30 1776 H 166.566 -7.82238 0.554373 0
M  V30 1777 N 164.069 0.697108 -1.41344 0
M  V30 1778 C 165.318 1.45279 -1.39918 0
M  V30 1779 C 165.631 1.95597 -0.0109624 0
M  V30 1780 O 166.837 2.71208 0.125919 0
M  V30 1781 C 165.293 2.62695 -2.46007 0
M  V30 1782 C 164.901 2.19169 -3.90729 0
M  V30 1783 C 166.645 3.40336 -2.53715 0
M  V30 1784 C 164.552 3.33535 -4.88373 0
M  V30 1785 H 163.482 0.545692 -0.520323 0
M  V30 1786 H 166.133 0.756929 -1.67161 0
M  V30 1787 H 164.515 3.34541 -2.11892 0
M  V30 1788 H 165.689 1.54623 -4.34083 0
M  V30 1789 H 164.004 1.54525 -3.86666 0
M  V30 1790 H 166.601 4.2547 -3.2385 0
M  V30 1791 H 166.944 3.85418 -1.5735 0
M  V30 1792 H 167.477 2.75546 -2.86913 0
M  V30 1793 H 164.216 2.93468 -5.86137 0
M  V30 1794 H 163.736 3.96936 -4.49668 0
M  V30 1795 H 165.415 3.99335 -5.09059 0
M  V30 1796 N 165.547 1.27147 0.931209 0
M  V30 1797 C 166.958 1.12044 1.49342 0
M  V30 1798 C 167.309 -0.295795 1.93957 0
M  V30 1799 O 166.434 -1.18835 1.80852 0
M  V30 1800 C 167.029 2.02781 2.71414 0
M  V30 1801 C 165.588 1.91794 3.2387 0
M  V30 1802 C 164.735 1.95543 1.96617 0
M  V30 1803 H 167.686 1.40091 0.745672 0
M  V30 1804 H 167.707 1.58156 3.46074 0
M  V30 1805 H 167.219 3.05848 2.38911 0
M  V30 1806 H 165.32 0.916992 3.6114 0
M  V30 1807 H 165.433 2.77852 3.90302 0
M  V30 1808 H 163.797 1.39722 2.12955 0
M  V30 1809 H 164.58 3.00259 1.66432 0
M  V30 1810 N 167.025 -1.13721 1.09112 0
M  V30 1811 C 167.988 -2.17222 0.731241 0
M  V30 1812 C 168.988 -1.59035 -0.237566 0
M  V30 1813 O 170.178 -1.74192 -0.0161704 0
M  V30 1814 C 167.31 -3.40804 0.0808443 0
M  V30 1815 H 168.503 -2.50573 1.64783 0
M  V30 1816 H 166.056 -1.28493 0.889897 0
M  V30 1817 H 166.791 -3.1304 -0.847127 0
M  V30 1818 H 166.576 -3.84306 0.777896 0
M  V30 1819 H 168.066 -4.1731 -0.155657 0
M  V30 1820 N 168.503 -0.877838 -1.30888 0
M  V30 1821 C 169.751 -0.491723 -1.96027 0
M  V30 1822 C 170.072 0.960827 -1.69685 0
M  V30 1823 O 169.342 1.67462 -1.01654 0
M  V30 1824 H 167.922 -0.17885 -0.725273 0
M  V30 1825 H 170.584 -1.11935 -1.59551 0
M  V30 1826 H 169.68 -0.656016 -3.05128 0
M  V30 1827 N 169.982 1.44106 -0.638065 0
M  V30 1828 C 171.229 2.01978 -0.14533 0
M  V30 1829 C 171.557 1.50234 1.23532 0
M  V30 1830 O 170.812 0.679548 1.83523 0
M  V30 1831 C 171.111 3.5729 -0.0887327 0
M  V30 1832 C 170.777 4.28317 -1.40909 0
M  V30 1833 C 169.439 4.47437 -1.77069 0
M  V30 1834 C 171.791 4.6867 -2.28031 0
M  V30 1835 C 169.119 5.04171 -3.00047 0
M  V30 1836 C 171.471 5.26766 -3.50286 0
M  V30 1837 C 170.135 5.44104 -3.86661 0
M  V30 1838 H 169.405 0.739089 -0.0531801 0
M  V30 1839 H 172.052 1.72781 -0.825761 0
M  V30 1840 H 170.357 3.8594 0.675095 0
M  V30 1841 H 172.054 3.99807 0.309145 0
M  V30 1842 H 168.644 4.1377 -1.1177 0
M  V30 1843 H 172.828 4.53604 -2.01388 0
M  V30 1844 H 168.084 5.15782 -3.28298 0
M  V30 1845 H 172.258 5.56983 -4.18023 0
M  V30 1846 H 169.885 5.87832 -4.82034 0
M  V30 1847 N 171.46 0.379036 1.52974 0
M  V30 1848 C 172.423 -0.448865 2.24762 0
M  V30 1849 C 173.423 -0.998689 1.26027 0
M  V30 1850 O 174.613 -0.882313 1.50203 0
M  V30 1851 C 171.745 -1.62872 2.99476 0
M  V30 1852 H 172.938 0.179491 2.99362 0
M  V30 1853 H 170.491 0.13096 1.5575 0
M  V30 1854 H 171.226 -2.29479 2.29151 0
M  V30 1855 H 171.011 -1.24128 3.71934 0
M  V30 1856 H 172.501 -2.2151 3.5401 0
M  V30 1857 N 172.938 -1.57226 0.108567 0
M  V30 1858 C 173.888 -2.11305 -0.856396 0
M  V30 1859 C 174.872 -1.03129 -1.23504 0
M  V30 1860 O 176.064 -1.29381 -1.20787 0
M  V30 1861 C 173.193 -2.70771 -2.11041 0
M  V30 1862 C 172.279 -3.86011 -1.7566 0
M  V30 1863 N 172.67 -4.93492 -1.10902 0
M  V30 1864 C 170.968 -3.95999 -2.05185 0
M  V30 1865 C 171.669 -5.73984 -0.944308 0
M  V30 1866 N 170.645 -5.2346 -1.46596 0
M  V30 1867 H 174.447 -2.91784 -0.352002 0
M  V30 1868 H 171.961 -1.62126 -0.0942324 0
M  V30 1869 H 173.958 -3.07851 -2.81128 0
M  V30 1870 H 172.618 -1.91751 -2.62034 0
M  V30 1871 H 173.629 -5.1208 -0.774235 0
M  V30 1872 H 170.306 -3.28007 -2.58298 0
M  V30 1873 H 171.696 -6.70479 -0.436813 0
M  V30 1874 N 174.416 0.165178 -1.56732 0
M  V30 1875 C 175.664 0.879068 -1.8198 0
M  V30 1876 C 175.985 1.82514 -0.686561 0
M  V30 1877 O 175.255 1.93694 0.293146 0
M  V30 1878 H 173.835 0.327608 -0.671329 0
M  V30 1879 H 176.497 0.163526 -1.94213 0
M  V30 1880 H 175.593 1.45228 -2.76252 0
M  V30 1881 N 175.894 1.51508 0.433938 0
M  V30 1882 C 177.141 1.64345 1.18309 0
M  V30 1883 C 177.469 0.361315 1.91115 0
M  V30 1884 O 176.724 -0.654753 1.84422 0
M  V30 1885 C 177.023 2.79928 2.22205 0
M  V30 1886 C 176.689 4.19078 1.66387 0
M  V30 1887 C 175.351 4.56932 1.50887 0
M  V30 1888 C 177.703 5.05894 1.25381 0
M  V30 1889 C 175.031 5.79305 0.928608 0
M  V30 1890 C 177.383 6.2885 0.687823 0
M  V30 1891 C 176.047 6.65473 0.519755 0
M  V30 1892 H 175.317 0.601381 0.432923 0
M  V30 1893 H 177.964 1.85549 0.473676 0
M  V30 1894 H 176.269 2.52959 2.99197 0
M  V30 1895 H 177.966 2.87059 2.79997 0
M  V30 1896 H 174.556 3.89234 1.79428 0
M  V30 1897 H 178.74 4.77253 1.36175 0
M  V30 1898 H 173.996 6.06324 0.786186 0
M  V30 1899 H 178.17 6.95461 0.361581 0
M  V30 1900 H 175.797 7.6017 0.0679979 0
M  V30 1901 N 177.372 -0.689602 1.41712 0
M  V30 1902 C 178.618 -1.45181 1.41599 0
M  V30 1903 C 178.951 -1.94181 0.0270081 0
M  V30 1904 O 178.226 -1.6993 -0.946265 0
M  V30 1905 C 178.509 -2.65945 2.42787 0
M  V30 1906 C 178.362 -2.22672 3.90816 0
M  V30 1907 C 179.681 -3.68149 2.41151 0
M  V30 1908 H 176.8 -0.526576 0.515642 0
M  V30 1909 H 179.442 -0.784947 1.73028 0
M  V30 1910 H 177.592 -3.2284 2.16116 0
M  V30 1911 H 179.264 -1.71058 4.28412 0
M  V30 1912 H 177.507 -1.54394 4.05395 0
M  V30 1913 H 178.178 -3.0935 4.57172 0
M  V30 1914 H 180.654 -3.2094 2.64834 0
M  V30 1915 H 179.53 -4.50248 3.13955 0
M  V30 1916 H 179.791 -4.18259 1.43221 0
M  V30 1917 N 178.85 -1.27639 -0.924453 0
M  V30 1918 C 180.096 -1.14336 -1.67497 0
M  V30 1919 C 180.429 0.309465 -1.91718 0
M  V30 1920 O 179.704 1.22608 -1.50989 0
M  V30 1921 C 179.987 -1.93096 -3.0395 0
M  V30 1922 C 179.84 -3.46381 -2.8695 0
M  V30 1923 C 181.159 -1.73798 -4.0433 0
M  V30 1924 H 178.278 -0.416728 -0.607871 0
M  V30 1925 H 180.92 -1.56832 -1.07256 0
M  V30 1926 H 179.07 -1.56982 -3.55372 0
M  V30 1927 H 180.742 -3.92343 -2.42621 0
M  V30 1928 H 178.985 -3.72557 -2.22225 0
M  V30 1929 H 179.656 -3.96735 -3.83804 0
M  V30 1930 H 182.132 -2.05293 -3.61931 0
M  V30 1931 H 181.008 -2.31294 -4.97789 0
M  V30 1932 H 181.269 -0.686725 -4.36734 0
M  V30 1933 N 180.328 1.1314 -1.09713 0
M  V30 1934 C 181.258 2.20748 -0.761102 0
M  V30 1935 C 182.239 1.68061 0.262566 0
M  V30 1936 O 183.424 1.93765 0.129977 0
M  V30 1937 C 180.554 3.46812 -0.184054 0
M  V30 1938 C 179.508 4.12606 -1.13757 0
M  V30 1939 C 178.834 5.33031 -0.422083 0
M  V30 1940 C 180.134 4.59603 -2.48118 0
M  V30 1941 H 181.828 2.49113 -1.66082 0
M  V30 1942 H 179.374 1.19734 -0.799987 0
M  V30 1943 H 181.327 4.21353 0.0631215 0
M  V30 1944 H 180.051 3.17851 0.750868 0
M  V30 1945 H 178.71 3.40036 -1.37007 0
M  V30 1946 H 178.358 5.00335 0.517072 0
M  V30 1947 H 178.058 5.77999 -1.05788 0
M  V30 1948 H 179.582 6.10325 -0.183277 0
M  V30 1949 H 180.996 5.25552 -2.29059 0
M  V30 1950 H 179.393 5.15321 -3.07514 0
M  V30 1951 H 180.463 3.73971 -3.08665 0
M  V30 1952 N 181.806 0.884767 1.30421 0
M  V30 1953 C 183.031 0.517288 2.00845 0
M  V30 1954 C 183.456 -0.886779 1.65885 0
M  V30 1955 O 182.814 -1.58768 0.875354 0
M  V30 1956 C 182.862 0.698994 3.5376 0
M  V30 1957 O 181.966 -0.255208 4.1161 0
M  V30 1958 H 181.307 0.203872 0.631927 0
M  V30 1959 H 183.837 1.19225 1.66272 0
M  V30 1960 H 183.847 0.597912 4.03595 0
M  V30 1961 H 182.522 1.72271 3.78544 0
M  V30 1962 H 181.099 -0.10784 3.72744 0
M  V30 1963 N 183.284 -1.43765 0.645699 0
M  V30 1964 C 184.194 -2.34544 -0.0512957 0
M  V30 1965 C 185.21 -1.53455 -0.82022 0
M  V30 1966 O 186.386 -1.86133 -0.769176 0
M  V30 1967 C 183.451 -3.31636 -1.01087 0
M  V30 1968 C 182.512 -4.2863 -0.239712 0
M  V30 1969 C 181.745 -5.21084 -1.15358 0
M  V30 1970 O 181.968 -5.1779 -2.39269 0
M  V30 1971 O 180.902 -5.98593 -0.630038 0
M  V30 1972 H 184.728 -2.95624 0.695718 0
M  V30 1973 H 182.313 -1.43781 0.405882 0
M  V30 1974 H 184.195 -3.9136 -1.56254 0
M  V30 1975 H 182.87 -2.73069 -1.73824 0
M  V30 1976 H 181.777 -3.72408 0.355356 0
M  V30 1977 H 183.11 -4.90157 0.447936 0
M  V30 1978 N 184.763 -0.387143 -1.52771 0
M  V30 1979 C 185.993 0.195585 -2.05672 0
M  V30 1980 C 186.401 1.41241 -1.25887 0
M  V30 1981 O 185.744 1.81265 -0.298081 0
M  V30 1982 C 185.806 0.632327 -3.53895 0
M  V30 1983 C 185.47 -0.470739 -4.54569 0
M  V30 1984 C 186.467 -1.32746 -5.02667 0
M  V30 1985 C 184.152 -0.637151 -4.98243 0
M  V30 1986 C 186.146 -2.33574 -5.93061 0
M  V30 1987 C 183.833 -1.64877 -5.88438 0
M  V30 1988 C 184.831 -2.49649 -6.35739 0
M  V30 1989 O 184.519 -3.49082 -7.24153 0
M  V30 1990 H 184.251 0.033658 -0.675162 0
M  V30 1991 H 186.805 -0.550221 -1.97893 0
M  V30 1992 H 185.035 1.43008 -3.59285 0
M  V30 1993 H 186.724 1.14048 -3.89548 0
M  V30 1994 H 187.49 -1.21019 -4.69659 0
M  V30 1995 H 183.369 0.0129567 -4.60998 0
M  V30 1996 H 186.913 -2.99777 -6.29904 0
M  V30 1997 H 182.81 -1.76643 -6.2086 0
M  V30 1998 H 183.578 -3.45065 -7.42208 0
M  V30 1999 N 186.241 1.57166 -0.116904 0
M  V30 2000 C 187.204 2.14039 0.819742 0
M  V30 2001 C 188.204 1.07477 1.19605 0
M  V30 2002 O 189.394 1.33263 1.1219 0
M  V30 2003 C 186.526 2.67891 2.10826 0
M  V30 2004 H 187.719 2.98128 0.325511 0
M  V30 2005 H 185.272 1.55739 0.132312 0
M  V30 2006 H 186.007 1.87384 2.64685 0
M  V30 2007 H 185.792 3.45823 1.84793 0
M  V30 2008 H 187.282 3.11809 2.77785 0
M  V30 2009 N 187.719 -0.156864 1.56817 0
M  V30 2010 C 188.629 -1.2136 2.00771 0
M  V30 2011 C 189.645 -1.47598 0.921459 0
M  V30 2012 O 190.821 -1.59462 1.2302 0
M  V30 2013 C 187.886 -2.52943 2.37109 0
M  V30 2014 C 186.947 -2.34439 3.59634 0
M  V30 2015 C 186.18 -3.59748 3.94229 0
M  V30 2016 O 186.403 -4.65526 3.29609 0
M  V30 2017 O 185.337 -3.52998 4.8752 0
M  V30 2018 H 189.163 -0.870468 2.90958 0
M  V30 2019 H 186.748 -0.36484 1.44877 0
M  V30 2020 H 188.63 -3.30538 2.61386 0
M  V30 2021 H 187.305 -2.86806 1.5008 0
M  V30 2022 H 186.212 -1.54828 3.40557 0
M  V30 2023 H 187.545 -2.05496 4.4725 0
M  V30 2024 N 189.197 -1.51736 -0.425897 0
M  V30 2025 C 190.444 -1.6497 -1.17436 0
M  V30 2026 C 190.772 -0.371445 -1.9092 0
M  V30 2027 O 190.027 0.644963 -1.84767 0
M  V30 2028 C 190.326 -2.81103 -2.20717 0
M  V30 2029 C 189.992 -4.19954 -1.64162 0
M  V30 2030 C 188.654 -4.57725 -1.48462 0
M  V30 2031 C 191.006 -5.06552 -1.22696 0
M  V30 2032 C 188.334 -5.79789 -0.897873 0
M  V30 2033 C 190.686 -6.29205 -0.654464 0
M  V30 2034 C 189.35 -6.6574 -0.484456 0
M  V30 2035 H 188.62 -0.603668 -0.429727 0
M  V30 2036 H 191.267 -1.85798 -0.463829 0
M  V30 2037 H 189.572 -2.54542 -2.97852 0
M  V30 2038 H 191.269 -2.8854 -2.78471 0
M  V30 2039 H 187.859 -3.90181 -1.77361 0
M  V30 2040 H 192.043 -4.77968 -1.33642 0
M  V30 2041 H 187.299 -6.06733 -0.75402 0
M  V30 2042 H 191.473 -6.95643 -0.324694 0
M  V30 2043 H 189.1 -7.60195 -0.0276833 0
M  V30 2044 N 190.675 0.682077 -1.42076 0
M  V30 2045 C 191.605 1.80796 -1.47767 0
M  V30 2046 C 192.586 1.6677 -0.334954 0
M  V30 2047 O 193.771 1.863 -0.548264 0
M  V30 2048 C 190.901 3.19038 -1.37229 0
M  V30 2049 C 189.855 3.47789 -2.49453 0
M  V30 2050 C 189.181 4.8553 -2.23975 0
M  V30 2051 C 190.481 3.45411 -3.91776 0
M  V30 2052 H 192.175 1.7629 -2.41997 0
M  V30 2053 H 189.721 0.846721 -1.16476 0
M  V30 2054 H 191.674 3.97528 -1.39821 0
M  V30 2055 H 190.398 3.24204 -0.394907 0
M  V30 2056 H 189.057 2.71657 -2.46166 0
M  V30 2057 H 188.705 4.87337 -1.24547 0
M  V30 2058 H 188.405 5.0573 -2.99184 0
M  V30 2059 H 189.929 5.66312 -2.28304 0
M  V30 2060 H 191.343 4.13882 -3.96705 0
M  V30 2061 H 189.74 3.77145 -4.66778 0
M  V30 2062 H 190.81 2.44122 -4.18966 0
M  V30 2063 N 192.153 1.28127 0.917671 0
M  V30 2064 C 193.383 1.17722 1.6978 0
M  V30 2065 C 193.791 -0.267261 1.87303 0
M  V30 2066 O 193.134 -1.19286 1.39702 0
M  V30 2067 C 193.196 1.79958 3.11216 0
M  V30 2068 C 192.86 3.29187 3.16993 0
M  V30 2069 C 193.857 4.25679 2.98485 0
M  V30 2070 C 191.542 3.70075 3.39632 0
M  V30 2071 C 193.536 5.61035 3.02521 0
M  V30 2072 C 191.223 5.05557 3.433 0
M  V30 2073 C 192.221 6.00847 3.24764 0
M  V30 2074 O 191.909 7.33859 3.28187 0
M  V30 2075 H 191.641 0.409788 0.537634 0
M  V30 2076 H 194.195 1.69694 1.15728 0
M  V30 2077 H 192.425 1.22475 3.66793 0
M  V30 2078 H 194.114 1.64125 3.71238 0
M  V30 2079 H 194.88 3.95426 2.80826 0
M  V30 2080 H 190.759 2.96373 3.53106 0
M  V30 2081 H 194.303 6.35388 2.87971 0
M  V30 2082 H 190.2 5.35462 3.60486 0
M  V30 2083 H 190.968 7.42436 3.44575 0
M  V30 2084 N 193.631 -1.12557 1.10312 0
M  V30 2085 C 194.578 -2.18247 0.750781 0
M  V30 2086 C 195.548 -1.63853 -0.272293 0
M  V30 2087 O 196.733 -1.90195 -0.151862 0
M  V30 2088 C 193.873 -3.44591 0.187379 0
M  V30 2089 C 192.986 -4.13046 1.2656 0
M  V30 2090 C 192.121 -5.27034 0.663978 0
M  V30 2091 C 191.16 -5.87353 1.72287 0
M  V30 2092 N 190.297 -6.92757 1.1416 0
M  V30 2093 H 195.137 -2.47732 1.65628 0
M  V30 2094 H 192.674 -1.21629 0.827337 0
M  V30 2095 H 194.632 -4.16904 -0.157148 0
M  V30 2096 H 193.262 -3.15527 -0.681355 0
M  V30 2097 H 192.314 -3.38924 1.72727 0
M  V30 2098 H 193.626 -4.53947 2.06721 0
M  V30 2099 H 192.78 -6.06104 0.268824 0
M  V30 2100 H 191.519 -4.87407 -0.169082 0
M  V30 2101 H 190.524 -5.06971 2.12746 0
M  V30 2102 H 191.749 -6.29051 2.55875 0
M  V30 2103 H 189.695 -6.5517 0.329984 0
M  V30 2104 H 189.612 -7.3225 1.88007 0
M  V30 2105 H 190.88 -7.75658 0.772956 0
M  V30 2106 N 195.109 -0.891671 -1.2995 0
M  V30 2107 C 196.337 -0.52866 -2.00032 0
M  V30 2108 C 196.752 0.884574 -1.66795 0
M  V30 2109 O 196.109 1.5827 -0.908669 0
M  V30 2110 C 196.16 -0.701814 -3.54622 0
M  V30 2111 O 195.881 -2.05942 -3.86678 0
M  V30 2112 C 197.382 -0.342683 -4.41973 0
M  V30 2113 H 194.602 -0.203659 -0.639347 0
M  V30 2114 H 197.146 -1.19881 -1.65677 0
M  V30 2115 H 195.301 -0.0789468 -3.8732 0
M  V30 2116 H 195.715 -2.08291 -4.81368 0
M  V30 2117 H 197.189 -0.514709 -5.49595 0
M  V30 2118 H 197.666 0.71975 -4.33262 0
M  V30 2119 H 198.272 -0.942154 -4.14733 0
M  V30 2120 N 196.587 1.43421 -0.653314 0
M  V30 2121 C 197.815 2.06163 -0.174491 0
M  V30 2122 C 198.23 1.48969 1.1599 0
M  V30 2123 O 197.587 0.621042 1.71608 0
M  V30 2124 C 197.638 3.61417 -0.0774865 0
M  V30 2125 O 197.359 4.16485 -1.35912 0
M  V30 2126 C 198.86 4.41235 0.427402 0
M  V30 2127 H 196.08 0.664946 -0.0899353 0
M  V30 2128 H 198.624 1.83924 -0.893988 0
M  V30 2129 H 196.779 3.82841 0.59257 0
M  V30 2130 H 197.193 5.10153 -1.21839 0
M  V30 2131 H 198.667 5.5021 0.44423 0
M  V30 2132 H 199.144 4.14268 1.45873 0
M  V30 2133 H 199.75 4.2478 -0.210167 0
M  V30 2134 N 198.065 0.39524 1.52563 0
M  V30 2135 C 199.342 -0.242908 1.94086 0
M  V30 2136 C 199.722 -1.63841 1.33114 0
M  V30 2137 O 199.07 -2.22928 0.501529 0
M  V30 2138 C 199.28 -0.26327 3.48006 0
M  V30 2139 C 200.628 -0.489354 4.21771 0
M  V30 2140 O 201.652 -0.343226 3.54543 0
M  V30 2141 O 200.511 -0.776169 5.4096 0
M  V30 2142 H 197.605 -0.152536 0.812811 0
M  V30 2143 H 200.151 0.450178 1.6362 0
M  V30 2144 H 198.923 0.713985 3.84731 0
M  V30 2145 H 198.546 -1.00103 3.84792 0
M  V30 2146 N 199.544 -1.57102 0.125237 0
M  V30 2147 C 200.791 -1.95407 -0.531248 0
M  V30 2148 C 201.119 -1.0089 -1.66287 0
M  V30 2149 O 200.374 -0.0339431 -1.95671 0
M  V30 2150 C 200.673 -3.40096 -1.09862 0
M  V30 2151 C 200.339 -4.50815 -0.0876989 0
M  V30 2152 C 199.001 -4.80824 0.19026 0
M  V30 2153 C 201.353 -5.17724 0.600902 0
M  V30 2154 C 198.681 -5.75058 1.163 0
M  V30 2155 C 201.033 -6.13005 1.56231 0
M  V30 2156 C 199.697 -6.41403 1.8482 0
M  V30 2157 H 198.967 -0.715046 -0.194397 0
M  V30 2158 H 201.614 -1.90373 0.207463 0
M  V30 2159 H 199.919 -3.41855 -1.91422 0
M  V30 2160 H 201.616 -3.6705 -1.61478 0
M  V30 2161 H 198.206 -4.27444 -0.314528 0
M  V30 2162 H 202.39 -4.94691 0.399333 0
M  V30 2163 H 197.646 -5.95362 1.39117 0
M  V30 2164 H 201.82 -6.63934 2.10153 0
M  V30 2165 H 199.447 -7.14229 2.60349 0
M  V30 2166 N 201.022 0.148545 -1.56898 0
M  V30 2167 C 202.268 0.857877 -1.84424 0
M  V30 2168 C 202.623 1.7886 -0.709006 0
M  V30 2169 O 201.916 1.89344 0.293139 0
M  V30 2170 C 202.11 1.67064 -3.1595 0
M  V30 2171 C 201.939 0.82011 -4.42159 0
M  V30 2172 C 200.709 0.486328 -5.02954 0
M  V30 2173 C 202.907 0.151155 -5.14078 0
M  V30 2174 N 200.889 -0.377956 -6.12735 0
M  V30 2175 C 202.26 -0.573333 -6.17343 0
M  V30 2176 C 204.315 0.0716685 -4.97848 0
M  V30 2177 C 203.018 -1.3698 -7.06137 0
M  V30 2178 C 205.044 -0.711532 -5.87104 0
M  V30 2179 C 204.406 -1.42431 -6.8985 0
M  V30 2180 H 200.505 0.291798 -0.725519 0
M  V30 2181 H 203.089 0.123347 -1.94309 0
M  V30 2182 H 201.26 2.37642 -3.07215 0
M  V30 2183 H 202.992 2.32302 -3.31388 0
M  V30 2184 H 199.747 0.821753 -4.66416 0
M  V30 2185 H 200.171 -0.801077 -6.72244 0
M  V30 2186 H 204.813 0.608381 -4.184 0
M  V30 2187 H 202.531 -1.91778 -7.85014 0
M  V30 2188 H 206.117 -0.775005 -5.76615 0
M  V30 2189 H 204.997 -2.02061 -7.57721 0
M  V30 2190 N 202.5 1.5196 0.417844 0
M  V30 2191 C 203.463 1.74065 1.49111 0
M  V30 2192 C 204.463 0.610537 1.48758 0
M  V30 2193 O 205.653 0.87832 1.50437 0
M  V30 2194 C 202.785 1.81502 2.88565 0
M  V30 2195 H 203.978 2.69869 1.30807 0
M  V30 2196 H 201.531 1.42244 0.647785 0
M  V30 2197 H 202.266 0.875813 3.1225 0
M  V30 2198 H 202.051 2.63651 2.90225 0
M  V30 2199 H 203.541 2.00376 3.66387 0
M  V30 2200 N 203.978 -0.674533 1.42435 0
M  V30 2201 C 205.389 -1.25514 1.38214 0
M  V30 2202 C 205.74 -1.96055 0.0755464 0
M  V30 2203 O 204.865 -2.00028 -0.8257 0
M  V30 2204 C 205.46 -2.28269 2.50357 0
M  V30 2205 C 204.019 -2.81856 2.49467 0
M  V30 2206 C 203.166 -1.56182 2.29134 0
M  V30 2207 H 206.117 -0.467902 1.51646 0
M  V30 2208 H 206.138 -3.10009 2.20624 0
M  V30 2209 H 205.65 -1.769 3.45439 0
M  V30 2210 H 203.751 -3.37346 1.58204 0
M  V30 2211 H 203.864 -3.30854 3.46515 0
M  V30 2212 H 202.228 -1.82761 1.774 0
M  V30 2213 H 203.011 -1.06778 3.26272 0
M  V30 2214 N 205.456 -1.28612 -0.910864 0
M  V30 2215 C 206.366 -1.14643 -2.0468 0
M  V30 2216 C 207.382 -0.0723121 -1.7385 0
M  V30 2217 O 208.558 -0.282178 -1.99413 0
M  V30 2218 C 205.623 -0.812561 -3.37044 0
M  V30 2219 C 204.684 -1.96935 -3.81465 0
M  V30 2220 C 203.917 -1.65131 -5.07511 0
M  V30 2221 O 204.14 -0.567013 -5.67575 0
M  V30 2222 O 203.074 -2.49585 -5.47714 0
M  V30 2223 H 206.9 -2.1001 -2.19384 0
M  V30 2224 H 204.485 -1.07958 -1.03274 0
M  V30 2225 H 206.367 -0.640441 -4.16505 0
M  V30 2226 H 205.042 0.111426 -3.23508 0
M  V30 2227 H 203.949 -2.19664 -3.02818 0
M  V30 2228 H 205.282 -2.87414 -3.99567 0
M  V30 2229 N 206.934 1.1197 -1.10907 0
M  V30 2230 C 207.884 2.15946 -0.731538 0
M  V30 2231 C 208.868 1.58758 0.261699 0
M  V30 2232 O 210.06 1.76863 0.0696722 0
M  V30 2233 C 207.189 3.42877 -0.170299 0
M  V30 2234 C 206.275 4.07037 -1.19087 0
M  V30 2235 N 206.666 4.46135 -2.38322 0
M  V30 2236 C 204.964 4.33884 -1.03252 0
M  V30 2237 C 205.665 4.96331 -3.03366 0
M  V30 2238 N 204.641 4.9214 -2.30865 0
M  V30 2239 H 208.443 2.43947 -1.63912 0
M  V30 2240 H 205.957 1.28927 -0.987505 0
M  V30 2241 H 207.954 4.16732 0.118271 0
M  V30 2242 H 206.614 3.16343 0.731935 0
M  V30 2243 H 207.625 4.38345 -2.75815 0
M  V30 2244 H 204.302 4.17084 -0.186256 0
M  V30 2245 H 205.692 5.36257 -4.04818 0
M  V30 2246 N 208.412 0.89855 1.29475 0
M  V30 2247 C 209.322 0.379974 2.31502 0
M  V30 2248 C 210.338 -0.524695 1.659 0
M  V30 2249 O 211.514 -0.414551 1.97087 0
M  V30 2250 C 208.579 -0.385138 3.44554 0
M  V30 2251 C 207.64 0.550914 4.2575 0
M  V30 2252 C 206.873 -0.177778 5.33404 0
M  V30 2253 O 207.096 -1.40189 5.52904 0
M  V30 2254 O 206.03 0.479106 5.9999 0
M  V30 2255 H 209.856 1.22639 2.77837 0
M  V30 2256 H 207.441 0.662834 1.33891 0
M  V30 2257 H 209.323 -0.817841 4.13388 0
M  V30 2258 H 207.998 -1.20763 3.0033 0
M  V30 2259 H 206.905 1.03271 3.59564 0
M  V30 2260 H 208.238 1.33979 4.73614 0
M  V30 2261 N 209.89 -1.43072 0.660911 0
M  V30 2262 C 211.306 -1.56169 0.329173 0
M  V30 2263 C 211.506 -1.64317 -1.16629 0
M  V30 2264 O 210.562 -1.60245 -1.95135 0
M  V30 2265 C 211.875 -2.81873 1.04729 0
M  V30 2266 C 213.423 -2.95627 1.02828 0
M  V30 2267 C 213.898 -4.24174 1.72744 0
M  V30 2268 N 215.389 -4.31055 1.69545 0
M  V30 2269 C 216.124 -5.29304 2.20511 0
M  V30 2270 N 215.62 -6.33786 2.79799 0
M  V30 2271 N 217.413 -5.21008 2.10966 0
M  V30 2272 H 209.564 -1.36027 1.63127 0
M  V30 2273 H 211.827 -0.653823 0.686454 0
M  V30 2274 H 211.533 -2.81942 2.10242 0
M  V30 2275 H 211.407 -3.72338 0.603702 0
M  V30 2276 H 213.794 -2.95094 -0.0184742 0
M  V30 2277 H 213.875 -2.06431 1.51063 0
M  V30 2278 H 213.519 -4.25467 2.7738 0
M  V30 2279 H 213.449 -5.1228 1.2197 0
M  V30 2280 H 215.94 -3.56174 1.26288 0
M  V30 2281 H 216.253 -7.05086 3.16344 0
M  V30 2282 H 214.598 -6.34387 2.83863 0
M  V30 2283 H 217.789 -4.38301 1.64347 0
M  V30 2284 H 217.962 -5.97416 2.50993 0
M  V30 2285 N 211.368 -0.403325 -1.52352 0
M  V30 2286 C 212.608 0.173946 -2.03659 0
M  V30 2287 C 212.972 1.42869 -1.28267 0
M  V30 2288 O 214.173 2.08403 -1.69769 0
M  V30 2289 C 212.444 0.421478 -3.54906 0
M  V30 2290 S 214.003 0.967027 -4.28012 0
M  V30 2291 H 210.821 0.0477461 -0.709395 0
M  V30 2292 H 213.423 -0.554906 -1.87459 0
M  V30 2293 H 212.127 -0.498616 -4.0736 0
M  V30 2294 H 211.658 1.17837 -3.75337 0
M  V30 2295 H 213.673 2.24812 -4.4235 0
M  V30 2296 N 212.846 1.57033 -0.133567 0
M  V30 2297 C 214.095 1.94861 0.520768 0
M  V30 2298 C 214.408 1.02012 1.66892 0
M  V30 2299 O 215.614 1.29365 2.38699 0
M  V30 2300 C 214.07 3.46362 0.977809 0
M  V30 2301 C 213.678 4.47773 -0.142674 0
M  V30 2302 C 215.422 3.93083 1.60269 0
M  V30 2303 C 213.329 5.90468 0.331883 0
M  V30 2304 H 212.259 0.727453 0.198315 0
M  V30 2305 H 214.91 1.82227 -0.215759 0
M  V30 2306 H 213.292 3.54282 1.7692 0
M  V30 2307 H 214.466 4.51536 -0.919317 0
M  V30 2308 H 212.781 4.10891 -0.675124 0
M  V30 2309 H 215.378 4.97121 1.96914 0
M  V30 2310 H 215.721 3.33876 2.48662 0
M  V30 2311 H 216.254 3.88025 0.876453 0
M  V30 2312 H 212.993 6.53463 -0.516341 0
M  V30 2313 H 212.513 5.90094 1.07469 0
M  V30 2314 H 214.192 6.42179 0.788332 0
M  V30 2315 N 214.325 -0.140222 1.56975 0
M  V30 2316 C 215.571 -0.852949 1.83991 0
M  V30 2317 C 215.904 -1.80512 0.716187 0
M  V30 2318 O 215.179 -1.92479 -0.279681 0
M  V30 2319 C 215.462 -1.6215 3.21527 0
M  V30 2320 C 215.315 -0.690363 4.4447 0
M  V30 2321 C 216.634 -2.58247 3.56366 0
M  V30 2322 H 213.753 -0.308634 0.669264 0
M  V30 2323 H 216.395 -0.117898 1.89634 0
M  V30 2324 H 214.545 -2.24812 3.16847 0
M  V30 2325 H 216.217 -0.0742264 4.6124 0
M  V30 2326 H 214.46 -0.000396433 4.338 0
M  V30 2327 H 215.131 -1.2643 5.37326 0
M  V30 2328 H 217.607 -2.05701 3.61699 0
M  V30 2329 H 216.483 -3.09067 4.53617 0
M  V30 2330 H 216.744 -3.39923 2.82674 0
M  V30 2331 N 215.803 -1.52179 -0.40978 0
M  V30 2332 C 217.049 -1.67408 -1.15525 0
M  V30 2333 C 217.404 -0.398746 -1.88223 0
M  V30 2334 O 216.697 0.60678 -1.81738 0
M  V30 2335 C 216.891 -2.83428 -2.17723 0
M  V30 2336 C 216.72 -4.22121 -1.55061 0
M  V30 2337 C 215.49 -4.87657 -1.3236 0
M  V30 2338 C 217.688 -5.04248 -1.01185 0
M  V30 2339 N 215.67 -6.10387 -0.655834 0
M  V30 2340 C 217.041 -6.18209 -0.470963 0
M  V30 2341 C 219.096 -4.89583 -0.906252 0
M  V30 2342 C 217.799 -7.1911 0.165172 0
M  V30 2343 C 219.825 -5.90718 -0.28397 0
M  V30 2344 C 219.187 -7.03969 0.246243 0
M  V30 2345 H 215.286 -0.666251 -0.409431 0
M  V30 2346 H 217.87 -1.89482 -0.447729 0
M  V30 2347 H 216.041 -2.6297 -2.85834 0
M  V30 2348 H 217.773 -2.87697 -2.84627 0
M  V30 2349 H 214.528 -4.46007 -1.59294 0
M  V30 2350 H 214.952 -6.76153 -0.338596 0
M  V30 2351 H 219.594 -4.02253 -1.302 0
M  V30 2352 H 217.312 -8.06066 0.572986 0
M  V30 2353 H 220.898 -5.81443 -0.203792 0
M  V30 2354 H 219.778 -7.80886 0.720173 0
M  V30 2355 N 217.281 0.66697 -1.42791 0
M  V30 2356 C 218.229 1.80157 -1.47127 0
M  V30 2357 C 219.223 1.65825 -0.346199 0
M  V30 2358 O 220.429 1.72338 -0.519572 0
M  V30 2359 H 216.804 0.594158 -0.460956 0
M  V30 2360 H 218.775 1.73619 -2.42692 0
M  V30 2361 C 217.524 3.18351 -1.39813 0
M  V30 2362 H 216.847 3.3001 -2.25684 0
M  V30 2363 H 218.287 3.97736 -1.46908 0
M  V30 2364 C 216.746 3.36707 -0.11391 0
M  V30 2365 O 217.276 3.93027 0.830241 0
M  V30 2366 N 215.482 2.90586 -0.0285295 0
M  V30 2367 H 215.029 2.4494 -0.79764 0
M  V30 2368 H 214.987 3.03245 0.830063 0
M  V30 2369 N 218.759 1.29093 0.90403 0
M  V30 2370 C 220.036 1.075 1.63411 0
M  V30 2371 C 220.416 -0.382346 2.07609 0
M  V30 2372 O 219.764 -1.37031 1.82851 0
M  V30 2373 C 219.974 2.05858 2.81822 0
M  V30 2374 C 221.322 2.36539 3.52611 0
M  V30 2375 O 222.346 2.04019 2.91984 0
M  V30 2376 O 221.205 2.92085 4.61897 0
M  V30 2377 H 218.299 0.411547 0.717327 0
M  V30 2378 H 220.845 1.40449 0.952479 0
M  V30 2379 H 219.617 3.04037 2.46327 0
M  V30 2380 H 219.24 1.73613 3.57693 0
M  V30 2381 N 220.237 -1.11381 1.11499 0
M  V30 2382 C 221.648 -1.6465 0.880191 0
M  V30 2383 C 221.999 -1.87199 -0.587434 0
M  V30 2384 O 221.124 -1.60667 -1.44966 0
M  V30 2385 C 221.719 -2.99105 1.59128 0
M  V30 2386 C 220.278 -3.49279 1.40289 0
M  V30 2387 C 219.425 -2.24077 1.63354 0
M  V30 2388 H 222.376 -0.950123 1.27116 0
M  V30 2389 H 222.397 -3.66107 1.03664 0
M  V30 2390 H 221.909 -2.82661 2.65941 0
M  V30 2391 H 220.01 -3.70887 0.356888 0
M  V30 2392 H 220.123 -4.2803 2.15238 0
M  V30 2393 H 218.487 -2.31733 1.05698 0
M  V30 2394 H 219.27 -2.10175 2.71443 0
M  V30 2395 N 221.715 -0.905404 -1.28997 0
M  V30 2396 C 222.625 -0.392246 -2.31298 0
M  V30 2397 C 223.641 0.515889 -1.66176 0
M  V30 2398 O 224.817 0.404093 -1.97304 0
M  V30 2399 C 221.882 0.36686 -3.44754 0
M  V30 2400 C 220.943 -0.573485 -4.25452 0
M  V30 2401 C 220.176 0.149488 -5.33491 0
M  V30 2402 O 220.399 1.37255 -5.5364 0
M  V30 2403 O 219.333 -0.510919 -5.99728 0
M  V30 2404 H 223.159 -1.2411 -2.77183 0
M  V30 2405 H 220.744 -0.669926 -1.33538 0
M  V30 2406 H 222.626 0.795907 -4.13816 0
M  V30 2407 H 221.301 1.19169 -3.00966 0
M  V30 2408 H 220.208 -1.05176 -3.59011 0
M  V30 2409 H 221.541 -1.36489 -4.72897 0
M  V30 2410 N 223.193 1.4272 -0.668489 0
M  V30 2411 C 224.123 2.335 -0.000100175 0
M  V30 2412 C 225.104 1.50328 0.795964 0
M  V30 2413 O 226.289 1.78949 0.754385 0
M  V30 2414 C 223.419 3.33874 0.956302 0
M  V30 2415 C 222.373 4.27152 0.269278 0
M  V30 2416 C 221.699 5.17684 1.33818 0
M  V30 2417 C 222.999 5.15373 -0.847805 0
M  V30 2418 H 224.693 2.89639 -0.758244 0
M  V30 2419 H 222.239 1.39269 -0.366079 0
M  V30 2420 H 224.192 3.9629 1.43292 0
M  V30 2421 H 222.916 2.76025 1.74579 0
M  V30 2422 H 221.575 3.66123 -0.187042 0
M  V30 2423 H 221.223 4.56165 2.1195 0
M  V30 2424 H 220.923 5.80918 0.883659 0
M  V30 2425 H 222.447 5.82974 1.81586 0
M  V30 2426 H 223.861 5.7151 -0.452681 0
M  V30 2427 H 222.258 5.87407 -1.22773 0
M  V30 2428 H 223.328 4.5415 -1.69929 0
M  V30 2429 N 224.671 0.411399 1.52136 0
M  V30 2430 C 225.618 -0.412975 2.27075 0
M  V30 2431 C 226.588 -1.03912 1.29582 0
M  V30 2432 O 227.773 -1.06296 1.58448 0
M  V30 2433 C 224.913 -1.52247 3.09701 0
M  V30 2434 C 224.026 -0.917021 4.22155 0
M  V30 2435 C 223.161 -1.9994 4.92135 0
M  V30 2436 C 222.2 -1.37101 5.96548 0
M  V30 2437 N 221.337 -2.39364 6.60038 0
M  V30 2438 H 226.177 0.232499 2.97092 0
M  V30 2439 H 223.714 0.126496 1.46555 0
M  V30 2440 H 225.672 -2.17674 3.55913 0
M  V30 2441 H 224.302 -2.13794 2.41851 0
M  V30 2442 H 223.354 -0.151742 3.80097 0
M  V30 2443 H 224.666 -0.418006 4.97045 0
M  V30 2444 H 223.82 -2.73088 5.41763 0
M  V30 2445 H 222.559 -2.53208 4.16818 0
M  V30 2446 H 221.564 -0.624873 5.46237 0
M  V30 2447 H 222.789 -0.845998 6.7381 0
M  V30 2448 H 220.735 -2.91759 5.87548 0
M  V30 2449 H 220.652 -1.9428 7.3061 0
M  V30 2450 H 221.92 -3.12074 7.14304 0
M  V30 2451 N 226.149 -1.5696 0.141893 0
M  V30 2452 C 227.398 -1.95135 -0.510427 0
M  V30 2453 C 227.711 -1.02896 -1.66348 0
M  V30 2454 O 228.917 -1.30629 -2.38009 0
M  V30 2455 C 227.373 -3.46876 -0.959427 0
M  V30 2456 C 226.981 -4.47691 0.166419 0
M  V30 2457 C 228.725 -3.93927 -1.58183 0
M  V30 2458 C 226.632 -5.90636 -0.300565 0
M  V30 2459 H 225.562 -0.728494 -0.194454 0
M  V30 2460 H 228.213 -1.8211 0.22542 0
M  V30 2461 H 226.595 -3.55215 -1.75038 0
M  V30 2462 H 227.769 -4.51043 0.94325 0
M  V30 2463 H 226.084 -4.10527 0.696905 0
M  V30 2464 H 228.681 -4.98158 -1.94275 0
M  V30 2465 H 229.024 -3.3519 -2.46888 0
M  V30 2466 H 229.557 -3.88484 -0.855863 0
M  V30 2467 H 226.296 -6.5318 0.550989 0
M  V30 2468 H 225.816 -5.90655 -1.04338 0
M  V30 2469 H 227.495 -6.42588 -0.754265 0
M  V30 2470 N 227.627 0.131896 -1.57047 0
M  V30 2471 C 228.904 0.871495 -1.75112 0
M  V30 2472 C 229.284 1.9866 -0.713949 0
M  V30 2473 O 228.632 2.26965 0.264447 0
M  V30 2474 C 228.842 1.40007 -3.19686 0
M  V30 2475 C 230.19 1.85752 -3.81813 0
M  V30 2476 O 231.214 1.49715 -3.23209 0
M  V30 2477 O 230.073 2.5226 -4.84796 0
M  V30 2478 H 227.167 0.412919 -0.716538 0
M  V30 2479 H 229.713 0.116641 -1.69299 0
M  V30 2480 H 228.485 0.599404 -3.86682 0
M  V30 2481 H 228.108 2.218 -3.29986 0
M  V30 2482 N 229.106 1.52395 0.401703 0
M  V30 2483 C 230.352 1.68019 1.14635 0
M  V30 2484 C 230.707 0.408722 1.88009 0
M  V30 2485 O 230 -0.597133 1.82057 0
M  V30 2486 C 230.194 2.84578 2.16217 0
M  V30 2487 C 230.023 4.22938 1.5282 0
M  V30 2488 C 228.793 4.88352 1.29772 0
M  V30 2489 C 230.991 5.04778 0.985094 0
M  V30 2490 N 228.973 6.10726 0.623455 0
M  V30 2491 C 230.344 6.1845 0.438172 0
M  V30 2492 C 232.399 4.90057 0.880275 0
M  V30 2493 C 231.102 7.19013 -0.203306 0
M  V30 2494 C 233.128 5.9086 0.252639 0
M  V30 2495 C 232.49 7.03829 -0.283573 0
M  V30 2496 H 228.589 0.668413 0.405892 0
M  V30 2497 H 231.173 1.89717 0.437674 0
M  V30 2498 H 229.344 2.64483 2.84435 0
M  V30 2499 H 231.076 2.89202 2.83098 0
M  V30 2500 H 227.831 4.46846 1.56926 0
M  V30 2501 H 228.255 6.76323 0.302733 0
M  V30 2502 H 232.897 4.02938 1.28065 0
M  V30 2503 H 230.615 8.05751 -0.615726 0
M  V30 2504 H 234.201 5.81543 0.172954 0
M  V30 2505 H 233.081 7.80493 -0.761575 0
M  V30 2506 N 230.584 -0.659388 1.43143 0
M  V30 2507 C 231.995 -1.24041 1.39537 0
M  V30 2508 C 232.346 -1.95963 0.0963364 0
M  V30 2509 O 231.471 -2.00892 -0.804438 0
M  V30 2510 C 232.066 -2.25601 2.52764 0
M  V30 2511 C 230.625 -2.79195 2.52443 0
M  V30 2512 C 229.772 -1.53743 2.30778 0
M  V30 2513 H 232.723 -0.451792 1.52133 0
M  V30 2514 H 232.744 -3.07651 2.23899 0
M  V30 2515 H 232.256 -1.73226 3.47296 0
M  V30 2516 H 230.357 -3.35649 1.61773 0
M  V30 2517 H 230.47 -3.2716 3.50004 0
M  V30 2518 H 228.834 -1.80869 1.79328 0
M  V30 2519 H 229.617 -1.03312 3.27386 0
M  V30 2520 N 232.062 -1.29571 -0.897171 0
M  V30 2521 C 232.992 -1.17473 -2.01798 0
M  V30 2522 C 233.973 -0.068323 -1.69963 0
M  V30 2523 O 235.158 -0.248239 -1.92607 0
M  V30 2524 C 232.288 -0.853099 -3.36659 0
M  V30 2525 C 231.242 -1.9161 -3.82713 0
M  V30 2526 C 230.568 -1.44773 -5.14728 0
M  V30 2527 C 231.868 -3.32535 -4.02763 0
M  V30 2528 H 233.562 -2.11237 -2.12177 0
M  V30 2529 H 231.108 -1.01699 -1.01948 0
M  V30 2530 H 233.061 -0.755165 -4.14578 0
M  V30 2531 H 231.785 0.120236 -3.26379 0
M  V30 2532 H 230.444 -2.00346 -3.07013 0
M  V30 2533 H 230.092 -0.462995 -5.00865 0
M  V30 2534 H 229.792 -2.15865 -5.46513 0
M  V30 2535 H 231.316 -1.36334 -5.95185 0
M  V30 2536 H 232.73 -3.26626 -4.71156 0
M  V30 2537 H 231.127 -4.01607 -4.45905 0
M  V30 2538 H 232.197 -3.75326 -3.07016 0
M  V30 2539 N 233.54 1.10788 -1.12088 0
M  V30 2540 C 234.472 2.16816 -0.743213 0
M  V30 2541 C 235.485 1.6119 0.228412 0
M  V30 2542 O 236.674 1.78497 0.0102931 0
M  V30 2543 C 233.774 3.38809 -0.0787313 0
M  V30 2544 C 232.947 4.23885 -1.0789 0
M  V30 2545 C 232.006 5.24334 -0.442713 0
M  V30 2546 O 231.032 5.58497 -1.09864 0
M  V30 2547 N 232.234 5.75079 0.791457 0
M  V30 2548 H 234.999 2.49825 -1.65552 0
M  V30 2549 H 232.56 1.26373 -1.012 0
M  V30 2550 H 234.552 4.03107 0.358766 0
M  V30 2551 H 233.122 3.03805 0.736275 0
M  V30 2552 H 232.342 3.55939 -1.69414 0
M  V30 2553 H 233.63 4.77562 -1.75533 0
M  V30 2554 H 233.028 5.49517 1.3434 0
M  V30 2555 H 231.585 6.4118 1.17183 0
M  V30 2556 N 235.018 0.912232 1.28515 0
M  V30 2557 C 236.295 0.463597 1.90027 0
M  V30 2558 C 236.675 -1.05753 1.82701 0
M  V30 2559 O 236.023 -1.90492 1.26194 0
M  V30 2560 C 236.233 0.992253 3.34597 0
M  V30 2561 C 237.581 1.04344 4.11579 0
M  V30 2562 O 238.605 0.94079 3.43551 0
M  V30 2563 O 237.464 1.1995 5.33174 0
M  V30 2564 H 234.558 0.146666 0.813891 0
M  V30 2565 H 237.104 1.00292 1.36893 0
M  V30 2566 H 235.876 2.03623 3.34146 0
M  V30 2567 H 235.499 0.433672 3.95228 0
M  V30 2568 N 236.496 -1.42363 0.676048 0
M  V30 2569 C 237.459 -2.29199 0.00766941 0
M  V30 2570 C 238.459 -1.43389 -0.727745 0
M  V30 2571 O 239.649 -1.64764 -0.56556 0
M  V30 2572 C 236.781 -3.2591 -0.999785 0
M  V30 2573 H 237.974 -2.89794 0.771988 0
M  V30 2574 H 235.527 -1.50024 0.438468 0
M  V30 2575 H 236.262 -2.70256 -1.79255 0
M  V30 2576 H 236.047 -3.89202 -0.475829 0
M  V30 2577 H 237.537 -3.91028 -1.46583 0
M  V30 2578 N 237.974 -0.419461 -1.51915 0
M  V30 2579 C 239.385 0.0477853 -1.86639 0
M  V30 2580 C 239.736 1.43531 -1.33766 0
M  V30 2581 O 238.861 2.05401 -0.68113 0
M  V30 2582 C 239.456 0.0934885 -3.38671 0
M  V30 2583 C 238.015 0.505097 -3.72996 0
M  V30 2584 C 237.162 -0.313792 -2.75519 0
M  V30 2585 H 240.113 -0.636088 -1.45395 0
M  V30 2586 H 240.134 0.906667 -3.6954 0
M  V30 2587 H 239.646 -0.916501 -3.77123 0
M  V30 2588 H 237.747 1.52135 -3.40126 0
M  V30 2589 H 237.86 0.242309 -4.78487 0
M  V30 2590 H 236.224 0.225363 -2.53701 0
M  V30 2591 H 237.007 -1.32232 -3.16812 0
M  V30 2592 N 239.452 1.56882 -0.150215 0
M  V30 2593 C 240.382 2.19935 0.784284 0
M  V30 2594 C 241.363 1.14854 1.25469 0
M  V30 2595 O 242.548 1.43209 1.31168 0
M  V30 2596 C 239.678 2.82349 2.02229 0
M  V30 2597 C 238.632 3.93285 1.68853 0
M  V30 2598 C 237.958 4.42649 2.99944 0
M  V30 2599 C 239.258 5.13904 0.932714 0
M  V30 2600 H 240.952 2.9828 0.258781 0
M  V30 2601 H 238.498 1.43473 0.123029 0
M  V30 2602 H 240.451 3.25126 2.68088 0
M  V30 2603 H 239.175 2.0134 2.57157 0
M  V30 2604 H 237.834 3.5113 1.05371 0
M  V30 2605 H 237.482 3.58458 3.52869 0
M  V30 2606 H 237.182 5.17476 2.78374 0
M  V30 2607 H 238.706 4.88099 3.66868 0
M  V30 2608 H 240.12 5.53506 1.49345 0
M  V30 2609 H 238.517 5.94515 0.81684 0
M  V30 2610 H 239.587 4.84842 -0.0749568 0
M  V30 2611 N 240.93 -0.123565 1.57115 0
M  V30 2612 C 241.86 -1.15309 2.03042 0
M  V30 2613 C 242.841 -1.43454 0.914061 0
M  V30 2614 O 244.026 -1.53973 1.18347 0
M  V30 2615 C 241.156 -2.48043 2.43089 0
M  V30 2616 C 240.11 -2.3437 3.58127 0
M  V30 2617 C 239.436 -3.72026 3.84059 0
M  V30 2618 C 240.736 -1.80804 4.90007 0
M  V30 2619 H 242.43 -0.771102 2.893 0
M  V30 2620 H 239.976 -0.369479 1.39179 0
M  V30 2621 H 241.929 -3.20311 2.73823 0
M  V30 2622 H 240.653 -2.88122 1.53796 0
M  V30 2623 H 239.312 -1.64551 3.27595 0
M  V30 2624 H 238.96 -4.09582 2.91979 0
M  V30 2625 H 238.66 -3.63732 4.6149 0
M  V30 2626 H 240.184 -4.45806 4.1724 0
M  V30 2627 H 241.598 -2.42886 5.19307 0
M  V30 2628 H 239.995 -1.83343 5.71407 0
M  V30 2629 H 241.065 -0.76528 4.78823 0
M  V30 2630 N 242.408 -1.52605 -0.393616 0
M  V30 2631 C 243.633 -1.71592 -1.16495 0
M  V30 2632 C 244.058 -0.43133 -1.83088 0
M  V30 2633 O 243.416 0.612523 -1.7064 0
M  V30 2634 C 243.464 -2.86318 -2.19213 0
M  V30 2635 O 242.568 -2.52969 -3.257 0
M  V30 2636 H 241.909 -0.570734 -0.33935 0
M  V30 2637 H 244.439 -1.99377 -0.459324 0
M  V30 2638 H 244.449 -3.1168 -2.63286 0
M  V30 2639 H 243.124 -3.79511 -1.7013 0
M  V30 2640 H 241.701 -2.38332 -2.86797 0
M  V30 2641 N 243.887 0.651787 -1.4349 0
M  V30 2642 C 244.797 1.79368 -1.5121 0
M  V30 2643 C 245.813 1.69361 -0.399093 0
M  V30 2644 O 246.989 1.90505 -0.653431 0
M  V30 2645 C 244.054 3.15653 -1.43401 0
M  V30 2646 C 243.115 3.37446 -2.65384 0
M  V30 2647 C 242.348 4.67229 -2.57939 0
M  V30 2648 O 242.571 5.46676 -1.62792 0
M  V30 2649 O 241.505 4.90773 -3.48462 0
M  V30 2650 H 245.331 1.7581 -2.47638 0
M  V30 2651 H 242.916 0.810447 -1.25507 0
M  V30 2652 H 244.798 3.96935 -1.41494 0
M  V30 2653 H 243.473 3.19798 -0.501085 0
M  V30 2654 H 242.38 2.55923 -2.72863 0
M  V30 2655 H 243.713 3.38148 -3.57654 0
M  V30 2656 N 245.365 1.30045 0.890287 0
M  V30 2657 C 246.312 1.15976 1.99545 0
M  V30 2658 C 247.282 0.0506202 1.66023 0
M  V30 2659 O 248.467 0.219847 1.89529 0
M  V30 2660 C 245.607 0.852054 3.34416 0
M  V30 2661 C 244.72 2.04255 3.80662 0
M  V30 2662 C 243.855 1.6734 5.04154 0
M  V30 2663 C 242.894 2.82916 5.42794 0
M  V30 2664 N 242.031 2.46333 6.57468 0
M  V30 2665 H 246.871 2.10524 2.10911 0
M  V30 2666 H 244.408 1.04749 1.03276 0
M  V30 2667 H 246.366 0.654296 4.12037 0
M  V30 2668 H 244.996 -0.0565502 3.2275 0
M  V30 2669 H 244.048 2.35172 2.98995 0
M  V30 2670 H 245.36 2.90826 4.05242 0
M  V30 2671 H 244.514 1.43908 5.89386 0
M  V30 2672 H 243.253 0.779308 4.81433 0
M  V30 2673 H 242.258 3.0702 4.56091 0
M  V30 2674 H 243.483 3.73004 5.6749 0
M  V30 2675 H 241.429 1.59423 6.36334 0
M  V30 2676 H 241.346 3.26436 6.81891 0
M  V30 2677 H 242.614 2.26244 7.45945 0
M  V30 2678 N 246.843 -1.10192 1.12674 0
M  V30 2679 C 248.12 -1.78717 0.794965 0
M  V30 2680 C 248.5 -1.98628 -0.714853 0
M  V30 2681 O 247.848 -1.58135 -1.64941 0
M  V30 2682 C 248.058 -3.11546 1.5729 0
M  V30 2683 C 249.406 -3.86382 1.76052 0
M  V30 2684 O 250.43 -3.21274 1.53823 0
M  V30 2685 O 249.289 -5.03246 2.13087 0
M  V30 2686 H 246.383 -0.774702 0.289423 0
M  V30 2687 H 248.929 -1.16819 1.23091 0
M  V30 2688 H 247.701 -2.92489 2.59935 0
M  V30 2689 H 247.324 -3.81164 1.13137 0
M  V30 2690 N 248.321 -0.919034 -1.28029 0
M  V30 2691 C 249.737 -0.617972 -1.4715 0
M  V30 2692 C 249.937 0.835242 -1.83374 0
M  V30 2693 O 248.993 1.61388 -1.94191 0
M  V30 2694 C 250.306 -1.56041 -2.57044 0
M  V30 2695 C 251.854 -1.56769 -2.7091 0
M  V30 2696 C 252.329 -2.49688 -3.83953 0
M  V30 2697 N 253.82 -2.47845 -3.91314 0
M  V30 2698 C 254.555 -3.16437 -4.78179 0
M  V30 2699 N 254.051 -3.94376 -5.69596 0
M  V30 2700 N 255.844 -3.05498 -4.71834 0
M  V30 2701 H 247.995 -1.85866 -1.02798 0
M  V30 2702 H 250.258 -0.797506 -0.512531 0
M  V30 2703 H 249.964 -2.59671 -2.372 0
M  V30 2704 H 249.838 -1.29551 -3.54255 0
M  V30 2705 H 252.225 -0.538745 -2.90141 0
M  V30 2706 H 252.306 -1.87305 -1.74214 0
M  V30 2707 H 251.95 -3.52688 -3.65477 0
M  V30 2708 H 251.88 -2.16453 -4.80058 0
M  V30 2709 H 254.371 -1.91234 -3.25941 0
M  V30 2710 H 254.684 -4.43721 -6.32718 0
M  V30 2711 H 253.029 -3.98481 -5.69419 0
M  V30 2712 H 256.22 -2.44108 -3.99411 0
M  V30 2713 H 256.393 -3.59225 -5.39316 0
M  V30 2714 N 249.799 1.42003 -0.683588 0
M  V30 2715 C 250.731 2.29183 0.0283068 0
M  V30 2716 C 251.744 1.4415 0.756611 0
M  V30 2717 O 252.933 1.67779 0.609306 0
M  V30 2718 C 250.033 3.21765 1.06398 0
M  V30 2719 C 249.206 4.35496 0.407723 0
M  V30 2720 C 248.265 5.08737 1.34437 0
M  V30 2721 O 247.291 5.62948 0.841318 0
M  V30 2722 N 248.493 5.15075 2.67728 0
M  V30 2723 H 251.258 2.9092 -0.720105 0
M  V30 2724 H 248.819 1.53025 -0.528682 0
M  V30 2725 H 250.811 3.6763 1.69204 0
M  V30 2726 H 249.381 2.61418 1.71404 0
M  V30 2727 H 248.601 3.92165 -0.400012 0
M  V30 2728 H 249.889 5.08776 -0.0490956 0
M  V30 2729 H 249.287 4.72457 3.11129 0
M  V30 2730 H 247.844 5.64556 3.2576 0
M  V30 2731 N 251.277 0.427512 1.51691 0
M  V30 2732 C 252.525 -0.141948 2.01601 0
M  V30 2733 C 252.846 -1.44067 1.31414 0
M  V30 2734 O 252.116 -1.90763 0.445658 0
M  V30 2735 H 250.696 -0.0554468 0.744939 0
M  V30 2736 H 253.358 0.567968 1.86441 0
M  V30 2737 H 252.454 -0.324913 3.10404 0
M  V30 2738 N 252.755 -1.56801 0.158532 0
M  V30 2739 C 253.702 -2.17337 -0.776729 0
M  V30 2740 C 254.672 -1.1096 -1.23601 0
M  V30 2741 O 255.857 -1.39054 -1.30647 0
M  V30 2742 C 252.997 -2.80822 -2.00582 0
M  V30 2743 C 252.11 -4.01624 -1.59129 0
M  V30 2744 C 251.245 -4.53072 -2.77306 0
M  V30 2745 C 250.284 -5.66314 -2.32282 0
M  V30 2746 N 249.421 -6.12329 -3.43508 0
M  V30 2747 H 254.261 -2.96918 -0.253701 0
M  V30 2748 H 251.798 -1.46661 -0.113504 0
M  V30 2749 H 253.756 -3.15779 -2.72652 0
M  V30 2750 H 252.386 -2.03866 -2.50277 0
M  V30 2751 H 251.438 -3.72571 -0.767806 0
M  V30 2752 H 252.75 -4.83633 -1.2207 0
M  V30 2753 H 251.904 -4.90145 -3.57551 0
M  V30 2754 H 250.643 -3.70095 -3.17617 0
M  V30 2755 H 249.648 -5.28806 -1.5048 0
M  V30 2756 H 250.873 -6.51085 -1.93043 0
M  V30 2757 H 248.819 -5.32284 -3.83418 0
M  V30 2758 H 248.736 -6.89293 -3.105 0
M  V30 2759 H 250.004 -6.5405 -4.24075 0
M  V30 2760 N 254.233 0.115231 -1.57178 0
M  V30 2761 C 255.196 1.12526 -1.99676 0
M  V30 2762 C 256.196 1.34095 -0.88742 0
M  V30 2763 O 257.386 1.30548 -1.15337 0
M  V30 2764 C 254.518 2.4789 -2.34015 0
M  V30 2765 H 255.711 0.759912 -2.90113 0
M  V30 2766 H 253.264 0.359648 -1.52106 0
M  V30 2767 H 253.999 2.89339 -1.4647 0
M  V30 2768 H 253.784 2.33588 -3.14927 0
M  V30 2769 H 255.274 3.20575 -2.67622 0
M  V30 2770 N 255.711 1.52812 0.385517 0
M  V30 2771 C 256.958 1.68026 1.1302 0
M  V30 2772 C 257.286 0.421934 1.89868 0
M  V30 2773 O 256.541 -0.595749 1.86412 0
M  V30 2774 C 256.84 2.86856 2.13187 0
M  V30 2775 C 256.506 4.24159 1.5297 0
M  V30 2776 C 255.168 4.61501 1.36274 0
M  V30 2777 C 257.52 5.09627 1.09223 0
M  V30 2778 C 254.848 5.81966 0.743837 0
M  V30 2779 C 257.2 6.30719 0.487411 0
M  V30 2780 C 255.864 6.6679 0.307777 0
M  V30 2781 H 255.134 0.614849 0.413571 0
M  V30 2782 H 257.781 1.86962 0.414405 0
M  V30 2783 H 256.086 2.6235 2.90998 0
M  V30 2784 H 257.783 2.95821 2.70722 0
M  V30 2785 H 254.373 3.94746 1.66954 0
M  V30 2786 H 258.557 4.81343 1.20922 0
M  V30 2787 H 253.813 6.08519 0.592891 0
M  V30 2788 H 257.987 6.96259 0.140143 0
M  V30 2789 H 255.614 7.60001 -0.173879 0
M  V30 2790 N 257.189 -0.644168 1.43834 0
M  V30 2791 C 258.152 -1.73857 1.49353 0
M  V30 2792 C 259.152 -1.56315 0.377112 0
M  V30 2793 O 260.342 -1.62048 0.639226 0
M  V30 2794 C 257.474 -3.12819 1.35488 0
M  V30 2795 H 258.667 -1.70342 2.46827 0
M  V30 2796 H 256.22 -0.856652 1.30733 0
M  V30 2797 H 256.955 -3.2194 0.390569 0
M  V30 2798 H 256.74 -3.26958 2.16428 0
M  V30 2799 H 258.23 -3.92606 1.42302 0
M  V30 2800 N 258.668 -1.30515 -0.883378 0
M  V30 2801 C 259.945 -1.10086 -1.6168 0
M  V30 2802 C 260.325 0.349269 -2.08191 0
M  V30 2803 O 259.673 1.34105 -1.85008 0
M  V30 2804 C 259.883 -2.10315 -2.78511 0
M  V30 2805 C 261.231 -2.42119 -3.48803 0
M  V30 2806 O 262.255 -2.08638 -2.88702 0
M  V30 2807 O 261.114 -2.99396 -4.57192 0
M  V30 2808 H 258.208 -0.422907 -0.710689 0
M  V30 2809 H 260.754 -1.41947 -0.930015 0
M  V30 2810 H 259.526 -3.07917 -2.41459 0
M  V30 2811 H 259.149 -1.79282 -3.54886 0
M  V30 2812 N 260.146 1.09593 -1.13257 0
M  V30 2813 C 261.109 2.14359 -0.811358 0
M  V30 2814 C 262.109 1.59808 0.178377 0
M  V30 2815 O 263.299 1.74132 -0.0484911 0
M  V30 2816 C 260.431 3.40269 -0.207276 0
M  V30 2817 H 261.624 2.44284 -1.73969 0
M  V30 2818 H 259.177 1.25102 -0.936973 0
M  V30 2819 H 259.912 3.15969 0.73036 0
M  V30 2820 H 259.697 3.81154 -0.919992 0
M  V30 2821 H 261.187 4.176 0.000667944 0
M  V30 2822 N 261.624 0.925811 1.2754 0
M  V30 2823 C 262.901 0.483726 1.89524 0
M  V30 2824 C 263.281 -1.03809 1.83812 0
M  V30 2825 O 262.629 -1.89143 1.28207 0
M  V30 2826 C 262.839 1.02769 3.33526 0
M  V30 2827 C 264.187 1.08703 4.10449 0
M  V30 2828 O 265.211 0.977175 3.42534 0
M  V30 2829 O 264.07 1.25599 5.31871 0
M  V30 2830 H 261.164 0.15529 0.812289 0
M  V30 2831 H 263.71 1.01738 1.35822 0
M  V30 2832 H 262.482 2.07155 3.31967 0
M  V30 2833 H 262.105 0.475567 3.94746 0
M  V30 2834 N 263.102 -1.41638 0.69111 0
M  V30 2835 C 264.342 -2.03166 0.224291 0
M  V30 2836 C 264.706 -1.53537 -1.15284 0
M  V30 2837 O 265.907 -2.0696 -1.71525 0
M  V30 2838 C 264.178 -3.56342 0.274758 0
M  V30 2839 S 265.737 -4.3864 -0.118669 0
M  V30 2840 H 262.555 -0.705188 0.0907263 0
M  V30 2841 H 265.157 -1.7314 0.907895 0
M  V30 2842 H 263.861 -3.89958 1.2791 0
M  V30 2843 H 263.392 -3.91063 -0.428142 0
M  V30 2844 H 265.407 -4.77549 -1.34764 0
M  V30 2845 N 264.58 -0.43555 -1.51462 0
M  V30 2846 C 265.827 0.131514 -2.02072 0
M  V30 2847 C 266.155 1.42868 -1.31981 0
M  V30 2848 O 265.41 1.91076 -0.422883 0
M  V30 2849 C 265.709 0.39942 -3.55161 0
M  V30 2850 C 265.375 -0.81172 -4.43533 0
M  V30 2851 C 264.037 -1.14387 -4.67407 0
M  V30 2852 C 266.389 -1.61976 -4.95392 0
M  V30 2853 C 263.717 -2.28477 -5.40384 0
M  V30 2854 C 266.069 -2.75164 -5.6962 0
M  V30 2855 C 264.733 -3.08835 -5.91758 0
M  V30 2856 H 264.003 0.0481244 -0.739436 0
M  V30 2857 H 266.65 -0.58238 -1.8243 0
M  V30 2858 H 264.955 1.19519 -3.73125 0
M  V30 2859 H 266.652 0.85157 -3.91854 0
M  V30 2860 H 263.242 -0.542898 -4.25148 0
M  V30 2861 H 267.426 -1.37637 -4.76833 0
M  V30 2862 H 262.682 -2.5488 -5.55739 0
M  V30 2863 H 266.856 -3.38147 -6.08793 0
M  V30 2864 H 264.483 -3.97353 -6.48086 0
M  V30 2865 N 266.058 1.56714 -0.166846 0
M  V30 2866 C 267.469 1.83378 0.350646 0
M  V30 2867 C 267.82 1.08646 1.63372 0
M  V30 2868 O 266.945 0.338058 2.13743 0
M  V30 2869 C 267.54 3.32643 0.642963 0
M  V30 2870 C 266.099 3.59818 1.10491 0
M  V30 2871 C 265.246 2.76954 0.138411 0
M  V30 2872 H 268.197 1.53803 -0.391193 0
M  V30 2873 H 268.218 3.49878 1.49551 0
M  V30 2874 H 267.73 3.87007 -0.291055 0
M  V30 2875 H 265.831 3.1086 2.05418 0
M  V30 2876 H 265.944 4.68178 1.01716 0
M  V30 2877 H 264.308 2.4666 0.634911 0
M  V30 2878 H 265.091 3.34097 -0.789549 0
M  V30 2879 O 267.575 0.0288451 1.61474 0
M  V30 2880 H 268.266 -0.583771 1.84694 0
M  V30 END ATOM
M  V30 BEGIN BOND
M  V30 END BOND
M  V30 END CTAB
M  END
$$$$
