drugbank_target|Q9HUR5 Vanillate porin OpdK (DB04233)
 OpenBabel12092120443D

  0  0  0     0  0            999 V3000
M  V30 BEGIN CTAB
M  V30 COUNTS 6357 6430 0 0 0
M  V30 BEGIN ATOM
M  V30 1 H -0.908 1.98254 -0.117106 0
M  V30 2 N 0 1.576 0 0
M  V30 3 C 0.933 2.03868 1.02534 0
M  V30 4 C 1.911 0.928543 1.3348 0
M  V30 5 O 3.095 1.19667 1.45644 0
M  V30 6 C 0.222 2.43627 2.35294 0
M  V30 7 C -0.732 3.65373 2.2001 0
M  V30 8 S 0.101 5.13292 1.52614 0
M  V30 9 C 1.257 5.56322 2.86805 0
M  V30 10 H 1.49 2.90518 0.631377 0
M  V30 11 H -0.977 1.52953 0.210867 0
M  V30 12 H 0.981 2.67203 3.11629 0
M  V30 13 H -0.358 1.57376 2.7183 0
M  V30 14 H -1.165 3.90944 3.18086 0
M  V30 15 H -1.563 3.418 1.51819 0
M  V30 16 H 0.729 5.58782 3.83104 0
M  V30 17 H 1.672 6.56266 2.65933 0
M  V30 18 H 2.08 4.83886 2.90714 0
M  V30 19 N 1.4781 -0.272755 1.55222 0
M  V30 20 C 2.4251 -1.33716 1.88119 0
M  V30 21 C 3.3951 -1.49066 0.73271 0
M  V30 22 O 4.5801 -1.63469 0.984002 0
M  V30 23 C 1.7201 -2.69238 2.15882 0
M  V30 24 C 0.8331 -2.62108 3.43399 0
M  V30 25 C -0.0319 -3.89811 3.60861 0
M  V30 26 C -0.9929 -3.77193 4.8207 0
M  V30 27 N -1.8559 -4.9673 4.96189 0
M  V30 28 H 2.9841 -1.04962 2.78903 0
M  V30 29 H 0.5211 -0.507088 1.38083 0
M  V30 30 H 2.4791 -3.48089 2.29978 0
M  V30 31 H 1.1091 -2.96194 1.28331 0
M  V30 32 H 0.1611 -1.74967 3.37773 0
M  V30 33 H 1.4731 -2.48685 4.32386 0
M  V30 34 H 0.6271 -4.77103 3.74777 0
M  V30 35 H -0.6339 -4.06102 2.7006 0
M  V30 36 H -1.6289 -2.88284 4.68159 0
M  V30 37 H -0.4039 -3.62421 5.74307 0
M  V30 38 H -2.4579 -5.13431 4.08319 0
M  V30 39 H -2.5409 -4.85839 5.79221 0
M  V30 40 H -1.2729 -5.85594 5.1449 0
M  V30 41 N 2.9562 -1.48159 -0.537278 0
M  V30 42 C 4.2052 -1.5506 -1.28993 0
M  V30 43 C 4.5182 -0.226211 -1.94288 0
M  V30 44 O 5.7242 -0.173395 -2.70946 0
M  V30 45 C 4.1802 -2.73429 -2.34018 0
M  V30 46 C 3.7882 -4.1248 -1.74825 0
M  V30 47 C 5.5322 -2.89638 -3.10339 0
M  V30 48 C 3.4392 -5.22121 -2.77747 0
M  V30 49 H 2.3692 -0.577231 -0.485098 0
M  V30 50 H 5.0202 -1.74478 -0.568317 0
M  V30 51 H 3.4022 -2.47431 -3.09182 0
M  V30 52 H 4.5762 -4.48466 -1.05899 0
M  V30 53 H 2.8912 -4.01327 -1.11022 0
M  V30 54 H 5.4882 -3.68718 -3.87235 0
M  V30 55 H 5.8312 -1.9882 -3.65754 0
M  V30 56 H 6.3642 -3.15502 -2.42288 0
M  V30 57 H 3.1032 -6.1488 -2.27161 0
M  V30 58 H 2.6232 -4.90631 -3.45024 0
M  V30 59 H 4.3022 -5.49924 -3.4087 0
M  V30 60 N 4.4343 0.785586 -1.36625 0
M  V30 61 C 5.8503 1.08419 -1.17122 0
M  V30 62 C 6.0503 2.015 0.00208491 0
M  V30 63 O 5.1063 2.43551 0.666278 0
M  V30 64 C 6.4193 1.69498 -2.48377 0
M  V30 65 C 7.9673 1.81821 -2.54775 0
M  V30 66 C 8.4423 2.46315 -3.86126 0
M  V30 67 N 9.9333 2.53779 -3.87492 0
M  V30 68 C 10.6683 3.045 -4.85868 0
M  V30 69 N 10.1643 3.55499 -5.94637 0
M  V30 70 N 11.9573 3.03247 -4.73284 0
M  V30 71 H 4.1083 0.167264 -2.1174 0
M  V30 72 H 6.3713 0.13682 -0.938075 0
M  V30 73 H 6.0773 1.08571 -3.34522 0
M  V30 74 H 5.9513 2.6896 -2.64462 0
M  V30 75 H 8.3383 2.41884 -1.69045 0
M  V30 76 H 8.4193 0.811532 -2.42586 0
M  V30 77 H 8.0633 1.86895 -4.72263 0
M  V30 78 H 7.9933 3.47561 -3.95612 0
M  V30 79 H 10.4843 2.17672 -3.08913 0
M  V30 80 H 10.7973 3.92562 -6.65669 0
M  V30 81 H 9.1423 3.5364 -5.98301 0
M  V30 82 H 12.3333 2.62696 -3.87438 0
M  V30 83 H 12.5063 3.42467 -5.50109 0
M  V30 84 N 5.9124 1.20967 1.01018 0
M  V30 85 C 7.3284 0.965905 1.27053 0
M  V30 86 C 7.5284 -0.350785 1.98423 0
M  V30 87 O 6.5844 -1.07773 2.28344 0
M  V30 88 C 7.8974 2.15294 2.09926 0
M  V30 89 C 9.4454 2.19463 2.23171 0
M  V30 90 C 9.9204 3.3767 3.09424 0
M  V30 91 N 11.4114 3.37724 3.17012 0
M  V30 92 C 12.1464 4.25837 3.83993 0
M  V30 93 N 11.6424 5.24138 4.53047 0
M  V30 94 N 13.4354 4.1366 3.80581 0
M  V30 95 H 5.5864 2.0565 0.531194 0
M  V30 96 H 7.8494 0.90024 0.297106 0
M  V30 97 H 7.5554 3.10684 1.64828 0
M  V30 98 H 7.4294 2.13923 3.10672 0
M  V30 99 H 9.8164 1.24632 2.6749 0
M  V30 100 H 9.8974 2.2488 1.21912 0
M  V30 101 H 9.5414 4.32791 2.65808 0
M  V30 102 H 9.4714 3.29491 4.10784 0
M  V30 103 H 11.9624 2.6658 2.6785 0
M  V30 104 H 12.2754 5.87684 5.01844 0
M  V30 105 H 10.6204 5.28068 4.5185 0
M  V30 106 H 13.8114 3.36127 3.25785 0
M  V30 107 H 13.9844 4.82538 4.32505 0
M  V30 108 N 7.3905 -1.2043 1.01659 0
M  V30 109 C 8.3375 -2.23215 0.586822 0
M  V30 110 C 9.3075 -1.61382 -0.393085 0
M  V30 111 O 10.4925 -1.88544 -0.292525 0
M  V30 112 C 7.6325 -3.45032 -0.0687464 0
M  V30 113 C 6.7455 -4.21296 0.955724 0
M  V30 114 C 5.8805 -5.30507 0.271208 0
M  V30 115 C 4.9195 -5.98515 1.28244 0
M  V30 116 N 4.0565 -6.99316 0.62459 0
M  V30 117 H 8.8965 -2.59336 1.46796 0
M  V30 118 H 6.4335 -1.27431 0.734836 0
M  V30 119 H 8.3915 -4.1459 -0.465965 0
M  V30 120 H 7.0215 -3.09604 -0.913529 0
M  V30 121 H 6.0735 -3.50803 1.4711 0
M  V30 122 H 7.3855 -4.6803 1.72479 0
M  V30 123 H 6.5395 -6.06428 -0.18151 0
M  V30 124 H 5.2785 -4.8481 -0.530163 0
M  V30 125 H 4.2835 -5.21355 1.74554 0
M  V30 126 H 5.5085 -6.46298 2.08509 0
M  V30 127 H 3.4545 -6.55812 -0.156914 0
M  V30 128 H 3.3715 -7.44178 1.33172 0
M  V30 129 H 4.6395 -7.79255 0.195462 0
M  V30 130 N 8.8686 -0.792821 -1.36206 0
M  V30 131 C 10.0966 -0.378825 -2.03402 0
M  V30 132 C 10.5116 1.00586 -1.59774 0
M  V30 133 O 9.8686 1.64574 -0.788764 0
M  V30 134 C 9.9196 -0.43683 -3.58851 0
M  V30 135 O 9.6406 -1.76691 -4.00889 0
M  V30 136 C 11.1416 -0.0138943 -4.43298 0
M  V30 137 H 8.3616 -0.155673 -0.652692 0
M  V30 138 H 10.9056 -1.07261 -1.74113 0
M  V30 139 H 9.0606 0.208575 -3.86838 0
M  V30 140 H 9.4746 -1.72011 -4.95492 0
M  V30 141 H 10.9486 -0.105615 -5.51899 0
M  V30 142 H 11.4256 1.03915 -4.2673 0
M  V30 143 H 12.0316 -0.63192 -4.20579 0
M  V30 144 N 10.3467 1.47872 -0.545128 0
M  V30 145 C 11.3097 2.28337 0.198717 0
M  V30 146 C 12.3097 1.36255 0.853888 0
M  V30 147 O 13.4997 1.59003 0.711606 0
M  V30 148 C 10.6317 3.15585 1.28915 0
M  V30 149 H 11.8247 2.95567 -0.507941 0
M  V30 150 H 9.3777 1.53362 -0.301616 0
M  V30 151 H 10.1127 2.53019 2.02859 0
M  V30 152 H 9.8977 3.83337 0.824309 0
M  V30 153 H 11.3877 3.76243 1.81194 0
M  V30 154 N 11.8248 0.280983 1.55075 0
M  V30 155 C 13.0708 -0.33461 2.00021 0
M  V30 156 C 13.4038 -1.55063 1.16915 0
M  V30 157 O 12.6788 -1.93006 0.240646 0
M  V30 158 C 12.9618 -0.711007 3.53011 0
M  V30 159 C 12.8148 0.512766 4.46868 0
M  V30 160 C 14.1338 -1.54522 4.12081 0
M  V30 161 H 11.2528 -0.120147 0.727141 0
M  V30 162 H 13.8948 0.389097 1.85973 0
M  V30 163 H 12.0448 -1.32761 3.65112 0
M  V30 164 H 13.7168 1.15131 4.46702 0
M  V30 165 H 11.9598 1.14975 4.18286 0
M  V30 166 H 12.6308 0.205556 5.51617 0
M  V30 167 H 15.1068 -1.02442 4.03293 0
M  V30 168 H 13.9828 -1.77739 5.19327 0
M  V30 169 H 14.2438 -2.52813 3.62682 0
M  V30 170 N 13.3029 -1.57598 0.00835791 0
M  V30 171 C 14.7139 -1.7892 -0.53333 0
M  V30 172 C 15.0649 -0.916609 -1.73473 0
M  V30 173 O 14.1899 -0.121336 -2.1606 0
M  V30 174 C 14.7849 -3.24488 -0.974313 0
M  V30 175 C 13.3439 -3.46878 -1.46125 0
M  V30 176 C 12.4909 -2.74157 -0.416302 0
M  V30 177 H 15.4419 -1.56958 0.234495 0
M  V30 178 H 15.4629 -3.3306 -1.83988 0
M  V30 179 H 14.9749 -3.87972 -0.099718 0
M  V30 180 H 13.0759 -2.8862 -2.35646 0
M  V30 181 H 13.1889 -4.55572 -1.48295 0
M  V30 182 H 11.5529 -2.39022 -0.87981 0
M  V30 183 H 12.3359 -3.40345 0.44947 0
M  V30 184 N 14.781 0.264519 -1.55364 0
M  V30 185 C 16.197 0.61215 -1.47394 0
M  V30 186 C 16.397 1.89134 -0.695018 0
M  V30 187 O 15.453 2.51563 -0.217275 0
M  V30 188 C 16.766 0.731235 -2.91674 0
M  V30 189 C 18.314 0.82473 -3.01939 0
M  V30 190 C 18.789 0.975522 -4.4749 0
M  V30 191 N 20.28 1.04083 -4.51354 0
M  V30 192 C 21.015 1.17646 -5.61201 0
M  V30 193 N 20.511 1.27874 -6.80896 0
M  V30 194 N 22.304 1.20823 -5.48961 0
M  V30 195 H 14.455 -0.575456 -2.04456 0
M  V30 196 H 16.718 -0.196099 -0.927496 0
M  V30 197 H 16.424 -0.138392 -3.51428 0
M  V30 198 H 16.298 1.60883 -3.41169 0
M  V30 199 H 18.685 1.68482 -2.42276 0
M  V30 200 H 18.766 -0.0776479 -2.55682 0
M  V30 201 H 18.41 0.120058 -5.07758 0
M  V30 202 H 18.34 1.89268 -4.91412 0
M  V30 203 H 20.831 0.973846 -3.65136 0
M  V30 204 H 21.144 1.38081 -7.60364 0
M  V30 205 H 19.489 1.24863 -6.83692 0
M  V30 206 H 22.68 1.12469 -4.54388 0
M  V30 207 H 22.853 1.31049 -6.3461 0
M  V30 208 N 16.2591 1.48442 0.529413 0
M  V30 209 C 17.2071 1.63452 1.65487 0
M  V30 210 C 18.2011 0.500955 1.61823 0
M  V30 211 O 19.4071 0.679695 1.66674 0
M  V30 212 H 15.7821 0.514905 0.548066 0
M  V30 213 H 17.7531 2.57975 1.49971 0
M  V30 214 C 16.5021 1.69196 3.03756 0
M  V30 215 H 15.8251 2.55784 3.07269 0
M  V30 216 H 17.2651 1.83743 3.82119 0
M  V30 217 C 15.7241 0.430765 3.34135 0
M  V30 218 O 16.2541 -0.4561 3.99102 0
M  V30 219 N 14.4601 0.302293 2.89023 0
M  V30 220 H 14.0071 1.02496 2.36331 0
M  V30 221 H 13.9651 -0.540546 3.09718 0
M  V30 222 N 17.7372 -0.778329 1.37039 0
M  V30 223 C 18.7002 -1.87301 1.32102 0
M  V30 224 C 19.7002 -1.59198 0.226405 0
M  V30 225 O 20.8902 -1.67403 0.481861 0
M  V30 226 C 18.0222 -3.24309 1.05055 0
M  V30 227 H 19.2152 -1.93093 2.29467 0
M  V30 228 H 16.7682 -0.977358 1.21973 0
M  V30 229 H 17.5032 -3.24196 0.0819373 0
M  V30 230 H 17.2882 -3.46098 1.84279 0
M  V30 231 H 18.7782 -4.04382 1.04234 0
M  V30 232 N 19.2153 -1.21501 -1.00376 0
M  V30 233 C 20.4633 -1.03095 -1.73827 0
M  V30 234 C 20.7843 0.436341 -1.90055 0
M  V30 235 O 20.0543 1.31466 -1.45236 0
M  V30 236 H 18.6343 -0.378487 -0.644016 0
M  V30 237 H 21.2963 -1.52831 -1.20949 0
M  V30 238 H 20.3923 -1.49991 -2.73695 0
M  V30 239 N 20.6934 1.19889 -1.02296 0
M  V30 240 C 21.6564 2.21116 -0.603351 0
M  V30 241 C 22.6564 1.5738 0.329884 0
M  V30 242 O 23.8464 1.73802 0.117702 0
M  V30 243 C 20.9784 3.40696 0.117992 0
M  V30 244 H 22.1714 2.59754 -1.49893 0
M  V30 245 H 19.7244 1.33463 -0.813468 0
M  V30 246 H 20.4594 3.07569 1.0282 0
M  V30 247 H 20.2444 3.88188 -0.552511 0
M  V30 248 H 21.7344 4.15692 0.398696 0
M  V30 249 N 22.1715 0.800033 1.35784 0
M  V30 250 C 23.4175 0.377901 1.99248 0
M  V30 251 C 23.7505 -1.05052 1.63333 0
M  V30 252 O 23.0255 -1.72768 0.893385 0
M  V30 253 C 23.3085 0.553922 3.55814 0
M  V30 254 C 23.1615 2.0268 4.01548 0
M  V30 255 C 24.4805 -0.0244802 4.40093 0
M  V30 256 H 21.5995 0.138782 0.723815 0
M  V30 257 H 24.2415 1.00835 1.61035 0
M  V30 258 H 22.3915 0.0172398 3.88496 0
M  V30 259 H 24.0635 2.62536 3.79305 0
M  V30 260 H 22.3065 2.5256 3.52698 0
M  V30 261 H 22.9775 2.10087 5.10458 0
M  V30 262 H 25.4535 0.433775 4.13833 0
M  V30 263 H 24.3295 0.128637 5.48749 0
M  V30 264 H 24.5905 -1.11758 4.27741 0
M  V30 265 N 23.6496 -1.47581 0.552962 0
M  V30 266 C 24.5796 -2.32762 -0.185451 0
M  V30 267 C 25.5606 -1.43527 -0.912905 0
M  V30 268 O 26.7456 -1.72388 -0.894201 0
M  V30 269 C 23.8756 -3.25219 -1.21859 0
M  V30 270 C 22.8296 -4.23661 -0.607864 0
M  V30 271 C 22.1556 -5.05413 -1.74533 0
M  V30 272 C 23.4556 -5.20481 0.435582 0
M  V30 273 H 25.1496 -2.94749 0.525684 0
M  V30 274 H 22.6956 -1.41738 0.254251 0
M  V30 275 H 24.6486 -3.8365 -1.7433 0
M  V30 276 H 23.3726 -2.61279 -1.95961 0
M  V30 277 H 22.0316 -3.66451 -0.104489 0
M  V30 278 H 21.6796 -4.3788 -2.47529 0
M  V30 279 H 21.3796 -5.72059 -1.34249 0
M  V30 280 H 22.9036 -5.66701 -2.27338 0
M  V30 281 H 24.3176 -5.733 -0.00290157 0
M  V30 282 H 22.7146 -5.95305 0.757067 0
M  V30 283 H 23.7846 -4.66217 1.33303 0
M  V30 284 N 25.1277 -0.289203 -1.54924 0
M  V30 285 C 26.5387 0.205791 -1.85562 0
M  V30 286 C 26.8897 1.54351 -1.2112 0
M  V30 287 O 26.0147 2.10435 -0.504601 0
M  V30 288 C 26.6097 0.380177 -3.3666 0
M  V30 289 C 25.1687 0.819395 -3.67373 0
M  V30 290 C 24.3157 -0.079159 -2.77187 0
M  V30 291 H 27.2667 -0.510577 -1.50262 0
M  V30 292 H 27.2877 1.21659 -3.60526 0
M  V30 293 H 26.7997 -0.593589 -3.83534 0
M  V30 294 H 24.9007 1.80413 -3.26009 0
M  V30 295 H 25.0137 0.646957 -4.74712 0
M  V30 296 H 23.3777 0.439565 -2.50878 0
M  V30 297 H 24.1607 -1.04906 -3.26878 0
M  V30 298 N 26.6058 1.57591 -0.0167156 0
M  V30 299 C 27.5388 2.04944 1.00366 0
M  V30 300 C 28.5168 0.942648 1.32487 0
M  V30 301 O 29.7008 1.21205 1.44367 0
M  V30 302 C 26.8278 2.46109 2.32697 0
M  V30 303 C 25.8738 3.67686 2.16123 0
M  V30 304 S 26.7068 5.14882 1.47161 0
M  V30 305 C 27.8628 5.59332 2.80888 0
M  V30 306 H 28.0958 2.91172 0.600528 0
M  V30 307 H 25.6288 1.53168 0.194632 0
M  V30 308 H 27.5868 2.70493 3.08778 0
M  V30 309 H 26.2478 1.6025 2.70146 0
M  V30 310 H 25.4408 3.94296 3.13922 0
M  V30 311 H 25.0428 3.43391 1.48185 0
M  V30 312 H 27.3348 5.62814 3.77156 0
M  V30 313 H 28.2778 6.5905 2.58958 0
M  V30 314 H 28.6858 4.86942 2.85565 0
M  V30 315 N 28.0839 -0.256276 1.55502 0
M  V30 316 C 29.0139 -1.32102 1.92539 0
M  V30 317 C 29.9949 -1.50684 0.789194 0
M  V30 318 O 31.1799 -1.63449 1.04872 0
M  V30 319 C 28.3099 -2.67752 2.21192 0
M  V30 320 C 27.2639 -2.63878 3.36975 0
M  V30 321 C 26.5899 -4.03236 3.51147 0
M  V30 322 C 27.8899 -2.21682 4.72921 0
M  V30 323 H 29.5839 -1.01351 2.81724 0
M  V30 324 H 27.1299 -0.486105 1.35547 0
M  V30 325 H 29.0829 -3.42365 2.45691 0
M  V30 326 H 27.8069 -3.0012 1.28824 0
M  V30 327 H 26.4659 -1.91722 3.12471 0
M  V30 328 H 26.1139 -4.32854 2.56216 0
M  V30 329 H 25.8139 -4.01535 4.29003 0
M  V30 330 H 27.3379 -4.79563 3.77957 0
M  V30 331 H 28.7519 -2.86023 4.96854 0
M  V30 332 H 27.1489 -2.3111 5.53812 0
M  V30 333 H 28.2189 -1.16833 4.70615 0
M  V30 334 N 29.562 -1.4872 -0.521534 0
M  V30 335 C 30.525 -1.63379 -1.60748 0
M  V30 336 C 31.525 -0.50661 -1.52611 0
M  V30 337 O 32.715 -0.772601 -1.5613 0
M  V30 338 C 29.847 -1.61192 -3.00383 0
M  V30 339 H 31.04 -2.60217 -1.49087 0
M  V30 340 H 28.593 -1.37444 -0.744235 0
M  V30 341 H 29.328 -0.65863 -3.17541 0
M  V30 342 H 29.113 -2.43032 -3.07698 0
M  V30 343 H 30.603 -1.7466 -3.7932 0
M  V30 344 N 31.0401 0.771051 -1.3745 0
M  V30 345 C 32.2801 1.54264 -1.34096 0
M  V30 346 C 32.6441 1.91858 0.0737639 0
M  V30 347 O 33.8451 2.67797 0.23203 0
M  V30 348 C 32.1161 2.77326 -2.25445 0
M  V30 349 S 33.6751 3.67383 -2.39948 0
M  V30 350 H 30.4931 0.528122 -0.476034 0
M  V30 351 H 33.0951 0.906633 -1.73206 0
M  V30 352 H 31.7991 2.47788 -3.27153 0
M  V30 353 H 31.3301 3.45886 -1.87421 0
M  V30 354 H 33.3451 4.69334 -1.61059 0
M  V30 355 N 32.5182 1.22032 0.997298 0
M  V30 356 C 33.4482 1.01065 2.10495 0
M  V30 357 C 34.4292 -0.0669542 1.69968 0
M  V30 358 O 35.6142 0.0943987 1.9397 0
M  V30 359 C 32.7442 0.582874 3.42374 0
M  V30 360 C 31.6982 1.60592 3.96729 0
M  V30 361 C 31.0242 1.03412 5.24605 0
M  V30 362 C 32.3242 2.99478 4.27914 0
M  V30 363 H 34.0182 1.93708 2.28292 0
M  V30 364 H 31.5642 0.932761 1.09707 0
M  V30 365 H 33.5172 0.423332 4.19268 0
M  V30 366 H 32.2412 -0.379213 3.24391 0
M  V30 367 H 30.9002 1.75316 3.21963 0
M  V30 368 H 30.5482 0.063518 5.0296 0
M  V30 369 H 30.2482 1.71754 5.61938 0
M  V30 370 H 31.7722 0.886066 6.04137 0
M  V30 371 H 33.1862 2.88153 4.95622 0
M  V30 372 H 31.5832 3.64903 4.76409 0
M  V30 373 H 32.6532 3.49742 3.3587 0
M  V30 374 N 33.9963 -1.19345 1.0293 0
M  V30 375 C 34.9593 -2.20793 0.615069 0
M  V30 376 C 35.9593 -1.57553 -0.321533 0
M  V30 377 O 37.1493 -1.73862 -0.108483 0
M  V30 378 C 34.2813 -3.40754 -0.0999222 0
M  V30 379 H 35.4743 -2.58955 1.51269 0
M  V30 380 H 33.0273 -1.3303 0.820534 0
M  V30 381 H 33.7623 -3.0811 -1.01187 0
M  V30 382 H 33.5473 -3.87889 0.57309 0
M  V30 383 H 35.0373 -4.15898 -0.376645 0
M  V30 384 N 35.4744 -0.807222 -1.35358 0
M  V30 385 C 36.4374 -0.223665 -2.28106 0
M  V30 386 C 37.4374 0.589354 -1.4961 0
M  V30 387 O 38.6274 0.407745 -1.69361 0
M  V30 388 C 35.7594 0.688149 -3.33882 0
M  V30 389 H 36.9524 -1.04169 -2.81227 0
M  V30 390 H 34.5054 -0.577921 -1.45223 0
M  V30 391 H 35.2404 1.52984 -2.85948 0
M  V30 392 H 35.0254 0.10687 -3.91954 0
M  V30 393 H 36.5154 1.09075 -4.03104 0
M  V30 394 N 36.9525 1.47285 -0.560781 0
M  V30 395 C 37.8845 2.28118 0.222438 0
M  V30 396 C 38.8975 1.37219 0.876056 0
M  V30 397 O 40.0865 1.62011 0.749307 0
M  V30 398 C 37.1865 3.1159 1.33285 0
M  V30 399 C 36.3595 4.30473 0.77534 0
M  V30 400 C 35.4185 4.95513 1.77069 0
M  V30 401 O 34.4445 5.53792 1.31539 0
M  V30 402 N 35.6465 4.90531 3.10418 0
M  V30 403 H 38.4115 2.95976 -0.470958 0
M  V30 404 H 35.9725 1.56955 -0.39709 0
M  V30 405 H 37.9645 3.51967 1.99752 0
M  V30 406 H 36.5345 2.45951 1.92943 0
M  V30 407 H 35.7545 3.94144 -0.0662113 0
M  V30 408 H 37.0425 5.07362 0.382272 0
M  V30 409 H 36.4405 4.44389 3.5005 0
M  V30 410 H 34.9975 5.34917 3.72434 0
M  V30 411 N 38.4306 0.297415 1.54768 0
M  V30 412 C 39.3936 -0.567375 2.22066 0
M  V30 413 C 40.3936 -1.06409 1.20556 0
M  V30 414 O 41.5836 -0.960691 1.45315 0
M  V30 415 C 38.7156 -1.78517 2.90421 0
M  V30 416 H 39.9086 0.0205534 2.99893 0
M  V30 417 H 37.4616 0.0482163 1.56226 0
M  V30 418 H 38.1966 -2.41303 2.16664 0
M  V30 419 H 37.9816 -1.43669 3.64831 0
M  V30 420 H 39.4716 -2.39964 3.41771 0
M  V30 421 N 39.9087 -1.5758 0.0250728 0
M  V30 422 C 40.8717 -2.08896 -0.943139 0
M  V30 423 C 41.8717 -1.00321 -1.25668 0
M  V30 424 O 43.0617 -1.26495 -1.19769 0
M  V30 425 C 40.1937 -2.55143 -2.26086 0
M  V30 426 H 41.3867 -2.95723 -0.498775 0
M  V30 427 H 38.9397 -1.54703 -0.222888 0
M  V30 428 H 39.6747 -1.71633 -2.75159 0
M  V30 429 H 39.4597 -3.34461 -2.04641 0
M  V30 430 H 40.9497 -2.95083 -2.95492 0
M  V30 431 N 41.3868 0.248026 -1.55636 0
M  V30 432 C 42.2968 1.32859 -1.93354 0
M  V30 433 C 43.3128 1.52719 -0.833838 0
M  V30 434 O 44.4888 1.66363 -1.13513 0
M  V30 435 C 41.5538 2.66337 -2.21958 0
M  V30 436 C 40.6148 2.55008 -3.45354 0
M  V30 437 C 39.8478 3.82121 -3.72584 0
M  V30 438 O 40.0708 4.83951 -3.01907 0
M  V30 439 O 39.0048 3.80822 -4.6611 0
M  V30 440 H 42.8308 1.03862 -2.85388 0
M  V30 441 H 40.4158 0.448686 -1.42503 0
M  V30 442 H 42.2978 3.45216 -2.4167 0
M  V30 443 H 40.9728 2.95068 -1.33103 0
M  V30 444 H 39.8798 1.7442 -3.30951 0
M  V30 445 H 41.2128 2.31222 -4.34508 0
M  V30 446 N 42.8649 1.48995 0.513639 0
M  V30 447 C 44.1129 1.57531 1.26604 0
M  V30 448 C 44.4339 0.258236 1.93283 0
M  V30 449 O 43.7039 -0.721502 1.8213 0
M  V30 450 H 42.2839 0.580387 0.470276 0
M  V30 451 H 44.9459 1.85552 0.596373 0
M  V30 452 H 44.0419 2.36486 2.03669 0
M  V30 453 N 44.343 -0.763751 1.37857 0
M  V30 454 C 45.591 -1.51957 1.33243 0
M  V30 455 C 45.912 -1.94835 -0.0801709 0
M  V30 456 O 45.182 -1.66894 -1.02582 0
M  V30 457 H 43.762 -0.563626 0.49024 0
M  V30 458 H 46.424 -0.908504 1.7243 0
M  V30 459 H 45.52 -2.41523 1.97669 0
M  V30 460 N 45.8211 -1.22559 -0.990812 0
M  V30 461 C 47.0681 -1.05141 -1.73065 0
M  V30 462 C 47.3961 0.413191 -1.9006 0
M  V30 463 O 46.6511 1.32257 -1.44245 0
M  V30 464 C 46.9501 -1.71011 -3.13831 0
M  V30 465 C 46.6161 -3.20911 -3.16745 0
M  V30 466 C 45.2781 -3.61812 -3.17247 0
M  V30 467 C 47.6301 -4.16846 -3.12872 0
M  V30 468 C 44.9581 -4.97127 -3.1158 0
M  V30 469 C 47.3101 -5.5214 -3.08746 0
M  V30 470 C 45.9741 -5.92419 -3.07565 0
M  V30 471 H 45.2441 -0.384738 -0.633291 0
M  V30 472 H 47.8911 -1.5235 -1.16025 0
M  V30 473 H 46.1961 -1.16133 -3.74193 0
M  V30 474 H 47.8931 -1.55023 -3.69823 0
M  V30 475 H 44.4831 -2.88344 -3.17105 0
M  V30 476 H 48.6671 -3.86263 -3.11632 0
M  V30 477 H 43.9231 -5.27562 -3.09012 0
M  V30 478 H 48.0971 -6.26201 -3.04705 0
M  V30 479 H 45.7241 -6.97236 -3.02929 0
M  V30 480 N 47.2992 1.18797 -1.03562 0
M  V30 481 C 48.2292 2.24472 -0.643019 0
M  V30 482 C 49.2102 1.66433 0.351283 0
M  V30 483 O 50.3952 1.92803 0.232505 0
M  V30 484 C 47.5252 3.473 4.24935e-05 0
M  V30 485 C 46.4792 4.18055 -0.917257 0
M  V30 486 C 45.8052 5.34519 -0.138941 0
M  V30 487 C 47.1052 4.72109 -2.23407 0
M  V30 488 H 48.7992 2.57566 -1.52643 0
M  V30 489 H 46.3452 1.23806 -0.735394 0
M  V30 490 H 48.2982 4.20426 0.286383 0
M  V30 491 H 47.0222 3.13424 0.918299 0
M  V30 492 H 45.6812 3.46821 -1.1879 0
M  V30 493 H 45.3292 4.96891 0.781562 0
M  V30 494 H 45.0292 5.82794 -0.750005 0
M  V30 495 H 46.5532 6.10438 0.1405 0
M  V30 496 H 47.9672 5.36955 -2.00879 0
M  V30 497 H 46.3642 5.30897 -2.79765 0
M  V30 498 H 47.4342 3.89807 -2.88407 0
M  V30 499 N 48.7773 0.814389 1.34928 0
M  V30 500 C 49.6873 0.231978 2.3345 0
M  V30 501 C 50.7033 -0.629139 1.62228 0
M  V30 502 O 51.8793 -0.539052 1.94052 0
M  V30 503 C 48.9443 -0.603482 3.41407 0
M  V30 504 C 48.0053 0.279037 4.28392 0
M  V30 505 C 47.2383 -0.516643 5.31193 0
M  V30 506 O 47.4613 -1.75068 5.4287 0
M  V30 507 O 46.3953 0.0965652 6.01823 0
M  V30 508 H 50.2213 1.04721 2.85074 0
M  V30 509 H 47.8063 0.576343 1.37836 0
M  V30 510 H 49.6883 -1.07908 4.0735 0
M  V30 511 H 48.3633 -1.39618 2.92042 0
M  V30 512 H 47.2703 0.801948 3.65403 0
M  V30 513 H 48.6033 1.03588 4.81176 0
M  V30 514 N 50.2554 -1.46986 0.568584 0
M  V30 515 C 51.5324 -1.95592 -0.0174074 0
M  V30 516 C 51.9124 -1.51124 -1.47393 0
M  V30 517 O 51.2604 -0.755329 -2.15655 0
M  V30 518 C 51.4704 -3.48719 0.139913 0
M  V30 519 C 52.8184 -4.246 0.000426376 0
M  V30 520 O 53.8424 -3.56135 0.0680316 0
M  V30 521 O 52.7014 -5.46302 -0.146988 0
M  V30 522 H 49.7954 -0.82498 -0.0577599 0
M  V30 523 H 52.3414 -1.57335 0.635909 0
M  V30 524 H 51.1134 -3.73927 1.15301 0
M  V30 525 H 50.7364 -3.93771 -0.550491 0
M  V30 526 N 51.7335 -0.305618 -1.54608 0
M  V30 527 C 52.6965 0.555591 -2.22364 0
M  V30 528 C 53.6965 1.05768 -1.21119 0
M  V30 529 O 54.8865 0.952972 -1.45822 0
M  V30 530 C 52.0185 1.76974 -2.91364 0
M  V30 531 H 53.2115 -0.0364572 -2.99878 0
M  V30 532 H 50.7645 -0.0565007 -1.56198 0
M  V30 533 H 51.4995 2.40151 -2.17941 0
M  V30 534 H 51.2845 1.41732 -3.65588 0
M  V30 535 H 52.7745 2.38148 -3.43038 0
M  V30 536 N 53.2116 1.57565 -0.0334293 0
M  V30 537 C 54.1586 2.10478 0.946981 0
M  V30 538 C 55.1286 1.00787 1.32027 0
M  V30 539 O 56.3136 1.28232 1.41284 0
M  V30 540 C 53.4536 2.63994 2.22263 0
M  V30 541 C 52.5666 3.87709 1.90541 0
M  V30 542 C 51.7016 4.29604 3.12433 0
M  V30 543 C 50.7406 5.46065 2.76549 0
M  V30 544 N 49.8776 5.83096 3.9108 0
M  V30 545 H 54.7176 2.93963 0.488846 0
M  V30 546 H 52.2546 1.45296 0.22969 0
M  V30 547 H 54.2126 2.93114 2.96884 0
M  V30 548 H 52.8426 1.83333 2.65685 0
M  V30 549 H 51.8946 3.65291 1.06144 0
M  V30 550 H 53.2066 4.72403 1.60116 0
M  V30 551 H 52.3606 4.60182 3.9537 0
M  V30 552 H 51.0996 3.43685 3.46023 0
M  V30 553 H 50.1046 5.15176 1.92026 0
M  V30 554 H 51.3296 6.33685 2.44171 0
M  V30 555 H 49.2756 5.00132 4.24504 0
M  V30 556 H 49.1926 6.6244 3.64293 0
M  V30 557 H 50.4606 6.18282 4.74708 0
M  V30 558 N 54.6897 -0.239769 1.55765 0
M  V30 559 C 55.9177 -0.98417 1.81994 0
M  V30 560 C 56.3327 -1.7867 0.610124 0
M  V30 561 O 55.6897 -1.77571 -0.421271 0
M  V30 562 C 55.7407 -1.91635 3.06526 0
M  V30 563 O 55.4617 -1.14629 4.22838 0
M  V30 564 C 56.9627 -2.77616 3.45607 0
M  V30 565 H 54.1827 -0.28928 0.605441 0
M  V30 566 H 56.7267 -0.260499 2.02834 0
M  V30 567 H 54.8817 -2.5942 2.87715 0
M  V30 568 H 55.2957 -1.77745 4.93464 0
M  V30 569 H 56.7697 -3.38759 4.35828 0
M  V30 570 H 57.2467 -3.4909 2.6652 0
M  V30 571 H 57.8527 -2.15271 3.66795 0
M  V30 572 N 56.1678 -1.49265 -0.50573 0
M  V30 573 C 57.4448 -1.49012 -1.26707 0
M  V30 574 C 57.8248 -0.215205 -2.1 0
M  V30 575 O 57.1728 0.802547 -2.13943 0
M  V30 576 C 57.3828 -2.7663 -2.12783 0
M  V30 577 C 58.7308 -3.25932 -2.72127 0
M  V30 578 O 59.7548 -2.77715 -2.23054 0
M  V30 579 O 58.6138 -4.09897 -3.61451 0
M  V30 580 H 55.7078 -0.596197 -0.57313 0
M  V30 581 H 58.2538 -1.61524 -0.52039 0
M  V30 582 H 57.0258 -3.60916 -1.5118 0
M  V30 583 H 56.6488 -2.66956 -2.94653 0
M  V30 584 N 57.6459 0.756429 -1.3826 0
M  V30 585 C 58.5759 1.88374 -1.37976 0
M  V30 586 C 59.5569 1.68311 -0.246082 0
M  V30 587 O 60.7419 1.88944 -0.44874 0
M  V30 588 C 57.8719 3.25864 -1.20125 0
M  V30 589 C 56.8259 3.60523 -2.30666 0
M  V30 590 C 56.1519 4.9672 -1.97923 0
M  V30 591 C 57.4519 3.65692 -3.72916 0
M  V30 592 H 59.1459 1.88869 -2.32312 0
M  V30 593 H 56.6919 0.907272 -1.11824 0
M  V30 594 H 58.6449 4.0438 -1.18552 0
M  V30 595 H 57.3689 3.25841 -0.222498 0
M  V30 596 H 56.0279 2.84324 -2.3142 0
M  V30 597 H 55.6759 4.93253 -0.985393 0
M  V30 598 H 55.3759 5.20878 -2.71955 0
M  V30 599 H 56.8999 5.77618 -1.97964 0
M  V30 600 H 58.3139 4.34328 -3.74208 0
M  V30 601 H 56.7109 4.01358 -4.4613 0
M  V30 602 H 57.7809 2.65987 -4.05436 0
M  V30 603 N 59.124 1.23083 0.984299 0
M  V30 604 C 60.37 1.06214 1.72761 0
M  V30 605 C 60.703 -0.400584 1.90024 0
M  V30 606 O 59.978 -1.29672 1.44967 0
M  V30 607 C 60.261 1.78375 3.12817 0
M  V30 608 C 60.114 3.32296 3.03149 0
M  V30 609 C 61.433 1.54309 4.12161 0
M  V30 610 H 58.552 0.387251 0.627061 0
M  V30 611 H 61.194 1.51536 1.14616 0
M  V30 612 H 59.344 1.39848 3.62457 0
M  V30 613 H 61.016 3.8032 2.61064 0
M  V30 614 H 59.259 3.6153 2.39747 0
M  V30 615 H 59.93 3.77972 4.02295 0
M  V30 616 H 62.406 1.87791 3.71314 0
M  V30 617 H 61.282 2.07281 5.08258 0
M  V30 618 H 61.543 0.477572 4.39513 0
M  V30 619 N 60.6021 -1.18246 1.0419 0
M  V30 620 C 61.5321 -2.24127 0.654914 0
M  V30 621 C 62.5131 -1.66617 -0.342451 0
M  V30 622 O 63.6981 -1.92924 -0.222277 0
M  V30 623 C 60.8281 -3.47295 0.0183757 0
M  V30 624 C 59.7821 -4.17563 0.939414 0
M  V30 625 C 59.1081 -5.34438 0.167286 0
M  V30 626 C 60.4081 -4.70917 2.25908 0
M  V30 627 H 62.1021 -2.56753 1.54007 0
M  V30 628 H 59.6481 -1.23414 0.74195 0
M  V30 629 H 61.6011 -4.20572 -0.264082 0
M  V30 630 H 60.3251 -3.13907 -0.901664 0
M  V30 631 H 58.9841 -3.46186 1.20628 0
M  V30 632 H 58.6321 -4.97298 -0.7552 0
M  V30 633 H 58.3321 -5.82388 0.780901 0
M  V30 634 H 59.8561 -6.10504 -0.108125 0
M  V30 635 H 61.2701 -5.35882 2.03724 0
M  V30 636 H 59.6671 -5.29406 2.82577 0
M  V30 637 H 60.7371 -3.88272 2.9047 0
M  V30 638 N 62.0802 -0.821533 -1.34494 0
M  V30 639 C 63.4962 -0.507117 -1.51329 0
M  V30 640 C 63.6962 0.968964 -1.76673 0
M  V30 641 O 62.7522 1.75348 -1.81685 0
M  V30 642 C 64.0652 -1.36544 -2.67911 0
M  V30 643 C 65.6132 -1.36242 -2.81793 0
M  V30 644 C 66.0882 -2.2052 -4.01416 0
M  V30 645 N 67.5792 -2.18136 -4.08621 0
M  V30 646 C 68.3142 -2.80095 -5.00334 0
M  V30 647 N 67.8102 -3.51039 -5.9728 0
M  V30 648 N 69.6032 -2.69656 -4.93196 0
M  V30 649 H 61.7542 -1.77729 -1.16302 0
M  V30 650 H 64.0172 -0.757291 -0.570276 0
M  V30 651 H 63.7232 -2.41361 -2.55808 0
M  V30 652 H 63.5972 -1.02917 -3.62888 0
M  V30 653 H 65.9842 -0.322041 -2.93338 0
M  V30 654 H 66.0652 -1.73866 -1.87628 0
M  V30 655 H 65.7092 -3.24607 -3.90631 0
M  V30 656 H 65.6392 -1.80247 -4.94791 0
M  V30 657 H 68.1302 -1.6653 -3.39229 0
M  V30 658 H 68.4432 -3.95565 -6.63889 0
M  V30 659 H 66.7882 -3.55145 -5.97409 0
M  V30 660 H 69.9792 -2.13808 -4.16418 0
M  V30 661 H 70.1522 -3.1823 -5.64476 0
M  V30 662 N 63.5583 1.46682 -0.576371 0
M  V30 663 C 64.5063 2.31953 0.17335 0
M  V30 664 C 65.5003 1.44098 0.89062 0
M  V30 665 O 66.7063 1.60759 0.809728 0
M  V30 666 H 63.0813 0.748273 0.0747727 0
M  V30 667 H 65.0523 2.93007 -0.564738 0
M  V30 668 C 63.8013 3.27142 1.17786 0
M  V30 669 H 63.1243 3.94719 0.635361 0
M  V30 670 H 64.5643 3.896 1.67296 0
M  V30 671 C 63.0233 2.52036 2.23561 0
M  V30 672 O 63.5533 2.27877 3.3081 0
M  V30 673 N 61.7593 2.12709 1.97998 0
M  V30 674 H 61.3063 2.32557 1.10792 0
M  V30 675 H 61.2643 1.62776 2.68982 0
M  V30 676 N 65.0364 0.313813 1.54444 0
M  V30 677 C 66.2664 -0.293491 2.04505 0
M  V30 678 C 66.6744 -1.47086 1.19005 0
M  V30 679 O 66.0174 -1.82481 0.211257 0
M  V30 680 C 66.0794 -0.800455 3.50475 0
M  V30 681 C 65.7434 0.253322 4.56297 0
M  V30 682 C 66.7404 1.08612 5.08428 0
M  V30 683 C 64.4254 0.398708 5.00715 0
M  V30 684 C 66.4194 2.05013 6.0353 0
M  V30 685 C 64.1064 1.36614 5.95634 0
M  V30 686 C 65.1044 2.19033 6.46926 0
M  V30 687 O 64.7924 3.14134 7.39983 0
M  V30 688 H 64.5244 -0.0658325 0.672787 0
M  V30 689 H 67.0784 0.455177 2.00293 0
M  V30 690 H 65.3084 -1.59987 3.52053 0
M  V30 691 H 66.9974 -1.32504 3.83663 0
M  V30 692 H 67.7634 0.984736 4.74898 0
M  V30 693 H 63.6424 -0.23289 4.60411 0
M  V30 694 H 67.1864 2.69382 6.4349 0
M  V30 695 H 63.0834 1.4682 6.28581 0
M  V30 696 H 63.8514 3.0926 7.57826 0
M  V30 697 N 66.5145 -1.57545 0.0417849 0
M  V30 698 C 67.7445 -1.96339 -0.642995 0
M  V30 699 C 68.1525 -0.917536 -1.65463 0
M  V30 700 O 67.4955 0.107747 -1.83384 0
M  V30 701 C 67.5575 -3.31333 -1.39494 0
M  V30 702 C 67.2215 -4.53796 -0.540204 0
M  V30 703 C 68.2185 -5.19553 0.189806 0
M  V30 704 C 65.9035 -5.0006 -0.473886 0
M  V30 705 C 67.8975 -6.29904 0.974674 0
M  V30 706 C 65.5845 -6.10289 0.314677 0
M  V30 707 C 66.5825 -6.75072 1.03765 0
M  V30 708 O 66.2705 -7.83183 1.81327 0
M  V30 709 H 66.0025 -0.651241 -0.181277 0
M  V30 710 H 68.5565 -2.05148 0.101665 0
M  V30 711 H 66.7865 -3.19052 -2.18502 0
M  V30 712 H 68.4755 -3.54942 -1.96904 0
M  V30 713 H 69.2415 -4.84774 0.147981 0
M  V30 714 H 65.1205 -4.49433 -1.0262 0
M  V30 715 H 68.6645 -6.80401 1.5395 0
M  V30 716 H 64.5615 -6.44506 0.358174 0
M  V30 717 H 65.3295 -7.99913 1.73438 0
M  V30 718 N 67.9926 0.231505 -1.5589 0
M  V30 719 C 69.2396 0.957352 -1.78441 0
M  V30 720 C 69.5676 1.84726 -0.60882 0
M  V30 721 O 68.8226 1.91416 0.40725 0
M  V30 722 C 69.1216 1.83577 -3.0665 0
M  V30 723 C 68.7876 1.09993 -4.37278 0
M  V30 724 C 67.4496 0.896629 -4.72773 0
M  V30 725 C 69.8016 0.579558 -5.17968 0
M  V30 726 C 67.1296 0.160896 -5.86479 0
M  V30 727 C 69.4816 -0.142783 -6.32439 0
M  V30 728 C 68.1456 -0.357427 -6.66542 0
M  V30 729 H 67.4156 0.35032 -0.65296 0
M  V30 730 H 70.0626 0.226259 -1.90159 0
M  V30 731 H 68.3676 2.63441 -2.90011 0
M  V30 732 H 70.0646 2.39934 -3.21298 0
M  V30 733 H 66.6546 1.26835 -4.09403 0
M  V30 734 H 70.8386 0.724125 -4.90989 0
M  V30 735 H 66.0946 -0.0157293 -6.11398 0
M  V30 736 H 70.2686 -0.553559 -6.94196 0
M  V30 737 H 67.8956 -0.929466 -7.54497 0
M  V30 738 N 69.4707 1.49531 0.497807 0
M  V30 739 C 70.4187 1.66926 1.61983 0
M  V30 740 C 71.4127 0.535167 1.60724 0
M  V30 741 O 72.6187 0.714896 1.65195 0
M  V30 742 H 68.9937 0.526415 0.537021 0
M  V30 743 H 70.9647 2.61098 1.44465 0
M  V30 744 C 69.7137 1.75602 3.00099 0
M  V30 745 H 69.0367 2.62244 3.01775 0
M  V30 746 H 70.4767 1.91807 3.78135 0
M  V30 747 C 68.9357 0.501543 3.33146 0
M  V30 748 O 69.4657 -0.371342 3.9998 0
M  V30 749 N 67.6717 0.363531 2.88317 0
M  V30 750 H 67.2187 1.07485 2.34104 0
M  V30 751 H 67.1767 -0.474728 3.10795 0
M  V30 752 N 70.9488 -0.749086 1.3866 0
M  V30 753 C 72.3648 -1.05276 1.19955 0
M  V30 754 C 72.5648 -2.01435 0.05134 0
M  V30 755 O 71.6208 -2.45232 -0.60147 0
M  V30 756 C 72.9338 -1.62853 2.52783 0
M  V30 757 C 74.4818 -1.75002 2.59506 0
M  V30 758 C 74.9568 -2.35991 3.92521 0
M  V30 759 N 76.4478 -2.43416 3.94085 0
M  V30 760 C 77.1828 -2.91511 4.9377 0
M  V30 761 N 76.6788 -3.39608 6.03853 0
M  V30 762 N 78.4718 -2.90592 4.81157 0
M  V30 763 H 70.6228 -0.111066 2.12109 0
M  V30 764 H 72.8858 -0.111901 0.941373 0
M  V30 765 H 72.5918 -0.99664 3.37283 0
M  V30 766 H 72.4658 -2.61854 2.715 0
M  V30 767 H 74.8528 -2.37317 1.75398 0
M  V30 768 H 74.9338 -0.74693 2.44652 0
M  V30 769 H 74.5778 -1.74308 4.77053 0
M  V30 770 H 74.5078 -3.3695 4.04688 0
M  V30 771 H 76.9988 -2.09405 3.14576 0
M  V30 772 H 77.3118 -3.74775 6.75843 0
M  V30 773 H 75.6568 -3.37653 6.07466 0
M  V30 774 H 78.8478 -2.52332 3.94267 0
M  V30 775 H 79.0208 -3.27762 5.58996 0
M  V30 776 N 72.4269 -1.23603 -0.977757 0
M  V30 777 C 73.7039 -0.977897 -1.69401 0
M  V30 778 C 74.0839 0.502738 -2.05026 0
M  V30 779 O 73.4319 1.47459 -1.74551 0
M  V30 780 C 73.6419 -1.89077 -2.93345 0
M  V30 781 C 74.9899 -2.15579 -3.65802 0
M  V30 782 O 76.0139 -1.86648 -3.03383 0
M  V30 783 O 74.8729 -2.64658 -4.78141 0
M  V30 784 H 71.9669 -0.369025 -0.740101 0
M  V30 785 H 74.5129 -1.34657 -1.03274 0
M  V30 786 H 73.2849 -2.89158 -2.63634 0
M  V30 787 H 72.9079 -1.52463 -3.67207 0
M  V30 788 N 73.905 1.17692 -1.04816 0
M  V30 789 C 75.152 1.87859 -0.75599 0
M  V30 790 C 75.48 1.80812 0.716752 0
M  V30 791 O 74.735 1.20819 1.53952 0
M  V30 792 C 75.034 3.37462 -1.17703 0
M  V30 793 C 74.7 3.64713 -2.65133 0
M  V30 794 C 73.362 3.71859 -3.05408 0
M  V30 795 C 75.714 3.76492 -3.60421 0
M  V30 796 C 73.042 3.88271 -4.39843 0
M  V30 797 C 75.394 3.94421 -4.94585 0
M  V30 798 C 74.058 3.99806 -5.3452 0
M  V30 799 H 73.328 0.687425 -0.276636 0
M  V30 800 H 75.975 1.39255 -1.31455 0
M  V30 801 H 74.28 3.88097 -0.537395 0
M  V30 802 H 75.977 3.90109 -0.928218 0
M  V30 803 H 72.567 3.59772 -2.32942 0
M  V30 804 H 76.751 3.70295 -3.30447 0
M  V30 805 H 72.007 3.90687 -4.70291 0
M  V30 806 H 76.181 4.02477 -5.68318 0
M  V30 807 H 73.808 4.12276 -6.38696 0
M  V30 808 N 75.3831 0.828654 1.34056 0
M  V30 809 C 76.7991 0.515135 1.51058 0
M  V30 810 C 76.9991 -0.959581 1.77184 0
M  V30 811 O 76.0551 -1.74382 1.82612 0
M  V30 812 C 77.3681 1.37963 2.67183 0
M  V30 813 C 78.9161 1.37735 2.81066 0
M  V30 814 C 79.3911 2.22645 4.00241 0
M  V30 815 N 80.8821 2.203 4.07458 0
M  V30 816 C 81.6171 2.82744 4.98842 0
M  V30 817 N 81.1131 3.54201 5.9541 0
M  V30 818 N 82.9061 2.72268 4.91759 0
M  V30 819 H 75.0571 1.78343 1.15358 0
M  V30 820 H 77.3201 0.760304 0.566252 0
M  V30 821 H 77.0261 2.42714 2.54525 0
M  V30 822 H 76.9001 1.0484 3.62338 0
M  V30 823 H 79.2871 0.337593 2.93163 0
M  V30 824 H 79.3681 1.74859 1.86703 0
M  V30 825 H 79.0121 3.26674 3.88905 0
M  V30 826 H 78.9421 1.82869 4.93829 0
M  V30 827 H 81.4331 1.68327 3.38341 0
M  V30 828 H 81.7461 3.9908 6.61782 0
M  V30 829 H 80.0911 3.58308 5.95517 0
M  V30 830 H 83.2821 2.16014 4.15278 0
M  V30 831 H 83.4551 3.21219 5.62781 0
M  V30 832 N 76.8612 -1.46375 0.584142 0
M  V30 833 C 78.1382 -1.956 0.0033388 0
M  V30 834 C 78.5182 -1.52679 -1.45782 0
M  V30 835 O 77.8662 -0.77816 -2.14842 0
M  V30 836 C 78.0762 -3.48551 0.176891 0
M  V30 837 C 79.4242 -4.24576 0.0454609 0
M  V30 838 O 80.4482 -3.56043 0.105801 0
M  V30 839 O 79.3072 -5.46427 -0.0890376 0
M  V30 840 H 76.4012 -0.825547 -0.0490066 0
M  V30 841 H 78.9472 -1.56652 0.65256 0
M  V30 842 H 77.7192 -3.72683 1.1926 0
M  V30 843 H 77.3422 -3.94332 -0.508695 0
M  V30 844 N 78.3393 -0.321999 -1.54275 0
M  V30 845 C 79.2893 0.560185 -2.21011 0
M  V30 846 C 80.2733 1.08283 -1.19011 0
M  V30 847 O 81.4653 1.02011 -1.44647 0
M  V30 848 C 78.5943 1.72137 -2.97025 0
M  V30 849 C 77.6803 1.21369 -4.06363 0
M  V30 850 N 78.0713 0.425566 -5.04007 0
M  V30 851 C 76.3693 1.49255 -4.20284 0
M  V30 852 C 77.0703 0.152601 -5.815 0
M  V30 853 N 76.0463 0.738294 -5.38563 0
M  V30 854 H 79.8483 -0.049265 -2.93859 0
M  V30 855 H 77.3623 -0.127779 -1.61897 0
M  V30 856 H 79.3593 2.36512 -3.43319 0
M  V30 857 H 78.0193 2.33431 -2.25699 0
M  V30 858 H 79.0303 0.068551 -5.17855 0
M  V30 859 H 75.7073 2.11145 -3.60172 0
M  V30 860 H 77.0973 -0.481764 -6.70171 0
M  V30 861 N 79.8174 1.5752 -0.0501392 0
M  V30 862 C 81.0944 1.83996 0.663685 0
M  V30 863 C 81.4744 0.938339 1.89099 0
M  V30 864 O 80.8224 -0.00087759 2.285 0
M  V30 865 C 81.0324 3.33702 1.02196 0
M  V30 866 C 82.3804 4.00691 1.40469 0
M  V30 867 O 83.4044 3.38321 1.11433 0
M  V30 868 O 82.2634 5.10658 1.94654 0
M  V30 869 H 79.3574 0.759385 0.32751 0
M  V30 870 H 81.9034 1.69514 -0.0794238 0
M  V30 871 H 80.6754 3.91015 0.149364 0
M  V30 872 H 80.2984 3.53368 1.82255 0
M  V30 873 N 81.2955 -0.223234 1.56011 0
M  V30 874 C 82.2585 -1.26014 1.9145 0
M  V30 875 C 83.2585 -1.3989 0.792937 0
M  V30 876 O 84.4485 -1.38184 1.0607 0
M  V30 877 C 81.5805 -2.63422 2.16383 0
M  V30 878 H 82.7735 -0.95796 2.84189 0
M  V30 879 H 80.3265 -0.463576 1.49267 0
M  V30 880 H 81.0615 -2.98741 1.2619 0
M  V30 881 H 80.8465 -2.54728 2.98088 0
M  V30 882 H 82.3365 -3.38249 2.44903 0
M  V30 883 N 82.7736 -1.49793 -0.48987 0
M  V30 884 C 84.0216 -1.59525 -1.24081 0
M  V30 885 C 84.3426 -0.288953 -1.92847 0
M  V30 886 O 83.6126 0.692436 -1.83254 0
M  V30 887 H 82.1926 -0.587796 -0.460983 0
M  V30 888 H 84.8546 -1.86477 -0.566778 0
M  V30 889 H 83.9506 -2.39696 -1.99881 0
M  V30 890 N 84.2517 0.741722 -1.39055 0
M  V30 891 C 85.1987 1.85566 -1.37237 0
M  V30 892 C 86.1687 1.64457 -0.233072 0
M  V30 893 O 87.3537 1.85957 -0.427147 0
M  V30 894 C 84.4937 3.23004 -1.215 0
M  V30 895 C 83.6067 3.55864 -2.44918 0
M  V30 896 C 82.7417 4.82669 -2.21821 0
M  V30 897 C 81.7807 5.08351 -3.40948 0
M  V30 898 N 80.9177 6.26356 -3.17211 0
M  V30 899 H 85.7577 1.86455 -2.32462 0
M  V30 900 H 83.2947 0.911176 -1.15482 0
M  V30 901 H 85.2527 4.02331 -1.10389 0
M  V30 902 H 83.8827 3.21411 -0.29908 0
M  V30 903 H 82.9347 2.7129 -2.66657 0
M  V30 904 H 84.2467 3.70765 -3.33668 0
M  V30 905 H 83.4007 5.69962 -2.07914 0
M  V30 906 H 82.1397 4.69929 -1.30454 0
M  V30 907 H 81.1447 4.19522 -3.55361 0
M  V30 908 H 82.3697 5.22981 -4.33207 0
M  V30 909 H 80.3157 6.14917 -2.28502 0
M  V30 910 H 80.2327 6.41813 -3.99515 0
M  V30 911 H 81.5007 7.16506 -3.06984 0
M  V30 912 N 85.7298 1.2412 0.971189 0
M  V30 913 C 86.9548 1.10667 1.75407 0
M  V30 914 C 87.3798 -0.337048 1.85056 0
M  V30 915 O 86.7378 -1.24396 1.31892 0
M  V30 916 C 86.7858 1.74726 3.15441 0
M  V30 917 O 85.8898 1.01566 3.99697 0
M  V30 918 H 85.2308 0.387341 0.539317 0
M  V30 919 H 87.7608 1.64358 1.2185 0
M  V30 920 H 87.7708 1.80341 3.6598 0
M  V30 921 H 86.4458 2.79773 3.07734 0
M  V30 922 H 85.0228 1.03713 3.58187 0
M  V30 923 N 87.2079 -1.17134 1.05439 0
M  V30 924 C 88.1379 -2.2342 0.678649 0
M  V30 925 C 89.1189 -1.66971 -0.32476 0
M  V30 926 O 90.3039 -1.93149 -0.201802 0
M  V30 927 C 87.4339 -3.47256 0.0552099 0
M  V30 928 C 86.3879 -4.16543 0.98365 0
M  V30 929 C 85.7139 -5.34231 0.223961 0
M  V30 930 C 87.0139 -4.68495 2.3089 0
M  V30 931 H 88.7079 -2.55105 1.56722 0
M  V30 932 H 86.2539 -1.2262 0.754998 0
M  V30 933 H 88.2069 -4.20828 -0.21946 0
M  V30 934 H 86.9309 -3.14846 -0.868319 0
M  V30 935 H 85.5899 -3.44887 1.24293 0
M  V30 936 H 85.2379 -4.98071 -0.702412 0
M  V30 937 H 84.9379 -5.81527 0.842627 0
M  V30 938 H 86.4619 -6.10585 -0.0433671 0
M  V30 939 H 87.8759 -5.33691 2.09396 0
M  V30 940 H 86.2729 -5.26379 2.88176 0
M  V30 941 H 87.3429 -3.85169 2.94572 0
M  V30 942 N 88.686 -0.835752 -1.33615 0
M  V30 943 C 89.932 -0.430596 -1.98176 0
M  V30 944 C 90.265 1.00684 -1.66061 0
M  V30 945 O 89.54 1.70339 -0.938877 0
M  V30 946 C 89.823 -0.648065 -3.5422 0
M  V30 947 C 89.676 -2.13255 -3.96033 0
M  V30 948 C 90.995 -0.0922113 -4.40003 0
M  V30 949 H 88.114 -0.157924 -0.719881 0
M  V30 950 H 90.756 -1.05069 -1.58305 0
M  V30 951 H 88.906 -0.120237 -3.88314 0
M  V30 952 H 90.578 -2.725 -3.72211 0
M  V30 953 H 88.821 -2.61823 -3.45878 0
M  V30 954 H 89.492 -2.23547 -5.04708 0
M  V30 955 H 91.968 -0.543343 -4.12537 0
M  V30 956 H 90.844 -0.274083 -5.48215 0
M  V30 957 H 91.105 1.00378 -4.30554 0
M  V30 958 N 90.1641 1.46063 -0.591896 0
M  V30 959 C 91.4411 1.95595 -0.0137119 0
M  V30 960 C 91.8211 1.5345 1.4497 0
M  V30 961 O 91.1691 0.789543 2.14426 0
M  V30 962 C 91.3791 3.48453 -0.195373 0
M  V30 963 C 92.7271 4.24546 -0.0679765 0
M  V30 964 O 93.7511 3.55982 -0.124681 0
M  V30 965 O 92.6101 5.46467 0.0600579 0
M  V30 966 H 89.7041 0.825795 0.0446279 0
M  V30 967 H 92.2501 1.56303 -0.660859 0
M  V30 968 H 91.0221 3.72045 -1.21235 0
M  V30 969 H 90.6451 3.94597 0.487775 0
M  V30 970 N 91.6422 0.330177 1.54103 0
M  V30 971 C 92.5522 -0.541534 2.28264 0
M  V30 972 C 93.5682 -1.12351 1.32866 0
M  V30 973 O 94.7442 -1.14206 1.65888 0
M  V30 974 C 91.8092 -1.68322 3.03098 0
M  V30 975 C 90.8702 -1.13238 4.14096 0
M  V30 976 C 90.1032 -2.21966 4.85352 0
M  V30 977 O 90.3262 -3.42437 4.56172 0
M  V30 978 O 89.2602 -1.87013 5.7211 0
M  V30 979 H 93.0862 0.060938 3.03639 0
M  V30 980 H 90.6712 0.09565 1.49093 0
M  V30 981 H 92.5532 -2.34777 3.49939 0
M  V30 982 H 91.2282 -2.27176 2.30593 0
M  V30 983 H 90.1352 -0.432736 3.71589 0
M  V30 984 H 91.4682 -0.588898 4.88664 0
M  V30 985 N 93.1203 -1.57491 0.0584922 0
M  V30 986 C 94.3663 -1.94081 -0.608617 0
M  V30 987 C 94.7213 -0.937438 -1.68017 0
M  V30 988 O 94.0143 0.0423034 -1.91553 0
M  V30 989 C 94.2083 -3.3513 -1.24188 0
M  V30 990 C 94.0373 -4.49095 -0.233187 0
M  V30 991 C 92.8073 -5.04988 0.177439 0
M  V30 992 C 95.0053 -5.1162 0.524306 0
M  V30 993 N 92.9873 -6.02487 1.17823 0
M  V30 994 C 94.3583 -6.04493 1.37796 0
M  V30 995 C 96.4133 -4.94489 0.581822 0
M  V30 996 C 95.1163 -6.82075 2.28399 0
M  V30 997 C 97.1423 -5.72703 1.47531 0
M  V30 998 C 96.5043 -6.65214 2.31667 0
M  V30 999 H 92.6033 -0.75752 -0.194134 0
M  V30 1000 H 95.1873 -1.94248 0.132533 0
M  V30 1001 H 93.3583 -3.35726 -1.95302 0
M  V30 1002 H 95.0903 -3.5899 -1.86838 0
M  V30 1003 H 91.8453 -4.73165 -0.203004 0
M  V30 1004 H 92.2693 -6.55933 1.67573 0
M  V30 1005 H 96.9113 -4.22765 -0.054443 0
M  V30 1006 H 94.6293 -7.53085 2.93067 0
M  V30 1007 H 98.2153 -5.61472 1.52448 0
M  V30 1008 H 97.0953 -7.24679 2.99683 0
M  V30 1009 N 94.5984 0.214957 -1.56127 0
M  V30 1010 C 95.5614 1.24997 -1.92116 0
M  V30 1011 C 96.5614 1.39467 -0.800344 0
M  V30 1012 O 97.7514 1.37619 -1.06802 0
M  V30 1013 C 94.8834 2.62271 -2.17777 0
M  V30 1014 H 96.0764 0.942875 -2.84693 0
M  V30 1015 H 93.6294 0.455654 -1.49511 0
M  V30 1016 H 94.3644 2.98068 -1.27773 0
M  V30 1017 H 94.1494 2.53143 -2.99434 0
M  V30 1018 H 95.6394 3.36946 -2.46693 0
M  V30 1019 N 96.0765 1.50051 0.48192 0
M  V30 1020 C 97.0085 1.64263 1.59844 0
M  V30 1021 C 98.0215 0.52451 1.54119 0
M  V30 1022 O 99.2105 0.797293 1.59704 0
M  V30 1023 C 96.3105 1.60102 2.98698 0
M  V30 1024 C 95.4835 2.87767 3.29407 0
M  V30 1025 C 94.5425 2.76397 4.47762 0
M  V30 1026 O 93.5685 3.50348 4.48603 0
M  V30 1027 N 94.7705 1.89222 5.48794 0
M  V30 1028 H 97.5355 2.60566 1.48073 0
M  V30 1029 H 95.0965 1.47379 0.670149 0
M  V30 1030 H 97.0885 1.50123 3.75826 0
M  V30 1031 H 95.6585 0.715798 3.04294 0
M  V30 1032 H 94.8785 3.11954 2.40994 0
M  V30 1033 H 96.1665 3.72365 3.4673 0
M  V30 1034 H 95.5645 1.28434 5.50928 0
M  V30 1035 H 94.1215 1.85154 6.24949 0
M  V30 1036 N 97.5546 -0.734337 1.39446 0
M  V30 1037 C 98.8026 -1.49096 1.36436 0
M  V30 1038 C 99.1236 -1.94961 -0.0388255 0
M  V30 1039 O 98.3936 -1.69033 -0.990191 0
M  V30 1040 H 96.9736 -0.5531 0.502085 0
M  V30 1041 H 99.6356 -0.871725 1.74319 0
M  V30 1042 H 98.7316 -2.37276 2.02747 0
M  V30 1043 N 99.0327 -1.24633 -0.964593 0
M  V30 1044 C 100.28 -1.08788 -1.70796 0
M  V30 1045 C 100.608 0.372783 -1.90894 0
M  V30 1046 O 99.8627 1.29167 -1.47018 0
M  V30 1047 C 100.162 -1.7763 -3.10133 0
M  V30 1048 C 99.8277 -3.27557 -3.09866 0
M  V30 1049 C 98.4897 -3.6846 -3.09501 0
M  V30 1050 C 100.842 -4.23389 -3.03959 0
M  V30 1051 C 98.1697 -5.03624 -3.00965 0
M  V30 1052 C 100.522 -5.58565 -2.96965 0
M  V30 1053 C 99.1857 -5.98809 -2.9493 0
M  V30 1054 H 98.4557 -0.398084 -0.624988 0
M  V30 1055 H 101.103 -1.54777 -1.12767 0
M  V30 1056 H 99.4077 -1.24044 -3.71645 0
M  V30 1057 H 101.105 -1.62832 -3.66451 0
M  V30 1058 H 97.6947 -2.95006 -3.10917 0
M  V30 1059 H 101.879 -3.92787 -3.03368 0
M  V30 1060 H 97.1347 -5.33998 -2.97752 0
M  V30 1061 H 101.309 -6.32523 -2.91354 0
M  V30 1062 H 98.9357 -7.03505 -2.88071 0
M  V30 1063 N 100.511 1.16574 -1.06058 0
M  V30 1064 C 101.76 1.86385 -0.770944 0
M  V30 1065 C 102.073 1.82448 0.705129 0
M  V30 1066 O 103.279 2.47815 1.10905 0
M  V30 1067 C 101.735 3.34466 -1.32893 0
M  V30 1068 C 101.343 3.46883 -2.83507 0
M  V30 1069 C 103.087 4.09548 -1.11672 0
M  V30 1070 C 100.994 4.89036 -3.32562 0
M  V30 1071 H 99.9238 0.698181 -0.284709 0
M  V30 1072 H 102.575 1.31583 -1.27899 0
M  V30 1073 H 100.957 3.88859 -0.748662 0
M  V30 1074 H 102.131 3.02663 -3.47465 0
M  V30 1075 H 100.446 2.85232 -3.03368 0
M  V30 1076 H 103.043 5.14434 -1.45814 0
M  V30 1077 H 103.386 4.16264 -0.0549535 0
M  V30 1078 H 103.919 3.61387 -1.66265 0
M  V30 1079 H 100.658 4.87499 -4.38207 0
M  V30 1080 H 100.178 5.3389 -2.73351 0
M  V30 1081 H 101.857 5.57843 -3.2775 0
M  V30 1082 N 101.989 0.842826 1.3317 0
M  V30 1083 C 102.919 0.294028 2.31641 0
M  V30 1084 C 103.9 -0.600401 1.59151 0
M  V30 1085 O 105.085 -0.523124 1.87022 0
M  V30 1086 C 102.215 -0.528416 3.43257 0
M  V30 1087 C 101.169 0.27056 4.27144 0
M  V30 1088 C 100.495 -0.675881 5.30411 0
M  V30 1089 C 101.795 1.48981 5.00602 0
M  V30 1090 H 103.489 1.11681 2.77791 0
M  V30 1091 H 101.035 0.538478 1.33553 0
M  V30 1092 H 102.988 -0.922674 4.11175 0
M  V30 1093 H 101.712 -1.38445 2.95805 0
M  V30 1094 H 100.371 0.646427 3.60856 0
M  V30 1095 H 100.019 -1.52842 4.79216 0
M  V30 1096 H 99.7189 -0.145374 5.8742 0
M  V30 1097 H 101.243 -1.06757 6.01195 0
M  V30 1098 H 102.657 1.16849 5.61266 0
M  V30 1099 H 101.054 1.95739 5.6728 0
M  V30 1100 H 102.124 2.25746 4.29147 0
M  V30 1101 N 103.467 -1.45747 0.599634 0
M  V30 1102 C 104.414 -2.30467 -0.123849 0
M  V30 1103 C 105.384 -1.41632 -0.86774 0
M  V30 1104 O 106.569 -1.70568 -0.855056 0
M  V30 1105 C 103.709 -3.26402 -1.12051 0
M  V30 1106 C 102.822 -4.3034 -0.37832 0
M  V30 1107 C 101.957 -5.13389 -1.364 0
M  V30 1108 C 100.996 -6.09061 -0.609171 0
M  V30 1109 N 100.133 -6.84918 -1.54374 0
M  V30 1110 H 104.973 -2.91802 0.604627 0
M  V30 1111 H 102.51 -1.43797 0.309972 0
M  V30 1112 H 104.468 -3.80482 -1.7114 0
M  V30 1113 H 103.098 -2.66839 -1.8165 0
M  V30 1114 H 102.15 -3.78984 0.327929 0
M  V30 1115 H 103.462 -4.98354 0.210997 0
M  V30 1116 H 102.616 -5.7183 -2.02719 0
M  V30 1117 H 101.355 -4.45376 -1.98725 0
M  V30 1118 H 100.36 -5.49758 0.0676979 0
M  V30 1119 H 101.585 -6.79099 0.00891991 0
M  V30 1120 H 99.531 -6.19601 -2.15478 0
M  V30 1121 H 99.448 -7.49254 -1.00766 0
M  V30 1122 H 100.716 -7.47906 -2.19676 0
M  V30 1123 N 104.945 -0.338344 -1.53925 0
M  V30 1124 C 106.192 0.259758 -2.00827 0
M  V30 1125 C 106.52 1.50973 -1.22628 0
M  V30 1126 O 105.775 1.93379 -0.300509 0
M  V30 1127 C 106.074 0.62448 -3.51902 0
M  V30 1128 C 105.74 -0.528006 -4.47798 0
M  V30 1129 C 104.402 -0.844298 -4.73735 0
M  V30 1130 C 106.754 -1.30143 -5.0469 0
M  V30 1131 C 104.082 -1.93648 -5.53821 0
M  V30 1132 C 106.434 -2.38382 -5.85967 0
M  V30 1133 C 105.098 -2.70576 -6.10201 0
M  V30 1134 H 104.368 0.0950523 -0.734878 0
M  V30 1135 H 107.015 -0.465182 -1.85764 0
M  V30 1136 H 105.32 1.43006 -3.64769 0
M  V30 1137 H 107.017 1.09905 -3.85645 0
M  V30 1138 H 103.607 -0.271421 -4.2774 0
M  V30 1139 H 107.791 -1.07033 -4.84621 0
M  V30 1140 H 103.047 -2.19021 -5.70824 0
M  V30 1141 H 107.221 -2.98746 -6.29066 0
M  V30 1142 H 104.848 -3.55333 -6.72044 0
M  V30 1143 N 106.423 1.57458 -0.0668435 0
M  V30 1144 C 107.648 1.9804 0.616027 0
M  V30 1145 C 108.073 0.944771 1.62652 0
M  V30 1146 O 107.431 -0.0902094 1.81075 0
M  V30 1147 C 107.479 3.37665 1.26549 0
M  V30 1148 O 106.583 3.36701 2.38131 0
M  V30 1149 H 105.924 0.644719 0.158849 0
M  V30 1150 H 108.454 2.04121 -0.139891 0
M  V30 1151 H 108.464 3.7474 1.6135 0
M  V30 1152 H 107.139 4.12573 0.525016 0
M  V30 1153 H 105.716 3.1139 2.0516 0
M  V30 1154 N 107.901 -0.206675 1.56239 0
M  V30 1155 C 109.126 -0.949474 1.8439 0
M  V30 1156 C 109.551 -1.76549 0.649016 0
M  V30 1157 O 108.909 -1.76782 -0.402231 0
M  V30 1158 C 108.957 -1.83078 3.10668 0
M  V30 1159 O 108.061 -2.9281 2.90407 0
M  V30 1160 H 107.402 -0.268033 0.607499 0
M  V30 1161 H 109.932 -0.215488 2.03462 0
M  V30 1162 H 109.942 -2.2377 3.41161 0
M  V30 1163 H 108.617 -1.23112 3.97261 0
M  V30 1164 H 107.194 -2.55956 2.71184 0
M  V30 1165 N 109.379 -1.50304 -0.473955 0
M  V30 1166 C 110.627 -1.60832 -1.22382 0
M  V30 1167 C 110.948 -0.30939 -1.9253 0
M  V30 1168 O 110.218 0.67296 -1.83978 0
M  V30 1169 H 108.798 -0.592652 -0.454723 0
M  V30 1170 H 111.46 -1.87068 -0.546968 0
M  V30 1171 H 110.556 -2.41803 -1.97327 0
M  V30 1172 N 110.857 0.726932 -1.39834 0
M  V30 1173 C 112.087 1.51393 -1.40583 0
M  V30 1174 C 112.495 1.892 -0.000740625 0
M  V30 1175 O 111.838 1.55189 0.982951 0
M  V30 1176 C 111.9 2.82588 -2.22226 0
M  V30 1177 C 111.564 2.67169 -3.70769 0
M  V30 1178 C 112.561 2.3518 -4.63666 0
M  V30 1179 C 110.246 2.83788 -4.14451 0
M  V30 1180 C 112.24 2.20002 -5.98229 0
M  V30 1181 C 109.927 2.68229 -5.49087 0
M  V30 1182 C 110.925 2.36382 -6.4079 0
M  V30 1183 O 110.613 2.2093 -7.72946 0
M  V30 1184 H 110.345 0.474168 -0.48181 0
M  V30 1185 H 112.899 0.905247 -1.84376 0
M  V30 1186 H 111.129 3.45746 -1.73195 0
M  V30 1187 H 112.818 3.44247 -2.15055 0
M  V30 1188 H 113.584 2.21984 -4.31217 0
M  V30 1189 H 109.463 3.07566 -3.43401 0
M  V30 1190 H 113.007 1.95067 -6.69772 0
M  V30 1191 H 108.904 2.81006 -5.81125 0
M  V30 1192 H 109.672 2.35937 -7.83757 0
M  V30 1193 N 112.336 1.25143 0.95797 0
M  V30 1194 C 113.564 1.12424 1.73691 0
M  V30 1195 C 113.979 -0.322304 1.86029 0
M  V30 1196 O 113.336 -1.22186 1.35561 0
M  V30 1197 C 113.387 1.76933 3.15241 0
M  V30 1198 O 113.108 3.15932 3.03511 0
M  V30 1199 C 114.609 1.6995 4.09429 0
M  V30 1200 H 111.829 0.3923 0.544373 0
M  V30 1201 H 114.373 1.6544 1.20207 0
M  V30 1202 H 112.528 1.27895 3.6568 0
M  V30 1203 H 112.942 3.47598 3.9278 0
M  V30 1204 H 114.416 2.19753 5.06372 0
M  V30 1205 H 114.893 0.662619 4.34173 0
M  V30 1206 H 115.499 2.18461 3.64904 0
M  V30 1207 N 113.814 -1.1601 1.06675 0
M  V30 1208 C 115.225 -1.68235 0.809565 0
M  V30 1209 C 115.576 -1.8454 -0.666303 0
M  V30 1210 O 114.701 -1.54374 -1.5165 0
M  V30 1211 C 115.296 -3.05585 1.46299 0
M  V30 1212 C 113.855 -3.54915 1.25349 0
M  V30 1213 C 113.002 -2.30804 1.53703 0
M  V30 1214 H 115.953 -1.00318 1.22971 0
M  V30 1215 H 115.974 -3.70174 0.880431 0
M  V30 1216 H 115.486 -2.93686 2.53713 0
M  V30 1217 H 113.587 -3.72067 0.199261 0
M  V30 1218 H 113.7 -4.36774 1.9689 0
M  V30 1219 H 112.064 -2.36007 0.957739 0
M  V30 1220 H 112.847 -2.21499 2.62284 0
M  V30 1221 N 115.292 -0.849877 -1.32721 0
M  V30 1222 C 116.54 -0.450032 -1.97026 0
M  V30 1223 C 116.861 0.996604 -1.67609 0
M  V30 1224 O 116.131 1.6958 -0.980786 0
M  V30 1225 H 114.711 -0.163426 -0.728904 0
M  V30 1226 H 117.373 -1.08526 -1.6189 0
M  V30 1227 H 116.469 -0.591146 -3.0645 0
M  V30 1228 N 116.77 1.45427 -0.607355 0
M  V30 1229 C 117.998 2.06614 -0.108814 0
M  V30 1230 C 118.413 1.45204 1.2067 0
M  V30 1231 O 117.77 0.566132 1.73497 0
M  V30 1232 C 117.821 3.61481 0.0375347 0
M  V30 1233 O 117.542 4.20598 -1.22593 0
M  V30 1234 C 119.043 4.39652 0.567561 0
M  V30 1235 H 116.263 0.66747 -0.0687351 0
M  V30 1236 H 118.807 1.86675 -0.835022 0
M  V30 1237 H 116.962 3.80762 0.714068 0
M  V30 1238 H 117.376 5.1377 -1.05547 0
M  V30 1239 H 118.85 5.48518 0.61905 0
M  V30 1240 H 119.327 4.09417 1.58978 0
M  V30 1241 H 119.933 4.25234 -0.0749202 0
M  V30 1242 N 118.248 0.346503 1.53744 0
M  V30 1243 C 119.494 -0.249473 2.0126 0
M  V30 1244 C 119.827 -1.49965 1.23386 0
M  V30 1245 O 119.102 -1.91811 0.32229 0
M  V30 1246 C 119.385 -0.560643 3.55709 0
M  V30 1247 C 119.238 0.701836 4.44291 0
M  V30 1248 C 120.557 -1.36905 4.18264 0
M  V30 1249 H 117.676 -0.0891987 0.731582 0
M  V30 1250 H 120.318 0.467624 1.84156 0
M  V30 1251 H 118.468 -1.17156 3.70414 0
M  V30 1252 H 120.14 1.33974 4.41417 0
M  V30 1253 H 118.383 1.32612 4.13033 0
M  V30 1254 H 119.054 0.43933 5.50249 0
M  V30 1255 H 121.53 -0.852448 4.07275 0
M  V30 1256 H 120.406 -1.55553 5.26398 0
M  V30 1257 H 120.667 -2.37203 3.73078 0
M  V30 1258 N 119.726 -1.57421 0.075193 0
M  V30 1259 C 120.974 -1.93236 -0.591974 0
M  V30 1260 C 121.295 -0.956241 -1.69944 0
M  V30 1261 O 120.565 -0.00494792 -1.95899 0
M  V30 1262 H 119.145 -0.713355 -0.22166 0
M  V30 1263 H 121.807 -1.9444 0.133848 0
M  V30 1264 H 120.903 -2.95131 -1.01509 0
M  V30 1265 N 121.204 0.198386 -1.56346 0
M  V30 1266 C 122.45 0.920648 -1.80698 0
M  V30 1267 C 122.783 1.83045 -0.648697 0
M  V30 1268 O 122.058 1.91308 0.350925 0
M  V30 1269 C 122.341 1.73971 -3.15287 0
M  V30 1270 C 122.194 0.85485 -4.41602 0
M  V30 1271 C 123.513 2.71296 -3.46535 0
M  V30 1272 H 120.632 0.333261 -0.657348 0
M  V30 1273 H 123.274 0.188198 -1.89066 0
M  V30 1274 H 121.424 2.36416 -3.08285 0
M  V30 1275 H 123.096 0.245362 -4.60647 0
M  V30 1276 H 121.339 0.161398 -4.335 0
M  V30 1277 H 122.01 1.46286 -5.32264 0
M  V30 1278 H 124.486 2.18983 -3.53816 0
M  V30 1279 H 123.362 3.2569 -4.41834 0
M  V30 1280 H 123.623 3.5018 -2.69864 0
M  V30 1281 N 122.682 1.50554 0.465978 0
M  V30 1282 C 123.93 1.61479 1.21528 0
M  V30 1283 C 124.251 0.319596 1.92363 0
M  V30 1284 O 123.521 -0.663194 1.84333 0
M  V30 1285 H 122.101 0.595055 0.451573 0
M  V30 1286 H 124.763 1.87355 0.53704 0
M  V30 1287 H 123.859 2.42846 1.96042 0
M  V30 1288 N 124.16 -0.719506 1.40217 0
M  V30 1289 C 125.09 -1.8465 1.42922 0
M  V30 1290 C 126.071 -1.67599 0.29062 0
M  V30 1291 O 127.256 -1.87688 0.498677 0
M  V30 1292 C 124.386 -3.22565 1.28722 0
M  V30 1293 C 123.34 -3.54281 2.40144 0
M  V30 1294 C 122.666 -4.91298 2.11023 0
M  V30 1295 C 123.966 -3.55676 3.82481 0
M  V30 1296 H 125.66 -1.82644 2.37237 0
M  V30 1297 H 123.206 -0.877305 1.1419 0
M  V30 1298 H 125.159 -4.01095 1.29232 0
M  V30 1299 H 123.883 -3.25137 0.308811 0
M  V30 1300 H 122.542 -2.78088 2.38877 0
M  V30 1301 H 122.19 -4.90468 1.11582 0
M  V30 1302 H 121.89 -5.13485 2.8567 0
M  V30 1303 H 123.414 -5.72166 2.13209 0
M  V30 1304 H 124.828 -4.24254 3.85592 0
M  V30 1305 H 123.225 -3.89388 4.56614 0
M  V30 1306 H 124.295 -2.55144 4.12346 0
M  V30 1307 N 125.638 -1.25649 -0.95132 0
M  V30 1308 C 126.915 -1.01361 -1.67288 0
M  V30 1309 C 127.295 0.459135 -2.06046 0
M  V30 1310 O 126.643 1.43723 -1.7764 0
M  V30 1311 C 126.853 -1.95256 -2.89268 0
M  V30 1312 C 128.201 -2.23289 -3.61147 0
M  V30 1313 O 129.225 -1.93041 -2.99355 0
M  V30 1314 O 128.084 -2.74741 -4.72419 0
M  V30 1315 H 125.178 -0.38464 -0.732107 0
M  V30 1316 H 127.724 -1.36817 -1.00395 0
M  V30 1317 H 126.496 -2.94685 -2.57442 0
M  V30 1318 H 126.119 -1.60218 -3.6389 0
M  V30 1319 N 127.117 1.15442 -1.07289 0
M  V30 1320 C 128.08 2.18358 -0.696591 0
M  V30 1321 C 129.08 1.58637 0.262837 0
M  V30 1322 O 130.27 1.74145 0.0438809 0
M  V30 1323 C 127.402 3.4089 -0.0266151 0
M  V30 1324 H 128.595 2.53162 -1.60776 0
M  V30 1325 H 126.148 1.29893 -0.869342 0
M  V30 1326 H 126.883 3.11653 0.896822 0
M  V30 1327 H 126.668 3.85495 -0.716657 0
M  V30 1328 H 128.158 4.17009 0.222028 0
M  V30 1329 N 128.595 0.856903 1.32268 0
M  V30 1330 C 129.844 0.457599 1.96441 0
M  V30 1331 C 130.157 -0.992426 1.68553 0
M  V30 1332 O 131.363 -1.49727 2.26482 0
M  V30 1333 C 129.819 0.767358 3.51624 0
M  V30 1334 C 129.427 2.23326 3.88367 0
M  V30 1335 C 131.171 0.435887 4.22256 0
M  V30 1336 C 129.078 2.48613 5.36606 0
M  V30 1337 H 128.008 0.167387 0.735185 0
M  V30 1338 H 130.659 1.048 1.5063 0
M  V30 1339 H 129.041 0.106367 3.95857 0
M  V30 1340 H 130.215 2.93623 3.55137 0
M  V30 1341 H 128.53 2.52948 3.30766 0
M  V30 1342 H 131.127 0.602202 5.31298 0
M  V30 1343 H 131.47 -0.622672 4.11617 0
M  V30 1344 H 132.003 1.05286 3.83614 0
M  V30 1345 H 128.742 3.53101 5.52268 0
M  V30 1346 H 128.262 1.82896 5.71235 0
M  V30 1347 H 129.941 2.32676 6.03714 0
M  V30 1348 N 130.073 -1.45103 0.615059 0
M  V30 1349 C 131.321 -2.01784 0.112955 0
M  V30 1350 C 131.642 -1.48504 -1.26378 0
M  V30 1351 O 130.912 -0.682245 -1.83636 0
M  V30 1352 H 129.492 -0.745993 0.0387668 0
M  V30 1353 H 132.154 -1.77808 0.798141 0
M  V30 1354 H 131.25 -3.12025 0.0684069 0
M  V30 1355 N 131.551 -0.354651 -1.53558 0
M  V30 1356 C 132.481 0.489091 -2.2832 0
M  V30 1357 C 133.462 1.09324 -1.30316 0
M  V30 1358 O 134.647 1.11255 -1.59173 0
M  V30 1359 C 131.777 1.63456 -3.0643 0
M  V30 1360 C 130.731 1.1582 -4.12031 0
M  V30 1361 C 130.057 2.39305 -4.7816 0
M  V30 1362 C 131.357 0.250731 -5.21698 0
M  V30 1363 H 133.051 -0.134614 -2.99097 0
M  V30 1364 H 130.597 -0.0661826 -1.43848 0
M  V30 1365 H 132.55 2.23136 -3.57475 0
M  V30 1366 H 131.274 2.28533 -2.33325 0
M  V30 1367 H 129.933 0.584146 -3.61916 0
M  V30 1368 H 129.581 3.02814 -4.01637 0
M  V30 1369 H 129.281 2.08109 -5.49513 0
M  V30 1370 H 130.805 2.99691 -5.31994 0
M  V30 1371 H 132.219 0.754695 -5.68311 0
M  V30 1372 H 130.616 0.0301468 -6.00092 0
M  V30 1373 H 131.686 -0.710125 -4.79672 0
M  V30 1374 N 133.029 1.57378 -0.0835403 0
M  V30 1375 C 134.276 1.9393 0.58287 0
M  V30 1376 C 134.604 0.964455 1.68904 0
M  V30 1377 O 133.859 -0.0179474 1.95692 0
M  V30 1378 C 134.158 3.37063 1.1884 0
M  V30 1379 C 133.824 4.50424 0.207194 0
M  V30 1380 C 132.486 4.81159 -0.0627115 0
M  V30 1381 C 134.838 5.19136 -0.463426 0
M  V30 1382 C 132.166 5.77939 -1.01012 0
M  V30 1383 C 134.518 6.16931 -1.39924 0
M  V30 1384 C 133.182 6.46078 -1.67749 0
M  V30 1385 H 132.452 0.70964 0.213287 0
M  V30 1386 H 135.099 1.90856 -0.156916 0
M  V30 1387 H 133.404 3.3666 2.00418 0
M  V30 1388 H 135.101 3.6264 1.71153 0
M  V30 1389 H 131.691 4.2646 0.427747 0
M  V30 1390 H 135.875 4.95576 -0.268034 0
M  V30 1391 H 131.131 5.98842 -1.23283 0
M  V30 1392 H 135.305 6.69273 -1.92476 0
M  V30 1393 H 132.932 7.2088 -2.41321 0
M  V30 1394 N 134.507 -0.190092 1.56449 0
M  V30 1395 C 135.755 -0.907908 1.80559 0
M  V30 1396 C 136.076 -1.83583 0.657438 0
M  V30 1397 O 135.346 -1.93203 -0.323924 0
M  V30 1398 H 133.926 -0.338247 0.666032 0
M  V30 1399 H 136.588 -0.194403 1.93928 0
M  V30 1400 H 135.684 -1.49604 2.73907 0
M  V30 1401 N 135.985 -1.50799 -0.457987 0
M  V30 1402 C 137.231 -1.62683 -1.21088 0
M  V30 1403 C 137.564 -0.332268 -1.91336 0
M  V30 1404 O 136.839 0.667043 -1.82704 0
M  V30 1405 C 137.122 -2.81615 -2.24422 0
M  V30 1406 C 136.975 -4.20989 -1.58392 0
M  V30 1407 C 138.294 -2.96085 -3.2561 0
M  V30 1408 H 135.413 -0.592087 -0.438864 0
M  V30 1409 H 138.055 -1.83225 -0.50286 0
M  V30 1410 H 136.205 -2.64231 -2.84806 0
M  V30 1411 H 137.877 -4.49994 -1.01504 0
M  V30 1412 H 136.12 -4.24641 -0.886704 0
M  V30 1413 H 136.791 -5.0016 -2.33547 0
M  V30 1414 H 139.267 -3.12042 -2.75262 0
M  V30 1415 H 138.143 -3.80902 -3.95228 0
M  V30 1416 H 138.404 -2.0726 -3.90507 0
M  V30 1417 N 137.463 0.71206 -1.40597 0
M  V30 1418 C 138.41 1.82613 -1.41142 0
M  V30 1419 C 139.38 1.63925 -0.267903 0
M  V30 1420 O 140.565 1.85009 -0.466495 0
M  V30 1421 C 137.705 3.20354 -1.28324 0
M  V30 1422 C 136.818 3.50589 -2.52411 0
M  V30 1423 C 135.953 4.77855 -2.32009 0
M  V30 1424 C 134.992 5.01005 -3.51654 0
M  V30 1425 N 134.129 6.19487 -3.30425 0
M  V30 1426 H 138.969 1.81482 -2.36365 0
M  V30 1427 H 136.506 0.886475 -1.17388 0
M  V30 1428 H 138.464 3.99899 -1.18899 0
M  V30 1429 H 137.094 3.20705 -0.367189 0
M  V30 1430 H 136.146 2.65573 -2.72351 0
M  V30 1431 H 137.458 3.63604 -3.41458 0
M  V30 1432 H 136.612 5.65424 -2.19956 0
M  V30 1433 H 135.351 4.67056 -1.40392 0
M  V30 1434 H 134.356 4.1189 -3.64179 0
M  V30 1435 H 135.581 5.13674 -4.44202 0
M  V30 1436 H 133.527 6.09932 -2.41494 0
M  V30 1437 H 133.444 6.33194 -4.13039 0
M  V30 1438 H 134.712 7.09834 -3.22113 0
M  V30 1439 N 138.941 1.26152 0.944643 0
M  V30 1440 C 139.871 1.09902 2.06019 0
M  V30 1441 C 140.852 0.00519538 1.70099 0
M  V30 1442 O 142.037 0.176583 1.93396 0
M  V30 1443 C 139.167 0.727562 3.39594 0
M  V30 1444 C 138.121 1.77274 3.89561 0
M  V30 1445 C 137.447 1.25569 5.19747 0
M  V30 1446 C 138.747 3.17357 4.14827 0
M  V30 1447 H 140.441 2.03217 2.19871 0
M  V30 1448 H 137.987 0.978452 1.05652 0
M  V30 1449 H 139.94 0.600777 4.17095 0
M  V30 1450 H 138.664 -0.241287 3.25707 0
M  V30 1451 H 137.323 1.88814 3.14237 0
M  V30 1452 H 136.971 0.276783 5.02238 0
M  V30 1453 H 136.671 1.95433 5.54148 0
M  V30 1454 H 138.195 1.1415 5.99835 0
M  V30 1455 H 139.609 3.08914 4.82954 0
M  V30 1456 H 138.006 3.84781 4.60504 0
M  V30 1457 H 139.076 3.63673 3.20734 0
M  V30 1458 N 140.419 -1.14872 1.07899 0
M  V30 1459 C 141.367 -2.21857 0.698727 0
M  V30 1460 C 142.361 -1.66845 -0.293086 0
M  V30 1461 O 143.567 -1.79321 -0.156204 0
M  V30 1462 H 139.942 -0.722691 0.207899 0
M  V30 1463 H 141.913 -2.51205 1.61054 0
M  V30 1464 C 140.662 -3.47498 0.11858 0
M  V30 1465 H 139.985 -3.90154 0.872914 0
M  V30 1466 H 141.425 -4.23858 -0.109759 0
M  V30 1467 C 139.884 -3.16947 -1.1422 0
M  V30 1468 O 140.414 -3.3426 -2.22785 0
M  V30 1469 N 138.62 -2.70946 -1.05055 0
M  V30 1470 H 138.167 -2.57058 -0.167038 0
M  V30 1471 H 138.125 -2.50879 -1.89491 0
M  V30 1472 N 141.898 -0.863906 -1.31812 0
M  V30 1473 C 143.123 -0.48527 -2.01643 0
M  V30 1474 C 143.548 0.913058 -1.64453 0
M  V30 1475 O 142.906 1.6014 -0.849985 0
M  V30 1476 C 142.954 -0.642625 -3.54828 0
M  V30 1477 O 142.058 0.320659 -4.11151 0
M  V30 1478 H 141.399 -0.193793 -0.635091 0
M  V30 1479 H 143.929 -1.16565 -1.68148 0
M  V30 1480 H 143.939 -0.533628 -4.04495 0
M  V30 1481 H 142.614 -1.66227 -3.81237 0
M  V30 1482 H 141.191 0.167126 -3.72525 0
M  V30 1483 N 143.376 1.44774 -0.622745 0
M  V30 1484 C 144.624 2.01721 -0.123655 0
M  V30 1485 C 144.945 1.49172 1.25589 0
M  V30 1486 O 144.215 0.691974 1.83272 0
M  V30 1487 H 142.795 0.745777 -0.0427225 0
M  V30 1488 H 145.457 1.77382 -0.807559 0
M  V30 1489 H 144.553 3.11984 -0.0849534 0
M  V30 1490 N 144.854 0.36279 1.53368 0
M  V30 1491 C 146.27 0.0116182 1.59596 0
M  V30 1492 C 146.47 -1.47012 1.37803 0
M  V30 1493 O 145.526 -2.23136 1.18181 0
M  V30 1494 C 146.839 0.465052 2.97082 0
M  V30 1495 C 148.387 0.419033 3.10182 0
M  V30 1496 C 148.862 0.848235 4.50077 0
M  V30 1497 N 150.353 0.803183 4.56183 0
M  V30 1498 C 151.088 1.107 5.62613 0
M  V30 1499 N 150.584 1.47996 6.76808 0
M  V30 1500 N 152.377 1.02998 5.52583 0
M  V30 1501 H 144.528 1.32775 1.65785 0
M  V30 1502 H 146.791 0.542518 0.777417 0
M  V30 1503 H 146.497 1.49892 3.18159 0
M  V30 1504 H 146.371 -0.149786 3.76902 0
M  V30 1505 H 148.758 -0.605696 2.88817 0
M  V30 1506 H 148.839 1.06933 2.32377 0
M  V30 1507 H 148.483 1.87107 4.7218 0
M  V30 1508 H 148.413 0.175218 5.26308 0
M  V30 1509 H 150.904 0.52838 3.74188 0
M  V30 1510 H 151.217 1.69613 7.53957 0
M  V30 1511 H 149.562 1.51859 6.78206 0
M  V30 1512 H 152.753 0.737817 4.62249 0
M  V30 1513 H 152.926 1.2701 6.35431 0
M  V30 1514 N 146.332 -1.57332 0.0918853 0
M  V30 1515 C 147.58 -1.93853 -0.571446 0
M  V30 1516 C 147.901 -0.974212 -1.6892 0
M  V30 1517 O 147.171 -0.0257254 -1.95883 0
M  V30 1518 H 145.751 -0.715666 -0.214082 0
M  V30 1519 H 148.413 -1.94287 0.154464 0
M  V30 1520 H 147.509 -2.96191 -0.983729 0
M  V30 1521 N 147.81 0.181792 -1.56548 0
M  V30 1522 C 149.038 0.915947 -1.85521 0
M  V30 1523 C 149.453 1.76282 -0.676016 0
M  V30 1524 O 148.81 1.79012 0.355077 0
M  V30 1525 C 148.861 1.80126 -3.13427 0
M  V30 1526 O 148.582 0.988562 -4.26801 0
M  V30 1527 C 150.083 2.64597 -3.55673 0
M  V30 1528 H 147.303 0.26661 -0.61576 0
M  V30 1529 H 149.847 0.185039 -2.03661 0
M  V30 1530 H 148.002 2.48563 -2.97145 0
M  V30 1531 H 148.416 1.59308 -4.99721 0
M  V30 1532 H 149.89 3.2235 -4.48101 0
M  V30 1533 H 150.367 3.38958 -2.79292 0
M  V30 1534 H 150.973 2.0151 -3.74532 0
M  V30 1535 N 149.288 1.51039 0.449983 0
M  V30 1536 C 150.513 1.6715 1.22783 0
M  V30 1537 C 150.938 0.363081 1.84563 0
M  V30 1538 O 150.296 -0.675433 1.68249 0
M  V30 1539 C 150.344 2.77985 2.29689 0
M  V30 1540 O 149.448 2.40707 3.34864 0
M  V30 1541 H 148.789 0.557746 0.360299 0
M  V30 1542 H 151.319 1.97535 0.533005 0
M  V30 1543 H 151.329 3.01693 2.74673 0
M  V30 1544 H 150.004 3.72935 1.84098 0
M  V30 1545 H 148.581 2.27523 2.95445 0
M  V30 1546 N 150.766 -0.704594 1.40972 0
M  V30 1547 C 151.714 -1.83994 1.42299 0
M  V30 1548 C 152.708 -1.66684 0.302111 0
M  V30 1549 O 153.914 -1.73655 0.473697 0
M  V30 1550 H 150.289 -0.606171 0.44504 0
M  V30 1551 H 152.26 -1.79992 2.38003 0
M  V30 1552 C 151.009 -3.21946 1.31323 0
M  V30 1553 H 150.332 -3.35878 2.16855 0
M  V30 1554 H 151.772 -4.01491 1.36311 0
M  V30 1555 C 150.231 -3.36891 0.0245977 0
M  V30 1556 O 150.761 -3.90687 -0.934153 0
M  V30 1557 N 148.967 -2.90559 -0.0485243 0
M  V30 1558 H 148.514 -2.46968 0.732419 0
M  V30 1559 H 148.472 -3.00937 -0.910171 0
M  V30 1560 N 152.244 -1.26651 -0.937939 0
M  V30 1561 C 153.469 -1.15279 -1.72411 0
M  V30 1562 C 153.894 0.287866 -1.85884 0
M  V30 1563 O 153.252 1.20855 -1.35143 0
M  V30 1564 C 153.3 -1.83028 -3.10698 0
M  V30 1565 O 152.404 -1.12128 -3.96864 0
M  V30 1566 H 151.745 -0.401504 -0.528858 0
M  V30 1567 H 154.275 -1.67531 -1.1745 0
M  V30 1568 H 154.285 -1.89981 -3.6107 0
M  V30 1569 H 152.96 -2.87833 -3.00208 0
M  V30 1570 H 151.537 -1.13173 -3.55312 0
M  V30 1571 N 153.722 1.14298 -1.08507 0
M  V30 1572 C 154.632 2.23027 -0.727753 0
M  V30 1573 C 155.648 1.71952 0.26619 0
M  V30 1574 O 156.824 2.011 0.109882 0
M  V30 1575 C 153.889 3.46403 -0.143541 0
M  V30 1576 C 152.95 4.12413 -1.19223 0
M  V30 1577 C 152.183 5.29899 -0.635798 0
M  V30 1578 O 152.406 5.67796 0.544393 0
M  V30 1579 O 151.34 5.85717 -1.38634 0
M  V30 1580 H 155.166 2.55945 -1.63481 0
M  V30 1581 H 152.751 1.22248 -0.858817 0
M  V30 1582 H 154.633 4.21018 0.179404 0
M  V30 1583 H 153.308 3.15206 0.736659 0
M  V30 1584 H 152.215 3.39667 -1.56772 0
M  V30 1585 H 153.548 4.47718 -2.04474 0
M  V30 1586 N 155.201 0.870884 1.31352 0
M  V30 1587 C 156.131 0.343096 2.30966 0
M  V30 1588 C 157.112 -0.566507 1.60389 0
M  V30 1589 O 158.297 -0.483336 1.88089 0
M  V30 1590 C 155.427 -0.455487 3.443 0
M  V30 1591 C 154.381 0.361103 4.26474 0
M  V30 1592 C 153.707 -0.563221 5.31725 0
M  V30 1593 C 155.007 1.59566 4.97329 0
M  V30 1594 H 156.701 1.17548 2.75359 0
M  V30 1595 H 154.247 0.566686 1.32381 0
M  V30 1596 H 156.2 -0.83525 4.13039 0
M  V30 1597 H 154.924 -1.32139 2.98675 0
M  V30 1598 H 153.583 0.722825 3.59403 0
M  V30 1599 H 153.231 -1.42643 4.82351 0
M  V30 1600 H 152.931 -0.0207409 5.87596 0
M  V30 1601 H 154.455 -0.939808 6.03324 0
M  V30 1602 H 155.869 1.28728 5.58661 0
M  V30 1603 H 154.266 2.07728 5.63 0
M  V30 1604 H 155.336 2.34798 4.24262 0
M  V30 1605 N 156.679 -1.44442 0.630414 0
M  V30 1606 C 157.609 -2.33418 -0.0618083 0
M  V30 1607 C 158.59 -1.48165 -0.835541 0
M  V30 1608 O 159.775 -1.76886 -0.801564 0
M  V30 1609 C 156.905 -3.31222 -1.04449 0
M  V30 1610 C 155.859 -4.26288 -0.382436 0
M  V30 1611 C 155.185 -5.13954 -1.47497 0
M  V30 1612 C 156.485 -5.1744 0.710865 0
M  V30 1613 H 158.179 -2.91548 0.681184 0
M  V30 1614 H 155.725 -1.40191 0.329026 0
M  V30 1615 H 157.678 -3.92351 -1.53748 0
M  V30 1616 H 156.402 -2.71299 -1.81836 0
M  V30 1617 H 155.061 -3.6649 0.0899054 0
M  V30 1618 H 154.709 -4.50385 -2.2397 0
M  V30 1619 H 154.409 -5.7837 -1.03737 0
M  V30 1620 H 155.933 -5.77955 -1.96979 0
M  V30 1621 H 157.347 -5.72509 0.300996 0
M  V30 1622 H 155.744 -5.90455 1.07156 0
M  V30 1623 H 156.814 -4.58496 1.57829 0
M  V30 1624 N 158.157 -0.370918 -1.53173 0
M  V30 1625 C 159.568 0.107139 -1.86392 0
M  V30 1626 C 159.919 1.47714 -1.29132 0
M  V30 1627 O 159.044 2.07464 -0.615439 0
M  V30 1628 C 159.639 0.201187 -3.38202 0
M  V30 1629 C 158.198 0.623507 -3.712 0
M  V30 1630 C 157.345 -0.225978 -2.76378 0
M  V30 1631 H 160.296 -0.58951 -1.47345 0
M  V30 1632 H 160.317 1.02377 -3.66468 0
M  V30 1633 H 159.829 -0.796058 -3.79848 0
M  V30 1634 H 157.93 1.62879 -3.35114 0
M  V30 1635 H 158.043 0.394414 -4.77474 0
M  V30 1636 H 156.407 0.305962 -2.52856 0
M  V30 1637 H 157.19 -1.22086 -3.20858 0
M  V30 1638 N 159.635 1.57281 -0.100228 0
M  V30 1639 C 160.565 2.17328 0.853857 0
M  V30 1640 C 161.546 1.10804 1.2906 0
M  V30 1641 O 162.731 1.38963 1.35657 0
M  V30 1642 C 159.861 2.75772 2.11109 0
M  V30 1643 C 158.815 3.87713 1.81279 0
M  V30 1644 C 158.141 4.32882 3.13874 0
M  V30 1645 C 159.441 5.10677 1.09574 0
M  V30 1646 H 161.135 2.97305 0.353545 0
M  V30 1647 H 158.681 1.43009 0.168612 0
M  V30 1648 H 160.634 3.16433 2.78296 0
M  V30 1649 H 159.358 1.93057 2.63432 0
M  V30 1650 H 158.017 3.476 1.16489 0
M  V30 1651 H 157.665 3.47051 3.64095 0
M  V30 1652 H 157.365 5.08358 2.94696 0
M  V30 1653 H 158.889 4.7618 3.82211 0
M  V30 1654 H 160.303 5.48474 1.66879 0
M  V30 1655 H 158.7 5.91615 1.00557 0
M  V30 1656 H 159.77 4.84835 0.0793299 0
M  V30 1657 N 161.113 -0.173488 1.56642 0
M  V30 1658 C 162.063 -1.21941 1.92651 0
M  V30 1659 C 163.047 -1.39912 0.794577 0
M  V30 1660 O 164.239 -1.41919 1.05773 0
M  V30 1661 C 161.368 -2.55935 2.28806 0
M  V30 1662 C 160.454 -2.41667 3.48508 0
M  V30 1663 N 160.845 -1.9711 4.65813 0
M  V30 1664 C 159.143 -2.72499 3.53072 0
M  V30 1665 C 159.844 -1.95253 5.47952 0
M  V30 1666 N 158.82 -2.37575 4.88937 0
M  V30 1667 H 162.622 -0.866581 2.80834 0
M  V30 1668 H 160.136 -0.381776 1.57849 0
M  V30 1669 H 162.133 -3.31511 2.52797 0
M  V30 1670 H 160.793 -2.92022 1.41961 0
M  V30 1671 H 161.804 -1.67481 4.90072 0
M  V30 1672 H 158.481 -3.12639 2.767 0
M  V30 1673 H 159.871 -1.6252 6.51948 0
M  V30 1674 N 162.591 -1.51276 -0.441967 0
M  V30 1675 C 163.868 -1.54252 -1.20273 0
M  V30 1676 C 164.248 -0.30408 -2.08898 0
M  V30 1677 O 163.596 0.711084 -2.17154 0
M  V30 1678 C 163.806 -2.85406 -2.00859 0
M  V30 1679 C 165.154 -3.37181 -2.58059 0
M  V30 1680 O 166.178 -2.86925 -2.11074 0
M  V30 1681 O 165.037 -4.24858 -3.43741 0
M  V30 1682 H 162.131 -0.619969 -0.547328 0
M  V30 1683 H 164.677 -1.63586 -0.451413 0
M  V30 1684 H 163.449 -3.67003 -1.35736 0
M  V30 1685 H 163.072 -2.79213 -2.83065 0
M  V30 1686 N 164.069 0.697108 -1.41344 0
M  V30 1687 C 165.346 1.45154 -1.31109 0
M  V30 1688 C 165.726 2.11009 0.0620449 0
M  V30 1689 O 165.074 2.01571 1.07618 0
M  V30 1690 C 165.284 2.47223 -2.46337 0
M  V30 1691 C 166.632 3.1252 -2.87431 0
M  V30 1692 O 167.656 2.57547 -2.46065 0
M  V30 1693 O 166.515 4.12083 -3.58957 0
M  V30 1694 H 163.609 0.646365 -0.515889 0
M  V30 1695 H 166.155 0.727716 -1.53305 0
M  V30 1696 H 164.927 1.97204 -3.37974 0
M  V30 1697 H 164.55 3.27116 -2.2601 0
M  V30 1698 N 165.547 1.27147 0.931209 0
M  V30 1699 C 166.795 1.13055 1.6752 0
M  V30 1700 C 167.116 -0.324791 1.92276 0
M  V30 1701 O 166.386 -1.22775 1.52654 0
M  V30 1702 H 164.966 0.415391 0.620854 0
M  V30 1703 H 167.628 1.59623 1.11833 0
M  V30 1704 H 166.724 1.65694 2.64485 0
M  V30 1705 N 167.025 -1.13721 1.09112 0
M  V30 1706 C 168.441 -1.36914 0.820174 0
M  V30 1707 C 168.641 -1.93356 -0.567079 0
M  V30 1708 O 167.697 -2.15093 -1.32255 0
M  V30 1709 C 169.01 -2.3235 1.90877 0
M  V30 1710 C 170.558 -2.45973 1.93562 0
M  V30 1711 C 171.033 -3.44714 3.01556 0
M  V30 1712 N 172.524 -3.52263 3.00775 0
M  V30 1713 C 173.259 -4.28536 3.80978 0
M  V30 1714 N 172.755 -5.07991 4.71081 0
M  V30 1715 N 174.548 -4.23804 3.69251 0
M  V30 1716 H 166.699 -0.754348 1.98553 0
M  V30 1717 H 168.962 -0.3944 0.862063 0
M  V30 1718 H 168.668 -1.98027 2.90651 0
M  V30 1719 H 168.542 -3.32332 1.78424 0
M  V30 1720 H 170.929 -2.79584 0.944286 0
M  V30 1721 H 171.01 -1.45926 2.10093 0
M  V30 1722 H 170.654 -3.11835 4.00901 0
M  V30 1723 H 170.584 -4.44558 2.82269 0
M  V30 1724 H 173.075 -2.95567 2.35475 0
M  V30 1725 H 173.388 -5.63487 5.28869 0
M  V30 1726 H 171.733 -5.07235 4.75119 0
M  V30 1727 H 174.924 -3.60806 2.98222 0
M  V30 1728 H 175.097 -4.82995 4.31995 0
M  V30 1729 N 168.503 -0.877838 -1.30888 0
M  V30 1730 C 169.466 -0.344265 -2.266 0
M  V30 1731 C 170.466 0.50922 -1.52524 0
M  V30 1732 O 171.656 0.317398 -1.71284 0
M  V30 1733 C 168.788 0.510198 -3.37061 0
M  V30 1734 H 169.981 -1.1893 -2.7531 0
M  V30 1735 H 167.534 -0.654088 -1.41956 0
M  V30 1736 H 168.269 1.37612 -2.93655 0
M  V30 1737 H 168.054 -0.101047 -3.9197 0
M  V30 1738 H 169.544 0.875537 -4.08319 0
M  V30 1739 N 169.982 1.44106 -0.638065 0
M  V30 1740 C 170.945 2.29138 0.0531013 0
M  V30 1741 C 171.945 1.41409 0.765506 0
M  V30 1742 O 173.135 1.63206 0.609046 0
M  V30 1743 C 170.267 3.23144 1.08584 0
M  V30 1744 H 171.46 2.91739 -0.694883 0
M  V30 1745 H 169.013 1.51134 -0.398538 0
M  V30 1746 H 169.748 2.65408 1.86357 0
M  V30 1747 H 169.533 3.87804 0.578852 0
M  V30 1748 H 171.023 3.87004 1.56899 0
M  V30 1749 N 171.46 0.379036 1.52974 0
M  V30 1750 C 172.737 -0.263479 1.93817 0
M  V30 1751 C 173.117 -1.65244 1.31368 0
M  V30 1752 O 172.465 -2.23448 0.477856 0
M  V30 1753 C 172.675 -0.300166 3.47707 0
M  V30 1754 C 174.023 -0.534061 4.21228 0
M  V30 1755 O 175.047 -0.38081 3.54159 0
M  V30 1756 O 173.906 -0.833501 5.40106 0
M  V30 1757 H 171 -0.161149 0.811147 0
M  V30 1758 H 173.546 0.432798 1.64088 0
M  V30 1759 H 172.318 0.673138 3.85467 0
M  V30 1760 H 171.941 -1.04179 3.83709 0
M  V30 1761 N 172.938 -1.57226 0.108567 0
M  V30 1762 C 173.886 -2.16002 -0.862885 0
M  V30 1763 C 174.88 -1.10644 -1.28274 0
M  V30 1764 O 176.086 -1.28966 -1.2557 0
M  V30 1765 H 172.461 -0.691148 -0.296342 0
M  V30 1766 H 174.432 -2.96427 -0.342575 0
M  V30 1767 C 173.181 -2.76576 -2.10716 0
M  V30 1768 H 172.504 -3.5734 -1.793 0
M  V30 1769 H 173.944 -3.21253 -2.76717 0
M  V30 1770 C 172.403 -1.73137 -2.89007 0
M  V30 1771 O 172.933 -1.17842 -3.84026 0
M  V30 1772 N 171.139 -1.43317 -2.52801 0
M  V30 1773 H 170.686 -1.88473 -1.75601 0
M  V30 1774 H 170.644 -0.743485 -3.05483 0
M  V30 1775 N 174.416 0.165178 -1.56732 0
M  V30 1776 C 175.646 0.894919 -1.86212 0
M  V30 1777 C 176.054 1.76066 -0.692627 0
M  V30 1778 O 175.397 1.80387 0.347303 0
M  V30 1779 C 175.459 1.8174 -3.10179 0
M  V30 1780 C 175.123 1.13064 -4.42793 0
M  V30 1781 C 176.12 0.493169 -5.17556 0
M  V30 1782 C 173.805 1.12556 -4.89527 0
M  V30 1783 C 175.799 -0.140209 -6.37246 0
M  V30 1784 C 173.486 0.488366 -6.09145 0
M  V30 1785 C 174.484 -0.143411 -6.82849 0
M  V30 1786 O 174.172 -0.77055 -8.00199 0
M  V30 1787 H 173.904 0.265114 -0.621844 0
M  V30 1788 H 176.458 0.168242 -2.0471 0
M  V30 1789 H 174.688 2.58455 -2.87642 0
M  V30 1790 H 176.377 2.4175 -3.26055 0
M  V30 1791 H 177.143 0.489023 -4.82528 0
M  V30 1792 H 173.022 1.60672 -4.32094 0
M  V30 1793 H 176.566 -0.633932 -6.94714 0
M  V30 1794 H 172.463 0.490116 -6.43637 0
M  V30 1795 H 173.231 -0.670408 -8.1575 0
M  V30 1796 N 175.894 1.51508 0.433938 0
M  V30 1797 C 177.142 1.6402 1.18075 0
M  V30 1798 C 177.463 0.360328 1.91642 0
M  V30 1799 O 176.733 -0.623945 1.85698 0
M  V30 1800 H 175.313 0.6045 0.43885 0
M  V30 1801 H 177.975 1.88452 0.497178 0
M  V30 1802 H 177.071 2.46949 1.90847 0
M  V30 1803 N 177.372 -0.689602 1.41712 0
M  V30 1804 C 178.788 -1.00093 1.24312 0
M  V30 1805 C 178.988 -2.01036 0.136729 0
M  V30 1806 O 178.044 -2.47562 -0.496918 0
M  V30 1807 C 179.357 -1.51985 2.59463 0
M  V30 1808 C 180.905 -1.63838 2.66695 0
M  V30 1809 C 181.38 -2.1913 4.02177 0
M  V30 1810 N 182.871 -2.26483 4.04054 0
M  V30 1811 C 183.606 -2.70306 5.0569 0
M  V30 1812 N 183.102 -3.13691 6.17713 0
M  V30 1813 N 184.895 -2.69923 4.9305 0
M  V30 1814 H 177.046 -0.0210029 2.1239 0
M  V30 1815 H 179.309 -0.0718733 0.945272 0
M  V30 1816 H 179.015 -0.85269 3.41207 0
M  V30 1817 H 178.889 -2.50103 2.82362 0
M  V30 1818 H 181.276 -2.29664 1.85306 0
M  V30 1819 H 181.357 -0.642492 2.476 0
M  V30 1820 H 181.001 -1.53918 4.84016 0
M  V30 1821 H 180.931 -3.19482 4.18615 0
M  V30 1822 H 183.422 -1.95874 3.23174 0
M  V30 1823 H 183.735 -3.45773 6.9113 0
M  V30 1824 H 182.08 -3.11585 6.21241 0
M  V30 1825 H 185.271 -2.35382 4.04614 0
M  V30 1826 H 185.444 -3.03758 5.72394 0
M  V30 1827 N 178.85 -1.27639 -0.924453 0
M  V30 1828 C 180.096 -1.14336 -1.67497 0
M  V30 1829 C 180.429 0.309465 -1.91718 0
M  V30 1830 O 179.704 1.22608 -1.50989 0
M  V30 1831 C 179.987 -1.93096 -3.0395 0
M  V30 1832 C 179.84 -3.46381 -2.8695 0
M  V30 1833 C 181.159 -1.73798 -4.0433 0
M  V30 1834 H 178.278 -0.416728 -0.607871 0
M  V30 1835 H 180.92 -1.56832 -1.07256 0
M  V30 1836 H 179.07 -1.56982 -3.55372 0
M  V30 1837 H 180.742 -3.92343 -2.42621 0
M  V30 1838 H 178.985 -3.72557 -2.22225 0
M  V30 1839 H 179.656 -3.96735 -3.83804 0
M  V30 1840 H 182.132 -2.05293 -3.61931 0
M  V30 1841 H 181.008 -2.31294 -4.97789 0
M  V30 1842 H 181.269 -0.686725 -4.36734 0
M  V30 1843 N 180.328 1.1314 -1.09713 0
M  V30 1844 C 181.576 1.84119 -0.833338 0
M  V30 1845 C 181.897 1.84097 0.642904 0
M  V30 1846 O 181.167 1.29881 1.46655 0
M  V30 1847 H 179.747 0.681766 -0.305293 0
M  V30 1848 H 182.409 1.37038 -1.38588 0
M  V30 1849 H 181.505 2.88543 -1.18951 0
M  V30 1850 N 181.806 0.884767 1.30421 0
M  V30 1851 C 183.052 0.503851 1.96441 0
M  V30 1852 C 183.385 -0.944518 1.69684 0
M  V30 1853 O 182.66 -1.66737 1.00145 0
M  V30 1854 C 182.943 0.779085 3.51571 0
M  V30 1855 C 182.796 2.27807 3.87846 0
M  V30 1856 C 184.115 0.255452 4.39358 0
M  V30 1857 H 181.234 0.184533 0.713524 0
M  V30 1858 H 183.876 1.10872 1.54297 0
M  V30 1859 H 182.026 0.264274 3.876 0
M  V30 1860 H 183.698 2.86127 3.61841 0
M  V30 1861 H 181.941 2.74479 3.35922 0
M  V30 1862 H 182.612 2.42125 4.96064 0
M  V30 1863 H 185.088 0.696079 4.10236 0
M  V30 1864 H 183.964 0.477361 5.4682 0
M  V30 1865 H 184.225 -0.843293 4.33983 0
M  V30 1866 N 183.284 -1.43765 0.645699 0
M  V30 1867 C 184.247 -2.29163 -0.0409488 0
M  V30 1868 C 185.247 -1.41813 -0.757996 0
M  V30 1869 O 186.437 -1.63527 -0.600382 0
M  V30 1870 C 183.569 -3.23716 -1.06869 0
M  V30 1871 H 184.762 -2.91366 0.710345 0
M  V30 1872 H 182.315 -1.5092 0.406547 0
M  V30 1873 H 183.05 -2.66393 -1.84947 0
M  V30 1874 H 182.835 -3.88105 -0.558277 0
M  V30 1875 H 184.325 -3.87831 -1.54845 0
M  V30 1876 N 184.763 -0.387143 -1.52771 0
M  V30 1877 C 185.726 0.436939 -2.24997 0
M  V30 1878 C 186.726 0.991991 -1.26555 0
M  V30 1879 O 187.916 0.874335 -1.50669 0
M  V30 1880 C 185.048 1.61281 -3.00335 0
M  V30 1881 H 186.241 -0.195365 -2.99263 0
M  V30 1882 H 183.794 -0.139218 -1.55679 0
M  V30 1883 H 184.529 2.2826 -2.30364 0
M  V30 1884 H 184.314 1.22154 -3.72587 0
M  V30 1885 H 185.804 2.19629 -3.5518 0
M  V30 1886 N 186.241 1.57166 -0.116904 0
M  V30 1887 C 187.188 2.15202 0.83408 0
M  V30 1888 C 188.158 1.07644 1.26499 0
M  V30 1889 O 189.343 1.35541 1.34288 0
M  V30 1890 C 186.483 2.75405 2.07957 0
M  V30 1891 C 185.596 3.97264 1.69721 0
M  V30 1892 C 184.731 4.45561 2.89221 0
M  V30 1893 C 183.77 5.59956 2.47215 0
M  V30 1894 N 182.907 6.03006 3.59622 0
M  V30 1895 H 187.747 2.96141 0.332335 0
M  V30 1896 H 185.284 1.46309 0.152349 0
M  V30 1897 H 187.242 3.08439 2.80929 0
M  V30 1898 H 185.872 1.97159 2.55594 0
M  V30 1899 H 184.924 3.70404 0.866316 0
M  V30 1900 H 186.236 4.80226 1.34849 0
M  V30 1901 H 185.39 4.80493 3.7042 0
M  V30 1902 H 184.129 3.61544 3.27318 0
M  V30 1903 H 183.134 5.2463 1.64448 0
M  V30 1904 H 184.359 6.45738 2.10238 0
M  V30 1905 H 182.305 5.21931 3.97396 0
M  V30 1906 H 182.222 6.80819 3.28667 0
M  V30 1907 H 183.49 6.42576 4.41267 0
M  V30 1908 N 187.719 -0.156864 1.56817 0
M  V30 1909 C 188.649 -1.19589 2.00551 0
M  V30 1910 C 189.63 -1.4536 0.883426 0
M  V30 1911 O 190.815 -1.56449 1.15054 0
M  V30 1912 C 187.945 -2.53143 2.37773 0
M  V30 1913 C 186.899 -2.41913 3.53075 0
M  V30 1914 C 186.225 -3.80088 3.76081 0
M  V30 1915 C 187.525 -1.91157 4.86062 0
M  V30 1916 H 189.219 -0.832293 2.87599 0
M  V30 1917 H 186.765 -0.398918 1.38364 0
M  V30 1918 H 188.718 -3.26047 2.66967 0
M  V30 1919 H 187.442 -2.91319 1.4765 0
M  V30 1920 H 186.101 -1.71462 3.24031 0
M  V30 1921 H 185.749 -4.15683 2.83225 0
M  V30 1922 H 185.449 -3.73439 4.53671 0
M  V30 1923 H 186.973 -4.54556 4.0769 0
M  V30 1924 H 188.387 -2.53846 5.14038 0
M  V30 1925 H 186.784 -1.95422 5.67389 0
M  V30 1926 H 187.854 -0.866673 4.77092 0
M  V30 1927 N 189.197 -1.51736 -0.425897 0
M  V30 1928 C 190.613 -1.40166 -0.76326 0
M  V30 1929 C 190.813 -0.492962 -1.95377 0
M  V30 1930 O 189.869 0.0475815 -2.52455 0
M  V30 1931 C 191.182 -2.82403 -1.03291 0
M  V30 1932 C 192.73 -2.91632 -1.13665 0
M  V30 1933 C 193.205 -4.34801 -1.43916 0
M  V30 1934 N 194.696 -4.3796 -1.50816 0
M  V30 1935 C 195.431 -5.4578 -1.75817 0
M  V30 1936 N 194.927 -6.63744 -1.98534 0
M  V30 1937 N 196.72 -5.33274 -1.77694 0
M  V30 1938 H 188.871 -2.09361 0.358 0
M  V30 1939 H 191.134 -0.942941 0.0978094 0
M  V30 1940 H 190.84 -3.50943 -0.230696 0
M  V30 1941 H 190.714 -3.22428 -1.95754 0
M  V30 1942 H 193.101 -2.23284 -1.92947 0
M  V30 1943 H 193.182 -2.55088 -0.190756 0
M  V30 1944 H 192.826 -5.03703 -0.65157 0
M  V30 1945 H 192.756 -4.68868 -2.39729 0
M  V30 1946 H 195.247 -3.52919 -1.35118 0
M  V30 1947 H 195.56 -7.41704 -2.17013 0
M  V30 1948 H 193.905 -6.66839 -1.95832 0
M  V30 1949 H 197.096 -4.40098 -1.59473 0
M  V30 1950 H 197.269 -6.1738 -1.9684 0
M  V30 1951 N 190.675 0.682077 -1.42076 0
M  V30 1952 C 191.921 1.44428 -1.42367 0
M  V30 1953 C 192.254 1.94164 -0.0373056 0
M  V30 1954 O 191.529 1.70429 0.937239 0
M  V30 1955 C 191.812 2.64654 -2.44194 0
M  V30 1956 C 191.665 2.20596 -3.91991 0
M  V30 1957 C 192.984 3.66865 -2.431 0
M  V30 1958 H 190.103 0.523834 -0.518428 0
M  V30 1959 H 192.745 0.77576 -1.73442 0
M  V30 1960 H 190.895 3.2169 -2.17826 0
M  V30 1961 H 192.567 1.68783 -4.29313 0
M  V30 1962 H 190.81 1.52242 -4.06208 0
M  V30 1963 H 191.481 3.06921 -4.58807 0
M  V30 1964 H 193.957 3.19531 -2.66532 0
M  V30 1965 H 192.833 4.48577 -3.16339 0
M  V30 1966 H 193.094 4.17493 -1.45437 0
M  V30 1967 N 192.153 1.28127 0.917671 0
M  V30 1968 C 193.378 1.18007 1.70555 0
M  V30 1969 C 193.803 -0.258257 1.86319 0
M  V30 1970 O 193.161 -1.1869 1.37049 0
M  V30 1971 C 193.209 1.87948 3.07746 0
M  V30 1972 O 192.313 1.18427 3.9503 0
M  V30 1973 H 191.654 0.409867 0.522403 0
M  V30 1974 H 194.184 1.69379 1.1477 0
M  V30 1975 H 194.194 1.95701 3.58001 0
M  V30 1976 H 192.869 2.92573 2.95591 0
M  V30 1977 H 191.446 1.18811 3.53466 0
M  V30 1978 N 193.631 -1.12557 1.10312 0
M  V30 1979 C 194.594 -2.16434 0.75424 0
M  V30 1980 C 195.594 -1.59278 -0.220685 0
M  V30 1981 O 196.784 -1.742 0.00230591 0
M  V30 1982 C 193.916 -3.40699 0.116987 0
M  V30 1983 H 195.109 -2.48811 1.67431 0
M  V30 1984 H 192.662 -1.27542 0.903475 0
M  V30 1985 H 193.397 -3.13921 -0.813877 0
M  V30 1986 H 193.182 -3.83459 0.818613 0
M  V30 1987 H 194.672 -4.17451 -0.111387 0
M  V30 1988 N 195.109 -0.891671 -1.2995 0
M  V30 1989 C 196.334 -0.527932 -2.00568 0
M  V30 1990 C 196.759 0.877969 -1.66353 0
M  V30 1991 O 196.117 1.58301 -0.883762 0
M  V30 1992 C 196.165 -0.717745 -3.53385 0
M  V30 1993 O 195.269 0.233376 -4.11739 0
M  V30 1994 H 194.61 -0.20722 -0.630837 0
M  V30 1995 H 197.14 -1.20105 -1.65638 0
M  V30 1996 H 197.15 -0.619307 -4.03272 0
M  V30 1997 H 195.825 -1.74276 -3.77625 0
M  V30 1998 H 194.402 0.0880706 -3.72796 0
M  V30 1999 N 196.587 1.43421 -0.653314 0
M  V30 2000 C 197.497 2.34568 0.0388565 0
M  V30 2001 C 198.513 1.53888 0.81207 0
M  V30 2002 O 199.689 1.86539 0.759294 0
M  V30 2003 C 196.754 3.32167 0.993269 0
M  V30 2004 C 195.815 4.28751 0.216977 0
M  V30 2005 C 195.048 5.21688 1.12593 0
M  V30 2006 O 195.271 5.19052 2.36519 0
M  V30 2007 O 194.205 5.98919 0.598284 0
M  V30 2008 H 198.031 2.95251 -0.711386 0
M  V30 2009 H 195.616 1.43564 -0.413502 0
M  V30 2010 H 197.498 3.92183 1.54176 0
M  V30 2011 H 196.173 2.73987 1.72374 0
M  V30 2012 H 195.08 3.72215 -0.375101 0
M  V30 2013 H 196.413 4.89913 -0.473924 0
M  V30 2014 N 198.065 0.39524 1.52563 0
M  V30 2015 C 198.995 -0.428384 2.29537 0
M  V30 2016 C 199.976 -1.05831 1.33169 0
M  V30 2017 O 201.161 -1.06995 1.62067 0
M  V30 2018 C 198.291 -1.55274 3.10656 0
M  V30 2019 C 197.245 -1.04855 4.14957 0
M  V30 2020 C 196.571 -2.26543 4.84337 0
M  V30 2021 C 197.871 -0.112324 5.22179 0
M  V30 2022 H 199.565 0.213867 2.98635 0
M  V30 2023 H 197.111 0.104298 1.43622 0
M  V30 2024 H 199.064 -2.1358 3.63265 0
M  V30 2025 H 197.788 -2.22266 2.39302 0
M  V30 2026 H 196.447 -0.487985 3.63338 0
M  V30 2027 H 196.095 -2.92059 4.09525 0
M  V30 2028 H 195.795 -1.93466 5.54837 0
M  V30 2029 H 197.319 -2.85481 5.39753 0
M  V30 2030 H 198.733 -0.603752 5.70112 0
M  V30 2031 H 197.13 0.128968 5.99961 0
M  V30 2032 H 198.2 0.837052 4.77621 0
M  V30 2033 N 199.544 -1.57102 0.125237 0
M  V30 2034 C 200.491 -2.15641 -0.822655 0
M  V30 2035 C 201.461 -1.08313 -1.25927 0
M  V30 2036 O 202.646 -1.36251 -1.33567 0
M  V30 2037 C 199.786 -2.76504 -2.06494 0
M  V30 2038 C 198.899 -3.98158 -1.67612 0
M  V30 2039 C 198.034 -4.47088 -2.86854 0
M  V30 2040 C 197.073 -5.6126 -2.44242 0
M  V30 2041 N 196.21 -6.04905 -3.56419 0
M  V30 2042 H 201.05 -2.96313 -0.316625 0
M  V30 2043 H 198.587 -1.46388 -0.144588 0
M  V30 2044 H 200.545 -3.09925 -2.79289 0
M  V30 2045 H 199.175 -1.98512 -2.54545 0
M  V30 2046 H 198.227 -3.70858 -0.846661 0
M  V30 2047 H 199.539 -4.80934 -1.32301 0
M  V30 2048 H 198.693 -4.82451 -3.67867 0
M  V30 2049 H 197.432 -3.63275 -3.25396 0
M  V30 2050 H 196.437 -5.25495 -1.61663 0
M  V30 2051 H 197.662 -6.46843 -2.0681 0
M  V30 2052 H 195.608 -5.24032 -3.94623 0
M  V30 2053 H 195.525 -6.82552 -3.25051 0
M  V30 2054 H 196.793 -6.44907 -4.37853 0
M  V30 2055 N 201.022 0.148545 -1.56898 0
M  V30 2056 C 202.271 0.85984 -1.82454 0
M  V30 2057 C 202.584 1.82406 -0.706229 0
M  V30 2058 O 203.79 2.57938 -0.847349 0
M  V30 2059 C 202.246 1.57967 -3.2338 0
M  V30 2060 C 201.854 0.65794 -4.43142 0
M  V30 2061 C 203.598 2.27784 -3.58211 0
M  V30 2062 C 201.505 1.3793 -5.75091 0
M  V30 2063 H 200.435 0.324834 -0.68044 0
M  V30 2064 H 203.086 0.112588 -1.83154 0
M  V30 2065 H 201.468 2.37249 -3.17063 0
M  V30 2066 H 202.642 -0.0995497 -4.60692 0
M  V30 2067 H 200.957 0.0682643 -4.16344 0
M  V30 2068 H 203.554 2.8239 -4.54048 0
M  V30 2069 H 203.897 3.04204 -2.84193 0
M  V30 2070 H 204.43 1.55421 -3.66182 0
M  V30 2071 H 201.169 0.656982 -6.52199 0
M  V30 2072 H 200.689 2.10954 -5.61479 0
M  V30 2073 H 202.368 1.92063 -6.17835 0
M  V30 2074 N 202.5 1.5196 0.417844 0
M  V30 2075 C 203.748 1.65263 1.16329 0
M  V30 2076 C 204.069 0.380634 1.91249 0
M  V30 2077 O 203.339 -0.604214 1.86349 0
M  V30 2078 H 201.919 0.60912 0.432414 0
M  V30 2079 H 204.581 1.88969 0.477162 0
M  V30 2080 H 203.677 2.4896 1.88217 0
M  V30 2081 N 203.978 -0.674533 1.42435 0
M  V30 2082 C 204.888 -1.81751 1.48337 0
M  V30 2083 C 205.904 -1.69975 0.372099 0
M  V30 2084 O 207.08 -1.91521 0.62304 0
M  V30 2085 C 204.145 -3.17895 1.38361 0
M  V30 2086 C 203.206 -3.41625 2.59982 0
M  V30 2087 C 202.439 -4.71274 2.50473 0
M  V30 2088 O 202.662 -5.49197 1.54075 0
M  V30 2089 O 201.596 -4.96254 3.4061 0
M  V30 2090 H 205.422 -1.79728 2.44809 0
M  V30 2091 H 203.007 -0.830312 1.24202 0
M  V30 2092 H 204.889 -3.99136 1.35161 0
M  V30 2093 H 203.564 -3.20555 0.450144 0
M  V30 2094 H 202.471 -2.60231 2.68757 0
M  V30 2095 H 203.804 -3.43796 3.52229 0
M  V30 2096 N 205.456 -1.28612 -0.910864 0
M  V30 2097 C 206.389 -1.07109 -2.01502 0
M  V30 2098 C 207.367 0.013706 -1.62594 0
M  V30 2099 O 208.551 -0.134796 -1.88017 0
M  V30 2100 C 205.678 -0.628255 -3.32822 0
M  V30 2101 C 204.724 -1.71012 -3.90714 0
M  V30 2102 S 205.557 -3.30676 -4.21205 0
M  V30 2103 C 206.713 -2.88234 -5.55583 0
M  V30 2104 H 206.946 -2.00591 -2.19432 0
M  V30 2105 H 204.479 -1.12633 -1.05609 0
M  V30 2106 H 206.437 -0.37946 -4.08742 0
M  V30 2107 H 205.098 0.28678 -3.12788 0
M  V30 2108 H 204.291 -1.35195 -4.85529 0
M  V30 2109 H 203.893 -1.91186 -3.21441 0
M  V30 2110 H 206.185 -2.34584 -6.35591 0
M  V30 2111 H 207.128 -3.81857 -5.96314 0
M  V30 2112 H 207.536 -2.26862 -5.16908 0
M  V30 2113 N 206.934 1.1197 -1.10907 0
M  V30 2114 C 207.864 2.19928 -0.784473 0
M  V30 2115 C 208.845 1.6833 0.244726 0
M  V30 2116 O 210.03 1.93892 0.109418 0
M  V30 2117 C 207.16 3.46597 -0.220827 0
M  V30 2118 C 206.114 4.11376 -1.18127 0
M  V30 2119 C 205.44 5.32554 -0.478594 0
M  V30 2120 C 206.74 4.56945 -2.52979 0
M  V30 2121 H 208.434 2.47337 -1.68715 0
M  V30 2122 H 205.98 1.18879 -0.812642 0
M  V30 2123 H 207.933 4.21396 0.0184278 0
M  V30 2124 H 206.657 3.1863 0.717113 0
M  V30 2125 H 205.316 3.38564 -1.40606 0
M  V30 2126 H 204.964 5.00856 0.463976 0
M  V30 2127 H 204.664 5.76844 -1.11912 0
M  V30 2128 H 206.188 6.10096 -0.248 0
M  V30 2129 H 207.602 5.23093 -2.3462 0
M  V30 2130 H 205.999 5.1203 -3.12962 0
M  V30 2131 H 207.069 3.70676 -3.12614 0
M  V30 2132 N 208.412 0.89855 1.29475 0
M  V30 2133 C 209.823 0.572537 1.77705 0
M  V30 2134 C 210.174 -0.911778 1.73727 0
M  V30 2135 O 209.299 -1.71288 1.32247 0
M  V30 2136 C 209.894 1.03252 3.22683 0
M  V30 2137 C 208.453 0.757687 3.68695 0
M  V30 2138 C 207.6 1.20787 2.49612 0
M  V30 2139 H 210.551 1.08139 1.16153 0
M  V30 2140 H 210.572 0.367307 3.78723 0
M  V30 2141 H 210.084 2.11285 3.25546 0
M  V30 2142 H 208.185 -0.310079 3.71308 0
M  V30 2143 H 208.298 1.35476 4.59547 0
M  V30 2144 H 206.662 0.626888 2.46865 0
M  V30 2145 H 207.445 2.29622 2.55203 0
M  V30 2146 N 209.89 -1.43072 0.660911 0
M  V30 2147 C 211.167 -1.95307 0.107017 0
M  V30 2148 C 211.547 -1.60192 -1.37484 0
M  V30 2149 O 210.895 -0.890949 -2.10415 0
M  V30 2150 C 211.105 -3.47124 0.361402 0
M  V30 2151 C 212.453 -4.23738 0.270455 0
M  V30 2152 O 213.477 -3.54981 0.294382 0
M  V30 2153 O 212.336 -5.46131 0.200737 0
M  V30 2154 H 209.43 -0.826984 -0.00517729 0
M  V30 2155 H 211.976 -1.52972 0.734681 0
M  V30 2156 H 210.748 -3.65837 1.38848 0
M  V30 2157 H 210.371 -3.96475 -0.298953 0
M  V30 2158 N 211.368 -0.403325 -1.52352 0
M  V30 2159 C 212.617 0.175668 -2.00934 0
M  V30 2160 C 212.93 1.46718 -1.29356 0
M  V30 2161 O 214.136 2.12708 -1.68724 0
M  V30 2162 C 212.592 0.363612 -3.58058 0
M  V30 2163 C 212.2 -0.915472 -4.38547 0
M  V30 2164 C 213.944 0.89821 -4.14888 0
M  V30 2165 C 211.851 -0.695035 -5.87302 0
M  V30 2166 H 210.781 0.0694234 -0.750797 0
M  V30 2167 H 213.432 -0.527879 -1.75743 0
M  V30 2168 H 211.814 1.12935 -3.79555 0
M  V30 2169 H 212.988 -1.68691 -4.28812 0
M  V30 2170 H 211.303 -1.37606 -3.93006 0
M  V30 2171 H 213.9 1.07907 -5.23699 0
M  V30 2172 H 214.243 1.87126 -3.71873 0
M  V30 2173 H 214.776 0.191681 -3.97338 0
M  V30 2174 H 211.515 -1.63948 -6.34666 0
M  V30 2175 H 211.035 0.0372116 -5.99788 0
M  V30 2176 H 212.714 -0.33497 -6.46132 0
M  V30 2177 N 212.846 1.57033 -0.133567 0
M  V30 2178 C 214.257 1.82593 0.389464 0
M  V30 2179 C 214.608 1.05156 1.6564 0
M  V30 2180 O 213.733 0.292644 2.14412 0
M  V30 2181 C 214.328 3.31204 0.713377 0
M  V30 2182 C 212.887 3.57393 1.18098 0
M  V30 2183 C 212.034 2.76598 0.197126 0
M  V30 2184 H 214.985 1.54598 -0.358481 0
M  V30 2185 H 215.006 3.46627 1.56939 0
M  V30 2186 H 214.518 3.87537 -0.2089 0
M  V30 2187 H 212.619 3.06433 2.11966 0
M  V30 2188 H 212.732 4.65915 1.11624 0
M  V30 2189 H 211.096 2.45257 0.687088 0
M  V30 2190 H 211.879 3.35697 -0.718504 0
M  V30 2191 N 214.325 -0.140222 1.56975 0
M  V30 2192 C 215.255 -1.17456 2.01808 0
M  V30 2193 C 216.236 -1.44415 0.898794 0
M  V30 2194 O 217.421 -1.5522 1.16707 0
M  V30 2195 C 214.551 -2.50607 2.40444 0
M  V30 2196 C 213.505 -2.38155 3.55621 0
M  V30 2197 C 212.831 -3.76078 3.80091 0
M  V30 2198 C 214.131 -1.85991 4.88062 0
M  V30 2199 H 215.825 -0.801743 2.88466 0
M  V30 2200 H 213.371 -0.38422 1.38779 0
M  V30 2201 H 215.324 -3.23197 2.7041 0
M  V30 2202 H 214.048 -2.89737 1.50732 0
M  V30 2203 H 212.707 -1.68016 3.25832 0
M  V30 2204 H 212.355 -4.12656 2.87618 0
M  V30 2205 H 212.055 -3.68606 4.57606 0
M  V30 2206 H 213.579 -4.50206 4.12488 0
M  V30 2207 H 214.993 -2.4838 5.16701 0
M  V30 2208 H 213.39 -1.89393 5.6943 0
M  V30 2209 H 214.46 -0.816023 4.77984 0
M  V30 2210 N 215.803 -1.52179 -0.40978 0
M  V30 2211 C 216.733 -1.78435 -1.5061 0
M  V30 2212 C 217.714 -0.635295 -1.57791 0
M  V30 2213 O 218.899 -0.880823 -1.73076 0
M  V30 2214 C 216.029 -1.93444 -2.88439 0
M  V30 2215 C 214.983 -3.09038 -2.96108 0
M  V30 2216 C 214.309 -3.09268 -4.36185 0
M  V30 2217 C 215.609 -4.48508 -2.67652 0
M  V30 2218 H 217.303 -2.70237 -1.28889 0
M  V30 2219 H 214.849 -1.30036 -0.618605 0
M  V30 2220 H 216.802 -2.10394 -3.65119 0
M  V30 2221 H 215.526 -0.983129 -3.11452 0
M  V30 2222 H 214.185 -2.91837 -2.21872 0
M  V30 2223 H 213.833 -2.11861 -4.56206 0
M  V30 2224 H 213.533 -3.86907 -4.42241 0
M  V30 2225 H 215.057 -3.28348 -5.14801 0
M  V30 2226 H 216.471 -4.65918 -3.34056 0
M  V30 2227 H 214.868 -5.28059 -2.85085 0
M  V30 2228 H 215.938 -4.56649 -1.63095 0
M  V30 2229 N 217.281 0.66697 -1.42791 0
M  V30 2230 C 218.697 0.981027 -1.25889 0
M  V30 2231 C 218.897 2.00793 -0.168695 0
M  V30 2232 O 217.953 2.48321 0.45747 0
M  V30 2233 C 219.266 1.47838 -2.61848 0
M  V30 2234 C 220.814 1.59575 -2.69267 0
M  V30 2235 C 221.289 2.12704 -4.05612 0
M  V30 2236 N 222.78 2.20026 -4.07606 0
M  V30 2237 C 223.515 2.62227 -5.09926 0
M  V30 2238 N 223.011 3.03824 -6.22626 0
M  V30 2239 N 224.804 2.62045 -4.97281 0
M  V30 2240 H 216.955 -0.0127891 -2.12396 0
M  V30 2241 H 219.218 0.0568258 -0.946295 0
M  V30 2242 H 218.924 0.798299 -3.4252 0
M  V30 2243 H 218.798 2.45579 -2.86305 0
M  V30 2244 H 221.185 2.26687 -1.88936 0
M  V30 2245 H 221.266 0.60302 -2.48591 0
M  V30 2246 H 220.91 1.46198 -4.86404 0
M  V30 2247 H 220.84 3.12782 -4.23645 0
M  V30 2248 H 223.331 1.90708 -3.2625 0
M  V30 2249 H 223.644 3.34734 -6.96544 0
M  V30 2250 H 221.989 3.01662 -6.26119 0
M  V30 2251 H 225.18 2.28916 -4.08308 0
M  V30 2252 H 225.353 2.94613 -5.77154 0
M  V30 2253 N 218.759 1.29093 0.90403 0
M  V30 2254 C 219.989 1.19516 1.68522 0
M  V30 2255 C 220.397 -0.24738 1.87576 0
M  V30 2256 O 219.74 -1.17798 1.40959 0
M  V30 2257 C 219.802 1.83249 3.0929 0
M  V30 2258 C 219.466 3.32531 3.13484 0
M  V30 2259 C 220.463 4.28821 2.93953 0
M  V30 2260 C 218.148 3.73656 3.35688 0
M  V30 2261 C 220.142 5.64212 2.96553 0
M  V30 2262 C 217.829 5.0917 3.37919 0
M  V30 2263 C 218.827 6.04258 3.18373 0
M  V30 2264 O 218.515 7.37298 3.20385 0
M  V30 2265 H 218.247 0.415467 0.533257 0
M  V30 2266 H 220.801 1.70912 1.13922 0
M  V30 2267 H 219.031 1.26358 3.65473 0
M  V30 2268 H 220.72 1.68054 3.69476 0
M  V30 2269 H 221.486 3.98382 2.76616 0
M  V30 2270 H 217.365 3.00101 3.49943 0
M  V30 2271 H 220.909 6.38407 2.81216 0
M  V30 2272 H 216.806 5.39256 3.54787 0
M  V30 2273 H 217.574 7.46048 3.36681 0
M  V30 2274 N 220.237 -1.11381 1.11499 0
M  V30 2275 C 221.514 -1.7955 0.775965 0
M  V30 2276 C 221.894 -1.97859 -0.73588 0
M  V30 2277 O 221.242 -1.56376 -1.66609 0
M  V30 2278 C 221.452 -3.13196 1.53977 0
M  V30 2279 C 222.8 -3.88227 1.71944 0
M  V30 2280 O 223.824 -3.22887 1.50407 0
M  V30 2281 O 222.683 -5.05477 2.07738 0
M  V30 2282 H 219.777 -0.777728 0.28119 0
M  V30 2283 H 222.323 -1.18118 1.21845 0
M  V30 2284 H 221.095 -2.95229 2.56818 0
M  V30 2285 H 220.718 -3.82342 1.09088 0
M  V30 2286 N 221.715 -0.905404 -1.28997 0
M  V30 2287 C 222.992 -0.453513 -1.9027 0
M  V30 2288 C 223.372 1.06721 -1.82137 0
M  V30 2289 O 222.72 1.91159 -1.25182 0
M  V30 2290 C 222.93 -0.974494 -3.35119 0
M  V30 2291 C 224.278 -1.0216 -4.12127 0
M  V30 2292 O 225.302 -0.922557 -3.44046 0
M  V30 2293 O 224.161 -1.17121 -5.33802 0
M  V30 2294 H 221.255 -0.142347 -0.814657 0
M  V30 2295 H 223.801 -0.995642 -1.37423 0
M  V30 2296 H 222.573 -2.01848 -3.35221 0
M  V30 2297 H 222.196 -0.412706 -3.95452 0
M  V30 2298 N 223.193 1.4272 -0.668489 0
M  V30 2299 C 224.441 2.01226 -0.187769 0
M  V30 2300 C 224.762 1.53092 1.2078 0
M  V30 2301 O 224.032 0.74993 1.80977 0
M  V30 2302 H 222.612 0.744041 -0.0664272 0
M  V30 2303 H 225.274 1.74723 -0.863583 0
M  V30 2304 H 224.37 3.11556 -0.184166 0
M  V30 2305 N 224.671 0.411399 1.52136 0
M  V30 2306 C 226.087 0.0623865 1.59478 0
M  V30 2307 C 226.287 -1.42554 1.4241 0
M  V30 2308 O 225.343 -2.19263 1.2522 0
M  V30 2309 C 226.656 0.559331 2.95452 0
M  V30 2310 C 228.204 0.517503 3.08692 0
M  V30 2311 C 228.679 0.990994 4.4715 0
M  V30 2312 N 230.17 0.947908 4.53397 0
M  V30 2313 C 230.905 1.28544 5.58806 0
M  V30 2314 N 230.401 1.69454 6.71757 0
M  V30 2315 N 232.194 1.20526 5.49026 0
M  V30 2316 H 224.345 1.37982 1.61477 0
M  V30 2317 H 226.608 0.566977 0.759764 0
M  V30 2318 H 226.314 1.59938 3.1323 0
M  V30 2319 H 226.188 -0.0298014 3.77188 0
M  V30 2320 H 228.575 -0.513505 2.90598 0
M  V30 2321 H 228.656 1.14272 2.28857 0
M  V30 2322 H 228.3 2.02034 4.65988 0
M  V30 2323 H 228.23 0.34257 5.25485 0
M  V30 2324 H 230.721 0.647157 3.72317 0
M  V30 2325 H 231.034 1.93513 7.48179 0
M  V30 2326 H 229.379 1.73359 6.73032 0
M  V30 2327 H 232.57 0.884505 4.59667 0
M  V30 2328 H 232.743 1.47161 6.31069 0
M  V30 2329 N 226.149 -1.5696 0.141893 0
M  V30 2330 C 227.079 -2.19516 -0.795936 0
M  V30 2331 C 228.06 -1.14187 -1.26077 0
M  V30 2332 O 229.245 -1.42511 -1.31925 0
M  V30 2333 C 226.375 -2.81272 -2.03723 0
M  V30 2334 C 225.329 -3.92384 -1.70936 0
M  V30 2335 C 224.655 -4.41052 -3.02287 0
M  V30 2336 C 225.955 -5.13403 -0.959954 0
M  V30 2337 H 227.649 -2.98138 -0.274596 0
M  V30 2338 H 225.195 -1.43406 -0.130636 0
M  V30 2339 H 227.148 -3.237 -2.69808 0
M  V30 2340 H 225.872 -1.99973 -2.58221 0
M  V30 2341 H 224.531 -3.50566 -1.07232 0
M  V30 2342 H 224.179 -3.56582 -3.54765 0
M  V30 2343 H 223.879 -5.15993 -2.81114 0
M  V30 2344 H 225.403 -4.86146 -3.69451 0
M  V30 2345 H 226.817 -5.52706 -1.52279 0
M  V30 2346 H 225.214 -5.94073 -0.848357 0
M  V30 2347 H 226.284 -4.84875 0.0492434 0
M  V30 2348 N 227.627 0.131896 -1.57047 0
M  V30 2349 C 228.557 1.16384 -2.02428 0
M  V30 2350 C 229.538 1.43936 -0.90644 0
M  V30 2351 O 230.723 1.54599 -1.17528 0
M  V30 2352 C 227.853 2.49328 -2.4177 0
M  V30 2353 C 226.807 2.36266 -3.56879 0
M  V30 2354 C 226.133 3.74057 -3.8208 0
M  V30 2355 C 227.433 1.834 -4.89042 0
M  V30 2356 H 229.127 0.786433 -2.88887 0
M  V30 2357 H 226.673 0.376855 -1.38981 0
M  V30 2358 H 228.626 3.21759 -2.7212 0
M  V30 2359 H 227.35 2.88934 -1.52266 0
M  V30 2360 H 226.009 1.66286 -3.26718 0
M  V30 2361 H 225.657 4.11125 -2.89803 0
M  V30 2362 H 225.357 3.66174 -4.59554 0
M  V30 2363 H 226.881 4.48012 -4.1487 0
M  V30 2364 H 228.295 2.45636 -5.18011 0
M  V30 2365 H 226.692 1.8637 -5.70426 0
M  V30 2366 H 227.762 0.790662 -4.7841 0
M  V30 2367 N 229.106 1.52395 0.401703 0
M  V30 2368 C 230.517 1.58899 0.980202 0
M  V30 2369 C 230.868 0.434032 1.91339 0
M  V30 2370 O 229.993 -0.444619 2.11783 0
M  V30 2371 C 230.588 2.87994 1.78451 0
M  V30 2372 C 229.147 2.96953 2.31292 0
M  V30 2373 C 228.294 2.53903 1.11483 0
M  V30 2374 H 231.245 1.57657 0.18168 0
M  V30 2375 H 231.266 2.73765 2.64259 0
M  V30 2376 H 230.778 3.72035 1.10506 0
M  V30 2377 H 228.879 2.17422 3.02586 0
M  V30 2378 H 228.992 4.01344 2.61649 0
M  V30 2379 H 227.356 2.07925 1.47104 0
M  V30 2380 H 228.139 3.40326 0.450928 0
M  V30 2381 N 230.584 -0.659388 1.43143 0
M  V30 2382 C 231.516 -1.7849 1.43784 0
M  V30 2383 C 232.529 -1.5932 0.334787 0
M  V30 2384 O 233.718 -1.68155 0.598842 0
M  V30 2385 C 230.818 -3.15828 1.22906 0
M  V30 2386 C 229.991 -3.61711 2.45934 0
M  V30 2387 C 229.05 -4.77831 2.20371 0
M  V30 2388 O 228.076 -4.87586 2.93681 0
M  V30 2389 N 229.278 -5.67611 1.21647 0
M  V30 2390 H 232.043 -1.7842 2.40803 0
M  V30 2391 H 229.604 -0.84302 1.3822 0
M  V30 2392 H 231.596 -3.91189 1.03697 0
M  V30 2393 H 230.166 -3.10707 0.343542 0
M  V30 2394 H 229.386 -2.76861 2.80609 0
M  V30 2395 H 230.674 -3.89112 3.27825 0
M  V30 2396 H 230.072 -5.62397 0.610449 0
M  V30 2397 H 228.629 -6.42719 1.08423 0
M  V30 2398 N 232.062 -1.29571 -0.897171 0
M  V30 2399 C 233.29 -1.20583 -1.68129 0
M  V30 2400 C 233.705 0.233181 -1.87354 0
M  V30 2401 O 233.062 1.15579 -1.41236 0
M  V30 2402 C 233.113 -1.91772 -3.06441 0
M  V30 2403 O 232.834 -3.30053 -2.88091 0
M  V30 2404 C 234.335 -1.89291 -4.00854 0
M  V30 2405 H 231.555 -0.417826 -0.525036 0
M  V30 2406 H 234.099 -1.70987 -1.12177 0
M  V30 2407 H 232.254 -1.45196 -3.59161 0
M  V30 2408 H 232.668 -3.65942 -3.75748 0
M  V30 2409 H 234.142 -2.43662 -4.95311 0
M  V30 2410 H 234.619 -0.869014 -4.30517 0
M  V30 2411 H 235.225 -2.35622 -3.54066 0
M  V30 2412 N 233.54 1.10788 -1.12088 0
M  V30 2413 C 234.787 1.82671 -0.873931 0
M  V30 2414 C 235.115 1.85004 0.600311 0
M  V30 2415 O 234.37 1.30365 1.45957 0
M  V30 2416 C 234.669 3.29294 -1.38926 0
M  V30 2417 C 234.335 3.47113 -2.87791 0
M  V30 2418 C 232.997 3.51684 -3.28439 0
M  V30 2419 C 235.349 3.52808 -3.83635 0
M  V30 2420 C 232.677 3.59513 -4.63646 0
M  V30 2421 C 235.029 3.62169 -5.18668 0
M  V30 2422 C 233.693 3.65003 -5.58864 0
M  V30 2423 H 232.963 0.668441 -0.319794 0
M  V30 2424 H 235.61 1.30613 -1.40045 0
M  V30 2425 H 233.915 3.83894 -0.783122 0
M  V30 2426 H 235.612 3.83416 -1.17443 0
M  V30 2427 H 232.202 3.4423 -2.5535 0
M  V30 2428 H 236.386 3.4853 -3.53328 0
M  V30 2429 H 231.642 3.59987 -4.94185 0
M  V30 2430 H 235.816 3.6552 -5.92763 0
M  V30 2431 H 233.443 3.70822 -6.63623 0
M  V30 2432 N 235.018 0.912232 1.28515 0
M  V30 2433 C 236.434 0.610159 1.47476 0
M  V30 2434 C 236.634 -0.844955 1.82928 0
M  V30 2435 O 235.69 -1.62416 1.93332 0
M  V30 2436 C 237.003 1.54675 2.57868 0
M  V30 2437 C 238.551 1.55331 2.71738 0
M  V30 2438 C 239.026 2.47649 3.85272 0
M  V30 2439 N 240.517 2.45767 3.92623 0
M  V30 2440 C 241.252 3.13896 4.79851 0
M  V30 2441 N 240.748 3.9135 5.71679 0
M  V30 2442 N 242.541 3.02991 4.73448 0
M  V30 2443 H 234.692 1.85318 1.03783 0
M  V30 2444 H 236.955 0.794777 0.516753 0
M  V30 2445 H 236.661 2.5841 2.38574 0
M  V30 2446 H 236.535 1.27671 3.54937 0
M  V30 2447 H 238.922 0.52335 2.90422 0
M  V30 2448 H 239.003 1.86378 1.75205 0
M  V30 2449 H 238.647 3.50745 3.67342 0
M  V30 2450 H 238.577 2.13904 4.81199 0
M  V30 2451 H 241.068 1.89503 3.26951 0
M  V30 2452 H 241.381 4.40359 6.35062 0
M  V30 2453 H 239.726 3.95455 5.71524 0
M  V30 2454 H 242.917 2.41987 4.007 0
M  V30 2455 H 243.09 3.5636 5.41213 0
M  V30 2456 N 236.496 -1.42363 0.676048 0
M  V30 2457 C 237.744 -2.01123 0.198437 0
M  V30 2458 C 238.065 -1.53731 -1.19966 0
M  V30 2459 O 237.335 -0.759518 -1.80577 0
M  V30 2460 H 235.915 -0.743678 0.0703721 0
M  V30 2461 H 238.577 -1.74263 0.872837 0
M  V30 2462 H 237.673 -3.11454 0.200686 0
M  V30 2463 N 237.974 -0.419461 -1.51915 0
M  V30 2464 C 239.221 0.152939 -2.01922 0
M  V30 2465 C 239.549 1.4426 -1.30458 0
M  V30 2466 O 238.804 1.91514 -0.402593 0
M  V30 2467 C 239.103 0.437067 -3.54717 0
M  V30 2468 C 238.769 -0.764632 -4.44369 0
M  V30 2469 C 237.431 -1.09423 -4.68594 0
M  V30 2470 C 239.783 -1.56713 -4.97082 0
M  V30 2471 C 237.111 -2.22732 -5.42777 0
M  V30 2472 C 239.463 -2.69107 -5.72507 0
M  V30 2473 C 238.127 -3.02541 -5.95 0
M  V30 2474 H 237.397 0.0559644 -0.738884 0
M  V30 2475 H 240.044 -0.562998 -1.83037 0
M  V30 2476 H 238.349 1.23469 -3.71837 0
M  V30 2477 H 240.046 0.893083 -3.90928 0
M  V30 2478 H 236.636 -0.497775 -4.257 0
M  V30 2479 H 240.82 -1.32571 -4.78266 0
M  V30 2480 H 236.076 -2.48971 -5.58411 0
M  V30 2481 H 240.25 -3.31671 -6.12346 0
M  V30 2482 H 237.877 -3.90457 -6.52264 0
M  V30 2483 N 239.452 1.56882 -0.150215 0
M  V30 2484 C 240.415 2.1573 0.774157 0
M  V30 2485 C 241.415 1.0999 1.17298 0
M  V30 2486 O 242.605 1.35613 1.09338 0
M  V30 2487 C 239.737 2.72302 2.05096 0
M  V30 2488 H 240.93 2.98752 0.262201 0
M  V30 2489 H 238.483 1.55985 0.099248 0
M  V30 2490 H 239.218 1.92956 2.6065 0
M  V30 2491 H 239.003 3.49665 1.77416 0
M  V30 2492 H 240.493 3.17632 2.71109 0
M  V30 2493 N 240.93 -0.123565 1.57115 0
M  V30 2494 C 242.176 -0.833386 1.84885 0
M  V30 2495 C 242.509 -1.79742 0.735292 0
M  V30 2496 O 241.784 -1.92764 -0.25925 0
M  V30 2497 C 242.067 -1.5873 3.23228 0
M  V30 2498 C 241.92 -0.643183 4.45178 0
M  V30 2499 C 243.239 -2.54453 3.59085 0
M  V30 2500 H 240.358 -0.301518 0.6725 0
M  V30 2501 H 243 -0.097778 1.89748 0
M  V30 2502 H 241.15 -2.21438 3.19214 0
M  V30 2503 H 242.822 -0.0253015 4.61293 0
M  V30 2504 H 241.065 0.0456139 4.33776 0
M  V30 2505 H 241.736 -1.20724 5.38637 0
M  V30 2506 H 244.212 -2.01853 3.63861 0
M  V30 2507 H 243.088 -3.04238 4.5687 0
M  V30 2508 H 243.349 -3.36906 2.86264 0
M  V30 2509 N 242.408 -1.52605 -0.393616 0
M  V30 2510 C 243.654 -1.67672 -1.14079 0
M  V30 2511 C 243.987 -0.413121 -1.89755 0
M  V30 2512 O 243.262 0.588952 -1.85369 0
M  V30 2513 C 243.545 -2.9088 -2.12276 0
M  V30 2514 C 243.398 -4.27329 -1.40394 0
M  V30 2515 C 244.717 -3.09628 -3.12759 0
M  V30 2516 H 241.836 -0.610168 -0.413356 0
M  V30 2517 H 244.478 -1.85193 -0.424696 0
M  V30 2518 H 242.628 -2.76073 -2.73342 0
M  V30 2519 H 244.3 -4.53894 -0.82327 0
M  V30 2520 H 242.543 -4.2802 -0.705801 0
M  V30 2521 H 243.214 -5.09615 -2.12123 0
M  V30 2522 H 245.69 -3.23436 -2.61779 0
M  V30 2523 H 244.566 -3.97322 -3.78717 0
M  V30 2524 H 244.827 -2.23637 -3.81365 0
M  V30 2525 N 243.887 0.651787 -1.4349 0
M  V30 2526 C 245.112 1.44434 -1.48841 0
M  V30 2527 C 245.537 1.8779 -0.107955 0
M  V30 2528 O 244.895 1.57464 0.898602 0
M  V30 2529 C 244.943 2.65458 -2.44059 0
M  V30 2530 O 244.047 3.64566 -1.92784 0
M  V30 2531 H 243.388 0.433005 -0.503391 0
M  V30 2532 H 245.918 0.797451 -1.88419 0
M  V30 2533 H 245.928 3.13255 -2.6141 0
M  V30 2534 H 244.603 2.33244 -3.4434 0
M  V30 2535 H 243.18 3.23716 -1.851 0
M  V30 2536 N 245.365 1.30045 0.890287 0
M  V30 2537 C 246.781 1.08261 1.17268 0
M  V30 2538 C 246.981 -0.160063 2.00863 0
M  V30 2539 O 246.037 -0.855181 2.37577 0
M  V30 2540 C 247.35 2.34323 1.8845 0
M  V30 2541 C 248.898 2.39735 2.01237 0
M  V30 2542 C 249.373 3.65625 2.7583 0
M  V30 2543 N 250.864 3.66402 2.83379 0
M  V30 2544 C 251.599 4.60498 3.41657 0
M  V30 2545 N 251.095 5.64933 4.01026 0
M  V30 2546 N 252.888 4.48051 3.39421 0
M  V30 2547 H 245.039 2.09777 0.332762 0
M  V30 2548 H 247.302 0.92446 0.209948 0
M  V30 2549 H 247.008 3.2498 1.34465 0
M  V30 2550 H 246.882 2.4256 2.88867 0
M  V30 2551 H 249.269 1.4956 2.54393 0
M  V30 2552 H 249.35 2.35476 0.999232 0
M  V30 2553 H 248.994 4.56156 2.23347 0
M  V30 2554 H 248.924 3.67144 3.77509 0
M  V30 2555 H 251.415 2.90896 2.41222 0
M  V30 2556 H 251.728 6.32841 4.43545 0
M  V30 2557 H 250.073 5.68732 3.99461 0
M  V30 2558 H 253.264 3.65649 2.92264 0
M  V30 2559 H 253.437 5.21565 3.84544 0
M  V30 2560 N 246.843 -1.10192 1.12674 0
M  V30 2561 C 247.753 -2.20172 0.810026 0
M  V30 2562 C 248.769 -1.72821 -0.202188 0
M  V30 2563 O 249.945 -2.01369 -0.0351691 0
M  V30 2564 C 247.01 -3.45631 0.272007 0
M  V30 2565 C 246.071 -4.07704 1.34447 0
M  V30 2566 C 245.304 -5.27175 0.832029 0
M  V30 2567 O 245.527 -5.69425 -0.333284 0
M  V30 2568 O 244.461 -5.80168 1.60277 0
M  V30 2569 H 248.287 -2.49701 1.72867 0
M  V30 2570 H 245.872 -1.18977 0.903597 0
M  V30 2571 H 247.754 -4.21394 -0.0230219 0
M  V30 2572 H 246.429 -3.17723 -0.619164 0
M  V30 2573 H 245.336 -3.33614 1.6927 0
M  V30 2574 H 246.669 -4.3982 2.2095 0
M  V30 2575 N 248.321 -0.919034 -1.28029 0
M  V30 2576 C 249.251 -0.428581 -2.29533 0
M  V30 2577 C 250.232 0.50659 -1.62381 0
M  V30 2578 O 251.417 0.413195 -1.89753 0
M  V30 2579 C 248.547 0.327388 -3.45753 0
M  V30 2580 C 247.501 -0.519137 -4.2484 0
M  V30 2581 C 246.827 0.365486 -5.33449 0
M  V30 2582 C 248.127 -1.77914 -4.91064 0
M  V30 2583 H 249.821 -1.27687 -2.70807 0
M  V30 2584 H 247.367 -0.615428 -1.30186 0
M  V30 2585 H 249.32 0.681378 -4.15855 0
M  V30 2586 H 248.044 1.20963 -3.03374 0
M  V30 2587 H 246.703 -0.855717 -3.56473 0
M  V30 2588 H 246.351 1.24642 -4.87312 0
M  V30 2589 H 246.051 -0.197356 -5.87268 0
M  V30 2590 H 247.575 0.715241 -6.06396 0
M  V30 2591 H 248.989 -1.49374 -5.53498 0
M  V30 2592 H 247.386 -2.2848 -5.54903 0
M  V30 2593 H 248.456 -2.50382 -4.15255 0
M  V30 2594 N 249.799 1.42003 -0.683588 0
M  V30 2595 C 251.21 1.84501 -0.285736 0
M  V30 2596 C 251.561 1.57213 1.17382 0
M  V30 2597 O 250.686 1.03642 1.89966 0
M  V30 2598 C 251.281 3.34912 -0.511821 0
M  V30 2599 C 249.84 3.76025 -0.168005 0
M  V30 2600 C 248.987 2.6551 -0.799983 0
M  V30 2601 H 251.938 1.31724 -0.885119 0
M  V30 2602 H 251.959 3.79784 0.233292 0
M  V30 2603 H 251.471 3.54741 -1.57418 0
M  V30 2604 H 249.572 3.61801 0.890567 0
M  V30 2605 H 249.685 4.75141 -0.614661 0
M  V30 2606 H 248.049 2.53654 -0.230568 0
M  V30 2607 H 248.832 2.8816 -1.86597 0
M  V30 2608 N 251.277 0.427512 1.51691 0
M  V30 2609 C 252.525 -0.141948 2.01601 0
M  V30 2610 C 252.846 -1.44067 1.31414 0
M  V30 2611 O 252.116 -1.90763 0.445658 0
M  V30 2612 H 250.696 -0.0554468 0.744939 0
M  V30 2613 H 253.358 0.567968 1.86441 0
M  V30 2614 H 252.454 -0.324913 3.10404 0
M  V30 2615 N 252.755 -1.56801 0.158532 0
M  V30 2616 C 253.685 -2.20347 -0.772609 0
M  V30 2617 C 254.666 -1.15518 -1.24859 0
M  V30 2618 O 255.851 -1.43902 -1.30406 0
M  V30 2619 C 252.981 -2.83417 -2.00729 0
M  V30 2620 C 251.935 -3.94174 -1.66765 0
M  V30 2621 C 251.261 -4.44233 -2.97592 0
M  V30 2622 C 252.561 -5.14392 -0.905447 0
M  V30 2623 H 254.255 -2.98413 -0.242959 0
M  V30 2624 H 251.801 -1.43537 -0.115419 0
M  V30 2625 H 253.754 -3.26543 -2.6636 0
M  V30 2626 H 252.478 -2.02701 -2.56086 0
M  V30 2627 H 251.137 -3.51684 -1.03508 0
M  V30 2628 H 250.785 -3.60325 -3.50963 0
M  V30 2629 H 250.485 -5.18945 -2.75626 0
M  V30 2630 H 252.009 -4.90037 -3.64274 0
M  V30 2631 H 253.423 -5.5429 -1.46408 0
M  V30 2632 H 251.82 -5.9494 -0.7853 0
M  V30 2633 H 252.89 -4.84795 0.100668 0
M  V30 2634 N 254.233 0.115231 -1.57178 0
M  V30 2635 C 255.196 1.12526 -1.99676 0
M  V30 2636 C 256.196 1.34095 -0.88742 0
M  V30 2637 O 257.386 1.30548 -1.15337 0
M  V30 2638 C 254.518 2.4789 -2.34015 0
M  V30 2639 H 255.711 0.759912 -2.90113 0
M  V30 2640 H 253.264 0.359648 -1.52106 0
M  V30 2641 H 253.999 2.89339 -1.4647 0
M  V30 2642 H 253.784 2.33588 -3.14927 0
M  V30 2643 H 255.274 3.20575 -2.67622 0
M  V30 2644 N 255.711 1.52812 0.385517 0
M  V30 2645 C 256.641 1.80808 1.47752 0
M  V30 2646 C 257.622 0.660318 1.5676 0
M  V30 2647 O 258.807 0.908246 1.71652 0
M  V30 2648 C 255.937 1.98008 2.85324 0
M  V30 2649 C 254.891 3.13709 2.91154 0
M  V30 2650 C 254.217 3.16169 4.31209 0
M  V30 2651 C 255.517 4.52709 2.60483 0
M  V30 2652 H 257.211 2.72253 1.24573 0
M  V30 2653 H 254.757 1.31003 0.597839 0
M  V30 2654 H 256.71 2.16176 3.61726 0
M  V30 2655 H 255.434 1.03255 3.09848 0
M  V30 2656 H 254.093 2.95329 2.17201 0
M  V30 2657 H 253.741 2.19092 4.52778 0
M  V30 2658 H 253.441 3.93894 4.36029 0
M  V30 2659 H 254.965 3.36496 5.09512 0
M  V30 2660 H 256.379 4.71173 3.26602 0
M  V30 2661 H 254.776 5.32528 2.76648 0
M  V30 2662 H 255.846 4.59186 1.55809 0
M  V30 2663 N 257.189 -0.644168 1.43834 0
M  V30 2664 C 258.121 -1.76955 1.45669 0
M  V30 2665 C 259.134 -1.58956 0.351666 0
M  V30 2666 O 260.323 -1.6751 0.616644 0
M  V30 2667 C 257.423 -3.14507 1.26248 0
M  V30 2668 C 256.596 -3.59083 2.49757 0
M  V30 2669 C 255.655 -4.75467 2.25427 0
M  V30 2670 O 254.681 -4.84444 2.98836 0
M  V30 2671 N 255.883 -5.66289 1.27661 0
M  V30 2672 H 258.648 -1.75856 2.42682 0
M  V30 2673 H 256.209 -0.828312 1.39106 0
M  V30 2674 H 258.201 -3.90067 1.0784 0
M  V30 2675 H 256.771 -3.10325 0.376478 0
M  V30 2676 H 255.991 -2.7387 2.8353 0
M  V30 2677 H 257.279 -3.85613 3.31934 0
M  V30 2678 H 256.677 -5.61718 0.670064 0
M  V30 2679 H 255.234 -6.41533 1.15234 0
M  V30 2680 N 258.668 -1.30515 -0.883378 0
M  V30 2681 C 259.631 -1.1701 -1.97082 0
M  V30 2682 C 260.631 -0.10089 -1.60483 0
M  V30 2683 O 261.821 -0.349127 -1.70666 0
M  V30 2684 C 258.953 -0.793045 -3.31547 0
M  V30 2685 H 260.146 -2.13622 -2.10489 0
M  V30 2686 H 257.699 -1.13935 -1.06998 0
M  V30 2687 H 258.434 0.172499 -3.23841 0
M  V30 2688 H 258.219 -1.56576 -3.5948 0
M  V30 2689 H 259.709 -0.722073 -4.1131 0
M  V30 2690 N 260.146 1.09593 -1.13257 0
M  V30 2691 C 261.394 1.81375 -0.891492 0
M  V30 2692 C 261.715 1.86049 0.584009 0
M  V30 2693 O 260.985 1.34481 1.42449 0
M  V30 2694 H 259.565 0.671708 -0.326828 0
M  V30 2695 H 262.227 1.3256 -1.42877 0
M  V30 2696 H 261.323 2.84612 -1.28071 0
M  V30 2697 N 261.624 0.925811 1.2754 0
M  V30 2698 C 263.04 0.625767 1.46821 0
M  V30 2699 C 263.24 -0.825506 1.83814 0
M  V30 2700 O 262.296 -1.60356 1.95044 0
M  V30 2701 C 263.609 1.57402 2.56213 0
M  V30 2702 C 265.157 1.58204 2.70075 0
M  V30 2703 C 265.632 2.51721 3.82623 0
M  V30 2704 N 267.123 2.49917 3.89994 0
M  V30 2705 C 267.858 3.18968 4.76494 0
M  V30 2706 N 267.354 3.97391 5.67496 0
M  V30 2707 N 269.147 3.07996 4.70208 0
M  V30 2708 H 261.298 1.86409 1.01811 0
M  V30 2709 H 263.561 0.800213 0.508295 0
M  V30 2710 H 263.267 2.60925 2.35819 0
M  V30 2711 H 263.141 1.31428 3.53563 0
M  V30 2712 H 265.528 0.554124 2.89851 0
M  V30 2713 H 265.609 1.88226 1.73218 0
M  V30 2714 H 265.253 3.54622 3.63601 0
M  V30 2715 H 265.183 2.18996 4.78903 0
M  V30 2716 H 267.674 1.9296 3.24923 0
M  V30 2717 H 267.987 4.4707 6.30356 0
M  V30 2718 H 266.332 4.01495 5.67298 0
M  V30 2719 H 269.523 2.46223 3.9811 0
M  V30 2720 H 269.696 3.6208 5.37403 0
M  V30 2721 N 263.102 -1.41638 0.69111 0
M  V30 2722 C 264.349 -2.01299 0.220193 0
M  V30 2723 C 264.677 -1.54715 -1.17871 0
M  V30 2724 O 263.932 -0.747193 -1.80874 0
M  V30 2725 C 264.231 -3.56714 0.221277 0
M  V30 2726 C 263.897 -4.22792 1.56709 0
M  V30 2727 C 262.559 -4.40557 1.93554 0
M  V30 2728 C 264.911 -4.59883 2.45268 0
M  V30 2729 C 262.239 -4.92688 3.18552 0
M  V30 2730 C 264.591 -5.13403 3.69595 0
M  V30 2731 C 263.255 -5.29379 4.06589 0
M  V30 2732 H 262.525 -0.736606 0.0805743 0
M  V30 2733 H 265.172 -1.69598 0.889319 0
M  V30 2734 H 263.477 -3.8818 -0.531391 0
M  V30 2735 H 265.174 -4.00678 -0.160547 0
M  V30 2736 H 261.764 -4.09336 1.2705 0
M  V30 2737 H 265.948 -4.45817 2.18084 0
M  V30 2738 H 261.204 -5.03242 3.47214 0
M  V30 2739 H 265.378 -5.41084 4.38407 0
M  V30 2740 H 263.005 -5.69537 5.03519 0
M  V30 2741 N 264.58 -0.43555 -1.51462 0
M  V30 2742 C 265.857 0.191364 -1.94662 0
M  V30 2743 C 266.237 1.60254 -1.37411 0
M  V30 2744 O 265.585 2.2152 -0.560458 0
M  V30 2745 C 265.795 0.17091 -3.48581 0
M  V30 2746 C 267.143 0.377357 -4.2292 0
M  V30 2747 O 268.167 0.249104 -3.55328 0
M  V30 2748 O 267.026 0.63247 -5.42828 0
M  V30 2749 H 264.12 0.130932 -0.816569 0
M  V30 2750 H 266.666 -0.4934 -1.62369 0
M  V30 2751 H 265.438 -0.815738 -3.82703 0
M  V30 2752 H 265.061 0.898659 -3.87311 0
M  V30 2753 N 266.058 1.56714 -0.166846 0
M  V30 2754 C 267.021 2.16539 0.751232 0
M  V30 2755 C 268.021 1.11228 1.16125 0
M  V30 2756 O 269.211 1.36765 1.07894 0
M  V30 2757 C 266.343 2.74462 2.02196 0
M  V30 2758 H 267.536 2.99013 0.230499 0
M  V30 2759 H 265.089 1.56081 0.0826982 0
M  V30 2760 H 265.824 1.95709 2.58589 0
M  V30 2761 H 265.609 3.51527 1.73698 0
M  V30 2762 H 267.099 3.20489 2.67725 0
M  V30 2763 N 267.536 -0.106894 1.57237 0
M  V30 2764 C 268.782 -0.81373 1.85759 0
M  V30 2765 C 269.115 -1.78952 0.754315 0
M  V30 2766 O 268.39 -1.93029 -0.23879 0
M  V30 2767 C 268.673 -1.55293 3.24894 0
M  V30 2768 C 268.526 -0.595929 4.45835 0
M  V30 2769 C 269.845 -2.5063 3.61763 0
M  V30 2770 H 266.964 -0.294369 0.67566 0
M  V30 2771 H 269.606 -0.0776472 1.89841 0
M  V30 2772 H 267.756 -2.1804 3.21544 0
M  V30 2773 H 269.428 0.0236262 4.61294 0
M  V30 2774 H 267.671 0.0916191 4.33703 0
M  V30 2775 H 268.342 -1.15004 5.39887 0
M  V30 2776 H 270.818 -1.97982 3.65981 0
M  V30 2777 H 269.694 -2.99376 4.60071 0
M  V30 2778 H 269.955 -3.3385 2.89821 0
M  V30 2779 N 269.014 -1.53014 -0.377408 0
M  V30 2780 C 270.239 -1.72818 -1.14668 0
M  V30 2781 C 270.664 -0.450725 -1.8262 0
M  V30 2782 O 270.022 0.59439 -1.7128 0
M  V30 2783 C 270.07 -2.88627 -2.16164 0
M  V30 2784 O 269.174 -2.56409 -3.22998 0
M  V30 2785 H 268.515 -0.574301 -0.333278 0
M  V30 2786 H 271.045 -1.99853 -0.438152 0
M  V30 2787 H 271.055 -3.14455 -2.59966 0
M  V30 2788 H 269.73 -3.81294 -1.66095 0
M  V30 2789 H 268.307 -2.4136 -2.84253 0
M  V30 2790 N 270.492 0.636531 -1.44174 0
M  V30 2791 C 271.422 1.76003 -1.53444 0
M  V30 2792 C 272.403 1.65619 -0.387841 0
M  V30 2793 O 273.588 1.84461 -0.607257 0
M  V30 2794 C 270.718 3.14511 -1.4731 0
M  V30 2795 C 269.672 3.39677 -2.60391 0
M  V30 2796 C 268.998 4.78159 -2.39308 0
M  V30 2797 C 270.298 3.32772 -4.02567 0
M  V30 2798 H 271.992 1.68501 -2.47483 0
M  V30 2799 H 269.538 0.809237 -1.19111 0
M  V30 2800 H 271.491 3.92878 -1.52397 0
M  V30 2801 H 270.215 3.22783 -0.49785 0
M  V30 2802 H 268.874 2.63688 -2.54684 0
M  V30 2803 H 268.522 4.83128 -1.39988 0
M  V30 2804 H 268.222 4.95956 -3.15122 0
M  V30 2805 H 269.746 5.58762 -2.46205 0
M  V30 2806 H 271.16 4.01051 -4.09672 0
M  V30 2807 H 269.557 3.62104 -4.7854 0
M  V30 2808 H 270.627 2.30669 -4.2652 0
M  V30 2809 N 271.97 1.30982 0.876444 0
M  V30 2810 C 273.386 1.09498 1.16113 0
M  V30 2811 C 273.586 -0.13875 2.01022 0
M  V30 2812 O 272.642 -0.829935 2.38471 0
M  V30 2813 C 273.955 2.36308 1.85954 0
M  V30 2814 C 275.503 2.41856 1.98683 0
M  V30 2815 C 275.978 3.6853 2.71937 0
M  V30 2816 N 277.469 3.69387 2.79477 0
M  V30 2817 C 278.204 4.64096 3.36753 0
M  V30 2818 N 277.7 5.69155 3.95012 0
M  V30 2819 N 279.493 4.51626 3.3465 0
M  V30 2820 H 271.644 2.10118 0.310494 0
M  V30 2821 H 273.907 0.926634 0.200131 0
M  V30 2822 H 273.613 3.26388 1.31011 0
M  V30 2823 H 273.487 2.4561 2.86278 0
M  V30 2824 H 275.874 1.52249 2.52793 0
M  V30 2825 H 275.955 2.36523 0.9742 0
M  V30 2826 H 275.599 4.58499 2.18496 0
M  V30 2827 H 275.529 3.71127 3.73593 0
M  V30 2828 H 278.02 2.93438 2.38123 0
M  V30 2829 H 278.333 6.3751 4.36808 0
M  V30 2830 H 276.678 5.72937 3.93406 0
M  V30 2831 H 279.869 3.68728 2.8837 0
M  V30 2832 H 280.042 5.25614 3.7899 0
M  V30 2833 N 273.449 -1.08991 1.13837 0
M  V30 2834 C 274.397 -2.17841 0.815347 0
M  V30 2835 C 275.391 -1.68164 -0.204233 0
M  V30 2836 O 276.597 -1.79897 -0.0609304 0
M  V30 2837 H 272.972 -0.710654 0.245915 0
M  V30 2838 H 274.943 -2.42315 1.74143 0
M  V30 2839 C 273.692 -3.46381 0.302614 0
M  V30 2840 H 273.015 -3.84979 1.0785 0
M  V30 2841 H 274.455 -4.23844 0.115074 0
M  V30 2842 C 272.914 -3.22556 -0.972591 0
M  V30 2843 O 273.444 -3.45599 -2.04754 0
M  V30 2844 N 271.65 -2.76134 -0.905455 0
M  V30 2845 H 271.197 -2.57582 -0.0305421 0
M  V30 2846 H 271.155 -2.60571 -1.75926 0
M  V30 2847 N 274.927 -0.932562 -1.27047 0
M  V30 2848 C 276.152 -0.591474 -1.98787 0
M  V30 2849 C 276.577 0.824601 -1.69062 0
M  V30 2850 O 275.935 1.5541 -0.933677 0
M  V30 2851 C 275.983 -0.829808 -3.50922 0
M  V30 2852 O 275.087 0.102266 -4.12273 0
M  V30 2853 H 274.428 -0.227185 -0.623926 0
M  V30 2854 H 276.958 -1.25314 -1.61733 0
M  V30 2855 H 276.968 -0.747292 -4.01098 0
M  V30 2856 H 275.643 -1.86201 -3.7189 0
M  V30 2857 H 274.22 -0.0305761 -3.72887 0
M  V30 2858 N 276.405 1.4127 -0.698611 0
M  V30 2859 C 277.368 2.29158 -0.044132 0
M  V30 2860 C 278.368 1.44529 0.704841 0
M  V30 2861 O 279.558 1.65643 0.539276 0
M  V30 2862 C 276.69 3.27459 0.947809 0
M  V30 2863 H 277.883 2.88529 -0.817994 0
M  V30 2864 H 275.436 1.49307 -0.46228 0
M  V30 2865 H 276.171 2.73073 1.74933 0
M  V30 2866 H 275.956 3.8991 0.41385 0
M  V30 2867 H 277.446 3.93311 1.40344 0
M  V30 2868 N 277.883 0.443576 1.51229 0
M  V30 2869 C 279.16 -0.181038 1.9476 0
M  V30 2870 C 279.54 -1.59523 1.38259 0
M  V30 2871 O 278.888 -2.2122 0.572198 0
M  V30 2872 C 279.098 -0.152422 3.48667 0
M  V30 2873 C 280.446 -0.354923 4.23114 0
M  V30 2874 O 281.47 -0.230257 3.55455 0
M  V30 2875 O 280.329 -0.603674 5.43156 0
M  V30 2876 H 277.423 -0.1266 0.817252 0
M  V30 2877 H 279.969 0.502004 1.62105 0
M  V30 2878 H 278.741 0.836022 3.82265 0
M  V30 2879 H 278.364 -0.878107 3.87782 0
M  V30 2880 N 279.361 -1.56624 0.175154 0
M  V30 2881 C 280.294 -2.14 -0.792412 0
M  V30 2882 C 281.272 -1.07114 -1.22333 0
M  V30 2883 O 282.456 -1.35112 -1.31442 0
M  V30 2884 C 279.583 -2.68268 -2.0676 0
M  V30 2885 C 278.629 -3.87562 -1.7804 0
M  V30 2886 S 279.462 -5.27074 -0.946222 0
M  V30 2887 C 280.618 -5.8475 -2.23199 0
M  V30 2888 H 280.851 -2.95736 -0.304588 0
M  V30 2889 H 278.384 -1.54349 -0.0395705 0
M  V30 2890 H 280.342 -3.00182 -2.80002 0
M  V30 2891 H 279.003 -1.86612 -2.52656 0
M  V30 2892 H 278.196 -4.23874 -2.72666 0
M  V30 2893 H 277.798 -3.56555 -1.12891 0
M  V30 2894 H 280.09 -5.97898 -3.18629 0
M  V30 2895 H 281.033 -6.81756 -1.91349 0
M  V30 2896 H 281.441 -5.13198 -2.35134 0
M  V30 2897 N 280.839 0.0985539 -1.57292 0
M  V30 2898 C 281.771 1.14595 -1.98496 0
M  V30 2899 C 282.784 1.36512 -0.887031 0
M  V30 2900 O 283.973 1.35225 -1.16518 0
M  V30 2901 C 281.073 2.50216 -2.28572 0
M  V30 2902 C 280.246 2.48624 -3.59868 0
M  V30 2903 C 279.305 3.66146 -3.7792 0
M  V30 2904 O 278.331 3.48795 -4.49812 0
M  V30 2905 N 279.533 4.85496 -3.18235 0
M  V30 2906 H 282.298 0.795277 -2.88956 0
M  V30 2907 H 279.859 0.287579 -1.59325 0
M  V30 2908 H 281.851 3.27432 -2.37845 0
M  V30 2909 H 280.421 2.77387 -1.44136 0
M  V30 2910 H 279.641 1.56978 -3.61596 0
M  V30 2911 H 280.929 2.44635 -4.46129 0
M  V30 2912 H 280.327 5.02497 -2.59833 0
M  V30 2913 H 278.884 5.60317 -3.32999 0
M  V30 2914 N 282.317 1.53212 0.369288 0
M  V30 2915 C 283.594 1.59815 1.12776 0
M  V30 2916 C 283.974 0.403402 2.0721 0
M  V30 2917 O 283.322 -0.606667 2.20299 0
M  V30 2918 C 283.532 2.94664 1.87013 0
M  V30 2919 C 284.88 3.49109 2.41677 0
M  V30 2920 O 285.904 2.96669 1.97144 0
M  V30 2921 O 284.763 4.40775 3.23079 0
M  V30 2922 H 281.857 0.645376 0.517125 0
M  V30 2923 H 284.403 1.65553 0.37285 0
M  V30 2924 H 283.175 3.73061 1.18071 0
M  V30 2925 H 282.798 2.92401 2.69421 0
M  V30 2926 N 283.795 -0.628877 1.44509 0
M  V30 2927 C 284.725 -1.75187 1.54376 0
M  V30 2928 C 285.706 -1.65411 0.396618 0
M  V30 2929 O 286.891 -1.84137 0.617031 0
M  V30 2930 C 284.021 -3.13725 1.48976 0
M  V30 2931 C 282.975 -3.38291 2.62189 0
M  V30 2932 C 282.301 -4.76883 2.41841 0
M  V30 2933 C 283.601 -3.30632 4.04326 0
M  V30 2934 H 285.295 -1.67187 2.48373 0
M  V30 2935 H 282.841 -0.802909 1.19538 0
M  V30 2936 H 284.794 -3.92064 1.54478 0
M  V30 2937 H 283.518 -3.22515 0.514961 0
M  V30 2938 H 282.177 -2.62334 2.56079 0
M  V30 2939 H 281.825 -4.82378 1.42548 0
M  V30 2940 H 281.525 -4.94278 3.17747 0
M  V30 2941 H 283.049 -5.57449 2.49165 0
M  V30 2942 H 284.463 -3.98873 4.11793 0
M  V30 2943 H 282.86 -3.59561 4.80454 0
M  V30 2944 H 283.93 -2.28404 4.27738 0
M  V30 2945 N 285.273 -1.31445 -0.869486 0
M  V30 2946 C 286.498 -1.24256 -1.66058 0
M  V30 2947 C 286.923 0.188928 -1.87149 0
M  V30 2948 O 286.281 1.13522 -1.4136 0
M  V30 2949 C 286.329 -1.9924 -3.00559 0
M  V30 2950 O 285.433 -1.33007 -3.90362 0
M  V30 2951 H 284.774 -0.428973 -0.506831 0
M  V30 2952 H 287.304 -1.73521 -1.08404 0
M  V30 2953 H 287.314 -2.08854 -3.50491 0
M  V30 2954 H 285.989 -3.03342 -2.84528 0
M  V30 2955 H 284.566 -1.31848 -3.48813 0
M  V30 2956 N 286.751 1.08385 -1.14413 0
M  V30 2957 C 287.714 2.13486 -0.834048 0
M  V30 2958 C 288.714 1.59988 0.161418 0
M  V30 2959 O 289.904 1.74071 -0.0669575 0
M  V30 2960 C 287.036 3.4003 -0.243354 0
M  V30 2961 H 288.229 2.42425 -1.7655 0
M  V30 2962 H 285.782 1.24101 -0.950189 0
M  V30 2963 H 286.517 3.16726 0.696807 0
M  V30 2964 H 286.302 3.80157 -0.960367 0
M  V30 2965 H 287.792 4.17577 -0.0436242 0
M  V30 2966 N 288.23 0.939286 1.26551 0
M  V30 2967 C 289.476 0.596234 1.94465 0
M  V30 2968 C 289.831 -0.855013 1.72358 0
M  V30 2969 O 289.124 -1.6034 1.04889 0
M  V30 2970 C 289.318 0.872106 3.46596 0
M  V30 2971 C 289.147 2.34862 3.83497 0
M  V30 2972 C 287.917 3.00344 4.06352 0
M  V30 2973 C 290.115 3.32697 3.92195 0
M  V30 2974 N 288.097 4.38027 4.30123 0
M  V30 2975 C 289.468 4.55631 4.20476 0
M  V30 2976 C 291.523 3.27747 3.74815 0
M  V30 2977 C 290.226 5.74233 4.33185 0
M  V30 2978 C 292.252 4.45672 3.88755 0
M  V30 2979 C 291.614 5.67388 4.17433 0
M  V30 2980 H 287.713 0.268515 0.734455 0
M  V30 2981 H 290.297 1.2083 1.5267 0
M  V30 2982 H 288.468 0.289102 3.87323 0
M  V30 2983 H 290.2 0.490513 4.01716 0
M  V30 2984 H 286.955 2.50969 4.01636 0
M  V30 2985 H 287.379 5.09288 4.46044 0
M  V30 2986 H 292.021 2.34703 3.51673 0
M  V30 2987 H 289.739 6.67731 4.55149 0
M  V30 2988 H 293.325 4.43372 3.76713 0
M  V30 2989 H 292.205 6.57115 4.27983 0
M  V30 2990 N 289.708 -1.40897 0.706093 0
M  V30 2991 C 290.933 -2.05895 0.249435 0
M  V30 2992 C 291.358 -1.52823 -1.09666 0
M  V30 2993 O 290.716 -0.659589 -1.68876 0
M  V30 2994 C 290.764 -3.59872 0.22904 0
M  V30 2995 O 289.868 -4.04708 -0.792784 0
M  V30 2996 H 289.209 -0.653206 0.119241 0
M  V30 2997 H 291.739 -1.80471 0.96391 0
M  V30 2998 H 291.749 -4.07951 0.0634791 0
M  V30 2999 H 290.424 -3.97866 1.21141 0
M  V30 3000 H 289.001 -3.68111 -0.59572 0
M  V30 3001 N 291.186 -0.45159 -1.50991 0
M  V30 3002 C 292.149 0.341117 -2.26647 0
M  V30 3003 C 293.149 0.937422 -1.30649 0
M  V30 3004 O 294.339 0.809644 -1.54241 0
M  V30 3005 C 291.471 1.48398 -3.06905 0
M  V30 3006 H 292.664 -0.322117 -2.98165 0
M  V30 3007 H 290.217 -0.205122 -1.54948 0
M  V30 3008 H 290.952 2.18284 -2.39838 0
M  V30 3009 H 290.737 1.06241 -3.77432 0
M  V30 3010 H 292.227 2.04367 -3.64176 0
M  V30 3011 N 292.664 1.56529 -0.183458 0
M  V30 3012 C 294.075 1.83739 0.331177 0
M  V30 3013 C 294.426 1.10373 1.62211 0
M  V30 3014 O 293.551 0.36071 2.13373 0
M  V30 3015 C 294.146 3.33306 0.607646 0
M  V30 3016 C 292.705 3.60969 1.06668 0
M  V30 3017 C 291.852 2.77086 0.109029 0
M  V30 3018 H 294.803 1.53379 -0.407484 0
M  V30 3019 H 294.824 3.51444 1.45832 0
M  V30 3020 H 294.336 3.86677 -0.332086 0
M  V30 3021 H 292.437 3.13021 2.0211 0
M  V30 3022 H 292.55 4.69231 0.967447 0
M  V30 3023 H 290.914 2.47319 0.608714 0
M  V30 3024 H 291.697 3.33241 -0.82494 0
M  V30 3025 N 294.142 -0.090211 1.57342 0
M  V30 3026 C 295.37 -0.806224 1.90546 0
M  V30 3027 C 295.785 -1.72041 0.777644 0
M  V30 3028 O 295.142 -1.80778 -0.250103 0
M  V30 3029 C 295.193 -1.61546 3.23396 0
M  V30 3030 O 294.914 -0.738043 4.31839 0
M  V30 3031 C 296.415 -2.4341 3.70495 0
M  V30 3032 H 293.635 -0.230256 0.630257 0
M  V30 3033 H 296.179 -0.0659843 2.04394 0
M  V30 3034 H 294.334 -2.30816 3.11131 0
M  V30 3035 H 294.748 -1.29901 5.08159 0
M  V30 3036 H 296.222 -2.95676 4.66133 0
M  V30 3037 H 296.699 -3.22098 2.98579 0
M  V30 3038 H 297.305 -1.79331 3.85643 0
M  V30 3039 N 295.62 -1.53406 -0.361157 0
M  V30 3040 C 296.552 -1.76446 -1.46286 0
M  V30 3041 C 297.565 -0.645322 -1.49464 0
M  V30 3042 O 298.754 -0.921681 -1.52864 0
M  V30 3043 C 295.854 -1.83332 -2.85031 0
M  V30 3044 C 295.027 -3.13033 -3.05498 0
M  V30 3045 C 294.086 -3.11104 -4.24383 0
M  V30 3046 O 293.112 -3.84888 -4.19344 0
M  V30 3047 N 294.314 -2.32234 -5.32022 0
M  V30 3048 H 297.079 -2.71508 -1.26899 0
M  V30 3049 H 294.64 -1.52238 -0.550915 0
M  V30 3050 H 296.632 -1.79514 -3.62708 0
M  V30 3051 H 295.202 -0.955342 -2.97644 0
M  V30 3052 H 294.422 -3.30119 -2.15442 0
M  V30 3053 H 295.71 -3.9874 -3.16044 0
M  V30 3054 H 295.108 -1.71807 -5.38979 0
M  V30 3055 H 293.665 -2.3423 -6.08259 0
M  V30 3056 N 297.098 0.621204 -1.44841 0
M  V30 3057 C 298.045 1.73267 -1.5247 0
M  V30 3058 C 299.015 1.6189 -0.371611 0
M  V30 3059 O 300.2 1.81668 -0.58321 0
M  V30 3060 C 297.34 3.11545 -1.48438 0
M  V30 3061 C 296.453 3.33827 -2.74196 0
M  V30 3062 C 295.588 4.62133 -2.61929 0
M  V30 3063 C 294.627 4.77627 -3.82804 0
M  V30 3064 N 293.764 5.97219 -3.69153 0
M  V30 3065 H 298.604 1.66082 -2.47428 0
M  V30 3066 H 296.141 0.810026 -1.22788 0
M  V30 3067 H 298.099 3.91528 -1.4409 0
M  V30 3068 H 296.729 3.1772 -0.570402 0
M  V30 3069 H 295.781 2.47715 -2.88689 0
M  V30 3070 H 297.093 3.41153 -3.6389 0
M  V30 3071 H 296.247 5.50291 -2.5547 0
M  V30 3072 H 294.986 4.57182 -1.69811 0
M  V30 3073 H 293.991 3.87896 -3.89637 0
M  V30 3074 H 295.216 4.84385 -4.75971 0
M  V30 3075 H 293.162 5.93339 -2.79794 0
M  V30 3076 H 293.079 6.05644 -4.52472 0
M  V30 3077 H 294.347 6.87912 -3.66603 0
M  V30 3078 N 298.576 1.31904 0.862503 0
M  V30 3079 C 299.801 1.25135 1.65397 0
M  V30 3080 C 300.226 -0.179 1.87246 0
M  V30 3081 O 299.584 -1.1277 1.4196 0
M  V30 3082 C 299.632 2.00832 2.99498 0
M  V30 3083 O 298.736 1.35075 3.89652 0
M  V30 3084 H 298.077 0.431655 0.504549 0
M  V30 3085 H 300.607 1.74094 1.07483 0
M  V30 3086 H 300.617 2.10709 3.49379 0
M  V30 3087 H 299.292 3.04847 2.82916 0
M  V30 3088 H 297.869 1.33696 3.48109 0
M  V30 3089 N 300.054 -1.07777 1.14986 0
M  V30 3090 C 301.331 -1.7699 0.832695 0
M  V30 3091 C 301.711 -2.001 -0.672561 0
M  V30 3092 O 301.059 -1.61598 -1.6155 0
M  V30 3093 C 301.269 -3.08139 1.63863 0
M  V30 3094 C 302.617 -3.8256 1.84208 0
M  V30 3095 O 303.641 -3.17939 1.60603 0
M  V30 3096 O 302.5 -4.98612 2.23714 0
M  V30 3097 H 299.594 -0.768389 0.305791 0
M  V30 3098 H 302.14 -1.14182 1.25541 0
M  V30 3099 H 300.912 -2.86909 2.6608 0
M  V30 3100 H 300.535 -3.78678 1.21197 0
M  V30 3101 N 301.532 -0.945985 -1.26051 0
M  V30 3102 C 302.78 -0.594941 -1.93145 0
M  V30 3103 C 303.101 0.86953 -1.7454 0
M  V30 3104 O 302.371 1.61838 -1.10387 0
M  V30 3105 H 300.951 -0.217044 -0.714773 0
M  V30 3106 H 303.613 -1.20235 -1.53393 0
M  V30 3107 H 302.709 -0.816835 -3.01221 0
M  V30 3108 N 303.011 1.40521 -0.713556 0
M  V30 3109 C 304.258 2.00923 -0.25219 0
M  V30 3110 C 304.586 1.56571 1.15395 0
M  V30 3111 O 303.841 0.775874 1.79663 0
M  V30 3112 C 304.14 3.56317 -0.278 0
M  V30 3113 C 303.806 4.20246 -1.63415 0
M  V30 3114 C 302.468 4.37422 -2.00538 0
M  V30 3115 C 304.82 4.55923 -2.52554 0
M  V30 3116 C 302.148 4.87558 -3.2635 0
M  V30 3117 C 304.5 5.07458 -3.77716 0
M  V30 3118 C 303.164 5.22843 -4.14959 0
M  V30 3119 H 302.434 0.735231 -0.0922829 0
M  V30 3120 H 305.081 1.68161 -0.916188 0
M  V30 3121 H 303.386 3.88976 0.469567 0
M  V30 3122 H 305.083 4.00883 0.0967819 0
M  V30 3123 H 301.673 4.07263 -1.33546 0
M  V30 3124 H 305.857 4.42291 -2.25149 0
M  V30 3125 H 301.113 4.97654 -3.55176 0
M  V30 3126 H 305.287 5.34041 -4.4696 0
M  V30 3127 H 302.914 5.61454 -5.12516 0
M  V30 3128 N 304.489 0.459591 1.5075 0
M  V30 3129 C 305.437 -0.354678 2.2988 0
M  V30 3130 C 306.431 -1.00086 1.36672 0
M  V30 3131 O 307.637 -0.933277 1.53915 0
M  V30 3132 H 304.012 -0.13321 0.740107 0
M  V30 3133 H 305.983 0.333269 2.96533 0
M  V30 3134 C 304.732 -1.43073 3.169 0
M  V30 3135 H 304.055 -0.942882 3.88523 0
M  V30 3136 H 305.495 -1.97328 3.75284 0
M  V30 3137 C 303.954 -2.42633 2.33732 0
M  V30 3138 O 304.484 -3.47658 2.01238 0
M  V30 3139 N 302.69 -2.14066 1.9653 0
M  V30 3140 H 302.237 -1.28685 2.23155 0
M  V30 3141 H 302.195 -2.80917 1.41185 0
M  V30 3142 N 305.967 -1.56429 0.191757 0
M  V30 3143 C 307.197 -2.01574 -0.452928 0
M  V30 3144 C 307.605 -1.07107 -1.55964 0
M  V30 3145 O 306.948 -0.067534 -1.83576 0
M  V30 3146 C 307.01 -3.43121 -1.07278 0
M  V30 3147 C 306.674 -4.56879 -0.105214 0
M  V30 3148 C 307.671 -5.15379 0.684149 0
M  V30 3149 C 305.356 -5.023 0.00489824 0
M  V30 3150 C 307.35 -6.17746 1.57062 0
M  V30 3151 C 305.037 -6.04511 0.894935 0
M  V30 3152 C 306.035 -6.62108 1.67637 0
M  V30 3153 O 305.723 -7.62335 2.55149 0
M  V30 3154 H 305.455 -0.665554 -0.118379 0
M  V30 3155 H 308.009 -2.03245 0.296737 0
M  V30 3156 H 306.239 -3.38425 -1.87097 0
M  V30 3157 H 307.928 -3.72093 -1.62177 0
M  V30 3158 H 308.694 -4.81157 0.609365 0
M  V30 3159 H 304.573 -4.57168 -0.593156 0
M  V30 3160 H 308.117 -6.6263 2.181 0
M  V30 3161 H 304.014 -6.38157 0.970847 0
M  V30 3162 H 304.782 -7.79741 2.48892 0
M  V30 3163 N 307.445 0.0818655 -1.57387 0
M  V30 3164 C 308.408 1.08265 -2.02018 0
M  V30 3165 C 309.408 1.32183 -0.915664 0
M  V30 3166 O 310.598 1.28073 -1.18081 0
M  V30 3167 C 307.73 2.42871 -2.39221 0
M  V30 3168 H 308.923 0.698204 -2.91659 0
M  V30 3169 H 306.476 0.327303 -1.52835 0
M  V30 3170 H 307.211 2.86167 -1.52575 0
M  V30 3171 H 306.996 2.26855 -3.19811 0
M  V30 3172 H 308.486 3.14826 -2.74362 0
M  V30 3173 N 308.923 1.53595 0.353017 0
M  V30 3174 C 310.171 1.70049 1.09215 0
M  V30 3175 C 310.492 0.461406 1.89463 0
M  V30 3176 O 309.762 -0.524633 1.88744 0
M  V30 3177 H 308.342 0.626912 0.40619 0
M  V30 3178 H 311.004 1.90822 0.396585 0
M  V30 3179 H 310.1 2.56718 1.77488 0
M  V30 3180 N 310.401 -0.613514 1.45168 0
M  V30 3181 C 311.364 -1.7065 1.53007 0
M  V30 3182 C 312.364 -1.5548 0.410184 0
M  V30 3183 O 313.554 -1.60656 0.673455 0
M  V30 3184 C 310.686 -3.09875 1.42093 0
M  V30 3185 H 311.879 -1.65068 2.50385 0
M  V30 3186 H 309.432 -0.828728 1.32521 0
M  V30 3187 H 310.167 -3.21039 0.458769 0
M  V30 3188 H 309.952 -3.22293 2.23315 0
M  V30 3189 H 311.442 -3.895 1.50598 0
M  V30 3190 N 311.879 -1.3236 -0.855495 0
M  V30 3191 C 312.789 -1.23221 -1.99634 0
M  V30 3192 C 313.805 -0.145983 -1.73387 0
M  V30 3193 O 314.981 -0.366502 -1.98037 0
M  V30 3194 C 312.046 -0.954782 -3.33294 0
M  V30 3195 C 311.107 -2.12937 -3.72769 0
M  V30 3196 C 310.34 -1.86508 -5.00051 0
M  V30 3197 O 310.563 -0.807231 -5.64659 0
M  V30 3198 O 309.497 -2.72591 -5.36636 0
M  V30 3199 H 313.323 -2.19126 -2.1028 0
M  V30 3200 H 310.908 -1.12241 -0.986018 0
M  V30 3201 H 312.79 -0.816519 -4.13414 0
M  V30 3202 H 311.465 -0.0258854 -3.2369 0
M  V30 3203 H 310.372 -2.3231 -2.93228 0
M  V30 3204 H 311.705 -3.04102 -3.87018 0
M  V30 3205 N 313.357 1.07166 -1.15556 0
M  V30 3206 C 314.587 1.83248 -0.954133 0
M  V30 3207 C 314.995 1.82449 0.500911 0
M  V30 3208 O 314.338 1.23575 1.35923 0
M  V30 3209 C 314.4 3.31393 -1.39351 0
M  V30 3210 C 314.064 3.5591 -2.86666 0
M  V30 3211 C 315.061 3.49695 -3.8472 0
M  V30 3212 C 312.746 3.83515 -3.24379 0
M  V30 3213 C 314.74 3.70737 -5.18491 0
M  V30 3214 C 312.427 4.04209 -4.58321 0
M  V30 3215 C 313.425 3.97815 -5.55186 0
M  V30 3216 O 313.113 4.17954 -6.86709 0
M  V30 3217 H 312.845 0.584941 -0.338851 0
M  V30 3218 H 315.399 1.36169 -1.53777 0
M  V30 3219 H 313.629 3.79292 -0.75329 0
M  V30 3220 H 315.318 3.88945 -1.16089 0
M  V30 3221 H 316.084 3.28368 -3.56931 0
M  V30 3222 H 311.963 3.87605 -2.49567 0
M  V30 3223 H 315.507 3.65663 -5.94085 0
M  V30 3224 H 311.404 4.25023 -4.85825 0
M  V30 3225 H 312.172 4.35291 -6.93155 0
M  V30 3226 N 314.835 0.952656 1.25548 0
M  V30 3227 C 316.251 0.656769 1.4546 0
M  V30 3228 C 316.451 -0.78633 1.85524 0
M  V30 3229 O 315.507 -1.56183 1.98402 0
M  V30 3230 C 316.82 1.62801 2.52817 0
M  V30 3231 C 318.368 1.63897 2.66659 0
M  V30 3232 C 318.843 2.5978 3.77198 0
M  V30 3233 N 320.334 2.58133 3.84606 0
M  V30 3234 C 321.069 3.29003 4.69621 0
M  V30 3235 N 320.565 4.09339 5.58939 0
M  V30 3236 N 322.358 3.179 4.63569 0
M  V30 3237 H 314.509 1.88526 0.978344 0
M  V30 3238 H 316.772 0.810815 0.491206 0
M  V30 3239 H 316.478 2.65869 2.30232 0
M  V30 3240 H 316.352 1.38898 3.50695 0
M  V30 3241 H 318.739 0.615481 2.8861 0
M  V30 3242 H 318.82 1.91858 1.69187 0
M  V30 3243 H 318.464 3.62254 3.55997 0
M  V30 3244 H 318.394 2.29105 4.7415 0
M  V30 3245 H 320.885 1.99809 3.20757 0
M  V30 3246 H 321.198 4.6034 6.20731 0
M  V30 3247 H 319.543 4.13438 5.58654 0
M  V30 3248 H 322.734 2.54612 3.92798 0
M  V30 3249 H 322.907 3.73398 5.29602 0
M  V30 3250 N 316.313 -1.40141 0.720998 0
M  V30 3251 C 317.56 -2.00787 0.262842 0
M  V30 3252 C 317.888 -1.5718 -1.14563 0
M  V30 3253 O 317.143 -0.785391 -1.79249 0
M  V30 3254 C 317.442 -3.56165 0.296892 0
M  V30 3255 C 317.108 -4.19373 1.65641 0
M  V30 3256 C 315.77 -4.36352 2.02855 0
M  V30 3257 C 318.122 -4.54578 2.54968 0
M  V30 3258 C 315.45 -4.8582 3.28931 0
M  V30 3259 C 317.802 -5.05447 3.80402 0
M  V30 3260 C 316.466 -5.20635 4.17726 0
M  V30 3261 H 315.736 -0.734731 0.0961807 0
M  V30 3262 H 318.383 -1.67673 0.925093 0
M  V30 3263 H 316.688 -3.8922 -0.448932 0
M  V30 3264 H 318.385 -4.00929 -0.0755208 0
M  V30 3265 H 314.975 -4.06549 1.35704 0
M  V30 3266 H 319.159 -4.41091 2.27491 0
M  V30 3267 H 314.415 -4.95764 3.57811 0
M  V30 3268 H 318.589 -5.31663 4.49786 0
M  V30 3269 H 316.216 -5.58728 5.15487 0
M  V30 3270 N 317.792 -0.46758 -1.50504 0
M  V30 3271 C 318.74 0.342482 -2.30065 0
M  V30 3272 C 319.734 0.993596 -1.37201 0
M  V30 3273 O 320.94 0.925102 -1.54408 0
M  V30 3274 H 317.315 0.129283 -0.740803 0
M  V30 3275 H 319.286 -0.34899 -2.96352 0
M  V30 3276 C 318.035 1.4139 -3.17654 0
M  V30 3277 H 317.358 0.922264 -3.89017 0
M  V30 3278 H 318.798 1.95335 -3.76325 0
M  V30 3279 C 317.257 2.4139 -2.35016 0
M  V30 3280 O 317.787 3.46586 -2.03079 0
M  V30 3281 N 315.993 2.13021 -1.97662 0
M  V30 3282 H 315.54 1.27499 -2.23834 0
M  V30 3283 H 315.498 2.80164 -1.42673 0
M  V30 3284 N 319.27 1.56325 -0.20005 0
M  V30 3285 C 320.686 1.58839 0.155716 0
M  V30 3286 C 320.886 1.21636 1.60645 0
M  V30 3287 O 319.942 0.941437 2.34293 0
M  V30 3288 C 321.255 3.0032 -0.151124 0
M  V30 3289 C 322.803 3.12866 -0.0916284 0
M  V30 3290 C 323.278 4.56488 -0.371845 0
M  V30 3291 N 324.769 4.62089 -0.320641 0
M  V30 3292 C 325.504 5.71116 -0.511243 0
M  V30 3293 N 325 6.88592 -0.762461 0
M  V30 3294 N 326.793 5.60335 -0.445157 0
M  V30 3295 H 318.944 1.78788 -1.14668 0
M  V30 3296 H 321.207 0.829996 -0.458051 0
M  V30 3297 H 320.913 3.32117 -1.15721 0
M  V30 3298 H 320.787 3.73257 0.543986 0
M  V30 3299 H 323.174 2.80878 0.905065 0
M  V30 3300 H 323.255 2.42304 -0.81989 0
M  V30 3301 H 322.899 4.89189 -1.36588 0
M  V30 3302 H 322.829 5.25246 0.377362 0
M  V30 3303 H 325.32 3.77665 -0.13329 0
M  V30 3304 H 325.633 7.67581 -0.896576 0
M  V30 3305 H 323.978 6.90387 -0.799412 0
M  V30 3306 H 327.169 4.67436 -0.249278 0
M  V30 3307 H 327.342 6.45243 -0.597116 0
M  V30 3308 N 320.748 -0.0735177 1.57428 0
M  V30 3309 C 321.658 -1.10547 2.06922 0
M  V30 3310 C 322.674 -1.42506 0.998402 0
M  V30 3311 O 323.85 -1.52717 1.31299 0
M  V30 3312 C 320.915 -2.40019 2.50184 0
M  V30 3313 C 319.976 -2.15046 3.71556 0
M  V30 3314 C 319.209 -3.38345 4.12745 0
M  V30 3315 O 319.432 -4.47399 3.53822 0
M  V30 3316 O 318.366 -3.2666 5.05546 0
M  V30 3317 H 322.192 -0.715013 2.95163 0
M  V30 3318 H 319.777 -0.287531 1.46607 0
M  V30 3319 H 321.659 -3.16218 2.78539 0
M  V30 3320 H 320.334 -2.78447 1.65072 0
M  V30 3321 H 319.241 -1.36558 3.48285 0
M  V30 3322 H 320.574 -1.81499 4.57514 0
M  V30 3323 N 322.226 -1.5378 -0.344866 0
M  V30 3324 C 323.642 -1.44015 -0.687888 0
M  V30 3325 C 323.842 -0.595834 -1.92489 0
M  V30 3326 O 322.898 -0.0863064 -2.52352 0
M  V30 3327 C 324.211 -2.87481 -0.881758 0
M  V30 3328 C 325.759 -2.97247 -0.980459 0
M  V30 3329 C 326.234 -4.41819 -1.20665 0
M  V30 3330 N 327.725 -4.45339 -1.27389 0
M  V30 3331 C 328.46 -5.54333 -1.46639 0
M  V30 3332 N 327.956 -6.73335 -1.63071 0
M  V30 3333 N 329.749 -5.41944 -1.49176 0
M  V30 3334 H 321.9 -2.07169 0.468475 0
M  V30 3335 H 324.163 -0.93643 0.147655 0
M  V30 3336 H 323.869 -3.51672 -0.0443444 0
M  V30 3337 H 323.743 -3.32352 -1.78388 0
M  V30 3338 H 326.13 -2.33197 -1.8084 0
M  V30 3339 H 326.211 -2.5574 -0.0552713 0
M  V30 3340 H 325.855 -5.06449 -0.383652 0
M  V30 3341 H 325.785 -4.80917 -2.14539 0
M  V30 3342 H 328.276 -3.59585 -1.1622 0
M  V30 3343 H 328.589 -7.52165 -1.77391 0
M  V30 3344 H 326.934 -6.76282 -1.60209 0
M  V30 3345 H 330.125 -4.47932 -1.3592 0
M  V30 3346 H 330.298 -6.26946 -1.63837 0
M  V30 3347 N 323.704 0.605807 -1.45491 0
M  V30 3348 C 324.932 1.39136 -1.5313 0
M  V30 3349 C 325.347 1.88082 -0.164507 0
M  V30 3350 O 324.704 1.62316 0.834247 0
M  V30 3351 C 324.755 2.59463 -2.51716 0
M  V30 3352 O 324.476 2.12551 -3.83084 0
M  V30 3353 C 325.977 3.52301 -2.6907 0
M  V30 3354 H 323.197 0.425849 -0.51855 0
M  V30 3355 H 325.741 0.73865 -1.90694 0
M  V30 3356 H 323.896 3.20772 -2.17219 0
M  V30 3357 H 324.31 2.90744 -4.36541 0
M  V30 3358 H 325.784 4.33271 -3.42024 0
M  V30 3359 H 326.261 4.02757 -1.75167 0
M  V30 3360 H 326.867 2.96845 -3.04571 0
M  V30 3361 N 325.182 1.32811 0.848464 0
M  V30 3362 C 326.114 1.18095 1.96433 0
M  V30 3363 C 327.127 0.114354 1.62398 0
M  V30 3364 O 328.316 0.363892 1.74751 0
M  V30 3365 C 325.416 0.786798 3.2964 0
M  V30 3366 C 324.589 1.943 3.91875 0
M  V30 3367 C 323.648 1.53138 5.03423 0
M  V30 3368 O 322.674 2.24432 5.23086 0
M  V30 3369 N 323.876 0.430915 5.78898 0
M  V30 3370 H 326.641 2.14218 2.09597 0
M  V30 3371 H 324.202 1.2543 1.02367 0
M  V30 3372 H 326.194 0.493715 4.01677 0
M  V30 3373 H 324.764 -0.0834541 3.12489 0
M  V30 3374 H 323.984 2.40224 3.12547 0
M  V30 3375 H 325.272 2.71689 4.30189 0
M  V30 3376 H 324.67 -0.162333 5.65467 0
M  V30 3377 H 323.227 0.197466 6.51501 0
M  V30 3378 N 326.66 -1.06551 1.16123 0
M  V30 3379 C 327.59 -2.15935 0.88851 0
M  V30 3380 C 328.571 -1.69306 -0.164135 0
M  V30 3381 O 329.756 -1.94193 -0.0167857 0
M  V30 3382 C 326.886 -3.45149 0.385942 0
M  V30 3383 C 325.84 -4.05271 1.3762 0
M  V30 3384 C 325.166 -5.29664 0.732137 0
M  V30 3385 C 326.466 -4.44355 2.74493 0
M  V30 3386 H 328.16 -2.39006 1.80323 0
M  V30 3387 H 325.706 -1.14866 0.868435 0
M  V30 3388 H 327.659 -4.21004 0.182647 0
M  V30 3389 H 326.383 -3.21689 -0.564274 0
M  V30 3390 H 325.042 -3.3147 1.56599 0
M  V30 3391 H 324.69 -5.02499 -0.224483 0
M  V30 3392 H 324.39 -5.70848 1.39307 0
M  V30 3393 H 325.914 -6.08218 0.538802 0
M  V30 3394 H 327.328 -5.11303 2.59311 0
M  V30 3395 H 325.725 -4.96515 3.37035 0
M  V30 3396 H 326.795 -3.55339 3.29943 0
M  V30 3397 N 328.138 -0.959301 -1.25041 0
M  V30 3398 C 329.386 -0.615393 -1.92503 0
M  V30 3399 C 329.707 0.850969 -1.75452 0
M  V30 3400 O 328.977 1.60658 -1.12098 0
M  V30 3401 H 327.557 -0.224613 -0.712431 0
M  V30 3402 H 330.219 -1.21855 -1.5211 0
M  V30 3403 H 329.315 -0.848738 -3.00338 0
M  V30 3404 N 329.616 1.39756 -0.72842 0
M  V30 3405 C 330.546 2.33289 -0.0991354 0
M  V30 3406 C 331.527 1.53568 0.731489 0
M  V30 3407 O 332.712 1.81987 0.677807 0
M  V30 3408 C 329.842 3.3763 0.813834 0
M  V30 3409 C 328.796 4.2791 0.0878663 0
M  V30 3410 C 328.122 5.22894 1.11741 0
M  V30 3411 C 329.422 5.11314 -1.06563 0
M  V30 3412 H 331.116 2.86163 -0.880408 0
M  V30 3413 H 328.662 1.37591 -0.424819 0
M  V30 3414 H 330.615 4.0201 1.26355 0
M  V30 3415 H 329.339 2.83181 1.62715 0
M  V30 3416 H 327.998 3.65 -0.342159 0
M  V30 3417 H 327.646 4.64744 1.92412 0
M  V30 3418 H 327.346 5.84143 0.636477 0
M  V30 3419 H 328.87 5.90151 1.56697 0
M  V30 3420 H 330.284 5.69076 -0.694671 0
M  V30 3421 H 328.681 5.81671 -1.47577 0
M  V30 3422 H 329.751 4.46534 -1.89038 0
M  V30 3423 N 331.094 0.475555 1.50254 0
M  V30 3424 C 332.34 -0.0701075 2.03279 0
M  V30 3425 C 332.695 -1.37007 1.35081 0
M  V30 3426 O 331.988 -1.8577 0.469052 0
M  V30 3427 C 332.182 -0.305114 3.56095 0
M  V30 3428 C 332.011 0.970515 4.39103 0
M  V30 3429 C 330.781 1.51509 4.82051 0
M  V30 3430 C 332.979 1.8671 4.79212 0
M  V30 3431 N 330.961 2.73928 5.49397 0
M  V30 3432 C 332.332 2.93715 5.46014 0
M  V30 3433 C 334.387 1.87695 4.61167 0
M  V30 3434 C 333.09 4.01699 5.96683 0
M  V30 3435 C 335.116 2.94637 5.12779 0
M  V30 3436 C 334.478 4.00361 5.79561 0
M  V30 3437 H 330.577 0.014486 0.781866 0
M  V30 3438 H 333.161 0.644755 1.83714 0
M  V30 3439 H 331.332 -0.989019 3.75597 0
M  V30 3440 H 333.064 -0.845516 3.95769 0
M  V30 3441 H 329.819 1.06367 4.61501 0
M  V30 3442 H 330.243 3.36109 5.87673 0
M  V30 3443 H 334.885 1.07273 4.08965 0
M  V30 3444 H 332.603 4.82934 6.4792 0
M  V30 3445 H 336.189 2.96388 5.00645 0
M  V30 3446 H 335.069 4.81751 6.18778 0
M  V30 3447 N 332.573 -1.56217 0.208337 0
M  V30 3448 C 333.523 -2.16324 -0.720281 0
M  V30 3449 C 334.507 -1.10775 -1.16695 0
M  V30 3450 O 335.699 -1.36801 -1.12314 0
M  V30 3451 C 332.828 -2.83644 -1.93393 0
M  V30 3452 C 331.914 -3.96401 -1.50755 0
M  V30 3453 N 332.305 -4.99546 -0.792937 0
M  V30 3454 C 330.603 -4.08246 -1.79585 0
M  V30 3455 C 331.304 -5.78828 -0.577364 0
M  V30 3456 N 330.28 -5.31723 -1.1301 0
M  V30 3457 H 334.082 -2.93432 -0.165725 0
M  V30 3458 H 331.596 -1.62397 0.00906463 0
M  V30 3459 H 333.593 -3.25107 -2.60981 0
M  V30 3460 H 332.253 -2.08027 -2.49308 0
M  V30 3461 H 333.264 -5.15967 -0.447004 0
M  V30 3462 H 329.941 -3.4377 -2.36915 0
M  V30 3463 H 331.331 -6.71899 -0.00952956 0
M  V30 3464 N 334.051 0.0651679 -1.57465 0
M  V30 3465 C 335.299 0.761555 -1.87202 0
M  V30 3466 C 335.62 1.77778 -0.801243 0
M  V30 3467 O 334.89 1.95166 0.16937 0
M  V30 3468 H 333.47 0.284251 -0.690804 0
M  V30 3469 H 336.132 0.0396827 -1.9486 0
M  V30 3470 H 335.228 1.27365 -2.84929 0
M  V30 3471 N 335.529 1.53961 0.336706 0
M  V30 3472 C 336.461 1.78751 1.4346 0
M  V30 3473 C 337.474 0.669019 1.48418 0
M  V30 3474 O 338.663 0.945884 1.51378 0
M  V30 3475 C 335.763 1.87844 2.82078 0
M  V30 3476 C 334.936 3.17854 3.00479 0
M  V30 3477 C 333.995 3.17816 4.19379 0
M  V30 3478 O 333.021 3.91511 4.13168 0
M  V30 3479 N 334.223 2.40669 5.2826 0
M  V30 3480 H 336.988 2.73493 1.22563 0
M  V30 3481 H 334.549 1.53096 0.526625 0
M  V30 3482 H 336.541 1.85261 3.59806 0
M  V30 3483 H 335.111 1.00257 2.96086 0
M  V30 3484 H 334.331 3.33504 2.10163 0
M  V30 3485 H 335.619 4.03718 3.0966 0
M  V30 3486 H 335.017 1.8036 5.36178 0
M  V30 3487 H 333.574 2.43877 6.04456 0
M  V30 3488 N 337.007 -0.598083 1.45811 0
M  V30 3489 C 337.937 -1.71873 1.58057 0
M  V30 3490 C 338.918 -1.64533 0.431615 0
M  V30 3491 O 340.103 -1.82787 0.65595 0
M  V30 3492 C 337.233 -3.10495 1.55597 0
M  V30 3493 C 336.187 -3.32654 2.69305 0
M  V30 3494 C 335.513 -4.71646 2.51902 0
M  V30 3495 C 336.813 -3.21981 4.11248 0
M  V30 3496 H 338.507 -1.61881 2.51863 0
M  V30 3497 H 336.053 -0.777372 1.21214 0
M  V30 3498 H 338.006 -3.88699 1.6276 0
M  V30 3499 H 336.73 -3.2135 0.583255 0
M  V30 3500 H 335.389 -2.56843 2.61586 0
M  V30 3501 H 335.037 -4.79246 1.52748 0
M  V30 3502 H 334.737 -4.87426 3.2816 0
M  V30 3503 H 336.261 -5.52038 2.60933 0
M  V30 3504 H 337.675 -3.90049 4.20161 0
M  V30 3505 H 336.072 -3.49289 4.87972 0
M  V30 3506 H 337.142 -2.1928 4.32486 0
M  V30 3507 N 338.485 -1.33259 -0.841409 0
M  V30 3508 C 339.395 -1.25332 -1.98316 0
M  V30 3509 C 340.411 -0.164364 -1.73222 0
M  V30 3510 O 341.587 -0.387486 -1.97637 0
M  V30 3511 C 338.652 -0.990078 -3.32262 0
M  V30 3512 C 337.713 -2.16879 -3.70489 0
M  V30 3513 C 336.946 -1.91801 -4.98044 0
M  V30 3514 O 337.169 -0.867075 -5.63771 0
M  V30 3515 O 336.103 -2.78267 -5.33714 0
M  V30 3516 H 339.929 -2.21344 -2.07944 0
M  V30 3517 H 337.514 -1.1328 -0.974058 0
M  V30 3518 H 339.396 -0.860321 -4.12524 0
M  V30 3519 H 338.071 -0.0602155 -3.23644 0
M  V30 3520 H 336.978 -2.35407 -2.90748 0
M  V30 3521 H 338.311 -3.0819 -3.8377 0
M  V30 3522 N 339.963 1.05934 -1.16686 0
M  V30 3523 C 341.24 1.75643 -0.860747 0
M  V30 3524 C 341.62 2.01144 0.640641 0
M  V30 3525 O 340.968 1.64147 1.58959 0
M  V30 3526 C 341.178 3.05493 -1.68745 0
M  V30 3527 C 342.526 3.79581 -1.90271 0
M  V30 3528 O 343.55 3.15344 -1.65641 0
M  V30 3529 O 342.409 4.9499 -2.31618 0
M  V30 3530 H 339.503 0.763426 -0.317977 0
M  V30 3531 H 342.049 1.1217 -1.27342 0
M  V30 3532 H 340.821 2.8264 -2.70611 0
M  V30 3533 H 340.444 3.76702 -1.27206 0
M  V30 3534 N 341.441 0.965919 1.2453 0
M  V30 3535 C 342.687 0.62776 1.92839 0
M  V30 3536 C 343.02 -0.834694 1.75347 0
M  V30 3537 O 342.295 -1.60031 1.10546 0
M  V30 3538 C 342.578 1.00109 3.45905 0
M  V30 3539 C 342.431 2.52011 3.72573 0
M  V30 3540 C 343.75 0.53435 4.36844 0
M  V30 3541 H 340.869 0.229537 0.700344 0
M  V30 3542 H 343.511 1.2046 1.46933 0
M  V30 3543 H 341.661 0.510238 3.85135 0
M  V30 3544 H 343.333 3.08559 3.42912 0
M  V30 3545 H 341.576 2.95287 3.17786 0
M  V30 3546 H 342.247 2.73183 4.79661 0
M  V30 3547 H 344.723 0.955565 4.04979 0
M  V30 3548 H 343.599 0.824152 5.42678 0
M  V30 3549 H 343.86 -0.565589 4.38467 0
M  V30 3550 N 342.919 -1.39368 0.735821 0
M  V30 3551 C 344.149 -2.04498 0.293967 0
M  V30 3552 C 344.557 -1.55593 -1.07645 0
M  V30 3553 O 343.9 -0.716324 -1.69158 0
M  V30 3554 C 343.962 -3.58836 0.218342 0
M  V30 3555 C 343.626 -4.30721 1.52736 0
M  V30 3556 C 344.623 -4.57305 2.47322 0
M  V30 3557 C 342.308 -4.69251 1.79189 0
M  V30 3558 C 344.302 -5.21429 3.66593 0
M  V30 3559 C 341.989 -5.33104 2.98737 0
M  V30 3560 C 342.987 -5.59125 3.9226 0
M  V30 3561 O 342.675 -6.21653 5.09708 0
M  V30 3562 H 342.407 -0.664118 0.126189 0
M  V30 3563 H 344.961 -1.79385 1.00051 0
M  V30 3564 H 343.191 -3.8285 -0.544314 0
M  V30 3565 H 344.88 -4.05447 -0.191626 0
M  V30 3566 H 345.646 -4.27983 2.28156 0
M  V30 3567 H 341.525 -4.48354 1.07239 0
M  V30 3568 H 345.069 -5.41656 4.39607 0
M  V30 3569 H 340.966 -5.61846 3.17803 0
M  V30 3570 H 341.734 -6.40146 5.10054 0
M  V30 3571 N 344.397 -0.483516 -1.5 0
M  V30 3572 C 345.813 -0.138404 -1.58999 0
M  V30 3573 C 346.013 1.35597 -1.4905 0
M  V30 3574 O 345.069 2.13039 -1.35539 0
M  V30 3575 C 346.382 -0.699658 -2.92447 0
M  V30 3576 C 347.93 -0.664195 -3.05872 0
M  V30 3577 C 348.405 -1.20321 -4.41913 0
M  V30 3578 N 349.896 -1.16315 -4.48358 0
M  V30 3579 C 350.631 -1.55058 -5.52037 0
M  V30 3580 N 350.127 -2.01311 -6.62907 0
M  V30 3581 N 351.92 -1.46584 -5.42651 0
M  V30 3582 H 344.071 -1.45529 -1.5471 0
M  V30 3583 H 346.334 -0.60258 -0.731848 0
M  V30 3584 H 346.04 -1.747 -3.05242 0
M  V30 3585 H 345.914 -0.150194 -3.76901 0
M  V30 3586 H 348.301 0.374272 -2.92717 0
M  V30 3587 H 348.382 -1.25061 -2.23144 0
M  V30 3588 H 348.026 -2.24037 -4.55818 0
M  V30 3589 H 347.956 -0.592896 -5.23252 0
M  V30 3590 H 350.447 -0.824058 -3.68806 0
M  V30 3591 H 350.76 -2.2899 -7.38095 0
M  V30 3592 H 349.105 -2.05273 -6.63994 0
M  V30 3593 H 352.296 -1.10281 -4.54924 0
M  V30 3594 H 352.469 -1.77103 -6.23329 0
M  V30 3595 N 345.875 1.56104 -0.216619 0
M  V30 3596 C 346.807 2.17339 0.72776 0
M  V30 3597 C 347.82 1.14109 1.16116 0
M  V30 3598 O 349.009 1.4111 1.09317 0
M  V30 3599 C 346.109 2.73818 1.99693 0
M  V30 3600 C 345.282 4.02168 1.71988 0
M  V30 3601 C 344.341 4.43259 2.83562 0
M  V30 3602 O 343.367 5.10257 2.52244 0
M  V30 3603 N 344.569 4.08535 4.12407 0
M  V30 3604 H 347.334 2.99005 0.203983 0
M  V30 3605 H 344.895 1.61861 -0.0354289 0
M  V30 3606 H 346.887 2.9828 2.73516 0
M  V30 3607 H 345.457 1.96483 2.43132 0
M  V30 3608 H 344.677 3.85612 0.818337 0
M  V30 3609 H 345.965 4.85907 1.50903 0
M  V30 3610 H 345.363 3.54687 4.40696 0
M  V30 3611 H 343.92 4.37901 4.8279 0
M  V30 3612 N 347.353 -0.0568162 1.57498 0
M  V30 3613 C 348.578 -0.769402 1.92601 0
M  V30 3614 C 349.003 -1.69559 0.814336 0
M  V30 3615 O 348.361 -1.79811 -0.231903 0
M  V30 3616 C 348.409 -1.52634 3.26704 0
M  V30 3617 O 347.513 -2.63797 3.16994 0
M  V30 3618 H 346.854 -0.208909 0.63028 0
M  V30 3619 H 349.384 -0.0205798 2.0459 0
M  V30 3620 H 349.394 -1.90234 3.60936 0
M  V30 3621 H 348.069 -0.846875 4.07186 0
M  V30 3622 H 346.646 -2.28943 2.94346 0
M  V30 3623 N 348.832 -1.54138 -0.328536 0
M  V30 3624 C 350.062 -1.75807 -1.08516 0
M  V30 3625 C 350.47 -0.50428 -1.82356 0
M  V30 3626 O 349.813 0.534451 -1.75754 0
M  V30 3627 C 349.875 -2.89423 -2.13248 0
M  V30 3628 C 349.539 -4.28504 -1.5885 0
M  V30 3629 C 350.536 -5.09536 -1.03289 0
M  V30 3630 C 348.221 -4.75034 -1.63243 0
M  V30 3631 C 350.215 -6.35206 -0.52845 0
M  V30 3632 C 347.902 -6.00672 -1.12411 0
M  V30 3633 C 348.9 -6.80592 -0.573062 0
M  V30 3634 O 348.588 -8.03867 -0.0723692 0
M  V30 3635 H 348.32 -0.590633 -0.328829 0
M  V30 3636 H 350.874 -2.01819 -0.381868 0
M  V30 3637 H 349.104 -2.5897 -2.87178 0
M  V30 3638 H 350.793 -2.98921 -2.74592 0
M  V30 3639 H 351.559 -4.74745 -0.99206 0
M  V30 3640 H 347.438 -4.12875 -2.05074 0
M  V30 3641 H 350.982 -6.97532 -0.0976774 0
M  V30 3642 H 346.879 -6.34955 -1.162 0
M  V30 3643 H 347.647 -8.18283 -0.188258 0
M  V30 3644 N 350.31 0.590341 -1.46126 0
M  V30 3645 C 351.273 1.68194 -1.55703 0
M  V30 3646 C 352.273 1.54808 -0.434868 0
M  V30 3647 O 353.463 1.59564 -0.698928 0
M  V30 3648 C 350.595 3.07575 -1.47005 0
M  V30 3649 H 351.788 1.61064 -2.52979 0
M  V30 3650 H 349.341 0.807541 -1.33823 0
M  V30 3651 H 350.076 3.20268 -0.509785 0
M  V30 3652 H 349.861 3.187 -2.28414 0
M  V30 3653 H 351.351 3.87055 -1.56776 0
M  V30 3654 N 351.788 1.33704 0.83433 0
M  V30 3655 C 352.736 1.24323 1.96587 0
M  V30 3656 C 353.73 0.143659 1.6879 0
M  V30 3657 O 354.936 0.30791 1.77347 0
M  V30 3658 H 351.311 0.385925 0.645419 0
M  V30 3659 H 353.282 2.19978 2.01624 0
M  V30 3660 C 352.031 1.00394 3.32891 0
M  V30 3661 H 351.354 1.84231 3.54822 0
M  V30 3662 H 352.794 0.97862 4.12552 0
M  V30 3663 C 351.253 -0.293047 3.35623 0
M  V30 3664 O 351.783 -1.29823 3.80143 0
M  V30 3665 N 349.989 -0.322174 2.88809 0
M  V30 3666 H 349.536 0.496379 2.52772 0
M  V30 3667 H 349.494 -1.18977 2.91019 0
M  V30 3668 N 353.266 -1.05314 1.17247 0
M  V30 3669 C 354.196 -2.1498 0.911362 0
M  V30 3670 C 355.177 -1.69471 -0.146169 0
M  V30 3671 O 356.362 -1.942 0.003812 0
M  V30 3672 C 353.492 -3.4472 0.422528 0
M  V30 3673 C 352.446 -4.03789 1.4191 0
M  V30 3674 C 351.772 -5.28858 0.788274 0
M  V30 3675 C 353.072 -4.41418 2.7919 0
M  V30 3676 H 354.766 -2.3708 1.82848 0
M  V30 3677 H 352.312 -1.13938 0.880569 0
M  V30 3678 H 354.265 -4.20787 0.227289 0
M  V30 3679 H 352.989 -3.22269 -0.530123 0
M  V30 3680 H 351.648 -3.2979 1.60106 0
M  V30 3681 H 351.296 -5.02709 -0.171173 0
M  V30 3682 H 350.996 -5.69338 1.45353 0
M  V30 3683 H 352.52 -6.07612 0.603282 0
M  V30 3684 H 353.934 -5.08524 2.64719 0
M  V30 3685 H 352.331 -4.92913 3.42282 0
M  V30 3686 H 353.401 -3.51819 3.33693 0
M  V30 3687 N 354.744 -0.972509 -1.24016 0
M  V30 3688 C 355.674 -0.525548 -2.27509 0
M  V30 3689 C 356.655 0.437262 -1.64384 0
M  V30 3690 O 357.84 0.332343 -1.91335 0
M  V30 3691 C 354.97 0.180448 -3.46831 0
M  V30 3692 C 353.924 -0.698859 -4.22256 0
M  V30 3693 C 353.25 0.138903 -5.3452 0
M  V30 3694 C 354.55 -1.98582 -4.83076 0
M  V30 3695 H 356.244 -1.39058 -2.65148 0
M  V30 3696 H 353.79 -0.67009 -1.27459 0
M  V30 3697 H 355.743 0.504387 -4.18371 0
M  V30 3698 H 354.467 1.07987 -3.08231 0
M  V30 3699 H 353.126 -1.00614 -3.52523 0
M  V30 3700 H 352.774 1.03862 -4.9216 0
M  V30 3701 H 352.474 -0.446259 -5.85903 0
M  V30 3702 H 353.998 0.457404 -6.08884 0
M  V30 3703 H 355.412 -1.72715 -5.46665 0
M  V30 3704 H 353.809 -2.5181 -5.44713 0
M  V30 3705 H 354.879 -2.67769 -4.04262 0
M  V30 3706 N 356.222 1.38976 -0.743202 0
M  V30 3707 C 357.172 2.27843 -0.084513 0
M  V30 3708 C 358.156 1.44677 0.704094 0
M  V30 3709 O 359.348 1.67511 0.571755 0
M  V30 3710 C 356.477 3.33466 0.815781 0
M  V30 3711 C 355.563 4.24095 0.0208844 0
M  V30 3712 N 355.954 4.95609 -1.0102 0
M  V30 3713 C 354.252 4.45303 0.249293 0
M  V30 3714 C 354.953 5.62287 -1.49024 0
M  V30 3715 N 353.929 5.37571 -0.807377 0
M  V30 3716 H 357.731 2.80593 -0.87436 0
M  V30 3717 H 355.245 1.51755 -0.578283 0
M  V30 3718 H 357.242 3.96008 1.30321 0
M  V30 3719 H 355.902 2.82276 1.6047 0
M  V30 3720 H 356.913 4.98849 -1.39176 0
M  V30 3721 H 353.59 4.0504 1.01237 0
M  V30 3722 H 354.98 6.29519 -2.34853 0
M  V30 3723 N 357.7 0.491464 1.49741 0
M  V30 3724 C 358.647 -0.292027 2.28945 0
M  V30 3725 C 359.617 -0.968973 1.34908 0
M  V30 3726 O 360.802 -0.97748 1.6386 0
M  V30 3727 C 357.942 -1.35617 3.17336 0
M  V30 3728 C 357.055 -0.691957 4.26422 0
M  V30 3729 C 356.19 -1.73572 5.02042 0
M  V30 3730 C 355.229 -1.05286 6.02977 0
M  V30 3731 N 354.366 -2.0404 6.71798 0
M  V30 3732 H 359.206 0.389654 2.95442 0
M  V30 3733 H 356.743 0.204003 1.45679 0
M  V30 3734 H 358.701 -1.98502 3.66951 0
M  V30 3735 H 357.331 -2.00674 2.52844 0
M  V30 3736 H 356.383 0.0499523 3.80367 0
M  V30 3737 H 357.695 -0.153946 4.98562 0
M  V30 3738 H 356.849 -2.43987 5.55478 0
M  V30 3739 H 355.588 -2.30757 4.29654 0
M  V30 3740 H 354.593 -0.334446 5.48782 0
M  V30 3741 H 355.818 -0.487636 6.77347 0
M  V30 3742 H 353.764 -2.60205 6.02187 0
M  V30 3743 H 353.681 -1.55279 7.39881 0
M  V30 3744 H 354.949 -2.73772 7.29842 0
M  V30 3745 N 359.178 -1.55987 0.224894 0
M  V30 3746 C 360.11 -2.17722 -0.716224 0
M  V30 3747 C 361.123 -1.14723 -1.15509 0
M  V30 3748 O 362.312 -1.41688 -1.08567 0
M  V30 3749 C 359.412 -2.74873 -1.98238 0
M  V30 3750 C 358.585 -4.03074 -1.69853 0
M  V30 3751 C 357.644 -4.44757 -2.81208 0
M  V30 3752 O 356.67 -5.11587 -2.49534 0
M  V30 3753 N 357.872 -4.10716 -4.10235 0
M  V30 3754 H 360.637 -2.99109 -0.188123 0
M  V30 3755 H 358.198 -1.6184 0.0440123 0
M  V30 3756 H 360.19 -2.99727 -2.7193 0
M  V30 3757 H 358.76 -1.9777 -2.42086 0
M  V30 3758 H 357.98 -3.86041 -0.797875 0
M  V30 3759 H 359.268 -4.86701 -1.48324 0
M  V30 3760 H 358.666 -3.57019 -4.38809 0
M  V30 3761 H 357.223 -4.40455 -4.80461 0
M  V30 3762 N 360.656 0.0484629 -1.57525 0
M  V30 3763 C 362.072 0.40375 -1.54409 0
M  V30 3764 C 362.272 1.77786 -0.948384 0
M  V30 3765 O 361.328 2.46189 -0.560983 0
M  V30 3766 C 362.641 0.323394 -2.98956 0
M  V30 3767 C 364.189 0.401892 -3.10409 0
M  V30 3768 C 364.664 0.351195 -4.56652 0
M  V30 3769 N 366.155 0.410576 -4.61377 0
M  V30 3770 C 366.89 0.393933 -5.72045 0
M  V30 3771 N 366.386 0.330724 -6.9201 0
M  V30 3772 N 368.179 0.442227 -5.60358 0
M  V30 3773 H 360.33 -0.851016 -1.94606 0
M  V30 3774 H 362.593 -0.321721 -0.89174 0
M  V30 3775 H 362.299 -0.62011 -3.4619 0
M  V30 3776 H 362.173 1.12463 -3.60044 0
M  V30 3777 H 364.56 1.33582 -2.63134 0
M  V30 3778 H 364.641 -0.428342 -2.52188 0
M  V30 3779 H 364.285 -0.578987 -5.04589 0
M  V30 3780 H 364.215 1.19928 -5.12762 0
M  V30 3781 H 366.706 0.462729 -3.75056 0
M  V30 3782 H 367.019 0.322592 -7.72126 0
M  V30 3783 H 365.364 0.29706 -6.94365 0
M  V30 3784 H 368.555 0.489464 -4.65534 0
M  V30 3785 H 368.728 0.425788 -6.466 0
M  V30 3786 N 362.134 1.5431 0.320358 0
M  V30 3787 C 363.38 1.72924 1.05949 0
M  V30 3788 C 363.713 0.503185 1.87568 0
M  V30 3789 O 362.988 -0.499839 1.87968 0
M  V30 3790 C 363.271 3.00676 1.98156 0
M  V30 3791 C 363.124 4.3354 1.19845 0
M  V30 3792 C 364.443 3.24198 2.9763 0
M  V30 3793 H 361.562 0.629195 0.383774 0
M  V30 3794 H 364.204 1.87008 0.335854 0
M  V30 3795 H 362.354 2.888 2.59859 0
M  V30 3796 H 364.026 4.57305 0.605773 0
M  V30 3797 H 362.269 4.309 0.500784 0
M  V30 3798 H 362.94 5.19156 1.87567 0
M  V30 3799 H 365.416 3.35557 2.4605 0
M  V30 3800 H 364.292 4.14938 3.59329 0
M  V30 3801 H 364.553 2.41577 3.7026 0
M  V30 3802 N 363.613 -0.582584 1.46437 0
M  V30 3803 C 364.861 -1.33814 1.51453 0
M  V30 3804 C 365.182 -1.94277 0.167792 0
M  V30 3805 O 364.452 -1.78566 -0.805677 0
M  V30 3806 H 363.032 -0.496838 0.557818 0
M  V30 3807 H 365.694 -0.682281 1.82568 0
M  V30 3808 H 364.79 -2.14479 2.26728 0
M  V30 3809 N 365.091 -1.34144 -0.827227 0
M  V30 3810 C 366.368 -1.16844 -1.56865 0
M  V30 3811 C 366.748 0.260654 -2.09485 0
M  V30 3812 O 366.096 1.26138 -1.9053 0
M  V30 3813 C 366.306 -2.21939 -2.6934 0
M  V30 3814 C 367.654 -2.56695 -3.3822 0
M  V30 3815 O 368.678 -2.20695 -2.79593 0
M  V30 3816 O 367.537 -3.18518 -4.44082 0
M  V30 3817 H 364.631 -0.452669 -0.692112 0
M  V30 3818 H 367.177 -1.45763 -0.868973 0
M  V30 3819 H 365.949 -3.17882 -2.28182 0
M  V30 3820 H 365.572 -1.94172 -3.46962 0
M  V30 3821 N 366.569 1.04691 -1.17803 0
M  V30 3822 C 367.815 1.78181 -0.980977 0
M  V30 3823 C 368.17 1.86191 0.484825 0
M  V30 3824 O 367.463 1.35436 1.35527 0
M  V30 3825 C 367.657 3.21467 -1.56186 0
M  V30 3826 C 367.486 3.27422 -3.08261 0
M  V30 3827 C 366.256 3.36415 -3.77032 0
M  V30 3828 C 368.454 3.15947 -4.0581 0
M  V30 3829 N 366.436 3.31554 -5.16667 0
M  V30 3830 C 367.807 3.18514 -5.31929 0
M  V30 3831 C 369.862 2.99945 -3.97413 0
M  V30 3832 C 368.565 3.06723 -6.50625 0
M  V30 3833 C 370.591 2.89497 -5.15699 0
M  V30 3834 C 369.953 2.92702 -6.40706 0
M  V30 3835 H 366.052 0.6641 -0.412911 0
M  V30 3836 H 368.636 1.24762 -1.49474 0
M  V30 3837 H 366.807 3.73245 -1.07436 0
M  V30 3838 H 368.539 3.8322 -1.30093 0
M  V30 3839 H 365.294 3.41887 -3.27735 0
M  V30 3840 H 365.718 3.3258 -5.89678 0
M  V30 3841 H 370.36 2.96302 -3.01604 0
M  V30 3842 H 368.078 3.0912 -7.46639 0
M  V30 3843 H 371.664 2.78179 -5.10987 0
M  V30 3844 H 370.544 2.84697 -7.30696 0
M  V30 3845 N 368.047 0.979072 1.23499 0
M  V30 3846 C 369.275 0.665202 1.95915 0
M  V30 3847 C 369.69 -0.767571 1.72493 0
M  V30 3848 O 369.047 -1.51635 1.01554 0
M  V30 3849 C 369.098 0.944438 3.48945 0
M  V30 3850 O 368.819 2.3209 3.71572 0
M  V30 3851 C 370.32 0.646336 4.38563 0
M  V30 3852 H 367.54 0.247218 0.623798 0
M  V30 3853 H 370.084 1.31009 1.57025 0
M  V30 3854 H 368.239 0.345575 3.85856 0
M  V30 3855 H 368.653 2.40957 4.65876 0
M  V30 3856 H 370.127 0.892091 5.44744 0
M  V30 3857 H 370.604 -0.419575 4.37191 0
M  V30 3858 H 371.21 1.22562 4.07258 0
M  V30 3859 N 369.525 -1.3858 0.750561 0
M  V30 3860 C 370.455 -2.33102 0.136237 0
M  V30 3861 C 371.436 -1.54713 -0.706965 0
M  V30 3862 O 372.621 -1.83043 -0.648769 0
M  V30 3863 C 369.751 -3.38882 -0.760017 0
M  V30 3864 C 368.705 -4.27995 -0.0197785 0
M  V30 3865 C 368.031 -5.24605 -1.03408 0
M  V30 3866 C 369.331 -5.09554 1.14684 0
M  V30 3867 H 371.025 -2.84726 0.925822 0
M  V30 3868 H 368.571 -1.36898 0.446654 0
M  V30 3869 H 370.524 -4.0397 -1.19943 0
M  V30 3870 H 369.248 -2.85734 -1.58189 0
M  V30 3871 H 367.907 -3.64409 0.400184 0
M  V30 3872 H 367.555 -4.67746 -1.84994 0
M  V30 3873 H 367.255 -5.85081 -0.543464 0
M  V30 3874 H 368.779 -5.9257 -1.47288 0
M  V30 3875 H 370.193 -5.67899 0.785118 0
M  V30 3876 H 368.59 -5.7925 1.56812 0
M  V30 3877 H 369.66 -4.4347 1.96118 0
M  V30 3878 N 371.003 -0.499398 -1.49478 0
M  V30 3879 C 372.251 0.0455996 -2.02049 0
M  V30 3880 C 372.572 1.37633 -1.38138 0
M  V30 3881 O 371.842 1.8842 -0.536166 0
M  V30 3882 H 370.422 0.0198416 -0.746736 0
M  V30 3883 H 373.084 -0.656274 -1.83519 0
M  V30 3884 H 372.18 0.176445 -3.11601 0
M  V30 3885 N 372.481 1.55866 -0.233164 0
M  V30 3886 C 373.444 2.1953 0.658715 0
M  V30 3887 C 374.444 1.16053 1.11303 0
M  V30 3888 O 375.634 1.41218 1.01996 0
M  V30 3889 C 372.766 2.82791 1.90373 0
M  V30 3890 H 373.959 2.99721 0.10347 0
M  V30 3891 H 371.512 1.56291 0.0164245 0
M  V30 3892 H 372.247 2.06501 2.50056 0
M  V30 3893 H 372.032 3.58578 1.58632 0
M  V30 3894 H 373.522 3.31556 2.53891 0
M  V30 3895 N 373.959 -0.0401083 1.57549 0
M  V30 3896 C 374.907 -1.06264 2.06908 0
M  V30 3897 C 375.901 -1.38132 0.980608 0
M  V30 3898 O 377.107 -1.37167 1.16556 0
M  V30 3899 H 373.482 -0.360166 0.660139 0
M  V30 3900 H 375.453 -0.620445 2.91878 0
M  V30 3901 C 374.202 -2.35846 2.55483 0
M  V30 3902 H 373.525 -2.12183 3.38849 0
M  V30 3903 H 374.965 -3.05765 2.93741 0
M  V30 3904 C 373.424 -3.0404 1.45126 0
M  V30 3905 O 373.954 -3.93424 0.811216 0
M  V30 3906 N 372.16 -2.65184 1.18852 0
M  V30 3907 H 371.707 -1.92584 1.71083 0
M  V30 3908 H 371.665 -3.1113 0.452244 0
M  V30 3909 N 375.437 -1.54477 -0.31217 0
M  V30 3910 C 376.367 -1.87652 -1.38957 0
M  V30 3911 C 377.348 -0.734358 -1.53431 0
M  V30 3912 O 378.533 -0.98911 -1.67123 0
M  V30 3913 C 375.663 -2.11396 -2.75552 0
M  V30 3914 C 374.617 -3.27243 -2.75855 0
M  V30 3915 C 373.943 -3.36382 -4.15633 0
M  V30 3916 C 375.243 -4.64622 -2.38587 0
M  V30 3917 H 376.937 -2.77887 -1.11442 0
M  V30 3918 H 374.483 -1.33707 -0.534655 0
M  V30 3919 H 376.436 -2.33189 -3.51 0
M  V30 3920 H 375.16 -1.17921 -3.04569 0
M  V30 3921 H 373.819 -3.05356 -2.02863 0
M  V30 3922 H 373.467 -2.40445 -4.41809 0
M  V30 3923 H 373.167 -4.14249 -4.1674 0
M  V30 3924 H 374.691 -3.60422 -4.92877 0
M  V30 3925 H 376.105 -4.86219 -3.03749 0
M  V30 3926 H 374.502 -5.45121 -2.50925 0
M  V30 3927 H 375.572 -4.66097 -1.33723 0
M  V30 3928 N 376.915 0.57481 -1.46744 0
M  V30 3929 C 378.163 1.33009 -1.52161 0
M  V30 3930 C 378.484 1.94185 -0.178092 0
M  V30 3931 O 377.754 1.7899 0.796196 0
M  V30 3932 H 376.334 0.493873 -0.560445 0
M  V30 3933 H 378.996 0.672589 -1.82927 0
M  V30 3934 H 378.092 2.13273 -2.27862 0
M  V30 3935 N 378.394 1.34581 0.820102 0
M  V30 3936 C 379.324 1.29038 1.94606 0
M  V30 3937 C 380.305 0.1673 1.69275 0
M  V30 3938 O 381.49 0.360112 1.90832 0
M  V30 3939 C 378.62 1.04793 3.31113 0
M  V30 3940 C 377.574 2.13597 3.70891 0
M  V30 3941 C 376.9 1.74537 5.05412 0
M  V30 3942 C 378.2 3.55451 3.8269 0
M  V30 3943 H 379.894 2.23248 1.99501 0
M  V30 3944 H 377.44 1.0747 0.958449 0
M  V30 3945 H 379.393 0.995592 4.0947 0
M  V30 3946 H 378.117 0.0702565 3.26524 0
M  V30 3947 H 376.776 2.17905 2.9481 0
M  V30 3948 H 376.424 0.754226 4.97313 0
M  V30 3949 H 376.124 2.47361 5.32997 0
M  V30 3950 H 377.648 1.70803 5.86224 0
M  V30 3951 H 379.062 3.5354 4.51312 0
M  V30 3952 H 377.459 4.26922 4.21732 0
M  V30 3953 H 378.529 3.92587 2.84611 0
M  V30 3954 N 379.872 -1.04064 1.18357 0
M  V30 3955 C 381.119 -1.77265 0.978947 0
M  V30 3956 C 381.447 -1.88189 -0.491428 0
M  V30 3957 O 380.702 -1.38653 -1.38108 0
M  V30 3958 C 381.001 -3.20634 1.57888 0
M  V30 3959 C 380.667 -3.29743 3.07539 0
M  V30 3960 C 379.329 -3.31937 3.48384 0
M  V30 3961 C 381.681 -3.29841 4.03552 0
M  V30 3962 C 379.009 -3.3187 4.83818 0
M  V30 3963 C 381.361 -3.31313 5.38901 0
M  V30 3964 C 380.025 -3.31799 5.79194 0
M  V30 3965 H 379.295 -0.648659 0.358222 0
M  V30 3966 H 381.942 -1.22225 1.47422 0
M  V30 3967 H 380.247 -3.78675 1.00561 0
M  V30 3968 H 381.944 -3.75917 1.39598 0
M  V30 3969 H 378.534 -3.28757 2.74986 0
M  V30 3970 H 382.718 -3.27337 3.73047 0
M  V30 3971 H 377.974 -3.30562 5.14333 0
M  V30 3972 H 382.148 -3.30338 6.13066 0
M  V30 3973 H 379.775 -3.315 6.84114 0
M  V30 3974 N 381.35 -0.985608 -1.22978 0
M  V30 3975 C 382.596 -0.65836 -1.91816 0
M  V30 3976 C 382.929 0.806692 -1.76653 0
M  V30 3977 O 382.204 1.58252 -1.13078 0
M  V30 3978 C 382.487 -1.056 -3.44268 0
M  V30 3979 C 382.34 -2.57906 -3.68516 0
M  V30 3980 C 383.659 -0.603781 -4.35939 0
M  V30 3981 H 380.778 -0.24065 -0.696604 0
M  V30 3982 H 383.42 -1.22783 -1.44998 0
M  V30 3983 H 381.57 -0.571445 -3.84274 0
M  V30 3984 H 383.242 -3.13976 -3.3796 0
M  V30 3985 H 381.485 -3.00305 -3.13048 0
M  V30 3986 H 382.156 -2.80779 -4.75255 0
M  V30 3987 H 384.632 -1.01987 -4.03408 0
M  V30 3988 H 383.508 -0.910383 -5.41298 0
M  V30 3989 H 383.769 0.495761 -4.39312 0
M  V30 3990 N 382.828 1.3818 -0.7579 0
M  V30 3991 C 384.105 1.94106 -0.241306 0
M  V30 3992 C 384.485 1.69282 1.26122 0
M  V30 3993 O 383.833 1.03378 2.03777 0
M  V30 3994 C 384.043 3.43809 -0.59967 0
M  V30 3995 C 385.391 4.20868 -0.561717 0
M  V30 3996 O 386.415 3.5211 -0.538222 0
M  V30 3997 O 385.274 5.43451 -0.576478 0
M  V30 3998 H 382.368 0.825376 -0.0518042 0
M  V30 3999 H 384.914 1.47548 -0.838315 0
M  V30 4000 H 383.686 3.55403 -1.6372 0
M  V30 4001 H 383.309 3.97592 0.0251197 0
M  V30 4002 N 384.306 0.507319 1.49211 0
M  V30 4003 C 385.722 0.163682 1.58758 0
M  V30 4004 C 385.922 -1.33208 1.51188 0
M  V30 4005 O 384.978 -2.10855 1.38911 0
M  V30 4006 C 386.291 0.746095 2.91297 0
M  V30 4007 C 387.839 0.712773 3.04776 0
M  V30 4008 C 388.314 1.27336 4.39943 0
M  V30 4009 N 389.805 1.23433 4.46451 0
M  V30 4010 C 390.54 1.63821 5.495 0
M  V30 4011 N 390.036 2.11832 6.5962 0
M  V30 4012 N 391.829 1.55198 5.4025 0
M  V30 4013 H 383.98 1.47972 1.52375 0
M  V30 4014 H 386.243 0.614147 0.722168 0
M  V30 4015 H 385.949 1.79534 3.02424 0
M  V30 4016 H 385.823 0.210137 3.76614 0
M  V30 4017 H 388.21 -0.327656 2.93275 0
M  V30 4018 H 388.291 1.28595 2.21127 0
M  V30 4019 H 387.935 2.3126 4.52196 0
M  V30 4020 H 387.865 0.676066 5.22242 0
M  V30 4021 H 390.356 0.882627 3.67448 0
M  V30 4022 H 390.669 2.40703 7.34358 0
M  V30 4023 H 389.014 2.1581 6.60644 0
M  V30 4024 H 392.205 1.17505 4.53112 0
M  V30 4025 H 392.378 1.86997 6.20432 0
M  V30 4026 N 385.784 -1.5574 0.241426 0
M  V30 4027 C 387.061 -1.90704 -0.434881 0
M  V30 4028 C 387.441 -1.16145 -1.76277 0
M  V30 4029 O 386.789 -0.277152 -2.26813 0
M  V30 4030 C 386.999 -3.43657 -0.608343 0
M  V30 4031 C 388.347 -4.14806 -0.906725 0
M  V30 4032 O 389.371 -3.49366 -0.694408 0
M  V30 4033 O 388.23 -5.30548 -1.31075 0
M  V30 4034 H 385.324 -0.793592 -0.23268 0
M  V30 4035 H 387.87 -1.67288 0.285086 0
M  V30 4036 H 386.642 -3.89927 0.327505 0
M  V30 4037 H 386.265 -3.72918 -1.37906 0
M  V30 4038 N 387.262 0.0317525 -1.57568 0
M  V30 4039 C 388.539 0.758366 -1.803 0
M  V30 4040 C 388.919 1.93718 -0.838845 0
M  V30 4041 O 388.267 2.28187 0.119571 0
M  V30 4042 C 388.477 1.19392 -3.27943 0
M  V30 4043 C 389.825 1.61094 -3.92854 0
M  V30 4044 O 390.849 1.28857 -3.32076 0
M  V30 4045 O 389.708 2.20918 -4.99858 0
M  V30 4046 H 386.802 0.366514 -0.741348 0
M  V30 4047 H 389.348 0.00873765 -1.69698 0
M  V30 4048 H 388.12 0.352275 -3.89711 0
M  V30 4049 H 387.743 2.00365 -3.43424 0
M  V30 4050 N 388.74 1.54641 0.303973 0
M  V30 4051 C 389.988 1.73437 1.0375 0
M  V30 4052 C 390.309 0.521449 1.87899 0
M  V30 4053 O 389.579 -0.46432 1.90318 0
M  V30 4054 H 388.159 0.639518 0.386039 0
M  V30 4055 H 390.821 1.91988 0.335675 0
M  V30 4056 H 389.917 2.62235 1.69231 0
M  V30 4057 N 390.218 -0.567019 1.47046 0
M  V30 4058 C 391.181 -1.65696 1.58359 0
M  V30 4059 C 392.181 -1.54097 0.459441 0
M  V30 4060 O 393.371 -1.58432 0.724225 0
M  V30 4061 C 390.503 -3.05197 1.51879 0
M  V30 4062 H 391.696 -1.57019 2.5551 0
M  V30 4063 H 389.249 -0.786148 1.3509 0
M  V30 4064 H 389.984 -3.19417 0.560673 0
M  V30 4065 H 389.769 -3.15025 2.33455 0
M  V30 4066 H 391.259 -3.84511 1.62913 0
M  V30 4067 N 391.696 -1.35014 -0.812953 0
M  V30 4068 C 392.659 -1.27292 -1.90602 0
M  V30 4069 C 393.659 -0.185817 -1.59723 0
M  V30 4070 O 394.849 -0.439102 -1.68575 0
M  V30 4071 C 391.981 -0.967676 -3.26877 0
M  V30 4072 H 393.174 -2.24479 -1.9887 0
M  V30 4073 H 390.727 -1.19446 -1.00808 0
M  V30 4074 H 391.462 0.0005954 -3.243 0
M  V30 4075 H 391.247 -1.75412 -3.50675 0
M  V30 4076 H 392.737 -0.939085 -4.06904 0
M  V30 4077 N 393.175 1.03435 -1.18907 0
M  V30 4078 C 394.591 1.28973 -0.940111 0
M  V30 4079 C 394.791 1.97676 0.390691 0
M  V30 4080 O 393.847 2.26127 1.12352 0
M  V30 4081 C 395.16 2.14221 -2.11021 0
M  V30 4082 C 396.708 2.27547 -2.14922 0
M  V30 4083 C 397.183 3.16164 -3.31367 0
M  V30 4084 N 398.674 3.23752 -3.31269 0
M  V30 4085 C 399.409 3.92495 -4.18014 0
M  V30 4086 N 398.905 4.63515 -5.14904 0
M  V30 4087 N 400.698 3.88838 -4.05908 0
M  V30 4088 H 392.849 0.57252 -2.04538 0
M  V30 4089 H 395.112 0.315184 -0.894071 0
M  V30 4090 H 394.818 1.71054 -3.073 0
M  V30 4091 H 394.692 3.14919 -2.0762 0
M  V30 4092 H 397.079 2.69947 -1.19217 0
M  V30 4093 H 397.16 1.26418 -2.22378 0
M  V30 4094 H 396.804 2.74474 -4.27348 0
M  V30 4095 H 396.734 4.17339 -3.21148 0
M  V30 4096 H 399.225 2.73167 -2.61129 0
M  V30 4097 H 399.538 5.13583 -5.77453 0
M  V30 4098 H 397.883 4.62398 -5.18857 0
M  V30 4099 H 401.074 3.32491 -3.29495 0
M  V30 4100 H 401.247 4.4214 -4.73726 0
M  V30 4101 N 394.653 0.992116 1.22453 0
M  V30 4102 C 395.616 0.546883 2.2258 0
M  V30 4103 C 396.616 -0.369829 1.56489 0
M  V30 4104 O 397.806 -0.161896 1.73446 0
M  V30 4105 C 394.938 -0.204659 3.40285 0
M  V30 4106 H 396.131 1.43234 2.63484 0
M  V30 4107 H 393.684 0.779239 1.3549 0
M  V30 4108 H 394.419 -1.10614 3.04853 0
M  V30 4109 H 394.204 0.45354 3.89468 0
M  V30 4110 H 395.694 -0.504358 4.14543 0
M  V30 4111 N 396.131 -1.37776 0.765217 0
M  V30 4112 C 397.379 -1.99454 0.325943 0
M  V30 4113 C 397.7 -1.61049 -1.09947 0
M  V30 4114 O 396.97 -0.872821 -1.75381 0
M  V30 4115 H 395.55 -0.737697 0.117525 0
M  V30 4116 H 398.212 -1.68359 0.981895 0
M  V30 4117 H 397.308 -3.09547 0.398353 0
M  V30 4118 N 397.609 -0.515225 -1.4894 0
M  V30 4119 C 398.519 0.259774 -2.33157 0
M  V30 4120 C 399.535 0.953501 -1.45548 0
M  V30 4121 O 400.711 0.931735 -1.78552 0
M  V30 4122 C 397.776 1.30193 -3.21326 0
M  V30 4123 C 396.837 0.620129 -4.24797 0
M  V30 4124 C 396.07 1.61263 -5.08753 0
M  V30 4125 O 396.293 2.84389 -4.94448 0
M  V30 4126 O 395.227 1.16013 -5.90614 0
M  V30 4127 H 399.053 -0.429932 -3.00641 0
M  V30 4128 H 396.638 -0.276346 -1.46822 0
M  V30 4129 H 398.52 1.90455 -3.75905 0
M  V30 4130 H 397.195 1.97431 -2.56521 0
M  V30 4131 H 396.102 -0.0226019 -3.74093 0
M  V30 4132 H 397.435 -0.0100493 -4.92199 0
M  V30 4133 N 399.087 1.5561 -0.249682 0
M  V30 4134 C 400.336 1.98187 0.37479 0
M  V30 4135 C 400.649 1.14111 1.58865 0
M  V30 4136 O 401.855 1.46714 2.28445 0
M  V30 4137 C 400.311 3.52661 0.718192 0
M  V30 4138 C 399.919 4.45481 -0.474428 0
M  V30 4139 C 401.663 4.03888 1.3067 0
M  V30 4140 C 399.57 5.91303 -0.107026 0
M  V30 4141 H 398.5 0.740159 0.143808 0
M  V30 4142 H 401.151 1.80125 -0.350336 0
M  V30 4143 H 399.533 3.66429 1.50152 0
M  V30 4144 H 400.707 4.43473 -1.25172 0
M  V30 4145 H 399.022 4.04751 -0.978052 0
M  V30 4146 H 401.619 5.10358 1.59496 0
M  V30 4147 H 401.962 3.51401 2.23211 0
M  V30 4148 H 402.495 3.93457 0.586211 0
M  V30 4149 H 399.234 6.47833 -0.999642 0
M  V30 4150 H 398.754 5.9644 0.634013 0
M  V30 4151 H 400.433 6.46258 0.309807 0
M  V30 4152 N 400.565 -0.0233959 1.57583 0
M  V30 4153 C 401.842 -0.748794 1.807 0
M  V30 4154 C 402.222 -1.9327 0.849106 0
M  V30 4155 O 401.57 -2.28247 -0.107468 0
M  V30 4156 C 401.78 -1.17651 3.28571 0
M  V30 4157 C 403.128 -1.59008 3.93702 0
M  V30 4158 O 404.152 -1.27094 3.32755 0
M  V30 4159 O 403.011 -2.18264 5.01022 0
M  V30 4160 H 400.105 -0.362578 0.743281 0
M  V30 4161 H 402.651 0.000261958 1.697 0
M  V30 4162 H 401.423 -0.331603 3.89892 0
M  V30 4163 H 401.046 -1.98541 3.44481 0
M  V30 4164 N 402.043 -1.548 -0.295768 0
M  V30 4165 C 403.268 -1.78653 -1.05346 0
M  V30 4166 C 403.693 -0.546894 -1.79974 0
M  V30 4167 O 403.051 0.502763 -1.7419 0
M  V30 4168 C 403.099 -2.99679 -2.00561 0
M  V30 4169 O 402.203 -2.7317 -3.08953 0
M  V30 4170 H 401.544 -0.59116 -0.302367 0
M  V30 4171 H 404.074 -2.01895 -0.331598 0
M  V30 4172 H 404.084 -3.27793 -2.42932 0
M  V30 4173 H 402.759 -3.89562 -1.4565 0
M  V30 4174 H 401.336 -2.56089 -2.71059 0
M  V30 4175 N 403.521 0.559213 -1.47345 0
M  V30 4176 C 404.471 1.66192 -1.5609 0
M  V30 4177 C 405.455 1.55323 -0.419957 0
M  V30 4178 O 406.647 1.63839 -0.669762 0
M  V30 4179 C 403.776 3.0497 -1.57634 0
M  V30 4180 C 402.862 3.2105 -2.77106 0
M  V30 4181 N 403.253 3.07203 -4.01821 0
M  V30 4182 C 401.551 3.52046 -2.73825 0
M  V30 4183 C 402.252 3.25919 -4.81821 0
M  V30 4184 N 401.228 3.52161 -4.14106 0
M  V30 4185 H 405.03 1.54052 -2.5029 0
M  V30 4186 H 402.544 0.763914 -1.43311 0
M  V30 4187 H 404.541 3.84142 -1.61989 0
M  V30 4188 H 403.201 3.18224 -0.645281 0
M  V30 4189 H 404.212 2.84572 -4.32711 0
M  V30 4190 H 400.889 3.71839 -1.89848 0
M  V30 4191 H 402.279 3.20198 -5.90697 0
M  V30 4192 N 404.999 1.35443 0.805782 0
M  V30 4193 C 406.227 1.31878 1.59423 0
M  V30 4194 C 406.642 -0.103562 1.88516 0
M  V30 4195 O 405.999 -1.05575 1.48863 0
M  V30 4196 C 406.05 2.12426 2.92502 0
M  V30 4197 O 405.771 3.49115 2.6467 0
M  V30 4198 C 407.272 2.16455 3.86862 0
M  V30 4199 H 404.492 0.453002 0.495005 0
M  V30 4200 H 407.036 1.78309 1.00131 0
M  V30 4201 H 405.191 1.69593 3.48306 0
M  V30 4202 H 405.605 3.90957 3.49647 0
M  V30 4203 H 407.079 2.77204 4.77349 0
M  V30 4204 H 407.556 1.16352 4.23508 0
M  V30 4205 H 408.162 2.59453 3.36993 0
M  V30 4206 N 406.477 -1.02803 1.19454 0
M  V30 4207 C 407.723 -1.76478 0.999171 0
M  V30 4208 C 408.056 -1.88456 -0.468828 0
M  V30 4209 O 407.331 -1.40198 -1.34814 0
M  V30 4210 C 407.614 -3.19044 1.66981 0
M  V30 4211 C 407.467 -3.14932 3.21151 0
M  V30 4212 C 408.786 -4.17456 1.39349 0
M  V30 4213 H 405.905 -0.640614 0.364393 0
M  V30 4214 H 408.547 -1.20005 1.47305 0
M  V30 4215 H 406.697 -3.67263 1.2669 0
M  V30 4216 H 408.369 -2.74605 3.70661 0
M  V30 4217 H 406.612 -2.52625 3.52652 0
M  V30 4218 H 407.283 -4.1566 3.63223 0
M  V30 4219 H 409.759 -3.77842 1.74283 0
M  V30 4220 H 408.635 -5.154 1.88823 0
M  V30 4221 H 408.896 -4.40949 0.318813 0
M  V30 4222 N 407.956 -0.998596 -1.21925 0
M  V30 4223 C 409.186 -0.695276 -1.94549 0
M  V30 4224 C 409.594 0.745079 -1.73911 0
M  V30 4225 O 408.937 1.51507 -1.03881 0
M  V30 4226 C 408.999 -0.928485 -3.47303 0
M  V30 4227 C 408.663 -2.35443 -3.91683 0
M  V30 4228 C 409.66 -3.33428 -3.98901 0
M  V30 4229 C 407.345 -2.69038 -4.24174 0
M  V30 4230 C 409.339 -4.63079 -4.37992 0
M  V30 4231 C 407.026 -3.98906 -4.62944 0
M  V30 4232 C 408.024 -4.95738 -4.69822 0
M  V30 4233 O 407.712 -6.23285 -5.07711 0
M  V30 4234 H 407.444 -0.255902 -0.625692 0
M  V30 4235 H 409.998 -1.33767 -1.5587 0
M  V30 4236 H 408.228 -0.228917 -3.86022 0
M  V30 4237 H 409.917 -0.619539 -4.01144 0
M  V30 4238 H 410.683 -3.08807 -3.73983 0
M  V30 4239 H 406.562 -1.94367 -4.18022 0
M  V30 4240 H 410.106 -5.38658 -4.43275 0
M  V30 4241 H 406.003 -4.23314 -4.87314 0
M  V30 4242 H 406.771 -6.27306 -5.25766 0
M  V30 4243 N 409.434 1.37368 -0.772513 0
M  V30 4244 C 410.682 1.99279 -0.336516 0
M  V30 4245 C 411.003 1.6163 1.09091 0
M  V30 4246 O 410.273 0.882109 1.74916 0
M  V30 4247 H 408.853 0.737063 -0.121435 0
M  V30 4248 H 411.515 1.67836 -0.990809 0
M  V30 4249 H 410.611 3.09332 -0.414763 0
M  V30 4250 N 410.912 0.523116 1.48665 0
M  V30 4251 C 411.842 -0.23231 2.32342 0
M  V30 4252 C 412.823 -0.941637 1.41659 0
M  V30 4253 O 414.008 -0.928751 1.70552 0
M  V30 4254 C 411.138 -1.28387 3.22698 0
M  V30 4255 C 410.092 -0.693098 4.22351 0
M  V30 4256 C 409.418 -1.8468 5.01794 0
M  V30 4257 C 410.718 0.33063 5.21252 0
M  V30 4258 H 412.412 0.466192 2.95748 0
M  V30 4259 H 409.958 0.225643 1.42221 0
M  V30 4260 H 411.911 -1.82024 3.80059 0
M  V30 4261 H 410.635 -2.01186 2.57278 0
M  V30 4262 H 409.294 -0.178299 3.66166 0
M  V30 4263 H 408.942 -2.56301 4.32804 0
M  V30 4264 H 408.642 -1.45747 5.69238 0
M  V30 4265 H 410.166 -2.38709 5.62006 0
M  V30 4266 H 411.58 -0.118407 5.73178 0
M  V30 4267 H 409.977 0.636974 5.9671 0
M  V30 4268 H 411.047 1.23883 4.68808 0
M  V30 4269 N 412.39 -1.55475 0.257931 0
M  V30 4270 C 413.637 -1.99207 -0.363728 0
M  V30 4271 C 413.965 -1.1462 -1.57139 0
M  V30 4272 O 413.22 -0.199653 -1.94679 0
M  V30 4273 C 413.519 -3.48183 -0.806433 0
M  V30 4274 C 413.185 -4.49936 0.294684 0
M  V30 4275 C 411.847 -4.77481 0.597076 0
M  V30 4276 C 414.199 -5.10769 1.03751 0
M  V30 4277 C 411.527 -5.63132 1.64618 0
M  V30 4278 C 413.879 -5.97558 2.07622 0
M  V30 4279 C 412.543 -6.23432 2.38514 0
M  V30 4280 H 411.813 -0.728949 -0.133097 0
M  V30 4281 H 414.46 -1.8793 0.368059 0
M  V30 4282 H 412.765 -3.56848 -1.61761 0
M  V30 4283 H 414.462 -3.79415 -1.29789 0
M  V30 4284 H 411.052 -4.28572 0.0488649 0
M  V30 4285 H 415.236 -4.89527 0.817149 0
M  V30 4286 H 410.492 -5.8143 1.89074 0
M  V30 4287 H 414.666 -6.43735 2.65666 0
M  V30 4288 H 412.293 -6.89594 3.19943 0
M  V30 4289 N 413.868 0.0150385 -1.57593 0
M  V30 4290 C 415.093 0.718067 -1.94573 0
M  V30 4291 C 415.518 1.6734 -0.859005 0
M  V30 4292 O 414.876 1.80362 0.184147 0
M  V30 4293 C 414.924 1.43918 -3.30636 0
M  V30 4294 O 414.028 2.55299 -3.23876 0
M  V30 4295 H 413.369 0.192125 -0.635597 0
M  V30 4296 H 415.899 -0.0336708 -2.04572 0
M  V30 4297 H 415.909 1.80598 -3.65853 0
M  V30 4298 H 414.584 0.738619 -4.09289 0
M  V30 4299 H 413.161 2.21058 -3.00312 0
M  V30 4300 N 415.346 1.54954 0.287554 0
M  V30 4301 C 416.309 1.86076 1.33823 0
M  V30 4302 C 417.309 0.734414 1.43049 0
M  V30 4303 O 418.499 1.00266 1.42452 0
M  V30 4304 C 415.631 2.05305 2.72144 0
M  V30 4305 H 416.824 2.79984 1.07465 0
M  V30 4306 H 414.377 1.47223 0.524902 0
M  V30 4307 H 415.112 1.1373 3.03704 0
M  V30 4308 H 414.897 2.873 2.66836 0
M  V30 4309 H 416.387 2.30706 3.48087 0
M  V30 4310 N 416.824 -0.551391 1.4764 0
M  V30 4311 C 418.072 -1.30572 1.54258 0
M  V30 4312 C 418.393 -1.93877 0.208963 0
M  V30 4313 O 417.663 -1.80234 -0.767619 0
M  V30 4314 H 416.243 -0.484894 0.568231 0
M  V30 4315 H 418.905 -0.643402 1.83974 0
M  V30 4316 H 418.001 -2.09621 2.31226 0
M  V30 4317 N 418.302 -1.35869 -0.798587 0
M  V30 4318 C 419.551 -1.28921 -1.5512 0
M  V30 4319 C 419.864 0.13208 -1.95154 0
M  V30 4320 O 421.07 0.323879 -2.69561 0
M  V30 4321 C 419.526 -2.26141 -2.79979 0
M  V30 4322 C 419.134 -3.73658 -2.47151 0
M  V30 4323 C 420.878 -2.28152 -3.57976 0
M  V30 4324 C 418.785 -4.62679 -3.6835 0
M  V30 4325 H 417.715 -0.479031 -0.582276 0
M  V30 4326 H 420.366 -1.61179 -0.877125 0
M  V30 4327 H 418.748 -1.86865 -3.49138 0
M  V30 4328 H 419.922 -4.21616 -1.85947 0
M  V30 4329 H 418.237 -3.74333 -1.82383 0
M  V30 4330 H 420.834 -2.91875 -4.4801 0
M  V30 4331 H 421.177 -1.28748 -3.95891 0
M  V30 4332 H 421.71 -2.65998 -2.95787 0
M  V30 4333 H 418.449 -5.63111 -3.35538 0
M  V30 4334 H 417.969 -4.19442 -4.28752 0
M  V30 4335 H 419.648 -4.78498 -4.35487 0
M  V30 4336 N 419.78 1.02168 -1.19998 0
M  V30 4337 C 421.028 1.75338 -1.00504 0
M  V30 4338 C 421.349 1.89387 0.464506 0
M  V30 4339 O 420.619 1.43268 1.33608 0
M  V30 4340 H 419.199 0.649564 -0.368885 0
M  V30 4341 H 421.861 1.23205 -1.51018 0
M  V30 4342 H 420.957 2.75892 -1.45912 0
M  V30 4343 N 421.258 1.00505 1.21394 0
M  V30 4344 C 422.188 0.585684 2.26035 0
M  V30 4345 C 423.169 -0.393525 1.65485 0
M  V30 4346 O 424.354 -0.281497 1.92149 0
M  V30 4347 C 421.484 -0.0884283 3.47187 0
M  V30 4348 C 420.438 0.810567 4.20254 0
M  V30 4349 C 419.764 0.00286382 5.347 0
M  V30 4350 C 421.064 2.1132 4.77641 0
M  V30 4351 H 422.758 1.46039 2.61368 0
M  V30 4352 H 420.304 0.703648 1.25638 0
M  V30 4353 H 422.257 -0.393286 4.19561 0
M  V30 4354 H 420.981 -0.997766 3.10986 0
M  V30 4355 H 419.64 1.09925 3.49731 0
M  V30 4356 H 419.288 -0.907765 4.94741 0
M  V30 4357 H 418.988 0.601444 5.84514 0
M  V30 4358 H 420.512 -0.295808 6.09883 0
M  V30 4359 H 421.926 1.87148 5.41893 0
M  V30 4360 H 420.323 2.66164 5.37845 0
M  V30 4361 H 421.393 2.78393 3.9702 0
M  V30 4362 N 422.737 -1.36956 0.779787 0
M  V30 4363 C 423.687 -2.27539 0.144892 0
M  V30 4364 C 424.671 -1.46493 -0.665488 0
M  V30 4365 O 425.863 -1.68968 -0.527141 0
M  V30 4366 C 422.992 -3.35512 -0.727082 0
M  V30 4367 C 422.078 -4.24001 0.0915642 0
M  V30 4368 N 422.469 -4.92757 1.14125 0
M  V30 4369 C 420.767 -4.45807 -0.131141 0
M  V30 4370 C 421.468 -5.58138 1.6388 0
M  V30 4371 N 420.444 -5.35241 0.94962 0
M  V30 4372 H 424.246 -2.78176 0.948446 0
M  V30 4373 H 421.76 -1.50169 0.618315 0
M  V30 4374 H 423.757 -3.99324 -1.19776 0
M  V30 4375 H 422.417 -2.86431 -1.52929 0
M  V30 4376 H 423.428 -4.94984 1.52353 0
M  V30 4377 H 420.105 -4.07582 -0.904621 0
M  V30 4378 H 421.495 -6.23071 2.51461 0
M  V30 4379 N 424.215 -0.530993 -1.48385 0
M  V30 4380 C 425.443 -0.00134122 -2.069 0
M  V30 4381 C 425.858 1.2805 -1.3874 0
M  V30 4382 O 425.215 1.76204 -0.475244 0
M  V30 4383 C 425.266 0.225256 -3.60798 0
M  V30 4384 O 424.987 -1.0058 -4.26398 0
M  V30 4385 C 426.488 0.795172 -4.3611 0
M  V30 4386 H 423.708 -0.0339704 -0.67014 0
M  V30 4387 H 426.252 -0.736926 -1.90761 0
M  V30 4388 H 424.407 0.910891 -3.76539 0
M  V30 4389 H 424.821 -0.787165 -5.1856 0
M  V30 4390 H 426.295 0.903143 -5.44562 0
M  V30 4391 H 426.772 1.80031 -4.00606 0
M  V30 4392 H 427.378 0.146069 -4.25049 0
M  V30 4393 N 425.693 1.55336 -0.266172 0
M  V30 4394 C 426.94 1.99397 0.353158 0
M  V30 4395 C 427.268 1.15451 1.56529 0
M  V30 4396 O 426.523 0.209974 1.9457 0
M  V30 4397 C 426.822 3.48606 0.787957 0
M  V30 4398 C 426.488 4.49773 -0.318541 0
M  V30 4399 C 425.15 4.77158 -0.62239 0
M  V30 4400 C 427.502 5.10212 -1.06459 0
M  V30 4401 C 424.83 5.62251 -1.67602 0
M  V30 4402 C 427.182 5.96449 -2.10788 0
M  V30 4403 C 425.846 6.22158 -2.41817 0
M  V30 4404 H 425.116 0.729644 0.12923 0
M  V30 4405 H 427.763 1.87732 -0.37802 0
M  V30 4406 H 426.068 3.57701 1.59866 0
M  V30 4407 H 427.765 3.80098 1.27775 0
M  V30 4408 H 424.355 4.2854 -0.0715925 0
M  V30 4409 H 428.539 4.89086 -0.843098 0
M  V30 4410 H 423.795 5.80419 -1.92155 0
M  V30 4411 H 427.969 6.42317 -2.69076 0
M  V30 4412 H 425.596 6.87888 -3.23596 0
M  V30 4413 N 427.171 -0.0066808 1.57599 0
M  V30 4414 C 428.401 -0.703066 1.94269 0
M  V30 4415 C 428.809 -1.68206 0.866222 0
M  V30 4416 O 428.152 -1.82966 -0.164087 0
M  V30 4417 C 428.214 -1.49616 3.26887 0
M  V30 4418 C 427.878 -0.679494 4.5192 0
M  V30 4419 C 428.875 0.0299508 5.19891 0
M  V30 4420 C 426.56 -0.627433 4.98366 0
M  V30 4421 C 428.554 0.780514 6.32603 0
M  V30 4422 C 426.241 0.126861 6.10968 0
M  V30 4423 C 427.239 0.829574 6.77943 0
M  V30 4424 O 426.927 1.57157 7.88389 0
M  V30 4425 H 426.659 -0.201217 0.645359 0
M  V30 4426 H 429.213 0.0385326 2.05364 0
M  V30 4427 H 427.443 -2.28209 3.12182 0
M  V30 4428 H 429.132 -2.07726 3.48719 0
M  V30 4429 H 429.898 -0.00115963 4.85 0
M  V30 4430 H 425.777 -1.16392 4.46065 0
M  V30 4431 H 429.321 1.32954 6.84813 0
M  V30 4432 H 425.218 0.159815 6.45302 0
M  V30 4433 H 425.986 1.48758 8.04868 0
M  V30 4434 N 428.649 -1.55105 -0.279332 0
M  V30 4435 C 429.579 -1.90557 -1.34945 0
M  V30 4436 C 430.56 -0.766738 -1.51839 0
M  V30 4437 O 431.745 -1.02434 -1.64988 0
M  V30 4438 C 428.875 -2.17193 -2.71006 0
M  V30 4439 C 427.829 -3.33021 -2.68851 0
M  V30 4440 C 427.155 -3.45123 -4.08405 0
M  V30 4441 C 428.455 -4.69578 -2.28678 0
M  V30 4442 H 430.149 -2.80188 -1.05522 0
M  V30 4443 H 427.695 -1.34811 -0.506173 0
M  V30 4444 H 429.648 -2.40581 -3.45975 0
M  V30 4445 H 428.372 -1.24355 -3.01999 0
M  V30 4446 H 427.031 -3.0959 -1.9634 0
M  V30 4447 H 426.679 -2.49762 -4.3661 0
M  V30 4448 H 426.379 -4.22995 -4.07859 0
M  V30 4449 H 427.903 -3.70796 -4.85121 0
M  V30 4450 H 429.317 -4.92553 -2.93368 0
M  V30 4451 H 427.714 -5.5032 -2.39306 0
M  V30 4452 H 428.784 -4.68828 -1.23807 0
M  V30 4453 N 430.127 0.543554 -1.4793 0
M  V30 4454 C 431.375 1.29752 -1.54948 0
M  V30 4455 C 431.696 1.93764 -0.219242 0
M  V30 4456 O 430.966 1.80639 0.75805 0
M  V30 4457 H 429.546 0.481874 -0.570795 0
M  V30 4458 H 432.208 0.633636 -1.84312 0
M  V30 4459 H 431.304 2.08392 -2.32334 0
M  V30 4460 N 431.605 1.3629 0.791371 0
M  V30 4461 C 432.535 1.33137 1.91825 0
M  V30 4462 C 433.516 0.203168 1.68882 0
M  V30 4463 O 434.701 0.400509 1.90025 0
M  V30 4464 C 431.831 1.11793 3.28816 0
M  V30 4465 C 430.785 2.21417 3.66277 0
M  V30 4466 C 430.111 1.85218 5.01596 0
M  V30 4467 C 431.411 3.63489 3.75064 0
M  V30 4468 H 433.105 2.2743 1.9472 0
M  V30 4469 H 430.651 1.09479 0.935437 0
M  V30 4470 H 432.604 1.08222 4.07266 0
M  V30 4471 H 431.328 0.139501 3.26302 0
M  V30 4472 H 429.987 2.2411 2.90121 0
M  V30 4473 H 429.635 0.859544 4.95602 0
M  V30 4474 H 429.335 2.58611 5.27631 0
M  V30 4475 H 430.859 1.832 5.82469 0
M  V30 4476 H 432.273 3.63034 4.43711 0
M  V30 4477 H 430.67 4.35771 4.12582 0
M  V30 4478 H 431.74 3.98536 2.76219 0
M  V30 4479 N 433.083 -1.0153 1.20538 0
M  V30 4480 C 434.015 -2.10224 0.913155 0
M  V30 4481 C 435.028 -1.62495 -0.0995998 0
M  V30 4482 O 436.217 -1.78014 0.131582 0
M  V30 4483 C 433.317 -3.37111 0.347717 0
M  V30 4484 C 432.49 -4.13971 1.41233 0
M  V30 4485 C 431.549 -5.19158 0.857976 0
M  V30 4486 O 430.575 -5.48 1.53897 0
M  V30 4487 N 431.777 -5.7955 -0.331966 0
M  V30 4488 H 434.542 -2.35879 1.84881 0
M  V30 4489 H 432.103 -1.17931 1.10923 0
M  V30 4490 H 434.095 -4.04683 -0.0373026 0
M  V30 4491 H 432.665 -3.08696 -0.492527 0
M  V30 4492 H 431.885 -3.41351 1.97163 0
M  V30 4493 H 433.173 -4.62103 2.12928 0
M  V30 4494 H 432.571 -5.58455 -0.902478 0
M  V30 4495 H 431.128 -6.48464 -0.65861 0
M  V30 4496 N 434.561 -1.01147 -1.20859 0
M  V30 4497 C 435.508 -0.577354 -2.23462 0
M  V30 4498 C 436.478 0.399922 -1.61214 0
M  V30 4499 O 437.663 0.300515 -1.88419 0
M  V30 4500 C 434.803 0.083372 -3.44999 0
M  V30 4501 C 433.916 -0.937856 -4.21697 0
M  V30 4502 C 433.051 -0.248717 -5.30617 0
M  V30 4503 C 432.09 -1.25705 -5.99053 0
M  V30 4504 N 431.227 -0.594939 -6.99575 0
M  V30 4505 H 436.067 -1.45695 -2.59956 0
M  V30 4506 H 433.604 -0.729428 -1.27741 0
M  V30 4507 H 435.562 0.483535 -4.14388 0
M  V30 4508 H 434.192 0.926645 -3.09214 0
M  V30 4509 H 433.244 -1.45622 -3.51423 0
M  V30 4510 H 434.556 -1.70493 -4.68757 0
M  V30 4511 H 433.71 0.207215 -6.06346 0
M  V30 4512 H 432.449 0.55071 -4.84581 0
M  V30 4513 H 431.454 -1.72343 -5.2209 0
M  V30 4514 H 432.679 -2.05767 -6.47176 0
M  V30 4515 H 430.625 0.184713 -6.5574 0
M  V30 4516 H 430.542 -1.30017 -7.44736 0
M  V30 4517 H 431.81 -0.162427 -7.79331 0
M  V30 4518 N 436.039 1.36541 -0.78704 0
M  V30 4519 C 437.285 1.99599 -0.358872 0
M  V30 4520 C 437.618 1.62323 1.06606 0
M  V30 4521 O 436.893 0.876858 1.73613 0
M  V30 4522 C 437.176 3.56327 -0.519944 0
M  V30 4523 C 437.029 4.03464 -1.98839 0
M  V30 4524 C 438.348 4.4005 0.0664737 0
M  V30 4525 H 435.467 0.725107 -0.131869 0
M  V30 4526 H 438.109 1.6199 -0.992936 0
M  V30 4527 H 436.259 3.88495 0.0198321 0
M  V30 4528 H 437.931 3.81793 -2.58905 0
M  V30 4529 H 436.174 3.55092 -2.49183 0
M  V30 4530 H 436.845 5.12439 -2.05207 0
M  V30 4531 H 439.321 4.14228 -0.394267 0
M  V30 4532 H 438.197 5.48847 -0.0762682 0
M  V30 4533 H 438.458 4.26655 1.15835 0
M  V30 4534 N 437.518 0.538854 1.48102 0
M  V30 4535 C 438.766 0.00798599 2.02098 0
M  V30 4536 C 439.087 -1.33922 1.41739 0
M  V30 4537 O 438.357 -1.86932 0.585934 0
M  V30 4538 H 436.937 -3.62179e-05 0.747 0
M  V30 4539 H 439.599 0.7047 1.81714 0
M  V30 4540 H 438.695 -0.0937672 3.11959 0
M  V30 4541 N 438.996 -1.55193 0.274407 0
M  V30 4542 C 440.244 -1.99187 -0.341902 0
M  V30 4543 C 440.565 -1.16422 -1.56431 0
M  V30 4544 O 439.835 -0.253573 -1.94252 0
M  V30 4545 H 438.415 -0.735721 -0.129317 0
M  V30 4546 H 441.077 -1.91168 0.379578 0
M  V30 4547 H 440.173 -3.05629 -0.632253 0
M  V30 4548 N 440.474 -0.00167713 -1.576 0
M  V30 4549 C 441.751 0.719951 -1.81868 0
M  V30 4550 C 442.131 1.91895 -0.879747 0
M  V30 4551 O 441.479 2.28389 0.0711423 0
M  V30 4552 C 441.689 1.12409 -3.30402 0
M  V30 4553 C 443.037 1.52724 -3.96182 0
M  V30 4554 O 444.061 1.21784 -3.34734 0
M  V30 4555 O 442.92 2.10265 -5.04431 0
M  V30 4556 H 440.014 0.350707 -0.748955 0
M  V30 4557 H 442.56 -0.0272597 -1.69678 0
M  V30 4558 H 441.332 0.269532 -3.90371 0
M  V30 4559 H 440.955 1.93035 -3.47596 0
M  V30 4560 N 441.952 1.55251 0.271103 0
M  V30 4561 C 443.177 1.80306 1.02491 0
M  V30 4562 C 443.602 0.575457 1.79081 0
M  V30 4563 O 442.96 -0.474987 1.74967 0
M  V30 4564 C 443.008 3.02832 1.95768 0
M  V30 4565 O 442.112 2.78051 3.04568 0
M  V30 4566 H 441.453 0.595896 0.292923 0
M  V30 4567 H 443.983 2.02397 0.299436 0
M  V30 4568 H 443.993 3.31616 2.37686 0
M  V30 4569 H 442.668 3.9183 1.39434 0
M  V30 4570 H 441.245 2.60369 2.66951 0
M  V30 4571 N 443.43 -0.535701 1.48216 0
M  V30 4572 C 444.678 -1.28928 1.55634 0
M  V30 4573 C 444.999 -1.93645 0.229514 0
M  V30 4574 O 444.269 -1.81038 -0.74846 0
M  V30 4575 H 442.849 -0.47884 0.573342 0
M  V30 4576 H 445.511 -0.623853 1.84646 0
M  V30 4577 H 444.607 -2.07157 2.33436 0
M  V30 4578 N 444.908 -1.36708 -0.784132 0
M  V30 4579 C 446.154 -1.32433 -1.54379 0
M  V30 4580 C 446.509 0.0941816 -1.92169 0
M  V30 4581 O 445.802 1.04997 -1.60269 0
M  V30 4582 C 445.996 -2.18571 -2.82774 0
M  V30 4583 C 445.825 -3.68656 -2.57533 0
M  V30 4584 C 444.595 -4.37813 -2.52286 0
M  V30 4585 C 446.793 -4.61802 -2.2637 0
M  V30 4586 N 444.775 -5.7351 -2.18997 0
M  V30 4587 C 446.146 -5.85785 -2.03115 0
M  V30 4588 C 448.201 -4.50313 -2.12421 0
M  V30 4589 C 446.904 -6.99569 -1.67321 0
M  V30 4590 C 448.93 -5.63969 -1.78026 0
M  V30 4591 C 448.292 -6.86994 -1.55622 0
M  V30 4592 H 444.391 -0.539886 -0.565727 0
M  V30 4593 H 446.975 -1.71812 -0.915908 0
M  V30 4594 H 445.146 -1.81429 -3.43421 0
M  V30 4595 H 446.878 -2.05646 -3.48557 0
M  V30 4596 H 443.633 -3.90674 -2.67714 0
M  V30 4597 H 444.057 -6.45189 -2.05084 0
M  V30 4598 H 448.699 -3.55781 -2.28429 0
M  V30 4599 H 446.417 -7.94047 -1.5005 0
M  V30 4600 H 450.003 -5.57044 -1.67909 0
M  V30 4601 H 448.883 -7.7345 -1.294 0
M  V30 4602 N 446.386 1.0089 -1.21074 0
M  V30 4603 C 447.318 2.09737 -0.924291 0
M  V30 4604 C 448.331 1.62546 0.0909809 0
M  V30 4605 O 449.52 1.77942 -0.141021 0
M  V30 4606 C 446.62 3.36922 -0.36559 0
M  V30 4607 C 445.793 4.13216 -1.43426 0
M  V30 4608 C 444.852 5.18696 -0.885496 0
M  V30 4609 O 443.878 5.47176 -1.56801 0
M  V30 4610 N 445.08 5.79718 0.301227 0
M  V30 4611 H 447.845 2.34895 -1.8613 0
M  V30 4612 H 445.406 1.17341 -1.11546 0
M  V30 4613 H 447.398 4.04697 0.0158407 0
M  V30 4614 H 445.968 3.08952 0.476149 0
M  V30 4615 H 445.188 3.40301 -1.9897 0
M  V30 4616 H 446.476 4.60967 -2.15376 0
M  V30 4617 H 445.874 5.58926 0.872849 0
M  V30 4618 H 444.431 6.48804 0.624211 0
M  V30 4619 N 447.864 1.01787 1.20321 0
M  V30 4620 C 449.089 0.727009 1.9424 0
M  V30 4621 C 449.514 -0.706179 1.74341 0
M  V30 4622 O 448.872 -1.48609 1.03852 0
M  V30 4623 C 448.92 1.06958 3.44372 0
M  V30 4624 O 448.024 0.181983 4.11998 0
M  V30 4625 H 447.365 0.269626 0.606793 0
M  V30 4626 H 449.895 1.36158 1.52716 0
M  V30 4627 H 449.905 1.02182 3.94997 0
M  V30 4628 H 448.58 2.11378 3.58179 0
M  V30 4629 H 447.157 0.287378 3.71791 0
M  V30 4630 N 449.342 -1.36122 0.79427 0
M  V30 4631 C 450.588 -1.99406 0.369452 0
M  V30 4632 C 450.921 -1.62886 -1.05743 0
M  V30 4633 O 450.196 -0.886053 -1.73145 0
M  V30 4634 C 450.479 -3.56046 0.538833 0
M  V30 4635 C 450.332 -4.02404 2.00976 0
M  V30 4636 C 451.651 -4.40079 -0.0431359 0
M  V30 4637 H 448.77 -0.724397 0.135712 0
M  V30 4638 H 451.412 -1.61461 1.00151 0
M  V30 4639 H 449.562 -3.885 0.000771004 0
M  V30 4640 H 451.234 -3.80415 2.60926 0
M  V30 4641 H 449.477 -3.53765 2.51063 0
M  V30 4642 H 450.148 -5.11344 2.07922 0
M  V30 4643 H 452.624 -4.14013 0.416228 0
M  V30 4644 H 451.5 -5.48799 0.105374 0
M  V30 4645 H 451.761 -4.27264 -1.13571 0
M  V30 4646 N 450.82 -0.546701 -1.47814 0
M  V30 4647 C 452.05 -0.0232519 -2.06587 0
M  V30 4648 C 452.458 1.2712 -1.40133 0
M  V30 4649 O 451.801 1.77091 -0.488305 0
M  V30 4650 C 451.863 0.254117 -3.58601 0
M  V30 4651 C 451.527 -0.949331 -4.47031 0
M  V30 4652 C 452.524 -1.85216 -4.85789 0
M  V30 4653 C 450.209 -1.16104 -4.88697 0
M  V30 4654 C 452.203 -2.95047 -5.65001 0
M  V30 4655 C 449.89 -2.26247 -5.67676 0
M  V30 4656 C 450.888 -3.1555 -6.05737 0
M  V30 4657 O 450.576 -4.23784 -6.83127 0
M  V30 4658 H 450.308 -0.0380082 -0.674931 0
M  V30 4659 H 452.862 -0.756631 -1.90956 0
M  V30 4660 H 451.092 1.04168 -3.72406 0
M  V30 4661 H 452.781 0.72167 -3.99433 0
M  V30 4662 H 453.547 -1.70061 -4.54207 0
M  V30 4663 H 449.426 -0.475159 -4.58545 0
M  V30 4664 H 452.97 -3.64778 -5.94628 0
M  V30 4665 H 448.867 -2.41379 -5.98671 0
M  V30 4666 H 449.635 -4.21701 -7.01506 0
M  V30 4667 N 452.299 1.55045 -0.282633 0
M  V30 4668 C 453.547 1.99365 0.331334 0
M  V30 4669 C 453.868 1.1725 1.55812 0
M  V30 4670 O 453.138 0.263871 1.94115 0
M  V30 4671 H 451.718 0.736397 0.125414 0
M  V30 4672 H 454.38 1.90964 -0.389711 0
M  V30 4673 H 453.476 3.0596 0.616036 0
M  V30 4674 N 453.777 0.010035 1.57597 0
M  V30 4675 C 455.002 -0.687021 1.95691 0
M  V30 4676 C 455.427 -1.65952 0.885519 0
M  V30 4677 O 454.785 -1.80633 -0.15543 0
M  V30 4678 C 454.833 -1.3864 3.32884 0
M  V30 4679 O 453.937 -2.50115 3.27897 0
M  V30 4680 H 453.278 -0.181989 0.638573 0
M  V30 4681 H 455.808 0.0662122 2.04493 0
M  V30 4682 H 455.818 -1.74754 3.6868 0
M  V30 4683 H 454.493 -0.673411 4.10412 0
M  V30 4684 H 453.07 -2.16253 3.03791 0
M  V30 4685 N 455.255 -1.55392 -0.262866 0
M  V30 4686 C 456.48 -1.80847 -1.01533 0
M  V30 4687 C 456.905 -0.584946 -1.78774 0
M  V30 4688 O 456.263 0.465701 -1.75217 0
M  V30 4689 C 456.311 -3.03866 -1.94159 0
M  V30 4690 O 455.415 -2.79662 -3.03089 0
M  V30 4691 H 454.756 -0.597441 -0.289759 0
M  V30 4692 H 457.286 -2.02553 -0.288698 0
M  V30 4693 H 457.296 -3.32872 -2.35924 0
M  V30 4694 H 455.971 -3.92564 -1.37354 0
M  V30 4695 H 454.548 -2.61781 -2.65566 0
M  V30 4696 N 456.733 0.527833 -1.48498 0
M  V30 4697 C 457.981 1.28101 -1.56316 0
M  V30 4698 C 458.302 1.9352 -0.239781 0
M  V30 4699 O 457.572 1.81433 0.738849 0
M  V30 4700 H 456.152 0.475793 -0.575873 0
M  V30 4701 H 458.814 0.614052 -1.84974 0
M  V30 4702 H 457.91 2.05916 -2.34532 0
M  V30 4703 N 458.211 1.37122 0.776871 0
M  V30 4704 C 459.627 1.1781 1.07671 0
M  V30 4705 C 459.827 0.0107454 2.01497 0
M  V30 4706 O 458.883 -0.650756 2.4397 0
M  V30 4707 C 460.196 2.49451 1.67913 0
M  V30 4708 C 461.744 2.55927 1.80195 0
M  V30 4709 C 462.219 3.87686 2.43851 0
M  V30 4710 N 463.71 3.891 2.51307 0
M  V30 4711 C 464.445 4.87797 3.014 0
M  V30 4712 N 463.941 5.96888 3.51705 0
M  V30 4713 N 465.734 4.75205 3.00227 0
M  V30 4714 H 457.885 2.11843 0.153778 0
M  V30 4715 H 460.148 0.938927 0.130844 0
M  V30 4716 H 459.854 3.35207 1.06439 0
M  V30 4717 H 459.728 2.66169 2.67271 0
M  V30 4718 H 462.115 1.70582 2.40803 0
M  V30 4719 H 462.196 2.43097 0.796069 0
M  V30 4720 H 461.84 4.73444 1.83884 0
M  V30 4721 H 461.77 3.97817 3.45035 0
M  V30 4722 H 464.261 3.10293 2.157 0
M  V30 4723 H 464.574 6.68155 3.88316 0
M  V30 4724 H 462.919 6.0054 3.49824 0
M  V30 4725 H 466.11 3.89103 2.60224 0
M  V30 4726 H 466.283 5.52279 3.38957 0
M  V30 4727 N 459.689 -1.00246 1.21608 0
M  V30 4728 C 460.914 -1.78167 1.06167 0
M  V30 4729 C 461.339 -1.84138 -0.384035 0
M  V30 4730 O 460.697 -1.28683 -1.27712 0
M  V30 4731 C 460.745 -3.19786 1.66642 0
M  V30 4732 O 459.849 -4.02153 0.913613 0
M  V30 4733 H 459.19 -0.549 0.37349 0
M  V30 4734 H 461.72 -1.25994 1.61204 0
M  V30 4735 H 461.73 -3.70451 1.70969 0
M  V30 4736 H 460.405 -3.14754 2.7185 0
M  V30 4737 H 458.982 -3.60711 0.945635 0
M  V30 4738 N 461.167 -1.02423 -1.1978 0
M  V30 4739 C 462.1 -0.545641 -2.21581 0
M  V30 4740 C 463.078 0.411024 -1.57319 0
M  V30 4741 O 464.262 0.329223 -1.85603 0
M  V30 4742 C 461.389 0.204973 -3.38079 0
M  V30 4743 C 460.435 -0.70241 -4.20676 0
M  V30 4744 S 461.268 -2.17595 -4.89298 0
M  V30 4745 C 462.424 -1.43572 -6.09211 0
M  V30 4746 H 462.657 -1.4082 -2.61834 0
M  V30 4747 H 460.19 -0.833771 -1.29952 0
M  V30 4748 H 462.148 0.631924 -4.05607 0
M  V30 4749 H 460.809 1.0432 -2.9627 0
M  V30 4750 H 460.002 -0.123193 -5.03849 0
M  V30 4751 H 459.604 -1.06747 -3.58442 0
M  V30 4752 H 461.896 -0.719806 -6.73665 0
M  V30 4753 H 462.839 -2.24388 -6.71607 0
M  V30 4754 H 463.247 -0.935252 -5.56699 0
M  V30 4755 N 462.645 1.35699 -0.801477 0
M  V30 4756 C 463.893 1.9852 -0.37871 0
M  V30 4757 C 464.214 1.63907 1.05638 0
M  V30 4758 O 463.484 0.919013 1.73006 0
M  V30 4759 H 462.064 0.734322 -0.137042 0
M  V30 4760 H 464.726 1.65697 -1.02619 0
M  V30 4761 H 463.822 3.08382 -0.480284 0
M  V30 4762 N 464.123 0.554532 1.47522 0
M  V30 4763 C 465.071 -0.207765 2.3167 0
M  V30 4764 C 466.065 -0.911914 1.4276 0
M  V30 4765 O 467.271 -0.833504 1.59539 0
M  V30 4766 H 463.646 -0.0858726 0.747081 0
M  V30 4767 H 465.617 0.521178 2.93813 0
M  V30 4768 C 464.366 -1.2263 3.25357 0
M  V30 4769 H 463.689 -0.693887 3.93732 0
M  V30 4770 H 465.129 -1.73062 3.87073 0
M  V30 4771 C 463.588 -2.27278 2.4869 0
M  V30 4772 O 464.118 -3.34156 2.22941 0
M  V30 4773 N 462.324 -2.01134 2.09746 0
M  V30 4774 H 461.871 -1.14232 2.30887 0
M  V30 4775 H 461.829 -2.71369 1.58765 0
M  V30 4776 N 465.601 -1.54893 0.290851 0
M  V30 4777 C 466.878 -1.91991 -0.373989 0
M  V30 4778 C 467.258 -1.21694 -1.72493 0
M  V30 4779 O 466.606 -0.34917 -2.25816 0
M  V30 4780 C 466.816 -3.45419 -0.498703 0
M  V30 4781 C 468.164 -4.1748 -0.774298 0
M  V30 4782 O 469.188 -3.51398 -0.582908 0
M  V30 4783 O 468.047 -5.3445 -1.14129 0
M  V30 4784 H 465.141 -0.800593 -0.207315 0
M  V30 4785 H 467.687 -1.66297 0.338164 0
M  V30 4786 H 466.459 -3.88688 0.451392 0
M  V30 4787 H 466.082 -3.77117 -1.25972 0
M  V30 4788 N 467.08 -0.0183926 -1.57589 0
M  V30 4789 C 468.013 1.00148 -2.0505 0
M  V30 4790 C 468.991 1.32387 -0.944058 0
M  V30 4791 O 470.175 1.44237 -1.21358 0
M  V30 4792 C 467.302 2.32435 -2.46357 0
M  V30 4793 C 466.348 2.15731 -3.67916 0
M  V30 4794 S 467.181 1.46613 -5.15039 0
M  V30 4795 C 468.337 2.80293 -5.59631 0
M  V30 4796 H 468.57 0.597429 -2.91235 0
M  V30 4797 H 466.103 0.193002 -1.53189 0
M  V30 4798 H 468.061 3.0849 -2.70822 0
M  V30 4799 H 466.722 2.69975 -1.60537 0
M  V30 4800 H 465.915 3.13502 -3.9463 0
M  V30 4801 H 465.517 1.4782 -3.43548 0
M  V30 4802 H 467.809 3.76557 -5.63215 0
M  V30 4803 H 468.752 2.58256 -6.59325 0
M  V30 4804 H 469.16 2.85047 -4.87246 0
M  V30 4805 N 468.558 1.5553 0.254621 0
M  V30 4806 C 469.805 1.77 0.983736 0
M  V30 4807 C 470.133 0.58133 1.85609 0
M  V30 4808 O 469.388 -0.435621 1.9079 0
M  V30 4809 C 469.687 3.03891 1.88109 0
M  V30 4810 C 469.353 4.35597 1.16472 0
M  V30 4811 C 468.015 4.7139 0.966714 0
M  V30 4812 C 470.367 5.1705 0.656387 0
M  V30 4813 C 467.695 5.86176 0.247942 0
M  V30 4814 C 470.047 6.32581 -0.0488807 0
M  V30 4815 C 468.711 6.67 -0.258438 0
M  V30 4816 H 467.981 0.647688 0.359974 0
M  V30 4817 H 470.628 1.89802 0.254463 0
M  V30 4818 H 468.933 2.86068 2.67717 0
M  V30 4819 H 470.63 3.17701 2.44677 0
M  V30 4820 H 467.22 4.07475 1.32899 0
M  V30 4821 H 471.404 4.8986 0.796933 0
M  V30 4822 H 466.66 6.11354 0.075035 0
M  V30 4823 H 470.834 6.94942 -0.450444 0
M  V30 4824 H 468.461 7.55793 -0.817358 0
M  V30 4825 N 470.036 -0.519951 1.48776 0
M  V30 4826 C 470.984 -1.64443 1.64503 0
M  V30 4827 C 471.978 -1.61501 0.511248 0
M  V30 4828 O 473.184 -1.66238 0.690294 0
M  V30 4829 H 469.559 -0.544776 0.518385 0
M  V30 4830 H 471.53 -1.48325 2.58925 0
M  V30 4831 C 470.279 -3.02673 1.71127 0
M  V30 4832 H 469.602 -3.05635 2.57735 0
M  V30 4833 H 471.042 -3.80941 1.86172 0
M  V30 4834 C 469.501 -3.33854 0.452032 0
M  V30 4835 O 470.031 -3.99385 -0.430678 0
M  V30 4836 N 468.237 -2.88825 0.32069 0
M  V30 4837 H 467.784 -2.35674 1.03998 0
M  V30 4838 H 467.742 -3.10056 -0.520814 0
M  V30 4839 N 471.514 -1.37532 -0.769588 0
M  V30 4840 C 472.762 -1.32597 -1.5252 0
M  V30 4841 C 473.083 0.0884294 -1.94799 0
M  V30 4842 O 472.353 1.03289 -1.66458 0
M  V30 4843 H 470.933 -0.487846 -0.565699 0
M  V30 4844 H 473.595 -1.72044 -0.915806 0
M  V30 4845 H 472.691 -1.96643 -2.42359 0
M  V30 4846 N 472.992 0.995999 -1.22138 0
M  V30 4847 C 473.94 2.10673 -0.985876 0
M  V30 4848 C 474.934 1.69255 0.0699553 0
M  V30 4849 O 476.14 1.79812 -0.0822176 0
M  V30 4850 H 472.515 0.688865 -0.30161 0
M  V30 4851 H 474.486 2.27711 -1.92848 0
M  V30 4852 C 473.235 3.42881 -0.576909 0
M  V30 4853 H 472.558 3.75191 -1.38101 0
M  V30 4854 H 473.998 4.21589 -0.451518 0
M  V30 4855 C 472.457 3.29265 0.713196 0
M  V30 4856 O 472.987 3.60777 1.76643 0
M  V30 4857 N 471.193 2.82456 0.683162 0
M  V30 4858 H 470.74 2.5701 -0.174242 0
M  V30 4859 H 470.698 2.73727 1.54663 0
M  V30 4860 N 474.47 1.03057 1.19235 0
M  V30 4861 C 475.717 0.728019 1.88961 0
M  V30 4862 C 476.045 -0.743515 1.79728 0
M  V30 4863 O 475.3 -1.55729 1.1852 0
M  V30 4864 C 475.599 1.1268 3.39172 0
M  V30 4865 C 475.265 2.5969 3.68608 0
M  V30 4866 C 473.927 2.99854 3.76352 0
M  V30 4867 C 476.279 3.54793 3.81801 0
M  V30 4868 C 473.607 4.34031 3.94758 0
M  V30 4869 C 475.959 4.88675 4.0172 0
M  V30 4870 C 474.623 5.28526 4.07697 0
M  V30 4871 H 473.893 0.266401 0.691456 0
M  V30 4872 H 476.54 1.29373 1.41191 0
M  V30 4873 H 474.845 0.479722 3.88852 0
M  V30 4874 H 476.542 0.870203 3.91444 0
M  V30 4875 H 473.132 2.27575 3.63191 0
M  V30 4876 H 477.316 3.24914 3.7516 0
M  V30 4877 H 472.572 4.6444 3.97625 0
M  V30 4878 H 476.746 5.6228 4.1087 0
M  V30 4879 H 474.373 6.32506 4.21712 0
M  V30 4880 N 475.948 -1.35272 0.808662 0
M  V30 4881 C 477.176 -2.02946 0.402537 0
M  V30 4882 C 477.591 -1.60937 -0.987147 0
M  V30 4883 O 476.948 -0.807917 -1.63643 0
M  V30 4884 C 476.999 -3.58317 0.47868 0
M  V30 4885 O 476.72 -3.98799 1.81358 0
M  V30 4886 C 478.221 -4.43251 0.0656281 0
M  V30 4887 H 475.441 -0.650831 0.163279 0
M  V30 4888 H 477.985 -1.72849 1.09286 0
M  V30 4889 H 476.14 -3.87055 -0.163415 0
M  V30 4890 H 476.554 -4.93451 1.77781 0
M  V30 4891 H 478.028 -5.51738 0.170017 0
M  V30 4892 H 478.505 -4.27913 -0.989278 0
M  V30 4893 H 479.111 -4.19813 0.68096 0
M  V30 4894 N 477.426 -0.562348 -1.47226 0
M  V30 4895 C 478.374 0.195476 -2.31777 0
M  V30 4896 C 479.368 0.90433 -1.43242 0
M  V30 4897 O 480.574 0.825031 -1.59979 0
M  V30 4898 H 476.949 0.0819095 -0.747526 0
M  V30 4899 H 478.92 -0.536753 -2.93533 0
M  V30 4900 C 477.669 1.20902 -3.26003 0
M  V30 4901 H 476.992 0.672997 -3.94095 0
M  V30 4902 H 478.432 1.71006 -3.87986 0
M  V30 4903 C 476.891 2.25955 -2.49891 0
M  V30 4904 O 477.421 3.32969 -2.2471 0
M  V30 4905 N 475.627 2.00019 -2.1081 0
M  V30 4906 H 475.174 1.13006 -2.31489 0
M  V30 4907 H 475.132 2.70523 -1.60201 0
M  V30 4908 N 478.904 1.54736 -0.299062 0
M  V30 4909 C 479.867 2.22127 0.565012 0
M  V30 4910 C 480.867 1.20669 1.06281 0
M  V30 4911 O 482.057 1.45417 0.959145 0
M  V30 4912 C 479.189 2.90611 1.78208 0
M  V30 4913 H 480.382 2.99891 -0.0237448 0
M  V30 4914 H 477.935 1.5622 -0.0498788 0
M  V30 4915 H 478.67 2.16921 2.41072 0
M  V30 4916 H 478.455 3.64984 1.43281 0
M  V30 4917 H 479.945 3.42026 2.396 0
M  V30 4918 N 480.382 0.0267497 1.57577 0
M  V30 4919 C 481.659 -0.690926 1.82991 0
M  V30 4920 C 482.039 -1.90471 0.910164 0
M  V30 4921 O 481.387 -2.28474 -0.0347985 0
M  V30 4922 C 481.597 -1.07139 3.32148 0
M  V30 4923 C 482.945 -1.46402 3.98562 0
M  V30 4924 O 483.969 -1.16443 3.36629 0
M  V30 4925 O 482.828 -2.02214 5.07712 0
M  V30 4926 H 479.922 -0.338747 0.75444 0
M  V30 4927 H 482.468 0.0542506 1.69613 0
M  V30 4928 H 481.24 -0.207394 3.9075 0
M  V30 4929 H 480.863 -1.87481 3.50623 0
M  V30 4930 N 481.861 -1.55662 -0.24637 0
M  V30 4931 C 482.771 -1.93495 -1.32653 0
M  V30 4932 C 483.787 -0.835462 -1.5263 0
M  V30 4933 O 484.963 -1.1369 -1.66242 0
M  V30 4934 C 482.028 -2.22242 -2.66101 0
M  V30 4935 C 481.089 -3.45625 -2.54641 0
M  V30 4936 C 480.322 -3.72991 -3.81724 0
M  V30 4937 O 480.545 -3.02421 -4.8363 0
M  V30 4938 O 479.479 -4.66515 -3.80325 0
M  V30 4939 H 483.305 -2.85498 -1.03559 0
M  V30 4940 H 480.89 -1.42551 -0.44717 0
M  V30 4941 H 482.772 -2.42037 -3.44958 0
M  V30 4942 H 481.447 -1.33417 -2.94926 0
M  V30 4943 H 480.354 -3.31136 -1.74067 0
M  V30 4944 H 481.687 -4.34754 -2.3076 0
M  V30 4945 N 483.339 0.512053 -1.4905 0
M  V30 4946 C 484.755 0.84224 -1.35567 0
M  V30 4947 C 484.955 1.97878 -0.380319 0
M  V30 4948 O 484.011 2.51769 0.19201 0
M  V30 4949 C 485.324 1.19286 -2.76028 0
M  V30 4950 C 486.872 1.30171 -2.84648 0
M  V30 4951 C 487.347 1.68568 -4.25851 0
M  V30 4952 N 488.838 1.75638 -4.28609 0
M  V30 4953 C 489.573 2.06769 -5.34821 0
M  V30 4954 N 489.069 2.36201 -6.51292 0
M  V30 4955 N 490.862 2.07927 -5.22229 0
M  V30 4956 H 483.013 -0.237574 -2.11067 0
M  V30 4957 H 485.276 -0.0436747 -0.946993 0
M  V30 4958 H 484.982 0.431199 -3.49047 0
M  V30 4959 H 484.856 2.13889 -3.10695 0
M  V30 4960 H 487.243 2.05411 -2.11873 0
M  V30 4961 H 487.324 0.336457 -2.53578 0
M  V30 4962 H 486.968 0.938824 -4.99148 0
M  V30 4963 H 486.898 2.66174 -4.54377 0
M  V30 4964 H 489.389 1.55097 -3.44606 0
M  V30 4965 H 489.702 2.59112 -7.28066 0
M  V30 4966 H 488.047 2.33681 -6.54536 0
M  V30 4967 H 491.238 1.84403 -4.30248 0
M  V30 4968 H 491.411 2.31856 -6.05101 0
M  V30 4969 N 484.817 1.37938 0.762283 0
M  V30 4970 C 486.042 1.37059 1.55659 0
M  V30 4971 C 486.467 -0.0396123 1.88058 0
M  V30 4972 O 485.825 -1.01929 1.49934 0
M  V30 4973 C 485.873 2.22494 2.83776 0
M  V30 4974 O 484.977 1.63607 3.78559 0
M  V30 4975 H 484.318 0.467892 0.47114 0
M  V30 4976 H 486.848 1.81587 0.942725 0
M  V30 4977 H 486.858 2.36045 3.32786 0
M  V30 4978 H 485.533 3.24993 2.59524 0
M  V30 4979 H 484.11 1.5915 3.37233 0
M  V30 4980 N 486.295 -0.989507 1.22664 0
M  V30 4981 C 487.541 -1.73298 1.06487 0
M  V30 4982 C 487.896 -1.88292 -0.395438 0
M  V30 4983 O 487.189 -1.41748 -1.28911 0
M  V30 4984 C 487.383 -3.13649 1.71345 0
M  V30 4985 C 487.212 -3.12341 3.23532 0
M  V30 4986 C 485.982 -3.18044 3.92653 0
M  V30 4987 C 488.18 -2.96226 4.20422 0
M  V30 4988 N 486.162 -3.06526 5.31898 0
M  V30 4989 C 487.533 -2.92773 5.4652 0
M  V30 4990 C 489.588 -2.80642 4.11271 0
M  V30 4991 C 488.291 -2.75332 6.64519 0
M  V30 4992 C 490.317 -2.64563 5.28924 0
M  V30 4993 C 489.679 -2.618 6.53942 0
M  V30 4994 H 485.778 -0.643643 0.444126 0
M  V30 4995 H 488.362 -1.17489 1.55256 0
M  V30 4996 H 486.533 -3.67694 1.25122 0
M  V30 4997 H 488.265 -3.76577 1.48229 0
M  V30 4998 H 485.02 -3.25861 3.43673 0
M  V30 4999 H 485.444 -3.04067 6.04874 0
M  V30 5000 H 490.086 -2.81574 3.15398 0
M  V30 5001 H 487.804 -2.73145 7.60538 0
M  V30 5002 H 491.39 -2.53482 5.23677 0
M  V30 5003 H 490.27 -2.49511 7.43447 0
M  V30 5004 N 487.773 -1.03688 -1.18687 0
M  V30 5005 C 488.705 -0.582696 -2.21669 0
M  V30 5006 C 489.718 0.345656 -1.59088 0
M  V30 5007 O 490.907 0.140776 -1.77944 0
M  V30 5008 C 488.007 0.169204 -3.38477 0
M  V30 5009 C 487.18 -0.766079 -4.30639 0
M  V30 5010 C 486.239 -0.0581541 -5.26168 0
M  V30 5011 O 485.265 -0.687346 -5.65035 0
M  V30 5012 N 486.467 1.20981 -5.67753 0
M  V30 5013 H 489.232 -1.46843 -2.61261 0
M  V30 5014 H 486.793 -0.916896 -1.33434 0
M  V30 5015 H 488.785 0.652543 -3.99405 0
M  V30 5016 H 487.355 0.956435 -2.97609 0
M  V30 5017 H 486.575 -1.42935 -3.67373 0
M  V30 5018 H 487.863 -1.40146 -4.89118 0
M  V30 5019 H 487.261 1.74159 -5.38224 0
M  V30 5020 H 485.818 1.6375 -6.30896 0
M  V30 5021 N 489.251 1.34841 -0.815825 0
M  V30 5022 C 490.497 1.98793 -0.401129 0
M  V30 5023 C 490.83 1.64548 1.03139 0
M  V30 5024 O 490.105 0.913487 1.71714 0
M  V30 5025 C 490.388 3.55143 -0.595409 0
M  V30 5026 C 490.241 3.99155 -2.07352 0
M  V30 5027 C 491.56 4.40092 -0.0268823 0
M  V30 5028 H 488.679 0.722146 -0.14722 0
M  V30 5029 H 491.321 1.59847 -1.02707 0
M  V30 5030 H 489.471 3.8845 -0.0625779 0
M  V30 5031 H 491.143 3.76216 -2.66945 0
M  V30 5032 H 489.386 3.49726 -2.56659 0
M  V30 5033 H 490.057 5.07971 -2.1603 0
M  V30 5034 H 492.533 4.13298 -0.482042 0
M  V30 5035 H 491.409 5.48562 -0.19267 0
M  V30 5036 H 491.67 4.29016 1.06759 0
M  V30 5037 N 490.729 0.570148 1.46925 0
M  V30 5038 C 492.145 0.23087 1.57921 0
M  V30 5039 C 492.345 -1.26676 1.56702 0
M  V30 5040 O 491.401 -2.04774 1.47729 0
M  V30 5041 C 492.714 0.868973 2.8787 0
M  V30 5042 C 494.262 0.841397 3.01479 0
M  V30 5043 C 494.737 1.45881 4.34146 0
M  V30 5044 N 496.228 1.42258 4.40814 0
M  V30 5045 C 496.963 1.8698 5.42057 0
M  V30 5046 N 496.459 2.39618 6.50042 0
M  V30 5047 N 498.252 1.77972 5.33181 0
M  V30 5048 H 490.403 1.54301 1.45962 0
M  V30 5049 H 492.666 0.644224 0.69547 0
M  V30 5050 H 492.372 1.922 2.94537 0
M  V30 5051 H 492.246 0.369682 3.75384 0
M  V30 5052 H 494.633 -0.202973 2.94401 0
M  V30 5053 H 494.714 1.37858 2.15474 0
M  V30 5054 H 494.358 2.50231 4.4198 0
M  V30 5055 H 494.288 0.896958 5.18905 0
M  V30 5056 H 496.779 1.03768 3.63374 0
M  V30 5057 H 497.092 2.71633 7.23488 0
M  V30 5058 H 495.437 2.43636 6.50897 0
M  V30 5059 H 498.628 1.36617 4.4772 0
M  V30 5060 H 498.801 2.13143 6.11943 0
M  V30 5061 N 492.207 -1.54576 0.307264 0
M  V30 5062 C 493.437 -2.04378 -0.302158 0
M  V30 5063 C 493.845 -1.18381 -1.47589 0
M  V30 5064 O 493.188 -0.20352 -1.82569 0
M  V30 5065 C 493.25 -3.50133 -0.815305 0
M  V30 5066 C 492.914 -4.56401 0.233977 0
M  V30 5067 C 493.911 -5.08884 1.06456 0
M  V30 5068 C 491.596 -5.0088 0.377478 0
M  V30 5069 C 493.59 -6.04394 2.02452 0
M  V30 5070 C 491.277 -5.96208 1.34088 0
M  V30 5071 C 492.275 -6.47849 2.16288 0
M  V30 5072 O 491.963 -7.41308 3.10994 0
M  V30 5073 H 491.695 -0.672502 -0.0686839 0
M  V30 5074 H 494.249 -2.00484 0.446682 0
M  V30 5075 H 492.479 -3.51371 -1.61478 0
M  V30 5076 H 494.168 -3.83098 -1.34129 0
M  V30 5077 H 494.934 -4.75311 0.964596 0
M  V30 5078 H 490.813 -4.60309 -0.252405 0
M  V30 5079 H 494.357 -6.44626 2.66652 0
M  V30 5080 H 490.254 -6.29198 1.44154 0
M  V30 5081 H 491.022 -7.5913 3.06045 0
M  V30 5082 N 493.685 -0.035106 -1.57561 0
M  V30 5083 C 494.962 0.681212 -1.83354 0
M  V30 5084 C 495.342 1.89986 -0.920252 0
M  V30 5085 O 494.69 2.28489 0.0226815 0
M  V30 5086 C 494.9 1.05376 -3.32712 0
M  V30 5087 C 496.248 1.44286 -3.99333 0
M  V30 5088 O 497.272 1.14656 -3.37242 0
M  V30 5089 O 496.131 1.99518 -5.08778 0
M  V30 5090 H 493.225 0.334741 -0.756226 0
M  V30 5091 H 495.771 -0.0632448 -1.69582 0
M  V30 5092 H 494.543 0.186668 -3.90854 0
M  V30 5093 H 494.166 1.85619 -3.51613 0
M  V30 5094 N 495.163 1.55791 0.238111 0
M  V30 5095 C 496.393 1.81834 0.980809 0
M  V30 5096 C 496.801 0.609741 1.79106 0
M  V30 5097 O 496.144 -0.431073 1.78571 0
M  V30 5098 C 496.206 3.01363 1.96011 0
M  V30 5099 C 495.87 4.37037 1.33597 0
M  V30 5100 C 496.867 5.14692 0.734063 0
M  V30 5101 C 494.552 4.83743 1.3527 0
M  V30 5102 C 496.546 6.37206 0.157208 0
M  V30 5103 C 494.233 6.06204 0.77199 0
M  V30 5104 C 495.231 6.82775 0.175282 0
M  V30 5105 O 494.919 8.02922 -0.396432 0
M  V30 5106 H 494.651 0.6088 0.293834 0
M  V30 5107 H 497.205 2.03702 0.263552 0
M  V30 5108 H 495.435 2.75273 2.71591 0
M  V30 5109 H 497.124 3.14422 2.56697 0
M  V30 5110 H 497.89 4.79722 0.713582 0
M  V30 5111 H 493.769 4.24129 1.80653 0
M  V30 5112 H 497.313 6.96915 -0.30917 0
M  V30 5113 H 493.21 6.4065 0.789828 0
M  V30 5114 H 493.978 8.17989 -0.289145 0
M  V30 5115 N 496.642 -0.504142 1.49319 0
M  V30 5116 C 497.919 -1.26548 1.49147 0
M  V30 5117 C 498.299 -2.09977 0.21744 0
M  V30 5118 O 497.647 -2.14028 -0.800269 0
M  V30 5119 C 497.857 -2.12489 2.76857 0
M  V30 5120 C 499.205 -2.7178 3.26222 0
M  V30 5121 O 500.229 -2.22758 2.77952 0
M  V30 5122 O 499.088 -3.61015 4.10281 0
M  V30 5123 H 496.182 -0.572495 0.596806 0
M  V30 5124 H 498.728 -0.51867 1.61579 0
M  V30 5125 H 497.5 -1.50796 3.61077 0
M  V30 5126 H 497.123 -2.94368 2.6727 0
M  V30 5127 N 498.12 -1.38341 -0.754957 0
M  V30 5128 C 499.367 -1.34473 -1.51404 0
M  V30 5129 C 499.695 0.0656458 -1.94389 0
M  V30 5130 O 498.95 1.04244 -1.65625 0
M  V30 5131 C 499.249 -2.2452 -2.78075 0
M  V30 5132 C 498.915 -3.72512 -2.54059 0
M  V30 5133 C 497.577 -4.1284 -2.47218 0
M  V30 5134 C 499.929 -4.66197 -2.33044 0
M  V30 5135 C 497.257 -5.44945 -2.17376 0
M  V30 5136 C 499.609 -5.98558 -2.04723 0
M  V30 5137 C 498.273 -6.37972 -1.96337 0
M  V30 5138 H 497.543 -0.492072 -0.554027 0
M  V30 5139 H 500.19 -1.70687 -0.868223 0
M  V30 5140 H 498.495 -1.81357 -3.473 0
M  V30 5141 H 500.192 -2.18832 -3.36026 0
M  V30 5142 H 496.782 -3.40538 -2.60253 0
M  V30 5143 H 500.966 -4.35888 -2.37309 0
M  V30 5144 H 496.222 -5.74426 -2.09391 0
M  V30 5145 H 500.396 -6.70693 -1.87465 0
M  V30 5146 H 498.023 -7.40258 -1.72978 0
M  V30 5147 N 499.598 0.982988 -1.23187 0
M  V30 5148 C 500.844 1.72648 -1.06398 0
M  V30 5149 C 501.177 1.90066 0.398561 0
M  V30 5150 O 500.452 1.45105 1.29518 0
M  V30 5151 C 500.735 3.12627 -1.78707 0
M  V30 5152 C 500.588 3.02795 -3.32618 0
M  V30 5153 C 501.907 4.11997 -1.54747 0
M  V30 5154 H 499.026 0.626649 -0.387918 0
M  V30 5155 H 501.668 1.14455 -1.51658 0
M  V30 5156 H 499.818 3.62308 -1.40234 0
M  V30 5157 H 501.49 2.60659 -3.80598 0
M  V30 5158 H 499.733 2.39362 -3.61785 0
M  V30 5159 H 500.404 4.01893 -3.78399 0
M  V30 5160 H 502.88 3.71114 -1.88186 0
M  V30 5161 H 501.756 5.08037 -2.07821 0
M  V30 5162 H 502.017 4.39462 -0.482249 0
M  V30 5163 N 501.076 1.04316 1.18135 0
M  V30 5164 C 502.324 0.746542 1.87806 0
M  V30 5165 C 502.645 -0.728082 1.80898 0
M  V30 5166 O 501.915 -1.52554 1.22899 0
M  V30 5167 H 500.495 0.273157 0.695265 0
M  V30 5168 H 503.157 1.32044 1.43354 0
M  V30 5169 H 502.253 1.05362 2.93778 0
M  V30 5170 N 502.554 -1.34406 0.822964 0
M  V30 5171 C 503.484 -2.32052 0.259608 0
M  V30 5172 C 504.465 -1.58243 -0.623961 0
M  V30 5173 O 505.65 -1.86224 -0.55083 0
M  V30 5174 C 502.78 -3.42434 -0.579314 0
M  V30 5175 C 501.734 -4.27499 0.20712 0
M  V30 5176 C 501.06 -5.29349 -0.754547 0
M  V30 5177 C 502.36 -5.02758 1.41533 0
M  V30 5178 H 504.054 -2.79418 1.07545 0
M  V30 5179 H 501.6 -1.34338 0.518593 0
M  V30 5180 H 503.553 -4.0976 -0.983612 0
M  V30 5181 H 502.277 -2.93717 -1.4282 0
M  V30 5182 H 500.936 -3.61776 0.592787 0
M  V30 5183 H 500.584 -4.76895 -1.59939 0
M  V30 5184 H 500.284 -5.8714 -0.232561 0
M  V30 5185 H 501.808 -5.99544 -1.1567 0
M  V30 5186 H 503.222 -5.62938 1.08504 0
M  V30 5187 H 501.619 -5.70123 1.87296 0
M  V30 5188 H 502.689 -4.32451 2.1935 0
M  V30 5189 N 504.032 -0.577932 -1.46621 0
M  V30 5190 C 505.28 -0.061566 -2.02006 0
M  V30 5191 C 505.601 1.30117 -1.4524 0
M  V30 5192 O 504.871 1.85313 -0.63529 0
M  V30 5193 H 503.451 -0.0197692 -0.746738 0
M  V30 5194 H 506.113 -0.752631 -1.79782 0
M  V30 5195 H 505.209 0.0110238 -3.12098 0
M  V30 5196 N 505.51 1.54411 -0.315457 0
M  V30 5197 C 506.756 2.01425 0.282775 0
M  V30 5198 C 507.111 1.19978 1.5041 0
M  V30 5199 O 506.404 0.271766 1.89663 0
M  V30 5200 C 506.598 3.50936 0.676652 0
M  V30 5201 C 506.427 4.46856 -0.504954 0
M  V30 5202 C 505.197 4.95275 -1.00152 0
M  V30 5203 C 507.395 4.96141 -1.35456 0
M  V30 5204 N 505.377 5.75081 -2.14838 0
M  V30 5205 C 506.748 5.73791 -2.3487 0
M  V30 5206 C 508.803 4.78299 -1.38327 0
M  V30 5207 C 507.506 6.35498 -3.36949 0
M  V30 5208 C 509.532 5.40836 -2.39271 0
M  V30 5209 C 508.894 6.1833 -3.37413 0
M  V30 5210 H 504.993 0.779078 0.0675398 0
M  V30 5211 H 507.577 1.8946 -0.448656 0
M  V30 5212 H 505.748 3.63162 1.37723 0
M  V30 5213 H 507.48 3.84728 1.25566 0
M  V30 5214 H 504.235 4.70107 -0.574123 0
M  V30 5215 H 504.659 6.19664 -2.72665 0
M  V30 5216 H 509.301 4.17956 -0.638196 0
M  V30 5217 H 507.019 6.94967 -4.12367 0
M  V30 5218 H 510.605 5.28952 -2.42284 0
M  V30 5219 H 509.485 6.65861 -4.14244 0
M  V30 5220 N 506.988 0.0434614 1.5754 0
M  V30 5221 C 508.399 -0.493343 1.80064 0
M  V30 5222 C 508.75 -1.71388 0.955023 0
M  V30 5223 O 507.875 -2.15736 0.169434 0
M  V30 5224 C 508.47 -0.90179 3.26578 0
M  V30 5225 C 507.029 -1.38362 3.50047 0
M  V30 5226 C 506.176 -0.355129 2.75017 0
M  V30 5227 H 509.127 0.2694 1.56397 0
M  V30 5228 H 509.148 -1.76523 3.37075 0
M  V30 5229 H 508.66 -0.013271 3.88098 0
M  V30 5230 H 506.761 -2.29159 2.93798 0
M  V30 5231 H 506.874 -1.3811 4.58762 0
M  V30 5232 H 505.238 -0.826348 2.40922 0
M  V30 5233 H 506.021 0.525172 3.39259 0
M  V30 5234 N 508.466 -1.55915 -0.229846 0
M  V30 5235 C 509.714 -1.7819 -0.953565 0
M  V30 5236 C 510.035 -0.610504 -1.85197 0
M  V30 5237 O 509.305 0.372988 -1.92316 0
M  V30 5238 H 507.885 -0.657208 -0.355087 0
M  V30 5239 H 510.547 -1.9337 -0.243693 0
M  V30 5240 H 509.643 -2.70011 -1.56527 0
M  V30 5241 N 509.944 0.496216 -1.49584 0
M  V30 5242 C 510.874 1.60576 -1.69521 0
M  V30 5243 C 511.855 1.61169 -0.543933 0
M  V30 5244 O 513.04 1.77834 -0.78031 0
M  V30 5245 C 510.17 2.99038 -1.76616 0
M  V30 5246 C 509.124 3.13312 -2.91581 0
M  V30 5247 C 508.45 4.53172 -2.83794 0
M  V30 5248 C 509.75 2.92886 -4.32452 0
M  V30 5249 H 511.444 1.44146 -2.62416 0
M  V30 5250 H 508.99 0.692024 -1.26282 0
M  V30 5251 H 510.943 3.76564 -1.8915 0
M  V30 5252 H 509.667 3.16568 -0.80324 0
M  V30 5253 H 508.326 2.38213 -2.78658 0
M  V30 5254 H 507.974 4.67585 -1.854 0
M  V30 5255 H 507.674 4.63662 -3.60958 0
M  V30 5256 H 509.198 5.32752 -2.98342 0
M  V30 5257 H 510.612 3.60178 -4.46032 0
M  V30 5258 H 509.009 3.14844 -5.10875 0
M  V30 5259 H 510.079 1.88966 -4.46565 0
M  V30 5260 N 511.423 1.38739 0.74761 0
M  V30 5261 C 512.672 1.3459 1.50228 0
M  V30 5262 C 512.985 -0.0595592 1.95509 0
M  V30 5263 O 514.191 -0.22361 2.70578 0
M  V30 5264 C 512.647 2.36377 2.71393 0
M  V30 5265 C 512.255 3.82573 2.33113 0
M  V30 5266 C 513.999 2.41281 3.49262 0
M  V30 5267 C 511.906 4.76032 3.50924 0
M  V30 5268 H 510.836 0.500312 0.564096 0
M  V30 5269 H 513.487 1.64324 0.8167 0
M  V30 5270 H 511.869 1.99694 3.41962 0
M  V30 5271 H 513.043 4.28227 1.70171 0
M  V30 5272 H 511.358 3.80844 1.68365 0
M  V30 5273 H 513.955 3.08301 4.36869 0
M  V30 5274 H 514.298 1.43353 3.9084 0
M  V30 5275 H 514.831 2.76793 2.85711 0
M  V30 5276 H 511.57 5.75177 3.14408 0
M  V30 5277 H 511.09 4.35066 4.12889 0
M  V30 5278 H 512.769 4.94331 4.17427 0
M  V30 5279 N 512.901 -0.976442 1.23707 0
M  V30 5280 C 514.149 -1.71487 1.06942 0
M  V30 5281 C 514.47 -1.9098 -0.393897 0
M  V30 5282 O 513.74 -1.48128 -1.28198 0
M  V30 5283 H 512.32 -0.635425 0.392739 0
M  V30 5284 H 514.982 -1.17515 1.55487 0
M  V30 5285 H 514.078 -2.70286 1.56051 0
M  V30 5286 N 514.379 -1.04941 -1.1758 0
M  V30 5287 C 515.312 -0.592518 -2.20373 0
M  V30 5288 C 516.29 0.377561 -1.58156 0
M  V30 5289 O 517.474 0.28978 -1.86259 0
M  V30 5290 C 514.601 0.133215 -3.38438 0
M  V30 5291 C 513.647 -0.791484 -4.19092 0
M  V30 5292 S 514.48 -2.27925 -4.84572 0
M  V30 5293 C 515.636 -1.56462 -6.06028 0
M  V30 5294 H 515.869 -1.46342 -2.58788 0
M  V30 5295 H 513.402 -0.861148 -1.28155 0
M  V30 5296 H 515.36 0.545746 -4.06856 0
M  V30 5297 H 514.021 0.980124 -2.98416 0
M  V30 5298 H 513.214 -0.230039 -5.03475 0
M  V30 5299 H 512.816 -1.14326 -3.56098 0
M  V30 5300 H 515.108 -0.862539 -6.71987 0
M  V30 5301 H 516.051 -2.38583 -6.66696 0
M  V30 5302 H 516.459 -1.05313 -5.5459 0
M  V30 5303 N 515.857 1.33968 -0.830081 0
M  V30 5304 C 517.103 1.98357 -0.422191 0
M  V30 5305 C 517.436 1.65633 1.01387 0
M  V30 5306 O 516.711 0.931648 1.70735 0
M  V30 5307 C 516.994 3.54492 -0.633043 0
M  V30 5308 C 516.847 3.96934 -2.11574 0
M  V30 5309 C 518.166 4.40039 -0.0735584 0
M  V30 5310 H 515.285 0.720544 -0.154871 0
M  V30 5311 H 517.927 1.58749 -1.04397 0
M  V30 5312 H 516.077 3.88361 -0.103775 0
M  V30 5313 H 517.749 3.73363 -2.7092 0
M  V30 5314 H 515.992 3.46984 -2.60354 0
M  V30 5315 H 516.663 5.05651 -2.21406 0
M  V30 5316 H 519.139 4.12764 -0.52585 0
M  V30 5317 H 518.015 5.48327 -0.250841 0
M  V30 5318 H 518.276 4.30124 1.02202 0
M  V30 5319 N 517.335 0.585699 1.46312 0
M  V30 5320 C 518.751 0.247607 1.57668 0
M  V30 5321 C 518.951 -1.25007 1.58037 0
M  V30 5322 O 518.007 -2.03196 1.49893 0
M  V30 5323 C 519.32 0.899456 2.86933 0
M  V30 5324 C 520.868 0.873326 3.00569 0
M  V30 5325 C 521.343 1.50477 4.32574 0
M  V30 5326 N 522.834 1.46925 4.3928 0
M  V30 5327 C 523.569 1.92719 5.40044 0
M  V30 5328 N 523.065 2.46499 6.47464 0
M  V30 5329 N 524.858 1.83617 5.31264 0
M  V30 5330 H 517.009 1.55841 1.44317 0
M  V30 5331 H 519.272 0.651564 0.688599 0
M  V30 5332 H 518.978 1.95313 2.92482 0
M  V30 5333 H 518.852 0.409476 3.74971 0
M  V30 5334 H 521.239 -0.171736 2.946 0
M  V30 5335 H 521.32 1.40136 2.13999 0
M  V30 5336 H 520.964 2.54905 4.39302 0
M  V30 5337 H 520.894 0.951944 5.17924 0
M  V30 5338 H 523.385 1.07616 3.62253 0
M  V30 5339 H 523.698 2.79291 7.20567 0
M  V30 5340 H 522.043 2.50526 6.48276 0
M  V30 5341 H 525.234 1.41358 4.46246 0
M  V30 5342 H 525.407 2.19622 6.09648 0
M  V30 5343 N 518.813 -1.54241 0.323641 0
M  V30 5344 C 520.043 -2.04687 -0.280464 0
M  V30 5345 C 520.451 -1.19939 -1.46326 0
M  V30 5346 O 519.794 -0.222872 -1.82343 0
M  V30 5347 C 519.856 -3.50978 -0.778123 0
M  V30 5348 C 519.52 -4.56127 0.282371 0
M  V30 5349 C 520.517 -5.07726 1.11847 0
M  V30 5350 C 518.202 -5.00451 0.430582 0
M  V30 5351 C 520.196 -6.02212 2.08851 0
M  V30 5352 C 517.883 -5.94752 1.40404 0
M  V30 5353 C 518.881 -6.45519 2.23147 0
M  V30 5354 O 518.569 -7.37968 3.1884 0
M  V30 5355 H 518.301 -0.673192 -0.0615473 0
M  V30 5356 H 520.855 -1.99999 0.467921 0
M  V30 5357 H 519.085 -3.53064 -1.57742 0
M  V30 5358 H 520.774 -3.84499 -1.30058 0
M  V30 5359 H 521.54 -4.74261 1.01496 0
M  V30 5360 H 517.419 -4.6055 -0.203569 0
M  V30 5361 H 520.963 -6.41761 2.73474 0
M  V30 5362 H 516.86 -6.27633 1.5082 0
M  V30 5363 H 517.628 -7.55841 3.14079 0
M  V30 5364 N 520.291 -0.0518155 -1.57515 0
M  V30 5365 C 521.539 0.620595 -1.92336 0
M  V30 5366 C 521.86 1.71345 -0.930907 0
M  V30 5367 O 521.13 1.95885 0.0241341 0
M  V30 5368 H 519.71 0.232226 -0.709986 0
M  V30 5369 H 522.372 -0.104969 -1.94617 0
M  V30 5370 H 521.468 1.05879 -2.93592 0
M  V30 5371 N 521.769 1.56035 0.221574 0
M  V30 5372 C 522.719 1.8881 1.27807 0
M  V30 5373 C 523.703 0.751177 1.42289 0
M  V30 5374 O 524.895 1.01359 1.45104 0
M  V30 5375 C 522.024 2.20828 2.6285 0
M  V30 5376 C 521.11 3.40912 2.52269 0
M  V30 5377 N 521.501 4.59531 2.1134 0
M  V30 5378 C 519.799 3.44526 2.83228 0
M  V30 5379 C 520.5 5.41689 2.1201 0
M  V30 5380 N 519.476 4.814 2.52497 0
M  V30 5381 H 523.278 2.78036 0.952529 0
M  V30 5382 H 520.792 1.566 0.430134 0
M  V30 5383 H 522.789 2.42483 3.39127 0
M  V30 5384 H 521.449 1.32914 2.9625 0
M  V30 5385 H 522.46 4.8469 1.82472 0
M  V30 5386 H 519.137 2.66956 3.21 0
M  V30 5387 H 520.527 6.46643 1.82491 0
M  V30 5388 N 523.247 -0.488276 1.49845 0
M  V30 5389 C 524.495 -1.23911 1.59657 0
M  V30 5390 C 524.816 -1.92816 0.291005 0
M  V30 5391 O 524.086 -1.83328 -0.690485 0
M  V30 5392 H 522.666 -0.460357 0.588286 0
M  V30 5393 H 525.328 -0.564794 1.86537 0
M  V30 5394 H 524.424 -1.99625 2.39909 0
M  V30 5395 N 524.725 -1.39134 -0.740242 0
M  V30 5396 C 525.95 -1.39518 -1.53459 0
M  V30 5397 C 526.375 0.00968883 -1.88098 0
M  V30 5398 O 525.733 0.995312 -1.51536 0
M  V30 5399 C 525.781 -2.26981 -2.802 0
M  V30 5400 O 524.885 -1.69609 -3.75908 0
M  V30 5401 H 524.226 -0.475328 -0.463637 0
M  V30 5402 H 526.756 -1.83064 -0.913717 0
M  V30 5403 H 526.766 -2.41309 -3.28989 0
M  V30 5404 H 525.441 -3.29081 -2.5432 0
M  V30 5405 H 524.018 -1.64495 -3.34658 0
M  V30 5406 N 526.204 0.969867 -1.24223 0
M  V30 5407 C 527.152 2.08535 -1.03034 0
M  V30 5408 C 528.146 1.69366 0.0340379 0
M  V30 5409 O 529.352 1.79597 -0.12034 0
M  V30 5410 H 525.727 0.682313 -0.316154 0
M  V30 5411 H 527.698 2.23569 -1.97635 0
M  V30 5412 C 526.447 3.4158 -0.649509 0
M  V30 5413 H 525.77 3.72177 -1.46028 0
M  V30 5414 H 527.21 4.20536 -0.540841 0
M  V30 5415 C 525.669 3.30703 0.643194 0
M  V30 5416 O 526.199 3.64443 1.68951 0
M  V30 5417 N 524.405 2.83841 0.623095 0
M  V30 5418 H 523.952 2.56583 -0.228719 0
M  V30 5419 H 523.91 2.76946 1.48823 0
M  V30 5420 N 527.682 1.05563 1.17022 0
M  V30 5421 C 528.645 0.664098 2.19368 0
M  V30 5422 C 529.645 -0.286358 1.5823 0
M  V30 5423 O 530.835 -0.069728 1.7406 0
M  V30 5424 C 527.967 -0.0239932 3.40892 0
M  V30 5425 H 529.16 1.57 2.55521 0
M  V30 5426 H 526.713 0.849964 1.31169 0
M  V30 5427 H 527.448 -0.942988 3.10287 0
M  V30 5428 H 527.233 0.659351 3.86516 0
M  V30 5429 H 528.723 -0.283909 4.16634 0
M  V30 5430 N 529.16 -1.33526 0.837174 0
M  V30 5431 C 530.388 -2.02047 0.445494 0
M  V30 5432 C 530.803 -1.62995 -0.952788 0
M  V30 5433 O 530.16 -0.842447 -1.61892 0
M  V30 5434 C 530.211 -3.57221 0.554577 0
M  V30 5435 O 529.932 -3.94863 1.89776 0
M  V30 5436 C 531.433 -4.43012 0.159634 0
M  V30 5437 H 528.653 -0.647221 0.177048 0
M  V30 5438 H 531.197 -1.70492 1.12928 0
M  V30 5439 H 529.352 -3.87315 -0.0812781 0
M  V30 5440 H 529.766 -4.89569 1.88208 0
M  V30 5441 H 531.24 -5.51253 0.28701 0
M  V30 5442 H 531.717 -4.29916 -0.898289 0
M  V30 5443 H 532.323 -4.18274 0.769855 0
M  V30 5444 N 530.638 -0.59345 -1.46 0
M  V30 5445 C 531.866 -0.0890934 -2.06708 0
M  V30 5446 C 532.281 1.2205 -1.44046 0
M  V30 5447 O 531.638 1.74029 -0.549551 0
M  V30 5448 C 531.689 0.0720263 -3.61428 0
M  V30 5449 O 531.41 -1.18574 -4.21748 0
M  V30 5450 C 532.911 0.609487 -4.3909 0
M  V30 5451 H 530.131 -0.0623628 -0.668096 0
M  V30 5452 H 532.675 -0.817171 -1.87464 0
M  V30 5453 H 530.83 0.750369 -3.80063 0
M  V30 5454 H 531.244 -1.0064 -5.14754 0
M  V30 5455 H 532.718 0.671363 -5.47902 0
M  V30 5456 H 533.195 1.62878 -4.07882 0
M  V30 5457 H 533.801 -0.03434 -4.25286 0
M  V30 5458 N 532.116 1.54067 -0.331816 0
M  V30 5459 C 533.063 2.24623 0.530372 0
M  V30 5460 C 534.033 1.24009 1.10503 0
M  V30 5461 O 535.218 1.52712 1.14384 0
M  V30 5462 C 532.358 3.01374 1.68129 0
M  V30 5463 C 531.471 4.16821 1.13507 0
M  V30 5464 C 530.606 4.81085 2.25234 0
M  V30 5465 C 529.645 5.88621 1.67903 0
M  V30 5466 N 528.782 6.46713 2.73326 0
M  V30 5467 H 533.622 2.97898 -0.0778607 0
M  V30 5468 H 531.159 1.47014 -0.0501965 0
M  V30 5469 H 533.117 3.44125 2.35868 0
M  V30 5470 H 531.747 2.30419 2.26069 0
M  V30 5471 H 530.799 3.78796 0.348979 0
M  V30 5472 H 532.111 4.94203 0.675633 0
M  V30 5473 H 531.265 5.26846 3.00862 0
M  V30 5474 H 530.004 4.03102 2.74518 0
M  V30 5475 H 529.009 5.42254 0.907773 0
M  V30 5476 H 530.234 6.68506 1.19487 0
M  V30 5477 H 528.18 5.71599 3.21886 0
M  V30 5478 H 528.097 7.19532 2.3197 0
M  V30 5479 H 529.365 6.97129 3.48758 0
M  V30 5480 N 533.594 0.0601682 1.57485 0
M  V30 5481 C 534.557 -0.896373 2.10945 0
M  V30 5482 C 535.557 -1.23402 1.03095 0
M  V30 5483 O 536.747 -1.16921 1.29132 0
M  V30 5484 C 533.879 -2.20346 2.60116 0
M  V30 5485 H 535.072 -0.432778 2.96761 0
M  V30 5486 H 532.625 -0.188372 1.55161 0
M  V30 5487 H 533.36 -2.71268 1.7772 0
M  V30 5488 H 533.145 -1.9714 3.38937 0
M  V30 5489 H 534.635 -2.88846 3.01592 0
M  V30 5490 N 535.072 -1.5615 -0.213296 0
M  V30 5491 C 536.32 -1.79191 -0.934612 0
M  V30 5492 C 536.641 -0.630112 -1.84539 0
M  V30 5493 O 535.911 0.35257 -1.92701 0
M  V30 5494 H 534.491 -0.660937 -0.348097 0
M  V30 5495 H 537.153 -1.93618 -0.22317 0
M  V30 5496 H 536.249 -2.71656 -1.53654 0
M  V30 5497 N 536.55 0.480323 -1.50102 0
M  V30 5498 C 537.775 1.26126 -1.64642 0
M  V30 5499 C 538.2 1.85257 -0.325823 0
M  V30 5500 O 537.558 1.66854 0.709194 0
M  V30 5501 C 537.606 2.35243 -2.73301 0
M  V30 5502 O 536.71 3.39646 -2.33911 0
M  V30 5503 H 536.051 0.371463 -0.550374 0
M  V30 5504 H 538.581 0.572696 -1.96421 0
M  V30 5505 H 538.591 2.80695 -2.96098 0
M  V30 5506 H 537.266 1.91574 -3.6915 0
M  V30 5507 H 535.843 2.99969 -2.21525 0
M  V30 5508 N 538.028 1.39524 0.732853 0
M  V30 5509 C 539.276 1.36594 1.48951 0
M  V30 5510 C 539.597 -0.0367507 1.94965 0
M  V30 5511 O 538.867 -0.988391 1.69138 0
M  V30 5512 H 537.447 0.502673 0.552566 0
M  V30 5513 H 540.109 1.74411 0.869869 0
M  V30 5514 H 539.205 2.03 2.3706 0
M  V30 5515 N 539.506 -0.963266 1.24736 0
M  V30 5516 C 540.754 -1.70343 1.08755 0
M  V30 5517 C 541.075 -1.91387 -0.373619 0
M  V30 5518 O 540.345 -1.4948 -1.2662 0
M  V30 5519 H 538.925 -0.631224 0.399456 0
M  V30 5520 H 541.587 -1.15859 1.56725 0
M  V30 5521 H 540.683 -2.68616 1.58909 0
M  V30 5522 N 540.985 -1.06182 -1.16461 0
M  V30 5523 C 541.932 -0.671613 -2.20812 0
M  V30 5524 C 542.902 0.331186 -1.62765 0
M  V30 5525 O 544.087 0.22033 -1.89524 0
M  V30 5526 C 541.227 -0.063029 -3.45042 0
M  V30 5527 C 540.34 -1.11587 -4.1734 0
M  V30 5528 C 539.475 -0.473546 -5.29085 0
M  V30 5529 C 538.514 -1.51 -5.93182 0
M  V30 5530 N 537.651 -0.891118 -6.96422 0
M  V30 5531 H 542.491 -1.56589 -2.53542 0
M  V30 5532 H 540.028 -0.782951 -1.24532 0
M  V30 5533 H 541.986 0.307344 -4.16066 0
M  V30 5534 H 540.616 0.794663 -3.12866 0
M  V30 5535 H 539.668 -1.60396 -3.44931 0
M  V30 5536 H 540.98 -1.90221 -4.61104 0
M  V30 5537 H 540.134 -0.0501432 -6.06679 0
M  V30 5538 H 538.873 0.344687 -4.8648 0
M  V30 5539 H 537.878 -1.94331 -5.14311 0
M  V30 5540 H 539.103 -2.33031 -6.37866 0
M  V30 5541 H 537.049 -0.0935753 -6.55933 0
M  V30 5542 H 536.966 -1.61486 -7.38551 0
M  V30 5543 H 538.234 -0.492822 -7.77941 0
M  V30 5544 N 542.463 1.3308 -0.844243 0
M  V30 5545 C 543.373 2.32876 -0.283922 0
M  V30 5546 C 544.389 1.63589 0.592846 0
M  V30 5547 O 545.565 1.95205 0.495693 0
M  V30 5548 C 542.63 3.42667 0.527283 0
M  V30 5549 C 541.691 4.27664 -0.374394 0
M  V30 5550 C 540.924 5.32212 0.39819 0
M  V30 5551 O 541.147 5.46635 1.62932 0
M  V30 5552 O 540.081 6.01458 -0.2306 0
M  V30 5553 H 543.907 2.82671 -1.11045 0
M  V30 5554 H 541.492 1.36518 -0.606903 0
M  V30 5555 H 543.374 4.09652 0.988078 0
M  V30 5556 H 542.049 2.95079 1.33078 0
M  V30 5557 H 540.956 3.63526 -0.883144 0
M  V30 5558 H 542.289 4.78749 -1.1428 0
M  V30 5559 N 543.941 0.601185 1.45683 0
M  V30 5560 C 545.187 0.102425 2.03142 0
M  V30 5561 C 545.542 -1.25066 1.46207 0
M  V30 5562 O 544.835 -1.81126 0.624806 0
M  V30 5563 C 545.029 -0.00222425 3.574 0
M  V30 5564 C 544.858 1.33917 4.29298 0
M  V30 5565 C 543.628 1.91818 4.67476 0
M  V30 5566 C 545.826 2.26652 4.61664 0
M  V30 5567 N 543.808 3.19504 5.24204 0
M  V30 5568 C 545.179 3.38933 5.19157 0
M  V30 5569 C 547.234 2.26103 4.43601 0
M  V30 5570 C 545.937 4.50823 5.60492 0
M  V30 5571 C 547.963 3.37036 4.85964 0
M  V30 5572 C 547.325 4.48039 5.43545 0
M  V30 5573 H 543.424 0.0806974 0.777825 0
M  V30 5574 H 546.008 0.798134 1.77589 0
M  V30 5575 H 544.179 -0.66714 3.82627 0
M  V30 5576 H 545.911 -0.507058 4.01511 0
M  V30 5577 H 542.666 1.45097 4.50826 0
M  V30 5578 H 543.09 3.84705 5.57073 0
M  V30 5579 H 547.732 1.41547 3.98402 0
M  V30 5580 H 545.45 5.36108 6.0466 0
M  V30 5581 H 549.036 3.37752 4.73725 0
M  V30 5582 H 547.916 5.32459 5.75723 0
M  V30 5583 N 545.419 -1.53889 0.339982 0
M  V30 5584 C 546.329 -2.28604 -0.526988 0
M  V30 5585 C 547.345 -1.33578 -1.11503 0
M  V30 5586 O 548.521 -1.66612 -1.13148 0
M  V30 5587 C 545.586 -3.04164 -1.66389 0
M  V30 5588 C 544.647 -4.14809 -1.10599 0
M  V30 5589 C 543.88 -4.86756 -2.18871 0
M  V30 5590 O 544.103 -4.58343 -3.39526 0
M  V30 5591 O 543.037 -5.73289 -1.83366 0
M  V30 5592 H 546.863 -3.03594 0.0802707 0
M  V30 5593 H 544.448 -1.4903 0.105141 0
M  V30 5594 H 546.33 -3.51427 -2.32544 0
M  V30 5595 H 545.005 -2.32035 -2.25703 0
M  V30 5596 H 543.912 -3.71857 -0.409067 0
M  V30 5597 H 545.245 -4.89029 -0.557771 0
M  V30 5598 N 546.897 -0.0685191 -1.57451 0
M  V30 5599 C 548.313 0.288101 -1.56978 0
M  V30 5600 C 548.513 1.70262 -1.07765 0
M  V30 5601 O 547.569 2.4135 -0.742054 0
M  V30 5602 C 548.882 0.100745 -3.00531 0
M  V30 5603 C 550.43 0.170531 -3.12535 0
M  V30 5604 C 550.905 0.0114944 -4.57999 0
M  V30 5605 N 552.396 0.0672065 -4.63151 0
M  V30 5606 C 553.131 -0.0314813 -5.73391 0
M  V30 5607 N 552.627 -0.183503 -6.92557 0
M  V30 5608 N 554.42 0.0253489 -5.62094 0
M  V30 5609 H 546.571 -0.993026 -1.87757 0
M  V30 5610 H 548.834 -0.386981 -0.865419 0
M  V30 5611 H 548.54 -0.875197 -3.40636 0
M  V30 5612 H 548.414 0.854457 -3.67395 0
M  V30 5613 H 550.801 1.13696 -2.72318 0
M  V30 5614 H 550.882 -0.614229 -2.48316 0
M  V30 5615 H 550.526 -0.951684 -4.98904 0
M  V30 5616 H 550.456 0.815617 -5.20245 0
M  V30 5617 H 552.947 0.183246 -3.77455 0
M  V30 5618 H 553.26 -0.251041 -7.72392 0
M  V30 5619 H 551.605 -0.218822 -6.94655 0
M  V30 5620 H 554.796 0.142794 -4.67882 0
M  V30 5621 H 554.969 -0.0550166 -6.47977 0
M  V30 5622 N 548.375 1.56261 0.205012 0
M  V30 5623 C 549.652 1.70856 0.952233 0
M  V30 5624 C 550.032 0.620501 2.01775 0
M  V30 5625 O 549.38 -0.370035 2.25484 0
M  V30 5626 C 549.59 3.12807 1.54767 0
M  V30 5627 C 550.938 3.72733 2.0336 0
M  V30 5628 O 551.962 3.15873 1.64629 0
M  V30 5629 O 550.821 4.72501 2.746 0
M  V30 5630 H 547.915 0.696496 0.445895 0
M  V30 5631 H 550.461 1.6857 0.195489 0
M  V30 5632 H 549.233 3.83465 0.779132 0
M  V30 5633 H 548.856 3.1928 2.36951 0
M  V30 5634 N 549.853 -0.472356 1.50355 0
M  V30 5635 C 551.099 -1.22634 1.6152 0
M  V30 5636 C 551.432 -1.91645 0.313995 0
M  V30 5637 O 550.707 -1.82059 -0.684446 0
M  V30 5638 C 550.99 -2.27099 2.7946 0
M  V30 5639 C 550.843 -1.62402 4.19459 0
M  V30 5640 C 552.162 -3.28421 2.92964 0
M  V30 5641 H 549.281 -0.444494 0.587873 0
M  V30 5642 H 551.923 -0.520321 1.82737 0
M  V30 5643 H 550.073 -2.87314 2.61501 0
M  V30 5644 H 551.745 -1.05793 4.49005 0
M  V30 5645 H 549.988 -0.927184 4.23776 0
M  V30 5646 H 550.659 -2.38309 4.97909 0
M  V30 5647 H 553.135 -2.78227 3.09401 0
M  V30 5648 H 552.011 -3.98845 3.77113 0
M  V30 5649 H 552.272 -3.92467 2.03525 0
M  V30 5650 N 551.331 -1.39911 -0.725443 0
M  V30 5651 C 552.241 -1.41688 -1.8698 0
M  V30 5652 C 553.257 -0.310579 -1.71206 0
M  V30 5653 O 554.433 -0.55359 -1.93642 0
M  V30 5654 C 551.498 -1.26811 -3.22676 0
M  V30 5655 C 550.559 -2.47497 -3.50776 0
M  V30 5656 C 549.792 -2.3332 -4.79997 0
M  V30 5657 O 550.015 -1.34175 -5.54394 0
M  V30 5658 O 548.949 -3.22498 -5.08211 0
M  V30 5659 H 552.775 -2.38171 -1.88436 0
M  V30 5660 H 550.36 -1.21128 -0.874548 0
M  V30 5661 H 552.242 -1.20684 -4.03749 0
M  V30 5662 H 550.917 -0.334289 -3.21969 0
M  V30 5663 H 549.824 -2.59201 -2.69751 0
M  V30 5664 H 551.157 -3.39606 -3.5627 0
M  V30 5665 N 552.809 0.956637 -1.25245 0
M  V30 5666 C 553.739 2.07058 -1.07931 0
M  V30 5667 C 554.72 1.70096 0.0110361 0
M  V30 5668 O 555.905 1.93555 -0.158121 0
M  V30 5669 C 553.035 3.40272 -0.695124 0
M  V30 5670 C 551.989 3.91235 -1.73549 0
M  V30 5671 C 551.315 5.20921 -1.20604 0
M  V30 5672 C 552.615 4.17837 -3.13385 0
M  V30 5673 H 554.309 2.218 -2.01109 0
M  V30 5674 H 551.855 1.06581 -0.968326 0
M  V30 5675 H 553.808 4.1765 -0.560949 0
M  V30 5676 H 552.532 3.25462 0.272355 0
M  V30 5677 H 551.191 3.16025 -1.85807 0
M  V30 5678 H 550.839 5.02479 -0.228846 0
M  V30 5679 H 550.539 5.55987 -1.90136 0
M  V30 5680 H 552.063 6.00897 -1.08421 0
M  V30 5681 H 553.477 4.8588 -3.04292 0
M  V30 5682 H 551.874 4.64154 -3.80369 0
M  V30 5683 H 552.944 3.2419 -3.60595 0
M  V30 5684 N 554.287 1.06798 1.15896 0
M  V30 5685 C 555.535 0.786211 1.8618 0
M  V30 5686 C 555.856 -0.689547 1.82401 0
M  V30 5687 O 555.126 -1.49913 1.26107 0
M  V30 5688 H 553.706 0.287843 0.689315 0
M  V30 5689 H 556.368 1.35055 1.40521 0
M  V30 5690 H 555.464 1.1157 2.91477 0
M  V30 5691 N 555.766 -1.3263 0.851289 0
M  V30 5692 C 556.996 -2.01271 0.466222 0
M  V30 5693 C 557.404 -1.64156 -0.940714 0
M  V30 5694 O 556.747 -0.857109 -1.62479 0
M  V30 5695 C 556.809 -3.55695 0.521672 0
M  V30 5696 C 556.473 -4.16227 1.88691 0
M  V30 5697 C 557.47 -4.34699 2.85189 0
M  V30 5698 C 555.155 -4.52377 2.18313 0
M  V30 5699 C 557.149 -4.88484 4.09465 0
M  V30 5700 C 554.836 -5.05868 3.42843 0
M  V30 5701 C 555.834 -5.23869 4.38235 0
M  V30 5702 O 555.522 -5.76218 5.6056 0
M  V30 5703 H 555.254 -0.651034 0.18202 0
M  V30 5704 H 557.808 -1.7026 1.14894 0
M  V30 5705 H 556.038 -3.86086 -0.217888 0
M  V30 5706 H 557.727 -4.05613 0.152682 0
M  V30 5707 H 558.493 -4.07107 2.63607 0
M  V30 5708 H 554.372 -4.37652 1.44851 0
M  V30 5709 H 557.916 -5.02451 4.83931 0
M  V30 5710 H 553.813 -5.32891 3.64277 0
M  V30 5711 H 554.581 -5.94616 5.62471 0
M  V30 5712 N 557.244 -0.608902 -1.45362 0
M  V30 5713 C 558.472 -0.111013 -2.06602 0
M  V30 5714 C 558.887 1.20516 -1.45332 0
M  V30 5715 O 558.244 1.73437 -0.567978 0
M  V30 5716 C 558.295 0.033688 -3.61484 0
M  V30 5717 O 558.016 -1.23041 -4.20467 0
M  V30 5718 C 559.517 0.562882 -4.39712 0
M  V30 5719 H 556.737 -0.0694453 -0.667397 0
M  V30 5720 H 559.281 -0.837008 -1.86586 0
M  V30 5721 H 557.436 0.710016 -3.80838 0
M  V30 5722 H 557.85 -1.06094 -5.13658 0
M  V30 5723 H 559.324 0.613213 -5.48583 0
M  V30 5724 H 559.801 1.58543 -4.09586 0
M  V30 5725 H 560.407 -0.0794454 -4.25226 0
M  V30 5726 N 558.722 1.53707 -0.348139 0
M  V30 5727 C 559.968 2.01286 0.247332 0
M  V30 5728 C 560.301 1.23546 1.49834 0
M  V30 5729 O 559.576 0.324331 1.91777 0
M  V30 5730 C 559.859 3.55768 0.556858 0
M  V30 5731 C 559.712 4.44216 -0.706564 0
M  V30 5732 C 561.031 4.1841 1.3646 0
M  V30 5733 H 558.15 0.731677 0.0884201 0
M  V30 5734 H 560.792 1.84106 -0.469584 0
M  V30 5735 H 558.942 3.70539 1.16761 0
M  V30 5736 H 560.614 4.41274 -1.34444 0
M  V30 5737 H 558.857 4.12892 -1.33052 0
M  V30 5738 H 559.528 5.50202 -0.445186 0
M  V30 5739 H 562.004 4.07365 0.848113 0
M  V30 5740 H 560.88 5.26563 1.54992 0
M  V30 5741 H 561.141 3.7333 2.36805 0
M  V30 5742 N 560.2 0.0768682 1.57412 0
M  V30 5743 C 561.132 -0.918248 2.10002 0
M  V30 5744 C 562.145 -1.25808 1.03325 0
M  V30 5745 O 563.334 -1.21438 1.30824 0
M  V30 5746 C 560.434 -2.23263 2.54964 0
M  V30 5747 C 559.607 -2.07088 3.8527 0
M  V30 5748 C 558.666 -3.21876 4.16272 0
M  V30 5749 O 557.692 -2.96643 4.8579 0
M  V30 5750 N 558.894 -4.4712 3.70221 0
M  V30 5751 H 561.659 -0.469209 2.96004 0
M  V30 5752 H 559.22 -0.108725 1.61535 0
M  V30 5753 H 561.212 -2.9897 2.72762 0
M  V30 5754 H 559.782 -2.59649 1.74072 0
M  V30 5755 H 559.002 -1.15818 3.76802 0
M  V30 5756 H 560.29 -1.93537 4.70554 0
M  V30 5757 H 559.688 -4.70506 3.1407 0
M  V30 5758 H 558.245 -5.19837 3.93209 0
M  V30 5759 N 561.678 -1.56367 -0.196722 0
M  V30 5760 C 562.903 -1.84991 -0.937714 0
M  V30 5761 C 563.328 -0.660244 -1.76132 0
M  V30 5762 O 562.686 0.390967 -1.77034 0
M  V30 5763 C 562.734 -3.11828 -1.81096 0
M  V30 5764 O 561.838 -2.92266 -2.90955 0
M  V30 5765 H 561.179 -0.609193 -0.264159 0
M  V30 5766 H 563.709 -2.03595 -0.202529 0
M  V30 5767 H 563.719 -3.42579 -2.21594 0
M  V30 5768 H 562.394 -3.98037 -1.2058 0
M  V30 5769 H 560.971 -2.72809 -2.54224 0
M  V30 5770 N 563.156 0.464375 -1.50603 0
M  V30 5771 C 564.404 1.21356 -1.61608 0
M  V30 5772 C 564.725 1.92329 -0.321643 0
M  V30 5773 O 563.995 1.84403 0.661232 0
M  V30 5774 H 562.575 0.45094 -0.595535 0
M  V30 5775 H 565.237 0.535046 -1.87412 0
M  V30 5776 H 564.333 1.95783 -2.43054 0
M  V30 5777 N 564.634 1.40294 0.718013 0
M  V30 5778 C 566.045 1.34289 1.29705 0
M  V30 5779 C 566.396 0.0152228 1.96194 0
M  V30 5780 O 565.521 -0.88682 1.97394 0
M  V30 5781 C 566.116 2.43219 2.3586 0
M  V30 5782 C 564.675 2.40682 2.89394 0
M  V30 5783 C 563.822 2.24223 1.63154 0
M  V30 5784 H 566.773 1.50135 0.514312 0
M  V30 5785 H 566.794 2.10986 3.16647 0
M  V30 5786 H 566.306 3.39836 1.87439 0
M  V30 5787 H 564.407 1.47756 3.42051 0
M  V30 5788 H 564.52 3.36177 3.41353 0
M  V30 5789 H 562.884 1.71696 1.88129 0
M  V30 5790 H 563.667 3.22834 1.16761 0
M  V30 5791 N 566.112 -0.949982 1.2575 0
M  V30 5792 C 567.042 -2.06483 1.09028 0
M  V30 5793 C 568.023 -1.701 -0.00201532 0
M  V30 5794 O 569.208 -1.93469 0.168383 0
M  V30 5795 C 566.338 -3.39899 0.71316 0
M  V30 5796 C 565.292 -3.90309 1.75621 0
M  V30 5797 C 564.618 -5.20274 1.23365 0
M  V30 5798 C 565.918 -4.16169 3.15596 0
M  V30 5799 H 567.612 -2.20731 2.02283 0
M  V30 5800 H 565.158 -1.06066 0.973964 0
M  V30 5801 H 567.111 -4.17346 0.58309 0
M  V30 5802 H 565.835 -3.25602 -0.255091 0
M  V30 5803 H 564.494 -3.15035 1.8748 0
M  V30 5804 H 564.142 -5.02351 0.255491 0
M  V30 5805 H 563.842 -5.54971 1.93082 0
M  V30 5806 H 565.366 -6.00314 1.11607 0
M  V30 5807 H 566.78 -4.84259 3.06864 0
M  V30 5808 H 565.177 -4.62131 3.82825 0
M  V30 5809 H 566.247 -3.22273 3.6231 0
M  V30 5810 N 567.59 -1.07411 -1.15328 0
M  V30 5811 C 568.553 -0.698914 -2.18284 0
M  V30 5812 C 569.553 0.261149 -1.58665 0
M  V30 5813 O 570.743 0.0420277 -1.74149 0
M  V30 5814 C 567.875 -0.0302427 -3.40887 0
M  V30 5815 H 569.068 -1.61045 -2.52991 0
M  V30 5816 H 566.621 -0.870724 -1.298 0
M  V30 5817 H 567.356 0.893505 -3.11748 0
M  V30 5818 H 567.141 -0.720759 -3.85419 0
M  V30 5819 H 568.631 0.21759 -4.17033 0
M  V30 5820 N 569.068 1.32177 -0.85831 0
M  V30 5821 C 570.484 1.49873 -0.548656 0
M  V30 5822 C 570.684 1.79278 0.919874 0
M  V30 5823 O 569.74 1.86451 1.70271 0
M  V30 5824 C 571.053 2.64043 -1.4388 0
M  V30 5825 C 572.601 2.77928 -1.43961 0
M  V30 5826 C 573.076 3.95182 -2.31506 0
M  V30 5827 N 574.567 4.0245 -2.29321 0
M  V30 5828 C 575.302 4.9242 -2.93786 0
M  V30 5829 N 574.798 5.87373 -3.67376 0
M  V30 5830 N 576.591 4.85572 -2.83155 0
M  V30 5831 H 568.742 1.11357 -1.80868 0
M  V30 5832 H 571.005 0.549175 -0.772729 0
M  V30 5833 H 570.711 2.49055 -2.48324 0
M  V30 5834 H 570.585 3.59912 -1.12885 0
M  V30 5835 H 572.972 2.92338 -0.402813 0
M  V30 5836 H 573.053 1.82762 -1.78974 0
M  V30 5837 H 572.697 3.81531 -3.35256 0
M  V30 5838 H 572.627 4.89633 -1.93823 0
M  V30 5839 H 575.118 3.34507 -1.75822 0
M  V30 5840 H 575.431 6.52728 -4.13722 0
M  V30 5841 H 573.776 5.87388 -3.71484 0
M  V30 5842 H 576.967 4.10363 -2.25211 0
M  V30 5843 H 577.14 5.55486 -3.33676 0
M  V30 5844 N 570.547 0.616602 1.45037 0
M  V30 5845 C 571.477 -0.0840787 2.33349 0
M  V30 5846 C 572.458 -0.849641 1.4736 0
M  V30 5847 O 573.643 -0.818407 1.76113 0
M  V30 5848 C 570.773 -1.07604 3.3021 0
M  V30 5849 C 569.727 -0.423096 4.25904 0
M  V30 5850 C 569.053 -1.52394 5.12523 0
M  V30 5851 C 570.353 0.661457 5.18095 0
M  V30 5852 H 572.047 0.653333 2.92185 0
M  V30 5853 H 569.593 0.315634 1.40498 0
M  V30 5854 H 571.546 -1.57485 3.90866 0
M  V30 5855 H 570.27 -1.84416 2.69552 0
M  V30 5856 H 568.929 0.05493 3.66559 0
M  V30 5857 H 568.577 -2.28257 4.48227 0
M  V30 5858 H 568.277 -1.09251 5.77354 0
M  V30 5859 H 569.801 -2.02485 5.76049 0
M  V30 5860 H 571.215 0.246353 5.7277 0
M  V30 5861 H 569.612 1.01517 5.91451 0
M  V30 5862 H 570.682 1.53446 4.59981 0
M  V30 5863 N 572.025 -1.5352 0.356285 0
M  V30 5864 C 572.973 -2.26945 -0.50978 0
M  V30 5865 C 573.967 -1.29569 -1.09125 0
M  V30 5866 O 575.173 -1.47231 -1.03552 0
M  V30 5867 H 571.548 -0.729368 -0.183102 0
M  V30 5868 H 573.519 -2.98111 0.131374 0
M  V30 5869 C 572.268 -3.06466 -1.64237 0
M  V30 5870 H 571.591 -3.81233 -1.20423 0
M  V30 5871 H 573.031 -3.61035 -2.22327 0
M  V30 5872 C 571.49 -2.16737 -2.57928 0
M  V30 5873 O 572.02 -1.77195 -3.60507 0
M  V30 5874 N 570.226 -1.81558 -2.26903 0
M  V30 5875 H 569.773 -2.13913 -1.43524 0
M  V30 5876 H 569.731 -1.21806 -2.89846 0
M  V30 5877 N 573.503 -0.0852151 -1.57369 0
M  V30 5878 C 574.749 0.581666 -1.94279 0
M  V30 5879 C 575.082 1.68444 -0.966446 0
M  V30 5880 O 574.357 1.945 0.00215277 0
M  V30 5881 C 574.64 1.14609 -3.41375 0
M  V30 5882 C 574.493 0.0490414 -4.49773 0
M  V30 5883 C 575.812 2.04751 -3.8957 0
M  V30 5884 H 572.931 0.209972 -0.706456 0
M  V30 5885 H 575.573 -0.153915 -1.89376 0
M  V30 5886 H 573.723 1.77297 -3.45685 0
M  V30 5887 H 575.395 -0.584721 -4.57579 0
M  V30 5888 H 573.638 -0.618638 -4.29366 0
M  V30 5889 H 574.309 0.484601 -5.49869 0
M  V30 5890 H 576.785 1.51981 -3.87351 0
M  V30 5891 H 575.661 2.41173 -4.93079 0
M  V30 5892 H 575.922 2.96107 -3.28288 0
M  V30 5893 N 574.981 1.5647 0.188427 0
M  V30 5894 C 576.397 1.50204 0.539532 0
M  V30 5895 C 576.597 0.78644 1.85519 0
M  V30 5896 O 575.653 0.339714 2.50204 0
M  V30 5897 C 576.966 2.94893 0.588103 0
M  V30 5898 C 578.514 3.05602 0.67648 0
M  V30 5899 C 578.989 4.51716 0.756101 0
M  V30 5900 N 580.48 4.55894 0.819451 0
M  V30 5901 C 581.215 5.66272 0.90134 0
M  V30 5902 N 580.711 6.86323 0.945118 0
M  V30 5903 N 582.504 5.54201 0.939043 0
M  V30 5904 H 574.655 2.01406 -0.674493 0
M  V30 5905 H 576.918 0.916828 -0.241103 0
M  V30 5906 H 576.624 3.50334 -0.309633 0
M  V30 5907 H 576.498 3.4861 1.44051 0
M  V30 5908 H 578.885 2.50206 1.56465 0
M  V30 5909 H 578.966 2.54999 -0.202262 0
M  V30 5910 H 578.61 5.07739 -0.12774 0
M  V30 5911 H 578.54 5.00058 1.65074 0
M  V30 5912 H 581.031 3.69452 0.794594 0
M  V30 5913 H 581.344 7.66194 1.0083 0
M  V30 5914 H 579.689 6.88968 0.913683 0
M  V30 5915 H 582.88 4.59333 0.901725 0
M  V30 5916 H 583.053 6.40247 0.999402 0
M  V30 5917 N 576.459 -0.456382 1.50847 0
M  V30 5918 C 577.389 -1.56025 1.73719 0
M  V30 5919 C 578.37 -1.5967 0.586473 0
M  V30 5920 O 579.555 -1.75702 0.827185 0
M  V30 5921 C 576.685 -2.94251 1.84483 0
M  V30 5922 C 575.639 -3.05471 2.99786 0
M  V30 5923 C 574.965 -4.45489 2.95709 0
M  V30 5924 C 576.265 -2.81318 4.40065 0
M  V30 5925 H 577.959 -1.37138 2.66146 0
M  V30 5926 H 575.505 -0.658299 1.28072 0
M  V30 5927 H 577.458 -3.71417 1.99067 0
M  V30 5928 H 576.182 -3.14328 0.886891 0
M  V30 5929 H 574.841 -2.30741 2.84876 0
M  V30 5930 H 574.489 -4.62505 1.97732 0
M  V30 5931 H 574.189 -4.53929 3.73125 0
M  V30 5932 H 575.713 -5.24655 3.12362 0
M  V30 5933 H 577.127 -3.48226 4.55425 0
M  V30 5934 H 575.524 -3.01188 5.19043 0
M  V30 5935 H 576.594 -1.7706 4.51418 0
M  V30 5936 N 577.937 -1.40673 -0.710563 0
M  V30 5937 C 578.885 -1.41517 -1.84596 0
M  V30 5938 C 579.879 -0.295043 -1.66811 0
M  V30 5939 O 581.085 -0.466331 -1.73854 0
M  V30 5940 H 577.46 -0.442467 -0.608052 0
M  V30 5941 H 579.431 -2.37238 -1.80999 0
M  V30 5942 C 578.18 -1.29957 -3.225 0
M  V30 5943 H 577.503 -2.15429 -3.36794 0
M  V30 5944 H 578.943 -1.34608 -4.02066 0
M  V30 5945 C 577.402 -0.0103164 -3.36898 0
M  V30 5946 O 577.932 0.950707 -3.90288 0
M  V30 5947 N 576.138 0.0608409 -2.90536 0
M  V30 5948 H 575.685 -0.721943 -2.47277 0
M  V30 5949 H 575.643 0.92292 -3.00549 0
M  V30 5950 N 579.415 0.9433 -1.26252 0
M  V30 5951 C 580.365 2.02746 -1.04297 0
M  V30 5952 C 581.349 1.60882 0.0239435 0
M  V30 5953 O 582.541 1.75947 -0.192757 0
M  V30 5954 C 579.67 3.36585 -0.6757 0
M  V30 5955 C 578.756 3.84939 -1.77996 0
M  V30 5956 N 579.147 4.05966 -3.01704 0
M  V30 5957 C 577.445 4.13833 -1.66308 0
M  V30 5958 C 578.146 4.45987 -3.73458 0
M  V30 5959 N 577.122 4.52569 -3.01135 0
M  V30 5960 H 580.924 2.17012 -1.98199 0
M  V30 5961 H 578.438 1.12898 -1.16738 0
M  V30 5962 H 580.435 4.13896 -0.499571 0
M  V30 5963 H 579.095 3.2369 0.255863 0
M  V30 5964 H 580.106 3.92716 -3.37631 0
M  V30 5965 H 576.783 4.09739 -0.801267 0
M  V30 5966 H 578.173 4.70465 -4.79701 0
M  V30 5967 N 580.893 1.08022 1.14757 0
M  V30 5968 C 581.856 0.71048 2.1791 0
M  V30 5969 C 582.856 -0.252731 1.58801 0
M  V30 5970 O 584.046 -0.0327915 1.74169 0
M  V30 5971 C 581.178 0.0483203 3.40866 0
M  V30 5972 H 582.371 1.62384 2.52134 0
M  V30 5973 H 579.924 0.877595 1.29337 0
M  V30 5974 H 580.659 -0.876959 3.12218 0
M  V30 5975 H 580.444 0.741189 3.85031 0
M  V30 5976 H 581.934 -0.195471 4.17142 0
M  V30 5977 N 582.371 -1.3172 0.865308 0
M  V30 5978 C 583.596 -2.01591 0.487415 0
M  V30 5979 C 584.021 -1.6455 -0.911307 0
M  V30 5980 O 583.379 -0.851689 -1.6005 0
M  V30 5981 C 583.427 -3.54759 0.646401 0
M  V30 5982 O 582.531 -4.11185 -0.316284 0
M  V30 5983 H 581.872 -0.634884 0.194468 0
M  V30 5984 H 584.402 -1.68024 1.16744 0
M  V30 5985 H 584.412 -4.04438 0.537932 0
M  V30 5986 H 583.087 -3.8106 1.66632 0
M  V30 5987 H 581.664 -3.72543 -0.163162 0
M  V30 5988 N 583.85 -0.624285 -1.44708 0
M  V30 5989 C 584.798 0.0969952 -2.32398 0
M  V30 5990 C 585.792 0.842762 -1.46949 0
M  V30 5991 O 586.998 0.756436 -1.63334 0
M  V30 5992 H 583.373 0.0501306 -0.750327 0
M  V30 5993 H 585.344 -0.660767 -2.90992 0
M  V30 5994 C 584.093 1.06967 -3.30837 0
M  V30 5995 H 583.416 0.505242 -3.96595 0
M  V30 5996 H 584.856 1.54397 -3.94889 0
M  V30 5997 C 583.315 2.15153 -2.5925 0
M  V30 5998 O 583.845 3.23139 -2.3863 0
M  V30 5999 N 582.051 1.90898 -2.19103 0
M  V30 6000 H 581.598 1.03086 -2.36074 0
M  V30 6001 H 581.556 2.63485 -1.71531 0
M  V30 6002 N 585.328 1.53329 -0.364422 0
M  V30 6003 C 586.744 1.59594 -0.0133165 0
M  V30 6004 C 586.944 1.37959 1.46865 0
M  V30 6005 O 586 1.18418 2.2301 0
M  V30 6006 C 587.313 2.97032 -0.468213 0
M  V30 6007 C 588.861 3.10138 -0.422334 0
M  V30 6008 C 589.336 4.49986 -0.853024 0
M  V30 6009 N 590.827 4.56098 -0.808037 0
M  V30 6010 C 591.562 5.62495 -1.11299 0
M  V30 6011 N 591.058 6.7665 -1.48717 0
M  V30 6012 N 592.851 5.52473 -1.03586 0
M  V30 6013 H 585.002 1.65644 -1.32951 0
M  V30 6014 H 587.265 0.77684 -0.543345 0
M  V30 6015 H 586.971 3.18 -1.5023 0
M  V30 6016 H 586.845 3.76918 0.145775 0
M  V30 6017 H 589.232 2.88881 0.602622 0
M  V30 6018 H 589.313 2.32263 -1.0718 0
M  V30 6019 H 588.957 4.7198 -1.87609 0
M  V30 6020 H 588.887 5.26289 -0.180819 0
M  V30 6021 H 591.378 3.74131 -0.532361 0
M  V30 6022 H 591.691 7.53776 -1.70415 0
M  V30 6023 H 590.036 6.78044 -1.52581 0
M  V30 6024 H 593.227 4.6217 -0.742736 0
M  V30 6025 H 593.4 6.35295 -1.27686 0
M  V30 6026 N 586.806 0.0935595 1.57322 0
M  V30 6027 C 588.222 -0.263091 1.57417 0
M  V30 6028 C 588.422 -1.68526 1.1046 0
M  V30 6029 O 587.478 -2.40139 0.780357 0
M  V30 6030 C 588.791 -0.0529201 3.00653 0
M  V30 6031 C 590.339 -0.120788 3.12767 0
M  V30 6032 C 590.814 0.0613707 4.57959 0
M  V30 6033 N 592.305 0.00648534 4.632 0
M  V30 6034 C 593.04 0.122699 5.73269 0
M  V30 6035 N 592.536 0.29366 6.92177 0
M  V30 6036 N 594.329 0.0640787 5.62063 0
M  V30 6037 H 586.48 1.02277 1.86154 0
M  V30 6038 H 588.743 0.4007 0.859153 0
M  V30 6039 H 588.449 0.929279 3.39201 0
M  V30 6040 H 588.323 -0.795899 3.68708 0
M  V30 6041 H 590.71 -1.09349 2.74093 0
M  V30 6042 H 590.791 0.653656 2.47307 0
M  V30 6043 H 590.435 1.03093 4.97327 0
M  V30 6044 H 590.365 -0.732748 5.21477 0
M  V30 6045 H 592.856 -0.123173 3.77699 0
M  V30 6046 H 593.169 0.37389 7.71895 0
M  V30 6047 H 591.514 0.329307 6.94219 0
M  V30 6048 H 594.705 -0.0683396 4.6805 0
M  V30 6049 H 594.878 0.158097 6.47807 0
M  V30 6050 N 588.284 -1.56567 -0.180126 0
M  V30 6051 C 589.509 -1.85975 -0.918041 0
M  V30 6052 C 589.934 -0.678888 -1.75422 0
M  V30 6053 O 589.292 0.372168 -1.77439 0
M  V30 6054 C 589.34 -3.13731 -1.77779 0
M  V30 6055 O 588.444 -2.95335 -2.87838 0
M  V30 6056 H 587.785 -0.61196 -0.257683 0
M  V30 6057 H 590.315 -2.03798 -0.180923 0
M  V30 6058 H 590.325 -3.4491 -2.17948 0
M  V30 6059 H 589 -3.99293 -1.16352 0
M  V30 6060 H 587.577 -2.7549 -2.51316 0
M  V30 6061 N 589.762 0.448376 -1.51087 0
M  V30 6062 C 591.009 1.19872 -1.63209 0
M  V30 6063 C 591.337 1.91451 -0.343062 0
M  V30 6064 O 590.592 1.83789 0.672321 0
M  V30 6065 C 590.891 2.24866 -2.77795 0
M  V30 6066 C 590.557 1.70378 -4.17471 0
M  V30 6067 C 589.219 1.55241 -4.55471 0
M  V30 6068 C 591.571 1.30203 -5.04675 0
M  V30 6069 C 588.899 0.983844 -5.78392 0
M  V30 6070 C 591.251 0.747798 -6.28165 0
M  V30 6071 C 589.915 0.583233 -6.64947 0
M  V30 6072 H 589.185 0.438642 -0.597222 0
M  V30 6073 H 591.832 0.49136 -1.85089 0
M  V30 6074 H 590.137 3.01598 -2.50092 0
M  V30 6075 H 591.834 2.82723 -2.84374 0
M  V30 6076 H 588.424 1.83134 -3.87505 0
M  V30 6077 H 592.608 1.40723 -4.75932 0
M  V30 6078 H 587.864 0.844007 -6.05546 0
M  V30 6079 H 592.038 0.427927 -6.95084 0
M  V30 6080 H 589.665 0.140532 -7.6007 0
M  V30 6081 N 591.24 1.41047 0.703093 0
M  V30 6082 C 592.188 1.42494 1.83843 0
M  V30 6083 C 593.182 0.303885 1.66652 0
M  V30 6084 O 594.388 0.475544 1.73605 0
M  V30 6085 H 590.763 0.445685 0.605697 0
M  V30 6086 H 592.734 2.38194 1.79739 0
M  V30 6087 C 591.483 1.31666 3.21807 0
M  V30 6088 H 590.806 2.17212 3.35647 0
M  V30 6089 H 592.246 1.36738 4.01346 0
M  V30 6090 C 590.705 0.0281828 3.36888 0
M  V30 6091 O 591.235 -0.929995 3.90786 0
M  V30 6092 N 589.441 -0.0454322 2.90564 0
M  V30 6093 H 588.988 0.735046 2.4689 0
M  V30 6094 H 588.946 -0.906968 3.01034 0
M  V30 6095 N 592.718 -0.936591 1.26751 0
M  V30 6096 C 593.943 -1.72288 1.15462 0
M  V30 6097 C 594.368 -1.85915 -0.285887 0
M  V30 6098 O 593.726 -1.35272 -1.20711 0
M  V30 6099 C 593.774 -3.10503 1.83359 0
M  V30 6100 O 592.878 -3.96745 1.1255 0
M  V30 6101 H 592.219 -0.52843 0.402067 0
M  V30 6102 H 594.749 -1.17271 1.67656 0
M  V30 6103 H 594.759 -3.60867 1.90365 0
M  V30 6104 H 593.434 -2.99901 2.88153 0
M  V30 6105 H 592.011 -3.55191 1.13551 0
M  V30 6106 N 594.196 -1.08629 -1.14182 0
M  V30 6107 C 595.473 -0.73002 -1.81466 0
M  V30 6108 C 595.853 0.785996 -1.95922 0
M  V30 6109 O 595.201 1.70535 -1.52086 0
M  V30 6110 C 595.411 -1.45957 -3.17014 0
M  V30 6111 C 596.759 -1.62008 -3.92477 0
M  V30 6112 O 597.783 -1.42141 -3.26611 0
M  V30 6113 O 596.642 -1.94806 -5.106 0
M  V30 6114 H 593.736 -0.261307 -0.784632 0
M  V30 6115 H 596.282 -1.188 -1.2118 0
M  V30 6116 H 595.054 -2.49221 -3.01669 0
M  V30 6117 H 594.677 -0.993222 -3.84995 0
M  V30 6118 N 595.674 1.31259 -0.872281 0
M  V30 6119 C 596.921 1.96622 -0.484365 0
M  V30 6120 C 597.249 1.68939 0.963841 0
M  V30 6121 O 596.504 0.97974 1.6941 0
M  V30 6122 C 596.803 3.50659 -0.690889 0
M  V30 6123 C 596.469 3.98366 -2.11224 0
M  V30 6124 C 595.131 4.11104 -2.50094 0
M  V30 6125 C 597.483 4.23425 -3.0391 0
M  V30 6126 C 594.811 4.46254 -3.80887 0
M  V30 6127 C 597.163 4.60039 -4.3422 0
M  V30 6128 C 595.827 4.70984 -4.73001 0
M  V30 6129 H 595.097 0.71949 -0.177242 0
M  V30 6130 H 597.744 1.56353 -1.10571 0
M  V30 6131 H 596.049 3.91798 0.0135782 0
M  V30 6132 H 597.746 3.99284 -0.370534 0
M  V30 6133 H 594.336 3.88949 -1.80047 0
M  V30 6134 H 598.52 4.13075 -2.75104 0
M  V30 6135 H 593.776 4.52926 -4.10692 0
M  V30 6136 H 597.95 4.78381 -5.06088 0
M  V30 6137 H 595.577 4.97977 -5.7439 0
M  V30 6138 N 597.152 0.631951 1.44375 0
M  V30 6139 C 598.429 0.067646 1.95483 0
M  V30 6140 C 598.809 -1.40683 1.57389 0
M  V30 6141 O 598.157 -2.12167 0.848375 0
M  V30 6142 C 598.367 0.291392 3.47781 0
M  V30 6143 C 599.715 0.185028 4.24197 0
M  V30 6144 O 600.739 0.222803 3.55503 0
M  V30 6145 O 599.598 0.0906642 5.46425 0
M  V30 6146 H 596.692 -0.0218379 0.826712 0
M  V30 6147 H 599.238 0.703711 1.54421 0
M  V30 6148 H 598.01 1.31449 3.68561 0
M  V30 6149 H 597.633 -0.378772 3.95792 0
M  V30 6150 N 598.631 -1.53133 0.372548 0
M  V30 6151 C 599.563 -2.23557 -0.505444 0
M  V30 6152 C 600.576 -1.25211 -1.04049 0
M  V30 6153 O 601.765 -1.51391 -0.945675 0
M  V30 6154 C 598.865 -2.92516 -1.71136 0
M  V30 6155 C 598.038 -4.17428 -1.30661 0
M  V30 6156 C 597.097 -4.69535 -2.37536 0
M  V30 6157 O 596.123 -5.33042 -1.99637 0
M  V30 6158 N 597.325 -4.47947 -3.6922 0
M  V30 6159 H 600.09 -2.9954 0.0978259 0
M  V30 6160 H 597.651 -1.60684 0.198068 0
M  V30 6161 H 599.643 -3.24281 -2.42124 0
M  V30 6162 H 598.213 -2.19944 -2.22134 0
M  V30 6163 H 597.433 -3.91888 -0.426292 0
M  V30 6164 H 598.721 -4.98622 -1.01259 0
M  V30 6165 H 598.119 -3.97219 -4.02783 0
M  V30 6166 H 596.676 -4.84245 -4.36292 0
M  V30 6167 N 600.109 -0.101901 -1.5727 0
M  V30 6168 C 601.337 0.568392 -1.98939 0
M  V30 6169 C 601.752 1.61301 -0.981194 0
M  V30 6170 O 601.109 1.82478 0.0282869 0
M  V30 6171 C 601.16 1.20997 -3.40649 0
M  V30 6172 O 600.881 0.207129 -4.3761 0
M  V30 6173 C 602.382 1.96523 -3.97358 0
M  V30 6174 H 599.602 0.15186 -0.65359 0
M  V30 6175 H 602.146 -0.183198 -2.03678 0
M  V30 6176 H 600.301 1.91245 -3.36904 0
M  V30 6177 H 600.715 0.671071 -5.20189 0
M  V30 6178 H 602.189 2.36764 -4.98645 0
M  V30 6179 H 602.666 2.83376 -3.35552 0
M  V30 6180 H 603.272 1.31076 -4.04598 0
M  V30 6181 N 601.587 1.56661 0.17182 0
M  V30 6182 C 603.003 1.50768 0.52357 0
M  V30 6183 C 603.203 0.806072 1.84675 0
M  V30 6184 O 602.259 0.366233 2.4983 0
M  V30 6185 C 603.572 2.955 0.556793 0
M  V30 6186 C 605.12 3.06303 0.644029 0
M  V30 6187 C 605.595 4.52492 0.708148 0
M  V30 6188 N 607.086 4.56737 0.771051 0
M  V30 6189 C 607.821 5.67196 0.841229 0
M  V30 6190 N 607.317 6.87287 0.872272 0
M  V30 6191 N 609.11 5.55165 0.88021 0
M  V30 6192 H 601.261 2.00679 -0.695817 0
M  V30 6193 H 603.524 0.914219 -0.250814 0
M  V30 6194 H 603.23 3.49986 -0.346774 0
M  V30 6195 H 603.104 3.50119 1.40346 0
M  V30 6196 H 605.491 2.51851 1.53802 0
M  V30 6197 H 605.572 2.5477 -0.229297 0
M  V30 6198 H 605.216 5.07575 -0.181585 0
M  V30 6199 H 605.146 5.01781 1.59761 0
M  V30 6200 H 607.637 3.70274 0.755364 0
M  V30 6201 H 607.95 7.6722 0.92698 0
M  V30 6202 H 606.295 6.89898 0.840557 0
M  V30 6203 H 609.486 4.60263 0.852956 0
M  V30 6204 H 609.659 6.41271 0.931439 0
M  V30 6205 N 603.065 -0.440357 1.51323 0
M  V30 6206 C 603.995 -1.54174 1.75364 0
M  V30 6207 C 604.976 -1.59039 0.603375 0
M  V30 6208 O 606.161 -1.74815 0.845774 0
M  V30 6209 C 603.291 -2.92277 1.87593 0
M  V30 6210 C 602.245 -3.02274 3.03009 0
M  V30 6211 C 601.571 -4.42327 3.00418 0
M  V30 6212 C 602.871 -2.76634 4.43024 0
M  V30 6213 H 604.565 -1.34307 2.67585 0
M  V30 6214 H 602.111 -0.644678 1.28763 0
M  V30 6215 H 604.064 -3.69284 2.02995 0
M  V30 6216 H 602.788 -3.13369 0.920179 0
M  V30 6217 H 601.447 -2.27706 2.87307 0
M  V30 6218 H 601.095 -4.60382 2.02626 0
M  V30 6219 H 600.795 -4.49946 3.77918 0
M  V30 6220 H 602.319 -5.21312 3.17909 0
M  V30 6221 H 603.733 -3.43376 4.59093 0
M  V30 6222 H 602.13 -2.95666 5.22208 0
M  V30 6223 H 603.2 -1.72262 4.5327 0
M  V30 6224 N 604.543 -1.41418 -0.695603 0
M  V30 6225 C 605.789 -1.40982 -1.4578 0
M  V30 6226 C 606.122 -0.0187763 -1.94191 0
M  V30 6227 O 605.397 0.95346 -1.69527 0
M  V30 6228 C 605.68 -2.41657 -2.66972 0
M  V30 6229 C 605.533 -3.89869 -2.24327 0
M  V30 6230 C 606.852 -2.39589 -3.69168 0
M  V30 6231 H 603.971 -0.513405 -0.528757 0
M  V30 6232 H 606.613 -1.72693 -0.792275 0
M  V30 6233 H 604.763 -2.14746 -3.23754 0
M  V30 6234 H 606.435 -4.27683 -1.72872 0
M  V30 6235 H 604.678 -4.04737 -1.56111 0
M  V30 6236 H 605.349 -4.55857 -3.11285 0
M  V30 6237 H 607.825 -2.63471 -3.2206 0
M  V30 6238 H 606.701 -3.12044 -4.51575 0
M  V30 6239 H 606.962 -1.41447 -4.18862 0
M  V30 6240 N 606.021 0.929856 -1.27246 0
M  V30 6241 C 607.267 1.6798 -1.13625 0
M  V30 6242 C 607.6 1.91586 0.317589 0
M  V30 6243 O 606.875 1.50467 1.23247 0
M  V30 6244 C 607.158 3.04766 -1.91806 0
M  V30 6245 C 607.011 2.88415 -3.45162 0
M  V30 6246 C 608.33 4.05063 -1.72082 0
M  V30 6247 H 605.449 0.609632 -0.414147 0
M  V30 6248 H 608.091 1.0792 -1.56376 0
M  V30 6249 H 606.241 3.56034 -1.55474 0
M  V30 6250 H 607.913 2.44282 -3.91311 0
M  V30 6251 H 606.156 2.23802 -3.71611 0
M  V30 6252 H 606.827 3.85482 -3.95105 0
M  V30 6253 H 609.303 3.62798 -2.03757 0
M  V30 6254 H 608.179 4.98765 -2.29182 0
M  V30 6255 H 608.44 4.37021 -0.668206 0
M  V30 6256 N 607.499 1.09233 1.13605 0
M  V30 6257 C 608.724 0.849067 1.89224 0
M  V30 6258 C 609.149 -0.593875 1.78479 0
M  V30 6259 O 608.507 -1.41703 1.13092 0
M  V30 6260 C 608.555 1.28642 3.36873 0
M  V30 6261 O 607.659 0.44363 4.10007 0
M  V30 6262 H 607 0.30767 0.588417 0
M  V30 6263 H 609.53 1.45595 1.43748 0
M  V30 6264 H 609.54 1.27096 3.87699 0
M  V30 6265 H 608.215 2.33729 3.44011 0
M  V30 6266 H 606.792 0.523241 3.69211 0
M  V30 6267 N 608.977 -1.30795 0.87923 0
M  V30 6268 C 610.207 -2.00237 0.50881 0
M  V30 6269 C 610.615 -1.66115 -0.905682 0
M  V30 6270 O 609.958 -0.89138 -1.60624 0
M  V30 6271 C 610.02 -3.54508 0.597003 0
M  V30 6272 C 609.684 -4.12131 1.97477 0
M  V30 6273 C 610.681 -4.28552 2.94346 0
M  V30 6274 C 608.366 -4.47644 2.2786 0
M  V30 6275 C 610.36 -4.79689 4.19735 0
M  V30 6276 C 608.047 -4.98481 3.53496 0
M  V30 6277 C 609.045 -5.14456 4.49248 0
M  V30 6278 O 608.733 -5.64199 5.72656 0
M  V30 6279 H 608.465 -0.647026 0.195788 0
M  V30 6280 H 611.019 -1.67785 1.1848 0
M  V30 6281 H 609.249 -3.86461 -0.135945 0
M  V30 6282 H 610.938 -4.05198 0.238684 0
M  V30 6283 H 611.704 -4.01424 2.72183 0
M  V30 6284 H 607.583 -4.34481 1.54102 0
M  V30 6285 H 611.127 -4.92073 4.9448 0
M  V30 6286 H 607.024 -5.25044 3.75498 0
M  V30 6287 H 607.792 -5.82551 5.74957 0
M  V30 6288 N 610.455 -0.639598 -1.44038 0
M  V30 6289 C 611.866 -0.228866 -1.85292 0
M  V30 6290 C 612.217 1.22161 -1.53529 0
M  V30 6291 O 611.342 1.93064 -0.977518 0
M  V30 6292 C 611.937 -0.408592 -3.36327 0
M  V30 6293 C 610.496 -0.0522953 -3.76364 0
M  V30 6294 C 609.643 -0.717959 -2.67844 0
M  V30 6295 H 612.594 -0.844194 -1.34384 0
M  V30 6296 H 612.615 0.349968 -3.78887 0
M  V30 6297 H 612.127 -1.46435 -3.59414 0
M  V30 6298 H 610.228 1.0014 -3.58891 0
M  V30 6299 H 610.341 -0.468261 -4.76806 0
M  V30 6300 H 608.705 -0.152459 -2.54243 0
M  V30 6301 H 609.488 -1.77648 -2.93762 0
M  V30 6302 N 611.933 1.52934 -0.380664 0
M  V30 6303 C 612.863 2.29118 0.450268 0
M  V30 6304 C 613.844 1.32153 1.07096 0
M  V30 6305 O 615.029 1.61038 1.08537 0
M  V30 6306 C 612.159 3.09161 1.58231 0
M  V30 6307 C 611.113 4.13938 1.0881 0
M  V30 6308 C 610.439 4.82153 2.31155 0
M  V30 6309 C 611.739 5.22048 0.162146 0
M  V30 6310 H 613.433 2.98826 -0.185361 0
M  V30 6311 H 610.979 1.43715 -0.0905886 0
M  V30 6312 H 612.932 3.61211 2.17036 0
M  V30 6313 H 611.656 2.3717 2.2454 0
M  V30 6314 H 610.315 3.62855 0.522633 0
M  V30 6315 H 609.963 4.06719 2.95953 0
M  V30 6316 H 609.663 5.52966 1.98752 0
M  V30 6317 H 611.187 5.37004 2.90618 0
M  V30 6318 H 612.601 5.6951 0.658126 0
M  V30 6319 H 610.998 6.00057 -0.0717122 0
M  V30 6320 H 612.068 4.78398 -0.791438 0
M  V30 6321 N 613.412 0.11024 1.57214 0
M  V30 6322 C 614.637 -0.561179 1.99664 0
M  V30 6323 C 615.062 -1.59985 0.989266 0
M  V30 6324 O 614.42 -1.81255 -0.0402399 0
M  V30 6325 C 614.468 -1.17189 3.41027 0
M  V30 6326 O 613.572 -2.28755 3.4314 0
M  V30 6327 H 612.913 -0.14101 0.648855 0
M  V30 6328 H 615.443 0.196128 2.03658 0
M  V30 6329 H 615.453 -1.50954 3.79047 0
M  V30 6330 H 614.128 -0.411041 4.13864 0
M  V30 6331 H 612.705 -1.96495 3.16929 0
M  V30 6332 N 614.89 -1.56749 -0.16351 0
M  V30 6333 C 616.136 -1.83597 -0.875436 0
M  V30 6334 C 616.491 -0.691907 -1.79528 0
M  V30 6335 O 615.784 0.311193 -1.89056 0
M  V30 6336 C 615.978 -3.14342 -1.70071 0
M  V30 6337 C 615.807 -4.41356 -0.862265 0
M  V30 6338 C 614.577 -5.02467 -0.534299 0
M  V30 6339 C 616.775 -5.1391 -0.200203 0
M  V30 6340 N 614.757 -6.13068 0.31947 0
M  V30 6341 C 616.128 -6.17862 0.514398 0
M  V30 6342 C 618.183 -4.97757 -0.119171 0
M  V30 6343 C 616.886 -7.07412 1.30236 0
M  V30 6344 C 618.912 -5.87756 0.655477 0
M  V30 6345 C 618.274 -6.91178 1.35842 0
M  V30 6346 H 614.373 -0.722702 -0.298708 0
M  V30 6347 H 616.957 -1.94182 -0.141883 0
M  V30 6348 H 615.128 -3.04933 -2.40562 0
M  V30 6349 H 616.86 -3.29156 -2.35453 0
M  V30 6350 H 613.615 -4.65611 -0.866222 0
M  V30 6351 H 614.039 -6.72978 0.736893 0
M  V30 6352 H 618.681 -4.178 -0.648278 0
M  V30 6353 H 616.399 -7.86808 1.84278 0
M  V30 6354 H 619.985 -5.77328 0.719948 0
M  V30 6355 H 618.865 -7.59614 1.94822 0
M  V30 6356 O 616.407 0.308401 -1.58528 0
M  V30 6357 H 617.098 0.955962 -1.68467 0
M  V30 END ATOM
M  V30 BEGIN BOND
M  V30 END BOND
M  V30 END CTAB
M  END
$$$$
