drugbank_target|Q9HVJ6 Probable outer membrane protein (DB04233)
 OpenBabel12092120443D

  0  0  0     0  0            999 V3000
M  V30 BEGIN CTAB
M  V30 COUNTS 6876 6970 0 0 0
M  V30 BEGIN ATOM
M  V30 1 H -0.908 1.98254 -0.117106 0
M  V30 2 N 0 1.576 0 0
M  V30 3 C 0.933 2.03868 1.02534 0
M  V30 4 C 1.911 0.928543 1.3348 0
M  V30 5 O 3.095 1.19667 1.45644 0
M  V30 6 C 0.222 2.43627 2.35294 0
M  V30 7 C -0.732 3.65373 2.2001 0
M  V30 8 S 0.101 5.13292 1.52614 0
M  V30 9 C 1.257 5.56322 2.86805 0
M  V30 10 H 1.49 2.90518 0.631377 0
M  V30 11 H -0.977 1.52953 0.210867 0
M  V30 12 H 0.981 2.67203 3.11629 0
M  V30 13 H -0.358 1.57376 2.7183 0
M  V30 14 H -1.165 3.90944 3.18086 0
M  V30 15 H -1.563 3.418 1.51819 0
M  V30 16 H 0.729 5.58782 3.83104 0
M  V30 17 H 1.672 6.56266 2.65933 0
M  V30 18 H 2.08 4.83886 2.90714 0
M  V30 19 N 1.4781 -0.272755 1.55222 0
M  V30 20 C 2.8891 -0.84378 1.66545 0
M  V30 21 C 3.2401 -1.87035 0.592641 0
M  V30 22 O 2.3651 -2.14761 -0.265818 0
M  V30 23 C 2.9601 -1.53723 3.01918 0
M  V30 24 C 1.5191 -2.05628 3.15268 0
M  V30 25 C 0.6661 -0.898424 2.62343 0
M  V30 26 H 3.6171 -0.0490998 1.58624 0
M  V30 27 H 3.6381 -2.40421 2.94921 0
M  V30 28 H 3.1501 -0.78983 3.79978 0
M  V30 29 H 1.2511 -2.83329 2.41983 0
M  V30 30 H 1.3641 -2.27142 4.21833 0
M  V30 31 H -0.2719 -1.29186 2.19506 0
M  V30 32 H 0.5111 -0.164528 3.42906 0
M  V30 33 N 2.9562 -1.48159 -0.537278 0
M  V30 34 C 3.8862 -1.65029 -1.6519 0
M  V30 35 C 4.8672 -0.499281 -1.62607 0
M  V30 36 O 6.0522 -0.730972 -1.79918 0
M  V30 37 C 3.1822 -1.68303 -3.03795 0
M  V30 38 C 2.1362 -2.8283 -3.21234 0
M  V30 39 C 1.4622 -2.71189 -4.60826 0
M  V30 40 C 2.7622 -4.24211 -3.04701 0
M  V30 41 H 4.4562 -2.58341 -1.51328 0
M  V30 42 H 2.0022 -1.24325 -0.726585 0
M  V30 43 H 3.9552 -1.78693 -3.81637 0
M  V30 44 H 2.6792 -0.715635 -3.18663 0
M  V30 45 H 1.3382 -2.71983 -2.45807 0
M  V30 46 H 0.9862 -1.72435 -4.7252 0
M  V30 47 H 0.6862 -3.48035 -4.7344 0
M  V30 48 H 2.2102 -2.83537 -5.40777 0
M  V30 49 H 3.6242 -4.3593 -3.72341 0
M  V30 50 H 2.0212 -5.01998 -3.28813 0
M  V30 51 H 3.0912 -4.41184 -2.01209 0
M  V30 52 N 4.4343 0.785586 -1.36625 0
M  V30 53 C 5.3643 1.91259 -1.33949 0
M  V30 54 C 6.3453 1.68795 -0.210325 0
M  V30 55 O 7.5303 1.89854 -0.408561 0
M  V30 56 C 4.6603 3.28339 -1.13186 0
M  V30 57 C 3.6143 3.65335 -2.22967 0
M  V30 58 C 2.9403 5.00806 -1.87342 0
M  V30 59 C 4.2403 3.7352 -3.65075 0
M  V30 60 H 5.9343 1.93755 -2.28253 0
M  V30 61 H 3.4803 0.930788 -1.09874 0
M  V30 62 H 5.4333 4.06804 -1.09948 0
M  V30 63 H 4.1573 3.2624 -0.153332 0
M  V30 64 H 2.8163 2.89169 -2.25337 0
M  V30 65 H 2.4643 4.95233 -0.880545 0
M  V30 66 H 2.1643 5.26529 -2.60846 0
M  V30 67 H 3.6883 5.81687 -1.85667 0
M  V30 68 H 5.1023 4.42168 -3.64911 0
M  V30 69 H 3.4993 4.10731 -4.37516 0
M  V30 70 H 4.5693 2.74527 -3.99703 0
M  V30 71 N 5.9124 1.20967 1.01018 0
M  V30 72 C 7.1524 1.03511 1.76252 0
M  V30 73 C 7.5164 -0.42458 1.87247 0
M  V30 74 O 8.7174 -0.719508 2.58991 0
M  V30 75 C 6.9884 1.70726 3.13986 0
M  V30 76 S 8.5474 1.68458 4.05176 0
M  V30 77 H 5.3654 0.371037 0.606508 0
M  V30 78 H 7.9674 1.53628 1.20908 0
M  V30 79 H 6.6714 2.76128 3.03614 0
M  V30 80 H 6.2024 1.20767 3.74405 0
M  V30 81 H 8.2174 0.721987 4.90919 0
M  V30 82 N 7.3905 -1.2043 1.01659 0
M  V30 83 C 8.3535 -2.21433 0.591616 0
M  V30 84 C 9.3535 -1.57203 -0.338226 0
M  V30 85 O 10.5435 -1.73737 -0.126918 0
M  V30 86 C 7.6755 -3.40628 -0.136058 0
M  V30 87 H 8.8685 -2.60545 1.48514 0
M  V30 88 H 6.4215 -1.33893 0.806379 0
M  V30 89 H 7.1565 -3.07019 -1.04449 0
M  V30 90 H 6.9415 -3.88475 0.531917 0
M  V30 91 H 8.4315 -4.15475 -0.420735 0
M  V30 92 N 8.8686 -0.792821 -1.36206 0
M  V30 93 C 9.7986 -0.207853 -2.32573 0
M  V30 94 C 10.7796 0.659055 -1.56813 0
M  V30 95 O 11.9646 0.592176 -1.84951 0
M  V30 96 C 9.0946 0.655449 -3.41059 0
M  V30 97 C 8.0486 -0.111842 -4.27854 0
M  V30 98 C 7.3746 0.872274 -5.27537 0
M  V30 99 C 8.6746 -1.30299 -5.05786 0
M  V30 100 H 10.3686 -1.01294 -2.81744 0
M  V30 101 H 7.9146 -0.48854 -1.3546 0
M  V30 102 H 9.8676 1.07464 -4.07467 0
M  V30 103 H 8.5916 1.49328 -2.90463 0
M  V30 104 H 7.2506 -0.512053 -3.63006 0
M  V30 105 H 6.8986 1.70523 -4.73214 0
M  V30 106 H 6.5986 0.363291 -5.86476 0
M  V30 107 H 8.1226 1.28996 -5.96818 0
M  V30 108 H 9.5366 -0.959379 -5.65216 0
M  V30 109 H 7.9336 -1.7455 -5.74154 0
M  V30 110 H 9.0036 -2.09663 -4.37229 0
M  V30 111 N 10.3467 1.47872 -0.545128 0
M  V30 112 C 11.5957 2.01695 -0.0145033 0
M  V30 113 C 11.9087 1.42609 1.33873 0
M  V30 114 O 13.1147 1.88021 1.95858 0
M  V30 115 C 11.5707 3.59892 0.0245068 0
M  V30 116 C 11.1787 4.27966 -1.32475 0
M  V30 117 C 12.9227 4.21507 0.50316 0
M  V30 118 C 10.8297 5.78136 -1.2455 0
M  V30 119 H 9.7597 0.753998 -0.00165172 0
M  V30 120 H 12.4107 1.69985 -0.691175 0
M  V30 121 H 10.7927 3.88509 0.766575 0
M  V30 122 H 11.9667 4.11003 -2.08357 0
M  V30 123 H 10.2817 3.78286 -1.74036 0
M  V30 124 H 12.8787 5.31538 0.580656 0
M  V30 125 H 13.2217 3.87855 1.51243 0
M  V30 126 H 13.7547 3.97376 -0.183681 0
M  V30 127 H 10.4937 6.16388 -2.23039 0
M  V30 128 H 10.0137 5.97469 -0.528282 0
M  V30 129 H 11.6927 6.40099 -0.942488 0
M  V30 130 N 11.8248 0.280983 1.55075 0
M  V30 131 C 13.0708 -0.33461 2.00021 0
M  V30 132 C 13.4038 -1.55063 1.16915 0
M  V30 133 O 12.6788 -1.93006 0.240646 0
M  V30 134 C 12.9618 -0.711007 3.53011 0
M  V30 135 C 12.8148 0.512766 4.46868 0
M  V30 136 C 14.1338 -1.54522 4.12081 0
M  V30 137 H 11.2528 -0.120147 0.727141 0
M  V30 138 H 13.8948 0.389097 1.85973 0
M  V30 139 H 12.0448 -1.32761 3.65112 0
M  V30 140 H 13.7168 1.15131 4.46702 0
M  V30 141 H 11.9598 1.14975 4.18286 0
M  V30 142 H 12.6308 0.205556 5.51617 0
M  V30 143 H 15.1068 -1.02442 4.03293 0
M  V30 144 H 13.9828 -1.77739 5.19327 0
M  V30 145 H 14.2438 -2.52813 3.62682 0
M  V30 146 N 13.3029 -1.57598 0.00835791 0
M  V30 147 C 14.5509 -1.90551 -0.6734 0
M  V30 148 C 14.8719 -0.883301 -1.73847 0
M  V30 149 O 14.1419 0.0781442 -1.95744 0
M  V30 150 H 12.7219 -0.703312 -0.251717 0
M  V30 151 H 15.3839 -1.94833 0.0512592 0
M  V30 152 H 14.4799 -2.9056 -1.13935 0
M  V30 153 N 14.781 0.264519 -1.55364 0
M  V30 154 C 16.029 0.993021 -1.76021 0
M  V30 155 C 16.35 1.86511 -0.569099 0
M  V30 156 O 15.62 1.91438 0.415735 0
M  V30 157 H 14.2 0.369639 -0.649135 0
M  V30 158 H 16.862 0.286707 -1.9278 0
M  V30 159 H 15.958 1.62502 -2.66457 0
M  V30 160 N 16.2591 1.48442 0.529413 0
M  V30 161 C 17.1891 1.65902 1.64313 0
M  V30 162 C 18.1701 0.507897 1.6234 0
M  V30 163 O 19.3551 0.740503 1.79528 0
M  V30 164 C 16.4851 1.69911 3.02898 0
M  V30 165 C 15.4391 2.8453 3.19729 0
M  V30 166 C 14.7651 2.73629 4.59381 0
M  V30 167 C 16.0651 4.25821 3.02447 0
M  V30 168 H 17.7591 2.5914 1.49955 0
M  V30 169 H 15.3051 1.24709 0.719982 0
M  V30 170 H 17.2581 1.80715 3.80684 0
M  V30 171 H 15.9821 0.732524 3.18279 0
M  V30 172 H 14.6411 2.73283 2.44361 0
M  V30 173 H 14.2891 1.74938 4.71599 0
M  V30 174 H 13.9891 3.50541 4.71588 0
M  V30 175 H 15.5131 2.86401 5.39265 0
M  V30 176 H 16.9271 4.37898 3.70024 0
M  V30 177 H 15.3241 5.03735 3.26146 0
M  V30 178 H 16.3941 4.42244 1.98867 0
M  V30 179 N 17.7372 -0.778329 1.37039 0
M  V30 180 C 18.9842 -1.53665 1.31884 0
M  V30 181 C 19.3122 -1.9425 -0.0986303 0
M  V30 182 O 18.5672 -1.63832 -1.07041 0
M  V30 183 C 18.8662 -2.81845 2.19768 0
M  V30 184 C 18.5322 -2.60345 3.68146 0
M  V30 185 C 17.1942 -2.5419 4.08584 0
M  V30 186 C 19.5462 -2.40923 4.62175 0
M  V30 187 C 16.8742 -2.26594 5.41177 0
M  V30 188 C 19.2262 -2.14852 5.94997 0
M  V30 189 C 17.8902 -2.07137 6.34547 0
M  V30 190 H 17.1602 -0.562299 0.482598 0
M  V30 191 H 19.8072 -0.897069 1.69189 0
M  V30 192 H 18.1122 -3.50328 1.75436 0
M  V30 193 H 19.8092 -3.39692 2.13097 0
M  V30 194 H 16.3992 -2.65996 3.36072 0
M  V30 195 H 20.5832 -2.44673 4.31797 0
M  V30 196 H 15.8392 -2.19111 5.70789 0
M  V30 197 H 20.0132 -1.98822 6.67415 0
M  V30 198 H 17.6402 -1.85518 7.37216 0
M  V30 199 N 19.2153 -1.21501 -1.00376 0
M  V30 200 C 20.4633 -1.03095 -1.73827 0
M  V30 201 C 20.7843 0.436341 -1.90055 0
M  V30 202 O 20.0543 1.31466 -1.45236 0
M  V30 203 H 18.6343 -0.378487 -0.644016 0
M  V30 204 H 21.2963 -1.52831 -1.20949 0
M  V30 205 H 20.3923 -1.49991 -2.73695 0
M  V30 206 N 20.6934 1.19889 -1.02296 0
M  V30 207 C 21.9214 1.9339 -0.735399 0
M  V30 208 C 22.3364 1.75148 0.704887 0
M  V30 209 O 21.6934 1.06954 1.47875 0
M  V30 210 C 21.7444 3.45313 -1.06962 0
M  V30 211 O 21.4654 3.62964 -2.45334 0
M  V30 212 C 22.9664 4.35948 -0.804021 0
M  V30 213 H 20.1864 0.61448 -0.269546 0
M  V30 214 H 22.7304 1.522 -1.36585 0
M  V30 215 H 20.8854 3.84359 -0.484455 0
M  V30 216 H 21.2994 4.56886 -2.57595 0
M  V30 217 H 22.7734 5.41174 -1.0879 0
M  V30 218 H 23.2504 4.3842 0.261691 0
M  V30 219 H 23.8564 4.02574 -1.37164 0
M  V30 220 N 22.1715 0.800033 1.35784 0
M  V30 221 C 23.3965 0.388511 2.03729 0
M  V30 222 C 23.8215 -0.990481 1.5991 0
M  V30 223 O 23.1795 -1.64013 0.772612 0
M  V30 224 C 23.2275 0.4726 3.5749 0
M  V30 225 O 22.3315 -0.51646 4.09153 0
M  V30 226 H 21.6725 0.163271 0.643614 0
M  V30 227 H 24.2025 1.0841 1.73518 0
M  V30 228 H 24.2125 0.34003 4.06581 0
M  V30 229 H 22.8875 1.47848 3.88734 0
M  V30 230 H 21.4645 -0.344673 3.71304 0
M  V30 231 N 23.6496 -1.47581 0.552962 0
M  V30 232 C 24.5816 -2.27997 -0.234533 0
M  V30 233 C 25.5946 -1.36753 -0.883321 0
M  V30 234 O 26.7836 -1.61612 -0.757889 0
M  V30 235 C 23.8836 -3.10879 -1.34935 0
M  V30 236 C 23.0566 -4.30056 -0.798158 0
M  V30 237 C 22.1156 -4.94567 -1.79694 0
M  V30 238 O 21.1416 -5.53087 -1.34474 0
M  V30 239 N 22.3436 -4.88878 -3.13015 0
M  V30 240 H 25.1086 -2.96222 0.455255 0
M  V30 241 H 22.6696 -1.57163 0.388761 0
M  V30 242 H 24.6616 -3.50903 -2.01616 0
M  V30 243 H 23.2316 -2.44924 -1.94244 0
M  V30 244 H 22.4516 -3.94174 0.0453079 0
M  V30 245 H 23.7396 -5.07152 -0.409173 0
M  V30 246 H 23.1376 -4.42526 -3.52402 0
M  V30 247 H 21.6946 -5.32934 -3.75266 0
M  V30 248 N 25.1277 -0.289203 -1.54924 0
M  V30 249 C 26.0907 0.579144 -2.21762 0
M  V30 250 C 27.0907 1.07047 -1.1999 0
M  V30 251 O 28.2807 0.968384 -1.44803 0
M  V30 252 C 25.4127 1.80055 -2.8947 0
M  V30 253 H 26.6057 -0.00464908 -2.999 0
M  V30 254 H 24.1587 -0.0399306 -1.56249 0
M  V30 255 H 24.8937 2.42449 -2.15381 0
M  V30 256 H 24.6787 1.45602 -3.64064 0
M  V30 257 H 26.1687 2.41773 -3.40493 0
M  V30 258 N 26.6058 1.57591 -0.0167156 0
M  V30 259 C 27.5378 2.06343 0.997753 0
M  V30 260 C 28.5508 0.984469 1.29661 0
M  V30 261 O 29.7398 1.26093 1.26344 0
M  V30 262 C 26.8398 2.46255 2.32834 0
M  V30 263 C 26.0128 3.77083 2.21646 0
M  V30 264 C 25.0718 4.0368 3.37534 0
M  V30 265 O 24.0978 4.7411 3.14973 0
M  V30 266 N 25.2998 3.52881 4.60929 0
M  V30 267 H 28.0648 2.93997 0.581875 0
M  V30 268 H 25.6258 1.61002 0.170316 0
M  V30 269 H 27.6178 2.61149 3.09166 0
M  V30 270 H 26.1878 1.64032 2.66106 0
M  V30 271 H 25.4078 3.72106 1.30119 0
M  V30 272 H 26.6958 4.62822 2.11361 0
M  V30 273 H 26.0938 2.95878 4.82154 0
M  V30 274 H 24.6508 3.73076 5.34469 0
M  V30 275 N 28.0839 -0.256276 1.55502 0
M  V30 276 C 29.0469 -1.30047 1.88734 0
M  V30 277 C 30.0469 -1.4154 0.763086 0
M  V30 278 O 31.2369 -1.40403 1.03115 0
M  V30 279 C 28.3689 -2.67953 2.10747 0
M  V30 280 H 29.5619 -1.01802 2.82093 0
M  V30 281 H 27.1149 -0.495134 1.4825 0
M  V30 282 H 27.8499 -3.01351 1.19825 0
M  V30 283 H 27.6349 -2.60993 2.92617 0
M  V30 284 H 29.1249 -3.43368 2.37673 0
M  V30 285 N 29.562 -1.4872 -0.521534 0
M  V30 286 C 30.81 -1.56857 -1.27437 0
M  V30 287 C 31.131 -0.247982 -1.93417 0
M  V30 288 O 30.401 0.731151 -1.81744 0
M  V30 289 H 28.981 -0.577885 -0.473347 0
M  V30 290 H 31.643 -1.85233 -0.606205 0
M  V30 291 H 30.739 -2.35402 -2.0492 0
M  V30 292 N 31.0401 0.771051 -1.3745 0
M  V30 293 C 32.2881 1.52661 -1.32435 0
M  V30 294 C 32.6091 1.9479 0.0905024 0
M  V30 295 O 31.8791 1.66348 1.03466 0
M  V30 296 H 30.4591 0.566218 -0.487244 0
M  V30 297 H 33.1211 0.917636 -1.71946 0
M  V30 298 H 32.2171 2.42568 -1.96385 0
M  V30 299 N 32.5182 1.22032 0.997298 0
M  V30 300 C 33.7652 1.04222 1.73621 0
M  V30 301 C 34.0932 -0.423264 1.89839 0
M  V30 302 O 33.3482 -1.3302 1.43542 0
M  V30 303 C 33.6472 1.69345 3.14733 0
M  V30 304 C 33.3132 3.19226 3.18442 0
M  V30 305 C 31.9752 3.60124 3.19161 0
M  V30 306 C 34.3272 4.15181 3.15078 0
M  V30 307 C 31.6552 4.95467 3.14212 0
M  V30 308 C 34.0072 5.50495 3.1167 0
M  V30 309 C 32.6712 5.90779 3.10703 0
M  V30 310 H 31.9412 0.381374 0.635323 0
M  V30 311 H 34.5882 1.51732 1.16831 0
M  V30 312 H 32.8932 1.14147 3.74803 0
M  V30 313 H 34.5902 1.53059 3.7064 0
M  V30 314 H 31.1802 2.86659 3.18629 0
M  V30 315 H 35.3642 3.84605 3.13676 0
M  V30 316 H 30.6202 5.25916 3.11805 0
M  V30 317 H 34.7942 6.24576 3.08022 0
M  V30 318 H 32.4212 6.9562 3.06622 0
M  V30 319 N 33.9963 -1.19345 1.0293 0
M  V30 320 C 34.9293 -2.21347 0.555029 0
M  V30 321 C 35.9073 -1.57492 -0.404351 0
M  V30 322 O 37.0913 -1.85741 -0.321352 0
M  V30 323 C 34.2183 -3.38163 -0.19064 0
M  V30 324 C 33.2643 -4.20375 0.720236 0
M  V30 325 S 34.0973 -4.88371 2.19668 0
M  V30 326 C 35.2533 -6.08597 1.46153 0
M  V30 327 H 35.4863 -2.61235 1.41929 0
M  V30 328 H 33.0193 -1.29598 0.839272 0
M  V30 329 H 34.9773 -4.05871 -0.614724 0
M  V30 330 H 33.6383 -2.9671 -1.03063 0
M  V30 331 H 32.8313 -5.03793 0.14455 0
M  V30 332 H 32.4333 -3.57987 1.08266 0
M  V30 333 H 34.7253 -6.73354 0.748357 0
M  V30 334 H 35.6683 -6.7065 2.27233 0
M  V30 335 H 36.0763 -5.56297 0.958842 0
M  V30 336 N 35.4744 -0.807222 -1.35358 0
M  V30 337 C 36.7204 -0.388463 -1.99045 0
M  V30 338 C 37.0534 1.04184 -1.63888 0
M  V30 339 O 36.3284 1.72292 -0.902535 0
M  V30 340 C 36.6114 -0.572783 -3.55515 0
M  V30 341 C 36.4644 -2.04807 -4.00468 0
M  V30 342 C 37.7834 0.00114064 -4.401 0
M  V30 343 H 34.9024 -0.142619 -0.723069 0
M  V30 344 H 37.5444 -1.01687 -1.60498 0
M  V30 345 H 35.6944 -0.0378425 -3.88482 0
M  V30 346 H 37.3664 -2.64544 -3.77908 0
M  V30 347 H 35.6094 -2.54427 -3.51353 0
M  V30 348 H 36.2804 -2.12792 -5.09337 0
M  V30 349 H 38.7564 -0.455716 -4.13597 0
M  V30 350 H 37.6324 -0.157737 -5.48673 0
M  V30 351 H 37.8934 1.09488 -4.28328 0
M  V30 352 N 36.9525 1.47285 -0.560781 0
M  V30 353 C 38.3635 1.86258 -0.128343 0
M  V30 354 C 38.7145 1.46699 1.30284 0
M  V30 355 O 37.8395 0.871698 1.98067 0
M  V30 356 C 38.4345 3.38044 -0.22614 0
M  V30 357 C 36.9935 3.76096 0.151283 0
M  V30 358 C 36.1405 2.71335 -0.572084 0
M  V30 359 H 39.0915 1.38752 -0.770297 0
M  V30 360 H 39.1125 3.76441 0.554322 0
M  V30 361 H 38.6245 3.66806 -1.26788 0
M  V30 362 H 36.7255 3.52951 1.19399 0
M  V30 363 H 36.8385 4.78641 -0.209765 0
M  V30 364 H 35.2025 2.54696 -0.0147653 0
M  V30 365 H 35.9855 3.02938 -1.61504 0
M  V30 366 N 38.4306 0.297415 1.54768 0
M  V30 367 C 39.6586 -0.315623 2.04478 0
M  V30 368 C 40.0736 -1.47792 1.17486 0
M  V30 369 O 39.4306 -1.81404 0.19971 0
M  V30 370 C 39.4816 -0.7753 3.53088 0
M  V30 371 O 39.2026 0.340732 4.36773 0
M  V30 372 C 40.7036 -1.45386 4.18781 0
M  V30 373 H 37.9236 -0.0690887 0.667434 0
M  V30 374 H 40.4676 0.436003 1.99798 0
M  V30 375 H 38.6226 -1.47696 3.58141 0
M  V30 376 H 39.0366 -0.0165035 5.24497 0
M  V30 377 H 40.5106 -1.72669 5.24299 0
M  V30 378 H 40.9876 -2.39275 3.68299 0
M  V30 379 H 41.5936 -0.795475 4.17795 0
M  V30 380 N 39.9087 -1.5758 0.0250728 0
M  V30 381 C 41.1367 -1.9593 -0.664747 0
M  V30 382 C 41.5517 -0.901352 -1.65895 0
M  V30 383 O 40.9087 0.117255 -1.82123 0
M  V30 384 C 40.9597 -3.34342 -1.37468 0
M  V30 385 O 40.6807 -4.36079 -0.420324 0
M  V30 386 C 42.1817 -3.873 -2.1567 0
M  V30 387 H 39.4017 -0.645405 -0.183557 0
M  V30 388 H 41.9457 -2.04329 0.0836372 0
M  V30 389 H 40.1007 -3.27175 -2.0745 0
M  V30 390 H 40.5147 -5.16297 -0.923991 0
M  V30 391 H 41.9887 -4.86504 -2.60803 0
M  V30 392 H 42.4657 -3.21331 -2.99405 0
M  V30 393 H 43.0717 -3.97723 -1.50654 0
M  V30 394 N 41.3868 0.248026 -1.55636 0
M  V30 395 C 42.3348 1.32683 -1.91045 0
M  V30 396 C 43.3288 1.49883 -0.789401 0
M  V30 397 O 44.5348 1.51371 -0.974007 0
M  V30 398 H 40.9098 0.444272 -0.606734 0
M  V30 399 H 42.8808 1.00085 -2.81115 0
M  V30 400 C 41.6298 2.6755 -2.22064 0
M  V30 401 H 40.9528 2.55114 -3.07826 0
M  V30 402 H 42.3928 3.41912 -2.50743 0
M  V30 403 C 40.8518 3.20556 -1.0366 0
M  V30 404 O 41.3818 4.00695 -0.284016 0
M  V30 405 N 39.5878 2.78568 -0.82753 0
M  V30 406 H 39.1348 2.1351 -1.44123 0
M  V30 407 H 39.0928 3.14378 -0.0369803 0
M  V30 408 N 42.8649 1.48995 0.513639 0
M  V30 409 C 44.0929 1.61531 1.29288 0
M  V30 410 C 44.5079 0.281801 1.86685 0
M  V30 411 O 43.8649 -0.731111 1.67215 0
M  V30 412 C 43.9159 2.67449 2.43215 0
M  V30 413 O 43.6369 3.95626 1.88179 0
M  V30 414 C 45.1379 2.90575 3.34785 0
M  V30 415 H 42.3579 0.544165 0.392588 0
M  V30 416 H 44.9019 1.9494 0.617956 0
M  V30 417 H 43.0569 2.36853 3.0656 0
M  V30 418 H 43.4709 4.53868 2.62876 0
M  V30 419 H 44.9449 3.68449 4.11035 0
M  V30 420 H 45.4219 2.00011 3.91015 0
M  V30 421 H 46.0279 3.22538 2.77218 0
M  V30 422 N 44.343 -0.763751 1.37857 0
M  V30 423 C 45.306 -1.85889 1.34081 0
M  V30 424 C 46.306 -1.58949 0.243277 0
M  V30 425 O 47.496 -1.66882 0.499589 0
M  V30 426 C 44.628 -3.23176 1.08489 0
M  V30 427 H 45.821 -1.90648 2.31502 0
M  V30 428 H 43.374 -0.964367 1.23003 0
M  V30 429 H 44.109 -3.24091 0.116318 0
M  V30 430 H 43.894 -3.44124 1.8794 0
M  V30 431 H 45.384 -4.03254 1.08517 0
M  V30 432 N 45.8211 -1.22559 -0.990812 0
M  V30 433 C 47.0691 -1.04933 -1.72724 0
M  V30 434 C 47.3901 0.416158 -1.90508 0
M  V30 435 O 46.6601 1.29918 -1.46622 0
M  V30 436 H 45.2401 -0.385296 -0.639965 0
M  V30 437 H 47.9021 -1.54105 -1.19322 0
M  V30 438 H 46.9981 -1.52886 -2.72089 0
M  V30 439 N 47.2992 1.18797 -1.03562 0
M  V30 440 C 48.5452 1.89192 -0.746867 0
M  V30 441 C 48.9002 1.78531 0.717245 0
M  V30 442 O 48.1932 1.17137 1.51622 0
M  V30 443 C 48.3872 3.38692 -1.14117 0
M  V30 444 C 48.2162 3.63902 -2.64207 0
M  V30 445 C 46.9862 3.81553 -3.31279 0
M  V30 446 C 49.1842 3.64903 -3.62423 0
M  V30 447 N 47.1662 3.94455 -4.70402 0
M  V30 448 C 48.5372 3.83458 -4.87196 0
M  V30 449 C 50.5922 3.47965 -3.56125 0
M  V30 450 C 49.2952 3.86829 -6.06429 0
M  V30 451 C 51.3212 3.52616 -4.7478 0
M  V30 452 C 50.6832 3.71663 -5.9837 0
M  V30 453 H 46.7822 0.711141 -0.325273 0
M  V30 454 H 49.3662 1.42727 -1.32428 0
M  V30 455 H 47.5372 3.83864 -0.591889 0
M  V30 456 H 49.2692 3.96634 -0.803966 0
M  V30 457 H 46.0242 3.80723 -2.81686 0
M  V30 458 H 46.4482 4.0474 -5.42692 0
M  V30 459 H 51.0902 3.32189 -2.61553 0
M  V30 460 H 48.8082 4.01395 -7.01362 0
M  V30 461 H 52.3942 3.40791 -4.71543 0
M  V30 462 H 51.2742 3.75145 -6.88648 0
M  V30 463 N 48.7773 0.814389 1.34928 0
M  V30 464 C 50.0253 0.397636 1.9815 0
M  V30 465 C 50.3463 -1.04069 1.64908 0
M  V30 466 O 49.6163 -1.72121 0.93548 0
M  V30 467 H 48.1963 0.144043 0.732981 0
M  V30 468 H 50.8583 1.04195 1.6471 0
M  V30 469 H 49.9543 0.509688 3.0791 0
M  V30 470 N 50.2554 -1.46986 0.568584 0
M  V30 471 C 51.6714 -1.57946 0.229189 0
M  V30 472 C 51.8714 -1.56567 -1.26843 0
M  V30 473 O 50.9274 -1.47511 -2.04931 0
M  V30 474 C 52.2404 -2.87963 0.865909 0
M  V30 475 C 53.7884 -3.01568 0.838188 0
M  V30 476 C 54.2634 -4.34301 1.45419 0
M  V30 477 N 55.7544 -4.40965 1.41788 0
M  V30 478 C 56.4894 -5.42256 1.86403 0
M  V30 479 N 55.9854 -6.50297 2.38926 0
M  V30 480 N 57.7784 -5.3337 1.77405 0
M  V30 481 H 49.9294 -1.46126 1.54146 0
M  V30 482 H 52.1924 -0.696156 0.643484 0
M  V30 483 H 51.8984 -2.94742 1.91886 0
M  V30 484 H 51.7724 -3.75423 0.365687 0
M  V30 485 H 54.1594 -2.94379 -0.206106 0
M  V30 486 H 54.2404 -2.1562 1.37629 0
M  V30 487 H 53.8844 -4.42247 2.49761 0
M  V30 488 H 53.8144 -5.19 0.891435 0
M  V30 489 H 56.3054 -3.63484 1.03381 0
M  V30 490 H 56.6184 -7.23777 2.70863 0
M  V30 491 H 54.9634 -6.51155 2.42944 0
M  V30 492 H 58.1544 -4.47865 1.3614 0
M  V30 493 H 58.3274 -6.12169 2.12492 0
M  V30 494 N 51.7335 -0.305618 -1.54608 0
M  V30 495 C 52.6965 0.555591 -2.22364 0
M  V30 496 C 53.6965 1.05768 -1.21119 0
M  V30 497 O 54.8865 0.952972 -1.45822 0
M  V30 498 C 52.0185 1.76974 -2.91364 0
M  V30 499 H 53.2115 -0.0364572 -2.99878 0
M  V30 500 H 50.7645 -0.0565007 -1.56198 0
M  V30 501 H 51.4995 2.40151 -2.17941 0
M  V30 502 H 51.2845 1.41732 -3.65588 0
M  V30 503 H 52.7745 2.38148 -3.43038 0
M  V30 504 N 53.2116 1.57565 -0.0334293 0
M  V30 505 C 54.1446 2.05997 0.981866 0
M  V30 506 C 55.1226 0.956647 1.3148 0
M  V30 507 O 56.3066 1.22729 1.43073 0
M  V30 508 C 53.4336 2.48564 2.30074 0
M  V30 509 C 52.4796 3.69958 2.12211 0
M  V30 510 S 53.3126 5.16414 1.41692 0
M  V30 511 C 54.4686 5.6228 2.7494 0
M  V30 512 H 54.7016 2.91792 0.569612 0
M  V30 513 H 52.2346 1.53366 0.178376 0
M  V30 514 H 54.1926 2.73753 3.05892 0
M  V30 515 H 52.8536 1.63106 2.68431 0
M  V30 516 H 52.0466 3.97603 3.09722 0
M  V30 517 H 51.6486 3.44943 1.44535 0
M  V30 518 H 53.9406 5.66783 3.71165 0
M  V30 519 H 54.8836 6.61759 2.51953 0
M  V30 520 H 55.2916 4.89944 2.80384 0
M  V30 521 N 54.6897 -0.239769 1.55765 0
M  V30 522 C 55.6527 -1.28038 1.90103 0
M  V30 523 C 56.6527 -1.40723 0.778055 0
M  V30 524 O 57.8427 -1.39301 1.04599 0
M  V30 525 C 54.9747 -2.65702 2.13577 0
M  V30 526 H 56.1677 -0.988048 2.83157 0
M  V30 527 H 53.7207 -0.479382 1.48767 0
M  V30 528 H 54.4557 -3.00063 1.23015 0
M  V30 529 H 54.2407 -2.57875 2.95369 0
M  V30 530 H 55.7307 -3.40828 2.41301 0
M  V30 531 N 56.1678 -1.49265 -0.50573 0
M  V30 532 C 57.4158 -1.582 -1.25766 0
M  V30 533 C 57.7368 -0.268482 -1.93143 0
M  V30 534 O 57.0068 0.711833 -1.8251 0
M  V30 535 H 55.5868 -0.582873 -0.467191 0
M  V30 536 H 58.2488 -1.85865 -0.586525 0
M  V30 537 H 57.3448 -2.37563 -2.02412 0
M  V30 538 N 57.6459 0.756429 -1.3826 0
M  V30 539 C 58.8939 1.51248 -1.34047 0
M  V30 540 C 59.2149 1.94875 0.0698372 0
M  V30 541 O 58.4849 1.67436 1.01696 0
M  V30 542 H 57.0649 0.561018 -0.493222 0
M  V30 543 H 59.7269 0.899347 -1.7291 0
M  V30 544 H 58.8229 2.40472 -1.98947 0
M  V30 545 N 59.124 1.23083 0.984299 0
M  V30 546 C 60.349 1.088 1.76571 0
M  V30 547 C 60.774 -0.356657 1.84688 0
M  V30 548 O 60.132 -1.25788 1.30565 0
M  V30 549 C 60.18 1.71371 3.17277 0
M  V30 550 O 59.284 0.973213 4.00752 0
M  V30 551 H 58.625 0.381599 0.543395 0
M  V30 552 H 61.155 1.63057 1.23587 0
M  V30 553 H 61.165 1.76449 3.67872 0
M  V30 554 H 59.84 2.76493 3.10684 0
M  V30 555 H 58.417 0.999078 3.59267 0
M  V30 556 N 60.6021 -1.18246 1.0419 0
M  V30 557 C 61.5321 -2.24127 0.654914 0
M  V30 558 C 62.5131 -1.66617 -0.342451 0
M  V30 559 O 63.6981 -1.92924 -0.222277 0
M  V30 560 C 60.8281 -3.47295 0.0183757 0
M  V30 561 C 59.7821 -4.17563 0.939414 0
M  V30 562 C 59.1081 -5.34438 0.167286 0
M  V30 563 C 60.4081 -4.70917 2.25908 0
M  V30 564 H 62.1021 -2.56753 1.54007 0
M  V30 565 H 59.6481 -1.23414 0.74195 0
M  V30 566 H 61.6011 -4.20572 -0.264082 0
M  V30 567 H 60.3251 -3.13907 -0.901664 0
M  V30 568 H 58.9841 -3.46186 1.20628 0
M  V30 569 H 58.6321 -4.97298 -0.7552 0
M  V30 570 H 58.3321 -5.82388 0.780901 0
M  V30 571 H 59.8561 -6.10504 -0.108125 0
M  V30 572 H 61.2701 -5.35882 2.03724 0
M  V30 573 H 59.6671 -5.29406 2.82577 0
M  V30 574 H 60.7371 -3.88272 2.9047 0
M  V30 575 N 62.0802 -0.821533 -1.34494 0
M  V30 576 C 63.3272 -0.408946 -1.98328 0
M  V30 577 C 63.6552 1.02764 -1.65136 0
M  V30 578 O 62.9102 1.73026 -0.914349 0
M  V30 579 C 63.2092 -0.556512 -3.53041 0
M  V30 580 C 62.8752 -1.95861 -4.0614 0
M  V30 581 C 61.5372 -2.34217 -4.20352 0
M  V30 582 C 63.8892 -2.87523 -4.34718 0
M  V30 583 C 61.2172 -3.63572 -4.6047 0
M  V30 584 C 63.5692 -4.1634 -4.76281 0
M  V30 585 C 62.2332 -4.54675 -4.88699 0
M  V30 586 H 61.5032 -0.149644 -0.725732 0
M  V30 587 H 64.1502 -1.04521 -1.6046 0
M  V30 588 H 62.4552 0.163148 -3.9146 0
M  V30 589 H 64.1522 -0.217826 -4.00408 0
M  V30 590 H 60.7422 -1.65066 -3.95539 0
M  V30 591 H 64.9262 -2.59133 -4.23277 0
M  V30 592 H 60.1822 -3.93101 -4.68275 0
M  V30 593 H 64.3562 -4.87455 -4.97354 0
M  V30 594 H 61.9832 -5.54959 -5.19542 0
M  V30 595 N 63.5583 1.46682 -0.576371 0
M  V30 596 C 64.9693 1.86112 -0.148091 0
M  V30 597 C 65.3203 1.48073 1.2872 0
M  V30 598 O 64.4453 0.892656 1.97131 0
M  V30 599 C 65.0403 3.37786 -0.261982 0
M  V30 600 C 63.5993 3.76235 0.111384 0
M  V30 601 C 62.7463 2.70713 -0.60083 0
M  V30 602 H 65.6973 1.37927 -0.78497 0
M  V30 603 H 65.7183 3.77007 0.514364 0
M  V30 604 H 65.2303 3.6544 -1.30671 0
M  V30 605 H 63.3313 3.54198 1.15649 0
M  V30 606 H 63.4443 4.78391 -0.26052 0
M  V30 607 H 61.8083 2.54666 -0.0417783 0
M  V30 608 H 62.5913 3.01208 -1.64708 0
M  V30 609 N 65.0364 0.313813 1.54444 0
M  V30 610 C 65.9844 -0.572171 2.25453 0
M  V30 611 C 66.9784 -1.12657 1.2651 0
M  V30 612 O 68.1844 -1.07573 1.44319 0
M  V30 613 H 64.5594 -0.203146 0.724041 0
M  V30 614 H 66.5304 0.0491145 2.9836 0
M  V30 615 C 65.2794 -1.72626 3.0182 0
M  V30 616 H 64.6024 -1.30891 3.77767 0
M  V30 617 H 66.0424 -2.32199 3.54767 0
M  V30 618 C 64.5014 -2.63806 2.09542 0
M  V30 619 O 65.0314 -3.65256 1.67185 0
M  V30 620 N 63.2374 -2.31824 1.75232 0
M  V30 621 H 62.7844 -1.49368 2.09873 0
M  V30 622 H 62.7424 -2.93095 1.13767 0
M  V30 623 N 66.5145 -1.57545 0.0417849 0
M  V30 624 C 67.7915 -1.83642 -0.673433 0
M  V30 625 C 68.1715 -0.928298 -1.89594 0
M  V30 626 O 67.5195 0.0129955 -2.28496 0
M  V30 627 C 67.7295 -3.33155 -1.03964 0
M  V30 628 C 69.0775 -3.99941 -1.42592 0
M  V30 629 O 70.1015 -3.37725 -1.13226 0
M  V30 630 O 68.9605 -5.09619 -1.9736 0
M  V30 631 H 66.0545 -0.757638 -0.331533 0
M  V30 632 H 68.6005 -1.69554 0.070433 0
M  V30 633 H 67.3725 -3.9093 -0.170098 0
M  V30 634 H 66.9955 -3.52396 -1.84126 0
M  V30 635 N 67.9926 0.231505 -1.5589 0
M  V30 636 C 69.4036 0.799327 -1.68724 0
M  V30 637 C 69.7546 1.85398 -0.642022 0
M  V30 638 O 68.8796 2.1539 0.208784 0
M  V30 639 C 69.4746 1.45664 -3.05888 0
M  V30 640 C 68.0336 1.97197 -3.20609 0
M  V30 641 C 67.1806 0.828552 -2.64632 0
M  V30 642 H 70.1316 0.00702616 -1.58698 0
M  V30 643 H 70.1526 2.32517 -3.01191 0
M  V30 644 H 69.6646 0.688808 -3.81939 0
M  V30 645 H 67.7656 2.76813 -2.4941 0
M  V30 646 H 67.8786 2.15878 -4.27707 0
M  V30 647 H 66.2426 1.23321 -2.22854 0
M  V30 648 H 67.0256 0.0735544 -3.43221 0
M  V30 649 N 69.4707 1.49531 0.497807 0
M  V30 650 C 70.6957 1.63159 1.28039 0
M  V30 651 C 71.1207 0.30418 1.85624 0
M  V30 652 O 70.4787 -0.728618 1.66015 0
M  V30 653 C 70.5267 2.70537 2.38416 0
M  V30 654 O 69.6307 2.29931 3.42353 0
M  V30 655 H 68.9717 0.546001 0.377861 0
M  V30 656 H 71.5017 1.9574 0.59558 0
M  V30 657 H 71.5117 2.92802 2.84132 0
M  V30 658 H 70.1867 3.6689 1.95869 0
M  V30 659 H 68.7637 2.18009 3.02533 0
M  V30 660 N 70.9488 -0.749086 1.3866 0
M  V30 661 C 71.9118 -1.84457 1.36045 0
M  V30 662 C 72.9118 -1.58682 0.260122 0
M  V30 663 O 74.1018 -1.66343 0.517261 0
M  V30 664 C 71.2338 -3.22008 1.11911 0
M  V30 665 H 72.4268 -1.88182 2.33512 0
M  V30 666 H 69.9798 -0.951266 1.24019 0
M  V30 667 H 70.7148 -3.2395 0.150686 0
M  V30 668 H 70.4998 -3.42111 1.91579 0
M  V30 669 H 71.9898 -4.0208 1.12788 0
M  V30 670 N 72.4269 -1.23603 -0.977757 0
M  V30 671 C 73.3899 -1.02069 -2.05218 0
M  V30 672 C 74.3899 0.0184305 -1.60789 0
M  V30 673 O 75.5799 -0.221569 -1.72785 0
M  V30 674 C 72.7119 -0.544926 -3.36517 0
M  V30 675 H 73.9049 -1.9742 -2.25755 0
M  V30 676 H 71.4579 -1.05684 -1.15155 0
M  V30 677 H 72.1929 0.412241 -3.21669 0
M  V30 678 H 71.9779 -1.2948 -3.70105 0
M  V30 679 H 73.4679 -0.414985 -4.15533 0
M  V30 680 N 73.905 1.17692 -1.04816 0
M  V30 681 C 75.152 1.87859 -0.75599 0
M  V30 682 C 75.48 1.80812 0.716752 0
M  V30 683 O 74.735 1.20819 1.53952 0
M  V30 684 C 75.034 3.37462 -1.17703 0
M  V30 685 C 74.7 3.64713 -2.65133 0
M  V30 686 C 73.362 3.71859 -3.05408 0
M  V30 687 C 75.714 3.76492 -3.60421 0
M  V30 688 C 73.042 3.88271 -4.39843 0
M  V30 689 C 75.394 3.94421 -4.94585 0
M  V30 690 C 74.058 3.99806 -5.3452 0
M  V30 691 H 73.328 0.687425 -0.276636 0
M  V30 692 H 75.975 1.39255 -1.31455 0
M  V30 693 H 74.28 3.88097 -0.537395 0
M  V30 694 H 75.977 3.90109 -0.928218 0
M  V30 695 H 72.567 3.59772 -2.32942 0
M  V30 696 H 76.751 3.70295 -3.30447 0
M  V30 697 H 72.007 3.90687 -4.70291 0
M  V30 698 H 76.181 4.02477 -5.68318 0
M  V30 699 H 73.808 4.12276 -6.38696 0
M  V30 700 N 75.3831 0.828654 1.34056 0
M  V30 701 C 76.3311 0.242973 2.31327 0
M  V30 702 C 77.3251 -0.61944 1.57668 0
M  V30 703 O 78.5311 -0.51014 1.7262 0
M  V30 704 H 74.9061 0.059834 0.749616 0
M  V30 705 H 76.8771 1.07809 2.78244 0
M  V30 706 C 75.6261 -0.575733 3.429 0
M  V30 707 H 74.9491 0.0785582 3.99723 0
M  V30 708 H 76.3891 -0.951547 4.13185 0
M  V30 709 C 74.8481 -1.75044 2.87856 0
M  V30 710 O 75.3781 -2.84882 2.83205 0
M  V30 711 N 73.5841 -1.56903 2.44602 0
M  V30 712 H 73.1311 -0.675547 2.48584 0
M  V30 713 H 73.0891 -2.35652 2.08124 0
M  V30 714 N 76.8612 -1.46375 0.584142 0
M  V30 715 C 77.8092 -2.32042 -0.161047 0
M  V30 716 C 78.8032 -1.44569 -0.882966 0
M  V30 717 O 80.0092 -1.61186 -0.801191 0
M  V30 718 H 76.3842 -0.748659 -0.0708033 0
M  V30 719 H 78.3552 -2.92704 0.580269 0
M  V30 720 C 77.1042 -3.27762 -1.1605 0
M  V30 721 H 76.4272 -3.95051 -0.614419 0
M  V30 722 H 77.8672 -3.90481 -1.65228 0
M  V30 723 C 76.3262 -2.53218 -2.22221 0
M  V30 724 O 76.8562 -2.29628 -3.29597 0
M  V30 725 N 75.0622 -2.13756 -1.96868 0
M  V30 726 H 74.6092 -2.33142 -1.09557 0
M  V30 727 H 74.5672 -1.642 -2.68115 0
M  V30 728 N 78.3393 -0.321999 -1.54275 0
M  V30 729 C 79.7503 0.166384 -1.85957 0
M  V30 730 C 80.1013 1.51747 -1.24367 0
M  V30 731 O 79.2263 2.09317 -0.549124 0
M  V30 732 C 79.8213 0.308681 -3.37391 0
M  V30 733 C 78.3803 0.741286 -3.69028 0
M  V30 734 C 77.5273 -0.137937 -2.76957 0
M  V30 735 H 80.4783 -0.542335 -1.49146 0
M  V30 736 H 80.4993 1.13984 -3.63026 0
M  V30 737 H 80.0113 -0.674809 -3.82188 0
M  V30 738 H 78.1123 1.73458 -3.29762 0
M  V30 739 H 78.2253 0.546118 -4.75977 0
M  V30 740 H 76.5893 0.386251 -2.51754 0
M  V30 741 H 77.3723 -1.11816 -3.2458 0
M  V30 742 N 79.8174 1.5752 -0.0501392 0
M  V30 743 C 80.7804 2.1037 0.909786 0
M  V30 744 C 81.7804 1.02308 1.24056 0
M  V30 745 O 82.9704 1.28385 1.17741 0
M  V30 746 C 80.1024 2.58708 2.21998 0
M  V30 747 H 81.2954 2.96479 0.451665 0
M  V30 748 H 78.8484 1.55038 0.198248 0
M  V30 749 H 79.5834 1.75989 2.72394 0
M  V30 750 H 79.3684 3.37675 1.99295 0
M  V30 751 H 80.8584 2.99747 2.9076 0
M  V30 752 N 81.2955 -0.223234 1.56011 0
M  V30 753 C 82.2585 -1.26014 1.9145 0
M  V30 754 C 83.2585 -1.3989 0.792937 0
M  V30 755 O 84.4485 -1.38184 1.0607 0
M  V30 756 C 81.5805 -2.63422 2.16383 0
M  V30 757 H 82.7735 -0.95796 2.84189 0
M  V30 758 H 80.3265 -0.463576 1.49267 0
M  V30 759 H 81.0615 -2.98741 1.2619 0
M  V30 760 H 80.8465 -2.54728 2.98088 0
M  V30 761 H 82.3365 -3.38249 2.44903 0
M  V30 762 N 82.7736 -1.49793 -0.48987 0
M  V30 763 C 83.7066 -1.61898 -1.60823 0
M  V30 764 C 84.6846 -0.467651 -1.5573 0
M  V30 765 O 85.8686 -0.684682 -1.75626 0
M  V30 766 C 82.9956 -1.58422 -2.99366 0
M  V30 767 C 82.0416 -2.78889 -3.22682 0
M  V30 768 S 82.8746 -4.40429 -3.04602 0
M  V30 769 C 84.0306 -4.39617 -4.4552 0
M  V30 770 H 84.2636 -2.56502 -1.50312 0
M  V30 771 H 81.7966 -1.38822 -0.675849 0
M  V30 772 H 83.7546 -1.57103 -3.79248 0
M  V30 773 H 82.4156 -0.650866 -3.07283 0
M  V30 774 H 81.6086 -2.72708 -4.23847 0
M  V30 775 H 81.2106 -2.77678 -2.50541 0
M  V30 776 H 83.5026 -4.12022 -5.37814 0
M  V30 777 H 84.4456 -5.41097 -4.56749 0
M  V30 778 H 84.8536 -3.69554 -4.2672 0
M  V30 779 N 84.2517 0.741722 -1.39055 0
M  V30 780 C 85.2147 1.83733 -1.37021 0
M  V30 781 C 86.2147 1.58542 -0.268534 0
M  V30 782 O 87.4047 1.66067 -0.526076 0
M  V30 783 C 84.5367 3.2141 -1.13617 0
M  V30 784 H 85.7297 1.86941 -2.34506 0
M  V30 785 H 83.2827 0.944676 -1.24521 0
M  V30 786 H 84.0177 3.23865 -0.167863 0
M  V30 787 H 83.8027 3.4109 -1.93391 0
M  V30 788 H 85.2927 4.01477 -1.14918 0
M  V30 789 N 85.7298 1.2412 0.971189 0
M  V30 790 C 86.9768 1.07881 1.71371 0
M  V30 791 C 87.3048 -0.382901 1.90694 0
M  V30 792 O 86.5598 -1.29945 1.46331 0
M  V30 793 C 86.8588 1.75983 3.11071 0
M  V30 794 C 86.5248 3.25909 3.11599 0
M  V30 795 C 85.1868 3.66813 3.11451 0
M  V30 796 C 87.5388 4.21771 3.062 0
M  V30 797 C 84.8668 5.02021 3.03631 0
M  V30 798 C 87.2188 5.56982 2.99923 0
M  V30 799 C 85.8828 5.97237 2.98102 0
M  V30 800 H 85.1528 0.394764 0.62709 0
M  V30 801 H 87.7998 1.54176 1.13587 0
M  V30 802 H 86.1048 1.22072 3.72298 0
M  V30 803 H 87.8018 1.60887 3.6731 0
M  V30 804 H 84.3918 2.93353 3.12477 0
M  V30 805 H 88.5758 3.91172 3.05447 0
M  V30 806 H 83.8318 5.32411 3.0058 0
M  V30 807 H 88.0058 6.30969 2.94704 0
M  V30 808 H 85.6328 7.01967 2.91798 0
M  V30 809 N 87.2079 -1.17134 1.05439 0
M  V30 810 C 88.4569 -1.86791 0.761049 0
M  V30 811 C 88.7699 -1.82072 -0.714795 0
M  V30 812 O 89.9759 -2.47223 -1.12218 0
M  V30 813 C 88.4319 -3.35166 1.31117 0
M  V30 814 C 88.0399 -3.48381 2.81664 0
M  V30 815 C 89.7839 -4.10134 1.09499 0
M  V30 816 C 87.6909 -4.90793 3.29964 0
M  V30 817 H 86.6209 -0.699681 0.281002 0
M  V30 818 H 89.2719 -1.3226 1.27199 0
M  V30 819 H 87.6539 -3.8925 0.72803 0
M  V30 820 H 88.8279 -3.04502 3.45855 0
M  V30 821 H 87.1429 -2.86836 3.01851 0
M  V30 822 H 89.7399 -5.152 1.43084 0
M  V30 823 H 90.0829 -4.16287 0.0328772 0
M  V30 824 H 90.6159 -3.62264 1.64346 0
M  V30 825 H 87.3549 -4.89816 4.35616 0
M  V30 826 H 86.8749 -5.35333 2.70516 0
M  V30 827 H 88.5539 -5.59573 3.24787 0
M  V30 828 N 88.686 -0.835752 -1.33615 0
M  V30 829 C 89.963 -0.352017 -1.92406 0
M  V30 830 C 90.343 1.16225 -1.76224 0
M  V30 831 O 89.691 1.97526 -1.14873 0
M  V30 832 C 89.901 -0.795485 -3.39813 0
M  V30 833 C 91.249 -0.801703 -4.16963 0
M  V30 834 O 92.273 -0.738889 -3.48452 0
M  V30 835 O 91.132 -0.886607 -5.3926 0
M  V30 836 H 88.226 -0.0989641 -0.821057 0
M  V30 837 H 90.772 -0.921397 -1.42507 0
M  V30 838 H 89.544 -1.83795 -3.45449 0
M  V30 839 H 89.167 -0.202505 -3.97084 0
M  V30 840 N 90.1641 1.46063 -0.591896 0
M  V30 841 C 91.1111 2.30399 0.136069 0
M  V30 842 C 92.0811 1.41169 0.875238 0
M  V30 843 O 93.2661 1.70112 0.86409 0
M  V30 844 C 90.4061 3.25804 1.13781 0
M  V30 845 C 89.5191 4.30134 0.401137 0
M  V30 846 C 88.6541 5.12659 1.39121 0
M  V30 847 C 87.6931 6.0873 0.641462 0
M  V30 848 N 86.8301 6.8409 1.58004 0
M  V30 849 H 91.6701 2.92118 -0.589144 0
M  V30 850 H 89.2071 1.43959 -0.302342 0
M  V30 851 H 91.1651 3.79569 1.73156 0
M  V30 852 H 89.7951 2.65872 1.83062 0
M  V30 853 H 88.8471 3.79152 -0.307826 0
M  V30 854 H 90.1591 4.98458 -0.184565 0
M  V30 855 H 89.3131 5.70747 2.05749 0
M  V30 856 H 88.0521 4.44316 2.01084 0
M  V30 857 H 87.0571 5.49786 -0.0385419 0
M  V30 858 H 88.2821 6.79095 0.0270945 0
M  V30 859 H 86.2281 6.18449 2.18761 0
M  V30 860 H 86.1451 7.48709 1.04738 0
M  V30 861 H 87.4131 7.4673 2.23639 0
M  V30 862 N 91.6422 0.330177 1.54103 0
M  V30 863 C 93.0582 -0.0222371 1.59585 0
M  V30 864 C 93.2582 -1.49902 1.34654 0
M  V30 865 O 92.3142 -2.25592 1.13421 0
M  V30 866 C 93.6272 0.401932 2.98002 0
M  V30 867 C 95.1752 0.353145 3.11001 0
M  V30 868 C 95.6502 0.752576 4.51775 0
M  V30 869 N 97.1412 0.706239 4.57784 0
M  V30 870 C 97.8762 0.987417 5.64834 0
M  V30 871 N 97.3722 1.33607 6.79795 0
M  V30 872 N 99.1652 0.91254 5.54643 0
M  V30 873 H 91.3162 1.29228 1.68564 0
M  V30 874 H 93.5792 0.525906 0.78875 0
M  V30 875 H 93.2852 1.4311 3.21267 0
M  V30 876 H 93.1592 -0.229699 3.765 0
M  V30 877 H 95.5462 -0.666822 2.87467 0
M  V30 878 H 95.6272 1.0198 2.34593 0
M  V30 879 H 95.2712 1.77049 4.76042 0
M  V30 880 H 95.2012 0.0635409 5.26562 0
M  V30 881 H 97.6922 0.44889 3.75224 0
M  V30 882 H 98.0052 1.53582 7.57385 0
M  V30 883 H 96.3502 1.37439 6.81275 0
M  V30 884 H 99.5412 0.639601 4.6371 0
M  V30 885 H 99.7142 1.13503 6.37982 0
M  V30 886 N 93.1203 -1.57491 0.0584922 0
M  V30 887 C 94.3693 -1.92155 -0.613146 0
M  V30 888 C 94.6823 -0.939334 -1.71569 0
M  V30 889 O 95.8883 -1.17829 -2.44599 0
M  V30 890 C 94.3443 -3.41303 -1.14195 0
M  V30 891 C 93.9523 -4.47944 -0.0711265 0
M  V30 892 C 95.6963 -3.84988 -1.78841 0
M  V30 893 C 93.6033 -5.88212 -0.613225 0
M  V30 894 H 92.5333 -0.717162 -0.232796 0
M  V30 895 H 95.1843 -1.83049 0.12857 0
M  V30 896 H 93.5663 -3.45437 -1.93621 0
M  V30 897 H 94.7403 -4.55408 0.702836 0
M  V30 898 H 93.0553 -4.13644 0.478313 0
M  V30 899 H 95.6523 -4.87159 -2.20408 0
M  V30 900 H 95.9953 -3.21632 -2.64308 0
M  V30 901 H 96.5283 -3.83401 -1.06059 0
M  V30 902 H 93.2673 -6.55183 0.203978 0
M  V30 903 H 92.7873 -5.84294 -1.35501 0
M  V30 904 H 94.4663 -6.37687 -1.09383 0
M  V30 905 N 94.5984 0.214957 -1.56127 0
M  V30 906 C 95.5614 1.24997 -1.92116 0
M  V30 907 C 96.5614 1.39467 -0.800344 0
M  V30 908 O 97.7514 1.37619 -1.06802 0
M  V30 909 C 94.8834 2.62271 -2.17777 0
M  V30 910 H 96.0764 0.942875 -2.84693 0
M  V30 911 H 93.6294 0.455654 -1.49511 0
M  V30 912 H 94.3644 2.98068 -1.27773 0
M  V30 913 H 94.1494 2.53143 -2.99434 0
M  V30 914 H 95.6394 3.36946 -2.46693 0
M  V30 915 N 96.0765 1.50051 0.48192 0
M  V30 916 C 97.0085 1.64263 1.59844 0
M  V30 917 C 98.0215 0.52451 1.54119 0
M  V30 918 O 99.2105 0.797293 1.59704 0
M  V30 919 C 96.3105 1.60102 2.98698 0
M  V30 920 C 95.4835 2.87767 3.29407 0
M  V30 921 C 94.5425 2.76397 4.47762 0
M  V30 922 O 93.5685 3.50348 4.48603 0
M  V30 923 N 94.7705 1.89222 5.48794 0
M  V30 924 H 97.5355 2.60566 1.48073 0
M  V30 925 H 95.0965 1.47379 0.670149 0
M  V30 926 H 97.0885 1.50123 3.75826 0
M  V30 927 H 95.6585 0.715798 3.04294 0
M  V30 928 H 94.8785 3.11954 2.40994 0
M  V30 929 H 96.1665 3.72365 3.4673 0
M  V30 930 H 95.5645 1.28434 5.50928 0
M  V30 931 H 94.1215 1.85154 6.24949 0
M  V30 932 N 97.5546 -0.734337 1.39446 0
M  V30 933 C 98.4846 -1.86155 1.40955 0
M  V30 934 C 99.4656 -1.67898 0.272827 0
M  V30 935 O 100.651 -1.88207 0.478743 0
M  V30 936 C 97.7806 -3.23912 1.25294 0
M  V30 937 C 96.7346 -3.56808 2.36373 0
M  V30 938 C 96.0606 -4.93508 2.058 0
M  V30 939 C 97.3606 -3.59713 3.78687 0
M  V30 940 H 99.0546 -1.8515 2.35287 0
M  V30 941 H 96.6006 -0.889367 1.13253 0
M  V30 942 H 98.5536 -4.02443 1.2497 0
M  V30 943 H 97.2776 -3.25446 0.274308 0
M  V30 944 H 95.9366 -2.80606 2.35914 0
M  V30 945 H 95.5846 -4.91623 1.06374 0
M  V30 946 H 95.2846 -5.16486 2.80208 0
M  V30 947 H 96.8086 -5.74396 2.07128 0
M  V30 948 H 98.2226 -4.2832 3.81071 0
M  V30 949 H 96.6196 -3.94209 4.52459 0
M  V30 950 H 97.6896 -2.59504 4.09617 0
M  V30 951 N 99.0327 -1.24633 -0.964593 0
M  V30 952 C 100.261 -1.11501 -1.74285 0
M  V30 953 C 100.676 0.332165 -1.85855 0
M  V30 954 O 100.033 1.22903 -1.34911 0
M  V30 955 C 100.084 -1.75258 -3.16175 0
M  V30 956 O 99.8047 -3.14318 -3.05182 0
M  V30 957 C 101.306 -1.67776 -4.10324 0
M  V30 958 H 98.5257 -0.389407 -0.546446 0
M  V30 959 H 101.07 -1.64801 -1.21083 0
M  V30 960 H 99.2247 -1.25954 -3.66353 0
M  V30 961 H 99.6387 -3.4551 -3.94618 0
M  V30 962 H 101.113 -2.17064 -5.0753 0
M  V30 963 H 101.59 -0.639584 -4.34518 0
M  V30 964 H 102.196 -2.16522 -3.66058 0
M  V30 965 N 100.511 1.16574 -1.06058 0
M  V30 966 C 101.757 1.87324 -0.777022 0
M  V30 967 C 102.09 1.81351 0.694645 0
M  V30 968 O 101.365 1.22753 1.50871 0
M  V30 969 C 101.648 3.36991 -1.26922 0
M  V30 970 C 101.501 3.51667 -2.80447 0
M  V30 971 C 102.82 4.3131 -0.87521 0
M  V30 972 H 99.9388 0.680191 -0.28374 0
M  V30 973 H 102.581 1.37036 -1.3161 0
M  V30 974 H 100.731 3.79949 -0.81063 0
M  V30 975 H 102.403 3.17664 -3.34495 0
M  V30 976 H 100.646 2.93656 -3.19294 0
M  V30 977 H 101.317 4.56766 -3.0995 0
M  V30 978 H 103.793 3.9624 -1.27014 0
M  V30 979 H 102.669 5.34545 -1.2471 0
M  V30 980 H 102.93 4.41552 0.220071 0
M  V30 981 N 101.989 0.842826 1.3317 0
M  V30 982 C 102.937 0.267495 2.31057 0
M  V30 983 C 103.931 -0.602682 1.58316 0
M  V30 984 O 105.137 -0.491803 1.73151 0
M  V30 985 H 101.512 0.0677813 0.748939 0
M  V30 986 H 103.483 1.10754 2.77085 0
M  V30 987 C 102.232 -0.539331 3.43492 0
M  V30 988 H 101.555 0.12095 3.99617 0
M  V30 989 H 102.995 -0.90767 4.14171 0
M  V30 990 C 101.454 -1.71981 2.89697 0
M  V30 991 O 101.984 -2.81862 2.86211 0
M  V30 992 N 100.19 -1.54299 2.46252 0
M  V30 993 H 99.7369 -0.649143 2.49287 0
M  V30 994 H 99.6949 -2.33431 2.10612 0
M  V30 995 N 103.467 -1.45747 0.599634 0
M  V30 996 C 104.697 -2.06369 0.0977132 0
M  V30 997 C 105.105 -1.44624 -1.21985 0
M  V30 998 O 104.448 -0.551831 -1.75216 0
M  V30 999 C 104.51 -3.59284 -0.124673 0
M  V30 1000 C 104.174 -4.43318 1.10987 0
M  V30 1001 C 105.171 -4.78796 2.02609 0
M  V30 1002 C 102.856 -4.84194 1.33647 0
M  V30 1003 C 104.85 -5.53997 3.15224 0
M  V30 1004 C 102.537 -5.5915 2.46565 0
M  V30 1005 C 103.535 -5.93968 3.37182 0
M  V30 1006 O 103.223 -6.67405 4.48136 0
M  V30 1007 H 102.955 -0.673122 0.0623153 0
M  V30 1008 H 105.509 -1.88104 0.824981 0
M  V30 1009 H 103.739 -3.75919 -0.906745 0
M  V30 1010 H 105.428 -4.01775 -0.577201 0
M  V30 1011 H 106.194 -4.47781 1.86325 0
M  V30 1012 H 102.073 -4.56534 0.64016 0
M  V30 1013 H 105.617 -5.81091 3.85978 0
M  V30 1014 H 101.514 -5.89579 2.62805 0
M  V30 1015 H 102.282 -6.85847 4.46717 0
M  V30 1016 N 104.945 -0.338344 -1.53925 0
M  V30 1017 C 105.908 0.508299 -2.23493 0
M  V30 1018 C 106.908 1.03175 -1.23335 0
M  V30 1019 O 108.098 0.921826 -1.47811 0
M  V30 1020 C 105.23 1.70754 -2.95052 0
M  V30 1021 H 106.423 -0.100058 -2.99733 0
M  V30 1022 H 103.976 -0.0896198 -1.56043 0
M  V30 1023 H 104.711 2.35474 -2.22986 0
M  V30 1024 H 104.496 1.33946 -3.68512 0
M  V30 1025 H 105.986 2.30818 -3.48013 0
M  V30 1026 N 106.423 1.57458 -0.0668435 0
M  V30 1027 C 107.7 1.8469 0.644132 0
M  V30 1028 C 108.08 0.958343 1.88093 0
M  V30 1029 O 107.428 0.0233579 2.28488 0
M  V30 1030 C 107.638 3.34767 0.986509 0
M  V30 1031 C 108.986 4.02159 1.36212 0
M  V30 1032 O 110.01 3.39484 1.07839 0
M  V30 1033 O 108.869 5.12694 1.89227 0
M  V30 1034 H 105.963 0.762816 0.319437 0
M  V30 1035 H 108.509 1.6942 -0.0973986 0
M  V30 1036 H 107.281 3.91151 0.107883 0
M  V30 1037 H 106.904 3.55281 1.78497 0
M  V30 1038 N 107.901 -0.206675 1.56239 0
M  V30 1039 C 109.15 -0.926964 1.79138 0
M  V30 1040 C 109.463 -1.84901 0.638043 0
M  V30 1041 O 110.669 -2.60906 0.751033 0
M  V30 1042 C 109.125 -1.6986 3.17294 0
M  V30 1043 C 108.733 -0.821956 4.40395 0
M  V30 1044 C 110.477 -2.40922 3.4951 0
M  V30 1045 C 108.384 -1.59179 5.69575 0
M  V30 1046 H 107.314 -0.349864 0.667915 0
M  V30 1047 H 109.965 -0.180487 1.8261 0
M  V30 1048 H 108.347 -2.48853 3.08039 0
M  V30 1049 H 109.521 -0.0715019 4.60745 0
M  V30 1050 H 107.836 -0.222741 4.15804 0
M  V30 1051 H 110.433 -2.99047 4.43255 0
M  V30 1052 H 110.776 -3.14542 2.72707 0
M  V30 1053 H 111.309 -1.68905 3.60161 0
M  V30 1054 H 108.048 -0.898589 6.49312 0
M  V30 1055 H 107.568 -2.31648 5.53262 0
M  V30 1056 H 109.247 -2.14862 6.10281 0
M  V30 1057 N 109.379 -1.50304 -0.473955 0
M  V30 1058 C 110.656 -1.51667 -1.23518 0
M  V30 1059 C 111.036 -0.259701 -2.09496 0
M  V30 1060 O 110.384 0.756986 -2.15597 0
M  V30 1061 C 110.594 -2.81082 -2.06868 0
M  V30 1062 C 111.942 -3.31631 -2.65153 0
M  V30 1063 O 112.966 -2.82384 -2.17113 0
M  V30 1064 O 111.825 -4.17471 -3.52675 0
M  V30 1065 H 108.919 -0.60822 -0.560355 0
M  V30 1066 H 111.465 -1.62592 -0.486011 0
M  V30 1067 H 110.237 -3.64041 -1.4349 0
M  V30 1068 H 109.86 -2.73146 -2.88924 0
M  V30 1069 N 110.857 0.726932 -1.39834 0
M  V30 1070 C 112.106 1.48214 -1.36805 0
M  V30 1071 C 112.419 1.95576 0.0305291 0
M  V30 1072 O 113.625 2.7088 0.183417 0
M  V30 1073 C 112.081 2.67854 -2.40379 0
M  V30 1074 C 111.689 2.27408 -3.85992 0
M  V30 1075 C 113.433 3.45641 -2.46439 0
M  V30 1076 C 111.34 3.43819 -4.81189 0
M  V30 1077 H 110.27 0.556606 -0.508631 0
M  V30 1078 H 112.921 0.792216 -1.65518 0
M  V30 1079 H 111.303 3.3896 -2.04749 0
M  V30 1080 H 112.477 1.63795 -4.30706 0
M  V30 1081 H 110.792 1.62692 -3.83302 0
M  V30 1082 H 113.389 4.32244 -3.14753 0
M  V30 1083 H 113.732 3.88669 -1.49139 0
M  V30 1084 H 114.265 2.8157 -2.81004 0
M  V30 1085 H 111.004 3.05834 -5.79781 0
M  V30 1086 H 110.524 4.06385 -4.41148 0
M  V30 1087 H 112.203 4.10043 -5.00474 0
M  V30 1088 N 112.336 1.25143 0.95797 0
M  V30 1089 C 113.283 1.05235 2.05412 0
M  V30 1090 C 114.253 -0.0374561 1.66058 0
M  V30 1091 O 115.438 0.119073 1.90428 0
M  V30 1092 C 112.578 0.673589 3.38462 0
M  V30 1093 C 111.691 1.8379 3.90954 0
M  V30 1094 C 110.826 1.40381 5.12315 0
M  V30 1095 C 109.865 2.53746 5.57027 0
M  V30 1096 N 109.002 2.11136 6.69601 0
M  V30 1097 H 113.842 1.99048 2.21774 0
M  V30 1098 H 111.379 0.991277 1.08683 0
M  V30 1099 H 113.337 0.434964 4.14926 0
M  V30 1100 H 111.967 -0.227554 3.21997 0
M  V30 1101 H 111.019 2.18992 3.11041 0
M  V30 1102 H 112.331 2.68937 4.20089 0
M  V30 1103 H 111.485 1.12464 5.96185 0
M  V30 1104 H 110.224 0.523015 4.84887 0
M  V30 1105 H 109.229 2.82412 4.71724 0
M  V30 1106 H 110.454 3.42398 5.86464 0
M  V30 1107 H 108.4 1.25468 6.4389 0
M  V30 1108 H 108.317 2.89832 6.98236 0
M  V30 1109 H 109.585 1.86385 7.56889 0
M  V30 1110 N 113.814 -1.1601 1.06675 0
M  V30 1111 C 115.044 -1.90251 0.805497 0
M  V30 1112 C 115.452 -1.77891 -0.64431 0
M  V30 1113 O 114.795 -1.12383 -1.45313 0
M  V30 1114 C 114.857 -3.41419 1.12576 0
M  V30 1115 C 114.521 -3.77564 2.57477 0
M  V30 1116 C 115.518 -3.79161 3.55715 0
M  V30 1117 C 113.203 -4.08079 2.92877 0
M  V30 1118 C 115.197 -4.10767 4.8739 0
M  V30 1119 C 112.884 -4.39351 4.24751 0
M  V30 1120 C 113.882 -4.40675 5.21818 0
M  V30 1121 O 113.57 -4.71202 6.51325 0
M  V30 1122 H 113.302 -0.610018 0.291297 0
M  V30 1123 H 115.856 -1.47958 1.4247 0
M  V30 1124 H 114.086 -3.84079 0.449503 0
M  V30 1125 H 115.775 -3.9694 0.84814 0
M  V30 1126 H 116.541 -3.55693 3.29708 0
M  V30 1127 H 112.42 -4.06211 2.17976 0
M  V30 1128 H 115.964 -4.11715 5.63148 0
M  V30 1129 H 111.861 -4.62285 4.50514 0
M  V30 1130 H 112.629 -4.88996 6.56373 0
M  V30 1131 N 115.292 -0.849877 -1.32721 0
M  V30 1132 C 116.24 -0.279745 -2.30912 0
M  V30 1133 C 117.234 0.594278 -1.58634 0
M  V30 1134 O 118.44 0.482613 -1.73409 0
M  V30 1135 H 114.815 -0.0717521 -0.748569 0
M  V30 1136 H 116.786 -1.12222 -2.76494 0
M  V30 1137 C 115.535 0.521108 -3.43773 0
M  V30 1138 H 114.858 -0.142141 -3.99547 0
M  V30 1139 H 116.298 0.885693 -4.14646 0
M  V30 1140 C 114.757 1.70442 -2.90605 0
M  V30 1141 O 115.287 2.8034 -2.87702 0
M  V30 1142 N 113.493 1.52991 -2.47067 0
M  V30 1143 H 113.04 0.635914 -2.49628 0
M  V30 1144 H 112.998 2.32311 -2.11847 0
M  V30 1145 N 116.77 1.45427 -0.607355 0
M  V30 1146 C 118.018 2.01841 -0.102253 0
M  V30 1147 C 118.339 1.47832 1.27164 0
M  V30 1148 O 117.609 0.672497 1.83995 0
M  V30 1149 H 116.189 0.746188 -0.0348101 0
M  V30 1150 H 118.851 1.78229 -0.7887 0
M  V30 1151 H 117.947 3.12057 -0.0518585 0
M  V30 1152 N 118.248 0.346503 1.53744 0
M  V30 1153 C 119.525 -0.304532 1.93215 0
M  V30 1154 C 119.905 -1.67993 1.27834 0
M  V30 1155 O 119.253 -2.24411 0.430352 0
M  V30 1156 C 119.463 -0.373852 3.46992 0
M  V30 1157 C 120.811 -0.62329 4.2 0
M  V30 1158 O 121.835 -0.455847 3.53271 0
M  V30 1159 O 120.694 -0.947879 5.38217 0
M  V30 1160 H 117.788 -0.178318 0.807547 0
M  V30 1161 H 120.334 0.397895 1.64969 0
M  V30 1162 H 119.106 0.591224 3.86808 0
M  V30 1163 H 118.729 -1.12294 3.81413 0
M  V30 1164 N 119.726 -1.57421 0.075193 0
M  V30 1165 C 120.689 -2.11791 -0.876203 0
M  V30 1166 C 121.689 -1.04268 -1.22412 0
M  V30 1167 O 122.879 -1.30242 -1.15684 0
M  V30 1168 C 120.011 -2.62207 -2.17854 0
M  V30 1169 H 121.204 -2.9716 -0.40444 0
M  V30 1170 H 118.757 -1.55333 -0.173557 0
M  V30 1171 H 119.492 -1.803 -2.6956 0
M  V30 1172 H 119.277 -3.40802 -1.93897 0
M  V30 1173 H 120.767 -3.04335 -2.85955 0
M  V30 1174 N 121.204 0.198386 -1.56346 0
M  V30 1175 C 122.434 0.934215 -1.84271 0
M  V30 1176 C 122.842 1.77496 -0.655125 0
M  V30 1177 O 122.185 1.7961 0.385488 0
M  V30 1178 C 122.247 1.88278 -3.06254 0
M  V30 1179 C 121.911 1.22431 -4.40295 0
M  V30 1180 C 122.908 0.602839 -5.16393 0
M  V30 1181 C 120.593 1.22915 -4.87029 0
M  V30 1182 C 122.587 -0.0050083 -6.374 0
M  V30 1183 C 120.274 0.617465 -6.07973 0
M  V30 1184 C 121.272 0.00146341 -6.83 0
M  V30 1185 O 120.96 -0.600642 -8.01653 0
M  V30 1186 H 120.692 0.278245 -0.616081 0
M  V30 1187 H 123.246 0.211626 -2.04307 0
M  V30 1188 H 121.476 2.64498 -2.82095 0
M  V30 1189 H 123.165 2.48612 -3.20853 0
M  V30 1190 H 123.931 0.591265 -4.81382 0
M  V30 1191 H 119.81 1.69801 -4.28589 0
M  V30 1192 H 123.354 -0.48643 -6.95902 0
M  V30 1193 H 119.251 0.62653 -6.42452 0
M  V30 1194 H 120.019 -0.497225 -8.16988 0
M  V30 1195 N 122.682 1.50554 0.465978 0
M  V30 1196 C 123.959 1.5232 1.22712 0
M  V30 1197 C 124.339 0.270807 2.09356 0
M  V30 1198 O 123.687 -0.745541 2.15995 0
M  V30 1199 C 123.897 2.82175 2.05374 0
M  V30 1200 C 125.245 3.33033 2.6339 0
M  V30 1201 O 126.269 2.83531 2.15612 0
M  V30 1202 O 125.128 4.19336 3.50456 0
M  V30 1203 H 122.222 0.611183 0.557122 0
M  V30 1204 H 124.768 1.62847 0.477381 0
M  V30 1205 H 123.54 3.64797 1.41558 0
M  V30 1206 H 123.163 2.74675 2.87471 0
M  V30 1207 N 124.16 -0.719506 1.40217 0
M  V30 1208 C 125.39 -1.50646 1.41384 0
M  V30 1209 C 125.798 -1.89197 0.0107743 0
M  V30 1210 O 125.141 -1.55709 -0.974708 0
M  V30 1211 C 125.203 -2.81405 2.23722 0
M  V30 1212 C 124.867 -2.65199 3.72181 0
M  V30 1213 C 125.864 -2.32717 4.64907 0
M  V30 1214 C 123.549 -2.81586 4.1595 0
M  V30 1215 C 125.543 -2.16827 5.99387 0
M  V30 1216 C 123.23 -2.65313 5.50502 0
M  V30 1217 C 124.228 -2.32981 6.42035 0
M  V30 1218 O 123.916 -2.16827 7.74107 0
M  V30 1219 H 123.648 -0.471606 0.484318 0
M  V30 1220 H 126.202 -0.895456 1.84853 0
M  V30 1221 H 124.432 -3.44823 1.75026 0
M  V30 1222 H 126.121 -3.43102 2.16878 0
M  V30 1223 H 126.887 -2.19694 4.32388 0
M  V30 1224 H 122.766 -3.0574 3.45027 0
M  V30 1225 H 126.31 -1.91513 6.70797 0
M  V30 1226 H 122.207 -2.7792 5.82607 0
M  V30 1227 H 122.975 -2.31778 7.84998 0
M  V30 1228 N 125.638 -1.25649 -0.95132 0
M  V30 1229 C 126.57 -1.02112 -2.05197 0
M  V30 1230 C 127.583 0.0150571 -1.62793 0
M  V30 1231 O 128.772 -0.223874 -1.77091 0
M  V30 1232 C 125.872 -0.522361 -3.3485 0
M  V30 1233 C 125.045 -1.62546 -4.06076 0
M  V30 1234 C 124.104 -1.12649 -5.14001 0
M  V30 1235 O 123.13 -1.82156 -5.39266 0
M  V30 1236 N 124.332 0.03047 -5.80492 0
M  V30 1237 H 127.097 -1.96885 -2.25957 0
M  V30 1238 H 124.658 -1.16899 -1.1201 0
M  V30 1239 H 126.65 -0.172961 -4.0433 0
M  V30 1240 H 125.22 0.33151 -3.10837 0
M  V30 1241 H 124.44 -2.14628 -3.30649 0
M  V30 1242 H 125.728 -2.36644 -4.50419 0
M  V30 1243 H 125.126 0.611169 -5.62389 0
M  V30 1244 H 123.683 0.320875 -6.5101 0
M  V30 1245 N 127.117 1.15442 -1.07289 0
M  V30 1246 C 128.365 1.85845 -0.794096 0
M  V30 1247 C 128.686 1.82692 0.681809 0
M  V30 1248 O 127.956 1.26741 1.49377 0
M  V30 1249 H 126.536 0.688089 -0.290763 0
M  V30 1250 H 129.198 1.39947 -1.3565 0
M  V30 1251 H 128.294 2.91001 -1.12804 0
M  V30 1252 N 128.595 0.856903 1.32268 0
M  V30 1253 C 129.543 0.291987 2.3076 0
M  V30 1254 C 130.537 -0.585857 1.58947 0
M  V30 1255 O 131.743 -0.47341 1.73663 0
M  V30 1256 H 128.118 0.075721 0.748178 0
M  V30 1257 H 130.089 1.13687 2.75895 0
M  V30 1258 C 128.838 -0.502869 3.44044 0
M  V30 1259 H 128.161 0.163328 3.99466 0
M  V30 1260 H 129.601 -0.863691 4.1511 0
M  V30 1261 C 128.06 -1.68898 2.91505 0
M  V30 1262 O 128.59 -2.78811 2.89184 0
M  V30 1263 N 126.796 -1.51679 2.47875 0
M  V30 1264 H 126.343 -0.622666 2.49961 0
M  V30 1265 H 126.301 -2.31184 2.13076 0
M  V30 1266 N 130.073 -1.45103 0.615059 0
M  V30 1267 C 131.484 -1.85654 0.197383 0
M  V30 1268 C 131.835 -1.51433 -1.24749 0
M  V30 1269 O 130.96 -0.944608 -1.94695 0
M  V30 1270 C 131.555 -3.36972 0.351448 0
M  V30 1271 C 130.114 -3.76398 -0.011593 0
M  V30 1272 C 129.261 -2.69024 0.672394 0
M  V30 1273 H 132.212 -1.35797 0.821263 0
M  V30 1274 H 132.233 -3.78239 -0.414227 0
M  V30 1275 H 131.745 -3.61847 1.40314 0
M  V30 1276 H 129.846 -3.5714 -1.06217 0
M  V30 1277 H 129.959 -4.77532 0.387265 0
M  V30 1278 H 128.323 -2.54465 0.109284 0
M  V30 1279 H 129.106 -2.96735 1.72636 0
M  V30 1280 N 131.551 -0.354651 -1.53558 0
M  V30 1281 C 132.484 0.540273 -2.21712 0
M  V30 1282 C 133.462 1.09161 -1.2051 0
M  V30 1283 O 134.646 1.14979 -1.49372 0
M  V30 1284 C 131.773 1.74435 -2.90328 0
M  V30 1285 C 130.819 1.32146 -4.05512 0
M  V30 1286 S 131.652 0.331924 -5.3447 0
M  V30 1287 C 132.808 1.54258 -6.06593 0
M  V30 1288 H 133.041 -0.0385776 -2.97275 0
M  V30 1289 H 130.574 -0.138736 -1.53775 0
M  V30 1290 H 132.532 2.43507 -3.30476 0
M  V30 1291 H 131.193 2.29444 -2.1451 0
M  V30 1292 H 130.386 2.21952 -4.52497 0
M  V30 1293 H 129.988 0.710091 -3.67197 0
M  V30 1294 H 132.28 2.47534 -6.30661 0
M  V30 1295 H 133.223 1.11431 -6.99277 0
M  V30 1296 H 133.631 1.74367 -5.36895 0
M  V30 1297 N 133.029 1.57378 -0.0835403 0
M  V30 1298 C 134.257 1.98263 0.59157 0
M  V30 1299 C 134.672 0.962302 1.62435 0
M  V30 1300 O 134.029 -0.049581 1.82433 0
M  V30 1301 C 134.08 3.39214 1.24965 0
M  V30 1302 O 133.801 4.37339 0.258186 0
M  V30 1303 C 135.302 3.95038 2.01147 0
M  V30 1304 H 132.522 0.651773 0.159477 0
M  V30 1305 H 135.066 2.03878 -0.159415 0
M  V30 1306 H 133.221 3.34649 1.95164 0
M  V30 1307 H 133.635 5.19371 0.731734 0
M  V30 1308 H 135.109 4.95848 2.42567 0
M  V30 1309 H 135.586 3.32222 2.87272 0
M  V30 1310 H 136.192 4.0304 1.35789 0
M  V30 1311 N 134.507 -0.190092 1.56449 0
M  V30 1312 C 135.755 -0.907908 1.80559 0
M  V30 1313 C 136.076 -1.83583 0.657438 0
M  V30 1314 O 135.346 -1.93203 -0.323924 0
M  V30 1315 H 133.926 -0.338247 0.666032 0
M  V30 1316 H 136.588 -0.194403 1.93928 0
M  V30 1317 H 135.684 -1.49604 2.73907 0
M  V30 1318 N 135.985 -1.50799 -0.457987 0
M  V30 1319 C 137.233 -1.62121 -1.2067 0
M  V30 1320 C 137.554 -0.329793 -1.92191 0
M  V30 1321 O 136.824 0.653409 -1.84682 0
M  V30 1322 H 135.404 -0.597441 -0.448411 0
M  V30 1323 H 138.066 -1.87637 -0.527096 0
M  V30 1324 H 137.162 -2.43882 -1.94751 0
M  V30 1325 N 137.463 0.71206 -1.40597 0
M  V30 1326 C 138.693 1.49894 -1.42181 0
M  V30 1327 C 139.101 1.89189 -0.0208078 0
M  V30 1328 O 138.444 1.56223 0.966436 0
M  V30 1329 C 138.506 2.80215 -2.25211 0
M  V30 1330 C 138.17 2.63221 -3.73582 0
M  V30 1331 C 139.167 2.30249 -4.66135 0
M  V30 1332 C 136.852 2.79376 -4.17438 0
M  V30 1333 C 138.846 2.13645 -6.00529 0
M  V30 1334 C 136.533 2.6239 -5.51901 0
M  V30 1335 C 137.531 2.29573 -6.43262 0
M  V30 1336 O 137.219 2.12719 -7.75246 0
M  V30 1337 H 136.951 0.469031 -0.486812 0
M  V30 1338 H 139.505 0.88564 -1.85326 0
M  V30 1339 H 137.735 3.4389 -1.76852 0
M  V30 1340 H 139.424 3.41947 -2.18694 0
M  V30 1341 H 140.19 2.17398 -4.33547 0
M  V30 1342 H 136.069 3.03906 -3.46644 0
M  V30 1343 H 139.613 1.87953 -6.71803 0
M  V30 1344 H 135.51 2.74826 -5.84073 0
M  V30 1345 H 136.278 2.27611 -7.86216 0
M  V30 1346 N 138.941 1.26152 0.944643 0
M  V30 1347 C 139.873 1.03199 2.04652 0
M  V30 1348 C 140.886 -0.00642356 1.62799 0
M  V30 1349 O 142.075 0.233263 1.76969 0
M  V30 1350 C 139.175 0.540111 3.34568 0
M  V30 1351 C 138.348 1.64697 4.05208 0
M  V30 1352 C 137.407 1.15374 5.13396 0
M  V30 1353 O 136.433 1.85013 5.38293 0
M  V30 1354 N 137.635 0.00031529 5.805 0
M  V30 1355 H 140.4 1.9808 2.2491 0
M  V30 1356 H 137.961 1.17491 1.11389 0
M  V30 1357 H 139.953 0.194401 4.04233 0
M  V30 1358 H 138.523 -0.315021 3.11009 0
M  V30 1359 H 137.743 2.16379 3.29506 0
M  V30 1360 H 139.031 2.3903 4.49157 0
M  V30 1361 H 138.429 -0.581336 5.62705 0
M  V30 1362 H 136.986 -0.286346 6.51171 0
M  V30 1363 N 140.419 -1.14872 1.07899 0
M  V30 1364 C 141.696 -1.81928 0.71845 0
M  V30 1365 C 142.076 -1.95417 -0.798455 0
M  V30 1366 O 141.424 -1.50997 -1.715 0
M  V30 1367 C 141.634 -3.17937 1.43935 0
M  V30 1368 C 142.982 -3.93501 1.59506 0
M  V30 1369 O 144.006 -3.27509 1.40058 0
M  V30 1370 O 142.865 -5.1183 1.91551 0
M  V30 1371 H 139.959 -0.78628 0.256305 0
M  V30 1372 H 142.505 -1.21934 1.18026 0
M  V30 1373 H 141.277 -3.0325 2.47295 0
M  V30 1374 H 140.9 -3.85619 0.968687 0
M  V30 1375 N 141.898 -0.863906 -1.31812 0
M  V30 1376 C 143.146 -0.470904 -1.96537 0
M  V30 1377 C 143.467 0.978771 -1.68657 0
M  V30 1378 O 142.737 1.6853 -0.998717 0
M  V30 1379 H 141.317 -0.171148 -0.72713 0
M  V30 1380 H 143.979 -1.10236 -1.60729 0
M  V30 1381 H 143.075 -0.623616 -3.05806 0
M  V30 1382 N 143.376 1.44774 -0.622745 0
M  V30 1383 C 144.787 1.85546 -0.207226 0
M  V30 1384 C 145.138 1.52093 1.23944 0
M  V30 1385 O 144.263 0.95492 1.94191 0
M  V30 1386 C 144.858 3.36781 -0.369313 0
M  V30 1387 C 143.417 3.76399 -0.00836847 0
M  V30 1388 C 142.564 2.68664 -0.686651 0
M  V30 1389 H 145.515 1.3536 -0.828454 0
M  V30 1390 H 145.536 3.78453 0.394162 0
M  V30 1391 H 145.048 3.61098 -1.42231 0
M  V30 1392 H 143.149 3.57698 1.04322 0
M  V30 1393 H 143.262 4.7732 -0.412584 0
M  V30 1394 H 141.626 2.54404 -0.122777 0
M  V30 1395 H 142.409 2.95815 -1.74208 0
M  V30 1396 N 144.854 0.36279 1.53368 0
M  V30 1397 C 146.102 -0.227326 2.00817 0
M  V30 1398 C 146.423 -1.49511 1.25186 0
M  V30 1399 O 145.693 -1.92482 0.364348 0
M  V30 1400 H 144.273 -0.0869923 0.741917 0
M  V30 1401 H 146.935 0.488381 1.88682 0
M  V30 1402 H 146.031 -0.456273 3.08747 0
M  V30 1403 N 146.332 -1.57332 0.0918853 0
M  V30 1404 C 147.56 -1.98574 -0.581048 0
M  V30 1405 C 147.975 -0.970903 -1.61923 0
M  V30 1406 O 147.332 0.0399054 -1.82456 0
M  V30 1407 C 147.383 -3.39872 -1.23164 0
M  V30 1408 O 147.104 -4.37469 -0.234989 0
M  V30 1409 C 148.605 -3.96099 -1.99049 0
M  V30 1410 H 145.825 -0.65261 -0.156018 0
M  V30 1411 H 148.369 -2.0379 0.170225 0
M  V30 1412 H 146.524 -3.35679 -1.93386 0
M  V30 1413 H 146.938 -5.19751 -0.70418 0
M  V30 1414 H 148.412 -4.97127 -2.39934 0
M  V30 1415 H 148.889 -3.3374 -2.85507 0
M  V30 1416 H 149.495 -4.03755 -1.3365 0
M  V30 1417 N 147.81 0.181792 -1.56548 0
M  V30 1418 C 149.221 0.745244 -1.71181 0
M  V30 1419 C 149.572 1.83262 -0.70068 0
M  V30 1420 O 148.697 2.15946 0.140154 0
M  V30 1421 C 149.292 1.35859 -3.10367 0
M  V30 1422 C 147.851 1.86898 -3.2672 0
M  V30 1423 C 146.998 0.743942 -2.67134 0
M  V30 1424 H 149.949 -0.0434661 -1.5864 0
M  V30 1425 H 149.97 2.22817 -3.08436 0
M  V30 1426 H 149.482 0.566948 -3.83937 0
M  V30 1427 H 147.583 2.68738 -2.5809 0
M  V30 1428 H 147.696 2.02162 -4.34359 0
M  V30 1429 H 146.06 1.16169 -2.26665 0
M  V30 1430 H 146.843 -0.035676 -3.43281 0
M  V30 1431 N 149.288 1.51039 0.449983 0
M  V30 1432 C 150.198 1.74261 1.57067 0
M  V30 1433 C 151.214 0.626363 1.62335 0
M  V30 1434 O 152.39 0.907162 1.79812 0
M  V30 1435 C 149.455 1.85114 2.93144 0
M  V30 1436 C 148.516 3.0893 2.98095 0
M  V30 1437 C 147.749 3.19256 4.27681 0
M  V30 1438 O 147.972 2.35835 5.19363 0
M  V30 1439 O 146.906 4.12144 4.38658 0
M  V30 1440 H 150.732 2.69303 1.40391 0
M  V30 1441 H 148.317 1.35389 0.631688 0
M  V30 1442 H 150.199 1.94311 3.73926 0
M  V30 1443 H 148.874 0.932588 3.09975 0
M  V30 1444 H 147.781 3.0522 2.16314 0
M  V30 1445 H 149.114 4.00433 2.86206 0
M  V30 1446 N 150.766 -0.704594 1.40972 0
M  V30 1447 C 151.696 -1.83124 1.44872 0
M  V30 1448 C 152.677 -1.67281 0.30838 0
M  V30 1449 O 153.862 -1.87149 0.518556 0
M  V30 1450 C 150.992 -3.21181 1.32136 0
M  V30 1451 C 149.946 -3.51714 2.43888 0
M  V30 1452 C 149.272 -4.89032 2.16222 0
M  V30 1453 C 150.572 -3.516 3.86232 0
M  V30 1454 H 152.266 -1.80117 2.39161 0
M  V30 1455 H 149.812 -0.865145 1.15114 0
M  V30 1456 H 151.765 -3.99702 1.33479 0
M  V30 1457 H 150.489 -3.24791 0.343279 0
M  V30 1458 H 149.148 -2.75539 2.41813 0
M  V30 1459 H 148.796 -4.89256 1.16778 0
M  V30 1460 H 148.496 -5.10426 2.911 0
M  V30 1461 H 150.02 -5.69873 2.19265 0
M  V30 1462 H 151.434 -4.2014 3.9007 0
M  V30 1463 H 149.831 -3.84523 4.60719 0
M  V30 1464 H 150.901 -2.50757 4.15029 0
M  V30 1465 N 152.244 -1.26651 -0.937939 0
M  V30 1466 C 153.492 -1.12165 -1.68118 0
M  V30 1467 C 153.813 0.334983 -1.92101 0
M  V30 1468 O 153.083 1.23583 -1.52 0
M  V30 1469 H 151.663 -0.412093 -0.623048 0
M  V30 1470 H 154.325 -1.59027 -1.12678 0
M  V30 1471 H 153.421 -1.64289 -2.6536 0
M  V30 1472 N 153.722 1.14298 -1.08507 0
M  V30 1473 C 154.95 1.89219 -0.836876 0
M  V30 1474 C 155.365 1.78638 0.611054 0
M  V30 1475 O 154.722 1.14643 1.41998 0
M  V30 1476 C 154.773 3.39158 -1.25116 0
M  V30 1477 O 154.494 3.49449 -2.64229 0
M  V30 1478 C 155.995 4.31073 -1.03398 0
M  V30 1479 H 153.215 0.599328 -0.301739 0
M  V30 1480 H 155.759 1.44746 -1.44461 0
M  V30 1481 H 153.914 3.81251 -0.687514 0
M  V30 1482 H 154.328 4.42589 -2.81452 0
M  V30 1483 H 155.802 5.34646 -1.37323 0
M  V30 1484 H 156.279 4.3919 0.0289259 0
M  V30 1485 H 156.885 3.94738 -1.58311 0
M  V30 1486 N 155.201 0.870884 1.31352 0
M  V30 1487 C 156.149 0.316445 2.30437 0
M  V30 1488 C 157.143 -0.568965 1.59559 0
M  V30 1489 O 158.349 -0.454964 1.74155 0
M  V30 1490 H 154.724 0.0836521 0.747333 0
M  V30 1491 H 156.695 1.16606 2.74673 0
M  V30 1492 C 155.444 -0.46635 3.44558 0
M  V30 1493 H 154.767 0.205687 3.99271 0
M  V30 1494 H 156.207 -0.819614 4.16003 0
M  V30 1495 C 154.666 -1.65797 2.9328 0
M  V30 1496 O 155.196 -2.75728 2.92125 0
M  V30 1497 N 153.402 -1.49041 2.4947 0
M  V30 1498 H 152.949 -0.59612 2.50608 0
M  V30 1499 H 152.907 -2.28911 2.15516 0
M  V30 1500 N 156.679 -1.44442 0.630414 0
M  V30 1501 C 157.956 -1.9549 0.0655657 0
M  V30 1502 C 158.336 -1.5724 -1.40851 0
M  V30 1503 O 157.684 -0.846116 -2.12257 0
M  V30 1504 C 157.894 -3.47812 0.287691 0
M  V30 1505 C 159.242 -4.24216 0.180513 0
M  V30 1506 O 160.266 -3.55526 0.219019 0
M  V30 1507 O 159.125 -5.46434 0.0848493 0
M  V30 1508 H 156.219 -0.826688 -0.0227177 0
M  V30 1509 H 158.765 -1.54496 0.702068 0
M  V30 1510 H 157.537 -3.687 1.31056 0
M  V30 1511 H 157.16 -3.95751 -0.382984 0
M  V30 1512 N 158.157 -0.370918 -1.53173 0
M  V30 1513 C 159.405 0.216673 -2.00935 0
M  V30 1514 C 159.726 1.48845 -1.25977 0
M  V30 1515 O 158.996 1.92286 -0.374551 0
M  V30 1516 H 157.576 0.0830565 -0.742368 0
M  V30 1517 H 160.238 -0.49838 -1.8842 0
M  V30 1518 H 159.334 0.439893 -3.08984 0
M  V30 1519 N 159.635 1.57281 -0.100228 0
M  V30 1520 C 160.883 1.94153 0.561157 0
M  V30 1521 C 161.204 0.983157 1.68401 0
M  V30 1522 O 160.474 0.0361132 1.95867 0
M  V30 1523 H 159.054 0.716791 0.210283 0
M  V30 1524 H 161.716 1.94202 -0.164765 0
M  V30 1525 H 160.812 2.96709 0.968008 0
M  V30 1526 N 161.113 -0.173488 1.56642 0
M  V30 1527 C 162.045 -1.23935 1.92802 0
M  V30 1528 C 163.058 -1.40589 0.820889 0
M  V30 1529 O 164.247 -1.40631 1.09933 0
M  V30 1530 C 161.347 -2.60837 2.16373 0
M  V30 1531 C 160.52 -2.6551 3.47596 0
M  V30 1532 C 159.579 -3.8376 3.60021 0
M  V30 1533 O 158.605 -3.69859 4.32658 0
M  V30 1534 N 159.807 -5.00127 2.94709 0
M  V30 1535 H 162.572 -0.932236 2.84832 0
M  V30 1536 H 160.133 -0.363268 1.57772 0
M  V30 1537 H 162.125 -3.38407 2.21952 0
M  V30 1538 H 160.695 -2.83948 1.30738 0
M  V30 1539 H 159.915 -1.74052 3.53694 0
M  V30 1540 H 161.203 -2.65641 4.33949 0
M  V30 1541 H 160.601 -5.14322 2.35563 0
M  V30 1542 H 159.158 -5.75567 3.05886 0
M  V30 1543 N 162.591 -1.51276 -0.441967 0
M  V30 1544 C 163.554 -1.7167 -1.51862 0
M  V30 1545 C 164.554 -0.586793 -1.49711 0
M  V30 1546 O 165.744 -0.854276 -1.51815 0
M  V30 1547 C 162.876 -1.76889 -2.91416 0
M  V30 1548 H 164.069 -2.67754 -1.35084 0
M  V30 1549 H 161.622 -1.41196 -0.670333 0
M  V30 1550 H 162.357 -0.826026 -3.13604 0
M  V30 1551 H 162.142 -2.59001 -2.94382 0
M  V30 1552 H 163.632 -1.94522 -3.69528 0
M  V30 1553 N 164.069 0.697108 -1.41344 0
M  V30 1554 C 165.317 1.45426 -1.40341 0
M  V30 1555 C 165.638 1.94996 -0.0128787 0
M  V30 1556 O 164.908 1.71599 0.945027 0
M  V30 1557 H 163.488 0.539594 -0.516573 0
M  V30 1558 H 166.15 0.825201 -1.76569 0
M  V30 1559 H 165.246 2.31817 -2.08967 0
M  V30 1560 N 165.547 1.27147 0.931209 0
M  V30 1561 C 166.794 1.13278 1.67852 0
M  V30 1562 C 167.122 -0.32204 1.91815 0
M  V30 1563 O 166.377 -1.25224 1.50391 0
M  V30 1564 C 166.676 1.8579 3.05314 0
M  V30 1565 C 166.342 3.35657 3.01073 0
M  V30 1566 C 165.004 3.76536 2.99623 0
M  V30 1567 C 167.356 4.31299 2.92627 0
M  V30 1568 C 164.684 5.11426 2.87506 0
M  V30 1569 C 167.036 5.66242 2.82051 0
M  V30 1570 C 165.7 6.06418 2.7895 0
M  V30 1571 H 164.97 0.414515 0.614214 0
M  V30 1572 H 167.617 1.57712 1.08624 0
M  V30 1573 H 165.922 1.33854 3.68226 0
M  V30 1574 H 167.619 1.72491 3.62005 0
M  V30 1575 H 164.209 3.03146 3.02986 0
M  V30 1576 H 168.393 4.00692 2.92848 0
M  V30 1577 H 163.649 5.41705 2.83489 0
M  V30 1578 H 167.823 6.40026 2.74481 0
M  V30 1579 H 165.45 7.10895 2.69318 0
M  V30 1580 N 167.025 -1.13721 1.09112 0
M  V30 1581 C 168.273 -1.84559 0.823562 0
M  V30 1582 C 168.594 -1.83754 -0.652658 0
M  V30 1583 O 167.864 -1.29102 -1.47342 0
M  V30 1584 H 166.444 -0.683376 0.301673 0
M  V30 1585 H 169.106 -1.37771 1.37859 0
M  V30 1586 H 168.202 -2.8917 1.17419 0
M  V30 1587 N 168.503 -0.877838 -1.30888 0
M  V30 1588 C 169.466 -0.344265 -2.266 0
M  V30 1589 C 170.466 0.50922 -1.52524 0
M  V30 1590 O 171.656 0.317398 -1.71284 0
M  V30 1591 C 168.788 0.510198 -3.37061 0
M  V30 1592 H 169.981 -1.1893 -2.7531 0
M  V30 1593 H 167.534 -0.654088 -1.41956 0
M  V30 1594 H 168.269 1.37612 -2.93655 0
M  V30 1595 H 168.054 -0.101047 -3.9197 0
M  V30 1596 H 169.544 0.875537 -4.08319 0
M  V30 1597 N 169.982 1.44106 -0.638065 0
M  V30 1598 C 171.228 2.02815 -0.15409 0
M  V30 1599 C 171.583 1.49342 1.21304 0
M  V30 1600 O 170.876 0.670699 1.79478 0
M  V30 1601 C 171.07 3.5729 -0.0887327 0
M  V30 1602 C 170.899 4.2575 -1.44799 0
M  V30 1603 C 169.669 4.62443 -2.03653 0
M  V30 1604 C 171.867 4.55746 -2.38327 0
M  V30 1605 N 169.849 5.15903 -3.32741 0
M  V30 1606 C 171.22 5.10364 -3.52036 0
M  V30 1607 C 173.275 4.37703 -2.3732 0
M  V30 1608 C 171.978 5.48837 -4.64941 0
M  V30 1609 C 174.004 4.77229 -3.49294 0
M  V30 1610 C 173.366 5.31966 -4.61726 0
M  V30 1611 H 169.465 0.775519 -0.100466 0
M  V30 1612 H 172.049 1.755 -0.843071 0
M  V30 1613 H 170.22 3.84201 0.569548 0
M  V30 1614 H 171.952 4.02671 0.404711 0
M  V30 1615 H 168.707 4.46987 -1.56523 0
M  V30 1616 H 169.131 5.47102 -3.98758 0
M  V30 1617 H 173.773 3.94671 -1.51641 0
M  V30 1618 H 171.491 5.9082 -5.51323 0
M  V30 1619 H 175.077 4.64976 -3.49698 0
M  V30 1620 H 173.957 5.61986 -5.46939 0
M  V30 1621 N 171.46 0.379036 1.52974 0
M  V30 1622 C 172.39 -0.452706 2.29069 0
M  V30 1623 C 173.371 -1.07237 1.32039 0
M  V30 1624 O 174.556 -1.08708 1.60923 0
M  V30 1625 C 171.686 -1.5856 3.08992 0
M  V30 1626 C 170.64 -1.0925 4.13822 0
M  V30 1627 C 169.966 -2.31668 4.81907 0
M  V30 1628 C 171.266 -0.167702 5.22031 0
M  V30 1629 H 172.96 0.182181 2.98845 0
M  V30 1630 H 170.506 0.0890592 1.43724 0
M  V30 1631 H 172.459 -2.1742 3.6098 0
M  V30 1632 H 171.183 -2.24792 2.36931 0
M  V30 1633 H 169.842 -0.526494 3.628 0
M  V30 1634 H 169.49 -2.96386 4.06404 0
M  V30 1635 H 169.19 -1.9934 5.52754 0
M  V30 1636 H 170.714 -2.91189 5.36695 0
M  V30 1637 H 172.128 -0.664186 5.6944 0
M  V30 1638 H 170.525 0.0653265 6.00064 0
M  V30 1639 H 171.595 0.786347 4.78482 0
M  V30 1640 N 172.938 -1.57226 0.108567 0
M  V30 1641 C 174.349 -1.8195 -0.418464 0
M  V30 1642 C 174.7 -1.02508 -1.67292 0
M  V30 1643 O 173.825 -0.258496 -2.14851 0
M  V30 1644 C 174.42 -3.30028 -0.765979 0
M  V30 1645 C 172.979 -3.55469 -1.23769 0
M  V30 1646 C 172.126 -2.7625 -0.241106 0
M  V30 1647 H 175.077 -1.55149 0.33384 0
M  V30 1648 H 175.098 -3.44086 -1.62434 0
M  V30 1649 H 174.61 -3.87821 0.147219 0
M  V30 1650 H 172.711 -3.03022 -2.16814 0
M  V30 1651 H 172.824 -4.6408 -1.19022 0
M  V30 1652 H 171.188 -2.44133 -0.72602 0
M  V30 1653 H 171.971 -3.36797 0.665007 0
M  V30 1654 N 174.416 0.165178 -1.56732 0
M  V30 1655 C 175.644 0.896218 -1.86482 0
M  V30 1656 C 176.059 1.75555 -0.694675 0
M  V30 1657 O 175.416 1.79379 0.33607 0
M  V30 1658 C 175.467 1.76792 -3.1532 0
M  V30 1659 O 175.188 0.943239 -4.27825 0
M  V30 1660 C 176.689 2.6081 -3.58459 0
M  V30 1661 H 173.909 0.260064 -0.618553 0
M  V30 1662 H 176.453 0.163428 -2.03846 0
M  V30 1663 H 174.608 2.45398 -2.99764 0
M  V30 1664 H 175.022 1.53998 -5.01383 0
M  V30 1665 H 176.496 3.17579 -4.51495 0
M  V30 1666 H 176.973 3.35977 -2.82872 0
M  V30 1667 H 177.579 1.97526 -3.76648 0
M  V30 1668 N 175.894 1.51508 0.433938 0
M  V30 1669 C 177.142 1.6402 1.18075 0
M  V30 1670 C 177.463 0.360328 1.91642 0
M  V30 1671 O 176.733 -0.623945 1.85698 0
M  V30 1672 H 175.313 0.6045 0.43885 0
M  V30 1673 H 177.975 1.88452 0.497178 0
M  V30 1674 H 177.071 2.46949 1.90847 0
M  V30 1675 N 177.372 -0.689602 1.41712 0
M  V30 1676 C 178.619 -1.44966 1.4139 0
M  V30 1677 C 178.947 -1.94484 0.025105 0
M  V30 1678 O 178.202 -1.70307 -0.964048 0
M  V30 1679 C 178.501 -2.67298 2.37247 0
M  V30 1680 C 178.167 -2.36405 3.83958 0
M  V30 1681 C 176.829 -2.27691 4.23923 0
M  V30 1682 C 179.181 -2.11043 4.76561 0
M  V30 1683 C 176.509 -1.91719 5.54492 0
M  V30 1684 C 178.861 -1.76578 6.07456 0
M  V30 1685 C 177.525 -1.66363 6.46436 0
M  V30 1686 H 176.795 -0.53047 0.517381 0
M  V30 1687 H 179.442 -0.787655 1.74552 0
M  V30 1688 H 177.747 -3.38461 1.9736 0
M  V30 1689 H 179.444 -3.25452 2.34269 0
M  V30 1690 H 176.034 -2.44085 3.52308 0
M  V30 1691 H 180.218 -2.16717 4.46483 0
M  V30 1692 H 175.474 -1.82367 5.83568 0
M  V30 1693 H 179.648 -1.55974 6.78708 0
M  V30 1694 H 177.275 -1.38258 7.47522 0
M  V30 1695 N 178.85 -1.27639 -0.924453 0
M  V30 1696 C 179.78 -1.13166 -2.04244 0
M  V30 1697 C 180.761 -0.032256 -1.70069 0
M  V30 1698 O 181.946 -0.207328 -1.9309 0
M  V30 1699 C 179.076 -0.781496 -3.38393 0
M  V30 1700 C 178.03 -1.83449 -3.86692 0
M  V30 1701 C 177.356 -1.33822 -5.17683 0
M  V30 1702 C 178.656 -3.23917 -4.09726 0
M  V30 1703 H 180.35 -2.06689 -2.1661 0
M  V30 1704 H 177.896 -0.995136 -1.04082 0
M  V30 1705 H 179.849 -0.667057 -4.16087 0
M  V30 1706 H 178.573 0.189439 -3.2605 0
M  V30 1707 H 177.232 -1.93789 -3.11193 0
M  V30 1708 H 176.88 -0.35665 -5.01734 0
M  V30 1709 H 176.58 -2.04224 -5.50968 0
M  V30 1710 H 178.104 -1.23679 -5.97943 0
M  V30 1711 H 179.518 -3.16559 -4.77978 0
M  V30 1712 H 177.915 -3.92059 -4.54324 0
M  V30 1713 H 178.985 -3.68729 -3.14908 0
M  V30 1714 N 180.328 1.1314 -1.09713 0
M  V30 1715 C 181.574 1.84757 -0.836224 0
M  V30 1716 C 181.907 1.8347 0.636598 0
M  V30 1717 O 181.182 1.27491 1.46889 0
M  V30 1718 C 181.465 3.32782 -1.37578 0
M  V30 1719 C 181.318 3.42567 -2.91493 0
M  V30 1720 C 182.637 4.28307 -1.01198 0
M  V30 1721 H 179.756 0.67082 -0.305236 0
M  V30 1722 H 182.398 1.3278 -1.35903 0
M  V30 1723 H 180.548 3.77177 -0.931097 0
M  V30 1724 H 182.22 3.06862 -3.44432 0
M  V30 1725 H 180.463 2.83349 -3.28475 0
M  V30 1726 H 181.134 4.46674 -3.24324 0
M  V30 1727 H 183.61 3.91999 -1.39556 0
M  V30 1728 H 182.486 5.30307 -1.41653 0
M  V30 1729 H 182.747 4.42029 0.0794833 0
M  V30 1730 N 181.806 0.884767 1.30421 0
M  V30 1731 C 183.052 0.503851 1.96441 0
M  V30 1732 C 183.385 -0.944518 1.69684 0
M  V30 1733 O 182.66 -1.66737 1.00145 0
M  V30 1734 C 182.943 0.779085 3.51571 0
M  V30 1735 C 182.796 2.27807 3.87846 0
M  V30 1736 C 184.115 0.255452 4.39358 0
M  V30 1737 H 181.234 0.184533 0.713524 0
M  V30 1738 H 183.876 1.10872 1.54297 0
M  V30 1739 H 182.026 0.264274 3.876 0
M  V30 1740 H 183.698 2.86127 3.61841 0
M  V30 1741 H 181.941 2.74479 3.35922 0
M  V30 1742 H 182.612 2.42125 4.96064 0
M  V30 1743 H 185.088 0.696079 4.10236 0
M  V30 1744 H 183.964 0.477361 5.4682 0
M  V30 1745 H 184.225 -0.843293 4.33983 0
M  V30 1746 N 183.284 -1.43765 0.645699 0
M  V30 1747 C 184.695 -1.85193 0.236719 0
M  V30 1748 C 185.046 -1.54045 -1.21509 0
M  V30 1749 O 184.171 -0.985694 -1.92647 0
M  V30 1750 C 184.766 -3.36151 0.422845 0
M  V30 1751 C 183.325 -3.76338 0.0682492 0
M  V30 1752 C 182.472 -2.67538 0.729306 0
M  V30 1753 H 185.423 -1.34025 0.849883 0
M  V30 1754 H 185.444 -3.79032 -0.333904 0
M  V30 1755 H 184.956 -3.5879 1.47958 0
M  V30 1756 H 183.057 -3.59312 -0.986179 0
M  V30 1757 H 183.17 -4.76603 0.488469 0
M  V30 1758 H 181.534 -2.54176 0.163235 0
M  V30 1759 H 182.317 -2.93006 1.78892 0
M  V30 1760 N 184.763 -0.387143 -1.52771 0
M  V30 1761 C 186.012 0.19697 -2.00736 0
M  V30 1762 C 186.325 1.48082 -1.27793 0
M  V30 1763 O 187.531 2.14485 -1.66458 0
M  V30 1764 C 185.987 0.401568 -3.57653 0
M  V30 1765 C 185.595 -0.868907 -4.39493 0
M  V30 1766 C 187.339 0.942164 -4.13912 0
M  V30 1767 C 185.246 -0.632705 -5.88006 0
M  V30 1768 H 184.176 0.0773827 -0.750019 0
M  V30 1769 H 186.827 -0.50921 -1.76293 0
M  V30 1770 H 185.209 1.16954 -3.78335 0
M  V30 1771 H 186.383 -1.64133 -4.30577 0
M  V30 1772 H 184.698 -1.33429 -3.94443 0
M  V30 1773 H 187.295 1.13455 -5.22525 0
M  V30 1774 H 187.638 1.9106 -3.69867 0
M  V30 1775 H 188.171 0.233814 -3.97112 0
M  V30 1776 H 184.91 -1.57208 -6.36369 0
M  V30 1777 H 184.43 0.100825 -5.99715 0
M  V30 1778 H 186.109 -0.26642 -6.46451 0
M  V30 1779 N 186.241 1.57166 -0.116904 0
M  V30 1780 C 187.189 2.16457 0.851418 0
M  V30 1781 C 188.183 1.11323 1.27686 0
M  V30 1782 O 189.389 1.2963 1.24884 0
M  V30 1783 H 185.764 0.69271 0.292672 0
M  V30 1784 H 187.735 2.96605 0.32685 0
M  V30 1785 C 186.484 2.77689 2.09246 0
M  V30 1786 H 185.807 3.58285 1.77402 0
M  V30 1787 H 187.247 3.22716 2.7501 0
M  V30 1788 C 185.706 1.74667 2.88085 0
M  V30 1789 O 186.236 1.19877 3.83396 0
M  V30 1790 N 184.442 1.44656 2.52038 0
M  V30 1791 H 183.989 1.89402 1.74599 0
M  V30 1792 H 183.947 0.759675 3.05084 0
M  V30 1793 N 187.719 -0.156864 1.56817 0
M  V30 1794 C 188.996 -0.899244 1.73704 0
M  V30 1795 C 189.376 -1.99771 0.682254 0
M  V30 1796 O 188.724 -2.26515 -0.300522 0
M  V30 1797 C 188.934 -1.45075 3.17418 0
M  V30 1798 C 190.282 -1.91802 3.7881 0
M  V30 1799 O 191.306 -1.54838 3.20786 0
M  V30 1800 O 190.165 -2.5994 4.80722 0
M  V30 1801 H 187.259 -0.424267 0.709878 0
M  V30 1802 H 189.805 -0.143561 1.69092 0
M  V30 1803 H 188.577 -0.660846 3.85679 0
M  V30 1804 H 188.2 -2.27021 3.26416 0
M  V30 1805 N 189.197 -1.51736 -0.425897 0
M  V30 1806 C 190.613 -1.40166 -0.76326 0
M  V30 1807 C 190.813 -0.492962 -1.95377 0
M  V30 1808 O 189.869 0.0475815 -2.52455 0
M  V30 1809 C 191.182 -2.82403 -1.03291 0
M  V30 1810 C 192.73 -2.91632 -1.13665 0
M  V30 1811 C 193.205 -4.34801 -1.43916 0
M  V30 1812 N 194.696 -4.3796 -1.50816 0
M  V30 1813 C 195.431 -5.4578 -1.75817 0
M  V30 1814 N 194.927 -6.63744 -1.98534 0
M  V30 1815 N 196.72 -5.33274 -1.77694 0
M  V30 1816 H 188.871 -2.09361 0.358 0
M  V30 1817 H 191.134 -0.942941 0.0978094 0
M  V30 1818 H 190.84 -3.50943 -0.230696 0
M  V30 1819 H 190.714 -3.22428 -1.95754 0
M  V30 1820 H 193.101 -2.23284 -1.92947 0
M  V30 1821 H 193.182 -2.55088 -0.190756 0
M  V30 1822 H 192.826 -5.03703 -0.65157 0
M  V30 1823 H 192.756 -4.68868 -2.39729 0
M  V30 1824 H 195.247 -3.52919 -1.35118 0
M  V30 1825 H 195.56 -7.41704 -2.17013 0
M  V30 1826 H 193.905 -6.66839 -1.95832 0
M  V30 1827 H 197.096 -4.40098 -1.59473 0
M  V30 1828 H 197.269 -6.1738 -1.9684 0
M  V30 1829 N 190.675 0.682077 -1.42076 0
M  V30 1830 C 191.922 1.44215 -1.42156 0
M  V30 1831 C 192.25 1.94468 -0.0354186 0
M  V30 1832 O 191.505 1.70816 0.955002 0
M  V30 1833 C 191.804 2.66036 -2.38662 0
M  V30 1834 C 191.47 2.34366 -3.85206 0
M  V30 1835 C 190.132 2.25439 -4.25124 0
M  V30 1836 C 192.484 2.08513 -4.77673 0
M  V30 1837 C 189.812 1.88775 -5.55501 0
M  V30 1838 C 192.164 1.73354 -6.08384 0
M  V30 1839 C 190.828 1.62933 -6.47309 0
M  V30 1840 H 190.098 0.527718 -0.520187 0
M  V30 1841 H 192.745 0.778387 -1.74967 0
M  V30 1842 H 191.05 3.3741 -1.99152 0
M  V30 1843 H 192.747 3.24205 -2.35991 0
M  V30 1844 H 189.337 2.42213 -3.53597 0
M  V30 1845 H 193.521 2.14346 -4.47626 0
M  V30 1846 H 188.777 1.7927 -5.84527 0
M  V30 1847 H 192.951 1.52373 -6.79526 0
M  V30 1848 H 190.578 1.34292 -7.48244 0
M  V30 1849 N 192.153 1.28127 0.917671 0
M  V30 1850 C 193.116 1.11744 2.00115 0
M  V30 1851 C 194.116 0.0583052 1.60694 0
M  V30 1852 O 195.306 0.303755 1.71531 0
M  V30 1853 C 192.438 0.704862 3.33533 0
M  V30 1854 H 193.631 2.07966 2.16079 0
M  V30 1855 H 191.184 1.11058 1.09981 0
M  V30 1856 H 191.919 -0.258299 3.2327 0
M  V30 1857 H 191.704 1.4699 3.63505 0
M  V30 1858 H 193.194 0.612768 4.1308 0
M  V30 1859 N 193.631 -1.12557 1.10312 0
M  V30 1860 C 194.878 -1.84038 0.844759 0
M  V30 1861 C 195.206 -1.84026 -0.629668 0
M  V30 1862 O 194.461 -1.28026 -1.48013 0
M  V30 1863 C 194.76 -3.31462 1.33669 0
M  V30 1864 C 194.426 -3.51647 2.82232 0
M  V30 1865 C 193.088 -3.56864 3.22802 0
M  V30 1866 C 195.44 -3.58867 3.77974 0
M  V30 1867 C 192.768 -3.66844 4.57867 0
M  V30 1868 C 195.12 -3.70375 5.1284 0
M  V30 1869 C 193.784 -3.73848 5.52986 0
M  V30 1870 H 193.054 -0.673444 0.309119 0
M  V30 1871 H 195.701 -1.32824 1.37949 0
M  V30 1872 H 194.006 -3.85091 0.721949 0
M  V30 1873 H 195.703 -3.85236 1.11329 0
M  V30 1874 H 192.293 -3.48249 2.49842 0
M  V30 1875 H 196.477 -3.54107 3.47738 0
M  V30 1876 H 191.733 -3.67804 4.88396 0
M  V30 1877 H 195.907 -3.74904 5.86873 0
M  V30 1878 H 193.534 -3.81333 6.57639 0
M  V30 1879 N 195.109 -0.891671 -1.2995 0
M  V30 1880 C 196.357 -0.512486 -1.95494 0
M  V30 1881 C 196.678 0.942776 -1.70695 0
M  V30 1882 O 195.948 1.66374 -1.03424 0
M  V30 1883 H 194.528 -0.186533 -0.723336 0
M  V30 1884 H 197.19 -1.13621 -1.58355 0
M  V30 1885 H 196.286 -0.688342 -3.04415 0
M  V30 1886 N 196.587 1.43421 -0.653314 0
M  V30 1887 C 197.517 2.33487 0.0246656 0
M  V30 1888 C 198.498 1.49475 0.811863 0
M  V30 1889 O 199.683 1.78139 0.773322 0
M  V30 1890 C 196.813 3.32841 0.99166 0
M  V30 1891 C 195.767 4.26842 0.314568 0
M  V30 1892 C 195.093 5.16236 1.39302 0
M  V30 1893 C 196.393 5.16243 -0.793095 0
M  V30 1894 H 198.087 2.90427 -0.727481 0
M  V30 1895 H 195.633 1.39649 -0.351287 0
M  V30 1896 H 197.586 3.94747 1.47487 0
M  V30 1897 H 196.31 2.74158 1.77497 0
M  V30 1898 H 194.969 3.663 -0.148199 0
M  V30 1899 H 194.617 4.53891 2.16776 0
M  V30 1900 H 194.317 5.79948 0.945223 0
M  V30 1901 H 195.841 5.81015 1.87759 0
M  V30 1902 H 197.255 5.71958 -0.392039 0
M  V30 1903 H 195.652 5.88676 -1.16536 0
M  V30 1904 H 196.722 4.55927 -1.65103 0
M  V30 1905 N 198.065 0.39524 1.52563 0
M  V30 1906 C 199.29 -0.187456 2.06551 0
M  V30 1907 C 199.715 -1.39249 1.26457 0
M  V30 1908 O 199.073 -1.78947 0.291151 0
M  V30 1909 C 199.121 -0.529985 3.56684 0
M  V30 1910 O 198.225 -1.62307 3.79118 0
M  V30 1911 H 197.566 -0.0202537 0.663691 0
M  V30 1912 H 200.096 0.564426 1.96661 0
M  V30 1913 H 200.106 -0.792598 4.00227 0
M  V30 1914 H 198.781 0.350987 4.14416 0
M  V30 1915 H 197.358 -1.3537 3.47461 0
M  V30 1916 N 199.544 -1.57102 0.125237 0
M  V30 1917 C 200.476 -2.12726 -0.853237 0
M  V30 1918 C 201.489 -1.07145 -1.22571 0
M  V30 1919 O 202.678 -1.34497 -1.17358 0
M  V30 1920 C 199.778 -2.61709 -2.15317 0
M  V30 1921 C 198.951 -3.91456 -1.95143 0
M  V30 1922 C 198.01 -4.25973 -3.08923 0
M  V30 1923 O 197.036 -4.94682 -2.81564 0
M  V30 1924 N 198.238 -3.83795 -4.35524 0
M  V30 1925 H 201.003 -2.97307 -0.377964 0
M  V30 1926 H 198.564 -1.61792 -0.0590011 0
M  V30 1927 H 200.556 -2.81826 -2.90441 0
M  V30 1928 H 199.126 -1.81974 -2.54174 0
M  V30 1929 H 198.346 -3.80185 -1.04177 0
M  V30 1930 H 199.634 -4.76283 -1.78976 0
M  V30 1931 H 199.032 -3.2839 -4.60626 0
M  V30 1932 H 197.589 -4.09008 -5.07499 0
M  V30 1933 N 201.022 0.148545 -1.56898 0
M  V30 1934 C 202.268 0.862694 -1.83536 0
M  V30 1935 C 202.601 1.80889 -0.706604 0
M  V30 1936 O 201.876 1.92328 0.289885 0
M  V30 1937 C 202.159 1.63853 -3.20662 0
M  V30 1938 C 202.012 0.713925 -4.44098 0
M  V30 1939 C 203.331 2.60133 -3.54991 0
M  V30 1940 H 200.45 0.312179 -0.667618 0
M  V30 1941 H 203.092 0.127953 -1.89569 0
M  V30 1942 H 201.242 2.26489 -3.1565 0
M  V30 1943 H 202.914 0.098686 -4.61194 0
M  V30 1944 H 201.157 0.0234019 -4.33794 0
M  V30 1945 H 201.828 1.29278 -5.36648 0
M  V30 1946 H 204.304 2.07616 -3.60603 0
M  V30 1947 H 203.18 3.11468 -4.51972 0
M  V30 1948 H 203.441 3.41417 -2.80868 0
M  V30 1949 N 202.5 1.5196 0.417844 0
M  V30 1950 C 203.746 1.65836 1.16732 0
M  V30 1951 C 204.079 0.382881 1.90388 0
M  V30 1952 O 203.354 -0.618368 1.84408 0
M  V30 1953 C 203.637 2.87466 2.16876 0
M  V30 1954 C 203.49 4.25041 1.47174 0
M  V30 1955 C 204.809 3.04613 3.17646 0
M  V30 1956 H 201.928 0.603515 0.423011 0
M  V30 1957 H 204.57 1.84494 0.454105 0
M  V30 1958 H 202.72 2.71689 2.777 0
M  V30 1959 H 204.392 4.52527 0.895376 0
M  V30 1960 H 202.635 4.26843 0.773806 0
M  V30 1961 H 203.306 5.06176 2.20204 0
M  V30 1962 H 205.782 3.1923 2.66892 0
M  V30 1963 H 204.658 3.91247 3.8499 0
M  V30 1964 H 204.919 2.17541 3.84874 0
M  V30 1965 N 203.978 -0.674533 1.42435 0
M  V30 1966 C 205.389 -1.25514 1.38214 0
M  V30 1967 C 205.74 -1.96055 0.0755464 0
M  V30 1968 O 204.865 -2.00028 -0.8257 0
M  V30 1969 C 205.46 -2.28269 2.50357 0
M  V30 1970 C 204.019 -2.81856 2.49467 0
M  V30 1971 C 203.166 -1.56182 2.29134 0
M  V30 1972 H 206.117 -0.467902 1.51646 0
M  V30 1973 H 206.138 -3.10009 2.20624 0
M  V30 1974 H 205.65 -1.769 3.45439 0
M  V30 1975 H 203.751 -3.37346 1.58204 0
M  V30 1976 H 203.864 -3.30854 3.46515 0
M  V30 1977 H 202.228 -1.82761 1.774 0
M  V30 1978 H 203.011 -1.06778 3.26272 0
M  V30 1979 N 205.456 -1.28612 -0.910864 0
M  V30 1980 C 206.389 -1.07109 -2.01502 0
M  V30 1981 C 207.367 0.013706 -1.62594 0
M  V30 1982 O 208.551 -0.134796 -1.88017 0
M  V30 1983 C 205.678 -0.628255 -3.32822 0
M  V30 1984 C 204.724 -1.71012 -3.90714 0
M  V30 1985 S 205.557 -3.30676 -4.21205 0
M  V30 1986 C 206.713 -2.88234 -5.55583 0
M  V30 1987 H 206.946 -2.00591 -2.19432 0
M  V30 1988 H 204.479 -1.12633 -1.05609 0
M  V30 1989 H 206.437 -0.37946 -4.08742 0
M  V30 1990 H 205.098 0.28678 -3.12788 0
M  V30 1991 H 204.291 -1.35195 -4.85529 0
M  V30 1992 H 203.893 -1.91186 -3.21441 0
M  V30 1993 H 206.185 -2.34584 -6.35591 0
M  V30 1994 H 207.128 -3.81857 -5.96314 0
M  V30 1995 H 207.536 -2.26862 -5.16908 0
M  V30 1996 N 206.934 1.1197 -1.10907 0
M  V30 1997 C 208.182 1.83225 -0.852819 0
M  V30 1998 C 208.503 1.84769 0.623341 0
M  V30 1999 O 207.773 1.3143 1.45269 0
M  V30 2000 H 206.353 0.67849 -0.312507 0
M  V30 2001 H 209.015 1.3556 -1.40033 0
M  V30 2002 H 208.111 2.87265 -1.22005 0
M  V30 2003 N 208.412 0.89855 1.29475 0
M  V30 2004 C 209.345 0.319981 2.25945 0
M  V30 2005 C 210.323 -0.567189 1.52387 0
M  V30 2006 O 211.507 -0.514254 1.8135 0
M  V30 2007 C 208.634 -0.544013 3.34303 0
M  V30 2008 C 207.68 0.275682 4.25608 0
M  V30 2009 S 208.513 1.67272 5.08704 0
M  V30 2010 C 209.669 0.815621 6.20563 0
M  V30 2011 H 209.902 1.13767 2.74671 0
M  V30 2012 H 207.435 0.69882 1.3768 0
M  V30 2013 H 209.393 -1.03673 3.97193 0
M  V30 2014 H 208.054 -1.33593 2.84274 0
M  V30 2015 H 207.247 -0.384263 5.02533 0
M  V30 2016 H 206.849 0.701496 3.67362 0
M  V30 2017 H 209.141 0.0385042 6.77489 0
M  V30 2018 H 210.084 1.55691 6.90772 0
M  V30 2019 H 210.492 0.370516 5.63283 0
M  V30 2020 N 209.89 -1.43072 0.660911 0
M  V30 2021 C 211.306 -1.56169 0.329173 0
M  V30 2022 C 211.506 -1.64317 -1.16629 0
M  V30 2023 O 210.562 -1.60245 -1.95135 0
M  V30 2024 C 211.875 -2.81873 1.04729 0
M  V30 2025 C 213.423 -2.95627 1.02828 0
M  V30 2026 C 213.898 -4.24174 1.72744 0
M  V30 2027 N 215.389 -4.31055 1.69545 0
M  V30 2028 C 216.124 -5.29304 2.20511 0
M  V30 2029 N 215.62 -6.33786 2.79799 0
M  V30 2030 N 217.413 -5.21008 2.10966 0
M  V30 2031 H 209.564 -1.36027 1.63127 0
M  V30 2032 H 211.827 -0.653823 0.686454 0
M  V30 2033 H 211.533 -2.81942 2.10242 0
M  V30 2034 H 211.407 -3.72338 0.603702 0
M  V30 2035 H 213.794 -2.95094 -0.0184742 0
M  V30 2036 H 213.875 -2.06431 1.51063 0
M  V30 2037 H 213.519 -4.25467 2.7738 0
M  V30 2038 H 213.449 -5.1228 1.2197 0
M  V30 2039 H 215.94 -3.56174 1.26288 0
M  V30 2040 H 216.253 -7.05086 3.16344 0
M  V30 2041 H 214.598 -6.34387 2.83863 0
M  V30 2042 H 217.789 -4.38301 1.64347 0
M  V30 2043 H 217.962 -5.97416 2.50993 0
M  V30 2044 N 211.368 -0.403325 -1.52352 0
M  V30 2045 C 212.593 0.176499 -2.06648 0
M  V30 2046 C 213.018 1.38577 -1.27193 0
M  V30 2047 O 212.376 1.7879 -0.300637 0
M  V30 2048 C 212.424 0.511061 -3.5696 0
M  V30 2049 O 211.528 1.60294 -3.79973 0
M  V30 2050 H 210.869 0.0167337 -0.663789 0
M  V30 2051 H 213.399 -0.574848 -1.96359 0
M  V30 2052 H 213.409 0.771362 -4.00642 0
M  V30 2053 H 212.084 -0.37296 -4.14224 0
M  V30 2054 H 210.661 1.33526 -3.48174 0
M  V30 2055 N 212.846 1.57033 -0.133567 0
M  V30 2056 C 214.074 2.00044 0.528195 0
M  V30 2057 C 214.489 1.01349 1.59291 0
M  V30 2058 O 213.846 0.00848369 1.82498 0
M  V30 2059 C 213.897 3.43018 1.1411 0
M  V30 2060 O 213.618 4.37939 0.11892 0
M  V30 2061 C 215.119 4.01237 1.88477 0
M  V30 2062 H 212.339 0.656517 0.138661 0
M  V30 2063 H 214.883 2.03267 -0.224196 0
M  V30 2064 H 213.038 3.40688 1.84418 0
M  V30 2065 H 213.452 5.21436 0.56613 0
M  V30 2066 H 214.926 5.03314 2.26669 0
M  V30 2067 H 215.403 3.41193 2.76558 0
M  V30 2068 H 216.009 4.07156 1.22898 0
M  V30 2069 N 214.325 -0.140222 1.56975 0
M  V30 2070 C 215.571 -0.848084 1.84876 0
M  V30 2071 C 215.926 -1.78481 0.718481 0
M  V30 2072 O 215.219 -1.89497 -0.283093 0
M  V30 2073 C 215.413 -1.65386 3.16832 0
M  V30 2074 C 215.242 -0.79665 4.42587 0
M  V30 2075 C 214.012 -0.459648 5.03205 0
M  V30 2076 C 216.21 -0.12389 5.14151 0
M  V30 2077 N 214.192 0.410446 6.12526 0
M  V30 2078 C 215.563 0.606064 6.17031 0
M  V30 2079 C 217.618 -0.0452654 4.97879 0
M  V30 2080 C 216.321 1.40723 7.054 0
M  V30 2081 C 218.347 0.742658 5.86718 0
M  V30 2082 C 217.709 1.46087 6.89085 0
M  V30 2083 H 213.808 -0.287946 0.727056 0
M  V30 2084 H 216.392 -0.11304 1.94372 0
M  V30 2085 H 214.563 -2.36009 3.08471 0
M  V30 2086 H 216.295 -2.30541 3.32615 0
M  V30 2087 H 213.05 -0.797006 4.66846 0
M  V30 2088 H 213.474 0.836716 6.7181 0
M  V30 2089 H 218.116 -0.586184 4.18717 0
M  V30 2090 H 215.834 1.95938 7.83986 0
M  V30 2091 H 219.42 0.805574 5.76196 0
M  V30 2092 H 218.3 2.06077 7.56639 0
M  V30 2093 N 215.803 -1.52179 -0.40978 0
M  V30 2094 C 217.08 -1.56769 -1.16974 0
M  V30 2095 C 217.46 -0.348322 -2.08206 0
M  V30 2096 O 216.808 0.664862 -2.18613 0
M  V30 2097 C 217.018 -2.89603 -1.9476 0
M  V30 2098 C 218.366 -3.42579 -2.50849 0
M  V30 2099 O 219.39 -2.91338 -2.04941 0
M  V30 2100 O 218.249 -4.32054 -3.34652 0
M  V30 2101 H 215.343 -0.631439 -0.534054 0
M  V30 2102 H 217.889 -1.64507 -0.416613 0
M  V30 2103 H 216.661 -3.698 -1.27921 0
M  V30 2104 H 216.284 -2.85155 -2.77079 0
M  V30 2105 N 217.281 0.66697 -1.42791 0
M  V30 2106 C 218.692 1.2478 -1.38877 0
M  V30 2107 C 219.043 1.96012 -0.0859426 0
M  V30 2108 O 218.168 2.00463 0.815081 0
M  V30 2109 C 218.763 2.26938 -2.51564 0
M  V30 2110 C 217.322 2.80529 -2.50959 0
M  V30 2111 C 216.469 1.54965 -2.29959 0
M  V30 2112 H 219.42 0.459853 -1.51892 0
M  V30 2113 H 219.441 3.08834 -2.22265 0
M  V30 2114 H 218.953 1.75065 -3.46372 0
M  V30 2115 H 217.054 3.36502 -1.59991 0
M  V30 2116 H 217.167 3.29012 -3.48265 0
M  V30 2117 H 215.531 1.81817 -1.78366 0
M  V30 2118 H 216.314 1.05047 -3.26833 0
M  V30 2119 N 218.759 1.29093 0.90403 0
M  V30 2120 C 219.707 1.13727 2.02901 0
M  V30 2121 C 220.701 0.0539853 1.69314 0
M  V30 2122 O 221.907 0.213469 1.7873 0
M  V30 2123 H 218.282 0.35117 0.664969 0
M  V30 2124 H 220.253 2.08982 2.13001 0
M  V30 2125 C 219.002 0.826066 3.37745 0
M  V30 2126 H 218.325 1.65164 3.64089 0
M  V30 2127 H 219.765 0.758559 4.17159 0
M  V30 2128 C 218.224 -0.470541 3.33598 0
M  V30 2129 O 218.754 -1.49792 3.72727 0
M  V30 2130 N 216.96 -0.474812 2.86695 0
M  V30 2131 H 216.507 0.361692 2.55048 0
M  V30 2132 H 216.465 -1.34236 2.84303 0
M  V30 2133 N 220.237 -1.11381 1.11499 0
M  V30 2134 C 221.483 -1.83597 0.875423 0
M  V30 2135 C 221.838 -1.83048 -0.592555 0
M  V30 2136 O 221.131 -1.27304 -1.43193 0
M  V30 2137 C 221.325 -3.30026 1.37177 0
M  V30 2138 C 221.154 -3.44837 2.88647 0
M  V30 2139 C 219.924 -3.57825 3.56776 0
M  V30 2140 C 222.122 -3.3907 3.86699 0
M  V30 2141 N 220.104 -3.61113 4.96458 0
M  V30 2142 C 221.475 -3.48986 5.12454 0
M  V30 2143 C 223.53 -3.22605 3.7925 0
M  V30 2144 C 222.233 -3.44135 6.31636 0
M  V30 2145 C 224.259 -3.19072 4.97943 0
M  V30 2146 C 223.621 -3.29559 6.22551 0
M  V30 2147 H 219.72 -0.687044 0.37349 0
M  V30 2148 H 222.304 -1.33265 1.41946 0
M  V30 2149 H 220.475 -3.78874 0.854919 0
M  V30 2150 H 222.207 -3.90153 1.07529 0
M  V30 2151 H 218.962 -3.60414 3.07244 0
M  V30 2152 H 219.386 -3.66394 5.69284 0
M  V30 2153 H 224.028 -3.13382 2.83816 0
M  V30 2154 H 221.746 -3.52126 7.27347 0
M  V30 2155 H 225.332 -3.07498 4.93899 0
M  V30 2156 H 224.212 -3.26815 7.12855 0
M  V30 2157 N 221.715 -0.905404 -1.28997 0
M  V30 2158 C 222.662 -0.385892 -2.27551 0
M  V30 2159 C 223.632 0.535113 -1.57244 0
M  V30 2160 O 224.817 0.459119 -1.85194 0
M  V30 2161 C 221.957 0.375461 -3.43051 0
M  V30 2162 C 221.07 -0.577092 -4.28128 0
M  V30 2163 C 220.205 0.201879 -5.30816 0
M  V30 2164 C 219.244 -0.744829 -6.07551 0
M  V30 2165 N 218.381 9.42587e-05 -7.021 0
M  V30 2166 H 223.221 -1.23139 -2.71368 0
M  V30 2167 H 220.758 -0.618542 -1.33463 0
M  V30 2168 H 222.716 0.832992 -4.088 0
M  V30 2169 H 221.346 1.18537 -3.00248 0
M  V30 2170 H 220.398 -1.15315 -3.62501 0
M  V30 2171 H 221.71 -1.30152 -4.8152 0
M  V30 2172 H 220.864 0.720351 -6.02408 0
M  V30 2173 H 219.603 0.959413 -4.7817 0
M  V30 2174 H 218.608 -1.27475 -5.34818 0
M  V30 2175 H 219.833 -1.50178 -6.62286 0
M  V30 2176 H 217.779 0.739791 -6.51815 0
M  V30 2177 H 217.696 -0.664321 -7.53076 0
M  V30 2178 H 218.964 0.498644 -7.77903 0
M  V30 2179 N 223.193 1.4272 -0.668489 0
M  V30 2180 C 224.441 2.01226 -0.187769 0
M  V30 2181 C 224.762 1.53092 1.2078 0
M  V30 2182 O 224.032 0.74993 1.80977 0
M  V30 2183 H 222.612 0.744041 -0.0664272 0
M  V30 2184 H 225.274 1.74723 -0.863583 0
M  V30 2185 H 224.37 3.11556 -0.184166 0
M  V30 2186 N 224.671 0.411399 1.52136 0
M  V30 2187 C 226.087 0.0623865 1.59478 0
M  V30 2188 C 226.287 -1.42554 1.4241 0
M  V30 2189 O 225.343 -2.19263 1.2522 0
M  V30 2190 C 226.656 0.559331 2.95452 0
M  V30 2191 C 228.204 0.517503 3.08692 0
M  V30 2192 C 228.679 0.990994 4.4715 0
M  V30 2193 N 230.17 0.947908 4.53397 0
M  V30 2194 C 230.905 1.28544 5.58806 0
M  V30 2195 N 230.401 1.69454 6.71757 0
M  V30 2196 N 232.194 1.20526 5.49026 0
M  V30 2197 H 224.345 1.37982 1.61477 0
M  V30 2198 H 226.608 0.566977 0.759764 0
M  V30 2199 H 226.314 1.59938 3.1323 0
M  V30 2200 H 226.188 -0.0298014 3.77188 0
M  V30 2201 H 228.575 -0.513505 2.90598 0
M  V30 2202 H 228.656 1.14272 2.28857 0
M  V30 2203 H 228.3 2.02034 4.65988 0
M  V30 2204 H 228.23 0.34257 5.25485 0
M  V30 2205 H 230.721 0.647157 3.72317 0
M  V30 2206 H 231.034 1.93513 7.48179 0
M  V30 2207 H 229.379 1.73359 6.73032 0
M  V30 2208 H 232.57 0.884505 4.59667 0
M  V30 2209 H 232.743 1.47161 6.31069 0
M  V30 2210 N 226.149 -1.5696 0.141893 0
M  V30 2211 C 227.426 -1.87553 -0.555281 0
M  V30 2212 C 227.806 -1.04699 -1.83306 0
M  V30 2213 O 227.154 -0.132346 -2.28116 0
M  V30 2214 C 227.364 -3.39093 -0.825664 0
M  V30 2215 C 228.712 -4.08199 -1.16869 0
M  V30 2216 O 229.736 -3.44242 -0.915185 0
M  V30 2217 O 228.595 -5.21139 -1.6455 0
M  V30 2218 H 225.689 -0.777188 -0.282679 0
M  V30 2219 H 228.235 -1.68763 0.17812 0
M  V30 2220 H 227.007 -3.91221 0.0788633 0
M  V30 2221 H 226.63 -3.63393 -1.61343 0
M  V30 2222 N 227.627 0.131896 -1.57047 0
M  V30 2223 C 228.874 0.841932 -1.84168 0
M  V30 2224 C 229.202 1.8048 -0.725066 0
M  V30 2225 O 228.457 1.93618 0.284692 0
M  V30 2226 C 228.756 1.63703 -3.17704 0
M  V30 2227 C 228.422 0.81961 -4.43388 0
M  V30 2228 C 227.084 0.594148 -4.77518 0
M  V30 2229 C 229.436 0.248977 -5.20605 0
M  V30 2230 C 226.764 -0.212409 -5.86315 0
M  V30 2231 C 229.116 -0.544701 -6.30251 0
M  V30 2232 C 227.78 -0.780599 -6.6292 0
M  V30 2233 H 227.05 0.308085 -0.673917 0
M  V30 2234 H 229.697 0.104867 -1.91213 0
M  V30 2235 H 228.002 2.44464 -3.06177 0
M  V30 2236 H 229.699 2.19015 -3.35907 0
M  V30 2237 H 226.289 1.00542 -4.16641 0
M  V30 2238 H 230.473 0.410408 -4.946 0
M  V30 2239 H 225.729 -0.404524 -6.1006 0
M  V30 2240 H 229.903 -0.993922 -6.89271 0
M  V30 2241 H 227.53 -1.40742 -7.47058 0
M  V30 2242 N 229.106 1.52395 0.401703 0
M  V30 2243 C 230.069 1.75636 1.47257 0
M  V30 2244 C 231.069 0.62628 1.48103 0
M  V30 2245 O 232.259 0.894227 1.49497 0
M  V30 2246 C 229.391 1.84553 2.86624 0
M  V30 2247 H 230.584 2.71241 1.27938 0
M  V30 2248 H 228.137 1.42923 0.632662 0
M  V30 2249 H 228.872 0.908882 3.11303 0
M  V30 2250 H 228.657 2.66715 2.87412 0
M  V30 2251 H 230.147 2.04251 3.64241 0
M  V30 2252 N 230.584 -0.659388 1.43143 0
M  V30 2253 C 231.83 -1.42145 1.44647 0
M  V30 2254 C 232.163 -1.9408 0.0681907 0
M  V30 2255 O 231.438 -1.71899 -0.910007 0
M  V30 2256 C 231.721 -2.60735 2.48373 0
M  V30 2257 C 231.574 -2.14332 3.95451 0
M  V30 2258 C 232.893 -3.62951 2.48906 0
M  V30 2259 H 230.012 -0.51552 0.526696 0
M  V30 2260 H 232.654 -0.748069 1.74654 0
M  V30 2261 H 230.804 -3.18184 2.22916 0
M  V30 2262 H 232.476 -1.61932 4.31944 0
M  V30 2263 H 230.719 -1.4576 4.08578 0
M  V30 2264 H 231.39 -2.99583 4.63631 0
M  V30 2265 H 233.866 -3.1525 2.71582 0
M  V30 2266 H 232.742 -4.43487 3.23435 0
M  V30 2267 H 233.003 -4.15126 1.52061 0
M  V30 2268 N 232.062 -1.29571 -0.897171 0
M  V30 2269 C 233.339 -1.08365 -1.62839 0
M  V30 2270 C 233.719 0.371331 -2.07808 0
M  V30 2271 O 233.067 1.3606 -1.83576 0
M  V30 2272 C 233.277 -2.0735 -2.80726 0
M  V30 2273 C 234.625 -2.38406 -3.51351 0
M  V30 2274 O 235.649 -2.05564 -2.90898 0
M  V30 2275 O 234.508 -2.9453 -4.60341 0
M  V30 2276 H 231.602 -0.415345 -0.715134 0
M  V30 2277 H 234.148 -1.40952 -0.945018 0
M  V30 2278 H 232.92 -3.05339 -2.44711 0
M  V30 2279 H 232.543 -1.75507 -3.56767 0
M  V30 2280 N 233.54 1.10788 -1.12088 0
M  V30 2281 C 234.768 1.86461 -0.896651 0
M  V30 2282 C 235.183 1.80492 0.553912 0
M  V30 2283 O 234.54 1.19102 1.38278 0
M  V30 2284 C 234.591 3.35006 -1.35843 0
M  V30 2285 O 234.312 3.40866 -2.75213 0
M  V30 2286 C 235.813 4.27565 -1.1706 0
M  V30 2287 H 233.033 0.589425 -0.320654 0
M  V30 2288 H 235.577 1.40076 -1.48993 0
M  V30 2289 H 233.732 3.7887 -0.808458 0
M  V30 2290 H 234.146 4.33411 -2.9539 0
M  V30 2291 H 235.62 5.30007 -1.54263 0
M  V30 2292 H 236.097 4.3906 -0.110814 0
M  V30 2293 H 236.703 3.89501 -1.70789 0
M  V30 2294 N 235.018 0.912232 1.28515 0
M  V30 2295 C 235.965 0.397954 2.27343 0
M  V30 2296 C 236.935 -0.526766 1.57526 0
M  V30 2297 O 238.12 -0.449292 1.85435 0
M  V30 2298 C 235.26 -0.357263 3.43246 0
M  V30 2299 C 234.373 0.599788 4.27816 0
M  V30 2300 C 233.508 -0.173725 5.30916 0
M  V30 2301 C 232.547 0.777039 6.07148 0
M  V30 2302 N 231.684 0.0371398 7.0209 0
M  V30 2303 H 236.524 1.24577 2.70711 0
M  V30 2304 H 234.061 0.625612 1.33133 0
M  V30 2305 H 236.019 -0.8113 4.09236 0
M  V30 2306 H 234.649 -1.16943 3.00872 0
M  V30 2307 H 233.701 1.17235 3.61884 0
M  V30 2308 H 235.013 1.32704 4.80823 0
M  V30 2309 H 234.167 -0.688394 6.02782 0
M  V30 2310 H 232.906 -0.934041 4.78672 0
M  V30 2311 H 231.911 1.3031 5.34134 0
M  V30 2312 H 233.136 1.53689 6.61481 0
M  V30 2313 H 231.082 -0.705213 6.52198 0
M  V30 2314 H 230.999 0.704249 7.52713 0
M  V30 2315 H 232.267 -0.457383 7.78157 0
M  V30 2316 N 236.496 -1.42363 0.676048 0
M  V30 2317 C 237.745 -2.00745 0.196037 0
M  V30 2318 C 238.058 -1.54083 -1.20489 0
M  V30 2319 O 239.264 -2.04891 -1.78134 0
M  V30 2320 C 237.72 -3.58651 0.299616 0
M  V30 2321 C 237.328 -4.143 1.70468 0
M  V30 2322 C 239.072 -4.24326 -0.121619 0
M  V30 2323 C 236.979 -5.64574 1.76096 0
M  V30 2324 H 235.909 -0.750787 0.0695301 0
M  V30 2325 H 238.56 -1.63072 0.841412 0
M  V30 2326 H 236.942 -3.93833 -0.413673 0
M  V30 2327 H 238.116 -3.90575 2.44515 0
M  V30 2328 H 236.431 -3.61081 2.07387 0
M  V30 2329 H 239.028 -5.34607 -0.0997362 0
M  V30 2330 H 239.371 -3.99897 -1.15708 0
M  V30 2331 H 239.904 -3.94108 0.540706 0
M  V30 2332 H 236.643 -5.93804 2.77628 0
M  V30 2333 H 236.163 -5.90286 1.06406 0
M  V30 2334 H 237.842 -6.29013 1.51496 0
M  V30 2335 N 237.974 -0.419461 -1.51915 0
M  V30 2336 C 238.884 0.407528 -2.31033 0
M  V30 2337 C 239.9 1.04413 -1.3919 0
M  V30 2338 O 241.076 1.0434 -1.72265 0
M  V30 2339 C 238.141 1.50365 -3.12396 0
M  V30 2340 C 237.202 0.889029 -4.19994 0
M  V30 2341 C 236.435 1.93291 -4.97468 0
M  V30 2342 O 236.658 3.15259 -4.75361 0
M  V30 2343 O 235.592 1.53339 -5.8204 0
M  V30 2344 H 239.418 -0.237865 -3.02767 0
M  V30 2345 H 237.003 -0.182413 -1.48282 0
M  V30 2346 H 238.885 2.13975 -3.63032 0
M  V30 2347 H 237.56 2.13345 -2.43445 0
M  V30 2348 H 236.467 0.215353 -3.7348 0
M  V30 2349 H 237.8 0.302991 -4.91267 0
M  V30 2350 N 239.452 1.56882 -0.150215 0
M  V30 2351 C 240.68 2.00593 0.506948 0
M  V30 2352 C 241.095 1.03033 1.58208 0
M  V30 2353 O 240.452 0.0278396 1.82479 0
M  V30 2354 C 240.503 3.44209 1.10465 0
M  V30 2355 O 240.224 4.3804 0.0724636 0
M  V30 2356 C 241.725 4.03214 1.84211 0
M  V30 2357 H 238.945 0.65795 0.13169 0
M  V30 2358 H 241.489 2.03018 -0.245743 0
M  V30 2359 H 239.644 3.42625 1.80795 0
M  V30 2360 H 240.058 5.22007 0.510793 0
M  V30 2361 H 241.532 5.0569 2.21318 0
M  V30 2362 H 242.009 3.44107 2.72923 0
M  V30 2363 H 242.615 4.08437 1.18572 0
M  V30 2364 N 240.93 -0.123565 1.57115 0
M  V30 2365 C 242.179 -0.830704 1.83799 0
M  V30 2366 C 242.492 -1.81259 0.735158 0
M  V30 2367 O 243.698 -2.56558 0.888278 0
M  V30 2368 C 242.154 -1.52802 3.25852 0
M  V30 2369 C 241.762 -0.587356 4.44133 0
M  V30 2370 C 243.506 -2.22056 3.61789 0
M  V30 2371 C 241.413 -1.28764 5.77212 0
M  V30 2372 H 240.343 -0.313967 0.685522 0
M  V30 2373 H 242.994 -0.0834359 1.8331 0
M  V30 2374 H 241.376 -2.32175 3.20797 0
M  V30 2375 H 242.55 0.172829 4.60476 0
M  V30 2376 H 240.865 -0.00201892 4.164 0
M  V30 2377 H 243.462 -2.75131 4.58483 0
M  V30 2378 H 243.805 -2.99644 2.88997 0
M  V30 2379 H 244.338 -1.49576 3.68608 0
M  V30 2380 H 241.077 -0.55314 6.53162 0
M  V30 2381 H 240.597 -2.01995 5.64764 0
M  V30 2382 H 242.276 -1.8221 6.20813 0
M  V30 2383 N 242.408 -1.52605 -0.393616 0
M  V30 2384 C 243.656 -1.67093 -1.13685 0
M  V30 2385 C 243.977 -0.411011 -1.90619 0
M  V30 2386 O 243.247 0.574491 -1.87287 0
M  V30 2387 H 241.827 -0.615923 -0.422668 0
M  V30 2388 H 244.489 -1.89704 -0.447039 0
M  V30 2389 H 243.585 -2.51922 -1.84232 0
M  V30 2390 N 243.887 0.651787 -1.4349 0
M  V30 2391 C 244.817 1.77621 -1.51569 0
M  V30 2392 C 245.798 1.66022 -0.370253 0
M  V30 2393 O 246.983 1.85095 -0.587658 0
M  V30 2394 C 244.113 3.16056 -1.43966 0
M  V30 2395 C 243.067 3.4242 -2.56774 0
M  V30 2396 C 242.393 4.8067 -2.34223 0
M  V30 2397 C 243.693 3.37023 -3.99015 0
M  V30 2398 H 245.387 1.71117 -2.45681 0
M  V30 2399 H 242.933 0.821825 -1.18246 0
M  V30 2400 H 244.886 3.94472 -1.48221 0
M  V30 2401 H 243.61 3.23293 -0.463586 0
M  V30 2402 H 242.269 2.66375 -2.51873 0
M  V30 2403 H 241.917 4.84585 -1.34856 0
M  V30 2404 H 241.617 4.9927 -3.09844 0
M  V30 2405 H 243.141 5.61342 -2.40265 0
M  V30 2406 H 244.555 4.05374 -4.05395 0
M  V30 2407 H 242.952 3.67159 -4.74673 0
M  V30 2408 H 244.022 2.3518 -4.2405 0
M  V30 2409 N 245.365 1.30045 0.890287 0
M  V30 2410 C 246.593 1.21472 1.67487 0
M  V30 2411 C 247.008 -0.223241 1.87476 0
M  V30 2412 O 246.365 -1.14828 1.41847 0
M  V30 2413 C 246.416 1.93394 3.05419 0
M  V30 2414 O 246.137 3.31576 2.86337 0
M  V30 2415 C 247.638 1.91414 3.99844 0
M  V30 2416 H 244.858 0.420604 0.522813 0
M  V30 2417 H 247.402 1.7158 1.11268 0
M  V30 2418 H 245.557 1.47099 3.58386 0
M  V30 2419 H 245.971 3.67929 3.73802 0
M  V30 2420 H 247.445 2.46285 4.94012 0
M  V30 2421 H 247.922 0.891833 4.3005 0
M  V30 2422 H 248.528 2.37496 3.52811 0
M  V30 2423 N 246.843 -1.10192 1.12674 0
M  V30 2424 C 248.091 -1.81845 0.881861 0
M  V30 2425 C 248.412 -1.85737 -0.593867 0
M  V30 2426 O 247.682 -1.33724 -1.4316 0
M  V30 2427 H 246.262 -0.673432 0.323261 0
M  V30 2428 H 248.924 -1.33316 1.42172 0
M  V30 2429 H 248.02 -2.85288 1.2656 0
M  V30 2430 N 248.321 -0.919034 -1.28029 0
M  V30 2431 C 249.546 -0.570357 -1.99403 0
M  V30 2432 C 249.971 0.842486 -1.68178 0
M  V30 2433 O 249.329 1.56391 -0.917141 0
M  V30 2434 C 249.377 -0.792541 -3.51783 0
M  V30 2435 O 248.481 0.145988 -4.12142 0
M  V30 2436 H 247.822 -0.220555 -0.6263 0
M  V30 2437 H 250.352 -1.23592 -1.63053 0
M  V30 2438 H 250.362 -0.704708 -4.01868 0
M  V30 2439 H 249.037 -1.82247 -3.73844 0
M  V30 2440 H 247.614 0.00897528 -3.72899 0
M  V30 2441 N 249.799 1.42003 -0.683588 0
M  V30 2442 C 250.729 2.33487 -0.024866 0
M  V30 2443 C 251.71 1.51163 0.779975 0
M  V30 2444 O 252.895 1.79739 0.735362 0
M  V30 2445 C 250.025 3.3487 0.920836 0
M  V30 2446 C 248.979 4.27414 0.223958 0
M  V30 2447 C 248.305 5.19074 1.2832 0
M  V30 2448 C 249.605 5.14445 -0.90242 0
M  V30 2449 H 251.299 2.88819 -0.788921 0
M  V30 2450 H 248.845 1.38873 -0.38083 0
M  V30 2451 H 250.798 3.97787 1.39081 0
M  V30 2452 H 249.522 2.77861 1.71642 0
M  V30 2453 H 248.181 3.65904 -0.225864 0
M  V30 2454 H 247.829 4.58387 2.071 0
M  V30 2455 H 247.529 5.81822 0.821995 0
M  V30 2456 H 249.053 5.84867 1.75392 0
M  V30 2457 H 250.467 5.70998 -0.513272 0
M  V30 2458 H 248.864 5.86072 -1.28997 0
M  V30 2459 H 249.934 4.52322 -1.74737 0
M  V30 2460 N 251.277 0.427512 1.51691 0
M  V30 2461 C 252.502 -0.143601 2.06902 0
M  V30 2462 C 252.927 -1.36536 1.29382 0
M  V30 2463 O 252.285 -1.78289 0.329043 0
M  V30 2464 C 252.333 -0.454207 3.57728 0
M  V30 2465 O 251.437 -1.54228 3.82475 0
M  V30 2466 H 250.778 -0.00617128 0.663971 0
M  V30 2467 H 253.308 0.606014 1.95419 0
M  V30 2468 H 253.318 -0.707525 4.01818 0
M  V30 2469 H 251.993 0.438812 4.13579 0
M  V30 2470 H 250.57 -1.2797 3.50254 0
M  V30 2471 N 252.755 -1.56801 0.158532 0
M  V30 2472 C 254.002 -1.9649 -0.489679 0
M  V30 2473 C 254.33 -1.04394 -1.6411 0
M  V30 2474 O 253.585 -0.0754401 -1.95555 0
M  V30 2475 C 253.884 -3.4235 -1.02623 0
M  V30 2476 C 253.55 -4.50899 0.00794526 0
M  V30 2477 C 252.212 -4.80312 0.292207 0
M  V30 2478 C 254.564 -5.16333 0.710584 0
M  V30 2479 C 251.892 -5.72461 1.28472 0
M  V30 2480 C 254.244 -6.09553 1.69199 0
M  V30 2481 C 252.908 -6.37339 1.98383 0
M  V30 2482 H 252.178 -0.719009 -0.179186 0
M  V30 2483 H 254.825 -1.8989 0.247798 0
M  V30 2484 H 253.13 -3.45838 -1.84128 0
M  V30 2485 H 254.827 -3.70393 -1.53656 0
M  V30 2486 H 251.417 -4.28015 -0.22379 0
M  V30 2487 H 255.601 -4.93732 0.504174 0
M  V30 2488 H 250.857 -5.92278 1.51714 0
M  V30 2489 H 255.031 -6.59327 2.24189 0
M  V30 2490 H 252.658 -7.08546 2.7544 0
M  V30 2491 N 254.233 0.115231 -1.57178 0
M  V30 2492 C 255.18 1.14115 -2.00615 0
M  V30 2493 C 256.15 1.40939 -0.878941 0
M  V30 2494 O 257.335 1.52741 -1.14345 0
M  V30 2495 C 254.475 2.46156 -2.4187 0
M  V30 2496 C 253.588 2.26236 -3.68024 0
M  V30 2497 C 252.723 3.51534 -3.98243 0
M  V30 2498 C 251.762 3.26787 -5.17568 0
M  V30 2499 N 250.899 4.44298 -5.43639 0
M  V30 2500 H 255.739 0.763743 -2.88047 0
M  V30 2501 H 253.276 0.365615 -1.42484 0
M  V30 2502 H 255.234 3.23189 -2.63827 0
M  V30 2503 H 253.864 2.81783 -1.57475 0
M  V30 2504 H 252.916 1.40102 -3.5366 0
M  V30 2505 H 254.228 2.03929 -4.55208 0
M  V30 2506 H 253.382 4.36984 -4.20868 0
M  V30 2507 H 252.121 3.76876 -3.09541 0
M  V30 2508 H 251.126 2.39729 -4.94783 0
M  V30 2509 H 252.351 3.02812 -6.0785 0
M  V30 2510 H 250.297 4.69754 -4.57895 0
M  V30 2511 H 250.214 4.25109 -6.25154 0
M  V30 2512 H 251.482 5.3087 -5.70786 0
M  V30 2513 N 255.711 1.52812 0.385517 0
M  V30 2514 C 256.957 1.68275 1.13188 0
M  V30 2515 C 257.29 0.423179 1.89533 0
M  V30 2516 O 256.565 -0.579113 1.85679 0
M  V30 2517 C 256.848 2.92001 2.1073 0
M  V30 2518 C 256.701 4.28067 1.38125 0
M  V30 2519 C 258.02 3.11283 3.11113 0
M  V30 2520 H 255.139 0.612352 0.410115 0
M  V30 2521 H 257.781 1.85415 0.414869 0
M  V30 2522 H 255.931 2.77519 2.71874 0
M  V30 2523 H 257.603 4.54324 0.799187 0
M  V30 2524 H 255.846 4.28388 0.683092 0
M  V30 2525 H 256.517 5.10733 2.09417 0
M  V30 2526 H 258.993 3.2482 2.6006 0
M  V30 2527 H 257.869 3.99325 3.76605 0
M  V30 2528 H 258.13 2.25656 3.80173 0
M  V30 2529 N 257.189 -0.644168 1.43834 0
M  V30 2530 C 258.137 -1.77793 1.49974 0
M  V30 2531 C 259.131 -1.65253 0.372536 0
M  V30 2532 O 260.337 -1.7149 0.546924 0
M  V30 2533 H 256.712 -0.58675 0.47035 0
M  V30 2534 H 258.683 -1.69736 2.45423 0
M  V30 2535 C 257.432 -3.16087 1.4486 0
M  V30 2536 H 256.755 -3.26378 2.30905 0
M  V30 2537 H 258.195 -3.95349 1.53217 0
M  V30 2538 C 256.654 -3.36484 0.167463 0
M  V30 2539 O 257.184 -3.94298 -0.767609 0
M  V30 2540 N 255.39 -2.90504 0.0747556 0
M  V30 2541 H 254.937 -2.4364 0.836507 0
M  V30 2542 H 254.895 -3.04527 -0.781714 0
M  V30 2543 N 258.668 -1.30515 -0.883378 0
M  V30 2544 C 259.945 -1.10086 -1.6168 0
M  V30 2545 C 260.325 0.349269 -2.08191 0
M  V30 2546 O 259.673 1.34105 -1.85008 0
M  V30 2547 C 259.883 -2.10315 -2.78511 0
M  V30 2548 C 261.231 -2.42119 -3.48803 0
M  V30 2549 O 262.255 -2.08638 -2.88702 0
M  V30 2550 O 261.114 -2.99396 -4.57192 0
M  V30 2551 H 258.208 -0.422907 -0.710689 0
M  V30 2552 H 260.754 -1.41947 -0.930015 0
M  V30 2553 H 259.526 -3.07917 -2.41459 0
M  V30 2554 H 259.149 -1.79282 -3.54886 0
M  V30 2555 N 260.146 1.09593 -1.13257 0
M  V30 2556 C 261.094 2.18271 -0.803783 0
M  V30 2557 C 262.088 1.68054 0.213148 0
M  V30 2558 O 263.294 1.79862 0.0704699 0
M  V30 2559 H 259.669 0.711949 -0.242143 0
M  V30 2560 H 261.64 2.43235 -1.72856 0
M  V30 2561 C 260.389 3.46536 -0.28424 0
M  V30 2562 H 259.712 3.85545 -1.05807 0
M  V30 2563 H 261.152 4.23899 -0.0925945 0
M  V30 2564 C 259.611 3.22036 0.989684 0
M  V30 2565 O 260.141 3.44509 2.06584 0
M  V30 2566 N 258.347 2.7565 0.920086 0
M  V30 2567 H 257.894 2.57562 0.0442019 0
M  V30 2568 H 257.852 2.59635 1.77306 0
M  V30 2569 N 261.624 0.925811 1.2754 0
M  V30 2570 C 262.871 0.565255 1.94451 0
M  V30 2571 C 263.199 -0.89316 1.7278 0
M  V30 2572 O 262.454 -1.65213 1.04895 0
M  V30 2573 C 262.753 0.835296 3.47502 0
M  V30 2574 C 262.419 2.27515 3.89291 0
M  V30 2575 C 261.081 2.66879 4.00411 0
M  V30 2576 C 263.433 3.21158 4.10496 0
M  V30 2577 C 260.761 3.99014 4.30122 0
M  V30 2578 C 263.113 4.52871 4.4169 0
M  V30 2579 C 261.777 4.92072 4.51023 0
M  V30 2580 H 261.047 0.206841 0.711546 0
M  V30 2581 H 263.694 1.16942 1.51647 0
M  V30 2582 H 261.999 0.148442 3.91519 0
M  V30 2583 H 263.696 0.535322 3.97411 0
M  V30 2584 H 260.286 1.95976 3.81171 0
M  V30 2585 H 264.47 2.9195 4.01346 0
M  V30 2586 H 259.726 4.2907 4.35556 0
M  V30 2587 H 263.9 5.25436 4.57045 0
M  V30 2588 H 261.527 5.9449 4.738 0
M  V30 2589 N 263.102 -1.41638 0.69111 0
M  V30 2590 C 264.327 -2.06148 0.227583 0
M  V30 2591 C 264.752 -1.51652 -1.11281 0
M  V30 2592 O 264.11 -0.64164 -1.69566 0
M  V30 2593 C 264.158 -3.60095 0.190858 0
M  V30 2594 O 263.262 -4.03845 -0.835664 0
M  V30 2595 H 262.603 -0.654434 0.112306 0
M  V30 2596 H 265.133 -1.81484 0.944714 0
M  V30 2597 H 265.143 -4.07995 0.020207 0
M  V30 2598 H 263.818 -3.99129 1.16915 0
M  V30 2599 H 262.395 -3.67458 -0.63473 0
M  V30 2600 N 264.58 -0.43555 -1.51462 0
M  V30 2601 C 265.51 0.367376 -2.30592 0
M  V30 2602 C 266.491 1.02263 -1.35928 0
M  V30 2603 O 267.676 1.02661 -1.64847 0
M  V30 2604 C 264.806 1.46983 -3.14664 0
M  V30 2605 C 263.76 0.938161 -4.17591 0
M  V30 2606 C 263.086 2.13622 -4.90173 0
M  V30 2607 C 264.386 -0.0261621 -5.22293 0
M  V30 2608 H 266.08 -0.292969 -2.97963 0
M  V30 2609 H 263.626 -0.14234 -1.43295 0
M  V30 2610 H 265.579 2.03873 -3.688 0
M  V30 2611 H 264.303 2.15843 -2.4511 0
M  V30 2612 H 262.962 0.391481 -3.64504 0
M  V30 2613 H 262.61 2.81098 -4.17124 0
M  V30 2614 H 262.31 1.78688 -5.59772 0
M  V30 2615 H 263.834 2.7107 -5.47132 0
M  V30 2616 H 265.248 0.452384 -5.71512 0
M  V30 2617 H 263.645 -0.287992 -5.99409 0
M  V30 2618 H 264.715 -0.963391 -4.75233 0
M  V30 2619 N 266.058 1.56714 -0.166846 0
M  V30 2620 C 267.306 1.96358 0.478305 0
M  V30 2621 C 267.627 1.0537 1.6408 0
M  V30 2622 O 266.897 0.119154 1.95537 0
M  V30 2623 H 265.477 0.725065 0.179692 0
M  V30 2624 H 268.139 1.93329 -0.246985 0
M  V30 2625 H 267.235 3.00547 0.841292 0
M  V30 2626 N 267.536 -0.106894 1.57237 0
M  V30 2627 C 268.499 -1.11466 2.0027 0
M  V30 2628 C 269.499 -1.33623 0.894519 0
M  V30 2629 O 270.689 -1.29935 1.16028 0
M  V30 2630 C 267.821 -2.46646 2.35327 0
M  V30 2631 H 269.014 -0.744516 2.90512 0
M  V30 2632 H 266.567 -0.351576 1.52295 0
M  V30 2633 H 267.302 -2.88558 1.48003 0
M  V30 2634 H 267.087 -2.31915 3.16161 0
M  V30 2635 H 268.577 -3.19151 2.69318 0
M  V30 2636 N 269.014 -1.53014 -0.377408 0
M  V30 2637 C 270.262 -1.6829 -1.11906 0
M  V30 2638 C 270.583 -0.431206 -1.90173 0
M  V30 2639 O 269.853 0.554595 -1.87886 0
M  V30 2640 H 268.433 -0.620371 -0.416112 0
M  V30 2641 H 271.095 -1.90167 -0.426893 0
M  V30 2642 H 270.191 -2.53862 -1.8155 0
M  V30 2643 N 270.492 0.636531 -1.44174 0
M  V30 2644 C 271.738 1.39826 -1.4689 0
M  V30 2645 C 272.071 1.93947 -0.0990585 0
M  V30 2646 O 271.346 1.73325 0.882544 0
M  V30 2647 C 271.629 2.56751 -2.5249 0
M  V30 2648 C 271.482 2.08014 -3.98811 0
M  V30 2649 C 272.801 3.58946 -2.54649 0
M  V30 2650 H 269.92 0.507075 -0.53483 0
M  V30 2651 H 272.562 0.720188 -1.75822 0
M  V30 2652 H 270.712 3.14597 -2.2795 0
M  V30 2653 H 272.384 1.5504 -4.34466 0
M  V30 2654 H 270.627 1.39242 -4.10846 0
M  V30 2655 H 271.298 2.92169 -4.68339 0
M  V30 2656 H 273.774 3.1089 -2.76563 0
M  V30 2657 H 272.65 4.38286 -3.3045 0
M  V30 2658 H 272.911 4.12655 -1.58646 0
M  V30 2659 N 271.97 1.30982 0.876444 0
M  V30 2660 C 273.219 1.19658 1.62373 0
M  V30 2661 C 273.532 -0.245636 1.94052 0
M  V30 2662 O 274.738 -0.48049 2.67214 0
M  V30 2663 C 273.194 2.09433 2.92687 0
M  V30 2664 C 272.802 3.58613 2.68516 0
M  V30 2665 C 274.546 2.06893 3.70669 0
M  V30 2666 C 272.453 4.40416 3.94699 0
M  V30 2667 H 271.383 0.444268 0.609214 0
M  V30 2668 H 274.034 1.55791 0.969605 0
M  V30 2669 H 272.416 1.66191 3.59439 0
M  V30 2670 H 273.59 4.10058 2.10212 0
M  V30 2671 H 271.905 3.63063 2.03898 0
M  V30 2672 H 274.502 2.65258 4.64265 0
M  V30 2673 H 274.845 1.05448 4.02724 0
M  V30 2674 H 275.378 2.48301 3.10792 0
M  V30 2675 H 272.117 5.42591 3.67798 0
M  V30 2676 H 271.637 3.93731 4.52477 0
M  V30 2677 H 273.316 4.52294 4.62644 0
M  V30 2678 N 273.449 -1.08991 1.13837 0
M  V30 2679 C 274.698 -1.80631 0.897509 0
M  V30 2680 C 275.011 -1.86872 -0.57777 0
M  V30 2681 O 276.217 -2.54866 -0.935701 0
M  V30 2682 C 274.673 -3.24517 1.55618 0
M  V30 2683 C 274.281 -3.26529 3.0673 0
M  V30 2684 C 276.025 -4.00882 1.3962 0
M  V30 2685 C 273.932 -4.64965 3.65461 0
M  V30 2686 H 272.862 -0.67691 0.332129 0
M  V30 2687 H 275.513 -1.2246 1.3666 0
M  V30 2688 H 273.895 -3.82778 1.01476 0
M  V30 2689 H 275.069 -2.78008 3.67489 0
M  V30 2690 H 273.384 -2.63656 3.22296 0
M  V30 2691 H 275.981 -5.03167 1.80906 0
M  V30 2692 H 276.324 -4.14896 0.341578 0
M  V30 2693 H 276.857 -3.49075 1.90766 0
M  V30 2694 H 273.596 -4.56153 4.70749 0
M  V30 2695 H 273.116 -5.13792 3.09481 0
M  V30 2696 H 274.795 -5.3394 3.654 0
M  V30 2697 N 274.927 -0.932562 -1.27047 0
M  V30 2698 C 275.859 -0.392734 -2.2581 0
M  V30 2699 C 276.872 0.479241 -1.55586 0
M  V30 2700 O 278.061 0.291078 -1.76111 0
M  V30 2701 C 275.161 0.455456 -3.35826 0
M  V30 2702 C 274.334 -0.398355 -4.35582 0
M  V30 2703 C 273.393 0.387985 -5.24768 0
M  V30 2704 O 272.419 -0.206003 -5.68827 0
M  V30 2705 N 273.621 1.68664 -5.55457 0
M  V30 2706 H 276.386 -1.24173 -2.72766 0
M  V30 2707 H 273.947 -0.800511 -1.40725 0
M  V30 2708 H 275.939 0.988692 -3.92437 0
M  V30 2709 H 274.509 1.20522 -2.88432 0
M  V30 2710 H 273.729 -1.11286 -3.78165 0
M  V30 2711 H 275.017 -0.981889 -4.99236 0
M  V30 2712 H 274.415 2.19147 -5.21528 0
M  V30 2713 H 272.972 2.1663 -6.14748 0
M  V30 2714 N 276.405 1.4127 -0.698611 0
M  V30 2715 C 277.821 1.55241 -0.370462 0
M  V30 2716 C 278.021 1.67351 1.12231 0
M  V30 2717 O 277.077 1.65363 1.90818 0
M  V30 2718 C 278.39 2.78997 -1.12165 0
M  V30 2719 C 279.938 2.92797 -1.1063 0
M  V30 2720 C 280.413 4.19445 -1.8393 0
M  V30 2721 N 281.904 4.26409 -1.80914 0
M  V30 2722 C 282.639 5.23271 -2.34467 0
M  V30 2723 N 282.135 6.26145 -2.96504 0
M  V30 2724 N 283.928 5.15232 -2.24706 0
M  V30 2725 H 276.079 1.31654 -1.66676 0
M  V30 2726 H 278.342 0.635393 -0.703548 0
M  V30 2727 H 278.048 2.76268 -2.17644 0
M  V30 2728 H 277.922 3.70606 -0.702209 0
M  V30 2729 H 280.309 2.95039 -0.0597713 0
M  V30 2730 H 280.39 2.02353 -1.56483 0
M  V30 2731 H 280.034 4.17964 -2.88563 0
M  V30 2732 H 279.964 5.08866 -1.35509 0
M  V30 2733 H 282.455 3.527 -1.35687 0
M  V30 2734 H 282.768 6.96451 -3.34927 0
M  V30 2735 H 281.113 6.26638 -3.00583 0
M  V30 2736 H 284.304 4.33789 -1.7591 0
M  V30 2737 H 284.477 5.90552 -2.66745 0
M  V30 2738 N 277.883 0.443576 1.51229 0
M  V30 2739 C 279.111 -0.11929 2.06556 0
M  V30 2740 C 279.526 -1.35921 1.31038 0
M  V30 2741 O 278.883 -1.78675 0.371704 0
M  V30 2742 C 278.934 -0.435228 3.5887 0
M  V30 2743 O 278.655 0.755486 4.31537 0
M  V30 2744 C 280.156 -1.04808 4.30732 0
M  V30 2745 H 277.376 -0.0051584 0.67098 0
M  V30 2746 H 279.92 0.624453 1.94733 0
M  V30 2747 H 278.075 -1.12887 3.70588 0
M  V30 2748 H 278.489 0.483491 5.22267 0
M  V30 2749 H 279.963 -1.2191 5.3837 0
M  V30 2750 H 280.44 -2.03081 3.89429 0
M  V30 2751 H 281.046 -0.393637 4.23474 0
M  V30 2752 N 279.361 -1.56624 0.175154 0
M  V30 2753 C 280.586 -2.01813 -0.478137 0
M  V30 2754 C 281.011 -1.05457 -1.55757 0
M  V30 2755 O 280.369 -0.0347439 -1.81267 0
M  V30 2756 C 280.417 -3.45581 -1.02987 0
M  V30 2757 O 279.521 -3.52305 -2.14371 0
M  V30 2758 H 278.862 -0.65413 -0.114059 0
M  V30 2759 H 281.392 -2.02673 0.280173 0
M  V30 2760 H 281.402 -3.84965 -1.35151 0
M  V30 2761 H 280.077 -4.1521 -0.239556 0
M  V30 2762 H 278.654 -3.24783 -1.83222 0
M  V30 2763 N 280.839 0.0985539 -1.57292 0
M  V30 2764 C 282.087 0.801092 -1.85545 0
M  V30 2765 C 282.408 1.79438 -0.763353 0
M  V30 2766 O 281.678 1.94763 0.21073 0
M  V30 2767 H 280.258 0.29884 -0.684619 0
M  V30 2768 H 282.92 0.0810064 -1.94732 0
M  V30 2769 H 282.016 1.3338 -2.82163 0
M  V30 2770 N 282.317 1.53212 0.369288 0
M  V30 2771 C 283.564 1.69215 1.11232 0
M  V30 2772 C 283.892 0.442048 1.8941 0
M  V30 2773 O 283.147 -0.575944 1.87033 0
M  V30 2774 C 283.446 2.89101 2.10132 0
M  V30 2775 C 283.112 4.25758 1.48463 0
M  V30 2776 C 281.774 4.6292 1.31372 0
M  V30 2777 C 284.126 5.10757 1.03811 0
M  V30 2778 C 281.454 5.82722 0.68207 0
M  V30 2779 C 283.806 6.31201 0.420487 0
M  V30 2780 C 282.47 6.67079 0.237038 0
M  V30 2781 H 281.74 0.619201 0.407027 0
M  V30 2782 H 284.387 1.87391 0.394552 0
M  V30 2783 H 282.692 2.65421 2.88199 0
M  V30 2784 H 284.389 2.98676 2.6757 0
M  V30 2785 H 280.979 3.96494 1.62758 0
M  V30 2786 H 285.163 4.82599 1.1581 0
M  V30 2787 H 280.419 6.09113 0.528316 0
M  V30 2788 H 284.593 6.96368 0.0662874 0
M  V30 2789 H 282.22 7.59774 -0.254477 0
M  V30 2790 N 283.795 -0.628877 1.44509 0
M  V30 2791 C 285.041 -1.39045 1.47629 0
M  V30 2792 C 285.374 -1.93892 0.109343 0
M  V30 2793 O 284.649 -1.7379 -0.87334 0
M  V30 2794 C 284.932 -2.55408 2.53848 0
M  V30 2795 C 284.785 -2.05896 3.99909 0
M  V30 2796 C 286.104 -3.5759 2.56549 0
M  V30 2797 H 283.223 -0.504232 0.537512 0
M  V30 2798 H 285.865 -0.710854 1.76201 0
M  V30 2799 H 284.015 -3.13384 2.29615 0
M  V30 2800 H 285.687 -1.52734 4.35282 0
M  V30 2801 H 283.93 -1.37061 4.11578 0
M  V30 2802 H 284.601 -2.89681 4.69882 0
M  V30 2803 H 287.077 -3.09419 2.78207 0
M  V30 2804 H 285.953 -4.36527 3.32769 0
M  V30 2805 H 286.214 -4.11808 1.60832 0
M  V30 2806 N 285.273 -1.31445 -0.869486 0
M  V30 2807 C 286.498 -1.24256 -1.66058 0
M  V30 2808 C 286.923 0.188928 -1.87149 0
M  V30 2809 O 286.281 1.13522 -1.4136 0
M  V30 2810 C 286.329 -1.9924 -3.00559 0
M  V30 2811 O 285.433 -1.33007 -3.90362 0
M  V30 2812 H 284.774 -0.428973 -0.506831 0
M  V30 2813 H 287.304 -1.73521 -1.08404 0
M  V30 2814 H 287.314 -2.08854 -3.50491 0
M  V30 2815 H 285.989 -3.03342 -2.84528 0
M  V30 2816 H 284.566 -1.31848 -3.48813 0
M  V30 2817 N 286.751 1.08385 -1.14413 0
M  V30 2818 C 287.683 2.1519 -0.789036 0
M  V30 2819 C 288.696 1.61638 0.19417 0
M  V30 2820 O 289.885 1.78479 -0.0275711 0
M  V30 2821 C 286.985 3.38565 -0.15058 0
M  V30 2822 C 286.158 4.21501 -1.16857 0
M  V30 2823 C 285.217 5.23277 -0.553832 0
M  V30 2824 O 284.243 5.56041 -1.21686 0
M  V30 2825 N 285.445 5.76629 0.669296 0
M  V30 2826 H 288.21 2.46257 -1.70814 0
M  V30 2827 H 285.771 1.24198 -1.03858 0
M  V30 2828 H 287.763 4.03777 0.273181 0
M  V30 2829 H 286.333 3.05299 0.671667 0
M  V30 2830 H 285.553 3.52265 -1.76926 0
M  V30 2831 H 286.841 4.73731 -1.85624 0
M  V30 2832 H 286.239 5.52243 1.22654 0
M  V30 2833 H 284.796 6.43521 1.03556 0
M  V30 2834 N 288.23 0.939286 1.26551 0
M  V30 2835 C 289.178 0.43815 2.28436 0
M  V30 2836 C 290.172 -0.483587 1.62351 0
M  V30 2837 O 291.378 -0.362009 1.76322 0
M  V30 2838 H 287.753 0.123149 0.741848 0
M  V30 2839 H 289.724 1.31002 2.68106 0
M  V30 2840 C 288.473 -0.283052 3.46546 0
M  V30 2841 H 287.796 0.417043 3.97619 0
M  V30 2842 H 289.236 -0.597948 4.19763 0
M  V30 2843 C 287.695 -1.50018 3.01656 0
M  V30 2844 O 288.225 -2.59855 3.0633 0
M  V30 2845 N 286.431 -1.35608 2.57019 0
M  V30 2846 H 285.978 -0.46244 2.53415 0
M  V30 2847 H 285.936 -2.17165 2.27347 0
M  V30 2848 N 289.708 -1.40897 0.706093 0
M  V30 2849 C 290.638 -2.33418 0.0620085 0
M  V30 2850 C 291.619 -1.52385 -0.755827 0
M  V30 2851 O 292.804 -1.80886 -0.706674 0
M  V30 2852 C 289.934 -3.36293 -0.867445 0
M  V30 2853 C 288.888 -4.27716 -0.155932 0
M  V30 2854 C 288.214 -5.2105 -1.20046 0
M  V30 2855 C 289.514 -5.12944 0.984149 0
M  V30 2856 H 291.208 -2.87527 0.83477 0
M  V30 2857 H 288.754 -1.38249 0.402875 0
M  V30 2858 H 290.707 -3.99949 -1.32735 0
M  V30 2859 H 289.431 -2.80556 -1.67199 0
M  V30 2860 H 288.09 -3.65498 0.284047 0
M  V30 2861 H 287.738 -4.61624 -1.99781 0
M  V30 2862 H 287.438 -5.83056 -0.729328 0
M  V30 2863 H 288.962 -5.87584 -1.66066 0
M  V30 2864 H 290.376 -5.70109 0.604048 0
M  V30 2865 H 288.773 -5.83945 1.38304 0
M  V30 2866 H 289.843 -4.49485 1.81911 0
M  V30 2867 N 291.186 -0.45159 -1.50991 0
M  V30 2868 C 292.463 0.170707 -1.94854 0
M  V30 2869 C 292.843 1.58788 -1.39103 0
M  V30 2870 O 292.191 2.20913 -0.583921 0
M  V30 2871 C 292.401 0.133929 -3.48743 0
M  V30 2872 C 293.749 0.33248 -4.23296 0
M  V30 2873 O 294.773 0.211403 -3.55572 0
M  V30 2874 O 293.632 0.57486 -5.43468 0
M  V30 2875 H 290.726 0.122264 -0.817912 0
M  V30 2876 H 293.272 -0.510594 -1.61836 0
M  V30 2877 H 292.044 -0.856283 -3.81816 0
M  V30 2878 H 291.667 0.857529 -3.88242 0
M  V30 2879 N 292.664 1.56529 -0.183458 0
M  V30 2880 C 293.594 2.21549 0.737456 0
M  V30 2881 C 294.575 1.17489 1.23005 0
M  V30 2882 O 295.76 1.45959 1.281 0
M  V30 2883 C 292.89 2.86575 1.96194 0
M  V30 2884 C 291.844 3.96778 1.60473 0
M  V30 2885 C 291.17 4.48911 2.90487 0
M  V30 2886 C 292.47 5.15767 0.823497 0
M  V30 2887 H 294.164 2.98761 0.195453 0
M  V30 2888 H 291.71 1.43702 0.0925686 0
M  V30 2889 H 293.663 3.30739 2.61131 0
M  V30 2890 H 292.387 2.06749 2.52828 0
M  V30 2891 H 291.046 3.53286 0.978997 0
M  V30 2892 H 290.694 3.65862 3.45186 0
M  V30 2893 H 290.394 5.23265 2.67335 0
M  V30 2894 H 291.918 4.95771 3.56432 0
M  V30 2895 H 293.332 5.56549 1.37571 0
M  V30 2896 H 291.729 5.96114 0.690551 0
M  V30 2897 H 292.799 4.84574 -0.177782 0
M  V30 2898 N 294.142 -0.090211 1.57342 0
M  V30 2899 C 295.372 -0.805055 1.90269 0
M  V30 2900 C 295.78 -1.72561 0.775842 0
M  V30 2901 O 295.123 -1.81839 -0.260843 0
M  V30 2902 C 295.185 -1.66734 3.18497 0
M  V30 2903 C 294.849 -0.918092 4.47683 0
M  V30 2904 C 295.846 -0.245674 5.19319 0
M  V30 2905 C 293.531 -0.890724 4.94339 0
M  V30 2906 C 295.525 0.444088 6.35851 0
M  V30 2907 C 293.212 -0.197179 6.10782 0
M  V30 2908 C 294.21 0.469044 6.81388 0
M  V30 2909 O 293.898 1.15146 7.95611 0
M  V30 2910 H 293.63 -0.235143 0.633785 0
M  V30 2911 H 296.184 -0.0703805 2.05279 0
M  V30 2912 H 294.414 -2.44437 2.99646 0
M  V30 2913 H 296.103 -2.25919 3.37217 0
M  V30 2914 H 296.869 -0.258246 4.84312 0
M  V30 2915 H 292.748 -1.39873 4.39268 0
M  V30 2916 H 296.292 0.964667 6.90898 0
M  V30 2917 H 292.189 -0.18247 6.45242 0
M  V30 2918 H 292.957 1.05885 8.11622 0
M  V30 2919 N 295.62 -1.53406 -0.361157 0
M  V30 2920 C 296.583 -1.79479 -1.42548 0
M  V30 2921 C 297.583 -0.665327 -1.4639 0
M  V30 2922 O 298.773 -0.933549 -1.47073 0
M  V30 2923 C 295.905 -1.92087 -2.8163 0
M  V30 2924 H 297.098 -2.74538 -1.20701 0
M  V30 2925 H 294.651 -1.4455 -0.594546 0
M  V30 2926 H 295.386 -0.991099 -3.08784 0
M  V30 2927 H 295.171 -2.74241 -2.80239 0
M  V30 2928 H 296.661 -2.13836 -3.58697 0
M  V30 2929 N 297.098 0.621204 -1.44841 0
M  V30 2930 C 298.323 1.41244 -1.51871 0
M  V30 2931 C 298.748 1.87519 -0.147764 0
M  V30 2932 O 298.106 1.59334 0.865 0
M  V30 2933 C 298.154 2.60221 -2.49634 0
M  V30 2934 O 297.258 3.60395 -2.00473 0
M  V30 2935 H 296.599 0.42223 -0.512463 0
M  V30 2936 H 299.129 0.757305 -1.90069 0
M  V30 2937 H 299.139 3.0764 -2.67996 0
M  V30 2938 H 297.814 2.25887 -3.4921 0
M  V30 2939 H 296.391 3.19717 -1.91925 0
M  V30 2940 N 298.576 1.31904 0.862503 0
M  V30 2941 C 299.539 1.20131 1.95195 0
M  V30 2942 C 300.539 0.126409 1.60302 0
M  V30 2943 O 301.729 0.376234 1.70089 0
M  V30 2944 C 298.861 0.845691 3.30244 0
M  V30 2945 H 300.054 2.16943 2.07064 0
M  V30 2946 H 297.607 1.15622 1.05172 0
M  V30 2947 H 298.342 -0.120957 3.24074 0
M  V30 2948 H 298.127 1.62276 3.56944 0
M  V30 2949 H 299.617 0.787418 4.10109 0
M  V30 2950 N 300.054 -1.07777 1.14986 0
M  V30 2951 C 301.017 -2.13041 0.845358 0
M  V30 2952 C 302.017 -1.60071 -0.152931 0
M  V30 2953 O 303.207 -1.74033 0.0761879 0
M  V30 2954 C 300.339 -3.39896 0.261383 0
M  V30 2955 H 301.532 -2.41485 1.77834 0
M  V30 2956 H 299.085 -1.23595 0.956757 0
M  V30 2957 H 299.82 -3.17091 -0.68 0
M  V30 2958 H 299.605 -3.79642 0.980514 0
M  V30 2959 H 301.095 -4.17548 0.0657687 0
M  V30 2960 N 301.532 -0.945985 -1.26051 0
M  V30 2961 C 302.48 -0.450259 -2.282 0
M  V30 2962 C 303.474 0.47497 -1.62605 0
M  V30 2963 O 304.68 0.352653 -1.76512 0
M  V30 2964 H 301.055 -0.127081 -0.741184 0
M  V30 2965 H 303.026 -1.32422 -2.67408 0
M  V30 2966 C 301.775 0.26467 -3.46691 0
M  V30 2967 H 301.098 -0.438123 -3.97392 0
M  V30 2968 H 302.538 0.575678 -4.20074 0
M  V30 2969 C 300.997 1.48416 -3.02447 0
M  V30 2970 O 301.527 2.58227 -3.07704 0
M  V30 2971 N 299.733 1.34243 -2.57735 0
M  V30 2972 H 299.28 0.448994 -2.53657 0
M  V30 2973 H 299.238 2.15957 -2.28495 0
M  V30 2974 N 303.011 1.40521 -0.713556 0
M  V30 2975 C 304.236 2.05759 -0.26035 0
M  V30 2976 C 304.661 1.53403 1.08854 0
M  V30 2977 O 304.019 0.668535 1.68524 0
M  V30 2978 C 304.067 3.59745 -0.248122 0
M  V30 2979 O 303.171 4.05123 0.77131 0
M  V30 2980 H 302.512 0.652564 -0.122703 0
M  V30 2981 H 305.042 1.79958 -0.973467 0
M  V30 2982 H 305.052 4.07911 -0.0851129 0
M  V30 2983 H 303.727 3.97218 -1.2325 0
M  V30 2984 H 302.304 3.68422 0.57619 0
M  V30 2985 N 304.489 0.459591 1.5075 0
M  V30 2986 C 305.9 0.00171547 1.867 0
M  V30 2987 C 306.251 -1.39934 1.37525 0
M  V30 2988 O 305.376 -2.03523 0.735349 0
M  V30 2989 C 305.971 -0.00366298 3.388 0
M  V30 2990 C 304.53 -0.406026 3.74204 0
M  V30 2991 C 303.677 0.38673 2.7459 0
M  V30 2992 H 306.628 0.674413 1.43657 0
M  V30 2993 H 306.649 -0.808371 3.71814 0
M  V30 2994 H 306.161 1.01617 3.74561 0
M  V30 2995 H 304.262 -1.43063 3.4404 0
M  V30 2996 H 304.375 -0.115362 4.78961 0
M  V30 2997 H 302.739 -0.158019 2.54209 0
M  V30 2998 H 303.522 1.40585 3.13194 0
M  V30 2999 N 305.967 -1.56429 0.191757 0
M  V30 3000 C 307.215 -1.97095 -0.447006 0
M  V30 3001 C 307.536 -1.07967 -1.62383 0
M  V30 3002 O 306.806 -0.150248 -1.95323 0
M  V30 3003 H 305.386 -0.727832 -0.168135 0
M  V30 3004 H 308.048 -1.92911 0.27771 0
M  V30 3005 H 307.144 -3.01848 -0.793371 0
M  V30 3006 N 307.445 0.0818655 -1.57387 0
M  V30 3007 C 308.378 1.12986 -1.98266 0
M  V30 3008 C 309.356 1.38123 -0.857954 0
M  V30 3009 O 310.54 1.51663 -1.1194 0
M  V30 3010 C 307.667 2.47632 -2.31076 0
M  V30 3011 C 306.713 2.38693 -3.53452 0
M  V30 3012 S 307.546 1.79071 -5.04672 0
M  V30 3013 C 308.702 3.15316 -5.40673 0
M  V30 3014 H 308.935 0.781435 -2.86846 0
M  V30 3015 H 306.468 0.290034 -1.51651 0
M  V30 3016 H 308.426 3.25089 -2.50654 0
M  V30 3017 H 307.087 2.79638 -1.43043 0
M  V30 3018 H 306.28 3.37964 -3.73893 0
M  V30 3019 H 305.882 1.69369 -3.33452 0
M  V30 3020 H 308.174 4.11613 -5.38127 0
M  V30 3021 H 309.117 2.99664 -6.41566 0
M  V30 3022 H 309.525 3.15457 -4.68132 0
M  V30 3023 N 308.923 1.53595 0.353017 0
M  V30 3024 C 310.171 1.70049 1.09215 0
M  V30 3025 C 310.492 0.461406 1.89463 0
M  V30 3026 O 309.762 -0.524633 1.88744 0
M  V30 3027 H 308.342 0.626912 0.40619 0
M  V30 3028 H 311.004 1.90822 0.396585 0
M  V30 3029 H 310.1 2.56718 1.77488 0
M  V30 3030 N 310.401 -0.613514 1.45168 0
M  V30 3031 C 311.649 -1.36997 1.48581 0
M  V30 3032 C 311.97 -1.94589 0.126545 0
M  V30 3033 O 311.24 -1.76816 -0.843372 0
M  V30 3034 H 309.82 -0.508558 0.547154 0
M  V30 3035 H 312.482 -0.720853 1.81079 0
M  V30 3036 H 311.578 -2.1924 2.22127 0
M  V30 3037 N 311.879 -1.3236 -0.855495 0
M  V30 3038 C 313.128 -1.22226 -1.60448 0
M  V30 3039 C 313.441 0.214733 -1.94418 0
M  V30 3040 O 314.647 0.437917 -2.67945 0
M  V30 3041 C 313.103 -2.14063 -2.89318 0
M  V30 3042 C 312.711 -3.62839 -2.62777 0
M  V30 3043 C 314.455 -2.12764 -3.67331 0
M  V30 3044 C 312.362 -4.4664 -3.87643 0
M  V30 3045 H 311.292 -0.453904 -0.602069 0
M  V30 3046 H 313.943 -1.57314 -0.944698 0
M  V30 3047 H 312.325 -1.71889 -3.5675 0
M  V30 3048 H 313.499 -4.1335 -2.03662 0
M  V30 3049 H 311.814 -3.66261 -1.98096 0
M  V30 3050 H 314.411 -2.72611 -4.59987 0
M  V30 3051 H 314.754 -1.11841 -4.00995 0
M  V30 3052 H 315.287 -2.53214 -3.06802 0
M  V30 3053 H 312.026 -5.48373 -3.5912 0
M  V30 3054 H 311.546 -4.0088 -4.46156 0
M  V30 3055 H 313.225 -4.59597 -4.55389 0
M  V30 3056 N 313.357 1.07166 -1.15556 0
M  V30 3057 C 314.768 1.6127 -0.940693 0
M  V30 3058 C 315.119 1.89251 0.517551 0
M  V30 3059 O 314.244 1.65937 1.38903 0
M  V30 3060 C 314.839 2.92993 -1.7012 0
M  V30 3061 C 313.398 3.43832 -1.53156 0
M  V30 3062 C 312.545 2.1786 -1.71558 0
M  V30 3063 H 315.496 0.90229 -1.30554 0
M  V30 3064 H 315.517 3.62007 -1.17181 0
M  V30 3065 H 315.029 2.72596 -2.76248 0
M  V30 3066 H 313.13 3.69307 -0.494294 0
M  V30 3067 H 313.243 4.19747 -2.30975 0
M  V30 3068 H 311.607 2.2765 -1.14225 0
M  V30 3069 H 312.39 1.99956 -2.79056 0
M  V30 3070 N 314.835 0.952656 1.25548 0
M  V30 3071 C 316.082 0.606373 1.93208 0
M  V30 3072 C 316.41 -0.85631 1.74636 0
M  V30 3073 O 315.665 -1.62951 1.08376 0
M  V30 3074 C 315.964 0.908818 3.45652 0
M  V30 3075 C 315.63 2.35722 3.84378 0
M  V30 3076 C 314.292 2.75312 3.9466 0
M  V30 3077 C 316.644 3.29793 4.03591 0
M  V30 3078 C 313.972 4.08047 4.21562 0
M  V30 3079 C 316.324 4.62138 4.31985 0
M  V30 3080 C 314.988 5.01528 4.40484 0
M  V30 3081 H 314.258 0.221888 0.706998 0
M  V30 3082 H 316.905 1.20132 1.49133 0
M  V30 3083 H 315.21 0.231456 3.91116 0
M  V30 3084 H 316.907 0.619498 3.96186 0
M  V30 3085 H 313.497 2.04017 3.76928 0
M  V30 3086 H 317.681 3.00397 3.95064 0
M  V30 3087 H 312.937 4.38212 4.26357 0
M  V30 3088 H 317.111 5.35012 4.45797 0
M  V30 3089 H 314.738 6.04406 4.61083 0
M  V30 3090 N 316.313 -1.40141 0.720998 0
M  V30 3091 C 317.724 -1.83678 0.334553 0
M  V30 3092 C 318.075 -1.6027 -1.13173 0
M  V30 3093 O 317.2 -1.08643 -1.87152 0
M  V30 3094 C 317.795 -3.33437 0.600437 0
M  V30 3095 C 316.354 -3.75447 0.267642 0
M  V30 3096 C 315.501 -2.63296 0.870097 0
M  V30 3097 H 318.452 -1.29331 0.919732 0
M  V30 3098 H 318.473 -3.80269 -0.132517 0
M  V30 3099 H 317.985 -3.50442 1.66768 0
M  V30 3100 H 316.086 -3.64035 -0.794329 0
M  V30 3101 H 316.199 -4.73344 0.74042 0
M  V30 3102 H 314.563 -2.52954 0.297739 0
M  V30 3103 H 315.346 -2.83112 1.94172 0
M  V30 3104 N 317.792 -0.46758 -1.50504 0
M  V30 3105 C 318.755 0.317059 -2.26996 0
M  V30 3106 C 319.755 0.923513 -1.31635 0
M  V30 3107 O 320.945 0.793239 -1.55091 0
M  V30 3108 C 318.077 1.45134 -3.08462 0
M  V30 3109 H 319.27 -0.353723 -2.97807 0
M  V30 3110 H 316.823 -0.221545 -1.54722 0
M  V30 3111 H 317.558 2.15728 -2.4214 0
M  V30 3112 H 317.343 1.02232 -3.78538 0
M  V30 3113 H 318.833 2.00493 -3.66323 0
M  V30 3114 N 319.27 1.56325 -0.20005 0
M  V30 3115 C 320.495 2.02548 0.44597 0
M  V30 3116 C 320.92 1.07922 1.5406 0
M  V30 3117 O 320.278 0.0635775 1.81188 0
M  V30 3118 C 320.326 3.47175 0.974761 0
M  V30 3119 O 319.43 3.55671 2.08739 0
M  V30 3120 H 318.771 0.655862 0.103638 0
M  V30 3121 H 321.301 2.02201 -0.312381 0
M  V30 3122 H 321.311 3.87067 1.2901 0
M  V30 3123 H 319.986 4.15538 0.17347 0
M  V30 3124 H 318.563 3.27657 1.78032 0
M  V30 3125 N 320.748 -0.0735177 1.57428 0
M  V30 3126 C 321.696 -1.10628 2.04607 0
M  V30 3127 C 322.69 -1.40181 0.951088 0
M  V30 3128 O 323.896 -1.39608 1.1362 0
M  V30 3129 H 320.271 -0.374088 0.652351 0
M  V30 3130 H 322.242 -0.682218 2.90497 0
M  V30 3131 C 320.991 -2.41212 2.50423 0
M  V30 3132 H 320.314 -2.19322 3.34272 0
M  V30 3133 H 321.754 -3.11927 2.87189 0
M  V30 3134 C 320.213 -3.0705 1.38644 0
M  V30 3135 O 320.743 -3.95056 0.727582 0
M  V30 3136 N 318.949 -2.67645 1.132 0
M  V30 3137 H 318.496 -1.96169 1.66959 0
M  V30 3138 H 318.454 -3.1202 0.386147 0
M  V30 3139 N 322.226 -1.5378 -0.344866 0
M  V30 3140 C 323.451 -1.75211 -1.10977 0
M  V30 3141 C 323.876 -0.48936 -1.81623 0
M  V30 3142 O 323.234 0.557925 -1.72502 0
M  V30 3143 C 323.282 -2.93147 -2.09993 0
M  V30 3144 O 322.386 -2.63203 -3.17487 0
M  V30 3145 H 321.727 -0.581241 -0.321021 0
M  V30 3146 H 324.257 -2.00738 -0.395661 0
M  V30 3147 H 324.267 -3.19898 -2.53237 0
M  V30 3148 H 322.942 -3.84731 -1.5797 0
M  V30 3149 H 321.519 -2.47336 -2.79069 0
M  V30 3150 N 323.704 0.605807 -1.45491 0
M  V30 3151 C 324.929 1.39625 -1.53361 0
M  V30 3152 C 325.354 1.87351 -0.167645 0
M  V30 3153 O 324.712 1.60243 0.848051 0
M  V30 3154 C 324.76 2.57559 -2.5238 0
M  V30 3155 O 323.864 3.58248 -2.04285 0
M  V30 3156 H 323.205 0.416771 -0.516912 0
M  V30 3157 H 325.735 0.737103 -1.90861 0
M  V30 3158 H 325.745 3.0478 -2.71244 0
M  V30 3159 H 324.42 2.22171 -3.51586 0
M  V30 3160 H 322.997 3.17664 -1.95305 0
M  V30 3161 N 325.182 1.32811 0.848464 0
M  V30 3162 C 326.145 1.22194 1.9391 0
M  V30 3163 C 327.145 0.143404 1.60159 0
M  V30 3164 O 328.335 0.394253 1.6968 0
M  V30 3165 C 325.467 0.88067 3.29328 0
M  V30 3166 H 326.66 2.19127 2.04752 0
M  V30 3167 H 324.213 1.16731 1.0394 0
M  V30 3168 H 324.948 -0.0865776 3.24184 0
M  V30 3169 H 324.733 1.66052 3.55203 0
M  V30 3170 H 326.223 0.830871 4.09251 0
M  V30 3171 N 326.66 -1.06551 1.16123 0
M  V30 3172 C 327.59 -2.15935 0.88851 0
M  V30 3173 C 328.571 -1.69306 -0.164135 0
M  V30 3174 O 329.756 -1.94193 -0.0167857 0
M  V30 3175 C 326.886 -3.45149 0.385942 0
M  V30 3176 C 325.84 -4.05271 1.3762 0
M  V30 3177 C 325.166 -5.29664 0.732137 0
M  V30 3178 C 326.466 -4.44355 2.74493 0
M  V30 3179 H 328.16 -2.39006 1.80323 0
M  V30 3180 H 325.706 -1.14866 0.868435 0
M  V30 3181 H 327.659 -4.21004 0.182647 0
M  V30 3182 H 326.383 -3.21689 -0.564274 0
M  V30 3183 H 325.042 -3.3147 1.56599 0
M  V30 3184 H 324.69 -5.02499 -0.224483 0
M  V30 3185 H 324.39 -5.70848 1.39307 0
M  V30 3186 H 325.914 -6.08218 0.538802 0
M  V30 3187 H 327.328 -5.11303 2.59311 0
M  V30 3188 H 325.725 -4.96515 3.37035 0
M  V30 3189 H 326.795 -3.55339 3.29943 0
M  V30 3190 N 328.138 -0.959301 -1.25041 0
M  V30 3191 C 329.071 -0.427418 -2.24161 0
M  V30 3192 C 330.049 0.493837 -1.54919 0
M  V30 3193 O 331.233 0.427144 -1.83597 0
M  V30 3194 C 328.36 0.383893 -3.36517 0
M  V30 3195 C 327.406 -0.478431 -4.23808 0
M  V30 3196 S 328.239 -1.91353 -5.00144 0
M  V30 3197 C 329.395 -1.11077 -6.15965 0
M  V30 3198 H 329.628 -1.26743 -2.6893 0
M  V30 3199 H 327.161 -0.763714 -1.34189 0
M  V30 3200 H 329.119 0.846039 -4.01687 0
M  V30 3201 H 327.78 1.19878 -2.90324 0
M  V30 3202 H 326.973 0.14406 -5.03794 0
M  V30 3203 H 326.575 -0.87597 -3.63597 0
M  V30 3204 H 328.867 -0.361699 -6.76534 0
M  V30 3205 H 329.81 -1.88472 -6.82557 0
M  V30 3206 H 330.218 -0.638843 -5.60873 0
M  V30 3207 N 329.616 1.39756 -0.72842 0
M  V30 3208 C 331.032 1.5442 -0.403308 0
M  V30 3209 C 331.232 1.69694 1.08656 0
M  V30 3210 O 330.288 1.69373 1.87267 0
M  V30 3211 C 331.601 2.76555 -1.18058 0
M  V30 3212 C 333.149 2.90384 -1.16815 0
M  V30 3213 C 333.624 4.15449 -1.92785 0
M  V30 3214 N 335.115 4.22475 -1.89918 0
M  V30 3215 C 335.85 5.1818 -2.45514 0
M  V30 3216 N 335.346 6.19714 -3.09719 0
M  V30 3217 N 337.139 5.1035 -2.35584 0
M  V30 3218 H 329.29 1.28089 -1.69431 0
M  V30 3219 H 331.553 0.620327 -0.716867 0
M  V30 3220 H 331.259 2.7159 -2.23455 0
M  V30 3221 H 331.133 3.69033 -0.780662 0
M  V30 3222 H 333.52 2.94846 -0.12234 0
M  V30 3223 H 333.601 1.98988 -1.6074 0
M  V30 3224 H 333.245 4.11749 -2.97364 0
M  V30 3225 H 333.175 5.05877 -1.46272 0
M  V30 3226 H 335.666 3.49743 -1.43138 0
M  V30 3227 H 335.979 6.8919 -3.49625 0
M  V30 3228 H 334.324 6.20121 -3.13807 0
M  V30 3229 H 337.515 4.2996 -1.85072 0
M  V30 3230 H 337.688 5.84761 -2.79211 0
M  V30 3231 N 331.094 0.475555 1.50254 0
M  V30 3232 C 332.34 -0.0780073 2.0265 0
M  V30 3233 C 332.673 -1.38968 1.35652 0
M  V30 3234 O 331.948 -1.8839 0.483691 0
M  V30 3235 C 332.231 -0.257161 3.59181 0
M  V30 3236 C 332.084 1.07585 4.36744 0
M  V30 3237 C 333.403 -1.00965 4.28362 0
M  V30 3238 H 330.522 -0.0268758 0.73651 0
M  V30 3239 H 333.164 0.622015 1.7953 0
M  V30 3240 H 331.314 -0.853412 3.79011 0
M  V30 3241 H 332.986 1.70902 4.28474 0
M  V30 3242 H 331.229 1.6714 4.00308 0
M  V30 3243 H 331.9 0.904088 5.44546 0
M  V30 3244 H 334.376 -0.504214 4.13034 0
M  V30 3245 H 333.252 -1.10381 5.37687 0
M  V30 3246 H 333.513 -2.04731 3.91839 0
M  V30 3247 N 332.573 -1.56217 0.208337 0
M  V30 3248 C 333.52 -2.19699 -0.707192 0
M  V30 3249 C 334.49 -1.14836 -1.20008 0
M  V30 3250 O 335.675 -1.4314 -1.26157 0
M  V30 3251 C 332.815 -2.87061 -1.91546 0
M  V30 3252 C 331.928 -4.06483 -1.46271 0
M  V30 3253 C 331.063 -4.61665 -2.62752 0
M  V30 3254 C 330.102 -5.73417 -2.14147 0
M  V30 3255 N 329.239 -6.22948 -3.23853 0
M  V30 3256 H 334.079 -2.97575 -0.159111 0
M  V30 3257 H 331.616 -1.46948 -0.0667874 0
M  V30 3258 H 333.574 -3.24294 -2.62468 0
M  V30 3259 H 332.204 -2.11725 -2.43664 0
M  V30 3260 H 331.256 -3.74825 -0.648886 0
M  V30 3261 H 332.568 -4.87271 -1.06622 0
M  V30 3262 H 331.722 -5.01272 -3.41776 0
M  V30 3263 H 330.461 -3.80013 -3.05682 0
M  V30 3264 H 329.466 -5.33326 -1.33581 0
M  V30 3265 H 330.691 -6.56897 -1.72232 0
M  V30 3266 H 328.637 -5.44213 -3.6629 0
M  V30 3267 H 328.554 -6.98823 -2.88414 0
M  V30 3268 H 329.822 -6.6721 -4.03052 0
M  V30 3269 N 334.051 0.0651679 -1.57465 0
M  V30 3270 C 335.297 0.764193 -1.87851 0
M  V30 3271 C 335.63 1.76889 -0.801495 0
M  V30 3272 O 334.905 1.93594 0.187528 0
M  V30 3273 C 335.188 1.46625 -3.28897 0
M  V30 3274 C 335.041 0.477515 -4.47258 0
M  V30 3275 C 336.36 2.4095 -3.68281 0
M  V30 3276 H 333.479 0.276351 -0.683227 0
M  V30 3277 H 336.121 0.0272868 -1.8998 0
M  V30 3278 H 334.271 2.09438 -3.27212 0
M  V30 3279 H 335.943 -0.145922 -4.61069 0
M  V30 3280 H 334.186 -0.206576 -4.33308 0
M  V30 3281 H 334.857 1.0065 -5.42746 0
M  V30 3282 H 337.333 1.88209 -3.71102 0
M  V30 3283 H 336.209 2.87072 -4.67847 0
M  V30 3284 H 336.47 3.26049 -2.98571 0
M  V30 3285 N 335.529 1.53961 0.336706 0
M  V30 3286 C 336.806 1.62171 1.09361 0
M  V30 3287 C 337.186 0.447263 2.06307 0
M  V30 3288 O 336.534 -0.559802 2.21537 0
M  V30 3289 C 336.744 2.98565 1.80721 0
M  V30 3290 C 338.092 3.54157 2.34218 0
M  V30 3291 O 339.116 3.00784 1.90807 0
M  V30 3292 O 337.975 4.47528 3.13657 0
M  V30 3293 H 335.069 0.6562 0.503319 0
M  V30 3294 H 337.615 1.66307 0.33765 0
M  V30 3295 H 336.387 3.75482 1.10132 0
M  V30 3296 H 336.01 2.9805 2.63158 0
M  V30 3297 N 337.007 -0.598083 1.45811 0
M  V30 3298 C 337.955 -1.72932 1.55555 0
M  V30 3299 C 338.949 -1.63984 0.424921 0
M  V30 3300 O 340.155 -1.69663 0.601205 0
M  V30 3301 H 336.53 -0.571489 0.488779 0
M  V30 3302 H 338.501 -1.61842 2.50699 0
M  V30 3303 C 337.25 -3.11318 1.54843 0
M  V30 3304 H 336.573 -3.18867 2.41172 0
M  V30 3305 H 338.013 -3.90274 1.65717 0
M  V30 3306 C 336.472 -3.3578 0.274427 0
M  V30 3307 O 337.002 -3.9654 -0.641778 0
M  V30 3308 N 335.208 -2.90119 0.167139 0
M  V30 3309 H 334.755 -2.40855 0.913596 0
M  V30 3310 H 334.713 -3.0686 -0.684435 0
M  V30 3311 N 338.485 -1.33259 -0.841409 0
M  V30 3312 C 339.713 -1.27605 -1.62864 0
M  V30 3313 C 340.128 0.153507 -1.88175 0
M  V30 3314 O 339.485 1.09485 -1.46011 0
M  V30 3315 C 339.536 -2.04596 -2.98031 0
M  V30 3316 O 339.257 -3.41975 -2.73834 0
M  V30 3317 C 340.758 -2.06122 -3.92465 0
M  V30 3318 H 337.978 -0.439718 -0.506842 0
M  V30 3319 H 340.522 -1.75591 -1.04824 0
M  V30 3320 H 338.677 -1.60299 -3.5268 0
M  V30 3321 H 339.091 -3.81549 -3.59889 0
M  V30 3322 H 340.565 -2.64451 -4.84531 0
M  V30 3323 H 341.042 -1.05083 -4.26444 0
M  V30 3324 H 341.648 -2.50427 -3.43753 0
M  V30 3325 N 339.963 1.05934 -1.16686 0
M  V30 3326 C 341.188 1.83029 -0.975455 0
M  V30 3327 C 341.613 1.82096 0.471452 0
M  V30 3328 O 340.971 1.22443 1.33706 0
M  V30 3329 C 341.019 3.27372 -1.51195 0
M  V30 3330 O 340.123 4.06054 -0.720701 0
M  V30 3331 H 339.464 0.566194 -0.346872 0
M  V30 3332 H 341.994 1.33541 -1.55009 0
M  V30 3333 H 342.004 3.78186 -1.53099 0
M  V30 3334 H 340.679 3.27366 -2.56523 0
M  V30 3335 H 339.256 3.64812 -0.772458 0
M  V30 3336 N 341.441 0.965919 1.2453 0
M  V30 3337 C 342.852 0.665929 1.7442 0
M  V30 3338 C 343.203 -0.818407 1.78316 0
M  V30 3339 O 342.328 -1.64037 1.41141 0
M  V30 3340 C 342.923 1.20211 3.16757 0
M  V30 3341 C 341.482 0.952059 3.6416 0
M  V30 3342 C 340.629 1.33848 2.42858 0
M  V30 3343 H 343.58 1.14144 1.10258 0
M  V30 3344 H 343.601 0.567544 3.76244 0
M  V30 3345 H 343.113 2.28244 3.13889 0
M  V30 3346 H 341.214 -0.112821 3.72429 0
M  V30 3347 H 341.327 1.59645 4.51719 0
M  V30 3348 H 339.691 0.756864 2.43195 0
M  V30 3349 H 340.474 2.42827 2.42673 0
M  V30 3350 N 342.919 -1.39368 0.735821 0
M  V30 3351 C 344.167 -2.00101 0.283562 0
M  V30 3352 C 344.488 -1.5868 -1.13338 0
M  V30 3353 O 343.758 -0.835423 -1.77193 0
M  V30 3354 H 342.338 -0.740024 0.101851 0
M  V30 3355 H 345 -1.70404 0.945962 0
M  V30 3356 H 344.096 -3.10323 0.332604 0
M  V30 3357 N 344.397 -0.483516 -1.5 0
M  V30 3358 C 345.644 0.0671597 -2.02389 0
M  V30 3359 C 345.972 1.38597 -1.36459 0
M  V30 3360 O 345.227 1.89634 -0.483458 0
M  V30 3361 C 345.526 0.286226 -3.56252 0
M  V30 3362 C 345.192 -0.952416 -4.40726 0
M  V30 3363 C 343.854 -1.29199 -4.63531 0
M  V30 3364 C 346.206 -1.77655 -4.89988 0
M  V30 3365 C 343.534 -2.45553 -5.32842 0
M  V30 3366 C 345.886 -2.93147 -5.60578 0
M  V30 3367 C 344.55 -3.27505 -5.81633 0
M  V30 3368 H 343.82 0.0245755 -0.740592 0
M  V30 3369 H 346.467 -0.640124 -1.80485 0
M  V30 3370 H 344.772 1.07587 -3.76739 0
M  V30 3371 H 346.469 0.726473 -3.94365 0
M  V30 3372 H 343.059 -0.677881 -4.23205 0
M  V30 3373 H 347.243 -1.52737 -4.72213 0
M  V30 3374 H 342.499 -2.72431 -5.47349 0
M  V30 3375 H 346.673 -3.57344 -5.97727 0
M  V30 3376 H 344.3 -4.1777 -6.35116 0
M  V30 3377 N 345.875 1.56104 -0.216619 0
M  V30 3378 C 347.122 1.98172 0.416416 0
M  V30 3379 C 347.45 1.10413 1.60122 0
M  V30 3380 O 346.705 0.147967 1.9514 0
M  V30 3381 C 347.004 3.45923 0.898464 0
M  V30 3382 C 346.67 4.50559 -0.175288 0
M  V30 3383 C 345.332 4.78897 -0.470271 0
M  V30 3384 C 347.684 5.1334 -0.901728 0
M  V30 3385 C 345.012 5.67299 -1.4963 0
M  V30 3386 C 347.364 6.02853 -1.91705 0
M  V30 3387 C 346.028 6.29537 -2.21901 0
M  V30 3388 H 345.298 0.725164 0.152377 0
M  V30 3389 H 347.945 1.88839 -0.318103 0
M  V30 3390 H 346.25 3.52434 1.71165 0
M  V30 3391 H 347.947 3.75841 1.39803 0
M  V30 3392 H 344.537 4.28551 0.0647806 0
M  V30 3393 H 348.721 4.91521 -0.687072 0
M  V30 3394 H 343.977 5.86239 -1.73592 0
M  V30 3395 H 348.151 6.50552 -2.48505 0
M  V30 3396 H 345.778 6.97835 -3.01548 0
M  V30 3397 N 347.353 -0.0568162 1.57498 0
M  V30 3398 C 348.316 -1.05038 2.03715 0
M  V30 3399 C 349.316 -1.30709 0.936577 0
M  V30 3400 O 350.506 -1.26178 1.20103 0
M  V30 3401 C 347.638 -2.39034 2.43055 0
M  V30 3402 H 348.831 -0.651715 2.92733 0
M  V30 3403 H 346.384 -0.302947 1.53336 0
M  V30 3404 H 347.119 -2.83703 1.57108 0
M  V30 3405 H 346.904 -2.21739 3.2338 0
M  V30 3406 H 348.394 -3.10421 2.79336 0
M  V30 3407 N 348.832 -1.54138 -0.328536 0
M  V30 3408 C 350.08 -1.71765 -1.06496 0
M  V30 3409 C 350.401 -0.49149 -1.88704 0
M  V30 3410 O 349.671 0.494539 -1.89555 0
M  V30 3411 H 348.251 -0.633295 -0.396164 0
M  V30 3412 H 350.913 -1.91429 -0.366176 0
M  V30 3413 H 350.009 -2.5951 -1.73381 0
M  V30 3414 N 350.31 0.590341 -1.46126 0
M  V30 3415 C 351.273 1.68194 -1.55703 0
M  V30 3416 C 352.273 1.54808 -0.434868 0
M  V30 3417 O 353.463 1.59564 -0.698928 0
M  V30 3418 C 350.595 3.07575 -1.47005 0
M  V30 3419 H 351.788 1.61064 -2.52979 0
M  V30 3420 H 349.341 0.807541 -1.33823 0
M  V30 3421 H 350.076 3.20268 -0.509785 0
M  V30 3422 H 349.861 3.187 -2.28414 0
M  V30 3423 H 351.351 3.87055 -1.56776 0
M  V30 3424 N 351.788 1.33704 0.83433 0
M  V30 3425 C 353.034 1.25603 1.59222 0
M  V30 3426 C 353.367 -0.176659 1.93395 0
M  V30 3427 O 352.642 -1.11915 1.59076 0
M  V30 3428 C 352.925 2.13576 2.89926 0
M  V30 3429 C 352.778 3.65326 2.62406 0
M  V30 3430 C 354.097 2.01238 3.91397 0
M  V30 3431 H 351.216 0.457613 0.577719 0
M  V30 3432 H 353.858 1.63848 0.961972 0
M  V30 3433 H 352.008 1.8109 3.43713 0
M  V30 3434 H 353.68 4.08124 2.15017 0
M  V30 3435 H 351.923 3.8698 1.96033 0
M  V30 3436 H 352.594 4.22232 3.55562 0
M  V30 3437 H 355.07 2.29738 3.46929 0
M  V30 3438 H 353.946 2.65036 4.80673 0
M  V30 3439 H 354.207 0.985951 4.30966 0
M  V30 3440 N 353.266 -1.05314 1.17247 0
M  V30 3441 C 354.512 -1.78699 0.971513 0
M  V30 3442 C 354.867 -1.85932 -0.494692 0
M  V30 3443 O 354.16 -1.34716 -1.36243 0
M  V30 3444 C 354.354 -3.2229 1.54479 0
M  V30 3445 C 354.183 -3.29052 3.06521 0
M  V30 3446 C 352.953 -3.3841 3.75242 0
M  V30 3447 C 355.151 -3.18095 4.04129 0
M  V30 3448 N 353.133 -3.34289 5.14902 0
M  V30 3449 C 354.504 -3.21331 5.30232 0
M  V30 3450 C 356.559 -3.02049 3.95817 0
M  V30 3451 C 355.262 -3.10169 6.4899 0
M  V30 3452 C 357.288 -2.92228 5.14156 0
M  V30 3453 C 356.65 -2.96096 6.39145 0
M  V30 3454 H 352.749 -0.66628 0.409383 0
M  V30 3455 H 355.333 -1.25553 1.4881 0
M  V30 3456 H 353.504 -3.7381 1.05455 0
M  V30 3457 H 355.236 -3.83905 1.28059 0
M  V30 3458 H 351.991 -3.43621 3.25917 0
M  V30 3459 H 352.415 -3.35702 5.87906 0
M  V30 3460 H 357.057 -2.97897 3.00029 0
M  V30 3461 H 354.775 -3.13076 7.44989 0
M  V30 3462 H 358.361 -2.80885 5.09505 0
M  V30 3463 H 357.241 -2.88568 7.29176 0
M  V30 3464 N 354.744 -0.972509 -1.24016 0
M  V30 3465 C 355.691 -0.505969 -2.25186 0
M  V30 3466 C 356.661 0.451009 -1.5986 0
M  V30 3467 O 357.846 0.360307 -1.87367 0
M  V30 3468 C 354.986 0.193089 -3.44559 0
M  V30 3469 C 354.099 -0.803222 -4.24467 0
M  V30 3470 C 353.234 -0.0797793 -5.3114 0
M  V30 3471 C 352.273 -1.06583 -6.02749 0
M  V30 3472 N 351.41 -0.372074 -7.01113 0
M  V30 3473 H 356.25 -1.37351 -2.64459 0
M  V30 3474 H 353.787 -0.688419 -1.29997 0
M  V30 3475 H 355.745 0.615125 -4.1264 0
M  V30 3476 H 354.375 1.02455 -3.06109 0
M  V30 3477 H 353.427 -1.34368 -3.55878 0
M  V30 3478 H 354.739 -1.55494 -4.73944 0
M  V30 3479 H 353.893 0.400015 -6.0538 0
M  V30 3480 H 352.632 0.704597 -4.82583 0
M  V30 3481 H 351.637 -1.55645 -5.27309 0
M  V30 3482 H 352.862 -1.85074 -6.53395 0
M  V30 3483 H 350.808 0.393238 -6.5482 0
M  V30 3484 H 350.725 -1.06258 -7.48495 0
M  V30 3485 H 351.993 0.0855932 -7.79453 0
M  V30 3486 N 356.222 1.38976 -0.743202 0
M  V30 3487 C 357.633 1.83123 -0.363732 0
M  V30 3488 C 357.984 1.6205 1.10609 0
M  V30 3489 O 357.109 1.11606 1.854 0
M  V30 3490 C 357.704 3.32439 -0.653408 0
M  V30 3491 C 356.263 3.74974 -0.327338 0
M  V30 3492 C 355.41 2.61878 -0.911875 0
M  V30 3493 H 358.361 1.27852 -0.940191 0
M  V30 3494 H 358.382 3.80432 0.0720031 0
M  V30 3495 H 357.894 3.47745 -1.72323 0
M  V30 3496 H 355.995 3.65252 0.736314 0
M  V30 3497 H 356.108 4.72106 -0.815631 0
M  V30 3498 H 354.472 2.52448 -0.337944 0
M  V30 3499 H 355.255 2.79987 -1.98651 0
M  V30 3500 N 357.7 0.491464 1.49741 0
M  V30 3501 C 358.928 -0.0535151 2.06831 0
M  V30 3502 C 359.343 -1.31683 1.35296 0
M  V30 3503 O 358.7 -1.77402 0.42836 0
M  V30 3504 C 358.751 -0.320835 3.60073 0
M  V30 3505 O 358.472 0.892394 4.28915 0
M  V30 3506 C 359.973 -0.910519 4.33848 0
M  V30 3507 H 357.193 0.0161909 0.670805 0
M  V30 3508 H 359.737 0.68609 1.92647 0
M  V30 3509 H 357.892 -1.0104 3.73991 0
M  V30 3510 H 358.306 0.649401 5.20464 0
M  V30 3511 H 359.78 -1.04721 5.41976 0
M  V30 3512 H 360.257 -1.90589 3.95692 0
M  V30 3513 H 360.863 -0.258712 4.24512 0
M  V30 3514 N 359.178 -1.55987 0.224894 0
M  V30 3515 C 360.455 -1.90232 -0.455083 0
M  V30 3516 C 360.835 -1.14269 -1.77499 0
M  V30 3517 O 360.183 -0.253079 -2.27094 0
M  V30 3518 C 360.393 -3.42993 -0.644758 0
M  V30 3519 C 361.741 -4.13821 -0.950669 0
M  V30 3520 O 362.765 -3.4861 -0.731423 0
M  V30 3521 O 361.624 -5.29128 -1.36695 0
M  V30 3522 H 358.718 -0.79108 -0.241084 0
M  V30 3523 H 361.264 -1.67581 0.267327 0
M  V30 3524 H 360.036 -3.90252 0.28613 0
M  V30 3525 H 359.659 -3.71434 -1.41853 0
M  V30 3526 N 360.656 0.0484629 -1.57525 0
M  V30 3527 C 362.072 0.40375 -1.54409 0
M  V30 3528 C 362.272 1.77786 -0.948384 0
M  V30 3529 O 361.328 2.46189 -0.560983 0
M  V30 3530 C 362.641 0.323394 -2.98956 0
M  V30 3531 C 364.189 0.401892 -3.10409 0
M  V30 3532 C 364.664 0.351195 -4.56652 0
M  V30 3533 N 366.155 0.410576 -4.61377 0
M  V30 3534 C 366.89 0.393933 -5.72045 0
M  V30 3535 N 366.386 0.330724 -6.9201 0
M  V30 3536 N 368.179 0.442227 -5.60358 0
M  V30 3537 H 360.33 -0.851016 -1.94606 0
M  V30 3538 H 362.593 -0.321721 -0.89174 0
M  V30 3539 H 362.299 -0.62011 -3.4619 0
M  V30 3540 H 362.173 1.12463 -3.60044 0
M  V30 3541 H 364.56 1.33582 -2.63134 0
M  V30 3542 H 364.641 -0.428342 -2.52188 0
M  V30 3543 H 364.285 -0.578987 -5.04589 0
M  V30 3544 H 364.215 1.19928 -5.12762 0
M  V30 3545 H 366.706 0.462729 -3.75056 0
M  V30 3546 H 367.019 0.322592 -7.72126 0
M  V30 3547 H 365.364 0.29706 -6.94365 0
M  V30 3548 H 368.555 0.489464 -4.65534 0
M  V30 3549 H 368.728 0.425788 -6.466 0
M  V30 3550 N 362.134 1.5431 0.320358 0
M  V30 3551 C 363.411 1.63322 1.07635 0
M  V30 3552 C 363.791 0.46912 2.05821 0
M  V30 3553 O 363.139 -0.536274 2.22118 0
M  V30 3554 C 363.349 3.00465 1.77544 0
M  V30 3555 C 364.697 3.56621 2.30449 0
M  V30 3556 O 365.721 3.02791 1.87606 0
M  V30 3557 O 364.58 4.5083 3.08892 0
M  V30 3558 H 361.674 0.661502 0.496331 0
M  V30 3559 H 364.22 1.66656 0.319992 0
M  V30 3560 H 362.992 3.76629 1.06143 0
M  V30 3561 H 362.615 3.00824 2.59982 0
M  V30 3562 N 363.613 -0.582584 1.46437 0
M  V30 3563 C 364.841 -1.36682 1.55324 0
M  V30 3564 C 365.256 -1.87796 0.194409 0
M  V30 3565 O 364.613 -1.63623 -0.808318 0
M  V30 3566 C 364.664 -2.55426 2.55812 0
M  V30 3567 O 364.385 -2.0643 3.86417 0
M  V30 3568 C 365.886 -3.47976 2.74641 0
M  V30 3569 H 363.106 -0.417545 0.525259 0
M  V30 3570 H 365.65 -0.708219 1.91845 0
M  V30 3571 H 363.805 -3.17275 2.22295 0
M  V30 3572 H 364.219 -2.83762 4.41111 0
M  V30 3573 H 365.693 -4.27775 3.48874 0
M  V30 3574 H 366.17 -3.99919 1.81553 0
M  V30 3575 H 366.776 -2.91962 3.09255 0
M  V30 3576 N 365.091 -1.34144 -0.827227 0
M  V30 3577 C 366.021 -1.28005 -1.95287 0
M  V30 3578 C 367.002 -0.158321 -1.69362 0
M  V30 3579 O 368.187 -0.349987 -1.9102 0
M  V30 3580 C 365.317 -1.03036 -3.31664 0
M  V30 3581 C 364.271 -2.11628 -3.72019 0
M  V30 3582 C 363.597 -1.71854 -5.0633 0
M  V30 3583 C 364.897 -3.53417 -3.8457 0
M  V30 3584 H 366.591 -2.22187 -2.00682 0
M  V30 3585 H 364.137 -1.0696 -0.964135 0
M  V30 3586 H 366.09 -0.973863 -4.09993 0
M  V30 3587 H 364.814 -0.0529391 -3.26557 0
M  V30 3588 H 363.473 -2.16339 -2.95961 0
M  V30 3589 H 363.121 -0.727841 -4.97706 0
M  V30 3590 H 362.821 -2.44531 -5.34302 0
M  V30 3591 H 364.345 -1.67692 -5.87122 0
M  V30 3592 H 365.759 -3.51142 -4.5318 0
M  V30 3593 H 364.156 -4.24679 -4.2399 0
M  V30 3594 H 365.226 -3.91072 -2.86689 0
M  V30 3595 N 366.569 1.04691 -1.17803 0
M  V30 3596 C 367.817 1.7743 -0.967617 0
M  V30 3597 C 368.138 1.88359 0.504574 0
M  V30 3598 O 367.408 1.40402 1.36617 0
M  V30 3599 H 365.988 0.657242 -0.355024 0
M  V30 3600 H 368.65 1.2638 -1.48371 0
M  V30 3601 H 367.746 2.78924 -1.40027 0
M  V30 3602 N 368.047 0.979072 1.23499 0
M  V30 3603 C 369.294 0.647219 1.91878 0
M  V30 3604 C 369.622 -0.819074 1.76413 0
M  V30 3605 O 368.877 -1.60616 1.11808 0
M  V30 3606 C 369.176 0.981932 3.43646 0
M  V30 3607 C 368.842 2.43822 3.79291 0
M  V30 3608 C 367.504 2.83622 3.88731 0
M  V30 3609 C 369.856 3.3828 3.96505 0
M  V30 3610 C 367.184 4.16897 4.12812 0
M  V30 3611 C 369.536 4.71197 4.22085 0
M  V30 3612 C 368.2 5.10758 4.29747 0
M  V30 3613 H 367.47 0.236834 0.702133 0
M  V30 3614 H 370.117 1.23268 1.46551 0
M  V30 3615 H 368.422 0.314365 3.90537 0
M  V30 3616 H 370.119 0.703395 3.94783 0
M  V30 3617 H 366.709 2.11966 3.72516 0
M  V30 3618 H 370.893 3.0871 3.88603 0
M  V30 3619 H 366.149 4.47157 4.16966 0
M  V30 3620 H 370.323 5.44348 4.34348 0
M  V30 3621 H 367.95 6.1405 4.48159 0
M  V30 3622 N 369.525 -1.3858 0.750561 0
M  V30 3623 C 370.488 -2.28836 0.129152 0
M  V30 3624 C 371.488 -1.47045 -0.650714 0
M  V30 3625 O 372.678 -1.6753 -0.477428 0
M  V30 3626 C 369.81 -3.30751 -0.825622 0
M  V30 3627 H 371.003 -2.85294 0.924516 0
M  V30 3628 H 368.556 -1.47489 0.517376 0
M  V30 3629 H 369.291 -2.79378 -1.64677 0
M  V30 3630 H 369.076 -3.91177 -0.268852 0
M  V30 3631 H 370.566 -3.98249 -1.2565 0
M  V30 3632 N 371.003 -0.499398 -1.49478 0
M  V30 3633 C 372.233 0.0424839 -2.06556 0
M  V30 3634 C 372.641 1.31514 -1.36018 0
M  V30 3635 O 371.984 1.78555 -0.431718 0
M  V30 3636 C 372.046 0.368074 -3.57611 0
M  V30 3637 C 371.71 -0.806631 -4.49825 0
M  V30 3638 C 372.707 -1.69667 -4.91436 0
M  V30 3639 C 370.392 -1.00498 -4.92144 0
M  V30 3640 C 372.386 -2.76923 -5.74101 0
M  V30 3641 C 370.073 -2.08072 -5.74586 0
M  V30 3642 C 371.071 -2.96119 -6.15469 0
M  V30 3643 O 370.759 -4.01836 -6.96264 0
M  V30 3644 H 370.491 -0.0165165 -0.675798 0
M  V30 3645 H 373.045 -0.695497 -1.93267 0
M  V30 3646 H 371.275 1.15963 -3.68903 0
M  V30 3647 H 372.964 0.848381 -3.96935 0
M  V30 3648 H 373.73 -1.55524 -4.59388 0
M  V30 3649 H 369.609 -0.329036 -4.59824 0
M  V30 3650 H 373.153 -3.45676 -6.05932 0
M  V30 3651 H 369.05 -2.22211 -6.06047 0
M  V30 3652 H 369.818 -3.9917 -7.14567 0
M  V30 3653 N 372.481 1.55866 -0.233164 0
M  V30 3654 C 373.431 2.17442 0.685774 0
M  V30 3655 C 374.415 1.12617 1.14918 0
M  V30 3656 O 375.607 1.3857 1.10124 0
M  V30 3657 C 372.736 2.86685 1.88856 0
M  V30 3658 C 371.822 3.98749 1.4443 0
M  V30 3659 N 372.213 5.00744 0.713364 0
M  V30 3660 C 370.511 4.11052 1.73068 0
M  V30 3661 C 371.212 5.79673 0.485205 0
M  V30 3662 N 370.188 5.33454 1.04536 0
M  V30 3663 H 373.99 2.93659 0.119022 0
M  V30 3664 H 371.504 1.62362 -0.0348995 0
M  V30 3665 H 373.501 3.29218 2.55776 0
M  V30 3666 H 372.161 2.11967 2.45967 0
M  V30 3667 H 373.172 5.16613 0.364861 0
M  V30 3668 H 369.849 3.47495 2.31416 0
M  V30 3669 H 371.239 6.71829 -0.097365 0
M  V30 3670 N 373.959 -0.0401083 1.57549 0
M  V30 3671 C 374.922 -1.02871 2.04817 0
M  V30 3672 C 375.922 -1.29708 0.950388 0
M  V30 3673 O 377.112 -1.24897 1.21435 0
M  V30 3674 C 374.244 -2.36443 2.45576 0
M  V30 3675 H 375.437 -0.620631 2.93408 0
M  V30 3676 H 372.99 -0.286667 1.53649 0
M  V30 3677 H 373.725 -2.82021 1.60108 0
M  V30 3678 H 373.51 -2.18296 3.25713 0
M  V30 3679 H 375 -3.07441 2.82612 0
M  V30 3680 N 375.437 -1.54477 -0.31217 0
M  V30 3681 C 376.384 -1.84655 -1.38461 0
M  V30 3682 C 377.354 -0.694536 -1.50882 0
M  V30 3683 O 378.539 -0.942081 -1.6592 0
M  V30 3684 C 375.679 -2.0896 -2.74645 0
M  V30 3685 C 374.792 -3.36618 -2.70763 0
M  V30 3686 C 373.927 -3.50824 -3.98868 0
M  V30 3687 C 372.966 -4.72315 -3.89339 0
M  V30 3688 N 372.103 -4.83387 -5.09197 0
M  V30 3689 H 376.943 -2.76142 -1.12026 0
M  V30 3690 H 374.48 -1.36748 -0.542065 0
M  V30 3691 H 376.438 -2.21045 -3.53829 0
M  V30 3692 H 375.068 -1.20752 -2.99364 0
M  V30 3693 H 374.12 -3.33211 -1.83506 0
M  V30 3694 H 375.432 -4.25917 -2.59608 0
M  V30 3695 H 374.586 -3.62513 -4.86486 0
M  V30 3696 H 373.325 -2.59638 -4.12843 0
M  V30 3697 H 372.33 -4.6067 -3.00105 0
M  V30 3698 H 373.555 -5.64897 -3.76919 0
M  V30 3699 H 371.501 -3.9512 -5.23657 0
M  V30 3700 H 371.418 -5.66669 -5.00422 0
M  V30 3701 H 372.686 -4.9942 -5.98498 0
M  V30 3702 N 376.915 0.57481 -1.46744 0
M  V30 3703 C 378.164 1.32898 -1.51727 0
M  V30 3704 C 378.477 1.948 -0.176692 0
M  V30 3705 O 379.683 2.71299 -0.104385 0
M  V30 3706 C 378.139 2.40901 -2.67385 0
M  V30 3707 C 377.747 1.85266 -4.07898 0
M  V30 3708 C 379.491 3.17609 -2.81646 0
M  V30 3709 C 377.398 2.90945 -5.14883 0
M  V30 3710 H 376.328 0.499631 -0.564699 0
M  V30 3711 H 378.979 0.612536 -1.72975 0
M  V30 3712 H 377.361 3.15379 -2.39483 0
M  V30 3713 H 378.535 1.17278 -4.45626 0
M  V30 3714 H 376.85 1.21199 -3.98371 0
M  V30 3715 H 379.447 3.96493 -3.58744 0
M  V30 3716 H 379.79 3.70696 -1.89448 0
M  V30 3717 H 380.323 2.50239 -3.09233 0
M  V30 3718 H 377.062 2.42736 -6.089 0
M  V30 3719 H 376.582 3.57398 -4.81691 0
M  V30 3720 H 378.261 3.54755 -5.41071 0
M  V30 3721 N 378.394 1.34581 0.820102 0
M  V30 3722 C 379.81 1.14325 1.11364 0
M  V30 3723 C 380.01 -0.0533648 2.01429 0
M  V30 3724 O 379.066 -0.728044 2.41776 0
M  V30 3725 C 380.379 2.43983 1.75764 0
M  V30 3726 C 381.927 2.50065 1.88246 0
M  V30 3727 C 382.402 3.79732 2.56061 0
M  V30 3728 N 383.893 3.80908 2.63558 0
M  V30 3729 C 384.628 4.77961 3.16766 0
M  V30 3730 N 384.124 5.85397 3.70517 0
M  V30 3731 N 385.917 4.65413 3.15194 0
M  V30 3732 H 378.068 2.11246 0.221096 0
M  V30 3733 H 380.331 0.934289 0.160649 0
M  V30 3734 H 380.037 3.31651 1.1705 0
M  V30 3735 H 379.911 2.57531 2.75604 0
M  V30 3736 H 382.298 1.62834 2.46108 0
M  V30 3737 H 382.379 2.40442 0.873006 0
M  V30 3738 H 382.023 4.67354 1.98853 0
M  V30 3739 H 381.953 3.86639 3.57516 0
M  V30 3740 H 384.444 3.03274 2.25463 0
M  V30 3741 H 384.757 6.55463 4.09376 0
M  V30 3742 H 383.102 5.89107 3.68752 0
M  V30 3743 H 386.293 3.80627 2.72471 0
M  V30 3744 H 386.466 5.41216 3.56356 0
M  V30 3745 N 379.872 -1.04064 1.18357 0
M  V30 3746 C 380.82 -2.14187 0.907007 0
M  V30 3747 C 381.814 -1.68879 -0.132725 0
M  V30 3748 O 383.02 -1.79993 0.0154248 0
M  V30 3749 H 379.395 -0.699585 0.275835 0
M  V30 3750 H 381.366 -2.34711 1.84264 0
M  V30 3751 C 380.115 -3.44785 0.449254 0
M  V30 3752 H 379.438 -3.80058 1.24081 0
M  V30 3753 H 380.878 -4.22974 0.294737 0
M  V30 3754 C 379.337 -3.26391 -0.834909 0
M  V30 3755 O 379.867 -3.53973 -1.89911 0
M  V30 3756 N 378.073 -2.79726 -0.787523 0
M  V30 3757 H 377.62 -2.5748 0.0787347 0
M  V30 3758 H 377.578 -2.67798 -1.64716 0
M  V30 3759 N 381.35 -0.985608 -1.22978 0
M  V30 3760 C 382.297 -0.529825 -2.24636 0
M  V30 3761 C 383.267 0.434028 -1.60329 0
M  V30 3762 O 384.452 0.340414 -1.87739 0
M  V30 3763 C 381.592 0.156533 -3.44745 0
M  V30 3764 C 380.705 -0.848197 -4.23591 0
M  V30 3765 C 379.84 -0.136109 -5.31026 0
M  V30 3766 C 378.879 -1.1297 -6.01585 0
M  V30 3767 N 378.016 -0.446415 -7.00679 0
M  V30 3768 H 382.856 -1.40148 -2.62988 0
M  V30 3769 H 380.393 -0.702168 -1.29259 0
M  V30 3770 H 382.351 0.571324 -4.1327 0
M  V30 3771 H 380.981 0.992025 -3.07179 0
M  V30 3772 H 380.033 -1.38135 -3.54433 0
M  V30 3773 H 381.345 -1.60512 -4.72268 0
M  V30 3774 H 380.499 0.335784 -6.0577 0
M  V30 3775 H 379.238 0.653373 -4.83304 0
M  V30 3776 H 378.243 -1.6123 -5.25628 0
M  V30 3777 H 379.468 -1.91993 -6.51395 0
M  V30 3778 H 377.414 0.323763 -6.55201 0
M  V30 3779 H 377.331 -1.1419 -7.47326 0
M  V30 3780 H 378.599 0.00291697 -7.795 0
M  V30 3781 N 382.828 1.3818 -0.7579 0
M  V30 3782 C 383.758 2.33027 -0.148597 0
M  V30 3783 C 384.739 1.55085 0.69875 0
M  V30 3784 O 385.924 1.83384 0.639053 0
M  V30 3785 C 383.054 3.3928 0.742034 0
M  V30 3786 C 382.008 4.28 -0.00291946 0
M  V30 3787 C 381.334 5.25146 1.00625 0
M  V30 3788 C 382.634 5.08938 -1.17385 0
M  V30 3789 H 384.328 2.84231 -0.940909 0
M  V30 3790 H 381.874 1.36659 -0.453908 0
M  V30 3791 H 383.827 4.046 1.17799 0
M  V30 3792 H 382.551 2.86569 1.56671 0
M  V30 3793 H 381.21 3.64192 -0.419504 0
M  V30 3794 H 380.858 4.68721 1.8251 0
M  V30 3795 H 380.558 5.85361 0.512428 0
M  V30 3796 H 382.082 5.93342 1.44143 0
M  V30 3797 H 383.496 5.67474 -0.815224 0
M  V30 3798 H 381.893 5.7841 -1.59882 0
M  V30 3799 H 382.963 4.42424 -1.98468 0
M  V30 3800 N 384.306 0.507319 1.49211 0
M  V30 3801 C 385.253 -0.267728 2.29242 0
M  V30 3802 C 386.223 -0.954609 1.35928 0
M  V30 3803 O 387.408 -0.960046 1.64887 0
M  V30 3804 C 384.548 -1.32243 3.18756 0
M  V30 3805 C 383.661 -0.64669 4.27132 0
M  V30 3806 C 382.796 -1.68238 5.03855 0
M  V30 3807 C 381.835 -0.98885 6.0406 0
M  V30 3808 N 380.972 -1.96903 6.73924 0
M  V30 3809 H 385.812 0.420968 2.95012 0
M  V30 3810 H 383.349 0.219443 1.45454 0
M  V30 3811 H 385.307 -1.94599 3.69036 0
M  V30 3812 H 383.937 -1.97981 2.54958 0
M  V30 3813 H 382.989 0.0902926 3.80293 0
M  V30 3814 H 384.301 -0.101058 4.98698 0
M  V30 3815 H 383.455 -2.38081 5.58034 0
M  V30 3816 H 382.194 -2.26187 4.32077 0
M  V30 3817 H 381.199 -0.276222 5.49106 0
M  V30 3818 H 382.424 -0.415767 6.77826 0
M  V30 3819 H 380.37 -2.53803 6.04913 0
M  V30 3820 H 380.287 -1.47423 7.41487 0
M  V30 3821 H 381.555 -2.66015 7.32705 0
M  V30 3822 N 385.784 -1.5574 0.241426 0
M  V30 3823 C 387.032 -1.98417 -0.384075 0
M  V30 3824 C 387.353 -1.13078 -1.58866 0
M  V30 3825 O 386.623 -0.212312 -1.94746 0
M  V30 3826 H 385.203 -0.732813 -0.144894 0
M  V30 3827 H 387.865 -1.9193 0.338943 0
M  V30 3828 H 386.961 -3.04219 -0.696939 0
M  V30 3829 N 387.262 0.0317525 -1.57568 0
M  V30 3830 C 388.212 1.04101 -2.02847 0
M  V30 3831 C 389.196 1.3219 -0.917317 0
M  V30 3832 O 390.388 1.31819 -1.18121 0
M  V30 3833 C 387.517 2.34295 -2.5092 0
M  V30 3834 C 386.603 2.09308 -3.68851 0
M  V30 3835 N 386.994 1.5437 -4.81667 0
M  V30 3836 C 385.292 2.39604 -3.76172 0
M  V30 3837 C 385.993 1.45126 -5.63306 0
M  V30 3838 N 384.969 1.92589 -5.08341 0
M  V30 3839 H 388.771 0.610217 -2.87495 0
M  V30 3840 H 386.285 0.238108 -1.60645 0
M  V30 3841 H 388.282 3.07404 -2.81617 0
M  V30 3842 H 386.942 2.78055 -1.67677 0
M  V30 3843 H 387.953 1.22678 -5.03161 0
M  V30 3844 H 384.63 2.86457 -3.03724 0
M  V30 3845 H 386.02 1.03163 -6.63933 0
M  V30 3846 N 388.74 1.54641 0.303973 0
M  V30 3847 C 389.97 1.77511 1.05705 0
M  V30 3848 C 390.378 0.533228 1.81531 0
M  V30 3849 O 389.721 -0.506423 1.76582 0
M  V30 3850 C 389.783 2.92779 2.08617 0
M  V30 3851 C 389.447 4.30977 1.52013 0
M  V30 3852 C 390.444 5.11115 0.9517 0
M  V30 3853 C 388.129 4.77571 1.55665 0
M  V30 3854 C 390.123 6.35966 0.427327 0
M  V30 3855 C 387.81 6.02384 1.02841 0
M  V30 3856 C 388.808 6.81417 0.464713 0
M  V30 3857 O 388.496 8.03881 -0.0555283 0
M  V30 3858 H 388.228 0.59579 0.319391 0
M  V30 3859 H 390.782 2.02401 0.349712 0
M  V30 3860 H 389.012 2.63506 2.83022 0
M  V30 3861 H 390.701 3.03252 2.69802 0
M  V30 3862 H 391.467 4.76264 0.916407 0
M  V30 3863 H 387.346 4.16085 1.9848 0
M  V30 3864 H 390.89 6.97599 -0.0133062 0
M  V30 3865 H 386.787 6.36723 1.06084 0
M  V30 3866 H 387.555 8.18479 0.0580522 0
M  V30 3867 N 390.218 -0.567019 1.47046 0
M  V30 3868 C 391.166 -1.69593 1.59188 0
M  V30 3869 C 392.16 -1.63046 0.459609 0
M  V30 3870 O 393.366 -1.6835 0.637058 0
M  V30 3871 H 389.741 -0.560993 0.500791 0
M  V30 3872 H 391.712 -1.56488 2.54075 0
M  V30 3873 C 390.461 -3.07964 1.61411 0
M  V30 3874 H 389.784 -3.13679 2.47881 0
M  V30 3875 H 391.224 -3.86671 1.73958 0
M  V30 3876 C 389.683 -3.35123 0.34559 0
M  V30 3877 O 390.213 -3.97812 -0.557521 0
M  V30 3878 N 388.419 -2.89699 0.22864 0
M  V30 3879 H 387.966 -2.38863 0.964479 0
M  V30 3880 H 387.924 -3.08242 -0.619192 0
M  V30 3881 N 391.696 -1.35014 -0.812953 0
M  V30 3882 C 392.626 -1.30069 -1.93919 0
M  V30 3883 C 393.607 -0.176275 -1.69184 0
M  V30 3884 O 394.792 -0.370227 -1.90638 0
M  V30 3885 C 391.922 -1.06547 -3.30552 0
M  V30 3886 C 390.876 -2.15561 -3.69753 0
M  V30 3887 C 390.202 -1.77214 -5.04479 0
M  V30 3888 C 391.502 -3.57476 -3.808 0
M  V30 3889 H 393.196 -2.24303 -1.98314 0
M  V30 3890 H 390.742 -1.07977 -0.952736 0
M  V30 3891 H 392.695 -1.01729 -4.08937 0
M  V30 3892 H 391.419 -0.0875719 -3.26483 0
M  V30 3893 H 390.078 -2.19466 -2.9365 0
M  V30 3894 H 389.726 -0.780589 -4.96906 0
M  V30 3895 H 389.426 -2.50184 -5.31678 0
M  V30 3896 H 390.95 -1.7391 -5.8531 0
M  V30 3897 H 392.364 -3.55929 -4.4943 0
M  V30 3898 H 390.761 -4.29152 -4.19462 0
M  V30 3899 H 391.831 -3.94091 -2.82525 0
M  V30 3900 N 393.175 1.03435 -1.18907 0
M  V30 3901 C 394.405 1.8012 -1.01195 0
M  V30 3902 C 394.813 1.8395 0.442613 0
M  V30 3903 O 394.156 1.27836 1.31923 0
M  V30 3904 C 394.218 3.26792 -1.49823 0
M  V30 3905 C 393.882 3.46609 -2.97844 0
M  V30 3906 C 394.879 3.37278 -3.95651 0
M  V30 3907 C 392.564 3.73001 -3.36416 0
M  V30 3908 C 394.558 3.54054 -5.30023 0
M  V30 3909 C 392.245 3.89423 -4.70949 0
M  V30 3910 C 393.243 3.79951 -5.67562 0
M  V30 3911 O 392.931 3.95895 -6.99659 0
M  V30 3912 H 392.663 0.573865 -0.357289 0
M  V30 3913 H 395.217 1.31207 -1.58031 0
M  V30 3914 H 393.447 3.76703 -0.873578 0
M  V30 3915 H 395.136 3.85055 -1.28404 0
M  V30 3916 H 395.902 3.16846 -3.67197 0
M  V30 3917 H 391.781 3.79469 -2.61772 0
M  V30 3918 H 395.325 3.46577 -6.05417 0
M  V30 3919 H 391.222 4.09351 -4.99101 0
M  V30 3920 H 391.99 4.13019 -7.06653 0
M  V30 3921 N 394.653 0.992116 1.22453 0
M  V30 3922 C 395.93 0.583508 1.86694 0
M  V30 3923 C 396.31 -0.9392 1.89056 0
M  V30 3924 O 395.658 -1.82081 1.38053 0
M  V30 3925 C 395.868 1.20304 3.2761 0
M  V30 3926 C 397.216 1.30308 4.0411 0
M  V30 3927 O 398.24 1.15737 3.36873 0
M  V30 3928 O 397.099 1.53615 5.24466 0
M  V30 3929 H 394.193 0.198129 0.802916 0
M  V30 3930 H 396.739 1.08794 1.30238 0
M  V30 3931 H 395.511 2.24461 3.2052 0
M  V30 3932 H 395.134 0.684144 3.9167 0
M  V30 3933 N 396.131 -1.37776 0.765217 0
M  V30 3934 C 397.081 -2.2768 0.12075 0
M  V30 3935 C 398.065 -1.45778 -0.680988 0
M  V30 3936 O 399.257 -1.684 -0.545033 0
M  V30 3937 C 396.386 -3.34722 -0.762626 0
M  V30 3938 C 395.472 -4.24074 0.0465881 0
M  V30 3939 N 395.863 -4.93939 1.08892 0
M  V30 3940 C 394.161 -4.45643 -0.178418 0
M  V30 3941 C 394.862 -5.59845 1.57951 0
M  V30 3942 N 393.838 -5.36218 0.892797 0
M  V30 3943 H 397.64 -2.79166 0.918889 0
M  V30 3944 H 395.154 -1.50816 0.602353 0
M  V30 3945 H 397.151 -3.98031 -1.24005 0
M  V30 3946 H 395.811 -2.84793 -1.55959 0
M  V30 3947 H 396.822 -4.96572 1.47095 0
M  V30 3948 H 393.499 -4.06599 -0.9478 0
M  V30 3949 H 394.889 -6.25703 2.44838 0
M  V30 3950 N 397.609 -0.515225 -1.4894 0
M  V30 3951 C 398.886 0.0879088 -1.95402 0
M  V30 3952 C 399.266 1.52745 -1.45712 0
M  V30 3953 O 398.614 2.18238 -0.677093 0
M  V30 3954 C 398.824 -0.0141055 -3.48997 0
M  V30 3955 C 400.172 0.152646 -4.24326 0
M  V30 3956 O 401.196 0.0604025 -3.56149 0
M  V30 3957 O 400.055 0.34384 -5.45417 0
M  V30 3958 H 397.149 0.0874636 -0.822362 0
M  V30 3959 H 399.695 -0.578775 -1.59525 0
M  V30 3960 H 398.467 -1.01745 -3.77841 0
M  V30 3961 H 398.09 0.692091 -3.9153 0
M  V30 3962 N 399.087 1.5561 -0.249682 0
M  V30 3963 C 400.335 1.98618 0.373548 0
M  V30 3964 C 400.656 1.13919 1.58264 0
M  V30 3965 O 399.926 0.222637 1.94631 0
M  V30 3966 H 398.506 0.733571 0.141006 0
M  V30 3967 H 401.168 1.91748 -0.349117 0
M  V30 3968 H 400.264 3.04584 0.680796 0
M  V30 3969 N 400.565 -0.0233959 1.57583 0
M  V30 3970 C 401.813 -0.711654 1.89156 0
M  V30 3971 C 402.134 -1.75591 0.848096 0
M  V30 3972 O 401.404 -1.95547 -0.117566 0
M  V30 3973 H 399.984 -0.265835 0.698098 0
M  V30 3974 H 402.646 0.0119948 1.94896 0
M  V30 3975 H 401.742 -1.19766 2.88206 0
M  V30 3976 N 402.043 -1.548 -0.295768 0
M  V30 3977 C 402.973 -1.89115 -1.36959 0
M  V30 3978 C 403.954 -0.75059 -1.52644 0
M  V30 3979 O 405.139 -1.00678 -1.66065 0
M  V30 3980 C 402.269 -2.14307 -2.73295 0
M  V30 3981 C 401.223 -3.30151 -2.72368 0
M  V30 3982 C 400.549 -3.40772 -4.12042 0
M  V30 3983 C 401.849 -4.67126 -2.33646 0
M  V30 3984 H 403.543 -2.79053 -1.08488 0
M  V30 3985 H 401.089 -1.34266 -0.520443 0
M  V30 3986 H 403.042 -2.36898 -3.48507 0
M  V30 3987 H 401.766 -1.21145 -3.03301 0
M  V30 3988 H 400.425 -3.0749 -1.99613 0
M  V30 3989 H 400.073 -2.45117 -4.39234 0
M  V30 3990 H 399.773 -4.18645 -4.12322 0
M  V30 3991 H 401.297 -3.6563 -4.89027 0
M  V30 3992 H 402.711 -4.89414 -2.98575 0
M  V30 3993 H 401.108 -5.47751 -2.45129 0
M  V30 3994 H 402.178 -4.67489 -1.28772 0
M  V30 3995 N 403.521 0.559213 -1.47345 0
M  V30 3996 C 404.749 1.34194 -1.57479 0
M  V30 3997 C 405.164 1.87463 -0.224261 0
M  V30 3998 O 404.521 1.64888 0.782185 0
M  V30 3999 C 404.572 2.51324 -2.59843 0
M  V30 4000 O 404.293 2.00256 -3.89653 0
M  V30 4001 C 405.794 3.43563 -2.80142 0
M  V30 4002 H 403.014 0.409136 -0.531835 0
M  V30 4003 H 405.558 0.677609 -1.92947 0
M  V30 4004 H 403.713 3.13699 -2.27314 0
M  V30 4005 H 404.127 2.76708 -4.4557 0
M  V30 4006 H 405.601 4.2217 -3.55635 0
M  V30 4007 H 406.078 3.9698 -1.87892 0
M  V30 4008 H 406.684 2.87005 -3.1386 0
M  V30 4009 N 404.999 1.35443 0.805782 0
M  V30 4010 C 405.909 1.30546 1.94923 0
M  V30 4011 C 406.925 0.210233 1.72725 0
M  V30 4012 O 408.101 0.43975 1.9654 0
M  V30 4013 C 405.166 1.07782 3.29521 0
M  V30 4014 C 404.227 2.26625 3.64609 0
M  V30 4015 C 403.46 2.04938 4.92784 0
M  V30 4016 O 403.683 1.01624 5.61274 0
M  V30 4017 O 402.617 2.9232 5.26149 0
M  V30 4018 H 406.443 2.26779 2.02002 0
M  V30 4019 H 404.028 1.15823 0.943682 0
M  V30 4020 H 405.91 0.969392 4.10098 0
M  V30 4021 H 404.585 0.146003 3.23371 0
M  V30 4022 H 403.492 2.43033 2.84404 0
M  V30 4023 H 404.825 3.18257 3.75464 0
M  V30 4024 N 406.477 -1.02803 1.19454 0
M  V30 4025 C 407.725 -1.75869 0.995722 0
M  V30 4026 C 408.046 -1.89138 -0.474543 0
M  V30 4027 O 407.316 -1.42558 -1.34366 0
M  V30 4028 H 405.896 -0.651511 0.365435 0
M  V30 4029 H 408.558 -1.24004 1.50363 0
M  V30 4030 H 407.654 -2.76661 1.44447 0
M  V30 4031 N 407.956 -0.998596 -1.21925 0
M  V30 4032 C 408.919 -0.558679 -2.22287 0
M  V30 4033 C 409.919 0.361525 -1.56683 0
M  V30 4034 O 411.109 0.152695 -1.73529 0
M  V30 4035 C 408.241 0.18661 -3.40389 0
M  V30 4036 H 409.434 -1.4463 -2.62721 0
M  V30 4037 H 406.987 -0.786413 -1.35075 0
M  V30 4038 H 407.722 1.08996 -3.05435 0
M  V30 4039 H 407.507 -0.474188 -3.89222 0
M  V30 4040 H 408.997 0.482367 -4.14805 0
M  V30 4041 N 409.434 1.37368 -0.772513 0
M  V30 4042 C 410.683 1.98918 -0.333861 0
M  V30 4043 C 410.996 1.62017 1.09589 0
M  V30 4044 O 412.202 2.16676 1.63596 0
M  V30 4045 C 410.658 3.55735 -0.545971 0
M  V30 4046 C 410.266 4.01573 -1.98603 0
M  V30 4047 C 412.01 4.24156 -0.170979 0
M  V30 4048 C 409.917 5.51102 -2.1457 0
M  V30 4049 H 408.847 0.744214 -0.121085 0
M  V30 4050 H 411.498 1.56888 -0.95175 0
M  V30 4051 H 409.88 3.95748 0.141387 0
M  V30 4052 H 411.054 3.72803 -2.7084 0
M  V30 4053 H 409.369 3.45937 -2.31769 0
M  V30 4054 H 411.966 5.34024 -0.26878 0
M  V30 4055 H 412.309 4.06917 0.878855 0
M  V30 4056 H 412.842 3.89447 -0.810914 0
M  V30 4057 H 409.581 5.73268 -3.17875 0
M  V30 4058 H 409.101 5.81554 -1.46817 0
M  V30 4059 H 410.78 6.17083 -1.94468 0
M  V30 4060 N 410.912 0.523116 1.48665 0
M  V30 4061 C 411.822 -0.247406 2.33292 0
M  V30 4062 C 412.838 -0.945769 1.46052 0
M  V30 4063 O 414.014 -0.922253 1.79043 0
M  V30 4064 C 411.079 -1.28487 3.22012 0
M  V30 4065 C 410.14 -0.597592 4.2512 0
M  V30 4066 C 409.373 -1.58563 5.09601 0
M  V30 4067 O 409.596 -2.81763 4.95949 0
M  V30 4068 O 408.53 -1.12879 5.91221 0
M  V30 4069 H 412.356 0.445869 3.00409 0
M  V30 4070 H 409.941 0.284128 1.46673 0
M  V30 4071 H 411.823 -1.88459 3.7691 0
M  V30 4072 H 410.498 -1.96068 2.57564 0
M  V30 4073 H 409.405 0.0424407 3.74076 0
M  V30 4074 H 410.738 0.0361517 4.92187 0
M  V30 4075 N 412.39 -1.55475 0.257931 0
M  V30 4076 C 413.638 -1.98813 -0.363009 0
M  V30 4077 C 413.959 -1.14757 -1.57657 0
M  V30 4078 O 413.229 -0.232956 -1.9451 0
M  V30 4079 H 411.809 -0.734308 -0.137113 0
M  V30 4080 H 414.471 -1.9156 0.359281 0
M  V30 4081 H 413.567 -3.04941 -0.664634 0
M  V30 4082 N 413.868 0.0150385 -1.57593 0
M  V30 4083 C 415.116 0.701613 -1.8953 0
M  V30 4084 C 415.437 1.75139 -0.857396 0
M  V30 4085 O 414.707 1.95607 0.107194 0
M  V30 4086 H 413.287 0.26213 -0.699498 0
M  V30 4087 H 415.949 -0.0223304 -1.94887 0
M  V30 4088 H 415.045 1.18236 -2.88837 0
M  V30 4089 N 415.346 1.54954 0.287554 0
M  V30 4090 C 416.574 1.78881 1.03967 0
M  V30 4091 C 416.989 0.554894 1.80462 0
M  V30 4092 O 416.346 -0.475676 1.76192 0
M  V30 4093 C 416.397 3.00488 2.0097 0
M  V30 4094 O 416.118 4.19113 1.27577 0
M  V30 4095 C 417.619 3.36907 2.88112 0
M  V30 4096 H 414.839 0.596259 0.307761 0
M  V30 4097 H 417.383 2.01937 0.322749 0
M  V30 4098 H 415.538 2.79601 2.68145 0
M  V30 4099 H 415.952 4.87765 1.92835 0
M  V30 4100 H 417.426 4.25205 3.52001 0
M  V30 4101 H 417.903 2.55659 3.57121 0
M  V30 4102 H 418.509 3.60001 2.26449 0
M  V30 4103 N 416.824 -0.551391 1.4764 0
M  V30 4104 C 418.235 -1.13349 1.48354 0
M  V30 4105 C 418.586 -1.94709 0.241432 0
M  V30 4106 O 417.711 -2.06306 -0.653205 0
M  V30 4107 C 418.306 -2.0623 2.68802 0
M  V30 4108 C 416.865 -2.597 2.72457 0
M  V30 4109 C 416.012 -1.36201 2.41546 0
M  V30 4110 H 418.963 -0.337698 1.55065 0
M  V30 4111 H 418.984 -2.90196 2.46103 0
M  V30 4112 H 418.496 -1.46987 3.59188 0
M  V30 4113 H 416.597 -3.22724 1.86225 0
M  V30 4114 H 416.71 -3.00296 3.73308 0
M  V30 4115 H 415.074 -1.67068 1.9225 0
M  V30 4116 H 415.857 -0.787425 3.34147 0
M  V30 4117 N 418.302 -1.35869 -0.798587 0
M  V30 4118 C 419.55 -1.29332 -1.55298 0
M  V30 4119 C 419.871 0.129729 -1.94568 0
M  V30 4120 O 419.141 1.06796 -1.6423 0
M  V30 4121 H 417.721 -0.475737 -0.57592 0
M  V30 4122 H 420.383 -1.70062 -0.952093 0
M  V30 4123 H 419.479 -1.91458 -2.46476 0
M  V30 4124 N 419.78 1.02168 -1.19998 0
M  V30 4125 C 420.71 2.12488 -0.96804 0
M  V30 4126 C 421.691 1.69799 0.101185 0
M  V30 4127 O 422.876 1.94121 -0.0552993 0
M  V30 4128 C 420.006 3.43479 -0.513776 0
M  V30 4129 C 418.96 3.99884 -1.52566 0
M  V30 4130 C 418.286 5.26582 -0.928214 0
M  V30 4131 C 419.586 4.33861 -2.90795 0
M  V30 4132 H 421.28 2.32149 -1.89069 0
M  V30 4133 H 418.826 1.11564 -0.910468 0
M  V30 4134 H 420.779 4.20036 -0.338774 0
M  V30 4135 H 419.503 3.23561 0.444493 0
M  V30 4136 H 418.162 3.25429 -1.68794 0
M  V30 4137 H 417.81 5.02986 0.0378289 0
M  V30 4138 H 417.51 5.65284 -1.60397 0
M  V30 4139 H 419.034 6.05799 -0.764167 0
M  V30 4140 H 420.448 5.01327 -2.78109 0
M  V30 4141 H 418.845 4.83664 -3.55231 0
M  V30 4142 H 419.915 3.42848 -3.42904 0
M  V30 4143 N 421.258 1.00505 1.21394 0
M  V30 4144 C 422.221 0.570459 2.21987 0
M  V30 4145 C 423.221 -0.353211 1.56873 0
M  V30 4146 O 424.411 -0.14349 1.73608 0
M  V30 4147 C 421.543 -0.168555 3.40483 0
M  V30 4148 H 422.736 1.46021 2.6195 0
M  V30 4149 H 420.289 0.793565 1.34656 0
M  V30 4150 H 421.024 -1.07374 3.06009 0
M  V30 4151 H 420.809 0.494823 3.88965 0
M  V30 4152 H 422.299 -0.460362 4.15055 0
M  V30 4153 N 422.737 -1.36956 0.779787 0
M  V30 4154 C 423.967 -2.03459 0.358877 0
M  V30 4155 C 424.375 -1.58939 -1.02641 0
M  V30 4156 O 423.718 -0.769777 -1.66794 0
M  V30 4157 C 423.78 -3.5796 0.332393 0
M  V30 4158 C 423.444 -4.25644 1.66362 0
M  V30 4159 C 424.441 -4.49205 2.61746 0
M  V30 4160 C 422.126 -4.63313 1.94027 0
M  V30 4161 C 424.12 -5.09503 3.82996 0
M  V30 4162 C 421.807 -5.2333 3.15546 0
M  V30 4163 C 422.805 -5.46363 4.0985 0
M  V30 4164 O 422.493 -6.05122 5.29228 0
M  V30 4165 H 422.225 -0.659767 0.147254 0
M  V30 4166 H 424.779 -1.76111 1.05708 0
M  V30 4167 H 423.009 -3.84388 -0.422237 0
M  V30 4168 H 424.698 -4.05852 -0.0625389 0
M  V30 4169 H 425.464 -4.20508 2.41657 0
M  V30 4170 H 421.343 -4.44715 1.21448 0
M  V30 4171 H 424.887 -5.27397 4.56617 0
M  V30 4172 H 420.784 -5.51451 3.35517 0
M  V30 4173 H 421.552 -6.23595 5.30161 0
M  V30 4174 N 424.215 -0.530993 -1.48385 0
M  V30 4175 C 425.626 -0.0907905 -1.86479 0
M  V30 4176 C 425.977 1.33213 -1.44044 0
M  V30 4177 O 425.102 1.99783 -0.831615 0
M  V30 4178 C 425.697 -0.157987 -3.38431 0
M  V30 4179 C 424.256 0.227026 -3.75715 0
M  V30 4180 C 423.403 -0.5173 -2.72432 0
M  V30 4181 H 426.354 -0.742186 -1.40276 0
M  V30 4182 H 426.375 0.630053 -3.75247 0
M  V30 4183 H 425.887 -1.19372 -3.69286 0
M  V30 4184 H 423.988 1.26486 -3.50474 0
M  V30 4185 H 424.101 -0.113288 -4.78966 0
M  V30 4186 H 422.465 0.0365527 -2.54674 0
M  V30 4187 H 423.248 -1.55368 -3.0613 0
M  V30 4188 N 425.693 1.55336 -0.266172 0
M  V30 4189 C 426.941 1.99003 0.35246 0
M  V30 4190 C 427.262 1.15591 1.57047 0
M  V30 4191 O 426.532 0.243268 1.94384 0
M  V30 4192 H 425.112 0.735025 0.133217 0
M  V30 4193 H 427.774 1.91367 -0.369434 0
M  V30 4194 H 426.87 3.05289 0.648453 0
M  V30 4195 N 427.171 -0.0066808 1.57599 0
M  V30 4196 C 428.101 -0.999296 2.11036 0
M  V30 4197 C 429.082 -1.36278 1.01795 0
M  V30 4198 O 430.267 -1.4477 1.29442 0
M  V30 4199 C 427.397 -2.29328 2.60818 0
M  V30 4200 C 426.351 -2.07159 3.74525 0
M  V30 4201 C 425.677 -3.42512 4.10596 0
M  V30 4202 C 426.977 -1.43959 5.02069 0
M  V30 4203 H 428.671 -0.554382 2.94223 0
M  V30 4204 H 426.217 -0.265221 1.41536 0
M  V30 4205 H 428.17 -2.99117 2.96828 0
M  V30 4206 H 426.894 -2.7592 1.74745 0
M  V30 4207 H 425.553 -1.39797 3.38899 0
M  V30 4208 H 425.201 -3.86795 3.21556 0
M  V30 4209 H 424.901 -3.28498 4.87199 0
M  V30 4210 H 426.425 -4.13628 4.4916 0
M  V30 4211 H 427.839 -2.03696 5.35893 0
M  V30 4212 H 426.236 -1.40452 5.83432 0
M  V30 4213 H 427.306 -0.407992 4.83181 0
M  V30 4214 N 428.649 -1.55105 -0.279332 0
M  V30 4215 C 429.926 -1.66119 -1.03267 0
M  V30 4216 C 430.306 -0.523525 -2.04505 0
M  V30 4217 O 429.654 0.477194 -2.23462 0
M  V30 4218 C 429.864 -3.05067 -1.69515 0
M  V30 4219 C 431.212 -3.62606 -2.20912 0
M  V30 4220 O 432.236 -3.07659 -1.79512 0
M  V30 4221 O 431.095 -4.58861 -2.96831 0
M  V30 4222 H 428.189 -0.674429 -0.478618 0
M  V30 4223 H 430.735 -1.67446 -0.275694 0
M  V30 4224 H 429.507 -3.79311 -0.9612 0
M  V30 4225 H 429.13 -3.07611 -2.51915 0
M  V30 4226 N 430.127 0.543554 -1.4793 0
M  V30 4227 C 431.057 1.65888 -1.64327 0
M  V30 4228 C 432.038 1.62818 -0.492383 0
M  V30 4229 O 433.223 1.80226 -0.723338 0
M  V30 4230 C 430.353 3.04506 -1.67013 0
M  V30 4231 C 429.307 3.2243 -2.81466 0
M  V30 4232 C 428.633 4.61972 -2.69233 0
M  V30 4233 C 429.933 3.06496 -4.22915 0
M  V30 4234 H 431.627 1.52421 -2.57698 0
M  V30 4235 H 429.173 0.731849 -1.24016 0
M  V30 4236 H 431.126 3.82391 -1.77074 0
M  V30 4237 H 429.85 3.18964 -0.70212 0
M  V30 4238 H 428.509 2.46957 -2.70938 0
M  V30 4239 H 428.157 4.73247 -1.7043 0
M  V30 4240 H 427.857 4.74911 -3.46025 0
M  V30 4241 H 429.381 5.41974 -2.81242 0
M  V30 4242 H 430.795 3.74186 -4.34348 0
M  V30 4243 H 429.192 3.30938 -5.006 0
M  V30 4244 H 430.262 2.03077 -4.40327 0
M  V30 4245 N 431.605 1.3629 0.791371 0
M  V30 4246 C 433.021 1.16661 1.08914 0
M  V30 4247 C 433.221 -0.0106266 2.01497 0
M  V30 4248 O 432.277 -0.676596 2.43266 0
M  V30 4249 C 433.59 2.47656 1.70549 0
M  V30 4250 C 435.138 2.54002 1.82899 0
M  V30 4251 C 435.613 3.85078 2.47949 0
M  V30 4252 N 437.104 3.86413 2.5542 0
M  V30 4253 C 437.839 4.84572 3.06557 0
M  V30 4254 N 437.335 5.93124 3.58016 0
M  V30 4255 N 439.128 4.71994 3.05251 0
M  V30 4256 H 431.279 2.11668 0.176238 0
M  V30 4257 H 433.542 0.937486 0.140796 0
M  V30 4258 H 433.248 3.34059 1.09989 0
M  V30 4259 H 433.122 2.63319 2.70079 0
M  V30 4260 H 435.509 1.68018 2.42598 0
M  V30 4261 H 435.59 2.42239 0.821808 0
M  V30 4262 H 435.234 4.71467 1.88895 0
M  V30 4263 H 435.164 3.94135 3.49235 0
M  V30 4264 H 437.655 3.07988 2.18979 0
M  V30 4265 H 437.968 6.63999 3.95381 0
M  V30 4266 H 436.313 5.96796 3.56173 0
M  V30 4267 H 439.504 3.86321 2.64336 0
M  V30 4268 H 439.677 5.48653 3.44796 0
M  V30 4269 N 433.083 -1.0153 1.20538 0
M  V30 4270 C 434.016 -2.09759 0.898695 0
M  V30 4271 C 434.994 -1.61909 -0.149733 0
M  V30 4272 O 436.178 -1.88486 -0.0230293 0
M  V30 4273 C 433.305 -3.36913 0.347512 0
M  V30 4274 C 432.351 -4.03655 1.37713 0
M  V30 4275 S 433.184 -4.47402 2.94265 0
M  V30 4276 C 434.34 -5.77756 2.40726 0
M  V30 4277 H 434.573 -2.3545 1.81523 0
M  V30 4278 H 432.106 -1.14665 1.03399 0
M  V30 4279 H 434.064 -4.10484 0.0360518 0
M  V30 4280 H 432.725 -3.09291 -0.547546 0
M  V30 4281 H 431.918 -4.9514 0.940872 0
M  V30 4282 H 431.52 -3.36313 1.63614 0
M  V30 4283 H 433.812 -6.52994 1.80569 0
M  V30 4284 H 434.755 -6.2618 3.30612 0
M  V30 4285 H 435.163 -5.34081 1.82806 0
M  V30 4286 N 434.561 -1.01147 -1.20859 0
M  V30 4287 C 435.809 -0.696486 -1.89719 0
M  V30 4288 C 436.13 0.775788 -1.78904 0
M  V30 4289 O 435.4 1.55759 -1.18811 0
M  V30 4290 H 433.98 -0.254628 -0.702263 0
M  V30 4291 H 436.642 -1.28197 -1.46804 0
M  V30 4292 H 435.738 -0.975357 -2.96468 0
M  V30 4293 N 436.039 1.36541 -0.78704 0
M  V30 4294 C 437.002 2.28413 -0.189778 0
M  V30 4295 C 438.002 1.48719 0.611499 0
M  V30 4296 O 439.192 1.68737 0.432842 0
M  V30 4297 C 436.324 3.32824 0.737638 0
M  V30 4298 H 437.517 2.82743 -0.999831 0
M  V30 4299 H 435.07 1.46065 -0.556298 0
M  V30 4300 H 435.805 2.83646 1.57212 0
M  V30 4301 H 435.59 3.91752 0.165044 0
M  V30 4302 H 437.08 4.0144 1.15047 0
M  V30 4303 N 437.518 0.538854 1.48102 0
M  V30 4304 C 438.743 0.0102694 2.07397 0
M  V30 4305 C 439.168 -1.26562 1.39153 0
M  V30 4306 O 438.526 -1.75357 0.460387 0
M  V30 4307 C 438.574 -0.187602 3.60112 0
M  V30 4308 O 437.678 -1.25432 3.92862 0
M  V30 4309 H 437.019 0.0430975 0.6626 0
M  V30 4310 H 439.549 0.749301 1.90385 0
M  V30 4311 H 439.559 -0.407517 4.0596 0
M  V30 4312 H 438.234 0.744386 4.09184 0
M  V30 4313 H 436.811 -1.01636 3.58782 0
M  V30 4314 N 438.996 -1.55193 0.274407 0
M  V30 4315 C 439.959 -2.212 -0.600279 0
M  V30 4316 C 440.959 -1.18963 -1.08187 0
M  V30 4317 O 442.149 -1.43873 -0.982158 0
M  V30 4318 C 439.281 -2.87739 -1.82809 0
M  V30 4319 H 440.474 -2.9989 -0.0239682 0
M  V30 4320 H 438.027 -1.5628 0.0250192 0
M  V30 4321 H 438.762 -2.13058 -2.44493 0
M  V30 4322 H 438.547 -3.62658 -1.49069 0
M  V30 4323 H 440.037 -3.38171 -2.45011 0
M  V30 4324 N 440.474 -0.00167713 -1.576 0
M  V30 4325 C 441.699 0.69739 -1.95323 0
M  V30 4326 C 442.124 1.6642 -0.876706 0
M  V30 4327 O 441.482 1.80548 0.165007 0
M  V30 4328 C 441.53 1.40403 -3.32144 0
M  V30 4329 O 440.634 2.5185 -3.26566 0
M  V30 4330 H 439.975 0.185373 -0.637599 0
M  V30 4331 H 442.505 -0.0553665 -2.04525 0
M  V30 4332 H 442.515 1.76707 -3.67748 0
M  V30 4333 H 441.19 0.695167 -4.10049 0
M  V30 4334 H 439.767 2.17861 -3.0264 0
M  V30 4335 N 441.952 1.55251 0.271103 0
M  V30 4336 C 442.915 1.87484 1.31842 0
M  V30 4337 C 443.915 0.749545 1.42262 0
M  V30 4338 O 445.105 1.01771 1.4138 0
M  V30 4339 C 442.237 2.0818 2.69951 0
M  V30 4340 H 443.43 2.81108 1.0449 0
M  V30 4341 H 440.983 1.47771 0.509258 0
M  V30 4342 H 441.718 1.16944 3.02481 0
M  V30 4343 H 441.503 2.90114 2.63774 0
M  V30 4344 H 442.993 2.34385 3.4562 0
M  V30 4345 N 443.43 -0.535701 1.48216 0
M  V30 4346 C 444.846 -0.863701 1.3421 0
M  V30 4347 C 445.046 -1.98458 0.34879 0
M  V30 4348 O 444.102 -2.51432 -0.23204 0
M  V30 4349 C 445.415 -1.23662 2.74095 0
M  V30 4350 C 446.963 -1.34683 2.82541 0
M  V30 4351 C 447.438 -1.75322 4.23115 0
M  V30 4352 N 448.929 -1.82434 4.2576 0
M  V30 4353 C 449.664 -2.15252 5.31464 0
M  V30 4354 N 449.16 -2.46533 6.47452 0
M  V30 4355 N 450.953 -2.16209 5.18855 0
M  V30 4356 H 443.104 0.203965 2.11418 0
M  V30 4357 H 445.367 0.0286033 0.947568 0
M  V30 4358 H 445.073 -0.486674 3.48316 0
M  V30 4359 H 444.947 -2.18805 3.07253 0
M  V30 4360 H 447.334 -2.08756 2.08579 0
M  V30 4361 H 447.415 -0.376756 2.5301 0
M  V30 4362 H 447.059 -1.01812 4.97591 0
M  V30 4363 H 446.989 -2.7337 4.50085 0
M  V30 4364 H 449.48 -1.6056 3.42095 0
M  V30 4365 H 449.793 -2.70662 7.23852 0
M  V30 4366 H 448.138 -2.44065 6.50736 0
M  V30 4367 H 451.329 -1.91224 4.2726 0
M  V30 4368 H 451.502 -2.41453 6.01335 0
M  V30 4369 N 444.908 -1.36708 -0.784132 0
M  V30 4370 C 445.838 -1.34153 -1.91116 0
M  V30 4371 C 446.819 -0.212121 -1.68772 0
M  V30 4372 O 448.004 -0.410581 -1.8981 0
M  V30 4373 C 445.134 -1.13535 -3.28218 0
M  V30 4374 C 444.088 -2.23356 -3.65097 0
M  V30 4375 C 443.414 -1.87875 -5.00607 0
M  V30 4376 C 444.714 -3.65473 -3.73131 0
M  V30 4377 H 446.408 -2.28459 -1.93512 0
M  V30 4378 H 443.954 -1.09973 -0.929618 0
M  V30 4379 H 445.907 -1.10381 -4.06687 0
M  V30 4380 H 444.631 -0.156804 -3.26223 0
M  V30 4381 H 443.29 -2.25645 -2.88929 0
M  V30 4382 H 442.938 -0.885814 -4.95139 0
M  V30 4383 H 442.638 -2.61406 -5.26252 0
M  V30 4384 H 444.162 -1.86286 -5.81489 0
M  V30 4385 H 445.576 -3.65382 -4.41779 0
M  V30 4386 H 443.973 -4.37953 -4.10265 0
M  V30 4387 H 445.043 -3.99995 -2.74102 0
M  V30 4388 N 446.386 1.0089 -1.21074 0
M  V30 4389 C 447.663 1.71834 -0.934469 0
M  V30 4390 C 448.043 2.0368 0.554753 0
M  V30 4391 O 447.391 1.70742 1.51854 0
M  V30 4392 C 447.601 2.98061 -1.8155 0
M  V30 4393 C 448.949 3.7117 -2.06199 0
M  V30 4394 O 449.973 3.08034 -1.78867 0
M  V30 4395 O 448.832 4.84721 -2.52404 0
M  V30 4396 H 445.926 0.749253 -0.35007 0
M  V30 4397 H 448.472 1.06668 -1.31985 0
M  V30 4398 H 447.244 2.70908 -2.82355 0
M  V30 4399 H 446.867 3.70968 -1.43068 0
M  V30 4400 N 447.864 1.01787 1.20321 0
M  V30 4401 C 449.113 0.703249 1.89043 0
M  V30 4402 C 449.426 -0.770445 1.79787 0
M  V30 4403 O 450.632 -1.19767 2.43656 0
M  V30 4404 C 449.088 1.20749 3.3904 0
M  V30 4405 C 448.696 2.70817 3.56878 0
M  V30 4406 C 450.44 0.968352 4.13308 0
M  V30 4407 C 448.347 3.14716 5.00708 0
M  V30 4408 H 447.277 0.259354 0.707991 0
M  V30 4409 H 449.928 1.23072 1.36108 0
M  V30 4410 H 448.31 0.607989 3.91305 0
M  V30 4411 H 449.484 3.36327 3.14993 0
M  V30 4412 H 447.799 2.92888 2.95983 0
M  V30 4413 H 450.396 1.27173 5.19356 0
M  V30 4414 H 450.739 -0.095149 4.16191 0
M  V30 4415 H 451.272 1.53129 3.67146 0
M  V30 4416 H 448.011 4.20347 5.02979 0
M  V30 4417 H 447.531 2.53927 5.43398 0
M  V30 4418 H 449.21 3.07426 5.69296 0
M  V30 4419 N 449.342 -1.36122 0.79427 0
M  V30 4420 C 450.753 -1.81646 0.431446 0
M  V30 4421 C 451.104 -1.66043 -1.04518 0
M  V30 4422 O 450.229 -1.1841 -1.8113 0
M  V30 4423 C 450.824 -3.29785 0.776341 0
M  V30 4424 C 449.383 -3.73501 0.466282 0
M  V30 4425 C 448.53 -2.58313 1.00844 0
M  V30 4426 H 451.481 -1.24274 0.986995 0
M  V30 4427 H 451.502 -3.80437 0.0692413 0
M  V30 4428 H 451.014 -3.4111 1.8511 0
M  V30 4429 H 449.115 -3.67733 -0.600245 0
M  V30 4430 H 449.228 -4.68754 0.990288 0
M  V30 4431 H 447.592 -2.5102 0.431406 0
M  V30 4432 H 448.375 -2.72421 2.08906 0
M  V30 4433 N 450.82 -0.546701 -1.47814 0
M  V30 4434 C 451.783 0.196287 -2.28358 0
M  V30 4435 C 452.783 0.852437 -1.36346 0
M  V30 4436 O 453.973 0.709913 -1.59078 0
M  V30 4437 C 451.105 1.28579 -3.15722 0
M  V30 4438 H 452.298 -0.511086 -2.95513 0
M  V30 4439 H 449.851 -0.303248 -1.5333 0
M  V30 4440 H 450.586 2.0259 -2.53235 0
M  V30 4441 H 450.371 0.820229 -3.83425 0
M  V30 4442 H 451.861 1.80793 -3.76435 0
M  V30 4443 N 452.299 1.55045 -0.282633 0
M  V30 4444 C 453.529 2.03872 0.334635 0
M  V30 4445 C 453.937 1.16018 1.49454 0
M  V30 4446 O 453.28 0.174449 1.8287 0
M  V30 4447 C 453.342 3.48791 0.870905 0
M  V30 4448 C 453.006 4.56715 -0.161338 0
M  V30 4449 C 454.003 5.10513 -0.983466 0
M  V30 4450 C 451.688 5.01417 -0.297745 0
M  V30 4451 C 453.682 6.07538 -1.92811 0
M  V30 4452 C 451.369 5.98265 -1.24586 0
M  V30 4453 C 452.367 6.51208 -2.05954 0
M  V30 4454 O 452.055 7.46162 -2.99162 0
M  V30 4455 H 451.787 0.671324 0.0793742 0
M  V30 4456 H 454.341 2.01169 -0.41473 0
M  V30 4457 H 452.571 3.48758 1.67047 0
M  V30 4458 H 454.26 3.80916 1.40207 0
M  V30 4459 H 455.026 4.76785 -0.888856 0
M  V30 4460 H 450.905 4.59849 0.325604 0
M  V30 4461 H 454.449 6.48787 -2.56363 0
M  V30 4462 H 450.346 6.31412 -1.34126 0
M  V30 4463 H 451.114 7.63903 -2.93929 0
M  V30 4464 N 453.777 0.010035 1.57597 0
M  V30 4465 C 454.74 -0.963029 2.07986 0
M  V30 4466 C 455.74 -1.26619 0.991173 0
M  V30 4467 O 456.93 -1.2097 1.25347 0
M  V30 4468 C 454.062 -2.2851 2.52974 0
M  V30 4469 H 455.255 -0.526971 2.95234 0
M  V30 4470 H 452.808 -0.237639 1.54483 0
M  V30 4471 H 453.543 -2.76784 1.69 0
M  V30 4472 H 453.328 -2.07824 3.32493 0
M  V30 4473 H 454.818 -2.98294 2.9225 0
M  V30 4474 N 455.255 -1.55392 -0.262866 0
M  V30 4475 C 456.48 -1.80847 -1.01533 0
M  V30 4476 C 456.905 -0.584946 -1.78774 0
M  V30 4477 O 456.263 0.465701 -1.75217 0
M  V30 4478 C 456.311 -3.03866 -1.94159 0
M  V30 4479 O 455.415 -2.79662 -3.03089 0
M  V30 4480 H 454.756 -0.597441 -0.289759 0
M  V30 4481 H 457.286 -2.02553 -0.288698 0
M  V30 4482 H 457.296 -3.32872 -2.35924 0
M  V30 4483 H 455.971 -3.92564 -1.37354 0
M  V30 4484 H 454.548 -2.61781 -2.65566 0
M  V30 4485 N 456.733 0.527833 -1.48498 0
M  V30 4486 C 457.663 1.64136 -1.66077 0
M  V30 4487 C 458.644 1.62286 -0.509625 0
M  V30 4488 O 459.829 1.79449 -0.742413 0
M  V30 4489 C 456.959 3.02717 -1.70234 0
M  V30 4490 C 455.913 3.19426 -2.8487 0
M  V30 4491 C 455.239 4.5909 -2.74118 0
M  V30 4492 C 456.539 3.01993 -4.26142 0
M  V30 4493 H 458.233 1.4968 -2.593 0
M  V30 4494 H 455.779 0.718654 -1.24785 0
M  V30 4495 H 457.732 3.80491 -1.8112 0
M  V30 4496 H 456.456 3.18201 -0.735911 0
M  V30 4497 H 455.115 2.4407 -2.73542 0
M  V30 4498 H 454.763 4.71413 -1.7544 0
M  V30 4499 H 454.463 4.71214 -3.51042 0
M  V30 4500 H 455.987 5.3896 -2.86974 0
M  V30 4501 H 457.401 3.69558 -4.38292 0
M  V30 4502 H 455.798 3.2561 -5.04082 0
M  V30 4503 H 456.868 1.98396 -4.42456 0
M  V30 4504 N 458.211 1.37122 0.776871 0
M  V30 4505 C 459.488 1.22586 1.52421 0
M  V30 4506 C 459.868 -0.182726 2.10308 0
M  V30 4507 O 459.216 -1.18979 1.9508 0
M  V30 4508 C 459.426 2.31782 2.60918 0
M  V30 4509 C 460.774 2.69071 3.2846 0
M  V30 4510 O 461.798 2.3092 2.71209 0
M  V30 4511 O 460.657 3.3478 4.31954 0
M  V30 4512 H 457.751 0.478045 0.674835 0
M  V30 4513 H 460.297 1.48888 0.814275 0
M  V30 4514 H 459.069 3.26131 2.16227 0
M  V30 4515 H 458.692 2.06916 3.39517 0
M  V30 4516 N 459.689 -1.00246 1.21608 0
M  V30 4517 C 460.935 -1.74417 1.04643 0
M  V30 4518 C 461.29 -1.87862 -0.415387 0
M  V30 4519 O 460.583 -1.40373 -1.30407 0
M  V30 4520 C 460.777 -3.15448 1.68009 0
M  V30 4521 C 460.606 -3.15755 3.20201 0
M  V30 4522 C 459.376 -3.2219 3.89258 0
M  V30 4523 C 461.574 -3.00668 4.17257 0
M  V30 4524 N 459.556 -3.1215 5.28617 0
M  V30 4525 C 460.927 -2.98553 5.43384 0
M  V30 4526 C 462.982 -2.84989 4.08272 0
M  V30 4527 C 461.685 -2.82364 6.61561 0
M  V30 4528 C 463.711 -2.70158 5.26088 0
M  V30 4529 C 463.073 -2.68721 6.51128 0
M  V30 4530 H 459.172 -0.648317 0.437274 0
M  V30 4531 H 461.756 -1.19129 1.54001 0
M  V30 4532 H 459.927 -3.69001 1.21215 0
M  V30 4533 H 461.659 -3.78128 1.44226 0
M  V30 4534 H 458.414 -3.29488 3.40198 0
M  V30 4535 H 458.838 -3.10465 6.01615 0
M  V30 4536 H 463.48 -2.84904 3.12393 0
M  V30 4537 H 461.198 -2.81196 7.57598 0
M  V30 4538 H 464.784 -2.59022 5.20959 0
M  V30 4539 H 463.664 -2.57382 7.40759 0
M  V30 4540 N 461.167 -1.02423 -1.1978 0
M  V30 4541 C 462.413 -0.719051 -1.89625 0
M  V30 4542 C 462.746 0.750083 -1.7913 0
M  V30 4543 O 462.021 1.54574 -1.18056 0
M  V30 4544 C 462.304 -1.16499 -3.40735 0
M  V30 4545 C 462.157 -2.695 -3.60125 0
M  V30 4546 C 463.476 -0.742166 -4.33797 0
M  V30 4547 H 460.595 -0.26269 -0.688595 0
M  V30 4548 H 463.237 -1.27333 -1.41018 0
M  V30 4549 H 461.387 -0.69341 -3.82262 0
M  V30 4550 H 463.059 -3.24569 -3.278 0
M  V30 4551 H 461.302 -3.10113 -3.03336 0
M  V30 4552 H 461.973 -2.95757 -4.66081 0
M  V30 4553 H 464.449 -1.1477 -3.99959 0
M  V30 4554 H 463.325 -1.08213 -5.38127 0
M  V30 4555 H 463.586 0.355747 -4.40666 0
M  V30 4556 N 462.645 1.35699 -0.801477 0
M  V30 4557 C 463.595 2.2728 -0.181073 0
M  V30 4558 C 464.579 1.47533 0.642098 0
M  V30 4559 O 465.771 1.69785 0.500193 0
M  V30 4560 C 462.9 3.36626 0.673612 0
M  V30 4561 C 461.986 4.23802 -0.159008 0
M  V30 4562 N 462.377 4.90879 -1.2195 0
M  V30 4563 C 460.675 4.45959 0.0602005 0
M  V30 4564 C 461.376 5.5546 -1.72738 0
M  V30 4565 N 460.352 5.33663 -1.03465 0
M  V30 4566 H 464.154 2.76632 -0.992582 0
M  V30 4567 H 461.668 1.49166 -0.642127 0
M  V30 4568 H 463.665 4.01179 1.13408 0
M  V30 4569 H 462.325 2.88828 1.48353 0
M  V30 4570 H 463.336 4.92497 -1.60209 0
M  V30 4571 H 460.013 4.08969 0.839664 0
M  V30 4572 H 461.403 6.18991 -2.61342 0
M  V30 4573 N 464.123 0.554532 1.47522 0
M  V30 4574 C 465.055 -0.232106 2.28022 0
M  V30 4575 C 466.068 -0.881865 1.36847 0
M  V30 4576 O 467.257 -0.756168 1.61692 0
M  V30 4577 C 464.357 -1.34604 3.11022 0
M  V30 4578 C 463.53 -0.793582 4.30141 0
M  V30 4579 C 462.589 -1.79168 4.94758 0
M  V30 4580 O 461.615 -1.33886 5.5323 0
M  V30 4581 N 462.817 -3.12495 4.89211 0
M  V30 4582 H 465.582 0.458407 2.96173 0
M  V30 4583 H 463.143 0.390433 1.57122 0
M  V30 4584 H 465.135 -2.01243 3.51118 0
M  V30 4585 H 463.705 -1.93983 2.45131 0
M  V30 4586 H 462.925 0.0495025 3.94169 0
M  V30 4587 H 464.213 -0.403776 5.07195 0
M  V30 4588 H 463.611 -3.51931 4.42901 0
M  V30 4589 H 462.168 -3.74698 5.33333 0
M  V30 4590 N 465.601 -1.54893 0.290851 0
M  V30 4591 C 466.848 -1.99933 -0.321391 0
M  V30 4592 C 467.176 -1.17927 -1.54672 0
M  V30 4593 O 466.431 -0.240902 -1.94212 0
M  V30 4594 C 466.73 -3.49815 -0.732397 0
M  V30 4595 C 466.396 -4.4921 0.390056 0
M  V30 4596 C 465.058 -4.76107 0.698223 0
M  V30 4597 C 467.41 -5.08453 1.14562 0
M  V30 4598 C 464.738 -5.59514 1.76526 0
M  V30 4599 C 467.09 -5.9302 2.2025 0
M  V30 4600 C 465.754 -6.18232 2.51684 0
M  V30 4601 H 465.024 -0.731608 -0.117605 0
M  V30 4602 H 467.671 -1.87107 0.407839 0
M  V30 4603 H 465.976 -3.60199 -1.54155 0
M  V30 4604 H 467.673 -3.82083 -1.21712 0
M  V30 4605 H 464.263 -4.28372 0.13976 0
M  V30 4606 H 468.447 -4.87683 0.920801 0
M  V30 4607 H 463.703 -5.77289 2.01364 0
M  V30 4608 H 467.877 -6.37955 2.7926 0
M  V30 4609 H 465.504 -6.82653 3.34499 0
M  V30 4610 N 467.08 -0.0183926 -1.57589 0
M  V30 4611 C 468.028 0.985111 -2.10709 0
M  V30 4612 C 469.022 1.34397 -1.0312 0
M  V30 4613 O 470.228 1.32746 -1.21567 0
M  V30 4614 H 466.603 0.335418 -0.673052 0
M  V30 4615 H 468.574 0.511689 -2.9398 0
M  V30 4616 C 467.323 2.26202 -2.64061 0
M  V30 4617 H 466.646 1.9946 -3.4649 0
M  V30 4618 H 468.086 2.94652 -3.04887 0
M  V30 4619 C 466.545 2.98444 -1.5631 0
M  V30 4620 O 467.075 3.90142 -0.956674 0
M  V30 4621 N 465.281 2.6059 -1.28612 0
M  V30 4622 H 464.828 1.86101 -1.78112 0
M  V30 4623 H 464.786 3.09238 -0.567406 0
M  V30 4624 N 468.558 1.5553 0.254621 0
M  V30 4625 C 469.835 1.6774 1.00611 0
M  V30 4626 C 470.215 0.555993 2.03647 0
M  V30 4627 O 469.563 -0.441583 2.24193 0
M  V30 4628 C 469.773 3.07725 1.6464 0
M  V30 4629 C 471.121 3.66074 2.15116 0
M  V30 4630 O 472.145 3.10476 1.74595 0
M  V30 4631 O 471.004 4.63526 2.89493 0
M  V30 4632 H 468.098 0.681958 0.467828 0
M  V30 4633 H 470.644 1.67863 0.24902 0
M  V30 4634 H 469.416 3.80792 0.900734 0
M  V30 4635 H 469.039 3.1158 2.46989 0
M  V30 4636 N 470.036 -0.519951 1.48776 0
M  V30 4637 C 471.452 -0.849418 1.35119 0
M  V30 4638 C 471.652 -1.98077 0.36982 0
M  V30 4639 O 470.708 -2.51664 -0.205359 0
M  V30 4640 C 472.021 -1.20748 2.75391 0
M  V30 4641 C 473.569 -1.31679 2.83954 0
M  V30 4642 C 474.044 -1.70824 4.24951 0
M  V30 4643 N 475.535 -1.77908 4.27672 0
M  V30 4644 C 476.27 -2.09603 5.33717 0
M  V30 4645 N 475.766 -2.39652 6.5003 0
M  V30 4646 N 477.559 -2.10694 5.21119 0
M  V30 4647 H 469.71 0.226377 2.1119 0
M  V30 4648 H 471.973 0.0386519 0.947212 0
M  V30 4649 H 471.679 -0.449703 3.48813 0
M  V30 4650 H 471.553 -2.15534 3.09556 0
M  V30 4651 H 473.94 -2.06532 2.10781 0
M  V30 4652 H 474.021 -0.3499 2.53396 0
M  V30 4653 H 473.665 -0.965282 4.98643 0
M  V30 4654 H 473.595 -2.6858 4.52959 0
M  V30 4655 H 476.086 -1.56923 3.43779 0
M  V30 4656 H 476.399 -2.6297 7.26682 0
M  V30 4657 H 474.744 -2.37149 6.53288 0
M  V30 4658 H 477.935 -1.86682 4.29264 0
M  V30 4659 H 478.108 -2.35062 6.03863 0
M  V30 4660 N 471.514 -1.37532 -0.769588 0
M  V30 4661 C 472.444 -1.36172 -1.89682 0
M  V30 4662 C 473.425 -0.23001 -1.68538 0
M  V30 4663 O 474.61 -0.43069 -1.89364 0
M  V30 4664 C 471.74 -1.1701 -3.26995 0
M  V30 4665 C 470.694 -2.27216 -3.62708 0
M  V30 4666 C 470.02 -1.93174 -4.98586 0
M  V30 4667 C 471.32 -3.6941 -3.69234 0
M  V30 4668 H 473.014 -2.30499 -1.91078 0
M  V30 4669 H 470.56 -1.10953 -0.917902 0
M  V30 4670 H 472.513 -1.14688 -4.05493 0
M  V30 4671 H 471.237 -0.191395 -3.26039 0
M  V30 4672 H 469.896 -2.28697 -2.86519 0
M  V30 4673 H 469.544 -0.938281 -4.94171 0
M  V30 4674 H 469.244 -2.66973 -5.23449 0
M  V30 4675 H 470.768 -1.92443 -5.79481 0
M  V30 4676 H 472.182 -3.70047 -4.37879 0
M  V30 4677 H 470.579 -4.4228 -4.05597 0
M  V30 4678 H 471.649 -4.0288 -2.69844 0
M  V30 4679 N 472.992 0.995999 -1.22138 0
M  V30 4680 C 474.217 1.77601 -1.0711 0
M  V30 4681 C 474.642 1.84339 0.374264 0
M  V30 4682 O 474 1.29359 1.27028 0
M  V30 4683 C 474.048 3.18897 -1.68336 0
M  V30 4684 O 473.152 4.01663 -0.934928 0
M  V30 4685 H 472.493 0.547011 -0.376397 0
M  V30 4686 H 475.023 1.25137 -1.6187 0
M  V30 4687 H 475.033 3.69539 -1.72931 0
M  V30 4688 H 473.708 3.13308 -2.73516 0
M  V30 4689 H 472.285 3.60204 -0.964751 0
M  V30 4690 N 474.47 1.03057 1.19235 0
M  V30 4691 C 475.4 0.633497 2.24742 0
M  V30 4692 C 476.381 -0.358335 1.66283 0
M  V30 4693 O 477.566 -0.240676 1.92703 0
M  V30 4694 C 474.696 -0.0147648 3.47297 0
M  V30 4695 C 473.65 0.899527 4.18441 0
M  V30 4696 C 472.976 0.116281 5.34574 0
M  V30 4697 C 474.276 2.21404 4.73051 0
M  V30 4698 H 475.97 1.5155 2.58211 0
M  V30 4699 H 473.516 0.73014 1.24117 0
M  V30 4700 H 475.469 -0.304202 4.20301 0
M  V30 4701 H 474.193 -0.931577 3.13032 0
M  V30 4702 H 472.852 1.17319 3.47321 0
M  V30 4703 H 472.5 -0.802619 4.96555 0
M  V30 4704 H 472.2 0.725293 5.83107 0
M  V30 4705 H 473.724 -0.166376 6.10373 0
M  V30 4706 H 475.138 1.98601 5.37802 0
M  V30 4707 H 473.535 2.77512 5.32078 0
M  V30 4708 H 474.605 2.86752 3.91026 0
M  V30 4709 N 475.948 -1.35272 0.808662 0
M  V30 4710 C 477.196 -1.98316 0.389233 0
M  V30 4711 C 477.517 -1.64465 -1.04767 0
M  V30 4712 O 476.787 -0.928175 -1.72516 0
M  V30 4713 H 475.367 -0.733585 0.140935 0
M  V30 4714 H 478.029 -1.6515 1.03496 0
M  V30 4715 H 477.125 -3.08123 0.496631 0
M  V30 4716 N 477.426 -0.562348 -1.47226 0
M  V30 4717 C 478.389 0.172056 -2.28553 0
M  V30 4718 C 479.389 0.837928 -1.37242 0
M  V30 4719 O 480.579 0.693001 -1.59822 0
M  V30 4720 C 477.711 1.25223 -3.17068 0
M  V30 4721 H 478.904 -0.542401 -2.94954 0
M  V30 4722 H 476.457 -0.319493 -1.53 0
M  V30 4723 H 477.192 1.99892 -2.55369 0
M  V30 4724 H 476.977 0.779515 -3.84273 0
M  V30 4725 H 478.467 1.76791 -3.78332 0
M  V30 4726 N 478.904 1.54736 -0.299062 0
M  V30 4727 C 480.129 2.04975 0.316254 0
M  V30 4728 C 480.554 1.17501 1.46885 0
M  V30 4729 O 479.912 0.178678 1.80417 0
M  V30 4730 C 479.96 3.52672 0.751997 0
M  V30 4731 O 479.064 3.68226 1.85697 0
M  V30 4732 H 478.405 0.661126 0.0617175 0
M  V30 4733 H 480.935 1.99805 -0.440341 0
M  V30 4734 H 480.945 3.94488 1.04133 0
M  V30 4735 H 479.62 4.158 -0.0911482 0
M  V30 4736 H 478.197 3.38316 1.56834 0
M  V30 4737 N 480.382 0.0267497 1.57577 0
M  V30 4738 C 481.345 -0.940916 2.08996 0
M  V30 4739 C 482.345 -1.25561 1.00455 0
M  V30 4740 O 483.535 -1.19634 1.26623 0
M  V30 4741 C 480.667 -2.25814 2.55384 0
M  V30 4742 H 481.86 -0.495628 2.95776 0
M  V30 4743 H 479.413 -0.221241 1.54726 0
M  V30 4744 H 480.148 -2.74976 1.71926 0
M  V30 4745 H 479.933 -2.04285 3.34679 0
M  V30 4746 H 481.423 -2.95178 2.95398 0
M  V30 4747 N 481.861 -1.55662 -0.24637 0
M  V30 4748 C 483.089 -1.81575 -0.991876 0
M  V30 4749 C 483.504 -0.602545 -1.78927 0
M  V30 4750 O 482.861 0.428795 -1.77391 0
M  V30 4751 C 482.912 -3.05711 -1.92933 0
M  V30 4752 O 482.633 -4.22348 -1.1642 0
M  V30 4753 C 484.134 -3.44428 -2.79078 0
M  V30 4754 H 481.354 -0.604209 -0.291844 0
M  V30 4755 H 483.898 -2.02722 -0.269095 0
M  V30 4756 H 482.053 -2.86612 -2.60638 0
M  V30 4757 H 482.467 -4.92706 -1.79835 0
M  V30 4758 H 483.941 -4.34388 -3.40603 0
M  V30 4759 H 484.418 -2.65037 -3.50217 0
M  V30 4760 H 485.024 -3.65879 -2.16824 0
M  V30 4761 N 483.339 0.512053 -1.4905 0
M  V30 4762 C 484.585 1.26613 -1.59187 0
M  V30 4763 C 484.94 1.90494 -0.270163 0
M  V30 4764 O 484.233 1.77204 0.728648 0
M  V30 4765 C 484.427 2.36446 -2.68008 0
M  V30 4766 C 484.256 1.83334 -4.10632 0
M  V30 4767 C 483.026 1.65131 -4.77556 0
M  V30 4768 C 485.224 1.35153 -4.96224 0
M  V30 4769 N 483.206 1.06833 -6.04533 0
M  V30 4770 C 484.577 0.889186 -6.13591 0
M  V30 4771 C 486.632 1.23623 -4.82309 0
M  V30 4772 C 485.335 0.322953 -7.18575 0
M  V30 4773 C 487.361 0.683978 -5.87431 0
M  V30 4774 C 486.723 0.2318 -7.04018 0
M  V30 4775 H 482.822 0.453678 -0.636946 0
M  V30 4776 H 485.406 0.575217 -1.86009 0
M  V30 4777 H 483.577 3.03012 -2.42978 0
M  V30 4778 H 485.309 3.03485 -2.67729 0
M  V30 4779 H 482.064 1.89178 -4.34176 0
M  V30 4780 H 482.488 0.796425 -6.72299 0
M  V30 4781 H 487.13 1.57184 -3.92496 0
M  V30 4782 H 484.848 -0.024943 -8.08096 0
M  V30 4783 H 488.434 0.597694 -5.78722 0
M  V30 4784 H 487.314 -0.188869 -7.83973 0
M  V30 4785 N 484.817 1.37938 0.762283 0
M  V30 4786 C 486.045 1.36883 1.55147 0
M  V30 4787 C 486.46 -0.0435348 1.8875 0
M  V30 4788 O 485.817 -1.00786 1.52146 0
M  V30 4789 C 485.868 2.21624 2.85596 0
M  V30 4790 O 485.589 3.57358 2.5343 0
M  V30 4791 C 487.09 2.28653 3.7978 0
M  V30 4792 H 484.31 0.468521 0.480343 0
M  V30 4793 H 486.854 1.81404 0.944079 0
M  V30 4794 H 485.009 1.80588 3.42734 0
M  V30 4795 H 485.423 4.01883 3.37032 0
M  V30 4796 H 486.897 2.9225 4.68288 0
M  V30 4797 H 487.374 1.29767 4.19592 0
M  V30 4798 H 487.98 2.70043 3.28568 0
M  V30 4799 N 486.295 -0.989507 1.22664 0
M  V30 4800 C 487.205 -2.11449 1.01619 0
M  V30 4801 C 488.221 -1.73962 -0.036545 0
M  V30 4802 O 489.397 -2.00788 0.156924 0
M  V30 4803 C 486.462 -3.41465 0.600204 0
M  V30 4804 C 485.523 -3.93033 1.72695 0
M  V30 4805 C 484.756 -5.16844 1.33071 0
M  V30 4806 O 484.979 -5.7001 0.210975 0
M  V30 4807 O 483.913 -5.6225 2.14845 0
M  V30 4808 H 487.739 -2.32088 1.9588 0
M  V30 4809 H 485.324 -1.09823 1.01289 0
M  V30 4810 H 487.206 -4.19695 0.37873 0
M  V30 4811 H 485.881 -3.22178 -0.313511 0
M  V30 4812 H 484.788 -3.15961 2.00298 0
M  V30 4813 H 486.121 -4.16758 2.61865 0
M  V30 4814 N 487.773 -1.03688 -1.18687 0
M  V30 4815 C 489.019 -0.74888 -1.89112 0
M  V30 4816 C 489.374 0.715345 -1.78607 0
M  V30 4817 O 488.667 1.51498 -1.17299 0
M  V30 4818 C 488.861 -1.14477 -3.3857 0
M  V30 4819 C 488.69 -2.64594 -3.63621 0
M  V30 4820 C 487.46 -3.31685 -3.812 0
M  V30 4821 C 489.658 -3.62811 -3.64517 0
M  V30 4822 N 487.64 -4.70822 -3.93955 0
M  V30 4823 C 489.011 -4.87603 -3.8294 0
M  V30 4824 C 491.066 -3.56495 -3.47585 0
M  V30 4825 C 489.769 -6.0684 -3.86184 0
M  V30 4826 C 491.795 -4.75155 -3.52111 0
M  V30 4827 C 491.157 -5.98765 -3.71026 0
M  V30 4828 H 487.256 -0.32603 -0.710794 0
M  V30 4829 H 489.84 -1.3258 -1.42586 0
M  V30 4830 H 488.011 -0.595974 -3.838 0
M  V30 4831 H 489.743 -0.808187 -3.96548 0
M  V30 4832 H 486.498 -2.82091 -3.80423 0
M  V30 4833 H 486.922 -5.43122 -4.04163 0
M  V30 4834 H 491.564 -2.61907 -3.31911 0
M  V30 4835 H 489.282 -7.01788 -4.00648 0
M  V30 4836 H 492.868 -4.71905 -3.40289 0
M  V30 4837 H 491.748 -6.89047 -3.74412 0
M  V30 4838 N 489.251 1.34841 -0.815825 0
M  V30 4839 C 490.476 2.03261 -0.41226 0
M  V30 4840 C 490.901 1.61055 0.971751 0
M  V30 4841 O 490.259 0.7917 1.63101 0
M  V30 4842 C 490.307 3.56914 -0.514289 0
M  V30 4843 O 489.411 4.09728 0.468675 0
M  V30 4844 H 488.752 0.641664 -0.170771 0
M  V30 4845 H 491.282 1.72241 -1.10427 0
M  V30 4846 H 491.292 4.06156 -0.387457 0
M  V30 4847 H 489.967 3.86982 -1.52375 0
M  V30 4848 H 488.544 3.71681 0.301316 0
M  V30 4849 N 490.729 0.570148 1.46925 0
M  V30 4850 C 491.954 0.0542592 2.07329 0
M  V30 4851 C 492.379 -1.23582 1.41806 0
M  V30 4852 O 491.737 -1.74341 0.497479 0
M  V30 4853 C 491.785 -0.111175 3.60429 0
M  V30 4854 O 490.889 -1.17071 3.95434 0
M  V30 4855 H 490.23 0.0571425 0.661537 0
M  V30 4856 H 492.76 0.789516 1.88753 0
M  V30 4857 H 492.77 -0.321315 4.06733 0
M  V30 4858 H 491.445 0.831012 4.07513 0
M  V30 4859 H 490.022 -0.940029 3.60857 0
M  V30 4860 N 492.207 -1.54576 0.307264 0
M  V30 4861 C 493.454 -2.00263 -0.300167 0
M  V30 4862 C 493.782 -1.19561 -1.53413 0
M  V30 4863 O 493.037 -0.261487 -1.93945 0
M  V30 4864 C 493.336 -3.50572 -0.695253 0
M  V30 4865 C 493.002 -4.48771 0.437679 0
M  V30 4866 C 491.664 -4.7534 0.748681 0
M  V30 4867 C 494.016 -5.0721 1.19949 0
M  V30 4868 C 491.344 -5.5761 1.8245 0
M  V30 4869 C 493.696 -5.90651 2.26527 0
M  V30 4870 C 492.36 -6.15528 2.58227 0
M  V30 4871 H 491.63 -0.732814 -0.109839 0
M  V30 4872 H 494.277 -1.86664 0.427661 0
M  V30 4873 H 492.582 -3.61814 -1.50326 0
M  V30 4874 H 494.279 -3.83352 -1.17653 0
M  V30 4875 H 490.869 -4.282 0.185187 0
M  V30 4876 H 495.053 -4.86679 0.972474 0
M  V30 4877 H 490.309 -5.75121 2.07476 0
M  V30 4878 H 494.483 -6.34957 2.86011 0
M  V30 4879 H 492.11 -6.79066 3.4172 0
M  V30 4880 N 493.685 -0.035106 -1.57561 0
M  V30 4881 C 494.617 0.973604 -2.07494 0
M  V30 4882 C 495.63 1.28504 -0.999534 0
M  V30 4883 O 496.819 1.24864 -1.27559 0
M  V30 4884 C 493.919 2.29945 -2.48955 0
M  V30 4885 C 493.092 2.1723 -3.79644 0
M  V30 4886 C 492.151 3.328 -4.07592 0
M  V30 4887 O 491.177 3.09418 -4.77754 0
M  V30 4888 N 492.379 4.56779 -3.58236 0
M  V30 4889 H 495.144 0.547525 -2.94656 0
M  V30 4890 H 492.705 0.151515 -1.61189 0
M  V30 4891 H 494.697 3.06097 -2.64739 0
M  V30 4892 H 493.267 2.64173 -1.67126 0
M  V30 4893 H 492.487 1.25768 -3.73599 0
M  V30 4894 H 493.775 2.05945 -4.65257 0
M  V30 4895 H 493.173 4.78668 -3.01485 0
M  V30 4896 H 491.73 5.30079 -3.79288 0
M  V30 4897 N 495.163 1.55791 0.238111 0
M  V30 4898 C 496.44 1.68798 0.98826 0
M  V30 4899 C 496.82 0.577562 2.03045 0
M  V30 4900 O 496.168 -0.41778 2.24648 0
M  V30 4901 C 496.378 3.09454 1.61367 0
M  V30 4902 C 497.726 3.68335 2.11221 0
M  V30 4903 O 498.75 3.1231 1.71292 0
M  V30 4904 O 497.609 4.6657 2.84561 0
M  V30 4905 H 494.703 0.686881 0.460568 0
M  V30 4906 H 497.249 1.68118 0.231202 0
M  V30 4907 H 496.021 3.81726 0.860295 0
M  V30 4908 H 495.644 3.14182 2.4367 0
M  V30 4909 N 496.642 -0.504142 1.49319 0
M  V30 4910 C 497.572 -1.61473 1.68667 0
M  V30 4911 C 498.553 -1.61455 0.535378 0
M  V30 4912 O 499.738 -1.78245 0.770868 0
M  V30 4913 C 496.868 -2.99971 1.75028 0
M  V30 4914 C 495.822 -3.14854 2.89916 0
M  V30 4915 C 495.148 -4.54671 2.81387 0
M  V30 4916 C 496.448 -2.95176 4.30893 0
M  V30 4917 H 498.142 -1.45535 2.61648 0
M  V30 4918 H 495.688 -0.698711 1.25913 0
M  V30 4919 H 497.641 -3.77562 1.8715 0
M  V30 4920 H 496.365 -3.1699 0.786441 0
M  V30 4921 H 495.024 -2.39687 2.77391 0
M  V30 4922 H 494.672 -4.68562 1.82917 0
M  V30 4923 H 494.372 -4.6557 3.58494 0
M  V30 4924 H 495.896 -5.34327 2.95512 0
M  V30 4925 H 497.31 -3.62538 4.44116 0
M  V30 4926 H 495.707 -3.17549 5.09198 0
M  V30 4927 H 496.777 -1.91332 4.45556 0
M  V30 4928 N 498.12 -1.38341 -0.754957 0
M  V30 4929 C 499.348 -1.37704 -1.54419 0
M  V30 4930 C 499.763 0.0335243 -1.8877 0
M  V30 4931 O 499.12 0.999773 -1.52679 0
M  V30 4932 C 499.171 -2.23136 -2.84416 0
M  V30 4933 O 498.892 -3.58697 -2.51531 0
M  V30 4934 C 500.393 -2.30664 -3.78562 0
M  V30 4935 H 497.613 -0.471061 -0.477852 0
M  V30 4936 H 500.157 -1.81902 -0.934446 0
M  V30 4937 H 498.312 -1.82403 -3.41772 0
M  V30 4938 H 498.726 -4.03665 -3.34896 0
M  V30 4939 H 500.2 -2.9473 -4.66732 0
M  V30 4940 H 500.677 -1.3199 -4.18898 0
M  V30 4941 H 501.283 -2.71781 -3.27131 0
M  V30 4942 N 499.598 0.982988 -1.23187 0
M  V30 4943 C 500.528 2.09301 -1.03515 0
M  V30 4944 C 501.509 1.70035 0.0471136 0
M  V30 4945 O 502.694 1.93847 -0.117029 0
M  V30 4946 C 499.824 3.4167 -0.622791 0
M  V30 4947 C 498.778 3.94828 -1.65211 0
M  V30 4948 C 498.104 5.23362 -1.09527 0
M  V30 4949 C 499.404 4.2439 -3.04451 0
M  V30 4950 H 501.098 2.26016 -1.96359 0
M  V30 4951 H 498.644 1.08611 -0.945501 0
M  V30 4952 H 500.597 4.18746 -0.472233 0
M  V30 4953 H 499.321 3.24811 0.341329 0
M  V30 4954 H 497.98 3.19895 -1.79061 0
M  V30 4955 H 497.628 5.02852 -0.122211 0
M  V30 4956 H 497.328 5.59895 -1.783 0
M  V30 4957 H 498.852 6.03062 -0.956511 0
M  V30 4958 H 500.266 4.92225 -2.93917 0
M  V30 4959 H 498.663 4.72118 -3.70438 0
M  V30 4960 H 499.733 3.31765 -3.53638 0
M  V30 4961 N 501.076 1.04316 1.18135 0
M  V30 4962 C 502.023 0.636398 2.21853 0
M  V30 4963 C 502.993 -0.357039 1.62217 0
M  V30 4964 O 504.178 -0.250453 1.89149 0
M  V30 4965 C 501.318 0.00812779 3.45099 0
M  V30 4966 C 500.431 1.04933 4.19062 0
M  V30 4967 C 499.566 0.389313 5.29771 0
M  V30 4968 C 498.605 1.41544 5.9551 0
M  V30 4969 N 497.742 0.78021 6.97751 0
M  V30 4970 H 502.582 1.52536 2.56002 0
M  V30 4971 H 500.119 0.76304 1.25762 0
M  V30 4972 H 502.077 -0.373497 4.15525 0
M  V30 4973 H 500.707 -0.844336 3.11562 0
M  V30 4974 H 499.759 1.54888 3.47439 0
M  V30 4975 H 501.071 1.82862 4.64072 0
M  V30 4976 H 500.225 -0.0463805 6.06682 0
M  V30 4977 H 498.964 -0.422038 4.8587 0
M  V30 4978 H 497.969 1.86124 5.17337 0
M  V30 4979 H 499.194 2.22854 6.41493 0
M  V30 4980 H 497.14 -0.0107899 6.55999 0
M  V30 4981 H 497.057 1.49716 7.41027 0
M  V30 4982 H 498.325 0.368996 7.78626 0
M  V30 4983 N 502.554 -1.34406 0.822964 0
M  V30 4984 C 503.779 -2.0304 0.423034 0
M  V30 4985 C 504.204 -1.61568 -0.963196 0
M  V30 4986 O 503.562 -0.800339 -1.62678 0
M  V30 4987 C 503.61 -3.56636 0.53321 0
M  V30 4988 O 502.714 -4.09971 -0.446939 0
M  V30 4989 H 502.055 -0.64075 0.174171 0
M  V30 4990 H 504.585 -1.71653 1.11339 0
M  V30 4991 H 504.595 -4.05945 0.408991 0
M  V30 4992 H 503.27 -3.86168 1.54425 0
M  V30 4993 H 501.847 -3.71835 -0.281601 0
M  V30 4994 N 504.032 -0.577932 -1.46621 0
M  V30 4995 C 504.982 0.178869 -2.27297 0
M  V30 4996 C 505.966 0.866279 -1.35589 0
M  V30 4997 O 507.158 0.761163 -1.59798 0
M  V30 4998 C 504.287 1.19499 -3.2183 0
M  V30 4999 C 503.373 0.50994 -4.21023 0
M  V30 5000 N 503.764 -0.43177 -5.03954 0
M  V30 5001 C 502.062 0.761287 -4.39455 0
M  V30 5002 C 502.763 -0.831693 -5.75724 0
M  V30 5003 N 501.739 -0.181897 -5.43296 0
M  V30 5004 H 505.541 -0.544859 -2.88805 0
M  V30 5005 H 503.055 -0.399373 -1.57413 0
M  V30 5006 H 505.052 1.75131 -3.78332 0
M  V30 5007 H 503.712 1.91959 -2.61881 0
M  V30 5008 H 504.723 -0.807045 -5.11573 0
M  V30 5009 H 501.4 1.47282 -3.90659 0
M  V30 5010 H 502.79 -1.6067 -6.52407 0
M  V30 5011 N 505.51 1.54411 -0.315457 0
M  V30 5012 C 506.758 2.00023 0.288971 0
M  V30 5013 C 507.079 1.20529 1.5329 0
M  V30 5014 O 506.349 0.304986 1.93511 0
M  V30 5015 H 504.929 0.738891 0.109766 0
M  V30 5016 H 507.591 1.90094 -0.430129 0
M  V30 5017 H 506.687 3.07198 0.550999 0
M  V30 5018 N 506.988 0.0434614 1.5754 0
M  V30 5019 C 507.936 -0.951465 2.1225 0
M  V30 5020 C 508.93 -1.3274 1.05245 0
M  V30 5021 O 510.136 -1.30795 1.23663 0
M  V30 5022 H 506.511 -0.324667 0.678303 0
M  V30 5023 H 508.482 -0.464855 2.94757 0
M  V30 5024 C 507.231 -2.21972 2.67626 0
M  V30 5025 H 506.554 -1.93923 3.4962 0
M  V30 5026 H 507.994 -2.89765 3.09536 0
M  V30 5027 C 506.453 -2.95919 1.61038 0
M  V30 5028 O 506.983 -3.8857 1.01862 0
M  V30 5029 N 505.189 -2.58511 1.32741 0
M  V30 5030 H 504.736 -1.83244 1.81051 0
M  V30 5031 H 504.694 -3.08296 0.616531 0
M  V30 5032 N 508.466 -1.55915 -0.229846 0
M  V30 5033 C 509.694 -1.82617 -0.972562 0
M  V30 5034 C 510.109 -0.621488 -1.78278 0
M  V30 5035 O 509.466 0.409956 -1.77836 0
M  V30 5036 C 509.517 -3.0774 -1.89679 0
M  V30 5037 O 509.238 -4.23559 -1.11934 0
M  V30 5038 C 510.739 -3.47368 -2.75409 0
M  V30 5039 H 507.959 -0.60727 -0.285419 0
M  V30 5040 H 510.503 -2.02996 -0.247579 0
M  V30 5041 H 508.658 -2.89361 -2.57583 0
M  V30 5042 H 509.072 -4.94586 -1.74599 0
M  V30 5043 H 510.546 -4.37977 -3.35977 0
M  V30 5044 H 511.023 -2.68737 -3.47386 0
M  V30 5045 H 511.629 -3.68158 -2.12931 0
M  V30 5046 N 509.944 0.496216 -1.49584 0
M  V30 5047 C 511.193 1.24668 -1.58558 0
M  V30 5048 C 511.506 1.9359 -0.279703 0
M  V30 5049 O 512.712 2.70365 -0.248048 0
M  V30 5050 C 511.168 2.26388 -2.79779 0
M  V30 5051 C 510.776 1.63384 -4.17145 0
M  V30 5052 C 512.52 3.02233 -2.98086 0
M  V30 5053 C 510.427 2.63243 -5.29582 0
M  V30 5054 H 509.357 0.468995 -0.590389 0
M  V30 5055 H 512.008 0.519985 -1.75978 0
M  V30 5056 H 510.39 3.02241 -2.55863 0
M  V30 5057 H 511.564 0.93491 -4.51216 0
M  V30 5058 H 509.879 0.999121 -4.04236 0
M  V30 5059 H 512.476 3.76919 -3.79257 0
M  V30 5060 H 512.819 3.60132 -2.08831 0
M  V30 5061 H 513.352 2.33495 -3.22063 0
M  V30 5062 H 510.091 2.10119 -6.20911 0
M  V30 5063 H 509.611 3.31363 -4.99959 0
M  V30 5064 H 511.29 3.25575 -5.59115 0
M  V30 5065 N 511.423 1.38739 0.74761 0
M  V30 5066 C 512.669 1.35475 1.50912 0
M  V30 5067 C 513.002 -0.0533093 1.94127 0
M  V30 5068 O 512.277 -1.01572 1.65871 0
M  V30 5069 C 512.56 2.31582 2.75757 0
M  V30 5070 C 512.413 3.81274 2.38642 0
M  V30 5071 C 513.732 2.25722 3.77806 0
M  V30 5072 H 510.851 0.493427 0.547447 0
M  V30 5073 H 513.493 1.69634 0.855823 0
M  V30 5074 H 511.643 2.02582 3.31501 0
M  V30 5075 H 513.315 4.20972 1.88626 0
M  V30 5076 H 511.558 3.98664 1.71025 0
M  V30 5077 H 512.229 4.4399 3.27989 0
M  V30 5078 H 514.705 2.51336 3.31616 0
M  V30 5079 H 513.581 2.95069 4.62845 0
M  V30 5080 H 513.842 1.25803 4.23823 0
M  V30 5081 N 512.901 -0.976442 1.23707 0
M  V30 5082 C 514.126 -1.75875 1.09922 0
M  V30 5083 C 514.551 -1.84911 -0.34489 0
M  V30 5084 O 513.909 -1.31363 -1.24954 0
M  V30 5085 C 513.957 -3.16179 1.73388 0
M  V30 5086 O 513.061 -4.00124 0.99871 0
M  V30 5087 H 512.402 -0.540954 0.385052 0
M  V30 5088 H 514.932 -1.22546 1.6384 0
M  V30 5089 H 514.942 -3.66741 1.78788 0
M  V30 5090 H 513.617 -3.08917 2.78466 0
M  V30 5091 H 512.194 -3.58624 1.02193 0
M  V30 5092 N 514.379 -1.04941 -1.1758 0
M  V30 5093 C 515.628 -0.753124 -1.87112 0
M  V30 5094 C 515.941 0.722507 -1.81767 0
M  V30 5095 O 517.147 1.13265 -2.46746 0
M  V30 5096 C 515.603 -1.29695 -3.35719 0
M  V30 5097 C 515.211 -2.80184 -3.49572 0
M  V30 5098 C 516.955 -1.07759 -4.10595 0
M  V30 5099 C 514.862 -3.2788 -4.92187 0
M  V30 5100 H 513.792 -0.278034 -0.700866 0
M  V30 5101 H 516.443 -1.26637 -1.32798 0
M  V30 5102 H 514.825 -0.711522 -3.89555 0
M  V30 5103 H 515.999 -3.44561 -3.05965 0
M  V30 5104 H 514.314 -3.00632 -2.88113 0
M  V30 5105 H 516.911 -1.40899 -5.15802 0
M  V30 5106 H 517.254 -0.0152302 -4.16297 0
M  V30 5107 H 517.787 -1.62809 -3.62957 0
M  V30 5108 H 514.526 -4.33535 -4.91658 0
M  V30 5109 H 514.046 -2.68245 -5.36475 0
M  V30 5110 H 515.725 -3.22412 -5.60945 0
M  V30 5111 N 515.857 1.33968 -0.830081 0
M  V30 5112 C 517.268 1.80439 -0.479455 0
M  V30 5113 C 517.619 1.68756 1.00079 0
M  V30 5114 O 516.744 1.23171 1.77927 0
M  V30 5115 C 517.339 3.27611 -0.863505 0
M  V30 5116 C 515.898 3.72133 -0.565145 0
M  V30 5117 C 515.045 2.55549 -1.07657 0
M  V30 5118 H 517.996 1.21614 -1.0196 0
M  V30 5119 H 518.017 3.8012 -0.170083 0
M  V30 5120 H 517.529 3.36082 -1.94089 0
M  V30 5121 H 515.63 3.69196 0.502536 0
M  V30 5122 H 515.743 4.65963 -1.11422 0
M  V30 5123 H 514.107 2.49788 -0.497807 0
M  V30 5124 H 514.89 2.66786 -2.16055 0
M  V30 5125 N 517.335 0.585699 1.46312 0
M  V30 5126 C 518.565 0.0780166 2.06453 0
M  V30 5127 C 518.973 -1.2336 1.43454 0
M  V30 5128 O 518.316 -1.75734 0.535086 0
M  V30 5129 C 518.378 -0.158951 3.59148 0
M  V30 5130 C 518.042 1.06752 4.44357 0
M  V30 5131 C 519.039 1.98031 4.80708 0
M  V30 5132 C 516.724 1.2902 4.85447 0
M  V30 5133 C 518.718 3.09924 5.5698 0
M  V30 5134 C 516.405 2.41218 5.61478 0
M  V30 5135 C 517.403 3.31499 5.97158 0
M  V30 5136 O 517.091 4.41747 6.71651 0
M  V30 5137 H 516.823 0.0558894 0.673686 0
M  V30 5138 H 519.377 0.806994 1.88883 0
M  V30 5139 H 517.607 -0.942575 3.75037 0
M  V30 5140 H 519.296 -0.615513 4.01206 0
M  V30 5141 H 520.062 1.82043 4.49539 0
M  V30 5142 H 515.941 0.596567 4.57124 0
M  V30 5143 H 519.485 3.80415 5.84748 0
M  V30 5144 H 515.382 2.57167 5.9206 0
M  V30 5145 H 516.15 4.40152 6.90079 0
M  V30 5146 N 518.813 -1.54241 0.323641 0
M  V30 5147 C 520.041 -2.04985 -0.280871 0
M  V30 5148 C 520.456 -1.19978 -1.45777 0
M  V30 5149 O 519.813 -0.230471 -1.81039 0
M  V30 5150 C 519.864 -3.54353 -0.715258 0
M  V30 5151 O 519.585 -4.36132 0.414817 0
M  V30 5152 C 521.086 -4.21189 -1.38257 0
M  V30 5153 H 518.306 -0.66851 -0.0577502 0
M  V30 5154 H 520.85 -1.99029 0.469852 0
M  V30 5155 H 519.005 -3.60596 -1.41596 0
M  V30 5156 H 519.419 -5.2445 0.0725227 0
M  V30 5157 H 520.893 -5.27154 -1.63745 0
M  V30 5158 H 521.37 -3.72307 -2.32989 0
M  V30 5159 H 521.976 -4.19085 -0.724447 0
M  V30 5160 N 520.291 -0.0518155 -1.57515 0
M  V30 5161 C 521.521 0.63048 -1.96745 0
M  V30 5162 C 521.929 1.64875 -0.928054 0
M  V30 5163 O 521.272 1.83449 0.0960678 0
M  V30 5164 C 521.334 1.37381 -3.32215 0
M  V30 5165 C 520.998 0.511298 -4.54131 0
M  V30 5166 C 521.995 -0.222884 -5.19422 0
M  V30 5167 C 519.68 0.442035 -5.00351 0
M  V30 5168 C 521.674 -1.01476 -6.2927 0
M  V30 5169 C 519.361 -0.35353 -6.10077 0
M  V30 5170 C 520.359 -1.08062 -6.74397 0
M  V30 5171 O 520.047 -1.8631 -7.82013 0
M  V30 5172 H 519.779 0.177126 -0.652382 0
M  V30 5173 H 522.333 -0.114726 -2.05079 0
M  V30 5174 H 520.563 2.16466 -3.20436 0
M  V30 5175 H 522.252 1.9464 -3.56188 0
M  V30 5176 H 523.018 -0.178846 -4.8467 0
M  V30 5177 H 518.897 0.997562 -4.50077 0
M  V30 5178 H 522.441 -1.58279 -6.79407 0
M  V30 5179 H 518.338 -0.399205 -6.44264 0
M  V30 5180 H 519.106 -1.78528 -7.98793 0
M  V30 5181 N 521.769 1.56035 0.221574 0
M  V30 5182 C 523.185 1.49026 0.571271 0
M  V30 5183 C 523.385 0.746912 1.87146 0
M  V30 5184 O 522.441 0.286566 2.50869 0
M  V30 5185 C 523.754 2.93579 0.650522 0
M  V30 5186 C 525.302 3.04099 0.741151 0
M  V30 5187 C 525.777 4.5001 0.851747 0
M  V30 5188 N 527.268 4.54053 0.915968 0
M  V30 5189 C 528.003 5.64232 1.02125 0
M  V30 5190 N 527.499 6.84164 1.09049 0
M  V30 5191 N 529.292 5.52084 1.05639 0
M  V30 5192 H 521.443 2.02791 -0.63162 0
M  V30 5193 H 523.706 0.921736 -0.221602 0
M  V30 5194 H 523.412 3.50912 -0.235253 0
M  V30 5195 H 523.286 3.45476 1.51413 0
M  V30 5196 H 525.673 2.4683 1.61737 0
M  V30 5197 H 525.754 2.55371 -0.148128 0
M  V30 5198 H 525.398 5.07896 -0.0200117 0
M  V30 5199 H 525.328 4.96444 1.75644 0
M  V30 5200 H 527.819 3.67683 0.872782 0
M  V30 5201 H 528.132 7.63883 1.1706 0
M  V30 5202 H 526.477 6.86875 1.05962 0
M  V30 5203 H 529.668 4.57317 0.998953 0
M  V30 5204 H 529.841 6.37983 1.13498 0
M  V30 5205 N 523.247 -0.488276 1.49845 0
M  V30 5206 C 524.195 -1.60917 1.67954 0
M  V30 5207 C 525.189 -1.6038 0.54539 0
M  V30 5208 O 526.395 -1.64736 0.7254 0
M  V30 5209 H 522.77 -0.533658 0.529824 0
M  V30 5210 H 524.741 -1.428 2.62013 0
M  V30 5211 C 523.49 -2.98975 1.77509 0
M  V30 5212 H 522.813 -3.00099 2.6416 0
M  V30 5213 H 524.253 -3.76906 1.9421 0
M  V30 5214 C 522.712 -3.3282 0.522745 0
M  V30 5215 O 523.242 -4.00208 -0.345866 0
M  V30 5216 N 521.448 -2.8808 0.381882 0
M  V30 5217 H 520.995 -2.33415 1.08974 0
M  V30 5218 H 520.953 -3.11091 -0.454929 0
M  V30 5219 N 524.725 -1.39134 -0.740242 0
M  V30 5220 C 525.953 -1.39334 -1.5295 0
M  V30 5221 C 526.368 0.0135008 -1.88795 0
M  V30 5222 O 525.725 0.983524 -1.5373 0
M  V30 5223 C 525.776 -2.2614 -2.82034 0
M  V30 5224 O 525.497 -3.61345 -2.47712 0
M  V30 5225 C 526.998 -2.34666 -3.76094 0
M  V30 5226 H 524.218 -0.476103 -0.472828 0
M  V30 5227 H 526.762 -1.82883 -0.9151 0
M  V30 5228 H 524.917 -1.86018 -3.39818 0
M  V30 5229 H 525.331 -4.07194 -3.30595 0
M  V30 5230 H 526.805 -2.99663 -4.63579 0
M  V30 5231 H 527.282 -1.36426 -4.17474 0
M  V30 5232 H 527.888 -2.75236 -3.2423 0
M  V30 5233 N 526.204 0.969867 -1.24223 0
M  V30 5234 C 527.45 1.71582 -1.09231 0
M  V30 5235 C 527.805 1.88898 0.365432 0
M  V30 5236 O 527.098 1.43781 1.2664 0
M  V30 5237 C 527.292 3.10883 -1.76314 0
M  V30 5238 C 527.121 3.07155 -3.2846 0
M  V30 5239 C 525.891 3.11757 -3.97663 0
M  V30 5240 C 528.089 2.895 -4.25082 0
M  V30 5241 N 526.071 2.98025 -5.36707 0
M  V30 5242 C 527.442 2.84041 -5.51109 0
M  V30 5243 C 529.497 2.74064 -4.15684 0
M  V30 5244 C 528.2 2.64725 -6.68815 0
M  V30 5245 C 530.226 2.56115 -5.33066 0
M  V30 5246 C 529.588 2.51363 -6.58024 0
M  V30 5247 H 525.687 0.636496 -0.454309 0
M  V30 5248 H 528.271 1.15004 -1.57106 0
M  V30 5249 H 526.442 3.65657 -1.30955 0
M  V30 5250 H 528.174 3.74171 -1.54201 0
M  V30 5251 H 524.929 3.20352 -3.48814 0
M  V30 5252 H 525.353 2.94405 -6.09635 0
M  V30 5253 H 529.995 2.76521 -3.19837 0
M  V30 5254 H 527.713 2.61011 -7.64787 0
M  V30 5255 H 531.299 2.45119 -5.27644 0
M  V30 5256 H 530.179 2.37651 -7.47323 0
M  V30 5257 N 527.682 1.05563 1.17022 0
M  V30 5258 C 528.91 0.78845 1.91288 0
M  V30 5259 C 529.325 -0.656318 1.77025 0
M  V30 5260 O 528.682 -1.44869 1.10992 0
M  V30 5261 C 528.733 1.16444 3.42232 0
M  V30 5262 O 528.454 2.5525 3.5606 0
M  V30 5263 C 529.955 0.923937 4.33565 0
M  V30 5264 H 527.175 0.286389 0.606813 0
M  V30 5265 H 529.719 1.4073 1.48375 0
M  V30 5266 H 527.874 0.590266 3.82877 0
M  V30 5267 H 528.288 2.70097 4.49609 0
M  V30 5268 H 529.762 1.23672 5.37968 0
M  V30 5269 H 530.239 -0.140688 4.38975 0
M  V30 5270 H 530.845 1.48214 3.98639 0
M  V30 5271 N 529.16 -1.33526 0.837174 0
M  V30 5272 C 530.09 -2.31764 0.284206 0
M  V30 5273 C 531.071 -1.58896 -0.607142 0
M  V30 5274 O 532.256 -1.86798 -0.531047 0
M  V30 5275 C 529.386 -3.43029 -0.542962 0
M  V30 5276 C 528.34 -4.27255 0.252451 0
M  V30 5277 C 527.666 -5.3012 -0.69836 0
M  V30 5278 C 528.966 -5.01229 1.46858 0
M  V30 5279 H 530.66 -2.78262 1.10502 0
M  V30 5280 H 528.206 -1.3378 0.532812 0
M  V30 5281 H 530.159 -4.1078 -0.940096 0
M  V30 5282 H 528.883 -2.95216 -1.39697 0
M  V30 5283 H 527.542 -3.61127 0.631124 0
M  V30 5284 H 527.19 -4.78564 -1.54872 0
M  V30 5285 H 526.89 -5.87353 -0.170274 0
M  V30 5286 H 528.414 -6.00737 -1.09305 0
M  V30 5287 H 529.828 -5.61756 1.14469 0
M  V30 5288 H 528.225 -5.68104 1.93333 0
M  V30 5289 H 529.295 -4.301 2.23924 0
M  V30 5290 N 530.638 -0.59345 -1.46 0
M  V30 5291 C 531.601 0.123538 -2.28867 0
M  V30 5292 C 532.601 0.808628 -1.38989 0
M  V30 5293 O 533.791 0.658945 -1.61256 0
M  V30 5294 C 530.923 1.1847 -3.19653 0
M  V30 5295 H 532.116 -0.604843 -2.93737 0
M  V30 5296 H 529.669 -0.351875 -1.52288 0
M  V30 5297 H 530.404 1.94431 -2.59552 0
M  V30 5298 H 530.189 0.69783 -3.8584 0
M  V30 5299 H 531.679 1.68726 -3.81997 0
M  V30 5300 N 532.116 1.54067 -0.331816 0
M  V30 5301 C 533.362 2.01012 0.268667 0
M  V30 5302 C 533.695 1.2195 1.51136 0
M  V30 5303 O 532.97 0.303972 1.9211 0
M  V30 5304 C 533.253 3.55158 0.59456 0
M  V30 5305 C 533.106 4.4494 -0.659409 0
M  V30 5306 C 534.425 4.16939 1.4089 0
M  V30 5307 H 531.544 0.730698 0.0961756 0
M  V30 5308 H 534.186 1.84593 -0.450031 0
M  V30 5309 H 532.336 3.6928 1.20685 0
M  V30 5310 H 534.008 4.42675 -1.29756 0
M  V30 5311 H 532.251 4.1428 -1.28665 0
M  V30 5312 H 532.922 5.50643 -0.386804 0
M  V30 5313 H 535.398 4.06443 0.891272 0
M  V30 5314 H 534.274 5.24889 1.60569 0
M  V30 5315 H 534.535 3.70798 2.40752 0
M  V30 5316 N 533.594 0.0601682 1.57485 0
M  V30 5317 C 534.842 -0.610386 1.92662 0
M  V30 5318 C 535.163 -1.70849 0.939981 0
M  V30 5319 O 534.433 -1.95895 -0.0137455 0
M  V30 5320 H 533.013 -0.228457 0.711208 0
M  V30 5321 H 535.675 0.115288 1.94559 0
M  V30 5322 H 534.771 -1.0432 2.94149 0
M  V30 5323 N 535.072 -1.5615 -0.213296 0
M  V30 5324 C 536.32 -1.79191 -0.934612 0
M  V30 5325 C 536.641 -0.630112 -1.84539 0
M  V30 5326 O 535.911 0.35257 -1.92701 0
M  V30 5327 H 534.491 -0.660937 -0.348097 0
M  V30 5328 H 537.153 -1.93618 -0.22317 0
M  V30 5329 H 536.249 -2.71656 -1.53654 0
M  V30 5330 N 536.55 0.480323 -1.50102 0
M  V30 5331 C 537.827 1.24159 -1.51142 0
M  V30 5332 C 538.207 2.09605 -0.250818 0
M  V30 5333 O 537.555 2.15274 0.766118 0
M  V30 5334 C 537.765 2.08057 -2.80202 0
M  V30 5335 C 539.113 2.66556 -3.30504 0
M  V30 5336 O 540.137 2.18308 -2.81461 0
M  V30 5337 O 538.996 3.54442 -4.15973 0
M  V30 5338 H 536.09 0.562928 -0.605839 0
M  V30 5339 H 538.636 0.492899 -1.62384 0
M  V30 5340 H 537.408 1.45032 -3.6343 0
M  V30 5341 H 537.031 2.90079 -2.71919 0
M  V30 5342 N 538.028 1.39524 0.732853 0
M  V30 5343 C 539.258 1.3994 1.51988 0
M  V30 5344 C 539.666 -0.00727973 1.89199 0
M  V30 5345 O 539.009 -0.989521 1.54771 0
M  V30 5346 C 539.071 2.21026 2.83527 0
M  V30 5347 C 538.735 3.69633 2.68738 0
M  V30 5348 C 539.732 4.62665 2.37143 0
M  V30 5349 C 537.417 4.13244 2.85542 0
M  V30 5350 C 539.411 5.97291 2.22536 0
M  V30 5351 C 537.098 5.47945 2.70554 0
M  V30 5352 C 538.096 6.39783 2.39097 0
M  V30 5353 O 537.784 7.72002 2.24204 0
M  V30 5354 H 537.516 0.479795 0.476206 0
M  V30 5355 H 540.07 1.8399 0.913054 0
M  V30 5356 H 538.3 1.71728 3.46477 0
M  V30 5357 H 539.989 2.13594 3.45156 0
M  V30 5358 H 540.755 4.30272 2.2381 0
M  V30 5359 H 536.634 3.42094 3.09019 0
M  V30 5360 H 540.178 6.68939 1.97905 0
M  V30 5361 H 536.075 5.79928 2.83466 0
M  V30 5362 H 536.843 7.8275 2.39258 0
M  V30 5363 N 539.506 -0.963266 1.24736 0
M  V30 5364 C 540.453 -2.05857 1.04363 0
M  V30 5365 C 541.423 -1.6604 -0.0444951 0
M  V30 5366 O 542.608 -1.90477 0.110999 0
M  V30 5367 C 539.748 -3.38745 0.659235 0
M  V30 5368 C 538.861 -3.9173 1.82131 0
M  V30 5369 C 537.996 -5.12906 1.38208 0
M  V30 5370 C 537.035 -5.58098 2.51382 0
M  V30 5371 N 536.172 -6.7049 2.08295 0
M  V30 5372 H 541.012 -2.22616 1.98107 0
M  V30 5373 H 538.549 -1.09103 0.986661 0
M  V30 5374 H 540.507 -4.15107 0.417371 0
M  V30 5375 H 539.137 -3.21898 -0.241201 0
M  V30 5376 H 538.189 -3.11966 2.17672 0
M  V30 5377 H 539.501 -4.21225 2.67153 0
M  V30 5378 H 538.655 -5.96657 1.09935 0
M  V30 5379 H 537.394 -4.85105 0.502456 0
M  V30 5380 H 536.399 -4.72917 2.80409 0
M  V30 5381 H 537.624 -5.87911 3.39909 0
M  V30 5382 H 535.57 -6.44416 1.22737 0
M  V30 5383 H 535.487 -6.99458 2.86869 0
M  V30 5384 H 536.755 -7.57672 1.83175 0
M  V30 5385 N 540.985 -1.06182 -1.16461 0
M  V30 5386 C 542.231 -0.779015 -1.87241 0
M  V30 5387 C 542.564 0.692715 -1.81425 0
M  V30 5388 O 541.839 1.5074 -1.22913 0
M  V30 5389 C 542.122 -1.2728 -3.36856 0
M  V30 5390 C 541.975 -2.80821 -3.51368 0
M  V30 5391 C 543.294 -0.879799 -4.31216 0
M  V30 5392 H 540.413 -0.284464 -0.679889 0
M  V30 5393 H 543.055 -1.31755 -1.36896 0
M  V30 5394 H 541.205 -0.814673 -3.79862 0
M  V30 5395 H 542.877 -3.34833 -3.17308 0
M  V30 5396 H 541.12 -3.19606 -2.93316 0
M  V30 5397 H 541.791 -3.10435 -4.56436 0
M  V30 5398 H 544.267 -1.27436 -3.96105 0
M  V30 5399 H 543.143 -1.25278 -5.34412 0
M  V30 5400 H 543.404 0.215372 -4.41575 0
M  V30 5401 N 542.463 1.3308 -0.844243 0
M  V30 5402 C 543.691 2.01808 -0.456203 0
M  V30 5403 C 544.106 1.63498 0.944131 0
M  V30 5404 O 543.463 0.85102 1.61443 0
M  V30 5405 C 543.514 3.56922 -0.573513 0
M  V30 5406 O 543.235 3.93851 -1.91868 0
M  V30 5407 C 544.736 4.42922 -0.183125 0
M  V30 5408 H 541.956 0.646273 -0.180477 0
M  V30 5409 H 544.5 1.69891 -1.1383 0
M  V30 5410 H 542.655 3.87352 0.0607367 0
M  V30 5411 H 543.069 4.88564 -1.90802 0
M  V30 5412 H 544.543 5.51093 -0.316241 0
M  V30 5413 H 545.02 4.30386 0.875477 0
M  V30 5414 H 545.626 4.1786 -0.792027 0
M  V30 5415 N 543.941 0.601185 1.45683 0
M  V30 5416 C 545.218 0.0261659 1.95582 0
M  V30 5417 C 545.598 -1.4399 1.5437 0
M  V30 5418 O 544.946 -2.13919 0.80318 0
M  V30 5419 C 545.156 0.217557 3.48321 0
M  V30 5420 C 546.504 0.0950076 4.24494 0
M  V30 5421 O 547.528 0.147345 3.55895 0
M  V30 5422 O 546.387 -0.025261 5.46494 0
M  V30 5423 H 543.481 -0.0393688 0.826062 0
M  V30 5424 H 546.027 0.670798 1.55879 0
M  V30 5425 H 544.799 1.23601 3.71266 0
M  V30 5426 H 544.422 -0.46264 3.94899 0
M  V30 5427 N 545.419 -1.53889 0.339982 0
M  V30 5428 C 546.351 -2.22435 -0.55275 0
M  V30 5429 C 547.364 -1.22975 -1.06681 0
M  V30 5430 O 548.553 -1.49351 -0.977575 0
M  V30 5431 C 545.653 -2.8882 -1.77302 0
M  V30 5432 C 544.826 -4.14563 -1.39486 0
M  V30 5433 C 543.885 -4.64391 -2.47442 0
M  V30 5434 O 542.911 -5.28687 -2.10899 0
M  V30 5435 N 544.113 -4.40015 -3.78639 0
M  V30 5436 H 546.878 -2.9968 0.0342669 0
M  V30 5437 H 544.439 -1.61068 0.16394 0
M  V30 5438 H 546.431 -3.19072 -2.48948 0
M  V30 5439 H 545.001 -2.15182 -2.26749 0
M  V30 5440 H 544.221 -3.90896 -0.509321 0
M  V30 5441 H 545.509 -4.96362 -1.11813 0
M  V30 5442 H 544.907 -3.88586 -4.11118 0
M  V30 5443 H 543.464 -4.74881 -4.46465 0
M  V30 5444 N 546.897 -0.0685191 -1.57451 0
M  V30 5445 C 548.143 0.596247 -1.94465 0
M  V30 5446 C 548.498 1.67417 -0.948117 0
M  V30 5447 O 547.791 1.91576 0.0301056 0
M  V30 5448 C 547.985 1.22051 -3.35914 0
M  V30 5449 C 547.814 0.204586 -4.49234 0
M  V30 5450 C 546.584 -0.20959 -5.04865 0
M  V30 5451 C 548.782 -0.556872 -5.11276 0
M  V30 5452 N 546.764 -1.21656 -6.01725 0
M  V30 5453 C 548.135 -1.41642 -6.03604 0
M  V30 5454 C 550.19 -0.613297 -4.94108 0
M  V30 5455 C 548.893 -2.32737 -6.80607 0
M  V30 5456 C 550.919 -1.51174 -5.71752 0
M  V30 5457 C 550.281 -2.35898 -6.63726 0
M  V30 5458 H 546.38 0.189307 -0.75874 0
M  V30 5459 H 548.964 -0.144899 -1.9416 0
M  V30 5460 H 547.135 1.9316 -3.36963 0
M  V30 5461 H 548.867 1.84548 -3.60172 0
M  V30 5462 H 545.622 0.172871 -4.73284 0
M  V30 5463 H 546.046 -1.71746 -6.54853 0
M  V30 5464 H 550.688 0.0275228 -4.22791 0
M  V30 5465 H 548.406 -2.97856 -7.51204 0
M  V30 5466 H 551.992 -1.5602 -5.6049 0
M  V30 5467 H 550.872 -3.04291 -7.22756 0
M  V30 5468 N 548.375 1.56261 0.205012 0
M  V30 5469 C 549.603 1.84141 0.943386 0
M  V30 5470 C 550.018 0.649772 1.77266 0
M  V30 5471 O 549.375 -0.381612 1.78466 0
M  V30 5472 C 549.426 3.10719 1.84759 0
M  V30 5473 O 549.147 4.25286 1.05181 0
M  V30 5474 C 550.648 3.51706 2.69848 0
M  V30 5475 H 547.868 0.611734 0.275721 0
M  V30 5476 H 550.412 2.03364 0.215253 0
M  V30 5477 H 548.567 2.93422 2.52947 0
M  V30 5478 H 548.981 4.97301 1.66709 0
M  V30 5479 H 550.455 4.43266 3.28967 0
M  V30 5480 H 550.932 2.7423 3.43067 0
M  V30 5481 H 551.538 3.71499 2.07047 0
M  V30 5482 N 549.853 -0.472356 1.50355 0
M  V30 5483 C 550.786 -1.58923 1.63764 0
M  V30 5484 C 551.764 -1.55173 0.485793 0
M  V30 5485 O 552.948 -1.74815 0.705132 0
M  V30 5486 C 550.075 -2.97497 1.61905 0
M  V30 5487 C 549.121 -3.19405 2.82635 0
M  V30 5488 S 549.954 -2.99441 4.43954 0
M  V30 5489 C 551.11 -4.40359 4.44786 0
M  V30 5490 H 551.343 -1.47309 2.58239 0
M  V30 5491 H 548.876 -0.659601 1.39602 0
M  V30 5492 H 550.834 -3.77389 1.61518 0
M  V30 5493 H 549.495 -3.06502 0.686683 0
M  V30 5494 H 548.688 -4.20636 2.77636 0
M  V30 5495 H 548.29 -2.47283 2.80583 0
M  V30 5496 H 550.582 -5.32969 4.1827 0
M  V30 5497 H 551.525 -4.50403 5.46391 0
M  V30 5498 H 551.933 -4.22378 3.74509 0
M  V30 5499 N 551.331 -1.39911 -0.725443 0
M  V30 5500 C 552.747 -1.21725 -1.03224 0
M  V30 5501 C 552.947 -0.0855224 -2.01318 0
M  V30 5502 O 552.003 0.55976 -2.46217 0
M  V30 5503 C 553.316 -2.55511 -1.58539 0
M  V30 5504 C 554.864 -2.62439 -1.70572 0
M  V30 5505 C 555.339 -3.9647 -2.29294 0
M  V30 5506 N 556.83 -3.98159 -2.36692 0
M  V30 5507 C 557.565 -4.98647 -2.83088 0
M  V30 5508 N 557.061 -6.0953 -3.2931 0
M  V30 5509 N 558.854 -4.8602 -2.82384 0
M  V30 5510 H 551.005 -2.12267 -0.075048 0
M  V30 5511 H 553.268 -0.943136 -0.0959066 0
M  V30 5512 H 552.974 -3.38926 -0.939249 0
M  V30 5513 H 552.848 -2.75905 -2.57208 0
M  V30 5514 H 555.235 -1.79401 -2.34306 0
M  V30 5515 H 555.316 -2.45885 -0.705297 0
M  V30 5516 H 554.96 -4.79942 -1.66186 0
M  V30 5517 H 554.89 -4.10349 -3.30032 0
M  V30 5518 H 557.381 -3.18085 -2.04035 0
M  V30 5519 H 557.694 -6.82106 -3.6325 0
M  V30 5520 H 556.039 -6.1311 -3.27294 0
M  V30 5521 H 559.23 -3.98493 -2.45603 0
M  V30 5522 H 559.403 -5.64478 -3.18226 0
M  V30 5523 N 552.809 0.956637 -1.25245 0
M  V30 5524 C 553.772 2.03457 -1.05537 0
M  V30 5525 C 554.772 1.60798 -0.00886317 0
M  V30 5526 O 555.962 1.72384 -0.250865 0
M  V30 5527 C 553.094 3.35543 -0.601965 0
M  V30 5528 H 554.287 2.22372 -2.01223 0
M  V30 5529 H 551.84 1.13344 -1.07623 0
M  V30 5530 H 552.575 3.22323 0.357584 0
M  V30 5531 H 552.36 3.67854 -1.35743 0
M  V30 5532 H 553.85 4.14769 -0.485454 0
M  V30 5533 N 554.287 1.06798 1.15896 0
M  V30 5534 C 555.535 0.786211 1.8618 0
M  V30 5535 C 555.856 -0.689547 1.82401 0
M  V30 5536 O 555.126 -1.49913 1.26107 0
M  V30 5537 H 553.706 0.287843 0.689315 0
M  V30 5538 H 556.368 1.35055 1.40521 0
M  V30 5539 H 555.464 1.1157 2.91477 0
M  V30 5540 N 555.766 -1.3263 0.851289 0
M  V30 5541 C 557.012 -1.9766 0.453694 0
M  V30 5542 C 557.345 -1.67225 -0.987396 0
M  V30 5543 O 556.62 -0.958693 -1.69232 0
M  V30 5544 C 556.903 -3.5344 0.68936 0
M  V30 5545 C 556.756 -3.93517 2.17862 0
M  V30 5546 C 558.075 -4.39866 0.143555 0
M  V30 5547 H 555.194 -0.717989 0.166314 0
M  V30 5548 H 557.836 -1.57068 1.06909 0
M  V30 5549 H 555.986 -3.88147 0.165546 0
M  V30 5550 H 557.658 -3.69006 2.76826 0
M  V30 5551 H 555.901 -3.42798 2.65841 0
M  V30 5552 H 556.572 -5.02065 2.29422 0
M  V30 5553 H 559.048 -4.11875 0.591451 0
M  V30 5554 H 557.924 -5.47858 0.338043 0
M  V30 5555 H 558.185 -4.31696 -0.953466 0
M  V30 5556 N 557.244 -0.608902 -1.45362 0
M  V30 5557 C 558.207 0.0992563 -2.28985 0
M  V30 5558 C 559.207 0.793841 -1.39838 0
M  V30 5559 O 560.397 0.641804 -1.61946 0
M  V30 5560 C 557.529 1.15073 -3.20891 0
M  V30 5561 H 558.722 -0.635964 -2.93079 0
M  V30 5562 H 556.275 -0.368007 -1.51906 0
M  V30 5563 H 557.01 1.91667 -2.616 0
M  V30 5564 H 556.795 0.656867 -3.86559 0
M  V30 5565 H 558.285 1.64665 -3.83765 0
M  V30 5566 N 558.722 1.53707 -0.348139 0
M  V30 5567 C 559.952 2.05108 0.247864 0
M  V30 5568 C 560.36 1.22252 1.44399 0
M  V30 5569 O 559.703 0.251853 1.81965 0
M  V30 5570 C 559.765 3.52171 0.722187 0
M  V30 5571 C 559.429 4.5562 -0.354902 0
M  V30 5572 C 560.426 5.05883 -1.19911 0
M  V30 5573 C 558.111 4.99703 -0.510145 0
M  V30 5574 C 560.105 5.98814 -2.18406 0
M  V30 5575 C 557.792 5.92443 -1.49848 0
M  V30 5576 C 558.79 6.41887 -2.33389 0
M  V30 5577 O 558.478 7.32802 -3.3054 0
M  V30 5578 H 558.21 0.674086 0.0508296 0
M  V30 5579 H 560.764 1.99229 -0.49968 0
M  V30 5580 H 558.994 3.55529 1.52105 0
M  V30 5581 H 560.683 3.8652 1.23925 0
M  V30 5582 H 561.449 4.72586 -1.09028 0
M  V30 5583 H 557.328 4.60816 0.130274 0
M  V30 5584 H 560.872 6.3733 -2.83649 0
M  V30 5585 H 556.769 6.25155 -1.60786 0
M  V30 5586 H 557.537 7.50749 -3.26064 0
M  V30 5587 N 560.2 0.0768682 1.57412 0
M  V30 5588 C 561.477 -0.632359 1.85096 0
M  V30 5589 C 561.857 -1.87479 0.9703 0
M  V30 5590 O 561.205 -2.28469 0.0379062 0
M  V30 5591 C 561.415 -0.965174 3.35388 0
M  V30 5592 C 562.763 -1.33648 4.03018 0
M  V30 5593 O 563.787 -1.05675 3.40164 0
M  V30 5594 O 562.646 -1.85959 5.13889 0
M  V30 5595 H 559.74 -0.314574 0.764835 0
M  V30 5596 H 562.286 0.108184 1.69355 0
M  V30 5597 H 561.058 -0.0829745 3.91212 0
M  V30 5598 H 560.681 -1.76231 3.5641 0
M  V30 5599 N 561.678 -1.56367 -0.196722 0
M  V30 5600 C 562.61 -1.90941 -1.26784 0
M  V30 5601 C 563.623 -0.799928 -1.41792 0
M  V30 5602 O 564.812 -1.07833 -1.42247 0
M  V30 5603 C 561.912 -2.12477 -2.6402 0
M  V30 5604 C 561.085 -3.43616 -2.70641 0
M  V30 5605 C 560.144 -3.54284 -3.89062 0
M  V30 5606 O 559.17 -4.2712 -3.76241 0
M  V30 5607 N 560.372 -2.87252 -5.04447 0
M  V30 5608 H 563.137 -2.83417 -0.974417 0
M  V30 5609 H 560.698 -1.57215 -0.386649 0
M  V30 5610 H 562.69 -2.16904 -3.41665 0
M  V30 5611 H 561.26 -1.26508 -2.85857 0
M  V30 5612 H 560.48 -3.51072 -1.79283 0
M  V30 5613 H 561.768 -4.29958 -2.72054 0
M  V30 5614 H 561.166 -2.27901 -5.17762 0
M  V30 5615 H 559.723 -2.97308 -5.80044 0
M  V30 5616 N 563.156 0.464375 -1.50603 0
M  V30 5617 C 564.384 1.23907 -1.65695 0
M  V30 5618 C 564.799 1.85658 -0.343027 0
M  V30 5619 O 564.156 1.69529 0.675739 0
M  V30 5620 C 564.207 2.3429 -2.75301 0
M  V30 5621 O 563.928 1.7507 -4.01599 0
M  V30 5622 C 565.429 3.25051 -3.01424 0
M  V30 5623 H 562.649 0.374485 -0.556778 0
M  V30 5624 H 565.193 0.55353 -1.96866 0
M  V30 5625 H 563.348 2.98607 -2.46804 0
M  V30 5626 H 563.762 2.47812 -4.62266 0
M  V30 5627 H 565.236 3.98699 -3.81763 0
M  V30 5628 H 565.713 3.84227 -2.12758 0
M  V30 5629 H 566.319 2.66463 -3.31477 0
M  V30 5630 N 564.634 1.40294 0.718013 0
M  V30 5631 C 566.045 1.34289 1.29705 0
M  V30 5632 C 566.396 0.0152228 1.96194 0
M  V30 5633 O 565.521 -0.88682 1.97394 0
M  V30 5634 C 566.116 2.43219 2.3586 0
M  V30 5635 C 564.675 2.40682 2.89394 0
M  V30 5636 C 563.822 2.24223 1.63154 0
M  V30 5637 H 566.773 1.50135 0.514312 0
M  V30 5638 H 566.794 2.10986 3.16647 0
M  V30 5639 H 566.306 3.39836 1.87439 0
M  V30 5640 H 564.407 1.47756 3.42051 0
M  V30 5641 H 564.52 3.36177 3.41353 0
M  V30 5642 H 562.884 1.71696 1.88129 0
M  V30 5643 H 563.667 3.22834 1.16761 0
M  V30 5644 N 566.112 -0.949982 1.2575 0
M  V30 5645 C 567.34 -1.72972 1.13527 0
M  V30 5646 C 567.755 -1.8623 -0.310453 0
M  V30 5647 O 567.112 -1.36336 -1.2132 0
M  V30 5648 C 567.163 -3.14108 1.78936 0
M  V30 5649 O 566.884 -3.01493 3.17858 0
M  V30 5650 C 568.385 -4.08338 1.72554 0
M  V30 5651 H 565.605 -0.541864 0.395758 0
M  V30 5652 H 568.149 -1.19151 1.66202 0
M  V30 5653 H 566.304 -3.64858 1.30221 0
M  V30 5654 H 566.718 -3.90559 3.50092 0
M  V30 5655 H 568.192 -5.04963 2.22973 0
M  V30 5656 H 568.669 -4.33742 0.690251 0
M  V30 5657 H 569.275 -3.63506 2.2078 0
M  V30 5658 N 567.59 -1.07411 -1.15328 0
M  V30 5659 C 568.54 -0.664788 -2.18093 0
M  V30 5660 C 569.524 0.310395 -1.57878 0
M  V30 5661 O 570.716 0.124026 -1.76565 0
M  V30 5662 C 567.845 -0.0647822 -3.43239 0
M  V30 5663 C 566.931 -1.06514 -4.10506 0
M  V30 5664 N 567.322 -2.24491 -4.53252 0
M  V30 5665 C 565.62 -0.898613 -4.36853 0
M  V30 5666 C 566.321 -2.8796 -5.05424 0
M  V30 5667 N 565.297 -2.15622 -4.99007 0
M  V30 5668 H 569.099 -1.56333 -2.48872 0
M  V30 5669 H 566.613 -0.947393 -1.31902 0
M  V30 5670 H 568.61 0.246363 -4.16171 0
M  V30 5671 H 567.27 0.828866 -3.13943 0
M  V30 5672 H 568.281 -2.62205 -4.46619 0
M  V30 5673 H 564.958 -0.0579118 -4.1746 0
M  V30 5674 H 566.348 -3.88137 -5.48452 0
M  V30 5675 N 569.068 1.32177 -0.85831 0
M  V30 5676 C 570.016 2.30729 -0.294442 0
M  V30 5677 C 571.01 1.59009 0.584165 0
M  V30 5678 O 572.216 1.73713 0.471562 0
M  V30 5679 H 568.591 0.748097 -0.0765171 0
M  V30 5680 H 570.562 2.75774 -1.1398 0
M  V30 5681 C 569.311 3.44098 0.499208 0
M  V30 5682 H 568.634 3.99449 -0.167579 0
M  V30 5683 H 570.074 4.15202 0.859273 0
M  V30 5684 C 568.533 2.91684 1.68588 0
M  V30 5685 O 569.063 2.89481 2.78503 0
M  V30 5686 N 567.269 2.48036 1.51415 0
M  V30 5687 H 566.816 2.50027 0.620006 0
M  V30 5688 H 566.774 2.13322 2.30957 0
M  V30 5689 N 570.547 0.616602 1.45037 0
M  V30 5690 C 571.51 -0.0871112 2.29034 0
M  V30 5691 C 572.51 -0.786414 1.40258 0
M  V30 5692 O 573.7 -0.633207 1.62284 0
M  V30 5693 C 570.832 -1.13369 3.21497 0
M  V30 5694 H 572.025 0.651497 2.92738 0
M  V30 5695 H 569.578 0.376058 1.51709 0
M  V30 5696 H 570.313 -1.90277 2.62612 0
M  V30 5697 H 570.098 -0.636358 3.86902 0
M  V30 5698 H 571.588 -1.62627 3.84633 0
M  V30 5699 N 572.025 -1.5352 0.356285 0
M  V30 5700 C 573.253 -2.05534 -0.237328 0
M  V30 5701 C 573.668 -1.23043 -1.43199 0
M  V30 5702 O 573.025 -0.268821 -1.80509 0
M  V30 5703 C 573.076 -3.55791 -0.639933 0
M  V30 5704 O 572.797 -4.35154 0.507233 0
M  V30 5705 C 574.298 -4.24027 -1.29292 0
M  V30 5706 H 571.518 -0.669585 -0.0435572 0
M  V30 5707 H 574.062 -1.97988 0.511963 0
M  V30 5708 H 572.217 -3.63518 -1.33915 0
M  V30 5709 H 572.631 -5.24178 0.18375 0
M  V30 5710 H 574.105 -5.30509 -1.52527 0
M  V30 5711 H 574.582 -3.77166 -2.25039 0
M  V30 5712 H 575.188 -4.20527 -0.63539 0
M  V30 5713 N 573.503 -0.0852151 -1.57369 0
M  V30 5714 C 574.919 0.271436 -1.57275 0
M  V30 5715 C 575.119 1.69109 -1.09565 0
M  V30 5716 O 574.175 2.40549 -0.767611 0
M  V30 5717 C 575.488 0.0688638 -3.00621 0
M  V30 5718 C 577.036 0.137373 -3.12698 0
M  V30 5719 C 577.511 -0.0370832 -4.57985 0
M  V30 5720 N 579.002 0.0180794 -4.63196 0
M  V30 5721 C 579.737 -0.0922953 -5.73326 0
M  V30 5722 N 579.233 -0.256948 -6.92323 0
M  V30 5723 N 581.026 -0.0342702 -5.6209 0
M  V30 5724 H 573.177 -1.01288 -1.86693 0
M  V30 5725 H 575.44 -0.396138 -0.861266 0
M  V30 5726 H 575.146 -0.911277 -3.39689 0
M  V30 5727 H 575.02 0.815442 -3.6828 0
M  V30 5728 H 577.407 1.10801 -2.73509 0
M  V30 5729 H 577.488 -0.640532 -2.47651 0
M  V30 5730 H 577.132 -1.00455 -4.97867 0
M  V30 5731 H 577.062 0.760392 -5.21081 0
M  V30 5732 H 579.553 0.143202 -3.77629 0
M  V30 5733 H 579.866 -0.332949 -7.72082 0
M  V30 5734 H 578.211 -0.292487 -6.94384 0
M  V30 5735 H 581.402 0.0931605 -4.68007 0
M  V30 5736 H 581.575 -0.12374 -6.47882 0
M  V30 5737 N 574.981 1.5647 0.188427 0
M  V30 5738 C 576.258 1.71857 0.934058 0
M  V30 5739 C 576.638 0.641867 2.01105 0
M  V30 5740 O 575.986 -0.346098 2.25864 0
M  V30 5741 C 576.196 3.14431 1.5144 0
M  V30 5742 C 577.544 3.74869 1.99396 0
M  V30 5743 O 578.568 3.17601 1.61269 0
M  V30 5744 O 577.427 4.75387 2.69573 0
M  V30 5745 H 574.521 0.701186 0.438483 0
M  V30 5746 H 577.067 1.68768 0.177599 0
M  V30 5747 H 575.839 3.8427 0.738416 0
M  V30 5748 H 575.462 3.21775 2.33552 0
M  V30 5749 N 576.459 -0.456382 1.50847 0
M  V30 5750 C 577.87 -1.03685 1.55262 0
M  V30 5751 C 578.221 -1.92779 0.364771 0
M  V30 5752 O 577.346 -2.10043 -0.52068 0
M  V30 5753 C 577.941 -1.88718 2.81374 0
M  V30 5754 C 576.5 -2.41847 2.88422 0
M  V30 5755 C 575.647 -1.20564 2.49719 0
M  V30 5756 H 578.598 -0.238399 1.56899 0
M  V30 5757 H 578.619 -2.73957 2.6406 0
M  V30 5758 H 578.131 -1.23847 3.67809 0
M  V30 5759 H 576.232 -3.10228 2.06372 0
M  V30 5760 H 576.345 -2.75947 3.9165 0
M  V30 5761 H 574.709 -1.54504 2.02486 0
M  V30 5762 H 575.492 -0.573326 3.38479 0
M  V30 5763 N 577.937 -1.40673 -0.710563 0
M  V30 5764 C 579.353 -1.22813 -1.01928 0
M  V30 5765 C 579.553 -0.10687 -2.01216 0
M  V30 5766 O 578.609 0.533614 -2.46797 0
M  V30 5767 C 579.922 -2.57178 -1.5582 0
M  V30 5768 C 581.47 -2.64233 -1.67779 0
M  V30 5769 C 581.945 -3.98879 -2.25076 0
M  V30 5770 N 583.436 -4.00647 -2.32456 0
M  V30 5771 C 584.171 -5.01621 -2.77784 0
M  V30 5772 N 583.667 -6.12989 -3.22826 0
M  V30 5773 N 585.46 -4.88988 -2.77213 0
M  V30 5774 H 577.611 -2.12335 -0.05253 0
M  V30 5775 H 579.874 -0.9441 -0.085898 0
M  V30 5776 H 579.58 -3.39903 -0.903249 0
M  V30 5777 H 579.454 -2.78618 -2.54267 0
M  V30 5778 H 581.841 -1.81876 -2.3239 0
M  V30 5779 H 581.922 -2.46619 -0.679178 0
M  V30 5780 H 581.566 -4.81678 -1.61086 0
M  V30 5781 H 581.496 -4.13826 -3.25661 0
M  V30 5782 H 583.987 -3.20231 -2.0065 0
M  V30 5783 H 584.3 -6.85921 -3.55995 0
M  V30 5784 H 582.645 -6.16547 -3.20773 0
M  V30 5785 H 585.836 -4.01075 -2.41363 0
M  V30 5786 H 586.009 -5.67822 -3.12221 0
M  V30 5787 N 579.415 0.9433 -1.26252 0
M  V30 5788 C 580.664 1.68369 -1.11062 0
M  V30 5789 C 580.977 1.92514 0.346104 0
M  V30 5790 O 582.183 2.64358 0.618646 0
M  V30 5791 C 580.639 3.03171 -1.93946 0
M  V30 5792 C 580.247 2.86782 -3.4418 0
M  V30 5793 C 581.991 3.80916 -1.87359 0
M  V30 5794 C 579.898 4.17044 -4.19319 0
M  V30 5795 H 578.828 0.631469 -0.412023 0
M  V30 5796 H 581.479 1.04922 -1.50544 0
M  V30 5797 H 579.861 3.67587 -1.47296 0
M  V30 5798 H 581.035 2.31229 -3.98585 0
M  V30 5799 H 579.35 2.22482 -3.51981 0
M  V30 5800 H 581.947 4.77417 -2.40784 0
M  V30 5801 H 582.29 4.07658 -0.843857 0
M  V30 5802 H 582.823 3.2327 -2.31821 0
M  V30 5803 H 579.562 3.95487 -5.22753 0
M  V30 5804 H 579.082 4.72319 -3.69696 0
M  V30 5805 H 580.761 4.85513 -4.27651 0
M  V30 5806 N 580.893 1.08022 1.14757 0
M  V30 5807 C 582.304 0.829144 1.67279 0
M  V30 5808 C 582.655 -0.644721 1.85305 0
M  V30 5809 O 581.78 -1.49838 1.56133 0
M  V30 5810 C 582.375 1.49855 3.03857 0
M  V30 5811 C 580.934 1.29482 3.53428 0
M  V30 5812 C 580.081 1.56386 2.28995 0
M  V30 5813 H 583.032 1.24134 0.988762 0
M  V30 5814 H 583.053 0.923572 3.69121 0
M  V30 5815 H 582.565 2.57123 2.90705 0
M  V30 5816 H 580.666 0.242669 3.71809 0
M  V30 5817 H 580.779 2.01974 4.34446 0
M  V30 5818 H 579.143 0.985217 2.34874 0
M  V30 5819 H 579.926 2.64851 2.18423 0
M  V30 5820 N 582.371 -1.3172 0.865308 0
M  V30 5821 C 583.648 -1.91574 0.394789 0
M  V30 5822 C 584.028 -1.78769 -1.12271 0
M  V30 5823 O 583.376 -1.19245 -1.94918 0
M  V30 5824 C 583.586 -3.37957 0.870982 0
M  V30 5825 C 584.934 -4.15073 0.894384 0
M  V30 5826 O 585.958 -3.4672 0.816325 0
M  V30 5827 O 584.817 -5.37151 1.00651 0
M  V30 5828 H 581.911 -0.818649 0.117229 0
M  V30 5829 H 584.457 -1.4042 0.952913 0
M  V30 5830 H 583.229 -3.41269 1.91444 0
M  V30 5831 H 582.852 -3.96534 0.290907 0
M  V30 5832 N 583.85 -0.624285 -1.44708 0
M  V30 5833 C 585.098 -0.125802 -2.01708 0
M  V30 5834 C 585.418 1.2543 -1.49306 0
M  V30 5835 O 584.689 1.83198 -0.693924 0
M  V30 5836 H 583.269 -0.0435161 -0.745731 0
M  V30 5837 H 585.931 -0.809446 -1.77296 0
M  V30 5838 H 585.027 -0.0882734 -3.11975 0
M  V30 5839 N 585.328 1.53329 -0.364422 0
M  V30 5840 C 586.605 1.93557 0.281962 0
M  V30 5841 C 586.985 1.29786 1.6649 0
M  V30 5842 O 586.333 0.456512 2.23893 0
M  V30 5843 C 586.543 3.47405 0.333331 0
M  V30 5844 C 587.891 4.20699 0.574231 0
M  V30 5845 O 588.915 3.53779 0.414588 0
M  V30 5846 O 587.774 5.39287 0.885002 0
M  V30 5847 H 584.868 0.809573 0.168881 0
M  V30 5848 H 587.414 1.64494 -0.417121 0
M  V30 5849 H 586.186 3.86091 -0.636326 0
M  V30 5850 H 585.809 3.82697 1.07836 0
M  V30 5851 N 586.806 0.0935595 1.57322 0
M  V30 5852 C 588.222 -0.263091 1.57417 0
M  V30 5853 C 588.422 -1.68526 1.1046 0
M  V30 5854 O 587.478 -2.40139 0.780357 0
M  V30 5855 C 588.791 -0.0529201 3.00653 0
M  V30 5856 C 590.339 -0.120788 3.12767 0
M  V30 5857 C 590.814 0.0613707 4.57959 0
M  V30 5858 N 592.305 0.00648534 4.632 0
M  V30 5859 C 593.04 0.122699 5.73269 0
M  V30 5860 N 592.536 0.29366 6.92177 0
M  V30 5861 N 594.329 0.0640787 5.62063 0
M  V30 5862 H 586.48 1.02277 1.86154 0
M  V30 5863 H 588.743 0.4007 0.859153 0
M  V30 5864 H 588.449 0.929279 3.39201 0
M  V30 5865 H 588.323 -0.795899 3.68708 0
M  V30 5866 H 590.71 -1.09349 2.74093 0
M  V30 5867 H 590.791 0.653656 2.47307 0
M  V30 5868 H 590.435 1.03093 4.97327 0
M  V30 5869 H 590.365 -0.732748 5.21477 0
M  V30 5870 H 592.856 -0.123173 3.77699 0
M  V30 5871 H 593.169 0.37389 7.71895 0
M  V30 5872 H 591.514 0.329307 6.94219 0
M  V30 5873 H 594.705 -0.0683396 4.6805 0
M  V30 5874 H 594.878 0.158097 6.47807 0
M  V30 5875 N 588.284 -1.56567 -0.180126 0
M  V30 5876 C 589.514 -1.85349 -0.912647 0
M  V30 5877 C 589.922 -0.675795 -1.76719 0
M  V30 5878 O 589.265 0.3645 -1.80047 0
M  V30 5879 C 589.327 -3.08431 -1.84691 0
M  V30 5880 C 588.991 -4.41694 -1.17284 0
M  V30 5881 C 589.988 -5.17062 -0.542532 0
M  V30 5882 C 587.673 -4.8843 -1.17223 0
M  V30 5883 C 589.667 -6.37351 0.0793953 0
M  V30 5884 C 587.354 -6.08652 -0.54647 0
M  V30 5885 C 588.352 -6.82955 0.0782458 0
M  V30 5886 O 588.04 -8.00897 0.694158 0
M  V30 5887 H 587.772 -0.619286 -0.271036 0
M  V30 5888 H 590.326 -2.0454 -0.187768 0
M  V30 5889 H 588.556 -2.85163 -2.61188 0
M  V30 5890 H 590.245 -3.23733 -2.44851 0
M  V30 5891 H 591.011 -4.8204 -0.535045 0
M  V30 5892 H 586.89 -4.30542 -1.64788 0
M  V30 5893 H 590.434 -6.95287 0.567612 0
M  V30 5894 H 586.331 -6.4314 -0.55151 0
M  V30 5895 H 587.099 -8.16352 0.592537 0
M  V30 5896 N 589.762 0.448376 -1.51087 0
M  V30 5897 C 591.009 1.19872 -1.63209 0
M  V30 5898 C 591.337 1.91451 -0.343062 0
M  V30 5899 O 590.592 1.83789 0.672321 0
M  V30 5900 C 590.891 2.24866 -2.77795 0
M  V30 5901 C 590.557 1.70378 -4.17471 0
M  V30 5902 C 589.219 1.55241 -4.55471 0
M  V30 5903 C 591.571 1.30203 -5.04675 0
M  V30 5904 C 588.899 0.983844 -5.78392 0
M  V30 5905 C 591.251 0.747798 -6.28165 0
M  V30 5906 C 589.915 0.583233 -6.64947 0
M  V30 5907 H 589.185 0.438642 -0.597222 0
M  V30 5908 H 591.832 0.49136 -1.85089 0
M  V30 5909 H 590.137 3.01598 -2.50092 0
M  V30 5910 H 591.834 2.82723 -2.84374 0
M  V30 5911 H 588.424 1.83134 -3.87505 0
M  V30 5912 H 592.608 1.40723 -4.75932 0
M  V30 5913 H 587.864 0.844007 -6.05546 0
M  V30 5914 H 592.038 0.427927 -6.95084 0
M  V30 5915 H 589.665 0.140532 -7.6007 0
M  V30 5916 N 591.24 1.41047 0.703093 0
M  V30 5917 C 592.203 1.42036 1.79884 0
M  V30 5918 C 593.203 0.312153 1.57741 0
M  V30 5919 O 594.393 0.571672 1.64553 0
M  V30 5920 C 591.525 1.22437 3.18154 0
M  V30 5921 H 592.718 2.39572 1.80403 0
M  V30 5922 H 590.271 1.27079 0.909977 0
M  V30 5923 H 591.006 0.257112 3.23279 0
M  V30 5924 H 590.791 2.02723 3.35627 0
M  V30 5925 H 592.281 1.25946 3.98155 0
M  V30 5926 N 592.718 -0.936591 1.26751 0
M  V30 5927 C 593.943 -1.72288 1.15462 0
M  V30 5928 C 594.368 -1.85915 -0.285887 0
M  V30 5929 O 593.726 -1.35272 -1.20711 0
M  V30 5930 C 593.774 -3.10503 1.83359 0
M  V30 5931 O 592.878 -3.96745 1.1255 0
M  V30 5932 H 592.219 -0.52843 0.402067 0
M  V30 5933 H 594.749 -1.17271 1.67656 0
M  V30 5934 H 594.759 -3.60867 1.90365 0
M  V30 5935 H 593.434 -2.99901 2.88153 0
M  V30 5936 H 592.011 -3.55191 1.13551 0
M  V30 5937 N 594.196 -1.08629 -1.14182 0
M  V30 5938 C 595.126 -0.740003 -2.21464 0
M  V30 5939 C 596.107 0.278591 -1.67803 0
M  V30 5940 O 597.292 0.148461 -1.93632 0
M  V30 5941 C 594.422 -0.150952 -3.46972 0
M  V30 5942 C 593.376 -1.09815 -4.13672 0
M  V30 5943 C 592.702 -0.3712 -5.3341 0
M  V30 5944 C 594.002 -2.43722 -4.61949 0
M  V30 5945 H 595.696 -1.63697 -2.50686 0
M  V30 5946 H 593.242 -0.788526 -1.20492 0
M  V30 5947 H 595.195 0.103325 -4.21273 0
M  V30 5948 H 593.919 0.781164 -3.1712 0
M  V30 5949 H 592.578 -1.33756 -3.41328 0
M  V30 5950 H 592.226 0.564792 -4.99819 0
M  V30 5951 H 591.926 -1.00267 -5.78982 0
M  V30 5952 H 593.45 -0.12503 -6.10472 0
M  V30 5953 H 594.864 -2.24034 -5.27714 0
M  V30 5954 H 593.261 -3.02582 -5.18232 0
M  V30 5955 H 594.331 -3.05082 -3.76899 0
M  V30 5956 N 595.674 1.31259 -0.872281 0
M  V30 5957 C 596.922 1.96233 -0.483409 0
M  V30 5958 C 597.243 1.69276 0.968012 0
M  V30 5959 O 596.513 1.00943 1.67891 0
M  V30 5960 H 595.093 0.726025 -0.175774 0
M  V30 5961 H 597.755 1.60024 -1.11258 0
M  V30 5962 H 596.851 3.05403 -0.643075 0
M  V30 5963 N 597.152 0.631951 1.44375 0
M  V30 5964 C 598.115 -0.0628142 2.29114 0
M  V30 5965 C 599.115 -0.771494 1.41084 0
M  V30 5966 O 600.305 -0.615959 1.62947 0
M  V30 5967 C 597.437 -1.09953 3.22681 0
M  V30 5968 H 598.63 0.682509 2.92031 0
M  V30 5969 H 596.183 0.392128 1.51301 0
M  V30 5970 H 596.918 -1.87481 2.64616 0
M  V30 5971 H 596.703 -0.595286 3.87555 0
M  V30 5972 H 598.193 -1.58538 3.86336 0
M  V30 5973 N 598.631 -1.53133 0.372548 0
M  V30 5974 C 599.879 -2.00958 -0.214534 0
M  V30 5975 C 600.2 -1.26135 -1.48711 0
M  V30 5976 O 599.47 -0.376597 -1.92246 0
M  V30 5977 H 598.05 -0.742456 -0.0822664 0
M  V30 5978 H 600.712 -1.88367 0.500385 0
M  V30 5979 H 599.808 -3.09031 -0.436605 0
M  V30 5980 N 600.109 -0.101901 -1.5727 0
M  V30 5981 C 601.339 0.567568 -1.98651 0
M  V30 5982 C 601.747 1.61839 -0.980037 0
M  V30 5983 O 601.09 1.83661 0.0376564 0
M  V30 5984 C 601.152 1.26742 -3.36417 0
M  V30 5985 C 600.816 0.366561 -4.55528 0
M  V30 5986 C 601.813 -0.388022 -5.1845 0
M  V30 5987 C 599.498 0.282629 -5.01504 0
M  V30 5988 C 601.492 -1.21445 -6.25724 0
M  V30 5989 C 599.179 -0.547443 -6.08643 0
M  V30 5990 C 600.177 -1.29462 -6.70618 0
M  V30 5991 O 599.865 -2.11095 -7.7569 0
M  V30 5992 H 599.597 0.156282 -0.657687 0
M  V30 5993 H 602.151 -0.179912 -2.04611 0
M  V30 5994 H 600.381 2.06162 -3.27161 0
M  V30 5995 H 602.07 1.8321 -3.622 0
M  V30 5996 H 602.836 -0.332949 -4.83856 0
M  V30 5997 H 598.715 0.853868 -4.53023 0
M  V30 5998 H 602.259 -1.79814 -6.74027 0
M  V30 5999 H 598.156 -0.603971 -6.42668 0
M  V30 6000 H 598.924 -2.03851 -7.92709 0
M  V30 6001 N 601.587 1.56661 0.17182 0
M  V30 6002 C 603.003 1.50768 0.52357 0
M  V30 6003 C 603.203 0.806072 1.84675 0
M  V30 6004 O 602.259 0.366233 2.4983 0
M  V30 6005 C 603.572 2.955 0.556793 0
M  V30 6006 C 605.12 3.06303 0.644029 0
M  V30 6007 C 605.595 4.52492 0.708148 0
M  V30 6008 N 607.086 4.56737 0.771051 0
M  V30 6009 C 607.821 5.67196 0.841229 0
M  V30 6010 N 607.317 6.87287 0.872272 0
M  V30 6011 N 609.11 5.55165 0.88021 0
M  V30 6012 H 601.261 2.00679 -0.695817 0
M  V30 6013 H 603.524 0.914219 -0.250814 0
M  V30 6014 H 603.23 3.49986 -0.346774 0
M  V30 6015 H 603.104 3.50119 1.40346 0
M  V30 6016 H 605.491 2.51851 1.53802 0
M  V30 6017 H 605.572 2.5477 -0.229297 0
M  V30 6018 H 605.216 5.07575 -0.181585 0
M  V30 6019 H 605.146 5.01781 1.59761 0
M  V30 6020 H 607.637 3.70274 0.755364 0
M  V30 6021 H 607.95 7.6722 0.92698 0
M  V30 6022 H 606.295 6.89898 0.840557 0
M  V30 6023 H 609.486 4.60263 0.852956 0
M  V30 6024 H 609.659 6.41271 0.931439 0
M  V30 6025 N 603.065 -0.440357 1.51323 0
M  V30 6026 C 604.312 -1.19004 1.63842 0
M  V30 6027 C 604.64 -1.91266 0.35321 0
M  V30 6028 O 603.895 -1.84143 -0.662565 0
M  V30 6029 C 604.194 -2.2339 2.78984 0
M  V30 6030 C 603.86 -1.68162 4.18369 0
M  V30 6031 C 602.522 -1.52823 4.56288 0
M  V30 6032 C 604.874 -1.27524 5.05358 0
M  V30 6033 C 602.202 -0.953157 5.78906 0
M  V30 6034 C 604.554 -0.714474 6.28552 0
M  V30 6035 C 603.218 -0.547961 6.65247 0
M  V30 6036 H 602.488 -0.435468 0.59954 0
M  V30 6037 H 605.135 -0.481538 1.85347 0
M  V30 6038 H 603.44 -3.00267 2.51688 0
M  V30 6039 H 605.137 -2.81211 2.85869 0
M  V30 6040 H 601.727 -1.81077 3.8847 0
M  V30 6041 H 605.911 -1.38197 4.76671 0
M  V30 6042 H 601.167 -0.811882 6.05986 0
M  V30 6043 H 605.341 -0.391059 6.95301 0
M  V30 6044 H 602.968 -0.100222 7.60134 0
M  V30 6045 N 604.543 -1.41418 -0.695603 0
M  V30 6046 C 605.475 -1.39195 -1.82092 0
M  V30 6047 C 606.488 -0.294132 -1.60121 0
M  V30 6048 O 607.677 -0.555854 -1.69625 0
M  V30 6049 C 604.777 -1.14828 -3.18854 0
M  V30 6050 C 603.95 -2.36649 -3.67853 0
M  V30 6051 C 603.009 -2.08139 -4.83285 0
M  V30 6052 O 602.035 -2.81177 -4.94902 0
M  V30 6053 N 603.237 -1.07162 -5.70523 0
M  V30 6054 H 606.002 -2.36185 -1.84491 0
M  V30 6055 H 603.563 -1.3603 -0.877923 0
M  V30 6056 H 605.555 -0.937075 -3.93702 0
M  V30 6057 H 604.125 -0.264358 -3.1148 0
M  V30 6058 H 603.345 -2.73472 -2.83913 0
M  V30 6059 H 604.633 -3.17816 -3.97329 0
M  V30 6060 H 604.031 -0.467124 -5.63768 0
M  V30 6061 H 602.588 -0.920311 -6.4527 0
M  V30 6062 N 606.021 0.929856 -1.27246 0
M  V30 6063 C 607.246 1.71674 -1.16374 0
M  V30 6064 C 607.671 1.86064 0.276024 0
M  V30 6065 O 607.029 1.3591 1.19992 0
M  V30 6066 C 607.077 3.09526 -1.85003 0
M  V30 6067 O 606.181 3.96142 -1.14653 0
M  V30 6068 H 605.522 0.52629 -0.404863 0
M  V30 6069 H 608.052 1.16381 -1.68276 0
M  V30 6070 H 608.062 3.59852 -1.92276 0
M  V30 6071 H 606.737 2.98369 -2.89739 0
M  V30 6072 H 605.314 3.54584 -1.15433 0
M  V30 6073 N 607.499 1.09233 1.13605 0
M  V30 6074 C 608.432 0.6739 2.18023 0
M  V30 6075 C 609.41 -0.318603 1.59448 0
M  V30 6076 O 610.594 -0.220452 1.87206 0
M  V30 6077 C 607.721 -0.00751458 3.38699 0
M  V30 6078 C 606.767 0.946481 4.15865 0
M  V30 6079 S 607.6 2.45753 4.75779 0
M  V30 6080 C 608.756 1.78846 5.99804 0
M  V30 6081 H 608.989 1.55846 2.53178 0
M  V30 6082 H 606.522 0.908118 1.2487 0
M  V30 6083 H 608.48 -0.394368 4.08601 0
M  V30 6084 H 607.141 -0.868693 3.01849 0
M  V30 6085 H 606.334 0.416742 5.02274 0
M  V30 6086 H 605.936 1.27464 3.51609 0
M  V30 6087 H 608.228 1.11135 6.68323 0
M  V30 6088 H 609.171 2.63163 6.57382 0
M  V30 6089 H 609.579 1.25823 5.50299 0
M  V30 6090 N 608.977 -1.30795 0.87923 0
M  V30 6091 C 610.388 -1.78535 0.546093 0
M  V30 6092 C 610.739 -1.72354 -0.937467 0
M  V30 6093 O 609.864 -1.2969 -1.73233 0
M  V30 6094 C 610.459 -3.24181 0.9845 0
M  V30 6095 C 609.018 -3.69779 0.702871 0
M  V30 6096 C 608.165 -2.51377 1.17068 0
M  V30 6097 H 611.116 -1.17746 1.06403 0
M  V30 6098 H 611.137 -3.79227 0.311045 0
M  V30 6099 H 610.649 -3.28647 2.06429 0
M  V30 6100 H 608.75 -3.70806 -0.365166 0
M  V30 6101 H 608.863 -4.61507 1.28639 0
M  V30 6102 H 607.227 -2.47768 0.590172 0
M  V30 6103 H 608.01 -2.58584 2.25808 0
M  V30 6104 N 610.455 -0.639598 -1.44038 0
M  V30 6105 C 611.365 0.0612377 -2.3452 0
M  V30 6106 C 612.381 0.826717 -1.53106 0
M  V30 6107 O 613.557 0.777059 -1.85806 0
M  V30 6108 C 610.622 1.02492 -3.31204 0
M  V30 6109 C 609.683 0.25788 -4.28525 0
M  V30 6110 C 608.916 1.17566 -5.2059 0
M  V30 6111 O 609.139 2.41461 -5.16771 0
M  V30 6112 O 608.073 0.655407 -5.98321 0
M  V30 6113 H 611.899 -0.68318 -2.95916 0
M  V30 6114 H 609.484 -0.399784 -1.43952 0
M  V30 6115 H 611.366 1.57911 -3.90694 0
M  V30 6116 H 610.041 1.7498 -2.7233 0
M  V30 6117 H 608.948 -0.339566 -3.72556 0
M  V30 6118 H 610.281 -0.427154 -4.90343 0
M  V30 6119 N 611.933 1.52934 -0.380664 0
M  V30 6120 C 612.863 2.29118 0.450268 0
M  V30 6121 C 613.844 1.32153 1.07096 0
M  V30 6122 O 615.029 1.61038 1.08537 0
M  V30 6123 C 612.159 3.09161 1.58231 0
M  V30 6124 C 611.113 4.13938 1.0881 0
M  V30 6125 C 610.439 4.82153 2.31155 0
M  V30 6126 C 611.739 5.22048 0.162146 0
M  V30 6127 H 613.433 2.98826 -0.185361 0
M  V30 6128 H 610.979 1.43715 -0.0905886 0
M  V30 6129 H 612.932 3.61211 2.17036 0
M  V30 6130 H 611.656 2.3717 2.2454 0
M  V30 6131 H 610.315 3.62855 0.522633 0
M  V30 6132 H 609.963 4.06719 2.95953 0
M  V30 6133 H 609.663 5.52966 1.98752 0
M  V30 6134 H 611.187 5.37004 2.90618 0
M  V30 6135 H 612.601 5.6951 0.658126 0
M  V30 6136 H 610.998 6.00057 -0.0717122 0
M  V30 6137 H 612.068 4.78398 -0.791438 0
M  V30 6138 N 613.412 0.11024 1.57214 0
M  V30 6139 C 614.637 -0.561179 1.99664 0
M  V30 6140 C 615.062 -1.59985 0.989266 0
M  V30 6141 O 614.42 -1.81255 -0.0402399 0
M  V30 6142 C 614.468 -1.17189 3.41027 0
M  V30 6143 O 613.572 -2.28755 3.4314 0
M  V30 6144 H 612.913 -0.14101 0.648855 0
M  V30 6145 H 615.443 0.196128 2.03658 0
M  V30 6146 H 615.453 -1.50954 3.79047 0
M  V30 6147 H 614.128 -0.411041 4.13864 0
M  V30 6148 H 612.705 -1.96495 3.16929 0
M  V30 6149 N 614.89 -1.56749 -0.16351 0
M  V30 6150 C 616.139 -1.81626 -0.877211 0
M  V30 6151 C 616.452 -0.688791 -1.83071 0
M  V30 6152 O 617.658 -0.822697 -2.58735 0
M  V30 6153 C 616.114 -3.21858 -1.61045 0
M  V30 6154 C 615.722 -4.42494 -0.700195 0
M  V30 6155 C 617.466 -3.56021 -2.31192 0
M  V30 6156 C 615.373 -5.73748 -1.43412 0
M  V30 6157 H 614.303 -0.67731 -0.331312 0
M  V30 6158 H 616.954 -1.83039 -0.13006 0
M  V30 6159 H 615.336 -3.14784 -2.40264 0
M  V30 6160 H 616.51 -4.60766 0.0555849 0
M  V30 6161 H 614.825 -4.1626 -0.10799 0
M  V30 6162 H 617.422 -4.51333 -2.8671 0
M  V30 6163 H 617.765 -2.81277 -3.06902 0
M  V30 6164 H 618.298 -3.64682 -1.58909 0
M  V30 6165 H 615.037 -6.51543 -0.719186 0
M  V30 6166 H 614.557 -5.5944 -2.16302 0
M  V30 6167 H 616.236 -6.15975 -1.9795 0
M  V30 6168 N 616.368 0.432326 -1.51554 0
M  V30 6169 C 617.645 1.19288 -1.55015 0
M  V30 6170 C 618.025 2.08701 -0.317375 0
M  V30 6171 O 617.373 2.17602 0.697243 0
M  V30 6172 C 617.583 1.99037 -2.86679 0
M  V30 6173 C 618.931 2.55907 -3.38817 0
M  V30 6174 O 619.955 2.09243 -2.88263 0
M  V30 6175 O 618.814 3.41029 -4.27038 0
M  V30 6176 H 615.908 0.543369 -0.623441 0
M  V30 6177 H 618.454 0.440988 -1.6387 0
M  V30 6178 H 617.226 1.33397 -3.6786 0
M  V30 6179 H 616.849 2.81281 -2.8101 0
M  V30 6180 N 617.846 1.41785 0.688094 0
M  V30 6181 C 618.809 1.43936 1.78368 0
M  V30 6182 C 619.809 0.328866 1.57401 0
M  V30 6183 O 620.999 0.589093 1.63937 0
M  V30 6184 C 618.131 1.25804 3.16838 0
M  V30 6185 H 619.324 2.41472 1.77852 0
M  V30 6186 H 616.877 1.28037 0.896448 0
M  V30 6187 H 617.612 0.291386 3.22988 0
M  V30 6188 H 617.397 2.06272 3.33458 0
M  V30 6189 H 618.887 1.30162 3.96797 0
M  V30 6190 N 619.324 -0.923095 1.27737 0
M  V30 6191 C 620.287 -2.00587 1.10894 0
M  V30 6192 C 621.287 -1.60718 0.0514927 0
M  V30 6193 O 622.477 -1.71658 0.296481 0
M  V30 6194 C 619.609 -3.33829 0.690717 0
M  V30 6195 H 620.802 -2.16959 2.07048 0
M  V30 6196 H 618.355 -1.10451 1.1059 0
M  V30 6197 H 619.09 -3.23157 -0.272 0
M  V30 6198 H 618.875 -3.64125 1.45448 0
M  V30 6199 H 620.365 -4.13336 0.595252 0
M  V30 6200 N 620.802 -1.09834 -1.13024 0
M  V30 6201 C 622.032 -0.857657 -1.87957 0
M  V30 6202 C 622.44 0.595008 -1.796 0
M  V30 6203 O 621.783 1.42158 -1.16347 0
M  V30 6204 C 621.845 -1.21949 -3.38185 0
M  V30 6205 C 621.509 -2.67791 -3.7032 0
M  V30 6206 C 622.506 -3.66036 -3.69207 0
M  V30 6207 C 620.191 -3.04019 -3.99847 0
M  V30 6208 C 622.185 -4.98533 -3.9717 0
M  V30 6209 C 619.872 -4.36706 -4.27471 0
M  V30 6210 C 620.87 -5.33772 -4.26118 0
M  V30 6211 O 620.558 -6.64072 -4.53061 0
M  V30 6212 H 620.29 -0.308009 -0.601753 0
M  V30 6213 H 622.844 -1.46496 -1.43973 0
M  V30 6214 H 621.074 -0.555249 -3.82693 0
M  V30 6215 H 622.763 -0.957281 -3.9445 0
M  V30 6216 H 623.529 -3.39392 -3.46465 0
M  V30 6217 H 619.408 -2.29096 -4.00045 0
M  V30 6218 H 622.952 -5.74288 -3.96029 0
M  V30 6219 H 618.849 -4.63091 -4.49685 0
M  V30 6220 H 619.617 -6.69608 -4.7071 0
M  V30 6221 N 622.28 1.30327 -0.886154 0
M  V30 6222 C 623.505 2.0079 -0.519425 0
M  V30 6223 C 623.93 1.65979 0.885013 0
M  V30 6224 O 623.288 0.877043 1.58675 0
M  V30 6225 C 623.336 3.53686 -0.702758 0
M  V30 6226 O 622.44 4.11637 0.250828 0
M  V30 6227 H 621.781 0.63171 -0.204544 0
M  V30 6228 H 624.311 1.66145 -1.19402 0
M  V30 6229 H 624.321 4.03531 -0.602207 0
M  V30 6230 H 622.996 3.78361 -1.72673 0
M  V30 6231 H 621.573 3.72755 0.103873 0
M  V30 6232 N 623.758 0.647228 1.43697 0
M  V30 6233 C 625.174 0.314256 1.56476 0
M  V30 6234 C 625.374 -1.18191 1.63196 0
M  V30 6235 O 624.43 -1.96655 1.58376 0
M  V30 6236 C 625.743 1.02034 2.82859 0
M  V30 6237 C 627.291 1.00002 2.96595 0
M  V30 6238 C 627.766 1.68689 4.25803 0
M  V30 6239 N 629.257 1.65424 4.32654 0
M  V30 6240 C 629.992 2.1545 5.31384 0
M  V30 6241 N 629.488 2.73738 6.36427 0
M  V30 6242 N 631.281 2.05985 5.22998 0
M  V30 6243 H 623.432 1.61821 1.37578 0
M  V30 6244 H 625.695 0.680184 0.660344 0
M  V30 6245 H 625.401 2.07542 2.83935 0
M  V30 6246 H 625.275 0.568146 3.72897 0
M  V30 6247 H 627.662 -0.0466319 2.95063 0
M  V30 6248 H 627.743 1.49086 2.07863 0
M  V30 6249 H 627.387 2.73308 4.28095 0
M  V30 6250 H 627.317 1.17076 5.13421 0
M  V30 6251 H 629.808 1.22884 3.57363 0
M  V30 6252 H 630.121 3.09602 7.08072 0
M  V30 6253 H 628.466 2.77796 6.37067 0
M  V30 6254 H 631.657 1.60157 4.39849 0
M  V30 6255 H 631.83 2.45281 5.99784 0
M  V30 6256 N 625.236 -1.5273 0.388769 0
M  V30 6257 C 626.168 -2.24081 -0.481704 0
M  V30 6258 C 627.181 -1.26307 -1.02715 0
M  V30 6259 O 628.37 -1.52386 -0.929565 0
M  V30 6260 C 625.47 -2.94315 -1.68024 0
M  V30 6261 C 624.643 -4.18791 -1.26226 0
M  V30 6262 C 623.702 -4.72028 -2.32542 0
M  V30 6263 O 622.728 -5.35129 -1.93972 0
M  V30 6264 N 623.93 -4.51838 -3.64448 0
M  V30 6265 H 626.695 -2.9942 0.129591 0
M  V30 6266 H 624.256 -1.60465 0.2151 0
M  V30 6267 H 626.248 -3.26831 -2.38671 0
M  V30 6268 H 624.818 -2.22287 -2.19789 0
M  V30 6269 H 624.038 -3.92318 -0.384703 0
M  V30 6270 H 625.326 -4.99668 -0.959647 0
M  V30 6271 H 624.724 -4.01468 -3.98547 0
M  V30 6272 H 623.281 -4.88845 -4.31131 0
M  V30 6273 N 626.714 -0.118576 -1.57153 0
M  V30 6274 C 627.961 0.539526 -1.9518 0
M  V30 6275 C 628.289 1.66714 -1.00184 0
M  V30 6276 O 627.544 1.95683 -0.0256482 0
M  V30 6277 C 627.843 1.11303 -3.39627 0
M  V30 6278 C 627.509 0.106809 -4.50773 0
M  V30 6279 C 626.171 -0.169876 -4.809 0
M  V30 6280 C 628.523 -0.57895 -5.17975 0
M  V30 6281 C 625.851 -1.13861 -5.75545 0
M  V30 6282 C 628.203 -1.53631 -6.13661 0
M  V30 6283 C 626.867 -1.82099 -6.42181 0
M  V30 6284 H 626.137 0.197427 -0.714215 0
M  V30 6285 H 628.784 -0.199391 -1.90459 0
M  V30 6286 H 627.089 1.92869 -3.4104 0
M  V30 6287 H 628.786 1.63032 -3.66363 0
M  V30 6288 H 625.376 0.332645 -4.27307 0
M  V30 6289 H 629.56 -0.378359 -4.94856 0
M  V30 6290 H 624.816 -1.36592 -5.95947 0
M  V30 6291 H 628.99 -2.07337 -6.64819 0
M  V30 6292 H 626.617 -2.57319 -7.15326 0
M  V30 6293 N 628.193 1.56834 0.155195 0
M  V30 6294 C 629.439 1.83169 0.870467 0
M  V30 6295 C 629.772 0.698929 1.81187 0
M  V30 6296 O 629.047 -0.298035 1.92203 0
M  V30 6297 C 629.33 3.19965 1.65211 0
M  V30 6298 C 629.183 4.43792 0.732744 0
M  V30 6299 C 630.502 3.53885 2.61636 0
M  V30 6300 H 627.621 0.666288 0.315006 0
M  V30 6301 H 630.263 1.89513 0.135988 0
M  V30 6302 H 628.413 3.14687 2.27825 0
M  V30 6303 H 630.085 4.61148 0.118236 0
M  V30 6304 H 628.328 4.3378 0.0417906 0
M  V30 6305 H 628.999 5.36095 1.31552 0
M  V30 6306 H 631.475 3.5972 2.09143 0
M  V30 6307 H 630.351 4.50648 3.13381 0
M  V30 6308 H 630.612 2.79418 3.42605 0
M  V30 6309 N 629.671 -0.424282 1.51781 0
M  V30 6310 C 630.618 -1.51591 1.74037 0
M  V30 6311 C 631.588 -1.55556 0.582358 0
M  V30 6312 O 632.773 -1.72364 0.818245 0
M  V30 6313 C 629.913 -2.89188 1.8832 0
M  V30 6314 C 629.026 -2.9465 3.1592 0
M  V30 6315 C 628.161 -4.23452 3.20721 0
M  V30 6316 C 627.2 -4.22831 4.42584 0
M  V30 6317 N 626.337 -5.43178 4.44862 0
M  V30 6318 H 631.177 -1.31917 2.67212 0
M  V30 6319 H 628.714 -0.640599 1.32419 0
M  V30 6320 H 630.672 -3.69044 1.94583 0
M  V30 6321 H 629.302 -3.07392 0.985402 0
M  V30 6322 H 628.354 -2.07378 3.18902 0
M  V30 6323 H 629.666 -2.90055 4.05795 0
M  V30 6324 H 628.82 -5.1169 3.25973 0
M  V30 6325 H 627.559 -4.30722 2.28757 0
M  V30 6326 H 626.564 -3.32984 4.37495 0
M  V30 6327 H 627.789 -4.17213 5.35826 0
M  V30 6328 H 625.735 -5.51145 3.55775 0
M  V30 6329 H 625.652 -5.40515 5.28563 0
M  V30 6330 H 626.92 -6.33412 4.54324 0
M  V30 6331 N 631.149 -1.42148 -0.680565 0
M  V30 6332 C 632.059 -1.47565 -1.82378 0
M  V30 6333 C 633.075 -0.36489 -1.70131 0
M  V30 6334 O 634.251 -0.614916 -1.91783 0
M  V30 6335 C 631.316 -1.37013 -3.18478 0
M  V30 6336 C 630.377 -2.58532 -3.42724 0
M  V30 6337 C 629.61 -2.48473 -4.72331 0
M  V30 6338 O 629.833 -1.51745 -5.49845 0
M  V30 6339 O 628.767 -3.38503 -4.97694 0
M  V30 6340 H 632.593 -2.44045 -1.80764 0
M  V30 6341 H 630.178 -1.23849 -0.835569 0
M  V30 6342 H 632.06 -1.33468 -3.99705 0
M  V30 6343 H 630.735 -0.436552 -3.20743 0
M  V30 6344 H 629.642 -2.67652 -2.61368 0
M  V30 6345 H 630.975 -3.50769 -3.45286 0
M  V30 6346 N 632.627 0.916307 -1.28225 0
M  V30 6347 C 633.873 1.66765 -1.154 0
M  V30 6348 C 634.206 1.91912 0.297251 0
M  V30 6349 O 633.481 1.51766 1.21644 0
M  V30 6350 C 633.764 3.02715 -1.95028 0
M  V30 6351 C 633.617 2.84738 -3.48201 0
M  V30 6352 C 634.936 4.03215 -1.76369 0
M  V30 6353 H 632.055 0.605205 -0.42059 0
M  V30 6354 H 634.697 1.06255 -1.57512 0
M  V30 6355 H 632.847 3.54365 -1.59242 0
M  V30 6356 H 634.519 2.40118 -3.9388 0
M  V30 6357 H 632.762 2.19848 -3.73964 0
M  V30 6358 H 633.433 3.8127 -3.99171 0
M  V30 6359 H 635.909 3.60617 -2.07593 0
M  V30 6360 H 634.785 4.96306 -2.34459 0
M  V30 6361 H 635.046 4.36288 -0.71452 0
M  V30 6362 N 634.105 1.10431 1.1244 0
M  V30 6363 C 635.516 0.864439 1.65482 0
M  V30 6364 C 635.867 -0.60527 1.8663 0
M  V30 6365 O 634.992 -1.46492 1.59276 0
M  V30 6366 C 635.587 1.56267 3.0061 0
M  V30 6367 C 634.146 1.3695 3.50602 0
M  V30 6368 C 633.293 1.61209 2.25626 0
M  V30 6369 H 636.244 1.26203 0.962209 0
M  V30 6370 H 636.265 1.00166 3.67079 0
M  V30 6371 H 635.777 2.63231 2.85186 0
M  V30 6372 H 633.878 0.321481 3.71211 0
M  V30 6373 H 633.991 2.11143 4.30064 0
M  V30 6374 H 632.355 1.03482 2.32731 0
M  V30 6375 H 633.138 2.69425 2.12756 0
M  V30 6376 N 635.583 -1.29855 0.893053 0
M  V30 6377 C 636.513 -2.3035 0.382249 0
M  V30 6378 C 637.494 -1.61328 -0.539203 0
M  V30 6379 O 638.679 -1.88882 -0.451342 0
M  V30 6380 C 635.809 -3.45024 -0.396983 0
M  V30 6381 C 634.763 -4.258 0.433437 0
M  V30 6382 C 634.089 -5.32605 -0.472889 0
M  V30 6383 C 635.389 -4.94549 1.67984 0
M  V30 6384 H 637.083 -2.73325 1.22205 0
M  V30 6385 H 634.629 -1.314 0.589073 0
M  V30 6386 H 636.582 -4.14398 -0.765024 0
M  V30 6387 H 635.306 -3.00875 -1.2705 0
M  V30 6388 H 633.965 -3.58125 0.783723 0
M  V30 6389 H 633.613 -4.84702 -1.34435 0
M  V30 6390 H 633.313 -5.87547 0.0789958 0
M  V30 6391 H 634.837 -6.04832 -0.837269 0
M  V30 6392 H 636.251 -5.56395 1.38192 0
M  V30 6393 H 634.648 -5.59393 2.17254 0
M  V30 6394 H 635.718 -4.20215 2.41965 0
M  V30 6395 N 637.061 -0.65484 -1.43351 0
M  V30 6396 C 638.008 0.0357713 -2.30772 0
M  V30 6397 C 638.978 0.813035 -1.44841 0
M  V30 6398 O 640.163 0.789314 -1.73708 0
M  V30 6399 C 637.303 0.995084 -3.30442 0
M  V30 6400 C 636.416 0.21375 -4.31471 0
M  V30 6401 C 635.551 1.16701 -5.18222 0
M  V30 6402 C 634.59 0.376201 -6.10943 0
M  V30 6403 N 633.727 1.28113 -6.90313 0
M  V30 6404 H 638.567 -0.71559 -2.89281 0
M  V30 6405 H 636.104 -0.364645 -1.42509 0
M  V30 6406 H 638.062 1.5649 -3.86739 0
M  V30 6407 H 636.692 1.7133 -2.7358 0
M  V30 6408 H 635.744 -0.472377 -3.77456 0
M  V30 6409 H 637.056 -0.401103 -4.97185 0
M  V30 6410 H 636.21 1.8074 -5.79153 0
M  V30 6411 H 634.949 1.81577 -4.52638 0
M  V30 6412 H 633.954 -0.277534 -5.49099 0
M  V30 6413 H 635.179 -0.268178 -6.7857 0
M  V30 6414 H 633.125 1.91666 -6.27376 0
M  V30 6415 H 633.042 0.720879 -7.52555 0
M  V30 6416 H 634.31 1.90962 -7.55747 0
M  V30 6417 N 638.539 1.52521 -0.396863 0
M  V30 6418 C 639.767 2.06091 0.18275 0
M  V30 6419 C 640.182 1.26796 1.39886 0
M  V30 6420 O 639.539 0.316585 1.79733 0
M  V30 6421 C 639.59 3.57362 0.545377 0
M  V30 6422 O 639.311 4.33656 -0.622428 0
M  V30 6423 C 640.812 4.27305 1.18004 0
M  V30 6424 H 638.032 0.670504 0.025789 0
M  V30 6425 H 640.576 1.96561 -0.564276 0
M  V30 6426 H 638.731 3.66941 1.2423 0
M  V30 6427 H 639.145 5.23507 -0.322662 0
M  V30 6428 H 640.619 5.34366 1.38408 0
M  V30 6429 H 641.096 3.83 2.1496 0
M  V30 6430 H 641.702 4.22064 0.523671 0
M  V30 6431 N 640.017 0.126909 1.57088 0
M  V30 6432 C 641.263 -0.529952 1.95753 0
M  V30 6433 C 641.596 -1.65823 1.01077 0
M  V30 6434 O 640.871 -1.94437 0.0494162 0
M  V30 6435 C 641.154 -1.05517 3.44294 0
M  V30 6436 C 641.007 0.0702253 4.49745 0
M  V30 6437 C 642.326 -1.9435 3.94862 0
M  V30 6438 H 639.445 -0.191168 0.711775 0
M  V30 6439 H 642.087 0.204071 1.88901 0
M  V30 6440 H 640.237 -1.68069 3.50264 0
M  V30 6441 H 641.909 0.705834 4.55868 0
M  V30 6442 H 640.152 0.732259 4.27575 0
M  V30 6443 H 640.823 -0.338642 5.5096 0
M  V30 6444 H 643.299 -1.41658 3.91244 0
M  V30 6445 H 642.175 -2.28015 4.993 0
M  V30 6446 H 642.436 -2.87299 3.36024 0
M  V30 6447 N 641.495 -1.56914 -0.146875 0
M  V30 6448 C 642.443 -1.99224 -1.20053 0
M  V30 6449 C 643.437 -0.884661 -1.44465 0
M  V30 6450 O 644.643 -1.06984 -1.44756 0
M  V30 6451 H 641.018 -0.634191 -0.404112 0
M  V30 6452 H 642.989 -2.86998 -0.816987 0
M  V30 6453 C 641.738 -2.38899 -2.52632 0
M  V30 6454 H 641.061 -3.23677 -2.34677 0
M  V30 6455 H 642.501 -2.72326 -3.24984 0
M  V30 6456 C 640.96 -1.2417 -3.13183 0
M  V30 6457 O 641.49 -0.542503 -3.9802 0
M  V30 6458 N 639.696 -1.00592 -2.72635 0
M  V30 6459 H 639.243 -1.57627 -2.03744 0
M  V30 6460 H 639.201 -0.240174 -3.13481 0
M  V30 6461 N 642.974 0.416227 -1.52004 0
M  V30 6462 C 643.906 1.52552 -1.71058 0
M  V30 6463 C 644.919 1.51693 -0.59102 0
M  V30 6464 O 646.108 1.56087 -0.865973 0
M  V30 6465 C 643.208 2.91455 -1.72937 0
M  V30 6466 C 642.381 3.16584 -3.01816 0
M  V30 6467 C 641.44 4.35322 -2.95603 0
M  V30 6468 O 640.466 4.32947 -3.6952 0
M  V30 6469 N 641.668 5.40049 -2.12903 0
M  V30 6470 H 644.433 1.36604 -2.66757 0
M  V30 6471 H 641.994 0.60544 -1.50153 0
M  V30 6472 H 643.986 3.68944 -1.66321 0
M  V30 6473 H 642.556 3.00895 -0.847418 0
M  V30 6474 H 641.776 2.27203 -3.22137 0
M  V30 6475 H 643.064 3.30213 -3.87088 0
M  V30 6476 H 642.462 5.44823 -1.52265 0
M  V30 6477 H 641.019 6.16308 -2.1215 0
M  V30 6478 N 644.452 1.42507 0.673017 0
M  V30 6479 C 645.729 1.33554 1.42908 0
M  V30 6480 C 646.109 -0.0262211 2.11084 0
M  V30 6481 O 645.457 -1.04181 2.03368 0
M  V30 6482 C 645.667 2.50498 2.43006 0
M  V30 6483 C 647.015 2.92694 3.07596 0
M  V30 6484 O 648.039 2.50401 2.53333 0
M  V30 6485 O 646.898 3.65899 4.05931 0
M  V30 6486 H 643.992 0.526785 0.637516 0
M  V30 6487 H 646.538 1.54518 0.701591 0
M  V30 6488 H 645.31 3.41272 1.9144 0
M  V30 6489 H 644.933 2.3153 3.23233 0
M  V30 6490 N 645.93 -0.909495 1.28709 0
M  V30 6491 C 647.346 -1.18862 1.06508 0
M  V30 6492 C 647.546 -2.00604 -0.189864 0
M  V30 6493 O 646.602 -2.36281 -0.890355 0
M  V30 6494 C 647.915 -1.91908 2.31499 0
M  V30 6495 C 649.463 -2.04773 2.36721 0
M  V30 6496 C 649.938 -2.81228 3.6149 0
M  V30 6497 N 651.429 -2.88787 3.62155 0
M  V30 6498 C 652.164 -3.48455 4.55375 0
M  V30 6499 N 651.66 -4.09369 5.58918 0
M  V30 6500 N 653.453 -3.46035 4.42963 0
M  V30 6501 H 645.604 -0.363867 2.0926 0
M  V30 6502 H 647.867 -0.223649 0.921241 0
M  V30 6503 H 647.573 -1.39275 3.22948 0
M  V30 6504 H 647.447 -2.92436 2.38245 0
M  V30 6505 H 649.834 -2.56585 1.45767 0
M  V30 6506 H 649.915 -1.03408 2.33967 0
M  V30 6507 H 649.559 -2.30094 4.5279 0
M  V30 6508 H 649.489 -3.82917 3.61499 0
M  V30 6509 H 651.98 -2.45514 2.87283 0
M  V30 6510 H 652.293 -4.52891 6.26187 0
M  V30 6511 H 650.638 -4.0786 5.62739 0
M  V30 6512 H 653.829 -2.9766 3.6127 0
M  V30 6513 H 654.002 -3.92244 5.15799 0
M  V30 6514 N 647.408 -1.11026 -1.11852 0
M  V30 6515 C 648.338 -0.786812 -2.19844 0
M  V30 6516 C 649.319 0.242935 -1.68356 0
M  V30 6517 O 650.504 0.107355 -1.93903 0
M  V30 6518 C 647.634 -0.224516 -3.46574 0
M  V30 6519 C 646.588 -1.18564 -4.1125 0
M  V30 6520 C 645.914 -0.484261 -5.32503 0
M  V30 6521 C 647.214 -2.53465 -4.56676 0
M  V30 6522 H 648.908 -1.68978 -2.47158 0
M  V30 6523 H 646.454 -0.813906 -1.18792 0
M  V30 6524 H 648.407 0.0139435 -4.21398 0
M  V30 6525 H 647.131 0.713722 -3.18706 0
M  V30 6526 H 645.79 -1.40966 -3.38414 0
M  V30 6527 H 645.438 0.458646 -5.00905 0
M  V30 6528 H 645.138 -1.12526 -5.76725 0
M  V30 6529 H 646.662 -0.254492 -6.10069 0
M  V30 6530 H 648.076 -2.35177 -5.22843 0
M  V30 6531 H 646.473 -3.13507 -5.11697 0
M  V30 6532 H 647.543 -3.13008 -3.70343 0
M  V30 6533 N 648.886 1.2938 -0.899927 0
M  V30 6534 C 650.134 1.95164 -0.524924 0
M  V30 6535 C 650.455 1.71292 0.931888 0
M  V30 6536 O 649.725 1.04481 1.65712 0
M  V30 6537 H 648.305 0.722133 -0.191135 0
M  V30 6538 H 650.967 1.57628 -1.14627 0
M  V30 6539 H 650.063 3.0397 -0.707711 0
M  V30 6540 N 650.364 0.662433 1.43002 0
M  V30 6541 C 651.612 0.179237 2.01304 0
M  V30 6542 C 651.933 -1.21428 1.52579 0
M  V30 6543 O 651.203 -1.81294 0.742252 0
M  V30 6544 H 649.783 0.0632725 0.744316 0
M  V30 6545 H 652.445 0.856169 1.75088 0
M  V30 6546 H 651.541 0.170957 3.11631 0
M  V30 6547 N 651.842 -1.52309 0.404946 0
M  V30 6548 C 653.09 -2.01368 -0.17186 0
M  V30 6549 C 653.411 -1.29261 -1.46002 0
M  V30 6550 O 652.681 -0.41729 -1.91404 0
M  V30 6551 H 651.261 -0.744034 -0.0664993 0
M  V30 6552 H 653.923 -1.87263 0.540228 0
M  V30 6553 H 653.019 -3.09888 -0.370957 0
M  V30 6554 N 653.32 -0.135238 -1.57019 0
M  V30 6555 C 654.736 0.221262 -1.58059 0
M  V30 6556 C 654.936 1.65538 -1.14889 0
M  V30 6557 O 653.992 2.37985 -0.843751 0
M  V30 6558 C 655.305 -0.0268114 -3.00688 0
M  V30 6559 C 656.853 0.0378206 -3.12977 0
M  V30 6560 C 657.328 -0.182769 -4.57635 0
M  V30 6561 N 658.819 -0.129292 -4.6302 0
M  V30 6562 C 659.554 -0.274648 -5.72742 0
M  V30 6563 N 659.05 -0.477075 -6.91155 0
M  V30 6564 N 660.843 -0.213077 -5.61696 0
M  V30 6565 H 652.994 -1.07177 -1.83376 0
M  V30 6566 H 655.257 -0.423338 -0.848227 0
M  V30 6567 H 654.963 -1.01889 -3.36618 0
M  V30 6568 H 654.837 0.697863 -3.70688 0
M  V30 6569 H 657.224 1.02043 -2.76896 0
M  V30 6570 H 657.305 -0.718996 -2.45487 0
M  V30 6571 H 656.949 -1.16243 -4.94419 0
M  V30 6572 H 656.879 0.59423 -5.23237 0
M  V30 6573 H 659.37 0.0229896 -3.77893 0
M  V30 6574 H 659.683 -0.578413 -7.70632 0
M  V30 6575 H 658.028 -0.513252 -6.93102 0
M  V30 6576 H 661.219 -0.0557796 -4.68067 0
M  V30 6577 H 661.392 -0.329796 -6.4716 0
M  V30 6578 N 654.798 1.5699 0.138552 0
M  V30 6579 C 655.728 2.01933 1.17241 0
M  V30 6580 C 656.709 0.90033 1.44319 0
M  V30 6581 O 657.894 1.16872 1.55095 0
M  V30 6582 C 655.024 2.40711 2.50351 0
M  V30 6583 C 653.978 3.55874 2.37776 0
M  V30 6584 C 653.304 3.80491 3.75674 0
M  V30 6585 C 654.604 4.8826 1.85472 0
M  V30 6586 H 656.298 2.88551 0.798672 0
M  V30 6587 H 653.844 1.3882 0.382743 0
M  V30 6588 H 655.797 2.70754 3.22909 0
M  V30 6589 H 654.521 1.5104 2.89576 0
M  V30 6590 H 653.18 3.2601 1.67669 0
M  V30 6591 H 652.828 2.88057 4.12349 0
M  V30 6592 H 652.528 4.57998 3.68119 0
M  V30 6593 H 654.052 4.12967 4.49767 0
M  V30 6594 H 655.466 5.16965 2.4783 0
M  V30 6595 H 653.863 5.69631 1.88787 0
M  V30 6596 H 654.933 4.78071 0.810935 0
M  V30 6597 N 656.276 -0.40816 1.52223 0
M  V30 6598 C 657.553 -1.16807 1.56893 0
M  V30 6599 C 657.933 -2.08169 0.350537 0
M  V30 6600 O 657.281 -2.18684 -0.662536 0
M  V30 6601 C 657.491 -1.94451 2.8981 0
M  V30 6602 C 658.839 -2.50484 3.42845 0
M  V30 6603 O 659.863 -2.0463 2.91556 0
M  V30 6604 O 658.722 -3.34192 4.3241 0
M  V30 6605 H 655.816 -0.533382 0.632007 0
M  V30 6606 H 658.362 -0.414862 1.64551 0
M  V30 6607 H 657.134 -1.27527 3.69936 0
M  V30 6608 H 656.757 -2.76775 2.85449 0
M  V30 6609 N 657.755 -1.42862 -0.66545 0
M  V30 6610 C 659.003 -1.43546 -1.42264 0
M  V30 6611 C 659.324 -0.0563116 -1.94919 0
M  V30 6612 O 658.594 0.906568 -1.73661 0
M  V30 6613 H 657.174 -0.528464 -0.527953 0
M  V30 6614 H 659.836 -1.78363 -0.785665 0
M  V30 6615 H 658.932 -2.14079 -2.27105 0
M  V30 6616 N 659.233 0.902656 -1.29189 0
M  V30 6617 C 660.649 1.18296 -1.07137 0
M  V30 6618 C 660.849 2.00701 0.179223 0
M  V30 6619 O 659.905 2.3675 0.877812 0
M  V30 6620 C 661.218 1.90677 -2.32514 0
M  V30 6621 C 662.766 2.03515 -2.37804 0
M  V30 6622 C 663.241 2.79307 -3.62976 0
M  V30 6623 N 664.732 2.86862 -3.63681 0
M  V30 6624 C 665.467 3.46035 -4.57217 0
M  V30 6625 N 664.963 4.06399 -5.61081 0
M  V30 6626 N 666.756 3.43681 -4.44792 0
M  V30 6627 H 658.907 0.352765 -2.0945 0
M  V30 6628 H 661.17 0.21876 -0.922414 0
M  V30 6629 H 660.876 1.3756 -3.23682 0
M  V30 6630 H 660.75 2.91169 -2.39793 0
M  V30 6631 H 663.137 2.55809 -1.47125 0
M  V30 6632 H 663.218 1.02166 -2.34512 0
M  V30 6633 H 662.862 2.2769 -4.54004 0
M  V30 6634 H 662.792 3.80995 -3.63525 0
M  V30 6635 H 665.283 2.43987 -2.88581 0
M  V30 6636 H 665.596 4.49564 -6.2858 0
M  V30 6637 H 663.941 4.0487 -5.64894 0
M  V30 6638 H 667.132 2.9574 -3.62843 0
M  V30 6639 H 667.305 3.89503 -5.17872 0
M  V30 6640 N 660.711 1.11618 1.11262 0
M  V30 6641 C 661.674 0.779447 2.15539 0
M  V30 6642 C 662.674 -0.202081 1.59525 0
M  V30 6643 O 663.864 0.0226356 1.74185 0
M  V30 6644 C 660.996 0.15674 3.40539 0
M  V30 6645 H 662.189 1.70324 2.4684 0
M  V30 6646 H 659.742 0.918298 1.26479 0
M  V30 6647 H 660.477 -0.777186 3.1485 0
M  V30 6648 H 660.262 0.863308 3.82478 0
M  V30 6649 H 661.752 -0.062661 4.17553 0
M  V30 6650 N 662.189 -1.289 0.906776 0
M  V30 6651 C 663.417 -1.99401 0.551969 0
M  V30 6652 C 663.832 -1.67816 -0.865048 0
M  V30 6653 O 663.189 -0.927078 -1.57199 0
M  V30 6654 C 663.24 -3.53779 0.743152 0
M  V30 6655 O 662.961 -3.84248 2.1044 0
M  V30 6656 C 664.462 -4.41543 0.39424 0
M  V30 6657 H 661.682 -0.636926 0.211106 0
M  V30 6658 H 664.226 -1.64266 1.21807 0
M  V30 6659 H 662.381 -3.87201 0.124143 0
M  V30 6660 H 662.795 -4.78904 2.13895 0
M  V30 6661 H 664.269 -5.48957 0.578814 0
M  V30 6662 H 664.746 -4.34073 -0.669137 0
M  V30 6663 H 665.352 -4.13605 0.990491 0
M  V30 6664 N 663.667 -0.670007 -1.42649 0
M  V30 6665 C 664.892 -0.196955 -2.06463 0
M  V30 6666 C 665.317 1.1352 -1.49983 0
M  V30 6667 O 664.675 1.705 -0.616397 0
M  V30 6668 C 664.723 -0.137381 -3.60338 0
M  V30 6669 O 663.827 0.895523 -4.02559 0
M  V30 6670 H 663.168 -0.102579 -0.656029 0
M  V30 6671 H 665.698 -0.917669 -1.82866 0
M  V30 6672 H 665.708 0.0403625 -4.0798 0
M  V30 6673 H 664.383 -1.10977 -4.0082 0
M  V30 6674 H 662.96 0.689209 -3.66476 0
M  V30 6675 N 665.145 1.52092 -0.413018 0
M  V30 6676 C 666.092 2.27119 0.410558 0
M  V30 6677 C 667.062 1.29692 1.03774 0
M  V30 6678 O 668.247 1.58561 1.06128 0
M  V30 6679 C 665.387 3.09863 1.51918 0
M  V30 6680 C 664.5 4.22252 0.912528 0
M  V30 6681 C 663.635 4.92348 1.99417 0
M  V30 6682 C 662.674 5.96694 1.36466 0
M  V30 6683 N 661.811 6.60292 2.38661 0
M  V30 6684 H 666.651 2.97067 -0.235661 0
M  V30 6685 H 664.188 1.46542 -0.128055 0
M  V30 6686 H 666.146 3.56144 2.17295 0
M  V30 6687 H 664.776 2.42078 2.13537 0
M  V30 6688 H 663.828 3.80113 0.147697 0
M  V30 6689 H 665.14 4.9709 0.412717 0
M  V30 6690 H 664.294 5.42054 2.72512 0
M  V30 6691 H 663.033 4.17087 2.52764 0
M  V30 6692 H 662.038 5.46304 0.61906 0
M  V30 6693 H 663.263 6.73899 0.838827 0
M  V30 6694 H 661.209 5.87858 2.91134 0
M  V30 6695 H 661.126 7.30816 1.93503 0
M  V30 6696 H 662.394 7.14635 3.11314 0
M  V30 6697 N 666.623 0.143563 1.56945 0
M  V30 6698 C 667.871 -0.507402 1.95627 0
M  V30 6699 C 668.192 -1.65626 1.02922 0
M  V30 6700 O 667.462 -1.95693 0.0901136 0
M  V30 6701 H 666.042 -0.190436 0.722318 0
M  V30 6702 H 668.704 0.218257 1.93674 0
M  V30 6703 H 667.8 -0.885816 2.99265 0
M  V30 6704 N 668.101 -1.57061 -0.130224 0
M  V30 6705 C 669.033 -1.96147 -1.18571 0
M  V30 6706 C 670.046 -0.859347 -1.38272 0
M  V30 6707 O 671.235 -1.13769 -1.37545 0
M  V30 6708 C 668.335 -2.23484 -2.54771 0
M  V30 6709 C 667.508 -3.54786 -2.55824 0
M  V30 6710 C 666.567 -3.70467 -3.73686 0
M  V30 6711 O 665.593 -4.42693 -3.57787 0
M  V30 6712 N 666.795 -3.08389 -4.91809 0
M  V30 6713 H 669.56 -2.87295 -0.853333 0
M  V30 6714 H 667.121 -1.58714 -0.319621 0
M  V30 6715 H 669.113 -2.312 -3.32158 0
M  V30 6716 H 667.683 -1.38518 -2.80235 0
M  V30 6717 H 666.903 -3.5836 -1.64232 0
M  V30 6718 H 668.191 -4.4111 -2.53573 0
M  V30 6719 H 667.589 -2.49656 -5.0763 0
M  V30 6720 H 666.146 -3.21642 -5.66912 0
M  V30 6721 N 669.579 0.400081 -1.52437 0
M  V30 6722 C 670.825 1.14788 -1.67187 0
M  V30 6723 C 671.158 1.89928 -0.405074 0
M  V30 6724 O 670.433 1.85118 0.596804 0
M  V30 6725 C 670.716 2.13507 -2.89977 0
M  V30 6726 C 670.569 1.42204 -4.2673 0
M  V30 6727 C 671.888 3.14069 -3.083 0
M  V30 6728 H 669.007 0.415939 -0.608411 0
M  V30 6729 H 671.649 0.432542 -1.85011 0
M  V30 6730 H 669.799 2.7451 -2.74912 0
M  V30 6731 H 671.471 0.842503 -4.53541 0
M  V30 6732 H 669.714 0.723939 -4.27717 0
M  V30 6733 H 670.385 2.14281 -5.08712 0
M  V30 6734 H 672.861 2.63148 -3.22323 0
M  V30 6735 H 671.737 3.80398 -3.95713 0
M  V30 6736 H 671.998 3.82309 -2.22018 0
M  V30 6737 N 671.057 1.43213 0.657864 0
M  V30 6738 C 672.304 1.44584 1.41781 0
M  V30 6739 C 672.632 0.0684208 1.9438 0
M  V30 6740 O 671.887 -0.925872 1.72413 0
M  V30 6741 C 672.186 2.43143 2.61947 0
M  V30 6742 C 671.852 3.89128 2.27794 0
M  V30 6743 C 670.514 4.28889 2.18191 0
M  V30 6744 C 672.866 4.81144 2.00375 0
M  V30 6745 C 670.194 5.58625 1.79319 0
M  V30 6746 C 672.546 6.11239 1.63003 0
M  V30 6747 C 671.21 6.49981 1.51922 0
M  V30 6748 H 670.48 0.529069 0.518813 0
M  V30 6749 H 673.127 1.76263 0.748577 0
M  V30 6750 H 671.432 2.04851 3.33981 0
M  V30 6751 H 673.129 2.4146 3.20153 0
M  V30 6752 H 669.719 3.57657 2.36176 0
M  V30 6753 H 673.903 4.512 2.06718 0
M  V30 6754 H 669.159 5.87486 1.69323 0
M  V30 6755 H 673.333 6.82014 1.40817 0
M  V30 6756 H 670.96 7.50416 1.21572 0
M  V30 6757 N 672.536 -0.895792 1.29666 0
M  V30 6758 C 673.761 -1.68528 1.20885 0
M  V30 6759 C 674.186 -1.8673 -0.226595 0
M  V30 6760 O 673.544 -1.39044 -1.16347 0
M  V30 6761 C 673.592 -3.04512 1.93144 0
M  V30 6762 O 672.696 -3.92963 1.25115 0
M  V30 6763 H 672.037 -0.515371 0.418675 0
M  V30 6764 H 674.567 -1.11878 1.71302 0
M  V30 6765 H 674.577 -3.54628 2.0175 0
M  V30 6766 H 673.252 -2.90582 2.97548 0
M  V30 6767 H 671.829 -3.51399 1.24794 0
M  V30 6768 N 674.014 -1.12206 -1.10668 0
M  V30 6769 C 674.944 -0.810086 -2.18997 0
M  V30 6770 C 675.925 0.225065 -1.68604 0
M  V30 6771 O 677.11 0.086783 -1.94006 0
M  V30 6772 C 674.24 -0.261262 -3.46316 0
M  V30 6773 C 673.194 -1.2292 -4.09969 0
M  V30 6774 C 672.52 -0.540713 -5.31959 0
M  V30 6775 C 673.82 -2.58295 -4.53962 0
M  V30 6776 H 675.514 -1.7159 -2.45352 0
M  V30 6777 H 673.06 -0.82646 -1.17922 0
M  V30 6778 H 675.013 -0.0307522 -4.21389 0
M  V30 6779 H 673.737 0.679879 -3.19445 0
M  V30 6780 H 672.396 -1.44548 -3.369 0
M  V30 6781 H 672.044 0.405492 -5.01363 0
M  V30 6782 H 671.744 -1.18637 -5.75499 0
M  V30 6783 H 673.268 -0.319184 -6.09765 0
M  V30 6784 H 674.682 -2.40709 -5.20319 0
M  V30 6785 H 673.079 -3.18916 -5.08343 0
M  V30 6786 H 674.149 -3.16918 -3.67002 0
M  V30 6787 N 675.492 1.28418 -0.913599 0
M  V30 6788 C 676.717 1.99643 -0.561899 0
M  V30 6789 C 677.142 1.67819 0.849608 0
M  V30 6790 O 676.5 0.910503 1.56779 0
M  V30 6791 C 676.548 3.52116 -0.777622 0
M  V30 6792 O 675.652 4.12076 0.163457 0
M  V30 6793 H 674.993 0.627229 -0.217898 0
M  V30 6794 H 677.523 1.63575 -1.229 0
M  V30 6795 H 677.533 4.02163 -0.687666 0
M  V30 6796 H 676.208 3.74613 -1.8066 0
M  V30 6797 H 674.785 3.72892 0.0247827 0
M  V30 6798 N 676.97 0.677563 1.42291 0
M  V30 6799 C 677.933 0.0101085 2.29198 0
M  V30 6800 C 678.933 -0.726219 1.43467 0
M  V30 6801 O 680.123 -0.563807 1.64824 0
M  V30 6802 C 677.255 -0.996316 3.26016 0
M  V30 6803 H 678.448 0.775071 2.89711 0
M  V30 6804 H 676.001 0.440065 1.49977 0
M  V30 6805 H 676.736 -1.78967 2.70446 0
M  V30 6806 H 676.521 -0.471687 3.89253 0
M  V30 6807 H 678.011 -1.46167 3.91184 0
M  V30 6808 N 678.448 -1.51871 0.421078 0
M  V30 6809 C 679.676 -2.06356 -0.14994 0
M  V30 6810 C 680.091 -1.29006 -1.37851 0
M  V30 6811 O 679.448 -0.345139 -1.79207 0
M  V30 6812 C 679.499 -3.58185 -0.488454 0
M  V30 6813 O 679.22 -4.32611 0.691341 0
M  V30 6814 C 680.721 -4.29129 -1.11191 0
M  V30 6815 H 677.941 -0.67083 -0.0151186 0
M  V30 6816 H 680.485 -1.95638 0.595476 0
M  V30 6817 H 678.64 -3.68871 -1.18376 0
M  V30 6818 H 679.054 -5.22927 0.405906 0
M  V30 6819 H 680.528 -5.36501 -1.29889 0
M  V30 6820 H 681.005 -3.86371 -2.0884 0
M  V30 6821 H 681.611 -4.22843 -0.456458 0
M  V30 6822 N 679.926 -0.151884 -1.56866 0
M  V30 6823 C 681.156 0.504081 -2.00356 0
M  V30 6824 C 681.564 1.58639 -1.03103 0
M  V30 6825 O 680.907 1.83688 -0.0207931 0
M  V30 6826 C 680.969 1.15975 -3.40279 0
M  V30 6827 C 680.633 0.221453 -4.56463 0
M  V30 6828 C 681.63 -0.552766 -5.16953 0
M  V30 6829 C 679.315 0.122936 -5.0215 0
M  V30 6830 C 681.309 -1.4129 -6.21543 0
M  V30 6831 C 678.996 -0.740801 -6.06593 0
M  V30 6832 C 679.994 -1.50732 -6.6616 0
M  V30 6833 O 679.682 -2.35666 -7.68581 0
M  V30 6834 H 679.414 0.135279 -0.662326 0
M  V30 6835 H 681.968 -0.244916 -2.03935 0
M  V30 6836 H 680.198 1.95649 -3.33554 0
M  V30 6837 H 681.887 1.71594 -3.67846 0
M  V30 6838 H 682.653 -0.486716 -4.82552 0
M  V30 6839 H 678.532 0.70931 -4.5551 0
M  V30 6840 H 682.076 -2.01166 -6.67966 0
M  V30 6841 H 677.973 -0.808125 -6.40421 0
M  V30 6842 H 678.741 -2.28967 -7.85822 0
M  V30 6843 N 681.404 1.57128 0.121893 0
M  V30 6844 C 682.681 1.75664 0.860327 0
M  V30 6845 C 683.061 0.726585 1.98202 0
M  V30 6846 O 682.409 -0.24999 2.27128 0
M  V30 6847 C 682.619 3.20571 1.37968 0
M  V30 6848 C 683.967 3.82988 1.83317 0
M  V30 6849 O 684.991 3.24156 1.47654 0
M  V30 6850 O 683.85 4.86393 2.49168 0
M  V30 6851 H 680.944 0.719153 0.408348 0
M  V30 6852 H 683.49 1.6937 0.105859 0
M  V30 6853 H 682.262 3.87056 0.57477 0
M  V30 6854 H 681.885 3.31392 2.19694 0
M  V30 6855 N 682.882 -0.391992 1.52647 0
M  V30 6856 C 684.129 -1.13732 1.67545 0
M  V30 6857 C 684.457 -1.90045 0.413881 0
M  V30 6858 O 683.712 -1.86157 -0.603646 0
M  V30 6859 C 684.011 -2.14401 2.85949 0
M  V30 6860 C 683.677 -1.54767 4.23507 0
M  V30 6861 C 682.339 -1.38229 4.60919 0
M  V30 6862 C 684.691 -1.11382 5.0916 0
M  V30 6863 C 682.019 -0.7685 5.81645 0
M  V30 6864 C 684.371 -0.514143 6.30507 0
M  V30 6865 C 683.035 -0.33604 6.66654 0
M  V30 6866 H 682.305 -0.416174 0.613091 0
M  V30 6867 H 684.952 -0.422327 1.86785 0
M  V30 6868 H 683.257 -2.92108 2.61114 0
M  V30 6869 H 684.954 -2.71974 2.94671 0
M  V30 6870 H 681.544 -1.68626 3.94035 0
M  V30 6871 H 685.728 -1.22962 4.80826 0
M  V30 6872 H 680.984 -0.618681 6.08262 0
M  V30 6873 H 685.158 -0.169657 6.96193 0
M  V30 6874 H 682.785 0.14166 7.60068 0
M  V30 6875 O 684.399 -1.52278 -0.537924 0
M  V30 6876 H 685.09 -1.52597 -1.19306 0
M  V30 END ATOM
M  V30 BEGIN BOND
M  V30 END BOND
M  V30 END CTAB
M  END
$$$$
