drugbank_target|Q9HYX1 Uncharacterized protein (DB01992)
 OpenBabel12092120243D

  0  0  0     0  0            999 V3000
M  V30 BEGIN CTAB
M  V30 COUNTS 3102 3134 0 0 0
M  V30 BEGIN ATOM
M  V30 1 H -0.908 1.98254 -0.117106 0
M  V30 2 N 0 1.576 0 0
M  V30 3 C 0.933 2.03868 1.02534 0
M  V30 4 C 1.911 0.928543 1.3348 0
M  V30 5 O 3.095 1.19667 1.45644 0
M  V30 6 C 0.222 2.43627 2.35294 0
M  V30 7 C -0.732 3.65373 2.2001 0
M  V30 8 S 0.101 5.13292 1.52614 0
M  V30 9 C 1.257 5.56322 2.86805 0
M  V30 10 H 1.49 2.90518 0.631377 0
M  V30 11 H -0.977 1.52953 0.210867 0
M  V30 12 H 0.981 2.67203 3.11629 0
M  V30 13 H -0.358 1.57376 2.7183 0
M  V30 14 H -1.165 3.90944 3.18086 0
M  V30 15 H -1.563 3.418 1.51819 0
M  V30 16 H 0.729 5.58782 3.83104 0
M  V30 17 H 1.672 6.56266 2.65933 0
M  V30 18 H 2.08 4.83886 2.90714 0
M  V30 19 N 1.4781 -0.272755 1.55222 0
M  V30 20 C 2.7031 -1.02683 1.80197 0
M  V30 21 C 3.1281 -1.79142 0.573551 0
M  V30 22 O 2.4861 -1.74917 -0.476849 0
M  V30 23 C 2.5341 -1.9609 3.02624 0
M  V30 24 O 1.6381 -3.04863 2.77727 0
M  V30 25 H 0.9791 -0.293557 0.595584 0
M  V30 26 H 3.5091 -0.30159 2.02365 0
M  V30 27 H 3.5191 -2.38039 3.31363 0
M  V30 28 H 2.1941 -1.39851 3.91682 0
M  V30 29 H 0.7711 -2.67228 2.60084 0
M  V30 30 N 2.9562 -1.48159 -0.537278 0
M  V30 31 C 4.3722 -1.34118 -0.865129 0
M  V30 32 C 4.5722 -0.346678 -1.98495 0
M  V30 33 O 3.6282 0.234715 -2.51407 0
M  V30 34 C 4.9412 -2.73963 -1.23954 0
M  V30 35 C 6.4892 -2.82397 -1.34984 0
M  V30 36 C 6.9642 -4.22928 -1.75772 0
M  V30 37 N 8.4552 -4.25566 -1.82887 0
M  V30 38 C 9.1902 -5.31235 -2.15817 0
M  V30 39 N 8.6862 -6.47189 -2.47222 0
M  V30 40 N 10.4792 -5.18624 -2.16761 0
M  V30 41 H 2.6302 -2.1144 0.201715 0
M  V30 42 H 4.8932 -0.947598 0.0275949 0
M  V30 43 H 4.5992 -3.48264 -0.490381 0
M  V30 44 H 4.4732 -3.0702 -2.19132 0
M  V30 45 H 6.8602 -2.08356 -2.08978 0
M  V30 46 H 6.9412 -2.5297 -0.379448 0
M  V30 47 H 6.5852 -4.97482 -1.02341 0
M  V30 48 H 6.5152 -4.49794 -2.73848 0
M  V30 49 H 9.0062 -3.41924 -1.60924 0
M  V30 50 H 9.3192 -7.23564 -2.71433 0
M  V30 51 H 7.6642 -6.50476 -2.44757 0
M  V30 52 H 10.8552 -4.27056 -1.91679 0
M  V30 53 H 11.0282 -6.01078 -2.42093 0
M  V30 54 N 4.4343 0.785586 -1.36625 0
M  V30 55 C 5.8503 1.08419 -1.17122 0
M  V30 56 C 6.0503 2.015 0.00208491 0
M  V30 57 O 5.1063 2.43551 0.666278 0
M  V30 58 C 6.4193 1.69498 -2.48377 0
M  V30 59 C 7.9673 1.81821 -2.54775 0
M  V30 60 C 8.4423 2.46315 -3.86126 0
M  V30 61 N 9.9333 2.53779 -3.87492 0
M  V30 62 C 10.6683 3.045 -4.85868 0
M  V30 63 N 10.1643 3.55499 -5.94637 0
M  V30 64 N 11.9573 3.03247 -4.73284 0
M  V30 65 H 4.1083 0.167264 -2.1174 0
M  V30 66 H 6.3713 0.13682 -0.938075 0
M  V30 67 H 6.0773 1.08571 -3.34522 0
M  V30 68 H 5.9513 2.6896 -2.64462 0
M  V30 69 H 8.3383 2.41884 -1.69045 0
M  V30 70 H 8.4193 0.811532 -2.42586 0
M  V30 71 H 8.0633 1.86895 -4.72263 0
M  V30 72 H 7.9933 3.47561 -3.95612 0
M  V30 73 H 10.4843 2.17672 -3.08913 0
M  V30 74 H 10.7973 3.92562 -6.65669 0
M  V30 75 H 9.1423 3.5364 -5.98301 0
M  V30 76 H 12.3333 2.62696 -3.87438 0
M  V30 77 H 12.5063 3.42467 -5.50109 0
M  V30 78 N 5.9124 1.20967 1.01018 0
M  V30 79 C 6.8754 0.965918 2.07853 0
M  V30 80 C 7.8754 -0.0610545 1.60684 0
M  V30 81 O 9.0654 0.175681 1.73312 0
M  V30 82 C 6.1974 0.455513 3.37843 0
M  V30 83 H 7.3904 1.91365 2.3091 0
M  V30 84 H 4.9434 1.02594 1.17916 0
M  V30 85 H 5.6784 -0.497381 3.20463 0
M  V30 86 H 5.4634 1.19622 3.73407 0
M  V30 87 H 6.9534 0.304667 4.16487 0
M  V30 88 N 7.3905 -1.2043 1.01659 0
M  V30 89 C 8.8015 -1.71517 0.737482 0
M  V30 90 C 9.1525 -1.81547 -0.743973 0
M  V30 91 O 8.2775 -1.47803 -1.58061 0
M  V30 92 C 8.8725 -3.11515 1.33206 0
M  V30 93 C 7.4315 -3.59912 1.10183 0
M  V30 94 C 6.5785 -2.37116 1.43776 0
M  V30 95 H 9.5295 -1.05444 1.18606 0
M  V30 96 H 9.5505 -3.73575 0.722636 0
M  V30 97 H 9.0625 -3.04182 2.41028 0
M  V30 98 H 7.1635 -3.72577 0.0412756 0
M  V30 99 H 7.2765 -4.44731 1.78188 0
M  V30 100 H 5.6405 -2.39857 0.856778 0
M  V30 101 H 6.4235 -2.32424 2.52654 0
M  V30 102 N 8.8686 -0.792821 -1.36206 0
M  V30 103 C 9.8016 -0.139422 -2.27774 0
M  V30 104 C 10.7796 0.68649 -1.47398 0
M  V30 105 O 11.9636 0.656738 -1.7669 0
M  V30 106 C 9.0906 0.807947 -3.28922 0
M  V30 107 C 8.1366 0.0633999 -4.26453 0
M  V30 108 S 8.9696 -1.26319 -5.20388 0
M  V30 109 C 10.1256 -0.31991 -6.25082 0
M  V30 110 H 10.3586 -0.915809 -2.82843 0
M  V30 111 H 7.8916 -0.587203 -1.42798 0
M  V30 112 H 9.8496 1.34908 -3.87699 0
M  V30 113 H 8.5106 1.55761 -2.72759 0
M  V30 114 H 7.7036 0.782386 -4.9789 0
M  V30 115 H 7.3056 -0.407352 -3.71775 0
M  V30 116 H 9.5976 0.499985 -6.75653 0
M  V30 117 H 10.5406 -1.00307 -7.00959 0
M  V30 118 H 10.9486 0.0782694 -5.64446 0
M  V30 119 N 10.3467 1.47872 -0.545128 0
M  V30 120 C 11.5937 2.02493 -0.0165858 0
M  V30 121 C 11.9217 1.42073 1.32836 0
M  V30 122 O 11.1767 0.561459 1.87473 0
M  V30 123 C 11.4757 3.57131 0.13867 0
M  V30 124 C 11.1417 4.36411 -1.13384 0
M  V30 125 C 9.8037 4.57792 -1.48256 0
M  V30 126 C 12.1557 4.82223 -1.97764 0
M  V30 127 C 9.4837 5.22233 -2.67376 0
M  V30 128 C 11.8357 5.47977 -3.16076 0
M  V30 129 C 10.4997 5.67593 -3.51275 0
M  V30 130 H 9.7697 0.740975 -0.00606918 0
M  V30 131 H 12.4167 1.77683 -0.714207 0
M  V30 132 H 10.7217 3.80865 0.919172 0
M  V30 133 H 12.4187 3.97031 0.562782 0
M  V30 134 H 9.0087 4.2004 -0.852297 0
M  V30 135 H 13.1927 4.65493 -1.72132 0
M  V30 136 H 8.4487 5.35616 -2.94831 0
M  V30 137 H 12.6227 5.8244 -3.81755 0
M  V30 138 H 10.2497 6.17298 -4.43675 0
M  V30 139 N 11.8248 0.280983 1.55075 0
M  V30 140 C 12.7718 -0.603937 2.22758 0
M  V30 141 C 13.7418 -1.1452 1.20309 0
M  V30 142 O 14.9268 -1.19343 1.48869 0
M  V30 143 C 12.0668 -1.77947 2.95684 0
M  V30 144 C 11.1798 -1.2715 4.12864 0
M  V30 145 C 10.3148 -2.4093 4.7342 0
M  V30 146 C 9.3538 -1.87165 5.82783 0
M  V30 147 N 8.4908 -2.94441 6.37377 0
M  V30 148 H 13.3308 -0.020124 2.97993 0
M  V30 149 H 10.8678 0.00183425 1.471 0
M  V30 150 H 12.8258 -2.47055 3.36184 0
M  V30 151 H 11.4558 -2.33522 2.22861 0
M  V30 152 H 10.5078 -0.473331 3.77444 0
M  V30 153 H 11.8198 -0.837751 4.91715 0
M  V30 154 H 10.9738 -3.18021 5.1667 0
M  V30 155 H 9.7128 -2.87623 3.93859 0
M  V30 156 H 8.7178 -1.08556 5.38976 0
M  V30 157 H 9.9428 -1.41401 6.64216 0
M  V30 158 H 7.8888 -3.40505 5.60707 0
M  V30 159 H 7.8058 -2.55501 7.11516 0
M  V30 160 H 9.0738 -3.71489 6.85285 0
M  V30 161 N 13.3029 -1.57598 0.00835791 0
M  V30 162 C 14.7139 -1.7892 -0.53333 0
M  V30 163 C 15.0649 -0.916609 -1.73473 0
M  V30 164 O 14.1899 -0.121336 -2.1606 0
M  V30 165 C 14.7849 -3.24488 -0.974313 0
M  V30 166 C 13.3439 -3.46878 -1.46125 0
M  V30 167 C 12.4909 -2.74157 -0.416302 0
M  V30 168 H 15.4419 -1.56958 0.234495 0
M  V30 169 H 15.4629 -3.3306 -1.83988 0
M  V30 170 H 14.9749 -3.87972 -0.099718 0
M  V30 171 H 13.0759 -2.8862 -2.35646 0
M  V30 172 H 13.1889 -4.55572 -1.48295 0
M  V30 173 H 11.5529 -2.39022 -0.87981 0
M  V30 174 H 12.3359 -3.40345 0.44947 0
M  V30 175 N 14.781 0.264519 -1.55364 0
M  V30 176 C 15.711 1.33121 -1.91836 0
M  V30 177 C 16.692 1.51101 -0.781192 0
M  V30 178 O 17.877 1.64003 -1.04003 0
M  V30 179 C 15.007 2.68921 -2.19769 0
M  V30 180 C 13.961 2.65661 -3.35571 0
M  V30 181 C 13.287 4.05093 -3.49004 0
M  V30 182 C 14.587 2.24187 -4.71739 0
M  V30 183 H 16.281 1.02844 -2.81182 0
M  V30 184 H 13.827 0.493286 -1.35287 0
M  V30 185 H 15.78 3.43663 -2.43872 0
M  V30 186 H 14.504 3.00799 -1.27231 0
M  V30 187 H 13.163 1.93377 -3.1145 0
M  V30 188 H 12.811 4.34206 -2.53917 0
M  V30 189 H 12.511 4.03804 -4.26868 0
M  V30 190 H 14.035 4.81561 -3.75408 0
M  V30 191 H 15.449 2.88654 -4.9533 0
M  V30 192 H 13.846 2.34044 -5.52579 0
M  V30 193 H 14.916 1.19327 -4.69988 0
M  V30 194 N 16.2591 1.48442 0.529413 0
M  V30 195 C 17.6701 1.5002 1.11134 0
M  V30 196 C 18.0211 0.27031 1.94329 0
M  V30 197 O 17.1461 -0.622507 2.07253 0
M  V30 198 C 17.7411 2.71834 2.02217 0
M  V30 199 C 16.3001 2.76283 2.55627 0
M  V30 200 C 15.4471 2.43542 1.326 0
M  V30 201 H 18.3981 1.5555 0.314641 0
M  V30 202 H 18.4191 2.50384 2.8651 0
M  V30 203 H 17.9311 3.61331 1.41639 0
M  V30 204 H 16.0321 1.90995 3.19924 0
M  V30 205 H 16.1451 3.77725 2.94721 0
M  V30 206 H 14.5091 1.94709 1.64196 0
M  V30 207 H 15.2921 3.3528 0.737734 0
M  V30 208 N 17.7372 -0.778329 1.37039 0
M  V30 209 C 18.9862 -1.53189 1.3121 0
M  V30 210 C 19.2992 -1.95328 -0.103095 0
M  V30 211 O 20.5052 -2.70012 -0.283826 0
M  V30 212 C 18.9612 -2.76591 2.30272 0
M  V30 213 C 18.5692 -2.41577 3.77286 0
M  V30 214 C 20.3132 -3.5455 2.33441 0
M  V30 215 C 18.2202 -3.61441 4.68096 0
M  V30 216 H 17.1502 -0.5751 0.487622 0
M  V30 217 H 19.8012 -0.853101 1.62464 0
M  V30 218 H 18.1832 -3.46326 1.92027 0
M  V30 219 H 19.3572 -1.79668 4.2433 0
M  V30 220 H 17.6722 -1.76806 3.76999 0
M  V30 221 H 20.2692 -4.43628 2.98493 0
M  V30 222 H 20.6122 -3.93936 1.34611 0
M  V30 223 H 21.1452 -2.91805 2.7036 0
M  V30 224 H 17.8842 -3.27142 5.6803 0
M  V30 225 H 17.4042 -4.22478 4.25761 0
M  V30 226 H 19.0832 -4.28335 4.8491 0
M  V30 227 N 19.2153 -1.21501 -1.00376 0
M  V30 228 C 20.4433 -1.059 -1.77744 0
M  V30 229 C 20.8583 0.391125 -1.84704 0
M  V30 230 O 20.2153 1.27133 -1.30933 0
M  V30 231 C 20.2663 -1.65111 -3.21591 0
M  V30 232 O 19.9873 -3.0445 -3.15027 0
M  V30 233 C 21.4883 -1.54637 -4.15454 0
M  V30 234 H 18.7083 -0.371825 -0.558558 0
M  V30 235 H 21.2523 -1.60865 -1.26264 0
M  V30 236 H 19.4073 -1.14235 -3.70175 0
M  V30 237 H 19.8213 -3.3278 -4.0541 0
M  V30 238 H 21.2953 -2.00808 -5.14179 0
M  V30 239 H 21.7723 -0.501022 -4.36333 0
M  V30 240 H 22.3783 -2.04767 -3.72761 0
M  V30 241 N 20.6934 1.19889 -1.02296 0
M  V30 242 C 21.6234 2.25141 -0.619174 0
M  V30 243 C 22.6044 1.66051 0.368915 0
M  V30 244 O 23.7894 1.92546 0.252941 0
M  V30 245 C 20.9194 3.4728 0.0368783 0
M  V30 246 C 19.8734 4.19005 -0.872865 0
M  V30 247 C 19.1994 5.34637 -0.0822402 0
M  V30 248 C 20.4994 4.74452 -2.18387 0
M  V30 249 H 22.1934 2.59171 -1.49903 0
M  V30 250 H 19.7394 1.24579 -0.722222 0
M  V30 251 H 21.6924 4.20098 0.330958 0
M  V30 252 H 20.4164 3.12433 0.95149 0
M  V30 253 H 19.0754 3.48061 -1.15105 0
M  V30 254 H 18.7234 4.96034 0.83422 0
M  V30 255 H 18.4234 5.83557 -0.688149 0
M  V30 256 H 19.9474 6.10255 0.205238 0
M  V30 257 H 21.3614 5.39055 -1.95172 0
M  V30 258 H 19.7584 5.33834 -2.74119 0
M  V30 259 H 20.8284 3.92844 -2.84257 0
M  V30 260 N 22.1715 0.800033 1.35784 0
M  V30 261 C 23.1035 0.163596 2.28615 0
M  V30 262 C 24.1165 -0.633317 1.49976 0
M  V30 263 O 25.3055 -0.466754 1.72289 0
M  V30 264 C 22.4055 -0.790958 3.29541 0
M  V30 265 C 21.5785 -0.0418255 4.3738 0
M  V30 266 C 20.6375 -0.91389 5.18203 0
M  V30 267 O 19.6635 -0.367234 5.68014 0
M  V30 268 N 20.8655 -2.23682 5.35674 0
M  V30 269 H 23.6305 0.96105 2.83873 0
M  V30 270 H 21.1915 0.654894 1.48063 0
M  V30 271 H 23.1835 -1.37844 3.80501 0
M  V30 272 H 21.7535 -1.48925 2.74846 0
M  V30 273 H 20.9735 0.726813 3.87442 0
M  V30 274 H 22.2615 0.474719 5.06581 0
M  V30 275 H 21.6595 -2.70497 4.96838 0
M  V30 276 H 20.2165 -2.77369 5.89839 0
M  V30 277 N 23.6496 -1.47581 0.552962 0
M  V30 278 C 25.0656 -1.5818 0.212424 0
M  V30 279 C 25.2656 -1.55213 -1.28496 0
M  V30 280 O 24.3216 -1.45329 -2.06484 0
M  V30 281 C 25.6346 -2.88865 0.835318 0
M  V30 282 C 27.1826 -3.0244 0.806156 0
M  V30 283 C 27.6576 -4.35819 1.40804 0
M  V30 284 N 29.1486 -4.42444 1.37103 0
M  V30 285 C 29.8836 -5.44202 1.80641 0
M  V30 286 N 29.3796 -6.52795 2.32015 0
M  V30 287 N 31.1726 -5.35222 1.71738 0
M  V30 288 H 23.3236 -1.47753 1.52587 0
M  V30 289 H 25.5866 -0.702941 0.636064 0
M  V30 290 H 25.2926 -2.9676 1.88749 0
M  V30 291 H 25.1666 -3.7579 0.325848 0
M  V30 292 H 27.5536 -2.94144 -0.237317 0
M  V30 293 H 27.6346 -2.17068 1.35334 0
M  V30 294 H 27.2786 -4.44871 2.45056 0
M  V30 295 H 27.2086 -5.19916 0.836338 0
M  V30 296 H 29.6996 -3.6456 0.995202 0
M  V30 297 H 30.0126 -7.26609 2.63171 0
M  V30 298 H 28.3576 -6.53696 2.36023 0
M  V30 299 H 31.5486 -4.49284 1.31382 0
M  V30 300 H 31.7216 -6.14389 2.05987 0
M  V30 301 N 25.1277 -0.289203 -1.54924 0
M  V30 302 C 26.3757 0.322879 -1.99504 0
M  V30 303 C 26.6967 1.55313 -1.1791 0
M  V30 304 O 25.9667 1.94001 -0.272097 0
M  V30 305 H 24.5467 0.122291 -0.736922 0
M  V30 306 H 27.2087 -0.397802 -1.90797 0
M  V30 307 H 26.3047 0.603061 -3.06218 0
M  V30 308 N 26.6058 1.57591 -0.0167156 0
M  V30 309 C 27.5688 2.08393 0.954204 0
M  V30 310 C 28.5688 0.996531 1.26198 0
M  V30 311 O 29.7588 1.25858 1.20438 0
M  V30 312 C 26.8908 2.5394 2.27436 0
M  V30 313 H 28.0838 2.95455 0.514451 0
M  V30 314 H 25.6368 1.54582 0.231089 0
M  V30 315 H 26.3718 1.70171 2.76066 0
M  V30 316 H 26.1568 3.33371 2.06412 0
M  V30 317 H 27.6468 2.93512 2.97053 0
M  V30 318 N 28.0839 -0.256276 1.55502 0
M  V30 319 C 29.0139 -1.32102 1.92539 0
M  V30 320 C 29.9949 -1.50684 0.789194 0
M  V30 321 O 31.1799 -1.63449 1.04872 0
M  V30 322 C 28.3099 -2.67752 2.21192 0
M  V30 323 C 27.2639 -2.63878 3.36975 0
M  V30 324 C 26.5899 -4.03236 3.51147 0
M  V30 325 C 27.8899 -2.21682 4.72921 0
M  V30 326 H 29.5839 -1.01351 2.81724 0
M  V30 327 H 27.1299 -0.486105 1.35547 0
M  V30 328 H 29.0829 -3.42365 2.45691 0
M  V30 329 H 27.8069 -3.0012 1.28824 0
M  V30 330 H 26.4659 -1.91722 3.12471 0
M  V30 331 H 26.1139 -4.32854 2.56216 0
M  V30 332 H 25.8139 -4.01535 4.29003 0
M  V30 333 H 27.3379 -4.79563 3.77957 0
M  V30 334 H 28.7519 -2.86023 4.96854 0
M  V30 335 H 27.1489 -2.3111 5.53812 0
M  V30 336 H 28.2189 -1.16833 4.70615 0
M  V30 337 N 29.562 -1.4872 -0.521534 0
M  V30 338 C 30.978 -1.35028 -0.850855 0
M  V30 339 C 31.178 -0.367712 -1.98116 0
M  V30 340 O 30.234 0.208037 -2.51642 0
M  V30 341 C 31.547 -2.75263 -1.21041 0
M  V30 342 C 33.095 -2.83813 -1.31981 0
M  V30 343 C 33.57 -4.24769 -1.71276 0
M  V30 344 N 35.061 -4.27482 -1.78363 0
M  V30 345 C 35.796 -5.33494 -2.1017 0
M  V30 346 N 35.292 -6.49775 -2.40343 0
M  V30 347 N 37.085 -5.20894 -2.11248 0
M  V30 348 H 29.236 -2.11214 0.22413 0
M  V30 349 H 31.499 -0.947252 0.0376439 0
M  V30 350 H 31.205 -3.48765 -0.453415 0
M  V30 351 H 31.079 -3.09327 -2.15863 0
M  V30 352 H 33.466 -2.10561 -2.06756 0
M  V30 353 H 33.547 -2.53358 -0.352596 0
M  V30 354 H 33.191 -4.9854 -0.970588 0
M  V30 355 H 33.121 -4.52673 -2.69062 0
M  V30 356 H 35.612 -3.43611 -1.57288 0
M  V30 357 H 35.925 -7.26402 -2.63743 0
M  V30 358 H 34.27 -6.53035 -2.37844 0
M  V30 359 H 37.461 -4.29065 -1.87139 0
M  V30 360 H 37.634 -6.03612 -2.35704 0
M  V30 361 N 31.0401 0.771051 -1.3745 0
M  V30 362 C 31.9701 1.89827 -1.3597 0
M  V30 363 C 32.9511 1.68562 -0.228216 0
M  V30 364 O 34.1361 1.8941 -0.428675 0
M  V30 365 C 31.2661 3.2712 -1.16662 0
M  V30 366 C 30.2201 3.6295 -2.2683 0
M  V30 367 C 29.5461 4.98791 -1.92644 0
M  V30 368 C 30.8461 3.69627 -3.69017 0
M  V30 369 H 32.5401 1.91323 -2.30295 0
M  V30 370 H 30.0861 0.919082 -1.10855 0
M  V30 371 H 32.0391 4.05615 -1.14256 0
M  V30 372 H 30.7631 3.26059 -0.187926 0
M  V30 373 H 29.4221 2.86763 -2.28392 0
M  V30 374 H 29.0701 4.94271 -0.933021 0
M  V30 375 H 28.7701 5.23733 -2.66416 0
M  V30 376 H 30.2941 5.79685 -1.91826 0
M  V30 377 H 31.7081 4.38273 -3.69581 0
M  V30 378 H 30.1051 4.06067 -4.41848 0
M  V30 379 H 31.1751 2.70273 -4.02592 0
M  V30 380 N 32.5182 1.22032 0.997298 0
M  V30 381 C 33.4282 1.00271 2.12092 0
M  V30 382 C 34.4442 -0.047621 1.73935 0
M  V30 383 O 35.6202 0.144136 2.00884 0
M  V30 384 C 32.6852 0.578449 3.4184 0
M  V30 385 C 31.7462 1.70189 3.94125 0
M  V30 386 C 30.9792 1.29778 5.17681 0
M  V30 387 O 31.2022 0.174676 5.70132 0
M  V30 388 O 30.1362 2.11261 5.63607 0
M  V30 389 H 33.9622 1.94398 2.3333 0
M  V30 390 H 31.5472 1.00587 1.10465 0
M  V30 391 H 33.4292 0.351998 4.19927 0
M  V30 392 H 32.1042 -0.334019 3.21972 0
M  V30 393 H 31.0112 1.98282 3.1723 0
M  V30 394 H 32.3442 2.59206 4.18417 0
M  V30 395 N 33.9963 -1.19345 1.0293 0
M  V30 396 C 35.4073 -1.70725 0.755633 0
M  V30 397 C 35.7583 -1.82326 -0.724676 0
M  V30 398 O 34.8833 -1.49471 -1.56484 0
M  V30 399 C 35.4783 -3.10084 1.36503 0
M  V30 400 C 34.0373 -3.58723 1.13994 0
M  V30 401 C 33.1843 -2.35577 1.46283 0
M  V30 402 H 36.1353 -1.0418 1.19718 0
M  V30 403 H 36.1563 -3.72787 0.762217 0
M  V30 404 H 35.6683 -3.01609 2.44241 0
M  V30 405 H 33.7693 -3.72512 0.0807901 0
M  V30 406 H 33.8823 -4.42816 1.82894 0
M  V30 407 H 32.2463 -2.38935 0.88217 0
M  V30 408 H 33.0293 -2.29731 2.55105 0
M  V30 409 N 35.4744 -0.807222 -1.35358 0
M  V30 410 C 36.4044 -0.232509 -2.3234 0
M  V30 411 C 37.3854 0.642386 -1.57504 0
M  V30 412 O 38.5704 0.572526 -1.85569 0
M  V30 413 C 35.7004 0.619238 -3.41735 0
M  V30 414 C 34.6544 -0.157215 -4.27711 0
M  V30 415 C 33.9804 0.816273 -5.28433 0
M  V30 416 C 35.2804 -1.35656 -5.04376 0
M  V30 417 H 36.9744 -1.04276 -2.80654 0
M  V30 418 H 34.5204 -0.50288 -1.34934 0
M  V30 419 H 36.4734 1.03137 -4.08584 0
M  V30 420 H 35.1974 1.46239 -2.92031 0
M  V30 421 H 33.8564 -0.550525 -3.62443 0
M  V30 422 H 33.5044 1.65494 -4.74996 0
M  V30 423 H 33.2044 0.301067 -5.86828 0
M  V30 424 H 34.7284 1.22659 -5.98153 0
M  V30 425 H 36.1424 -1.01927 -5.64166 0
M  V30 426 H 34.5394 -1.8063 -5.7227 0
M  V30 427 H 35.6094 -2.14288 -4.34981 0
M  V30 428 N 36.9525 1.47285 -0.560781 0
M  V30 429 C 38.1985 2.02764 -0.0381184 0
M  V30 430 C 38.5315 1.43384 1.30976 0
M  V30 431 O 37.8065 0.590733 1.85312 0
M  V30 432 C 38.0895 3.60064 0.0511427 0
M  V30 433 C 37.9425 4.2987 -1.32408 0
M  V30 434 C 39.2615 4.33439 0.762795 0
M  V30 435 H 36.3805 0.736841 -0.0153264 0
M  V30 436 H 39.0225 1.75675 -0.723759 0
M  V30 437 H 37.1725 3.83274 0.635065 0
M  V30 438 H 38.8445 4.17989 -1.95148 0
M  V30 439 H 37.0875 3.90085 -1.8978 0
M  V30 440 H 37.7585 5.38478 -1.21431 0
M  V30 441 H 40.2345 4.15243 0.266965 0
M  V30 442 H 39.1105 5.43124 0.794221 0
M  V30 443 H 39.3715 4.02915 1.81966 0
M  V30 444 N 38.4306 0.297415 1.54768 0
M  V30 445 C 39.3406 -0.58983 2.27064 0
M  V30 446 C 40.3566 -1.15144 1.30453 0
M  V30 447 O 41.5326 -1.17699 1.63428 0
M  V30 448 C 38.5976 -1.74714 2.9946 0
M  V30 449 C 37.6586 -1.21997 4.11601 0
M  V30 450 C 36.8916 -2.32212 4.80535 0
M  V30 451 O 37.1146 -3.52036 4.48806 0
M  V30 452 O 36.0486 -1.99106 5.68014 0
M  V30 453 H 39.8746 -0.00348199 3.037 0
M  V30 454 H 37.4596 0.0640035 1.49263 0
M  V30 455 H 39.3416 -2.42147 3.44881 0
M  V30 456 H 38.0166 -2.32016 2.25722 0
M  V30 457 H 36.9236 -0.511458 3.70587 0
M  V30 458 H 38.2566 -0.692419 4.87305 0
M  V30 459 N 39.9087 -1.5758 0.0250728 0
M  V30 460 C 40.8717 -2.08896 -0.943139 0
M  V30 461 C 41.8717 -1.00321 -1.25668 0
M  V30 462 O 43.0617 -1.26495 -1.19769 0
M  V30 463 C 40.1937 -2.55143 -2.26086 0
M  V30 464 H 41.3867 -2.95723 -0.498775 0
M  V30 465 H 38.9397 -1.54703 -0.222888 0
M  V30 466 H 39.6747 -1.71633 -2.75159 0
M  V30 467 H 39.4597 -3.34461 -2.04641 0
M  V30 468 H 40.9497 -2.95083 -2.95492 0
M  V30 469 N 41.3868 0.248026 -1.55636 0
M  V30 470 C 42.6638 0.998988 -1.68165 0
M  V30 471 C 43.0438 2.03409 -0.564621 0
M  V30 472 O 42.3918 2.24378 0.432076 0
M  V30 473 C 42.6018 1.63334 -3.0842 0
M  V30 474 C 43.9498 2.13562 -3.66983 0
M  V30 475 O 44.9738 1.73277 -3.11213 0
M  V30 476 O 43.8328 2.87526 -4.64749 0
M  V30 477 H 40.9268 0.464933 -0.683935 0
M  V30 478 H 43.4728 0.241902 -1.67967 0
M  V30 479 H 42.2448 0.884583 -3.8117 0
M  V30 480 H 41.8678 2.45666 -3.12624 0
M  V30 481 N 42.8649 1.48995 0.513639 0
M  V30 482 C 44.1139 1.57093 1.2651 0
M  V30 483 C 44.4269 0.257091 1.93903 0
M  V30 484 O 45.6329 0.216478 2.70636 0
M  V30 485 C 44.0889 2.77118 2.29638 0
M  V30 486 C 43.6969 4.15209 1.68241 0
M  V30 487 C 45.4409 2.94538 3.05692 0
M  V30 488 C 43.3479 5.26474 2.69406 0
M  V30 489 H 42.2779 0.584876 0.475854 0
M  V30 490 H 44.9289 1.7536 0.540487 0
M  V30 491 H 43.3109 2.52319 3.05207 0
M  V30 492 H 44.4849 4.50094 0.987505 0
M  V30 493 H 42.7999 4.03042 1.04623 0
M  V30 494 H 45.3969 3.74832 3.8132 0
M  V30 495 H 45.7399 2.04614 3.62545 0
M  V30 496 H 46.2729 3.19316 2.37238 0
M  V30 497 H 43.0119 6.18417 2.17351 0
M  V30 498 H 42.5319 4.96058 3.37175 0
M  V30 499 H 44.2109 5.55277 3.32078 0
M  V30 500 N 44.343 -0.763751 1.37857 0
M  V30 501 C 45.754 -1.3405 1.29952 0
M  V30 502 C 46.105 -1.96138 -0.0492898 0
M  V30 503 O 45.23 -1.94372 -0.951239 0
M  V30 504 C 45.825 -2.43729 2.35333 0
M  V30 505 C 44.384 -2.97151 2.31037 0
M  V30 506 C 43.531 -1.70438 2.18738 0
M  V30 507 H 46.482 -0.563396 1.48363 0
M  V30 508 H 46.503 -3.23412 2.00462 0
M  V30 509 H 46.015 -1.9851 3.33489 0
M  V30 510 H 44.116 -3.46724 1.3643 0
M  V30 511 H 44.229 -3.52221 3.24772 0
M  V30 512 H 42.593 -1.93673 1.65418 0
M  V30 513 H 43.376 -1.27312 3.18821 0
M  V30 514 N 45.8211 -1.22559 -0.990812 0
M  V30 515 C 46.7311 -1.01394 -2.11557 0
M  V30 516 C 47.7471 0.0383962 -1.73958 0
M  V30 517 O 48.9231 -0.154787 -2.00804 0
M  V30 518 C 45.9881 -0.596569 -3.41529 0
M  V30 519 C 45.0491 -1.72276 -3.93217 0
M  V30 520 C 44.2821 -1.32521 -5.16985 0
M  V30 521 O 44.5051 -0.204909 -5.70032 0
M  V30 522 O 43.4391 -2.14247 -5.62478 0
M  V30 523 H 47.2651 -1.95633 -2.32296 0
M  V30 524 H 44.8501 -1.01172 -1.0993 0
M  V30 525 H 46.7321 -0.374263 -4.19735 0
M  V30 526 H 45.4071 0.316939 -3.22145 0
M  V30 527 H 44.3141 -1.99961 -3.16174 0
M  V30 528 H 45.6471 -2.61421 -4.17037 0
M  V30 529 N 47.2992 1.18797 -1.03562 0
M  V30 530 C 48.2292 2.24472 -0.643019 0
M  V30 531 C 49.2102 1.66433 0.351283 0
M  V30 532 O 50.3952 1.92803 0.232505 0
M  V30 533 C 47.5252 3.473 4.24935e-05 0
M  V30 534 C 46.4792 4.18055 -0.917257 0
M  V30 535 C 45.8052 5.34519 -0.138941 0
M  V30 536 C 47.1052 4.72109 -2.23407 0
M  V30 537 H 48.7992 2.57566 -1.52643 0
M  V30 538 H 46.3452 1.23806 -0.735394 0
M  V30 539 H 48.2982 4.20426 0.286383 0
M  V30 540 H 47.0222 3.13424 0.918299 0
M  V30 541 H 45.6812 3.46821 -1.1879 0
M  V30 542 H 45.3292 4.96891 0.781562 0
M  V30 543 H 45.0292 5.82794 -0.750005 0
M  V30 544 H 46.5532 6.10438 0.1405 0
M  V30 545 H 47.9672 5.36955 -2.00879 0
M  V30 546 H 46.3642 5.30897 -2.79765 0
M  V30 547 H 47.4342 3.89807 -2.88407 0
M  V30 548 N 48.7773 0.814389 1.34928 0
M  V30 549 C 50.0233 0.399013 1.98836 0
M  V30 550 C 50.3563 -1.03314 1.64438 0
M  V30 551 O 49.6313 -1.71811 0.911659 0
M  V30 552 C 49.9143 0.591629 3.55207 0
M  V30 553 C 49.7673 2.06928 3.99376 0
M  V30 554 C 51.0863 0.022199 4.40094 0
M  V30 555 H 48.2053 0.146451 0.722303 0
M  V30 556 H 50.8473 1.02537 1.59957 0
M  V30 557 H 48.9973 0.0584441 3.88456 0
M  V30 558 H 50.6693 2.66544 3.76499 0
M  V30 559 H 48.9123 2.56287 3.49999 0
M  V30 560 H 49.5833 2.1549 5.08201 0
M  V30 561 H 52.0593 0.477643 4.13349 0
M  V30 562 H 50.9353 0.186832 5.48582 0
M  V30 563 H 51.1963 -1.07215 4.28902 0
M  V30 564 N 50.2554 -1.46986 0.568584 0
M  V30 565 C 51.4804 -2.07335 0.0520528 0
M  V30 566 C 51.9054 -1.41675 -1.23733 0
M  V30 567 O 51.2634 -0.495623 -1.74394 0
M  V30 568 C 51.3114 -3.60417 -0.11501 0
M  V30 569 O 50.4154 -3.95309 -1.17492 0
M  V30 570 H 49.7564 -0.661597 0.0564385 0
M  V30 571 H 52.2864 -1.88837 0.787507 0
M  V30 572 H 52.2964 -4.06698 -0.325644 0
M  V30 573 H 50.9714 -4.07601 0.826675 0
M  V30 574 H 49.5484 -3.60757 -0.943869 0
M  V30 575 N 51.7335 -0.305618 -1.54608 0
M  V30 576 C 52.6635 0.561482 -2.26649 0
M  V30 577 C 53.6445 1.13415 -1.26772 0
M  V30 578 O 54.8295 1.16262 -1.55553 0
M  V30 579 C 51.9595 1.73122 -3.01075 0
M  V30 580 C 50.9135 1.2887 -4.08138 0
M  V30 581 C 50.2395 2.54396 -4.70305 0
M  V30 582 C 51.5395 0.416578 -5.20636 0
M  V30 583 H 53.2335 -0.0393902 -2.99374 0
M  V30 584 H 50.7795 -0.020385 -1.43986 0
M  V30 585 H 52.7325 2.34396 -3.50195 0
M  V30 586 H 51.4565 2.3584 -2.25936 0
M  V30 587 H 50.1155 0.698991 -3.59875 0
M  V30 588 H 49.7635 3.15439 -3.918 0
M  V30 589 H 49.4635 2.25486 -5.42614 0
M  V30 590 H 50.9875 3.16464 -5.2219 0
M  V30 591 H 52.4015 0.935116 -5.65622 0
M  V30 592 H 50.7985 0.221046 -5.99693 0
M  V30 593 H 51.8685 -0.557162 -4.81688 0
M  V30 594 N 53.2116 1.57565 -0.0334293 0
M  V30 595 C 54.1746 2.09393 0.932048 0
M  V30 596 C 55.1746 1.00986 1.25134 0
M  V30 597 O 56.3646 1.27129 1.19096 0
M  V30 598 C 53.4966 2.56338 2.2473 0
M  V30 599 H 54.6896 2.95984 0.483085 0
M  V30 600 H 52.2426 1.54819 0.21468 0
M  V30 601 H 52.9776 1.7309 2.74245 0
M  V30 602 H 52.7626 3.35542 2.02865 0
M  V30 603 H 54.2526 2.96646 2.93923 0
M  V30 604 N 54.6897 -0.239769 1.55765 0
M  V30 605 C 55.5997 -1.31831 1.94056 0
M  V30 606 C 56.6157 -1.52275 0.841925 0
M  V30 607 O 57.7917 -1.65759 1.14394 0
M  V30 608 C 54.8567 -2.65156 2.23368 0
M  V30 609 C 53.9177 -2.53173 3.46701 0
M  V30 610 C 53.1507 -3.8014 3.74606 0
M  V30 611 O 53.3737 -4.82343 3.04469 0
M  V30 612 O 52.3077 -3.78344 4.68123 0
M  V30 613 H 56.1337 -1.02347 2.85935 0
M  V30 614 H 53.7187 -0.441123 1.42739 0
M  V30 615 H 55.6007 -3.43929 2.43497 0
M  V30 616 H 54.2757 -2.94358 1.34666 0
M  V30 617 H 53.1827 -1.72662 3.31871 0
M  V30 618 H 54.5157 -2.28915 4.35728 0
M  V30 619 N 56.1678 -1.49265 -0.50573 0
M  V30 620 C 57.1308 -1.65075 -1.59006 0
M  V30 621 C 58.1308 -0.522768 -1.52065 0
M  V30 622 O 59.3208 -0.789117 -1.55302 0
M  V30 623 C 56.4528 -1.64369 -2.98656 0
M  V30 624 H 57.6458 -2.61784 -1.46319 0
M  V30 625 H 55.1988 -1.38226 -0.729616 0
M  V30 626 H 55.9338 -0.692272 -3.16825 0
M  V30 627 H 55.7188 -2.46282 -3.05103 0
M  V30 628 H 57.2088 -1.78674 -3.77446 0
M  V30 629 N 57.6459 0.756429 -1.3826 0
M  V30 630 C 58.5939 1.89149 -1.35372 0
M  V30 631 C 59.5879 1.67691 -0.24004 0
M  V30 632 O 60.7939 1.75294 -0.408919 0
M  V30 633 H 57.1689 0.622271 -0.422236 0
M  V30 634 H 59.1399 1.88701 -2.31159 0
M  V30 635 C 57.8889 3.26599 -1.19284 0
M  V30 636 H 57.2119 3.43695 -2.0424 0
M  V30 637 H 58.6519 4.06274 -1.21316 0
M  V30 638 C 57.1109 3.3675 0.100454 0
M  V30 639 O 57.6409 3.86951 1.07851 0
M  V30 640 N 55.8469 2.90179 0.15633 0
M  V30 641 H 55.3939 2.49517 -0.640253 0
M  V30 642 H 55.3519 2.97352 1.02123 0
M  V30 643 N 59.124 1.23083 0.984299 0
M  V30 644 C 60.54 0.992637 1.24975 0
M  V30 645 C 60.74 -0.308618 1.99123 0
M  V30 646 O 59.796 -1.02905 2.30579 0
M  V30 647 C 61.109 2.19698 2.05312 0
M  V30 648 C 62.657 2.24147 2.18465 0
M  V30 649 C 63.132 3.44157 3.02192 0
M  V30 650 N 64.623 3.44372 3.09777 0
M  V30 651 C 65.358 4.33886 3.74874 0
M  V30 652 N 64.854 5.3363 4.41827 0
M  V30 653 N 66.647 4.21639 3.71721 0
M  V30 654 H 58.798 2.06731 0.487453 0
M  V30 655 H 61.061 0.906339 0.277944 0
M  V30 656 H 60.767 3.1411 1.58201 0
M  V30 657 H 60.641 2.20465 3.06064 0
M  V30 658 H 63.028 1.30277 2.64786 0
M  V30 659 H 63.109 2.27415 1.17115 0
M  V30 660 H 62.753 4.38332 2.56568 0
M  V30 661 H 62.683 3.3813 4.03702 0
M  V30 662 H 65.174 2.72201 2.62135 0
M  V30 663 H 65.487 5.98196 4.89266 0
M  V30 664 H 63.832 5.37534 4.40548 0
M  V30 665 H 67.023 3.42962 3.18582 0
M  V30 666 H 67.196 4.91604 4.22173 0
M  V30 667 N 60.6021 -1.18246 1.0419 0
M  V30 668 C 61.5121 -2.25574 0.644476 0
M  V30 669 C 62.5281 -1.70845 -0.329826 0
M  V30 670 O 63.7041 -2.00554 -0.184443 0
M  V30 671 C 60.7691 -3.46697 0.014877 0
M  V30 672 C 59.8301 -4.16554 1.03834 0
M  V30 673 C 59.0631 -5.31894 0.438692 0
M  V30 674 O 59.2861 -5.65385 -0.754752 0
M  V30 675 O 58.2201 -5.90459 1.168 0
M  V30 676 H 62.0461 -2.61836 1.53869 0
M  V30 677 H 59.6311 -1.25352 0.812854 0
M  V30 678 H 61.5131 -4.20062 -0.335538 0
M  V30 679 H 60.1881 -3.12255 -0.853138 0
M  V30 680 H 59.0951 -3.45251 1.44057 0
M  V30 681 H 60.4281 -4.54998 1.87716 0
M  V30 682 N 62.0802 -0.821533 -1.34494 0
M  V30 683 C 63.0432 -0.247847 -2.27856 0
M  V30 684 C 64.0432 0.573453 -1.50227 0
M  V30 685 O 65.2332 0.389759 -1.69784 0
M  V30 686 C 62.3652 0.652698 -3.34593 0
M  V30 687 H 63.5582 -1.07146 -2.80107 0
M  V30 688 H 61.1112 -0.593291 -1.44602 0
M  V30 689 H 61.8462 1.49943 -2.87555 0
M  V30 690 H 61.6312 0.065292 -3.92046 0
M  V30 691 H 63.1212 1.04793 -4.04238 0
M  V30 692 N 63.5583 1.46682 -0.576371 0
M  V30 693 C 64.4883 2.33028 0.148397 0
M  V30 694 C 65.4693 1.44961 0.889956 0
M  V30 695 O 66.6543 1.73789 0.866662 0
M  V30 696 C 63.7843 3.27117 1.1667 0
M  V30 697 C 62.7383 4.24575 0.540386 0
M  V30 698 C 62.0643 5.08126 1.6647 0
M  V30 699 C 63.3643 5.19722 -0.518331 0
M  V30 700 H 65.0583 2.93875 -0.572509 0
M  V30 701 H 62.6043 1.41315 -0.276768 0
M  V30 702 H 64.5573 3.86374 1.68204 0
M  V30 703 H 63.2813 2.64364 1.9178 0
M  V30 704 H 61.9403 3.66571 0.0461769 0
M  V30 705 H 61.5883 4.41762 2.40531 0
M  V30 706 H 61.2883 5.74122 1.25131 0
M  V30 707 H 62.8123 5.70246 2.18293 0
M  V30 708 H 64.2263 5.73232 -0.0883058 0
M  V30 709 H 62.6233 5.94026 -0.851679 0
M  V30 710 H 63.6933 4.64037 -1.40703 0
M  V30 711 N 65.0364 0.313813 1.54444 0
M  V30 712 C 65.9684 -0.590425 2.21465 0
M  V30 713 C 66.9814 -1.08753 1.21147 0
M  V30 714 O 68.1704 -1.00278 1.4767 0
M  V30 715 C 65.2704 -1.82179 2.85769 0
M  V30 716 C 64.4434 -1.46502 4.12136 0
M  V30 717 C 63.5024 -2.55288 4.60124 0
M  V30 718 O 62.5284 -2.19842 5.25032 0
M  V30 719 N 63.7304 -3.86053 4.33525 0
M  V30 720 H 66.4954 -0.0166033 2.99695 0
M  V30 721 H 64.0564 0.136578 1.61323 0
M  V30 722 H 66.0484 -2.54328 3.14801 0
M  V30 723 H 64.6184 -2.30369 2.11303 0
M  V30 724 H 63.8384 -0.575595 3.89975 0
M  V30 725 H 65.1264 -1.20221 4.94393 0
M  V30 726 H 64.5244 -4.17654 3.81552 0
M  V30 727 H 63.0814 -4.54461 4.67235 0
M  V30 728 N 66.5145 -1.57545 0.0417849 0
M  V30 729 C 67.7445 -1.96339 -0.642995 0
M  V30 730 C 68.1525 -0.917536 -1.65463 0
M  V30 731 O 67.4955 0.107747 -1.83384 0
M  V30 732 C 67.5575 -3.31333 -1.39494 0
M  V30 733 C 67.2215 -4.53796 -0.540204 0
M  V30 734 C 68.2185 -5.19553 0.189806 0
M  V30 735 C 65.9035 -5.0006 -0.473886 0
M  V30 736 C 67.8975 -6.29904 0.974674 0
M  V30 737 C 65.5845 -6.10289 0.314677 0
M  V30 738 C 66.5825 -6.75072 1.03765 0
M  V30 739 O 66.2705 -7.83183 1.81327 0
M  V30 740 H 66.0025 -0.651241 -0.181277 0
M  V30 741 H 68.5565 -2.05148 0.101665 0
M  V30 742 H 66.7865 -3.19052 -2.18502 0
M  V30 743 H 68.4755 -3.54942 -1.96904 0
M  V30 744 H 69.2415 -4.84774 0.147981 0
M  V30 745 H 65.1205 -4.49433 -1.0262 0
M  V30 746 H 68.6645 -6.80401 1.5395 0
M  V30 747 H 64.5615 -6.44506 0.358174 0
M  V30 748 H 65.3295 -7.99913 1.73438 0
M  V30 749 N 67.9926 0.231505 -1.5589 0
M  V30 750 C 68.9256 1.31369 -1.86595 0
M  V30 751 C 69.9036 1.45671 -0.722397 0
M  V30 752 O 71.0876 1.61642 -0.969743 0
M  V30 753 C 68.2146 2.68529 -2.06421 0
M  V30 754 C 67.2606 2.71295 -3.29092 0
M  V30 755 S 68.0936 2.26358 -4.85306 0
M  V30 756 C 69.2496 3.65414 -5.08157 0
M  V30 757 H 69.4826 1.05128 -2.78092 0
M  V30 758 H 67.0156 0.433259 -1.48197 0
M  V30 759 H 68.9736 3.47499 -2.18528 0
M  V30 760 H 67.6346 2.91999 -1.15738 0
M  V30 761 H 66.8276 3.72063 -3.39978 0
M  V30 762 H 66.4296 2.0038 -3.15791 0
M  V30 763 H 68.7216 4.6103 -4.96445 0
M  V30 764 H 69.6646 3.5945 -6.10083 0
M  V30 765 H 70.0726 3.5864 -4.35933 0
M  V30 766 N 69.4707 1.49531 0.497807 0
M  V30 767 C 70.7477 1.49682 1.25915 0
M  V30 768 C 71.1277 0.226339 2.09883 0
M  V30 769 O 70.4757 -0.791189 2.14365 0
M  V30 770 C 70.6857 2.77755 2.11313 0
M  V30 771 C 72.0337 3.27371 2.70395 0
M  V30 772 O 73.0577 2.78894 2.21578 0
M  V30 773 O 71.9167 4.11808 3.59272 0
M  V30 774 H 69.0107 0.599228 0.56996 0
M  V30 775 H 71.5567 1.61798 0.511816 0
M  V30 776 H 70.3287 3.61713 1.49264 0
M  V30 777 H 69.9517 2.68515 2.93233 0
M  V30 778 N 70.9488 -0.749086 1.3866 0
M  V30 779 C 72.1968 -1.50535 1.34847 0
M  V30 780 C 72.5178 -1.94909 -0.0595016 0
M  V30 781 O 71.7878 -1.67973 -1.00806 0
M  V30 782 H 70.3678 -0.558395 0.49619 0
M  V30 783 H 73.0298 -0.890165 1.73384 0
M  V30 784 H 72.1258 -2.39413 2.00219 0
M  V30 785 N 72.4269 -1.23603 -0.977757 0
M  V30 786 C 73.8379 -1.06424 -1.53398 0
M  V30 787 C 74.1889 0.367578 -1.92726 0
M  V30 788 O 73.3139 1.25465 -1.76316 0
M  V30 789 C 73.9089 -1.92568 -2.78753 0
M  V30 790 C 72.4679 -1.79642 -3.30765 0
M  V30 791 C 71.6149 -1.88111 -2.03739 0
M  V30 792 H 74.5659 -1.37227 -0.797152 0
M  V30 793 H 74.5869 -1.45203 -3.51705 0
M  V30 794 H 74.0989 -2.96771 -2.50098 0
M  V30 795 H 72.1999 -0.782325 -3.64294 0
M  V30 796 H 72.3129 -2.63174 -4.00345 0
M  V30 797 H 70.6769 -1.31723 -2.17994 0
M  V30 798 H 71.4599 -2.93875 -1.77461 0
M  V30 799 N 73.905 1.17692 -1.04816 0
M  V30 800 C 75.133 1.91786 -0.776254 0
M  V30 801 C 75.548 1.76604 0.667577 0
M  V30 802 O 74.905 1.10067 1.45573 0
M  V30 803 C 74.956 3.42967 -1.14263 0
M  V30 804 O 74.677 3.57678 -2.52978 0
M  V30 805 C 76.178 4.34144 -0.896311 0
M  V30 806 H 73.398 0.608624 -0.282519 0
M  V30 807 H 75.942 1.49268 -1.39783 0
M  V30 808 H 74.097 3.83245 -0.565874 0
M  V30 809 H 74.511 4.51319 -2.67229 0
M  V30 810 H 75.985 5.38744 -1.20244 0
M  V30 811 H 76.462 4.38876 0.168636 0
M  V30 812 H 77.068 3.99574 -1.45672 0
M  V30 813 N 75.3831 0.828654 1.34056 0
M  V30 814 C 76.7991 0.515135 1.51058 0
M  V30 815 C 76.9991 -0.959581 1.77184 0
M  V30 816 O 76.0551 -1.74382 1.82612 0
M  V30 817 C 77.3681 1.37963 2.67183 0
M  V30 818 C 78.9161 1.37735 2.81066 0
M  V30 819 C 79.3911 2.22645 4.00241 0
M  V30 820 N 80.8821 2.203 4.07458 0
M  V30 821 C 81.6171 2.82744 4.98842 0
M  V30 822 N 81.1131 3.54201 5.9541 0
M  V30 823 N 82.9061 2.72268 4.91759 0
M  V30 824 H 75.0571 1.78343 1.15358 0
M  V30 825 H 77.3201 0.760304 0.566252 0
M  V30 826 H 77.0261 2.42714 2.54525 0
M  V30 827 H 76.9001 1.0484 3.62338 0
M  V30 828 H 79.2871 0.337593 2.93163 0
M  V30 829 H 79.3681 1.74859 1.86703 0
M  V30 830 H 79.0121 3.26674 3.88905 0
M  V30 831 H 78.9421 1.82869 4.93829 0
M  V30 832 H 81.4331 1.68327 3.38341 0
M  V30 833 H 81.7461 3.9908 6.61782 0
M  V30 834 H 80.0911 3.58308 5.95517 0
M  V30 835 H 83.2821 2.16014 4.15278 0
M  V30 836 H 83.4551 3.21219 5.62781 0
M  V30 837 N 76.8612 -1.46375 0.584142 0
M  V30 838 C 78.2722 -1.86031 0.157959 0
M  V30 839 C 78.6232 -1.48753 -1.27933 0
M  V30 840 O 77.7482 -0.903098 -1.96655 0
M  V30 841 C 78.3432 -3.37642 0.279892 0
M  V30 842 C 76.9022 -3.76289 -0.09143 0
M  V30 843 C 76.0492 -2.7039 0.615178 0
M  V30 844 H 79.0002 -1.37509 0.792274 0
M  V30 845 H 79.0212 -3.77275 -0.494364 0
M  V30 846 H 78.5332 -3.64742 1.32607 0
M  V30 847 H 76.6342 -3.54806 -1.13769 0
M  V30 848 H 76.7472 -4.78246 0.285886 0
M  V30 849 H 75.1112 -2.5464 0.0552833 0
M  V30 850 H 75.8942 -3.0033 1.66303 0
M  V30 851 N 78.3393 -0.321999 -1.54275 0
M  V30 852 C 79.6163 0.335232 -1.92706 0
M  V30 853 C 79.9963 1.70006 -1.25145 0
M  V30 854 O 79.3443 2.25067 -0.394596 0
M  V30 855 C 79.5543 0.429008 -3.46353 0
M  V30 856 C 80.9023 0.690029 -4.18956 0
M  V30 857 O 81.9263 0.511992 -3.52501 0
M  V30 858 O 80.7853 1.03338 -5.36641 0
M  V30 859 H 77.8793 0.191143 -0.804608 0
M  V30 860 H 80.4253 -0.3716 -1.65581 0
M  V30 861 H 79.1973 -0.529611 -3.87699 0
M  V30 862 H 78.8203 1.18348 -3.79578 0
M  V30 863 N 79.8174 1.5752 -0.0501392 0
M  V30 864 C 81.0634 1.93755 0.618901 0
M  V30 865 C 81.4184 0.928514 1.68512 0
M  V30 866 O 80.7114 -0.0524613 1.91528 0
M  V30 867 C 80.9054 3.34467 1.25963 0
M  V30 868 C 80.7344 4.48965 0.257 0
M  V30 869 C 79.5044 5.05075 -0.150656 0
M  V30 870 C 81.7024 5.11891 -0.497166 0
M  V30 871 N 79.6844 6.03104 -1.14626 0
M  V30 872 C 81.0554 6.05216 -1.34588 0
M  V30 873 C 83.1104 4.9479 -0.55559 0
M  V30 874 C 81.8134 6.83277 -2.24778 0
M  V30 875 C 83.8394 5.73477 -1.44492 0
M  V30 876 C 83.2014 6.66433 -2.28136 0
M  V30 877 H 79.3004 0.756479 0.198149 0
M  V30 878 H 81.8844 1.94316 -0.122229 0
M  V30 879 H 80.0554 3.34685 1.97079 0
M  V30 880 H 81.7874 3.57994 1.88739 0
M  V30 881 H 78.5424 4.7305 0.228094 0
M  V30 882 H 78.9664 6.56813 -1.64092 0
M  V30 883 H 83.6084 4.2273 0.0768625 0
M  V30 884 H 81.3264 7.54629 -2.89069 0
M  V30 885 H 84.9124 5.62273 -1.49468 0
M  V30 886 H 83.7924 7.26258 -2.95835 0
M  V30 887 N 81.2955 -0.223234 1.56011 0
M  V30 888 C 82.5255 -0.963413 1.82762 0
M  V30 889 C 82.9335 -1.78516 0.626804 0
M  V30 890 O 82.2765 -1.78974 -0.414014 0
M  V30 891 C 82.3385 -1.93126 3.0322 0
M  V30 892 C 82.0025 -1.2942 4.38291 0
M  V30 893 C 82.9995 -0.684916 5.15369 0
M  V30 894 C 80.6845 -1.30647 4.85012 0
M  V30 895 C 82.6785 -0.0963971 6.37327 0
M  V30 896 C 80.3655 -0.71411 6.06913 0
M  V30 897 C 81.3635 -0.110123 6.82911 0
M  V30 898 O 81.0515 0.47303 8.02507 0
M  V30 899 H 80.7835 -0.288011 0.611576 0
M  V30 900 H 83.3375 -0.244103 2.03944 0
M  V30 901 H 81.5675 -2.68952 2.77852 0
M  V30 902 H 83.2565 -2.53685 3.16857 0
M  V30 903 H 84.0225 -0.667774 4.80381 0
M  V30 904 H 79.9015 -1.76598 4.25833 0
M  V30 905 H 83.4455 0.375657 6.96588 0
M  V30 906 H 79.3425 -0.728659 6.41374 0
M  V30 907 H 80.1105 0.367186 8.17676 0
M  V30 908 N 82.7736 -1.49793 -0.48987 0
M  V30 909 C 84.1896 -1.36803 -0.822022 0
M  V30 910 C 84.3896 -0.409652 -1.97292 0
M  V30 911 O 83.4456 0.154614 -2.52026 0
M  V30 912 C 84.7586 -2.77768 -1.15175 0
M  V30 913 C 86.3066 -2.86549 -1.25931 0
M  V30 914 C 86.7816 -4.28306 -1.62228 0
M  V30 915 N 88.2726 -4.31169 -1.69256 0
M  V30 916 C 89.0076 -5.37832 -1.98807 0
M  V30 917 N 88.5036 -6.54726 -2.26507 0
M  V30 918 N 90.2966 -5.25258 -2.00152 0
M  V30 919 H 82.4476 -2.10691 0.268881 0
M  V30 920 H 84.7106 -0.946241 0.057728 0
M  V30 921 H 84.4166 -3.49648 -0.379335 0
M  V30 922 H 84.2906 -3.13836 -2.09253 0
M  V30 923 H 86.6776 -2.14899 -2.02243 0
M  V30 924 H 86.7586 -2.54049 -0.298776 0
M  V30 925 H 86.4026 -5.00486 -0.864622 0
M  V30 926 H 86.3326 -4.58279 -2.594 0
M  V30 927 H 88.8236 -3.4687 -1.49965 0
M  V30 928 H 89.1366 -7.31833 -2.48276 0
M  V30 929 H 87.4816 -6.57933 -2.23939 0
M  V30 930 H 90.6726 -4.32938 -1.77996 0
M  V30 931 H 90.8456 -6.08476 -2.22848 0
M  V30 932 N 84.2517 0.741722 -1.39055 0
M  V30 933 C 85.1837 1.8657 -1.33133 0
M  V30 934 C 86.1967 1.61001 -0.241329 0
M  V30 935 O 87.3857 1.7136 -0.499784 0
M  V30 936 C 84.4857 3.22457 -1.04283 0
M  V30 937 C 83.6587 3.75435 -2.24427 0
M  V30 938 C 82.7177 4.89867 -1.92138 0
M  V30 939 O 81.7437 5.03879 -2.64754 0
M  V30 940 N 82.9457 5.73738 -0.88347 0
M  V30 941 H 85.7107 1.92156 -2.29991 0
M  V30 942 H 83.2717 0.922172 -1.3307 0
M  V30 943 H 85.2637 3.9657 -0.807128 0
M  V30 944 H 83.8337 3.12181 -0.161807 0
M  V30 945 H 83.0537 2.92751 -2.6399 0
M  V30 946 H 84.3417 4.07563 -3.04581 0
M  V30 947 H 83.7397 5.64999 -0.281517 0
M  V30 948 H 82.2967 6.47947 -0.707662 0
M  V30 949 N 85.7298 1.2412 0.971189 0
M  V30 950 C 86.9548 1.10667 1.75407 0
M  V30 951 C 87.3798 -0.337048 1.85056 0
M  V30 952 O 86.7378 -1.24396 1.31892 0
M  V30 953 C 86.7858 1.74726 3.15441 0
M  V30 954 O 85.8898 1.01566 3.99697 0
M  V30 955 H 85.2308 0.387341 0.539317 0
M  V30 956 H 87.7608 1.64358 1.2185 0
M  V30 957 H 87.7708 1.80341 3.6598 0
M  V30 958 H 86.4458 2.79773 3.07734 0
M  V30 959 H 85.0228 1.03713 3.58187 0
M  V30 960 N 87.2079 -1.17134 1.05439 0
M  V30 961 C 88.1379 -2.2342 0.678649 0
M  V30 962 C 89.1189 -1.66971 -0.32476 0
M  V30 963 O 90.3039 -1.93149 -0.201802 0
M  V30 964 C 87.4339 -3.47256 0.0552099 0
M  V30 965 C 86.3879 -4.16543 0.98365 0
M  V30 966 C 85.7139 -5.34231 0.223961 0
M  V30 967 C 87.0139 -4.68495 2.3089 0
M  V30 968 H 88.7079 -2.55105 1.56722 0
M  V30 969 H 86.2539 -1.2262 0.754998 0
M  V30 970 H 88.2069 -4.20828 -0.21946 0
M  V30 971 H 86.9309 -3.14846 -0.868319 0
M  V30 972 H 85.5899 -3.44887 1.24293 0
M  V30 973 H 85.2379 -4.98071 -0.702412 0
M  V30 974 H 84.9379 -5.81527 0.842627 0
M  V30 975 H 86.4619 -6.10585 -0.0433671 0
M  V30 976 H 87.8759 -5.33691 2.09396 0
M  V30 977 H 86.2729 -5.26379 2.88176 0
M  V30 978 H 87.3429 -3.85169 2.94572 0
M  V30 979 N 88.686 -0.835752 -1.33615 0
M  V30 980 C 89.649 -0.272 -2.2758 0
M  V30 981 C 90.649 0.557487 -1.50827 0
M  V30 982 O 91.839 0.37173 -1.70188 0
M  V30 983 C 88.971 0.617173 -3.35267 0
M  V30 984 H 90.164 -1.10111 -2.78954 0
M  V30 985 H 87.717 -0.608594 -1.43965 0
M  V30 986 H 88.452 1.46884 -2.89129 0
M  V30 987 H 88.237 0.0237066 -3.92093 0
M  V30 988 H 89.727 1.005 -4.05326 0
M  V30 989 N 90.1641 1.46063 -0.591896 0
M  V30 990 C 91.0741 2.34192 0.13831 0
M  V30 991 C 92.0901 1.50305 0.876608 0
M  V30 992 O 93.2661 1.8315 0.837728 0
M  V30 993 C 90.3311 3.27656 1.13326 0
M  V30 994 C 89.3921 4.27445 0.39863 0
M  V30 995 C 88.6251 5.16443 1.34618 0
M  V30 996 O 88.8481 5.08553 2.58321 0
M  V30 997 O 87.7821 5.95843 0.851768 0
M  V30 998 H 91.6081 2.98002 -0.58552 0
M  V30 999 H 89.1931 1.45188 -0.352239 0
M  V30 1000 H 91.0751 3.85291 1.70671 0
M  V30 1001 H 89.7501 2.6643 1.83839 0
M  V30 1002 H 88.6571 3.73471 -0.216895 0
M  V30 1003 H 89.9901 4.91482 -0.265709 0
M  V30 1004 N 91.6422 0.330177 1.54103 0
M  V30 1005 C 92.5742 -0.566902 2.22079 0
M  V30 1006 C 93.5872 -1.07462 1.22294 0
M  V30 1007 O 94.7762 -0.987065 1.48726 0
M  V30 1008 C 91.8762 -1.79138 2.87685 0
M  V30 1009 C 91.0492 -1.42123 4.13666 0
M  V30 1010 C 90.1082 -2.50394 4.62806 0
M  V30 1011 O 89.1342 -2.14261 5.27334 0
M  V30 1012 N 90.3362 -3.81433 4.37595 0
M  V30 1013 H 93.1012 0.0151844 2.99696 0
M  V30 1014 H 90.6622 0.153681 1.61169 0
M  V30 1015 H 92.6542 -2.50975 3.1748 0
M  V30 1016 H 91.2242 -2.28115 2.13734 0
M  V30 1017 H 90.4442 -0.534201 3.90564 0
M  V30 1018 H 91.7322 -1.14971 4.9564 0
M  V30 1019 H 91.1302 -4.13584 3.8596 0
M  V30 1020 H 89.6872 -4.4948 4.72029 0
M  V30 1021 N 93.1203 -1.57491 0.0584922 0
M  V30 1022 C 94.5363 -1.56792 -0.298091 0
M  V30 1023 C 94.7363 -1.06679 -1.70944 0
M  V30 1024 O 93.7923 -0.726672 -2.41818 0
M  V30 1025 C 95.1053 -3.00461 -0.119879 0
M  V30 1026 C 96.6533 -3.1242 -0.190428 0
M  V30 1027 C 97.1283 -4.57982 -0.0406567 0
M  V30 1028 N 98.6193 -4.63099 -0.0966958 0
M  V30 1029 C 99.3543 -5.734 -0.00502943 0
M  V30 1030 N 98.8503 -6.9266 0.139402 0
M  V30 1031 N 100.643 -5.62067 -0.0611391 0
M  V30 1032 H 92.7943 -1.88386 0.98105 0
M  V30 1033 H 95.0573 -0.867865 0.381463 0
M  V30 1034 H 94.7633 -3.41187 0.85349 0
M  V30 1035 H 94.6373 -3.66843 -0.877833 0
M  V30 1036 H 97.0243 -2.71589 -1.15427 0
M  V30 1037 H 97.1053 -2.48702 0.598405 0
M  V30 1038 H 96.7493 -4.995 0.919897 0
M  V30 1039 H 96.6793 -5.19715 -0.848727 0
M  V30 1040 H 99.1703 -3.77331 -0.207277 0
M  V30 1041 H 99.4833 -7.72536 0.201855 0
M  V30 1042 H 97.8283 -6.94781 0.174586 0
M  V30 1043 H 101.019 -4.67782 -0.172583 0
M  V30 1044 H 101.192 -6.47999 0.0137562 0
M  V30 1045 N 94.5984 0.214957 -1.56127 0
M  V30 1046 C 95.5084 1.28727 -1.96129 0
M  V30 1047 C 96.5244 1.50916 -0.866044 0
M  V30 1048 O 97.7004 1.63918 -1.17016 0
M  V30 1049 C 94.7654 2.61569 -2.27558 0
M  V30 1050 C 93.8264 2.47625 -3.50685 0
M  V30 1051 C 93.0594 3.74132 -3.80606 0
M  V30 1052 O 93.2824 4.77438 -3.12104 0
M  V30 1053 O 92.2164 3.70849 -4.74083 0
M  V30 1054 H 96.0424 0.977855 -2.87527 0
M  V30 1055 H 93.6274 0.418358 -1.43423 0
M  V30 1056 H 95.5094 3.40012 -2.48938 0
M  V30 1057 H 94.1844 2.92178 -1.39332 0
M  V30 1058 H 93.0914 1.67361 -3.34576 0
M  V30 1059 H 94.4244 2.21954 -4.39315 0
M  V30 1060 N 96.0765 1.50051 0.48192 0
M  V30 1061 C 97.3245 1.60181 1.23234 0
M  V30 1062 C 97.6455 0.299176 1.92691 0
M  V30 1063 O 96.9155 -0.682708 1.83619 0
M  V30 1064 H 95.4955 0.590232 0.457859 0
M  V30 1065 H 98.1575 1.86775 0.556881 0
M  V30 1066 H 97.2535 2.40753 1.98607 0
M  V30 1067 N 97.5546 -0.734337 1.39446 0
M  V30 1068 C 98.9706 -1.03997 1.21065 0
M  V30 1069 C 99.1706 -2.01369 0.0727019 0
M  V30 1070 O 98.2266 -2.45856 -0.575426 0
M  V30 1071 C 99.5396 -1.60163 2.54496 0
M  V30 1072 C 101.088 -1.7224 2.61347 0
M  V30 1073 C 101.563 -2.31814 3.95002 0
M  V30 1074 N 103.054 -2.39223 3.96644 0
M  V30 1075 C 103.789 -2.86258 4.96834 0
M  V30 1076 N 103.285 -3.33184 6.07421 0
M  V30 1077 N 105.078 -2.85473 4.84213 0
M  V30 1078 H 97.2286 -0.0885624 2.12215 0
M  V30 1079 H 99.4916 -0.10191 0.942506 0
M  V30 1080 H 99.1976 -0.960811 3.38321 0
M  V30 1081 H 99.0716 -2.5896 2.74262 0
M  V30 1082 H 101.459 -2.35443 1.77906 0
M  V30 1083 H 101.54 -0.720939 2.4543 0
M  V30 1084 H 101.184 -1.69238 4.78875 0
M  V30 1085 H 101.114 -3.32638 4.08239 0
M  V30 1086 H 103.605 -2.06057 3.16779 0
M  V30 1087 H 103.918 -3.67586 6.7978 0
M  V30 1088 H 102.263 -3.31191 6.11013 0
M  V30 1089 H 105.454 -2.48136 3.96921 0
M  V30 1090 H 105.627 -3.21814 5.62441 0
M  V30 1091 N 99.0327 -1.24633 -0.964593 0
M  V30 1092 C 99.9957 -1.0424 -2.04124 0
M  V30 1093 C 100.996 0.00137563 -1.608 0
M  V30 1094 O 102.186 -0.239883 -1.7254 0
M  V30 1095 C 99.3177 -0.580588 -3.3592 0
M  V30 1096 H 100.511 -1.99803 -2.23649 0
M  V30 1097 H 98.0637 -1.06899 -1.14027 0
M  V30 1098 H 98.7987 0.3781 -3.22088 0
M  V30 1099 H 98.5837 -1.33398 -3.6871 0
M  V30 1100 H 100.074 -0.459034 -4.15069 0
M  V30 1101 N 100.511 1.16574 -1.06058 0
M  V30 1102 C 101.441 2.23057 -0.690488 0
M  V30 1103 C 102.422 1.67141 0.315901 0
M  V30 1104 O 103.607 1.93253 0.191556 0
M  V30 1105 C 100.737 3.47222 -0.073625 0
M  V30 1106 C 99.6908 4.16016 -1.00573 0
M  V30 1107 C 99.0168 5.34104 -0.252289 0
M  V30 1108 C 100.317 4.67264 -2.33371 0
M  V30 1109 H 102.011 2.54271 -1.58072 0
M  V30 1110 H 99.5568 1.22218 -0.76149 0
M  V30 1111 H 101.51 4.20939 0.19714 0
M  V30 1112 H 100.234 3.15302 0.85161 0
M  V30 1113 H 98.8928 3.44223 -1.2612 0
M  V30 1114 H 98.5408 4.98437 0.675988 0
M  V30 1115 H 98.2408 5.81072 -0.873455 0
M  V30 1116 H 99.7648 6.10599 0.0109857 0
M  V30 1117 H 101.179 5.32573 -2.12223 0
M  V30 1118 H 99.5758 5.24843 -2.90963 0
M  V30 1119 H 100.646 3.83602 -2.96611 0
M  V30 1120 N 101.989 0.842826 1.3317 0
M  V30 1121 C 103.4 0.496651 1.79973 0
M  V30 1122 C 103.751 -0.984641 1.69703 0
M  V30 1123 O 102.876 -1.76743 1.24863 0
M  V30 1124 C 103.471 0.894727 3.26772 0
M  V30 1125 C 102.03 0.600629 3.71577 0
M  V30 1126 C 101.177 1.10091 2.5451 0
M  V30 1127 H 104.128 1.03116 1.20635 0
M  V30 1128 H 104.149 0.206347 3.7994 0
M  V30 1129 H 103.661 1.97287 3.34215 0
M  V30 1130 H 101.762 -0.467284 3.69658 0
M  V30 1131 H 101.875 1.15863 4.64879 0
M  V30 1132 H 100.239 0.52162 2.49301 0
M  V30 1133 H 101.022 2.18591 2.64713 0
M  V30 1134 N 103.467 -1.45747 0.599634 0
M  V30 1135 C 104.397 -2.33235 -0.111306 0
M  V30 1136 C 105.378 -1.46359 -0.866781 0
M  V30 1137 O 106.563 -1.75146 -0.838904 0
M  V30 1138 C 103.693 -3.28932 -1.11451 0
M  V30 1139 C 102.647 -4.25381 -0.472772 0
M  V30 1140 C 101.973 -5.1071 -1.58365 0
M  V30 1141 C 103.273 -5.18831 0.600948 0
M  V30 1142 H 104.967 -2.92927 0.61919 0
M  V30 1143 H 102.513 -1.40857 0.299215 0
M  V30 1144 H 104.466 -3.89002 -1.62036 0
M  V30 1145 H 103.19 -2.67381 -1.8755 0
M  V30 1146 H 101.849 -3.66598 0.0121472 0
M  V30 1147 H 101.497 -4.45533 -2.33473 0
M  V30 1148 H 101.197 -5.7604 -1.15982 0
M  V30 1149 H 102.721 -5.73647 -2.09194 0
M  V30 1150 H 104.135 -5.73019 0.179491 0
M  V30 1151 H 102.532 -5.92595 0.946076 0
M  V30 1152 H 103.602 -4.6174 1.48068 0
M  V30 1153 N 104.945 -0.338344 -1.53925 0
M  V30 1154 C 105.908 0.508299 -2.23493 0
M  V30 1155 C 106.908 1.03175 -1.23335 0
M  V30 1156 O 108.098 0.921826 -1.47811 0
M  V30 1157 C 105.23 1.70754 -2.95052 0
M  V30 1158 H 106.423 -0.100058 -2.99733 0
M  V30 1159 H 103.976 -0.0896198 -1.56043 0
M  V30 1160 H 104.711 2.35474 -2.22986 0
M  V30 1161 H 104.496 1.33946 -3.68512 0
M  V30 1162 H 105.986 2.30818 -3.48013 0
M  V30 1163 N 106.423 1.57458 -0.0668435 0
M  V30 1164 C 107.669 1.93587 0.6043 0
M  V30 1165 C 108.002 0.946722 1.69561 0
M  V30 1166 O 107.277 -0.0248516 1.94484 0
M  V30 1167 C 107.56 3.40014 1.18585 0
M  V30 1168 C 107.413 4.49685 0.101529 0
M  V30 1169 C 108.732 3.87154 2.09284 0
M  V30 1170 H 105.851 0.703958 0.218202 0
M  V30 1171 H 108.493 1.89542 -0.131804 0
M  V30 1172 H 106.643 3.43592 1.81319 0
M  V30 1173 H 108.315 4.5823 -0.531279 0
M  V30 1174 H 106.558 4.30059 -0.568487 0
M  V30 1175 H 107.229 5.49266 0.54874 0
M  V30 1176 H 109.705 3.85551 1.56491 0
M  V30 1177 H 108.581 4.90231 2.46911 0
M  V30 1178 H 108.842 3.2481 2.99918 0
M  V30 1179 N 107.901 -0.206675 1.56239 0
M  V30 1180 C 109.317 -0.557025 1.49564 0
M  V30 1181 C 109.517 -1.86424 0.764735 0
M  V30 1182 O 108.573 -2.50584 0.310491 0
M  V30 1183 C 109.886 -0.622478 2.94186 0
M  V30 1184 C 111.434 -0.712099 3.04792 0
M  V30 1185 C 111.909 -0.808767 4.50803 0
M  V30 1186 N 113.4 -0.8726 4.54907 0
M  V30 1187 C 114.135 -0.967365 5.65181 0
M  V30 1188 N 113.631 -1.02515 6.85173 0
M  V30 1189 N 115.424 -1.00366 5.53067 0
M  V30 1190 H 107.575 0.650943 2.02179 0
M  V30 1191 H 109.838 0.230387 0.919579 0
M  V30 1192 H 109.544 0.268727 3.50672 0
M  V30 1193 H 109.418 -1.4811 3.46905 0
M  V30 1194 H 111.805 -1.59374 2.48363 0
M  V30 1195 H 111.886 0.172489 2.55218 0
M  V30 1196 H 111.53 0.0684754 5.07854 0
M  V30 1197 H 111.46 -1.70899 4.98098 0
M  V30 1198 H 113.951 -0.837657 3.68499 0
M  V30 1199 H 114.264 -1.09765 7.64965 0
M  V30 1200 H 112.609 -0.994026 6.87855 0
M  V30 1201 H 115.8 -0.95527 4.58249 0
M  V30 1202 H 115.973 -1.07405 6.39037 0
M  V30 1203 N 109.379 -1.50304 -0.473955 0
M  V30 1204 C 110.309 -1.71886 -1.58042 0
M  V30 1205 C 111.29 -0.567799 -1.60344 0
M  V30 1206 O 112.475 -0.806623 -1.76656 0
M  V30 1207 C 109.605 -1.81036 -2.96384 0
M  V30 1208 C 108.559 -2.962 -3.08949 0
M  V30 1209 C 107.885 -2.9049 -4.48909 0
M  V30 1210 C 109.185 -4.36752 -2.86434 0
M  V30 1211 H 110.879 -2.64527 -1.40234 0
M  V30 1212 H 108.425 -1.27295 -0.673201 0
M  V30 1213 H 110.378 -1.94719 -3.73714 0
M  V30 1214 H 109.102 -0.850147 -3.15341 0
M  V30 1215 H 107.761 -2.82164 -2.3405 0
M  V30 1216 H 107.409 -1.92321 -4.64781 0
M  V30 1217 H 107.109 -3.67802 -4.58253 0
M  V30 1218 H 108.633 -3.06218 -5.28264 0
M  V30 1219 H 110.047 -4.5133 -3.53517 0
M  V30 1220 H 108.444 -5.15493 -3.07225 0
M  V30 1221 H 109.514 -4.49321 -1.82316 0
M  V30 1222 N 110.857 0.726932 -1.39834 0
M  V30 1223 C 112.105 1.4837 -1.37225 0
M  V30 1224 C 112.426 1.94979 0.0284857 0
M  V30 1225 O 111.696 1.69555 0.981213 0
M  V30 1226 H 110.276 0.55043 -0.505011 0
M  V30 1227 H 112.938 0.862468 -1.74778 0
M  V30 1228 H 112.034 2.36198 -2.04003 0
M  V30 1229 N 112.336 1.25143 0.95797 0
M  V30 1230 C 113.582 1.09855 1.70469 0
M  V30 1231 C 113.915 -0.360187 1.90831 0
M  V30 1232 O 113.19 -1.26568 1.47685 0
M  V30 1233 C 113.473 1.8497 3.08963 0
M  V30 1234 C 113.326 3.38652 2.96032 0
M  V30 1235 C 114.645 1.63016 4.08795 0
M  V30 1236 H 111.764 0.400465 0.618706 0
M  V30 1237 H 114.406 1.53933 1.11376 0
M  V30 1238 H 112.556 1.47505 3.59409 0
M  V30 1239 H 114.228 3.85772 2.52938 0
M  V30 1240 H 112.471 3.66534 2.32025 0
M  V30 1241 H 113.142 3.8642 3.94187 0
M  V30 1242 H 115.618 1.95625 3.67247 0
M  V30 1243 H 114.494 2.18015 5.03747 0
M  V30 1244 H 114.755 0.570692 4.38401 0
M  V30 1245 N 113.814 -1.1601 1.06675 0
M  V30 1246 C 114.746 -2.20115 0.638921 0
M  V30 1247 C 115.759 -1.59916 -0.305057 0
M  V30 1248 O 116.948 -1.78245 -0.0954446 0
M  V30 1249 C 114.048 -3.38798 -0.0830083 0
M  V30 1250 C 113.221 -4.2855 0.875426 0
M  V30 1251 C 112.28 -5.25849 0.192042 0
M  V30 1252 O 111.306 -5.63102 0.830921 0
M  V30 1253 N 112.508 -5.70648 -1.06493 0
M  V30 1254 H 115.273 -2.57439 1.53444 0
M  V30 1255 H 112.834 -1.31057 0.950557 0
M  V30 1256 H 114.826 -4.00936 -0.550685 0
M  V30 1257 H 113.396 -2.99947 -0.880386 0
M  V30 1258 H 112.616 -3.63617 1.52238 0
M  V30 1259 H 113.904 -4.85393 1.52548 0
M  V30 1260 H 113.302 -5.42482 -1.60405 0
M  V30 1261 H 111.859 -6.34859 -1.47641 0
M  V30 1262 N 115.292 -0.849877 -1.32721 0
M  V30 1263 C 116.222 -0.306308 -2.31482 0
M  V30 1264 C 117.203 0.591952 -1.59468 0
M  V30 1265 O 118.388 0.513199 -1.87296 0
M  V30 1266 C 115.518 0.510204 -3.43532 0
M  V30 1267 C 114.472 -0.293209 -4.26994 0
M  V30 1268 C 113.798 0.647743 -5.30762 0
M  V30 1269 C 115.098 -1.51634 -4.99804 0
M  V30 1270 H 116.792 -1.13153 -2.77195 0
M  V30 1271 H 114.338 -0.545553 -1.33266 0
M  V30 1272 H 116.291 0.900856 -4.11658 0
M  V30 1273 H 115.015 1.36874 -2.96535 0
M  V30 1274 H 113.674 -0.665555 -3.60508 0
M  V30 1275 H 113.322 1.50299 -4.8002 0
M  V30 1276 H 113.022 0.11422 -5.87489 0
M  V30 1277 H 114.546 1.03567 -6.01753 0
M  V30 1278 H 115.96 -1.19824 -5.60638 0
M  V30 1279 H 114.357 -1.98745 -5.66234 0
M  V30 1280 H 115.427 -2.28018 -4.27943 0
M  V30 1281 N 116.77 1.45427 -0.607355 0
M  V30 1282 C 118.016 2.0254 -0.102607 0
M  V30 1283 C 118.349 1.47478 1.26348 0
M  V30 1284 O 117.624 0.64939 1.83339 0
M  V30 1285 C 117.907 3.60044 -0.0634347 0
M  V30 1286 C 117.76 4.2544 -1.46017 0
M  V30 1287 C 119.079 4.35646 0.624514 0
M  V30 1288 H 116.198 0.73598 -0.0387607 0
M  V30 1289 H 118.84 1.73284 -0.779282 0
M  V30 1290 H 116.99 3.85101 0.512808 0
M  V30 1291 H 118.662 4.11569 -2.08347 0
M  V30 1292 H 116.905 3.83849 -2.02094 0
M  V30 1293 H 117.576 5.34342 -1.385 0
M  V30 1294 H 120.052 4.15882 0.134723 0
M  V30 1295 H 118.928 5.45376 0.621028 0
M  V30 1296 H 119.189 4.08501 1.69055 0
M  V30 1297 N 118.248 0.346503 1.53744 0
M  V30 1298 C 119.496 -0.248612 2.00565 0
M  V30 1299 C 119.817 -1.5083 1.23593 0
M  V30 1300 O 119.087 -1.92858 0.343912 0
M  V30 1301 H 117.667 -0.0948564 0.740953 0
M  V30 1302 H 120.329 0.468341 1.89189 0
M  V30 1303 H 119.425 -0.488994 3.08245 0
M  V30 1304 N 119.726 -1.57421 0.075193 0
M  V30 1305 C 120.954 -1.97946 -0.602076 0
M  V30 1306 C 121.369 -0.953674 -1.62943 0
M  V30 1307 O 120.726 0.0592551 -1.82404 0
M  V30 1308 C 120.777 -3.38546 -1.26762 0
M  V30 1309 O 120.498 -4.37195 -0.281376 0
M  V30 1310 C 121.999 -3.93966 -2.03239 0
M  V30 1311 H 119.219 -0.650918 -0.162931 0
M  V30 1312 H 121.763 -2.03959 0.148601 0
M  V30 1313 H 119.918 -3.33609 -1.96936 0
M  V30 1314 H 120.332 -5.18975 -0.759267 0
M  V30 1315 H 121.806 -4.94555 -2.45193 0
M  V30 1316 H 122.283 -3.30693 -2.8903 0
M  V30 1317 H 122.889 -4.02315 -1.37924 0
M  V30 1318 N 121.204 0.198386 -1.56346 0
M  V30 1319 C 122.432 0.935572 -1.84539 0
M  V30 1320 C 122.847 1.76989 -0.657281 0
M  V30 1321 O 122.204 1.78626 0.374043 0
M  V30 1322 C 122.255 1.8344 -3.11499 0
M  V30 1323 O 121.976 1.03377 -4.25728 0
M  V30 1324 C 123.477 2.68355 -3.52846 0
M  V30 1325 H 120.697 0.273126 -0.612897 0
M  V30 1326 H 123.241 0.20663 -2.03453 0
M  V30 1327 H 121.396 2.51701 -2.94492 0
M  V30 1328 H 121.81 1.64599 -4.98003 0
M  V30 1329 H 123.284 3.27085 -4.44657 0
M  V30 1330 H 123.761 3.41901 -2.75681 0
M  V30 1331 H 124.367 2.05471 -3.72373 0
M  V30 1332 N 122.682 1.50554 0.465978 0
M  V30 1333 C 124.098 1.38093 0.800154 0
M  V30 1334 C 124.298 0.440988 1.96615 0
M  V30 1335 O 123.354 -0.114499 2.5224 0
M  V30 1336 C 124.667 2.79565 1.10742 0
M  V30 1337 C 126.215 2.88516 1.21357 0
M  V30 1338 C 126.69 4.30833 1.55393 0
M  V30 1339 N 128.181 4.33807 1.62375 0
M  V30 1340 C 128.916 5.40927 1.90225 0
M  V30 1341 N 128.412 6.58247 2.16062 0
M  V30 1342 N 130.205 5.28376 1.9177 0
M  V30 1343 H 122.356 2.10237 -0.302366 0
M  V30 1344 H 124.619 0.945203 -0.0727746 0
M  V30 1345 H 124.325 3.50208 0.323661 0
M  V30 1346 H 124.199 3.17125 2.04234 0
M  V30 1347 H 126.586 2.1809 1.98799 0
M  V30 1348 H 126.667 2.54492 0.258321 0
M  V30 1349 H 126.311 5.01799 0.784889 0
M  V30 1350 H 126.241 4.62347 2.52076 0
M  V30 1351 H 128.732 3.49212 1.44427 0
M  V30 1352 H 129.045 7.3569 2.36601 0
M  V30 1353 H 127.39 6.61413 2.13444 0
M  V30 1354 H 130.581 4.35715 1.71085 0
M  V30 1355 H 130.754 6.11944 2.13139 0
M  V30 1356 N 124.16 -0.719506 1.40217 0
M  V30 1357 C 125.407 -1.47933 1.38283 0
M  V30 1358 C 125.735 -1.94493 -0.0161536 0
M  V30 1359 O 124.99 -1.68224 -0.999956 0
M  V30 1360 C 125.289 -2.72271 2.31524 0
M  V30 1361 C 124.955 -2.44496 3.78857 0
M  V30 1362 C 123.617 -2.36631 4.18998 0
M  V30 1363 C 125.969 -2.21104 4.71977 0
M  V30 1364 C 123.297 -2.03437 5.503 0
M  V30 1365 C 125.649 -1.89423 6.03574 0
M  V30 1366 C 124.313 -1.80038 6.42762 0
M  V30 1367 H 123.583 -0.541325 0.506012 0
M  V30 1368 H 126.23 -0.824502 1.72842 0
M  V30 1369 H 124.535 -3.42572 1.90137 0
M  V30 1370 H 126.232 -3.30348 2.27313 0
M  V30 1371 H 122.822 -2.51503 3.47051 0
M  V30 1372 H 127.006 -2.26139 4.41786 0
M  V30 1373 H 122.262 -1.94705 5.79569 0
M  V30 1374 H 126.436 -1.70336 6.75247 0
M  V30 1375 H 124.063 -1.54083 7.44421 0
M  V30 1376 N 125.638 -1.25649 -0.95132 0
M  V30 1377 C 126.601 -1.06399 -2.03007 0
M  V30 1378 C 127.601 -0.0156794 -1.60792 0
M  V30 1379 O 128.791 -0.25817 -1.72276 0
M  V30 1380 C 125.923 -0.616184 -3.35285 0
M  V30 1381 H 127.116 -2.02164 -2.21517 0
M  V30 1382 H 124.669 -1.08103 -1.12887 0
M  V30 1383 H 125.404 0.343917 -3.22471 0
M  V30 1384 H 125.189 -1.37301 -3.67275 0
M  V30 1385 H 126.679 -0.503032 -4.14559 0
M  V30 1386 N 127.117 1.15442 -1.07289 0
M  V30 1387 C 128.027 2.23786 -0.704057 0
M  V30 1388 C 129.043 1.7166 0.284413 0
M  V30 1389 O 130.219 2.00972 0.131205 0
M  V30 1390 C 127.284 3.46535 -0.106792 0
M  V30 1391 C 126.345 4.13654 -1.14842 0
M  V30 1392 C 125.578 5.30544 -0.57956 0
M  V30 1393 O 125.801 5.67187 0.604585 0
M  V30 1394 O 124.735 5.87154 -1.32414 0
M  V30 1395 H 128.561 2.57664 -1.60757 0
M  V30 1396 H 126.146 1.23152 -0.845803 0
M  V30 1397 H 128.028 4.20804 0.224048 0
M  V30 1398 H 126.703 3.14407 0.770049 0
M  V30 1399 H 125.61 3.4131 -1.5316 0
M  V30 1400 H 126.943 4.49861 -1.99714 0
M  V30 1401 N 128.595 0.856903 1.32268 0
M  V30 1402 C 129.842 0.461386 1.97174 0
M  V30 1403 C 130.17 -0.983491 1.67803 0
M  V30 1404 O 129.425 -1.70541 0.959903 0
M  V30 1405 C 129.724 0.649919 3.51441 0
M  V30 1406 C 129.39 2.0656 4.00804 0
M  V30 1407 C 128.052 2.45279 4.13995 0
M  V30 1408 C 130.404 2.98947 4.26943 0
M  V30 1409 C 127.732 3.75653 4.50668 0
M  V30 1410 C 130.084 4.28822 4.65075 0
M  V30 1411 C 128.748 4.67472 4.76472 0
M  V30 1412 H 128.018 0.168833 0.72151 0
M  V30 1413 H 130.665 1.08739 1.57633 0
M  V30 1414 H 128.97 -0.0593018 3.91755 0
M  V30 1415 H 130.667 0.32391 3.9969 0
M  V30 1416 H 127.257 1.75495 3.91024 0
M  V30 1417 H 131.441 2.70265 4.16258 0
M  V30 1418 H 126.697 4.05379 4.57688 0
M  V30 1419 H 130.871 5.0047 4.84255 0
M  V30 1420 H 128.498 5.68539 5.04646 0
M  V30 1421 N 130.073 -1.45103 0.615059 0
M  V30 1422 C 131.003 -2.33339 -0.0865619 0
M  V30 1423 C 131.984 -1.4727 -0.851209 0
M  V30 1424 O 133.169 -1.76026 -0.820281 0
M  V30 1425 C 130.299 -3.30095 -1.07956 0
M  V30 1426 C 129.253 -4.25858 -0.427628 0
M  V30 1427 C 128.579 -5.12361 -1.5294 0
M  V30 1428 C 129.879 -5.18165 0.655944 0
M  V30 1429 H 131.573 -2.92254 0.650224 0
M  V30 1430 H 129.119 -1.40532 0.314138 0
M  V30 1431 H 131.072 -3.90698 -1.57901 0
M  V30 1432 H 129.796 -2.69355 -1.84703 0
M  V30 1433 H 128.455 -3.66564 0.0510292 0
M  V30 1434 H 128.103 -4.47984 -2.28734 0
M  V30 1435 H 127.803 -5.77238 -1.09865 0
M  V30 1436 H 129.327 -5.75833 -2.03098 0
M  V30 1437 H 130.741 -5.72796 0.240257 0
M  V30 1438 H 129.138 -5.91559 1.00888 0
M  V30 1439 H 130.208 -4.60144 1.52957 0
M  V30 1440 N 131.551 -0.354651 -1.53558 0
M  V30 1441 C 132.962 0.126902 -1.86268 0
M  V30 1442 C 133.313 1.49075 -1.27558 0
M  V30 1443 O 132.438 2.08105 -0.5934 0
M  V30 1444 C 133.033 0.237046 -3.3797 0
M  V30 1445 C 131.592 0.662842 -3.70518 0
M  V30 1446 C 130.739 -0.196652 -2.76602 0
M  V30 1447 H 133.69 -0.573849 -1.47962 0
M  V30 1448 H 133.711 1.06259 -3.65362 0
M  V30 1449 H 133.223 -0.755725 -3.80671 0
M  V30 1450 H 131.324 1.66424 -3.33367 0
M  V30 1451 H 131.437 0.445034 -4.77029 0
M  V30 1452 H 129.801 0.332763 -2.52517 0
M  V30 1453 H 130.584 -1.18676 -3.22135 0
M  V30 1454 N 133.029 1.57378 -0.0835403 0
M  V30 1455 C 133.992 2.12252 0.864959 0
M  V30 1456 C 134.992 1.04916 1.21858 0
M  V30 1457 O 136.182 1.30853 1.14991 0
M  V30 1458 C 133.314 2.63358 2.16461 0
M  V30 1459 H 134.507 2.97371 0.388676 0
M  V30 1460 H 132.06 1.55423 0.165317 0
M  V30 1461 H 132.795 1.81727 2.686 0
M  V30 1462 H 132.58 3.41826 1.92087 0
M  V30 1463 H 134.07 3.05847 2.84337 0
M  V30 1464 N 134.507 -0.190092 1.56449 0
M  V30 1465 C 135.437 -1.23816 1.97969 0
M  V30 1466 C 136.418 -1.47201 0.852395 0
M  V30 1467 O 137.603 -1.58854 1.1171 0
M  V30 1468 C 134.733 -2.5813 2.3235 0
M  V30 1469 C 133.687 -2.49348 3.47864 0
M  V30 1470 C 133.013 -3.8798 3.67934 0
M  V30 1471 C 134.313 -2.01424 4.81898 0
M  V30 1472 H 136.007 -0.89311 2.85769 0
M  V30 1473 H 133.553 -0.428177 1.37487 0
M  V30 1474 H 135.506 -3.31637 2.59991 0
M  V30 1475 H 134.23 -2.94386 1.41438 0
M  V30 1476 H 132.889 -1.78297 3.20321 0
M  V30 1477 H 132.537 -4.21597 2.74344 0
M  V30 1478 H 132.237 -3.82978 4.45648 0
M  V30 1479 H 133.761 -4.63101 3.97957 0
M  V30 1480 H 135.175 -2.64693 5.08538 0
M  V30 1481 H 133.572 -2.07413 5.63116 0
M  V30 1482 H 134.642 -0.967677 4.75146 0
M  V30 1483 N 135.985 -1.50799 -0.457987 0
M  V30 1484 C 137.396 -1.55152 -1.0385 0
M  V30 1485 C 137.747 -0.362719 -1.92818 0
M  V30 1486 O 136.872 0.522915 -2.09987 0
M  V30 1487 C 137.467 -2.81173 -1.89017 0
M  V30 1488 C 136.026 -2.88164 -2.42154 0
M  V30 1489 C 135.173 -2.49591 -1.20829 0
M  V30 1490 H 138.124 -1.56874 -0.240068 0
M  V30 1491 H 138.145 -2.63769 -2.74238 0
M  V30 1492 H 137.657 -3.67677 -1.24238 0
M  V30 1493 H 135.758 -2.06042 -3.10447 0
M  V30 1494 H 135.871 -3.91356 -2.76364 0
M  V30 1495 H 134.235 -2.02322 -1.54719 0
M  V30 1496 H 135.018 -3.38418 -0.576927 0
M  V30 1497 N 137.463 0.71206 -1.40597 0
M  V30 1498 C 138.426 1.80785 -1.40888 0
M  V30 1499 C 139.426 1.57937 -0.302103 0
M  V30 1500 O 140.616 1.64913 -0.561182 0
M  V30 1501 C 137.748 3.18927 -1.20409 0
M  V30 1502 H 138.941 1.81924 -2.38419 0
M  V30 1503 H 136.494 0.91805 -1.26497 0
M  V30 1504 H 137.229 3.23436 -0.236522 0
M  V30 1505 H 137.014 3.36911 -2.00582 0
M  V30 1506 H 138.504 3.98949 -1.23408 0
M  V30 1507 N 138.941 1.26152 0.944643 0
M  V30 1508 C 140.181 1.12708 1.70517 0
M  V30 1509 C 140.545 -0.324727 1.89234 0
M  V30 1510 O 141.746 -0.581211 2.62441 0
M  V30 1511 C 140.017 1.8713 3.04495 0
M  V30 1512 S 141.576 1.89698 3.95677 0
M  V30 1513 H 138.394 0.402665 0.585988 0
M  V30 1514 H 140.996 1.59821 1.12594 0
M  V30 1515 H 139.7 2.91833 2.88551 0
M  V30 1516 H 139.231 1.40444 3.67477 0
M  V30 1517 H 141.246 0.981198 4.86402 0
M  V30 1518 N 140.419 -1.14872 1.07899 0
M  V30 1519 C 141.329 -2.2341 0.715915 0
M  V30 1520 C 142.345 -1.71808 -0.275306 0
M  V30 1521 O 143.521 -2.01039 -0.120545 0
M  V30 1522 C 140.586 -3.46474 0.125168 0
M  V30 1523 C 139.647 -4.13039 1.17034 0
M  V30 1524 C 138.88 -5.30229 0.607688 0
M  V30 1525 O 139.103 -5.675 -0.574497 0
M  V30 1526 O 138.037 -5.86444 1.35526 0
M  V30 1527 H 141.863 -2.56808 1.62121 0
M  V30 1528 H 139.448 -1.22702 0.852322 0
M  V30 1529 H 141.33 -4.20917 -0.201729 0
M  V30 1530 H 140.005 -3.14811 -0.753364 0
M  V30 1531 H 138.912 -3.40493 1.54968 0
M  V30 1532 H 140.245 -4.48796 2.02097 0
M  V30 1533 N 141.898 -0.863906 -1.31812 0
M  V30 1534 C 143.147 -0.46801 -1.96195 0
M  V30 1535 C 143.46 0.983474 -1.69077 0
M  V30 1536 O 144.666 1.48523 -2.27273 0
M  V30 1537 C 143.122 -0.785995 -3.51212 0
M  V30 1538 C 142.73 -2.25383 -3.87178 0
M  V30 1539 C 144.474 -0.458274 -4.22019 0
M  V30 1540 C 142.381 -2.51455 -5.3528 0
M  V30 1541 H 141.311 -0.171283 -0.734287 0
M  V30 1542 H 143.962 -1.05597 -1.50072 0
M  V30 1543 H 142.344 -0.127359 -3.95795 0
M  V30 1544 H 143.518 -2.95502 -3.53575 0
M  V30 1545 H 141.833 -2.54698 -3.2942 0
M  V30 1546 H 144.43 -0.630369 -5.30971 0
M  V30 1547 H 144.773 0.600834 -4.11941 0
M  V30 1548 H 145.306 -1.07319 -3.8305 0
M  V30 1549 H 142.045 -3.56025 -5.50387 0
M  V30 1550 H 141.565 -1.85923 -5.70257 0
M  V30 1551 H 143.244 -2.35874 -6.02472 0
M  V30 1552 N 143.376 1.44774 -0.622745 0
M  V30 1553 C 144.624 2.01721 -0.123655 0
M  V30 1554 C 144.945 1.49172 1.25589 0
M  V30 1555 O 144.215 0.691974 1.83272 0
M  V30 1556 H 142.795 0.745777 -0.0427225 0
M  V30 1557 H 145.457 1.77382 -0.807559 0
M  V30 1558 H 144.553 3.11984 -0.0849534 0
M  V30 1559 N 144.854 0.36279 1.53368 0
M  V30 1560 C 146.1 -0.220702 2.02199 0
M  V30 1561 C 146.455 -1.46649 1.24546 0
M  V30 1562 O 145.748 -1.88737 0.32996 0
M  V30 1563 C 145.942 -0.568417 3.52851 0
M  V30 1564 C 145.771 0.642126 4.45092 0
M  V30 1565 C 144.541 1.15335 4.91961 0
M  V30 1566 C 146.739 1.50649 4.91741 0
M  V30 1567 N 144.721 2.3242 5.68202 0
M  V30 1568 C 146.092 2.52404 5.66297 0
M  V30 1569 C 148.147 1.52969 4.73819 0
M  V30 1570 C 146.85 3.56331 6.24836 0
M  V30 1571 C 148.876 2.55789 5.33222 0
M  V30 1572 C 148.238 3.56268 6.07662 0
M  V30 1573 H 144.337 -0.0435508 0.780786 0
M  V30 1574 H 146.921 0.506704 1.87991 0
M  V30 1575 H 145.092 -1.2649 3.67226 0
M  V30 1576 H 146.824 -1.13676 3.88407 0
M  V30 1577 H 143.579 0.718412 4.68119 0
M  V30 1578 H 144.003 2.91591 6.10986 0
M  V30 1579 H 148.645 0.766418 4.15795 0
M  V30 1580 H 146.363 4.33543 6.81958 0
M  V30 1581 H 149.949 2.58435 5.21251 0
M  V30 1582 H 148.829 4.34524 6.52808 0
M  V30 1583 N 146.332 -1.57332 0.0918853 0
M  V30 1584 C 147.56 -1.98574 -0.581048 0
M  V30 1585 C 147.975 -0.970903 -1.61923 0
M  V30 1586 O 147.332 0.0399054 -1.82456 0
M  V30 1587 C 147.383 -3.39872 -1.23164 0
M  V30 1588 O 147.104 -4.37469 -0.234989 0
M  V30 1589 C 148.605 -3.96099 -1.99049 0
M  V30 1590 H 145.825 -0.65261 -0.156018 0
M  V30 1591 H 148.369 -2.0379 0.170225 0
M  V30 1592 H 146.524 -3.35679 -1.93386 0
M  V30 1593 H 146.938 -5.19751 -0.70418 0
M  V30 1594 H 148.412 -4.97127 -2.39934 0
M  V30 1595 H 148.889 -3.3374 -2.85507 0
M  V30 1596 H 149.495 -4.03755 -1.3365 0
M  V30 1597 N 147.81 0.181792 -1.56548 0
M  V30 1598 C 149.056 0.896803 -1.82562 0
M  V30 1599 C 149.411 1.80324 -0.670908 0
M  V30 1600 O 148.704 1.8868 0.333235 0
M  V30 1601 C 148.898 1.73728 -3.12335 0
M  V30 1602 C 148.727 0.913714 -4.4032 0
M  V30 1603 C 147.497 0.592903 -5.01809 0
M  V30 1604 C 149.695 0.260164 -5.13642 0
M  V30 1605 N 147.677 -0.247901 -6.13399 0
M  V30 1606 C 149.048 -0.442256 -6.18421 0
M  V30 1607 C 151.103 0.177253 -4.97584 0
M  V30 1608 C 149.806 -1.21971 -7.08883 0
M  V30 1609 C 151.832 -0.586839 -5.88481 0
M  V30 1610 C 151.194 -1.27766 -6.92716 0
M  V30 1611 H 147.293 0.307122 -0.719166 0
M  V30 1612 H 149.877 0.164535 -1.94004 0
M  V30 1613 H 148.048 2.44105 -3.02105 0
M  V30 1614 H 149.78 2.39279 -3.26386 0
M  V30 1615 H 146.535 0.920502 -4.64568 0
M  V30 1616 H 146.959 -0.658304 -6.73792 0
M  V30 1617 H 151.601 0.696993 -4.17015 0
M  V30 1618 H 149.319 -1.75083 -7.88905 0
M  V30 1619 H 152.905 -0.652522 -5.78129 0
M  V30 1620 H 151.785 -1.85943 -7.61836 0
M  V30 1621 N 149.288 1.51039 0.449983 0
M  V30 1622 C 150.218 1.74379 1.55288 0
M  V30 1623 C 151.199 0.593236 1.5942 0
M  V30 1624 O 152.384 0.834625 1.7535 0
M  V30 1625 C 149.514 1.85728 2.93466 0
M  V30 1626 C 148.468 3.01078 3.04197 0
M  V30 1627 C 147.794 2.97595 4.44231 0
M  V30 1628 C 149.094 4.41254 2.7945 0
M  V30 1629 H 150.788 2.66725 1.36008 0
M  V30 1630 H 148.334 1.2835 0.652864 0
M  V30 1631 H 150.287 2.0064 3.70569 0
M  V30 1632 H 149.011 0.900207 3.13949 0
M  V30 1633 H 147.67 2.85851 2.29531 0
M  V30 1634 H 147.318 1.99691 4.61663 0
M  V30 1635 H 147.018 3.75046 4.52343 0
M  V30 1636 H 148.542 3.14583 5.23326 0
M  V30 1637 H 149.956 4.56897 3.46292 0
M  V30 1638 H 148.353 5.20315 2.98985 0
M  V30 1639 H 149.423 4.52164 1.75144 0
M  V30 1640 N 150.766 -0.704594 1.40972 0
M  V30 1641 C 152.043 -1.45847 1.30338 0
M  V30 1642 C 152.423 -2.10973 -0.0732344 0
M  V30 1643 O 151.771 -2.00997 -1.08685 0
M  V30 1644 C 151.981 -2.48525 2.45023 0
M  V30 1645 C 153.329 -3.1404 2.8577 0
M  V30 1646 O 154.353 -2.58848 2.44696 0
M  V30 1647 O 153.212 -4.13981 3.56766 0
M  V30 1648 H 150.306 -0.649092 0.512454 0
M  V30 1649 H 152.852 -0.735836 1.52917 0
M  V30 1650 H 151.624 -1.98994 3.36923 0
M  V30 1651 H 151.247 -3.2831 2.24272 0
M  V30 1652 N 152.244 -1.26651 -0.937939 0
M  V30 1653 C 153.176 -1.04283 -2.04102 0
M  V30 1654 C 154.189 -0.00221014 -1.628 0
M  V30 1655 O 155.378 -0.242645 -1.76843 0
M  V30 1656 C 152.478 -0.557846 -3.34277 0
M  V30 1657 C 151.651 -1.66843 -4.04329 0
M  V30 1658 C 150.71 -1.18095 -5.12777 0
M  V30 1659 O 149.736 -1.87865 -5.37304 0
M  V30 1660 N 150.938 -0.0311006 -5.80492 0
M  V30 1661 H 153.703 -1.9927 -2.23856 0
M  V30 1662 H 151.264 -1.1808 -1.10764 0
M  V30 1663 H 153.256 -0.215836 -4.04124 0
M  V30 1664 H 151.826 0.298523 -3.11171 0
M  V30 1665 H 151.046 -2.18123 -3.28353 0
M  V30 1666 H 152.334 -2.41408 -4.47883 0
M  V30 1667 H 151.732 0.551486 -5.63005 0
M  V30 1668 H 150.289 0.251809 -6.51313 0
M  V30 1669 N 153.722 1.14298 -1.08507 0
M  V30 1670 C 154.685 2.17607 -0.719711 0
M  V30 1671 C 155.685 1.58907 0.245997 0
M  V30 1672 O 156.875 1.74181 0.0254081 0
M  V30 1673 C 154.007 3.40842 -0.0627695 0
M  V30 1674 H 155.2 2.51443 -1.63452 0
M  V30 1675 H 152.753 1.28963 -0.88307 0
M  V30 1676 H 153.488 3.12587 0.863716 0
M  V30 1677 H 153.273 3.84713 -0.757504 0
M  V30 1678 H 154.763 4.17221 0.177786 0
M  V30 1679 N 155.201 0.870884 1.31352 0
M  V30 1680 C 156.133 0.28455 2.27427 0
M  V30 1681 C 157.146 -0.552927 1.53123 0
M  V30 1682 O 158.335 -0.374771 1.74521 0
M  V30 1683 C 155.435 -0.615164 3.3327 0
M  V30 1684 C 154.608 0.190079 4.36987 0
M  V30 1685 C 153.667 -0.637917 5.22319 0
M  V30 1686 O 152.693 -0.065626 5.69162 0
M  V30 1687 N 153.895 -1.94973 5.46778 0
M  V30 1688 H 156.66 1.11017 2.7838 0
M  V30 1689 H 154.221 0.732458 1.44384 0
M  V30 1690 H 156.213 -1.1748 3.87273 0
M  V30 1691 H 154.783 -1.34146 2.82354 0
M  V30 1692 H 154.003 0.931165 3.83044 0
M  V30 1693 H 155.291 0.742579 5.03352 0
M  V30 1694 H 154.689 -2.4378 5.10478 0
M  V30 1695 H 153.246 -2.45713 6.03712 0
M  V30 1696 N 156.679 -1.44442 0.630414 0
M  V30 1697 C 157.629 -2.27794 -0.0968103 0
M  V30 1698 C 158.613 -1.38624 -0.816834 0
M  V30 1699 O 159.805 -1.62438 -0.70306 0
M  V30 1700 C 156.934 -3.25929 -1.07819 0
M  V30 1701 C 156.02 -4.22588 -0.357826 0
M  V30 1702 N 156.411 -5.0207 0.613169 0
M  V30 1703 C 154.709 -4.41914 -0.602365 0
M  V30 1704 C 155.41 -5.72351 1.03871 0
M  V30 1705 N 154.386 -5.42287 0.377642 0
M  V30 1706 H 158.188 -2.86653 0.648621 0
M  V30 1707 H 155.702 -1.55871 0.455862 0
M  V30 1708 H 157.699 -3.84399 -1.61378 0
M  V30 1709 H 156.359 -2.68631 -1.82393 0
M  V30 1710 H 157.37 -5.08331 0.990947 0
M  V30 1711 H 154.047 -3.95714 -1.33103 0
M  V30 1712 H 155.437 -6.4619 1.84086 0
M  V30 1713 N 158.157 -0.370918 -1.53173 0
M  V30 1714 C 159.405 0.216673 -2.00935 0
M  V30 1715 C 159.726 1.48845 -1.25977 0
M  V30 1716 O 158.996 1.92286 -0.374551 0
M  V30 1717 H 157.576 0.0830565 -0.742368 0
M  V30 1718 H 160.238 -0.49838 -1.8842 0
M  V30 1719 H 159.334 0.439893 -3.08984 0
M  V30 1720 N 159.635 1.57281 -0.100228 0
M  V30 1721 C 160.86 1.99302 0.573881 0
M  V30 1722 C 161.285 0.979059 1.60611 0
M  V30 1723 O 160.643 -0.0517803 1.81226 0
M  V30 1724 C 160.691 3.40274 1.19358 0
M  V30 1725 O 159.795 3.41676 2.30935 0
M  V30 1726 H 159.136 0.647944 0.145138 0
M  V30 1727 H 161.666 2.03779 -0.183156 0
M  V30 1728 H 161.676 3.78078 1.53365 0
M  V30 1729 H 160.351 4.13594 0.437385 0
M  V30 1730 H 158.928 3.15672 1.98509 0
M  V30 1731 N 161.113 -0.173488 1.56642 0
M  V30 1732 C 162.361 -0.888706 1.81512 0
M  V30 1733 C 162.682 -1.82875 0.676872 0
M  V30 1734 O 161.952 -1.93536 -0.303414 0
M  V30 1735 H 160.532 -0.331164 0.669582 0
M  V30 1736 H 163.194 -0.173823 1.94123 0
M  V30 1737 H 162.29 -1.46691 2.75478 0
M  V30 1738 N 162.591 -1.51276 -0.441967 0
M  V30 1739 C 163.521 -1.752 -1.54361 0
M  V30 1740 C 164.502 -0.601682 -1.59103 0
M  V30 1741 O 165.687 -0.843913 -1.74905 0
M  V30 1742 C 162.817 -1.87282 -2.92477 0
M  V30 1743 C 161.771 -3.02687 -3.02596 0
M  V30 1744 C 161.097 -2.99947 -4.42647 0
M  V30 1745 C 162.397 -4.4273 -2.77106 0
M  V30 1746 H 164.091 -2.67442 -1.34592 0
M  V30 1747 H 161.637 -1.28694 -0.646048 0
M  V30 1748 H 163.59 -2.02602 -3.695 0
M  V30 1749 H 162.314 -0.916844 -3.13467 0
M  V30 1750 H 160.973 -2.87065 -2.28012 0
M  V30 1751 H 160.621 -2.02136 -4.60597 0
M  V30 1752 H 160.321 -3.77439 -4.50348 0
M  V30 1753 H 161.845 -3.17354 -5.2165 0
M  V30 1754 H 163.259 -4.58727 -3.43864 0
M  V30 1755 H 161.656 -5.21893 -2.96222 0
M  V30 1756 H 162.726 -4.53087 -1.72744 0
M  V30 1757 N 164.069 0.697108 -1.41344 0
M  V30 1758 C 165.017 1.83237 -1.43272 0
M  V30 1759 C 166.011 1.66522 -0.310947 0
M  V30 1760 O 167.217 1.73402 -0.482899 0
M  V30 1761 H 163.592 0.603802 -0.448249 0
M  V30 1762 H 165.563 1.78727 -2.38954 0
M  V30 1763 C 164.312 3.21245 -1.33029 0
M  V30 1764 H 163.635 3.34723 -2.18633 0
M  V30 1765 H 165.075 4.00763 -1.38439 0
M  V30 1766 C 163.534 3.36873 -0.0424635 0
M  V30 1767 O 164.064 3.91177 0.913421 0
M  V30 1768 N 162.27 2.90581 0.0331145 0
M  V30 1769 H 161.817 2.46577 -0.745506 0
M  V30 1770 H 161.775 3.01416 0.894199 0
M  V30 1771 N 165.547 1.27147 0.931209 0
M  V30 1772 C 166.963 1.04475 1.20653 0
M  V30 1773 C 167.163 -0.223885 2.00252 0
M  V30 1774 O 166.219 -0.930332 2.34736 0
M  V30 1775 C 167.532 2.28209 1.95809 0
M  V30 1776 C 169.08 2.33211 2.08762 0
M  V30 1777 C 169.555 3.56665 2.87323 0
M  V30 1778 N 171.046 3.57201 2.94892 0
M  V30 1779 C 171.781 4.49395 3.56134 0
M  V30 1780 N 171.277 5.51889 4.18796 0
M  V30 1781 N 173.07 4.37026 3.53504 0
M  V30 1782 H 165.221 2.08612 0.399333 0
M  V30 1783 H 167.484 0.917312 0.239253 0
M  V30 1784 H 167.19 3.20538 1.44736 0
M  V30 1785 H 167.064 2.33247 2.96438 0
M  V30 1786 H 169.451 1.41391 2.59023 0
M  V30 1787 H 169.532 2.32178 1.07364 0
M  V30 1788 H 169.176 4.4882 2.37746 0
M  V30 1789 H 169.106 3.54948 3.88998 0
M  V30 1790 H 171.597 2.83074 2.50354 0
M  V30 1791 H 171.91 6.18409 4.63454 0
M  V30 1792 H 170.255 5.55735 4.17353 0
M  V30 1793 H 173.446 3.56166 3.03749 0
M  V30 1794 H 173.619 5.09067 4.00942 0
M  V30 1795 N 167.025 -1.13721 1.09112 0
M  V30 1796 C 167.958 -2.18094 0.67158 0
M  V30 1797 C 168.936 -1.59414 -0.320299 0
M  V30 1798 O 170.12 -1.87183 -0.222444 0
M  V30 1799 C 167.247 -3.38698 -0.0111189 0
M  V30 1800 C 166.293 -4.15966 0.942055 0
M  V30 1801 S 167.126 -4.7604 2.45246 0
M  V30 1802 C 168.282 -5.99994 1.78208 0
M  V30 1803 H 168.515 -2.53344 1.55577 0
M  V30 1804 H 166.048 -1.24967 0.906789 0
M  V30 1805 H 168.006 -4.08559 -0.398716 0
M  V30 1806 H 166.667 -3.01756 -0.871905 0
M  V30 1807 H 165.86 -5.02318 0.411396 0
M  V30 1808 H 165.462 -3.51745 1.2709 0
M  V30 1809 H 167.754 -6.68441 1.10424 0
M  V30 1810 H 168.697 -6.57662 2.62463 0
M  V30 1811 H 169.105 -5.50432 1.25238 0
M  V30 1812 N 168.503 -0.877838 -1.30888 0
M  V30 1813 C 169.752 -0.488793 -1.95688 0
M  V30 1814 C 170.065 0.965485 -1.70111 0
M  V30 1815 O 171.271 1.46104 -2.28836 0
M  V30 1816 C 169.727 -0.823201 -3.50359 0
M  V30 1817 C 169.335 -2.29477 -3.84765 0
M  V30 1818 C 171.079 -0.503009 -4.21509 0
M  V30 1819 C 168.986 -2.57118 -5.32583 0
M  V30 1820 H 167.916 -0.179062 -0.732429 0
M  V30 1821 H 170.567 -1.07183 -1.48943 0
M  V30 1822 H 168.949 -0.169331 -3.95638 0
M  V30 1823 H 170.123 -2.99236 -3.5042 0
M  V30 1824 H 168.438 -2.58178 -3.267 0
M  V30 1825 H 171.035 -0.68665 -5.30273 0
M  V30 1826 H 171.378 0.557109 -4.12555 0
M  V30 1827 H 171.911 -1.11376 -3.8189 0
M  V30 1828 H 168.65 -3.61843 -5.4658 0
M  V30 1829 H 168.17 -1.91961 -5.68253 0
M  V30 1830 H 169.849 -2.42251 -5.99936 0
M  V30 1831 N 169.982 1.44106 -0.638065 0
M  V30 1832 C 170.929 2.30715 0.062701 0
M  V30 1833 C 171.899 1.43882 0.829883 0
M  V30 1834 O 173.084 1.72775 0.809532 0
M  V30 1835 C 170.224 3.29258 1.03358 0
M  V30 1836 C 169.337 4.31192 0.26409 0
M  V30 1837 C 168.472 5.16825 1.22741 0
M  V30 1838 C 167.511 6.10462 0.447475 0
M  V30 1839 N 166.648 6.8877 1.36161 0
M  V30 1840 H 171.488 2.90096 -0.681781 0
M  V30 1841 H 169.025 1.42925 -0.347988 0
M  V30 1842 H 170.983 3.84886 1.60992 0
M  V30 1843 H 169.613 2.71562 1.74511 0
M  V30 1844 H 168.665 3.77981 -0.428295 0
M  V30 1845 H 169.977 4.97619 -0.343052 0
M  V30 1846 H 169.131 5.77004 1.87487 0
M  V30 1847 H 167.87 4.50488 1.86847 0
M  V30 1848 H 166.875 5.49386 -0.213433 0
M  V30 1849 H 168.1 6.78837 -0.188968 0
M  V30 1850 H 166.046 6.25096 1.98975 0
M  V30 1851 H 165.963 7.51663 0.808656 0
M  V30 1852 H 167.231 7.53467 1.99769 0
M  V30 1853 N 171.46 0.379036 1.52974 0
M  V30 1854 C 172.69 -0.20649 2.05566 0
M  V30 1855 C 173.098 -1.41906 1.25137 0
M  V30 1856 O 172.441 -1.81421 0.288464 0
M  V30 1857 C 172.503 -0.651086 3.53555 0
M  V30 1858 C 172.167 0.446626 4.54812 0
M  V30 1859 C 173.164 1.30079 5.03364 0
M  V30 1860 C 170.849 0.610719 4.98573 0
M  V30 1861 C 172.843 2.30426 5.94292 0
M  V30 1862 C 170.53 1.61754 5.89304 0
M  V30 1863 C 171.528 2.46274 6.37054 0
M  V30 1864 O 171.216 3.45237 7.25994 0
M  V30 1865 H 170.948 -0.0372381 0.674974 0
M  V30 1866 H 173.502 0.539718 1.98182 0
M  V30 1867 H 171.732 -1.44911 3.58522 0
M  V30 1868 H 173.421 -1.16112 3.88938 0
M  V30 1869 H 174.187 1.18527 4.70294 0
M  V30 1870 H 170.066 -0.0374044 4.60985 0
M  V30 1871 H 173.61 2.96432 6.31485 0
M  V30 1872 H 169.507 1.73348 6.21788 0
M  V30 1873 H 170.275 3.41124 7.44027 0
M  V30 1874 N 172.938 -1.57226 0.108567 0
M  V30 1875 C 173.868 -2.17778 -0.84232 0
M  V30 1876 C 174.849 -1.11487 -1.2847 0
M  V30 1877 O 176.034 -1.39681 -1.34918 0
M  V30 1878 C 173.164 -2.76888 -2.09644 0
M  V30 1879 C 172.118 -3.88669 -1.79221 0
M  V30 1880 C 171.444 -4.34541 -3.11574 0
M  V30 1881 C 172.744 -5.11251 -1.06864 0
M  V30 1882 H 174.438 -2.97489 -0.337774 0
M  V30 1883 H 171.984 -1.43097 -0.161025 0
M  V30 1884 H 173.937 -3.17904 -2.76614 0
M  V30 1885 H 172.661 -1.94451 -2.62405 0
M  V30 1886 H 171.32 -3.48213 -1.14644 0
M  V30 1887 H 170.968 -3.48977 -3.62249 0
M  V30 1888 H 170.668 -5.09914 -2.91996 0
M  V30 1889 H 172.192 -4.782 -3.7968 0
M  V30 1890 H 173.606 -5.49352 -1.63968 0
M  V30 1891 H 172.003 -5.9214 -0.974178 0
M  V30 1892 H 173.073 -4.8487 -0.0536168 0
M  V30 1893 N 174.416 0.165178 -1.56732 0
M  V30 1894 C 175.349 1.23336 -1.91998 0
M  V30 1895 C 176.327 1.42476 -0.783531 0
M  V30 1896 O 177.511 1.57384 -1.03743 0
M  V30 1897 C 174.638 2.59533 -2.17625 0
M  V30 1898 C 173.684 2.57093 -3.40302 0
M  V30 1899 S 174.517 2.05571 -4.9447 0
M  V30 1900 C 175.673 3.43532 -5.23198 0
M  V30 1901 H 175.906 0.932387 -2.82301 0
M  V30 1902 H 173.439 0.370013 -1.49901 0
M  V30 1903 H 175.397 3.37918 -2.3307 0
M  V30 1904 H 174.058 2.86827 -1.28019 0
M  V30 1905 H 173.251 3.57308 -3.55453 0
M  V30 1906 H 172.853 1.86806 -3.24005 0
M  V30 1907 H 175.145 4.39559 -5.15552 0
M  V30 1908 H 176.088 3.33251 -6.2478 0
M  V30 1909 H 176.496 3.39828 -4.50752 0
M  V30 1910 N 175.894 1.51508 0.433938 0
M  V30 1911 C 176.824 1.76016 1.53429 0
M  V30 1912 C 177.805 0.610112 1.58782 0
M  V30 1913 O 178.99 0.853177 1.74455 0
M  V30 1914 C 176.12 1.88831 2.9148 0
M  V30 1915 C 175.074 3.04288 3.00987 0
M  V30 1916 C 174.4 3.0229 4.4105 0
M  V30 1917 C 175.7 4.44193 2.74754 0
M  V30 1918 H 177.394 2.68152 1.33171 0
M  V30 1919 H 174.94 1.29035 0.639214 0
M  V30 1920 H 176.893 2.04559 3.6842 0
M  V30 1921 H 175.617 0.933455 3.12976 0
M  V30 1922 H 174.276 2.8827 2.26486 0
M  V30 1923 H 173.924 2.04576 4.59519 0
M  V30 1924 H 173.624 3.79822 4.4834 0
M  V30 1925 H 175.148 3.20116 5.1996 0
M  V30 1926 H 176.562 4.60544 3.41426 0
M  V30 1927 H 174.959 5.23457 2.9345 0
M  V30 1928 H 176.029 4.53996 1.70339 0
M  V30 1929 N 177.372 -0.689602 1.41712 0
M  V30 1930 C 178.319 -1.80345 1.44029 0
M  V30 1931 C 179.289 -1.63478 0.293948 0
M  V30 1932 O 180.474 -1.84244 0.495869 0
M  V30 1933 C 177.614 -3.18272 1.33405 0
M  V30 1934 C 176.727 -3.46529 2.57956 0
M  V30 1935 C 175.862 -4.74103 2.39582 0
M  V30 1936 C 174.901 -4.95347 3.5958 0
M  V30 1937 N 174.038 -6.14151 3.40239 0
M  V30 1938 H 178.878 -1.77698 2.39222 0
M  V30 1939 H 176.415 -0.867688 1.18784 0
M  V30 1940 H 178.373 -3.97956 1.25246 0
M  V30 1941 H 177.003 -3.2008 0.418164 0
M  V30 1942 H 176.055 -2.61207 2.76542 0
M  V30 1943 H 177.367 -3.58126 3.47199 0
M  V30 1944 H 176.521 -5.61853 2.28924 0
M  V30 1945 H 175.26 -4.64763 1.47805 0
M  V30 1946 H 174.265 -4.06044 3.70686 0
M  V30 1947 H 175.49 -5.06542 4.52318 0
M  V30 1948 H 173.436 -6.06013 2.51167 0
M  V30 1949 H 173.353 -6.26543 4.23061 0
M  V30 1950 H 174.621 -7.04619 3.33365 0
M  V30 1951 N 178.85 -1.27639 -0.924453 0
M  V30 1952 C 179.8 -1.07295 -2.01176 0
M  V30 1953 C 180.784 5.77352e-05 -1.609 0
M  V30 1954 O 181.976 -0.218855 -1.75642 0
M  V30 1955 C 179.105 -0.725592 -3.35544 0
M  V30 1956 C 178.191 -1.83691 -3.82254 0
M  V30 1957 N 178.582 -3.07697 -4.01443 0
M  V30 1958 C 176.88 -1.72433 -4.11319 0
M  V30 1959 C 177.581 -3.80037 -4.40394 0
M  V30 1960 N 176.557 -3.0782 -4.48049 0
M  V30 1961 H 180.359 -2.01399 -2.14046 0
M  V30 1962 H 177.873 -1.18401 -1.11153 0
M  V30 1963 H 179.87 -0.560959 -4.13109 0
M  V30 1964 H 178.53 0.207782 -3.24034 0
M  V30 1965 H 179.541 -3.43424 -3.8766 0
M  V30 1966 H 176.218 -0.862005 -4.08504 0
M  V30 1967 H 177.608 -4.86632 -4.63291 0
M  V30 1968 N 180.328 1.1314 -1.09713 0
M  V30 1969 C 181.291 2.16831 -0.742751 0
M  V30 1970 C 182.291 1.59159 0.229129 0
M  V30 1971 O 183.481 1.74199 0.00693237 0
M  V30 1972 C 180.613 3.40756 -0.0989168 0
M  V30 1973 H 181.806 2.49695 -1.66109 0
M  V30 1974 H 179.359 1.2802 -0.896699 0
M  V30 1975 H 180.094 3.13485 0.830514 0
M  V30 1976 H 179.879 3.83888 -0.798265 0
M  V30 1977 H 181.369 4.17386 0.133524 0
M  V30 1978 N 181.806 0.884767 1.30421 0
M  V30 1979 C 183.053 0.503105 1.96151 0
M  V30 1980 C 183.381 -0.947676 1.69851 0
M  V30 1981 O 182.636 -1.68467 0.995861 0
M  V30 1982 C 182.935 0.724318 3.49983 0
M  V30 1983 C 182.601 2.15015 3.96332 0
M  V30 1984 C 181.263 2.54005 4.08699 0
M  V30 1985 C 183.615 3.07936 4.20505 0
M  V30 1986 C 180.943 3.85128 4.42599 0
M  V30 1987 C 183.295 4.3859 4.55874 0
M  V30 1988 C 181.959 4.77474 4.66449 0
M  V30 1989 H 181.229 0.184099 0.717766 0
M  V30 1990 H 183.876 1.12058 1.55291 0
M  V30 1991 H 182.181 0.0238086 3.91793 0
M  V30 1992 H 183.878 0.408617 3.98913 0
M  V30 1993 H 180.468 1.8375 3.87213 0
M  V30 1994 H 184.652 2.79033 4.10431 0
M  V30 1995 H 179.908 4.14996 4.48986 0
M  V30 1996 H 184.082 5.10629 4.7353 0
M  V30 1997 H 181.709 5.79115 4.92473 0
M  V30 1998 N 183.284 -1.43765 0.645699 0
M  V30 1999 C 184.561 -1.9541 0.0862963 0
M  V30 2000 C 184.941 -1.58725 -1.39175 0
M  V30 2001 O 184.289 -0.868581 -2.11348 0
M  V30 2002 C 184.499 -3.47488 0.324565 0
M  V30 2003 C 185.847 -4.24001 0.225497 0
M  V30 2004 O 186.871 -3.55274 0.256715 0
M  V30 2005 O 185.73 -5.46313 0.142801 0
M  V30 2006 H 182.824 -0.826882 -0.0139483 0
M  V30 2007 H 185.37 -1.53743 0.718415 0
M  V30 2008 H 184.142 -3.67289 1.3496 0
M  V30 2009 H 183.765 -3.96135 -0.340987 0
M  V30 2010 N 184.763 -0.387143 -1.52771 0
M  V30 2011 C 185.711 0.463953 -2.27926 0
M  V30 2012 C 186.705 1.06493 -1.31741 0
M  V30 2013 O 187.911 1.00565 -1.49287 0
M  V30 2014 H 184.286 0.16837 -0.732909 0
M  V30 2015 H 186.257 -0.19141 -2.97785 0
M  V30 2016 C 185.006 1.5803 -3.09713 0
M  V30 2017 H 184.329 1.12718 -3.83581 0
M  V30 2018 H 185.769 2.15008 -3.65442 0
M  V30 2019 C 184.228 2.53509 -2.2189 0
M  V30 2020 O 184.758 3.56863 -1.84422 0
M  V30 2021 N 182.964 2.23199 -1.86093 0
M  V30 2022 H 182.511 1.39185 -2.16761 0
M  V30 2023 H 182.469 2.87333 -1.27621 0
M  V30 2024 N 186.241 1.57166 -0.116904 0
M  V30 2025 C 187.171 2.18222 0.830759 0
M  V30 2026 C 188.152 1.12167 1.27877 0
M  V30 2027 O 189.337 1.40394 1.34176 0
M  V30 2028 C 186.467 2.77996 2.08172 0
M  V30 2029 C 185.421 3.89614 1.77157 0
M  V30 2030 C 184.747 4.36187 3.09265 0
M  V30 2031 C 186.047 5.1181 1.04151 0
M  V30 2032 H 187.741 2.97664 0.321992 0
M  V30 2033 H 185.287 1.4318 0.153434 0
M  V30 2034 H 187.24 3.19366 2.74924 0
M  V30 2035 H 185.964 1.9584 2.6137 0
M  V30 2036 H 184.623 3.48816 1.12796 0
M  V30 2037 H 184.271 3.50893 3.60393 0
M  V30 2038 H 183.971 5.11455 2.89288 0
M  V30 2039 H 185.495 4.80207 3.77139 0
M  V30 2040 H 186.909 5.50214 1.61052 0
M  V30 2041 H 185.306 5.92648 0.942762 0
M  V30 2042 H 186.376 4.84892 0.0279022 0
M  V30 2043 N 187.719 -0.156864 1.56817 0
M  V30 2044 C 189.135 -0.50916 1.5126 0
M  V30 2045 C 189.335 -1.83897 0.823658 0
M  V30 2046 O 188.391 -2.49469 0.390055 0
M  V30 2047 C 189.704 -0.52857 2.96018 0
M  V30 2048 C 191.252 -0.614771 3.06903 0
M  V30 2049 C 191.727 -0.664938 4.53147 0
M  V30 2050 N 193.218 -0.727433 4.57452 0
M  V30 2051 C 193.953 -0.787067 5.67973 0
M  V30 2052 N 193.449 -0.806649 6.88088 0
M  V30 2053 N 195.242 -0.827195 5.5598 0
M  V30 2054 H 187.393 0.714935 2.00006 0
M  V30 2055 H 189.656 0.259526 0.911784 0
M  V30 2056 H 189.362 0.380154 3.49639 0
M  V30 2057 H 189.236 -1.36998 3.51442 0
M  V30 2058 H 191.623 -1.51392 2.53307 0
M  V30 2059 H 191.704 0.253597 2.5454 0
M  V30 2060 H 191.348 0.230011 5.07379 0
M  V30 2061 H 191.278 -1.54966 5.03282 0
M  V30 2062 H 193.769 -0.719998 3.70978 0
M  V30 2063 H 194.082 -0.853727 7.6807 0
M  V30 2064 H 192.427 -0.774687 6.90669 0
M  V30 2065 H 195.618 -0.808998 4.61056 0
M  V30 2066 H 195.791 -0.870206 6.4213 0
M  V30 2067 N 189.197 -1.51736 -0.425897 0
M  V30 2068 C 190.13 -1.68574 -1.53812 0
M  V30 2069 C 191.108 -0.53328 -1.53606 0
M  V30 2070 O 192.292 -0.758555 -1.72564 0
M  V30 2071 C 189.419 -1.70977 -2.92377 0
M  V30 2072 C 188.465 -2.92324 -3.10563 0
M  V30 2073 S 189.298 -4.52952 -2.85648 0
M  V30 2074 C 190.454 -4.58117 -4.26474 0
M  V30 2075 H 190.687 -2.62647 -1.39298 0
M  V30 2076 H 188.22 -1.41564 -0.616361 0
M  V30 2077 H 190.178 -1.73047 -3.72243 0
M  V30 2078 H 188.839 -0.78061 -3.04245 0
M  V30 2079 H 188.032 -2.90439 -4.11899 0
M  V30 2080 H 187.634 -2.88055 -2.38538 0
M  V30 2081 H 189.926 -4.34462 -5.19855 0
M  V30 2082 H 190.869 -5.59983 -4.33388 0
M  V30 2083 H 191.277 -3.8732 -4.10662 0
M  V30 2084 N 190.675 0.682077 -1.42076 0
M  V30 2085 C 191.921 1.44428 -1.42367 0
M  V30 2086 C 192.254 1.94164 -0.0373056 0
M  V30 2087 O 191.529 1.70429 0.937239 0
M  V30 2088 C 191.812 2.64654 -2.44194 0
M  V30 2089 C 191.665 2.20596 -3.91991 0
M  V30 2090 C 192.984 3.66865 -2.431 0
M  V30 2091 H 190.103 0.523834 -0.518428 0
M  V30 2092 H 192.745 0.77576 -1.73442 0
M  V30 2093 H 190.895 3.2169 -2.17826 0
M  V30 2094 H 192.567 1.68783 -4.29313 0
M  V30 2095 H 190.81 1.52242 -4.06208 0
M  V30 2096 H 191.481 3.06921 -4.58807 0
M  V30 2097 H 193.957 3.19531 -2.66532 0
M  V30 2098 H 192.833 4.48577 -3.16339 0
M  V30 2099 H 193.094 4.17493 -1.45437 0
M  V30 2100 N 192.153 1.28127 0.917671 0
M  V30 2101 C 193.569 1.05749 1.19538 0
M  V30 2102 C 193.769 -0.202633 2.00479 0
M  V30 2103 O 192.825 -0.905382 2.3571 0
M  V30 2104 C 194.138 2.30273 1.93378 0
M  V30 2105 C 195.686 2.35412 2.06277 0
M  V30 2106 C 196.161 3.59692 2.83524 0
M  V30 2107 N 197.652 3.60309 2.91087 0
M  V30 2108 C 198.387 4.53147 3.51348 0
M  V30 2109 N 197.883 5.563 4.12919 0
M  V30 2110 N 199.676 4.40751 3.48849 0
M  V30 2111 H 191.827 2.09024 0.377184 0
M  V30 2112 H 194.09 0.919798 0.22951 0
M  V30 2113 H 193.796 3.22055 1.41328 0
M  V30 2114 H 193.67 2.36378 2.93947 0
M  V30 2115 H 196.057 1.4413 2.57508 0
M  V30 2116 H 196.138 2.33304 1.04895 0
M  V30 2117 H 195.782 4.51316 2.32973 0
M  V30 2118 H 195.712 3.59054 3.85211 0
M  V30 2119 H 198.203 2.85714 2.47338 0
M  V30 2120 H 198.516 6.2329 4.56869 0
M  V30 2121 H 196.861 5.60131 4.11435 0
M  V30 2122 H 200.052 3.59367 2.99955 0
M  V30 2123 H 200.225 5.13291 3.9552 0
M  V30 2124 N 193.631 -1.12557 1.10312 0
M  V30 2125 C 194.877 -1.84311 0.846011 0
M  V30 2126 C 195.21 -1.83805 -0.626859 0
M  V30 2127 O 194.485 -1.28268 -1.46211 0
M  V30 2128 C 194.768 -3.32048 1.39341 0
M  V30 2129 C 194.621 -3.41016 2.93305 0
M  V30 2130 C 195.94 -4.27764 1.03468 0
M  V30 2131 H 193.059 -0.669192 0.30879 0
M  V30 2132 H 195.701 -1.32057 1.36605 0
M  V30 2133 H 193.851 -3.76678 0.951087 0
M  V30 2134 H 195.523 -3.05031 3.46055 0
M  V30 2135 H 193.766 -2.81603 3.29973 0
M  V30 2136 H 194.437 -4.44948 3.26689 0
M  V30 2137 H 196.913 -3.91253 1.41633 0
M  V30 2138 H 195.789 -5.29549 1.44463 0
M  V30 2139 H 196.05 -4.42064 -0.0560404 0
M  V30 2140 N 195.109 -0.891671 -1.2995 0
M  V30 2141 C 196.041 -0.320695 -2.26945 0
M  V30 2142 C 197.054 0.528497 -1.53983 0
M  V30 2143 O 198.243 0.346959 -1.75096 0
M  V30 2144 C 195.343 0.562066 -3.34207 0
M  V30 2145 C 194.516 -0.259576 -4.36629 0
M  V30 2146 C 193.575 0.554739 -5.23268 0
M  V30 2147 O 192.601 -0.0249311 -5.69195 0
M  V30 2148 N 193.803 1.8625 -5.4981 0
M  V30 2149 H 196.568 -1.15432 -2.76578 0
M  V30 2150 H 194.129 -0.755336 -1.432 0
M  V30 2151 H 196.121 1.11304 -3.89093 0
M  V30 2152 H 194.691 1.29637 -2.84452 0
M  V30 2153 H 193.911 -0.991986 -3.81514 0
M  V30 2154 H 195.199 -0.822564 -5.02107 0
M  V30 2155 H 194.597 2.35628 -5.14292 0
M  V30 2156 H 193.154 2.36078 -6.07545 0
M  V30 2157 N 196.587 1.43421 -0.653314 0
M  V30 2158 C 197.517 2.33487 0.0246656 0
M  V30 2159 C 198.498 1.49475 0.811863 0
M  V30 2160 O 199.683 1.78139 0.773322 0
M  V30 2161 C 196.813 3.32841 0.99166 0
M  V30 2162 C 195.767 4.26842 0.314568 0
M  V30 2163 C 195.093 5.16236 1.39302 0
M  V30 2164 C 196.393 5.16243 -0.793095 0
M  V30 2165 H 198.087 2.90427 -0.727481 0
M  V30 2166 H 195.633 1.39649 -0.351287 0
M  V30 2167 H 197.586 3.94747 1.47487 0
M  V30 2168 H 196.31 2.74158 1.77497 0
M  V30 2169 H 194.969 3.663 -0.148199 0
M  V30 2170 H 194.617 4.53891 2.16776 0
M  V30 2171 H 194.317 5.79948 0.945223 0
M  V30 2172 H 195.841 5.81015 1.87759 0
M  V30 2173 H 197.255 5.71958 -0.392039 0
M  V30 2174 H 195.652 5.88676 -1.16536 0
M  V30 2175 H 196.722 4.55927 -1.65103 0
M  V30 2176 N 198.065 0.39524 1.52563 0
M  V30 2177 C 199.29 -0.187456 2.06551 0
M  V30 2178 C 199.715 -1.39249 1.26457 0
M  V30 2179 O 199.073 -1.78947 0.291151 0
M  V30 2180 C 199.121 -0.529985 3.56684 0
M  V30 2181 O 198.225 -1.62307 3.79118 0
M  V30 2182 H 197.566 -0.0202537 0.663691 0
M  V30 2183 H 200.096 0.564426 1.96661 0
M  V30 2184 H 200.106 -0.792598 4.00227 0
M  V30 2185 H 198.781 0.350987 4.14416 0
M  V30 2186 H 197.358 -1.3537 3.47461 0
M  V30 2187 N 199.544 -1.57102 0.125237 0
M  V30 2188 C 200.772 -1.99761 -0.538797 0
M  V30 2189 C 201.187 -1.00503 -1.59827 0
M  V30 2190 O 200.544 0.00119474 -1.825 0
M  V30 2191 C 200.595 -3.42408 -1.15927 0
M  V30 2192 O 200.316 -4.37869 -0.142143 0
M  V30 2193 C 201.817 -4.00232 -1.90602 0
M  V30 2194 H 199.037 -0.655772 -0.14214 0
M  V30 2195 H 201.581 -2.03383 0.213413 0
M  V30 2196 H 199.736 -3.39706 -1.86223 0
M  V30 2197 H 200.15 -5.21128 -0.593775 0
M  V30 2198 H 201.624 -5.02105 -2.29335 0
M  V30 2199 H 202.101 -3.39721 -2.78363 0
M  V30 2200 H 202.707 -4.06499 -1.25055 0
M  V30 2201 N 201.022 0.148545 -1.56898 0
M  V30 2202 C 201.985 1.16736 -1.97244 0
M  V30 2203 C 202.985 1.35947 -0.858777 0
M  V30 2204 O 204.175 1.32966 -1.12542 0
M  V30 2205 C 201.307 2.52798 -2.28705 0
M  V30 2206 H 202.5 0.821279 -2.88435 0
M  V30 2207 H 200.053 0.391831 -1.51309 0
M  V30 2208 H 200.788 2.92381 -1.403 0
M  V30 2209 H 200.573 2.40216 -3.09901 0
M  V30 2210 H 202.063 3.26179 -2.60762 0
M  V30 2211 N 202.5 1.5196 0.417844 0
M  V30 2212 C 203.463 1.74065 1.49111 0
M  V30 2213 C 204.463 0.610537 1.48758 0
M  V30 2214 O 205.653 0.87832 1.50437 0
M  V30 2215 C 202.785 1.81502 2.88565 0
M  V30 2216 H 203.978 2.69869 1.30807 0
M  V30 2217 H 201.531 1.42244 0.647785 0
M  V30 2218 H 202.266 0.875813 3.1225 0
M  V30 2219 H 202.051 2.63651 2.90225 0
M  V30 2220 H 203.541 2.00376 3.66387 0
M  V30 2221 N 203.978 -0.674533 1.42435 0
M  V30 2222 C 205.203 -1.46784 1.46524 0
M  V30 2223 C 205.628 -1.87938 0.078066 0
M  V30 2224 O 204.986 -1.56014 -0.92354 0
M  V30 2225 C 205.034 -2.69307 2.39805 0
M  V30 2226 O 204.138 -3.67587 1.86959 0
M  V30 2227 H 203.479 -0.440959 0.496439 0
M  V30 2228 H 206.009 -0.827326 1.87127 0
M  V30 2229 H 206.019 -3.17374 2.56393 0
M  V30 2230 H 204.694 -2.38692 3.40586 0
M  V30 2231 H 203.271 -3.2662 1.79927 0
M  V30 2232 N 205.456 -1.28612 -0.910864 0
M  V30 2233 C 206.404 -1.1265 -2.03501 0
M  V30 2234 C 207.398 -0.0450054 -1.6934 0
M  V30 2235 O 208.604 -0.203988 -1.7884 0
M  V30 2236 H 204.979 -0.347639 -0.666822 0
M  V30 2237 H 206.95 -2.07849 -2.14106 0
M  V30 2238 C 205.699 -0.808143 -3.38178 0
M  V30 2239 H 205.022 -1.63231 -3.6496 0
M  V30 2240 H 206.462 -0.736426 -4.17556 0
M  V30 2241 C 204.921 0.488226 -3.33344 0
M  V30 2242 O 205.451 1.51766 -3.71927 0
M  V30 2243 N 203.657 0.490009 -2.86439 0
M  V30 2244 H 203.204 -0.348161 -2.55236 0
M  V30 2245 H 203.162 1.35741 -2.83587 0
M  V30 2246 N 206.934 1.1197 -1.10907 0
M  V30 2247 C 207.864 2.19928 -0.784473 0
M  V30 2248 C 208.845 1.6833 0.244726 0
M  V30 2249 O 210.03 1.93892 0.109418 0
M  V30 2250 C 207.16 3.46597 -0.220827 0
M  V30 2251 C 206.114 4.11376 -1.18127 0
M  V30 2252 C 205.44 5.32554 -0.478594 0
M  V30 2253 C 206.74 4.56945 -2.52979 0
M  V30 2254 H 208.434 2.47337 -1.68715 0
M  V30 2255 H 205.98 1.18879 -0.812642 0
M  V30 2256 H 207.933 4.21396 0.0184278 0
M  V30 2257 H 206.657 3.1863 0.717113 0
M  V30 2258 H 205.316 3.38564 -1.40606 0
M  V30 2259 H 204.964 5.00856 0.463976 0
M  V30 2260 H 204.664 5.76844 -1.11912 0
M  V30 2261 H 206.188 6.10096 -0.248 0
M  V30 2262 H 207.602 5.23093 -2.3462 0
M  V30 2263 H 205.999 5.1203 -3.12962 0
M  V30 2264 H 207.069 3.70676 -3.12614 0
M  V30 2265 N 208.412 0.89855 1.29475 0
M  V30 2266 C 209.828 0.594483 1.48115 0
M  V30 2267 C 210.028 -0.86431 1.82022 0
M  V30 2268 O 209.084 -1.64457 1.91599 0
M  V30 2269 C 210.397 1.51932 2.59494 0
M  V30 2270 C 211.945 1.5244 2.7337 0
M  V30 2271 C 212.42 2.43548 3.87877 0
M  V30 2272 N 213.911 2.41589 3.95208 0
M  V30 2273 C 214.646 3.08789 4.83153 0
M  V30 2274 N 214.142 3.85265 5.75798 0
M  V30 2275 N 215.935 2.97952 4.76635 0
M  V30 2276 H 208.086 1.84207 1.05742 0
M  V30 2277 H 210.349 0.789251 0.525154 0
M  V30 2278 H 210.055 2.55865 2.41301 0
M  V30 2279 H 209.929 1.23899 3.56271 0
M  V30 2280 H 212.316 0.492518 2.90961 0
M  V30 2281 H 212.397 1.8451 1.77172 0
M  V30 2282 H 212.041 3.46829 3.71041 0
M  V30 2283 H 211.971 2.08788 4.83441 0
M  V30 2284 H 214.462 1.86025 3.28943 0
M  V30 2285 H 214.775 4.33598 6.39697 0
M  V30 2286 H 213.12 3.89371 5.75687 0
M  V30 2287 H 216.311 2.37723 4.03244 0
M  V30 2288 H 216.484 3.50599 5.44962 0
M  V30 2289 N 209.89 -1.43072 0.660911 0
M  V30 2290 C 210.853 -2.29194 -0.0166406 0
M  V30 2291 C 211.853 -1.42609 -0.742912 0
M  V30 2292 O 213.043 -1.64155 -0.583004 0
M  V30 2293 C 210.175 -3.24831 -1.0343 0
M  V30 2294 H 211.368 -2.90596 0.741208 0
M  V30 2295 H 208.921 -1.5048 0.422532 0
M  V30 2296 H 209.656 -2.68339 -1.82111 0
M  V30 2297 H 209.441 -3.88676 -0.517082 0
M  V30 2298 H 210.931 -3.89451 -1.50723 0
M  V30 2299 N 211.368 -0.403325 -1.52352 0
M  V30 2300 C 212.3 0.4603 -2.2453 0
M  V30 2301 C 213.313 1.01505 -1.27282 0
M  V30 2302 O 214.502 0.914982 -1.53266 0
M  V30 2303 C 211.602 1.65208 -2.95905 0
M  V30 2304 C 210.775 1.22224 -4.19976 0
M  V30 2305 C 209.834 2.28028 -4.74226 0
M  V30 2306 O 208.86 1.88857 -5.36956 0
M  V30 2307 N 210.062 3.6012 -4.55295 0
M  V30 2308 H 212.827 -0.158156 -2.99282 0
M  V30 2309 H 210.388 -0.230402 -1.60252 0
M  V30 2310 H 212.38 2.35541 -3.29093 0
M  V30 2311 H 210.95 2.17658 -2.24374 0
M  V30 2312 H 210.17 0.34725 -3.92668 0
M  V30 2313 H 211.458 0.911924 -5.00561 0
M  V30 2314 H 210.856 3.94698 -4.05253 0
M  V30 2315 H 209.413 4.26447 -4.92936 0
M  V30 2316 N 212.846 1.57033 -0.133567 0
M  V30 2317 C 214.094 1.953 0.519848 0
M  V30 2318 C 214.415 1.01866 1.66278 0
M  V30 2319 O 213.685 0.0776513 1.95746 0
M  V30 2320 H 212.265 0.721091 0.195032 0
M  V30 2321 H 214.927 1.93809 -0.205921 0
M  V30 2322 H 214.023 2.98695 0.904854 0
M  V30 2323 N 214.325 -0.140222 1.56975 0
M  V30 2324 C 215.288 -1.15689 1.97861 0
M  V30 2325 C 216.288 -1.3549 0.865974 0
M  V30 2326 O 217.478 -1.32367 1.13246 0
M  V30 2327 C 214.61 -2.51582 2.30042 0
M  V30 2328 H 215.803 -0.805971 2.88867 0
M  V30 2329 H 213.356 -0.383801 1.51515 0
M  V30 2330 H 214.091 -2.91632 1.41849 0
M  V30 2331 H 213.876 -2.38569 3.11171 0
M  V30 2332 H 215.366 -3.24792 2.62488 0
M  V30 2333 N 215.803 -1.52179 -0.40978 0
M  V30 2334 C 217.052 -1.65434 -1.15388 0
M  V30 2335 C 217.365 -0.390056 -1.91671 0
M  V30 2336 O 218.571 -0.402399 -2.68501 0
M  V30 2337 C 217.027 -2.92279 -2.10003 0
M  V30 2338 C 216.635 -4.25813 -1.39239 0
M  V30 2339 C 218.379 -3.14897 -2.84675 0
M  V30 2340 C 216.286 -5.43782 -2.32498 0
M  V30 2341 H 215.216 -0.616267 -0.434432 0
M  V30 2342 H 217.867 -1.78666 -0.418401 0
M  V30 2343 H 216.249 -2.72744 -2.871 0
M  V30 2344 H 217.423 -4.55828 -0.675099 0
M  V30 2345 H 215.738 -4.09292 -0.766097 0
M  V30 2346 H 218.335 -4.0021 -3.54593 0
M  V30 2347 H 218.678 -2.29103 -3.47588 0
M  V30 2348 H 219.211 -3.34901 -2.14677 0
M  V30 2349 H 215.95 -6.3192 -1.74233 0
M  V30 2350 H 215.47 -5.18106 -3.02201 0
M  V30 2351 H 217.149 -5.76834 -2.93038 0
M  V30 2352 N 217.281 0.66697 -1.42791 0
M  V30 2353 C 218.558 1.4234 -1.34159 0
M  V30 2354 C 218.938 2.11093 0.0172729 0
M  V30 2355 O 218.286 2.03808 1.03318 0
M  V30 2356 C 218.496 2.41942 -2.51526 0
M  V30 2357 C 219.844 3.06353 -2.93995 0
M  V30 2358 O 220.868 2.52269 -2.51473 0
M  V30 2359 O 219.727 4.04376 -3.67617 0
M  V30 2360 H 216.821 0.635277 -0.529483 0
M  V30 2361 H 219.367 0.695034 -1.54814 0
M  V30 2362 H 218.139 1.89991 -3.42081 0
M  V30 2363 H 217.762 3.22249 -2.32898 0
M  V30 2364 N 218.759 1.29093 0.90403 0
M  V30 2365 C 219.706 1.13853 2.00764 0
M  V30 2366 C 220.676 0.0330084 1.66067 0
M  V30 2367 O 221.861 0.199733 1.89752 0
M  V30 2368 C 219.001 0.816537 3.35301 0
M  V30 2369 C 218.114 2.00206 3.82807 0
M  V30 2370 C 217.249 1.61983 5.059 0
M  V30 2371 C 216.288 2.77143 5.45764 0
M  V30 2372 N 215.425 2.39346 6.60044 0
M  V30 2373 H 220.265 2.08276 2.13132 0
M  V30 2374 H 217.802 1.03648 1.04381 0
M  V30 2375 H 219.76 0.610557 4.12708 0
M  V30 2376 H 218.39 -0.090779 3.22672 0
M  V30 2377 H 217.442 2.31988 3.01473 0
M  V30 2378 H 218.754 2.86512 4.08304 0
M  V30 2379 H 217.908 1.37649 5.90879 0
M  V30 2380 H 216.647 0.728202 4.82233 0
M  V30 2381 H 215.652 3.02165 4.59322 0
M  V30 2382 H 216.877 3.66964 5.71414 0
M  V30 2383 H 214.823 1.52665 6.37989 0
M  V30 2384 H 214.74 3.19185 6.85315 0
M  V30 2385 H 216.008 2.1832 7.48303 0
M  V30 2386 N 220.237 -1.11381 1.11499 0
M  V30 2387 C 221.167 -2.19509 0.796125 0
M  V30 2388 C 222.148 -1.68458 -0.235796 0
M  V30 2389 O 223.333 -1.93947 -0.0991344 0
M  V30 2390 C 220.463 -3.46475 0.239205 0
M  V30 2391 C 219.417 -4.10744 1.20307 0
M  V30 2392 C 218.743 -5.32293 0.50683 0
M  V30 2393 C 220.043 -4.55597 2.55399 0
M  V30 2394 H 221.737 -2.46439 1.70024 0
M  V30 2395 H 219.283 -1.18446 0.818935 0
M  V30 2396 H 221.236 -4.214 0.00392006 0
M  V30 2397 H 219.96 -3.19006 -0.700206 0
M  V30 2398 H 218.619 -3.37813 1.42399 0
M  V30 2399 H 218.267 -5.01095 -0.437408 0
M  V30 2400 H 217.967 -5.76243 1.1497 0
M  V30 2401 H 219.491 -6.09956 0.280351 0
M  V30 2402 H 220.905 -5.21841 2.37391 0
M  V30 2403 H 219.302 -5.10363 3.15673 0
M  V30 2404 H 220.372 -3.69013 3.14575 0
M  V30 2405 N 221.715 -0.905404 -1.28997 0
M  V30 2406 C 222.963 -0.533192 -1.9494 0
M  V30 2407 C 223.284 0.924618 -1.71685 0
M  V30 2408 O 222.554 1.65268 -1.05183 0
M  V30 2409 H 221.134 -0.194194 -0.721317 0
M  V30 2410 H 223.796 -1.15294 -1.57141 0
M  V30 2411 H 222.892 -0.72059 -3.03667 0
M  V30 2412 N 223.193 1.4272 -0.668489 0
M  V30 2413 C 224.156 2.292 0.00448567 0
M  V30 2414 C 225.156 1.43001 0.735339 0
M  V30 2415 O 226.346 1.64461 0.57429 0
M  V30 2416 C 223.478 3.25375 1.01705 0
M  V30 2417 H 224.671 2.90199 -0.756608 0
M  V30 2418 H 222.224 1.50254 -0.430506 0
M  V30 2419 H 222.959 2.69301 1.80686 0
M  V30 2420 H 222.744 3.88944 0.496463 0
M  V30 2421 H 224.234 3.90245 1.48655 0
M  V30 2422 N 224.671 0.411399 1.52136 0
M  V30 2423 C 225.603 -0.448386 2.24771 0
M  V30 2424 C 226.616 -1.00828 1.27818 0
M  V30 2425 O 227.805 -0.906841 1.53749 0
M  V30 2426 C 224.905 -1.63636 2.96777 0
M  V30 2427 C 224.078 -1.19995 4.20618 0
M  V30 2428 C 223.137 -2.25509 4.75428 0
M  V30 2429 O 222.163 -1.86007 5.3795 0
M  V30 2430 N 223.365 -3.577 4.57199 0
M  V30 2431 H 226.13 0.174025 2.99194 0
M  V30 2432 H 223.691 0.238897 1.60128 0
M  V30 2433 H 225.683 -2.33793 3.30338 0
M  V30 2434 H 224.253 -2.16465 2.25526 0
M  V30 2435 H 223.473 -0.326421 3.92846 0
M  V30 2436 H 224.761 -0.885365 5.01038 0
M  V30 2437 H 224.159 -3.92543 4.07341 0
M  V30 2438 H 222.716 -4.23827 4.95191 0
M  V30 2439 N 226.149 -1.5696 0.141893 0
M  V30 2440 C 227.565 -1.58151 -0.21456 0
M  V30 2441 C 227.765 -1.1559 -1.65049 0
M  V30 2442 O 226.821 -0.853832 -2.37626 0
M  V30 2443 C 228.134 -3.00674 0.0395576 0
M  V30 2444 C 229.682 -3.1299 -0.0245529 0
M  V30 2445 C 230.157 -4.57554 0.202167 0
M  V30 2446 N 231.648 -4.62961 0.148919 0
M  V30 2447 C 232.383 -5.7262 0.298924 0
M  V30 2448 N 231.879 -6.90947 0.50637 0
M  V30 2449 N 233.672 -5.61601 0.236886 0
M  V30 2450 H 225.823 -1.8292 1.07953 0
M  V30 2451 H 228.086 -0.846425 0.42693 0
M  V30 2452 H 227.792 -3.36183 1.03315 0
M  V30 2453 H 227.666 -3.70981 -0.682143 0
M  V30 2454 H 230.053 -2.77326 -1.00869 0
M  V30 2455 H 230.134 -2.4518 0.729396 0
M  V30 2456 H 229.778 -4.93922 1.18338 0
M  V30 2457 H 229.708 -5.23484 -0.572044 0
M  V30 2458 H 232.199 -3.77899 -0.00697015 0
M  V30 2459 H 232.512 -7.7038 0.611076 0
M  V30 2460 H 230.857 -6.92878 0.542628 0
M  V30 2461 H 234.048 -4.68039 0.0756209 0
M  V30 2462 H 234.221 -6.47015 0.357227 0
M  V30 2463 N 227.627 0.131896 -1.57047 0
M  V30 2464 C 228.537 1.1815 -2.02676 0
M  V30 2465 C 229.553 1.46113 -0.944824 0
M  V30 2466 O 230.729 1.57485 -1.25541 0
M  V30 2467 C 227.794 2.49139 -2.41103 0
M  V30 2468 C 226.855 2.28688 -3.63318 0
M  V30 2469 C 226.088 3.53431 -3.99903 0
M  V30 2470 O 226.311 4.60223 -3.36973 0
M  V30 2471 O 225.245 3.45198 -4.93074 0
M  V30 2472 H 229.071 0.824069 -2.92306 0
M  V30 2473 H 226.656 0.341745 -1.45439 0
M  V30 2474 H 228.538 3.26338 -2.66611 0
M  V30 2475 H 227.213 2.84382 -1.54624 0
M  V30 2476 H 226.12 1.4939 -3.42977 0
M  V30 2477 H 227.453 1.98355 -4.50462 0
M  V30 2478 N 229.106 1.52395 0.401703 0
M  V30 2479 C 230.354 1.66488 1.14569 0
M  V30 2480 C 230.675 0.400897 1.90835 0
M  V30 2481 O 229.945 -0.584415 1.8698 0
M  V30 2482 H 228.525 0.613672 0.425929 0
M  V30 2483 H 231.187 1.89464 0.457093 0
M  V30 2484 H 230.283 2.50942 1.85566 0
M  V30 2485 N 230.584 -0.659388 1.43143 0
M  V30 2486 C 231.83 -1.42145 1.44647 0
M  V30 2487 C 232.163 -1.9408 0.0681907 0
M  V30 2488 O 231.438 -1.71899 -0.910007 0
M  V30 2489 C 231.721 -2.60735 2.48373 0
M  V30 2490 C 231.574 -2.14332 3.95451 0
M  V30 2491 C 232.893 -3.62951 2.48906 0
M  V30 2492 H 230.012 -0.51552 0.526696 0
M  V30 2493 H 232.654 -0.748069 1.74654 0
M  V30 2494 H 230.804 -3.18184 2.22916 0
M  V30 2495 H 232.476 -1.61932 4.31944 0
M  V30 2496 H 230.719 -1.4576 4.08578 0
M  V30 2497 H 231.39 -2.99583 4.63631 0
M  V30 2498 H 233.866 -3.1525 2.71582 0
M  V30 2499 H 232.742 -4.43487 3.23435 0
M  V30 2500 H 233.003 -4.15126 1.52061 0
M  V30 2501 N 232.062 -1.29571 -0.897171 0
M  V30 2502 C 232.992 -1.17473 -2.01798 0
M  V30 2503 C 233.973 -0.068323 -1.69963 0
M  V30 2504 O 235.158 -0.248239 -1.92607 0
M  V30 2505 C 232.288 -0.853099 -3.36659 0
M  V30 2506 C 231.242 -1.9161 -3.82713 0
M  V30 2507 C 230.568 -1.44773 -5.14728 0
M  V30 2508 C 231.868 -3.32535 -4.02763 0
M  V30 2509 H 233.562 -2.11237 -2.12177 0
M  V30 2510 H 231.108 -1.01699 -1.01948 0
M  V30 2511 H 233.061 -0.755165 -4.14578 0
M  V30 2512 H 231.785 0.120236 -3.26379 0
M  V30 2513 H 230.444 -2.00346 -3.07013 0
M  V30 2514 H 230.092 -0.462995 -5.00865 0
M  V30 2515 H 229.792 -2.15865 -5.46513 0
M  V30 2516 H 231.316 -1.36334 -5.95185 0
M  V30 2517 H 232.73 -3.26626 -4.71156 0
M  V30 2518 H 231.127 -4.01607 -4.45905 0
M  V30 2519 H 232.197 -3.75326 -3.07016 0
M  V30 2520 N 233.54 1.10788 -1.12088 0
M  V30 2521 C 234.956 1.34691 -0.856186 0
M  V30 2522 C 235.156 1.94791 0.515615 0
M  V30 2523 O 234.212 2.18524 1.26505 0
M  V30 2524 C 235.525 2.27208 -1.9697 0
M  V30 2525 C 237.073 2.40755 -2.00016 0
M  V30 2526 C 237.548 3.36598 -3.1059 0
M  V30 2527 N 239.039 3.44164 -3.10008 0
M  V30 2528 C 239.774 4.18284 -3.92206 0
M  V30 2529 N 239.27 4.95322 -4.84384 0
M  V30 2530 N 241.063 4.13865 -3.80357 0
M  V30 2531 H 233.214 0.70144 -2.00483 0
M  V30 2532 H 235.477 0.371405 -0.872217 0
M  V30 2533 H 235.183 1.90251 -2.958 0
M  V30 2534 H 235.057 3.27485 -1.87172 0
M  V30 2535 H 237.444 2.76982 -1.01808 0
M  V30 2536 H 237.525 1.40305 -2.13888 0
M  V30 2537 H 237.169 3.01096 -4.09028 0
M  V30 2538 H 237.099 4.36918 -2.93956 0
M  V30 2539 H 239.59 2.8922 -2.43228 0
M  V30 2540 H 239.903 5.49267 -5.43623 0
M  V30 2541 H 238.248 4.94459 -4.884 0
M  V30 2542 H 241.439 3.52773 -3.07683 0
M  V30 2543 H 241.612 4.71372 -4.44649 0
M  V30 2544 N 235.018 0.912232 1.28515 0
M  V30 2545 C 235.966 0.389597 2.29314 0
M  V30 2546 C 236.96 -0.517915 1.61289 0
M  V30 2547 O 238.166 -0.399328 1.75515 0
M  V30 2548 H 234.541 0.107386 0.744293 0
M  V30 2549 H 236.512 1.25286 2.70825 0
M  V30 2550 C 235.261 -0.356496 3.45868 0
M  V30 2551 H 234.584 0.332608 3.98414 0
M  V30 2552 H 236.024 -0.686851 4.184 0
M  V30 2553 C 234.483 -1.56383 2.98406 0
M  V30 2554 O 235.013 -2.66294 3.00749 0
M  V30 2555 N 233.219 -1.41029 2.54085 0
M  V30 2556 H 232.766 -0.516089 2.52377 0
M  V30 2557 H 232.724 -2.21939 2.22689 0
M  V30 2558 N 236.496 -1.42363 0.676048 0
M  V30 2559 C 237.446 -2.27987 -0.0242903 0
M  V30 2560 C 238.43 -1.41153 -0.772319 0
M  V30 2561 O 239.622 -1.64592 -0.651025 0
M  V30 2562 C 236.751 -3.29195 -0.973953 0
M  V30 2563 C 235.837 -4.23512 -0.223202 0
M  V30 2564 N 236.228 -4.99865 0.772589 0
M  V30 2565 C 234.526 -4.43606 -0.461469 0
M  V30 2566 C 235.227 -5.68757 1.22027 0
M  V30 2567 N 234.203 -5.40811 0.549975 0
M  V30 2568 H 238.005 -2.84445 0.73949 0
M  V30 2569 H 235.519 -1.54341 0.50522 0
M  V30 2570 H 237.516 -3.89339 -1.49067 0
M  V30 2571 H 236.176 -2.74298 -1.73755 0
M  V30 2572 H 237.187 -5.04921 1.15217 0
M  V30 2573 H 233.864 -3.99749 -1.20446 0
M  V30 2574 H 235.254 -6.40007 2.0455 0
M  V30 2575 N 237.974 -0.419461 -1.51915 0
M  V30 2576 C 239.39 -0.0708431 -1.59443 0
M  V30 2577 C 239.59 1.41796 -1.43164 0
M  V30 2578 O 238.646 2.18596 -1.26381 0
M  V30 2579 C 239.959 -0.574991 -2.95151 0
M  V30 2580 C 241.507 -0.533867 -3.08413 0
M  V30 2581 C 241.982 -1.01469 -4.46618 0
M  V30 2582 N 243.473 -0.971939 -4.52888 0
M  V30 2583 C 244.208 -1.31505 -5.58116 0
M  V30 2584 N 243.704 -1.73014 -6.70849 0
M  V30 2585 N 245.497 -1.23436 -5.48379 0
M  V30 2586 H 237.648 -1.38836 -1.60743 0
M  V30 2587 H 239.911 -0.570998 -0.756747 0
M  V30 2588 H 239.617 -1.61597 -3.12377 0
M  V30 2589 H 239.491 0.00979777 -3.77199 0
M  V30 2590 H 241.878 0.498086 -2.90866 0
M  V30 2591 H 241.959 -1.15484 -2.28248 0
M  V30 2592 H 241.603 -2.04502 -4.6491 0
M  V30 2593 H 241.533 -0.370433 -5.25295 0
M  V30 2594 H 244.024 -0.666893 -3.71969 0
M  V30 2595 H 244.337 -1.97479 -7.47143 0
M  V30 2596 H 242.682 -1.76926 -6.72103 0
M  V30 2597 H 245.873 -0.908869 -4.59192 0
M  V30 2598 H 246.046 -1.50506 -6.30279 0
M  V30 2599 N 239.452 1.56882 -0.150215 0
M  V30 2600 C 240.868 1.58263 0.20617 0
M  V30 2601 C 241.068 1.16464 1.64434 0
M  V30 2602 O 240.124 0.866422 2.3717 0
M  V30 2603 C 241.437 3.00649 -0.0555025 0
M  V30 2604 C 242.985 3.12999 0.00795388 0
M  V30 2605 C 243.46 4.5744 -0.226429 0
M  V30 2606 N 244.951 4.62875 -0.173469 0
M  V30 2607 C 245.686 5.72454 -0.329288 0
M  V30 2608 N 245.182 6.90669 -0.543005 0
M  V30 2609 N 246.975 5.61467 -0.266666 0
M  V30 2610 H 239.126 1.82345 -1.08922 0
M  V30 2611 H 241.389 0.844149 -0.431413 0
M  V30 2612 H 241.095 3.3563 -1.05096 0
M  V30 2613 H 240.969 3.71337 0.66246 0
M  V30 2614 H 243.356 2.77857 0.993966 0
M  V30 2615 H 243.437 2.4479 -0.742388 0
M  V30 2616 H 243.081 4.93287 -1.20956 0
M  V30 2617 H 243.011 5.2378 0.544274 0
M  V30 2618 H 245.502 3.77898 -0.0130709 0
M  V30 2619 H 245.815 7.70045 -0.651922 0
M  V30 2620 H 244.16 6.92581 -0.579366 0
M  V30 2621 H 247.351 4.67992 -0.100441 0
M  V30 2622 H 247.524 6.46816 -0.391535 0
M  V30 2623 N 240.93 -0.123565 1.57115 0
M  V30 2624 C 241.86 -1.15309 2.03042 0
M  V30 2625 C 242.841 -1.43454 0.914061 0
M  V30 2626 O 244.026 -1.53973 1.18347 0
M  V30 2627 C 241.156 -2.48043 2.43089 0
M  V30 2628 C 240.11 -2.3437 3.58127 0
M  V30 2629 C 239.436 -3.72026 3.84059 0
M  V30 2630 C 240.736 -1.80804 4.90007 0
M  V30 2631 H 242.43 -0.771102 2.893 0
M  V30 2632 H 239.976 -0.369479 1.39179 0
M  V30 2633 H 241.929 -3.20311 2.73823 0
M  V30 2634 H 240.653 -2.88122 1.53796 0
M  V30 2635 H 239.312 -1.64551 3.27595 0
M  V30 2636 H 238.96 -4.09582 2.91979 0
M  V30 2637 H 238.66 -3.63732 4.6149 0
M  V30 2638 H 240.184 -4.45806 4.1724 0
M  V30 2639 H 241.598 -2.42886 5.19307 0
M  V30 2640 H 239.995 -1.83343 5.71407 0
M  V30 2641 H 241.065 -0.76528 4.78823 0
M  V30 2642 N 242.408 -1.52605 -0.393616 0
M  V30 2643 C 243.371 -1.76415 -1.46323 0
M  V30 2644 C 244.371 -0.634126 -1.47768 0
M  V30 2645 O 245.561 -0.902142 -1.4902 0
M  V30 2646 C 242.693 -1.8607 -2.85641 0
M  V30 2647 H 243.886 -2.71916 -1.26498 0
M  V30 2648 H 241.439 -1.43257 -0.625073 0
M  V30 2649 H 242.174 -0.925378 -3.10817 0
M  V30 2650 H 241.959 -2.68235 -2.85993 0
M  V30 2651 H 243.449 -2.06179 -3.63153 0
M  V30 2652 N 243.887 0.651787 -1.4349 0
M  V30 2653 C 245.135 1.40888 -1.44897 0
M  V30 2654 C 245.456 1.94856 -0.0749086 0
M  V30 2655 O 244.726 1.74518 0.889956 0
M  V30 2656 H 243.306 0.522887 -0.533478 0
M  V30 2657 H 245.968 0.768609 -1.79104 0
M  V30 2658 H 245.064 2.25052 -2.16236 0
M  V30 2659 N 245.365 1.30045 0.890287 0
M  V30 2660 C 246.613 1.18327 1.63839 0
M  V30 2661 C 246.934 -0.263455 1.93212 0
M  V30 2662 O 246.204 -1.17856 1.56482 0
M  V30 2663 H 244.784 0.434933 0.607324 0
M  V30 2664 H 247.446 1.631 1.06698 0
M  V30 2665 H 246.542 1.74024 2.59079 0
M  V30 2666 N 246.843 -1.10192 1.12674 0
M  V30 2667 C 248.259 -1.34235 0.863317 0
M  V30 2668 C 248.459 -1.95062 -0.505277 0
M  V30 2669 O 247.515 -2.19192 -1.25345 0
M  V30 2670 C 248.828 -2.2616 1.98172 0
M  V30 2671 C 250.376 -2.3969 2.0129 0
M  V30 2672 C 250.851 -3.34946 3.1237 0
M  V30 2673 N 252.342 -3.42515 3.11829 0
M  V30 2674 C 253.077 -4.16199 3.94419 0
M  V30 2675 N 252.573 -4.92747 4.87004 0
M  V30 2676 N 254.366 -4.11843 3.82547 0
M  V30 2677 H 246.517 -0.690798 2.00853 0
M  V30 2678 H 248.78 -0.366774 0.874174 0
M  V30 2679 H 248.486 -1.8868 2.96804 0
M  V30 2680 H 248.36 -3.26488 1.88906 0
M  V30 2681 H 250.747 -2.76438 1.03276 0
M  V30 2682 H 250.828 -1.39169 2.14629 0
M  V30 2683 H 250.472 -2.98923 4.10619 0
M  V30 2684 H 250.402 -4.35353 2.96269 0
M  V30 2685 H 252.893 -2.87926 2.44759 0
M  V30 2686 H 253.206 -5.46376 5.46528 0
M  V30 2687 H 251.551 -4.91862 4.91016 0
M  V30 2688 H 254.742 -3.51136 3.0955 0
M  V30 2689 H 254.915 -4.69007 4.47142 0
M  V30 2690 N 248.321 -0.919034 -1.28029 0
M  V30 2691 C 249.251 -0.428581 -2.29533 0
M  V30 2692 C 250.232 0.50659 -1.62381 0
M  V30 2693 O 251.417 0.413195 -1.89753 0
M  V30 2694 C 248.547 0.327388 -3.45753 0
M  V30 2695 C 247.501 -0.519137 -4.2484 0
M  V30 2696 C 246.827 0.365486 -5.33449 0
M  V30 2697 C 248.127 -1.77914 -4.91064 0
M  V30 2698 H 249.821 -1.27687 -2.70807 0
M  V30 2699 H 247.367 -0.615428 -1.30186 0
M  V30 2700 H 249.32 0.681378 -4.15855 0
M  V30 2701 H 248.044 1.20963 -3.03374 0
M  V30 2702 H 246.703 -0.855717 -3.56473 0
M  V30 2703 H 246.351 1.24642 -4.87312 0
M  V30 2704 H 246.051 -0.197356 -5.87268 0
M  V30 2705 H 247.575 0.715241 -6.06396 0
M  V30 2706 H 248.989 -1.49374 -5.53498 0
M  V30 2707 H 247.386 -2.2848 -5.54903 0
M  V30 2708 H 248.456 -2.50382 -4.15255 0
M  V30 2709 N 249.799 1.42003 -0.683588 0
M  V30 2710 C 251.076 1.95112 -0.138075 0
M  V30 2711 C 251.456 1.62359 1.34918 0
M  V30 2712 O 250.804 0.924311 2.08971 0
M  V30 2713 C 251.014 3.46505 -0.416581 0
M  V30 2714 C 252.362 4.23254 -0.337834 0
M  V30 2715 O 253.386 3.54468 -0.35082 0
M  V30 2716 O 252.245 5.45743 -0.287596 0
M  V30 2717 H 249.339 0.826961 -0.00797996 0
M  V30 2718 H 251.885 1.51784 -0.758924 0
M  V30 2719 H 250.657 3.63582 -1.4465 0
M  V30 2720 H 250.28 3.969 0.235839 0
M  V30 2721 N 251.277 0.427512 1.51691 0
M  V30 2722 C 252.554 -0.201684 1.94557 0
M  V30 2723 C 252.934 -1.60981 1.36559 0
M  V30 2724 O 252.282 -2.21814 0.548702 0
M  V30 2725 C 252.492 -0.189394 3.48486 0
M  V30 2726 C 253.84 -0.39978 4.22714 0
M  V30 2727 O 254.864 -0.267945 3.55191 0
M  V30 2728 O 253.723 -0.661249 5.42485 0
M  V30 2729 H 250.817 -0.135261 0.815864 0
M  V30 2730 H 253.363 0.484782 1.62628 0
M  V30 2731 H 252.135 0.795431 3.8313 0
M  V30 2732 H 251.758 -0.919187 3.86829 0
M  V30 2733 N 252.755 -1.56801 0.158532 0
M  V30 2734 C 253.983 -2.00859 -0.496303 0
M  V30 2735 C 254.398 -1.03871 -1.57659 0
M  V30 2736 O 253.755 -0.0375165 -1.82461 0
M  V30 2737 C 253.806 -3.4479 -1.08638 0
M  V30 2738 O 253.527 -4.38072 -0.0492322 0
M  V30 2739 C 255.028 -4.04185 -1.8207 0
M  V30 2740 H 252.248 -0.65864 -0.128199 0
M  V30 2741 H 254.792 -2.02885 0.256506 0
M  V30 2742 H 252.947 -3.43579 -1.78975 0
M  V30 2743 H 253.361 -5.2227 -0.483102 0
M  V30 2744 H 254.835 -5.06857 -2.18633 0
M  V30 2745 H 255.312 -3.45549 -2.71095 0
M  V30 2746 H 255.918 -4.0906 -1.16405 0
M  V30 2747 N 254.233 0.115231 -1.57178 0
M  V30 2748 C 255.48 0.822351 -1.8505 0
M  V30 2749 C 255.808 1.79701 -0.744168 0
M  V30 2750 O 255.063 1.93909 0.26414 0
M  V30 2751 C 255.362 1.60324 -3.19423 0
M  V30 2752 C 255.028 0.772536 -4.44233 0
M  V30 2753 C 253.69 0.543468 -4.78121 0
M  V30 2754 C 256.042 0.193746 -5.2084 0
M  V30 2755 C 253.37 -0.274583 -5.86057 0
M  V30 2756 C 255.722 -0.611517 -6.29637 0
M  V30 2757 C 254.386 -0.850867 -6.62055 0
M  V30 2758 H 253.656 0.30092 -0.677147 0
M  V30 2759 H 256.303 0.0845802 -1.91313 0
M  V30 2760 H 254.608 2.41203 -3.08753 0
M  V30 2761 H 256.305 2.1544 -3.38211 0
M  V30 2762 H 252.895 0.96117 -4.17683 0
M  V30 2763 H 257.079 0.357926 -4.95008 0
M  V30 2764 H 252.335 -0.469206 -6.09597 0
M  V30 2765 H 256.509 -1.06697 -6.88178 0
M  V30 2766 H 254.136 -1.48657 -7.45523 0
M  V30 2767 N 255.711 1.52812 0.385517 0
M  V30 2768 C 256.957 1.68275 1.13188 0
M  V30 2769 C 257.29 0.423179 1.89533 0
M  V30 2770 O 256.565 -0.579113 1.85679 0
M  V30 2771 C 256.848 2.92001 2.1073 0
M  V30 2772 C 256.701 4.28067 1.38125 0
M  V30 2773 C 258.02 3.11283 3.11113 0
M  V30 2774 H 255.139 0.612352 0.410115 0
M  V30 2775 H 257.781 1.85415 0.414869 0
M  V30 2776 H 255.931 2.77519 2.71874 0
M  V30 2777 H 257.603 4.54324 0.799187 0
M  V30 2778 H 255.846 4.28388 0.683092 0
M  V30 2779 H 256.517 5.10733 2.09417 0
M  V30 2780 H 258.993 3.2482 2.6006 0
M  V30 2781 H 257.869 3.99325 3.76605 0
M  V30 2782 H 258.13 2.25656 3.80173 0
M  V30 2783 N 257.189 -0.644168 1.43834 0
M  V30 2784 C 258.419 -1.42939 1.49171 0
M  V30 2785 C 258.827 -1.88874 0.111048 0
M  V30 2786 O 258.17 -1.60656 -0.8908 0
M  V30 2787 C 258.232 -2.69151 2.38324 0
M  V30 2788 C 257.896 -2.45097 3.85715 0
M  V30 2789 C 258.893 -2.07747 4.76589 0
M  V30 2790 C 256.578 -2.59141 4.30292 0
M  V30 2791 C 258.572 -1.8475 6.10038 0
M  V30 2792 C 256.259 -2.35759 5.63792 0
M  V30 2793 C 257.257 -1.9862 6.53482 0
M  V30 2794 O 256.945 -1.75489 7.84512 0
M  V30 2795 H 256.677 -0.445271 0.508635 0
M  V30 2796 H 259.231 -0.79621 1.8934 0
M  V30 2797 H 257.461 -3.3506 1.93058 0
M  V30 2798 H 259.15 -3.31123 2.3476 0
M  V30 2799 H 259.916 -1.96465 4.43426 0
M  V30 2800 H 255.795 -2.87022 3.60749 0
M  V30 2801 H 259.339 -1.55686 6.80006 0
M  V30 2802 H 255.236 -2.46646 5.9652 0
M  V30 2803 H 256.004 -1.89841 7.9618 0
M  V30 2804 N 258.668 -1.30515 -0.883378 0
M  V30 2805 C 259.893 -1.22487 -1.67367 0
M  V30 2806 C 260.318 0.208767 -1.86938 0
M  V30 2807 O 259.676 1.15015 -1.40148 0
M  V30 2808 C 259.724 -1.96041 -3.02655 0
M  V30 2809 O 258.828 -1.28859 -3.91751 0
M  V30 2810 H 258.169 -0.423573 -0.511353 0
M  V30 2811 H 260.699 -1.72362 -1.10239 0
M  V30 2812 H 260.709 -2.05124 -3.52687 0
M  V30 2813 H 259.384 -3.00307 -2.8773 0
M  V30 2814 H 257.961 -1.28141 -3.50192 0
M  V30 2815 N 260.146 1.09593 -1.13257 0
M  V30 2816 C 261.395 1.81105 -0.887917 0
M  V30 2817 C 261.708 1.86563 0.587672 0
M  V30 2818 O 262.914 2.54367 0.949204 0
M  V30 2819 C 261.37 3.25338 -1.53895 0
M  V30 2820 C 260.978 3.28151 -3.04994 0
M  V30 2821 C 262.722 4.01617 -1.37492 0
M  V30 2822 C 260.629 4.66897 -3.6299 0
M  V30 2823 H 259.559 0.678661 -0.328534 0
M  V30 2824 H 262.21 1.23183 -1.36008 0
M  V30 2825 H 260.592 3.8331 -0.994446 0
M  V30 2826 H 261.766 2.79953 -3.66009 0
M  V30 2827 H 260.081 2.65361 -3.20893 0
M  V30 2828 H 262.678 5.04119 -1.78235 0
M  V30 2829 H 263.021 4.15072 -0.31957 0
M  V30 2830 H 263.554 3.50082 -1.88912 0
M  V30 2831 H 260.293 4.58643 -4.68323 0
M  V30 2832 H 259.813 5.15426 -3.06752 0
M  V30 2833 H 261.492 5.3587 -3.62563 0
M  V30 2834 N 261.624 0.925811 1.2754 0
M  V30 2835 C 262.852 0.581509 1.9856 0
M  V30 2836 C 263.267 -0.840041 1.69082 0
M  V30 2837 O 262.624 -1.55805 0.950312 0
M  V30 2838 C 262.675 0.795589 3.52637 0
M  V30 2839 O 262.396 2.16121 3.81082 0
M  V30 2840 C 263.897 0.459744 4.4091 0
M  V30 2841 H 261.117 0.220538 0.633722 0
M  V30 2842 H 263.661 1.24232 1.6244 0
M  V30 2843 H 261.816 0.18161 3.86974 0
M  V30 2844 H 262.23 2.2098 4.75676 0
M  V30 2845 H 263.704 0.660244 5.48037 0
M  V30 2846 H 264.181 -0.604625 4.35018 0
M  V30 2847 H 264.787 1.05178 4.12089 0
M  V30 2848 N 263.102 -1.41638 0.69111 0
M  V30 2849 C 264.379 -1.95036 0.148421 0
M  V30 2850 C 264.759 -1.63072 -1.34055 0
M  V30 2851 O 264.107 -0.93538 -2.08478 0
M  V30 2852 C 264.317 -3.46279 0.434951 0
M  V30 2853 C 265.665 -4.23069 0.360275 0
M  V30 2854 O 266.689 -3.54277 0.369613 0
M  V30 2855 O 265.548 -5.45583 0.316534 0
M  V30 2856 H 262.642 -0.826908 0.0123654 0
M  V30 2857 H 265.188 -1.5138 0.766963 0
M  V30 2858 H 263.96 -3.6281 1.46576 0
M  V30 2859 H 263.583 -3.97019 -0.214787 0
M  V30 2860 N 264.58 -0.43555 -1.51462 0
M  V30 2861 C 265.53 0.394701 -2.24558 0
M  V30 2862 C 266.514 0.99157 -1.26715 0
M  V30 2863 O 267.706 0.910007 -1.51815 0
M  V30 2864 C 264.835 1.4963 -3.08975 0
M  V30 2865 C 263.921 0.908912 -4.14246 0
M  V30 2866 N 264.312 0.0505335 -5.05775 0
M  V30 2867 C 262.61 1.17668 -4.30198 0
M  V30 2868 C 263.311 -0.279161 -5.8103 0
M  V30 2869 N 262.287 0.336767 -5.42556 0
M  V30 2870 H 266.089 -0.267106 -2.92684 0
M  V30 2871 H 263.603 -0.247518 -1.60503 0
M  V30 2872 H 265.6 2.10394 -3.59917 0
M  V30 2873 H 264.26 2.16046 -2.42393 0
M  V30 2874 H 265.271 -0.31577 -5.16936 0
M  V30 2875 H 261.948 1.83847 -3.74842 0
M  V30 2876 H 263.338 -0.977553 -6.64751 0
M  V30 2877 N 266.058 1.56714 -0.166846 0
M  V30 2878 C 266.968 2.21331 0.777791 0
M  V30 2879 C 267.984 1.20358 1.25658 0
M  V30 2880 O 269.16 1.53005 1.30964 0
M  V30 2881 C 266.225 2.83787 1.99163 0
M  V30 2882 C 265.286 3.99947 1.56016 0
M  V30 2883 C 264.519 4.59415 2.71613 0
M  V30 2884 O 264.742 4.17769 3.88362 0
M  V30 2885 O 263.676 5.49359 2.45945 0
M  V30 2886 H 267.502 3.02605 0.257636 0
M  V30 2887 H 265.087 1.49275 0.0611393 0
M  V30 2888 H 266.969 3.23405 2.70161 0
M  V30 2889 H 265.644 2.05513 2.50092 0
M  V30 2890 H 264.551 3.65007 0.819809 0
M  V30 2891 H 265.884 4.79801 1.09782 0
M  V30 2892 N 267.536 -0.106894 1.57237 0
M  V30 2893 C 268.782 -0.808678 1.86633 0
M  V30 2894 C 269.137 -1.76917 0.756178 0
M  V30 2895 O 268.43 -1.90055 -0.242834 0
M  V30 2896 C 268.624 -1.58628 3.20268 0
M  V30 2897 C 268.453 -0.702592 4.44178 0
M  V30 2898 C 267.223 -0.352808 5.04067 0
M  V30 2899 C 269.421 -0.0148031 5.14298 0
M  V30 2900 N 267.403 0.540279 6.11518 0
M  V30 2901 C 268.774 0.736809 6.15606 0
M  V30 2902 C 270.829 0.0603524 4.97863 0
M  V30 2903 C 269.532 1.55654 7.02257 0
M  V30 2904 C 271.558 0.866942 5.85011 0
M  V30 2905 C 270.92 1.60671 6.85831 0
M  V30 2906 H 267.019 -0.27246 0.733001 0
M  V30 2907 H 269.603 -0.0717858 1.94568 0
M  V30 2908 H 267.774 -2.29413 3.13408 0
M  V30 2909 H 269.506 -2.23434 3.3743 0
M  V30 2910 H 266.261 -0.697802 4.68431 0
M  V30 2911 H 266.685 0.979029 6.69884 0
M  V30 2912 H 271.327 -0.497236 4.19866 0
M  V30 2913 H 269.045 2.12524 7.79653 0
M  V30 2914 H 272.631 0.927612 5.74358 0
M  V30 2915 H 271.511 2.2208 7.52097 0
M  V30 2916 N 269.014 -1.53014 -0.377408 0
M  V30 2917 C 270.425 -1.60438 -0.954798 0
M  V30 2918 C 270.776 -0.464418 -1.90624 0
M  V30 2919 O 269.901 0.41087 -2.12464 0
M  V30 2920 C 270.496 -2.90797 -1.73847 0
M  V30 2921 C 269.055 -3.00595 -2.26538 0
M  V30 2922 C 268.202 -2.55645 -1.07429 0
M  V30 2923 H 271.153 -1.57926 -0.156575 0
M  V30 2924 H 271.174 -2.77935 -2.5987 0
M  V30 2925 H 270.686 -3.73746 -1.04574 0
M  V30 2926 H 268.787 -2.22208 -2.99089 0
M  V30 2927 H 268.9 -4.05456 -2.5523 0
M  V30 2928 H 267.264 -2.10239 -1.43777 0
M  V30 2929 H 268.047 -3.41 -0.396728 0
M  V30 2930 N 270.492 0.636531 -1.44174 0
M  V30 2931 C 271.424 1.7618 -1.46606 0
M  V30 2932 C 272.437 1.58768 -0.360091 0
M  V30 2933 O 273.626 1.67181 -0.625518 0
M  V30 2934 C 270.726 3.13833 -1.27915 0
M  V30 2935 C 269.899 3.57753 -2.51658 0
M  V30 2936 C 268.958 4.74265 -2.27945 0
M  V30 2937 O 267.984 4.82852 -3.01401 0
M  V30 2938 N 269.186 5.65604 -1.30662 0
M  V30 2939 H 271.951 1.74567 -2.43612 0
M  V30 2940 H 269.512 0.820924 -1.39544 0
M  V30 2941 H 271.504 3.8949 -1.09907 0
M  V30 2942 H 270.074 3.10121 -0.39293 0
M  V30 2943 H 269.294 2.72362 -2.84978 0
M  V30 2944 H 270.582 3.83847 -3.33974 0
M  V30 2945 H 269.98 5.61354 -0.699844 0
M  V30 2946 H 268.537 6.40913 -1.18634 0
M  V30 2947 N 271.97 1.30982 0.876444 0
M  V30 2948 C 273.216 1.20474 1.63138 0
M  V30 2949 C 273.549 -0.238096 1.92735 0
M  V30 2950 O 272.824 -1.1692 1.55435 0
M  V30 2951 C 273.107 2.04244 2.96574 0
M  V30 2952 C 272.96 3.56793 2.73896 0
M  V30 2953 C 274.279 1.88684 3.97601 0
M  V30 2954 H 271.398 0.439001 0.591985 0
M  V30 2955 H 274.04 1.60704 1.01361 0
M  V30 2956 H 272.19 1.70063 3.493 0
M  V30 2957 H 273.862 4.01077 2.27892 0
M  V30 2958 H 272.105 3.80548 2.08245 0
M  V30 2959 H 272.776 4.10706 3.68815 0
M  V30 2960 H 275.252 2.18584 3.54062 0
M  V30 2961 H 274.128 2.4961 4.88862 0
M  V30 2962 H 274.389 0.848343 4.33884 0
M  V30 2963 N 273.449 -1.08991 1.13837 0
M  V30 2964 C 274.396 -2.15748 0.819835 0
M  V30 2965 C 275.366 -1.64636 -0.220026 0
M  V30 2966 O 276.551 -1.90582 -0.0912757 0
M  V30 2967 C 273.691 -3.4382 0.296913 0
M  V30 2968 C 272.804 -4.0881 1.39636 0
M  V30 2969 C 271.939 -5.24655 0.831314 0
M  V30 2970 C 270.978 -5.81575 1.90886 0
M  V30 2971 N 270.115 -6.88774 1.36142 0
M  V30 2972 H 274.955 -2.42338 1.73426 0
M  V30 2973 H 272.492 -1.18935 0.865613 0
M  V30 2974 H 274.45 -4.17193 -0.0244339 0
M  V30 2975 H 273.08 -3.17535 -0.580628 0
M  V30 2976 H 272.132 -3.33258 1.83422 0
M  V30 2977 H 273.444 -4.47141 2.21058 0
M  V30 2978 H 272.598 -6.04942 0.461515 0
M  V30 2979 H 271.337 -4.87698 -0.013932 0
M  V30 2980 H 270.342 -4.99946 2.28767 0
M  V30 2981 H 271.567 -6.20592 2.75758 0
M  V30 2982 H 269.513 -6.53788 0.538254 0
M  V30 2983 H 269.43 -7.25898 2.11208 0
M  V30 2984 H 270.698 -7.72806 1.01933 0
M  V30 2985 N 274.927 -0.932562 -1.27047 0
M  V30 2986 C 275.89 -0.440064 -2.24936 0
M  V30 2987 C 276.89 0.444071 -1.54547 0
M  V30 2988 O 278.08 0.244465 -1.72476 0
M  V30 2989 C 275.212 0.36678 -3.38921 0
M  V30 2990 H 276.405 -1.305 -2.70018 0
M  V30 2991 H 273.958 -0.713707 -1.39054 0
M  V30 2992 H 274.693 1.25033 -2.99228 0
M  V30 2993 H 274.478 -0.267204 -3.91188 0
M  V30 2994 H 275.968 0.701567 -4.11665 0
M  V30 2995 N 276.405 1.4127 -0.698611 0
M  V30 2996 C 277.368 2.29158 -0.044132 0
M  V30 2997 C 278.368 1.44529 0.704841 0
M  V30 2998 O 279.558 1.65643 0.539276 0
M  V30 2999 C 276.69 3.27459 0.947809 0
M  V30 3000 H 277.883 2.88529 -0.817994 0
M  V30 3001 H 275.436 1.49307 -0.46228 0
M  V30 3002 H 276.171 2.73073 1.74933 0
M  V30 3003 H 275.956 3.8991 0.41385 0
M  V30 3004 H 277.446 3.93311 1.40344 0
M  V30 3005 N 277.883 0.443576 1.51229 0
M  V30 3006 C 278.813 -0.355142 2.30783 0
M  V30 3007 C 279.794 -1.0154 1.36468 0
M  V30 3008 O 280.979 -1.01785 1.65389 0
M  V30 3009 C 278.109 -1.45312 3.15439 0
M  V30 3010 C 277.063 -0.916002 4.18083 0
M  V30 3011 C 276.389 -2.1102 4.91299 0
M  V30 3012 C 277.689 0.0538602 5.22272 0
M  V30 3013 H 279.383 0.308767 2.97804 0
M  V30 3014 H 276.929 0.149937 1.43217 0
M  V30 3015 H 278.882 -2.01914 3.69876 0
M  V30 3016 H 277.606 -2.14541 2.46252 0
M  V30 3017 H 276.265 -0.372145 3.64706 0
M  V30 3018 H 275.913 -2.78882 4.18609 0
M  V30 3019 H 275.613 -1.75717 5.60712 0
M  V30 3020 H 277.137 -2.68164 5.48562 0
M  V30 3021 H 278.551 -0.422069 5.71744 0
M  V30 3022 H 276.948 0.319776 5.99247 0
M  V30 3023 H 278.018 0.98858 4.74716 0
M  V30 3024 N 279.361 -1.56624 0.175154 0
M  V30 3025 C 280.271 -2.21741 -0.766042 0
M  V30 3026 C 281.287 -1.21023 -1.25018 0
M  V30 3027 O 282.463 -1.53697 -1.3015 0
M  V30 3028 C 279.528 -2.84839 -1.97655 0
M  V30 3029 C 278.589 -4.00769 -1.53892 0
M  V30 3030 C 277.822 -4.60849 -2.69173 0
M  V30 3031 O 278.045 -4.19823 -3.86141 0
M  V30 3032 O 276.979 -5.50655 -2.43028 0
M  V30 3033 H 280.805 -3.02738 -0.241585 0
M  V30 3034 H 278.39 -1.49305 -0.053222 0
M  V30 3035 H 280.272 -3.24834 -2.68442 0
M  V30 3036 H 278.947 -2.06836 -2.48999 0
M  V30 3037 H 277.854 -3.65436 -0.80044 0
M  V30 3038 H 279.187 -4.80376 -1.07236 0
M  V30 3039 N 280.839 0.0985539 -1.57292 0
M  V30 3040 C 281.802 1.10402 -2.00858 0
M  V30 3041 C 282.802 1.33146 -0.901593 0
M  V30 3042 O 283.992 1.29318 -1.16716 0
M  V30 3043 C 281.124 2.45394 -2.36632 0
M  V30 3044 H 282.317 0.729099 -2.90902 0
M  V30 3045 H 279.87 0.343495 -1.52479 0
M  V30 3046 H 280.605 2.87769 -1.49531 0
M  V30 3047 H 280.39 2.30235 -3.17387 0
M  V30 3048 H 281.88 3.17718 -2.71007 0
M  V30 3049 N 282.317 1.53212 0.369288 0
M  V30 3050 C 283.542 1.73423 1.1375 0
M  V30 3051 C 283.967 0.460404 1.82378 0
M  V30 3052 O 283.325 -0.585298 1.71592 0
M  V30 3053 C 283.373 2.89769 2.1463 0
M  V30 3054 O 282.477 2.58119 3.21634 0
M  V30 3055 H 281.818 0.576061 0.330227 0
M  V30 3056 H 284.348 2.00083 0.427547 0
M  V30 3057 H 284.358 3.15829 2.58294 0
M  V30 3058 H 283.033 3.8217 1.64071 0
M  V30 3059 H 281.61 2.42864 2.82969 0
M  V30 3060 N 283.795 -0.628877 1.44509 0
M  V30 3061 C 285.042 -1.38839 1.47411 0
M  V30 3062 C 285.37 -1.94202 0.10757 0
M  V30 3063 O 284.625 -1.74243 -0.890947 0
M  V30 3064 C 284.924 -2.56995 2.48371 0
M  V30 3065 C 284.59 -2.19908 3.93639 0
M  V30 3066 C 283.252 -2.09506 4.33198 0
M  V30 3067 C 285.604 -1.9064 4.85083 0
M  V30 3068 C 282.932 -1.68028 5.62124 0
M  V30 3069 C 285.284 -1.50655 6.14399 0
M  V30 3070 C 283.948 -1.38796 6.5291 0
M  V30 3071 H 283.218 -0.508048 0.539414 0
M  V30 3072 H 285.865 -0.712913 1.77735 0
M  V30 3073 H 284.17 -3.29786 2.11538 0
M  V30 3074 H 285.867 -3.15223 2.47861 0
M  V30 3075 H 282.457 -2.28922 3.62343 0
M  V30 3076 H 286.641 -1.97585 4.55273 0
M  V30 3077 H 281.897 -1.57452 5.90778 0
M  V30 3078 H 286.071 -1.27048 6.84713 0
M  V30 3079 H 283.698 -1.06429 7.52713 0
M  V30 3080 N 285.273 -1.31445 -0.869486 0
M  V30 3081 C 286.501 -1.24122 -1.65534 0
M  V30 3082 C 286.916 0.193387 -1.87807 0
M  V30 3083 O 286.273 1.12557 -1.43656 0
M  V30 3084 C 286.324 -1.98229 -3.02304 0
M  V30 3085 O 286.045 -3.3609 -2.81026 0
M  V30 3086 C 287.546 -1.97751 -3.96749 0
M  V30 3087 H 284.766 -0.428868 -0.516055 0
M  V30 3088 H 287.31 -1.73328 -1.08525 0
M  V30 3089 H 285.465 -1.52782 -3.56001 0
M  V30 3090 H 285.879 -3.7383 -3.67902 0
M  V30 3091 H 287.353 -2.54114 -4.90031 0
M  V30 3092 H 287.83 -0.960137 -4.28577 0
M  V30 3093 H 288.436 -2.43079 -3.48988 0
M  V30 3094 N 286.751 1.08385 -1.14413 0
M  V30 3095 C 287.999 1.80419 -0.910679 0
M  V30 3096 C 288.32 1.86658 0.564243 0
M  V30 3097 O 287.59 1.35985 1.41014 0
M  V30 3098 H 286.17 0.668204 -0.333934 0
M  V30 3099 H 288.832 1.31037 -1.44275 0
M  V30 3100 H 287.928 2.83238 -1.31082 0
M  V30 3101 O 288.268 1.07005 1.20964 0
M  V30 3102 H 288.959 0.754737 1.78391 0
M  V30 END ATOM
M  V30 BEGIN BOND
M  V30 END BOND
M  V30 END CTAB
M  END
$$$$
