drugbank_target|Q9HYN5 Fucose-binding lectin PA-IIL (DB02379; DB02561; DB03740)
 OpenBabel12092120243D

  0  0  0     0  0            999 V3000
M  V30 BEGIN CTAB
M  V30 COUNTS 1644 1654 0 0 0
M  V30 BEGIN ATOM
M  V30 1 H -0.908 1.98254 -0.117106 0
M  V30 2 N 0 1.576 0 0
M  V30 3 C 0.933 2.03868 1.02534 0
M  V30 4 C 1.911 0.928543 1.3348 0
M  V30 5 O 3.095 1.19667 1.45644 0
M  V30 6 C 0.222 2.43627 2.35294 0
M  V30 7 C -0.732 3.65373 2.2001 0
M  V30 8 S 0.101 5.13292 1.52614 0
M  V30 9 C 1.257 5.56322 2.86805 0
M  V30 10 H 1.49 2.90518 0.631377 0
M  V30 11 H -0.977 1.52953 0.210867 0
M  V30 12 H 0.981 2.67203 3.11629 0
M  V30 13 H -0.358 1.57376 2.7183 0
M  V30 14 H -1.165 3.90944 3.18086 0
M  V30 15 H -1.563 3.418 1.51819 0
M  V30 16 H 0.729 5.58782 3.83104 0
M  V30 17 H 1.672 6.56266 2.65933 0
M  V30 18 H 2.08 4.83886 2.90714 0
M  V30 19 N 1.4781 -0.272755 1.55222 0
M  V30 20 C 2.4411 -1.32041 1.87344 0
M  V30 21 C 3.4411 -1.42342 0.74803 0
M  V30 22 O 4.6311 -1.41488 1.0162 0
M  V30 23 C 1.7631 -2.70173 2.07893 0
M  V30 24 H 2.9561 -1.04789 2.80997 0
M  V30 25 H 0.5091 -0.51083 1.47717 0
M  V30 26 H 1.2441 -3.02605 1.16622 0
M  V30 27 H 1.0291 -2.64082 2.89833 0
M  V30 28 H 2.5191 -3.45869 2.34017 0
M  V30 29 N 2.9562 -1.48159 -0.537278 0
M  V30 30 C 4.1842 -1.59454 -1.31841 0
M  V30 31 C 4.5992 -0.252065 -1.8711 0
M  V30 32 O 3.9562 0.757621 -1.66031 0
M  V30 33 C 4.0072 -2.63546 -2.47439 0
M  V30 34 O 3.7282 -3.92583 -1.94449 0
M  V30 35 C 5.2292 -2.85212 -3.39366 0
M  V30 36 H 2.4492 -0.53785 -0.401196 0
M  V30 37 H 4.9932 -1.93932 -0.648891 0
M  V30 38 H 3.1482 -2.31946 -3.1029 0
M  V30 39 H 3.5622 -4.49629 -2.70063 0
M  V30 40 H 5.0362 -3.61863 -4.16844 0
M  V30 41 H 5.5132 -1.93765 -3.94147 0
M  V30 42 H 6.1192 -3.18086 -2.82314 0
M  V30 43 N 4.4343 0.785586 -1.36625 0
M  V30 44 C 5.3663 1.90711 -1.2713 0
M  V30 45 C 6.3793 1.61688 -0.189986 0
M  V30 46 O 7.5683 1.72864 -0.445014 0
M  V30 47 C 4.6683 3.25611 -0.939713 0
M  V30 48 C 3.8413 3.82385 -2.12369 0
M  V30 49 C 2.9003 4.95732 -1.76456 0
M  V30 50 O 1.9263 5.12047 -2.48589 0
M  V30 51 N 3.1283 5.76258 -0.700492 0
M  V30 52 H 5.8933 1.99376 -2.23762 0
M  V30 53 H 3.4543 0.964041 -1.30069 0
M  V30 54 H 5.4463 3.98937 -0.680554 0
M  V30 55 H 4.0163 3.12538 -0.0624074 0
M  V30 56 H 3.2363 3.01001 -2.54543 0
M  V30 57 H 4.5243 4.17047 -2.9146 0
M  V30 58 H 3.9223 5.65609 -0.101624 0
M  V30 59 H 2.4793 6.4987 -0.501165 0
M  V30 60 N 5.9124 1.20967 1.01018 0
M  V30 61 C 7.1604 1.02172 1.74371 0
M  V30 62 C 7.4814 -0.446414 1.89821 0
M  V30 63 O 6.7514 -1.32234 1.44537 0
M  V30 64 H 5.3314 0.375066 0.646014 0
M  V30 65 H 7.9934 1.52187 1.21758 0
M  V30 66 H 7.0894 1.48538 2.74487 0
M  V30 67 N 7.3905 -1.2043 1.01659 0
M  V30 68 C 8.6365 -1.90079 0.706963 0
M  V30 69 C 8.9695 -1.78648 -0.761474 0
M  V30 70 O 8.2445 -1.17069 -1.55323 0
M  V30 71 C 8.5275 -3.41469 1.14327 0
M  V30 72 C 8.3805 -3.61833 2.67201 0
M  V30 73 C 9.6995 -4.34261 0.714529 0
M  V30 74 H 6.8185 -0.690254 0.2583 0
M  V30 75 H 9.4605 -1.41826 1.26433 0
M  V30 76 H 7.6105 -3.82696 0.669056 0
M  V30 77 H 9.2825 -3.2986 3.22475 0
M  V30 78 H 7.5255 -3.05304 3.08175 0
M  V30 79 H 8.1965 -4.67955 2.92783 0
M  V30 80 H 10.6725 -4.00682 1.12221 0
M  V30 81 H 9.5485 -5.38806 1.04784 0
M  V30 82 H 9.8095 -4.40431 -0.383799 0
M  V30 83 N 8.8686 -0.792821 -1.36206 0
M  V30 84 C 10.1156 -0.366786 -1.99151 0
M  V30 85 C 10.4436 1.06243 -1.62919 0
M  V30 86 O 9.6986 1.74927 -0.877442 0
M  V30 87 C 9.9976 -0.481501 -3.54142 0
M  V30 88 C 9.6636 -1.87202 -4.10203 0
M  V30 89 C 8.3256 -2.25248 -4.25226 0
M  V30 90 C 10.6776 -2.78237 -4.40719 0
M  V30 91 C 8.0056 -3.53723 -4.68078 0
M  V30 92 C 10.3576 -4.06144 -4.85005 0
M  V30 93 C 9.0216 -4.44207 -4.98234 0
M  V30 94 H 8.2916 -0.134217 -0.728743 0
M  V30 95 H 10.9386 -1.01094 -1.62641 0
M  V30 96 H 9.2436 0.246146 -3.91026 0
M  V30 97 H 10.9406 -0.132844 -4.0078 0
M  V30 98 H 7.5306 -1.56639 -3.98951 0
M  V30 99 H 11.7146 -2.50097 -4.28679 0
M  V30 100 H 6.9706 -3.8308 -4.76508 0
M  V30 101 H 11.1446 -4.76796 -5.07581 0
M  V30 102 H 8.7716 -5.43814 -5.31197 0
M  V30 103 N 10.3467 1.47872 -0.545128 0
M  V30 104 C 11.5747 2.06889 -0.021084 0
M  V30 105 C 11.9897 1.39955 1.2672 0
M  V30 106 O 11.3467 0.492036 1.75742 0
M  V30 107 C 11.3977 3.60996 0.190817 0
M  V30 108 O 11.1187 4.25419 -1.04644 0
M  V30 109 C 12.6197 4.36849 0.753521 0
M  V30 110 H 9.8397 0.669785 -0.0403635 0
M  V30 111 H 12.3837 1.90049 -0.755095 0
M  V30 112 H 10.5387 3.77391 0.87492 0
M  V30 113 H 10.9527 5.17785 -0.836611 0
M  V30 114 H 12.4267 5.45399 0.851139 0
M  V30 115 H 12.9037 4.02306 1.762 0
M  V30 116 H 13.5097 4.25169 0.105503 0
M  V30 117 N 11.8248 0.280983 1.55075 0
M  V30 118 C 12.7548 -0.597469 2.25727 0
M  V30 119 C 13.7358 -1.15417 1.24952 0
M  V30 120 O 14.9208 -1.18722 1.53684 0
M  V30 121 C 12.0508 -1.7789 2.98283 0
M  V30 122 C 11.0048 -1.35347 4.06036 0
M  V30 123 C 10.3308 -2.61846 4.66198 0
M  V30 124 C 11.6308 -0.499354 5.19907 0
M  V30 125 H 13.3248 -0.00824265 2.99399 0
M  V30 126 H 10.8708 -0.0025244 1.44 0
M  V30 127 H 12.8238 -2.39937 3.46422 0
M  V30 128 H 11.5478 -2.39405 2.22155 0
M  V30 129 H 10.2068 -0.756156 3.58717 0
M  V30 130 H 9.8548 -3.21632 3.86732 0
M  V30 131 H 9.5548 -2.3409 5.38958 0
M  V30 132 H 11.0788 -3.24732 5.1709 0
M  V30 133 H 12.4928 -1.02498 5.64063 0
M  V30 134 H 10.8898 -0.316424 5.99265 0
M  V30 135 H 11.9598 0.480459 4.82514 0
M  V30 136 N 13.3029 -1.57598 0.00835791 0
M  V30 137 C 14.7139 -1.7892 -0.53333 0
M  V30 138 C 15.0649 -0.916609 -1.73473 0
M  V30 139 O 14.1899 -0.121336 -2.1606 0
M  V30 140 C 14.7849 -3.24488 -0.974313 0
M  V30 141 C 13.3439 -3.46878 -1.46125 0
M  V30 142 C 12.4909 -2.74157 -0.416302 0
M  V30 143 H 15.4419 -1.56958 0.234495 0
M  V30 144 H 15.4629 -3.3306 -1.83988 0
M  V30 145 H 14.9749 -3.87972 -0.099718 0
M  V30 146 H 13.0759 -2.8862 -2.35646 0
M  V30 147 H 13.1889 -4.55572 -1.48295 0
M  V30 148 H 11.5529 -2.39022 -0.87981 0
M  V30 149 H 12.3359 -3.40345 0.44947 0
M  V30 150 N 14.781 0.264519 -1.55364 0
M  V30 151 C 15.744 1.31046 -1.88042 0
M  V30 152 C 16.744 1.41943 -0.755569 0
M  V30 153 O 17.934 1.40947 -1.02369 0
M  V30 154 C 15.066 2.69067 -2.09323 0
M  V30 155 H 16.259 1.03297 -2.81549 0
M  V30 156 H 13.812 0.502989 -1.47986 0
M  V30 157 H 14.547 3.01982 -1.18226 0
M  V30 158 H 14.332 2.62542 -2.91229 0
M  V30 159 H 15.822 3.44623 -2.35848 0
M  V30 160 N 16.2591 1.48442 0.529413 0
M  V30 161 C 17.2071 1.63452 1.65487 0
M  V30 162 C 18.2011 0.500955 1.61823 0
M  V30 163 O 19.4071 0.679695 1.66674 0
M  V30 164 H 15.7821 0.514905 0.548066 0
M  V30 165 H 17.7531 2.57975 1.49971 0
M  V30 166 C 16.5021 1.69196 3.03756 0
M  V30 167 H 15.8251 2.55784 3.07269 0
M  V30 168 H 17.2651 1.83743 3.82119 0
M  V30 169 C 15.7241 0.430765 3.34135 0
M  V30 170 O 16.2541 -0.4561 3.99102 0
M  V30 171 N 14.4601 0.302293 2.89023 0
M  V30 172 H 14.0071 1.02496 2.36331 0
M  V30 173 H 13.9651 -0.540546 3.09718 0
M  V30 174 N 17.7372 -0.778329 1.37039 0
M  V30 175 C 18.9652 -1.56734 1.35063 0
M  V30 176 C 19.3802 -1.88686 -0.0655597 0
M  V30 177 O 18.7372 -1.5096 -1.02554 0
M  V30 178 C 18.7882 -2.88163 2.18276 0
M  V30 179 O 18.5092 -2.57583 3.54376 0
M  V30 180 C 20.0102 -3.82422 2.24206 0
M  V30 181 H 17.2302 -0.485778 0.462883 0
M  V30 182 H 19.7742 -0.965185 1.8029 0
M  V30 183 H 17.9292 -3.44818 1.76576 0
M  V30 184 H 18.3432 -3.41699 3.97922 0
M  V30 185 H 19.8172 -4.71667 2.86765 0
M  V30 186 H 20.2942 -4.21078 1.24861 0
M  V30 187 H 20.9002 -3.31697 2.6619 0
M  V30 188 N 19.2153 -1.21501 -1.00376 0
M  V30 189 C 20.6313 -0.972629 -1.26539 0
M  V30 190 C 20.8313 0.340257 -1.98606 0
M  V30 191 O 19.8873 1.06561 -2.28913 0
M  V30 192 C 21.2003 -2.16404 -2.08781 0
M  V30 193 C 22.7483 -2.20643 -2.22004 0
M  V30 194 C 23.2233 -3.39306 -3.07629 0
M  V30 195 N 24.7143 -3.39401 -3.15217 0
M  V30 196 C 25.4493 -4.27867 -3.81729 0
M  V30 197 N 24.9453 -5.26533 -4.5026 0
M  V30 198 N 26.7383 -4.15672 -3.78382 0
M  V30 199 H 18.8893 -2.05929 -0.520281 0
M  V30 200 H 21.1523 -0.901803 -0.292328 0
M  V30 201 H 20.8583 -3.11554 -1.63178 0
M  V30 202 H 20.7323 -2.15567 -3.09533 0
M  V30 203 H 23.1193 -1.26048 -2.66825 0
M  V30 204 H 23.2003 -2.25523 -1.20718 0
M  V30 205 H 22.8443 -4.34195 -2.63509 0
M  V30 206 H 22.7743 -3.31665 -4.09031 0
M  V30 207 H 25.2653 -2.67997 -2.66432 0
M  V30 208 H 25.5783 -5.90337 -4.98721 0
M  V30 209 H 23.9233 -5.30457 -4.49044 0
M  V30 210 H 27.1143 -3.3785 -3.23998 0
M  V30 211 H 27.2873 -4.84825 -4.2994 0
M  V30 212 N 20.6934 1.19889 -1.02296 0
M  V30 213 C 21.9404 1.8942 -0.715972 0
M  V30 214 C 22.2684 1.79251 0.754944 0
M  V30 215 O 21.5234 1.17526 1.56481 0
M  V30 216 C 21.8224 3.39883 -1.10518 0
M  V30 217 C 21.4884 3.70254 -2.57337 0
M  V30 218 C 20.1504 3.78254 -2.97452 0
M  V30 219 C 22.5024 3.84052 -3.52354 0
M  V30 220 C 19.8304 3.97514 -4.31509 0
M  V30 221 C 22.1824 4.04824 -4.86108 0
M  V30 222 C 20.8464 4.11054 -5.25919 0
M  V30 223 H 20.1164 0.693138 -0.261993 0
M  V30 224 H 22.7634 1.42012 -1.28472 0
M  V30 225 H 21.0684 3.8915 -0.454953 0
M  V30 226 H 22.7654 3.9199 -0.845261 0
M  V30 227 H 19.3554 3.64632 -2.25258 0
M  V30 228 H 23.5394 3.77221 -3.22518 0
M  V30 229 H 18.7954 4.00574 -4.61898 0
M  V30 230 H 22.9694 4.14442 -5.59653 0
M  V30 231 H 20.5964 4.2573 -6.29808 0
M  V30 232 N 22.1715 0.800033 1.35784 0
M  V30 233 C 23.4195 0.376597 1.9856 0
M  V30 234 C 23.7405 -1.05812 1.63795 0
M  V30 235 O 23.0105 -1.73103 0.917171 0
M  V30 236 H 21.5905 0.136261 0.734467 0
M  V30 237 H 24.2525 1.02442 1.65806 0
M  V30 238 H 23.3485 0.477002 3.08433 0
M  V30 239 N 23.6496 -1.47581 0.552962 0
M  V30 240 C 24.8956 -2.02782 0.0273648 0
M  V30 241 C 25.2286 -1.42687 -1.31734 0
M  V30 242 O 24.5036 -0.580897 -1.85623 0
M  V30 243 C 24.7866 -3.60031 -0.0702371 0
M  V30 244 C 24.6396 -4.30566 1.30126 0
M  V30 245 C 25.9586 -4.33028 -0.785771 0
M  V30 246 H 23.0776 -0.736912 0.0114185 0
M  V30 247 H 25.7196 -1.76056 0.714432 0
M  V30 248 H 23.8696 -3.82932 -0.655382 0
M  V30 249 H 25.5416 -4.19018 1.92929 0
M  V30 250 H 23.7846 -3.91086 1.87709 0
M  V30 251 H 24.4556 -5.39114 1.18573 0
M  V30 252 H 26.9316 -4.15095 -0.288982 0
M  V30 253 H 25.8076 -5.42695 -0.823013 0
M  V30 254 H 26.0686 -4.01945 -1.841 0
M  V30 255 N 25.1277 -0.289203 -1.54924 0
M  V30 256 C 26.3557 0.326463 -2.04308 0
M  V30 257 C 26.7707 1.48413 -1.16701 0
M  V30 258 O 26.1277 1.81507 -0.190087 0
M  V30 259 C 26.1787 0.794014 -3.52672 0
M  V30 260 O 25.8997 -0.317564 -4.36948 0
M  V30 261 C 27.4007 1.47605 -4.18004 0
M  V30 262 H 24.6207 0.0726272 -0.667058 0
M  V30 263 H 27.1647 -0.425401 -2.00026 0
M  V30 264 H 25.3197 1.49593 -3.57352 0
M  V30 265 H 25.7337 0.0443186 -5.24481 0
M  V30 266 H 27.2077 1.75447 -5.23376 0
M  V30 267 H 27.6847 2.41224 -3.67025 0
M  V30 268 H 28.2907 0.81762 -4.17367 0
M  V30 269 N 26.6058 1.57591 -0.0167156 0
M  V30 270 C 27.5688 2.08393 0.954204 0
M  V30 271 C 28.5688 0.996531 1.26198 0
M  V30 272 O 29.7588 1.25858 1.20438 0
M  V30 273 C 26.8908 2.5394 2.27436 0
M  V30 274 H 28.0838 2.95455 0.514451 0
M  V30 275 H 25.6368 1.54582 0.231089 0
M  V30 276 H 26.3718 1.70171 2.76066 0
M  V30 277 H 26.1568 3.33371 2.06412 0
M  V30 278 H 27.6468 2.93512 2.97053 0
M  V30 279 N 28.0839 -0.256276 1.55502 0
M  V30 280 C 29.3309 -0.985619 1.76895 0
M  V30 281 C 29.6589 -1.85671 0.579355 0
M  V30 282 O 28.9139 -1.90744 -0.437651 0
M  V30 283 C 29.2129 -1.88432 3.03691 0
M  V30 284 C 28.8789 -1.16936 4.35473 0
M  V30 285 C 27.5409 -0.97173 4.71286 0
M  V30 286 C 29.8929 -0.661889 5.1698 0
M  V30 287 C 27.2209 -0.254179 5.86149 0
M  V30 288 C 29.5729 0.042149 6.32586 0
M  V30 289 C 28.2369 0.25134 6.67027 0
M  V30 290 H 27.5069 -0.360663 0.647304 0
M  V30 291 H 30.1539 -0.256483 1.89775 0
M  V30 292 H 28.4589 -2.68021 2.85783 0
M  V30 293 H 30.1559 -2.45015 3.1744 0
M  V30 294 H 26.7459 -1.33332 4.07333 0
M  V30 295 H 30.9299 -0.802145 4.89775 0
M  V30 296 H 26.1859 -0.0815408 6.11346 0
M  V30 297 H 30.3599 0.443049 6.94989 0
M  V30 298 H 27.9869 0.809314 7.5588 0
M  V30 299 N 29.562 -1.4872 -0.521534 0
M  V30 300 C 30.525 -1.63379 -1.60748 0
M  V30 301 C 31.525 -0.50661 -1.52611 0
M  V30 302 O 32.715 -0.772601 -1.5613 0
M  V30 303 C 29.847 -1.61192 -3.00383 0
M  V30 304 H 31.04 -2.60217 -1.49087 0
M  V30 305 H 28.593 -1.37444 -0.744235 0
M  V30 306 H 29.328 -0.65863 -3.17541 0
M  V30 307 H 29.113 -2.43032 -3.07698 0
M  V30 308 H 30.603 -1.7466 -3.7932 0
M  V30 309 N 31.0401 0.771051 -1.3745 0
M  V30 310 C 31.9881 1.90574 -1.33358 0
M  V30 311 C 32.9821 1.67936 -0.22224 0
M  V30 312 O 34.1881 1.75717 -0.390304 0
M  V30 313 H 30.5631 0.626714 -0.415612 0
M  V30 314 H 32.5341 1.91142 -2.29144 0
M  V30 315 C 31.2831 3.27845 -1.15813 0
M  V30 316 H 30.6061 3.45842 -2.00583 0
M  V30 317 H 32.0461 4.07538 -1.17 0
M  V30 318 C 30.5051 3.36625 0.136165 0
M  V30 319 O 31.0351 3.85785 1.11949 0
M  V30 320 N 29.2411 2.89997 0.187099 0
M  V30 321 H 28.7881 2.50182 -0.613753 0
M  V30 322 H 28.7461 2.96252 1.05272 0
M  V30 323 N 32.5182 1.22032 0.997298 0
M  V30 324 C 33.7432 1.06921 1.77715 0
M  V30 325 C 34.1682 -0.376226 1.84299 0
M  V30 326 O 33.5262 -1.27165 1.29223 0
M  V30 327 C 33.5742 1.67996 3.19076 0
M  V30 328 O 32.6782 0.930653 4.01762 0
M  V30 329 H 32.0192 0.375814 0.547412 0
M  V30 330 H 34.5492 1.61737 1.25309 0
M  V30 331 H 34.5592 1.72538 3.69723 0
M  V30 332 H 33.2342 2.73182 3.13599 0
M  V30 333 H 31.8112 0.960917 3.60307 0
M  V30 334 N 33.9963 -1.19345 1.0293 0
M  V30 335 C 35.2213 -1.93538 0.745511 0
M  V30 336 C 35.6463 -1.75007 -0.689511 0
M  V30 337 O 35.0043 -1.05265 -1.47611 0
M  V30 338 C 35.0523 -3.43336 1.10239 0
M  V30 339 O 34.1563 -4.11806 0.221289 0
M  V30 340 H 33.4973 -0.604193 0.275404 0
M  V30 341 H 36.0273 -1.5141 1.37609 0
M  V30 342 H 36.0373 -3.94004 1.05947 0
M  V30 343 H 34.7123 -3.56146 2.14786 0
M  V30 344 H 33.2893 -3.715 0.322842 0
M  V30 345 N 35.4744 -0.807222 -1.35358 0
M  V30 346 C 36.7224 -0.387122 -1.98358 0
M  V30 347 C 37.0434 1.04942 -1.64354 0
M  V30 348 O 36.3134 1.72615 -0.926339 0
M  V30 349 H 34.8934 -0.140154 -0.733734 0
M  V30 350 H 37.5554 -1.0332 -1.6526 0
M  V30 351 H 36.6514 -0.493352 -3.08176 0
M  V30 352 N 36.9525 1.47285 -0.560781 0
M  V30 353 C 38.1805 2.06855 -0.0430262 0
M  V30 354 C 38.5955 1.41291 1.25229 0
M  V30 355 O 37.9525 0.510648 1.7521 0
M  V30 356 C 38.0035 3.61178 0.152518 0
M  V30 357 O 37.7245 4.24285 -1.0915 0
M  V30 358 C 39.2255 4.37624 0.707145 0
M  V30 359 H 36.4455 0.669319 -0.0474652 0
M  V30 360 H 38.9895 1.89237 -0.77521 0
M  V30 361 H 37.1445 3.78298 0.834843 0
M  V30 362 H 37.5585 5.16868 -0.891482 0
M  V30 363 H 39.0325 5.46271 0.793244 0
M  V30 364 H 39.5095 4.04152 1.71923 0
M  V30 365 H 40.1155 4.25257 0.0604027 0
M  V30 366 N 38.4306 0.297415 1.54768 0
M  V30 367 C 39.3626 -0.613881 2.20826 0
M  V30 368 C 40.3756 -1.10032 1.19987 0
M  V30 369 O 41.5646 -1.01839 1.46598 0
M  V30 370 C 38.6646 -1.852 2.83821 0
M  V30 371 C 37.8376 -1.50865 4.10559 0
M  V30 372 C 36.8966 -2.60154 4.57391 0
M  V30 373 O 35.9226 -2.25398 5.2267 0
M  V30 374 N 37.1246 -3.90629 4.29406 0
M  V30 375 H 39.8896 -0.048389 2.99661 0
M  V30 376 H 37.4506 0.11946 1.61459 0
M  V30 377 H 39.4426 -2.57652 3.12086 0
M  V30 378 H 38.0126 -2.32597 2.08847 0
M  V30 379 H 37.2326 -0.616925 3.89343 0
M  V30 380 H 38.5206 -1.25458 4.9309 0
M  V30 381 H 37.9186 -4.21677 3.77101 0
M  V30 382 H 36.4756 -4.59391 4.62388 0
M  V30 383 N 39.9087 -1.5758 0.0250728 0
M  V30 384 C 41.1367 -1.9593 -0.664747 0
M  V30 385 C 41.5517 -0.901352 -1.65895 0
M  V30 386 O 40.9087 0.117255 -1.82123 0
M  V30 387 C 40.9597 -3.34342 -1.37468 0
M  V30 388 O 40.6807 -4.36079 -0.420324 0
M  V30 389 C 42.1817 -3.873 -2.1567 0
M  V30 390 H 39.4017 -0.645405 -0.183557 0
M  V30 391 H 41.9457 -2.04329 0.0836372 0
M  V30 392 H 40.1007 -3.27175 -2.0745 0
M  V30 393 H 40.5147 -5.16297 -0.923991 0
M  V30 394 H 41.9887 -4.86504 -2.60803 0
M  V30 395 H 42.4657 -3.21331 -2.99405 0
M  V30 396 H 43.0717 -3.97723 -1.50654 0
M  V30 397 N 41.3868 0.248026 -1.55636 0
M  V30 398 C 42.6328 0.97767 -1.77678 0
M  V30 399 C 42.9658 1.85016 -0.590135 0
M  V30 400 O 42.2408 1.90095 0.411611 0
M  V30 401 C 42.5238 1.83914 -3.09593 0
M  V30 402 C 42.3768 0.99491 -4.38659 0
M  V30 403 C 43.6958 2.82183 -3.37729 0
M  V30 404 H 40.8148 0.354005 -0.646413 0
M  V30 405 H 43.4568 0.248253 -1.88371 0
M  V30 406 H 41.6068 2.46104 -3.00608 0
M  V30 407 H 43.2788 0.391789 -4.59633 0
M  V30 408 H 41.5218 0.299231 -4.32767 0
M  V30 409 H 42.1928 1.63145 -5.2734 0
M  V30 410 H 44.6688 2.30129 -3.4667 0
M  V30 411 H 43.5448 3.39582 -4.31249 0
M  V30 412 H 43.8058 3.58588 -2.58586 0
M  V30 413 N 42.8649 1.48995 0.513639 0
M  V30 414 C 43.8129 1.65199 1.63744 0
M  V30 415 C 44.8069 0.51809 1.61283 0
M  V30 416 O 46.0129 0.697335 1.65943 0
M  V30 417 H 42.3879 0.52069 0.542574 0
M  V30 418 H 44.3589 2.59552 1.47226 0
M  V30 419 C 43.1079 1.72409 3.01945 0
M  V30 420 H 42.4309 2.59029 3.04539 0
M  V30 421 H 43.8709 1.87785 3.80148 0
M  V30 422 C 42.3299 0.46618 3.33659 0
M  V30 423 O 42.8599 -0.413744 3.99564 0
M  V30 424 N 41.0659 0.332931 2.88687 0
M  V30 425 H 40.6129 1.04996 2.35231 0
M  V30 426 H 40.5709 -0.507665 3.10274 0
M  V30 427 N 44.343 -0.763751 1.37857 0
M  V30 428 C 45.589 -1.52483 1.33704 0
M  V30 429 C 45.922 -1.94051 -0.0759612 0
M  V30 430 O 45.197 -1.64675 -1.03501 0
M  V30 431 C 45.48 -2.78441 2.28348 0
M  V30 432 C 45.333 -2.43075 3.78463 0
M  V30 433 C 46.652 -3.80415 2.21298 0
M  V30 434 H 43.771 -0.553169 0.487005 0
M  V30 435 H 46.413 -0.875562 1.68624 0
M  V30 436 H 44.563 -3.33842 1.987 0
M  V30 437 H 46.235 -1.93527 4.18742 0
M  V30 438 H 44.478 -1.75666 3.96641 0
M  V30 439 H 45.149 -3.33149 4.40132 0
M  V30 440 H 47.625 -3.34527 2.47449 0
M  V30 441 H 46.501 -4.66257 2.89647 0
M  V30 442 H 46.762 -4.25262 1.20849 0
M  V30 443 N 45.8211 -1.22559 -0.990812 0
M  V30 444 C 46.7511 -1.0218 -2.09956 0
M  V30 445 C 47.7321 0.0579394 -1.70001 0
M  V30 446 O 48.9171 -0.104684 -1.93918 0
M  V30 447 C 46.0471 -0.601023 -3.4206 0
M  V30 448 C 45.0011 -1.62694 -3.95872 0
M  V30 449 C 44.3271 -1.06193 -5.24049 0
M  V30 450 C 45.6271 -3.01743 -4.2632 0
M  V30 451 H 47.3211 -1.94916 -2.27262 0
M  V30 452 H 44.8671 -0.938566 -1.09211 0
M  V30 453 H 46.8201 -0.445561 -4.19038 0
M  V30 454 H 45.5441 0.362005 -3.24588 0
M  V30 455 H 44.2031 -1.77021 -3.21028 0
M  V30 456 H 43.8511 -0.0901903 -5.02919 0
M  V30 457 H 43.5511 -1.74732 -5.61019 0
M  V30 458 H 45.0751 -0.918092 -6.03658 0
M  V30 459 H 46.4891 -2.90777 -4.94087 0
M  V30 460 H 44.8861 -3.67425 -4.74467 0
M  V30 461 H 45.9561 -3.51518 -3.34011 0
M  V30 462 N 47.2992 1.18797 -1.03562 0
M  V30 463 C 48.5452 1.8893 -0.737113 0
M  V30 464 C 48.8782 1.79837 0.732956 0
M  V30 465 O 48.1532 1.19525 1.5344 0
M  V30 466 C 48.4362 3.39607 -1.19745 0
M  V30 467 C 48.2892 3.57537 -2.72924 0
M  V30 468 C 49.6082 4.33069 -0.783526 0
M  V30 469 H 46.7272 0.686057 -0.269249 0
M  V30 470 H 49.3692 1.39797 -1.28673 0
M  V30 471 H 47.5192 3.81583 -0.729855 0
M  V30 472 H 49.1912 3.24688 -3.27682 0
M  V30 473 H 47.4342 3.00363 -3.12993 0
M  V30 474 H 48.1052 4.63238 -3.00191 0
M  V30 475 H 50.5812 3.98846 -1.18581 0
M  V30 476 H 49.4572 5.3707 -1.13343 0
M  V30 477 H 49.7182 4.40986 0.313681 0
M  V30 478 N 48.7773 0.814389 1.34928 0
M  V30 479 C 49.7253 0.218424 2.31572 0
M  V30 480 C 50.7193 -0.636128 1.57002 0
M  V30 481 O 51.9253 -0.52842 1.72069 0
M  V30 482 H 48.3003 0.0518799 0.750208 0
M  V30 483 H 50.2713 1.04852 2.79372 0
M  V30 484 C 49.0203 -0.61207 3.4227 0
M  V30 485 H 48.3433 0.0361578 3.99784 0
M  V30 486 H 49.7833 -0.995317 4.12152 0
M  V30 487 C 48.2423 -1.78087 2.85984 0
M  V30 488 O 48.7723 -2.8787 2.80168 0
M  V30 489 N 46.9783 -1.59488 2.42924 0
M  V30 490 H 46.5253 -0.701874 2.47854 0
M  V30 491 H 46.4833 -2.37846 2.05613 0
M  V30 492 N 50.2554 -1.46986 0.568584 0
M  V30 493 C 51.2034 -2.31858 -0.185649 0
M  V30 494 C 52.1974 -1.43624 -0.898249 0
M  V30 495 O 53.4034 -1.60327 -0.818242 0
M  V30 496 H 49.7784 -0.747866 -0.0787399 0
M  V30 497 H 51.7494 -2.93303 0.549191 0
M  V30 498 C 50.4984 -3.26513 -1.19519 0
M  V30 499 H 49.8214 -3.94377 -0.656285 0
M  V30 500 H 51.2614 -3.88707 -1.6936 0
M  V30 501 C 49.7204 -2.50847 -2.24894 0
M  V30 502 O 50.2504 -2.26119 -3.32014 0
M  V30 503 N 48.4564 -2.11656 -1.99124 0
M  V30 504 H 48.0034 -2.31966 -1.12024 0
M  V30 505 H 47.9614 -1.61347 -2.69842 0
M  V30 506 N 51.7335 -0.305618 -1.54608 0
M  V30 507 C 52.6435 0.57778 -2.27374 0
M  V30 508 C 53.6595 1.14451 -1.31061 0
M  V30 509 O 54.8355 1.16831 -1.6405 0
M  V30 510 C 51.9005 1.73123 -3.00382 0
M  V30 511 C 50.9615 1.19812 -4.12242 0
M  V30 512 C 50.1945 2.2966 -4.81759 0
M  V30 513 O 50.4175 3.49651 -4.50666 0
M  V30 514 O 49.3515 1.96091 -5.69062 0
M  V30 515 H 53.1775 -0.012624 -3.03697 0
M  V30 516 H 50.7625 -0.0719184 -1.49227 0
M  V30 517 H 52.6445 2.40315 -3.4616 0
M  V30 518 H 51.3195 2.30815 -2.26949 0
M  V30 519 H 50.2265 0.491798 -3.70853 0
M  V30 520 H 51.5595 0.666566 -4.87666 0
M  V30 521 N 53.2116 1.57565 -0.0334293 0
M  V30 522 C 54.4396 1.9628 0.654347 0
M  V30 523 C 54.8546 0.910138 1.65414 0
M  V30 524 O 54.2116 -0.107595 1.82183 0
M  V30 525 C 54.2626 3.35067 1.35693 0
M  V30 526 O 53.9836 4.36296 0.397191 0
M  V30 527 C 55.4846 3.88439 2.13613 0
M  V30 528 H 52.7046 0.646369 0.180132 0
M  V30 529 H 55.2486 2.04282 -0.0944721 0
M  V30 530 H 53.4036 3.2827 2.05712 0
M  V30 531 H 53.8176 5.1678 0.896597 0
M  V30 532 H 55.2916 4.8788 2.58219 0
M  V30 533 H 55.7686 3.22914 2.97696 0
M  V30 534 H 56.3746 3.98516 1.48543 0
M  V30 535 N 54.6897 -0.239769 1.55765 0
M  V30 536 C 55.6527 -1.28038 1.90103 0
M  V30 537 C 56.6527 -1.40723 0.778055 0
M  V30 538 O 57.8427 -1.39301 1.04599 0
M  V30 539 C 54.9747 -2.65702 2.13577 0
M  V30 540 H 56.1677 -0.988048 2.83157 0
M  V30 541 H 53.7207 -0.479382 1.48767 0
M  V30 542 H 54.4557 -3.00063 1.23015 0
M  V30 543 H 54.2407 -2.57875 2.95369 0
M  V30 544 H 55.7307 -3.40828 2.41301 0
M  V30 545 N 56.1678 -1.49265 -0.50573 0
M  V30 546 C 57.1308 -1.65075 -1.59006 0
M  V30 547 C 58.1308 -0.522768 -1.52065 0
M  V30 548 O 59.3208 -0.789117 -1.55302 0
M  V30 549 C 56.4528 -1.64369 -2.98656 0
M  V30 550 H 57.6458 -2.61784 -1.46319 0
M  V30 551 H 55.1988 -1.38226 -0.729616 0
M  V30 552 H 55.9338 -0.692272 -3.16825 0
M  V30 553 H 55.7188 -2.46282 -3.05103 0
M  V30 554 H 57.2088 -1.78674 -3.77446 0
M  V30 555 N 57.6459 0.756429 -1.3826 0
M  V30 556 C 58.8739 1.54565 -1.3754 0
M  V30 557 C 59.2889 1.88767 0.0355331 0
M  V30 558 O 58.6459 1.52572 1.0014 0
M  V30 559 C 58.6969 2.84654 -2.22833 0
M  V30 560 O 58.4179 2.51912 -3.5843 0
M  V30 561 C 59.9189 3.78807 -2.30261 0
M  V30 562 H 57.1389 0.478353 -0.470553 0
M  V30 563 H 59.6829 0.936381 -1.81803 0
M  V30 564 H 57.8379 3.41965 -1.8204 0
M  V30 565 H 58.2519 3.35325 -4.03308 0
M  V30 566 H 59.7259 4.67045 -2.94233 0
M  V30 567 H 60.2029 4.19038 -1.31545 0
M  V30 568 H 60.8089 3.2742 -2.71433 0
M  V30 569 N 59.124 1.23083 0.984299 0
M  V30 570 C 60.371 1.06057 1.72505 0
M  V30 571 C 60.699 -0.403105 1.90277 0
M  V30 572 O 59.954 -1.3149 1.44944 0
M  V30 573 C 60.253 1.72673 3.1292 0
M  V30 574 C 59.919 3.22586 3.15038 0
M  V30 575 C 58.581 3.63489 3.15324 0
M  V30 576 C 60.933 4.185 3.10657 0
M  V30 577 C 58.261 4.98772 3.08939 0
M  V30 578 C 60.613 5.53769 3.05814 0
M  V30 579 C 59.277 5.94041 3.04419 0
M  V30 580 H 58.547 0.388091 0.631242 0
M  V30 581 H 61.194 1.52963 1.15215 0
M  V30 582 H 59.499 1.18116 3.73572 0
M  V30 583 H 61.196 1.56982 3.68996 0
M  V30 584 H 57.786 2.90022 3.15571 0
M  V30 585 H 61.97 3.87911 3.09579 0
M  V30 586 H 57.226 5.29193 3.0621 0
M  V30 587 H 61.4 6.27808 3.0138 0
M  V30 588 H 59.027 6.98833 2.99227 0
M  V30 589 N 60.6021 -1.18246 1.0419 0
M  V30 590 C 61.8271 -1.92736 0.765996 0
M  V30 591 C 62.2521 -1.75728 -0.67091 0
M  V30 592 O 61.6101 -1.06825 -1.46486 0
M  V30 593 C 61.6581 -3.42148 1.13875 0
M  V30 594 O 60.7621 -4.11548 0.264954 0
M  V30 595 H 60.1031 -0.601238 0.281797 0
M  V30 596 H 62.6331 -1.49942 1.39207 0
M  V30 597 H 62.6431 -3.92858 1.1012 0
M  V30 598 H 61.3181 -3.53848 2.18551 0
M  V30 599 H 59.8951 -3.71137 0.362226 0
M  V30 600 N 62.0802 -0.821533 -1.34494 0
M  V30 601 C 63.3282 -0.408139 -1.97936 0
M  V30 602 C 63.6492 1.03193 -1.65457 0
M  V30 603 O 62.9192 1.71622 -0.944595 0
M  V30 604 H 61.4992 -0.147928 -0.732206 0
M  V30 605 H 64.1612 -1.05067 -1.64155 0
M  V30 606 H 63.2572 -0.52601 -3.07635 0
M  V30 607 N 63.5583 1.46682 -0.576371 0
M  V30 608 C 64.4903 2.28341 0.198231 0
M  V30 609 C 65.5033 1.38141 0.861453 0
M  V30 610 O 66.6923 1.62797 0.732082 0
M  V30 611 C 63.7923 3.12986 1.29972 0
M  V30 612 C 62.9653 4.31271 0.729639 0
M  V30 613 C 62.0243 4.97363 1.71803 0
M  V30 614 O 61.0503 5.55156 1.25658 0
M  V30 615 N 62.2523 4.93796 3.05198 0
M  V30 616 H 65.0173 2.9546 -0.502324 0
M  V30 617 H 62.5783 1.56525 -0.413715 0
M  V30 618 H 64.5703 3.54066 1.96008 0
M  V30 619 H 63.1403 2.47984 1.90323 0
M  V30 620 H 62.3603 3.94052 -0.108012 0
M  V30 621 H 63.6483 5.07739 0.328438 0
M  V30 622 H 63.0463 4.48077 3.45317 0
M  V30 623 H 61.6033 5.38837 3.6674 0
M  V30 624 N 65.0364 0.313813 1.54444 0
M  V30 625 C 66.2614 -0.296681 2.05267 0
M  V30 626 C 66.6864 -1.45757 1.18897 0
M  V30 627 O 66.0444 -1.80239 0.195886 0
M  V30 628 C 66.0924 -0.71831 3.53373 0
M  V30 629 O 65.1964 -1.82175 3.69981 0
M  V30 630 H 64.5374 -0.0554061 0.661684 0
M  V30 631 H 67.0674 0.459387 1.99376 0
M  V30 632 H 67.0774 -1.00364 3.95463 0
M  V30 633 H 65.7524 0.130821 4.15694 0
M  V30 634 H 64.3294 -1.53598 3.39797 0
M  V30 635 N 66.5145 -1.57545 0.0417849 0
M  V30 636 C 67.7425 -1.96624 -0.643928 0
M  V30 637 C 68.1575 -0.918897 -1.64929 0
M  V30 638 O 67.5145 0.0979323 -1.82237 0
M  V30 639 C 67.5655 -3.35781 -1.33914 0
M  V30 640 O 67.2865 -4.365 -0.374048 0
M  V30 641 C 68.7875 -3.89566 -2.1155 0
M  V30 642 H 66.0075 -0.647316 -0.176702 0
M  V30 643 H 68.5515 -2.04229 0.105304 0
M  V30 644 H 66.7065 -3.29357 -2.03968 0
M  V30 645 H 67.1205 -5.17248 -0.869179 0
M  V30 646 H 68.5945 -4.89242 -2.55628 0
M  V30 647 H 69.0715 -3.24488 -2.9598 0
M  V30 648 H 69.6775 -3.99298 -1.46427 0
M  V30 649 N 67.9926 0.231505 -1.5589 0
M  V30 650 C 68.9406 1.30649 -1.92441 0
M  V30 651 C 69.9346 1.49037 -0.805254 0
M  V30 652 O 71.1406 1.50329 -0.990007 0
M  V30 653 H 67.5156 0.437812 -0.611412 0
M  V30 654 H 69.4866 0.970973 -2.82161 0
M  V30 655 C 68.2356 2.65179 -2.24889 0
M  V30 656 H 67.5586 2.51835 -3.10514 0
M  V30 657 H 68.9986 3.39234 -2.54355 0
M  V30 658 C 67.4576 3.19439 -1.07054 0
M  V30 659 O 67.9876 4.00371 -0.326499 0
M  V30 660 N 66.1936 2.77675 -0.85703 0
M  V30 661 H 65.7406 2.11969 -1.46379 0
M  V30 662 H 65.6986 3.14321 -0.0703223 0
M  V30 663 N 69.4707 1.49531 0.497807 0
M  V30 664 C 70.4187 1.66926 1.61983 0
M  V30 665 C 71.4127 0.535167 1.60724 0
M  V30 666 O 72.6187 0.714896 1.65195 0
M  V30 667 H 68.9937 0.526415 0.537021 0
M  V30 668 H 70.9647 2.61098 1.44465 0
M  V30 669 C 69.7137 1.75602 3.00099 0
M  V30 670 H 69.0367 2.62244 3.01775 0
M  V30 671 H 70.4767 1.91807 3.78135 0
M  V30 672 C 68.9357 0.501543 3.33146 0
M  V30 673 O 69.4657 -0.371342 3.9998 0
M  V30 674 N 67.6717 0.363531 2.88317 0
M  V30 675 H 67.2187 1.07485 2.34104 0
M  V30 676 H 67.1767 -0.474728 3.10795 0
M  V30 677 N 70.9488 -0.749086 1.3866 0
M  V30 678 C 71.9118 -1.84457 1.36045 0
M  V30 679 C 72.9118 -1.58682 0.260122 0
M  V30 680 O 74.1018 -1.66343 0.517261 0
M  V30 681 C 71.2338 -3.22008 1.11911 0
M  V30 682 H 72.4268 -1.88182 2.33512 0
M  V30 683 H 69.9798 -0.951266 1.24019 0
M  V30 684 H 70.7148 -3.2395 0.150686 0
M  V30 685 H 70.4998 -3.42111 1.91579 0
M  V30 686 H 71.9898 -4.0208 1.12788 0
M  V30 687 N 72.4269 -1.23603 -0.977757 0
M  V30 688 C 73.6729 -1.07129 -1.72195 0
M  V30 689 C 74.0059 0.390501 -1.90233 0
M  V30 690 O 73.2809 1.28902 -1.45653 0
M  V30 691 C 73.5639 -1.80031 -3.11867 0
M  V30 692 C 73.4169 -3.33899 -3.01383 0
M  V30 693 C 74.7359 -1.56492 -4.11337 0
M  V30 694 H 71.8549 -0.390571 -0.624999 0
M  V30 695 H 74.4969 -1.52142 -1.13811 0
M  V30 696 H 72.6469 -1.41768 -3.6171 0
M  V30 697 H 74.3189 -3.81699 -2.59043 0
M  V30 698 H 72.5619 -3.62796 -2.37827 0
M  V30 699 H 73.2329 -3.801 -4.00285 0
M  V30 700 H 75.7089 -1.89757 -3.70313 0
M  V30 701 H 74.5849 -2.09973 -5.07151 0
M  V30 702 H 74.8459 -0.500874 -4.39254 0
M  V30 703 N 73.905 1.17692 -1.04816 0
M  V30 704 C 75.154 1.87192 -0.751132 0
M  V30 705 C 75.467 1.8169 0.724441 0
M  V30 706 O 76.673 2.46625 1.13527 0
M  V30 707 C 75.129 3.35857 -1.29338 0
M  V30 708 C 74.737 3.4987 -2.79812 0
M  V30 709 C 76.481 4.10709 -1.07322 0
M  V30 710 C 74.388 4.92536 -3.27356 0
M  V30 711 H 73.318 0.701162 -0.277288 0
M  V30 712 H 75.969 1.32932 -1.26496 0
M  V30 713 H 74.351 3.89631 -0.707376 0
M  V30 714 H 75.525 3.06332 -3.44235 0
M  V30 715 H 73.84 2.88433 -3.00325 0
M  V30 716 H 76.437 5.15952 -1.4035 0
M  V30 717 H 76.78 4.16299 -0.0108001 0
M  V30 718 H 77.313 3.6313 -1.62423 0
M  V30 719 H 74.052 4.92119 -4.33012 0
M  V30 720 H 73.572 5.3676 -2.67673 0
M  V30 721 H 75.251 5.61288 -3.21815 0
M  V30 722 N 75.3831 0.828654 1.34056 0
M  V30 723 C 76.6311 0.41863 1.97717 0
M  V30 724 C 76.9521 -1.02314 1.66002 0
M  V30 725 O 76.2221 -1.71119 0.953683 0
M  V30 726 H 74.8021 0.151809 0.731412 0
M  V30 727 H 77.4641 1.05936 1.63596 0
M  V30 728 H 76.5601 0.542318 3.07352 0
M  V30 729 N 76.8612 -1.46375 0.584142 0
M  V30 730 C 78.0892 -2.06761 0.0759296 0
M  V30 731 C 78.5042 -1.43266 -1.22965 0
M  V30 732 O 77.8612 -0.538458 -1.74376 0
M  V30 733 C 77.9122 -3.61375 -0.0950384 0
M  V30 734 O 77.6332 -4.22495 1.15887 0
M  V30 735 C 79.1342 -4.38693 -0.637434 0
M  V30 736 H 76.3542 -0.668479 0.0581075 0
M  V30 737 H 78.8982 -1.8798 0.805218 0
M  V30 738 H 77.0532 -3.79578 -0.774554 0
M  V30 739 H 77.4672 -5.15385 0.973598 0
M  V30 740 H 78.9412 -5.47464 -0.706237 0
M  V30 741 H 79.4182 -4.06836 -1.65472 0
M  V30 742 H 80.0242 -4.25299 0.00725967 0
M  V30 743 N 78.3393 -0.321999 -1.54275 0
M  V30 744 C 79.2713 0.578671 -2.21775 0
M  V30 745 C 80.2843 1.08109 -1.21722 0
M  V30 746 O 81.4733 0.994938 -1.482 0
M  V30 747 C 78.5733 1.80661 -2.86731 0
M  V30 748 C 77.7463 1.44314 -4.12907 0
M  V30 749 C 76.8053 2.52845 -4.61472 0
M  V30 750 O 75.8313 2.17054 -5.2619 0
M  V30 751 N 77.0333 3.83748 -4.35566 0
M  V30 752 H 79.7983 0.000709447 -2.997 0
M  V30 753 H 77.3593 -0.145132 -1.61248 0
M  V30 754 H 79.3513 2.52655 -3.16145 0
M  V30 755 H 77.9213 2.29245 -2.12521 0
M  V30 756 H 77.1413 0.554906 -3.90275 0
M  V30 757 H 78.4293 1.17598 -4.95023 0
M  V30 758 H 77.8273 4.15625 -3.83761 0
M  V30 759 H 76.3843 4.51977 -4.69638 0
M  V30 760 N 79.8174 1.5752 -0.0501392 0
M  V30 761 C 81.0634 1.92936 0.624798 0
M  V30 762 C 81.3964 0.928685 1.70555 0
M  V30 763 O 80.6714 -0.0454779 1.94447 0
M  V30 764 C 80.9544 3.38737 1.22185 0
M  V30 765 C 80.8074 4.49552 0.149218 0
M  V30 766 C 82.1264 3.84913 2.13378 0
M  V30 767 H 79.2454 0.701604 0.225657 0
M  V30 768 H 81.8874 1.89671 -0.111693 0
M  V30 769 H 80.0374 3.4165 1.84953 0
M  V30 770 H 81.7094 4.58768 -0.482648 0
M  V30 771 H 79.9524 4.30638 -0.522841 0
M  V30 772 H 80.6234 5.48653 0.606966 0
M  V30 773 H 83.0994 3.8387 1.60572 0
M  V30 774 H 81.9754 4.87584 2.52097 0
M  V30 775 H 82.2364 3.21611 3.03346 0
M  V30 776 N 81.2955 -0.223234 1.56011 0
M  V30 777 C 82.2255 -1.27988 1.95298 0
M  V30 778 C 83.2065 -1.48976 0.820979 0
M  V30 779 O 84.3915 -1.61188 1.08315 0
M  V30 780 C 81.5215 -2.63 2.26822 0
M  V30 781 C 80.4755 -2.56671 3.42497 0
M  V30 782 C 79.8015 -3.95697 3.59622 0
M  V30 783 C 81.1015 -2.11601 4.77517 0
M  V30 784 H 82.7955 -0.953525 2.8381 0
M  V30 785 H 80.3415 -0.457244 1.36548 0
M  V30 786 H 82.2945 -3.37077 2.52898 0
M  V30 787 H 81.0185 -2.9732 1.35161 0
M  V30 788 H 79.6775 -1.85051 3.16467 0
M  V30 789 H 79.3255 -4.27322 2.6534 0
M  V30 790 H 79.0255 -3.92345 4.37424 0
M  V30 791 H 80.5495 -4.71438 3.88044 0
M  V30 792 H 81.9635 -2.7542 5.02809 0
M  V30 793 H 80.3605 -2.19311 5.5859 0
M  V30 794 H 81.4305 -1.06824 4.72987 0
M  V30 795 N 82.7736 -1.49793 -0.48987 0
M  V30 796 C 83.7216 -1.67783 -1.61095 0
M  V30 797 C 84.7156 -0.543683 -1.60438 0
M  V30 798 O 85.9216 -0.723647 -1.64813 0
M  V30 799 H 82.2966 -0.529255 -0.534222 0
M  V30 800 H 84.2676 -2.61861 -1.43078 0
M  V30 801 C 83.0166 -1.77191 -2.99164 0
M  V30 802 H 82.3396 -2.63841 -3.0038 0
M  V30 803 H 83.7796 -1.93809 -3.77113 0
M  V30 804 C 82.2386 -0.519203 -3.32875 0
M  V30 805 O 82.7686 0.350124 -4.00171 0
M  V30 806 N 80.9746 -0.378816 -2.8812 0
M  V30 807 H 80.5216 -1.08725 -2.33531 0
M  V30 808 H 80.4796 0.458239 -3.11043 0
M  V30 809 N 84.2517 0.741722 -1.39055 0
M  V30 810 C 85.4767 1.53607 -1.39354 0
M  V30 811 C 85.9017 1.88096 0.0116905 0
M  V30 812 O 85.2597 1.5143 0.996924 0
M  V30 813 C 85.3077 2.80441 -2.26682 0
M  V30 814 O 84.4117 3.76088 -1.69208 0
M  V30 815 H 83.7527 0.464142 -0.474835 0
M  V30 816 H 86.2827 0.915665 -1.82967 0
M  V30 817 H 86.2927 3.29246 -2.40959 0
M  V30 818 H 84.9677 2.5467 -3.2881 0
M  V30 819 H 83.5447 3.34833 -1.64138 0
M  V30 820 N 85.7298 1.2412 0.971189 0
M  V30 821 C 86.9778 1.07668 1.71032 0
M  V30 822 C 87.2988 -0.385797 1.91146 0
M  V30 823 O 86.5688 -1.27569 1.4867 0
M  V30 824 H 85.1488 0.395429 0.633755 0
M  V30 825 H 87.8108 1.55984 1.16855 0
M  V30 826 H 86.9068 1.57195 2.69622 0
M  V30 827 N 87.2079 -1.17134 1.05439 0
M  V30 828 C 88.4329 -1.91913 0.786396 0
M  V30 829 C 88.8579 -1.7643 -0.652234 0
M  V30 830 O 88.2159 -1.08372 -1.45345 0
M  V30 831 C 88.2639 -3.40921 1.17497 0
M  V30 832 O 87.3679 -4.11244 0.308589 0
M  V30 833 H 86.7089 -0.598215 0.288158 0
M  V30 834 H 89.2389 -1.48457 1.4079 0
M  V30 835 H 89.2489 -3.91668 1.14281 0
M  V30 836 H 87.9239 -3.5151 2.22292 0
M  V30 837 H 86.5009 -3.70731 0.40157 0
M  V30 838 N 88.686 -0.835752 -1.33615 0
M  V30 839 C 89.911 -0.442389 -2.02627 0
M  V30 840 C 90.336 0.947735 -1.62479 0
M  V30 841 O 89.694 1.61907 -0.815826 0
M  V30 842 C 89.742 -0.567216 -3.56111 0
M  V30 843 O 88.846 0.407799 -4.10379 0
M  V30 844 H 88.187 -0.180278 -0.639059 0
M  V30 845 H 90.717 -1.12972 -1.70583 0
M  V30 846 H 90.727 -0.447708 -4.05536 0
M  V30 847 H 89.402 -1.58103 -3.84677 0
M  V30 848 H 87.979 0.246107 -3.72087 0
M  V30 849 N 90.1641 1.46063 -0.591896 0
M  V30 850 C 91.4121 2.01938 -0.0808391 0
M  V30 851 C 91.7331 1.46475 1.28725 0
M  V30 852 O 91.0031 0.652944 1.84698 0
M  V30 853 H 89.5831 0.746516 -0.0268938 0
M  V30 854 H 92.2451 1.79055 -0.769752 0
M  V30 855 H 91.3411 3.12094 -0.0187578 0
M  V30 856 N 91.6422 0.330177 1.54103 0
M  V30 857 C 92.5892 -0.532762 2.24567 0
M  V30 858 C 93.5592 -1.10635 1.23892 0
M  V30 859 O 94.7442 -1.14546 1.5259 0
M  V30 860 C 91.8842 -1.6845 3.01195 0
M  V30 861 C 90.9972 -1.13951 4.167 0
M  V30 862 C 90.1322 -2.25746 4.80845 0
M  V30 863 C 89.1712 -1.6853 5.88442 0
M  V30 864 N 88.3082 -2.74014 6.46421 0
M  V30 865 H 93.1482 0.0746905 2.97906 0
M  V30 866 H 90.6852 0.048632 1.4702 0
M  V30 867 H 92.6432 -2.36234 3.43874 0
M  V30 868 H 91.2732 -2.26314 2.30178 0
M  V30 869 H 90.3252 -0.35301 3.78758 0
M  V30 870 H 91.6372 -0.680892 4.94131 0
M  V30 871 H 90.7912 -3.01422 5.26526 0
M  V30 872 H 89.5302 -2.74947 4.0281 0
M  V30 873 H 88.5352 -0.913543 5.42157 0
M  V30 874 H 89.7602 -1.20198 6.68378 0
M  V30 875 H 87.7062 -3.22494 5.71256 0
M  V30 876 H 87.6232 -2.32735 7.19285 0
M  V30 877 H 88.8912 -3.49499 6.96757 0
M  V30 878 N 93.1203 -1.57491 0.0584922 0
M  V30 879 C 94.3663 -1.93264 -0.614558 0
M  V30 880 C 94.6993 -0.937717 -1.7006 0
M  V30 881 O 93.9743 0.0351652 -1.94468 0
M  V30 882 C 94.2573 -3.3938 -1.20386 0
M  V30 883 C 94.1103 -4.49625 -0.125375 0
M  V30 884 C 95.4293 -3.86039 -2.11334 0
M  V30 885 H 92.5483 -0.702791 -0.221933 0
M  V30 886 H 95.1903 -1.8961 0.12175 0
M  V30 887 H 93.3403 -3.42626 -1.83139 0
M  V30 888 H 95.0123 -4.58506 0.506971 0
M  V30 889 H 93.2553 -4.30354 0.545672 0
M  V30 890 H 93.9263 -5.48967 -0.577861 0
M  V30 891 H 96.4023 -3.84716 -1.58534 0
M  V30 892 H 95.2783 -4.88914 -2.49507 0
M  V30 893 H 95.5393 -3.23215 -3.01636 0
M  V30 894 N 94.5984 0.214957 -1.56127 0
M  V30 895 C 95.5304 1.29004 -1.89448 0
M  V30 896 C 96.5434 1.42716 -0.783326 0
M  V30 897 O 97.7324 1.43496 -1.06166 0
M  V30 898 C 94.8324 2.66482 -2.09381 0
M  V30 899 C 94.0054 2.74633 -3.40434 0
M  V30 900 C 93.0644 3.9317 -3.49719 0
M  V30 901 O 92.0904 3.812 -4.227 0
M  V30 902 N 93.2924 5.07765 -2.81346 0
M  V30 903 H 96.0574 1.00743 -2.82261 0
M  V30 904 H 93.6184 0.40497 -1.56753 0
M  V30 905 H 95.6104 3.44173 -2.12901 0
M  V30 906 H 94.1804 2.87314 -1.23163 0
M  V30 907 H 93.4004 1.83368 -3.48955 0
M  V30 908 H 94.6884 2.77054 -4.26754 0
M  V30 909 H 94.0864 5.20386 -2.21843 0
M  V30 910 H 92.6434 5.83474 -2.90519 0
M  V30 911 N 96.0765 1.50051 0.48192 0
M  V30 912 C 97.3225 1.60736 1.2366 0
M  V30 913 C 97.6555 0.301786 1.91841 0
M  V30 914 O 96.9305 -0.696025 1.8162 0
M  V30 915 C 97.2135 2.78009 2.28874 0
M  V30 916 C 97.0665 4.18416 1.65069 0
M  V30 917 C 98.3855 2.90867 3.30279 0
M  V30 918 H 95.5045 0.585031 0.448228 0
M  V30 919 H 98.1465 1.82402 0.531946 0
M  V30 920 H 96.2965 2.59667 2.88973 0
M  V30 921 H 97.9685 4.48322 1.0865 0
M  V30 922 H 96.2115 4.23177 0.954148 0
M  V30 923 H 96.8825 4.96381 2.41474 0
M  V30 924 H 99.3585 3.07623 2.80191 0
M  V30 925 H 98.2345 3.74566 4.01238 0
M  V30 926 H 98.4955 2.01021 3.93755 0
M  V30 927 N 97.5546 -0.734337 1.39446 0
M  V30 928 C 98.4866 -1.85861 1.34121 0
M  V30 929 C 99.4996 -1.60871 0.249864 0
M  V30 930 O 100.689 -1.71093 0.508865 0
M  V30 931 C 97.7886 -3.21899 1.05991 0
M  V30 932 C 96.9616 -3.74239 2.26415 0
M  V30 933 C 96.0206 -4.88841 1.94733 0
M  V30 934 O 95.0466 -5.02468 2.67422 0
M  V30 935 N 96.2486 -5.73261 0.913884 0
M  V30 936 H 99.0136 -1.90934 2.31007 0
M  V30 937 H 96.5746 -0.915102 1.33557 0
M  V30 938 H 98.5666 -3.96136 0.828147 0
M  V30 939 H 97.1366 -3.12091 0.178361 0
M  V30 940 H 96.3566 -2.91347 2.65539 0
M  V30 941 H 97.6446 -4.05942 3.06738 0
M  V30 942 H 97.0426 -5.64842 0.311476 0
M  V30 943 H 95.5996 -6.47563 0.742015 0
M  V30 944 N 99.0327 -1.24633 -0.964593 0
M  V30 945 C 100.279 -1.08949 -1.71049 0
M  V30 946 C 100.612 0.370302 -1.90637 0
M  V30 947 O 99.8867 1.27349 -1.47011 0
M  V30 948 C 100.17 -1.83329 -3.0994 0
M  V30 949 C 100.023 -3.37077 -2.97824 0
M  V30 950 C 101.342 -1.60846 -4.09654 0
M  V30 951 H 98.4607 -0.397178 -0.620821 0
M  V30 952 H 101.103 -1.5334 -1.12191 0
M  V30 953 H 99.2527 -1.45597 -3.60186 0
M  V30 954 H 100.925 -3.84425 -2.5498 0
M  V30 955 H 99.1677 -3.65298 -2.33965 0
M  V30 956 H 99.8387 -3.84324 -3.96231 0
M  V30 957 H 102.315 -1.93674 -3.68279 0
M  V30 958 H 101.191 -2.1534 -5.04896 0
M  V30 959 H 101.452 -0.547434 -4.38698 0
M  V30 960 N 100.511 1.16574 -1.06058 0
M  V30 961 C 101.736 1.91493 -0.796562 0
M  V30 962 C 102.161 1.76773 0.642868 0
M  V30 963 O 101.519 1.09142 1.44768 0
M  V30 964 C 101.567 3.40293 -1.19303 0
M  V30 965 O 100.671 4.11074 -0.330394 0
M  V30 966 H 100.012 0.596678 -0.291326 0
M  V30 967 H 102.542 1.47708 -1.41575 0
M  V30 968 H 102.552 3.91057 -1.16356 0
M  V30 969 H 101.227 3.50326 -2.24153 0
M  V30 970 H 99.8038 3.70513 -0.421225 0
M  V30 971 N 101.989 0.842826 1.3317 0
M  V30 972 C 103.235 0.441099 1.97945 0
M  V30 973 C 103.568 -0.998024 1.66593 0
M  V30 974 O 102.843 -1.69839 0.947898 0
M  V30 975 C 103.126 0.666841 3.53872 0
M  V30 976 C 102.979 2.15352 3.94897 0
M  V30 977 C 104.298 0.115544 4.39948 0
M  V30 978 H 101.417 0.161739 0.719034 0
M  V30 979 H 104.059 1.05907 1.57746 0
M  V30 980 H 102.209 0.140828 3.88245 0
M  V30 981 H 103.881 2.7447 3.70761 0
M  V30 982 H 102.124 2.63653 3.44484 0
M  V30 983 H 102.795 2.26221 5.03516 0
M  V30 984 H 105.271 0.565213 4.12243 0
M  V30 985 H 104.147 0.303152 5.48062 0
M  V30 986 H 104.408 -0.980935 4.3108 0
M  V30 987 N 103.467 -1.45747 0.599634 0
M  V30 988 C 104.415 -2.322 -0.136426 0
M  V30 989 C 105.409 -1.45497 -0.867583 0
M  V30 990 O 106.615 -1.62027 -0.78405 0
M  V30 991 H 102.99 -0.749368 -0.0628588 0
M  V30 992 H 104.961 -2.92072 0.611281 0
M  V30 993 C 103.71 -3.28974 -1.12567 0
M  V30 994 H 103.033 -3.9568 -0.572484 0
M  V30 995 H 104.473 -3.92212 -1.61077 0
M  V30 996 C 102.932 -2.55561 -2.19523 0
M  V30 997 O 103.462 -2.33111 -3.27143 0
M  V30 998 N 101.668 -2.15832 -1.94589 0
M  V30 999 H 101.215 -2.3429 -1.07078 0
M  V30 1000 H 101.173 -1.67034 -2.66359 0
M  V30 1001 N 104.945 -0.338344 -1.53925 0
M  V30 1002 C 106.193 0.259245 -2.0043 0
M  V30 1003 C 106.514 1.51484 -1.22791 0
M  V30 1004 O 105.784 1.93037 -0.33368 0
M  V30 1005 H 104.364 0.0987845 -0.740439 0
M  V30 1006 H 107.026 -0.458302 -1.89435 0
M  V30 1007 H 106.122 0.505334 -3.07982 0
M  V30 1008 N 106.423 1.57458 -0.0668435 0
M  V30 1009 C 107.839 1.56947 0.289772 0
M  V30 1010 C 108.039 1.07584 1.70376 0
M  V30 1011 O 107.095 0.739486 2.41429 0
M  V30 1012 C 108.408 3.0052 0.103943 0
M  V30 1013 C 109.956 3.12517 0.173857 0
M  V30 1014 C 110.431 4.57997 0.0163682 0
M  V30 1015 N 111.922 4.63144 0.0721352 0
M  V30 1016 C 112.657 5.73394 -0.0253794 0
M  V30 1017 N 112.153 6.92576 -0.176133 0
M  V30 1018 N 113.946 5.62091 0.0313305 0
M  V30 1019 H 106.097 1.87863 -0.991027 0
M  V30 1020 H 108.36 0.86583 -0.38606 0
M  V30 1021 H 108.066 3.40729 -0.871572 0
M  V30 1022 H 107.94 3.67304 0.858366 0
M  V30 1023 H 110.327 2.72197 1.13985 0
M  V30 1024 H 110.408 2.48381 -0.611586 0
M  V30 1025 H 110.052 4.99005 -0.946374 0
M  V30 1026 H 109.982 5.20158 0.821153 0
M  V30 1027 H 112.473 3.77436 0.187263 0
M  V30 1028 H 112.786 7.72418 -0.242821 0
M  V30 1029 H 111.131 6.94678 -0.211429 0
M  V30 1030 H 114.322 4.67867 0.147773 0
M  V30 1031 H 114.495 6.47982 -0.048121 0
M  V30 1032 N 107.901 -0.206675 1.56239 0
M  V30 1033 C 109.312 -0.772383 1.69974 0
M  V30 1034 C 109.663 -1.84353 0.671436 0
M  V30 1035 O 108.788 -2.15695 -0.174491 0
M  V30 1036 C 109.383 -1.40779 3.08167 0
M  V30 1037 C 107.942 -1.92072 3.23706 0
M  V30 1038 C 107.089 -0.786347 2.65917 0
M  V30 1039 H 110.04 0.0182223 1.5869 0
M  V30 1040 H 110.061 -2.27696 3.04852 0
M  V30 1041 H 109.573 -0.627958 3.82986 0
M  V30 1042 H 107.674 -2.7281 2.53782 0
M  V30 1043 H 107.787 -2.09046 4.31087 0
M  V30 1044 H 106.151 -1.1976 2.24788 0
M  V30 1045 H 106.934 -0.0189416 3.43295 0
M  V30 1046 N 109.379 -1.50304 -0.473955 0
M  V30 1047 C 110.604 -1.65175 -1.25427 0
M  V30 1048 C 111.029 -0.333673 -1.85117 0
M  V30 1049 O 110.387 0.702114 -1.67153 0
M  V30 1050 C 110.435 -2.74295 -2.34082 0
M  V30 1051 O 109.539 -2.35349 -3.38651 0
M  V30 1052 H 108.88 -0.551944 -0.369126 0
M  V30 1053 H 111.41 -1.96662 -0.564364 0
M  V30 1054 H 111.42 -2.97285 -2.79438 0
M  V30 1055 H 110.095 -3.69959 -1.90008 0
M  V30 1056 H 108.672 -2.22794 -2.99027 0
M  V30 1057 N 110.857 0.726932 -1.39834 0
M  V30 1058 C 112.134 1.47902 -1.28001 0
M  V30 1059 C 112.514 2.1083 0.106789 0
M  V30 1060 O 111.862 1.99242 1.11869 0
M  V30 1061 C 112.072 2.52392 -2.41038 0
M  V30 1062 C 113.42 3.18546 -2.80737 0
M  V30 1063 O 114.444 2.62708 -2.40547 0
M  V30 1064 O 113.303 4.19604 -3.50135 0
M  V30 1065 H 110.397 0.657163 -0.502062 0
M  V30 1066 H 112.943 0.760071 -1.51727 0
M  V30 1067 H 111.715 2.04329 -3.33715 0
M  V30 1068 H 111.338 3.31837 -2.19021 0
M  V30 1069 N 112.336 1.25143 0.95797 0
M  V30 1070 C 113.266 1.07711 2.07173 0
M  V30 1071 C 114.247 -0.0128462 1.70095 0
M  V30 1072 O 115.432 0.156061 1.93572 0
M  V30 1073 C 112.562 0.691503 3.40346 0
M  V30 1074 C 111.516 1.73132 3.9142 0
M  V30 1075 C 110.842 1.20049 5.21049 0
M  V30 1076 C 112.142 3.1294 4.1817 0
M  V30 1077 H 113.836 2.00873 2.22014 0
M  V30 1078 H 111.382 0.967191 1.06684 0
M  V30 1079 H 113.335 0.556505 4.17709 0
M  V30 1080 H 112.059 -0.275819 3.25433 0
M  V30 1081 H 110.718 1.8547 3.16222 0
M  V30 1082 H 110.366 0.223499 5.02503 0
M  V30 1083 H 110.066 1.89545 5.56189 0
M  V30 1084 H 111.59 1.07782 6.01012 0
M  V30 1085 H 113.004 3.03775 4.86203 0
M  V30 1086 H 111.401 3.79875 4.64559 0
M  V30 1087 H 112.471 3.6025 3.24573 0
M  V30 1088 N 113.814 -1.1601 1.06675 0
M  V30 1089 C 115.06 -1.86909 0.786945 0
M  V30 1090 C 115.393 -1.81717 -0.685018 0
M  V30 1091 O 114.668 -1.23551 -1.50218 0
M  V30 1092 C 114.951 -3.36313 1.28707 0
M  V30 1093 C 114.804 -3.50175 2.82308 0
M  V30 1094 C 116.123 -4.3084 0.898071 0
M  V30 1095 H 113.242 -0.678677 0.287343 0
M  V30 1096 H 115.884 -1.36336 1.32334 0
M  V30 1097 H 114.034 -3.79513 0.830768 0
M  V30 1098 H 115.706 -3.15886 3.36175 0
M  V30 1099 H 113.949 -2.91959 3.20847 0
M  V30 1100 H 114.62 -4.55116 3.12368 0
M  V30 1101 H 117.096 -3.95561 1.29114 0
M  V30 1102 H 115.972 -5.33876 1.27543 0
M  V30 1103 H 116.233 -4.41662 -0.196651 0
M  V30 1104 N 115.292 -0.849877 -1.32721 0
M  V30 1105 C 116.517 -0.463856 -2.02146 0
M  V30 1106 C 116.942 0.930449 -1.63476 0
M  V30 1107 O 116.3 1.61033 -0.832952 0
M  V30 1108 C 116.348 -0.604955 -3.55489 0
M  V30 1109 O 115.452 0.36425 -4.10788 0
M  V30 1110 H 114.793 -0.187046 -0.637111 0
M  V30 1111 H 117.323 -1.14775 -1.69375 0
M  V30 1112 H 117.333 -0.490696 -4.05038 0
M  V30 1113 H 116.008 -1.62174 -3.82978 0
M  V30 1114 H 114.585 0.206628 -3.72327 0
M  V30 1115 N 116.77 1.45427 -0.607355 0
M  V30 1116 C 117.733 2.28974 0.101693 0
M  V30 1117 C 118.733 1.39754 0.795329 0
M  V30 1118 O 119.923 1.61878 0.643527 0
M  V30 1119 C 117.055 3.20768 1.15414 0
M  V30 1120 H 118.248 2.93147 -0.632844 0
M  V30 1121 H 115.801 1.51945 -0.366391 0
M  V30 1122 H 116.536 2.61395 1.91945 0
M  V30 1123 H 116.321 3.86489 0.66098 0
M  V30 1124 H 117.811 3.83589 1.65073 0
M  V30 1125 N 118.248 0.346503 1.53744 0
M  V30 1126 C 119.18 -0.543316 2.22667 0
M  V30 1127 C 120.193 -1.06159 1.23427 0
M  V30 1128 O 121.382 -0.971235 1.49764 0
M  V30 1129 C 118.482 -1.76076 2.89569 0
M  V30 1130 C 117.655 -1.37727 4.15151 0
M  V30 1131 C 116.714 -2.45471 4.65436 0
M  V30 1132 O 115.74 -2.08655 5.29577 0
M  V30 1133 N 116.942 -3.7677 4.41616 0
M  V30 1134 H 119.707 0.0469703 2.99663 0
M  V30 1135 H 117.268 0.170766 1.60997 0
M  V30 1136 H 119.26 -2.47593 3.20125 0
M  V30 1137 H 117.83 -2.25835 2.16142 0
M  V30 1138 H 117.05 -0.492746 3.91108 0
M  V30 1139 H 118.338 -1.09708 4.96832 0
M  V30 1140 H 117.736 -4.09467 3.90325 0
M  V30 1141 H 116.293 -4.44448 4.7677 0
M  V30 1142 N 119.726 -1.57421 0.075193 0
M  V30 1143 C 120.972 -1.93905 -0.594025 0
M  V30 1144 C 121.305 -0.955701 -1.69056 0
M  V30 1145 O 120.58 0.0145373 -1.94495 0
M  V30 1146 C 120.863 -3.40638 -1.1678 0
M  V30 1147 C 120.716 -4.49733 -0.0776792 0
M  V30 1148 C 122.035 -3.88259 -2.07228 0
M  V30 1149 H 119.154 -0.705105 -0.214466 0
M  V30 1150 H 121.796 -1.8947 0.141854 0
M  V30 1151 H 119.946 -3.44549 -1.79494 0
M  V30 1152 H 121.618 -4.57942 0.555573 0
M  V30 1153 H 119.861 -4.29751 0.591286 0
M  V30 1154 H 120.532 -5.49549 -0.519603 0
M  V30 1155 H 123.008 -3.86376 -1.54445 0
M  V30 1156 H 121.884 -4.91533 -2.44308 0
M  V30 1157 H 122.145 -3.26396 -2.98191 0
M  V30 1158 N 121.204 0.198386 -1.56346 0
M  V30 1159 C 122.453 0.917451 -1.79627 0
M  V30 1160 C 122.766 1.8456 -0.64784 0
M  V30 1161 O 123.972 2.60504 -0.764859 0
M  V30 1162 C 122.428 1.68175 -3.18191 0
M  V30 1163 C 122.036 0.798589 -4.40825 0
M  V30 1164 C 123.78 2.39065 -3.50782 0
M  V30 1165 C 121.687 1.56157 -5.70411 0
M  V30 1166 H 120.617 0.346317 -0.669762 0
M  V30 1167 H 123.268 0.170801 -1.82703 0
M  V30 1168 H 121.65 2.47216 -3.09354 0
M  V30 1169 H 122.824 0.0470665 -4.60776 0
M  V30 1170 H 121.139 0.200686 -4.15916 0
M  V30 1171 H 123.736 2.96692 -4.44835 0
M  V30 1172 H 124.079 3.13091 -2.74371 0
M  V30 1173 H 124.612 1.66993 -3.61052 0
M  V30 1174 H 121.351 0.864142 -6.49779 0
M  V30 1175 H 120.871 2.2871 -5.54483 0
M  V30 1176 H 122.55 2.11622 -6.11412 0
M  V30 1177 N 122.682 1.50554 0.465978 0
M  V30 1178 C 123.612 1.72722 1.57128 0
M  V30 1179 C 124.593 0.576294 1.6004 0
M  V30 1180 O 125.778 0.81598 1.76225 0
M  V30 1181 C 122.908 1.82605 2.95419 0
M  V30 1182 C 121.862 2.97835 3.07373 0
M  V30 1183 C 121.188 2.92867 4.47363 0
M  V30 1184 C 122.488 4.38265 2.84114 0
M  V30 1185 H 124.182 2.65267 1.38829 0
M  V30 1186 H 121.728 1.2765 0.666441 0
M  V30 1187 H 123.681 1.96698 3.72677 0
M  V30 1188 H 122.405 0.866858 3.14886 0
M  V30 1189 H 121.064 2.83401 2.3255 0
M  V30 1190 H 120.712 1.94783 4.63755 0
M  V30 1191 H 120.412 3.70227 4.56296 0
M  V30 1192 H 121.936 3.09015 5.26633 0
M  V30 1193 H 123.35 4.53198 3.51118 0
M  V30 1194 H 121.747 5.17115 3.04487 0
M  V30 1195 H 122.817 4.50281 1.7993 0
M  V30 1196 N 124.16 -0.719506 1.40217 0
M  V30 1197 C 125.388 -1.50864 1.41589 0
M  V30 1198 C 125.803 -1.88794 0.0145275 0
M  V30 1199 O 125.16 -1.55174 -0.960594 0
M  V30 1200 C 125.211 -2.78646 2.30302 0
M  V30 1201 O 124.932 -2.42321 3.64983 0
M  V30 1202 C 126.433 -3.72569 2.40224 0
M  V30 1203 H 123.653 -0.465709 0.48307 0
M  V30 1204 H 126.197 -0.88785 1.84221 0
M  V30 1205 H 124.352 -3.37019 1.91042 0
M  V30 1206 H 124.766 -3.24514 4.12057 0
M  V30 1207 H 126.24 -4.5908 3.06512 0
M  V30 1208 H 126.717 -4.15403 1.42608 0
M  V30 1209 H 127.323 -3.20109 2.80019 0
M  V30 1210 N 125.638 -1.25649 -0.95132 0
M  V30 1211 C 126.586 -1.06118 -2.06982 0
M  V30 1212 C 127.58 0.00889169 -1.69398 0
M  V30 1213 O 128.786 -0.146988 -1.79399 0
M  V30 1214 H 125.161 -0.326248 -0.677544 0
M  V30 1215 H 127.132 -2.00932 -2.2061 0
M  V30 1216 C 125.881 -0.700145 -3.40578 0
M  V30 1217 H 125.204 -1.51537 -3.69968 0
M  V30 1218 H 126.644 -0.603211 -4.19687 0
M  V30 1219 C 125.103 0.59403 -3.31622 0
M  V30 1220 O 125.633 1.63522 -3.66911 0
M  V30 1221 N 123.839 0.58089 -2.84735 0
M  V30 1222 H 123.386 -0.266783 -2.56215 0
M  V30 1223 H 123.344 1.44695 -2.79125 0
M  V30 1224 N 127.117 1.15442 -1.07289 0
M  V30 1225 C 128.027 2.23786 -0.704057 0
M  V30 1226 C 129.043 1.7166 0.284413 0
M  V30 1227 O 130.219 2.00972 0.131205 0
M  V30 1228 C 127.284 3.46535 -0.106792 0
M  V30 1229 C 126.345 4.13654 -1.14842 0
M  V30 1230 C 125.578 5.30544 -0.57956 0
M  V30 1231 O 125.801 5.67187 0.604585 0
M  V30 1232 O 124.735 5.87154 -1.32414 0
M  V30 1233 H 128.561 2.57664 -1.60757 0
M  V30 1234 H 126.146 1.23152 -0.845803 0
M  V30 1235 H 128.028 4.20804 0.224048 0
M  V30 1236 H 126.703 3.14407 0.770049 0
M  V30 1237 H 125.61 3.4131 -1.5316 0
M  V30 1238 H 126.943 4.49861 -1.99714 0
M  V30 1239 N 128.595 0.856903 1.32268 0
M  V30 1240 C 129.525 0.31858 2.31316 0
M  V30 1241 C 130.506 -0.583487 1.59779 0
M  V30 1242 O 131.691 -0.503259 1.87566 0
M  V30 1243 C 128.821 -0.491979 3.43798 0
M  V30 1244 C 127.775 0.315849 4.26833 0
M  V30 1245 C 127.101 -0.619586 5.31098 0
M  V30 1246 C 128.401 1.54282 4.98993 0
M  V30 1247 H 130.095 1.14621 2.76591 0
M  V30 1248 H 127.641 0.552613 1.32974 0
M  V30 1249 H 129.594 -0.879012 4.1213 0
M  V30 1250 H 128.318 -1.35299 2.97257 0
M  V30 1251 H 126.977 0.684664 3.6015 0
M  V30 1252 H 126.625 -1.47751 4.8081 0
M  V30 1253 H 126.325 -0.0830621 5.87541 0
M  V30 1254 H 127.849 -1.00375 6.02293 0
M  V30 1255 H 129.263 1.22796 5.59995 0
M  V30 1256 H 127.66 2.01745 5.65172 0
M  V30 1257 H 128.73 2.30285 4.26728 0
M  V30 1258 N 130.073 -1.45103 0.615059 0
M  V30 1259 C 131.021 -2.32331 -0.111791 0
M  V30 1260 C 132.015 -1.46409 -0.852102 0
M  V30 1261 O 133.221 -1.62849 -0.766821 0
M  V30 1262 H 129.596 -0.749993 -0.0549072 0
M  V30 1263 H 131.567 -2.91407 0.642225 0
M  V30 1264 C 130.316 -3.3015 -1.09071 0
M  V30 1265 H 129.639 -3.96265 -0.530485 0
M  V30 1266 H 131.079 -3.93898 -1.56908 0
M  V30 1267 C 129.538 -2.57875 -2.168 0
M  V30 1268 O 130.068 -2.36567 -3.24652 0
M  V30 1269 N 128.274 -2.17884 -1.92289 0
M  V30 1270 H 127.821 -2.35413 -1.04587 0
M  V30 1271 H 127.779 -1.6985 -2.64572 0
M  V30 1272 N 131.551 -0.354651 -1.53558 0
M  V30 1273 C 132.798 0.238443 -2.01091 0
M  V30 1274 C 133.126 1.49663 -1.24222 0
M  V30 1275 O 132.381 1.93049 -0.321003 0
M  V30 1276 C 132.68 0.587121 -3.52545 0
M  V30 1277 C 132.346 -0.575472 -4.47213 0
M  V30 1278 C 131.008 -0.894497 -4.72813 0
M  V30 1279 C 133.36 -1.35489 -5.03281 0
M  V30 1280 C 130.688 -1.99511 -5.51736 0
M  V30 1281 C 133.04 -2.44583 -5.83405 0
M  V30 1282 C 131.704 -2.77033 -6.07296 0
M  V30 1283 H 130.974 0.0872526 -0.735845 0
M  V30 1284 H 133.621 -0.484859 -1.8526 0
M  V30 1285 H 131.926 1.39129 -3.66265 0
M  V30 1286 H 133.623 1.05809 -3.86789 0
M  V30 1287 H 130.213 -0.316774 -4.27428 0
M  V30 1288 H 134.397 -1.12167 -4.83459 0
M  V30 1289 H 129.653 -2.25063 -5.68469 0
M  V30 1290 H 133.827 -3.05401 -6.25862 0
M  V30 1291 H 131.454 -3.6244 -6.68237 0
M  V30 1292 N 133.029 1.57378 -0.0835403 0
M  V30 1293 C 133.992 2.12252 0.864959 0
M  V30 1294 C 134.992 1.04916 1.21858 0
M  V30 1295 O 136.182 1.30853 1.14991 0
M  V30 1296 C 133.314 2.63358 2.16461 0
M  V30 1297 H 134.507 2.97371 0.388676 0
M  V30 1298 H 132.06 1.55423 0.165317 0
M  V30 1299 H 132.795 1.81727 2.686 0
M  V30 1300 H 132.58 3.41826 1.92087 0
M  V30 1301 H 134.07 3.05847 2.84337 0
M  V30 1302 N 134.507 -0.190092 1.56449 0
M  V30 1303 C 135.437 -1.23816 1.97969 0
M  V30 1304 C 136.418 -1.47201 0.852395 0
M  V30 1305 O 137.603 -1.58854 1.1171 0
M  V30 1306 C 134.733 -2.5813 2.3235 0
M  V30 1307 C 133.687 -2.49348 3.47864 0
M  V30 1308 C 133.013 -3.8798 3.67934 0
M  V30 1309 C 134.313 -2.01424 4.81898 0
M  V30 1310 H 136.007 -0.89311 2.85769 0
M  V30 1311 H 133.553 -0.428177 1.37487 0
M  V30 1312 H 135.506 -3.31637 2.59991 0
M  V30 1313 H 134.23 -2.94386 1.41438 0
M  V30 1314 H 132.889 -1.78297 3.20321 0
M  V30 1315 H 132.537 -4.21597 2.74344 0
M  V30 1316 H 132.237 -3.82978 4.45648 0
M  V30 1317 H 133.761 -4.63101 3.97957 0
M  V30 1318 H 135.175 -2.64693 5.08538 0
M  V30 1319 H 133.572 -2.07413 5.63116 0
M  V30 1320 H 134.642 -0.967677 4.75146 0
M  V30 1321 N 135.985 -1.50799 -0.457987 0
M  V30 1322 C 137.231 -1.62683 -1.21088 0
M  V30 1323 C 137.564 -0.332268 -1.91336 0
M  V30 1324 O 136.839 0.667043 -1.82704 0
M  V30 1325 C 137.122 -2.81615 -2.24422 0
M  V30 1326 C 136.975 -4.20989 -1.58392 0
M  V30 1327 C 138.294 -2.96085 -3.2561 0
M  V30 1328 H 135.413 -0.592087 -0.438864 0
M  V30 1329 H 138.055 -1.83225 -0.50286 0
M  V30 1330 H 136.205 -2.64231 -2.84806 0
M  V30 1331 H 137.877 -4.49994 -1.01504 0
M  V30 1332 H 136.12 -4.24641 -0.886704 0
M  V30 1333 H 136.791 -5.0016 -2.33547 0
M  V30 1334 H 139.267 -3.12042 -2.75262 0
M  V30 1335 H 138.143 -3.80902 -3.95228 0
M  V30 1336 H 138.404 -2.0726 -3.90507 0
M  V30 1337 N 137.463 0.71206 -1.40597 0
M  V30 1338 C 138.711 1.46907 -1.38791 0
M  V30 1339 C 139.032 1.94998 0.00780391 0
M  V30 1340 O 138.302 1.70587 0.963174 0
M  V30 1341 H 136.882 0.545043 -0.51082 0
M  V30 1342 H 139.544 0.843882 -1.75683 0
M  V30 1343 H 138.64 2.34021 -2.06496 0
M  V30 1344 N 138.941 1.26152 0.944643 0
M  V30 1345 C 140.166 1.14363 1.7302 0
M  V30 1346 C 140.591 -0.29772 1.85729 0
M  V30 1347 O 139.949 -1.2157 1.34501 0
M  V30 1348 C 139.997 1.81378 3.11664 0
M  V30 1349 O 139.101 1.10022 3.97453 0
M  V30 1350 H 138.442 0.398694 0.53098 0
M  V30 1351 H 140.972 1.66906 1.18337 0
M  V30 1352 H 140.982 1.88064 3.62072 0
M  V30 1353 H 139.657 2.86237 3.0173 0
M  V30 1354 H 138.234 1.11287 3.55907 0
M  V30 1355 N 140.419 -1.14872 1.07899 0
M  V30 1356 C 141.329 -2.2341 0.715915 0
M  V30 1357 C 142.345 -1.71808 -0.275306 0
M  V30 1358 O 143.521 -2.01039 -0.120545 0
M  V30 1359 C 140.586 -3.46474 0.125168 0
M  V30 1360 C 139.647 -4.13039 1.17034 0
M  V30 1361 C 138.88 -5.30229 0.607688 0
M  V30 1362 O 139.103 -5.675 -0.574497 0
M  V30 1363 O 138.037 -5.86444 1.35526 0
M  V30 1364 H 141.863 -2.56808 1.62121 0
M  V30 1365 H 139.448 -1.22702 0.852322 0
M  V30 1366 H 141.33 -4.20917 -0.201729 0
M  V30 1367 H 140.005 -3.14811 -0.753364 0
M  V30 1368 H 138.912 -3.40493 1.54968 0
M  V30 1369 H 140.245 -4.48796 2.02097 0
M  V30 1370 N 141.898 -0.863906 -1.31812 0
M  V30 1371 C 143.175 -0.39275 -1.91616 0
M  V30 1372 C 143.555 1.12461 -1.7865 0
M  V30 1373 O 142.903 1.95045 -1.19037 0
M  V30 1374 C 143.113 -0.867385 -3.38049 0
M  V30 1375 C 144.461 -0.889966 -4.15168 0
M  V30 1376 O 145.485 -0.812635 -3.46806 0
M  V30 1377 O 144.344 -1.00079 -5.37258 0
M  V30 1378 H 141.438 -0.116358 -0.818773 0
M  V30 1379 H 143.984 -0.951418 -1.40521 0
M  V30 1380 H 142.756 -1.91081 -3.41473 0
M  V30 1381 H 142.379 -0.286687 -3.96565 0
M  V30 1382 N 143.376 1.44774 -0.622745 0
M  V30 1383 C 144.624 2.01721 -0.123655 0
M  V30 1384 C 144.945 1.49172 1.25589 0
M  V30 1385 O 144.215 0.691974 1.83272 0
M  V30 1386 H 142.795 0.745777 -0.0427225 0
M  V30 1387 H 145.457 1.77382 -0.807559 0
M  V30 1388 H 144.553 3.11984 -0.0849534 0
M  V30 1389 N 144.854 0.36279 1.53368 0
M  V30 1390 C 146.082 -0.228613 2.05633 0
M  V30 1391 C 146.497 -1.42676 1.23649 0
M  V30 1392 O 145.854 -1.80394 0.27647 0
M  V30 1393 C 145.905 -0.624845 3.56059 0
M  V30 1394 O 145.626 0.525675 4.34935 0
M  V30 1395 C 147.127 -1.27493 4.24571 0
M  V30 1396 H 144.347 -0.0407183 0.669763 0
M  V30 1397 H 146.891 0.520352 1.97769 0
M  V30 1398 H 145.046 -1.32373 3.64083 0
M  V30 1399 H 145.46 0.205969 5.24095 0
M  V30 1400 H 146.934 -1.50277 5.31151 0
M  V30 1401 H 147.411 -2.23439 3.78116 0
M  V30 1402 H 148.017 -0.617558 4.20792 0
M  V30 1403 N 146.332 -1.57332 0.0918853 0
M  V30 1404 C 147.609 -1.85691 -0.614668 0
M  V30 1405 C 147.989 -0.988146 -1.86545 0
M  V30 1406 O 147.337 -0.0597055 -2.28422 0
M  V30 1407 C 147.547 -3.36294 -0.933126 0
M  V30 1408 C 148.895 -4.04275 -1.29796 0
M  V30 1409 O 149.919 -3.41157 -1.02424 0
M  V30 1410 O 148.778 -5.1564 -1.81047 0
M  V30 1411 H 145.872 -0.767802 -0.307261 0
M  V30 1412 H 148.418 -1.69244 0.12434 0
M  V30 1413 H 147.19 -3.91273 -0.0456404 0
M  V30 1414 H 146.813 -3.58076 -1.72822 0
M  V30 1415 N 147.81 0.181792 -1.56548 0
M  V30 1416 C 148.758 1.24461 -1.965 0
M  V30 1417 C 149.752 1.464 -0.852261 0
M  V30 1418 O 150.958 1.47103 -1.03733 0
M  V30 1419 H 147.333 0.418138 -0.625031 0
M  V30 1420 H 149.304 0.880714 -2.85107 0
M  V30 1421 C 148.053 2.57891 -2.33212 0
M  V30 1422 H 147.376 2.41829 -3.18369 0
M  V30 1423 H 148.816 3.3097 -2.65019 0
M  V30 1424 C 147.275 3.15871 -1.17163 0
M  V30 1425 O 147.805 3.9913 -0.453708 0
M  V30 1426 N 146.011 2.74808 -0.944936 0
M  V30 1427 H 145.558 2.07205 -1.53049 0
M  V30 1428 H 145.516 3.13939 -0.170286 0
M  V30 1429 N 149.288 1.51039 0.449983 0
M  V30 1430 C 150.565 1.53612 1.21089 0
M  V30 1431 C 150.945 0.292997 2.09057 0
M  V30 1432 O 150.293 -0.72259 2.16774 0
M  V30 1433 C 150.503 2.84337 2.0237 0
M  V30 1434 C 151.851 3.35807 2.59843 0
M  V30 1435 O 152.875 2.85802 2.12593 0
M  V30 1436 O 151.734 4.23029 3.45989 0
M  V30 1437 H 148.828 0.617057 0.550608 0
M  V30 1438 H 151.374 1.63344 0.460082 0
M  V30 1439 H 150.146 3.66278 1.37681 0
M  V30 1440 H 149.769 2.77708 2.84542 0
M  V30 1441 N 150.766 -0.704594 1.40972 0
M  V30 1442 C 151.996 -1.49138 1.42974 0
M  V30 1443 C 152.404 -1.89175 0.0308406 0
M  V30 1444 O 151.747 -1.56734 -0.958138 0
M  V30 1445 C 151.809 -2.79016 2.26694 0
M  V30 1446 C 151.473 -2.61236 3.74973 0
M  V30 1447 C 152.47 -2.27773 4.67349 0
M  V30 1448 C 150.155 -2.77158 4.18914 0
M  V30 1449 C 152.149 -2.10457 6.01653 0
M  V30 1450 C 149.836 -2.59459 5.53285 0
M  V30 1451 C 150.834 -2.26158 6.4447 0
M  V30 1452 O 150.522 -2.08605 7.76363 0
M  V30 1453 H 150.254 -0.466443 0.489292 0
M  V30 1454 H 152.808 -0.8758 1.85793 0
M  V30 1455 H 151.038 -3.42947 1.78673 0
M  V30 1456 H 152.727 -3.40782 2.20504 0
M  V30 1457 H 153.493 -2.15095 4.34694 0
M  V30 1458 H 149.372 -3.02064 3.48251 0
M  V30 1459 H 152.916 -1.84387 6.72791 0
M  V30 1460 H 148.813 -2.71725 5.85522 0
M  V30 1461 H 149.581 -2.23439 7.87412 0
M  V30 1462 N 152.244 -1.26651 -0.937939 0
M  V30 1463 C 153.192 -1.08308 -2.05845 0
M  V30 1464 C 154.186 -0.0090757 -1.69398 0
M  V30 1465 O 155.392 -0.166007 -1.79233 0
M  V30 1466 H 151.767 -0.333416 -0.674046 0
M  V30 1467 H 153.738 -2.03261 -2.18467 0
M  V30 1468 C 152.487 -0.736229 -3.39816 0
M  V30 1469 H 151.81 -1.55453 -3.6834 0
M  V30 1470 H 153.25 -0.64769 -4.19024 0
M  V30 1471 C 151.709 0.558824 -3.32233 0
M  V30 1472 O 152.239 1.59621 -3.68624 0
M  V30 1473 N 150.445 0.550657 -2.85335 0
M  V30 1474 H 149.992 -0.293943 -2.55917 0
M  V30 1475 H 149.95 1.41726 -2.80644 0
M  V30 1476 N 153.722 1.14298 -1.08507 0
M  V30 1477 C 154.999 1.81544 -0.728088 0
M  V30 1478 C 155.379 1.95838 0.78808 0
M  V30 1479 O 154.727 1.51904 1.70697 0
M  V30 1480 C 154.937 3.17169 -1.45619 0
M  V30 1481 C 156.285 3.9265 -1.61591 0
M  V30 1482 O 157.309 3.26762 -1.41793 0
M  V30 1483 O 156.168 5.10807 -1.94263 0
M  V30 1484 H 153.262 0.78491 -0.260471 0
M  V30 1485 H 155.808 1.21307 -1.18671 0
M  V30 1486 H 154.58 3.01934 -2.489 0
M  V30 1487 H 154.203 3.851 -0.989124 0
M  V30 1488 N 155.201 0.870884 1.31352 0
M  V30 1489 C 156.164 0.332243 2.26779 0
M  V30 1490 C 157.164 -0.517302 1.52252 0
M  V30 1491 O 158.354 -0.326477 1.71113 0
M  V30 1492 C 155.486 -0.528066 3.36785 0
M  V30 1493 H 156.679 1.17469 2.75937 0
M  V30 1494 H 154.232 0.64655 1.423 0
M  V30 1495 H 154.967 -1.39167 2.92922 0
M  V30 1496 H 154.752 0.0802582 3.92018 0
M  V30 1497 H 156.242 -0.897179 4.07849 0
M  V30 1498 N 156.679 -1.44442 0.630414 0
M  V30 1499 C 157.925 -2.02351 0.134816 0
M  V30 1500 C 158.258 -1.4947 -1.23986 0
M  V30 1501 O 157.533 -0.678475 -1.82283 0
M  V30 1502 C 157.816 -3.59898 0.120707 0
M  V30 1503 C 157.669 -4.23063 1.52767 0
M  V30 1504 C 158.988 -4.36585 -0.555127 0
M  V30 1505 H 156.107 -0.73527 0.0504646 0
M  V30 1506 H 158.749 -1.72022 0.806751 0
M  V30 1507 H 156.899 -3.85868 -0.451477 0
M  V30 1508 H 158.571 -4.08202 2.14869 0
M  V30 1509 H 156.814 -3.80586 2.08175 0
M  V30 1510 H 157.485 -5.32071 1.46984 0
M  V30 1511 H 159.961 -4.16044 -0.0685429 0
M  V30 1512 H 158.837 -5.46294 -0.534185 0
M  V30 1513 H 159.098 -4.11138 -1.62535 0
M  V30 1514 N 158.157 -0.370918 -1.53173 0
M  V30 1515 C 159.403 0.217423 -2.01631 0
M  V30 1516 C 159.736 1.47983 -1.25756 0
M  V30 1517 O 159.011 1.91274 -0.352764 0
M  V30 1518 C 159.294 0.503982 -3.56556 0
M  V30 1519 C 159.147 -0.77243 -4.43118 0
M  V30 1520 C 160.466 1.30234 -4.20389 0
M  V30 1521 H 157.585 0.0775486 -0.732909 0
M  V30 1522 H 160.227 -0.496863 -1.83388 0
M  V30 1523 H 158.377 1.11248 -3.72231 0
M  V30 1524 H 160.049 -1.4098 -4.39229 0
M  V30 1525 H 158.292 -1.39167 -4.10871 0
M  V30 1526 H 158.963 -0.526815 -5.4948 0
M  V30 1527 H 161.439 0.787546 -4.08579 0
M  V30 1528 H 160.315 1.47158 -5.28806 0
M  V30 1529 H 160.576 2.31237 -3.76805 0
M  V30 1530 N 159.635 1.57281 -0.100228 0
M  V30 1531 C 160.881 1.94826 0.563101 0
M  V30 1532 C 161.214 0.982475 1.67514 0
M  V30 1533 O 160.489 0.0164069 1.94493 0
M  V30 1534 C 160.772 3.42453 1.11346 0
M  V30 1535 C 160.625 4.498 0.00612081 0
M  V30 1536 C 161.944 3.91506 2.01024 0
M  V30 1537 H 159.063 0.708428 0.203221 0
M  V30 1538 H 161.705 1.8922 -0.171979 0
M  V30 1539 H 159.855 3.47361 1.7399 0
M  V30 1540 H 161.527 4.57 -0.628357 0
M  V30 1541 H 159.77 4.28756 -0.659581 0
M  V30 1542 H 160.441 5.50306 0.432109 0
M  V30 1543 H 162.917 3.88784 1.48278 0
M  V30 1544 H 161.793 4.95358 2.36457 0
M  V30 1545 H 162.054 3.31099 2.92961 0
M  V30 1546 N 161.113 -0.173488 1.56642 0
M  V30 1547 C 162.362 -0.888758 1.81063 0
M  V30 1548 C 162.675 -1.83506 0.67712 0
M  V30 1549 O 163.881 -2.59254 0.806206 0
M  V30 1550 C 162.337 -1.63091 3.20826 0
M  V30 1551 C 161.945 -0.728357 4.4204 0
M  V30 1552 C 163.689 -2.33454 3.54541 0
M  V30 1553 C 161.596 -1.47062 5.72823 0
M  V30 1554 H 160.526 -0.335618 0.675186 0
M  V30 1555 H 163.177 -0.141712 1.82952 0
M  V30 1556 H 161.559 -2.42263 3.13248 0
M  V30 1557 H 162.733 0.0262449 4.60793 0
M  V30 1558 H 161.048 -0.134492 4.16183 0
M  V30 1559 H 163.645 -2.89578 4.49498 0
M  V30 1560 H 163.988 -3.08687 2.79317 0
M  V30 1561 H 164.521 -1.61227 3.63663 0
M  V30 1562 H 161.26 -0.760658 6.51072 0
M  V30 1563 H 160.78 -2.1986 5.58052 0
M  V30 1564 H 162.459 -2.01868 6.14702 0
M  V30 1565 N 162.591 -1.51276 -0.441967 0
M  V30 1566 C 163.539 -1.72823 -1.55676 0
M  V30 1567 C 164.533 -0.59445 -1.58627 0
M  V30 1568 O 165.739 -0.775715 -1.62427 0
M  V30 1569 H 162.114 -0.545983 -0.517113 0
M  V30 1570 H 164.085 -2.6628 -1.34675 0
M  V30 1571 C 162.834 -1.86619 -2.93375 0
M  V30 1572 H 162.157 -2.73264 -2.91834 0
M  V30 1573 H 163.597 -2.05709 -3.70756 0
M  V30 1574 C 162.056 -0.624842 -3.31055 0
M  V30 1575 O 162.586 0.222636 -4.01083 0
M  V30 1576 N 160.792 -0.470288 -2.86769 0
M  V30 1577 H 160.339 -1.161 -2.29953 0
M  V30 1578 H 160.297 0.359051 -3.12343 0
M  V30 1579 N 164.069 0.697108 -1.41344 0
M  V30 1580 C 165.315 1.45796 -1.41828 0
M  V30 1581 C 165.67 1.92382 -0.0261743 0
M  V30 1582 O 164.963 1.66522 0.947688 0
M  V30 1583 C 165.157 2.68553 -2.35826 0
M  V30 1584 C 164.986 2.33975 -3.84039 0
M  V30 1585 C 163.756 2.24414 -4.52732 0
M  V30 1586 C 165.954 1.97048 -4.75054 0
M  V30 1587 N 163.936 1.82705 -5.86082 0
M  V30 1588 C 165.307 1.66086 -5.9734 0
M  V30 1589 C 167.362 1.83845 -4.62715 0
M  V30 1590 C 166.065 1.23246 -7.08663 0
M  V30 1591 C 168.091 1.4241 -5.73998 0
M  V30 1592 C 167.453 1.12357 -6.95381 0
M  V30 1593 H 163.552 0.530859 -0.574206 0
M  V30 1594 H 166.136 0.806674 -1.77203 0
M  V30 1595 H 164.307 3.31404 -2.02549 0
M  V30 1596 H 166.039 3.35015 -2.2704 0
M  V30 1597 H 162.794 2.4276 -4.0665 0
M  V30 1598 H 163.218 1.64337 -6.56751 0
M  V30 1599 H 167.86 2.05734 -3.69369 0
M  V30 1600 H 165.578 1.00102 -8.01876 0
M  V30 1601 H 169.164 1.32746 -5.66454 0
M  V30 1602 H 168.044 0.807795 -7.80028 0
M  V30 1603 N 165.547 1.27147 0.931209 0
M  V30 1604 C 166.958 1.12044 1.49342 0
M  V30 1605 C 167.309 -0.295795 1.93957 0
M  V30 1606 O 166.434 -1.18835 1.80852 0
M  V30 1607 C 167.029 2.02781 2.71414 0
M  V30 1608 C 165.588 1.91794 3.2387 0
M  V30 1609 C 164.735 1.95543 1.96617 0
M  V30 1610 H 167.686 1.40091 0.745672 0
M  V30 1611 H 167.707 1.58156 3.46074 0
M  V30 1612 H 167.219 3.05848 2.38911 0
M  V30 1613 H 165.32 0.916992 3.6114 0
M  V30 1614 H 165.433 2.77852 3.90302 0
M  V30 1615 H 163.797 1.39722 2.12955 0
M  V30 1616 H 164.58 3.00259 1.66432 0
M  V30 1617 N 167.025 -1.13721 1.09112 0
M  V30 1618 C 167.955 -2.21148 0.749385 0
M  V30 1619 C 168.936 -1.6792 -0.271475 0
M  V30 1620 O 170.121 -1.93693 -0.140251 0
M  V30 1621 C 167.251 -3.46905 0.165659 0
M  V30 1622 C 166.205 -4.13203 1.11567 0
M  V30 1623 C 165.531 -5.33248 0.393809 0
M  V30 1624 C 166.831 -4.60912 2.45678 0
M  V30 1625 H 168.525 -2.4999 1.64758 0
M  V30 1626 H 166.071 -1.20156 0.793626 0
M  V30 1627 H 168.024 -4.21313 -0.085466 0
M  V30 1628 H 166.748 -3.17449 -0.767714 0
M  V30 1629 H 165.407 -3.40758 1.35202 0
M  V30 1630 H 165.055 -5.00054 -0.543599 0
M  V30 1631 H 164.755 -5.78552 1.02721 0
M  V30 1632 H 166.279 -6.10413 0.150908 0
M  V30 1633 H 167.693 -5.26759 2.26269 0
M  V30 1634 H 166.09 -5.16944 3.04776 0
M  V30 1635 H 167.16 -3.75603 3.06677 0
M  V30 1636 N 168.503 -0.877838 -1.30888 0
M  V30 1637 C 169.751 -0.491723 -1.96027 0
M  V30 1638 C 170.072 0.960827 -1.69685 0
M  V30 1639 O 169.342 1.67462 -1.01654 0
M  V30 1640 H 167.922 -0.17885 -0.725273 0
M  V30 1641 H 170.584 -1.11935 -1.59551 0
M  V30 1642 H 169.68 -0.656016 -3.05128 0
M  V30 1643 O 170.02 1.4153 -0.777912 0
M  V30 1644 H 170.711 1.9062 -0.344054 0
M  V30 END ATOM
M  V30 BEGIN BOND
M  V30 END BOND
M  V30 END CTAB
M  END
$$$$
