drugbank_target|Q9HZZ3 Organic hydroperoxide resistance protein (DB04447)
 OpenBabel12092120293D

  0  0  0     0  0            999 V3000
M  V30 BEGIN CTAB
M  V30 COUNTS 2051 2065 0 0 0
M  V30 BEGIN ATOM
M  V30 1 H -0.908 1.98254 -0.117106 0
M  V30 2 N 0 1.576 0 0
M  V30 3 C 0.933 2.03868 1.02534 0
M  V30 4 C 1.911 0.928543 1.3348 0
M  V30 5 O 3.095 1.19667 1.45644 0
M  V30 6 C 0.222 2.43627 2.35294 0
M  V30 7 C -0.732 3.65373 2.2001 0
M  V30 8 S 0.101 5.13292 1.52614 0
M  V30 9 C 1.257 5.56322 2.86805 0
M  V30 10 H 1.49 2.90518 0.631377 0
M  V30 11 H -0.977 1.52953 0.210867 0
M  V30 12 H 0.981 2.67203 3.11629 0
M  V30 13 H -0.358 1.57376 2.7183 0
M  V30 14 H -1.165 3.90944 3.18086 0
M  V30 15 H -1.563 3.418 1.51819 0
M  V30 16 H 0.729 5.58782 3.83104 0
M  V30 17 H 1.672 6.56266 2.65933 0
M  V30 18 H 2.08 4.83886 2.90714 0
M  V30 19 N 1.4781 -0.272755 1.55222 0
M  V30 20 C 2.4101 -1.35946 1.8453 0
M  V30 21 C 3.4231 -1.45525 0.729818 0
M  V30 22 O 4.6121 -1.47337 1.00767 0
M  V30 23 C 1.7121 -2.74069 1.99347 0
M  V30 24 C 0.8851 -2.87079 3.30007 0
M  V30 25 C -0.0559 -4.05879 3.34886 0
M  V30 26 O -1.0299 -3.96626 4.08261 0
M  V30 27 N 0.1721 -5.17857 2.62307 0
M  V30 28 H 2.9371 -1.11149 2.78327 0
M  V30 29 H 0.4981 -0.462869 1.55142 0
M  V30 30 H 2.4901 -3.51838 1.99981 0
M  V30 31 H 1.0601 -2.91688 1.12415 0
M  V30 32 H 0.2801 -1.96193 3.41909 0
M  V30 33 H 1.5681 -2.92701 4.16177 0
M  V30 34 H 0.9661 -5.28261 2.02377 0
M  V30 35 H -0.4769 -5.93855 2.68663 0
M  V30 36 N 2.9562 -1.48159 -0.537278 0
M  V30 37 C 4.1842 -1.59454 -1.31841 0
M  V30 38 C 4.5992 -0.252065 -1.8711 0
M  V30 39 O 3.9562 0.757621 -1.66031 0
M  V30 40 C 4.0072 -2.63546 -2.47439 0
M  V30 41 O 3.7282 -3.92583 -1.94449 0
M  V30 42 C 5.2292 -2.85212 -3.39366 0
M  V30 43 H 2.4492 -0.53785 -0.401196 0
M  V30 44 H 4.9932 -1.93932 -0.648891 0
M  V30 45 H 3.1482 -2.31946 -3.1029 0
M  V30 46 H 3.5622 -4.49629 -2.70063 0
M  V30 47 H 5.0362 -3.61863 -4.16844 0
M  V30 48 H 5.5132 -1.93765 -3.94147 0
M  V30 49 H 6.1192 -3.18086 -2.82314 0
M  V30 50 N 4.4343 0.785586 -1.36625 0
M  V30 51 C 5.6833 1.53883 -1.30396 0
M  V30 52 C 5.9963 1.95271 0.113452 0
M  V30 53 O 7.2023 2.69858 0.298142 0
M  V30 54 C 5.6583 2.77808 -2.28802 0
M  V30 55 C 5.2663 2.43574 -3.75999 0
M  V30 56 C 7.0103 3.55783 -2.31558 0
M  V30 57 C 4.9173 3.63919 -4.66173 0
M  V30 58 H 3.8473 0.577678 -0.484566 0
M  V30 59 H 6.4983 0.861705 -1.62009 0
M  V30 60 H 4.8803 3.47339 -1.90188 0
M  V30 61 H 6.0543 1.81916 -4.23371 0
M  V30 62 H 4.3693 1.78803 -3.76056 0
M  V30 63 H 6.9663 4.45205 -2.96137 0
M  V30 64 H 7.3093 3.94644 -1.3252 0
M  V30 65 H 7.8423 2.93235 -2.68809 0
M  V30 66 H 4.5813 3.3015 -5.66287 0
M  V30 67 H 4.1013 4.2473 -4.23515 0
M  V30 68 H 5.7803 4.30901 -4.82632 0
M  V30 69 N 5.9124 1.20967 1.01018 0
M  V30 70 C 6.8594 0.964281 2.09691 0
M  V30 71 C 7.8294 -0.107853 1.65749 0
M  V30 72 O 9.0144 0.0381987 1.90762 0
M  V30 73 C 6.1544 0.52943 3.41015 0
M  V30 74 C 5.2674 1.67043 3.98398 0
M  V30 75 C 4.4024 1.18525 5.17808 0
M  V30 76 C 3.4414 2.29892 5.67288 0
M  V30 77 N 2.5784 1.82546 6.77954 0
M  V30 78 H 7.4184 1.89463 2.30017 0
M  V30 79 H 4.9554 0.944289 1.1279 0
M  V30 80 H 6.9134 0.258588 4.16398 0
M  V30 81 H 5.5434 -0.363919 3.20742 0
M  V30 82 H 4.5954 2.05603 3.20049 0
M  V30 83 H 5.9074 2.50877 4.31117 0
M  V30 84 H 5.0614 0.870762 6.00419 0
M  V30 85 H 3.8004 0.316887 4.86669 0
M  V30 86 H 2.8054 2.6215 4.83278 0
M  V30 87 H 4.0304 3.17216 6.00459 0
M  V30 88 H 1.9764 0.980454 6.48632 0
M  V30 89 H 1.8934 2.59956 7.09901 0
M  V30 90 H 3.1614 1.54115 7.64113 0
M  V30 91 N 7.3905 -1.2043 1.01659 0
M  V30 92 C 8.3535 -2.21433 0.591616 0
M  V30 93 C 9.3535 -1.57203 -0.338226 0
M  V30 94 O 10.5435 -1.73737 -0.126918 0
M  V30 95 C 7.6755 -3.40628 -0.136058 0
M  V30 96 H 8.8685 -2.60545 1.48514 0
M  V30 97 H 6.4215 -1.33893 0.806379 0
M  V30 98 H 7.1565 -3.07019 -1.04449 0
M  V30 99 H 6.9415 -3.88475 0.531917 0
M  V30 100 H 8.4315 -4.15475 -0.420735 0
M  V30 101 N 8.8686 -0.792821 -1.36206 0
M  V30 102 C 9.7986 -0.207853 -2.32573 0
M  V30 103 C 10.7796 0.659055 -1.56813 0
M  V30 104 O 11.9646 0.592176 -1.84951 0
M  V30 105 C 9.0946 0.655449 -3.41059 0
M  V30 106 C 8.0486 -0.111842 -4.27854 0
M  V30 107 C 7.3746 0.872274 -5.27537 0
M  V30 108 C 8.6746 -1.30299 -5.05786 0
M  V30 109 H 10.3686 -1.01294 -2.81744 0
M  V30 110 H 7.9146 -0.48854 -1.3546 0
M  V30 111 H 9.8676 1.07464 -4.07467 0
M  V30 112 H 8.5916 1.49328 -2.90463 0
M  V30 113 H 7.2506 -0.512053 -3.63006 0
M  V30 114 H 6.8986 1.70523 -4.73214 0
M  V30 115 H 6.5986 0.363291 -5.86476 0
M  V30 116 H 8.1226 1.28996 -5.96818 0
M  V30 117 H 9.5366 -0.959379 -5.65216 0
M  V30 118 H 7.9336 -1.7455 -5.74154 0
M  V30 119 H 9.0036 -2.09663 -4.37229 0
M  V30 120 N 10.3467 1.47872 -0.545128 0
M  V30 121 C 11.5767 2.06589 -0.0210534 0
M  V30 122 C 11.9847 1.39997 1.27269 0
M  V30 123 O 11.3277 0.486421 1.77143 0
M  V30 124 C 11.3897 3.58574 0.257933 0
M  V30 125 C 11.0537 4.47132 -0.944573 0
M  V30 126 C 12.0507 4.85986 -1.84699 0
M  V30 127 C 9.7357 4.88821 -1.15584 0
M  V30 128 C 11.7297 5.65314 -2.94446 0
M  V30 129 C 9.4167 5.67916 -2.25642 0
M  V30 130 C 10.4147 6.06073 -3.14905 0
M  V30 131 O 10.1027 6.83578 -4.23057 0
M  V30 132 H 9.8347 0.674971 -0.0372899 0
M  V30 133 H 12.3887 1.91037 -0.754599 0
M  V30 134 H 10.6187 3.72295 1.04564 0
M  V30 135 H 12.3077 3.99356 0.72592 0
M  V30 136 H 13.0737 4.54388 -1.69577 0
M  V30 137 H 8.9527 4.58595 -0.470279 0
M  V30 138 H 12.4967 5.95016 -3.64145 0
M  V30 139 H 8.3937 5.98927 -2.40742 0
M  V30 140 H 9.1617 7.01954 -4.20954 0
M  V30 141 N 11.8248 0.280983 1.55075 0
M  V30 142 C 13.0528 -0.337293 2.04132 0
M  V30 143 C 13.4678 -1.4903 1.15912 0
M  V30 144 O 12.8248 -1.81606 0.180459 0
M  V30 145 C 12.8758 -0.812706 3.52246 0
M  V30 146 O 12.5968 0.294387 4.3711 0
M  V30 147 C 14.0978 -1.4982 4.17216 0
M  V30 148 H 11.3178 -0.0761638 0.666663 0
M  V30 149 H 13.8618 0.414787 2.00249 0
M  V30 150 H 12.0168 -1.51486 3.56554 0
M  V30 151 H 12.4308 -0.0721325 5.2445 0
M  V30 152 H 13.9048 -1.7822 5.22438 0
M  V30 153 H 14.3818 -2.43168 3.65741 0
M  V30 154 H 14.9878 -0.839742 4.16927 0
M  V30 155 N 13.3029 -1.57598 0.00835791 0
M  V30 156 C 14.2659 -2.07884 -0.965242 0
M  V30 157 C 15.2659 -0.989825 -1.26725 0
M  V30 158 O 16.4559 -1.25218 -1.21104 0
M  V30 159 C 13.5879 -2.52731 -2.28779 0
M  V30 160 H 14.7809 -2.95178 -0.530112 0
M  V30 161 H 12.3339 -1.54458 -0.239283 0
M  V30 162 H 13.0689 -1.68705 -2.76964 0
M  V30 163 H 12.8539 -3.32272 -2.08177 0
M  V30 164 H 14.3439 -2.91933 -2.98605 0
M  V30 165 N 14.781 0.264519 -1.55364 0
M  V30 166 C 16.009 1.013 -1.80405 0
M  V30 167 C 16.424 1.79618 -0.581622 0
M  V30 168 O 15.781 1.76879 0.449468 0
M  V30 169 C 15.832 1.96487 -3.03439 0
M  V30 170 O 15.553 1.21341 -4.20961 0
M  V30 171 C 17.054 2.83079 -3.41147 0
M  V30 172 H 14.274 0.298875 -0.600762 0
M  V30 173 H 16.818 0.292736 -2.02394 0
M  V30 174 H 14.973 2.63965 -2.83551 0
M  V30 175 H 15.387 1.85573 -4.90574 0
M  V30 176 H 16.861 3.4565 -4.30384 0
M  V30 177 H 17.338 3.53286 -2.60932 0
M  V30 178 H 17.944 2.2108 -3.63323 0
M  V30 179 N 16.2591 1.48442 0.529413 0
M  V30 180 C 17.2221 1.62524 1.61612 0
M  V30 181 C 18.2221 0.498509 1.52877 0
M  V30 182 O 19.4121 0.76431 1.56537 0
M  V30 183 C 16.5441 1.59597 3.01233 0
M  V30 184 H 17.7371 2.59423 1.50465 0
M  V30 185 H 15.2901 1.37047 0.751514 0
M  V30 186 H 16.0251 0.641781 3.17886 0
M  V30 187 H 15.8101 2.41397 3.08982 0
M  V30 188 H 17.3001 1.72646 3.80241 0
M  V30 189 N 17.7372 -0.778329 1.37039 0
M  V30 190 C 18.9652 -1.56734 1.35063 0
M  V30 191 C 19.3802 -1.88686 -0.0655597 0
M  V30 192 O 18.7372 -1.5096 -1.02554 0
M  V30 193 C 18.7882 -2.88163 2.18276 0
M  V30 194 O 18.5092 -2.57583 3.54376 0
M  V30 195 C 20.0102 -3.82422 2.24206 0
M  V30 196 H 17.2302 -0.485778 0.462883 0
M  V30 197 H 19.7742 -0.965185 1.8029 0
M  V30 198 H 17.9292 -3.44818 1.76576 0
M  V30 199 H 18.3432 -3.41699 3.97922 0
M  V30 200 H 19.8172 -4.71667 2.86765 0
M  V30 201 H 20.2942 -4.21078 1.24861 0
M  V30 202 H 20.9002 -3.31697 2.6619 0
M  V30 203 N 19.2153 -1.21501 -1.00376 0
M  V30 204 C 20.1783 -0.976927 -2.07337 0
M  V30 205 C 21.1783 0.0525322 -1.60714 0
M  V30 206 O 22.3683 -0.184869 -1.73216 0
M  V30 207 C 19.5003 -0.473423 -3.37597 0
M  V30 208 H 20.6933 -1.92587 -2.29892 0
M  V30 209 H 18.2463 -1.03217 -1.17371 0
M  V30 210 H 18.9813 0.480379 -3.20722 0
M  V30 211 H 18.7663 -1.216 -3.72768 0
M  V30 212 H 20.2563 -0.32675 -4.1632 0
M  V30 213 N 20.6934 1.19889 -1.02296 0
M  V30 214 C 21.9214 1.9339 -0.735399 0
M  V30 215 C 22.3364 1.75148 0.704887 0
M  V30 216 O 21.6934 1.06954 1.47875 0
M  V30 217 C 21.7444 3.45313 -1.06962 0
M  V30 218 O 21.4654 3.62964 -2.45334 0
M  V30 219 C 22.9664 4.35948 -0.804021 0
M  V30 220 H 20.1864 0.61448 -0.269546 0
M  V30 221 H 22.7304 1.522 -1.36585 0
M  V30 222 H 20.8854 3.84359 -0.484455 0
M  V30 223 H 21.2994 4.56886 -2.57595 0
M  V30 224 H 22.7734 5.41174 -1.0879 0
M  V30 225 H 23.2504 4.3842 0.261691 0
M  V30 226 H 23.8564 4.02574 -1.37164 0
M  V30 227 N 22.1715 0.800033 1.35784 0
M  V30 228 C 23.4195 0.376597 1.9856 0
M  V30 229 C 23.7405 -1.05812 1.63795 0
M  V30 230 O 23.0105 -1.73103 0.917171 0
M  V30 231 H 21.5905 0.136261 0.734467 0
M  V30 232 H 24.2525 1.02442 1.65806 0
M  V30 233 H 23.3485 0.477002 3.08433 0
M  V30 234 N 23.6496 -1.47581 0.552962 0
M  V30 235 C 24.8976 -2.02082 0.0272703 0
M  V30 236 C 25.2186 -1.4301 -1.32563 0
M  V30 237 O 24.4886 -0.603745 -1.86365 0
M  V30 238 H 23.0686 -0.746966 0.00709182 0
M  V30 239 H 25.7306 -1.81033 0.722008 0
M  V30 240 H 24.8266 -3.12034 -0.0639951 0
M  V30 241 N 25.1277 -0.289203 -1.54924 0
M  V30 242 C 26.5437 0.0645403 -1.59469 0
M  V30 243 C 26.7437 1.53419 -1.30632 0
M  V30 244 O 25.7997 2.2852 -1.074 0
M  V30 245 C 27.1127 -0.32278 -2.98963 0
M  V30 246 C 28.6607 -0.270564 -3.11828 0
M  V30 247 C 29.1357 -0.632532 -4.53611 0
M  V30 248 N 30.6267 -0.584617 -4.59496 0
M  V30 249 C 31.3617 -0.837314 -5.67254 0
M  V30 250 N 30.8577 -1.15536 -6.83098 0
M  V30 251 N 32.6507 -0.765166 -5.56868 0
M  V30 252 H 24.8017 -1.24714 -1.71931 0
M  V30 253 H 27.0647 -0.504809 -0.802416 0
M  V30 254 H 26.7707 -1.34541 -3.24948 0
M  V30 255 H 26.6447 0.32944 -3.75759 0
M  V30 256 H 29.0317 0.742805 -2.85598 0
M  V30 257 H 29.1127 -0.957242 -2.37214 0
M  V30 258 H 28.7567 -1.64365 -4.80569 0
M  V30 259 H 28.6867 0.07609 -5.26545 0
M  V30 260 H 31.1777 -0.349248 -3.76283 0
M  V30 261 H 31.4907 -1.33447 -7.61191 0
M  V30 262 H 29.8357 -1.19328 -6.84679 0
M  V30 263 H 33.0267 -0.516432 -4.65243 0
M  V30 264 H 33.1997 -0.965477 -6.40767 0
M  V30 265 N 26.6058 1.57591 -0.0167156 0
M  V30 266 C 27.8828 1.82547 0.702564 0
M  V30 267 C 28.2628 0.898018 1.91047 0
M  V30 268 O 27.6108 -0.0493456 2.28447 0
M  V30 269 C 27.8208 3.31459 1.09251 0
M  V30 270 C 29.1688 3.97622 1.48937 0
M  V30 271 O 30.1928 3.35881 1.18584 0
M  V30 272 O 29.0518 5.06415 2.05442 0
M  V30 273 H 26.1458 0.752268 0.343544 0
M  V30 274 H 28.6918 1.69644 -0.0434495 0
M  V30 275 H 27.4638 3.9061 0.23227 0
M  V30 276 H 27.0868 3.49422 1.89709 0
M  V30 277 N 28.0839 -0.256276 1.55502 0
M  V30 278 C 29.3319 -0.983672 1.76545 0
M  V30 279 C 29.6529 -1.86206 0.578982 0
M  V30 280 O 28.9229 -1.91656 -0.405577 0
M  V30 281 H 27.5029 -0.366191 0.651086 0
M  V30 282 H 30.1649 -0.276479 1.92929 0
M  V30 283 H 29.2609 -1.61087 2.67315 0
M  V30 284 N 29.562 -1.4872 -0.521534 0
M  V30 285 C 30.978 -1.35028 -0.850855 0
M  V30 286 C 31.178 -0.367712 -1.98116 0
M  V30 287 O 30.234 0.208037 -2.51642 0
M  V30 288 C 31.547 -2.75263 -1.21041 0
M  V30 289 C 33.095 -2.83813 -1.31981 0
M  V30 290 C 33.57 -4.24769 -1.71276 0
M  V30 291 N 35.061 -4.27482 -1.78363 0
M  V30 292 C 35.796 -5.33494 -2.1017 0
M  V30 293 N 35.292 -6.49775 -2.40343 0
M  V30 294 N 37.085 -5.20894 -2.11248 0
M  V30 295 H 29.236 -2.11214 0.22413 0
M  V30 296 H 31.499 -0.947252 0.0376439 0
M  V30 297 H 31.205 -3.48765 -0.453415 0
M  V30 298 H 31.079 -3.09327 -2.15863 0
M  V30 299 H 33.466 -2.10561 -2.06756 0
M  V30 300 H 33.547 -2.53358 -0.352596 0
M  V30 301 H 33.191 -4.9854 -0.970588 0
M  V30 302 H 33.121 -4.52673 -2.69062 0
M  V30 303 H 35.612 -3.43611 -1.57288 0
M  V30 304 H 35.925 -7.26402 -2.63743 0
M  V30 305 H 34.27 -6.53035 -2.37844 0
M  V30 306 H 37.461 -4.29065 -1.87139 0
M  V30 307 H 37.634 -6.03612 -2.35704 0
M  V30 308 N 31.0401 0.771051 -1.3745 0
M  V30 309 C 32.0031 1.86598 -1.33093 0
M  V30 310 C 33.0031 1.59076 -0.234845 0
M  V30 311 O 34.1931 1.67145 -0.490732 0
M  V30 312 C 31.3251 3.23747 -1.06773 0
M  V30 313 H 32.5181 1.91873 -2.30488 0
M  V30 314 H 30.0711 0.970876 -1.2249 0
M  V30 315 H 30.8061 3.24148 -0.099129 0
M  V30 316 H 30.5911 3.45115 -1.86112 0
M  V30 317 H 32.0811 4.03824 -1.06377 0
M  V30 318 N 32.5182 1.22032 0.997298 0
M  V30 319 C 33.7642 1.04376 1.73878 0
M  V30 320 C 34.0972 -0.420716 1.89588 0
M  V30 321 O 33.3722 -1.31202 1.43583 0
M  V30 322 C 33.6552 1.75047 3.14691 0
M  V30 323 C 33.5082 3.29062 3.06656 0
M  V30 324 C 34.8272 1.49928 4.13775 0
M  V30 325 H 31.9462 0.380578 0.631133 0
M  V30 326 H 34.5882 1.50312 1.16217 0
M  V30 327 H 32.7382 1.35996 3.63919 0
M  V30 328 H 34.4102 3.7753 2.65083 0
M  V30 329 H 32.6532 3.58967 2.43568 0
M  V30 330 H 33.3242 3.73683 4.06282 0
M  V30 331 H 35.8002 1.83842 3.73285 0
M  V30 332 H 34.6762 2.01878 5.10428 0
M  V30 333 H 34.9372 0.430929 4.39995 0
M  V30 334 N 33.9963 -1.19345 1.0293 0
M  V30 335 C 35.2213 -1.93538 0.745511 0
M  V30 336 C 35.6463 -1.75007 -0.689511 0
M  V30 337 O 35.0043 -1.05265 -1.47611 0
M  V30 338 C 35.0523 -3.43336 1.10239 0
M  V30 339 O 34.1563 -4.11806 0.221289 0
M  V30 340 H 33.4973 -0.604193 0.275404 0
M  V30 341 H 36.0273 -1.5141 1.37609 0
M  V30 342 H 36.0373 -3.94004 1.05947 0
M  V30 343 H 34.7123 -3.56146 2.14786 0
M  V30 344 H 33.2893 -3.715 0.322842 0
M  V30 345 N 35.4744 -0.807222 -1.35358 0
M  V30 346 C 36.6994 -0.399309 -2.0352 0
M  V30 347 C 37.1244 0.981986 -1.60433 0
M  V30 348 O 36.4824 1.63601 -0.781299 0
M  V30 349 C 36.5304 -0.491552 -3.57234 0
M  V30 350 O 35.6344 0.494754 -4.09421 0
M  V30 351 H 34.9754 -0.166682 -0.642739 0
M  V30 352 H 37.5054 -1.09328 -1.72941 0
M  V30 353 H 37.5154 -0.361588 -4.06395 0
M  V30 354 H 36.1904 -1.49907 -3.87944 0
M  V30 355 H 34.7674 0.324977 -3.71481 0
M  V30 356 N 36.9525 1.47285 -0.560781 0
M  V30 357 C 38.2295 1.9558 0.0277798 0
M  V30 358 C 38.6095 1.5034 1.48192 0
M  V30 359 O 37.9575 0.743882 2.16052 0
M  V30 360 C 38.1675 3.48789 -0.121418 0
M  V30 361 C 39.5155 4.24594 0.0220912 0
M  V30 362 O 40.5395 3.56166 -0.0491439 0
M  V30 363 O 39.3985 5.46217 0.175958 0
M  V30 364 H 36.4925 0.824663 0.0621342 0
M  V30 365 H 39.0385 1.5767 -0.627556 0
M  V30 366 H 37.8105 3.74533 -1.13316 0
M  V30 367 H 37.4335 3.93473 0.571366 0
M  V30 368 N 38.4306 0.297415 1.54768 0
M  V30 369 C 39.6786 -0.312295 1.99673 0
M  V30 370 C 39.9996 -1.54686 1.18732 0
M  V30 371 O 39.2696 -1.93854 0.282382 0
M  V30 372 H 37.8496 -0.118381 0.73756 0
M  V30 373 H 40.5116 0.407915 1.90583 0
M  V30 374 H 39.6076 -0.586813 3.06534 0
M  V30 375 N 39.9087 -1.5758 0.0250728 0
M  V30 376 C 41.1547 -1.91917 -0.655413 0
M  V30 377 C 41.4877 -0.901433 -1.72011 0
M  V30 378 O 40.7627 0.0764069 -1.9435 0
M  V30 379 C 41.0457 -3.36751 -1.27558 0
M  V30 380 C 40.8987 -4.49258 -0.220719 0
M  V30 381 C 42.2177 -3.81469 -2.19475 0
M  V30 382 H 39.3367 -0.697925 -0.23679 0
M  V30 383 H 41.9787 -1.89825 0.0815036 0
M  V30 384 H 40.1287 -3.38664 -1.90365 0
M  V30 385 H 41.8007 -4.59478 0.409601 0
M  V30 386 H 40.0437 -4.31415 0.454264 0
M  V30 387 H 40.7147 -5.47618 -0.694175 0
M  V30 388 H 43.1907 -3.81266 -1.66659 0
M  V30 389 H 42.0667 -4.83512 -2.59822 0
M  V30 390 H 42.3277 -3.16744 -3.08424 0
M  V30 391 N 41.3868 0.248026 -1.55636 0
M  V30 392 C 42.3168 1.31079 -1.93237 0
M  V30 393 C 43.2978 1.50264 -0.797174 0
M  V30 394 O 44.4828 1.62891 -1.05737 0
M  V30 395 C 41.6128 2.66575 -2.22609 0
M  V30 396 C 40.5668 2.62087 -3.3837 0
M  V30 397 C 39.8928 4.01369 -3.53281 0
M  V30 398 C 41.1928 2.19171 -4.7409 0
M  V30 399 H 42.8868 0.998556 -2.82257 0
M  V30 400 H 40.4328 0.47891 -1.35803 0
M  V30 401 H 42.3858 3.41057 -2.47503 0
M  V30 402 H 41.1098 2.99432 -1.30414 0
M  V30 403 H 39.7688 1.90063 -3.13483 0
M  V30 404 H 39.4168 4.31489 -2.58508 0
M  V30 405 H 39.1168 3.99254 -4.31127 0
M  V30 406 H 40.6408 4.77552 -3.80495 0
M  V30 407 H 42.0548 2.83384 -4.98363 0
M  V30 408 H 40.4518 2.2817 -5.5503 0
M  V30 409 H 41.5218 1.14336 -4.71227 0
M  V30 410 N 42.8649 1.48995 0.513639 0
M  V30 411 C 44.1419 1.48338 1.27495 0
M  V30 412 C 44.5219 0.204065 2.10111 0
M  V30 413 O 43.8699 -0.813881 2.13514 0
M  V30 414 C 44.0799 2.75498 2.14247 0
M  V30 415 C 45.4279 3.24484 2.73852 0
M  V30 416 O 46.4519 2.76528 2.24523 0
M  V30 417 O 45.3109 4.07974 3.6362 0
M  V30 418 H 42.4049 0.593149 0.576284 0
M  V30 419 H 44.9509 1.61246 0.528948 0
M  V30 420 H 43.7229 3.60109 1.53092 0
M  V30 421 H 43.3459 2.6539 2.96064 0
M  V30 422 N 44.343 -0.763751 1.37857 0
M  V30 423 C 45.589 -1.52483 1.33704 0
M  V30 424 C 45.922 -1.94051 -0.0759612 0
M  V30 425 O 45.197 -1.64675 -1.03501 0
M  V30 426 C 45.48 -2.78441 2.28348 0
M  V30 427 C 45.333 -2.43075 3.78463 0
M  V30 428 C 46.652 -3.80415 2.21298 0
M  V30 429 H 43.771 -0.553169 0.487005 0
M  V30 430 H 46.413 -0.875562 1.68624 0
M  V30 431 H 44.563 -3.33842 1.987 0
M  V30 432 H 46.235 -1.93527 4.18742 0
M  V30 433 H 44.478 -1.75666 3.96641 0
M  V30 434 H 45.149 -3.33149 4.40132 0
M  V30 435 H 47.625 -3.34527 2.47449 0
M  V30 436 H 46.501 -4.66257 2.89647 0
M  V30 437 H 46.762 -4.25262 1.20849 0
M  V30 438 N 45.8211 -1.22559 -0.990812 0
M  V30 439 C 46.7681 -0.997519 -2.0813 0
M  V30 440 C 47.7381 0.0814702 -1.659 0
M  V30 441 O 48.9231 -0.0685424 -1.90677 0
M  V30 442 C 46.0631 -0.583615 -3.40129 0
M  V30 443 C 45.1761 -1.7336 -3.9569 0
M  V30 444 C 44.3111 -1.26748 -5.15857 0
M  V30 445 C 43.3501 -2.38888 -5.63559 0
M  V30 446 N 42.4871 -1.93308 -6.74964 0
M  V30 447 H 47.3271 -1.93099 -2.26973 0
M  V30 448 H 44.8641 -0.962114 -1.11273 0
M  V30 449 H 46.8221 -0.324801 -4.15934 0
M  V30 450 H 45.4521 0.312845 -3.2128 0
M  V30 451 H 44.5041 -2.10669 -3.16738 0
M  V30 452 H 45.8161 -2.57704 -4.27071 0
M  V30 453 H 44.9701 -0.966173 -5.98957 0
M  V30 454 H 43.7091 -0.394272 -4.86104 0
M  V30 455 H 42.7141 -2.69805 -4.79046 0
M  V30 456 H 43.9391 -3.26728 -5.95336 0
M  V30 457 H 41.8851 -1.08352 -6.4699 0
M  V30 458 H 41.8021 -2.71217 -7.05675 0
M  V30 459 H 43.0701 -1.66252 -7.61564 0
M  V30 460 N 47.2992 1.18797 -1.03562 0
M  V30 461 C 48.2292 2.24472 -0.643019 0
M  V30 462 C 49.2102 1.66433 0.351283 0
M  V30 463 O 50.3952 1.92803 0.232505 0
M  V30 464 C 47.5252 3.473 4.24935e-05 0
M  V30 465 C 46.4792 4.18055 -0.917257 0
M  V30 466 C 45.8052 5.34519 -0.138941 0
M  V30 467 C 47.1052 4.72109 -2.23407 0
M  V30 468 H 48.7992 2.57566 -1.52643 0
M  V30 469 H 46.3452 1.23806 -0.735394 0
M  V30 470 H 48.2982 4.20426 0.286383 0
M  V30 471 H 47.0222 3.13424 0.918299 0
M  V30 472 H 45.6812 3.46821 -1.1879 0
M  V30 473 H 45.3292 4.96891 0.781562 0
M  V30 474 H 45.0292 5.82794 -0.750005 0
M  V30 475 H 46.5532 6.10438 0.1405 0
M  V30 476 H 47.9672 5.36955 -2.00879 0
M  V30 477 H 46.3642 5.30897 -2.79765 0
M  V30 478 H 47.4342 3.89807 -2.88407 0
M  V30 479 N 48.7773 0.814389 1.34928 0
M  V30 480 C 50.0023 0.410097 2.03305 0
M  V30 481 C 50.4273 -0.973464 1.60951 0
M  V30 482 O 49.7853 -1.63185 0.789964 0
M  V30 483 C 49.8333 0.51049 3.56968 0
M  V30 484 O 48.9373 -0.473035 4.09678 0
M  V30 485 H 48.2783 0.170088 0.641846 0
M  V30 486 H 50.8083 1.10244 1.72358 0
M  V30 487 H 50.8183 0.383135 4.06197 0
M  V30 488 H 49.4933 1.51963 3.87144 0
M  V30 489 H 48.0703 -0.305272 3.71648 0
M  V30 490 N 50.2554 -1.46986 0.568584 0
M  V30 491 C 51.4834 -2.0683 0.0539956 0
M  V30 492 C 51.8984 -1.41953 -1.24478 0
M  V30 493 O 51.2554 -0.519933 -1.74937 0
M  V30 494 C 51.3064 -3.61254 -0.133362 0
M  V30 495 O 51.0274 -4.237 1.11399 0
M  V30 496 C 52.5284 -4.37992 -0.683927 0
M  V30 497 H 49.7484 -0.669058 0.0510141 0
M  V30 498 H 52.2924 -1.88824 0.785234 0
M  V30 499 H 50.4474 -3.78735 -0.81477 0
M  V30 500 H 50.8614 -5.16388 0.91888 0
M  V30 501 H 52.3354 -5.46684 -0.764263 0
M  V30 502 H 52.8124 -4.05058 -1.69778 0
M  V30 503 H 53.4184 -4.25283 -0.0378494 0
M  V30 504 N 51.7335 -0.305618 -1.54608 0
M  V30 505 C 53.1445 0.186098 -1.8577 0
M  V30 506 C 53.4955 1.53058 -1.22751 0
M  V30 507 O 52.6205 2.09888 -0.526893 0
M  V30 508 C 53.2155 0.344449 -3.37044 0
M  V30 509 C 51.7745 0.780384 -3.68221 0
M  V30 510 C 50.9215 -0.108554 -2.77087 0
M  V30 511 H 53.8725 -0.526485 -1.49712 0
M  V30 512 H 53.8935 1.17828 -3.61796 0
M  V30 513 H 53.4055 -0.634235 -3.82883 0
M  V30 514 H 51.5065 1.76945 -3.27904 0
M  V30 515 H 51.6195 0.596572 -4.75371 0
M  V30 516 H 49.9835 0.412931 -2.5133 0
M  V30 517 H 50.7665 -1.08368 -3.25747 0
M  V30 518 N 53.2116 1.57565 -0.0334293 0
M  V30 519 C 54.6276 1.56297 0.322997 0
M  V30 520 C 54.8276 1.03945 1.7262 0
M  V30 521 O 53.8836 0.688109 2.42943 0
M  V30 522 C 55.1966 3.00232 0.167664 0
M  V30 523 C 56.7446 3.12078 0.240107 0
M  V30 524 C 57.2196 4.57859 0.113513 0
M  V30 525 N 58.7106 4.62887 0.170359 0
M  V30 526 C 59.4456 5.73319 0.0962517 0
M  V30 527 N 58.9416 6.92794 -0.0291881 0
M  V30 528 N 60.7346 5.61898 0.150551 0
M  V30 529 H 52.8856 1.89923 -0.950956 0
M  V30 530 H 55.1486 0.873824 -0.367608 0
M  V30 531 H 54.8546 3.42501 -0.799102 0
M  V30 532 H 54.7286 3.654 0.936083 0
M  V30 533 H 57.1156 2.69718 1.19733 0
M  V30 534 H 57.1966 2.49623 -0.558763 0
M  V30 535 H 56.8406 5.009 -0.840314 0
M  V30 536 H 56.7706 5.18299 0.931302 0
M  V30 537 H 59.2616 3.76954 0.26728 0
M  V30 538 H 59.5746 7.7276 -0.0789252 0
M  V30 539 H 57.9196 6.94971 -0.0640299 0
M  V30 540 H 61.1106 4.67448 0.246981 0
M  V30 541 H 61.2836 6.47938 0.0893365 0
M  V30 542 N 54.6897 -0.239769 1.55765 0
M  V30 543 C 55.5997 -1.31831 1.94056 0
M  V30 544 C 56.6157 -1.52275 0.841925 0
M  V30 545 O 57.7917 -1.65759 1.14394 0
M  V30 546 C 54.8567 -2.65156 2.23368 0
M  V30 547 C 53.9177 -2.53173 3.46701 0
M  V30 548 C 53.1507 -3.8014 3.74606 0
M  V30 549 O 53.3737 -4.82343 3.04469 0
M  V30 550 O 52.3077 -3.78344 4.68123 0
M  V30 551 H 56.1337 -1.02347 2.85935 0
M  V30 552 H 53.7187 -0.441123 1.42739 0
M  V30 553 H 55.6007 -3.43929 2.43497 0
M  V30 554 H 54.2757 -2.94358 1.34666 0
M  V30 555 H 53.1827 -1.72662 3.31871 0
M  V30 556 H 54.5157 -2.28915 4.35728 0
M  V30 557 N 56.1678 -1.49265 -0.50573 0
M  V30 558 C 57.0978 -1.68495 -1.61653 0
M  V30 559 C 58.0788 -0.53366 -1.61512 0
M  V30 560 O 59.2638 -0.76897 -1.78327 0
M  V30 561 C 56.3938 -1.74709 -3.00157 0
M  V30 562 C 55.3478 -2.89581 -3.15162 0
M  V30 563 C 54.6738 -2.80903 -4.5497 0
M  V30 564 C 55.9738 -4.30578 -2.95634 0
M  V30 565 H 57.6678 -2.61493 -1.45814 0
M  V30 566 H 55.2138 -1.25838 -0.70005 0
M  V30 567 H 57.1668 -1.86748 -3.77761 0
M  V30 568 H 55.8908 -0.783067 -3.17074 0
M  V30 569 H 54.5498 -2.77136 -2.39982 0
M  V30 570 H 54.1978 -1.82419 -4.68756 0
M  V30 571 H 53.8978 -3.57999 -4.65951 0
M  V30 572 H 55.4218 -2.94944 -5.34641 0
M  V30 573 H 56.8358 -4.4373 -3.63011 0
M  V30 574 H 55.2328 -5.0886 -3.18091 0
M  V30 575 H 56.3028 -4.45352 -1.91806 0
M  V30 576 N 57.6459 0.756429 -1.3826 0
M  V30 577 C 58.8939 1.51248 -1.34047 0
M  V30 578 C 59.2149 1.94875 0.0698372 0
M  V30 579 O 58.4849 1.67436 1.01696 0
M  V30 580 H 57.0649 0.561018 -0.493222 0
M  V30 581 H 59.7269 0.899347 -1.7291 0
M  V30 582 H 58.8229 2.40472 -1.98947 0
M  V30 583 N 59.124 1.23083 0.984299 0
M  V30 584 C 60.372 1.05848 1.72165 0
M  V30 585 C 60.693 -0.406049 1.90726 0
M  V30 586 O 59.963 -1.29139 1.47309 0
M  V30 587 H 58.543 0.388685 0.637913 0
M  V30 588 H 61.205 1.54736 1.18503 0
M  V30 589 H 60.301 1.54327 2.71274 0
M  V30 590 N 60.6021 -1.18246 1.0419 0
M  V30 591 C 61.5341 -2.2142 0.592088 0
M  V30 592 C 62.5471 -1.59233 -0.338909 0
M  V30 593 O 63.7361 -1.78002 -0.133231 0
M  V30 594 C 60.8361 -3.38546 -0.154854 0
M  V30 595 C 60.0091 -4.3031 0.784328 0
M  V30 596 C 59.0681 -5.26138 0.0804583 0
M  V30 597 O 58.0941 -5.64738 0.711292 0
M  V30 598 N 59.2961 -5.68261 -1.18574 0
M  V30 599 H 62.0611 -2.60636 1.47949 0
M  V30 600 H 59.6221 -1.33044 0.922544 0
M  V30 601 H 61.6141 -3.99678 -0.635606 0
M  V30 602 H 60.1841 -2.98012 -0.943811 0
M  V30 603 H 59.4041 -3.66764 1.44491 0
M  V30 604 H 60.6921 -4.8852 1.42218 0
M  V30 605 H 60.0901 -5.38957 -1.71876 0
M  V30 606 H 58.6471 -6.31584 -1.61074 0
M  V30 607 N 62.0802 -0.821533 -1.34494 0
M  V30 608 C 63.3282 -0.408139 -1.97936 0
M  V30 609 C 63.6492 1.03193 -1.65457 0
M  V30 610 O 62.9192 1.71622 -0.944595 0
M  V30 611 H 61.4992 -0.147928 -0.732206 0
M  V30 612 H 64.1612 -1.05067 -1.64155 0
M  V30 613 H 63.2572 -0.52601 -3.07635 0
M  V30 614 N 63.5583 1.46682 -0.576371 0
M  V30 615 C 64.8063 2.02013 -0.0594163 0
M  V30 616 C 65.1273 1.45101 1.30271 0
M  V30 617 O 64.3973 0.633317 1.8538 0
M  V30 618 H 62.9773 0.746759 -0.0189745 0
M  V30 619 H 65.6393 1.79862 -0.750717 0
M  V30 620 H 64.7353 3.12097 0.014345 0
M  V30 621 N 65.0364 0.313813 1.54444 0
M  V30 622 C 65.9994 -0.54379 2.22656 0
M  V30 623 C 66.9994 -1.05124 1.21678 0
M  V30 624 O 68.1894 -0.945225 1.46325 0
M  V30 625 C 65.3214 -1.75427 2.92298 0
M  V30 626 H 66.5144 0.0523599 2.99854 0
M  V30 627 H 64.0674 0.0647834 1.56166 0
M  V30 628 H 64.8024 -2.38991 2.19211 0
M  V30 629 H 64.5874 -1.39791 3.66334 0
M  V30 630 H 66.0774 -2.36325 3.44297 0
M  V30 631 N 66.5145 -1.57545 0.0417849 0
M  V30 632 C 67.4775 -2.09885 -0.92093 0
M  V30 633 C 68.4775 -1.01648 -1.24596 0
M  V30 634 O 69.6675 -1.27759 -1.1842 0
M  V30 635 C 66.7995 -2.57527 -2.23367 0
M  V30 636 H 67.9925 -2.96236 -0.467382 0
M  V30 637 H 65.5455 -1.5493 -0.206467 0
M  V30 638 H 66.2805 -1.74542 -2.73323 0
M  V30 639 H 66.0655 -3.36613 -2.01083 0
M  V30 640 H 67.5555 -2.98201 -2.92346 0
M  V30 641 N 67.9926 0.231505 -1.5589 0
M  V30 642 C 69.2206 0.974505 -1.82513 0
M  V30 643 C 69.6356 1.78344 -0.619591 0
M  V30 644 O 68.9926 1.77792 0.411848 0
M  V30 645 C 69.0436 1.90007 -3.07538 0
M  V30 646 O 68.7646 1.12385 -4.2344 0
M  V30 647 C 70.2656 2.75779 -3.47075 0
M  V30 648 H 67.4856 0.286065 -0.606966 0
M  V30 649 H 70.0296 0.249739 -2.02969 0
M  V30 650 H 68.1846 2.57891 -2.89086 0
M  V30 651 H 68.5986 1.75125 -4.944 0
M  V30 652 H 70.0726 3.36443 -4.37619 0
M  V30 653 H 70.5496 3.47672 -2.68367 0
M  V30 654 H 71.1556 2.13323 -3.67931 0
M  V30 655 N 69.4707 1.49531 0.497807 0
M  V30 656 C 70.4187 1.66926 1.61983 0
M  V30 657 C 71.4127 0.535167 1.60724 0
M  V30 658 O 72.6187 0.714896 1.65195 0
M  V30 659 H 68.9937 0.526415 0.537021 0
M  V30 660 H 70.9647 2.61098 1.44465 0
M  V30 661 C 69.7137 1.75602 3.00099 0
M  V30 662 H 69.0367 2.62244 3.01775 0
M  V30 663 H 70.4767 1.91807 3.78135 0
M  V30 664 C 68.9357 0.501543 3.33146 0
M  V30 665 O 69.4657 -0.371342 3.9998 0
M  V30 666 N 67.6717 0.363531 2.88317 0
M  V30 667 H 67.2187 1.07485 2.34104 0
M  V30 668 H 67.1767 -0.474728 3.10795 0
M  V30 669 N 70.9488 -0.749086 1.3866 0
M  V30 670 C 72.3598 -1.32664 1.31366 0
M  V30 671 C 72.7108 -1.96179 -0.028484 0
M  V30 672 O 71.8358 -1.9537 -0.93057 0
M  V30 673 C 72.4308 -2.41219 2.37905 0
M  V30 674 C 70.9898 -2.94684 2.34176 0
M  V30 675 C 70.1368 -1.68108 2.20533 0
M  V30 676 H 73.0878 -0.547628 1.48952 0
M  V30 677 H 73.1088 -3.21268 2.0388 0
M  V30 678 H 72.6208 -1.94962 3.35576 0
M  V30 679 H 70.7218 -3.45258 1.401 0
M  V30 680 H 70.8348 -3.48757 3.2849 0
M  V30 681 H 69.1988 -1.91907 1.67463 0
M  V30 682 H 69.9818 -1.23923 3.20153 0
M  V30 683 N 72.4269 -1.23603 -0.977757 0
M  V30 684 C 73.3369 -1.03632 -2.1047 0
M  V30 685 C 74.3529 0.0199435 -1.73989 0
M  V30 686 O 75.5289 -0.176076 -2.00629 0
M  V30 687 C 72.5939 -0.63276 -3.40877 0
M  V30 688 C 71.6549 -1.76437 -3.91367 0
M  V30 689 C 70.8879 -1.37997 -5.15551 0
M  V30 690 O 71.1109 -0.265357 -5.69782 0
M  V30 691 O 70.0449 -2.20201 -5.60174 0
M  V30 692 H 73.8709 -1.98086 -2.30208 0
M  V30 693 H 71.4559 -1.02332 -1.08851 0
M  V30 694 H 73.3379 -0.418761 -4.19314 0
M  V30 695 H 72.0129 0.282754 -3.22463 0
M  V30 696 H 70.9199 -2.03304 -3.14036 0
M  V30 697 H 72.2529 -2.6583 -4.14241 0
M  V30 698 N 73.905 1.17692 -1.04816 0
M  V30 699 C 74.837 2.21103 -0.603822 0
M  V30 700 C 75.85 1.59411 0.33046 0
M  V30 701 O 77.039 1.7807 0.12379 0
M  V30 702 C 74.139 3.38623 0.136898 0
M  V30 703 C 73.312 4.29888 -0.807137 0
M  V30 704 C 72.371 5.26088 -0.10836 0
M  V30 705 O 71.397 5.64353 -0.741232 0
M  V30 706 N 72.599 5.68882 1.15558 0
M  V30 707 H 75.364 2.59848 -1.49329 0
M  V30 708 H 72.925 1.32553 -0.929587 0
M  V30 709 H 74.917 4.00009 0.614401 0
M  V30 710 H 73.487 2.98508 0.927993 0
M  V30 711 H 72.707 3.65993 -1.46434 0
M  V30 712 H 73.995 4.87759 -1.44807 0
M  V30 713 H 73.393 5.39861 1.69015 0
M  V30 714 H 71.95 6.32429 1.57722 0
M  V30 715 N 75.3831 0.828654 1.34056 0
M  V30 716 C 76.3131 0.269443 2.3194 0
M  V30 717 C 77.2941 -0.617247 1.58506 0
M  V30 718 O 78.4791 -0.542931 1.86456 0
M  V30 719 C 75.6091 -0.564793 3.42677 0
M  V30 720 C 74.5631 0.225241 4.27407 0
M  V30 721 C 73.8891 -0.7321 5.29664 0
M  V30 722 C 75.1891 1.43663 5.02154 0
M  V30 723 H 76.8831 1.08728 2.7896 0
M  V30 724 H 74.4291 0.524283 1.34117 0
M  V30 725 H 76.3821 -0.966233 4.10173 0
M  V30 726 H 75.1061 -1.41574 2.9432 0
M  V30 727 H 73.7651 0.608117 3.61521 0
M  V30 728 H 73.4131 -1.57916 4.77568 0
M  V30 729 H 73.1131 -0.20767 5.87233 0
M  V30 730 H 74.6371 -1.13128 6.00029 0
M  V30 731 H 76.0511 1.1089 5.62473 0
M  V30 732 H 74.4481 1.89711 5.69324 0
M  V30 733 H 75.5181 2.21181 4.31517 0
M  V30 734 N 76.8612 -1.46375 0.584142 0
M  V30 735 C 78.1082 -2.02378 0.0702675 0
M  V30 736 C 78.4362 -1.45545 -1.29023 0
M  V30 737 O 77.6912 -0.610967 -1.85918 0
M  V30 738 C 77.9902 -3.57373 -0.0439342 0
M  V30 739 C 77.6562 -4.33252 1.24915 0
M  V30 740 C 76.3182 -4.53701 1.60341 0
M  V30 741 C 78.6702 -4.7681 2.1048 0
M  V30 742 C 75.9982 -5.1496 2.81128 0
M  V30 743 C 78.3502 -5.39404 3.30494 0
M  V30 744 C 77.0142 -5.5808 3.66201 0
M  V30 745 H 76.2842 -0.740554 0.0257127 0
M  V30 746 H 78.9312 -1.75727 0.761065 0
M  V30 747 H 77.2362 -3.83169 -0.817869 0
M  V30 748 H 78.9332 -3.98384 -0.457318 0
M  V30 749 H 75.5232 -4.17633 0.963364 0
M  V30 750 H 79.7072 -4.60766 1.84414 0
M  V30 751 H 74.9632 -5.27611 3.08928 0
M  V30 752 H 79.1372 -5.72114 3.97063 0
M  V30 753 H 76.7642 -6.05318 4.59885 0
M  V30 754 N 78.3393 -0.321999 -1.54275 0
M  V30 755 C 79.3023 0.531975 -2.22941 0
M  V30 756 C 80.3023 1.04478 -1.22234 0
M  V30 757 O 81.4923 0.937452 -1.46825 0
M  V30 758 C 78.6243 1.73874 -2.93224 0
M  V30 759 H 79.8173 -0.0682612 -2.99822 0
M  V30 760 H 77.3703 -0.0730644 -1.56129 0
M  V30 761 H 78.1053 2.37825 -2.20476 0
M  V30 762 H 77.8903 1.37847 -3.6707 0
M  V30 763 H 79.3803 2.34496 -3.45545 0
M  V30 764 N 79.8174 1.5752 -0.0501392 0
M  V30 765 C 80.7804 2.1037 0.909786 0
M  V30 766 C 81.7804 1.02308 1.24056 0
M  V30 767 O 82.9704 1.28385 1.17741 0
M  V30 768 C 80.1024 2.58708 2.21998 0
M  V30 769 H 81.2954 2.96479 0.451665 0
M  V30 770 H 78.8484 1.55038 0.198248 0
M  V30 771 H 79.5834 1.75989 2.72394 0
M  V30 772 H 79.3684 3.37675 1.99295 0
M  V30 773 H 80.8584 2.99747 2.9076 0
M  V30 774 N 81.2955 -0.223234 1.56011 0
M  V30 775 C 82.5435 -0.946003 1.78592 0
M  V30 776 C 82.8645 -1.84936 0.618349 0
M  V30 777 O 82.1345 -1.92473 -0.364833 0
M  V30 778 H 80.7145 -0.352298 0.658707 0
M  V30 779 H 83.3765 -0.235494 1.93472 0
M  V30 780 H 82.4725 -1.55381 2.70672 0
M  V30 781 N 82.7736 -1.49793 -0.48987 0
M  V30 782 C 84.0036 -1.6333 -1.26518 0
M  V30 783 C 84.4116 -0.308392 -1.8667 0
M  V30 784 O 83.7546 0.717512 -1.69108 0
M  V30 785 C 83.8166 -2.6522 -2.4269 0
M  V30 786 C 83.4806 -4.09279 -2.03321 0
M  V30 787 C 84.4776 -4.95738 -1.56652 0
M  V30 788 C 82.1626 -4.55082 -2.12616 0
M  V30 789 C 84.1566 -6.26041 -1.19795 0
M  V30 790 C 81.8436 -5.85396 -1.75371 0
M  V30 791 C 82.8416 -6.707 -1.29036 0
M  V30 792 O 82.5296 -7.98584 -0.92299 0
M  V30 793 H 82.2616 -0.552502 -0.389509 0
M  V30 794 H 84.8156 -1.96642 -0.593381 0
M  V30 795 H 83.0456 -2.27112 -3.12981 0
M  V30 796 H 84.7346 -2.68171 -3.04695 0
M  V30 797 H 85.5006 -4.61575 -1.48908 0
M  V30 798 H 81.3796 -3.88844 -2.47631 0
M  V30 799 H 84.9236 -6.92578 -0.835582 0
M  V30 800 H 80.8206 -6.19085 -1.82768 0
M  V30 801 H 81.5886 -8.11692 -1.05349 0
M  V30 802 N 84.2517 0.741722 -1.39055 0
M  V30 803 C 85.4767 1.53607 -1.39354 0
M  V30 804 C 85.9017 1.88096 0.0116905 0
M  V30 805 O 85.2597 1.5143 0.996924 0
M  V30 806 C 85.3077 2.80441 -2.26682 0
M  V30 807 O 84.4117 3.76088 -1.69208 0
M  V30 808 H 83.7527 0.464142 -0.474835 0
M  V30 809 H 86.2827 0.915665 -1.82967 0
M  V30 810 H 86.2927 3.29246 -2.40959 0
M  V30 811 H 84.9677 2.5467 -3.2881 0
M  V30 812 H 83.5447 3.34833 -1.64138 0
M  V30 813 N 85.7298 1.2412 0.971189 0
M  V30 814 C 86.6928 1.03156 2.04674 0
M  V30 815 C 87.6928 -0.00990322 1.60797 0
M  V30 816 O 88.8828 0.230729 1.72665 0
M  V30 817 C 86.0148 0.562765 3.36223 0
M  V30 818 H 87.2078 1.98614 2.24705 0
M  V30 819 H 84.7608 1.06293 1.14593 0
M  V30 820 H 85.4958 -0.395176 3.21883 0
M  V30 821 H 85.2808 1.31441 3.69413 0
M  V30 822 H 86.7708 0.437015 4.15307 0
M  V30 823 N 87.2079 -1.17134 1.05439 0
M  V30 824 C 88.4479 -1.89137 0.77502 0
M  V30 825 C 88.8119 -1.79345 -0.685526 0
M  V30 826 O 90.0129 -2.46188 -1.0791 0
M  V30 827 C 88.2839 -3.35003 1.2453 0
M  V30 828 S 89.8429 -4.24952 1.09367 0
M  V30 829 H 86.6609 -0.652949 0.281387 0
M  V30 830 H 89.2629 -1.4145 1.34953 0
M  V30 831 H 87.9669 -3.39666 2.30338 0
M  V30 832 H 87.4979 -3.87736 0.665166 0
M  V30 833 H 89.5129 -4.96196 0.0193397 0
M  V30 834 N 88.686 -0.835752 -1.33615 0
M  V30 835 C 89.933 -0.429959 -1.97883 0
M  V30 836 C 90.261 1.01006 -1.66217 0
M  V30 837 O 89.516 1.72047 -0.93265 0
M  V30 838 C 89.815 -0.593925 -3.52431 0
M  V30 839 C 89.481 -2.00158 -4.04039 0
M  V30 840 C 88.143 -2.38662 -4.17844 0
M  V30 841 C 90.495 -2.92117 -4.31644 0
M  V30 842 C 87.823 -3.68435 -4.56588 0
M  V30 843 C 90.175 -4.21368 -4.71838 0
M  V30 844 C 88.839 -4.59833 -4.83849 0
M  V30 845 H 88.109 -0.157333 -0.724104 0
M  V30 846 H 90.756 -1.06217 -1.59343 0
M  V30 847 H 89.061 0.121619 -3.91611 0
M  V30 848 H 90.758 -0.260282 -4.00154 0
M  V30 849 H 87.348 -1.69252 -3.93766 0
M  V30 850 H 91.532 -2.63608 -4.20505 0
M  V30 851 H 86.788 -3.98046 -4.64079 0
M  V30 852 H 90.962 -4.92703 -4.92155 0
M  V30 853 H 88.589 -5.60438 -5.13627 0
M  V30 854 N 90.1641 1.46063 -0.591896 0
M  V30 855 C 91.4131 2.01547 -0.0786637 0
M  V30 856 C 91.7261 1.46796 1.29268 0
M  V30 857 O 92.9321 1.94157 1.89777 0
M  V30 858 C 91.3881 3.59787 -0.0900024 0
M  V30 859 C 90.9961 4.23534 -1.46023 0
M  V30 860 C 92.7401 4.22895 0.368806 0
M  V30 861 C 90.6471 5.73881 -1.4288 0
M  V30 862 H 89.5771 0.753564 -0.0256388 0
M  V30 863 H 92.2281 1.677 -0.744905 0
M  V30 864 H 90.6101 3.90752 0.642586 0
M  V30 865 H 91.7841 4.04167 -2.21328 0
M  V30 866 H 90.0991 3.72558 -1.85982 0
M  V30 867 H 92.6961 5.33116 0.411258 0
M  V30 868 H 93.0391 3.9247 1.38827 0
M  V30 869 H 93.5721 3.9659 -0.31001 0
M  V30 870 H 90.3111 6.0898 -2.42536 0
M  V30 871 H 89.8311 5.95486 -0.718095 0
M  V30 872 H 91.5101 6.36776 -1.14565 0
M  V30 873 N 91.6422 0.330177 1.54103 0
M  V30 874 C 92.8902 -0.269871 2.0029 0
M  V30 875 C 93.2112 -1.52133 1.21986 0
M  V30 876 O 92.4812 -1.93212 0.323438 0
M  V30 877 H 91.0612 -0.10271 0.739905 0
M  V30 878 H 93.7232 0.448249 1.89675 0
M  V30 879 H 92.8192 -0.52166 3.07709 0
M  V30 880 N 93.1203 -1.57491 0.0584922 0
M  V30 881 C 94.0833 -2.1085 -0.898617 0
M  V30 882 C 95.0833 -1.02964 -1.23511 0
M  V30 883 O 96.2733 -1.29007 -1.17059 0
M  V30 884 C 93.4053 -2.59881 -2.20623 0
M  V30 885 H 94.5983 -2.96715 -0.435936 0
M  V30 886 H 92.1513 -1.55141 -0.190023 0
M  V30 887 H 92.8863 -1.77431 -2.71457 0
M  V30 888 H 92.6713 -3.38727 -1.97501 0
M  V30 889 H 94.1613 -3.01285 -2.89166 0
M  V30 890 N 94.5984 0.214957 -1.56127 0
M  V30 891 C 95.5284 1.2695 -1.95974 0
M  V30 892 C 96.5094 1.48539 -0.828868 0
M  V30 893 O 97.6944 1.60611 -1.09168 0
M  V30 894 C 94.8244 2.61794 -2.28214 0
M  V30 895 C 93.7784 2.54851 -3.43853 0
M  V30 896 C 93.1044 3.93785 -3.61715 0
M  V30 897 C 94.4044 2.09065 -4.78632 0
M  V30 898 H 96.0984 0.93846 -2.84312 0
M  V30 899 H 93.6444 0.449996 -1.36788 0
M  V30 900 H 95.5974 3.35731 -2.54682 0
M  V30 901 H 94.3214 2.96599 -1.36736 0
M  V30 902 H 92.9804 1.8337 -3.17444 0
M  V30 903 H 92.6284 4.25908 -2.67602 0
M  V30 904 H 92.3284 3.90019 -4.39498 0
M  V30 905 H 93.8524 4.69374 -3.90539 0
M  V30 906 H 95.2664 2.7275 -5.04262 0
M  V30 907 H 93.6634 2.16346 -5.59745 0
M  V30 908 H 94.7334 1.04315 -4.73547 0
M  V30 909 N 96.0765 1.50051 0.48192 0
M  V30 910 C 97.0235 1.68122 1.58125 0
M  V30 911 C 97.9935 0.522545 1.57666 0
M  V30 912 O 99.1785 0.751844 1.75362 0
M  V30 913 C 96.3185 1.77142 2.96167 0
M  V30 914 C 95.4315 3.0444 3.06497 0
M  V30 915 C 94.5665 3.04321 4.35387 0
M  V30 916 C 93.6055 4.26118 4.3942 0
M  V30 917 N 92.7425 4.238 5.59766 0
M  V30 918 H 97.5825 2.6198 1.42022 0
M  V30 919 H 95.1195 1.29877 0.690687 0
M  V30 920 H 97.0775 1.80352 3.76203 0
M  V30 921 H 95.7075 0.867329 3.1093 0
M  V30 922 H 94.7595 3.10752 2.19402 0
M  V30 923 H 96.0715 3.94426 3.05336 0
M  V30 924 H 95.2255 3.062 5.23762 0
M  V30 925 H 93.9645 2.12147 4.39141 0
M  V30 926 H 92.9695 4.24463 3.49444 0
M  V30 927 H 94.1945 5.19507 4.37366 0
M  V30 928 H 92.1405 3.34474 5.64326 0
M  V30 929 H 92.0575 5.07542 5.60301 0
M  V30 930 H 93.3255 4.2981 6.50295 0
M  V30 931 N 97.5546 -0.734337 1.39446 0
M  V30 932 C 98.8016 -1.49391 1.36706 0
M  V30 933 C 99.1296 -1.94465 -0.0367813 0
M  V30 934 O 98.3846 -1.67154 -1.01774 0
M  V30 935 C 98.6836 -2.74711 2.28623 0
M  V30 936 C 98.3496 -2.48501 3.76242 0
M  V30 937 C 97.0116 -2.41062 4.16464 0
M  V30 938 C 99.3636 -2.26098 4.69606 0
M  V30 939 C 96.6916 -2.09262 5.48112 0
M  V30 940 C 99.0436 -1.95814 6.01531 0
M  V30 941 C 97.7076 -1.86845 6.40816 0
M  V30 942 H 96.9776 -0.546661 0.500243 0
M  V30 943 H 99.6246 -0.842788 1.71957 0
M  V30 944 H 97.9296 -3.44569 1.86492 0
M  V30 945 H 99.6266 -3.32741 2.23796 0
M  V30 946 H 96.2166 -2.55169 3.44364 0
M  V30 947 H 100.401 -2.30812 4.39363 0
M  V30 948 H 95.6566 -2.00841 5.77471 0
M  V30 949 H 99.8306 -1.77488 6.73403 0
M  V30 950 H 97.4576 -1.6197 7.42745 0
M  V30 951 N 99.0327 -1.24633 -0.964593 0
M  V30 952 C 100.279 -1.08949 -1.71049 0
M  V30 953 C 100.612 0.370302 -1.90637 0
M  V30 954 O 99.8867 1.27349 -1.47011 0
M  V30 955 C 100.17 -1.83329 -3.0994 0
M  V30 956 C 100.023 -3.37077 -2.97824 0
M  V30 957 C 101.342 -1.60846 -4.09654 0
M  V30 958 H 98.4607 -0.397178 -0.620821 0
M  V30 959 H 101.103 -1.5334 -1.12191 0
M  V30 960 H 99.2527 -1.45597 -3.60186 0
M  V30 961 H 100.925 -3.84425 -2.5498 0
M  V30 962 H 99.1677 -3.65298 -2.33965 0
M  V30 963 H 99.8387 -3.84324 -3.96231 0
M  V30 964 H 102.315 -1.93674 -3.68279 0
M  V30 965 H 101.191 -2.1534 -5.04896 0
M  V30 966 H 101.452 -0.547434 -4.38698 0
M  V30 967 N 100.511 1.16574 -1.06058 0
M  V30 968 C 101.474 2.19085 -0.673392 0
M  V30 969 C 102.474 1.5835 0.279648 0
M  V30 970 O 103.664 1.74088 0.0623488 0
M  V30 971 C 100.796 3.40899 0.00954234 0
M  V30 972 H 101.989 2.54853 -1.58081 0
M  V30 973 H 99.5418 1.30808 -0.855516 0
M  V30 974 H 100.277 3.10684 0.929826 0
M  V30 975 H 100.062 3.86233 -0.67573 0
M  V30 976 H 101.552 4.1675 0.266245 0
M  V30 977 N 101.989 0.842826 1.3317 0
M  V30 978 C 103.237 0.439577 1.97262 0
M  V30 979 C 103.558 -1.00548 1.67078 0
M  V30 980 O 102.828 -1.70098 0.971779 0
M  V30 981 H 101.408 0.159558 0.72976 0
M  V30 982 H 104.07 1.07665 1.62463 0
M  V30 983 H 103.166 0.574886 3.0676 0
M  V30 984 N 103.467 -1.45747 0.599634 0
M  V30 985 C 104.399 -2.28628 -0.161879 0
M  V30 986 C 105.412 -1.39494 -0.839367 0
M  V30 987 O 106.601 -1.63941 -0.706089 0
M  V30 988 C 103.701 -3.15014 -1.24976 0
M  V30 989 C 102.874 -4.32378 -0.660935 0
M  V30 990 C 101.933 -5.00033 -1.63869 0
M  V30 991 O 100.959 -5.57085 -1.1681 0
M  V30 992 N 102.161 -4.98589 -2.97303 0
M  V30 993 H 104.926 -2.94624 0.549265 0
M  V30 994 H 102.487 -1.55847 0.438565 0
M  V30 995 H 104.479 -3.5714 -1.9035 0
M  V30 996 H 103.049 -2.5098 -1.86354 0
M  V30 997 H 102.269 -3.9383 0.170688 0
M  V30 998 H 103.557 -5.08197 -0.247619 0
M  V30 999 H 102.955 -4.53514 -3.38145 0
M  V30 1000 H 101.512 -5.44603 -3.58121 0
M  V30 1001 N 104.945 -0.338344 -1.53925 0
M  V30 1002 C 106.361 0.0137736 -1.59594 0
M  V30 1003 C 106.561 1.49186 -1.35447 0
M  V30 1004 O 105.617 2.24987 -1.14616 0
M  V30 1005 C 106.93 -0.41773 -2.97784 0
M  V30 1006 C 108.478 -0.369633 -3.1081 0
M  V30 1007 C 108.953 -0.776524 -4.51369 0
M  V30 1008 N 110.444 -0.730506 -4.57403 0
M  V30 1009 C 111.179 -1.01736 -5.64303 0
M  V30 1010 N 110.675 -1.3721 -6.79077 0
M  V30 1011 N 112.468 -0.941942 -5.54151 0
M  V30 1012 H 104.619 -1.3012 -1.67876 0
M  V30 1013 H 106.882 -0.530082 -0.78595 0
M  V30 1014 H 106.588 -1.44811 -3.20504 0
M  V30 1015 H 106.462 0.209729 -3.76616 0
M  V30 1016 H 108.849 0.651568 -2.87817 0
M  V30 1017 H 108.93 -1.03223 -2.34049 0
M  V30 1018 H 108.574 -1.79571 -4.75096 0
M  V30 1019 H 108.504 -0.0914649 -5.26521 0
M  V30 1020 H 110.995 -0.468783 -3.74981 0
M  V30 1021 H 111.308 -1.57597 -7.5656 0
M  V30 1022 H 109.653 -1.4105 -6.80536 0
M  V30 1023 H 112.844 -0.664184 -4.63364 0
M  V30 1024 H 113.017 -1.16884 -6.37371 0
M  V30 1025 N 106.423 1.57458 -0.0668435 0
M  V30 1026 C 107.37 2.12439 0.902122 0
M  V30 1027 C 108.34 1.03565 1.2986 0
M  V30 1028 O 109.525 1.312 1.38532 0
M  V30 1029 C 106.665 2.6865 2.16614 0
M  V30 1030 C 105.778 3.91663 1.82274 0
M  V30 1031 C 104.913 4.36134 3.0325 0
M  V30 1032 C 103.952 5.51808 2.64904 0
M  V30 1033 N 103.089 5.9126 3.78624 0
M  V30 1034 H 107.929 2.94934 0.426382 0
M  V30 1035 H 105.466 1.4575 0.198819 0
M  V30 1036 H 107.424 2.99346 2.90599 0
M  V30 1037 H 106.054 1.88928 2.61737 0
M  V30 1038 H 105.106 3.6746 0.983719 0
M  V30 1039 H 106.418 4.75693 1.50059 0
M  V30 1040 H 105.572 4.68465 3.85519 0
M  V30 1041 H 104.311 3.50948 3.38655 0
M  V30 1042 H 103.316 5.19133 1.81055 0
M  V30 1043 H 104.541 6.38722 2.30675 0
M  V30 1044 H 102.487 5.09024 4.138 0
M  V30 1045 H 102.404 6.70018 3.5016 0
M  V30 1046 H 103.672 6.28212 4.61486 0
M  V30 1047 N 107.901 -0.206675 1.56239 0
M  V30 1048 C 108.833 -1.27997 1.9013 0
M  V30 1049 C 109.846 -1.42299 0.790883 0
M  V30 1050 O 111.035 -1.42931 1.06925 0
M  V30 1051 C 108.135 -2.65368 2.10792 0
M  V30 1052 C 107.308 -2.72824 3.41886 0
M  V30 1053 C 106.367 -3.9131 3.51799 0
M  V30 1054 O 105.393 -3.78953 4.24716 0
M  V30 1055 N 106.595 -5.06265 2.84035 0
M  V30 1056 H 109.36 -0.992444 2.82791 0
M  V30 1057 H 106.921 -0.396652 1.56966 0
M  V30 1058 H 108.913 -3.43039 2.14724 0
M  V30 1059 H 107.483 -2.86657 1.24685 0
M  V30 1060 H 106.703 -1.81515 3.49923 0
M  V30 1061 H 107.991 -2.74786 4.28217 0
M  V30 1062 H 107.389 -5.19203 2.246 0
M  V30 1063 H 105.946 -5.81925 2.93609 0
M  V30 1064 N 109.379 -1.50304 -0.473955 0
M  V30 1065 C 110.607 -1.64902 -1.24959 0
M  V30 1066 C 111.022 -0.331198 -1.85872 0
M  V30 1067 O 110.379 0.68652 -1.69095 0
M  V30 1068 C 110.43 -2.73803 -2.36038 0
M  V30 1069 O 110.151 -4.00477 -1.77624 0
M  V30 1070 C 111.652 -2.99349 -3.26964 0
M  V30 1071 H 108.872 -0.554383 -0.378022 0
M  V30 1072 H 111.416 -1.9651 -0.566054 0
M  V30 1073 H 109.571 -2.44898 -3.00173 0
M  V30 1074 H 109.985 -4.60678 -2.5075 0
M  V30 1075 H 111.459 -3.79217 -4.01121 0
M  V30 1076 H 111.936 -2.10307 -3.85574 0
M  V30 1077 H 112.542 -3.29774 -2.68569 0
M  V30 1078 N 110.857 0.726932 -1.39834 0
M  V30 1079 C 111.787 1.85405 -1.41941 0
M  V30 1080 C 112.768 1.67751 -0.281728 0
M  V30 1081 O 113.953 1.8795 -0.488717 0
M  V30 1082 C 111.083 3.23243 -1.2701 0
M  V30 1083 C 110.037 3.55549 -2.38262 0
M  V30 1084 C 109.363 4.9241 -2.08415 0
M  V30 1085 C 110.663 3.577 -3.80589 0
M  V30 1086 H 112.357 1.83899 -2.36266 0
M  V30 1087 H 109.903 0.883349 -1.13723 0
M  V30 1088 H 111.856 4.01775 -1.27103 0
M  V30 1089 H 110.58 3.25296 -0.291564 0
M  V30 1090 H 109.239 2.79351 -2.37399 0
M  V30 1091 H 108.887 4.91052 -1.0898 0
M  V30 1092 H 108.587 5.14992 -2.82943 0
M  V30 1093 H 110.111 5.73289 -2.10171 0
M  V30 1094 H 111.525 4.26293 -3.83337 0
M  V30 1095 H 109.922 3.91804 -4.54543 0
M  V30 1096 H 110.992 2.57328 -4.10987 0
M  V30 1097 N 112.336 1.25143 0.95797 0
M  V30 1098 C 113.747 1.08851 1.51685 0
M  V30 1099 C 114.098 -0.33687 1.93286 0
M  V30 1100 O 113.223 -1.22644 1.7829 0
M  V30 1101 C 113.818 1.96978 2.75654 0
M  V30 1102 C 112.377 1.84881 3.27866 0
M  V30 1103 C 111.524 1.91329 2.0072 0
M  V30 1104 H 114.475 1.38478 0.77522 0
M  V30 1105 H 114.496 1.5078 3.4935 0
M  V30 1106 H 114.008 3.00712 2.45345 0
M  V30 1107 H 112.109 0.840182 3.63004 0
M  V30 1108 H 112.222 2.6951 3.96107 0
M  V30 1109 H 110.586 1.35174 2.15871 0
M  V30 1110 H 111.369 2.96661 1.72764 0
M  V30 1111 N 113.814 -1.1601 1.06675 0
M  V30 1112 C 114.777 -2.18724 0.685001 0
M  V30 1113 C 115.777 -1.58496 -0.271246 0
M  V30 1114 O 116.967 -1.74119 -0.0531156 0
M  V30 1115 C 114.099 -3.40899 0.00853648 0
M  V30 1116 H 115.292 -2.54011 1.59431 0
M  V30 1117 H 112.845 -1.30352 0.862441 0
M  V30 1118 H 113.58 -3.11173 -0.913337 0
M  V30 1119 H 113.365 -3.8587 0.696204 0
M  V30 1120 H 114.855 -4.16886 -0.24414 0
M  V30 1121 N 115.292 -0.849877 -1.32721 0
M  V30 1122 C 116.569 -0.372405 -1.92022 0
M  V30 1123 C 116.949 1.1435 -1.77447 0
M  V30 1124 O 116.297 1.96296 -1.16962 0
M  V30 1125 C 116.507 -0.831482 -3.3895 0
M  V30 1126 C 117.855 -0.845882 -4.16089 0
M  V30 1127 O 118.879 -0.775806 -3.47649 0
M  V30 1128 O 117.738 -0.943753 -5.38289 0
M  V30 1129 H 114.832 -0.107667 -0.819961 0
M  V30 1130 H 117.378 -0.93646 -1.41522 0
M  V30 1131 H 116.15 -1.87448 -3.4348 0
M  V30 1132 H 115.773 -0.24461 -3.96847 0
M  V30 1133 N 116.77 1.45427 -0.607355 0
M  V30 1134 C 117.733 2.28974 0.101693 0
M  V30 1135 C 118.733 1.39754 0.795329 0
M  V30 1136 O 119.923 1.61878 0.643527 0
M  V30 1137 C 117.055 3.20768 1.15414 0
M  V30 1138 H 118.248 2.93147 -0.632844 0
M  V30 1139 H 115.801 1.51945 -0.366391 0
M  V30 1140 H 116.536 2.61395 1.91945 0
M  V30 1141 H 116.321 3.86489 0.66098 0
M  V30 1142 H 117.811 3.83589 1.65073 0
M  V30 1143 N 118.248 0.346503 1.53744 0
M  V30 1144 C 119.473 -0.253074 2.0585 0
M  V30 1145 C 119.898 -1.43202 1.21962 0
M  V30 1146 O 119.256 -1.79783 0.234073 0
M  V30 1147 C 119.304 -0.643193 3.54817 0
M  V30 1148 O 118.408 -1.74286 3.73762 0
M  V30 1149 H 117.749 -0.0413583 0.662711 0
M  V30 1150 H 120.279 0.501574 1.98357 0
M  V30 1151 H 120.289 -0.919526 3.97503 0
M  V30 1152 H 118.964 0.218966 4.15323 0
M  V30 1153 H 117.541 -1.46356 3.42979 0
M  V30 1154 N 119.726 -1.57421 0.075193 0
M  V30 1155 C 120.975 -1.92794 -0.592731 0
M  V30 1156 C 121.288 -0.957478 -1.70563 0
M  V30 1157 O 122.494 -1.20417 -2.43335 0
M  V30 1158 C 120.95 -3.42495 -1.10569 0
M  V30 1159 C 120.558 -4.47994 -0.0236121 0
M  V30 1160 C 122.302 -3.86864 -1.74748 0
M  V30 1161 C 120.209 -5.88829 -0.550803 0
M  V30 1162 H 119.139 -0.719591 -0.225177 0
M  V30 1163 H 121.79 -1.82902 0.147978 0
M  V30 1164 H 120.172 -3.47471 -1.89947 0
M  V30 1165 H 121.346 -4.54637 0.751099 0
M  V30 1166 H 119.661 -4.13113 0.522159 0
M  V30 1167 H 122.258 -4.8947 -2.15229 0
M  V30 1168 H 122.601 -3.24417 -2.60882 0
M  V30 1169 H 123.134 -3.84504 -1.01986 0
M  V30 1170 H 119.873 -6.54929 0.273457 0
M  V30 1171 H 119.393 -5.85698 -1.29296 0
M  V30 1172 H 121.072 -6.38811 -1.02613 0
M  V30 1173 N 121.204 0.198386 -1.56346 0
M  V30 1174 C 122.432 0.935572 -1.84539 0
M  V30 1175 C 122.847 1.76989 -0.657281 0
M  V30 1176 O 122.204 1.78626 0.374043 0
M  V30 1177 C 122.255 1.8344 -3.11499 0
M  V30 1178 O 121.976 1.03377 -4.25728 0
M  V30 1179 C 123.477 2.68355 -3.52846 0
M  V30 1180 H 120.697 0.273126 -0.612897 0
M  V30 1181 H 123.241 0.20663 -2.03453 0
M  V30 1182 H 121.396 2.51701 -2.94492 0
M  V30 1183 H 121.81 1.64599 -4.98003 0
M  V30 1184 H 123.284 3.27085 -4.44657 0
M  V30 1185 H 123.761 3.41901 -2.75681 0
M  V30 1186 H 124.367 2.05471 -3.72373 0
M  V30 1187 N 122.682 1.50554 0.465978 0
M  V30 1188 C 123.93 1.61479 1.21528 0
M  V30 1189 C 124.251 0.319596 1.92363 0
M  V30 1190 O 123.521 -0.663194 1.84333 0
M  V30 1191 H 122.101 0.595055 0.451573 0
M  V30 1192 H 124.763 1.87355 0.53704 0
M  V30 1193 H 123.859 2.42846 1.96042 0
M  V30 1194 N 124.16 -0.719506 1.40217 0
M  V30 1195 C 125.107 -1.83359 1.40172 0
M  V30 1196 C 126.077 -1.64065 0.259206 0
M  V30 1197 O 127.262 -1.85254 0.456677 0
M  V30 1198 C 124.402 -3.2103 1.26624 0
M  V30 1199 C 123.515 -3.51923 2.50548 0
M  V30 1200 C 122.65 -4.79079 2.29471 0
M  V30 1201 C 121.689 -5.02863 3.48992 0
M  V30 1202 N 120.826 -6.2123 3.27135 0
M  V30 1203 H 125.666 -1.82733 2.35399 0
M  V30 1204 H 123.203 -0.892688 1.16917 0
M  V30 1205 H 125.161 -4.00524 1.16776 0
M  V30 1206 H 123.791 -3.20895 0.350176 0
M  V30 1207 H 122.843 -2.67014 2.70939 0
M  V30 1208 H 124.155 -3.6541 3.39525 0
M  V30 1209 H 123.309 -5.66582 2.16955 0
M  V30 1210 H 122.048 -4.67794 1.37913 0
M  V30 1211 H 121.053 -4.13816 3.6199 0
M  V30 1212 H 122.278 -5.16023 4.41472 0
M  V30 1213 H 120.224 -6.11204 2.38256 0
M  V30 1214 H 120.141 -6.35375 4.09675 0
M  V30 1215 H 121.409 -7.11532 3.18344 0
M  V30 1216 N 125.638 -1.25649 -0.95132 0
M  V30 1217 C 126.884 -1.10757 -1.69884 0
M  V30 1218 C 127.217 0.350061 -1.91019 0
M  V30 1219 O 126.492 1.25783 -1.48354 0
M  V30 1220 C 126.775 -1.86606 -3.07978 0
M  V30 1221 C 126.628 -3.40217 -2.94232 0
M  V30 1222 C 127.947 -1.65182 -4.07925 0
M  V30 1223 H 125.066 -0.40374 -0.616574 0
M  V30 1224 H 127.708 -1.54521 -1.10558 0
M  V30 1225 H 125.858 -1.49409 -3.58621 0
M  V30 1226 H 127.53 -3.87108 -2.50889 0
M  V30 1227 H 125.773 -3.67759 -2.30078 0
M  V30 1228 H 126.444 -3.88505 -3.92133 0
M  V30 1229 H 128.92 -1.9757 -3.66204 0
M  V30 1230 H 127.796 -2.20683 -5.02583 0
M  V30 1231 H 128.057 -0.593933 -4.38092 0
M  V30 1232 N 127.117 1.15442 -1.07289 0
M  V30 1233 C 128.365 1.85845 -0.794096 0
M  V30 1234 C 128.686 1.82692 0.681809 0
M  V30 1235 O 127.956 1.26741 1.49377 0
M  V30 1236 H 126.536 0.688089 -0.290763 0
M  V30 1237 H 129.198 1.39947 -1.3565 0
M  V30 1238 H 128.294 2.91001 -1.12804 0
M  V30 1239 N 128.595 0.856903 1.32268 0
M  V30 1240 C 129.844 0.457599 1.96441 0
M  V30 1241 C 130.157 -0.992426 1.68553 0
M  V30 1242 O 131.363 -1.49727 2.26482 0
M  V30 1243 C 129.819 0.767358 3.51624 0
M  V30 1244 C 129.427 2.23326 3.88367 0
M  V30 1245 C 131.171 0.435887 4.22256 0
M  V30 1246 C 129.078 2.48613 5.36606 0
M  V30 1247 H 128.008 0.167387 0.735185 0
M  V30 1248 H 130.659 1.048 1.5063 0
M  V30 1249 H 129.041 0.106367 3.95857 0
M  V30 1250 H 130.215 2.93623 3.55137 0
M  V30 1251 H 128.53 2.52948 3.30766 0
M  V30 1252 H 131.127 0.602202 5.31298 0
M  V30 1253 H 131.47 -0.622672 4.11617 0
M  V30 1254 H 132.003 1.05286 3.83614 0
M  V30 1255 H 128.742 3.53101 5.52268 0
M  V30 1256 H 128.262 1.82896 5.71235 0
M  V30 1257 H 129.941 2.32676 6.03714 0
M  V30 1258 N 130.073 -1.45103 0.615059 0
M  V30 1259 C 131.321 -2.01784 0.112955 0
M  V30 1260 C 131.642 -1.48504 -1.26378 0
M  V30 1261 O 130.912 -0.682245 -1.83636 0
M  V30 1262 H 129.492 -0.745993 0.0387668 0
M  V30 1263 H 132.154 -1.77808 0.798141 0
M  V30 1264 H 131.25 -3.12025 0.0684069 0
M  V30 1265 N 131.551 -0.354651 -1.53558 0
M  V30 1266 C 132.483 0.5315 -2.22952 0
M  V30 1267 C 133.496 1.05503 -1.23988 0
M  V30 1268 O 134.685 0.963279 -1.50277 0
M  V30 1269 C 131.785 1.74538 -2.90499 0
M  V30 1270 C 130.958 1.35524 -4.15875 0
M  V30 1271 C 130.017 2.42999 -4.66731 0
M  V30 1272 O 129.043 2.05844 -5.30676 0
M  V30 1273 N 130.245 3.74423 -4.43608 0
M  V30 1274 H 133.01 -0.0628615 -2.99634 0
M  V30 1275 H 130.571 -0.179302 -1.60904 0
M  V30 1276 H 132.563 2.45892 -3.21433 0
M  V30 1277 H 131.133 2.24686 -2.17336 0
M  V30 1278 H 130.353 0.471998 -3.91364 0
M  V30 1279 H 131.641 1.07071 -4.97406 0
M  V30 1280 H 131.039 4.07391 -3.92491 0
M  V30 1281 H 129.596 4.41913 -4.7912 0
M  V30 1282 N 133.029 1.57378 -0.0835403 0
M  V30 1283 C 134.278 1.93106 0.582498 0
M  V30 1284 C 134.591 0.96651 1.70053 0
M  V30 1285 O 135.797 1.21705 2.42693 0
M  V30 1286 C 134.253 3.43076 1.08751 0
M  V30 1287 C 133.861 4.48 -0.000146404 0
M  V30 1288 C 135.605 3.87785 1.72694 0
M  V30 1289 C 133.512 5.89113 0.519568 0
M  V30 1290 H 132.442 0.720775 0.221358 0
M  V30 1291 H 135.093 1.82821 -0.157675 0
M  V30 1292 H 133.475 3.48474 1.88101 0
M  V30 1293 H 134.649 4.54233 -0.775199 0
M  V30 1294 H 132.964 4.1283 -0.54406 0
M  V30 1295 H 135.561 4.90604 2.1263 0
M  V30 1296 H 135.904 3.25796 2.59158 0
M  V30 1297 H 136.437 3.8504 0.999457 0
M  V30 1298 H 133.176 6.54775 -0.308186 0
M  V30 1299 H 132.696 5.86376 1.26188 0
M  V30 1300 H 134.375 6.39346 0.992237 0
M  V30 1301 N 134.507 -0.190092 1.56449 0
M  V30 1302 C 135.918 -0.754312 1.70784 0
M  V30 1303 C 136.269 -1.83631 0.690951 0
M  V30 1304 O 135.394 -2.15868 -0.151604 0
M  V30 1305 C 135.989 -1.37503 3.09642 0
M  V30 1306 C 134.548 -1.88628 3.25725 0
M  V30 1307 C 133.695 -0.758098 2.66736 0
M  V30 1308 H 136.646 0.0350524 1.58661 0
M  V30 1309 H 136.667 -2.2445 3.0725 0
M  V30 1310 H 136.179 -0.587302 3.83631 0
M  V30 1311 H 134.28 -2.70103 2.56661 0
M  V30 1312 H 134.393 -2.04462 4.3328 0
M  V30 1313 H 132.757 -1.17369 2.26046 0
M  V30 1314 H 133.54 0.0174705 3.43296 0
M  V30 1315 N 135.985 -1.50799 -0.457987 0
M  V30 1316 C 137.233 -1.62121 -1.2067 0
M  V30 1317 C 137.554 -0.329793 -1.92191 0
M  V30 1318 O 136.824 0.653409 -1.84682 0
M  V30 1319 H 135.404 -0.597441 -0.448411 0
M  V30 1320 H 138.066 -1.87637 -0.527096 0
M  V30 1321 H 137.162 -2.43882 -1.94751 0
M  V30 1322 N 137.463 0.71206 -1.40597 0
M  V30 1323 C 138.711 1.46907 -1.38791 0
M  V30 1324 C 139.032 1.94998 0.00780391 0
M  V30 1325 O 138.302 1.70587 0.963174 0
M  V30 1326 H 136.882 0.545043 -0.51082 0
M  V30 1327 H 139.544 0.843882 -1.75683 0
M  V30 1328 H 138.64 2.34021 -2.06496 0
M  V30 1329 N 138.941 1.26152 0.944643 0
M  V30 1330 C 140.188 1.11492 1.69044 0
M  V30 1331 C 140.516 -0.342366 1.91463 0
M  V30 1332 O 139.771 -1.26812 1.49054 0
M  V30 1333 C 140.07 1.82541 3.07268 0
M  V30 1334 C 139.736 3.32445 3.04616 0
M  V30 1335 C 138.398 3.73337 3.036 0
M  V30 1336 C 140.75 4.28171 2.97185 0
M  V30 1337 C 138.078 5.08348 2.92915 0
M  V30 1338 C 140.43 5.63218 2.88041 0
M  V30 1339 C 139.094 6.03426 2.85366 0
M  V30 1340 H 138.364 0.407977 0.618576 0
M  V30 1341 H 141.011 1.56551 1.10291 0
M  V30 1342 H 139.316 1.29941 3.69625 0
M  V30 1343 H 141.013 1.68642 3.63815 0
M  V30 1344 H 137.603 2.99915 3.06185 0
M  V30 1345 H 141.787 3.97563 2.97081 0
M  V30 1346 H 137.043 5.38667 2.89219 0
M  V30 1347 H 141.217 6.37078 2.81254 0
M  V30 1348 H 138.844 7.07999 2.76842 0
M  V30 1349 N 140.419 -1.14872 1.07899 0
M  V30 1350 C 141.667 -1.85422 0.803941 0
M  V30 1351 C 141.988 -1.83051 -0.67211 0
M  V30 1352 O 141.258 -1.27532 -1.48703 0
M  V30 1353 H 139.838 -0.686537 0.294408 0
M  V30 1354 H 142.5 -1.39226 1.3639 0
M  V30 1355 H 141.596 -2.90399 1.14346 0
M  V30 1356 N 141.898 -0.863906 -1.31812 0
M  V30 1357 C 142.828 -0.330843 -2.31144 0
M  V30 1358 C 143.809 0.575005 -1.60087 0
M  V30 1359 O 144.994 0.493304 -1.8783 0
M  V30 1360 C 142.124 0.47374 -3.44054 0
M  V30 1361 C 141.078 -0.338481 -4.26659 0
M  V30 1362 C 140.404 0.591412 -5.31419 0
M  V30 1363 C 141.704 -1.56926 -4.98168 0
M  V30 1364 H 143.398 -1.16086 -2.75979 0
M  V30 1365 H 140.944 -0.559657 -1.32679 0
M  V30 1366 H 142.897 0.857143 -4.12591 0
M  V30 1367 H 141.621 1.33721 -2.9797 0
M  V30 1368 H 140.28 -0.703754 -3.59782 0
M  V30 1369 H 139.928 1.45199 -4.81587 0
M  V30 1370 H 139.628 0.0519022 -5.87577 0
M  V30 1371 H 141.152 0.97179 -6.02817 0
M  V30 1372 H 142.566 -1.25764 -5.59336 0
M  V30 1373 H 140.963 -2.04739 -5.64094 0
M  V30 1374 H 142.033 -2.32544 -4.25501 0
M  V30 1375 N 143.376 1.44774 -0.622745 0
M  V30 1376 C 144.286 2.34433 0.0886031 0
M  V30 1377 C 145.302 1.52131 0.844529 0
M  V30 1378 O 146.478 1.84886 0.798691 0
M  V30 1379 C 143.543 3.29986 1.0635 0
M  V30 1380 C 142.604 4.28195 0.307873 0
M  V30 1381 C 141.837 5.19183 1.23633 0
M  V30 1382 O 142.06 5.13918 2.47476 0
M  V30 1383 O 140.994 5.97515 0.725189 0
M  V30 1384 H 144.82 2.96693 -0.648599 0
M  V30 1385 H 142.405 1.44408 -0.382957 0
M  V30 1386 H 144.287 3.88825 1.6246 0
M  V30 1387 H 142.962 2.70269 1.78146 0
M  V30 1388 H 141.869 3.72927 -0.296064 0
M  V30 1389 H 143.202 4.90808 -0.3699 0
M  V30 1390 N 144.854 0.36279 1.53368 0
M  V30 1391 C 146.1 -0.228113 2.01513 0
M  V30 1392 C 146.433 -1.48648 1.2497 0
M  V30 1393 O 145.708 -1.91459 0.342616 0
M  V30 1394 C 145.991 -0.522884 3.56284 0
M  V30 1395 C 145.844 0.74892 4.43521 0
M  V30 1396 C 147.163 -1.32461 4.19693 0
M  V30 1397 H 144.282 -0.0814343 0.732487 0
M  V30 1398 H 146.924 0.48713 1.83649 0
M  V30 1399 H 145.074 -1.1322 3.71636 0
M  V30 1400 H 146.746 1.38648 4.39971 0
M  V30 1401 H 144.989 1.36986 4.11603 0
M  V30 1402 H 145.66 0.497667 5.49752 0
M  V30 1403 H 148.136 -0.809203 4.08156 0
M  V30 1404 H 147.012 -1.49961 5.28018 0
M  V30 1405 H 147.273 -2.33232 3.75573 0
M  V30 1406 N 146.332 -1.57332 0.0918853 0
M  V30 1407 C 147.242 -2.17368 -0.882505 0
M  V30 1408 C 148.258 -1.14226 -1.31257 0
M  V30 1409 O 149.434 -1.46582 -1.38115 0
M  V30 1410 C 146.499 -2.73962 -2.12476 0
M  V30 1411 C 145.56 -3.92048 -1.7492 0
M  V30 1412 C 144.793 -4.45933 -2.93223 0
M  V30 1413 O 145.016 -3.98764 -4.07852 0
M  V30 1414 O 143.95 -5.36999 -2.71875 0
M  V30 1415 H 147.776 -3.01031 -0.40172 0
M  V30 1416 H 145.361 -1.48813 -0.132291 0
M  V30 1417 H 147.243 -3.10147 -2.85283 0
M  V30 1418 H 145.918 -1.93347 -2.59613 0
M  V30 1419 H 144.825 -3.6068 -0.993025 0
M  V30 1420 H 146.158 -4.74017 -1.32548 0
M  V30 1421 N 147.81 0.181792 -1.56548 0
M  V30 1422 C 148.74 1.22765 -1.98623 0
M  V30 1423 C 149.721 1.46747 -0.860189 0
M  V30 1424 O 150.906 1.58259 -1.12551 0
M  V30 1425 C 148.036 2.56894 -2.33715 0
M  V30 1426 C 146.99 2.475 -3.49182 0
M  V30 1427 C 146.316 3.86023 -3.69986 0
M  V30 1428 C 147.616 1.98866 -4.82959 0
M  V30 1429 H 149.31 0.877942 -2.86239 0
M  V30 1430 H 146.856 0.42088 -1.37712 0
M  V30 1431 H 148.809 3.30253 -2.61746 0
M  V30 1432 H 147.533 2.93632 -1.42997 0
M  V30 1433 H 146.192 1.76596 -3.21262 0
M  V30 1434 H 145.84 4.20136 -2.76576 0
M  V30 1435 H 145.54 3.80609 -4.47672 0
M  V30 1436 H 147.064 4.60984 -4.00407 0
M  V30 1437 H 148.478 2.61992 -5.09934 0
M  V30 1438 H 146.875 2.04424 -5.64208 0
M  V30 1439 H 147.945 0.942465 -4.75653 0
M  V30 1440 N 149.288 1.51039 0.449983 0
M  V30 1441 C 150.238 1.67824 1.54335 0
M  V30 1442 C 151.222 0.5324 1.51836 0
M  V30 1443 O 152.414 0.787762 1.58503 0
M  V30 1444 C 149.543 1.7951 2.92628 0
M  V30 1445 C 148.629 2.99838 2.9993 0
M  V30 1446 N 149.02 4.23207 2.77001 0
M  V30 1447 C 147.318 2.98832 3.31082 0
M  V30 1448 C 148.019 5.04361 2.89818 0
M  V30 1449 N 146.995 4.38746 3.2094 0
M  V30 1450 H 150.797 2.60884 1.35339 0
M  V30 1451 H 148.311 1.48513 0.657085 0
M  V30 1452 H 150.308 1.89642 3.7127 0
M  V30 1453 H 148.968 0.876227 3.12654 0
M  V30 1454 H 149.979 4.5236 2.52172 0
M  V30 1455 H 146.656 2.16527 3.56963 0
M  V30 1456 H 148.046 6.12528 2.76151 0
M  V30 1457 N 150.766 -0.704594 1.40972 0
M  V30 1458 C 152.015 -1.46018 1.39146 0
M  V30 1459 C 152.328 -1.956 0.000589254 0
M  V30 1460 O 153.534 -2.71137 -0.1403 0
M  V30 1461 C 151.99 -2.63996 2.4461 0
M  V30 1462 C 151.598 -2.21238 3.89561 0
M  V30 1463 C 153.342 -3.41677 2.51907 0
M  V30 1464 C 151.249 -3.3612 4.86598 0
M  V30 1465 H 150.179 -0.548444 0.517422 0
M  V30 1466 H 152.83 -0.765784 1.66757 0
M  V30 1467 H 151.212 -3.3566 2.10115 0
M  V30 1468 H 152.386 -1.56923 4.33257 0
M  V30 1469 H 150.701 -1.56574 3.85841 0
M  V30 1470 H 153.298 -4.27182 3.2159 0
M  V30 1471 H 153.641 -3.86247 1.55303 0
M  V30 1472 H 154.174 -2.77064 2.85448 0
M  V30 1473 H 150.913 -2.96572 5.84573 0
M  V30 1474 H 150.433 -3.99315 4.47557 0
M  V30 1475 H 152.112 -4.02029 5.06934 0
M  V30 1476 N 152.244 -1.26651 -0.937939 0
M  V30 1477 C 153.192 -1.08308 -2.05845 0
M  V30 1478 C 154.186 -0.0090757 -1.69398 0
M  V30 1479 O 155.392 -0.166007 -1.79233 0
M  V30 1480 H 151.767 -0.333416 -0.674046 0
M  V30 1481 H 153.738 -2.03261 -2.18467 0
M  V30 1482 C 152.487 -0.736229 -3.39816 0
M  V30 1483 H 151.81 -1.55453 -3.6834 0
M  V30 1484 H 153.25 -0.64769 -4.19024 0
M  V30 1485 C 151.709 0.558824 -3.32233 0
M  V30 1486 O 152.239 1.59621 -3.68624 0
M  V30 1487 N 150.445 0.550657 -2.85335 0
M  V30 1488 H 149.992 -0.293943 -2.55917 0
M  V30 1489 H 149.95 1.41726 -2.80644 0
M  V30 1490 N 153.722 1.14298 -1.08507 0
M  V30 1491 C 154.652 2.21542 -0.737646 0
M  V30 1492 C 155.633 1.67773 0.280377 0
M  V30 1493 O 156.818 1.93616 0.150521 0
M  V30 1494 C 153.948 3.46988 -0.147259 0
M  V30 1495 C 152.902 4.13789 -1.09374 0
M  V30 1496 C 152.228 5.33449 -0.365524 0
M  V30 1497 C 153.528 4.62208 -2.4323 0
M  V30 1498 H 155.222 2.5086 -1.6343 0
M  V30 1499 H 152.768 1.20576 -0.787243 0
M  V30 1500 H 154.721 4.21262 0.107808 0
M  V30 1501 H 153.445 3.17037 0.784538 0
M  V30 1502 H 152.104 3.4147 -1.33393 0
M  V30 1503 H 151.752 4.99759 0.57011 0
M  V30 1504 H 151.452 5.79088 -0.996512 0
M  V30 1505 H 152.976 6.10485 -0.118534 0
M  V30 1506 H 154.39 5.27952 -2.23472 0
M  V30 1507 H 152.787 5.18553 -3.02031 0
M  V30 1508 H 153.857 3.77224 -3.04681 0
M  V30 1509 N 155.201 0.870884 1.31352 0
M  V30 1510 C 156.612 0.534714 1.78879 0
M  V30 1511 C 156.963 -0.948423 1.71754 0
M  V30 1512 O 156.088 -1.74055 1.28584 0
M  V30 1513 C 156.683 0.963839 3.24801 0
M  V30 1514 C 155.242 0.679311 3.70219 0
M  V30 1515 C 154.389 1.15465 2.52117 0
M  V30 1516 H 157.34 1.05651 1.18421 0
M  V30 1517 H 157.361 0.286892 3.79417 0
M  V30 1518 H 156.873 2.04332 3.29955 0
M  V30 1519 H 154.974 -0.388769 3.70566 0
M  V30 1520 H 155.087 1.25698 4.62317 0
M  V30 1521 H 153.451 0.574383 2.48139 0
M  V30 1522 H 154.234 2.24157 2.60016 0
M  V30 1523 N 156.679 -1.44442 0.630414 0
M  V30 1524 C 157.927 -2.01653 0.134351 0
M  V30 1525 C 158.248 -1.49836 -1.24796 0
M  V30 1526 O 157.518 -0.701684 -1.82902 0
M  V30 1527 H 156.098 -0.74554 0.0466769 0
M  V30 1528 H 158.76 -1.76952 0.816955 0
M  V30 1529 H 157.856 -3.11935 0.101498 0
M  V30 1530 N 158.157 -0.370918 -1.53173 0
M  V30 1531 C 159.087 0.464847 -2.28826 0
M  V30 1532 C 160.068 1.07936 -1.31468 0
M  V30 1533 O 161.253 1.0956 -1.60344 0
M  V30 1534 C 158.383 1.60196 -3.08147 0
M  V30 1535 C 157.337 1.11443 -4.13237 0
M  V30 1536 C 156.663 2.3422 -4.80672 0
M  V30 1537 C 157.963 0.195384 -5.21934 0
M  V30 1538 H 159.657 -0.166329 -2.98938 0
M  V30 1539 H 157.203 -0.0814359 -1.4377 0
M  V30 1540 H 159.156 2.19332 -3.59822 0
M  V30 1541 H 157.88 2.26045 -2.35735 0
M  V30 1542 H 156.539 0.545727 -3.62515 0
M  V30 1543 H 156.187 2.98537 -4.04827 0
M  V30 1544 H 155.887 2.02269 -5.51689 0
M  V30 1545 H 157.411 2.94032 -5.35143 0
M  V30 1546 H 158.825 0.694375 -5.69079 0
M  V30 1547 H 157.222 -0.0335027 -6.00091 0
M  V30 1548 H 158.292 -0.760961 -4.78892 0
M  V30 1549 N 159.635 1.57281 -0.100228 0
M  V30 1550 C 160.545 2.17833 0.870965 0
M  V30 1551 C 161.561 1.14921 1.30649 0
M  V30 1552 O 162.737 1.47313 1.37335 0
M  V30 1553 C 159.802 2.75085 2.1102 0
M  V30 1554 C 158.863 3.9297 1.72838 0
M  V30 1555 C 158.096 4.47482 2.90854 0
M  V30 1556 O 158.319 4.00922 4.05731 0
M  V30 1557 O 157.253 5.38433 2.69023 0
M  V30 1558 H 161.079 3.0124 0.38575 0
M  V30 1559 H 158.664 1.48881 0.124397 0
M  V30 1560 H 160.546 3.11656 2.83634 0
M  V30 1561 H 159.221 1.94721 2.58584 0
M  V30 1562 H 158.128 3.61201 0.973883 0
M  V30 1563 H 159.461 4.74713 1.30033 0
M  V30 1564 N 161.113 -0.173488 1.56642 0
M  V30 1565 C 162.529 -0.525174 1.50712 0
M  V30 1566 C 162.729 -1.8476 0.804107 0
M  V30 1567 O 161.785 -2.49869 0.363574 0
M  V30 1568 C 163.098 -0.559937 2.95441 0
M  V30 1569 C 164.646 -0.647288 3.06234 0
M  V30 1570 C 165.121 -0.712963 4.52417 0
M  V30 1571 N 166.612 -0.775911 4.56655 0
M  V30 1572 C 167.347 -0.847264 5.67106 0
M  V30 1573 N 166.843 -0.879585 6.87194 0
M  V30 1574 N 168.636 -0.886117 5.55071 0
M  V30 1575 H 160.787 0.693681 2.00753 0
M  V30 1576 H 163.05 0.249841 0.914485 0
M  V30 1577 H 162.756 0.343049 3.50023 0
M  V30 1578 H 162.63 -1.40718 3.49969 0
M  V30 1579 H 165.017 -1.5407 2.51687 0
M  V30 1580 H 165.098 0.226586 2.54794 0
M  V30 1581 H 164.742 0.176183 5.07594 0
M  V30 1582 H 164.672 -1.60295 5.0161 0
M  V30 1583 H 167.163 -0.759304 3.70193 0
M  V30 1584 H 167.476 -0.935144 7.67121 0
M  V30 1585 H 165.821 -0.847898 6.89808 0
M  V30 1586 H 169.012 -0.857853 4.60172 0
M  V30 1587 H 169.185 -0.938263 6.41171 0
M  V30 1588 N 162.591 -1.51276 -0.441967 0
M  V30 1589 C 163.501 -1.75092 -1.56141 0
M  V30 1590 C 164.517 -0.634963 -1.62001 0
M  V30 1591 O 165.693 -0.916686 -1.79329 0
M  V30 1592 C 162.758 -1.86666 -2.92158 0
M  V30 1593 C 161.819 -3.10506 -2.96453 0
M  V30 1594 C 161.052 -3.21519 -4.25982 0
M  V30 1595 O 161.275 -2.38586 -5.18105 0
M  V30 1596 O 160.209 -4.14465 -4.36466 0
M  V30 1597 H 164.035 -2.70044 -1.38961 0
M  V30 1598 H 161.62 -1.35722 -0.624499 0
M  V30 1599 H 163.502 -1.96292 -3.72891 0
M  V30 1600 H 162.177 -0.949014 -3.09476 0
M  V30 1601 H 161.084 -3.06363 -2.14692 0
M  V30 1602 H 162.417 -4.01945 -2.84079 0
M  V30 1603 N 164.069 0.697108 -1.41344 0
M  V30 1604 C 165.032 1.79281 -1.42797 0
M  V30 1605 C 166.032 1.57607 -0.318837 0
M  V30 1606 O 167.222 1.64309 -0.578642 0
M  V30 1607 C 164.354 3.17632 -1.23785 0
M  V30 1608 H 165.547 1.79385 -2.40335 0
M  V30 1609 H 163.1 0.904582 -1.27464 0
M  V30 1610 H 163.835 3.23167 -0.270814 0
M  V30 1611 H 163.62 3.34765 -2.04144 0
M  V30 1612 H 165.11 3.97617 -1.27633 0
M  V30 1613 N 165.547 1.27147 0.931209 0
M  V30 1614 C 166.51 1.09615 2.01289 0
M  V30 1615 C 167.51 0.0412581 1.60747 0
M  V30 1616 O 168.7 0.285545 1.71844 0
M  V30 1617 C 165.832 0.669447 3.34262 0
M  V30 1618 H 167.025 2.05662 2.18273 0
M  V30 1619 H 164.578 1.09885 1.11153 0
M  V30 1620 H 165.313 -0.292572 3.22978 0
M  V30 1621 H 165.098 1.43127 3.65044 0
M  V30 1622 H 166.588 0.568921 4.13706 0
M  V30 1623 N 167.025 -1.13721 1.09112 0
M  V30 1624 C 167.935 -2.22638 0.73957 0
M  V30 1625 C 168.951 -1.72091 -0.257068 0
M  V30 1626 O 170.127 -2.01155 -0.0992154 0
M  V30 1627 C 167.192 -3.46322 0.16191 0
M  V30 1628 C 166.253 -4.11775 1.21408 0
M  V30 1629 C 165.486 -5.29555 0.663891 0
M  V30 1630 O 165.709 -5.68077 -0.514274 0
M  V30 1631 O 164.643 -5.84973 1.41738 0
M  V30 1632 H 168.469 -2.55074 1.64836 0
M  V30 1633 H 166.054 -1.21791 0.865289 0
M  V30 1634 H 167.936 -4.21107 -0.157073 0
M  V30 1635 H 166.611 -3.15593 -0.719932 0
M  V30 1636 H 165.518 -3.3883 1.58571 0
M  V30 1637 H 166.851 -4.46627 2.06845 0
M  V30 1638 N 168.503 -0.877838 -1.30888 0
M  V30 1639 C 169.466 -0.344265 -2.266 0
M  V30 1640 C 170.466 0.50922 -1.52524 0
M  V30 1641 O 171.656 0.317398 -1.71284 0
M  V30 1642 C 168.788 0.510198 -3.37061 0
M  V30 1643 H 169.981 -1.1893 -2.7531 0
M  V30 1644 H 167.534 -0.654088 -1.41956 0
M  V30 1645 H 168.269 1.37612 -2.93655 0
M  V30 1646 H 168.054 -0.101047 -3.9197 0
M  V30 1647 H 169.544 0.875537 -4.08319 0
M  V30 1648 N 169.982 1.44106 -0.638065 0
M  V30 1649 C 170.912 2.33448 0.0494287 0
M  V30 1650 C 171.893 1.48606 0.827672 0
M  V30 1651 O 173.078 1.77308 0.792173 0
M  V30 1652 C 170.208 3.31771 1.02691 0
M  V30 1653 C 169.162 4.26485 0.359823 0
M  V30 1654 C 168.488 5.14729 1.44769 0
M  V30 1655 C 169.788 5.17056 -0.738296 0
M  V30 1656 H 171.482 2.91183 -0.696636 0
M  V30 1657 H 169.028 1.40014 -0.336456 0
M  V30 1658 H 170.981 3.93161 1.51666 0
M  V30 1659 H 169.705 2.7226 1.80395 0
M  V30 1660 H 168.364 3.66437 -0.10934 0
M  V30 1661 H 168.012 4.51566 2.21578 0
M  V30 1662 H 167.712 5.78913 1.00668 0
M  V30 1663 H 169.236 5.78991 1.93911 0
M  V30 1664 H 170.65 5.72342 -0.331354 0
M  V30 1665 H 169.047 5.89879 -1.10286 0
M  V30 1666 H 170.117 4.57652 -1.60258 0
M  V30 1667 N 171.46 0.379036 1.52974 0
M  V30 1668 C 172.706 -0.206727 2.01744 0
M  V30 1669 C 173.039 -1.47314 1.26539 0
M  V30 1670 O 172.314 -1.91084 0.362903 0
M  V30 1671 C 172.597 -0.485066 3.56818 0
M  V30 1672 C 172.45 0.795919 4.42702 0
M  V30 1673 C 173.769 -1.28003 4.21074 0
M  V30 1674 H 170.888 -0.0736607 0.73331 0
M  V30 1675 H 173.53 0.506581 1.83122 0
M  V30 1676 H 171.68 -1.09272 3.72816 0
M  V30 1677 H 173.352 1.43307 4.38476 0
M  V30 1678 H 171.595 1.41344 4.10127 0
M  V30 1679 H 172.266 0.555947 5.49193 0
M  V30 1680 H 174.742 -0.765867 4.08991 0
M  V30 1681 H 173.618 -1.44352 5.29579 0
M  V30 1682 H 173.879 -2.29236 3.78026 0
M  V30 1683 N 172.938 -1.57226 0.108567 0
M  V30 1684 C 173.901 -2.13602 -0.831082 0
M  V30 1685 C 174.901 -1.06841 -1.20173 0
M  V30 1686 O 176.091 -1.32666 -1.12895 0
M  V30 1687 C 173.223 -2.66769 -2.12243 0
M  V30 1688 H 174.416 -2.97951 -0.341317 0
M  V30 1689 H 171.969 -1.55667 -0.14057 0
M  V30 1690 H 172.704 -1.85977 -2.65675 0
M  V30 1691 H 172.489 -3.44839 -1.86625 0
M  V30 1692 H 173.979 -3.10332 -2.79435 0
M  V30 1693 N 174.416 0.165178 -1.56732 0
M  V30 1694 C 175.379 1.18822 -1.95995 0
M  V30 1695 C 176.379 1.3685 -0.84431 0
M  V30 1696 O 177.569 1.34152 -1.11126 0
M  V30 1697 C 174.701 2.5521 -2.26011 0
M  V30 1698 H 175.894 0.851825 -2.87548 0
M  V30 1699 H 173.447 0.407857 -1.50885 0
M  V30 1700 H 174.182 2.93852 -1.37191 0
M  V30 1701 H 173.967 2.43489 -3.07336 0
M  V30 1702 H 175.457 3.28927 -2.57288 0
M  V30 1703 N 175.894 1.51508 0.433938 0
M  V30 1704 C 176.857 1.72473 1.50949 0
M  V30 1705 C 177.857 0.594725 1.49398 0
M  V30 1706 O 179.047 0.862315 1.5136 0
M  V30 1707 C 176.179 1.78431 2.90474 0
M  V30 1708 H 177.372 2.68467 1.33662 0
M  V30 1709 H 174.925 1.41549 0.662836 0
M  V30 1710 H 175.66 0.842645 3.13161 0
M  V30 1711 H 175.445 2.60558 2.93005 0
M  V30 1712 H 176.935 1.96479 3.68491 0
M  V30 1713 N 177.372 -0.689602 1.41712 0
M  V30 1714 C 178.322 -1.79571 1.40493 0
M  V30 1715 C 179.306 -1.58473 0.278409 0
M  V30 1716 O 180.498 -1.69204 0.519532 0
M  V30 1717 C 177.627 -3.17923 1.29536 0
M  V30 1718 C 176.713 -3.44695 2.47075 0
M  V30 1719 N 177.104 -3.42132 3.72531 0
M  V30 1720 C 175.402 -3.75269 2.41017 0
M  V30 1721 C 176.103 -3.67976 4.50521 0
M  V30 1722 N 175.079 -3.88014 3.80718 0
M  V30 1723 H 178.881 -1.75961 2.35404 0
M  V30 1724 H 176.395 -0.889839 1.35851 0
M  V30 1725 H 178.392 -3.97167 1.26745 0
M  V30 1726 H 177.052 -3.22741 0.356153 0
M  V30 1727 H 178.063 -3.22375 4.05333 0
M  V30 1728 H 174.74 -3.87421 1.55599 0
M  V30 1729 H 176.13 -3.7208 5.59469 0
M  V30 1730 N 178.85 -1.27639 -0.924453 0
M  V30 1731 C 179.782 -1.06442 -2.02985 0
M  V30 1732 C 180.795 -0.0194771 -1.62788 0
M  V30 1733 O 181.984 -0.261388 -1.76576 0
M  V30 1734 C 179.084 -0.59327 -3.33667 0
M  V30 1735 C 178.257 -1.71123 -4.02537 0
M  V30 1736 C 177.316 -1.23527 -5.11495 0
M  V30 1737 O 176.342 -1.93553 -5.35281 0
M  V30 1738 N 177.544 -0.0926678 -5.80426 0
M  V30 1739 H 180.309 -2.01633 -2.2173 0
M  V30 1740 H 177.87 -1.19248 -1.09505 0
M  V30 1741 H 179.862 -0.258686 -4.03872 0
M  V30 1742 H 178.432 0.265502 -3.1147 0
M  V30 1743 H 177.652 -2.21593 -3.26022 0
M  V30 1744 H 178.94 -2.46145 -4.45298 0
M  V30 1745 H 178.338 0.491741 -5.63559 0
M  V30 1746 H 176.895 0.182714 -6.51544 0
M  V30 1747 N 180.328 1.1314 -1.09713 0
M  V30 1748 C 181.574 1.84757 -0.836224 0
M  V30 1749 C 181.907 1.8347 0.636598 0
M  V30 1750 O 181.182 1.27491 1.46889 0
M  V30 1751 C 181.465 3.32782 -1.37578 0
M  V30 1752 C 181.318 3.42567 -2.91493 0
M  V30 1753 C 182.637 4.28307 -1.01198 0
M  V30 1754 H 179.756 0.67082 -0.305236 0
M  V30 1755 H 182.398 1.3278 -1.35903 0
M  V30 1756 H 180.548 3.77177 -0.931097 0
M  V30 1757 H 182.22 3.06862 -3.44432 0
M  V30 1758 H 180.463 2.83349 -3.28475 0
M  V30 1759 H 181.134 4.46674 -3.24324 0
M  V30 1760 H 183.61 3.91999 -1.39556 0
M  V30 1761 H 182.486 5.30307 -1.41653 0
M  V30 1762 H 182.747 4.42029 0.0794833 0
M  V30 1763 N 181.806 0.884767 1.30421 0
M  V30 1764 C 183.046 0.509806 1.9794 0
M  V30 1765 C 183.41 -0.923736 1.68319 0
M  V30 1766 O 184.611 -1.40481 2.29169 0
M  V30 1767 C 182.882 0.776732 3.48858 0
M  V30 1768 S 184.441 0.503843 4.35898 0
M  V30 1769 H 181.259 0.189699 0.685227 0
M  V30 1770 H 183.861 1.14399 1.58535 0
M  V30 1771 H 182.565 1.81857 3.67908 0
M  V30 1772 H 182.096 0.1301 3.93185 0
M  V30 1773 H 184.111 -0.657625 4.91823 0
M  V30 1774 N 183.284 -1.43765 0.645699 0
M  V30 1775 C 184.695 -1.85193 0.236719 0
M  V30 1776 C 185.046 -1.54045 -1.21509 0
M  V30 1777 O 184.171 -0.985694 -1.92647 0
M  V30 1778 C 184.766 -3.36151 0.422845 0
M  V30 1779 C 183.325 -3.76338 0.0682492 0
M  V30 1780 C 182.472 -2.67538 0.729306 0
M  V30 1781 H 185.423 -1.34025 0.849883 0
M  V30 1782 H 185.444 -3.79032 -0.333904 0
M  V30 1783 H 184.956 -3.5879 1.47958 0
M  V30 1784 H 183.057 -3.59312 -0.986179 0
M  V30 1785 H 183.17 -4.76603 0.488469 0
M  V30 1786 H 181.534 -2.54176 0.163235 0
M  V30 1787 H 182.317 -2.93006 1.78892 0
M  V30 1788 N 184.763 -0.387143 -1.52771 0
M  V30 1789 C 185.993 0.195585 -2.05672 0
M  V30 1790 C 186.401 1.41241 -1.25887 0
M  V30 1791 O 185.744 1.81265 -0.298081 0
M  V30 1792 C 185.806 0.632327 -3.53895 0
M  V30 1793 C 185.47 -0.470739 -4.54569 0
M  V30 1794 C 186.467 -1.32746 -5.02667 0
M  V30 1795 C 184.152 -0.637151 -4.98243 0
M  V30 1796 C 186.146 -2.33574 -5.93061 0
M  V30 1797 C 183.833 -1.64877 -5.88438 0
M  V30 1798 C 184.831 -2.49649 -6.35739 0
M  V30 1799 O 184.519 -3.49082 -7.24153 0
M  V30 1800 H 184.251 0.033658 -0.675162 0
M  V30 1801 H 186.805 -0.550221 -1.97893 0
M  V30 1802 H 185.035 1.43008 -3.59285 0
M  V30 1803 H 186.724 1.14048 -3.89548 0
M  V30 1804 H 187.49 -1.21019 -4.69659 0
M  V30 1805 H 183.369 0.0129567 -4.60998 0
M  V30 1806 H 186.913 -2.99777 -6.29904 0
M  V30 1807 H 182.81 -1.76643 -6.2086 0
M  V30 1808 H 183.578 -3.45065 -7.42208 0
M  V30 1809 N 186.241 1.57166 -0.116904 0
M  V30 1810 C 187.466 1.999 0.55271 0
M  V30 1811 C 187.891 0.996039 1.59564 0
M  V30 1812 O 187.249 -0.032556 1.81271 0
M  V30 1813 C 187.297 3.4152 1.15742 0
M  V30 1814 O 186.401 3.44106 2.27299 0
M  V30 1815 H 185.742 0.649447 0.138258 0
M  V30 1816 H 188.272 2.03573 -0.204759 0
M  V30 1817 H 188.282 3.79684 1.49346 0
M  V30 1818 H 186.957 4.14034 0.393493 0
M  V30 1819 H 185.534 3.17759 1.9515 0
M  V30 1820 N 187.719 -0.156864 1.56817 0
M  V30 1821 C 188.667 -1.21319 1.98455 0
M  V30 1822 C 189.661 -1.45025 0.875444 0
M  V30 1823 O 190.867 -1.45435 1.0606 0
M  V30 1824 H 187.242 -0.408142 0.631605 0
M  V30 1825 H 189.213 -0.835244 2.86472 0
M  V30 1826 C 187.962 -2.54148 2.37285 0
M  V30 1827 H 187.285 -2.36733 3.22176 0
M  V30 1828 H 188.725 -3.26712 2.70251 0
M  V30 1829 C 187.184 -3.13967 1.22173 0
M  V30 1830 O 187.714 -3.98357 0.517149 0
M  V30 1831 N 185.92 -2.7327 0.988536 0
M  V30 1832 H 185.467 -2.04744 1.56326 0
M  V30 1833 H 185.425 -3.13628 0.220209 0
M  V30 1834 N 189.197 -1.51736 -0.425897 0
M  V30 1835 C 190.16 -1.73271 -1.50032 0
M  V30 1836 C 191.16 -0.602639 -1.4908 0
M  V30 1837 O 192.35 -0.87033 -1.509 0
M  V30 1838 C 189.482 -1.79969 -2.89523 0
M  V30 1839 H 190.675 -2.69172 -1.32237 0
M  V30 1840 H 188.228 -1.41899 -0.65532 0
M  V30 1841 H 188.963 -0.859241 -3.1271 0
M  V30 1842 H 188.748 -2.62109 -2.91619 0
M  V30 1843 H 190.238 -1.9843 -3.67444 0
M  V30 1844 N 190.675 0.682077 -1.42076 0
M  V30 1845 C 191.903 1.47057 -1.4554 0
M  V30 1846 C 192.318 1.8869 -0.0645779 0
M  V30 1847 O 191.675 1.57666 0.919115 0
M  V30 1848 C 191.726 2.72442 -2.37609 0
M  V30 1849 O 191.447 2.32559 -3.71279 0
M  V30 1850 C 192.948 3.66069 -2.50017 0
M  V30 1851 H 190.168 0.452737 -0.495248 0
M  V30 1852 H 192.712 0.838695 -1.8651 0
M  V30 1853 H 190.867 3.31835 -1.9991 0
M  V30 1854 H 191.281 3.13475 -4.20516 0
M  V30 1855 H 192.755 4.50792 -3.18576 0
M  V30 1856 H 193.232 4.11476 -1.53572 0
M  V30 1857 H 193.838 3.12572 -2.88407 0
M  V30 1858 N 192.153 1.28127 0.917671 0
M  V30 1859 C 193.569 1.05749 1.19538 0
M  V30 1860 C 193.769 -0.202633 2.00479 0
M  V30 1861 O 192.825 -0.905382 2.3571 0
M  V30 1862 C 194.138 2.30273 1.93378 0
M  V30 1863 C 195.686 2.35412 2.06277 0
M  V30 1864 C 196.161 3.59692 2.83524 0
M  V30 1865 N 197.652 3.60309 2.91087 0
M  V30 1866 C 198.387 4.53147 3.51348 0
M  V30 1867 N 197.883 5.563 4.12919 0
M  V30 1868 N 199.676 4.40751 3.48849 0
M  V30 1869 H 191.827 2.09024 0.377184 0
M  V30 1870 H 194.09 0.919798 0.22951 0
M  V30 1871 H 193.796 3.22055 1.41328 0
M  V30 1872 H 193.67 2.36378 2.93947 0
M  V30 1873 H 196.057 1.4413 2.57508 0
M  V30 1874 H 196.138 2.33304 1.04895 0
M  V30 1875 H 195.782 4.51316 2.32973 0
M  V30 1876 H 195.712 3.59054 3.85211 0
M  V30 1877 H 198.203 2.85714 2.47338 0
M  V30 1878 H 198.516 6.2329 4.56869 0
M  V30 1879 H 196.861 5.60131 4.11435 0
M  V30 1880 H 200.052 3.59367 2.99955 0
M  V30 1881 H 200.225 5.13291 3.9552 0
M  V30 1882 N 193.631 -1.12557 1.10312 0
M  V30 1883 C 194.879 -1.83675 0.843091 0
M  V30 1884 C 195.2 -1.84435 -0.633131 0
M  V30 1885 O 194.47 -1.30657 -1.45964 0
M  V30 1886 H 193.05 -0.680138 0.308904 0
M  V30 1887 H 195.712 -1.36301 1.39313 0
M  V30 1888 H 194.808 -2.87908 1.2048 0
M  V30 1889 N 195.109 -0.891671 -1.2995 0
M  V30 1890 C 196.057 -0.353066 -2.29905 0
M  V30 1891 C 197.051 0.543509 -1.60444 0
M  V30 1892 O 198.257 0.4272 -1.74857 0
M  V30 1893 H 194.632 -0.095531 -0.745907 0
M  V30 1894 H 196.603 -1.20961 -2.72784 0
M  V30 1895 C 195.352 0.411475 -3.45257 0
M  V30 1896 H 194.675 -0.269182 -3.98893 0
M  V30 1897 H 196.115 0.753328 -4.17254 0
M  V30 1898 C 194.574 1.6111 -2.9588 0
M  V30 1899 O 195.104 2.71045 -2.96475 0
M  V30 1900 N 193.31 1.45054 -2.51809 0
M  V30 1901 H 192.857 0.556175 -2.51524 0
M  V30 1902 H 192.815 2.25453 -2.1913 0
M  V30 1903 N 196.587 1.43421 -0.653314 0
M  V30 1904 C 197.836 2.01032 -0.164076 0
M  V30 1905 C 198.149 1.52147 1.22926 0
M  V30 1906 O 199.355 2.02031 1.81371 0
M  V30 1907 C 197.811 3.59082 -0.24252 0
M  V30 1908 C 197.419 4.1696 -1.63855 0
M  V30 1909 C 199.163 4.24079 0.18911 0
M  V30 1910 C 197.07 5.67304 -1.67092 0
M  V30 1911 H 196 0.751798 -0.0575769 0
M  V30 1912 H 198.651 1.6439 -0.815362 0
M  V30 1913 H 197.033 3.93125 0.476276 0
M  V30 1914 H 198.207 3.94416 -2.38271 0
M  V30 1915 H 196.522 3.64335 -2.01616 0
M  V30 1916 H 199.119 5.34381 0.184775 0
M  V30 1917 H 199.462 3.98005 1.22056 0
M  V30 1918 H 199.995 3.94918 -0.477938 0
M  V30 1919 H 196.734 5.98145 -2.68146 0
M  V30 1920 H 196.254 5.91904 -0.970014 0
M  V30 1921 H 197.933 6.31344 -1.4147 0
M  V30 1922 N 198.065 0.39524 1.52563 0
M  V30 1923 C 199.342 -0.242908 1.94086 0
M  V30 1924 C 199.722 -1.63841 1.33114 0
M  V30 1925 O 199.07 -2.22928 0.501529 0
M  V30 1926 C 199.28 -0.26327 3.48006 0
M  V30 1927 C 200.628 -0.489354 4.21771 0
M  V30 1928 O 201.652 -0.343226 3.54543 0
M  V30 1929 O 200.511 -0.776169 5.4096 0
M  V30 1930 H 197.605 -0.152536 0.812811 0
M  V30 1931 H 200.151 0.450178 1.6362 0
M  V30 1932 H 198.923 0.713985 3.84731 0
M  V30 1933 H 198.546 -1.00103 3.84792 0
M  V30 1934 N 199.544 -1.57102 0.125237 0
M  V30 1935 C 200.79 -1.95697 -0.532035 0
M  V30 1936 C 201.123 -1.009 -1.6593 0
M  V30 1937 O 200.398 -0.047347 -1.94442 0
M  V30 1938 C 200.681 -3.44181 -1.05884 0
M  V30 1939 C 200.534 -4.49752 0.0654392 0
M  V30 1940 C 201.853 -3.94655 -1.9477 0
M  V30 1941 H 198.972 -0.711571 -0.191925 0
M  V30 1942 H 201.614 -1.88923 0.20206 0
M  V30 1943 H 199.764 -3.50085 -1.68442 0
M  V30 1944 H 201.436 -4.55943 0.700982 0
M  V30 1945 H 199.679 -4.27653 0.727709 0
M  V30 1946 H 200.35 -5.50924 -0.344505 0
M  V30 1947 H 202.826 -3.91094 -1.42074 0
M  V30 1948 H 201.702 -4.99057 -2.28546 0
M  V30 1949 H 201.963 -3.35718 -2.87656 0
M  V30 1950 N 201.022 0.148545 -1.56898 0
M  V30 1951 C 202.438 0.501131 -1.51528 0
M  V30 1952 C 202.638 1.83458 -0.833399 0
M  V30 1953 O 201.694 2.49259 -0.40328 0
M  V30 1954 C 203.007 0.512864 -2.96294 0
M  V30 1955 C 204.555 0.598487 -3.07225 0
M  V30 1956 C 205.03 0.640897 -4.53494 0
M  V30 1957 N 206.521 0.703163 -4.57832 0
M  V30 1958 C 207.256 0.756935 -5.68382 0
M  V30 1959 N 206.752 0.770147 -6.88506 0
M  V30 1960 N 208.545 0.797698 -5.56411 0
M  V30 1961 H 200.696 -0.725532 -1.99624 0
M  V30 1962 H 202.959 -0.264358 -0.910395 0
M  V30 1963 H 202.665 -0.398691 -3.49433 0
M  V30 1964 H 202.539 1.35133 -3.52163 0
M  V30 1965 H 204.926 1.50046 -2.54106 0
M  V30 1966 H 205.007 -0.267093 -2.54402 0
M  V30 1967 H 204.651 -0.256915 -5.0725 0
M  V30 1968 H 204.581 1.52295 -5.04097 0
M  V30 1969 H 207.072 0.700314 -3.71354 0
M  V30 1970 H 207.385 0.812983 -7.68512 0
M  V30 1971 H 205.73 0.738049 -6.9107 0
M  V30 1972 H 208.921 0.784535 -4.61479 0
M  V30 1973 H 209.094 0.83614 -6.42583 0
M  V30 1974 N 202.5 1.5196 0.417844 0
M  V30 1975 C 203.43 1.77634 1.51554 0
M  V30 1976 C 204.411 0.626918 1.58126 0
M  V30 1977 O 205.596 0.871632 1.7354 0
M  V30 1978 C 202.726 1.91911 2.8946 0
M  V30 1979 C 201.68 3.07463 2.97743 0
M  V30 1980 C 201.006 3.06951 4.37819 0
M  V30 1981 C 202.306 4.47082 2.70027 0
M  V30 1982 H 204 2.6955 1.3032 0
M  V30 1983 H 201.546 1.29706 0.625492 0
M  V30 1984 H 203.499 2.08455 3.6623 0
M  V30 1985 H 202.223 0.966598 3.11969 0
M  V30 1986 H 200.882 2.90656 2.23416 0
M  V30 1987 H 200.53 2.09438 4.57323 0
M  V30 1988 H 200.23 3.84556 4.44286 0
M  V30 1989 H 201.754 3.25613 5.16535 0
M  V30 1990 H 203.168 4.6414 3.36522 0
M  V30 1991 H 201.565 5.2654 2.87881 0
M  V30 1992 H 202.635 4.55777 1.65514 0
M  V30 1993 N 203.978 -0.674533 1.42435 0
M  V30 1994 C 204.926 -1.80934 1.46169 0
M  V30 1995 C 205.92 -1.66006 0.3374 0
M  V30 1996 O 207.126 -1.72611 0.510425 0
M  V30 1997 H 203.501 -0.596594 0.457798 0
M  V30 1998 H 205.472 -1.74903 2.41767 0
M  V30 1999 C 204.221 -3.19088 1.38123 0
M  V30 2000 H 203.544 -3.31203 2.23931 0
M  V30 2001 H 204.984 -3.9851 1.44797 0
M  V30 2002 C 203.443 -3.36763 0.0960517 0
M  V30 2003 O 203.973 -3.92581 -0.851073 0
M  V30 2004 N 202.179 -2.90597 0.0131186 0
M  V30 2005 H 201.726 -2.45359 0.784639 0
M  V30 2006 H 201.684 -3.028 -0.846133 0
M  V30 2007 N 205.456 -1.28612 -0.910864 0
M  V30 2008 C 206.702 -1.16106 -1.66274 0
M  V30 2009 C 207.035 0.289113 -1.92036 0
M  V30 2010 O 206.31 1.21 -1.52281 0
M  V30 2011 C 206.593 -1.96309 -3.01885 0
M  V30 2012 C 206.446 -3.49405 -2.8326 0
M  V30 2013 C 207.765 -1.78076 -4.02463 0
M  V30 2014 H 204.884 -0.423152 -0.603417 0
M  V30 2015 H 207.526 -1.57961 -1.05586 0
M  V30 2016 H 205.676 -1.60742 -3.53687 0
M  V30 2017 H 207.348 -3.94894 -2.38446 0
M  V30 2018 H 205.591 -3.74893 -2.18261 0
M  V30 2019 H 206.262 -4.00784 -3.79574 0
M  V30 2020 H 208.738 -2.0912 -3.59733 0
M  V30 2021 H 207.614 -2.36561 -4.95308 0
M  V30 2022 H 207.875 -0.733008 -4.35981 0
M  V30 2023 N 206.934 1.1197 -1.10907 0
M  V30 2024 C 208.159 1.87942 -0.877064 0
M  V30 2025 C 208.584 1.79341 0.567314 0
M  V30 2026 O 207.942 1.15184 1.40009 0
M  V30 2027 C 207.99 3.34926 -1.33629 0
M  V30 2028 O 207.094 4.09303 -0.504447 0
M  V30 2029 H 206.435 0.583785 -0.316371 0
M  V30 2030 H 208.965 1.4157 -1.47712 0
M  V30 2031 H 208.975 3.8577 -1.32837 0
M  V30 2032 H 207.65 3.40504 -2.3881 0
M  V30 2033 H 206.227 3.68393 -0.577993 0
M  V30 2034 N 208.412 0.89855 1.29475 0
M  V30 2035 C 209.658 0.524658 1.95896 0
M  V30 2036 C 209.991 -0.926468 1.70676 0
M  V30 2037 O 209.266 -1.65665 1.01908 0
M  V30 2038 C 209.549 0.81633 3.50725 0
M  V30 2039 C 209.402 2.31907 3.85408 0
M  V30 2040 C 210.721 0.302038 4.39062 0
M  V30 2041 H 207.84 0.19209 0.711527 0
M  V30 2042 H 210.482 1.12502 1.53112 0
M  V30 2043 H 208.632 0.305369 3.87298 0
M  V30 2044 H 210.304 2.89949 3.58786 0
M  V30 2045 H 208.547 2.78027 3.32992 0
M  V30 2046 H 209.218 2.47373 4.93468 0
M  V30 2047 H 211.694 0.739551 4.09475 0
M  V30 2048 H 210.57 0.535331 5.46283 0
M  V30 2049 H 210.831 -0.797216 4.34853 0
M  V30 2050 O 209.929 -1.40275 0.80033 0
M  V30 2051 H 210.62 -1.90048 0.374337 0
M  V30 END ATOM
M  V30 BEGIN BOND
M  V30 END BOND
M  V30 END CTAB
M  END
$$$$
