drugbank_target|Q9I596 Neutral ceramidase (DB06960)
 OpenBabel12092120393D

  0  0  0     0  0            999 V3000
M  V30 BEGIN CTAB
M  V30 COUNTS 10220 10343 0 0 0
M  V30 BEGIN ATOM
M  V30 1 H -0.908 1.98254 -0.117106 0
M  V30 2 N 0 1.576 0 0
M  V30 3 C 0.933 2.03868 1.02534 0
M  V30 4 C 1.911 0.928543 1.3348 0
M  V30 5 O 3.095 1.19667 1.45644 0
M  V30 6 C 0.222 2.43627 2.35294 0
M  V30 7 C -0.732 3.65373 2.2001 0
M  V30 8 S 0.101 5.13292 1.52614 0
M  V30 9 C 1.257 5.56322 2.86805 0
M  V30 10 H 1.49 2.90518 0.631377 0
M  V30 11 H -0.977 1.52953 0.210867 0
M  V30 12 H 0.981 2.67203 3.11629 0
M  V30 13 H -0.358 1.57376 2.7183 0
M  V30 14 H -1.165 3.90944 3.18086 0
M  V30 15 H -1.563 3.418 1.51819 0
M  V30 16 H 0.729 5.58782 3.83104 0
M  V30 17 H 1.672 6.56266 2.65933 0
M  V30 18 H 2.08 4.83886 2.90714 0
M  V30 19 N 1.4781 -0.272755 1.55222 0
M  V30 20 C 2.7031 -1.02683 1.80197 0
M  V30 21 C 3.1281 -1.79142 0.573551 0
M  V30 22 O 2.4861 -1.74917 -0.476849 0
M  V30 23 C 2.5341 -1.9609 3.02624 0
M  V30 24 O 1.6381 -3.04863 2.77727 0
M  V30 25 H 0.9791 -0.293557 0.595584 0
M  V30 26 H 3.5091 -0.30159 2.02365 0
M  V30 27 H 3.5191 -2.38039 3.31363 0
M  V30 28 H 2.1941 -1.39851 3.91682 0
M  V30 29 H 0.7711 -2.67228 2.60084 0
M  V30 30 N 2.9562 -1.48159 -0.537278 0
M  V30 31 C 4.3722 -1.34118 -0.865129 0
M  V30 32 C 4.5722 -0.346678 -1.98495 0
M  V30 33 O 3.6282 0.234715 -2.51407 0
M  V30 34 C 4.9412 -2.73963 -1.23954 0
M  V30 35 C 6.4892 -2.82397 -1.34984 0
M  V30 36 C 6.9642 -4.22928 -1.75772 0
M  V30 37 N 8.4552 -4.25566 -1.82887 0
M  V30 38 C 9.1902 -5.31235 -2.15817 0
M  V30 39 N 8.6862 -6.47189 -2.47222 0
M  V30 40 N 10.4792 -5.18624 -2.16761 0
M  V30 41 H 2.6302 -2.1144 0.201715 0
M  V30 42 H 4.8932 -0.947598 0.0275949 0
M  V30 43 H 4.5992 -3.48264 -0.490381 0
M  V30 44 H 4.4732 -3.0702 -2.19132 0
M  V30 45 H 6.8602 -2.08356 -2.08978 0
M  V30 46 H 6.9412 -2.5297 -0.379448 0
M  V30 47 H 6.5852 -4.97482 -1.02341 0
M  V30 48 H 6.5152 -4.49794 -2.73848 0
M  V30 49 H 9.0062 -3.41924 -1.60924 0
M  V30 50 H 9.3192 -7.23564 -2.71433 0
M  V30 51 H 7.6642 -6.50476 -2.44757 0
M  V30 52 H 10.8552 -4.27056 -1.91679 0
M  V30 53 H 11.0282 -6.01078 -2.42093 0
M  V30 54 N 4.4343 0.785586 -1.36625 0
M  V30 55 C 5.6593 1.57963 -1.34397 0
M  V30 56 C 6.0843 1.87964 0.071526 0
M  V30 57 O 5.4423 1.48182 1.0446 0
M  V30 58 C 5.4903 2.87511 -2.17646 0
M  V30 59 O 4.5943 3.81281 -1.57158 0
M  V30 60 H 3.9353 0.479014 -0.459828 0
M  V30 61 H 6.4653 0.973411 -1.79961 0
M  V30 62 H 6.4753 3.36745 -2.30362 0
M  V30 63 H 5.1503 2.65002 -3.20541 0
M  V30 64 H 3.7273 3.39885 -1.53403 0
M  V30 65 N 5.9124 1.20967 1.01018 0
M  V30 66 C 6.8754 0.965918 2.07853 0
M  V30 67 C 7.8754 -0.0610545 1.60684 0
M  V30 68 O 9.0654 0.175681 1.73312 0
M  V30 69 C 6.1974 0.455513 3.37843 0
M  V30 70 H 7.3904 1.91365 2.3091 0
M  V30 71 H 4.9434 1.02594 1.17916 0
M  V30 72 H 5.6784 -0.497381 3.20463 0
M  V30 73 H 5.4634 1.19622 3.73407 0
M  V30 74 H 6.9534 0.304667 4.16487 0
M  V30 75 N 7.3905 -1.2043 1.01659 0
M  V30 76 C 8.6375 -1.89797 0.705917 0
M  V30 77 C 8.9655 -1.78848 -0.764439 0
M  V30 78 O 8.2205 -1.16694 -1.57102 0
M  V30 79 C 8.5195 -3.40464 1.08714 0
M  V30 80 C 8.1855 -3.71614 2.5537 0
M  V30 81 C 6.8475 -3.79826 2.95441 0
M  V30 82 C 9.1995 -3.85915 3.50313 0
M  V30 83 C 6.5275 -3.99797 4.29394 0
M  V30 84 C 8.8795 -4.07396 4.83954 0
M  V30 85 C 7.5435 -4.13837 5.23732 0
M  V30 86 H 6.8135 -0.694518 0.258313 0
M  V30 87 H 9.4605 -1.42691 1.27717 0
M  V30 88 H 7.7655 -3.89385 0.434309 0
M  V30 89 H 9.4625 -3.92433 0.824461 0
M  V30 90 H 6.0525 -3.65822 2.23321 0
M  V30 91 H 10.2365 -3.78926 3.20513 0
M  V30 92 H 5.4925 -4.03018 4.59768 0
M  V30 93 H 9.6665 -4.17404 5.57447 0
M  V30 94 H 7.2935 -4.29064 6.27541 0
M  V30 95 N 8.8686 -0.792821 -1.36206 0
M  V30 96 C 10.0966 -0.378825 -2.03402 0
M  V30 97 C 10.5116 1.00586 -1.59774 0
M  V30 98 O 9.8686 1.64574 -0.788764 0
M  V30 99 C 9.9196 -0.43683 -3.58851 0
M  V30 100 O 9.6406 -1.76691 -4.00889 0
M  V30 101 C 11.1416 -0.0138943 -4.43298 0
M  V30 102 H 8.3616 -0.155673 -0.652692 0
M  V30 103 H 10.9056 -1.07261 -1.74113 0
M  V30 104 H 9.0606 0.208575 -3.86838 0
M  V30 105 H 9.4746 -1.72011 -4.95492 0
M  V30 106 H 10.9486 -0.105615 -5.51899 0
M  V30 107 H 11.4256 1.03915 -4.2673 0
M  V30 108 H 12.0316 -0.63192 -4.20579 0
M  V30 109 N 10.3467 1.47872 -0.545128 0
M  V30 110 C 11.3097 2.28337 0.198717 0
M  V30 111 C 12.3097 1.36255 0.853888 0
M  V30 112 O 13.4997 1.59003 0.711606 0
M  V30 113 C 10.6317 3.15585 1.28915 0
M  V30 114 H 11.8247 2.95567 -0.507941 0
M  V30 115 H 9.3777 1.53362 -0.301616 0
M  V30 116 H 10.1127 2.53019 2.02859 0
M  V30 117 H 9.8977 3.83337 0.824309 0
M  V30 118 H 11.3877 3.76243 1.81194 0
M  V30 119 N 11.8248 0.280983 1.55075 0
M  V30 120 C 12.7548 -0.597469 2.25727 0
M  V30 121 C 13.7358 -1.15417 1.24952 0
M  V30 122 O 14.9208 -1.18722 1.53684 0
M  V30 123 C 12.0508 -1.7789 2.98283 0
M  V30 124 C 11.0048 -1.35347 4.06036 0
M  V30 125 C 10.3308 -2.61846 4.66198 0
M  V30 126 C 11.6308 -0.499354 5.19907 0
M  V30 127 H 13.3248 -0.00824265 2.99399 0
M  V30 128 H 10.8708 -0.0025244 1.44 0
M  V30 129 H 12.8238 -2.39937 3.46422 0
M  V30 130 H 11.5478 -2.39405 2.22155 0
M  V30 131 H 10.2068 -0.756156 3.58717 0
M  V30 132 H 9.8548 -3.21632 3.86732 0
M  V30 133 H 9.5548 -2.3409 5.38958 0
M  V30 134 H 11.0788 -3.24732 5.1709 0
M  V30 135 H 12.4928 -1.02498 5.64063 0
M  V30 136 H 10.8898 -0.316424 5.99265 0
M  V30 137 H 11.9598 0.480459 4.82514 0
M  V30 138 N 13.3029 -1.57598 0.00835791 0
M  V30 139 C 14.2329 -2.1198 -0.979113 0
M  V30 140 C 15.2139 -1.03091 -1.35301 0
M  V30 141 O 16.3989 -1.30818 -1.43528 0
M  V30 142 C 13.5289 -2.62995 -2.26828 0
M  V30 143 C 12.4829 -3.76485 -2.03576 0
M  V30 144 C 11.8089 -4.13846 -3.38579 0
M  V30 145 C 13.1089 -5.0342 -1.39161 0
M  V30 146 H 14.8029 -2.94738 -0.526281 0
M  V30 147 H 12.3489 -1.41783 -0.251704 0
M  V30 148 H 14.3019 -2.99669 -2.96271 0
M  V30 149 H 13.0259 -1.7737 -2.7424 0
M  V30 150 H 11.6849 -3.40217 -1.36557 0
M  V30 151 H 11.3329 -3.25232 -3.83709 0
M  V30 152 H 11.0329 -4.90312 -3.23834 0
M  V30 153 H 12.5569 -4.53086 -4.09323 0
M  V30 154 H 13.9709 -5.37812 -1.98573 0
M  V30 155 H 12.3679 -5.84746 -1.34878 0
M  V30 156 H 13.4379 -4.83548 -0.361868 0
M  V30 157 N 14.781 0.264519 -1.55364 0
M  V30 158 C 15.711 1.33121 -1.91836 0
M  V30 159 C 16.692 1.51101 -0.781192 0
M  V30 160 O 17.877 1.64003 -1.04003 0
M  V30 161 C 15.007 2.68921 -2.19769 0
M  V30 162 C 13.961 2.65661 -3.35571 0
M  V30 163 C 13.287 4.05093 -3.49004 0
M  V30 164 C 14.587 2.24187 -4.71739 0
M  V30 165 H 16.281 1.02844 -2.81182 0
M  V30 166 H 13.827 0.493286 -1.35287 0
M  V30 167 H 15.78 3.43663 -2.43872 0
M  V30 168 H 14.504 3.00799 -1.27231 0
M  V30 169 H 13.163 1.93377 -3.1145 0
M  V30 170 H 12.811 4.34206 -2.53917 0
M  V30 171 H 12.511 4.03804 -4.26868 0
M  V30 172 H 14.035 4.81561 -3.75408 0
M  V30 173 H 15.449 2.88654 -4.9533 0
M  V30 174 H 13.846 2.34044 -5.52579 0
M  V30 175 H 14.916 1.19327 -4.69988 0
M  V30 176 N 16.2591 1.48442 0.529413 0
M  V30 177 C 17.4841 1.60406 1.31471 0
M  V30 178 C 17.9091 0.264738 1.86228 0
M  V30 179 O 17.2671 -0.763668 1.64432 0
M  V30 180 C 17.3151 2.65419 2.44101 0
M  V30 181 O 16.4191 2.22618 3.47153 0
M  V30 182 H 15.7601 0.537863 0.389357 0
M  V30 183 H 18.2901 1.94432 0.636965 0
M  V30 184 H 18.3001 2.86709 2.90279 0
M  V30 185 H 16.9751 3.62652 2.03608 0
M  V30 186 H 15.5521 2.11543 3.0709 0
M  V30 187 N 17.7372 -0.778329 1.37039 0
M  V30 188 C 18.9772 -1.54973 1.33276 0
M  V30 189 C 19.3412 -1.91816 -0.0839376 0
M  V30 190 O 20.5422 -2.6767 -0.246228 0
M  V30 191 C 18.8132 -2.78517 2.23971 0
M  V30 192 S 20.3722 -3.6865 2.37997 0
M  V30 193 H 17.1902 -0.530639 0.473226 0
M  V30 194 H 19.7922 -0.915806 1.72723 0
M  V30 195 H 18.4962 -2.4952 3.25835 0
M  V30 196 H 18.0272 -3.46875 1.85584 0
M  V30 197 H 20.0422 -4.70182 1.58567 0
M  V30 198 N 19.2153 -1.21501 -1.00376 0
M  V30 199 C 20.4613 -1.03452 -1.74429 0
M  V30 200 C 20.7943 0.430764 -1.89362 0
M  V30 201 O 20.0693 1.31962 -1.42886 0
M  V30 202 C 20.3523 -1.73375 -3.15615 0
M  V30 203 C 20.2053 -3.27431 -3.08397 0
M  V30 204 C 21.5243 -1.47732 -4.14564 0
M  V30 205 H 18.6433 -0.377226 -0.633143 0
M  V30 206 H 21.2853 -1.49693 -1.17013 0
M  V30 207 H 19.4353 -1.34064 -3.64636 0
M  V30 208 H 21.1073 -3.76119 -2.67081 0
M  V30 209 H 19.3503 -3.5767 -2.45468 0
M  V30 210 H 20.0213 -3.71524 -4.08258 0
M  V30 211 H 22.4973 -1.8186 -3.74254 0
M  V30 212 H 21.3733 -1.99169 -5.11491 0
M  V30 213 H 21.6343 -0.407589 -4.40217 0
M  V30 214 N 20.6934 1.19889 -1.02296 0
M  V30 215 C 21.6234 2.25141 -0.619174 0
M  V30 216 C 22.6044 1.66051 0.368915 0
M  V30 217 O 23.7894 1.92546 0.252941 0
M  V30 218 C 20.9194 3.4728 0.0368783 0
M  V30 219 C 19.8734 4.19005 -0.872865 0
M  V30 220 C 19.1994 5.34637 -0.0822402 0
M  V30 221 C 20.4994 4.74452 -2.18387 0
M  V30 222 H 22.1934 2.59171 -1.49903 0
M  V30 223 H 19.7394 1.24579 -0.722222 0
M  V30 224 H 21.6924 4.20098 0.330958 0
M  V30 225 H 20.4164 3.12433 0.95149 0
M  V30 226 H 19.0754 3.48061 -1.15105 0
M  V30 227 H 18.7234 4.96034 0.83422 0
M  V30 228 H 18.4234 5.83557 -0.688149 0
M  V30 229 H 19.9474 6.10255 0.205238 0
M  V30 230 H 21.3614 5.39055 -1.95172 0
M  V30 231 H 19.7584 5.33834 -2.74119 0
M  V30 232 H 20.8284 3.92844 -2.84257 0
M  V30 233 N 22.1715 0.800033 1.35784 0
M  V30 234 C 23.1015 0.220184 2.3246 0
M  V30 235 C 24.0825 -0.65073 1.57161 0
M  V30 236 O 25.2675 -0.582359 1.85263 0
M  V30 237 C 22.3975 -0.637353 3.41402 0
M  V30 238 C 21.3515 0.134531 4.27789 0
M  V30 239 C 20.6775 -0.844285 5.27992 0
M  V30 240 C 21.9775 1.32979 5.05088 0
M  V30 241 H 23.6715 1.02787 2.81203 0
M  V30 242 H 21.2175 0.495717 1.35199 0
M  V30 243 H 23.1705 -1.05302 4.08031 0
M  V30 244 H 21.8945 -1.47785 2.91251 0
M  V30 245 H 20.5535 0.531296 3.6273 0
M  V30 246 H 20.2015 -1.68011 4.74111 0
M  V30 247 H 19.9015 -0.332184 5.8666 0
M  V30 248 H 21.4255 -1.2583 5.97494 0
M  V30 249 H 22.8395 0.98934 5.64699 0
M  V30 250 H 21.2365 1.77593 5.7322 0
M  V30 251 H 22.3065 2.11978 4.36111 0
M  V30 252 N 23.6496 -1.47581 0.552962 0
M  V30 253 C 24.6126 -2.28439 -0.186605 0
M  V30 254 C 25.6126 -1.36706 -0.84665 0
M  V30 255 O 26.8026 -1.59378 -0.703164 0
M  V30 256 C 23.9346 -3.16264 -1.2724 0
M  V30 257 H 25.1276 -2.95294 0.523609 0
M  V30 258 H 22.6806 -1.532 0.309745 0
M  V30 259 H 23.4156 -2.54091 -2.01514 0
M  V30 260 H 23.2006 -3.83769 -0.803968 0
M  V30 261 H 24.6906 -3.77198 -1.79196 0
M  V30 262 N 25.1277 -0.289203 -1.54924 0
M  V30 263 C 26.0577 0.58549 -2.2604 0
M  V30 264 C 27.0387 1.14753 -1.25562 0
M  V30 265 O 28.2237 1.17906 -1.54311 0
M  V30 266 C 25.3537 1.76305 -2.99222 0
M  V30 267 C 24.3077 1.33191 -4.06748 0
M  V30 268 C 23.6337 2.5937 -4.6758 0
M  V30 269 C 24.9337 0.471775 -5.20165 0
M  V30 270 H 26.6277 -0.00763532 -2.99399 0
M  V30 271 H 24.1737 -0.00511229 -1.43999 0
M  V30 272 H 26.1267 2.38097 -3.47689 0
M  V30 273 H 24.8507 2.38223 -2.23422 0
M  V30 274 H 23.5097 0.737121 -3.59113 0
M  V30 275 H 23.1577 3.19576 -3.88433 0
M  V30 276 H 22.8577 2.31228 -5.40192 0
M  V30 277 H 24.3817 3.21985 -5.18804 0
M  V30 278 H 25.7957 0.995056 -5.64599 0
M  V30 279 H 24.1927 0.284639 -5.99425 0
M  V30 280 H 25.2627 -0.506041 -4.82252 0
M  V30 281 N 26.6058 1.57591 -0.0167156 0
M  V30 282 C 27.8308 1.9598 0.67872 0
M  V30 283 C 28.2558 0.892546 1.65575 0
M  V30 284 O 27.6138 -0.147772 1.80697 0
M  V30 285 C 27.6618 3.33468 1.37227 0
M  V30 286 O 26.7658 3.28954 2.48722 0
M  V30 287 H 26.1068 0.639339 0.17928 0
M  V30 288 H 28.6368 2.04463 -0.0748802 0
M  V30 289 H 28.6468 3.69417 1.7319 0
M  V30 290 H 27.3218 4.10694 0.656007 0
M  V30 291 H 25.8988 3.04705 2.14963 0
M  V30 292 N 28.0839 -0.256276 1.55502 0
M  V30 293 C 29.0169 -1.34321 1.84481 0
M  V30 294 C 29.9949 -1.46802 0.699131 0
M  V30 295 O 31.1789 -1.63165 0.943904 0
M  V30 296 C 28.3059 -2.71779 2.02123 0
M  V30 297 C 27.3519 -2.76496 3.24734 0
M  V30 298 S 28.1849 -2.3405 4.81644 0
M  V30 299 C 29.3409 -3.73452 5.02279 0
M  V30 300 H 29.5739 -1.09539 2.76385 0
M  V30 301 H 27.1069 -0.45678 1.47489 0
M  V30 302 H 29.0649 -3.50932 2.12972 0
M  V30 303 H 27.7259 -2.93803 1.11078 0
M  V30 304 H 26.9189 -3.77424 3.34016 0
M  V30 305 H 26.5209 -2.05379 3.12563 0
M  V30 306 H 28.8129 -4.6887 4.89047 0
M  V30 307 H 29.7559 -3.6911 6.04287 0
M  V30 308 H 30.1639 -3.6553 4.30172 0
M  V30 309 N 29.562 -1.4872 -0.521534 0
M  V30 310 C 30.973 -1.50607 -1.10337 0
M  V30 311 C 31.324 -0.280612 -1.94183 0
M  V30 312 O 30.449 0.611507 -2.0758 0
M  V30 313 C 31.044 -2.72903 -2.00772 0
M  V30 314 C 29.603 -2.77634 -2.54158 0
M  V30 315 C 28.75 -2.44241 -1.31307 0
M  V30 316 H 31.701 -1.55714 -0.306388 0
M  V30 317 H 31.722 -2.519 -2.85178 0
M  V30 318 H 31.234 -3.62077 -1.39721 0
M  V30 319 H 29.335 -1.92689 -3.18907 0
M  V30 320 H 29.448 -3.79283 -2.92714 0
M  V30 321 H 27.812 -1.95577 -1.63161 0
M  V30 322 H 28.595 -3.35666 -0.719943 0
M  V30 323 N 31.0401 0.771051 -1.3745 0
M  V30 324 C 32.0031 1.86598 -1.33093 0
M  V30 325 C 33.0031 1.59076 -0.234845 0
M  V30 326 O 34.1931 1.67145 -0.490732 0
M  V30 327 C 31.3251 3.23747 -1.06773 0
M  V30 328 H 32.5181 1.91873 -2.30488 0
M  V30 329 H 30.0711 0.970876 -1.2249 0
M  V30 330 H 30.8061 3.24148 -0.099129 0
M  V30 331 H 30.5911 3.45115 -1.86112 0
M  V30 332 H 32.0811 4.03824 -1.06377 0
M  V30 333 N 32.5182 1.22032 0.997298 0
M  V30 334 C 33.9342 0.979326 1.26021 0
M  V30 335 C 34.1342 -0.32972 1.98784 0
M  V30 336 O 33.1902 -1.05345 2.29475 0
M  V30 337 C 34.5032 2.17509 2.07631 0
M  V30 338 C 36.0512 2.21817 2.2083 0
M  V30 339 C 36.5262 3.40933 3.05825 0
M  V30 340 N 38.0172 3.41067 3.13412 0
M  V30 341 C 38.7522 4.29885 3.79455 0
M  V30 342 N 38.2482 5.28914 4.47462 0
M  V30 343 N 40.0412 4.17673 3.76173 0
M  V30 344 H 32.1922 2.06202 0.509352 0
M  V30 345 H 34.4552 0.90334 0.287541 0
M  V30 346 H 34.1612 3.12415 1.61524 0
M  V30 347 H 34.0352 2.17206 3.08385 0
M  V30 348 H 36.4222 1.27462 2.66153 0
M  V30 349 H 36.5032 2.2616 1.1952 0
M  V30 350 H 36.1472 4.35586 2.61203 0
M  V30 351 H 36.0772 3.33829 4.07266 0
M  V30 352 H 38.5682 2.69406 2.65007 0
M  V30 353 H 38.8812 5.92973 4.95583 0
M  V30 354 H 37.2262 5.32831 4.46224 0
M  V30 355 H 40.4172 3.39564 3.22202 0
M  V30 356 H 40.5902 4.87098 4.27363 0
M  V30 357 N 33.9963 -1.19345 1.0293 0
M  V30 358 C 34.9593 -2.20793 0.615069 0
M  V30 359 C 35.9593 -1.57553 -0.321533 0
M  V30 360 O 37.1493 -1.73862 -0.108483 0
M  V30 361 C 34.2813 -3.40754 -0.0999222 0
M  V30 362 H 35.4743 -2.58955 1.51269 0
M  V30 363 H 33.0273 -1.3303 0.820534 0
M  V30 364 H 33.7623 -3.0811 -1.01187 0
M  V30 365 H 33.5473 -3.87889 0.57309 0
M  V30 366 H 35.0373 -4.15898 -0.376645 0
M  V30 367 N 35.4744 -0.807222 -1.35358 0
M  V30 368 C 36.7514 -0.311126 -1.9311 0
M  V30 369 C 37.1314 1.19937 -1.73719 0
M  V30 370 O 36.4794 1.99918 -1.10657 0
M  V30 371 C 36.6894 -0.723226 -3.41424 0
M  V30 372 C 38.0374 -0.713078 -4.18569 0
M  V30 373 O 39.0614 -0.664811 -3.49941 0
M  V30 374 O 37.9204 -0.772022 -5.41019 0
M  V30 375 H 35.0144 -0.081526 -0.822972 0
M  V30 376 H 37.5604 -0.890962 -1.4443 0
M  V30 377 H 36.3324 -1.76426 -3.4927 0
M  V30 378 H 35.9554 -0.118232 -3.97424 0
M  V30 379 N 36.9525 1.47285 -0.560781 0
M  V30 380 C 38.2295 1.9558 0.0277798 0
M  V30 381 C 38.6095 1.5034 1.48192 0
M  V30 382 O 37.9575 0.743882 2.16052 0
M  V30 383 C 38.1675 3.48789 -0.121418 0
M  V30 384 C 39.5155 4.24594 0.0220912 0
M  V30 385 O 40.5395 3.56166 -0.0491439 0
M  V30 386 O 39.3985 5.46217 0.175958 0
M  V30 387 H 36.4925 0.824663 0.0621342 0
M  V30 388 H 39.0385 1.5767 -0.627556 0
M  V30 389 H 37.8105 3.74533 -1.13316 0
M  V30 390 H 37.4335 3.93473 0.571366 0
M  V30 391 N 38.4306 0.297415 1.54768 0
M  V30 392 C 39.3606 -0.573494 2.26348 0
M  V30 393 C 40.3416 -1.14085 1.26169 0
M  V30 394 O 41.5266 -1.17086 1.54934 0
M  V30 395 C 38.6566 -1.74716 3.00153 0
M  V30 396 C 37.6106 -1.31032 4.07449 0
M  V30 397 C 36.9366 -2.56887 4.68949 0
M  V30 398 C 38.2366 -0.444183 5.20408 0
M  V30 399 H 39.9306 0.0235131 2.99391 0
M  V30 400 H 37.4766 0.0127488 1.43994 0
M  V30 401 H 39.4296 -2.3625 3.48947 0
M  V30 402 H 38.1536 -2.37035 2.24682 0
M  V30 403 H 36.8126 -0.718066 3.59499 0
M  V30 404 H 36.4606 -3.17512 3.90122 0
M  V30 405 H 36.1606 -2.2836 5.41411 0
M  V30 406 H 37.6846 -3.19229 5.20505 0
M  V30 407 H 39.0986 -0.9651 5.65118 0
M  V30 408 H 37.4956 -0.252846 5.99567 0
M  V30 409 H 38.5656 0.531609 4.81977 0
M  V30 410 N 39.9087 -1.5758 0.0250728 0
M  V30 411 C 41.3197 -1.79476 -0.514323 0
M  V30 412 C 41.6707 -0.934956 -1.72491 0
M  V30 413 O 40.7957 -0.144245 -2.15919 0
M  V30 414 C 41.3907 -3.25503 -0.939842 0
M  V30 415 C 39.9497 -3.48408 -1.42438 0
M  V30 416 C 39.0967 -2.74583 -0.387201 0
M  V30 417 H 42.0477 -1.567 0.25113 0
M  V30 418 H 42.0687 -3.34992 -1.80445 0
M  V30 419 H 41.5807 -3.88056 -0.0585628 0
M  V30 420 H 39.6817 -2.91103 -2.32572 0
M  V30 421 H 39.7947 -4.57119 -1.43455 0
M  V30 422 H 38.1587 -2.39942 -0.854409 0
M  V30 423 H 38.9417 -3.39849 0.485543 0
M  V30 424 N 41.3868 0.248026 -1.55636 0
M  V30 425 C 42.6168 0.992367 -1.81206 0
M  V30 426 C 43.0248 1.7949 -0.598324 0
M  V30 427 O 42.3678 1.78292 0.442434 0
M  V30 428 C 42.4298 1.97926 -3.00109 0
M  V30 429 C 42.0938 1.36377 -4.36177 0
M  V30 430 C 43.0908 0.76682 -5.14214 0
M  V30 431 C 40.7758 1.38347 -4.82872 0
M  V30 432 C 42.7698 0.197778 -6.37093 0
M  V30 433 C 40.4568 0.810574 -6.057 0
M  V30 434 C 41.4548 0.218754 -6.8265 0
M  V30 435 O 41.1428 -0.345298 -8.03158 0
M  V30 436 H 40.8748 0.297704 -0.606917 0
M  V30 437 H 43.4288 0.276517 -2.0353 0
M  V30 438 H 41.6588 2.73339 -2.73538 0
M  V30 439 H 43.3478 2.58694 -3.12781 0
M  V30 440 H 44.1138 0.744114 -4.79258 0
M  V30 441 H 39.9928 1.8335 -4.2297 0
M  V30 442 H 43.5368 -0.264788 -6.97097 0
M  V30 443 H 39.4338 0.830604 -6.40134 0
M  V30 444 H 40.2018 -0.237055 -8.18157 0
M  V30 445 N 42.8649 1.48995 0.513639 0
M  V30 446 C 44.2809 1.35478 0.843682 0
M  V30 447 C 44.4809 0.378213 1.97919 0
M  V30 448 O 43.5369 -0.194689 2.51748 0
M  V30 449 C 44.8499 2.75901 1.1958 0
M  V30 450 C 46.3979 2.84509 1.30474 0
M  V30 451 C 46.8729 4.25671 1.69021 0
M  V30 452 N 48.3639 4.28422 1.76094 0
M  V30 453 C 49.0989 5.34601 2.07338 0
M  V30 454 N 48.5949 6.5104 2.36894 0
M  V30 455 N 50.3879 5.22007 2.08483 0
M  V30 456 H 42.5389 2.11092 -0.235328 0
M  V30 457 H 44.8019 0.947039 -0.0426669 0
M  V30 458 H 44.5079 3.49001 0.434913 0
M  V30 459 H 44.3819 3.10467 2.1422 0
M  V30 460 H 46.7689 2.11655 2.05637 0
M  V30 461 H 46.8499 2.53542 0.339155 0
M  V30 462 H 46.4939 4.99048 0.944135 0
M  V30 463 H 46.4239 4.54094 2.66658 0
M  V30 464 H 48.9149 3.44441 1.55464 0
M  V30 465 H 49.2279 7.2779 2.59887 0
M  V30 466 H 47.5729 6.54287 2.34378 0
M  V30 467 H 50.7639 4.30051 1.84861 0
M  V30 468 H 50.9369 6.04854 2.325 0
M  V30 469 N 44.343 -0.763751 1.37857 0
M  V30 470 C 45.59 -1.52257 1.33506 0
M  V30 471 C 45.918 -1.94343 -0.078022 0
M  V30 472 O 45.173 -1.64958 -1.05297 0
M  V30 473 C 45.472 -2.79499 2.22745 0
M  V30 474 C 45.138 -2.56426 3.70886 0
M  V30 475 C 43.8 -2.49842 4.11257 0
M  V30 476 C 46.152 -2.36008 4.64704 0
M  V30 477 C 43.48 -2.20841 5.43549 0
M  V30 478 C 45.832 -2.0853 5.97242 0
M  V30 479 C 44.496 -2.00396 6.36709 0
M  V30 480 H 43.766 -0.557149 0.488534 0
M  V30 481 H 46.413 -0.879073 1.70131 0
M  V30 482 H 44.718 -3.48447 1.79142 0
M  V30 483 H 46.415 -3.37413 2.16688 0
M  V30 484 H 43.005 -2.62416 3.38874 0
M  V30 485 H 47.189 -2.40079 4.34368 0
M  V30 486 H 42.445 -2.13045 5.73081 0
M  V30 487 H 46.619 -1.91732 6.69486 0
M  V30 488 H 44.246 -1.77688 7.39142 0
M  V30 489 N 45.8211 -1.22559 -0.990812 0
M  V30 490 C 47.0691 -1.04933 -1.72724 0
M  V30 491 C 47.3901 0.416158 -1.90508 0
M  V30 492 O 46.6601 1.29918 -1.46622 0
M  V30 493 H 45.2401 -0.385296 -0.639965 0
M  V30 494 H 47.9021 -1.54105 -1.19322 0
M  V30 495 H 46.9981 -1.52886 -2.72089 0
M  V30 496 N 47.2992 1.18797 -1.03562 0
M  V30 497 C 48.2292 2.24472 -0.643019 0
M  V30 498 C 49.2102 1.66433 0.351283 0
M  V30 499 O 50.3952 1.92803 0.232505 0
M  V30 500 C 47.5252 3.473 4.24935e-05 0
M  V30 501 C 46.4792 4.18055 -0.917257 0
M  V30 502 C 45.8052 5.34519 -0.138941 0
M  V30 503 C 47.1052 4.72109 -2.23407 0
M  V30 504 H 48.7992 2.57566 -1.52643 0
M  V30 505 H 46.3452 1.23806 -0.735394 0
M  V30 506 H 48.2982 4.20426 0.286383 0
M  V30 507 H 47.0222 3.13424 0.918299 0
M  V30 508 H 45.6812 3.46821 -1.1879 0
M  V30 509 H 45.3292 4.96891 0.781562 0
M  V30 510 H 45.0292 5.82794 -0.750005 0
M  V30 511 H 46.5532 6.10438 0.1405 0
M  V30 512 H 47.9672 5.36955 -2.00879 0
M  V30 513 H 46.3642 5.30897 -2.79765 0
M  V30 514 H 47.4342 3.89807 -2.88407 0
M  V30 515 N 48.7773 0.814389 1.34928 0
M  V30 516 C 50.0253 0.397636 1.9815 0
M  V30 517 C 50.3463 -1.04069 1.64908 0
M  V30 518 O 49.6163 -1.72121 0.93548 0
M  V30 519 H 48.1963 0.144043 0.732981 0
M  V30 520 H 50.8583 1.04195 1.6471 0
M  V30 521 H 49.9543 0.509688 3.0791 0
M  V30 522 N 50.2554 -1.46986 0.568584 0
M  V30 523 C 51.2024 -2.30153 -0.172707 0
M  V30 524 C 52.1724 -1.39759 -0.897586 0
M  V30 525 O 53.3574 -1.68716 -0.891044 0
M  V30 526 C 50.4974 -3.23952 -1.1895 0
M  V30 527 C 49.6104 -4.29441 -0.469517 0
M  V30 528 C 48.7454 -5.1038 -1.47259 0
M  V30 529 C 47.7844 -6.07632 -0.738225 0
M  V30 530 N 46.9214 -6.8149 -1.68868 0
M  V30 531 H 51.7614 -2.93019 0.542596 0
M  V30 532 H 49.2984 -1.44422 0.279401 0
M  V30 533 H 51.2564 -3.76767 -1.79173 0
M  V30 534 H 49.8864 -2.62926 -1.87269 0
M  V30 535 H 48.9384 -3.79594 0.247467 0
M  V30 536 H 50.2504 -4.98689 0.105241 0
M  V30 537 H 49.4044 -5.67402 -2.14803 0
M  V30 538 H 48.1434 -4.4106 -2.08128 0
M  V30 539 H 47.1484 -5.49778 -0.0489293 0
M  V30 540 H 48.3734 -6.78966 -0.135129 0
M  V30 541 H 46.3194 -6.14891 -2.28573 0
M  V30 542 H 46.2364 -7.46948 -1.16636 0
M  V30 543 H 47.5044 -7.43078 -2.3549 0
M  V30 544 N 51.7335 -0.305618 -1.54608 0
M  V30 545 C 52.6965 0.555591 -2.22364 0
M  V30 546 C 53.6965 1.05768 -1.21119 0
M  V30 547 O 54.8865 0.952972 -1.45822 0
M  V30 548 C 52.0185 1.76974 -2.91364 0
M  V30 549 H 53.2115 -0.0364572 -2.99878 0
M  V30 550 H 50.7645 -0.0565007 -1.56198 0
M  V30 551 H 51.4995 2.40151 -2.17941 0
M  V30 552 H 51.2845 1.41732 -3.65588 0
M  V30 553 H 52.7745 2.38148 -3.43038 0
M  V30 554 N 53.2116 1.57565 -0.0334293 0
M  V30 555 C 54.4886 1.83282 0.683163 0
M  V30 556 C 54.8686 0.91823 1.90084 0
M  V30 557 O 54.2166 -0.025113 2.28486 0
M  V30 558 C 54.4266 3.32599 1.0573 0
M  V30 559 C 55.7746 3.99179 1.44711 0
M  V30 560 O 56.7986 3.3712 1.15015 0
M  V30 561 O 55.6576 5.08565 2.0006 0
M  V30 562 H 52.7516 0.755869 0.335546 0
M  V30 563 H 55.2976 1.69589 -0.0614402 0
M  V30 564 H 54.0696 3.90834 0.190828 0
M  V30 565 H 53.6926 3.51415 1.85993 0
M  V30 566 N 54.6897 -0.239769 1.55765 0
M  V30 567 C 55.9387 -0.964754 1.77131 0
M  V30 568 C 56.2517 -1.86213 0.59868 0
M  V30 569 O 57.4577 -2.6244 0.695522 0
M  V30 570 C 55.9137 -1.76552 3.1362 0
M  V30 571 C 55.5217 -0.915185 4.38553 0
M  V30 572 C 57.2657 -2.48281 3.44321 0
M  V30 573 C 55.1727 -1.71225 5.66071 0
M  V30 574 H 54.1027 -0.363953 0.660344 0
M  V30 575 H 56.7537 -0.219181 1.82186 0
M  V30 576 H 55.1357 -2.55331 3.02691 0
M  V30 577 H 56.3097 -0.169217 4.60489 0
M  V30 578 H 54.6247 -0.310889 4.15238 0
M  V30 579 H 57.2217 -3.08382 4.36812 0
M  V30 580 H 57.5647 -3.20256 2.65973 0
M  V30 581 H 58.0977 -1.76507 3.56497 0
M  V30 582 H 54.8367 -1.03612 6.4726 0
M  V30 583 H 54.3567 -2.43331 5.48224 0
M  V30 584 H 56.0357 -2.27758 6.05587 0
M  V30 585 N 56.1678 -1.49265 -0.50573 0
M  V30 586 C 57.3958 -1.62215 -1.28429 0
M  V30 587 C 57.8108 -0.291697 -1.86533 0
M  V30 588 O 57.1678 0.722233 -1.67601 0
M  V30 589 C 57.2188 -2.68735 -2.41793 0
M  V30 590 O 56.9398 -3.96619 -1.86078 0
M  V30 591 C 58.4408 -2.92346 -3.3324 0
M  V30 592 H 55.6608 -0.546239 -0.389697 0
M  V30 593 H 58.2048 -1.95265 -0.607609 0
M  V30 594 H 56.3598 -2.38476 -3.053 0
M  V30 595 H 56.7738 -4.55256 -2.60465 0
M  V30 596 H 58.2478 -3.70623 -4.09075 0
M  V30 597 H 58.7248 -2.02081 -3.89948 0
M  V30 598 H 59.3308 -3.24003 -2.75503 0
M  V30 599 N 57.6459 0.756429 -1.3826 0
M  V30 600 C 58.8939 1.51248 -1.34047 0
M  V30 601 C 59.2149 1.94875 0.0698372 0
M  V30 602 O 58.4849 1.67436 1.01696 0
M  V30 603 H 57.0649 0.561018 -0.493222 0
M  V30 604 H 59.7269 0.899347 -1.7291 0
M  V30 605 H 58.8229 2.40472 -1.98947 0
M  V30 606 N 59.124 1.23083 0.984299 0
M  V30 607 C 60.034 1.02515 2.11016 0
M  V30 608 C 61.05 -0.0291702 1.73976 0
M  V30 609 O 62.226 0.165434 2.00719 0
M  V30 610 C 59.291 0.614673 3.41208 0
M  V30 611 C 58.352 1.74359 3.92297 0
M  V30 612 C 57.585 1.35261 5.16275 0
M  V30 613 O 57.808 0.235136 5.69915 0
M  V30 614 O 56.742 2.17227 5.61334 0
M  V30 615 H 60.568 1.96862 2.31255 0
M  V30 616 H 58.153 1.01753 1.09392 0
M  V30 617 H 60.035 0.396518 4.1953 0
M  V30 618 H 58.71 -0.299851 3.22308 0
M  V30 619 H 57.617 2.01635 3.1511 0
M  V30 620 H 58.95 2.63629 4.15645 0
M  V30 621 N 60.6021 -1.18246 1.0419 0
M  V30 622 C 61.5651 -2.20128 0.638452 0
M  V30 623 C 62.5651 -1.57885 -0.304805 0
M  V30 624 O 63.7551 -1.73967 -0.0900369 0
M  V30 625 C 60.8871 -3.4084 -0.0637751 0
M  V30 626 H 62.0801 -2.57336 1.54007 0
M  V30 627 H 59.6331 -1.32152 0.834598 0
M  V30 628 H 60.3681 -3.09166 -0.979136 0
M  V30 629 H 60.1531 -3.8726 0.614198 0
M  V30 630 H 61.6431 -4.16274 -0.332512 0
M  V30 631 N 62.0802 -0.821533 -1.34494 0
M  V30 632 C 63.0432 -0.247847 -2.27856 0
M  V30 633 C 64.0432 0.573453 -1.50227 0
M  V30 634 O 65.2332 0.389759 -1.69784 0
M  V30 635 C 62.3652 0.652698 -3.34593 0
M  V30 636 H 63.5582 -1.07146 -2.80107 0
M  V30 637 H 61.1112 -0.593291 -1.44602 0
M  V30 638 H 61.8462 1.49943 -2.87555 0
M  V30 639 H 61.6312 0.065292 -3.92046 0
M  V30 640 H 63.1212 1.04793 -4.04238 0
M  V30 641 N 63.5583 1.46682 -0.576371 0
M  V30 642 C 64.4683 2.34032 0.163141 0
M  V30 643 C 65.4843 1.49367 0.892501 0
M  V30 644 O 66.6603 1.82252 0.857106 0
M  V30 645 C 63.7253 3.26435 1.16795 0
M  V30 646 C 62.7863 4.26998 0.443944 0
M  V30 647 C 62.0193 5.14986 1.40088 0
M  V30 648 O 62.2423 5.05785 2.637 0
M  V30 649 O 61.1763 5.94906 0.914917 0
M  V30 650 H 65.0023 2.98607 -0.55388 0
M  V30 651 H 62.5873 1.45554 -0.336821 0
M  V30 652 H 64.4693 3.83459 1.74748 0
M  V30 653 H 63.1443 2.64465 1.86655 0
M  V30 654 H 62.0513 3.7368 -0.177271 0
M  V30 655 H 63.3843 4.91736 -0.213566 0
M  V30 656 N 65.0364 0.313813 1.54444 0
M  V30 657 C 66.2824 -0.292108 2.00685 0
M  V30 658 C 66.6154 -1.52548 1.20177 0
M  V30 659 O 65.8904 -1.92452 0.281531 0
M  V30 660 C 66.1734 -0.635968 3.5444 0
M  V30 661 C 66.0264 0.607437 4.4568 0
M  V30 662 C 67.3454 -1.45747 4.15266 0
M  V30 663 H 64.4644 -0.104697 0.729526 0
M  V30 664 H 67.1064 0.428457 1.85106 0
M  V30 665 H 65.2564 -1.24986 3.67846 0
M  V30 666 H 66.9284 1.24581 4.44159 0
M  V30 667 H 65.1714 1.23822 4.15753 0
M  V30 668 H 65.8424 0.322515 5.51057 0
M  V30 669 H 68.3184 -0.938645 4.05375 0
M  V30 670 H 67.1944 -1.66683 5.2298 0
M  V30 671 H 67.4554 -2.45063 3.67963 0
M  V30 672 N 66.5145 -1.57545 0.0417849 0
M  V30 673 C 67.7625 -1.91937 -0.632829 0
M  V30 674 C 68.0835 -0.919978 -1.71934 0
M  V30 675 O 67.3535 0.0366064 -1.95866 0
M  V30 676 H 65.9335 -0.708493 -0.236742 0
M  V30 677 H 68.5955 -1.9468 0.0925745 0
M  V30 678 H 67.6915 -2.92912 -1.07746 0
M  V30 679 N 67.9926 0.231505 -1.5589 0
M  V30 680 C 68.9256 1.31369 -1.86595 0
M  V30 681 C 69.9036 1.45671 -0.722397 0
M  V30 682 O 71.0876 1.61642 -0.969743 0
M  V30 683 C 68.2146 2.68529 -2.06421 0
M  V30 684 C 67.2606 2.71295 -3.29092 0
M  V30 685 S 68.0936 2.26358 -4.85306 0
M  V30 686 C 69.2496 3.65414 -5.08157 0
M  V30 687 H 69.4826 1.05128 -2.78092 0
M  V30 688 H 67.0156 0.433259 -1.48197 0
M  V30 689 H 68.9736 3.47499 -2.18528 0
M  V30 690 H 67.6346 2.91999 -1.15738 0
M  V30 691 H 66.8276 3.72063 -3.39978 0
M  V30 692 H 66.4296 2.0038 -3.15791 0
M  V30 693 H 68.7216 4.6103 -4.96445 0
M  V30 694 H 69.6646 3.5945 -6.10083 0
M  V30 695 H 70.0726 3.5864 -4.35933 0
M  V30 696 N 69.4707 1.49531 0.497807 0
M  V30 697 C 70.4037 1.61043 1.6168 0
M  V30 698 C 71.3817 0.459386 1.55976 0
M  V30 699 O 72.5657 0.675358 1.75986 0
M  V30 700 C 69.6927 1.56833 3.00202 0
M  V30 701 C 68.7387 2.77173 3.24156 0
M  V30 702 S 69.5717 4.38808 3.06933 0
M  V30 703 C 70.7277 4.37248 4.47845 0
M  V30 704 H 70.9607 2.55702 1.51671 0
M  V30 705 H 68.4937 1.38462 0.683201 0
M  V30 706 H 70.4517 1.55089 3.80076 0
M  V30 707 H 69.1127 0.634561 3.07623 0
M  V30 708 H 68.3057 2.70456 4.25288 0
M  V30 709 H 67.9077 2.76346 2.5201 0
M  V30 710 H 70.1997 4.09164 5.39992 0
M  V30 711 H 71.1427 5.38668 4.59612 0
M  V30 712 H 71.5507 3.67286 4.28674 0
M  V30 713 N 70.9488 -0.749086 1.3866 0
M  V30 714 C 72.1968 -1.50535 1.34847 0
M  V30 715 C 72.5178 -1.94909 -0.0595016 0
M  V30 716 O 71.7878 -1.67973 -1.00806 0
M  V30 717 H 70.3678 -0.558395 0.49619 0
M  V30 718 H 73.0298 -0.890165 1.73384 0
M  V30 719 H 72.1258 -2.39413 2.00219 0
M  V30 720 N 72.4269 -1.23603 -0.977757 0
M  V30 721 C 73.6569 -1.09487 -1.75203 0
M  V30 722 C 74.0649 0.356321 -1.85814 0
M  V30 723 O 73.4079 1.25816 -1.33851 0
M  V30 724 C 73.4699 -1.64905 -3.19447 0
M  V30 725 C 73.1339 -3.13688 -3.32338 0
M  V30 726 C 74.1309 -4.10953 -3.18455 0
M  V30 727 C 71.8159 -3.53449 -3.56902 0
M  V30 728 C 73.8099 -5.45962 -3.28944 0
M  V30 729 C 71.4969 -4.88602 -3.6703 0
M  V30 730 C 72.4949 -5.84668 -3.53062 0
M  V30 731 O 72.1829 -7.17365 -3.62826 0
M  V30 732 H 71.9149 -0.38367 -0.556573 0
M  V30 733 H 74.4689 -1.6398 -1.23693 0
M  V30 734 H 72.6989 -1.04835 -3.72218 0
M  V30 735 H 74.3879 -1.46226 -3.78646 0
M  V30 736 H 75.1539 -3.81577 -2.99372 0
M  V30 737 H 71.0329 -2.79188 -3.66844 0
M  V30 738 H 74.5769 -6.20925 -3.17958 0
M  V30 739 H 70.4739 -5.17653 -3.85623 0
M  V30 740 H 71.2419 -7.2515 -3.79605 0
M  V30 741 N 73.905 1.17692 -1.04816 0
M  V30 742 C 75.13 1.92327 -0.776207 0
M  V30 743 C 75.555 1.76082 0.661581 0
M  V30 744 O 74.913 1.076 1.45917 0
M  V30 745 C 74.961 3.41539 -1.15687 0
M  V30 746 O 74.065 4.11402 -0.286775 0
M  V30 747 H 73.406 0.599735 -0.284981 0
M  V30 748 H 75.936 1.49201 -1.4 0
M  V30 749 H 75.946 3.92269 -1.12202 0
M  V30 750 H 74.621 3.52684 -2.20425 0
M  V30 751 H 73.198 3.70939 -0.381903 0
M  V30 752 N 75.3831 0.828654 1.34056 0
M  V30 753 C 76.6081 0.431637 2.02859 0
M  V30 754 C 77.0331 -0.956339 1.61975 0
M  V30 755 O 76.3911 -1.62338 0.807228 0
M  V30 756 C 76.4391 0.548323 3.56407 0
M  V30 757 O 75.5431 -0.429556 4.10157 0
M  V30 758 H 74.8841 0.176886 0.640006 0
M  V30 759 H 77.4141 1.12066 1.71179 0
M  V30 760 H 77.4241 0.426196 4.05768 0
M  V30 761 H 76.0991 1.5606 3.8551 0
M  V30 762 H 74.6761 -0.265836 3.71951 0
M  V30 763 N 76.8612 -1.46375 0.584142 0
M  V30 764 C 77.7912 -2.33103 -0.136037 0
M  V30 765 C 78.7722 -1.45431 -0.882255 0
M  V30 766 O 79.9572 -1.74246 -0.857434 0
M  V30 767 C 77.0872 -3.27731 -1.14933 0
M  V30 768 C 76.0412 -4.24855 -0.517862 0
M  V30 769 C 75.3672 -5.09001 -1.63773 0
M  V30 770 C 76.6672 -5.19439 0.545886 0
M  V30 771 H 78.3612 -2.93568 0.588086 0
M  V30 772 H 75.9072 -1.41166 0.284259 0
M  V30 773 H 77.8602 -3.87261 -1.66153 0
M  V30 774 H 76.5842 -2.65377 -1.90375 0
M  V30 775 H 75.2432 -3.6659 -0.0267361 0
M  V30 776 H 74.8912 -4.43031 -2.38185 0
M  V30 777 H 74.5912 -5.74777 -1.22085 0
M  V30 778 H 76.1152 -5.71396 -2.15266 0
M  V30 779 H 77.5292 -5.73177 0.118704 0
M  V30 780 H 75.9262 -5.93566 0.88317 0
M  V30 781 H 76.9962 -4.63285 1.43162 0
M  V30 782 N 78.3393 -0.321999 -1.54275 0
M  V30 783 C 79.2493 0.553631 -2.27974 0
M  V30 784 C 80.2653 1.13054 -1.32268 0
M  V30 785 O 81.4413 1.15084 -1.6528 0
M  V30 786 C 78.5063 1.69927 -3.02201 0
M  V30 787 C 77.5673 1.15433 -4.1349 0
M  V30 788 C 76.8003 2.24537 -4.84168 0
M  V30 789 O 77.0233 3.44852 -4.5435 0
M  V30 790 O 75.9573 1.90044 -5.7111 0
M  V30 791 H 79.7833 -0.0448345 -3.03667 0
M  V30 792 H 77.3683 -0.0877418 -1.49142 0
M  V30 793 H 79.2503 2.3663 -3.48689 0
M  V30 794 H 77.9253 2.28395 -2.29385 0
M  V30 795 H 76.8323 0.452436 -3.71354 0
M  V30 796 H 78.1653 0.614805 -4.88345 0
M  V30 797 N 79.8174 1.5752 -0.0501392 0
M  V30 798 C 80.7494 2.08413 0.95376 0
M  V30 799 C 81.7624 1.01175 1.27544 0
M  V30 800 O 82.9514 1.28744 1.23641 0
M  V30 801 C 80.0514 2.51138 2.27559 0
M  V30 802 C 79.2244 3.817 2.13598 0
M  V30 803 C 78.2834 4.10749 3.28895 0
M  V30 804 O 77.3094 4.80685 3.04845 0
M  V30 805 N 78.5114 3.62579 4.5334 0
M  V30 806 H 81.2764 2.95165 0.519383 0
M  V30 807 H 78.8374 1.61327 0.136127 0
M  V30 808 H 80.8294 2.67648 3.03557 0
M  V30 809 H 79.3994 1.6964 2.62567 0
M  V30 810 H 78.6194 3.74782 1.22197 0
M  V30 811 H 79.9074 4.67201 2.01496 0
M  V30 812 H 79.3054 3.06039 4.75769 0
M  V30 813 H 77.8624 3.84329 5.26436 0
M  V30 814 N 81.2955 -0.223234 1.56011 0
M  V30 815 C 82.2425 -1.27664 1.92277 0
M  V30 816 C 83.2125 -1.46659 0.779763 0
M  V30 817 O 84.3975 -1.60256 1.03551 0
M  V30 818 C 81.5375 -2.62234 2.24338 0
M  V30 819 C 80.6505 -2.51051 3.51564 0
M  V30 820 C 79.7855 -3.78133 3.7308 0
M  V30 821 C 78.8245 -3.61665 4.93827 0
M  V30 822 N 77.9615 -4.80693 5.11741 0
M  V30 823 H 82.8015 -0.960358 2.82101 0
M  V30 824 H 80.3385 -0.462901 1.39627 0
M  V30 825 H 82.2965 -3.40596 2.40936 0
M  V30 826 H 80.9265 -2.91961 1.3769 0
M  V30 827 H 79.9785 -1.64132 3.43169 0
M  V30 828 H 81.2905 -2.34803 4.40079 0
M  V30 829 H 80.4445 -4.64938 3.89766 0
M  V30 830 H 79.1835 -3.97304 2.82844 0
M  V30 831 H 78.1885 -2.73244 4.77093 0
M  V30 832 H 79.4135 -3.43966 5.85546 0
M  V30 833 H 77.3595 -5.00181 4.24446 0
M  V30 834 H 77.2765 -4.67165 5.94384 0
M  V30 835 H 78.5445 -5.6893 5.3286 0
M  V30 836 N 82.7736 -1.49793 -0.48987 0
M  V30 837 C 84.0016 -1.63568 -1.26701 0
M  V30 838 C 84.4166 -0.311465 -1.86213 0
M  V30 839 O 83.7736 0.704416 -1.68357 0
M  V30 840 C 83.8246 -2.71284 -2.38929 0
M  V30 841 O 83.5456 -3.9857 -1.81861 0
M  V30 842 C 85.0466 -2.95864 -3.3012 0
M  V30 843 H 82.2666 -0.550342 -0.383881 0
M  V30 844 H 84.8106 -1.95898 -0.586864 0
M  V30 845 H 82.9656 -2.417 -3.02753 0
M  V30 846 H 83.3796 -4.57993 -2.55622 0
M  V30 847 H 84.8536 -3.74941 -4.05121 0
M  V30 848 H 85.3306 -2.06206 -3.87783 0
M  V30 849 H 85.9366 -3.26907 -2.72051 0
M  V30 850 N 84.2517 0.741722 -1.39055 0
M  V30 851 C 85.2147 1.83733 -1.37021 0
M  V30 852 C 86.2147 1.58542 -0.268534 0
M  V30 853 O 87.4047 1.66067 -0.526076 0
M  V30 854 C 84.5367 3.2141 -1.13617 0
M  V30 855 H 85.7297 1.86941 -2.34506 0
M  V30 856 H 83.2827 0.944676 -1.24521 0
M  V30 857 H 84.0177 3.23865 -0.167863 0
M  V30 858 H 83.8027 3.4109 -1.93391 0
M  V30 859 H 85.2927 4.01477 -1.14918 0
M  V30 860 N 85.7298 1.2412 0.971189 0
M  V30 861 C 86.9778 1.07668 1.71032 0
M  V30 862 C 87.2988 -0.385797 1.91146 0
M  V30 863 O 86.5688 -1.27569 1.4867 0
M  V30 864 H 85.1488 0.395429 0.633755 0
M  V30 865 H 87.8108 1.55984 1.16855 0
M  V30 866 H 86.9068 1.57195 2.69622 0
M  V30 867 N 87.2079 -1.17134 1.05439 0
M  V30 868 C 88.4569 -1.86791 0.761049 0
M  V30 869 C 88.7699 -1.82072 -0.714795 0
M  V30 870 O 89.9759 -2.47223 -1.12218 0
M  V30 871 C 88.4319 -3.35166 1.31117 0
M  V30 872 C 88.0399 -3.48381 2.81664 0
M  V30 873 C 89.7839 -4.10134 1.09499 0
M  V30 874 C 87.6909 -4.90793 3.29964 0
M  V30 875 H 86.6209 -0.699681 0.281002 0
M  V30 876 H 89.2719 -1.3226 1.27199 0
M  V30 877 H 87.6539 -3.8925 0.72803 0
M  V30 878 H 88.8279 -3.04502 3.45855 0
M  V30 879 H 87.1429 -2.86836 3.01851 0
M  V30 880 H 89.7399 -5.152 1.43084 0
M  V30 881 H 90.0829 -4.16287 0.0328772 0
M  V30 882 H 90.6159 -3.62264 1.64346 0
M  V30 883 H 87.3549 -4.89816 4.35616 0
M  V30 884 H 86.8749 -5.35333 2.70516 0
M  V30 885 H 88.5539 -5.59573 3.24787 0
M  V30 886 N 88.686 -0.835752 -1.33615 0
M  V30 887 C 89.636 -0.238856 -2.26745 0
M  V30 888 C 90.62 0.604343 -1.49119 0
M  V30 889 O 91.812 0.456822 -1.71003 0
M  V30 890 C 88.941 0.587725 -3.38232 0
M  V30 891 C 88.027 -0.266811 -4.2326 0
M  V30 892 N 88.418 -1.34403 -4.87616 0
M  V30 893 C 86.716 -0.0533131 -4.45968 0
M  V30 894 C 87.417 -1.86819 -5.50884 0
M  V30 895 N 86.393 -1.17013 -5.30857 0
M  V30 896 H 90.195 -1.06266 -2.74016 0
M  V30 897 H 87.709 -0.679881 -1.47483 0
M  V30 898 H 89.706 1.03161 -4.03935 0
M  V30 899 H 88.366 1.40954 -2.9251 0
M  V30 900 H 89.377 -1.7269 -4.88261 0
M  V30 901 H 86.054 0.735312 -4.10974 0
M  V30 902 H 87.444 -2.7701 -6.1214 0
M  V30 903 N 90.1641 1.46063 -0.591896 0
M  V30 904 C 91.0971 2.27452 0.184617 0
M  V30 905 C 92.0751 1.36188 0.888351 0
M  V30 906 O 93.2591 1.65606 0.90039 0
M  V30 907 C 90.3861 3.14162 1.26571 0
M  V30 908 C 89.4321 4.21255 0.666814 0
M  V30 909 S 90.2651 5.33034 -0.513345 0
M  V30 910 C 91.4211 6.23311 0.56872 0
M  V30 911 H 91.6541 2.92963 -0.505939 0
M  V30 912 H 89.1871 1.49676 -0.379014 0
M  V30 913 H 91.1451 3.6468 1.88463 0
M  V30 914 H 89.8061 2.47946 1.92826 0
M  V30 915 H 88.9991 4.81788 1.47974 0
M  V30 916 H 88.6011 3.73797 0.123359 0
M  V30 917 H 90.8931 6.61758 1.45198 0
M  V30 918 H 91.8361 7.081 -7.23824e-05 0
M  V30 919 H 92.2441 5.57646 0.876996 0
M  V30 920 N 91.6422 0.330177 1.54103 0
M  V30 921 C 93.0582 -0.0222371 1.59585 0
M  V30 922 C 93.2582 -1.49902 1.34654 0
M  V30 923 O 92.3142 -2.25592 1.13421 0
M  V30 924 C 93.6272 0.401932 2.98002 0
M  V30 925 C 95.1752 0.353145 3.11001 0
M  V30 926 C 95.6502 0.752576 4.51775 0
M  V30 927 N 97.1412 0.706239 4.57784 0
M  V30 928 C 97.8762 0.987417 5.64834 0
M  V30 929 N 97.3722 1.33607 6.79795 0
M  V30 930 N 99.1652 0.91254 5.54643 0
M  V30 931 H 91.3162 1.29228 1.68564 0
M  V30 932 H 93.5792 0.525906 0.78875 0
M  V30 933 H 93.2852 1.4311 3.21267 0
M  V30 934 H 93.1592 -0.229699 3.765 0
M  V30 935 H 95.5462 -0.666822 2.87467 0
M  V30 936 H 95.6272 1.0198 2.34593 0
M  V30 937 H 95.2712 1.77049 4.76042 0
M  V30 938 H 95.2012 0.0635409 5.26562 0
M  V30 939 H 97.6922 0.44889 3.75224 0
M  V30 940 H 98.0052 1.53582 7.57385 0
M  V30 941 H 96.3502 1.37439 6.81275 0
M  V30 942 H 99.5412 0.639601 4.6371 0
M  V30 943 H 99.7142 1.13503 6.37982 0
M  V30 944 N 93.1203 -1.57491 0.0584922 0
M  V30 945 C 94.0523 -2.08916 -0.942694 0
M  V30 946 C 95.0653 -1.0185 -1.27006 0
M  V30 947 O 96.2543 -1.29398 -1.22957 0
M  V30 948 C 93.3543 -2.52341 -2.26224 0
M  V30 949 C 92.5273 -3.82827 -2.1157 0
M  V30 950 C 91.5863 -4.12487 -3.26712 0
M  V30 951 O 90.6123 -4.82295 -3.02292 0
M  V30 952 N 91.8143 -3.64978 -4.5141 0
M  V30 953 H 94.5793 -2.95437 -0.503722 0
M  V30 954 H 92.1403 -1.61397 -0.12757 0
M  V30 955 H 94.1323 -2.69254 -3.02133 0
M  V30 956 H 92.7023 -1.7103 -2.61663 0
M  V30 957 H 91.9223 -3.75425 -1.20208 0
M  V30 958 H 93.2103 -4.68263 -1.99015 0
M  V30 959 H 92.6083 -3.08558 -4.7414 0
M  V30 960 H 91.1653 -3.87115 -5.2439 0
M  V30 961 N 94.5984 0.214957 -1.56127 0
M  V30 962 C 95.8444 0.935325 -1.80619 0
M  V30 963 C 96.1994 1.81706 -0.632507 0
M  V30 964 O 95.4924 1.87931 0.373182 0
M  V30 965 C 95.6864 1.80314 -3.0858 0
M  V30 966 C 95.5154 1.00691 -4.38282 0
M  V30 967 C 94.2854 0.699211 -5.00439 0
M  V30 968 C 96.4834 0.369057 -5.12974 0
M  V30 969 N 94.4654 -0.117734 -6.13787 0
M  V30 970 C 95.8364 -0.310981 -6.1922 0
M  V30 971 C 97.8914 0.282759 -4.97096 0
M  V30 972 C 96.5944 -1.06907 -7.11311 0
M  V30 973 C 98.6204 -0.461881 -5.89594 0
M  V30 974 C 97.9824 -1.13044 -6.9527 0
M  V30 975 H 94.0814 0.322307 -0.71249 0
M  V30 976 H 96.6654 0.205649 -1.93611 0
M  V30 977 H 94.8364 2.50458 -2.96859 0
M  V30 978 H 96.5684 2.46148 -3.21237 0
M  V30 979 H 93.3234 1.01884 -4.62511 0
M  V30 980 H 93.7474 -0.515235 -6.75037 0
M  V30 981 H 98.3894 0.785292 -4.15443 0
M  V30 982 H 96.1074 -1.5831 -7.92442 0
M  V30 983 H 99.6934 -0.529746 -5.79383 0
M  V30 984 H 98.5734 -1.69742 -7.65609 0
M  V30 985 N 96.0765 1.50051 0.48192 0
M  V30 986 C 97.0395 1.67584 1.5636 0
M  V30 987 C 98.0395 0.546894 1.51214 0
M  V30 988 O 99.2295 0.813725 1.54026 0
M  V30 989 C 96.3615 1.691 2.96003 0
M  V30 990 H 97.5545 2.64078 1.42136 0
M  V30 991 H 95.1075 1.39369 0.707533 0
M  V30 992 H 95.8425 0.742589 3.15684 0
M  V30 993 H 95.6275 2.51105 3.01146 0
M  V30 994 H 97.1175 1.84656 3.74556 0
M  V30 995 N 97.5546 -0.734337 1.39446 0
M  V30 996 C 98.9706 -1.03997 1.21065 0
M  V30 997 C 99.1706 -2.01369 0.0727019 0
M  V30 998 O 98.2266 -2.45856 -0.575426 0
M  V30 999 C 99.5396 -1.60163 2.54496 0
M  V30 1000 C 101.088 -1.7224 2.61347 0
M  V30 1001 C 101.563 -2.31814 3.95002 0
M  V30 1002 N 103.054 -2.39223 3.96644 0
M  V30 1003 C 103.789 -2.86258 4.96834 0
M  V30 1004 N 103.285 -3.33184 6.07421 0
M  V30 1005 N 105.078 -2.85473 4.84213 0
M  V30 1006 H 97.2286 -0.0885624 2.12215 0
M  V30 1007 H 99.4916 -0.10191 0.942506 0
M  V30 1008 H 99.1976 -0.960811 3.38321 0
M  V30 1009 H 99.0716 -2.5896 2.74262 0
M  V30 1010 H 101.459 -2.35443 1.77906 0
M  V30 1011 H 101.54 -0.720939 2.4543 0
M  V30 1012 H 101.184 -1.69238 4.78875 0
M  V30 1013 H 101.114 -3.32638 4.08239 0
M  V30 1014 H 103.605 -2.06057 3.16779 0
M  V30 1015 H 103.918 -3.67586 6.7978 0
M  V30 1016 H 102.263 -3.31191 6.11013 0
M  V30 1017 H 105.454 -2.48136 3.96921 0
M  V30 1018 H 105.627 -3.21814 5.62441 0
M  V30 1019 N 99.0327 -1.24633 -0.964593 0
M  V30 1020 C 99.9957 -1.0424 -2.04124 0
M  V30 1021 C 100.996 0.00137563 -1.608 0
M  V30 1022 O 102.186 -0.239883 -1.7254 0
M  V30 1023 C 99.3177 -0.580588 -3.3592 0
M  V30 1024 H 100.511 -1.99803 -2.23649 0
M  V30 1025 H 98.0637 -1.06899 -1.14027 0
M  V30 1026 H 98.7987 0.3781 -3.22088 0
M  V30 1027 H 98.5837 -1.33398 -3.6871 0
M  V30 1028 H 100.074 -0.459034 -4.15069 0
M  V30 1029 N 100.511 1.16574 -1.06058 0
M  V30 1030 C 101.758 1.87047 -0.775873 0
M  V30 1031 C 102.086 1.81562 0.697534 0
M  V30 1032 O 101.341 1.22445 1.52662 0
M  V30 1033 C 101.64 3.36195 -1.21275 0
M  V30 1034 C 101.306 3.6188 -2.68986 0
M  V30 1035 C 99.9678 3.68599 -3.09335 0
M  V30 1036 C 102.32 3.72648 -3.64394 0
M  V30 1037 C 99.6478 3.83584 -4.43937 0
M  V30 1038 C 102 3.89154 -4.98741 0
M  V30 1039 C 100.664 3.94114 -5.3873 0
M  V30 1040 H 99.9338 0.684452 -0.283912 0
M  V30 1041 H 102.581 1.37853 -1.32925 0
M  V30 1042 H 100.886 3.87505 -0.578528 0
M  V30 1043 H 102.583 3.89103 -0.969542 0
M  V30 1044 H 99.1728 3.57281 -2.36744 0
M  V30 1045 H 103.357 3.66769 -3.34356 0
M  V30 1046 H 98.6128 3.85677 -4.74409 0
M  V30 1047 H 102.787 3.96427 -5.72554 0
M  V30 1048 H 100.414 4.05478 -6.43033 0
M  V30 1049 N 101.989 0.842826 1.3317 0
M  V30 1050 C 103.235 0.441099 1.97945 0
M  V30 1051 C 103.568 -0.998024 1.66593 0
M  V30 1052 O 102.843 -1.69839 0.947898 0
M  V30 1053 C 103.126 0.666841 3.53872 0
M  V30 1054 C 102.979 2.15352 3.94897 0
M  V30 1055 C 104.298 0.115544 4.39948 0
M  V30 1056 H 101.417 0.161739 0.719034 0
M  V30 1057 H 104.059 1.05907 1.57746 0
M  V30 1058 H 102.209 0.140828 3.88245 0
M  V30 1059 H 103.881 2.7447 3.70761 0
M  V30 1060 H 102.124 2.63653 3.44484 0
M  V30 1061 H 102.795 2.26221 5.03516 0
M  V30 1062 H 105.271 0.565213 4.12243 0
M  V30 1063 H 104.147 0.303152 5.48062 0
M  V30 1064 H 104.408 -0.980935 4.3108 0
M  V30 1065 N 103.467 -1.45747 0.599634 0
M  V30 1066 C 104.716 -2.01502 0.0893511 0
M  V30 1067 C 105.029 -1.4748 -1.28488 0
M  V30 1068 O 106.235 -1.95161 -1.88745 0
M  V30 1069 C 104.691 -3.59735 0.109082 0
M  V30 1070 C 104.299 -4.22754 1.48267 0
M  V30 1071 C 106.043 -4.23085 -0.346374 0
M  V30 1072 C 103.95 -5.73115 1.45921 0
M  V30 1073 H 102.88 -0.753417 0.0296347 0
M  V30 1074 H 105.531 -1.67303 0.753788 0
M  V30 1075 H 103.913 -3.91087 -0.621854 0
M  V30 1076 H 105.087 -4.02987 2.23468 0
M  V30 1077 H 103.402 -3.71567 1.87955 0
M  V30 1078 H 105.999 -5.33327 -0.38298 0
M  V30 1079 H 106.342 -3.93201 -1.36743 0
M  V30 1080 H 106.875 -3.9642 0.331038 0
M  V30 1081 H 103.614 -6.07685 2.45762 0
M  V30 1082 H 103.134 -5.95097 0.749665 0
M  V30 1083 H 104.813 -6.3616 1.17941 0
M  V30 1084 N 104.945 -0.338344 -1.53925 0
M  V30 1085 C 105.855 0.529421 -2.28548 0
M  V30 1086 C 106.871 1.11645 -1.3346 0
M  V30 1087 O 108.047 1.13325 -1.66492 0
M  V30 1088 C 105.112 1.66713 -3.03987 0
M  V30 1089 C 104.173 1.11041 -4.14691 0
M  V30 1090 C 103.406 2.19389 -4.86522 0
M  V30 1091 O 103.629 3.40013 -4.57982 0
M  V30 1092 O 102.563 1.83976 -5.73094 0
M  V30 1093 H 106.389 -0.0770399 -3.03602 0
M  V30 1094 H 103.974 -0.103555 -1.49041 0
M  V30 1095 H 105.856 2.32918 -3.5118 0
M  V30 1096 H 104.531 2.25949 -2.31794 0
M  V30 1097 H 103.438 0.413024 -3.71813 0
M  V30 1098 H 104.771 0.562975 -4.8897 0
M  V30 1099 N 106.423 1.57458 -0.0668435 0
M  V30 1100 C 107.333 2.15937 0.916975 0
M  V30 1101 C 108.349 1.12123 1.33058 0
M  V30 1102 O 109.525 1.44366 1.40429 0
M  V30 1103 C 106.59 2.70547 2.16807 0
M  V30 1104 C 105.651 3.89215 1.81135 0
M  V30 1105 C 104.884 4.41211 3.0028 0
M  V30 1106 O 105.107 3.92225 4.14144 0
M  V30 1107 O 104.041 5.32605 2.80384 0
M  V30 1108 H 107.867 3.00354 0.449561 0
M  V30 1109 H 105.452 1.48584 0.155949 0
M  V30 1110 H 107.334 3.0557 2.90181 0
M  V30 1111 H 106.009 1.89192 2.62656 0
M  V30 1112 H 104.916 3.59054 1.05028 0
M  V30 1113 H 106.249 4.71848 1.40073 0
M  V30 1114 N 107.901 -0.206675 1.56239 0
M  V30 1115 C 108.864 -1.23976 1.92776 0
M  V30 1116 C 109.864 -1.39041 0.807729 0
M  V30 1117 O 111.054 -1.37051 1.0753 0
M  V30 1118 C 108.186 -2.61112 2.19165 0
M  V30 1119 H 109.379 -0.927764 2.85189 0
M  V30 1120 H 106.932 -0.447718 1.4975 0
M  V30 1121 H 107.667 -2.97386 1.29352 0
M  V30 1122 H 107.452 -2.51552 3.00772 0
M  V30 1123 H 108.942 -3.35633 2.48476 0
M  V30 1124 N 109.379 -1.50304 -0.473955 0
M  V30 1125 C 110.342 -1.6841 -1.55469 0
M  V30 1126 C 111.342 -0.554905 -1.50922 0
M  V30 1127 O 112.532 -0.821882 -1.53593 0
M  V30 1128 C 109.664 -1.70667 -2.95102 0
M  V30 1129 H 110.857 -2.64828 -1.40733 0
M  V30 1130 H 108.41 -1.39742 -0.700132 0
M  V30 1131 H 109.145 -0.75932 -3.15285 0
M  V30 1132 H 108.93 -2.52698 -2.9981 0
M  V30 1133 H 110.42 -1.8664 -3.73571 0
M  V30 1134 N 110.857 0.726932 -1.39834 0
M  V30 1135 C 112.082 1.52121 -1.40976 0
M  V30 1136 C 112.507 1.88098 -0.00826029 0
M  V30 1137 O 111.865 1.52479 0.980807 0
M  V30 1138 C 111.913 2.78021 -2.29644 0
M  V30 1139 O 111.017 3.74272 -1.73188 0
M  V30 1140 H 110.358 0.45908 -0.479731 0
M  V30 1141 H 112.888 0.896207 -1.83927 0
M  V30 1142 H 112.898 3.26671 -2.44438 0
M  V30 1143 H 111.573 2.51169 -3.31492 0
M  V30 1144 H 110.15 3.33073 -1.6768 0
M  V30 1145 N 112.336 1.25143 0.95797 0
M  V30 1146 C 113.584 1.09476 1.69881 0
M  V30 1147 C 113.905 -0.365502 1.91544 0
M  V30 1148 O 113.175 -1.25985 1.50015 0
M  V30 1149 H 111.755 0.402128 0.629525 0
M  V30 1150 H 114.417 1.57214 1.15194 0
M  V30 1151 H 113.513 1.60046 2.6794 0
M  V30 1152 N 113.814 -1.1601 1.06675 0
M  V30 1153 C 115.23 -1.38622 0.790948 0
M  V30 1154 C 115.43 -1.92109 -0.607965 0
M  V30 1155 O 114.486 -2.12239 -1.36787 0
M  V30 1156 C 115.799 -2.36347 1.85905 0
M  V30 1157 C 117.347 -2.50023 1.88301 0
M  V30 1158 C 117.822 -3.51033 2.94176 0
M  V30 1159 N 119.313 -3.58563 2.93235 0
M  V30 1160 C 120.048 -4.36521 3.71803 0
M  V30 1161 N 119.544 -5.17869 4.602 0
M  V30 1162 N 121.337 -4.31541 3.60178 0
M  V30 1163 H 113.488 -0.796294 1.96908 0
M  V30 1164 H 115.751 -0.412597 0.853503 0
M  V30 1165 H 115.457 -2.04147 2.86386 0
M  V30 1166 H 115.331 -3.36042 1.71334 0
M  V30 1167 H 117.718 -2.81524 0.884769 0
M  V30 1168 H 117.799 -1.5035 2.06951 0
M  V30 1169 H 117.443 -3.20268 3.94196 0
M  V30 1170 H 117.373 -4.50445 2.72776 0
M  V30 1171 H 119.864 -3.00496 2.29152 0
M  V30 1172 H 120.177 -5.74578 5.16797 0
M  V30 1173 H 118.522 -5.17199 4.64253 0
M  V30 1174 H 121.713 -3.67051 2.90502 0
M  V30 1175 H 121.886 -4.9205 4.21653 0
M  V30 1176 N 115.292 -0.849877 -1.32721 0
M  V30 1177 C 116.708 -0.539102 -1.50219 0
M  V30 1178 C 116.908 0.931271 -1.78689 0
M  V30 1179 O 115.964 1.71455 -1.85363 0
M  V30 1180 C 117.277 -1.42196 -2.64954 0
M  V30 1181 C 118.825 -1.42189 -2.78839 0
M  V30 1182 C 119.3 -2.28985 -3.96648 0
M  V30 1183 N 120.791 -2.26754 -4.03902 0
M  V30 1184 C 121.526 -2.90644 -4.94281 0
M  V30 1185 N 121.022 -3.63629 -5.897 0
M  V30 1186 N 122.815 -2.80057 -4.87365 0
M  V30 1187 H 114.966 -1.80156 -1.12506 0
M  V30 1188 H 117.229 -0.769217 -0.554085 0
M  V30 1189 H 116.935 -2.46733 -2.50631 0
M  V30 1190 H 116.809 -1.10591 -3.60624 0
M  V30 1191 H 119.196 -0.38419 -2.92588 0
M  V30 1192 H 119.277 -1.77807 -1.83898 0
M  V30 1193 H 118.921 -3.32819 -3.83658 0
M  V30 1194 H 118.851 -1.90702 -4.90857 0
M  V30 1195 H 121.342 -1.73688 -3.3562 0
M  V30 1196 H 121.655 -4.09558 -6.55349 0
M  V30 1197 H 120 -3.67737 -5.89741 0
M  V30 1198 H 123.191 -2.22593 -4.11789 0
M  V30 1199 H 123.364 -3.30132 -5.57599 0
M  V30 1200 N 116.77 1.45427 -0.607355 0
M  V30 1201 C 117.7 2.3329 0.0989352 0
M  V30 1202 C 118.681 1.46816 0.859007 0
M  V30 1203 O 119.866 1.75588 0.829604 0
M  V30 1204 C 116.996 3.29518 1.09705 0
M  V30 1205 C 115.95 4.25626 0.450206 0
M  V30 1206 C 115.276 5.11542 1.55655 0
M  V30 1207 C 116.576 5.18505 -0.628455 0
M  V30 1208 H 118.27 2.92595 -0.634716 0
M  V30 1209 H 115.816 1.40696 -0.306681 0
M  V30 1210 H 117.769 3.89855 1.59971 0
M  V30 1211 H 116.493 2.68372 1.86129 0
M  V30 1212 H 115.152 3.66586 -0.0315886 0
M  V30 1213 H 114.8 4.46765 2.31107 0
M  V30 1214 H 114.5 5.76647 1.12925 0
M  V30 1215 H 116.024 5.74748 2.06148 0
M  V30 1216 H 117.438 5.72916 -0.209877 0
M  V30 1217 H 115.835 5.92085 -0.977489 0
M  V30 1218 H 116.905 4.60948 -1.50514 0
M  V30 1219 N 118.248 0.346503 1.53744 0
M  V30 1220 C 119.494 -0.249473 2.0126 0
M  V30 1221 C 119.827 -1.49965 1.23386 0
M  V30 1222 O 119.102 -1.91811 0.32229 0
M  V30 1223 C 119.385 -0.560643 3.55709 0
M  V30 1224 C 119.238 0.701836 4.44291 0
M  V30 1225 C 120.557 -1.36905 4.18264 0
M  V30 1226 H 117.676 -0.0891987 0.731582 0
M  V30 1227 H 120.318 0.467624 1.84156 0
M  V30 1228 H 118.468 -1.17156 3.70414 0
M  V30 1229 H 120.14 1.33974 4.41417 0
M  V30 1230 H 118.383 1.32612 4.13033 0
M  V30 1231 H 119.054 0.43933 5.50249 0
M  V30 1232 H 121.53 -0.852448 4.07275 0
M  V30 1233 H 120.406 -1.55553 5.26398 0
M  V30 1234 H 120.667 -2.37203 3.73078 0
M  V30 1235 N 119.726 -1.57421 0.075193 0
M  V30 1236 C 120.956 -1.97659 -0.601203 0
M  V30 1237 C 121.364 -0.952427 -1.63479 0
M  V30 1238 O 120.707 0.0688241 -1.83571 0
M  V30 1239 C 120.769 -3.34218 -1.32434 0
M  V30 1240 C 120.433 -4.5484 -0.443826 0
M  V30 1241 C 121.43 -5.19034 0.299969 0
M  V30 1242 C 119.115 -5.00952 -0.367709 0
M  V30 1243 C 121.109 -6.27695 1.10807 0
M  V30 1244 C 118.796 -6.09484 0.444058 0
M  V30 1245 C 119.794 -6.72719 1.18061 0
M  V30 1246 O 119.482 -7.79161 1.97898 0
M  V30 1247 H 119.214 -0.65494 -0.167422 0
M  V30 1248 H 121.768 -2.04886 0.145157 0
M  V30 1249 H 119.998 -3.23615 -2.11685 0
M  V30 1250 H 121.687 -3.59038 -1.89331 0
M  V30 1251 H 122.453 -4.84351 0.250776 0
M  V30 1252 H 118.332 -4.51509 -0.930638 0
M  V30 1253 H 121.876 -6.76982 1.68347 0
M  V30 1254 H 117.773 -6.43601 0.494803 0
M  V30 1255 H 118.541 -7.96055 1.90367 0
M  V30 1256 N 121.204 0.198386 -1.56346 0
M  V30 1257 C 122.45 0.920648 -1.80698 0
M  V30 1258 C 122.783 1.83045 -0.648697 0
M  V30 1259 O 122.058 1.91308 0.350925 0
M  V30 1260 C 122.341 1.73971 -3.15287 0
M  V30 1261 C 122.194 0.85485 -4.41602 0
M  V30 1262 C 123.513 2.71296 -3.46535 0
M  V30 1263 H 120.632 0.333261 -0.657348 0
M  V30 1264 H 123.274 0.188198 -1.89066 0
M  V30 1265 H 121.424 2.36416 -3.08285 0
M  V30 1266 H 123.096 0.245362 -4.60647 0
M  V30 1267 H 121.339 0.161398 -4.335 0
M  V30 1268 H 122.01 1.46286 -5.32264 0
M  V30 1269 H 124.486 2.18983 -3.53816 0
M  V30 1270 H 123.362 3.2569 -4.41834 0
M  V30 1271 H 123.623 3.5018 -2.69864 0
M  V30 1272 N 122.682 1.50554 0.465978 0
M  V30 1273 C 123.63 1.70324 1.58406 0
M  V30 1274 C 124.624 0.569139 1.59553 0
M  V30 1275 O 125.83 0.749776 1.63641 0
M  V30 1276 H 122.205 0.537688 0.525734 0
M  V30 1277 H 124.176 2.64104 1.38894 0
M  V30 1278 C 122.925 1.81928 2.96307 0
M  V30 1279 H 122.248 2.68586 2.96144 0
M  V30 1280 H 123.688 1.99784 3.73982 0
M  V30 1281 C 122.147 0.572095 3.32007 0
M  V30 1282 O 122.677 -0.286416 4.00678 0
M  V30 1283 N 120.883 0.424606 2.87481 0
M  V30 1284 H 120.43 1.12427 2.31771 0
M  V30 1285 H 120.388 -0.408697 3.11732 0
M  V30 1286 N 124.16 -0.719506 1.40217 0
M  V30 1287 C 125.388 -1.50864 1.41589 0
M  V30 1288 C 125.803 -1.88794 0.0145275 0
M  V30 1289 O 125.16 -1.55174 -0.960594 0
M  V30 1290 C 125.211 -2.78646 2.30302 0
M  V30 1291 O 124.932 -2.42321 3.64983 0
M  V30 1292 C 126.433 -3.72569 2.40224 0
M  V30 1293 H 123.653 -0.465709 0.48307 0
M  V30 1294 H 126.197 -0.88785 1.84221 0
M  V30 1295 H 124.352 -3.37019 1.91042 0
M  V30 1296 H 124.766 -3.24514 4.12057 0
M  V30 1297 H 126.24 -4.5908 3.06512 0
M  V30 1298 H 126.717 -4.15403 1.42608 0
M  V30 1299 H 127.323 -3.20109 2.80019 0
M  V30 1300 N 125.638 -1.25649 -0.95132 0
M  V30 1301 C 126.915 -1.01361 -1.67288 0
M  V30 1302 C 127.295 0.459135 -2.06046 0
M  V30 1303 O 126.643 1.43723 -1.7764 0
M  V30 1304 C 126.853 -1.95256 -2.89268 0
M  V30 1305 C 128.201 -2.23289 -3.61147 0
M  V30 1306 O 129.225 -1.93041 -2.99355 0
M  V30 1307 O 128.084 -2.74741 -4.72419 0
M  V30 1308 H 125.178 -0.38464 -0.732107 0
M  V30 1309 H 127.724 -1.36817 -1.00395 0
M  V30 1310 H 126.496 -2.94685 -2.57442 0
M  V30 1311 H 126.119 -1.60218 -3.6389 0
M  V30 1312 N 127.117 1.15442 -1.07289 0
M  V30 1313 C 128.047 2.22312 -0.714107 0
M  V30 1314 C 129.028 1.67467 0.298155 0
M  V30 1315 O 130.213 1.93445 0.171048 0
M  V30 1316 C 127.343 3.47124 -0.110448 0
M  V30 1317 C 126.297 4.14926 -1.04979 0
M  V30 1318 C 125.623 5.33807 -0.308924 0
M  V30 1319 C 126.923 4.64762 -2.38314 0
M  V30 1320 H 128.617 2.5258 -1.6076 0
M  V30 1321 H 126.163 1.21404 -0.77441 0
M  V30 1322 H 128.116 4.21124 0.152482 0
M  V30 1323 H 126.84 3.16187 0.81812 0
M  V30 1324 H 125.499 3.42866 -1.29764 0
M  V30 1325 H 125.147 4.99126 0.623084 0
M  V30 1326 H 124.847 5.80113 -0.935036 0
M  V30 1327 H 126.371 6.10576 -0.0537771 0
M  V30 1328 H 127.785 5.30292 -2.1786 0
M  V30 1329 H 126.182 5.21728 -2.96514 0
M  V30 1330 H 127.252 3.80434 -3.00663 0
M  V30 1331 N 128.595 0.856903 1.32268 0
M  V30 1332 C 129.843 0.460474 1.96784 0
M  V30 1333 C 130.164 -0.987701 1.68135 0
M  V30 1334 O 129.434 -1.69058 0.989765 0
M  V30 1335 H 128.014 0.167289 0.728027 0
M  V30 1336 H 130.676 1.09383 1.61312 0
M  V30 1337 H 129.772 0.60739 3.06133 0
M  V30 1338 N 130.073 -1.45103 0.615059 0
M  V30 1339 C 131.006 -2.27717 -0.148408 0
M  V30 1340 C 131.984 -1.37584 -0.866572 0
M  V30 1341 O 133.168 -1.67017 -0.87393 0
M  V30 1342 C 130.295 -3.16136 -1.21557 0
M  V30 1343 C 129.341 -4.22263 -0.599712 0
M  V30 1344 S 130.174 -5.3215 0.598081 0
M  V30 1345 C 131.33 -6.24137 -0.469484 0
M  V30 1346 H 131.563 -2.92121 0.552483 0
M  V30 1347 H 129.096 -1.49054 0.402778 0
M  V30 1348 H 131.054 -3.67633 -1.82638 0
M  V30 1349 H 129.715 -2.50982 -1.88857 0
M  V30 1350 H 128.908 -4.84081 -1.4029 0
M  V30 1351 H 128.51 -3.73945 -0.063876 0
M  V30 1352 H 130.802 -6.63984 -1.34652 0
M  V30 1353 H 131.745 -7.0801 0.112725 0
M  V30 1354 H 132.153 -5.58971 -0.788168 0
M  V30 1355 N 131.551 -0.354651 -1.53558 0
M  V30 1356 C 132.8 0.239504 -2.00273 0
M  V30 1357 C 133.113 1.50759 -1.24623 0
M  V30 1358 O 134.319 2.17968 -1.61871 0
M  V30 1359 C 132.775 0.477341 -3.5672 0
M  V30 1360 C 132.383 -0.775488 -4.41237 0
M  V30 1361 C 134.127 1.02975 -4.11821 0
M  V30 1362 C 132.034 -0.507838 -5.89216 0
M  V30 1363 H 130.964 0.0932743 -0.748208 0
M  V30 1364 H 133.615 -0.471701 -1.77334 0
M  V30 1365 H 131.997 1.24953 -3.7577 0
M  V30 1366 H 133.171 -1.54963 -4.33962 0
M  V30 1367 H 131.486 -1.25033 -3.97185 0
M  V30 1368 H 134.083 1.24513 -5.2 0
M  V30 1369 H 134.426 1.98862 -3.65731 0
M  V30 1370 H 134.959 0.317994 -3.96527 0
M  V30 1371 H 131.698 -1.43674 -6.39561 0
M  V30 1372 H 131.218 0.228011 -5.99366 0
M  V30 1373 H 132.897 -0.129238 -6.46871 0
M  V30 1374 N 133.029 1.57378 -0.0835403 0
M  V30 1375 C 134.276 1.9393 0.58287 0
M  V30 1376 C 134.604 0.964455 1.68904 0
M  V30 1377 O 133.859 -0.0179474 1.95692 0
M  V30 1378 C 134.158 3.37063 1.1884 0
M  V30 1379 C 133.824 4.50424 0.207194 0
M  V30 1380 C 132.486 4.81159 -0.0627115 0
M  V30 1381 C 134.838 5.19136 -0.463426 0
M  V30 1382 C 132.166 5.77939 -1.01012 0
M  V30 1383 C 134.518 6.16931 -1.39924 0
M  V30 1384 C 133.182 6.46078 -1.67749 0
M  V30 1385 H 132.452 0.70964 0.213287 0
M  V30 1386 H 135.099 1.90856 -0.156916 0
M  V30 1387 H 133.404 3.3666 2.00418 0
M  V30 1388 H 135.101 3.6264 1.71153 0
M  V30 1389 H 131.691 4.2646 0.427747 0
M  V30 1390 H 135.875 4.95576 -0.268034 0
M  V30 1391 H 131.131 5.98842 -1.23283 0
M  V30 1392 H 135.305 6.69273 -1.92476 0
M  V30 1393 H 132.932 7.2088 -2.41321 0
M  V30 1394 N 134.507 -0.190092 1.56449 0
M  V30 1395 C 135.439 -1.25973 1.91477 0
M  V30 1396 C 136.452 -1.41452 0.805931 0
M  V30 1397 O 137.641 -1.41789 1.08435 0
M  V30 1398 C 134.741 -2.63117 2.13594 0
M  V30 1399 C 133.914 -2.69182 3.4476 0
M  V30 1400 C 132.973 -3.87557 3.5593 0
M  V30 1401 O 131.999 -3.74427 4.28711 0
M  V30 1402 N 133.201 -5.03224 2.89388 0
M  V30 1403 H 135.966 -0.962394 2.83828 0
M  V30 1404 H 133.527 -0.379981 1.57378 0
M  V30 1405 H 135.519 -3.40742 2.1835 0
M  V30 1406 H 134.089 -2.85319 1.27719 0
M  V30 1407 H 133.309 -1.77793 3.51828 0
M  V30 1408 H 134.597 -2.70229 4.31107 0
M  V30 1409 H 133.995 -5.16791 2.30094 0
M  V30 1410 H 132.552 -5.78778 2.99764 0
M  V30 1411 N 135.985 -1.50799 -0.457987 0
M  V30 1412 C 136.948 -1.7005 -1.53674 0
M  V30 1413 C 137.948 -0.570881 -1.50325 0
M  V30 1414 O 139.138 -0.838126 -1.52712 0
M  V30 1415 C 136.27 -1.73788 -2.93276 0
M  V30 1416 H 137.463 -2.66306 -1.37917 0
M  V30 1417 H 135.016 -1.40477 -0.685271 0
M  V30 1418 H 135.751 -0.792717 -3.14462 0
M  V30 1419 H 135.536 -2.55864 -2.97113 0
M  V30 1420 H 137.026 -1.90591 -3.71571 0
M  V30 1421 N 137.463 0.71206 -1.40597 0
M  V30 1422 C 138.709 1.47416 -1.39271 0
M  V30 1423 C 139.042 1.942 0.00388791 0
M  V30 1424 O 138.317 1.68403 0.973179 0
M  V30 1425 C 138.6 2.69774 -2.38525 0
M  V30 1426 C 138.453 2.28861 -3.87224 0
M  V30 1427 C 139.772 3.71939 -2.35264 0
M  V30 1428 H 136.891 0.534713 -0.5072 0
M  V30 1429 H 139.533 0.812375 -1.71757 0
M  V30 1430 H 137.683 3.26238 -2.10953 0
M  V30 1431 H 139.355 1.77852 -4.25636 0
M  V30 1432 H 137.598 1.60824 -4.02887 0
M  V30 1433 H 138.269 3.16584 -4.52193 0
M  V30 1434 H 140.745 3.25113 -2.59694 0
M  V30 1435 H 139.621 4.55186 -3.06753 0
M  V30 1436 H 139.882 4.20484 -1.36549 0
M  V30 1437 N 138.941 1.26152 0.944643 0
M  V30 1438 C 139.891 1.04081 2.02857 0
M  V30 1439 C 140.875 -0.0256555 1.6088 0
M  V30 1440 O 142.067 0.190884 1.75968 0
M  V30 1441 C 139.196 0.672118 3.36656 0
M  V30 1442 C 138.282 1.77586 3.85128 0
M  V30 1443 N 138.673 3.01272 4.06287 0
M  V30 1444 C 136.971 1.65867 4.1401 0
M  V30 1445 C 137.672 3.72983 4.46384 0
M  V30 1446 N 136.648 3.00653 4.52889 0
M  V30 1447 H 140.45 1.97968 2.17223 0
M  V30 1448 H 137.964 1.16618 1.13022 0
M  V30 1449 H 139.961 0.495166 4.13949 0
M  V30 1450 H 138.621 -0.259307 3.23663 0
M  V30 1451 H 139.632 3.37213 3.93075 0
M  V30 1452 H 136.309 0.796907 4.09824 0
M  V30 1453 H 137.699 4.792 4.70975 0
M  V30 1454 N 140.419 -1.14872 1.07899 0
M  V30 1455 C 141.349 -2.2193 0.725887 0
M  V30 1456 C 142.33 -1.67622 -0.28927 0
M  V30 1457 O 143.515 -1.93533 -0.160787 0
M  V30 1458 C 140.645 -3.47061 0.128856 0
M  V30 1459 C 139.599 -4.14363 1.07178 0
M  V30 1460 C 138.925 -5.33636 0.337229 0
M  V30 1461 C 140.225 -4.63492 2.40775 0
M  V30 1462 H 141.919 -2.51724 1.62097 0
M  V30 1463 H 139.465 -1.20991 0.780838 0
M  V30 1464 H 141.418 -4.21199 -0.130147 0
M  V30 1465 H 140.142 -3.16617 -0.80134 0
M  V30 1466 H 138.801 -3.42173 1.3158 0
M  V30 1467 H 138.449 -4.99449 -0.596606 0
M  V30 1468 H 138.149 -5.79609 0.965788 0
M  V30 1469 H 139.673 -6.10539 0.0861567 0
M  V30 1470 H 141.087 -5.2913 2.20669 0
M  V30 1471 H 139.484 -5.20148 2.99276 0
M  V30 1472 H 140.554 -3.78834 3.02676 0
M  V30 1473 N 141.898 -0.863906 -1.31812 0
M  V30 1474 C 142.845 -0.313303 -2.28664 0
M  V30 1475 C 143.815 0.584868 -1.55462 0
M  V30 1476 O 145 0.517805 -1.83639 0
M  V30 1477 C 142.14 0.48441 -3.41683 0
M  V30 1478 C 141.253 -0.440594 -4.29747 0
M  V30 1479 C 140.388 0.370652 -5.29905 0
M  V30 1480 C 139.427 -0.551164 -6.09613 0
M  V30 1481 N 138.564 0.223462 -7.01744 0
M  V30 1482 H 143.404 -1.14444 -2.75148 0
M  V30 1483 H 140.941 -0.575769 -1.35364 0
M  V30 1484 H 142.899 0.962627 -4.05943 0
M  V30 1485 H 141.529 1.28029 -2.96325 0
M  V30 1486 H 140.581 -1.03724 -3.65986 0
M  V30 1487 H 141.893 -1.14767 -4.85417 0
M  V30 1488 H 141.047 0.911638 -5.99812 0
M  V30 1489 H 139.786 1.11105 -4.74876 0
M  V30 1490 H 138.791 -1.10396 -5.38603 0
M  V30 1491 H 140.016 -1.29032 -6.66729 0
M  V30 1492 H 137.962 0.946787 -6.49132 0
M  V30 1493 H 137.879 -0.424399 -7.54808 0
M  V30 1494 H 139.147 0.745876 -7.75923 0
M  V30 1495 N 143.376 1.44774 -0.622745 0
M  V30 1496 C 144.622 2.0242 -0.124083 0
M  V30 1497 C 144.955 1.4881 1.24777 0
M  V30 1498 O 144.23 0.668799 1.8264 0
M  V30 1499 C 144.513 3.59957 -0.101619 0
M  V30 1500 C 144.366 4.23867 -1.50521 0
M  V30 1501 C 145.685 4.36284 0.578272 0
M  V30 1502 H 142.804 0.735528 -0.0465645 0
M  V30 1503 H 145.446 1.72447 -0.797617 0
M  V30 1504 H 143.596 3.85623 0.471934 0
M  V30 1505 H 145.268 4.09336 -2.12701 0
M  V30 1506 H 143.511 3.81684 -2.06154 0
M  V30 1507 H 144.182 5.32843 -1.4416 0
M  V30 1508 H 146.658 4.16001 0.0906057 0
M  V30 1509 H 145.534 5.46004 0.563149 0
M  V30 1510 H 145.795 4.10271 1.64713 0
M  V30 1511 N 144.854 0.36279 1.53368 0
M  V30 1512 C 145.784 -0.476976 2.28576 0
M  V30 1513 C 146.765 -1.08631 1.30894 0
M  V30 1514 O 147.95 -1.10409 1.59761 0
M  V30 1515 C 145.08 -1.61828 3.07293 0
M  V30 1516 C 144.034 -1.13633 4.1264 0
M  V30 1517 C 143.36 -2.36766 4.79423 0
M  V30 1518 C 144.66 -0.223061 5.21823 0
M  V30 1519 H 146.354 0.150474 2.99022 0
M  V30 1520 H 143.9 0.0738103 1.43811 0
M  V30 1521 H 145.853 -2.21237 3.58653 0
M  V30 1522 H 144.577 -2.27292 2.34533 0
M  V30 1523 H 143.236 -0.564945 3.62221 0
M  V30 1524 H 142.884 -3.0068 4.03238 0
M  V30 1525 H 142.584 -2.05192 5.50609 0
M  V30 1526 H 144.108 -2.96865 5.33576 0
M  V30 1527 H 145.522 -0.724545 5.68703 0
M  V30 1528 H 143.919 0.001678 6.001 0
M  V30 1529 H 144.989 0.735553 4.79289 0
M  V30 1530 N 146.332 -1.57332 0.0918853 0
M  V30 1531 C 147.295 -2.12708 -0.85369 0
M  V30 1532 C 148.295 -1.05561 -1.213 0
M  V30 1533 O 149.485 -1.31461 -1.14296 0
M  V30 1534 C 146.617 -2.64503 -2.15061 0
M  V30 1535 H 147.81 -2.97573 -0.3729 0
M  V30 1536 H 145.363 -1.55509 -0.157072 0
M  V30 1537 H 146.098 -1.83149 -2.67632 0
M  V30 1538 H 145.883 -3.4284 -1.90272 0
M  V30 1539 H 147.373 -3.07351 -2.82711 0
M  V30 1540 N 147.81 0.181792 -1.56548 0
M  V30 1541 C 149.226 0.53316 -1.50431 0
M  V30 1542 C 149.426 1.85184 -0.794297 0
M  V30 1543 O 148.482 2.50058 -0.350318 0
M  V30 1544 C 149.795 0.575597 -2.9514 0
M  V30 1545 C 151.343 0.663519 -3.05886 0
M  V30 1546 C 151.818 0.736946 -4.52032 0
M  V30 1547 N 153.309 0.800118 -4.56237 0
M  V30 1548 C 154.044 0.877327 -5.66649 0
M  V30 1549 N 153.54 0.916016 -6.86718 0
M  V30 1550 N 155.333 0.915542 -5.54594 0
M  V30 1551 H 147.484 -0.683025 -2.01118 0
M  V30 1552 H 149.747 -0.244988 -0.915797 0
M  V30 1553 H 149.453 -0.324482 -3.502 0
M  V30 1554 H 149.327 1.42572 -3.49218 0
M  V30 1555 H 151.714 1.55403 -2.50867 0
M  V30 1556 H 151.795 -0.21307 -2.54911 0
M  V30 1557 H 151.439 -0.149262 -5.07681 0
M  V30 1558 H 151.369 1.62953 -5.00753 0
M  V30 1559 H 153.86 0.778926 -3.69785 0
M  V30 1560 H 154.173 0.975813 -7.66614 0
M  V30 1561 H 152.518 0.884469 -6.89349 0
M  V30 1562 H 155.709 0.882245 -4.59711 0
M  V30 1563 H 155.882 0.972253 -6.40665 0
M  V30 1564 N 149.288 1.51039 0.449983 0
M  V30 1565 C 150.218 1.74379 1.55288 0
M  V30 1566 C 151.199 0.593236 1.5942 0
M  V30 1567 O 152.384 0.834625 1.7535 0
M  V30 1568 C 149.514 1.85728 2.93466 0
M  V30 1569 C 148.468 3.01078 3.04197 0
M  V30 1570 C 147.794 2.97595 4.44231 0
M  V30 1571 C 149.094 4.41254 2.7945 0
M  V30 1572 H 150.788 2.66725 1.36008 0
M  V30 1573 H 148.334 1.2835 0.652864 0
M  V30 1574 H 150.287 2.0064 3.70569 0
M  V30 1575 H 149.011 0.900207 3.13949 0
M  V30 1576 H 147.67 2.85851 2.29531 0
M  V30 1577 H 147.318 1.99691 4.61663 0
M  V30 1578 H 147.018 3.75046 4.52343 0
M  V30 1579 H 148.542 3.14583 5.23326 0
M  V30 1580 H 149.956 4.56897 3.46292 0
M  V30 1581 H 148.353 5.20315 2.98985 0
M  V30 1582 H 149.423 4.52164 1.75144 0
M  V30 1583 N 150.766 -0.704594 1.40972 0
M  V30 1584 C 151.713 -1.81862 1.42109 0
M  V30 1585 C 152.683 -1.63781 0.276593 0
M  V30 1586 O 153.868 -1.84759 0.4763 0
M  V30 1587 C 151.008 -3.19669 1.30022 0
M  V30 1588 C 150.121 -3.49246 2.54267 0
M  V30 1589 C 149.256 -4.76618 2.3454 0
M  V30 1590 C 148.295 -4.99133 3.54306 0
M  V30 1591 N 147.432 -6.17726 3.33706 0
M  V30 1592 H 152.272 -1.80226 2.37324 0
M  V30 1593 H 149.809 -0.880238 1.17857 0
M  V30 1594 H 151.767 -3.99263 1.21018 0
M  V30 1595 H 150.397 -3.20506 0.384192 0
M  V30 1596 H 149.449 -2.64125 2.73756 0
M  V30 1597 H 150.761 -3.61788 3.43381 0
M  V30 1598 H 149.915 -5.64249 2.22952 0
M  V30 1599 H 148.654 -4.66305 1.42867 0
M  V30 1600 H 147.659 -4.09953 3.66359 0
M  V30 1601 H 148.884 -5.11311 4.4692 0
M  V30 1602 H 146.83 -6.08642 2.44725 0
M  V30 1603 H 146.747 -6.30995 4.16391 0
M  V30 1604 H 148.015 -7.08115 3.25873 0
M  V30 1605 N 152.244 -1.26651 -0.937939 0
M  V30 1606 C 153.207 -1.08546 -2.01867 0
M  V30 1607 C 154.207 -0.0327327 -1.60767 0
M  V30 1608 O 155.397 -0.276427 -1.71993 0
M  V30 1609 C 152.529 -0.651711 -3.34613 0
M  V30 1610 H 153.722 -2.04502 -2.1936 0
M  V30 1611 H 151.275 -1.09294 -1.11734 0
M  V30 1612 H 152.01 0.309696 -3.22818 0
M  V30 1613 H 151.795 -1.41189 -3.65798 0
M  V30 1614 H 153.285 -0.546973 -4.14002 0
M  V30 1615 N 153.722 1.14298 -1.08507 0
M  V30 1616 C 154.669 2.19414 -0.715965 0
M  V30 1617 C 155.639 1.63399 0.298326 0
M  V30 1618 O 156.824 1.89929 0.182101 0
M  V30 1619 C 153.964 3.44845 -0.132534 0
M  V30 1620 C 153.077 4.15007 -1.19973 0
M  V30 1621 C 152.212 5.28024 -0.580048 0
M  V30 1622 C 151.251 5.9002 -1.62921 0
M  V30 1623 N 150.388 6.94485 -1.03125 0
M  V30 1624 H 155.228 2.50336 -1.61666 0
M  V30 1625 H 152.765 1.2293 -0.807882 0
M  V30 1626 H 154.723 4.16601 0.223454 0
M  V30 1627 H 153.353 3.14403 0.731467 0
M  V30 1628 H 152.405 3.41629 -1.67313 0
M  V30 1629 H 153.717 4.57178 -1.99473 0
M  V30 1630 H 152.871 6.06455 -0.172364 0
M  V30 1631 H 151.61 4.87076 0.246603 0
M  V30 1632 H 150.615 5.10291 -2.04654 0
M  V30 1633 H 151.84 6.33042 -2.45835 0
M  V30 1634 H 149.786 6.55612 -0.225711 0
M  V30 1635 H 149.703 7.35148 -1.76334 0
M  V30 1636 H 150.971 7.7679 -0.649458 0
M  V30 1637 N 155.201 0.870884 1.31352 0
M  V30 1638 C 156.431 0.496049 2.00557 0
M  V30 1639 C 156.839 -0.916241 1.65534 0
M  V30 1640 O 156.182 -1.61188 0.881134 0
M  V30 1641 C 156.244 0.574418 3.54881 0
M  V30 1642 C 155.908 1.94849 4.1338 0
M  V30 1643 C 156.905 2.91611 4.30417 0
M  V30 1644 C 154.59 2.25005 4.49086 0
M  V30 1645 C 156.584 4.16672 4.82352 0
M  V30 1646 C 154.271 3.50315 5.00722 0
M  V30 1647 C 155.269 4.45964 5.17306 0
M  V30 1648 O 154.957 5.69052 5.67833 0
M  V30 1649 H 154.689 0.191664 0.64826 0
M  V30 1650 H 157.243 1.17409 1.68536 0
M  V30 1651 H 155.473 -0.160549 3.86367 0
M  V30 1652 H 157.162 0.212879 4.05341 0
M  V30 1653 H 157.928 2.69622 4.03149 0
M  V30 1654 H 153.807 1.51332 4.35453 0
M  V30 1655 H 157.351 4.91336 4.95211 0
M  V30 1656 H 153.248 3.72147 5.27424 0
M  V30 1657 H 154.016 5.71236 5.86201 0
M  V30 1658 N 156.679 -1.44442 0.630414 0
M  V30 1659 C 158.09 -1.85434 0.217063 0
M  V30 1660 C 158.441 -1.52748 -1.23136 0
M  V30 1661 O 157.566 -0.965205 -1.93682 0
M  V30 1662 C 158.161 -3.36581 0.387168 0
M  V30 1663 C 156.72 -3.76389 0.0283297 0
M  V30 1664 C 155.867 -2.68296 0.700889 0
M  V30 1665 H 158.818 -1.34919 0.83562 0
M  V30 1666 H 158.839 -3.78657 -0.374086 0
M  V30 1667 H 158.351 -3.60339 1.44144 0
M  V30 1668 H 156.452 -3.58246 -1.02423 0
M  V30 1669 H 156.565 -4.77095 0.437892 0
M  V30 1670 H 154.929 -2.54335 0.136267 0
M  V30 1671 H 155.712 -2.94887 1.75774 0
M  V30 1672 N 158.157 -0.370918 -1.53173 0
M  V30 1673 C 159.405 0.216673 -2.00935 0
M  V30 1674 C 159.726 1.48845 -1.25977 0
M  V30 1675 O 158.996 1.92286 -0.374551 0
M  V30 1676 H 157.576 0.0830565 -0.742368 0
M  V30 1677 H 160.238 -0.49838 -1.8842 0
M  V30 1678 H 159.334 0.439893 -3.08984 0
M  V30 1679 N 159.635 1.57281 -0.100228 0
M  V30 1680 C 160.881 1.94826 0.563101 0
M  V30 1681 C 161.214 0.982475 1.67514 0
M  V30 1682 O 160.489 0.0164069 1.94493 0
M  V30 1683 C 160.772 3.42453 1.11346 0
M  V30 1684 C 160.625 4.498 0.00612081 0
M  V30 1685 C 161.944 3.91506 2.01024 0
M  V30 1686 H 159.063 0.708428 0.203221 0
M  V30 1687 H 161.705 1.8922 -0.171979 0
M  V30 1688 H 159.855 3.47361 1.7399 0
M  V30 1689 H 161.527 4.57 -0.628357 0
M  V30 1690 H 159.77 4.28756 -0.659581 0
M  V30 1691 H 160.441 5.50306 0.432109 0
M  V30 1692 H 162.917 3.88784 1.48278 0
M  V30 1693 H 161.793 4.95358 2.36457 0
M  V30 1694 H 162.054 3.31099 2.92961 0
M  V30 1695 N 161.113 -0.173488 1.56642 0
M  V30 1696 C 162.343 -0.904781 1.85734 0
M  V30 1697 C 162.751 -1.76431 0.68328 0
M  V30 1698 O 162.094 -1.802 -0.356865 0
M  V30 1699 C 162.156 -1.83382 3.09211 0
M  V30 1700 C 161.82 -1.15411 4.42187 0
M  V30 1701 C 162.817 -0.520609 5.17287 0
M  V30 1702 C 160.502 -1.15151 4.88923 0
M  V30 1703 C 162.496 0.106412 6.37311 0
M  V30 1704 C 160.183 -0.520664 6.08878 0
M  V30 1705 C 161.181 0.107196 6.82916 0
M  V30 1706 O 160.869 0.728102 8.00596 0
M  V30 1707 H 160.601 -0.268408 0.62043 0
M  V30 1708 H 163.155 -0.179096 2.04618 0
M  V30 1709 H 161.385 -2.59976 2.86268 0
M  V30 1710 H 163.074 -2.43476 3.24768 0
M  V30 1711 H 163.84 -0.514606 4.82262 0
M  V30 1712 H 159.719 -1.62961 4.31236 0
M  V30 1713 H 163.263 0.597081 6.9504 0
M  V30 1714 H 159.16 -0.524242 6.43368 0
M  V30 1715 H 159.928 0.627138 8.16094 0
M  V30 1716 N 162.591 -1.51276 -0.441967 0
M  V30 1717 C 163.868 -1.54252 -1.20273 0
M  V30 1718 C 164.248 -0.30408 -2.08898 0
M  V30 1719 O 163.596 0.711084 -2.17154 0
M  V30 1720 C 163.806 -2.85406 -2.00859 0
M  V30 1721 C 165.154 -3.37181 -2.58059 0
M  V30 1722 O 166.178 -2.86925 -2.11074 0
M  V30 1723 O 165.037 -4.24858 -3.43741 0
M  V30 1724 H 162.131 -0.619969 -0.547328 0
M  V30 1725 H 164.677 -1.63586 -0.451413 0
M  V30 1726 H 163.449 -3.67003 -1.35736 0
M  V30 1727 H 163.072 -2.79213 -2.83065 0
M  V30 1728 N 164.069 0.697108 -1.41344 0
M  V30 1729 C 164.979 1.84088 -1.45427 0
M  V30 1730 C 165.995 1.70545 -0.34501 0
M  V30 1731 O 167.171 1.92488 -0.592492 0
M  V30 1732 C 164.236 3.20056 -1.33286 0
M  V30 1733 C 163.297 3.45718 -2.54514 0
M  V30 1734 C 162.53 4.75199 -2.42944 0
M  V30 1735 O 162.753 5.51579 -1.45318 0
M  V30 1736 O 161.687 5.0161 -3.32672 0
M  V30 1737 H 165.513 1.836 -2.41919 0
M  V30 1738 H 163.098 0.849966 -1.22866 0
M  V30 1739 H 164.98 4.01236 -1.28794 0
M  V30 1740 H 163.655 3.2123 -0.39909 0
M  V30 1741 H 162.562 2.64474 -2.64583 0
M  V30 1742 H 163.895 3.49356 -3.46715 0
M  V30 1743 N 165.547 1.27147 0.931209 0
M  V30 1744 C 166.495 1.09398 2.05268 0
M  V30 1745 C 167.489 0.0180591 1.6939 0
M  V30 1746 O 168.695 0.17551 1.79142 0
M  V30 1747 H 165.07 0.336986 0.672268 0
M  V30 1748 H 167.041 2.04416 2.17386 0
M  V30 1749 C 165.79 0.75424 3.39421 0
M  V30 1750 H 165.113 1.57404 3.67511 0
M  V30 1751 H 166.553 0.669903 4.18674 0
M  V30 1752 C 165.012 -0.541197 3.32525 0
M  V30 1753 O 165.542 -1.57664 3.69466 0
M  V30 1754 N 163.748 -0.535517 2.85623 0
M  V30 1755 H 163.295 0.307511 2.55758 0
M  V30 1756 H 163.253 -1.40236 2.81392 0
M  V30 1757 N 167.025 -1.13721 1.09112 0
M  V30 1758 C 167.973 -2.21103 0.722219 0
M  V30 1759 C 168.967 -1.67147 -0.275374 0
M  V30 1760 O 170.173 -1.79477 -0.137176 0
M  V30 1761 H 166.548 -0.720445 0.215553 0
M  V30 1762 H 168.519 -2.49483 1.63709 0
M  V30 1763 C 167.268 -3.47352 0.15543 0
M  V30 1764 H 166.591 -3.89206 0.914246 0
M  V30 1765 H 168.031 -4.2395 -0.0647967 0
M  V30 1766 C 166.49 -3.1814 -1.10852 0
M  V30 1767 O 167.02 -3.36604 -2.19227 0
M  V30 1768 N 165.226 -2.72045 -1.02176 0
M  V30 1769 H 164.773 -2.57221 -0.139764 0
M  V30 1770 H 164.731 -2.52875 -1.8682 0
M  V30 1771 N 168.503 -0.877838 -1.30888 0
M  V30 1772 C 169.749 -0.493426 -1.96706 0
M  V30 1773 C 170.082 0.953504 -1.6918 0
M  V30 1774 O 169.357 1.67266 -0.992594 0
M  V30 1775 C 169.64 -0.760429 -3.51979 0
M  V30 1776 C 169.493 -2.25747 -3.89048 0
M  V30 1777 C 170.812 -0.232148 -4.39487 0
M  V30 1778 H 167.931 -0.180746 -0.714493 0
M  V30 1779 H 170.573 -1.10052 -1.54882 0
M  V30 1780 H 168.723 -0.243715 -3.87735 0
M  V30 1781 H 170.395 -2.84204 -3.63354 0
M  V30 1782 H 168.638 -2.72694 -3.37373 0
M  V30 1783 H 169.309 -2.39491 -4.97341 0
M  V30 1784 H 171.785 -0.674314 -4.106 0
M  V30 1785 H 170.661 -0.448355 -5.47066 0
M  V30 1786 H 170.922 0.866297 -4.33529 0
M  V30 1787 N 169.982 1.44106 -0.638065 0
M  V30 1788 C 170.915 2.27924 0.112161 0
M  V30 1789 C 171.893 1.38945 0.844574 0
M  V30 1790 O 173.077 1.68386 0.847248 0
M  V30 1791 C 170.204 3.18029 1.16512 0
M  V30 1792 C 169.25 4.23163 0.532458 0
M  V30 1793 S 170.083 5.31131 -0.682666 0
M  V30 1794 C 171.239 6.24805 0.37013 0
M  V30 1795 H 171.472 2.91205 -0.598887 0
M  V30 1796 H 169.005 1.48394 -0.426441 0
M  V30 1797 H 170.963 3.70492 1.76766 0
M  V30 1798 H 169.624 2.53955 1.8484 0
M  V30 1799 H 168.817 4.86252 1.32571 0
M  V30 1800 H 168.419 3.74 0.00437644 0
M  V30 1801 H 170.711 6.66042 1.24071 0
M  V30 1802 H 171.654 7.07741 -0.225349 0
M  V30 1803 H 172.062 5.60154 0.699141 0
M  V30 1804 N 171.46 0.379036 1.52974 0
M  V30 1805 C 172.39 -0.452706 2.29069 0
M  V30 1806 C 173.371 -1.07237 1.32039 0
M  V30 1807 O 174.556 -1.08708 1.60923 0
M  V30 1808 C 171.686 -1.5856 3.08992 0
M  V30 1809 C 170.64 -1.0925 4.13822 0
M  V30 1810 C 169.966 -2.31668 4.81907 0
M  V30 1811 C 171.266 -0.167702 5.22031 0
M  V30 1812 H 172.96 0.182181 2.98845 0
M  V30 1813 H 170.506 0.0890592 1.43724 0
M  V30 1814 H 172.459 -2.1742 3.6098 0
M  V30 1815 H 171.183 -2.24792 2.36931 0
M  V30 1816 H 169.842 -0.526494 3.628 0
M  V30 1817 H 169.49 -2.96386 4.06404 0
M  V30 1818 H 169.19 -1.9934 5.52754 0
M  V30 1819 H 170.714 -2.91189 5.36695 0
M  V30 1820 H 172.128 -0.664186 5.6944 0
M  V30 1821 H 170.525 0.0653265 6.00064 0
M  V30 1822 H 171.595 0.786347 4.78482 0
M  V30 1823 N 172.938 -1.57226 0.108567 0
M  V30 1824 C 173.901 -2.13602 -0.831082 0
M  V30 1825 C 174.901 -1.06841 -1.20173 0
M  V30 1826 O 176.091 -1.32666 -1.12895 0
M  V30 1827 C 173.223 -2.66769 -2.12243 0
M  V30 1828 H 174.416 -2.97951 -0.341317 0
M  V30 1829 H 171.969 -1.55667 -0.14057 0
M  V30 1830 H 172.704 -1.85977 -2.65675 0
M  V30 1831 H 172.489 -3.44839 -1.86625 0
M  V30 1832 H 173.979 -3.10332 -2.79435 0
M  V30 1833 N 174.416 0.165178 -1.56732 0
M  V30 1834 C 175.379 1.18822 -1.95995 0
M  V30 1835 C 176.379 1.3685 -0.84431 0
M  V30 1836 O 177.569 1.34152 -1.11126 0
M  V30 1837 C 174.701 2.5521 -2.26011 0
M  V30 1838 H 175.894 0.851825 -2.87548 0
M  V30 1839 H 173.447 0.407857 -1.50885 0
M  V30 1840 H 174.182 2.93852 -1.37191 0
M  V30 1841 H 173.967 2.43489 -3.07336 0
M  V30 1842 H 175.457 3.28927 -2.57288 0
M  V30 1843 N 175.894 1.51508 0.433938 0
M  V30 1844 C 177.122 1.68157 1.20543 0
M  V30 1845 C 177.537 0.380362 1.84929 0
M  V30 1846 O 176.894 -0.641446 1.70856 0
M  V30 1847 C 176.945 2.79965 2.28696 0
M  V30 1848 O 176.666 4.05045 1.66943 0
M  V30 1849 C 178.167 3.07912 3.18912 0
M  V30 1850 H 175.387 0.56421 0.363191 0
M  V30 1851 H 177.931 1.97941 0.513754 0
M  V30 1852 H 176.086 2.5277 2.93574 0
M  V30 1853 H 176.5 4.67165 2.38448 0
M  V30 1854 H 177.974 3.89719 3.90926 0
M  V30 1855 H 178.451 2.20456 3.79863 0
M  V30 1856 H 179.057 3.36779 2.59731 0
M  V30 1857 N 177.372 -0.689602 1.41712 0
M  V30 1858 C 178.322 -1.79571 1.40493 0
M  V30 1859 C 179.306 -1.58473 0.278409 0
M  V30 1860 O 180.498 -1.69204 0.519532 0
M  V30 1861 C 177.627 -3.17923 1.29536 0
M  V30 1862 C 176.713 -3.44695 2.47075 0
M  V30 1863 N 177.104 -3.42132 3.72531 0
M  V30 1864 C 175.402 -3.75269 2.41017 0
M  V30 1865 C 176.103 -3.67976 4.50521 0
M  V30 1866 N 175.079 -3.88014 3.80718 0
M  V30 1867 H 178.881 -1.75961 2.35404 0
M  V30 1868 H 176.395 -0.889839 1.35851 0
M  V30 1869 H 178.392 -3.97167 1.26745 0
M  V30 1870 H 177.052 -3.22741 0.356153 0
M  V30 1871 H 178.063 -3.22375 4.05333 0
M  V30 1872 H 174.74 -3.87421 1.55599 0
M  V30 1873 H 176.13 -3.7208 5.59469 0
M  V30 1874 N 178.85 -1.27639 -0.924453 0
M  V30 1875 C 180.078 -1.16989 -1.70649 0
M  V30 1876 C 180.493 0.272869 -1.86818 0
M  V30 1877 O 179.85 1.18549 -1.38753 0
M  V30 1878 C 179.901 -1.85229 -3.10439 0
M  V30 1879 O 179.622 -3.23868 -2.95028 0
M  V30 1880 C 181.123 -1.80746 -4.04779 0
M  V30 1881 H 178.343 -0.406595 -0.53378 0
M  V30 1882 H 180.887 -1.68569 -1.15778 0
M  V30 1883 H 179.042 -1.37545 -3.6216 0
M  V30 1884 H 179.456 -3.57889 -3.83426 0
M  V30 1885 H 180.93 -2.33101 -5.00368 0
M  V30 1886 H 181.407 -0.777499 -4.32263 0
M  V30 1887 H 182.013 -2.28059 -3.58984 0
M  V30 1888 N 180.328 1.1314 -1.09713 0
M  V30 1889 C 181.278 2.16709 -0.708593 0
M  V30 1890 C 182.262 1.58471 0.278523 0
M  V30 1891 O 183.454 1.76779 0.088427 0
M  V30 1892 C 180.583 3.43039 -0.133923 0
M  V30 1893 C 179.669 4.08277 -1.14763 0
M  V30 1894 N 180.06 4.48637 -2.33577 0
M  V30 1895 C 178.358 4.34954 -0.986446 0
M  V30 1896 C 179.059 4.9952 -2.98085 0
M  V30 1897 N 178.035 4.94561 -2.25632 0
M  V30 1898 H 181.837 2.45672 -1.61315 0
M  V30 1899 H 179.351 1.29967 -0.973775 0
M  V30 1900 H 181.348 4.16583 0.162465 0
M  V30 1901 H 180.008 3.15549 0.765447 0
M  V30 1902 H 181.019 4.41246 -2.7115 0
M  V30 1903 H 177.696 4.17258 -0.142008 0
M  V30 1904 H 179.086 5.40521 -3.99108 0
M  V30 1905 N 181.806 0.884767 1.30421 0
M  V30 1906 C 183.031 0.517288 2.00845 0
M  V30 1907 C 183.456 -0.886779 1.65885 0
M  V30 1908 O 182.814 -1.58768 0.875354 0
M  V30 1909 C 182.862 0.698994 3.5376 0
M  V30 1910 O 181.966 -0.255208 4.1161 0
M  V30 1911 H 181.307 0.203872 0.631927 0
M  V30 1912 H 183.837 1.19225 1.66272 0
M  V30 1913 H 183.847 0.597912 4.03595 0
M  V30 1914 H 182.522 1.72271 3.78544 0
M  V30 1915 H 181.099 -0.10784 3.72744 0
M  V30 1916 N 183.284 -1.43765 0.645699 0
M  V30 1917 C 184.532 -2.01499 0.155731 0
M  V30 1918 C 184.853 -1.51151 -1.232 0
M  V30 1919 O 184.123 -0.721044 -1.82148 0
M  V30 1920 H 182.703 -0.745003 0.0545817 0
M  V30 1921 H 185.365 -1.76075 0.835677 0
M  V30 1922 H 184.461 -3.1181 0.134577 0
M  V30 1923 N 184.763 -0.387143 -1.52771 0
M  V30 1924 C 186.174 0.0873634 -1.86495 0
M  V30 1925 C 186.525 1.46336 -1.30691 0
M  V30 1926 O 185.65 2.068 -0.637409 0
M  V30 1927 C 186.245 0.165305 -3.38396 0
M  V30 1928 C 184.804 0.584101 -3.7184 0
M  V30 1929 C 183.951 -0.255279 -2.76122 0
M  V30 1930 H 186.902 -0.605104 -1.46711 0
M  V30 1931 H 186.923 0.984848 -3.67534 0
M  V30 1932 H 186.435 -0.836301 -3.78982 0
M  V30 1933 H 184.536 1.59315 -3.36823 0
M  V30 1934 H 184.649 0.343749 -4.77865 0
M  V30 1935 H 183.013 0.279126 -2.53166 0
M  V30 1936 H 183.796 -1.25482 -3.19545 0
M  V30 1937 N 186.241 1.57166 -0.116904 0
M  V30 1938 C 187.489 1.94737 0.540533 0
M  V30 1939 C 187.81 1.00096 1.67349 0
M  V30 1940 O 187.08 0.0568854 1.95817 0
M  V30 1941 H 185.66 0.718981 0.202669 0
M  V30 1942 H 188.322 1.94017 -0.185353 0
M  V30 1943 H 187.418 2.97719 0.936483 0
M  V30 1944 N 187.719 -0.156864 1.56817 0
M  V30 1945 C 188.967 -0.869404 1.82444 0
M  V30 1946 C 189.288 -1.82147 0.69623 0
M  V30 1947 O 188.558 -1.93847 -0.28287 0
M  V30 1948 H 187.138 -0.324043 0.673056 0
M  V30 1949 H 189.8 -0.153224 1.94297 0
M  V30 1950 H 188.896 -1.43761 2.77019 0
M  V30 1951 N 189.197 -1.51736 -0.425897 0
M  V30 1952 C 190.444 -1.6497 -1.17436 0
M  V30 1953 C 190.772 -0.371445 -1.9092 0
M  V30 1954 O 190.027 0.644963 -1.84767 0
M  V30 1955 C 190.326 -2.81103 -2.20717 0
M  V30 1956 C 189.992 -4.19954 -1.64162 0
M  V30 1957 C 188.654 -4.57725 -1.48462 0
M  V30 1958 C 191.006 -5.06552 -1.22696 0
M  V30 1959 C 188.334 -5.79789 -0.897873 0
M  V30 1960 C 190.686 -6.29205 -0.654464 0
M  V30 1961 C 189.35 -6.6574 -0.484456 0
M  V30 1962 H 188.62 -0.603668 -0.429727 0
M  V30 1963 H 191.267 -1.85798 -0.463829 0
M  V30 1964 H 189.572 -2.54542 -2.97852 0
M  V30 1965 H 191.269 -2.8854 -2.78471 0
M  V30 1966 H 187.859 -3.90181 -1.77361 0
M  V30 1967 H 192.043 -4.77968 -1.33642 0
M  V30 1968 H 187.299 -6.06733 -0.75402 0
M  V30 1969 H 191.473 -6.95643 -0.324694 0
M  V30 1970 H 189.1 -7.60195 -0.0276833 0
M  V30 1971 N 190.675 0.682077 -1.42076 0
M  V30 1972 C 191.9 1.47558 -1.45744 0
M  V30 1973 C 192.325 1.87977 -0.0680981 0
M  V30 1974 O 191.683 1.55522 0.9318 0
M  V30 1975 C 191.731 2.70575 -2.38373 0
M  V30 1976 O 190.835 3.68573 -1.85007 0
M  V30 1977 H 190.176 0.443585 -0.494093 0
M  V30 1978 H 192.706 0.837238 -1.86686 0
M  V30 1979 H 192.716 3.18729 -2.54707 0
M  V30 1980 H 191.391 2.40495 -3.39315 0
M  V30 1981 H 189.968 3.2757 -1.78192 0
M  V30 1982 N 192.153 1.28127 0.917671 0
M  V30 1983 C 193.103 1.08361 2.00604 0
M  V30 1984 C 194.087 0.00847518 1.60898 0
M  V30 1985 O 195.279 0.228167 1.75523 0
M  V30 1986 C 192.408 0.743376 3.35155 0
M  V30 1987 C 191.494 1.85716 3.81275 0
M  V30 1988 N 191.885 3.09822 3.99805 0
M  V30 1989 C 190.183 1.74612 4.10398 0
M  V30 1990 C 190.884 3.82368 4.38372 0
M  V30 1991 N 189.86 3.10192 4.4641 0
M  V30 1992 H 193.662 2.02531 2.12975 0
M  V30 1993 H 191.176 1.18989 1.10523 0
M  V30 1994 H 193.173 0.582859 4.12805 0
M  V30 1995 H 191.833 -0.190595 3.2414 0
M  V30 1996 H 192.844 3.45475 3.85833 0
M  V30 1997 H 189.521 0.883657 4.08041 0
M  V30 1998 H 190.911 4.89082 4.60704 0
M  V30 1999 N 193.631 -1.12557 1.10312 0
M  V30 2000 C 194.861 -1.87592 0.865617 0
M  V30 2001 C 195.269 -1.79851 -0.587389 0
M  V30 2002 O 194.612 -1.16949 -1.41664 0
M  V30 2003 C 194.674 -3.37665 1.23381 0
M  V30 2004 C 194.338 -3.69181 2.69359 0
M  V30 2005 C 195.335 -3.67652 3.67597 0
M  V30 2006 C 193.02 -3.98555 3.05711 0
M  V30 2007 C 195.014 -3.95053 5.00212 0
M  V30 2008 C 192.701 -4.25616 4.38514 0
M  V30 2009 C 193.699 -4.23851 5.35574 0
M  V30 2010 O 193.387 -4.50242 6.65986 0
M  V30 2011 H 193.119 -0.600442 0.310557 0
M  V30 2012 H 195.673 -1.4335 1.47105 0
M  V30 2013 H 193.903 -3.82454 0.571467 0
M  V30 2014 H 195.592 -3.94041 0.973994 0
M  V30 2015 H 196.358 -3.45024 3.40857 0
M  V30 2016 H 192.237 -3.99071 2.30789 0
M  V30 2017 H 195.781 -3.93591 5.75962 0
M  V30 2018 H 191.678 -4.47718 4.64994 0
M  V30 2019 H 192.446 -4.67867 6.71597 0
M  V30 2020 N 195.109 -0.891671 -1.2995 0
M  V30 2021 C 196.072 -0.36828 -2.26222 0
M  V30 2022 C 197.072 0.493014 -1.53056 0
M  V30 2023 O 198.262 0.299213 -1.71611 0
M  V30 2024 C 195.394 0.47442 -3.37583 0
M  V30 2025 H 196.587 -1.21844 -2.74033 0
M  V30 2026 H 194.14 -0.669107 -1.41254 0
M  V30 2027 H 194.875 1.34489 -2.95099 0
M  V30 2028 H 194.66 -0.142615 -3.91841 0
M  V30 2029 H 196.15 0.83218 -4.09224 0
M  V30 2030 N 196.587 1.43421 -0.653314 0
M  V30 2031 C 197.52 2.2803 0.0879804 0
M  V30 2032 C 198.498 1.39833 0.82979 0
M  V30 2033 O 199.682 1.69275 0.829341 0
M  V30 2034 C 196.809 3.19247 1.13132 0
M  V30 2035 C 195.855 4.23704 0.487546 0
M  V30 2036 S 196.688 5.30377 -0.738961 0
M  V30 2037 C 197.844 6.25162 0.30384 0
M  V30 2038 H 198.077 2.90554 -0.629739 0
M  V30 2039 H 195.61 1.47934 -0.442156 0
M  V30 2040 H 197.568 3.72346 1.72827 0
M  V30 2041 H 196.229 2.55901 1.82136 0
M  V30 2042 H 195.422 4.87631 1.27407 0
M  V30 2043 H 195.024 3.73983 -0.0352915 0
M  V30 2044 H 197.316 6.67321 1.17 0
M  V30 2045 H 198.259 7.07463 -0.300402 0
M  V30 2046 H 198.667 5.60864 0.63969 0
M  V30 2047 N 198.065 0.39524 1.52563 0
M  V30 2048 C 199.295 -0.184675 2.05773 0
M  V30 2049 C 199.703 -1.40571 1.26635 0
M  V30 2050 O 199.046 -1.81105 0.30769 0
M  V30 2051 C 199.108 -0.613551 3.54226 0
M  V30 2052 C 198.772 0.49484 4.54313 0
M  V30 2053 C 199.769 1.3541 5.01956 0
M  V30 2054 C 197.454 0.663565 4.97898 0
M  V30 2055 C 199.448 2.36716 5.91814 0
M  V30 2056 C 197.135 1.67996 5.87555 0
M  V30 2057 C 198.133 2.53017 6.34406 0
M  V30 2058 O 197.821 3.52917 7.22291 0
M  V30 2059 H 197.553 -0.030077 0.675331 0
M  V30 2060 H 200.107 0.560708 1.97599 0
M  V30 2061 H 198.337 -1.411 3.60038 0
M  V30 2062 H 200.026 -1.11981 3.90148 0
M  V30 2063 H 200.792 1.23509 4.6901 0
M  V30 2064 H 196.671 0.0114913 4.60999 0
M  V30 2065 H 200.215 3.03113 6.28306 0
M  V30 2066 H 196.112 1.79933 6.19915 0
M  V30 2067 H 196.88 3.48996 7.40367 0
M  V30 2068 N 199.544 -1.57102 0.125237 0
M  V30 2069 C 200.492 -2.16905 -0.839927 0
M  V30 2070 C 201.486 -1.11998 -1.27094 0
M  V30 2071 O 202.692 -1.3029 -1.24195 0
M  V30 2072 H 199.067 -0.694252 -0.288995 0
M  V30 2073 H 201.038 -2.96774 -0.311115 0
M  V30 2074 C 199.787 -2.78795 -2.07771 0
M  V30 2075 H 199.11 -3.59221 -1.755 0
M  V30 2076 H 200.55 -3.2417 -2.73295 0
M  V30 2077 C 199.009 -1.76193 -2.87155 0
M  V30 2078 O 199.539 -1.21909 -3.82755 0
M  V30 2079 N 197.745 -1.45991 -2.51267 0
M  V30 2080 H 197.292 -1.90325 -1.73592 0
M  V30 2081 H 197.25 -0.775844 -3.04677 0
M  V30 2082 N 201.022 0.148545 -1.56898 0
M  V30 2083 C 201.952 1.18524 -2.01182 0
M  V30 2084 C 202.933 1.4489 -0.891123 0
M  V30 2085 O 204.118 1.55836 -1.15882 0
M  V30 2086 C 201.248 2.51879 -2.39112 0
M  V30 2087 C 200.202 2.40038 -3.54353 0
M  V30 2088 C 199.528 3.78089 -3.78091 0
M  V30 2089 C 200.828 1.88577 -4.87069 0
M  V30 2090 H 202.522 0.817029 -2.88036 0
M  V30 2091 H 200.068 0.391575 -1.38574 0
M  V30 2092 H 202.021 3.24627 -2.68692 0
M  V30 2093 H 200.745 2.90532 -1.49193 0
M  V30 2094 H 199.404 1.69742 -3.24936 0
M  V30 2095 H 199.052 4.14175 -2.85426 0
M  V30 2096 H 198.752 3.71028 -4.55645 0
M  V30 2097 H 200.276 4.52387 -4.10095 0
M  V30 2098 H 201.69 2.51117 -5.15377 0
M  V30 2099 H 200.087 1.9241 -5.68417 0
M  V30 2100 H 201.157 0.84136 -4.77545 0
M  V30 2101 N 202.5 1.5196 0.417844 0
M  V30 2102 C 203.725 1.69717 1.1921 0
M  V30 2103 C 204.15 0.402148 1.83751 0
M  V30 2104 O 203.508 -0.639593 1.69643 0
M  V30 2105 C 203.556 2.82794 2.2374 0
M  V30 2106 O 202.66 2.47756 3.29683 0
M  V30 2107 H 202.001 0.565263 0.348387 0
M  V30 2108 H 204.531 1.98621 0.490985 0
M  V30 2109 H 204.541 3.07452 2.68212 0
M  V30 2110 H 203.216 3.76756 1.76146 0
M  V30 2111 H 201.793 2.33739 2.90552 0
M  V30 2112 N 203.978 -0.674533 1.42435 0
M  V30 2113 C 205.224 -1.43671 1.43131 0
M  V30 2114 C 205.557 -1.94142 0.0476021 0
M  V30 2115 O 204.832 -1.70924 -0.928188 0
M  V30 2116 C 205.115 -2.63355 2.45594 0
M  V30 2117 C 204.968 -2.18514 3.93156 0
M  V30 2118 C 206.287 -3.65571 2.45043 0
M  V30 2119 H 203.406 -0.521077 0.521198 0
M  V30 2120 H 206.048 -0.766551 1.7385 0
M  V30 2121 H 204.198 -3.2053 2.19528 0
M  V30 2122 H 205.87 -1.66504 4.30202 0
M  V30 2123 H 204.113 -1.50086 4.07009 0
M  V30 2124 H 204.784 -3.04484 4.60428 0
M  V30 2125 H 207.26 -3.18113 2.68223 0
M  V30 2126 H 206.136 -4.46893 3.18713 0
M  V30 2127 H 206.397 -4.16716 1.47649 0
M  V30 2128 N 205.456 -1.28612 -0.910864 0
M  V30 2129 C 206.386 -1.15326 -2.03032 0
M  V30 2130 C 207.367 -0.0502924 -1.70026 0
M  V30 2131 O 208.552 -0.227797 -1.92859 0
M  V30 2132 C 205.682 -0.817343 -3.37545 0
M  V30 2133 C 204.636 -1.8754 -3.84724 0
M  V30 2134 C 203.962 -1.39305 -5.16235 0
M  V30 2135 C 205.262 -3.28244 -4.06267 0
M  V30 2136 H 206.956 -2.08975 -2.14406 0
M  V30 2137 H 204.502 -1.00612 -1.03021 0
M  V30 2138 H 206.455 -0.711151 -4.15356 0
M  V30 2139 H 205.179 0.154846 -3.26233 0
M  V30 2140 H 203.838 -1.97079 -3.09121 0
M  V30 2141 H 203.486 -0.409846 -5.01328 0
M  V30 2142 H 203.186 -2.10057 -5.48771 0
M  V30 2143 H 204.71 -1.30014 -5.96598 0
M  V30 2144 H 206.124 -3.21611 -4.74594 0
M  V30 2145 H 204.521 -3.96855 -4.5014 0
M  V30 2146 H 205.591 -3.72048 -3.10979 0
M  V30 2147 N 206.934 1.1197 -1.10907 0
M  V30 2148 C 208.182 1.83225 -0.852819 0
M  V30 2149 C 208.503 1.84769 0.623341 0
M  V30 2150 O 207.773 1.3143 1.45269 0
M  V30 2151 H 206.353 0.67849 -0.312507 0
M  V30 2152 H 209.015 1.3556 -1.40033 0
M  V30 2153 H 208.111 2.87265 -1.22005 0
M  V30 2154 N 208.412 0.89855 1.29475 0
M  V30 2155 C 209.659 0.523882 1.95606 0
M  V30 2156 C 209.987 -0.929608 1.70847 0
M  V30 2157 O 209.242 -1.67401 1.01367 0
M  V30 2158 C 209.541 0.761398 3.49195 0
M  V30 2159 C 209.207 2.19207 3.94029 0
M  V30 2160 C 207.869 2.58326 4.05982 0
M  V30 2161 C 210.221 3.12379 4.17216 0
M  V30 2162 C 207.549 3.898 4.38489 0
M  V30 2163 C 209.901 4.43401 4.51197 0
M  V30 2164 C 208.565 4.82394 4.61359 0
M  V30 2165 H 207.835 0.191702 0.715773 0
M  V30 2166 H 210.482 1.13699 1.54094 0
M  V30 2167 H 208.787 0.0653622 3.91745 0
M  V30 2168 H 210.484 0.450904 3.98457 0
M  V30 2169 H 207.074 1.87846 3.85242 0
M  V30 2170 H 211.258 2.83371 4.07449 0
M  V30 2171 H 206.514 4.19734 4.44559 0
M  V30 2172 H 210.688 5.15623 4.68087 0
M  V30 2173 H 208.315 5.84306 4.86303 0
M  V30 2174 N 209.89 -1.43072 0.660911 0
M  V30 2175 C 210.822 -2.29108 -0.0647641 0
M  V30 2176 C 211.835 -1.42928 -0.779448 0
M  V30 2177 O 213.024 -1.66788 -0.635921 0
M  V30 2178 C 210.124 -3.20032 -1.11503 0
M  V30 2179 C 209.297 -4.34792 -0.476955 0
M  V30 2180 C 208.356 -5.06534 -1.42513 0
M  V30 2181 O 207.382 -5.61538 -0.930771 0
M  V30 2182 N 208.584 -5.1075 -2.75889 0
M  V30 2183 H 211.349 -2.92029 0.673731 0
M  V30 2184 H 208.91 -1.53846 0.50427 0
M  V30 2185 H 210.902 -3.64892 -1.75032 0
M  V30 2186 H 209.472 -2.58658 -1.75541 0
M  V30 2187 H 208.692 -3.92752 0.337572 0
M  V30 2188 H 209.98 -5.0879 -0.0318525 0
M  V30 2189 H 209.378 -4.67447 -3.18606 0
M  V30 2190 H 207.935 -5.59302 -3.347 0
M  V30 2191 N 211.368 -0.403325 -1.52352 0
M  V30 2192 C 212.278 0.432009 -2.30588 0
M  V30 2193 C 213.294 1.05884 -1.38075 0
M  V30 2194 O 214.47 1.06161 -1.71148 0
M  V30 2195 C 211.535 1.53669 -3.10784 0
M  V30 2196 C 210.596 0.933525 -4.19027 0
M  V30 2197 C 209.829 1.98557 -4.9539 0
M  V30 2198 O 210.052 3.20283 -4.71991 0
M  V30 2199 O 208.986 1.59504 -5.80381 0
M  V30 2200 H 212.812 -0.205739 -3.03002 0
M  V30 2201 H 210.397 -0.166675 -1.48467 0
M  V30 2202 H 212.279 2.17814 -3.60742 0
M  V30 2203 H 210.954 2.15915 -2.41169 0
M  V30 2204 H 209.861 0.254954 -3.7323 0
M  V30 2205 H 211.194 0.35508 -4.90918 0
M  V30 2206 N 212.846 1.57033 -0.133567 0
M  V30 2207 C 213.793 2.16074 0.811208 0
M  V30 2208 C 214.763 1.08979 1.2535 0
M  V30 2209 O 215.948 1.36958 1.32843 0
M  V30 2210 C 213.088 2.77595 2.05024 0
M  V30 2211 C 212.201 3.99042 1.65498 0
M  V30 2212 C 211.336 4.48603 2.84479 0
M  V30 2213 C 210.375 5.62547 2.41262 0
M  V30 2214 N 209.512 6.06787 3.53206 0
M  V30 2215 H 214.352 2.96477 0.300906 0
M  V30 2216 H 211.889 1.46462 0.136822 0
M  V30 2217 H 213.847 3.11402 2.77642 0
M  V30 2218 H 212.477 1.99859 2.53488 0
M  V30 2219 H 211.529 3.71302 0.826981 0
M  V30 2220 H 212.841 4.81629 1.29748 0
M  V30 2221 H 211.995 4.84395 3.65303 0
M  V30 2222 H 210.734 3.64995 3.23465 0
M  V30 2223 H 209.739 5.26345 1.58874 0
M  V30 2224 H 210.964 6.47931 2.03377 0
M  V30 2225 H 208.91 5.26117 3.91838 0
M  V30 2226 H 208.827 6.84266 3.21427 0
M  V30 2227 H 210.095 6.4722 4.34427 0
M  V30 2228 N 214.325 -0.140222 1.56975 0
M  V30 2229 C 215.553 -0.866437 1.87884 0
M  V30 2230 C 215.968 -1.74428 0.722517 0
M  V30 2231 O 215.325 -1.79891 -0.30749 0
M  V30 2232 C 215.376 -1.71753 3.18093 0
M  V30 2233 O 215.097 -0.875056 4.29272 0
M  V30 2234 C 216.598 -2.55074 3.62563 0
M  V30 2235 H 213.818 -0.25019 0.622612 0
M  V30 2236 H 216.362 -0.130977 2.0408 0
M  V30 2237 H 214.517 -2.40598 3.03631 0
M  V30 2238 H 214.931 -1.46002 5.03769 0
M  V30 2239 H 216.405 -3.10356 4.5649 0
M  V30 2240 H 216.882 -3.31434 2.88181 0
M  V30 2241 H 217.488 -1.91509 3.79743 0
M  V30 2242 N 215.803 -1.52179 -0.40978 0
M  V30 2243 C 217.05 -1.66206 -1.15679 0
M  V30 2244 C 217.378 -0.391674 -1.90516 0
M  V30 2245 O 216.633 0.62533 -1.8544 0
M  V30 2246 C 216.932 -2.83428 -2.17723 0
M  V30 2247 C 216.598 -4.21672 -1.59699 0
M  V30 2248 C 215.26 -4.59274 -1.43599 0
M  V30 2249 C 217.612 -5.07825 -1.17317 0
M  V30 2250 C 214.94 -5.80709 -0.836328 0
M  V30 2251 C 217.292 -6.29864 -0.587691 0
M  V30 2252 C 215.956 -6.66216 -0.413818 0
M  V30 2253 H 215.226 -0.608192 -0.423301 0
M  V30 2254 H 217.873 -1.86279 -0.444097 0
M  V30 2255 H 216.178 -2.57687 -2.95135 0
M  V30 2256 H 217.875 -2.91477 -2.75394 0
M  V30 2257 H 214.465 -3.9204 -1.73213 0
M  V30 2258 H 218.649 -4.79359 -1.28565 0
M  V30 2259 H 213.905 -6.07498 -0.689626 0
M  V30 2260 H 218.079 -6.95948 -0.250894 0
M  V30 2261 H 215.706 -7.60182 0.0529471 0
M  V30 2262 N 217.281 0.66697 -1.42791 0
M  V30 2263 C 218.229 1.80157 -1.47127 0
M  V30 2264 C 219.223 1.65825 -0.346199 0
M  V30 2265 O 220.429 1.72338 -0.519572 0
M  V30 2266 H 216.804 0.594158 -0.460956 0
M  V30 2267 H 218.775 1.73619 -2.42692 0
M  V30 2268 C 217.524 3.18351 -1.39813 0
M  V30 2269 H 216.847 3.3001 -2.25684 0
M  V30 2270 H 218.287 3.97736 -1.46908 0
M  V30 2271 C 216.746 3.36707 -0.11391 0
M  V30 2272 O 217.276 3.93027 0.830241 0
M  V30 2273 N 215.482 2.90586 -0.0285295 0
M  V30 2274 H 215.029 2.4494 -0.79764 0
M  V30 2275 H 214.987 3.03245 0.830063 0
M  V30 2276 N 218.759 1.29093 0.90403 0
M  V30 2277 C 219.722 1.1386 1.98919 0
M  V30 2278 C 220.722 0.0753457 1.60623 0
M  V30 2279 O 221.912 0.321931 1.71199 0
M  V30 2280 C 219.044 0.740198 3.32767 0
M  V30 2281 H 220.237 2.10246 2.13861 0
M  V30 2282 H 217.79 1.12218 1.08797 0
M  V30 2283 H 218.525 -0.223997 3.23525 0
M  V30 2284 H 218.31 1.50838 3.61926 0
M  V30 2285 H 219.8 0.656546 4.12407 0
M  V30 2286 N 220.237 -1.11381 1.11499 0
M  V30 2287 C 221.486 -1.82494 0.858993 0
M  V30 2288 C 221.799 -1.85605 -0.617278 0
M  V30 2289 O 223.005 -2.52824 -0.989552 0
M  V30 2290 C 221.461 -3.27745 1.48699 0
M  V30 2291 C 221.069 -3.32961 2.99735 0
M  V30 2292 C 222.813 -4.03754 1.31085 0
M  V30 2293 C 220.72 -4.72612 3.55516 0
M  V30 2294 H 219.65 -0.683802 0.317696 0
M  V30 2295 H 222.301 -1.25331 1.34031 0
M  V30 2296 H 220.683 -3.84844 0.933339 0
M  V30 2297 H 221.857 -2.85741 3.61509 0
M  V30 2298 H 220.172 -2.70433 3.16631 0
M  V30 2299 H 222.769 -5.06891 1.70192 0
M  V30 2300 H 223.112 -4.15527 0.253496 0
M  V30 2301 H 223.645 -3.53043 1.83318 0
M  V30 2302 H 220.384 -4.66036 4.60967 0
M  V30 2303 H 219.904 -5.2024 2.98513 0
M  V30 2304 H 221.583 -5.4157 3.53992 0
M  V30 2305 N 221.715 -0.905404 -1.28997 0
M  V30 2306 C 222.961 -0.535039 -1.95615 0
M  V30 2307 C 223.294 0.917404 -1.71165 0
M  V30 2308 O 222.569 1.65123 -1.02785 0
M  V30 2309 C 222.852 -0.834918 -3.50287 0
M  V30 2310 C 222.705 -2.33948 -3.84172 0
M  V30 2311 C 224.024 -0.325318 -4.38896 0
M  V30 2312 H 221.143 -0.195861 -0.710498 0
M  V30 2313 H 223.785 -1.13313 -1.52513 0
M  V30 2314 H 221.935 -0.325904 -3.87131 0
M  V30 2315 H 223.607 -2.91847 -3.57243 0
M  V30 2316 H 221.85 -2.79789 -3.31513 0
M  V30 2317 H 222.521 -2.49987 -4.92149 0
M  V30 2318 H 224.997 -0.761256 -4.09077 0
M  V30 2319 H 223.873 -0.564295 -5.45992 0
M  V30 2320 H 224.134 0.774144 -4.35269 0
M  V30 2321 N 223.193 1.4272 -0.668489 0
M  V30 2322 C 224.47 1.95248 -0.117373 0
M  V30 2323 C 224.85 1.60919 1.36632 0
M  V30 2324 O 224.198 0.902095 2.09939 0
M  V30 2325 C 224.408 3.46927 -0.379806 0
M  V30 2326 C 225.756 4.23588 -0.292923 0
M  V30 2327 O 226.78 3.5482 -0.313204 0
M  V30 2328 O 225.639 5.46017 -0.229697 0
M  V30 2329 H 222.733 0.827 0.00079152 0
M  V30 2330 H 225.279 1.52581 -0.742783 0
M  V30 2331 H 224.051 3.65096 -1.40786 0
M  V30 2332 H 223.674 3.96627 0.277923 0
M  V30 2333 N 224.671 0.411399 1.52136 0
M  V30 2334 C 225.919 -0.163322 2.01439 0
M  V30 2335 C 226.24 -1.45453 1.29879 0
M  V30 2336 O 225.51 -1.91225 0.4254 0
M  V30 2337 H 224.09 -0.0633447 0.744309 0
M  V30 2338 H 226.752 0.548161 1.87033 0
M  V30 2339 H 225.848 -0.357817 3.10042 0
M  V30 2340 N 226.149 -1.5696 0.141893 0
M  V30 2341 C 227.398 -1.95135 -0.510427 0
M  V30 2342 C 227.711 -1.02896 -1.66348 0
M  V30 2343 O 228.917 -1.30629 -2.38009 0
M  V30 2344 C 227.373 -3.46876 -0.959427 0
M  V30 2345 C 226.981 -4.47691 0.166419 0
M  V30 2346 C 228.725 -3.93927 -1.58183 0
M  V30 2347 C 226.632 -5.90636 -0.300565 0
M  V30 2348 H 225.562 -0.728494 -0.194454 0
M  V30 2349 H 228.213 -1.8211 0.22542 0
M  V30 2350 H 226.595 -3.55215 -1.75038 0
M  V30 2351 H 227.769 -4.51043 0.94325 0
M  V30 2352 H 226.084 -4.10527 0.696905 0
M  V30 2353 H 228.681 -4.98158 -1.94275 0
M  V30 2354 H 229.024 -3.3519 -2.46888 0
M  V30 2355 H 229.557 -3.88484 -0.855863 0
M  V30 2356 H 226.296 -6.5318 0.550989 0
M  V30 2357 H 225.816 -5.90655 -1.04338 0
M  V30 2358 H 227.495 -6.42588 -0.754265 0
M  V30 2359 N 227.627 0.131896 -1.57047 0
M  V30 2360 C 228.873 0.843179 -1.84441 0
M  V30 2361 C 229.206 1.80129 -0.725749 0
M  V30 2362 O 228.481 1.92624 0.269469 0
M  V30 2363 C 228.764 1.60442 -3.22382 0
M  V30 2364 C 228.617 0.666782 -4.4483 0
M  V30 2365 C 229.936 2.56354 -3.5773 0
M  V30 2366 H 227.055 0.305081 -0.670891 0
M  V30 2367 H 229.697 0.107839 -1.89694 0
M  V30 2368 H 227.847 2.23128 -3.18035 0
M  V30 2369 H 229.519 0.0497646 -4.61273 0
M  V30 2370 H 227.762 -0.022609 -4.33794 0
M  V30 2371 H 228.433 1.23579 -5.37989 0
M  V30 2372 H 230.909 2.0378 -3.62785 0
M  V30 2373 H 229.785 3.06657 -4.5525 0
M  V30 2374 H 230.046 3.38419 -2.84473 0
M  V30 2375 N 229.106 1.52395 0.401703 0
M  V30 2376 C 230.522 1.41363 0.740864 0
M  V30 2377 C 230.722 0.523982 1.94568 0
M  V30 2378 O 229.778 -0.00741204 2.52499 0
M  V30 2379 C 231.091 2.84011 0.987847 0
M  V30 2380 C 232.639 2.93404 1.09011 0
M  V30 2381 C 233.114 4.37036 1.3698 0
M  V30 2382 N 234.605 4.40304 1.43829 0
M  V30 2383 C 235.34 5.48508 1.67112 0
M  V30 2384 N 234.836 6.66819 1.87949 0
M  V30 2385 N 236.629 5.36034 1.69187 0
M  V30 2386 H 228.78 2.08765 -0.391262 0
M  V30 2387 H 231.043 0.941265 -0.112798 0
M  V30 2388 H 230.749 3.51265 0.174835 0
M  V30 2389 H 230.623 3.25502 1.906 0
M  V30 2390 H 233.01 2.26325 1.8937 0
M  V30 2391 H 233.091 2.55359 0.15015 0
M  V30 2392 H 232.735 5.04676 0.571353 0
M  V30 2393 H 232.665 4.72623 2.3224 0
M  V30 2394 H 235.156 3.55024 1.29486 0
M  V30 2395 H 235.469 7.45063 2.05185 0
M  V30 2396 H 233.814 6.6987 1.85199 0
M  V30 2397 H 237.005 4.42579 1.52451 0
M  V30 2398 H 237.178 6.20434 1.86993 0
M  V30 2399 N 230.584 -0.659388 1.43143 0
M  V30 2400 C 231.809 -1.45221 1.48073 0
M  V30 2401 C 232.234 -1.87845 0.097995 0
M  V30 2402 O 231.592 -1.56985 -0.90694 0
M  V30 2403 C 231.64 -2.66748 2.42647 0
M  V30 2404 O 230.744 -3.65583 1.90848 0
M  V30 2405 H 230.085 -0.435669 0.501088 0
M  V30 2406 H 232.615 -0.807432 1.87994 0
M  V30 2407 H 232.625 -3.14637 2.59745 0
M  V30 2408 H 231.3 -2.35067 3.43098 0
M  V30 2409 H 229.877 -3.24693 1.83381 0
M  V30 2410 N 232.062 -1.29571 -0.897171 0
M  V30 2411 C 233.311 -1.1706 -1.64256 0
M  V30 2412 C 233.624 0.276476 -1.93636 0
M  V30 2413 O 234.83 0.52294 -2.66416 0
M  V30 2414 C 233.286 -2.0475 -2.95982 0
M  V30 2415 C 232.894 -3.54295 -2.74187 0
M  V30 2416 C 234.638 -2.0097 -3.73914 0
M  V30 2417 C 232.545 -4.34081 -4.01656 0
M  V30 2418 H 231.475 -0.43452 -0.616205 0
M  V30 2419 H 234.126 -1.54229 -0.994268 0
M  V30 2420 H 232.508 -1.60452 -3.62038 0
M  V30 2421 H 233.682 -4.06662 -2.1671 0
M  V30 2422 H 231.997 -3.59773 -2.09648 0
M  V30 2423 H 234.594 -2.57838 -4.68427 0
M  V30 2424 H 234.937 -0.990273 -4.0435 0
M  V30 2425 H 235.47 -2.43325 -3.14703 0
M  V30 2426 H 232.209 -5.36671 -3.76384 0
M  V30 2427 H 231.729 -3.86483 -4.58684 0
M  V30 2428 H 233.408 -4.44877 -4.69781 0
M  V30 2429 N 233.54 1.10788 -1.12088 0
M  V30 2430 C 234.45 2.20599 -0.798338 0
M  V30 2431 C 235.466 1.72712 0.21135 0
M  V30 2432 O 236.642 2.01348 0.0458477 0
M  V30 2433 C 233.707 3.45771 -0.253674 0
M  V30 2434 C 232.768 4.08411 -1.32283 0
M  V30 2435 C 232.001 5.27608 -0.80406 0
M  V30 2436 O 232.224 5.69241 0.363478 0
M  V30 2437 O 231.158 5.8101 -1.57198 0
M  V30 2438 H 234.984 2.50614 -1.7154 0
M  V30 2439 H 232.569 1.19454 -0.897275 0
M  V30 2440 H 234.451 4.21376 0.0453691 0
M  V30 2441 H 233.126 3.1739 0.636005 0
M  V30 2442 H 232.033 3.34507 -1.67499 0
M  V30 2443 H 233.366 4.40986 -2.18614 0
M  V30 2444 N 235.018 0.912232 1.28515 0
M  V30 2445 C 236.434 0.610159 1.47476 0
M  V30 2446 C 236.634 -0.844955 1.82928 0
M  V30 2447 O 235.69 -1.62416 1.93332 0
M  V30 2448 C 237.003 1.54675 2.57868 0
M  V30 2449 C 238.551 1.55331 2.71738 0
M  V30 2450 C 239.026 2.47649 3.85272 0
M  V30 2451 N 240.517 2.45767 3.92623 0
M  V30 2452 C 241.252 3.13896 4.79851 0
M  V30 2453 N 240.748 3.9135 5.71679 0
M  V30 2454 N 242.541 3.02991 4.73448 0
M  V30 2455 H 234.692 1.85318 1.03783 0
M  V30 2456 H 236.955 0.794777 0.516753 0
M  V30 2457 H 236.661 2.5841 2.38574 0
M  V30 2458 H 236.535 1.27671 3.54937 0
M  V30 2459 H 238.922 0.52335 2.90422 0
M  V30 2460 H 239.003 1.86378 1.75205 0
M  V30 2461 H 238.647 3.50745 3.67342 0
M  V30 2462 H 238.577 2.13904 4.81199 0
M  V30 2463 H 241.068 1.89503 3.26951 0
M  V30 2464 H 241.381 4.40359 6.35062 0
M  V30 2465 H 239.726 3.95455 5.71524 0
M  V30 2466 H 242.917 2.41987 4.007 0
M  V30 2467 H 243.09 3.5636 5.41213 0
M  V30 2468 N 236.496 -1.42363 0.676048 0
M  V30 2469 C 237.459 -2.29199 0.00766941 0
M  V30 2470 C 238.459 -1.43389 -0.727745 0
M  V30 2471 O 239.649 -1.64764 -0.56556 0
M  V30 2472 C 236.781 -3.2591 -0.999785 0
M  V30 2473 H 237.974 -2.89794 0.771988 0
M  V30 2474 H 235.527 -1.50024 0.438468 0
M  V30 2475 H 236.262 -2.70256 -1.79255 0
M  V30 2476 H 236.047 -3.89202 -0.475829 0
M  V30 2477 H 237.537 -3.91028 -1.46583 0
M  V30 2478 N 237.974 -0.419461 -1.51915 0
M  V30 2479 C 238.906 0.43646 -2.25006 0
M  V30 2480 C 239.919 1.00149 -1.28351 0
M  V30 2481 O 241.108 0.898674 -1.54227 0
M  V30 2482 C 238.208 1.6206 -2.9764 0
M  V30 2483 C 237.381 1.17763 -4.21249 0
M  V30 2484 C 236.44 2.22985 -4.76617 0
M  V30 2485 O 235.466 1.83151 -5.38929 0
M  V30 2486 N 236.668 3.55271 -4.59089 0
M  V30 2487 H 239.433 -0.18989 -2.99098 0
M  V30 2488 H 236.994 -0.247386 -1.59999 0
M  V30 2489 H 238.986 2.32038 -3.31573 0
M  V30 2490 H 237.556 2.15266 -2.2667 0
M  V30 2491 H 236.776 0.305582 -3.93014 0
M  V30 2492 H 238.064 0.858781 -5.015 0
M  V30 2493 H 237.462 3.90377 -4.09417 0
M  V30 2494 H 236.019 4.21195 -4.97432 0
M  V30 2495 N 239.452 1.56882 -0.150215 0
M  V30 2496 C 240.415 2.1573 0.774157 0
M  V30 2497 C 241.415 1.0999 1.17298 0
M  V30 2498 O 242.605 1.35613 1.09338 0
M  V30 2499 C 239.737 2.72302 2.05096 0
M  V30 2500 H 240.93 2.98752 0.262201 0
M  V30 2501 H 238.483 1.55985 0.099248 0
M  V30 2502 H 239.218 1.92956 2.6065 0
M  V30 2503 H 239.003 3.49665 1.77416 0
M  V30 2504 H 240.493 3.17632 2.71109 0
M  V30 2505 N 240.93 -0.123565 1.57115 0
M  V30 2506 C 242.346 -0.476961 1.52306 0
M  V30 2507 C 242.546 -1.82109 0.86248 0
M  V30 2508 O 241.602 -2.48586 0.442884 0
M  V30 2509 C 242.915 -0.465661 2.97073 0
M  V30 2510 C 244.463 -0.549534 3.08138 0
M  V30 2511 C 244.938 -0.568669 4.54456 0
M  V30 2512 N 246.429 -0.630237 4.58892 0
M  V30 2513 C 247.164 -0.666415 5.69514 0
M  V30 2514 N 246.66 -0.660514 6.89644 0
M  V30 2515 N 248.453 -0.709077 5.5761 0
M  V30 2516 H 240.604 0.757198 1.98445 0
M  V30 2517 H 242.867 0.278808 0.906074 0
M  V30 2518 H 242.573 0.454232 3.48754 0
M  V30 2519 H 242.447 -1.29513 3.54269 0
M  V30 2520 H 244.834 -1.45985 2.56461 0
M  V30 2521 H 244.915 0.307532 2.53945 0
M  V30 2522 H 244.559 0.337581 5.06777 0
M  V30 2523 H 244.489 -1.44256 5.06456 0
M  V30 2524 H 246.98 -0.641146 3.72421 0
M  V30 2525 H 247.293 -0.690616 7.69708 0
M  V30 2526 H 245.638 -0.628012 6.92157 0
M  V30 2527 H 248.829 -0.711019 4.62668 0
M  V30 2528 H 249.002 -0.733804 6.43832 0
M  V30 2529 N 242.408 -1.52605 -0.393616 0
M  V30 2530 C 243.338 -1.80022 -1.48709 0
M  V30 2531 C 244.319 -0.651995 -1.57108 0
M  V30 2532 O 245.504 -0.89913 -1.72132 0
M  V30 2533 C 242.634 -1.96492 -2.86371 0
M  V30 2534 C 241.588 -3.12161 -2.92813 0
M  V30 2535 C 240.914 -3.13877 -4.3288 0
M  V30 2536 C 242.214 -4.51322 -2.6288 0
M  V30 2537 H 243.908 -2.71589 -1.26015 0
M  V30 2538 H 241.454 -1.30684 -0.604778 0
M  V30 2539 H 243.407 -2.14255 -3.62867 0
M  V30 2540 H 242.131 -1.01611 -3.10391 0
M  V30 2541 H 240.79 -2.94173 -2.18764 0
M  V30 2542 H 240.438 -2.16687 -4.53933 0
M  V30 2543 H 240.138 -3.91576 -4.38112 0
M  V30 2544 H 241.662 -3.33789 -5.1129 0
M  V30 2545 H 243.076 -4.69435 -3.29096 0
M  V30 2546 H 241.473 -5.31053 -2.79468 0
M  V30 2547 H 242.543 -4.58353 -1.58242 0
M  V30 2548 N 243.887 0.651787 -1.4349 0
M  V30 2549 C 244.819 1.77725 -1.44729 0
M  V30 2550 C 245.832 1.59141 -0.343231 0
M  V30 2551 O 247.021 1.67835 -0.607751 0
M  V30 2552 C 244.121 3.15172 -1.24579 0
M  V30 2553 C 243.294 3.60402 -2.47849 0
M  V30 2554 C 242.353 4.76656 -2.22902 0
M  V30 2555 O 241.379 4.86022 -2.96263 0
M  V30 2556 N 242.581 5.66958 -1.24656 0
M  V30 2557 H 245.346 1.77141 -2.41746 0
M  V30 2558 H 242.907 0.835678 -1.38665 0
M  V30 2559 H 244.899 3.90634 -1.0577 0
M  V30 2560 H 243.469 3.1052 -0.360015 0
M  V30 2561 H 242.689 2.75369 -2.82073 0
M  V30 2562 H 243.977 3.87368 -3.29884 0
M  V30 2563 H 243.375 5.62065 -0.640265 0
M  V30 2564 H 241.932 6.42135 -1.1183 0
M  V30 2565 N 245.365 1.30045 0.890287 0
M  V30 2566 C 246.776 1.16738 1.45702 0
M  V30 2567 C 247.127 -0.233939 1.948 0
M  V30 2568 O 246.252 -1.13021 1.84541 0
M  V30 2569 C 246.847 2.11313 2.64825 0
M  V30 2570 C 245.406 2.02001 3.17604 0
M  V30 2571 C 244.553 2.01699 1.90296 0
M  V30 2572 H 247.504 1.42392 0.700726 0
M  V30 2573 H 247.525 1.69086 3.40867 0
M  V30 2574 H 247.037 3.13294 2.2906 0
M  V30 2575 H 245.138 1.03142 3.5804 0
M  V30 2576 H 245.251 2.90128 3.81264 0
M  V30 2577 H 243.615 1.46427 2.08402 0
M  V30 2578 H 244.398 3.05402 1.56795 0
M  V30 2579 N 246.843 -1.10192 1.12674 0
M  V30 2580 C 248.091 -1.81845 0.881861 0
M  V30 2581 C 248.412 -1.85737 -0.593867 0
M  V30 2582 O 247.682 -1.33724 -1.4316 0
M  V30 2583 H 246.262 -0.673432 0.323261 0
M  V30 2584 H 248.924 -1.33316 1.42172 0
M  V30 2585 H 248.02 -2.85288 1.2656 0
M  V30 2586 N 248.321 -0.919034 -1.28029 0
M  V30 2587 C 249.737 -0.617972 -1.4715 0
M  V30 2588 C 249.937 0.835242 -1.83374 0
M  V30 2589 O 248.993 1.61388 -1.94191 0
M  V30 2590 C 250.306 -1.56041 -2.57044 0
M  V30 2591 C 251.854 -1.56769 -2.7091 0
M  V30 2592 C 252.329 -2.49688 -3.83953 0
M  V30 2593 N 253.82 -2.47845 -3.91314 0
M  V30 2594 C 254.555 -3.16437 -4.78179 0
M  V30 2595 N 254.051 -3.94376 -5.69596 0
M  V30 2596 N 255.844 -3.05498 -4.71834 0
M  V30 2597 H 247.995 -1.85866 -1.02798 0
M  V30 2598 H 250.258 -0.797506 -0.512531 0
M  V30 2599 H 249.964 -2.59671 -2.372 0
M  V30 2600 H 249.838 -1.29551 -3.54255 0
M  V30 2601 H 252.225 -0.538745 -2.90141 0
M  V30 2602 H 252.306 -1.87305 -1.74214 0
M  V30 2603 H 251.95 -3.52688 -3.65477 0
M  V30 2604 H 251.88 -2.16453 -4.80058 0
M  V30 2605 H 254.371 -1.91234 -3.25941 0
M  V30 2606 H 254.684 -4.43721 -6.32718 0
M  V30 2607 H 253.029 -3.98481 -5.69419 0
M  V30 2608 H 256.22 -2.44108 -3.99411 0
M  V30 2609 H 256.393 -3.59225 -5.39316 0
M  V30 2610 N 249.799 1.42003 -0.683588 0
M  V30 2611 C 250.729 2.33487 -0.024866 0
M  V30 2612 C 251.71 1.51163 0.779975 0
M  V30 2613 O 252.895 1.79739 0.735362 0
M  V30 2614 C 250.025 3.3487 0.920836 0
M  V30 2615 C 248.979 4.27414 0.223958 0
M  V30 2616 C 248.305 5.19074 1.2832 0
M  V30 2617 C 249.605 5.14445 -0.90242 0
M  V30 2618 H 251.299 2.88819 -0.788921 0
M  V30 2619 H 248.845 1.38873 -0.38083 0
M  V30 2620 H 250.798 3.97787 1.39081 0
M  V30 2621 H 249.522 2.77861 1.71642 0
M  V30 2622 H 248.181 3.65904 -0.225864 0
M  V30 2623 H 247.829 4.58387 2.071 0
M  V30 2624 H 247.529 5.81822 0.821995 0
M  V30 2625 H 249.053 5.84867 1.75392 0
M  V30 2626 H 250.467 5.70998 -0.513272 0
M  V30 2627 H 248.864 5.86072 -1.28997 0
M  V30 2628 H 249.934 4.52322 -1.74737 0
M  V30 2629 N 251.277 0.427512 1.51691 0
M  V30 2630 C 252.524 -0.142229 2.02 0
M  V30 2631 C 252.852 -1.43566 1.31221 0
M  V30 2632 O 252.107 -1.91298 0.412744 0
M  V30 2633 C 252.406 -0.418249 3.54944 0
M  V30 2634 C 252.072 0.788187 4.43958 0
M  V30 2635 C 250.734 1.11906 4.68007 0
M  V30 2636 C 253.086 1.59347 4.96244 0
M  V30 2637 C 250.414 2.25608 5.41588 0
M  V30 2638 C 252.766 2.7214 5.71072 0
M  V30 2639 C 251.43 3.05692 5.93387 0
M  V30 2640 H 250.7 -0.0520451 0.73917 0
M  V30 2641 H 253.347 0.572697 1.82736 0
M  V30 2642 H 251.652 -1.21496 3.72486 0
M  V30 2643 H 253.349 -0.872339 3.91397 0
M  V30 2644 H 249.939 0.520344 4.2543 0
M  V30 2645 H 254.123 1.35106 4.77556 0
M  V30 2646 H 249.379 2.51929 5.57083 0
M  V30 2647 H 253.553 3.34914 6.10578 0
M  V30 2648 H 251.18 3.9391 6.50184 0
M  V30 2649 N 252.755 -1.56801 0.158532 0
M  V30 2650 C 253.985 -2.00568 -0.495583 0
M  V30 2651 C 254.393 -1.03774 -1.58201 0
M  V30 2652 O 253.736 -0.0285797 -1.83678 0
M  V30 2653 C 253.798 -3.40768 -1.14532 0
M  V30 2654 C 253.462 -4.56553 -0.202101 0
M  V30 2655 C 254.459 -5.16714 0.574675 0
M  V30 2656 C 252.144 -5.02197 -0.101648 0
M  V30 2657 C 254.138 -6.20939 1.43924 0
M  V30 2658 C 251.825 -6.06274 0.766508 0
M  V30 2659 C 252.823 -6.65515 1.53555 0
M  V30 2660 O 252.511 -7.67575 2.38922 0
M  V30 2661 H 252.243 -0.662893 -0.13247 0
M  V30 2662 H 254.797 -2.03829 0.253559 0
M  V30 2663 H 253.027 -3.34381 -1.94233 0
M  V30 2664 H 254.716 -3.6857 -1.70033 0
M  V30 2665 H 255.482 -4.82341 0.507167 0
M  V30 2666 H 251.361 -4.55807 -0.689994 0
M  V30 2667 H 254.905 -6.67107 2.03996 0
M  V30 2668 H 250.802 -6.40073 0.835266 0
M  V30 2669 H 251.57 -7.84844 2.32296 0
M  V30 2670 N 254.233 0.115231 -1.57178 0
M  V30 2671 C 255.481 0.820727 -1.84685 0
M  V30 2672 C 255.802 1.80237 -0.744279 0
M  V30 2673 O 255.072 1.94529 0.231375 0
M  V30 2674 H 253.652 0.306084 -0.681411 0
M  V30 2675 H 256.314 0.101656 -1.94635 0
M  V30 2676 H 255.41 1.36366 -2.80733 0
M  V30 2677 N 255.711 1.52812 0.385517 0
M  V30 2678 C 256.936 1.72207 1.15583 0
M  V30 2679 C 257.361 0.441034 1.82857 0
M  V30 2680 O 256.719 -0.603465 1.70962 0
M  V30 2681 C 256.767 2.87476 2.17692 0
M  V30 2682 O 255.871 2.54693 3.24354 0
M  V30 2683 H 255.212 0.572526 0.336319 0
M  V30 2684 H 257.742 1.99618 0.448744 0
M  V30 2685 H 257.752 3.13072 2.6163 0
M  V30 2686 H 256.427 3.80408 1.68115 0
M  V30 2687 H 255.004 2.3985 2.85529 0
M  V30 2688 N 257.189 -0.644168 1.43834 0
M  V30 2689 C 258.437 -1.40117 1.45642 0
M  V30 2690 C 258.758 -1.94814 0.0852413 0
M  V30 2691 O 258.028 -1.74988 -0.880688 0
M  V30 2692 H 256.608 -0.52005 0.536243 0
M  V30 2693 H 259.27 -0.7591 1.7951 0
M  V30 2694 H 258.366 -2.23902 2.17427 0
M  V30 2695 N 258.668 -1.30515 -0.883378 0
M  V30 2696 C 259.578 -1.18959 -2.02203 0
M  V30 2697 C 260.594 -0.109172 -1.73657 0
M  V30 2698 O 261.77 -0.324413 -1.9877 0
M  V30 2699 C 258.835 -0.883871 -3.35244 0
M  V30 2700 C 257.896 -2.04982 -3.77201 0
M  V30 2701 C 257.129 -1.75859 -5.03894 0
M  V30 2702 O 257.352 -0.687276 -5.66244 0
M  V30 2703 O 256.286 -2.61146 -5.42297 0
M  V30 2704 H 260.112 -2.14616 -2.1488 0
M  V30 2705 H 257.697 -1.10124 -1.0096 0
M  V30 2706 H 259.579 -0.728644 -4.15053 0
M  V30 2707 H 258.254 0.0427798 -3.23672 0
M  V30 2708 H 257.161 -2.26038 -2.9809 0
M  V30 2709 H 258.494 -2.95825 -3.93381 0
M  V30 2710 N 260.146 1.09593 -1.13257 0
M  V30 2711 C 261.076 2.18214 -0.830946 0
M  V30 2712 C 262.057 1.68812 0.208966 0
M  V30 2713 O 263.242 1.9408 0.0682666 0
M  V30 2714 C 260.372 3.46051 -0.294296 0
M  V30 2715 C 259.326 4.08778 -1.26826 0
M  V30 2716 C 258.652 5.31419 -0.591449 0
M  V30 2717 C 259.952 4.51476 -2.62615 0
M  V30 2718 H 261.646 2.43703 -1.73923 0
M  V30 2719 H 259.192 1.17128 -0.837675 0
M  V30 2720 H 261.145 4.2134 -0.0709606 0
M  V30 2721 H 259.869 3.20079 0.649366 0
M  V30 2722 H 258.528 3.35505 -1.47756 0
M  V30 2723 H 258.176 5.01727 0.357633 0
M  V30 2724 H 257.876 5.74341 -1.24123 0
M  V30 2725 H 259.4 6.09433 -0.377355 0
M  V30 2726 H 260.814 5.17999 -2.45663 0
M  V30 2727 H 259.211 5.05277 -3.23752 0
M  V30 2728 H 260.281 3.63962 -3.20406 0
M  V30 2729 N 261.624 0.925811 1.2754 0
M  V30 2730 C 263.04 0.625767 1.46821 0
M  V30 2731 C 263.24 -0.825506 1.83814 0
M  V30 2732 O 262.296 -1.60356 1.95044 0
M  V30 2733 C 263.609 1.57402 2.56213 0
M  V30 2734 C 265.157 1.58204 2.70075 0
M  V30 2735 C 265.632 2.51721 3.82623 0
M  V30 2736 N 267.123 2.49917 3.89994 0
M  V30 2737 C 267.858 3.18968 4.76494 0
M  V30 2738 N 267.354 3.97391 5.67496 0
M  V30 2739 N 269.147 3.07996 4.70208 0
M  V30 2740 H 261.298 1.86409 1.01811 0
M  V30 2741 H 263.561 0.800213 0.508295 0
M  V30 2742 H 263.267 2.60925 2.35819 0
M  V30 2743 H 263.141 1.31428 3.53563 0
M  V30 2744 H 265.528 0.554124 2.89851 0
M  V30 2745 H 265.609 1.88226 1.73218 0
M  V30 2746 H 265.253 3.54622 3.63601 0
M  V30 2747 H 265.183 2.18996 4.78903 0
M  V30 2748 H 267.674 1.9296 3.24923 0
M  V30 2749 H 267.987 4.4707 6.30356 0
M  V30 2750 H 266.332 4.01495 5.67298 0
M  V30 2751 H 269.523 2.46223 3.9811 0
M  V30 2752 H 269.696 3.6208 5.37403 0
M  V30 2753 N 263.102 -1.41638 0.69111 0
M  V30 2754 C 264.05 -2.32597 0.0115199 0
M  V30 2755 C 265.044 -1.5072 -0.773296 0
M  V30 2756 O 266.25 -1.66685 -0.67942 0
M  V30 2757 H 262.625 -0.751849 -0.0150746 0
M  V30 2758 H 264.596 -2.87593 0.795791 0
M  V30 2759 C 263.345 -3.35467 -0.914172 0
M  V30 2760 H 262.668 -3.9852 -0.319687 0
M  V30 2761 H 264.108 -4.01662 -1.35808 0
M  V30 2762 C 262.567 -2.69004 -2.02826 0
M  V30 2763 O 263.097 -2.53444 -3.11655 0
M  V30 2764 N 261.303 -2.2777 -1.80469 0
M  V30 2765 H 260.85 -2.40626 -0.919615 0
M  V30 2766 H 260.808 -1.83635 -2.55197 0
M  V30 2767 N 264.58 -0.43555 -1.51462 0
M  V30 2768 C 265.543 0.365137 -2.26273 0
M  V30 2769 C 266.543 0.951227 -1.29647 0
M  V30 2770 O 267.733 0.825958 -1.53374 0
M  V30 2771 C 264.865 1.51645 -3.05314 0
M  V30 2772 H 266.058 -0.290474 -2.9849 0
M  V30 2773 H 263.611 -0.188676 -1.55157 0
M  V30 2774 H 264.346 2.20816 -2.3751 0
M  V30 2775 H 264.131 1.10238 -3.76284 0
M  V30 2776 H 265.621 2.08218 -3.61987 0
M  V30 2777 N 266.058 1.56714 -0.166846 0
M  V30 2778 C 267.006 2.19056 0.782123 0
M  V30 2779 C 268 1.15328 1.24079 0
M  V30 2780 O 269.206 1.33537 1.20697 0
M  V30 2781 H 265.581 0.70167 0.270486 0
M  V30 2782 H 267.552 2.97494 0.232322 0
M  V30 2783 C 266.301 2.84206 2.00306 0
M  V30 2784 H 265.624 3.63748 1.65914 0
M  V30 2785 H 267.064 3.31302 2.64604 0
M  V30 2786 C 265.523 1.83744 2.82382 0
M  V30 2787 O 266.053 1.32014 3.79388 0
M  V30 2788 N 264.259 1.52601 2.47308 0
M  V30 2789 H 263.806 1.9486 1.68485 0
M  V30 2790 H 263.764 0.856351 3.02513 0
M  V30 2791 N 267.536 -0.106894 1.57237 0
M  V30 2792 C 268.952 -0.46078 1.52804 0
M  V30 2793 C 269.152 -1.81184 0.881746 0
M  V30 2794 O 268.208 -2.48102 0.469224 0
M  V30 2795 C 269.521 -0.434127 2.9755 0
M  V30 2796 C 271.069 -0.516821 3.08704 0
M  V30 2797 C 271.544 -0.520436 4.55033 0
M  V30 2798 N 273.035 -0.58153 4.59535 0
M  V30 2799 C 273.77 -0.605973 5.70189 0
M  V30 2800 N 273.266 -0.587331 6.90306 0
M  V30 2801 N 275.059 -0.649895 5.5833 0
M  V30 2802 H 267.21 0.778203 1.9763 0
M  V30 2803 H 269.473 0.288403 0.903066 0
M  V30 2804 H 269.179 0.491197 3.48253 0
M  V30 2805 H 269.053 -1.25748 3.55622 0
M  V30 2806 H 271.44 -1.43256 2.57995 0
M  V30 2807 H 271.521 0.334449 2.53604 0
M  V30 2808 H 271.165 0.391313 5.0639 0
M  V30 2809 H 271.095 -1.38876 5.07958 0
M  V30 2810 H 273.586 -0.60161 3.73081 0
M  V30 2811 H 273.899 -0.60894 7.70397 0
M  V30 2812 H 272.244 -0.554564 6.92784 0
M  V30 2813 H 275.435 -0.661907 4.63397 0
M  V30 2814 H 275.608 -0.665476 6.44574 0
M  V30 2815 N 269.014 -1.53014 -0.377408 0
M  V30 2816 C 269.962 -1.7927 -1.48206 0
M  V30 2817 C 270.956 -0.661195 -1.55963 0
M  V30 2818 O 272.162 -0.843908 -1.58991 0
M  V30 2819 H 268.537 -0.567425 -0.493491 0
M  V30 2820 H 270.508 -2.71753 -1.2326 0
M  V30 2821 C 269.257 -1.98894 -2.85196 0
M  V30 2822 H 268.58 -2.85395 -2.79981 0
M  V30 2823 H 270.02 -2.21249 -3.61698 0
M  V30 2824 C 268.479 -0.764691 -3.28107 0
M  V30 2825 O 269.009 0.0523226 -4.01666 0
M  V30 2826 N 267.215 -0.591493 -2.84517 0
M  V30 2827 H 266.762 -1.25749 -2.24822 0
M  V30 2828 H 266.72 0.226253 -3.13585 0
M  V30 2829 N 270.492 0.636531 -1.44174 0
M  V30 2830 C 271.908 0.954104 -1.27941 0
M  V30 2831 C 272.108 2.0039 -0.211248 0
M  V30 2832 O 271.164 2.49236 0.404695 0
M  V30 2833 C 272.477 1.4225 -2.64925 0
M  V30 2834 C 274.025 1.53827 -2.72592 0
M  V30 2835 C 274.5 2.04053 -4.10032 0
M  V30 2836 N 275.991 2.11331 -4.12182 0
M  V30 2837 C 276.726 2.51352 -5.15374 0
M  V30 2838 N 276.222 2.90549 -6.2893 0
M  V30 2839 N 278.015 2.51438 -5.02728 0
M  V30 2840 H 270.166 -0.0578386 -2.12321 0
M  V30 2841 H 272.429 0.0367406 -0.947288 0
M  V30 2842 H 272.135 0.725466 -3.44136 0
M  V30 2843 H 272.009 2.39451 -2.9145 0
M  V30 2844 H 274.396 2.22628 -1.93702 0
M  V30 2845 H 274.477 0.550154 -2.49814 0
M  V30 2846 H 274.121 1.35848 -4.89395 0
M  V30 2847 H 274.051 3.03726 -4.30184 0
M  V30 2848 H 276.542 1.83745 -3.30222 0
M  V30 2849 H 276.855 3.19884 -7.03487 0
M  V30 2850 H 275.2 2.88313 -6.32377 0
M  V30 2851 H 278.391 2.20203 -4.13072 0
M  V30 2852 H 278.564 2.82304 -5.83274 0
M  V30 2853 N 271.97 1.30982 0.876444 0
M  V30 2854 C 273.195 1.23373 1.66715 0
M  V30 2855 C 273.62 -0.19885 1.87046 0
M  V30 2856 O 272.978 -1.1427 1.40756 0
M  V30 2857 C 273.026 1.97644 3.01611 0
M  V30 2858 O 272.13 1.30935 3.91062 0
M  V30 2859 H 271.471 0.426279 0.509099 0
M  V30 2860 H 274.001 1.72944 1.09323 0
M  V30 2861 H 274.011 2.06992 3.51594 0
M  V30 2862 H 272.686 3.01829 2.86133 0
M  V30 2863 H 271.263 1.29996 3.49507 0
M  V30 2864 N 273.449 -1.08991 1.13837 0
M  V30 2865 C 274.379 -2.17771 0.842507 0
M  V30 2866 C 275.36 -1.6892 -0.20001 0
M  V30 2867 O 276.545 -1.94113 -0.0579731 0
M  V30 2868 C 273.675 -3.4589 0.312644 0
M  V30 2869 C 272.629 -4.08099 1.28992 0
M  V30 2870 C 271.955 -5.31098 0.619623 0
M  V30 2871 C 273.255 -4.50077 2.65005 0
M  V30 2872 H 274.949 -2.42777 1.75213 0
M  V30 2873 H 272.495 -1.16682 0.843875 0
M  V30 2874 H 274.448 -4.21297 0.0933043 0
M  V30 2875 H 273.172 -3.20419 -0.632382 0
M  V30 2876 H 271.831 -3.34717 1.49533 0
M  V30 2877 H 271.479 -5.0191 -0.33102 0
M  V30 2878 H 271.179 -5.73674 1.27167 0
M  V30 2879 H 272.703 -6.09224 0.409669 0
M  V30 2880 H 274.117 -5.16688 2.48407 0
M  V30 2881 H 272.514 -5.03553 3.26427 0
M  V30 2882 H 273.584 -3.62257 3.22332 0
M  V30 2883 N 274.927 -0.932562 -1.27047 0
M  V30 2884 C 275.857 -0.452902 -2.29066 0
M  V30 2885 C 276.838 0.489338 -1.62909 0
M  V30 2886 O 278.023 0.393046 -1.90181 0
M  V30 2887 C 275.153 0.290698 -3.46081 0
M  V30 2888 C 274.107 -0.564168 -4.24265 0
M  V30 2889 C 273.433 0.308886 -5.33807 0
M  V30 2890 C 274.733 -1.83112 -4.89149 0
M  V30 2891 H 276.427 -1.30552 -2.69437 0
M  V30 2892 H 273.973 -0.629201 -1.29526 0
M  V30 2893 H 275.926 0.637233 -4.16554 0
M  V30 2894 H 274.65 1.17738 -3.0464 0
M  V30 2895 H 273.309 -0.893477 -3.55545 0
M  V30 2896 H 272.957 1.19467 -4.88607 0
M  V30 2897 H 272.657 -0.259633 -5.87026 0
M  V30 2898 H 274.181 0.650884 -6.07121 0
M  V30 2899 H 275.595 -1.55236 -5.51883 0
M  V30 2900 H 273.992 -2.34353 -5.52448 0
M  V30 2901 H 275.062 -2.54772 -4.12576 0
M  V30 2902 N 276.405 1.4127 -0.698611 0
M  V30 2903 C 277.63 2.06024 -0.238512 0
M  V30 2904 C 278.055 1.5224 1.10475 0
M  V30 2905 O 277.413 0.650623 1.69223 0
M  V30 2906 C 277.461 3.59988 -0.209952 0
M  V30 2907 O 276.565 4.04282 0.814235 0
M  V30 2908 H 275.906 0.653829 -0.115775 0
M  V30 2909 H 278.436 1.8098 -0.954326 0
M  V30 2910 H 278.446 4.07979 -0.0418436 0
M  V30 2911 H 277.121 3.98503 -1.1903 0
M  V30 2912 H 275.698 3.6779 0.615234 0
M  V30 2913 N 277.883 0.443576 1.51229 0
M  V30 2914 C 278.833 -0.382787 2.24764 0
M  V30 2915 C 279.817 -0.984836 1.27239 0
M  V30 2916 O 281.009 -0.901943 1.52296 0
M  V30 2917 C 278.138 -1.47989 3.09765 0
M  V30 2918 C 277.224 -0.886931 4.14722 0
M  V30 2919 N 277.615 -0.0237103 5.05794 0
M  V30 2920 C 275.913 -1.15385 4.30816 0
M  V30 2921 C 276.614 0.309971 5.80874 0
M  V30 2922 N 275.59 -0.307989 5.42727 0
M  V30 2923 H 279.392 0.282624 2.92538 0
M  V30 2924 H 276.906 0.256027 1.60369 0
M  V30 2925 H 278.903 -2.08482 3.61027 0
M  V30 2926 H 277.563 -2.14758 2.43535 0
M  V30 2927 H 278.574 0.34318 5.16762 0
M  V30 2928 H 275.251 -1.81857 3.75812 0
M  V30 2929 H 276.641 1.01279 6.64223 0
M  V30 2930 N 279.361 -1.56624 0.175154 0
M  V30 2931 C 280.291 -2.21155 -0.749195 0
M  V30 2932 C 281.272 -1.16836 -1.23626 0
M  V30 2933 O 282.457 -1.45277 -1.28873 0
M  V30 2934 C 279.587 -2.8553 -1.97711 0
M  V30 2935 C 278.541 -3.95921 -1.62575 0
M  V30 2936 C 277.867 -4.47365 -2.92864 0
M  V30 2937 C 279.167 -5.15323 -0.850838 0
M  V30 2938 H 280.861 -2.98653 -0.211295 0
M  V30 2939 H 278.407 -1.43651 -0.100188 0
M  V30 2940 H 280.36 -3.2935 -2.62881 0
M  V30 2941 H 279.084 -2.05406 -2.53921 0
M  V30 2942 H 277.743 -3.52762 -0.997719 0
M  V30 2943 H 277.391 -3.64027 -3.47122 0
M  V30 2944 H 277.091 -5.21839 -2.70106 0
M  V30 2945 H 278.615 -4.93873 -3.59056 0
M  V30 2946 H 280.029 -5.55812 -1.40521 0
M  V30 2947 H 278.426 -5.95739 -0.722154 0
M  V30 2948 H 279.496 -4.84661 0.152082 0
M  V30 2949 N 280.839 0.0985539 -1.57292 0
M  V30 2950 C 281.786 1.11981 -2.01814 0
M  V30 2951 C 282.756 1.39999 -0.89384 0
M  V30 2952 O 283.941 1.5152 -1.15958 0
M  V30 2953 C 281.081 2.43577 -2.44467 0
M  V30 2954 C 280.194 2.2232 -3.70402 0
M  V30 2955 C 279.329 3.4729 -4.01949 0
M  V30 2956 C 278.368 3.2128 -5.21005 0
M  V30 2957 N 277.505 4.38507 -5.48321 0
M  V30 2958 H 282.345 0.733149 -2.88841 0
M  V30 2959 H 279.882 0.350482 -1.42864 0
M  V30 2960 H 281.84 3.20373 -2.6724 0
M  V30 2961 H 280.47 2.80097 -1.60455 0
M  V30 2962 H 279.522 1.36343 -3.55126 0
M  V30 2963 H 280.834 1.99089 -4.57345 0
M  V30 2964 H 279.988 4.32495 -4.25479 0
M  V30 2965 H 278.727 3.73572 -3.13521 0
M  V30 2966 H 277.732 2.34468 -4.97298 0
M  V30 2967 H 278.957 2.96348 -6.11028 0
M  V30 2968 H 276.903 4.64871 -4.62851 0
M  V30 2969 H 276.82 4.18455 -6.29628 0
M  V30 2970 H 278.088 5.24787 -5.76385 0
M  V30 2971 N 282.317 1.53212 0.369288 0
M  V30 2972 C 283.265 1.80054 1.47253 0
M  V30 2973 C 284.259 0.669456 1.55611 0
M  V30 2974 O 285.465 0.852328 1.58541 0
M  V30 2975 H 281.84 0.570034 0.490475 0
M  V30 2976 H 283.811 2.72403 1.21817 0
M  V30 2977 C 282.56 2.00403 2.84137 0
M  V30 2978 H 281.883 2.86876 2.78464 0
M  V30 2979 H 283.323 2.23164 3.60519 0
M  V30 2980 C 281.782 0.782081 3.27697 0
M  V30 2981 O 282.312 -0.0310205 4.01688 0
M  V30 2982 N 280.518 0.606573 2.84199 0
M  V30 2983 H 280.065 1.26939 2.24152 0
M  V30 2984 H 280.023 -0.20962 3.137 0
M  V30 2985 N 283.795 -0.628877 1.44509 0
M  V30 2986 C 285.206 -1.21054 1.42137 0
M  V30 2987 C 285.557 -1.95715 0.137881 0
M  V30 2988 O 284.682 -2.02554 -0.761645 0
M  V30 2989 C 285.277 -2.20189 2.57493 0
M  V30 2990 C 283.836 -2.73777 2.58308 0
M  V30 2991 C 282.983 -1.48813 2.33987 0
M  V30 2992 H 285.934 -0.41942 1.53057 0
M  V30 2993 H 285.955 -3.02833 2.30375 0
M  V30 2994 H 285.467 -1.6582 3.50892 0
M  V30 2995 H 283.568 -3.32142 1.68856 0
M  V30 2996 H 283.681 -3.19662 3.56865 0
M  V30 2997 H 282.045 -1.77024 1.83124 0
M  V30 2998 H 282.828 -0.963442 3.29504 0
M  V30 2999 N 285.273 -1.31445 -0.869486 0
M  V30 3000 C 286.55 -1.11795 -1.60503 0
M  V30 3001 C 286.93 0.327168 -2.08549 0
M  V30 3002 O 286.278 1.32135 -1.8642 0
M  V30 3003 C 286.488 -2.13258 -2.76265 0
M  V30 3004 C 287.836 -2.45805 -3.46215 0
M  V30 3005 O 288.86 -2.11688 -2.86473 0
M  V30 3006 O 287.719 -3.04228 -4.5399 0
M  V30 3007 H 284.813 -0.430421 -0.706163 0
M  V30 3008 H 287.359 -1.42925 -0.914907 0
M  V30 3009 H 286.131 -3.10461 -2.3818 0
M  V30 3010 H 285.754 -1.83035 -3.52964 0
M  V30 3011 N 286.751 1.08385 -1.14413 0
M  V30 3012 C 288 1.80153 -0.907076 0
M  V30 3013 C 288.313 1.87176 0.567851 0
M  V30 3014 O 289.519 2.55359 0.922172 0
M  V30 3015 C 287.975 3.23687 -1.57336 0
M  V30 3016 C 287.583 3.24897 -3.08457 0
M  V30 3017 C 289.327 4.00136 -1.41744 0
M  V30 3018 C 287.234 4.6302 -3.67921 0
M  V30 3019 H 286.164 0.675139 -0.335714 0
M  V30 3020 H 288.815 1.21733 -1.37307 0
M  V30 3021 H 287.197 3.82234 -1.03505 0
M  V30 3022 H 288.371 2.76055 -3.68958 0
M  V30 3023 H 286.686 2.61943 -3.2369 0
M  V30 3024 H 289.283 5.02201 -1.83572 0
M  V30 3025 H 289.626 4.14709 -0.363576 0
M  V30 3026 H 290.159 3.48058 -1.92614 0
M  V30 3027 H 286.898 4.5365 -4.73161 0
M  V30 3028 H 286.418 5.12143 -3.12201 0
M  V30 3029 H 288.097 5.31994 -3.68227 0
M  V30 3030 N 288.23 0.939286 1.26551 0
M  V30 3031 C 289.476 0.586715 1.94128 0
M  V30 3032 C 289.809 -0.8717 1.73537 0
M  V30 3033 O 289.084 -1.62339 1.07127 0
M  V30 3034 C 289.367 0.927497 3.4795 0
M  V30 3035 C 289.22 2.44052 3.77834 0
M  V30 3036 C 290.539 0.441569 4.37879 0
M  V30 3037 H 287.658 0.21463 0.705055 0
M  V30 3038 H 290.3 1.17316 1.49455 0
M  V30 3039 H 288.45 0.428431 3.8613 0
M  V30 3040 H 290.122 3.01216 3.4938 0
M  V30 3041 H 288.365 2.8848 3.23978 0
M  V30 3042 H 289.036 2.62947 4.85348 0
M  V30 3043 H 291.512 0.869448 4.06915 0
M  V30 3044 H 290.388 0.708856 5.44304 0
M  V30 3045 H 290.649 -0.658467 4.37169 0
M  V30 3046 N 289.708 -1.40897 0.706093 0
M  V30 3047 C 290.956 -2.00657 0.241054 0
M  V30 3048 C 291.277 -1.56241 -1.16678 0
M  V30 3049 O 290.547 -0.79765 -1.78926 0
M  V30 3050 H 289.127 -0.742018 0.0861308 0
M  V30 3051 H 291.789 -1.72372 0.909604 0
M  V30 3052 H 290.885 -3.10958 0.266705 0
M  V30 3053 N 291.186 -0.45159 -1.50991 0
M  V30 3054 C 292.416 0.108177 -2.06317 0
M  V30 3055 C 292.824 1.35774 -1.31765 0
M  V30 3056 O 292.167 1.79838 -0.374694 0
M  V30 3057 C 292.229 0.481659 -3.56259 0
M  V30 3058 C 291.893 -0.663114 -4.52163 0
M  V30 3059 C 292.89 -1.53947 -4.96585 0
M  V30 3060 C 290.575 -0.8479 -4.95092 0
M  V30 3061 C 292.569 -2.58518 -5.82621 0
M  V30 3062 C 290.256 -1.89686 -5.80915 0
M  V30 3063 C 291.254 -2.76388 -6.24579 0
M  V30 3064 O 290.942 -3.79482 -7.08695 0
M  V30 3065 H 290.674 0.00499183 -0.675982 0
M  V30 3066 H 293.228 -0.633659 -1.95381 0
M  V30 3067 H 291.458 1.27641 -3.65027 0
M  V30 3068 H 293.147 0.974233 -3.94035 0
M  V30 3069 H 293.913 -1.4083 -4.64103 0
M  V30 3070 H 289.792 -0.18258 -4.60638 0
M  V30 3071 H 293.336 -3.26224 -6.16623 0
M  V30 3072 H 289.233 -2.02817 -6.12809 0
M  V30 3073 H 290.001 -3.76234 -7.26905 0
M  V30 3074 N 292.664 1.56529 -0.183458 0
M  V30 3075 C 293.574 2.22144 0.754272 0
M  V30 3076 C 294.59 1.21684 1.24374 0
M  V30 3077 O 295.766 1.54385 1.29333 0
M  V30 3078 C 292.831 2.85884 1.96141 0
M  V30 3079 C 291.892 4.01579 1.51765 0
M  V30 3080 C 291.125 4.6227 2.66725 0
M  V30 3081 O 291.348 4.21865 3.83909 0
M  V30 3082 O 290.282 5.51936 2.40104 0
M  V30 3083 H 294.108 3.02861 0.225527 0
M  V30 3084 H 291.693 1.49331 0.0453032 0
M  V30 3085 H 293.575 3.26253 2.66715 0
M  V30 3086 H 292.25 2.08154 2.47899 0
M  V30 3087 H 291.157 3.65856 0.781049 0
M  V30 3088 H 292.49 4.80938 1.04686 0
M  V30 3089 N 294.142 -0.090211 1.57342 0
M  V30 3090 C 295.419 -0.824761 1.77361 0
M  V30 3091 C 295.799 -1.96698 0.76637 0
M  V30 3092 O 295.147 -2.27586 -0.204179 0
M  V30 3093 C 295.357 -1.31481 3.23286 0
M  V30 3094 C 296.705 -1.75563 3.86604 0
M  V30 3095 O 297.729 -1.41093 3.27065 0
M  V30 3096 O 296.588 -2.39317 4.91314 0
M  V30 3097 H 293.682 -0.393776 0.727234 0
M  V30 3098 H 296.228 -0.0717138 1.69548 0
M  V30 3099 H 295 -0.496671 3.88135 0
M  V30 3100 H 294.623 -2.12973 3.35751 0
M  V30 3101 N 295.62 -1.53406 -0.361157 0
M  V30 3102 C 296.868 -1.69467 -1.10115 0
M  V30 3103 C 297.189 -0.451352 -1.89705 0
M  V30 3104 O 296.459 0.534636 -1.88463 0
M  V30 3105 H 295.039 -0.624749 -0.409508 0
M  V30 3106 H 297.701 -1.90609 -0.406699 0
M  V30 3107 H 296.797 -2.55774 -1.78847 0
M  V30 3108 N 297.098 0.621204 -1.44841 0
M  V30 3109 C 298.347 1.37658 -1.47422 0
M  V30 3110 C 298.66 1.95264 -0.114629 0
M  V30 3111 O 299.866 2.71494 -0.0180199 0
M  V30 3112 C 298.322 2.49285 -2.59586 0
M  V30 3113 C 297.93 1.98149 -4.01797 0
M  V30 3114 C 299.674 3.26409 -2.71399 0
M  V30 3115 C 297.581 3.07178 -5.05367 0
M  V30 3116 H 296.511 0.517344 -0.548517 0
M  V30 3117 H 299.162 0.667257 -1.70938 0
M  V30 3118 H 297.544 3.22839 -2.29328 0
M  V30 3119 H 298.718 1.31395 -4.41669 0
M  V30 3120 H 297.033 1.33812 -3.94314 0
M  V30 3121 H 299.63 4.07706 -3.45948 0
M  V30 3122 H 299.973 3.76535 -1.77559 0
M  V30 3123 H 300.506 2.5995 -3.01116 0
M  V30 3124 H 297.245 2.61985 -6.00869 0
M  V30 3125 H 296.765 3.72542 -4.70077 0
M  V30 3126 H 298.444 3.71789 -5.29511 0
M  V30 3127 N 298.576 1.31904 0.862503 0
M  V30 3128 C 299.853 1.12644 1.59908 0
M  V30 3129 C 300.233 -0.316104 2.0872 0
M  V30 3130 O 299.581 -1.31145 1.87118 0
M  V30 3131 C 299.791 2.1472 2.7513 0
M  V30 3132 C 301.139 2.47637 3.44907 0
M  V30 3133 O 302.163 2.13205 2.85346 0
M  V30 3134 O 301.022 3.06632 4.52371 0
M  V30 3135 H 298.116 0.43416 0.703871 0
M  V30 3136 H 300.662 1.43408 0.907314 0
M  V30 3137 H 299.434 3.1172 2.3653 0
M  V30 3138 H 299.057 1.84905 3.51989 0
M  V30 3139 N 300.054 -1.07777 1.14986 0
M  V30 3140 C 301.465 -1.61766 0.932127 0
M  V30 3141 C 301.816 -1.88974 -0.527581 0
M  V30 3142 O 300.941 -1.65198 -1.39781 0
M  V30 3143 C 301.536 -2.93891 1.68563 0
M  V30 3144 C 300.095 -3.44639 1.5133 0
M  V30 3145 C 299.242 -2.18767 1.704 0
M  V30 3146 H 302.193 -0.909201 1.30074 0
M  V30 3147 H 302.214 -3.62623 1.15259 0
M  V30 3148 H 301.726 -2.74057 2.74799 0
M  V30 3149 H 299.827 -3.69564 0.474702 0
M  V30 3150 H 299.94 -4.20966 2.28746 0
M  V30 3151 H 298.304 -2.28253 1.13016 0
M  V30 3152 H 299.087 -2.01433 2.77992 0
M  V30 3153 N 301.532 -0.945985 -1.26051 0
M  V30 3154 C 302.464 -0.416662 -2.25381 0
M  V30 3155 C 303.477 0.462712 -1.56086 0
M  V30 3156 O 304.666 0.272383 -1.7641 0
M  V30 3157 C 301.766 0.419812 -3.3629 0
M  V30 3158 C 300.939 -0.444531 -4.35135 0
M  V30 3159 C 299.998 0.332305 -5.2515 0
M  V30 3160 O 299.024 -0.266324 -5.68577 0
M  V30 3161 N 300.226 1.62763 -5.57215 0
M  V30 3162 H 302.991 -1.27059 -2.71433 0
M  V30 3163 H 300.552 -0.815392 -1.39868 0
M  V30 3164 H 302.544 0.947013 -3.93464 0
M  V30 3165 H 301.114 1.17456 -2.89694 0
M  V30 3166 H 300.334 -1.15291 -3.76964 0
M  V30 3167 H 301.622 -1.03478 -4.98166 0
M  V30 3168 H 301.02 2.13603 -5.23823 0
M  V30 3169 H 299.577 2.10097 -6.17011 0
M  V30 3170 N 303.011 1.40521 -0.713556 0
M  V30 3171 C 303.944 2.28198 -0.00881422 0
M  V30 3172 C 304.922 1.43227 0.769735 0
M  V30 3173 O 306.106 1.72641 0.756799 0
M  V30 3174 C 303.233 3.23758 0.994899 0
M  V30 3175 C 302.279 4.25391 0.3074 0
M  V30 3176 S 303.112 5.26765 -0.963247 0
M  V30 3177 C 304.268 6.25888 0.0384143 0
M  V30 3178 H 304.501 2.87622 -0.752407 0
M  V30 3179 H 302.034 1.45925 -0.504502 0
M  V30 3180 H 303.992 3.79341 1.56879 0
M  V30 3181 H 302.653 2.63396 1.71118 0
M  V30 3182 H 301.846 4.92596 1.0661 0
M  V30 3183 H 301.448 3.73497 -0.193879 0
M  V30 3184 H 303.74 6.71683 0.885912 0
M  V30 3185 H 304.683 7.05552 -0.60019 0
M  V30 3186 H 305.091 5.63072 0.401233 0
M  V30 3187 N 304.489 0.459591 1.5075 0
M  V30 3188 C 305.714 -0.0996819 2.0716 0
M  V30 3189 C 306.139 -1.33761 1.32249 0
M  V30 3190 O 305.497 -1.77551 0.366786 0
M  V30 3191 C 305.545 -0.378226 3.58611 0
M  V30 3192 O 304.649 -1.46081 3.85661 0
M  V30 3193 H 303.99 0.00791392 0.663953 0
M  V30 3194 H 306.52 0.647329 1.9409 0
M  V30 3195 H 306.53 -0.622135 4.03229 0
M  V30 3196 H 305.205 0.526439 4.12555 0
M  V30 3197 H 303.782 -1.20511 3.5289 0
M  V30 3198 N 305.967 -1.56429 0.191757 0
M  V30 3199 C 307.213 -1.97777 -0.448554 0
M  V30 3200 C 307.546 -1.07847 -1.61501 0
M  V30 3201 O 306.821 -0.129774 -1.94067 0
M  V30 3202 C 307.104 -3.48362 -0.911906 0
M  V30 3203 C 306.957 -4.4907 0.256136 0
M  V30 3204 C 308.276 -4.02561 -1.77857 0
M  V30 3205 H 305.395 -0.719071 -0.161572 0
M  V30 3206 H 308.037 -1.87896 0.282007 0
M  V30 3207 H 306.187 -3.56914 -1.53442 0
M  V30 3208 H 307.859 -4.5256 0.893733 0
M  V30 3209 H 306.102 -4.24181 0.908436 0
M  V30 3210 H 306.773 -5.51889 -0.11053 0
M  V30 3211 H 309.249 -3.96767 -1.25359 0
M  V30 3212 H 308.125 -5.08301 -2.07174 0
M  V30 3213 H 308.386 -3.47616 -2.73158 0
M  V30 3214 N 307.445 0.0818655 -1.57387 0
M  V30 3215 C 308.375 1.09885 -2.06028 0
M  V30 3216 C 309.356 1.4098 -0.951774 0
M  V30 3217 O 310.541 1.50781 -1.22387 0
M  V30 3218 C 307.671 2.4151 -2.4958 0
M  V30 3219 C 306.625 2.24792 -3.64215 0
M  V30 3220 C 305.951 3.61712 -3.93787 0
M  V30 3221 C 307.251 1.67749 -4.94629 0
M  V30 3222 H 308.945 0.694128 -2.91243 0
M  V30 3223 H 306.491 0.332448 -1.4011 0
M  V30 3224 H 308.444 3.12939 -2.82219 0
M  V30 3225 H 307.168 2.83943 -1.61381 0
M  V30 3226 H 305.827 1.55807 -3.31843 0
M  V30 3227 H 305.475 4.01697 -3.02735 0
M  V30 3228 H 305.175 3.51368 -4.70971 0
M  V30 3229 H 306.699 4.34587 -4.28913 0
M  V30 3230 H 308.113 2.29032 -5.25564 0
M  V30 3231 H 306.51 1.68128 -5.76067 0
M  V30 3232 H 307.58 0.638059 -4.80684 0
M  V30 3233 N 308.923 1.53595 0.353017 0
M  V30 3234 C 310.148 1.7462 1.11904 0
M  V30 3235 C 310.573 0.479721 1.8188 0
M  V30 3236 O 309.931 -0.567066 1.72204 0
M  V30 3237 C 309.979 2.92029 2.11545 0
M  V30 3238 O 309.083 2.61516 3.18878 0
M  V30 3239 H 308.424 0.579531 0.324099 0
M  V30 3240 H 310.954 2.00525 0.406301 0
M  V30 3241 H 310.964 3.18551 2.5493 0
M  V30 3242 H 309.639 3.83888 1.60008 0
M  V30 3243 H 308.216 2.45852 2.80377 0
M  V30 3244 N 310.401 -0.613514 1.45168 0
M  V30 3245 C 311.648 -1.37268 1.48875 0
M  V30 3246 C 311.976 -1.94077 0.128161 0
M  V30 3247 O 311.231 -1.75178 -0.872416 0
M  V30 3248 C 311.53 -2.54347 2.51083 0
M  V30 3249 C 311.196 -2.1572 3.95949 0
M  V30 3250 C 309.858 -2.04899 4.35396 0
M  V30 3251 C 312.21 -1.85485 4.87078 0
M  V30 3252 C 309.538 -1.62057 5.63875 0
M  V30 3253 C 311.89 -1.4413 6.15962 0
M  V30 3254 C 310.554 -1.31863 6.54346 0
M  V30 3255 H 309.824 -0.502299 0.544773 0
M  V30 3256 H 312.471 -0.694021 1.78481 0
M  V30 3257 H 310.776 -3.27524 2.15024 0
M  V30 3258 H 312.473 -3.12577 2.51191 0
M  V30 3259 H 309.063 -2.25066 3.64751 0
M  V30 3260 H 313.247 -1.92745 4.57343 0
M  V30 3261 H 308.503 -1.51177 5.92415 0
M  V30 3262 H 312.677 -1.19778 6.86022 0
M  V30 3263 H 310.304 -0.984392 7.538 0
M  V30 3264 N 311.879 -1.3236 -0.855495 0
M  V30 3265 C 313.125 -1.23054 -1.612 0
M  V30 3266 C 313.458 0.207404 -1.93089 0
M  V30 3267 O 312.733 1.14432 -1.57275 0
M  V30 3268 C 313.016 -2.08937 -2.93287 0
M  V30 3269 C 312.869 -3.61105 -2.68185 0
M  V30 3270 C 314.188 -1.94986 -3.94549 0
M  V30 3271 H 311.307 -0.448364 -0.584926 0
M  V30 3272 H 313.949 -1.62297 -0.987917 0
M  V30 3273 H 312.099 -1.75599 -3.46551 0
M  V30 3274 H 313.771 -4.04652 -2.21483 0
M  V30 3275 H 312.014 -3.83813 -2.02164 0
M  V30 3276 H 312.685 -4.16522 -3.62234 0
M  V30 3277 H 315.161 -2.24189 -3.5054 0
M  V30 3278 H 314.037 -2.57356 -4.84829 0
M  V30 3279 H 314.298 -0.917263 -4.3248 0
M  V30 3280 N 313.357 1.07166 -1.15556 0
M  V30 3281 C 314.634 1.76546 -0.842069 0
M  V30 3282 C 315.014 2.00453 0.661939 0
M  V30 3283 O 314.362 1.62452 1.60691 0
M  V30 3284 C 314.572 3.07266 -1.65495 0
M  V30 3285 C 315.92 3.81578 -1.86234 0
M  V30 3286 O 316.944 3.17083 -1.62287 0
M  V30 3287 O 315.803 4.97419 -2.26355 0
M  V30 3288 H 312.897 0.766756 -0.309862 0
M  V30 3289 H 315.443 1.13514 -1.26145 0
M  V30 3290 H 314.215 2.85494 -2.67598 0
M  V30 3291 H 313.838 3.7803 -1.23203 0
M  V30 3292 N 314.835 0.952656 1.25548 0
M  V30 3293 C 315.798 0.475794 2.24207 0
M  V30 3294 C 316.798 -0.419428 1.55234 0
M  V30 3295 O 317.988 -0.216994 1.72843 0
M  V30 3296 C 315.12 -0.312814 3.39462 0
M  V30 3297 H 316.313 1.34779 2.67908 0
M  V30 3298 H 313.866 0.735739 1.37901 0
M  V30 3299 H 314.601 -1.20257 3.01179 0
M  V30 3300 H 314.386 0.329404 3.90714 0
M  V30 3301 H 315.876 -0.635986 4.12729 0
M  V30 3302 N 316.313 -1.40141 0.720998 0
M  V30 3303 C 317.261 -2.3252 0.0608547 0
M  V30 3304 C 318.255 -1.52326 -0.741152 0
M  V30 3305 O 319.461 -1.68089 -0.643911 0
M  V30 3306 H 315.836 -0.751999 0.000876664 0
M  V30 3307 H 317.807 -2.8584 0.856614 0
M  V30 3308 C 316.556 -3.37331 -0.842809 0
M  V30 3309 H 315.879 -3.99108 -0.235084 0
M  V30 3310 H 317.319 -4.04452 -1.27257 0
M  V30 3311 C 315.778 -2.73246 -1.97074 0
M  V30 3312 O 316.308 -2.59998 -3.06209 0
M  V30 3313 N 314.514 -2.31547 -1.75597 0
M  V30 3314 H 314.061 -2.42522 -0.868368 0
M  V30 3315 H 314.019 -1.89007 -2.51244 0
M  V30 3316 N 317.792 -0.46758 -1.50504 0
M  V30 3317 C 319.04 0.0884469 -2.01906 0
M  V30 3318 C 319.361 1.40532 -1.35188 0
M  V30 3319 O 318.631 1.89515 -0.496079 0
M  V30 3320 H 317.211 0.0356765 -0.746148 0
M  V30 3321 H 319.873 -0.6172 -1.84869 0
M  V30 3322 H 318.969 0.2425 -3.11156 0
M  V30 3323 N 319.27 1.56325 -0.20005 0
M  V30 3324 C 320.18 2.22931 0.730668 0
M  V30 3325 C 321.196 1.22997 1.23076 0
M  V30 3326 O 322.372 1.55748 1.27689 0
M  V30 3327 C 319.437 2.87948 1.93098 0
M  V30 3328 C 318.498 4.03166 1.47497 0
M  V30 3329 C 317.731 4.65073 2.61807 0
M  V30 3330 O 317.954 4.25913 3.79413 0
M  V30 3331 O 316.888 5.54452 2.34237 0
M  V30 3332 H 320.714 3.03084 0.193391 0
M  V30 3333 H 318.299 1.49371 0.0294621 0
M  V30 3334 H 320.181 3.29063 2.6324 0
M  V30 3335 H 318.856 2.10771 2.45677 0
M  V30 3336 H 317.763 3.66664 0.742201 0
M  V30 3337 H 319.096 4.82022 0.995796 0
M  V30 3338 N 320.748 -0.0735177 1.57428 0
M  V30 3339 C 321.678 -1.0879 2.06608 0
M  V30 3340 C 322.659 -1.40473 0.959237 0
M  V30 3341 O 323.844 -1.5013 1.23185 0
M  V30 3342 C 320.974 -2.40183 2.50857 0
M  V30 3343 C 319.928 -2.22858 3.65402 0
M  V30 3344 C 319.254 -3.59619 3.957 0
M  V30 3345 C 320.554 -1.65123 4.95511 0
M  V30 3346 H 322.248 -0.678673 2.91607 0
M  V30 3347 H 319.794 -0.325013 1.40284 0
M  V30 3348 H 321.747 -3.11437 2.83874 0
M  V30 3349 H 320.471 -2.83083 1.62885 0
M  V30 3350 H 319.13 -1.54045 3.32664 0
M  V30 3351 H 318.778 -4.00086 3.04861 0
M  V30 3352 H 318.478 -3.48866 4.72828 0
M  V30 3353 H 320.002 -4.32306 4.31212 0
M  V30 3354 H 321.416 -2.26241 5.26771 0
M  V30 3355 H 319.813 -1.65071 5.7695 0
M  V30 3356 H 320.883 -0.612559 4.81015 0
M  V30 3357 N 322.226 -1.5378 -0.344866 0
M  V30 3358 C 323.189 -1.80981 -1.40637 0
M  V30 3359 C 324.189 -0.680816 -1.45676 0
M  V30 3360 O 325.379 -0.949095 -1.46075 0
M  V30 3361 C 322.511 -1.95063 -2.79577 0
M  V30 3362 H 323.704 -2.75803 -1.17783 0
M  V30 3363 H 321.257 -1.45173 -0.579181 0
M  V30 3364 H 321.992 -1.02379 -3.07716 0
M  V30 3365 H 321.777 -2.77198 -2.77315 0
M  V30 3366 H 323.267 -2.17629 -3.56409 0
M  V30 3367 N 323.704 0.605807 -1.45491 0
M  V30 3368 C 324.952 1.36207 -1.49305 0
M  V30 3369 C 325.273 1.94519 -0.136863 0
M  V30 3370 O 324.543 1.77261 0.833983 0
M  V30 3371 H 323.123 0.50565 -0.549843 0
M  V30 3372 H 325.785 0.711239 -1.81459 0
M  V30 3373 H 324.881 2.18058 -2.23287 0
M  V30 3374 N 325.182 1.32811 0.848464 0
M  V30 3375 C 326.145 1.22194 1.9391 0
M  V30 3376 C 327.145 0.143404 1.60159 0
M  V30 3377 O 328.335 0.394253 1.6968 0
M  V30 3378 C 325.467 0.88067 3.29328 0
M  V30 3379 H 326.66 2.19127 2.04752 0
M  V30 3380 H 324.213 1.16731 1.0394 0
M  V30 3381 H 324.948 -0.0865776 3.24184 0
M  V30 3382 H 324.733 1.66052 3.55203 0
M  V30 3383 H 326.223 0.830871 4.09251 0
M  V30 3384 N 326.66 -1.06551 1.16123 0
M  V30 3385 C 327.909 -1.78687 0.935622 0
M  V30 3386 C 328.222 -1.88056 -0.538001 0
M  V30 3387 O 329.428 -2.56794 -0.88143 0
M  V30 3388 C 327.884 -3.21143 1.62466 0
M  V30 3389 C 327.492 -3.19949 3.13587 0
M  V30 3390 C 329.236 -3.9783 1.48092 0
M  V30 3391 C 327.143 -4.57108 3.75241 0
M  V30 3392 H 326.073 -0.669712 0.346412 0
M  V30 3393 H 328.724 -1.19534 1.39226 0
M  V30 3394 H 327.106 -3.80539 1.09572 0
M  V30 3395 H 328.28 -2.70151 3.73303 0
M  V30 3396 H 326.595 -2.5676 3.27816 0
M  V30 3397 H 329.192 -4.99217 1.91538 0
M  V30 3398 H 329.535 -4.14078 0.429507 0
M  V30 3399 H 330.068 -3.4495 1.98127 0
M  V30 3400 H 326.807 -4.46065 4.80319 0
M  V30 3401 H 326.327 -5.07111 3.20309 0
M  V30 3402 H 328.006 -5.26069 3.76644 0
M  V30 3403 N 328.138 -0.959301 -1.25041 0
M  V30 3404 C 329.363 -0.633507 -1.97488 0
M  V30 3405 C 329.788 0.788555 -1.70773 0
M  V30 3406 O 329.146 1.53394 -0.966431 0
M  V30 3407 C 329.194 -0.904057 -3.49083 0
M  V30 3408 O 328.298 0.0147939 -4.12397 0
M  V30 3409 H 327.639 -0.240368 -0.618966 0
M  V30 3410 H 330.169 -1.28717 -1.59038 0
M  V30 3411 H 330.179 -0.832203 -3.99423 0
M  V30 3412 H 328.854 -1.94048 -3.67856 0
M  V30 3413 H 327.431 -0.109664 -3.72739 0
M  V30 3414 N 329.616 1.39756 -0.72842 0
M  V30 3415 C 330.862 2.01425 -0.282761 0
M  V30 3416 C 331.217 1.56754 1.11561 0
M  V30 3417 O 330.51 0.783482 1.74849 0
M  V30 3418 C 330.704 3.56002 -0.315776 0
M  V30 3419 C 330.533 4.1568 -1.71582 0
M  V30 3420 C 329.303 4.48555 -2.32651 0
M  V30 3421 C 331.501 4.39667 -2.66829 0
M  V30 3422 N 329.483 4.93698 -3.64877 0
M  V30 3423 C 330.854 4.86942 -3.8378 0
M  V30 3424 C 332.909 4.21724 -2.64675 0
M  V30 3425 C 331.612 5.18158 -4.98904 0
M  V30 3426 C 333.638 4.54049 -3.78937 0
M  V30 3427 C 333 5.01525 -4.94623 0
M  V30 3428 H 329.099 0.76756 -0.149583 0
M  V30 3429 H 331.683 1.69784 -0.952976 0
M  V30 3430 H 329.854 3.87046 0.324057 0
M  V30 3431 H 331.586 4.0443 0.147808 0
M  V30 3432 H 328.341 4.36128 -1.84633 0
M  V30 3433 H 328.765 5.20635 -4.32744 0
M  V30 3434 H 333.407 3.84228 -1.76433 0
M  V30 3435 H 331.125 5.54562 -5.87781 0
M  V30 3436 H 334.711 4.41795 -3.78561 0
M  V30 3437 H 333.591 5.26065 -5.81572 0
M  V30 3438 N 331.094 0.475555 1.50254 0
M  V30 3439 C 332.341 -0.0778919 2.0235 0
M  V30 3440 C 332.669 -1.39319 1.35722 0
M  V30 3441 O 331.924 -1.89888 0.473395 0
M  V30 3442 C 332.223 -0.305114 3.56095 0
M  V30 3443 C 331.889 0.92903 4.41225 0
M  V30 3444 C 330.551 1.26739 4.6421 0
M  V30 3445 C 332.903 1.75054 4.90923 0
M  V30 3446 C 330.231 2.42724 5.34137 0
M  V30 3447 C 332.583 2.9017 5.62125 0
M  V30 3448 C 331.247 3.24416 5.83362 0
M  V30 3449 H 330.517 -0.0285027 0.740452 0
M  V30 3450 H 333.164 0.630543 1.80821 0
M  V30 3451 H 331.469 -1.09584 3.76163 0
M  V30 3452 H 333.166 -0.747377 3.93974 0
M  V30 3453 H 329.756 0.655428 4.23559 0
M  V30 3454 H 333.94 1.50231 4.73016 0
M  V30 3455 H 329.196 2.69525 5.48786 0
M  V30 3456 H 333.37 3.54169 5.99614 0
M  V30 3457 H 330.997 4.14396 6.37323 0
M  V30 3458 N 332.573 -1.56217 0.208337 0
M  V30 3459 C 333.984 -1.84243 -0.301904 0
M  V30 3460 C 334.335 -1.12939 -1.60434 0
M  V30 3461 O 333.46 -0.39461 -2.12772 0
M  V30 3462 C 334.055 -3.34231 -0.554543 0
M  V30 3463 C 332.614 -3.62621 -1.00912 0
M  V30 3464 C 331.761 -2.77224 -0.064933 0
M  V30 3465 H 334.712 -1.52712 0.431833 0
M  V30 3466 H 334.733 -3.5372 -1.40223 0
M  V30 3467 H 334.245 -3.86099 0.393561 0
M  V30 3468 H 332.346 -3.16197 -1.97104 0
M  V30 3469 H 332.459 -4.7071 -0.892674 0
M  V30 3470 H 330.823 -2.48256 -0.56929 0
M  V30 3471 H 331.606 -3.31887 0.877851 0
M  V30 3472 N 334.051 0.0651679 -1.57465 0
M  V30 3473 C 335.297 0.764193 -1.87851 0
M  V30 3474 C 335.63 1.76889 -0.801495 0
M  V30 3475 O 334.905 1.93594 0.187528 0
M  V30 3476 C 335.188 1.46625 -3.28897 0
M  V30 3477 C 335.041 0.477515 -4.47258 0
M  V30 3478 C 336.36 2.4095 -3.68281 0
M  V30 3479 H 333.479 0.276351 -0.683227 0
M  V30 3480 H 336.121 0.0272868 -1.8998 0
M  V30 3481 H 334.271 2.09438 -3.27212 0
M  V30 3482 H 335.943 -0.145922 -4.61069 0
M  V30 3483 H 334.186 -0.206576 -4.33308 0
M  V30 3484 H 334.857 1.0065 -5.42746 0
M  V30 3485 H 337.333 1.88209 -3.71102 0
M  V30 3486 H 336.209 2.87072 -4.67847 0
M  V30 3487 H 336.47 3.26049 -2.98571 0
M  V30 3488 N 335.529 1.53961 0.336706 0
M  V30 3489 C 336.479 1.7881 1.41461 0
M  V30 3490 C 337.463 0.643561 1.47469 0
M  V30 3491 O 338.655 0.903166 1.52223 0
M  V30 3492 C 335.784 2.00722 2.78506 0
M  V30 3493 C 334.87 3.2126 2.76862 0
M  V30 3494 N 335.261 4.42588 2.44845 0
M  V30 3495 C 333.559 3.22568 3.08004 0
M  V30 3496 C 334.26 5.2447 2.51607 0
M  V30 3497 N 333.236 4.61344 2.87511 0
M  V30 3498 H 337.038 2.70205 1.15615 0
M  V30 3499 H 334.552 1.52978 0.545112 0
M  V30 3500 H 336.549 2.1666 3.5618 0
M  V30 3501 H 335.209 1.10573 3.05293 0
M  V30 3502 H 336.22 4.69819 2.17922 0
M  V30 3503 H 332.897 2.42409 3.39918 0
M  V30 3504 H 334.287 6.31324 2.29955 0
M  V30 3505 N 337.007 -0.598083 1.45811 0
M  V30 3506 C 338.232 -1.3881 1.54099 0
M  V30 3507 C 338.657 -1.8726 0.177578 0
M  V30 3508 O 338.015 -1.6069 -0.839541 0
M  V30 3509 C 338.063 -2.56217 2.53743 0
M  V30 3510 O 337.167 -3.5716 2.06182 0
M  V30 3511 H 336.508 -0.414024 0.519115 0
M  V30 3512 H 339.038 -0.726971 1.91249 0
M  V30 3513 H 339.048 -3.03337 2.72856 0
M  V30 3514 H 337.723 -2.20303 3.5276 0
M  V30 3515 H 336.3 -3.16624 1.96987 0
M  V30 3516 N 338.485 -1.33259 -0.841409 0
M  V30 3517 C 339.713 -1.27605 -1.62864 0
M  V30 3518 C 340.128 0.153507 -1.88175 0
M  V30 3519 O 339.485 1.09485 -1.46011 0
M  V30 3520 C 339.536 -2.04596 -2.98031 0
M  V30 3521 O 339.257 -3.41975 -2.73834 0
M  V30 3522 C 340.758 -2.06122 -3.92465 0
M  V30 3523 H 337.978 -0.439718 -0.506842 0
M  V30 3524 H 340.522 -1.75591 -1.04824 0
M  V30 3525 H 338.677 -1.60299 -3.5268 0
M  V30 3526 H 339.091 -3.81549 -3.59889 0
M  V30 3527 H 340.565 -2.64451 -4.84531 0
M  V30 3528 H 341.042 -1.05083 -4.26444 0
M  V30 3529 H 341.648 -2.50427 -3.43753 0
M  V30 3530 N 339.963 1.05934 -1.16686 0
M  V30 3531 C 341.188 1.83029 -0.975455 0
M  V30 3532 C 341.613 1.82096 0.471452 0
M  V30 3533 O 340.971 1.22443 1.33706 0
M  V30 3534 C 341.019 3.27372 -1.51195 0
M  V30 3535 O 340.123 4.06054 -0.720701 0
M  V30 3536 H 339.464 0.566194 -0.346872 0
M  V30 3537 H 341.994 1.33541 -1.55009 0
M  V30 3538 H 342.004 3.78186 -1.53099 0
M  V30 3539 H 340.679 3.27366 -2.56523 0
M  V30 3540 H 339.256 3.64812 -0.772458 0
M  V30 3541 N 341.441 0.965919 1.2453 0
M  V30 3542 C 342.374 0.4393 2.23932 0
M  V30 3543 C 343.352 -0.485615 1.55179 0
M  V30 3544 O 344.536 -0.417402 1.83821 0
M  V30 3545 C 341.663 -0.366042 3.36716 0
M  V30 3546 C 340.709 0.5009 4.23548 0
M  V30 3547 S 341.542 1.94002 4.99123 0
M  V30 3548 C 342.698 1.14342 6.15367 0
M  V30 3549 H 342.931 1.28167 2.68254 0
M  V30 3550 H 340.464 0.770819 1.33782 0
M  V30 3551 H 342.422 -0.824724 4.0213 0
M  V30 3552 H 341.083 -1.18337 2.90956 0
M  V30 3553 H 340.276 -0.117341 5.03863 0
M  V30 3554 H 339.878 0.89524 3.63127 0
M  V30 3555 H 342.17 0.397572 6.76332 0
M  V30 3556 H 343.113 1.92089 6.81548 0
M  V30 3557 H 343.521 0.668579 5.60527 0
M  V30 3558 N 342.919 -1.39368 0.735821 0
M  V30 3559 C 344.147 -2.04795 0.294393 0
M  V30 3560 C 344.562 -1.55478 -1.07107 0
M  V30 3561 O 343.919 -0.720038 -1.67695 0
M  V30 3562 C 343.97 -3.6035 0.288071 0
M  V30 3563 O 343.691 -4.07852 1.59963 0
M  V30 3564 C 345.192 -4.42976 -0.169422 0
M  V30 3565 H 342.412 -0.658571 0.128551 0
M  V30 3566 H 344.956 -1.78399 0.999701 0
M  V30 3567 H 343.111 -3.85645 -0.368355 0
M  V30 3568 H 343.525 -5.02181 1.51375 0
M  V30 3569 H 344.999 -5.51864 -0.122687 0
M  V30 3570 H 345.476 -4.22068 -1.21472 0
M  V30 3571 H 346.082 -4.22832 0.457469 0
M  V30 3572 N 344.397 -0.483516 -1.5 0
M  V30 3573 C 345.345 0.318061 -2.30415 0
M  V30 3574 C 346.339 0.978988 -1.38247 0
M  V30 3575 O 347.545 0.908673 -1.55381 0
M  V30 3576 H 343.92 0.121419 -0.742133 0
M  V30 3577 H 345.891 -0.380403 -2.95965 0
M  V30 3578 C 344.64 1.38013 -3.19136 0
M  V30 3579 H 343.963 0.880952 -3.89973 0
M  V30 3580 H 345.403 1.91332 -3.78375 0
M  V30 3581 C 343.862 2.38884 -2.37563 0
M  V30 3582 O 344.392 3.44412 -2.06744 0
M  V30 3583 N 342.598 2.10912 -1.99911 0
M  V30 3584 H 342.145 1.25118 -2.25174 0
M  V30 3585 H 342.103 2.78635 -1.45636 0
M  V30 3586 N 345.875 1.56104 -0.216619 0
M  V30 3587 C 346.838 2.18819 0.681962 0
M  V30 3588 C 347.838 1.14866 1.12528 0
M  V30 3589 O 349.028 1.40128 1.03488 0
M  V30 3590 C 346.16 2.80756 1.93362 0
M  V30 3591 H 347.353 2.99595 0.135254 0
M  V30 3592 H 344.906 1.56265 0.0330003 0
M  V30 3593 H 345.641 2.03837 2.52232 0
M  V30 3594 H 345.426 3.56876 1.62426 0
M  V30 3595 H 346.916 3.28844 2.57393 0
M  V30 3596 N 347.353 -0.0568162 1.57498 0
M  V30 3597 C 348.301 -1.08452 2.05769 0
M  V30 3598 C 349.295 -1.39164 0.965903 0
M  V30 3599 O 350.501 -1.38395 1.15095 0
M  V30 3600 H 346.876 -0.367148 0.656282 0
M  V30 3601 H 348.847 -0.651368 2.91204 0
M  V30 3602 C 347.596 -2.38543 2.52968 0
M  V30 3603 H 346.919 -2.15765 3.36579 0
M  V30 3604 H 348.359 -3.08863 2.90481 0
M  V30 3605 C 346.818 -3.05562 1.41893 0
M  V30 3606 O 347.348 -3.94262 0.769442 0
M  V30 3607 N 345.554 -2.6643 1.16032 0
M  V30 3608 H 345.101 -1.94387 1.6903 0
M  V30 3609 H 345.059 -3.11593 0.419219 0
M  V30 3610 N 348.832 -1.54138 -0.328536 0
M  V30 3611 C 349.782 -1.79557 -1.4051 0
M  V30 3612 C 350.766 -0.651373 -1.47126 0
M  V30 3613 O 351.958 -0.911226 -1.51742 0
M  V30 3614 C 349.087 -2.02196 -2.77438 0
M  V30 3615 C 348.173 -3.22724 -2.75155 0
M  V30 3616 N 348.564 -4.43881 -2.42494 0
M  V30 3617 C 346.862 -3.24196 -3.06289 0
M  V30 3618 C 347.563 -5.25797 -2.48822 0
M  V30 3619 N 346.539 -4.62862 -2.8506 0
M  V30 3620 H 350.341 -2.70814 -1.1418 0
M  V30 3621 H 347.855 -1.53265 -0.536991 0
M  V30 3622 H 349.852 -2.18546 -3.55026 0
M  V30 3623 H 348.512 -1.12191 -3.04702 0
M  V30 3624 H 349.523 -4.70969 -2.15428 0
M  V30 3625 H 346.2 -2.44208 -3.38627 0
M  V30 3626 H 347.59 -6.32535 -2.26603 0
M  V30 3627 N 350.31 0.590341 -1.46126 0
M  V30 3628 C 351.24 1.71032 -1.58966 0
M  V30 3629 C 352.221 1.64302 -0.440335 0
M  V30 3630 O 353.406 1.82436 -0.665634 0
M  V30 3631 C 350.536 3.09665 -1.57241 0
M  V30 3632 C 349.49 3.31221 -2.71066 0
M  V30 3633 C 348.816 4.70303 -2.54399 0
M  V30 3634 C 350.116 3.19796 -4.1295 0
M  V30 3635 H 351.81 1.60543 -2.52718 0
M  V30 3636 H 349.356 0.770933 -1.21625 0
M  V30 3637 H 351.309 3.87831 -1.64819 0
M  V30 3638 H 350.033 3.21036 -0.600289 0
M  V30 3639 H 348.692 2.55452 -2.62944 0
M  V30 3640 H 348.34 4.78429 -1.55288 0
M  V30 3641 H 348.04 4.85679 -3.30741 0
M  V30 3642 H 349.564 5.50647 -2.63857 0
M  V30 3643 H 350.978 3.87815 -4.22223 0
M  V30 3644 H 349.375 3.46696 -4.89818 0
M  V30 3645 H 350.445 2.16983 -4.33643 0
M  V30 3646 N 351.788 1.33704 0.83433 0
M  V30 3647 C 353.037 1.24763 1.58484 0
M  V30 3648 C 353.35 -0.183775 1.94735 0
M  V30 3649 O 354.556 -0.395234 2.68608 0
M  V30 3650 C 353.012 2.18638 2.85876 0
M  V30 3651 C 352.62 3.66974 2.56971 0
M  V30 3652 C 354.364 2.18581 3.63899 0
M  V30 3653 C 352.271 4.5275 3.80488 0
M  V30 3654 H 351.201 0.463425 0.594772 0
M  V30 3655 H 353.852 1.58797 0.919551 0
M  V30 3656 H 352.234 1.77542 3.5397 0
M  V30 3657 H 353.408 4.16538 1.9706 0
M  V30 3658 H 351.723 3.69366 1.92244 0
M  V30 3659 H 354.32 2.79894 4.55591 0
M  V30 3660 H 354.663 1.18207 3.99165 0
M  V30 3661 H 355.196 2.58062 3.02735 0
M  V30 3662 H 351.935 5.54017 3.5035 0
M  V30 3663 H 351.455 4.07927 4.39722 0
M  V30 3664 H 353.134 4.66784 4.4802 0
M  V30 3665 N 353.266 -1.05314 1.17247 0
M  V30 3666 C 354.491 -1.82509 0.985148 0
M  V30 3667 C 354.916 -1.82343 -0.461788 0
M  V30 3668 O 354.274 -1.23151 -1.33055 0
M  V30 3669 C 354.322 -3.26566 1.52929 0
M  V30 3670 O 353.426 -4.05666 0.742225 0
M  V30 3671 H 352.767 -0.564347 0.349869 0
M  V30 3672 H 355.297 -1.32718 1.55715 0
M  V30 3673 H 355.307 -3.77369 1.55103 0
M  V30 3674 H 353.982 -3.26001 2.58256 0
M  V30 3675 H 352.559 -3.64397 0.791794 0
M  V30 3676 N 354.744 -0.972509 -1.24016 0
M  V30 3677 C 356.155 -0.67517 -1.74064 0
M  V30 3678 C 356.506 0.808939 -1.78747 0
M  V30 3679 O 355.631 1.63286 -1.42009 0
M  V30 3680 C 356.226 -1.21889 -3.16115 0
M  V30 3681 C 354.785 -0.971358 -3.6365 0
M  V30 3682 C 353.932 -1.35134 -2.42145 0
M  V30 3683 H 356.883 -1.14727 -1.09651 0
M  V30 3684 H 356.904 -0.587489 -3.75937 0
M  V30 3685 H 356.416 -2.29906 -3.12674 0
M  V30 3686 H 354.517 0.0930686 -3.72484 0
M  V30 3687 H 354.63 -1.62039 -4.50866 0
M  V30 3688 H 352.994 -0.769751 -2.4279 0
M  V30 3689 H 353.777 -2.4411 -2.41381 0
M  V30 3690 N 356.222 1.38976 -0.743202 0
M  V30 3691 C 357.499 1.94351 -0.220705 0
M  V30 3692 C 357.879 1.67935 1.2791 0
M  V30 3693 O 357.227 1.01211 2.04862 0
M  V30 3694 C 357.437 3.44426 -0.563171 0
M  V30 3695 C 358.785 4.2144 -0.517046 0
M  V30 3696 O 359.809 3.52661 -0.500846 0
M  V30 3697 O 358.668 5.44032 -0.518806 0
M  V30 3698 H 355.762 0.825879 -0.043047 0
M  V30 3699 H 358.308 1.48429 -0.822618 0
M  V30 3700 H 357.08 3.5712 -1.59941 0
M  V30 3701 H 356.703 3.97543 0.0672883 0
M  V30 3702 N 357.7 0.491464 1.49741 0
M  V30 3703 C 358.648 -0.305837 2.30581 0
M  V30 3704 C 359.642 -0.971642 1.38764 0
M  V30 3705 O 360.848 -0.90042 1.5586 0
M  V30 3706 H 357.223 -0.117482 0.742767 0
M  V30 3707 H 359.194 0.396093 2.95759 0
M  V30 3708 C 357.943 -1.36319 3.19863 0
M  V30 3709 H 357.266 -0.860258 3.90435 0
M  V30 3710 H 358.706 -1.89323 3.79385 0
M  V30 3711 C 357.165 -2.37621 2.38826 0
M  V30 3712 O 357.695 -3.43311 2.08567 0
M  V30 3713 N 355.901 -2.09849 2.01026 0
M  V30 3714 H 355.448 -1.23922 2.25834 0
M  V30 3715 H 355.406 -2.77859 1.47112 0
M  V30 3716 N 359.178 -1.55987 0.224894 0
M  V30 3717 C 360.125 -2.20436 -0.68385 0
M  V30 3718 C 361.095 -1.16102 -1.18783 0
M  V30 3719 O 362.28 -1.4447 -1.24632 0
M  V30 3720 C 359.42 -2.89076 -1.88491 0
M  V30 3721 C 358.533 -4.08012 -1.41951 0
M  V30 3722 C 357.668 -4.64426 -2.5784 0
M  V30 3723 C 356.707 -5.75656 -2.08053 0
M  V30 3724 N 355.844 -6.26347 -3.17227 0
M  V30 3725 H 360.684 -2.97727 -0.12754 0
M  V30 3726 H 358.221 -1.47011 -0.0511978 0
M  V30 3727 H 360.179 -3.27059 -2.59014 0
M  V30 3728 H 358.809 -2.14298 -2.41405 0
M  V30 3729 H 357.861 -3.75492 -0.609095 0
M  V30 3730 H 359.173 -4.88375 -1.01447 0
M  V30 3731 H 358.327 -5.04869 -3.3644 0
M  V30 3732 H 357.066 -3.83233 -3.01635 0
M  V30 3733 H 356.071 -5.34712 -1.27916 0
M  V30 3734 H 357.296 -6.58686 -1.65255 0
M  V30 3735 H 355.242 -5.48067 -3.60497 0
M  V30 3736 H 355.159 -7.01843 -2.80986 0
M  V30 3737 H 356.427 -6.71447 -3.95953 0
M  V30 3738 N 360.656 0.0484629 -1.57525 0
M  V30 3739 C 361.904 0.741657 -1.88 0
M  V30 3740 C 362.225 1.76918 -0.820054 0
M  V30 3741 O 361.495 1.95335 0.148661 0
M  V30 3742 H 360.075 0.276908 -0.69378 0
M  V30 3743 H 362.737 0.019013 -1.94891 0
M  V30 3744 H 361.833 1.24336 -2.86264 0
M  V30 3745 N 362.134 1.5431 0.320358 0
M  V30 3746 C 363.364 1.7638 1.07582 0
M  V30 3747 C 363.772 0.513944 1.82086 0
M  V30 3748 O 363.115 -0.525123 1.76035 0
M  V30 3749 C 363.177 2.9055 2.1171 0
M  V30 3750 C 362.841 4.2934 1.56575 0
M  V30 3751 C 363.838 5.10077 1.00586 0
M  V30 3752 C 361.523 4.75893 1.60722 0
M  V30 3753 C 363.517 6.35477 0.494756 0
M  V30 3754 C 361.204 6.0126 1.09224 0
M  V30 3755 C 362.202 6.80886 0.53696 0
M  V30 3756 O 361.89 8.03894 0.0297371 0
M  V30 3757 H 361.622 0.592369 0.325692 0
M  V30 3758 H 364.176 2.02019 0.37116 0
M  V30 3759 H 362.406 2.60489 2.85801 0
M  V30 3760 H 364.095 3.00373 2.73003 0
M  V30 3761 H 364.861 4.75265 0.966869 0
M  V30 3762 H 360.74 4.13957 2.02882 0
M  V30 3763 H 364.284 6.97574 0.0606842 0
M  V30 3764 H 360.181 6.35562 1.12831 0
M  V30 3765 H 360.949 8.18372 0.14486 0
M  V30 3766 N 363.613 -0.582584 1.46437 0
M  V30 3767 C 364.576 -1.67366 1.56592 0
M  V30 3768 C 365.576 -1.54575 0.443072 0
M  V30 3769 O 366.766 -1.59191 0.707381 0
M  V30 3770 C 363.898 -3.06791 1.48634 0
M  V30 3771 H 365.091 -1.5972 2.5383 0
M  V30 3772 H 362.644 -0.800432 1.34249 0
M  V30 3773 H 363.379 -3.19993 0.526763 0
M  V30 3774 H 363.164 -3.17484 2.30101 0
M  V30 3775 H 364.654 -3.86218 1.58826 0
M  V30 3776 N 365.091 -1.34144 -0.827227 0
M  V30 3777 C 366.316 -1.29476 -1.62021 0
M  V30 3778 C 366.741 0.129292 -1.87655 0
M  V30 3779 O 366.099 1.08967 -1.449 0
M  V30 3780 C 366.147 -2.08702 -2.94068 0
M  V30 3781 O 365.251 -1.45359 -3.85933 0
M  V30 3782 H 364.592 -0.444881 -0.492927 0
M  V30 3783 H 367.122 -1.76882 -1.02829 0
M  V30 3784 H 367.132 -2.19898 -3.43669 0
M  V30 3785 H 365.807 -3.12241 -2.74734 0
M  V30 3786 H 364.384 -1.42879 -3.44442 0
M  V30 3787 N 366.569 1.04691 -1.17803 0
M  V30 3788 C 367.799 1.81183 -0.992788 0
M  V30 3789 C 368.207 1.8347 0.462098 0
M  V30 3790 O 367.55 1.2643 1.33271 0
M  V30 3791 C 367.612 3.28363 -1.46349 0
M  V30 3792 C 367.276 3.49749 -2.94151 0
M  V30 3793 C 368.273 3.41456 -3.92051 0
M  V30 3794 C 365.958 3.76548 -3.32441 0
M  V30 3795 C 367.952 3.59656 -5.26238 0
M  V30 3796 C 365.639 3.94396 -4.66792 0
M  V30 3797 C 366.637 3.8595 -5.635 0
M  V30 3798 O 366.325 4.03294 -6.9542 0
M  V30 3799 H 366.057 0.577622 -0.351182 0
M  V30 3800 H 368.611 1.32876 -1.5663 0
M  V30 3801 H 366.841 3.77609 -0.833574 0
M  V30 3802 H 368.53 3.86395 -1.24313 0
M  V30 3803 H 369.296 3.20723 -3.63815 0
M  V30 3804 H 365.175 3.82224 -2.57732 0
M  V30 3805 H 368.719 3.52979 -6.01707 0
M  V30 3806 H 364.616 4.14622 -4.94731 0
M  V30 3807 H 365.384 4.2049 -7.02232 0
M  V30 3808 N 368.047 0.979072 1.23499 0
M  V30 3809 C 368.997 0.489378 2.22686 0
M  V30 3810 C 369.981 -0.434871 1.54912 0
M  V30 3811 O 371.173 -0.263941 1.75021 0
M  V30 3812 C 368.302 -0.208178 3.42668 0
M  V30 3813 C 367.388 0.735563 4.17672 0
M  V30 3814 N 367.779 1.87763 4.69658 0
M  V30 3815 C 366.077 0.548625 4.42613 0
M  V30 3816 C 366.778 2.46886 5.26709 0
M  V30 3817 N 365.754 1.75287 5.14563 0
M  V30 3818 H 369.556 1.36062 2.60508 0
M  V30 3819 H 367.07 0.83958 1.39014 0
M  V30 3820 H 369.067 -0.576295 4.12898 0
M  V30 3821 H 367.727 -1.07572 3.06363 0
M  V30 3822 H 368.738 2.25885 4.66043 0
M  V30 3823 H 365.415 -0.274006 4.166 0
M  V30 3824 H 366.805 3.43326 5.77561 0
M  V30 3825 N 369.525 -1.3858 0.750561 0
M  V30 3826 C 370.771 -2.0095 0.31477 0
M  V30 3827 C 371.126 -1.58509 -1.09053 0
M  V30 3828 O 370.419 -0.8112 -1.7358 0
M  V30 3829 C 370.613 -3.55455 0.372373 0
M  V30 3830 C 370.442 -4.12898 1.78173 0
M  V30 3831 C 369.212 -4.44797 2.39757 0
M  V30 3832 C 371.41 -4.35366 2.7379 0
M  V30 3833 N 369.392 -4.87831 3.72685 0
M  V30 3834 C 370.763 -4.80775 3.91478 0
M  V30 3835 C 372.818 -4.1746 2.71351 0
M  V30 3836 C 371.521 -5.10155 5.07084 0
M  V30 3837 C 373.547 -4.47963 3.86113 0
M  V30 3838 C 372.909 -4.93593 5.02539 0
M  V30 3839 H 369.008 -0.765083 0.161776 0
M  V30 3840 H 371.592 -1.68246 0.979867 0
M  V30 3841 H 369.763 -3.87512 -0.26244 0
M  V30 3842 H 371.495 -4.04614 -0.0834479 0
M  V30 3843 H 368.25 -4.33135 1.91548 0
M  V30 3844 H 368.674 -5.13685 4.40972 0
M  V30 3845 H 373.316 -3.81372 1.82524 0
M  V30 3846 H 371.034 -5.45141 5.96529 0
M  V30 3847 H 374.62 -4.35717 3.85542 0
M  V30 3848 H 373.5 -5.16746 5.89867 0
M  V30 3849 N 371.003 -0.499398 -1.49478 0
M  V30 3850 C 371.913 0.284489 -2.32869 0
M  V30 3851 C 372.929 0.968885 -1.44529 0
M  V30 3852 O 374.105 0.95062 -1.77553 0
M  V30 3853 C 371.17 1.33594 -3.19928 0
M  V30 3854 C 370.231 0.665149 -4.24116 0
M  V30 3855 C 369.464 1.6665 -5.07014 0
M  V30 3856 O 369.687 2.89618 -4.91404 0
M  V30 3857 O 368.621 1.22271 -5.8935 0
M  V30 3858 H 372.447 -0.39802 -3.01081 0
M  V30 3859 H 370.032 -0.260758 -1.47107 0
M  V30 3860 H 371.914 1.94431 -3.73864 0
M  V30 3861 H 370.589 2.0014 -2.54412 0
M  V30 3862 H 369.496 0.0170769 -3.74096 0
M  V30 3863 H 370.829 0.0421555 -4.92182 0
M  V30 3864 N 372.481 1.55866 -0.233164 0
M  V30 3865 C 373.431 2.17442 0.685774 0
M  V30 3866 C 374.415 1.12617 1.14918 0
M  V30 3867 O 375.607 1.3857 1.10124 0
M  V30 3868 C 372.736 2.86685 1.88856 0
M  V30 3869 C 371.822 3.98749 1.4443 0
M  V30 3870 N 372.213 5.00744 0.713364 0
M  V30 3871 C 370.511 4.11052 1.73068 0
M  V30 3872 C 371.212 5.79673 0.485205 0
M  V30 3873 N 370.188 5.33454 1.04536 0
M  V30 3874 H 373.99 2.93659 0.119022 0
M  V30 3875 H 371.504 1.62362 -0.0348995 0
M  V30 3876 H 373.501 3.29218 2.55776 0
M  V30 3877 H 372.161 2.11967 2.45967 0
M  V30 3878 H 373.172 5.16613 0.364861 0
M  V30 3879 H 369.849 3.47495 2.31416 0
M  V30 3880 H 371.239 6.71829 -0.097365 0
M  V30 3881 N 373.959 -0.0401083 1.57549 0
M  V30 3882 C 375.236 -0.767917 1.79896 0
M  V30 3883 C 375.616 -1.9416 0.82856 0
M  V30 3884 O 374.964 -2.2812 -0.131671 0
M  V30 3885 C 375.174 -1.2113 3.27305 0
M  V30 3886 C 376.522 -1.63175 3.91994 0
M  V30 3887 O 377.546 -1.30616 3.31388 0
M  V30 3888 O 376.405 -2.23565 4.98679 0
M  V30 3889 H 373.499 -0.370441 0.739393 0
M  V30 3890 H 376.045 -0.017737 1.69691 0
M  V30 3891 H 374.817 -0.372937 3.89519 0
M  V30 3892 H 374.44 -2.02183 3.42356 0
M  V30 3893 N 375.437 -1.54477 -0.31217 0
M  V30 3894 C 376.683 -1.73483 -1.0503 0
M  V30 3895 C 377.016 -0.513125 -1.87298 0
M  V30 3896 O 376.291 0.489864 -1.8823 0
M  V30 3897 C 376.574 -3.01723 -1.96558 0
M  V30 3898 C 376.427 -4.3417 -1.17545 0
M  V30 3899 C 377.746 -3.25772 -2.95907 0
M  V30 3900 H 374.865 -0.631222 -0.380432 0
M  V30 3901 H 377.507 -1.87184 -0.325932 0
M  V30 3902 H 375.657 -2.90174 -2.58324 0
M  V30 3903 H 377.329 -4.5762 -0.581513 0
M  V30 3904 H 375.572 -4.31159 -0.477925 0
M  V30 3905 H 376.243 -5.20143 -1.84811 0
M  V30 3906 H 378.719 -3.36857 -2.44267 0
M  V30 3907 H 377.595 -4.16838 -3.57123 0
M  V30 3908 H 377.856 -2.43537 -3.68974 0
M  V30 3909 N 376.915 0.57481 -1.46744 0
M  V30 3910 C 378.14 1.36341 -1.56288 0
M  V30 3911 C 378.565 1.86954 -0.207347 0
M  V30 3912 O 377.923 1.62006 0.813871 0
M  V30 3913 C 377.971 2.52147 -2.57787 0
M  V30 3914 O 377.075 3.53834 -2.11838 0
M  V30 3915 H 376.416 0.405713 -0.525636 0
M  V30 3916 H 378.946 0.696453 -1.92382 0
M  V30 3917 H 378.956 2.98958 -2.77648 0
M  V30 3918 H 377.631 2.14663 -3.5622 0
M  V30 3919 H 376.208 3.1345 -2.01999 0
M  V30 3920 N 378.394 1.34581 0.820102 0
M  V30 3921 C 379.81 1.14325 1.11364 0
M  V30 3922 C 380.01 -0.0533648 2.01429 0
M  V30 3923 O 379.066 -0.728044 2.41776 0
M  V30 3924 C 380.379 2.43983 1.75764 0
M  V30 3925 C 381.927 2.50065 1.88246 0
M  V30 3926 C 382.402 3.79732 2.56061 0
M  V30 3927 N 383.893 3.80908 2.63558 0
M  V30 3928 C 384.628 4.77961 3.16766 0
M  V30 3929 N 384.124 5.85397 3.70517 0
M  V30 3930 N 385.917 4.65413 3.15194 0
M  V30 3931 H 378.068 2.11246 0.221096 0
M  V30 3932 H 380.331 0.934289 0.160649 0
M  V30 3933 H 380.037 3.31651 1.1705 0
M  V30 3934 H 379.911 2.57531 2.75604 0
M  V30 3935 H 382.298 1.62834 2.46108 0
M  V30 3936 H 382.379 2.40442 0.873006 0
M  V30 3937 H 382.023 4.67354 1.98853 0
M  V30 3938 H 381.953 3.86639 3.57516 0
M  V30 3939 H 384.444 3.03274 2.25463 0
M  V30 3940 H 384.757 6.55463 4.09376 0
M  V30 3941 H 383.102 5.89107 3.68752 0
M  V30 3942 H 386.293 3.80627 2.72471 0
M  V30 3943 H 386.466 5.41216 3.56356 0
M  V30 3944 N 379.872 -1.04064 1.18357 0
M  V30 3945 C 380.819 -2.12077 0.910603 0
M  V30 3946 C 381.789 -1.65421 -0.15 0
M  V30 3947 O 382.974 -1.90797 -0.0103614 0
M  V30 3948 C 380.114 -3.42252 0.442472 0
M  V30 3949 C 379.227 -4.0252 1.5685 0
M  V30 3950 C 378.362 -5.20657 1.05309 0
M  V30 3951 C 377.401 -5.72955 2.1538 0
M  V30 3952 N 376.538 -6.8238 1.65233 0
M  V30 3953 H 381.378 -2.34764 1.83548 0
M  V30 3954 H 378.915 -1.15157 0.915279 0
M  V30 3955 H 380.873 -4.16921 0.152534 0
M  V30 3956 H 379.503 -3.19712 -0.445428 0
M  V30 3957 H 378.555 -3.25178 1.97391 0
M  V30 3958 H 379.867 -4.37362 2.39824 0
M  V30 3959 H 379.021 -6.0244 0.717677 0
M  V30 3960 H 377.76 -4.87318 0.19293 0
M  V30 3961 H 376.765 -4.89793 2.49766 0
M  V30 3962 H 377.99 -6.08337 3.01832 0
M  V30 3963 H 375.936 -6.50917 0.815064 0
M  V30 3964 H 375.853 -7.16286 2.41805 0
M  V30 3965 H 377.121 -7.67788 1.34619 0
M  V30 3966 N 381.35 -0.985608 -1.22978 0
M  V30 3967 C 382.575 -0.675254 -1.961 0
M  V30 3968 C 383 0.752154 -1.72407 0
M  V30 3969 O 382.358 1.5131 -0.998751 0
M  V30 3970 C 382.406 -0.977899 -3.47087 0
M  V30 3971 O 381.51 -0.072685 -4.12336 0
M  V30 3972 H 380.851 -0.253443 -0.613728 0
M  V30 3973 H 383.381 -1.32061 -1.56272 0
M  V30 3974 H 383.391 -0.916739 -3.97567 0
M  V30 3975 H 382.066 -2.01807 -3.63657 0
M  V30 3976 H 380.643 -0.188703 -3.72422 0
M  V30 3977 N 382.828 1.3818 -0.7579 0
M  V30 3978 C 384.076 1.99624 -0.315361 0
M  V30 3979 C 384.397 1.60464 1.10799 0
M  V30 3980 O 383.667 0.863507 1.75842 0
M  V30 3981 H 382.247 0.73831 -0.113611 0
M  V30 3982 H 384.909 1.68878 -0.972952 0
M  V30 3983 H 384.005 3.09754 -0.381931 0
M  V30 3984 N 384.306 0.507319 1.49211 0
M  V30 3985 C 385.553 -0.0349529 2.0247 0
M  V30 3986 C 385.881 -1.36409 1.38647 0
M  V30 3987 O 385.136 -1.88841 0.513566 0
M  V30 3988 C 385.435 -0.229513 3.56662 0
M  V30 3989 C 385.101 1.02241 4.39156 0
M  V30 3990 C 383.763 1.36557 4.61417 0
M  V30 3991 C 386.115 1.85428 4.871 0
M  V30 3992 C 383.443 2.53999 5.28868 0
M  V30 3993 C 385.795 3.02028 5.55843 0
M  V30 3994 C 384.459 3.36717 5.76349 0
M  V30 3995 H 383.729 -0.0127902 0.74089 0
M  V30 3996 H 386.376 0.668756 1.79443 0
M  V30 3997 H 384.681 -1.0158 3.78403 0
M  V30 3998 H 386.378 -0.663641 3.9547 0
M  V30 3999 H 382.968 0.745124 4.22073 0
M  V30 4000 H 387.152 1.6023 4.69723 0
M  V30 4001 H 382.408 2.81105 5.42946 0
M  V30 4002 H 386.582 3.66808 5.91967 0
M  V30 4003 H 384.209 4.27821 6.28389 0
M  V30 4004 N 385.784 -1.5574 0.241426 0
M  V30 4005 C 387.03 -1.99104 -0.385406 0
M  V30 4006 C 387.363 -1.1293 -1.57988 0
M  V30 4007 O 386.638 -0.191449 -1.93555 0
M  V30 4008 C 386.921 -3.51087 -0.800616 0
M  V30 4009 C 386.774 -4.48028 0.398874 0
M  V30 4010 C 388.093 -4.08015 -1.64959 0
M  V30 4011 H 385.212 -0.723848 -0.138614 0
M  V30 4012 H 387.854 -1.86903 0.341642 0
M  V30 4013 H 386.004 -3.61615 -1.4201 0
M  V30 4014 H 387.676 -4.49487 1.03726 0
M  V30 4015 H 385.919 -4.21077 1.04293 0
M  V30 4016 H 386.59 -5.51962 0.0651056 0
M  V30 4017 H 389.066 -4.00555 -1.12672 0
M  V30 4018 H 387.942 -5.14635 -1.90898 0
M  V30 4019 H 388.203 -3.56131 -2.61961 0
M  V30 4020 N 387.262 0.0317525 -1.57568 0
M  V30 4021 C 388.225 1.01783 -2.0536 0
M  V30 4022 C 389.225 1.29203 -0.957253 0
M  V30 4023 O 390.415 1.24251 -1.22095 0
M  V30 4024 C 387.547 2.35137 -2.46827 0
M  V30 4025 H 388.74 0.605062 -2.93733 0
M  V30 4026 H 386.293 0.278514 -1.53799 0
M  V30 4027 H 387.028 2.81168 -1.61602 0
M  V30 4028 H 386.813 2.16566 -3.26866 0
M  V30 4029 H 388.303 3.05938 -2.84239 0
M  V30 4030 N 388.74 1.54641 0.303973 0
M  V30 4031 C 389.703 1.84646 1.35789 0
M  V30 4032 C 390.703 0.7192 1.4382 0
M  V30 4033 O 391.893 0.987491 1.43507 0
M  V30 4034 C 389.025 2.02407 2.74307 0
M  V30 4035 H 390.218 2.78829 1.10429 0
M  V30 4036 H 387.771 1.46658 0.540487 0
M  V30 4037 H 388.506 1.10502 3.04893 0
M  V30 4038 H 388.291 2.84453 2.69868 0
M  V30 4039 H 389.781 2.27002 3.50514 0
M  V30 4040 N 390.218 -0.567019 1.47046 0
M  V30 4041 C 391.465 -1.32462 1.53167 0
M  V30 4042 C 391.793 -1.93571 0.189841 0
M  V30 4043 O 391.048 -1.77865 -0.816243 0
M  V30 4044 C 391.347 -2.4623 2.59047 0
M  V30 4045 C 391.013 -2.03014 4.02612 0
M  V30 4046 C 389.675 -1.90944 4.41694 0
M  V30 4047 C 392.027 -1.69895 4.92732 0
M  V30 4048 C 389.355 -1.44035 5.68745 0
M  V30 4049 C 391.707 -1.2446 6.20236 0
M  V30 4050 C 390.371 -1.10979 6.5821 0
M  V30 4051 H 389.641 -0.484713 0.560477 0
M  V30 4052 H 392.288 -0.636888 1.80599 0
M  V30 4053 H 390.593 -3.20517 2.25335 0
M  V30 4054 H 392.29 -3.04427 2.61008 0
M  V30 4055 H 388.88 -2.13348 3.71726 0
M  V30 4056 H 393.064 -1.78098 4.63244 0
M  V30 4057 H 388.32 -1.32254 5.96925 0
M  V30 4058 H 392.494 -0.978924 6.89485 0
M  V30 4059 H 390.121 -0.744078 7.5655 0
M  V30 4060 N 391.696 -1.35014 -0.812953 0
M  V30 4061 C 392.659 -1.27292 -1.90602 0
M  V30 4062 C 393.659 -0.185817 -1.59723 0
M  V30 4063 O 394.849 -0.439102 -1.68575 0
M  V30 4064 C 391.981 -0.967676 -3.26877 0
M  V30 4065 H 393.174 -2.24479 -1.9887 0
M  V30 4066 H 390.727 -1.19446 -1.00808 0
M  V30 4067 H 391.462 0.0005954 -3.243 0
M  V30 4068 H 391.247 -1.75412 -3.50675 0
M  V30 4069 H 392.737 -0.939085 -4.06904 0
M  V30 4070 N 393.175 1.03435 -1.18907 0
M  V30 4071 C 394.107 2.1165 -0.879595 0
M  V30 4072 C 395.12 1.62316 0.125439 0
M  V30 4073 O 396.309 1.78201 -0.103245 0
M  V30 4074 C 393.409 3.37622 -0.294042 0
M  V30 4075 C 392.582 4.16166 -1.34629 0
M  V30 4076 C 391.641 5.20457 -0.775274 0
M  V30 4077 O 390.667 5.50379 -1.4516 0
M  V30 4078 N 391.869 5.78949 0.424126 0
M  V30 4079 H 394.634 2.38791 -1.81105 0
M  V30 4080 H 392.195 1.19681 -1.09032 0
M  V30 4081 H 394.187 4.04572 0.101679 0
M  V30 4082 H 392.757 3.07873 0.541575 0
M  V30 4083 H 391.977 3.44444 -1.91707 0
M  V30 4084 H 393.265 4.65432 -2.05549 0
M  V30 4085 H 392.663 5.56948 0.991209 0
M  V30 4086 H 391.22 6.47334 0.761691 0
M  V30 4087 N 394.653 0.992116 1.22453 0
M  V30 4088 C 395.881 0.685944 1.95198 0
M  V30 4089 C 396.296 -0.749233 1.73297 0
M  V30 4090 O 395.653 -1.50549 1.03156 0
M  V30 4091 C 395.704 0.981395 3.47924 0
M  V30 4092 O 395.425 2.36018 3.6909 0
M  V30 4093 C 396.926 0.692815 4.37853 0
M  V30 4094 H 394.146 0.253821 0.621141 0
M  V30 4095 H 396.69 1.32668 1.55626 0
M  V30 4096 H 394.845 0.386481 3.85467 0
M  V30 4097 H 395.259 2.45884 4.63294 0
M  V30 4098 H 396.733 0.949818 5.43767 0
M  V30 4099 H 397.21 -0.373181 4.37612 0
M  V30 4100 H 397.816 1.26874 4.05935 0
M  V30 4101 N 396.131 -1.37776 0.765217 0
M  V30 4102 C 397.079 -2.32209 0.134798 0
M  V30 4103 C 398.073 -1.54607 -0.692315 0
M  V30 4104 O 399.279 -1.70052 -0.590109 0
M  V30 4105 H 395.654 -0.751591 0.0248005 0
M  V30 4106 H 397.625 -2.8297 0.947119 0
M  V30 4107 C 396.374 -3.39841 -0.735063 0
M  V30 4108 H 395.697 -3.99654 -0.107991 0
M  V30 4109 H 397.137 -4.08296 -1.14326 0
M  V30 4110 C 395.596 -2.79378 -1.88281 0
M  V30 4111 O 396.126 -2.69608 -2.97783 0
M  V30 4112 N 394.332 -2.37016 -1.68142 0
M  V30 4113 H 393.879 -2.45162 -0.790772 0
M  V30 4114 H 393.837 -1.96905 -2.45104 0
M  V30 4115 N 397.609 -0.515225 -1.4894 0
M  V30 4116 C 398.572 0.244681 -2.2789 0
M  V30 4117 C 399.572 0.881166 -1.34507 0
M  V30 4118 O 400.762 0.743497 -1.57537 0
M  V30 4119 C 397.894 1.35247 -3.12923 0
M  V30 4120 H 399.087 -0.448289 -2.96531 0
M  V30 4121 H 396.64 -0.270656 -1.53939 0
M  V30 4122 H 397.375 2.07916 -2.48881 0
M  V30 4123 H 397.16 0.901374 -3.81599 0
M  V30 4124 H 398.65 1.88737 -3.72516 0
M  V30 4125 N 399.087 1.5561 -0.249682 0
M  V30 4126 C 400.335 1.98618 0.373548 0
M  V30 4127 C 400.656 1.13919 1.58264 0
M  V30 4128 O 399.926 0.222637 1.94631 0
M  V30 4129 H 398.506 0.733571 0.141006 0
M  V30 4130 H 401.168 1.91748 -0.349117 0
M  V30 4131 H 400.264 3.04584 0.680796 0
M  V30 4132 N 400.565 -0.0233959 1.57583 0
M  V30 4133 C 401.513 -1.04063 2.08023 0
M  V30 4134 C 402.507 -1.37084 0.995204 0
M  V30 4135 O 403.713 -1.35923 1.18004 0
M  V30 4136 H 400.088 -0.353144 0.663922 0
M  V30 4137 H 402.059 -0.589453 2.9252 0
M  V30 4138 C 400.808 -2.33123 2.57971 0
M  V30 4139 H 400.131 -2.08577 3.4108 0
M  V30 4140 H 401.571 -3.02632 2.96967 0
M  V30 4141 C 400.03 -3.02483 1.48342 0
M  V30 4142 O 400.56 -3.92541 0.852898 0
M  V30 4143 N 398.766 -2.63909 1.21658 0
M  V30 4144 H 398.313 -1.90758 1.73116 0
M  V30 4145 H 398.271 -3.10633 0.485218 0
M  V30 4146 N 402.043 -1.548 -0.295768 0
M  V30 4147 C 402.973 -1.89115 -1.36959 0
M  V30 4148 C 403.954 -0.75059 -1.52644 0
M  V30 4149 O 405.139 -1.00678 -1.66065 0
M  V30 4150 C 402.269 -2.14307 -2.73295 0
M  V30 4151 C 401.223 -3.30151 -2.72368 0
M  V30 4152 C 400.549 -3.40772 -4.12042 0
M  V30 4153 C 401.849 -4.67126 -2.33646 0
M  V30 4154 H 403.543 -2.79053 -1.08488 0
M  V30 4155 H 401.089 -1.34266 -0.520443 0
M  V30 4156 H 403.042 -2.36898 -3.48507 0
M  V30 4157 H 401.766 -1.21145 -3.03301 0
M  V30 4158 H 400.425 -3.0749 -1.99613 0
M  V30 4159 H 400.073 -2.45117 -4.39234 0
M  V30 4160 H 399.773 -4.18645 -4.12322 0
M  V30 4161 H 401.297 -3.6563 -4.89027 0
M  V30 4162 H 402.711 -4.89414 -2.98575 0
M  V30 4163 H 401.108 -5.47751 -2.45129 0
M  V30 4164 H 402.178 -4.67489 -1.28772 0
M  V30 4165 N 403.521 0.559213 -1.47345 0
M  V30 4166 C 404.746 1.34676 -1.57725 0
M  V30 4167 C 405.171 1.86723 -0.227164 0
M  V30 4168 O 404.529 1.6286 0.796642 0
M  V30 4169 C 404.577 2.49399 -2.60447 0
M  V30 4170 O 403.681 3.51567 -2.15578 0
M  V30 4171 H 403.022 0.400115 -0.52991 0
M  V30 4172 H 405.552 0.676009 -1.93109 0
M  V30 4173 H 405.562 2.95996 -2.80803 0
M  V30 4174 H 404.237 2.10873 -3.58477 0
M  V30 4175 H 402.814 3.11289 -2.05313 0
M  V30 4176 N 404.999 1.35443 0.805782 0
M  V30 4177 C 406.41 1.25768 1.37983 0
M  V30 4178 C 406.761 -0.10958 1.95894 0
M  V30 4179 O 405.886 -1.01056 1.91355 0
M  V30 4180 C 406.481 2.27727 2.5085 0
M  V30 4181 C 405.04 2.2179 3.04115 0
M  V30 4182 C 404.187 2.13393 1.77084 0
M  V30 4183 H 407.138 1.4656 0.608752 0
M  V30 4184 H 407.159 1.90422 3.29424 0
M  V30 4185 H 406.671 3.27227 2.08671 0
M  V30 4186 H 404.772 1.25703 3.50756 0
M  V30 4187 H 404.885 3.13788 3.62042 0
M  V30 4188 H 403.249 1.59384 1.98668 0
M  V30 4189 H 404.032 3.14755 1.37056 0
M  V30 4190 N 406.477 -1.02803 1.19454 0
M  V30 4191 C 407.425 -2.13213 0.929673 0
M  V30 4192 C 408.419 -1.69011 -0.114806 0
M  V30 4193 O 409.625 -1.79967 0.0345147 0
M  V30 4194 H 406 -0.69662 0.28324 0
M  V30 4195 H 407.971 -2.32744 1.86743 0
M  V30 4196 C 406.72 -3.4429 0.485797 0
M  V30 4197 H 406.043 -3.7872 1.28105 0
M  V30 4198 H 407.483 -4.22638 0.339582 0
M  V30 4199 C 405.942 -3.27258 -0.800244 0
M  V30 4200 O 406.472 -3.55967 -1.86146 0
M  V30 4201 N 404.678 -2.80545 -0.75781 0
M  V30 4202 H 404.225 -2.57382 0.106039 0
M  V30 4203 H 404.183 -2.6953 -1.61867 0
M  V30 4204 N 407.956 -0.998596 -1.21925 0
M  V30 4205 C 408.886 -0.573688 -2.26343 0
M  V30 4206 C 409.867 0.402296 -1.65274 0
M  V30 4207 O 411.052 0.291683 -1.91997 0
M  V30 4208 C 408.182 0.106839 -3.47136 0
M  V30 4209 C 407.136 -0.788269 -4.20678 0
M  V30 4210 C 406.462 0.0254927 -5.34694 0
M  V30 4211 C 407.762 -2.08784 -4.78755 0
M  V30 4212 H 409.456 -1.44651 -2.62138 0
M  V30 4213 H 407.002 -0.696975 -1.26009 0
M  V30 4214 H 408.955 0.415531 -4.19346 0
M  V30 4215 H 407.679 1.01424 -3.10452 0
M  V30 4216 H 406.338 -1.08069 -3.50309 0
M  V30 4217 H 405.986 0.933989 -4.94253 0
M  V30 4218 H 405.686 -0.570437 -5.84825 0
M  V30 4219 H 407.21 0.328147 -6.09718 0
M  V30 4220 H 408.624 -1.84272 -5.42878 0
M  V30 4221 H 407.021 -2.63307 -5.39249 0
M  V30 4222 H 408.091 -2.76284 -3.98491 0
M  V30 4223 N 409.434 1.37368 -0.772513 0
M  V30 4224 C 410.382 2.32134 -0.147111 0
M  V30 4225 C 411.376 1.54972 0.684106 0
M  V30 4226 O 412.582 1.70363 0.581083 0
M  V30 4227 H 408.957 0.751449 -0.028786 0
M  V30 4228 H 410.928 2.82464 -0.962112 0
M  V30 4229 C 409.677 3.40226 0.71703 0
M  V30 4230 H 409 3.99706 0.0867951 0
M  V30 4231 H 410.44 4.08897 1.12159 0
M  V30 4232 C 408.899 2.80372 1.86797 0
M  V30 4233 O 409.429 2.71183 2.96349 0
M  V30 4234 N 407.635 2.37904 1.66883 0
M  V30 4235 H 407.182 2.45578 0.777759 0
M  V30 4236 H 407.14 1.98202 2.44056 0
M  V30 4237 N 410.912 0.523116 1.48665 0
M  V30 4238 C 411.842 -0.23231 2.32342 0
M  V30 4239 C 412.823 -0.941637 1.41659 0
M  V30 4240 O 414.008 -0.928751 1.70552 0
M  V30 4241 C 411.138 -1.28387 3.22698 0
M  V30 4242 C 410.092 -0.693098 4.22351 0
M  V30 4243 C 409.418 -1.8468 5.01794 0
M  V30 4244 C 410.718 0.33063 5.21252 0
M  V30 4245 H 412.412 0.466192 2.95748 0
M  V30 4246 H 409.958 0.225643 1.42221 0
M  V30 4247 H 411.911 -1.82024 3.80059 0
M  V30 4248 H 410.635 -2.01186 2.57278 0
M  V30 4249 H 409.294 -0.178299 3.66166 0
M  V30 4250 H 408.942 -2.56301 4.32804 0
M  V30 4251 H 408.642 -1.45747 5.69238 0
M  V30 4252 H 410.166 -2.38709 5.62006 0
M  V30 4253 H 411.58 -0.118407 5.73178 0
M  V30 4254 H 409.977 0.636974 5.9671 0
M  V30 4255 H 411.047 1.23883 4.68808 0
M  V30 4256 N 412.39 -1.55475 0.257931 0
M  V30 4257 C 413.337 -2.21837 -0.636939 0
M  V30 4258 C 414.307 -1.18596 -1.16294 0
M  V30 4259 O 415.492 -1.47081 -1.21539 0
M  V30 4260 C 412.632 -2.9301 -1.82317 0
M  V30 4261 C 411.745 -4.10931 -1.33265 0
M  V30 4262 C 410.88 -4.69791 -2.47931 0
M  V30 4263 C 409.919 -5.7994 -1.95796 0
M  V30 4264 N 409.056 -6.32935 -3.0387 0
M  V30 4265 H 413.896 -2.9793 -0.0643591 0
M  V30 4266 H 411.433 -1.47086 -0.0200031 0
M  V30 4267 H 413.391 -3.3248 -2.52018 0
M  V30 4268 H 412.021 -2.1937 -2.36805 0
M  V30 4269 H 411.073 -3.76699 -0.52931 0
M  V30 4270 H 412.385 -4.90417 -0.910654 0
M  V30 4271 H 411.539 -5.11892 -3.25656 0
M  V30 4272 H 410.278 -3.89545 -2.93438 0
M  V30 4273 H 409.283 -5.37305 -1.16546 0
M  V30 4274 H 410.508 -6.62043 -1.51246 0
M  V30 4275 H 408.454 -5.55591 -3.48791 0
M  V30 4276 H 408.371 -7.07645 -2.66035 0
M  V30 4277 H 409.639 -6.79695 -3.81621 0
M  V30 4278 N 413.868 0.0150385 -1.57593 0
M  V30 4279 C 415.279 0.559832 -1.78109 0
M  V30 4280 C 415.63 1.74814 -0.890756 0
M  V30 4281 O 414.755 2.16216 -0.0892482 0
M  V30 4282 C 415.35 1.02238 -3.23006 0
M  V30 4283 C 413.909 1.51258 -3.44671 0
M  V30 4284 C 413.056 0.456955 -2.73509 0
M  V30 4285 H 416.007 -0.211169 -1.57289 0
M  V30 4286 H 416.028 1.88912 -3.30292 0
M  V30 4287 H 415.54 0.157302 -3.87781 0
M  V30 4288 H 413.641 2.39905 -2.8509 0
M  V30 4289 H 413.754 1.55042 -4.5332 0
M  V30 4290 H 412.118 0.915196 -2.37689 0
M  V30 4291 H 412.901 -0.398896 -3.40975 0
M  V30 4292 N 415.346 1.54954 0.287554 0
M  V30 4293 C 416.594 1.74528 1.01904 0
M  V30 4294 C 416.915 0.541349 1.87335 0
M  V30 4295 O 416.185 -0.444108 1.908 0
M  V30 4296 H 414.765 0.643576 0.379235 0
M  V30 4297 H 417.427 1.92333 0.315294 0
M  V30 4298 H 416.523 2.64015 1.6644 0
M  V30 4299 N 416.824 -0.551391 1.4764 0
M  V30 4300 C 418.049 -1.33837 1.58437 0
M  V30 4301 C 418.474 -1.866 0.237063 0
M  V30 4302 O 417.832 -1.6328 -0.787994 0
M  V30 4303 C 417.88 -2.48014 2.61766 0
M  V30 4304 O 416.984 -3.50419 2.1744 0
M  V30 4305 H 416.325 -0.397299 0.532024 0
M  V30 4306 H 418.855 -0.665759 1.93465 0
M  V30 4307 H 418.865 -2.94503 2.82369 0
M  V30 4308 H 417.54 -2.08969 3.5959 0
M  V30 4309 H 416.117 -3.10196 2.06961 0
M  V30 4310 N 418.302 -1.35869 -0.798587 0
M  V30 4311 C 419.55 -1.29332 -1.55298 0
M  V30 4312 C 419.871 0.129729 -1.94568 0
M  V30 4313 O 419.141 1.06796 -1.6423 0
M  V30 4314 H 417.721 -0.475737 -0.57592 0
M  V30 4315 H 420.383 -1.70062 -0.952093 0
M  V30 4316 H 419.479 -1.91458 -2.46476 0
M  V30 4317 N 419.78 1.02168 -1.19998 0
M  V30 4318 C 421.191 1.57135 -1.00825 0
M  V30 4319 C 421.542 1.91276 0.436818 0
M  V30 4320 O 420.667 1.71679 1.3174 0
M  V30 4321 C 421.262 2.85514 -1.82393 0
M  V30 4322 C 419.821 3.37027 -1.67601 0
M  V30 4323 C 418.968 2.10388 -1.80644 0
M  V30 4324 H 421.919 0.846106 -1.34264 0
M  V30 4325 H 421.94 3.56711 -1.32429 0
M  V30 4326 H 421.452 2.60634 -2.87561 0
M  V30 4327 H 419.553 3.66878 -0.650485 0
M  V30 4328 H 419.666 4.09572 -2.4857 0
M  V30 4329 H 418.03 2.22601 -1.23778 0
M  V30 4330 H 418.813 1.8794 -2.87286 0
M  V30 4331 N 421.258 1.00505 1.21394 0
M  V30 4332 C 422.505 0.687774 1.90462 0
M  V30 4333 C 422.833 -0.78147 1.7811 0
M  V30 4334 O 422.088 -1.58208 1.1519 0
M  V30 4335 C 422.387 1.0546 3.41486 0
M  V30 4336 C 422.053 2.51812 3.74034 0
M  V30 4337 C 420.715 2.91804 3.82628 0
M  V30 4338 C 423.067 3.46614 3.8924 0
M  V30 4339 C 420.395 4.2556 4.03876 0
M  V30 4340 C 422.747 4.80044 4.11995 0
M  V30 4341 C 421.411 5.19759 4.18816 0
M  V30 4342 H 420.681 0.251674 0.696951 0
M  V30 4343 H 423.328 1.26349 1.43903 0
M  V30 4344 H 421.633 0.397133 3.89782 0
M  V30 4345 H 423.33 0.786976 3.93202 0
M  V30 4346 H 419.92 2.1982 3.67936 0
M  V30 4347 H 424.104 3.16883 3.81967 0
M  V30 4348 H 419.36 4.55901 4.07387 0
M  V30 4349 H 423.534 5.53439 4.22704 0
M  V30 4350 H 421.161 6.23418 4.35033 0
M  V30 4351 N 422.737 -1.36956 0.779787 0
M  V30 4352 C 424.014 -1.93697 0.272156 0
M  V30 4353 C 424.394 -1.71267 -1.23413 0
M  V30 4354 O 423.742 -1.06607 -2.02107 0
M  V30 4355 C 423.952 -3.42812 0.654291 0
M  V30 4356 C 425.3 -4.19921 0.628602 0
M  V30 4357 O 426.324 -3.51209 0.594172 0
M  V30 4358 O 425.183 -5.42465 0.662864 0
M  V30 4359 H 422.277 -0.824447 0.0649286 0
M  V30 4360 H 424.823 -1.46196 0.861682 0
M  V30 4361 H 423.595 -3.52754 1.69353 0
M  V30 4362 H 423.218 -3.97582 0.0381369 0
M  V30 4363 N 424.215 -0.530993 -1.48385 0
M  V30 4364 C 425.163 0.244595 -2.3131 0
M  V30 4365 C 426.157 0.93451 -1.41291 0
M  V30 4366 O 427.363 0.85878 -1.58193 0
M  V30 4367 H 423.738 0.0977472 -0.74562 0
M  V30 4368 H 425.709 -0.474369 -2.94605 0
M  V30 4369 C 424.458 1.2779 -3.23365 0
M  V30 4370 H 423.781 0.756439 -3.92579 0
M  V30 4371 H 425.221 1.79198 -3.84271 0
M  V30 4372 C 423.68 2.31205 -2.45042 0
M  V30 4373 O 424.21 3.37661 -2.17596 0
M  V30 4374 N 422.416 2.04446 -2.0652 0
M  V30 4375 H 421.963 1.17891 -2.2904 0
M  V30 4376 H 421.921 2.73861 -1.54427 0
M  V30 4377 N 425.693 1.55336 -0.266172 0
M  V30 4378 C 426.603 2.2583 0.635458 0
M  V30 4379 C 427.619 1.28106 1.17749 0
M  V30 4380 O 428.795 1.61024 1.20968 0
M  V30 4381 C 425.86 2.95879 1.80712 0
M  V30 4382 C 424.921 4.09059 1.30265 0
M  V30 4383 C 424.154 4.75759 2.41846 0
M  V30 4384 O 424.377 4.41622 3.61007 0
M  V30 4385 O 423.311 5.63888 2.1051 0
M  V30 4386 H 427.137 3.03631 0.0646693 0
M  V30 4387 H 424.722 1.49361 -0.0339177 0
M  V30 4388 H 426.604 3.39932 2.49047 0
M  V30 4389 H 425.279 2.21002 2.36516 0
M  V30 4390 H 424.186 3.69482 0.586019 0
M  V30 4391 H 425.519 4.85811 0.790458 0
M  V30 4392 N 427.171 -0.0066808 1.57599 0
M  V30 4393 C 428.418 -0.69292 1.90276 0
M  V30 4394 C 428.746 -1.74148 0.866192 0
M  V30 4395 O 428.001 -1.95268 -0.129933 0
M  V30 4396 C 428.3 -1.37939 3.29708 0
M  V30 4397 C 427.966 -0.464679 4.48499 0
M  V30 4398 C 426.628 -0.212809 4.80729 0
M  V30 4399 C 428.98 0.16551 5.20937 0
M  V30 4400 C 426.308 0.677653 5.82773 0
M  V30 4401 C 428.66 1.04381 6.23929 0
M  V30 4402 C 427.324 1.30492 6.54621 0
M  V30 4403 H 426.594 -0.253558 0.696268 0
M  V30 4404 H 429.241 0.0474123 1.91441 0
M  V30 4405 H 427.546 -2.1936 3.24636 0
M  V30 4406 H 429.243 -1.9163 3.52249 0
M  V30 4407 H 425.833 -0.671153 4.23313 0
M  V30 4408 H 430.017 -0.0160756 4.96297 0
M  V30 4409 H 425.273 0.88803 6.04917 0
M  V30 4410 H 429.447 1.53851 6.79193 0
M  V30 4411 H 427.074 1.99662 7.33512 0
M  V30 4412 N 428.649 -1.55105 -0.279332 0
M  V30 4413 C 429.926 -1.66119 -1.03267 0
M  V30 4414 C 430.306 -0.523525 -2.04505 0
M  V30 4415 O 429.654 0.477194 -2.23462 0
M  V30 4416 C 429.864 -3.05067 -1.69515 0
M  V30 4417 C 431.212 -3.62606 -2.20912 0
M  V30 4418 O 432.236 -3.07659 -1.79512 0
M  V30 4419 O 431.095 -4.58861 -2.96831 0
M  V30 4420 H 428.189 -0.674429 -0.478618 0
M  V30 4421 H 430.735 -1.67446 -0.275694 0
M  V30 4422 H 429.507 -3.79311 -0.9612 0
M  V30 4423 H 429.13 -3.07611 -2.51915 0
M  V30 4424 N 430.127 0.543554 -1.4793 0
M  V30 4425 C 431.075 1.67039 -1.61866 0
M  V30 4426 C 432.069 1.62294 -0.48549 0
M  V30 4427 O 433.275 1.67315 -0.66376 0
M  V30 4428 H 429.65 0.552954 -0.509652 0
M  V30 4429 H 431.621 1.52426 -2.56533 0
M  V30 4430 C 430.37 3.05357 -1.6629 0
M  V30 4431 H 429.693 3.09696 -2.5284 0
M  V30 4432 H 431.133 3.83855 -1.80088 0
M  V30 4433 C 429.592 3.34531 -0.398861 0
M  V30 4434 O 430.122 3.98649 0.494162 0
M  V30 4435 N 428.328 2.89299 -0.2747 0
M  V30 4436 H 427.875 2.37298 -1.00236 0
M  V30 4437 H 427.833 3.09188 0.570075 0
M  V30 4438 N 431.605 1.3629 0.791371 0
M  V30 4439 C 432.833 1.33562 1.58016 0
M  V30 4440 C 433.248 -0.0835616 1.88615 0
M  V30 4441 O 432.605 -1.0399 1.49974 0
M  V30 4442 C 432.656 2.15517 2.90232 0
M  V30 4443 O 432.377 3.51902 2.60953 0
M  V30 4444 C 433.878 2.20546 3.84544 0
M  V30 4445 H 431.098 0.458226 0.490173 0
M  V30 4446 H 433.642 1.79361 0.982345 0
M  V30 4447 H 431.797 1.73278 3.46487 0
M  V30 4448 H 432.211 3.94644 3.4548 0
M  V30 4449 H 433.685 2.82252 4.74382 0
M  V30 4450 H 434.162 1.20838 4.2225 0
M  V30 4451 H 434.768 2.63013 3.34222 0
M  V30 4452 N 433.083 -1.0153 1.20538 0
M  V30 4453 C 434.499 -1.27461 0.96051 0
M  V30 4454 C 434.699 -1.98273 -0.359193 0
M  V30 4455 O 433.755 -2.27886 -1.0874 0
M  V30 4456 C 435.068 -2.10837 2.14402 0
M  V30 4457 C 436.616 -2.24099 2.18515 0
M  V30 4458 C 437.091 -3.10852 3.36355 0
M  V30 4459 N 438.582 -3.18441 3.36377 0
M  V30 4460 C 439.317 -3.85795 4.24205 0
M  V30 4461 N 438.813 -4.55264 5.22213 0
M  V30 4462 N 440.606 -3.82331 4.12043 0
M  V30 4463 H 432.757 -0.539907 2.05423 0
M  V30 4464 H 435.02 -0.30092 0.898972 0
M  V30 4465 H 434.726 -1.66144 3.09983 0
M  V30 4466 H 434.6 -3.11576 2.12604 0
M  V30 4467 H 436.987 -2.68016 1.23497 0
M  V30 4468 H 437.068 -1.22865 2.24361 0
M  V30 4469 H 436.712 -2.6764 4.31661 0
M  V30 4470 H 436.642 -4.12177 3.27746 0
M  V30 4471 H 439.133 -2.68978 2.65442 0
M  V30 4472 H 439.446 -5.04331 5.85551 0
M  V30 4473 H 437.791 -4.54085 5.26148 0
M  V30 4474 H 440.982 -3.27207 3.34743 0
M  V30 4475 H 441.155 -4.34547 4.807 0
M  V30 4476 N 434.561 -1.01147 -1.20859 0
M  V30 4477 C 435.471 -0.58686 -2.27141 0
M  V30 4478 C 436.487 0.373198 -1.69951 0
M  V30 4479 O 437.663 0.235423 -2.00019 0
M  V30 4480 C 434.728 0.0733602 -3.46622 0
M  V30 4481 C 433.789 -0.931995 -4.19061 0
M  V30 4482 C 433.022 -0.303186 -5.32838 0
M  V30 4483 O 433.245 0.898395 -5.63281 0
M  V30 4484 O 432.179 -1.01735 -5.9324 0
M  V30 4485 H 436.005 -1.47155 -2.65667 0
M  V30 4486 H 433.59 -0.780689 -1.2738 0
M  V30 4487 H 435.472 0.442333 -4.19072 0
M  V30 4488 H 434.147 0.932329 -3.09983 0
M  V30 4489 H 433.054 -1.35224 -3.48805 0
M  V30 4490 H 434.387 -1.76076 -4.59628 0
M  V30 4491 N 436.039 1.36541 -0.78704 0
M  V30 4492 C 437.288 1.98552 -0.35494 0
M  V30 4493 C 437.601 1.63171 1.07864 0
M  V30 4494 O 438.807 2.18399 1.61289 0
M  V30 4495 C 437.263 3.55136 -0.583671 0
M  V30 4496 C 436.871 3.99444 -2.02851 0
M  V30 4497 C 438.615 4.2395 -0.215957 0
M  V30 4498 C 436.522 5.48796 -2.20403 0
M  V30 4499 H 435.452 0.742888 -0.128972 0
M  V30 4500 H 438.103 1.5587 -0.968337 0
M  V30 4501 H 436.485 3.95875 0.0994046 0
M  V30 4502 H 437.659 3.6991 -2.74779 0
M  V30 4503 H 435.974 3.43459 -2.35425 0
M  V30 4504 H 438.571 5.33709 -0.325405 0
M  V30 4505 H 438.914 4.07827 0.835646 0
M  V30 4506 H 439.447 3.88565 -0.852175 0
M  V30 4507 H 436.186 5.69864 -3.23937 0
M  V30 4508 H 435.706 5.79964 -1.52977 0
M  V30 4509 H 437.385 6.14986 -2.01002 0
M  V30 4510 N 437.518 0.538854 1.48102 0
M  V30 4511 C 438.766 0.00798599 2.02098 0
M  V30 4512 C 439.087 -1.33922 1.41739 0
M  V30 4513 O 438.357 -1.86932 0.585934 0
M  V30 4514 H 436.937 -3.62179e-05 0.747 0
M  V30 4515 H 439.599 0.7047 1.81714 0
M  V30 4516 H 438.695 -0.0937672 3.11959 0
M  V30 4517 N 438.996 -1.55193 0.274407 0
M  V30 4518 C 439.926 -2.25471 -0.607032 0
M  V30 4519 C 440.907 -1.24461 -1.15946 0
M  V30 4520 O 442.092 -1.53179 -1.19373 0
M  V30 4521 C 439.222 -2.97526 -1.79153 0
M  V30 4522 C 438.176 -4.05459 -1.37067 0
M  V30 4523 C 437.502 -4.65084 -2.6382 0
M  V30 4524 C 438.802 -5.19691 -0.521389 0
M  V30 4525 H 440.496 -2.99393 -0.0209343 0
M  V30 4526 H 438.042 -1.43997 -0.00862866 0
M  V30 4527 H 439.995 -3.45402 -2.41404 0
M  V30 4528 H 438.719 -2.21138 -2.40344 0
M  V30 4529 H 437.378 -3.58393 -0.771355 0
M  V30 4530 H 437.026 -3.85365 -3.23268 0
M  V30 4531 H 436.726 -5.37961 -2.36372 0
M  V30 4532 H 438.25 -5.15708 -3.26921 0
M  V30 4533 H 439.664 -5.63623 -1.04889 0
M  V30 4534 H 438.061 -5.99126 -0.341825 0
M  V30 4535 H 439.131 -4.82713 0.46 0
M  V30 4536 N 440.474 -0.00167713 -1.576 0
M  V30 4537 C 441.89 0.354422 -1.55615 0
M  V30 4538 C 442.09 1.74679 -1.00447 0
M  V30 4539 O 441.146 2.4428 -0.639022 0
M  V30 4540 C 442.459 0.22812 -2.99833 0
M  V30 4541 C 444.007 0.302934 -3.11531 0
M  V30 4542 C 444.482 0.205737 -4.57538 0
M  V30 4543 N 445.973 0.263584 -4.62449 0
M  V30 4544 C 446.708 0.211742 -5.73009 0
M  V30 4545 N 446.204 0.110399 -6.92712 0
M  V30 4546 N 447.997 0.263729 -5.61481 0
M  V30 4547 H 440.148 -0.912498 -1.918 0
M  V30 4548 H 442.411 -0.349928 -0.881053 0
M  V30 4549 H 442.117 -0.729934 -3.44042 0
M  V30 4550 H 441.991 1.00951 -3.6344 0
M  V30 4551 H 444.378 1.25143 -2.67251 0
M  V30 4552 H 444.459 -0.508357 -2.50698 0
M  V30 4553 H 444.103 -0.739225 -5.02492 0
M  V30 4554 H 444.033 1.03554 -5.16318 0
M  V30 4555 H 446.524 0.343173 -3.76339 0
M  V30 4556 H 446.837 0.0767828 -7.72762 0
M  V30 4557 H 445.182 0.0760025 -6.94958 0
M  V30 4558 H 448.373 0.34111 -4.66855 0
M  V30 4559 H 448.546 0.219862 -6.47627 0
M  V30 4560 N 441.952 1.55251 0.271103 0
M  V30 4561 C 442.884 1.84675 1.35749 0
M  V30 4562 C 443.897 0.731366 1.45447 0
M  V30 4563 O 445.086 1.00924 1.4723 0
M  V30 4564 C 442.186 1.99638 2.73857 0
M  V30 4565 C 441.359 3.30312 2.86727 0
M  V30 4566 C 440.418 3.35318 4.05522 0
M  V30 4567 O 439.444 4.08682 3.96191 0
M  V30 4568 N 440.646 2.62857 5.17577 0
M  V30 4569 H 443.411 2.78445 1.10853 0
M  V30 4570 H 440.972 1.55191 0.461218 0
M  V30 4571 H 442.964 2.00355 3.51625 0
M  V30 4572 H 441.534 1.12725 2.91568 0
M  V30 4573 H 440.754 3.42118 1.95829 0
M  V30 4574 H 442.042 4.16488 2.92258 0
M  V30 4575 H 441.44 2.02939 5.28046 0
M  V30 4576 H 439.997 2.69295 5.93568 0
M  V30 4577 N 443.43 -0.535701 1.48216 0
M  V30 4578 C 444.677 -1.29183 1.55942 0
M  V30 4579 C 445.005 -1.93125 0.230857 0
M  V30 4580 O 444.26 -1.79556 -0.778331 0
M  V30 4581 C 444.559 -2.4068 2.64212 0
M  V30 4582 C 444.225 -1.94428 4.06827 0
M  V30 4583 C 442.887 -1.81532 4.45645 0
M  V30 4584 C 445.239 -1.59405 4.96225 0
M  V30 4585 C 442.567 -1.31939 5.71672 0
M  V30 4586 C 444.919 -1.11276 6.22736 0
M  V30 4587 C 443.583 -0.969924 6.60416 0
M  V30 4588 H 442.853 -0.472715 0.570632 0
M  V30 4589 H 445.5 -0.598437 1.81909 0
M  V30 4590 H 443.805 -3.15666 2.32083 0
M  V30 4591 H 445.502 -2.98822 2.67407 0
M  V30 4592 H 442.092 -2.05415 3.76168 0
M  V30 4593 H 446.276 -1.68231 4.66917 0
M  V30 4594 H 441.532 -1.19562 5.99596 0
M  V30 4595 H 445.706 -0.832453 6.91407 0
M  V30 4596 H 443.333 -0.583436 7.57958 0
M  V30 4597 N 444.908 -1.36708 -0.784132 0
M  V30 4598 C 445.871 -1.31307 -1.87859 0
M  V30 4599 C 446.871 -0.219654 -1.59293 0
M  V30 4600 O 448.061 -0.47476 -1.67606 0
M  V30 4601 C 445.193 -1.03679 -3.24751 0
M  V30 4602 H 446.386 -2.28647 -1.94064 0
M  V30 4603 H 443.939 -1.21558 -0.98252 0
M  V30 4604 H 444.674 -0.0681936 -3.24228 0
M  V30 4605 H 444.459 -1.82811 -3.46876 0
M  V30 4606 H 445.949 -1.02518 -4.04821 0
M  V30 4607 N 446.386 1.0089 -1.21074 0
M  V30 4608 C 447.333 2.09588 -0.966512 0
M  V30 4609 C 448.303 1.65761 0.106089 0
M  V30 4610 O 449.488 1.90758 -0.0402287 0
M  V30 4611 C 446.628 3.40958 -0.533058 0
M  V30 4612 C 445.741 3.9822 -1.67467 0
M  V30 4613 C 444.876 5.17682 -1.19076 0
M  V30 4614 C 443.915 5.67043 -2.30496 0
M  V30 4615 N 443.052 6.77759 -1.83267 0
M  V30 4616 H 447.892 2.29815 -1.89708 0
M  V30 4617 H 445.429 1.12689 -0.945489 0
M  V30 4618 H 447.387 4.1637 -0.263019 0
M  V30 4619 H 446.017 3.20781 0.360505 0
M  V30 4620 H 445.069 3.1983 -2.05944 0
M  V30 4621 H 446.381 4.3085 -2.51336 0
M  V30 4622 H 445.535 6.00326 -0.877151 0
M  V30 4623 H 444.274 4.86635 -0.322066 0
M  V30 4624 H 443.279 4.82999 -2.62664 0
M  V30 4625 H 444.504 6.00121 -3.17855 0
M  V30 4626 H 442.45 6.48527 -0.987356 0
M  V30 4627 H 442.367 7.09624 -2.60711 0
M  V30 4628 H 443.635 7.63949 -1.54928 0
M  V30 4629 N 447.864 1.01787 1.20321 0
M  V30 4630 C 448.827 0.593972 2.2137 0
M  V30 4631 C 449.827 -0.336553 1.57239 0
M  V30 4632 O 451.017 -0.125069 1.7375 0
M  V30 4633 C 448.149 -0.132433 3.40643 0
M  V30 4634 H 449.342 1.48791 2.60387 0
M  V30 4635 H 446.895 0.807803 1.33807 0
M  V30 4636 H 447.63 -1.04123 3.0713 0
M  V30 4637 H 447.415 0.53605 3.88418 0
M  V30 4638 H 448.905 -0.416314 4.1552 0
M  V30 4639 N 449.342 -1.36122 0.79427 0
M  V30 4640 C 450.572 -2.03067 0.380437 0
M  V30 4641 C 450.98 -1.60018 -1.00949 0
M  V30 4642 O 450.323 -0.787425 -1.65968 0
M  V30 4643 C 450.385 -3.57587 0.37034 0
M  V30 4644 C 450.049 -4.23855 1.70867 0
M  V30 4645 C 451.046 -4.46404 2.66496 0
M  V30 4646 C 448.731 -4.61229 1.9893 0
M  V30 4647 C 450.725 -5.05412 3.88378 0
M  V30 4648 C 448.412 -5.19953 3.21079 0
M  V30 4649 C 449.41 -5.41985 4.15621 0
M  V30 4650 O 449.098 -5.99475 5.35616 0
M  V30 4651 H 448.83 -0.658168 0.154243 0
M  V30 4652 H 451.384 -1.7498 1.0757 0
M  V30 4653 H 449.614 -3.84814 -0.381444 0
M  V30 4654 H 451.303 -4.05895 -0.0194894 0
M  V30 4655 H 452.069 -4.17921 2.46103 0
M  V30 4656 H 447.948 -4.43402 1.26158 0
M  V30 4657 H 451.492 -5.22524 4.62185 0
M  V30 4658 H 447.389 -5.47862 3.41347 0
M  V30 4659 H 448.157 -6.17937 5.36745 0
M  V30 4660 N 450.82 -0.546701 -1.47814 0
M  V30 4661 C 451.73 0.21026 -2.33656 0
M  V30 4662 C 452.746 0.922413 -1.47538 0
M  V30 4663 O 453.922 0.893652 -1.80488 0
M  V30 4664 C 450.987 1.23348 -3.24016 0
M  V30 4665 C 450.048 0.529883 -4.26017 0
M  V30 4666 C 449.281 1.50435 -5.12059 0
M  V30 4667 O 449.504 2.73837 -5.00369 0
M  V30 4668 O 448.438 1.03459 -5.92942 0
M  V30 4669 H 452.264 -0.493605 -2.99662 0
M  V30 4670 H 449.849 -0.307427 -1.46203 0
M  V30 4671 H 451.731 1.82438 -3.79861 0
M  V30 4672 H 450.406 1.91945 -2.60651 0
M  V30 4673 H 449.313 -0.101948 -3.73961 0
M  V30 4674 H 450.646 -0.11445 -4.92067 0
M  V30 4675 N 452.299 1.55045 -0.282633 0
M  V30 4676 C 453.548 1.98938 0.332667 0
M  V30 4677 C 453.861 1.17455 1.56409 0
M  V30 4678 O 455.067 1.51527 2.25282 0
M  V30 4679 C 453.523 3.54105 0.643226 0
M  V30 4680 C 453.131 4.44374 -0.568814 0
M  V30 4681 C 454.875 4.06569 1.22074 0
M  V30 4682 C 452.782 5.90943 -0.232426 0
M  V30 4683 H 451.712 0.743043 0.128075 0
M  V30 4684 H 454.363 1.79341 -0.388464 0
M  V30 4685 H 452.745 3.69532 1.42346 0
M  V30 4686 H 453.919 4.40718 -1.34551 0
M  V30 4687 H 452.234 4.02585 -1.06369 0
M  V30 4688 H 454.831 5.13626 1.48635 0
M  V30 4689 H 455.174 3.56057 2.15707 0
M  V30 4690 H 455.707 3.94612 0.502621 0
M  V30 4691 H 452.446 6.45567 -1.13683 0
M  V30 4692 H 451.966 5.9765 0.507357 0
M  V30 4693 H 453.645 6.4677 0.172657 0
M  V30 4694 N 453.777 0.010035 1.57597 0
M  V30 4695 C 454.74 -0.963029 2.07986 0
M  V30 4696 C 455.74 -1.26619 0.991173 0
M  V30 4697 O 456.93 -1.2097 1.25347 0
M  V30 4698 C 454.062 -2.2851 2.52974 0
M  V30 4699 H 455.255 -0.526971 2.95234 0
M  V30 4700 H 452.808 -0.237639 1.54483 0
M  V30 4701 H 453.543 -2.76784 1.69 0
M  V30 4702 H 453.328 -2.07824 3.32493 0
M  V30 4703 H 454.818 -2.98294 2.9225 0
M  V30 4704 N 455.255 -1.55392 -0.262866 0
M  V30 4705 C 456.503 -1.76127 -0.991147 0
M  V30 4706 C 456.824 -0.571083 -1.8645 0
M  V30 4707 O 456.094 0.413698 -1.91482 0
M  V30 4708 H 454.674 -0.649528 -0.368948 0
M  V30 4709 H 457.336 -1.9281 -0.284655 0
M  V30 4710 H 456.432 -2.6663 -1.62219 0
M  V30 4711 N 456.733 0.527833 -1.48498 0
M  V30 4712 C 457.665 1.6482 -1.5927 0
M  V30 4713 C 458.678 1.55659 -0.476869 0
M  V30 4714 O 459.867 1.62081 -0.747806 0
M  V30 4715 C 456.967 3.0348 -1.50842 0
M  V30 4716 C 456.14 3.381 -2.77502 0
M  V30 4717 C 455.199 4.5605 -2.62497 0
M  V30 4718 O 454.225 4.59165 -3.36387 0
M  V30 4719 N 455.427 5.54353 -1.72257 0
M  V30 4720 H 458.192 1.56015 -2.55889 0
M  V30 4721 H 455.753 0.715152 -1.45249 0
M  V30 4722 H 457.745 3.80264 -1.38496 0
M  V30 4723 H 456.315 3.06352 -0.621887 0
M  V30 4724 H 455.535 2.50473 -3.04396 0
M  V30 4725 H 456.823 3.58017 -3.61527 0
M  V30 4726 H 456.221 5.54617 -1.11431 0
M  V30 4727 H 454.778 6.30347 -1.65849 0
M  V30 4728 N 458.211 1.37122 0.776871 0
M  V30 4729 C 459.174 1.32301 1.8716 0
M  V30 4730 C 460.174 0.228099 1.59174 0
M  V30 4731 O 461.364 0.483642 1.67352 0
M  V30 4732 C 458.496 1.054 3.24197 0
M  V30 4733 H 459.689 2.29673 1.92848 0
M  V30 4734 H 457.242 1.22077 0.97606 0
M  V30 4735 H 457.977 0.0853872 3.24188 0
M  V30 4736 H 457.762 1.84648 3.45901 0
M  V30 4737 H 459.252 1.04664 4.04271 0
M  V30 4738 N 459.689 -1.00246 1.21608 0
M  V30 4739 C 460.621 -2.09244 0.935401 0
M  V30 4740 C 461.634 -1.62592 -0.0823594 0
M  V30 4741 O 462.823 -1.77865 0.150456 0
M  V30 4742 C 459.923 -3.36724 0.383453 0
M  V30 4743 C 459.096 -4.1245 1.45615 0
M  V30 4744 C 458.155 -5.18219 0.912991 0
M  V30 4745 O 457.181 -5.46337 1.59701 0
M  V30 4746 N 458.383 -5.7987 -0.270478 0
M  V30 4747 H 461.148 -2.33905 1.87373 0
M  V30 4748 H 458.709 -1.16748 1.12167 0
M  V30 4749 H 460.701 -4.047 0.00562157 0
M  V30 4750 H 459.271 -3.09201 -0.459758 0
M  V30 4751 H 458.491 -3.39241 2.00772 0
M  V30 4752 H 459.779 -4.59819 2.17817 0
M  V30 4753 H 459.177 -5.59381 -0.843195 0
M  V30 4754 H 457.734 -6.49126 -0.589794 0
M  V30 4755 N 461.167 -1.02423 -1.1978 0
M  V30 4756 C 462.077 -0.610919 -2.26506 0
M  V30 4757 C 463.093 0.355152 -1.70337 0
M  V30 4758 O 464.269 0.214195 -2.00258 0
M  V30 4759 C 461.334 0.0365921 -3.46681 0
M  V30 4760 C 460.395 -0.976389 -4.18049 0
M  V30 4761 C 459.628 -0.359683 -5.32487 0
M  V30 4762 O 459.851 0.838601 -5.64202 0
M  V30 4763 O 458.785 -1.08022 -5.92127 0
M  V30 4764 H 462.611 -1.49965 -2.64091 0
M  V30 4765 H 460.196 -0.794156 -1.26545 0
M  V30 4766 H 462.078 0.39786 -4.19518 0
M  V30 4767 H 460.753 0.899398 -3.10954 0
M  V30 4768 H 459.66 -1.38916 -3.47352 0
M  V30 4769 H 460.993 -1.80941 -4.57735 0
M  V30 4770 N 462.645 1.35699 -0.801477 0
M  V30 4771 C 463.555 2.33661 -0.209691 0
M  V30 4772 C 464.571 1.6162 0.644591 0
M  V30 4773 O 465.747 1.93529 0.557545 0
M  V30 4774 C 462.812 3.40816 0.636033 0
M  V30 4775 C 461.873 4.28639 -0.238147 0
M  V30 4776 C 461.106 5.30676 0.567307 0
M  V30 4777 O 461.329 5.41174 1.8024 0
M  V30 4778 O 460.263 6.01887 -0.0391336 0
M  V30 4779 H 464.089 2.8606 -1.01996 0
M  V30 4780 H 461.674 1.38379 -0.563164 0
M  V30 4781 H 463.556 4.06301 1.11791 0
M  V30 4782 H 462.231 2.90696 1.42399 0
M  V30 4783 H 461.138 3.66152 -0.767044 0
M  V30 4784 H 462.471 4.82143 -0.989915 0
M  V30 4785 N 464.123 0.554532 1.47522 0
M  V30 4786 C 465.369 0.0295227 2.02779 0
M  V30 4787 C 465.702 -1.31582 1.42828 0
M  V30 4788 O 464.977 -1.85561 0.582872 0
M  V30 4789 C 465.26 -0.0664057 3.60039 0
M  V30 4790 C 465.113 1.30585 4.30427 0
M  V30 4791 C 466.432 -0.781162 4.33112 0
M  V30 4792 H 463.551 0.0122027 0.736899 0
M  V30 4793 H 466.193 0.716305 1.7598 0
M  V30 4794 H 464.343 -0.651307 3.83002 0
M  V30 4795 H 466.015 1.93374 4.18813 0
M  V30 4796 H 464.258 1.88125 3.90886 0
M  V30 4797 H 464.929 1.19147 5.38988 0
M  V30 4798 H 467.405 -0.284565 4.15126 0
M  V30 4799 H 466.281 -0.817237 5.42782 0
M  V30 4800 H 466.542 -1.83672 4.0214 0
M  V30 4801 N 465.601 -1.54893 0.290851 0
M  V30 4802 C 466.531 -2.26103 -0.583084 0
M  V30 4803 C 467.512 -1.25684 -1.14619 0
M  V30 4804 O 468.697 -1.54436 -1.17741 0
M  V30 4805 C 465.827 -2.99409 -1.75987 0
M  V30 4806 C 464.781 -4.0689 -1.32758 0
M  V30 4807 C 464.107 -4.67856 -2.58872 0
M  V30 4808 C 465.407 -5.20215 -0.46624 0
M  V30 4809 H 467.101 -2.99398 0.0108214 0
M  V30 4810 H 464.647 -1.43998 0.00664468 0
M  V30 4811 H 466.6 -3.47943 -2.37727 0
M  V30 4812 H 465.324 -2.23675 -2.37985 0
M  V30 4813 H 463.983 -3.59191 -0.733299 0
M  V30 4814 H 463.631 -3.88772 -3.19163 0
M  V30 4815 H 463.331 -5.40438 -2.30653 0
M  V30 4816 H 464.855 -5.19147 -3.21433 0
M  V30 4817 H 466.269 -5.64704 -0.989047 0
M  V30 4818 H 464.666 -5.99455 -0.27826 0
M  V30 4819 H 465.736 -4.82198 0.511173 0
M  V30 4820 N 467.08 -0.0183926 -1.57589 0
M  V30 4821 C 468.328 0.661253 -1.90976 0
M  V30 4822 C 468.649 1.73281 -0.894353 0
M  V30 4823 O 467.919 1.9579 0.0656788 0
M  V30 4824 H 466.499 0.247233 -0.704901 0
M  V30 4825 H 469.161 -0.0636639 -1.94796 0
M  V30 4826 H 468.257 1.12083 -2.9128 0
M  V30 4827 N 468.558 1.5553 0.254621 0
M  V30 4828 C 469.468 1.92789 1.33677 0
M  V30 4829 C 470.484 0.827356 1.53071 0
M  V30 4830 O 471.66 1.12807 1.66843 0
M  V30 4831 C 468.725 2.20827 2.67275 0
M  V30 4832 C 467.786 3.4427 2.5647 0
M  V30 4833 C 467.019 3.70961 3.83697 0
M  V30 4834 O 467.242 2.99852 4.85227 0
M  V30 4835 O 466.176 4.64491 3.82794 0
M  V30 4836 H 470.002 2.84945 1.05071 0
M  V30 4837 H 467.587 1.42312 0.454723 0
M  V30 4838 H 469.469 2.40204 3.46237 0
M  V30 4839 H 468.144 1.31851 2.9563 0
M  V30 4840 H 467.051 3.30209 1.75821 0
M  V30 4841 H 468.384 4.33524 2.33062 0
M  V30 4842 N 470.036 -0.519951 1.48776 0
M  V30 4843 C 470.966 -1.63253 1.66945 0
M  V30 4844 C 471.947 -1.62014 0.518224 0
M  V30 4845 O 473.132 -1.79053 0.751919 0
M  V30 4846 C 470.262 -3.0181 1.71836 0
M  V30 4847 C 469.216 -3.17911 2.8656 0
M  V30 4848 C 468.542 -4.5763 2.76548 0
M  V30 4849 C 469.842 -2.99729 4.27738 0
M  V30 4850 H 471.536 -1.48302 2.6009 0
M  V30 4851 H 469.082 -0.712026 1.25165 0
M  V30 4852 H 471.035 -3.79525 1.83135 0
M  V30 4853 H 469.759 -3.17806 0.752775 0
M  V30 4854 H 468.418 -2.42616 2.74833 0
M  V30 4855 H 468.066 -4.70476 1.77937 0
M  V30 4856 H 467.766 -4.69346 3.53536 0
M  V30 4857 H 469.29 -5.37431 2.89828 0
M  V30 4858 H 470.704 -3.67228 4.40246 0
M  V30 4859 H 469.101 -3.22932 5.05801 0
M  V30 4860 H 470.171 -1.96047 4.43502 0
M  V30 4861 N 471.514 -1.37532 -0.769588 0
M  V30 4862 C 472.791 -1.23392 -1.51768 0
M  V30 4863 C 473.171 0.17157 -2.10402 0
M  V30 4864 O 472.519 1.17943 -1.95708 0
M  V30 4865 C 472.729 -2.33163 -2.59685 0
M  V30 4866 C 474.077 -2.70809 -3.27028 0
M  V30 4867 O 475.101 -2.32355 -2.69981 0
M  V30 4868 O 473.96 -3.37066 -4.30173 0
M  V30 4869 H 471.054 -0.481617 -0.67229 0
M  V30 4870 H 473.6 -1.49318 -0.806368 0
M  V30 4871 H 472.372 -3.27273 -2.14494 0
M  V30 4872 H 471.995 -2.08713 -3.38415 0
M  V30 4873 N 472.992 0.995999 -1.22138 0
M  V30 4874 C 474.217 1.77601 -1.0711 0
M  V30 4875 C 474.642 1.84339 0.374264 0
M  V30 4876 O 474 1.29359 1.27028 0
M  V30 4877 C 474.048 3.18897 -1.68336 0
M  V30 4878 O 473.152 4.01663 -0.934928 0
M  V30 4879 H 472.493 0.547011 -0.376397 0
M  V30 4880 H 475.023 1.25137 -1.6187 0
M  V30 4881 H 475.033 3.69539 -1.72931 0
M  V30 4882 H 473.708 3.13308 -2.73516 0
M  V30 4883 H 472.285 3.60204 -0.964751 0
M  V30 4884 N 474.47 1.03057 1.19235 0
M  V30 4885 C 475.886 0.747947 1.40989 0
M  V30 4886 C 476.086 -0.666752 1.90149 0
M  V30 4887 O 475.142 -1.43249 2.07933 0
M  V30 4888 C 476.455 1.7855 2.41951 0
M  V30 4889 C 478.003 1.80524 2.55695 0
M  V30 4890 C 478.478 2.83243 3.59913 0
M  V30 4891 N 479.969 2.8207 3.67411 0
M  V30 4892 C 480.704 3.58204 4.47747 0
M  V30 4893 N 480.2 4.44057 5.31775 0
M  V30 4894 N 481.993 3.46738 4.42413 0
M  V30 4895 H 474.144 1.94367 0.856468 0
M  V30 4896 H 476.407 0.840412 0.438647 0
M  V30 4897 H 476.113 2.79973 2.12857 0
M  V30 4898 H 475.987 1.6092 3.41152 0
M  V30 4899 H 478.374 0.79778 2.84112 0
M  V30 4900 H 478.455 2.02229 1.56643 0
M  V30 4901 H 478.099 3.84161 3.32239 0
M  V30 4902 H 478.029 2.58795 4.5862 0
M  V30 4903 H 480.52 2.19803 3.074 0
M  V30 4904 H 480.833 4.98884 5.90199 0
M  V30 4905 H 479.178 4.48129 5.3123 0
M  V30 4906 H 482.369 2.79077 3.75811 0
M  V30 4907 H 482.542 4.06322 5.04783 0
M  V30 4908 N 475.948 -1.35272 0.808662 0
M  V30 4909 C 477.195 -1.98709 0.390003 0
M  V30 4910 C 477.523 -1.64148 -1.04335 0
M  V30 4911 O 476.778 -0.897797 -1.73891 0
M  V30 4912 C 477.077 -3.53556 0.522798 0
M  V30 4913 C 476.743 -4.0799 1.91977 0
M  V30 4914 C 475.405 -4.22568 2.30195 0
M  V30 4915 C 477.757 -4.37442 2.83361 0
M  V30 4916 C 475.085 -4.63918 3.59162 0
M  V30 4917 C 477.437 -4.80232 4.11776 0
M  V30 4918 C 476.101 -4.93016 4.49991 0
M  V30 4919 H 475.371 -0.727127 0.142712 0
M  V30 4920 H 478.018 -1.6145 1.02985 0
M  V30 4921 H 476.323 -3.91287 -0.200494 0
M  V30 4922 H 478.02 -4.00598 0.179608 0
M  V30 4923 H 474.61 -3.97096 1.61284 0
M  V30 4924 H 478.794 -4.25731 2.55083 0
M  V30 4925 H 474.05 -4.72005 3.88615 0
M  V30 4926 H 478.224 -5.01982 4.82687 0
M  V30 4927 H 475.851 -5.24814 5.49976 0
M  V30 4928 N 477.426 -0.562348 -1.47226 0
M  V30 4929 C 478.842 -0.222492 -1.58042 0
M  V30 4930 C 479.042 1.27505 -1.56028 0
M  V30 4931 O 478.098 2.05555 -1.46641 0
M  V30 4932 C 479.411 -0.853694 -2.88327 0
M  V30 4933 C 480.959 -0.825397 -3.01921 0
M  V30 4934 C 481.434 -1.43576 -4.34914 0
M  V30 4935 N 482.925 -1.39918 -4.41562 0
M  V30 4936 C 483.66 -1.84103 -5.43041 0
M  V30 4937 N 483.156 -2.36167 -6.51304 0
M  V30 4938 N 484.949 -1.75142 -5.34118 0
M  V30 4939 H 477.1 -1.53525 -1.46778 0
M  V30 4940 H 479.363 -0.640527 -0.698877 0
M  V30 4941 H 479.069 -1.90635 -2.95552 0
M  V30 4942 H 478.943 -0.34977 -3.75575 0
M  V30 4943 H 481.33 0.218583 -2.94289 0
M  V30 4944 H 481.411 -1.36713 -2.16202 0
M  V30 4945 H 481.055 -2.47884 -4.43301 0
M  V30 4946 H 480.985 -0.869427 -5.19373 0
M  V30 4947 H 483.476 -1.0184 -3.63919 0
M  V30 4948 H 483.789 -2.67793 -7.24919 0
M  V30 4949 H 482.134 -2.40181 -6.52179 0
M  V30 4950 H 485.325 -1.34241 -4.48439 0
M  V30 4951 H 485.498 -2.09895 -6.13065 0
M  V30 4952 N 478.904 1.54736 -0.299062 0
M  V30 4953 C 480.151 2.00101 0.310784 0
M  V30 4954 C 480.479 1.18746 1.54045 0
M  V30 4955 O 479.734 0.251198 1.94081 0
M  V30 4956 C 480.033 3.50199 0.713835 0
M  V30 4957 C 479.699 4.48997 -0.413873 0
M  V30 4958 C 478.361 4.7573 -0.723462 0
M  V30 4959 C 480.713 5.07839 -1.17257 0
M  V30 4960 C 478.041 5.5857 -1.79491 0
M  V30 4961 C 480.393 5.91844 -2.23392 0
M  V30 4962 C 479.057 6.16889 -2.54959 0
M  V30 4963 H 478.327 0.732221 0.113724 0
M  V30 4964 H 480.974 1.86888 -0.417756 0
M  V30 4965 H 479.279 3.61012 1.52243 0
M  V30 4966 H 480.976 3.82723 1.19684 0
M  V30 4967 H 477.566 4.28292 -0.162476 0
M  V30 4968 H 481.75 4.87188 -0.946651 0
M  V30 4969 H 477.006 5.76213 -2.04423 0
M  V30 4970 H 481.18 6.36465 -2.8264 0
M  V30 4971 H 478.807 6.80869 -3.38114 0
M  V30 4972 N 480.382 0.0267497 1.57577 0
M  V30 4973 C 481.628 -0.653371 1.91987 0
M  V30 4974 C 481.961 -1.71915 0.903263 0
M  V30 4975 O 481.236 -1.94358 -0.0743387 0
M  V30 4976 C 481.519 -1.272 3.36886 0
M  V30 4977 C 481.372 -0.215938 4.49281 0
M  V30 4978 C 482.691 -2.19069 3.81703 0
M  V30 4979 H 479.81 -0.236047 0.698177 0
M  V30 4980 H 482.452 0.0835236 1.89816 0
M  V30 4981 H 480.602 -1.90005 3.38866 0
M  V30 4982 H 482.274 0.41449 4.59434 0
M  V30 4983 H 480.517 0.458855 4.31366 0
M  V30 4984 H 481.188 -0.688347 5.47691 0
M  V30 4985 H 483.664 -1.66253 3.81444 0
M  V30 4986 H 482.54 -2.59307 4.83788 0
M  V30 4987 H 482.801 -3.08087 3.17072 0
M  V30 4988 N 481.861 -1.55662 -0.24637 0
M  V30 4989 C 483.138 -1.68272 -0.997198 0
M  V30 4990 C 483.518 -0.566785 -2.03349 0
M  V30 4991 O 482.866 0.429688 -2.24424 0
M  V30 4992 C 483.076 -3.08594 -1.63006 0
M  V30 4993 C 484.424 -3.6721 -2.13171 0
M  V30 4994 O 485.448 -3.11397 -1.72946 0
M  V30 4995 O 484.307 -4.65054 -2.87031 0
M  V30 4996 H 481.401 -0.684429 -0.464205 0
M  V30 4997 H 483.947 -1.67993 -0.240114 0
M  V30 4998 H 482.719 -3.81264 -0.880527 0
M  V30 4999 H 482.342 -3.12886 -2.45333 0
M  V30 5000 N 483.339 0.512053 -1.4905 0
M  V30 5001 C 484.586 1.26686 -1.57978 0
M  V30 5002 C 484.914 1.92733 -0.261553 0
M  V30 5003 O 484.169 1.80772 0.749667 0
M  V30 5004 C 484.468 2.36446 -2.68008 0
M  V30 5005 C 484.134 1.87932 -4.09869 0
M  V30 5006 C 482.796 1.74419 -4.48477 0
M  V30 5007 C 485.148 1.5149 -4.98698 0
M  V30 5008 C 482.476 1.22827 -5.73699 0
M  V30 5009 C 484.828 1.01355 -6.24428 0
M  V30 5010 C 483.492 0.864735 -6.61875 0
M  V30 5011 H 482.762 0.463577 -0.578081 0
M  V30 5012 H 485.409 0.569421 -1.82838 0
M  V30 5013 H 483.714 3.11933 -2.37076 0
M  V30 5014 H 485.411 2.9453 -2.72127 0
M  V30 5015 H 482.001 1.99405 -3.79389 0
M  V30 5016 H 486.185 1.60782 -4.69535 0
M  V30 5017 H 481.441 1.10008 -6.01422 0
M  V30 5018 H 485.615 0.722351 -6.92644 0
M  V30 5019 H 483.242 0.462777 -7.5879 0
M  V30 5020 N 484.817 1.37938 0.762283 0
M  V30 5021 C 486.045 1.36883 1.55147 0
M  V30 5022 C 486.46 -0.0435348 1.8875 0
M  V30 5023 O 485.817 -1.00786 1.52146 0
M  V30 5024 C 485.868 2.21624 2.85596 0
M  V30 5025 O 485.589 3.57358 2.5343 0
M  V30 5026 C 487.09 2.28653 3.7978 0
M  V30 5027 H 484.31 0.468521 0.480343 0
M  V30 5028 H 486.854 1.81404 0.944079 0
M  V30 5029 H 485.009 1.80588 3.42734 0
M  V30 5030 H 485.423 4.01883 3.37032 0
M  V30 5031 H 486.897 2.9225 4.68288 0
M  V30 5032 H 487.374 1.29767 4.19592 0
M  V30 5033 H 487.98 2.70043 3.28568 0
M  V30 5034 N 486.295 -0.989507 1.22664 0
M  V30 5035 C 487.711 -1.25395 0.987331 0
M  V30 5036 C 487.911 -1.9899 -0.317056 0
M  V30 5037 O 486.967 -2.30141 -1.03882 0
M  V30 5038 C 488.28 -2.06242 2.18826 0
M  V30 5039 C 489.828 -2.19413 2.23219 0
M  V30 5040 C 490.303 -3.03648 3.42873 0
M  V30 5041 N 491.794 -3.11234 3.43056 0
M  V30 5042 C 492.529 -3.7671 4.32293 0
M  V30 5043 N 492.025 -4.44085 5.31752 0
M  V30 5044 N 493.818 -3.73505 4.2006 0
M  V30 5045 H 485.969 -0.496212 2.06522 0
M  V30 5046 H 488.232 -0.281784 0.905153 0
M  V30 5047 H 487.938 -1.59531 3.13437 0
M  V30 5048 H 487.812 -3.06996 2.19165 0
M  V30 5049 H 490.199 -2.65336 1.29154 0
M  V30 5050 H 490.28 -1.18078 2.26917 0
M  V30 5051 H 489.924 -2.58424 4.37241 0
M  V30 5052 H 489.854 -4.05132 3.36416 0
M  V30 5053 H 492.345 -2.63287 2.71088 0
M  V30 5054 H 492.658 -4.91797 5.96117 0
M  V30 5055 H 491.003 -4.42822 5.35662 0
M  V30 5056 H 494.194 -3.20033 3.41609 0
M  V30 5057 H 494.367 -4.24253 4.8981 0
M  V30 5058 N 487.773 -1.03688 -1.18687 0
M  V30 5059 C 488.703 -0.645407 -2.24403 0
M  V30 5060 C 489.684 0.349511 -1.66471 0
M  V30 5061 O 490.869 0.230453 -1.92828 0
M  V30 5062 C 487.999 -0.00365337 -3.473 0
M  V30 5063 C 486.953 -0.921705 -4.17958 0
M  V30 5064 C 486.279 -0.144629 -5.34504 0
M  V30 5065 C 487.579 -2.23909 -4.71871 0
M  V30 5066 H 489.273 -1.52917 -2.57404 0
M  V30 5067 H 486.819 -0.736711 -1.23728 0
M  V30 5068 H 488.772 0.281908 -4.20456 0
M  V30 5069 H 487.496 0.914963 -3.13522 0
M  V30 5070 H 486.155 -1.19159 -3.46694 0
M  V30 5071 H 485.803 0.776274 -4.96974 0
M  V30 5072 H 485.503 -0.756206 -5.82714 0
M  V30 5073 H 487.027 0.134004 -6.10453 0
M  V30 5074 H 488.441 -2.0145 -5.36741 0
M  V30 5075 H 486.838 -2.8033 -5.30599 0
M  V30 5076 H 487.908 -2.88822 -3.895 0
M  V30 5077 N 489.251 1.34841 -0.815825 0
M  V30 5078 C 490.662 1.80937 -0.46029 0
M  V30 5079 C 491.013 1.67685 1.01863 0
M  V30 5080 O 490.138 1.21277 1.79223 0
M  V30 5081 C 490.733 3.28509 -0.828708 0
M  V30 5082 C 489.292 3.72712 -0.525644 0
M  V30 5083 C 488.439 2.56676 -1.04941 0
M  V30 5084 H 491.39 1.22688 -1.00664 0
M  V30 5085 H 491.411 3.80279 -0.129757 0
M  V30 5086 H 490.923 3.38122 -1.90513 0
M  V30 5087 H 489.024 3.68642 0.541666 0
M  V30 5088 H 489.137 4.67119 -1.06474 0
M  V30 5089 H 487.501 2.50302 -0.471286 0
M  V30 5090 H 488.284 2.69063 -2.13214 0
M  V30 5091 N 490.729 0.570148 1.46925 0
M  V30 5092 C 491.978 0.0487352 2.01641 0
M  V30 5093 C 492.291 -1.31433 1.44861 0
M  V30 5094 O 493.497 -1.92638 1.91318 0
M  V30 5095 C 491.953 0.0365817 3.59881 0
M  V30 5096 C 491.561 1.39719 4.25655 0
M  V30 5097 C 493.305 -0.431545 4.22301 0
M  V30 5098 C 491.212 1.34345 5.75939 0
M  V30 5099 H 490.142 0.0144492 0.753862 0
M  V30 5100 H 492.793 0.719928 1.68788 0
M  V30 5101 H 491.175 -0.700522 3.89755 0
M  V30 5102 H 492.349 2.15303 4.07408 0
M  V30 5103 H 490.664 1.80431 3.75278 0
M  V30 5104 H 493.261 -0.490354 5.32447 0
M  V30 5105 H 493.604 -1.44638 3.90366 0
M  V30 5106 H 494.137 0.251102 3.97007 0
M  V30 5107 H 490.876 2.33469 6.12513 0
M  V30 5108 H 490.396 0.629615 5.96486 0
M  V30 5109 H 492.075 1.051 6.38407 0
M  V30 5110 N 492.207 -1.54576 0.307264 0
M  V30 5111 C 493.623 -1.59534 -0.0459251 0
M  V30 5112 C 493.823 -1.32414 -1.51884 0
M  V30 5113 O 492.879 -1.1006 -2.27251 0
M  V30 5114 C 494.192 -2.98566 0.357649 0
M  V30 5115 C 495.74 -3.11491 0.306937 0
M  V30 5116 C 496.215 -4.52842 0.685427 0
M  V30 5117 N 497.706 -4.58782 0.638203 0
M  V30 5118 C 498.441 -5.66238 0.903458 0
M  V30 5119 N 497.937 -6.81703 1.23501 0
M  V30 5120 N 499.73 -5.55937 0.830102 0
M  V30 5121 H 491.881 -1.70464 1.26712 0
M  V30 5122 H 494.144 -0.79647 0.514139 0
M  V30 5123 H 493.85 -3.23356 1.38325 0
M  V30 5124 H 493.724 -3.76117 -0.285565 0
M  V30 5125 H 496.111 -2.86446 -0.709424 0
M  V30 5126 H 496.192 -2.36081 0.984861 0
M  V30 5127 H 495.836 -4.78618 1.69963 0
M  V30 5128 H 495.766 -5.26598 -0.0146346 0
M  V30 5129 H 498.257 -3.75849 0.393138 0
M  V30 5130 H 498.57 -7.59582 1.42322 0
M  V30 5131 H 496.915 -6.8324 1.27311 0
M  V30 5132 H 500.106 -4.64608 0.570693 0
M  V30 5133 H 500.279 -6.39597 1.04019 0
M  V30 5134 N 493.685 -0.035106 -1.57561 0
M  V30 5135 C 495.096 0.502885 -1.798 0
M  V30 5136 C 495.447 1.71892 -0.945921 0
M  V30 5137 O 494.572 2.15822 -0.157991 0
M  V30 5138 C 495.167 0.919097 -3.26095 0
M  V30 5139 C 493.726 1.40216 -3.49308 0
M  V30 5140 C 492.873 0.369709 -2.74824 0
M  V30 5141 H 495.824 -0.261102 -1.56537 0
M  V30 5142 H 495.845 1.78308 -3.36135 0
M  V30 5143 H 495.357 0.0338526 -3.88085 0
M  V30 5144 H 493.458 2.30714 -2.92578 0
M  V30 5145 H 493.571 1.40541 -4.58023 0
M  V30 5146 H 491.935 0.839113 -2.40481 0
M  V30 5147 H 492.718 -0.507173 -3.39533 0
M  V30 5148 N 495.163 1.55791 0.238111 0
M  V30 5149 C 496.073 1.94196 1.31625 0
M  V30 5150 C 497.089 0.843545 1.52185 0
M  V30 5151 O 498.265 1.1457 1.65637 0
M  V30 5152 C 495.33 2.2365 2.64918 0
M  V30 5153 C 494.391 3.46971 2.52804 0
M  V30 5154 C 493.624 3.7501 3.79741 0
M  V30 5155 O 493.847 3.04982 4.82019 0
M  V30 5156 O 492.781 4.68525 3.77846 0
M  V30 5157 H 496.607 2.86044 1.02043 0
M  V30 5158 H 494.192 1.42786 0.439603 0
M  V30 5159 H 496.074 2.43863 3.4367 0
M  V30 5160 H 494.749 1.34979 2.94215 0
M  V30 5161 H 493.656 3.32055 1.72309 0
M  V30 5162 H 494.989 4.35971 2.28451 0
M  V30 5163 N 496.642 -0.504142 1.49319 0
M  V30 5164 C 497.889 -1.25846 1.58647 0
M  V30 5165 C 498.217 -1.92592 0.27177 0
M  V30 5166 O 497.472 -1.81167 -0.74007 0
M  V30 5167 C 497.771 -2.35021 2.69258 0
M  V30 5168 C 497.437 -1.85755 4.1086 0
M  V30 5169 C 496.099 -1.72038 4.49395 0
M  V30 5170 C 498.451 -1.48844 4.99495 0
M  V30 5171 C 495.779 -1.19783 5.74342 0
M  V30 5172 C 498.131 -0.980422 6.24956 0
M  V30 5173 C 496.795 -0.829622 6.62324 0
M  V30 5174 H 496.065 -0.460505 0.580531 0
M  V30 5175 H 498.712 -0.559716 1.83138 0
M  V30 5176 H 497.017 -3.10672 2.38726 0
M  V30 5177 H 498.714 -2.93083 2.73685 0
M  V30 5178 H 495.304 -1.9739 3.80441 0
M  V30 5179 H 499.488 -1.5829 4.70381 0
M  V30 5180 H 494.744 -1.06817 6.01997 0
M  V30 5181 H 498.918 -0.685608 6.93017 0
M  V30 5182 H 496.545 -0.42253 7.59025 0
M  V30 5183 N 498.12 -1.38341 -0.754957 0
M  V30 5184 C 499.348 -1.37704 -1.54419 0
M  V30 5185 C 499.763 0.0335243 -1.8877 0
M  V30 5186 O 499.12 0.999773 -1.52679 0
M  V30 5187 C 499.171 -2.23136 -2.84416 0
M  V30 5188 O 498.892 -3.58697 -2.51531 0
M  V30 5189 C 500.393 -2.30664 -3.78562 0
M  V30 5190 H 497.613 -0.471061 -0.477852 0
M  V30 5191 H 500.157 -1.81902 -0.934446 0
M  V30 5192 H 498.312 -1.82403 -3.41772 0
M  V30 5193 H 498.726 -4.03665 -3.34896 0
M  V30 5194 H 500.2 -2.9473 -4.66732 0
M  V30 5195 H 500.677 -1.3199 -4.18898 0
M  V30 5196 H 501.283 -2.71781 -3.27131 0
M  V30 5197 N 499.598 0.982988 -1.23187 0
M  V30 5198 C 500.875 1.69814 -0.970707 0
M  V30 5199 C 501.255 2.04811 0.511424 0
M  V30 5200 O 500.603 1.73924 1.48198 0
M  V30 5201 C 500.813 2.94143 -1.87831 0
M  V30 5202 C 502.161 3.66712 -2.14026 0
M  V30 5203 O 503.185 3.04171 -1.8536 0
M  V30 5204 O 502.044 4.79258 -2.62629 0
M  V30 5205 H 499.138 0.741659 -0.365884 0
M  V30 5206 H 501.684 1.03844 -1.34218 0
M  V30 5207 H 500.456 2.64858 -2.88038 0
M  V30 5208 H 500.079 3.6785 -1.50905 0
M  V30 5209 N 501.076 1.04316 1.18135 0
M  V30 5210 C 502.324 0.746542 1.87806 0
M  V30 5211 C 502.645 -0.728082 1.80898 0
M  V30 5212 O 501.915 -1.52554 1.22899 0
M  V30 5213 H 500.495 0.273157 0.695265 0
M  V30 5214 H 503.157 1.32044 1.43354 0
M  V30 5215 H 502.253 1.05362 2.93778 0
M  V30 5216 N 502.554 -1.34406 0.822964 0
M  V30 5217 C 503.486 -2.28305 0.202375 0
M  V30 5218 C 504.499 -1.5103 -0.60777 0
M  V30 5219 O 505.688 -1.73057 -0.437444 0
M  V30 5220 C 502.788 -3.30836 -0.734911 0
M  V30 5221 C 501.961 -4.37388 0.0324177 0
M  V30 5222 C 501.02 -5.1968 -0.825803 0
M  V30 5223 O 500.046 -5.68556 -0.270771 0
M  V30 5224 N 501.248 -5.39393 -2.14558 0
M  V30 5225 H 504.013 -2.82201 1.00909 0
M  V30 5226 H 501.574 -1.4693 0.67993 0
M  V30 5227 H 503.566 -3.82786 -1.31365 0
M  V30 5228 H 502.136 -2.77334 -1.44238 0
M  V30 5229 H 501.356 -3.86152 0.792469 0
M  V30 5230 H 502.644 -5.05702 0.560633 0
M  V30 5231 H 502.042 -5.01357 -2.62025 0
M  V30 5232 H 500.599 -5.94461 -2.67318 0
M  V30 5233 N 504.032 -0.577932 -1.46621 0
M  V30 5234 C 505.443 -0.150071 -1.86096 0
M  V30 5235 C 505.794 1.28563 -1.48209 0
M  V30 5236 O 504.919 1.97036 -0.894754 0
M  V30 5237 C 505.514 -0.265576 -3.37758 0
M  V30 5238 C 504.073 0.10738 -3.76247 0
M  V30 5239 C 503.22 -0.603711 -2.70649 0
M  V30 5240 H 506.171 -0.786438 -1.37844 0
M  V30 5241 H 506.192 0.510352 -3.77062 0
M  V30 5242 H 505.704 -1.3106 -3.65301 0
M  V30 5243 H 503.805 1.15272 -3.54321 0
M  V30 5244 H 503.918 -0.26561 -4.78363 0
M  V30 5245 H 502.282 -0.0444884 -2.54661 0
M  V30 5246 H 503.065 -1.65029 -3.01032 0
M  V30 5247 N 505.51 1.54411 -0.315457 0
M  V30 5248 C 506.926 1.59556 0.037464 0
M  V30 5249 C 507.126 1.33217 1.5118 0
M  V30 5250 O 506.182 1.11264 2.26664 0
M  V30 5251 C 507.495 2.98372 -0.373477 0
M  V30 5252 C 509.043 3.11324 -0.323452 0
M  V30 5253 C 509.518 4.52472 -0.709433 0
M  V30 5254 N 511.009 4.58437 -0.662524 0
M  V30 5255 C 511.744 5.65751 -0.933474 0
M  V30 5256 N 511.24 6.81039 -1.27114 0
M  V30 5257 N 513.033 5.55489 -0.859573 0
M  V30 5258 H 505.184 1.6979 -1.27614 0
M  V30 5259 H 507.447 0.793732 -0.518356 0
M  V30 5260 H 507.153 3.22618 -1.40037 0
M  V30 5261 H 507.027 3.76264 0.265615 0
M  V30 5262 H 509.414 2.86818 0.694223 0
M  V30 5263 H 509.495 2.35555 -0.997367 0
M  V30 5264 H 509.139 4.7771 -1.72498 0
M  V30 5265 H 509.069 5.26598 -0.0132923 0
M  V30 5266 H 511.56 3.75636 -0.413065 0
M  V30 5267 H 511.873 7.58816 -1.46348 0
M  V30 5268 H 510.218 6.82555 -1.30932 0
M  V30 5269 H 513.409 4.64299 -0.595324 0
M  V30 5270 H 513.582 6.39036 -1.0741 0
M  V30 5271 N 506.988 0.0434614 1.5754 0
M  V30 5272 C 507.92 -0.962586 2.08007 0
M  V30 5273 C 508.933 -1.27972 1.00634 0
M  V30 5274 O 510.122 -1.24186 1.28219 0
M  V30 5275 C 507.222 -2.28621 2.50171 0
M  V30 5276 C 506.395 -2.15214 3.80791 0
M  V30 5277 C 505.454 -3.30633 4.09351 0
M  V30 5278 O 504.48 -3.0688 4.79388 0
M  V30 5279 N 505.682 -4.54873 3.60654 0
M  V30 5280 H 508.447 -0.531891 2.94942 0
M  V30 5281 H 506.008 -0.142965 1.61268 0
M  V30 5282 H 508 -3.04689 2.66359 0
M  V30 5283 H 506.57 -2.63283 1.68525 0
M  V30 5284 H 505.79 -1.23785 3.74261 0
M  V30 5285 H 507.078 -2.03475 4.66343 0
M  V30 5286 H 506.476 -4.77063 3.04019 0
M  V30 5287 H 505.033 -5.2806 3.82094 0
M  V30 5288 N 508.466 -1.55915 -0.229846 0
M  V30 5289 C 509.396 -1.94754 -1.28815 0
M  V30 5290 C 510.377 -0.814657 -1.49323 0
M  V30 5291 O 511.562 -1.07631 -1.61645 0
M  V30 5292 C 508.692 -2.25705 -2.63959 0
M  V30 5293 C 507.646 -3.41406 -2.5812 0
M  V30 5294 C 506.972 -3.57941 -3.97218 0
M  V30 5295 C 508.272 -4.76616 -2.13623 0
M  V30 5296 H 509.966 -2.83404 -0.965547 0
M  V30 5297 H 507.512 -1.36353 -0.463028 0
M  V30 5298 H 509.465 -2.51467 -3.38146 0
M  V30 5299 H 508.189 -1.339 -2.9789 0
M  V30 5300 H 506.848 -3.1568 -1.86391 0
M  V30 5301 H 506.496 -2.63526 -4.28443 0
M  V30 5302 H 506.196 -4.35757 -3.94195 0
M  V30 5303 H 507.72 -3.86042 -4.73079 0
M  V30 5304 H 509.134 -5.01637 -2.77549 0
M  V30 5305 H 507.531 -5.57655 -2.21677 0
M  V30 5306 H 508.601 -4.7253 -1.08829 0
M  V30 5307 N 509.944 0.496216 -1.49584 0
M  V30 5308 C 511.184 1.26015 -1.60933 0
M  V30 5309 C 511.548 1.89772 -0.291646 0
M  V30 5310 O 512.749 2.67334 -0.280357 0
M  V30 5311 C 511.02 2.29506 -2.73974 0
M  V30 5312 S 512.579 3.15175 -3.05303 0
M  V30 5313 H 509.397 0.428194 -0.567601 0
M  V30 5314 H 511.999 0.561484 -1.87263 0
M  V30 5315 H 510.703 1.81205 -3.68229 0
M  V30 5316 H 510.234 3.04036 -2.49651 0
M  V30 5317 H 512.249 4.30244 -2.47193 0
M  V30 5318 N 511.423 1.38739 0.74761 0
M  V30 5319 C 512.651 1.38521 1.53686 0
M  V30 5320 C 513.066 -0.0235129 1.88785 0
M  V30 5321 O 512.423 -0.991662 1.53207 0
M  V30 5322 C 512.474 2.24641 2.83229 0
M  V30 5323 O 512.195 3.60026 2.49625 0
M  V30 5324 C 513.696 2.32669 3.77333 0
M  V30 5325 H 510.916 0.473589 0.475347 0
M  V30 5326 H 513.46 1.82395 0.924786 0
M  V30 5327 H 511.615 1.84213 3.40799 0
M  V30 5328 H 512.029 4.05435 3.3275 0
M  V30 5329 H 513.503 2.97201 4.65162 0
M  V30 5330 H 513.98 1.3421 4.18192 0
M  V30 5331 H 514.586 2.73512 3.25685 0
M  V30 5332 N 512.901 -0.976442 1.23707 0
M  V30 5333 C 513.864 -2.0511 1.02287 0
M  V30 5334 C 514.864 -1.60791 -0.0167195 0
M  V30 5335 O 516.054 -1.72761 0.223408 0
M  V30 5336 C 513.186 -3.36458 0.548507 0
M  V30 5337 H 514.379 -2.25545 1.9766 0
M  V30 5338 H 511.932 -1.15042 1.05806 0
M  V30 5339 H 512.667 -3.21713 -0.408818 0
M  V30 5340 H 512.452 -3.69967 1.29874 0
M  V30 5341 H 513.942 -4.15489 0.419406 0
M  V30 5342 N 514.379 -1.04941 -1.1758 0
M  V30 5343 C 515.342 -0.652456 -2.19717 0
M  V30 5344 C 516.342 0.294745 -1.58076 0
M  V30 5345 O 517.532 0.0789579 -1.74021 0
M  V30 5346 C 514.664 0.0420712 -3.40874 0
M  V30 5347 H 515.857 -1.55642 -2.5635 0
M  V30 5348 H 513.41 -0.842995 -1.31618 0
M  V30 5349 H 514.145 0.95943 -3.09783 0
M  V30 5350 H 513.93 -0.638844 -3.86861 0
M  V30 5351 H 515.42 0.306 -4.16477 0
M  V30 5352 N 515.857 1.33968 -0.830081 0
M  V30 5353 C 517.106 1.97323 -0.417928 0
M  V30 5354 C 517.419 1.6652 1.02618 0
M  V30 5355 O 518.625 2.2342 1.54259 0
M  V30 5356 C 517.081 3.53099 -0.696359 0
M  V30 5357 C 516.689 3.92788 -2.15457 0
M  V30 5358 C 518.433 4.23049 -0.350724 0
M  V30 5359 C 516.34 5.41506 -2.37751 0
M  V30 5360 H 515.27 0.738409 -0.152541 0
M  V30 5361 H 517.921 1.52711 -1.01744 0
M  V30 5362 H 516.303 3.95991 -0.0265904 0
M  V30 5363 H 517.477 3.6098 -2.86408 0
M  V30 5364 H 515.792 3.35795 -2.46232 0
M  V30 5365 H 518.389 5.32403 -0.495036 0
M  V30 5366 H 518.732 4.10279 0.705476 0
M  V30 5367 H 519.265 3.85657 -0.975362 0
M  V30 5368 H 516.004 5.5927 -3.41903 0
M  V30 5369 H 515.524 5.74804 -1.7135 0
M  V30 5370 H 517.203 6.0828 -2.20465 0
M  V30 5371 N 517.335 0.585699 1.46312 0
M  V30 5372 C 518.583 0.072278 2.01971 0
M  V30 5373 C 518.904 -1.29345 1.45928 0
M  V30 5374 O 518.174 -1.84973 0.645109 0
M  V30 5375 H 516.754 0.023729 0.746623 0
M  V30 5376 H 519.416 0.762155 1.7938 0
M  V30 5377 H 518.512 0.00552767 3.121 0
M  V30 5378 N 518.813 -1.54241 0.323641 0
M  V30 5379 C 520.041 -2.04985 -0.280871 0
M  V30 5380 C 520.456 -1.19978 -1.45777 0
M  V30 5381 O 519.813 -0.230471 -1.81039 0
M  V30 5382 C 519.864 -3.54353 -0.715258 0
M  V30 5383 O 519.585 -4.36132 0.414817 0
M  V30 5384 C 521.086 -4.21189 -1.38257 0
M  V30 5385 H 518.306 -0.66851 -0.0577502 0
M  V30 5386 H 520.85 -1.99029 0.469852 0
M  V30 5387 H 519.005 -3.60596 -1.41596 0
M  V30 5388 H 519.419 -5.2445 0.0725227 0
M  V30 5389 H 520.893 -5.27154 -1.63745 0
M  V30 5390 H 521.37 -3.72307 -2.32989 0
M  V30 5391 H 521.976 -4.19085 -0.724447 0
M  V30 5392 N 520.291 -0.0518155 -1.57515 0
M  V30 5393 C 521.516 0.634896 -1.97443 0
M  V30 5394 C 521.941 1.63546 -0.929207 0
M  V30 5395 O 521.299 1.80981 0.107484 0
M  V30 5396 C 521.347 1.29765 -3.36442 0
M  V30 5397 O 520.451 2.41333 -3.34413 0
M  V30 5398 H 519.792 0.164994 -0.643174 0
M  V30 5399 H 522.322 -0.120407 -2.04245 0
M  V30 5400 H 522.332 1.64918 -3.73184 0
M  V30 5401 H 521.007 0.564361 -4.12053 0
M  V30 5402 H 519.584 2.08122 -3.09418 0
M  V30 5403 N 521.769 1.56035 0.221574 0
M  V30 5404 C 522.699 1.95434 1.2778 0
M  V30 5405 C 523.68 0.822564 1.48889 0
M  V30 5406 O 524.865 1.08486 1.61072 0
M  V30 5407 C 521.995 2.27102 2.62759 0
M  V30 5408 C 520.949 3.4277 2.56306 0
M  V30 5409 C 520.275 3.60043 3.95314 0
M  V30 5410 C 521.575 4.77742 2.11093 0
M  V30 5411 H 523.269 2.83912 0.950504 0
M  V30 5412 H 520.815 1.36596 0.455791 0
M  V30 5413 H 522.768 2.53256 3.36807 0
M  V30 5414 H 521.492 1.35478 2.97176 0
M  V30 5415 H 520.151 3.16664 1.84715 0
M  V30 5416 H 519.799 2.65794 4.27039 0
M  V30 5417 H 519.499 4.37841 3.91879 0
M  V30 5418 H 521.023 3.88545 4.71025 0
M  V30 5419 H 522.437 5.03102 2.74885 0
M  V30 5420 H 520.834 5.58823 2.18716 0
M  V30 5421 H 521.904 4.731 1.06321 0
M  V30 5422 N 523.247 -0.488276 1.49845 0
M  V30 5423 C 524.21 -1.57069 1.66919 0
M  V30 5424 C 525.21 -1.51445 0.540479 0
M  V30 5425 O 526.4 -1.5437 0.807188 0
M  V30 5426 C 523.532 -2.96718 1.67844 0
M  V30 5427 H 524.725 -1.43254 2.63474 0
M  V30 5428 H 522.278 -0.713435 1.39068 0
M  V30 5429 H 523.013 -3.15996 0.7292 0
M  V30 5430 H 522.798 -3.02208 2.49826 0
M  V30 5431 H 524.288 -3.75335 1.83066 0
M  V30 5432 N 524.725 -1.39134 -0.740242 0
M  V30 5433 C 525.688 -1.37217 -1.83587 0
M  V30 5434 C 526.688 -0.270221 -1.58513 0
M  V30 5435 O 527.878 -0.527843 -1.6601 0
M  V30 5436 C 525.01 -1.13959 -3.21288 0
M  V30 5437 H 526.203 -2.34705 -1.86691 0
M  V30 5438 H 523.756 -1.24622 -0.94335 0
M  V30 5439 H 524.491 -0.17131 -3.23847 0
M  V30 5440 H 524.276 -1.93754 -3.40884 0
M  V30 5441 H 525.766 -1.15346 -4.01354 0
M  V30 5442 N 526.204 0.969867 -1.24223 0
M  V30 5443 C 527.452 1.70918 -1.0785 0
M  V30 5444 C 527.773 1.91186 0.383763 0
M  V30 5445 O 527.043 1.48806 1.27411 0
M  V30 5446 H 525.623 0.633334 -0.396103 0
M  V30 5447 H 528.285 1.16689 -1.56108 0
M  V30 5448 H 527.381 2.69455 -1.57482 0
M  V30 5449 N 527.682 1.05563 1.17022 0
M  V30 5450 C 528.907 0.788437 1.91829 0
M  V30 5451 C 529.332 -0.650356 1.76499 0
M  V30 5452 O 528.69 -1.45229 1.08527 0
M  V30 5453 C 528.738 1.1786 3.40795 0
M  V30 5454 O 527.842 0.312965 4.11211 0
M  V30 5455 H 527.183 0.288794 0.597908 0
M  V30 5456 H 529.713 1.40948 1.48307 0
M  V30 5457 H 529.723 1.14697 3.91546 0
M  V30 5458 H 528.398 2.22666 3.51273 0
M  V30 5459 H 526.975 0.405515 3.70689 0
M  V30 5460 N 529.16 -1.33526 0.837174 0
M  V30 5461 C 530.388 -2.02047 0.445494 0
M  V30 5462 C 530.803 -1.62995 -0.952788 0
M  V30 5463 O 530.16 -0.842447 -1.61892 0
M  V30 5464 C 530.211 -3.57221 0.554577 0
M  V30 5465 O 529.932 -3.94863 1.89776 0
M  V30 5466 C 531.433 -4.43012 0.159634 0
M  V30 5467 H 528.653 -0.647221 0.177048 0
M  V30 5468 H 531.197 -1.70492 1.12928 0
M  V30 5469 H 529.352 -3.87315 -0.0812781 0
M  V30 5470 H 529.766 -4.89569 1.88208 0
M  V30 5471 H 531.24 -5.51253 0.28701 0
M  V30 5472 H 531.717 -4.29916 -0.898289 0
M  V30 5473 H 532.323 -4.18274 0.769855 0
M  V30 5474 N 530.638 -0.59345 -1.46 0
M  V30 5475 C 531.548 0.135817 -2.34207 0
M  V30 5476 C 532.564 0.875008 -1.50398 0
M  V30 5477 O 533.74 0.835778 -1.83239 0
M  V30 5478 C 530.805 1.12977 -3.27776 0
M  V30 5479 C 529.866 0.394081 -4.27487 0
M  V30 5480 C 529.099 1.34068 -5.16586 0
M  V30 5481 O 529.322 2.5778 -5.08828 0
M  V30 5482 O 528.256 0.845426 -5.95933 0
M  V30 5483 H 532.082 -0.588691 -2.9794 0
M  V30 5484 H 529.667 -0.353784 -1.45151 0
M  V30 5485 H 531.549 1.70261 -3.85473 0
M  V30 5486 H 530.224 1.83556 -2.66625 0
M  V30 5487 H 529.131 -0.220869 -3.73447 0
M  V30 5488 H 530.464 -0.270939 -4.91454 0
M  V30 5489 N 532.116 1.54067 -0.331816 0
M  V30 5490 C 533.393 1.92915 0.322955 0
M  V30 5491 C 533.773 1.26225 1.69205 0
M  V30 5492 O 533.121 0.408919 2.24811 0
M  V30 5493 C 533.331 3.46619 0.406946 0
M  V30 5494 C 534.679 4.19386 0.663339 0
M  V30 5495 O 535.703 3.5282 0.489536 0
M  V30 5496 O 534.562 5.37288 0.999193 0
M  V30 5497 H 531.656 0.805808 0.186016 0
M  V30 5498 H 534.202 1.65342 -0.382135 0
M  V30 5499 H 532.974 3.87354 -0.554287 0
M  V30 5500 H 532.597 3.80324 1.15929 0
M  V30 5501 N 533.594 0.0601682 1.57485 0
M  V30 5502 C 534.842 -0.610386 1.92662 0
M  V30 5503 C 535.163 -1.70849 0.939981 0
M  V30 5504 O 534.433 -1.95895 -0.0137455 0
M  V30 5505 H 533.013 -0.228457 0.711208 0
M  V30 5506 H 535.675 0.115288 1.94559 0
M  V30 5507 H 534.771 -1.0432 2.94149 0
M  V30 5508 N 535.072 -1.5615 -0.213296 0
M  V30 5509 C 536.483 -1.69645 -0.779582 0
M  V30 5510 C 536.834 -0.663615 -1.84636 0
M  V30 5511 O 535.959 0.183633 -2.15619 0
M  V30 5512 C 536.554 -3.07567 -1.42084 0
M  V30 5513 C 535.113 -3.22889 -1.93442 0
M  V30 5514 C 534.26 -2.65581 -0.797612 0
M  V30 5515 H 537.211 -1.58696 0.0114951 0
M  V30 5516 H 537.232 -3.03884 -2.28986 0
M  V30 5517 H 536.744 -3.82716 -0.644187 0
M  V30 5518 H 534.845 -2.52623 -2.73884 0
M  V30 5519 H 534.958 -4.30197 -2.10872 0
M  V30 5520 H 533.322 -2.24278 -1.20712 0
M  V30 5521 H 534.105 -3.43284 -0.033494 0
M  V30 5522 N 536.55 0.480323 -1.50102 0
M  V30 5523 C 537.798 1.23063 -1.60312 0
M  V30 5524 C 538.119 1.92659 -0.301226 0
M  V30 5525 O 537.389 1.83691 0.680753 0
M  V30 5526 H 535.969 0.457231 -0.590719 0
M  V30 5527 H 538.631 0.554893 -1.86834 0
M  V30 5528 H 537.727 1.9835 -2.40964 0
M  V30 5529 N 538.028 1.39524 0.732853 0
M  V30 5530 C 539.439 1.32905 1.31122 0
M  V30 5531 C 539.79 -0.00558708 1.96199 0
M  V30 5532 O 538.915 -0.907706 1.96443 0
M  V30 5533 C 539.51 2.40704 2.38426 0
M  V30 5534 C 538.069 2.37599 2.91931 0
M  V30 5535 C 537.216 2.2248 1.65523 0
M  V30 5536 H 540.167 1.49581 0.530207 0
M  V30 5537 H 540.188 2.07616 3.18867 0
M  V30 5538 H 539.7 3.37829 1.91033 0
M  V30 5539 H 537.801 1.44119 3.43599 0
M  V30 5540 H 537.914 3.32538 3.44899 0
M  V30 5541 H 536.278 1.69691 1.8994 0
M  V30 5542 H 537.061 3.21577 1.20178 0
M  V30 5543 N 539.506 -0.963266 1.24736 0
M  V30 5544 C 540.436 -2.07628 1.06832 0
M  V30 5545 C 541.417 -1.70088 -0.0200566 0
M  V30 5546 O 542.602 -1.93636 0.147854 0
M  V30 5547 C 539.732 -3.40636 0.677069 0
M  V30 5548 C 538.686 -3.9215 1.71471 0
M  V30 5549 C 538.012 -5.21553 1.1784 0
M  V30 5550 C 539.312 -4.19493 3.11164 0
M  V30 5551 H 541.006 -2.22864 1.9993 0
M  V30 5552 H 538.552 -1.07093 0.96266 0
M  V30 5553 H 540.505 -4.17941 0.538792 0
M  V30 5554 H 539.229 -3.25313 -0.289612 0
M  V30 5555 H 537.888 -3.17005 1.84128 0
M  V30 5556 H 537.536 -5.02593 0.202195 0
M  V30 5557 H 537.236 -5.56988 1.87185 0
M  V30 5558 H 538.76 -6.01463 1.05233 0
M  V30 5559 H 540.174 -4.87487 3.01711 0
M  V30 5560 H 538.571 -4.66165 3.77902 0
M  V30 5561 H 539.641 -3.26097 3.58871 0
M  V30 5562 N 540.985 -1.06182 -1.16461 0
M  V30 5563 C 542.233 -0.776326 -1.86595 0
M  V30 5564 C 542.554 0.69921 -1.82033 0
M  V30 5565 O 541.824 1.50579 -1.2531 0
M  V30 5566 H 540.404 -0.284184 -0.690832 0
M  V30 5567 H 543.066 -1.34308 -1.41235 0
M  V30 5568 H 542.162 -1.10022 -2.92064 0
M  V30 5569 N 542.463 1.3308 -0.844243 0
M  V30 5570 C 543.393 2.3161 -0.296493 0
M  V30 5571 C 544.374 1.59215 0.598707 0
M  V30 5572 O 545.559 1.87077 0.521134 0
M  V30 5573 C 542.689 3.43313 0.524762 0
M  V30 5574 C 541.643 4.27115 -0.275106 0
M  V30 5575 C 540.969 5.30483 0.670236 0
M  V30 5576 C 542.269 5.00443 -1.49514 0
M  V30 5577 H 543.963 2.77672 -1.11976 0
M  V30 5578 H 541.509 1.33496 -0.539899 0
M  V30 5579 H 543.462 4.11273 0.918298 0
M  V30 5580 H 542.186 2.95952 1.3813 0
M  V30 5581 H 540.845 3.60787 -0.650267 0
M  V30 5582 H 540.493 4.79379 1.52332 0
M  V30 5583 H 540.193 5.87435 0.139123 0
M  V30 5584 H 541.717 6.01308 1.06117 0
M  V30 5585 H 543.131 5.61141 -1.17447 0
M  V30 5586 H 541.528 5.67071 -1.96343 0
M  V30 5587 H 542.598 4.28906 -2.26202 0
M  V30 5588 N 543.941 0.601185 1.45683 0
M  V30 5589 C 544.851 -0.123395 2.34275 0
M  V30 5590 C 545.867 -0.86702 1.5086 0
M  V30 5591 O 547.043 -0.826049 1.8368 0
M  V30 5592 C 544.108 -1.11237 3.2837 0
M  V30 5593 C 543.169 -0.371405 4.2769 0
M  V30 5594 C 542.402 -1.31327 5.1729 0
M  V30 5595 O 542.625 -2.55078 5.10188 0
M  V30 5596 O 541.559 -0.813811 5.96373 0
M  V30 5597 H 545.385 0.604483 2.97623 0
M  V30 5598 H 542.97 0.361477 1.44961 0
M  V30 5599 H 544.852 -1.68214 3.8637 0
M  V30 5600 H 543.527 -1.82139 2.67595 0
M  V30 5601 H 542.434 0.24067 3.73325 0
M  V30 5602 H 543.767 0.296998 4.91303 0
M  V30 5603 N 545.419 -1.53889 0.339982 0
M  V30 5604 C 546.329 -2.28604 -0.526988 0
M  V30 5605 C 547.345 -1.33578 -1.11503 0
M  V30 5606 O 548.521 -1.66612 -1.13148 0
M  V30 5607 C 545.586 -3.04164 -1.66389 0
M  V30 5608 C 544.647 -4.14809 -1.10599 0
M  V30 5609 C 543.88 -4.86756 -2.18871 0
M  V30 5610 O 544.103 -4.58343 -3.39526 0
M  V30 5611 O 543.037 -5.73289 -1.83366 0
M  V30 5612 H 546.863 -3.03594 0.0802707 0
M  V30 5613 H 544.448 -1.4903 0.105141 0
M  V30 5614 H 546.33 -3.51427 -2.32544 0
M  V30 5615 H 545.005 -2.32035 -2.25703 0
M  V30 5616 H 543.912 -3.71857 -0.409067 0
M  V30 5617 H 545.245 -4.89029 -0.557771 0
M  V30 5618 N 546.897 -0.0685191 -1.57451 0
M  V30 5619 C 548.145 0.60016 -1.92983 0
M  V30 5620 C 548.466 1.70348 -0.949028 0
M  V30 5621 O 547.736 1.959 0.00335647 0
M  V30 5622 H 546.316 0.224682 -0.712409 0
M  V30 5623 H 548.978 -0.125605 -1.94495 0
M  V30 5624 H 548.074 1.02759 -2.94698 0
M  V30 5625 N 548.375 1.56261 0.205012 0
M  V30 5626 C 549.323 1.94631 1.27364 0
M  V30 5627 C 550.317 0.830434 1.47649 0
M  V30 5628 O 551.523 1.01538 1.48627 0
M  V30 5629 H 547.898 0.618755 0.427371 0
M  V30 5630 H 549.869 2.83768 0.922941 0
M  V30 5631 C 548.618 2.29358 2.61324 0
M  V30 5632 H 547.941 3.14744 2.46528 0
M  V30 5633 H 549.381 2.60076 3.34868 0
M  V30 5634 C 547.84 1.12461 3.17575 0
M  V30 5635 O 548.37 0.394407 3.99759 0
M  V30 5636 N 546.576 0.904036 2.7618 0
M  V30 5637 H 546.123 1.49956 2.09454 0
M  V30 5638 H 546.081 0.123662 3.14157 0
M  V30 5639 N 549.853 -0.472356 1.50355 0
M  V30 5640 C 550.801 -1.59126 1.69651 0
M  V30 5641 C 551.795 -1.59793 0.56237 0
M  V30 5642 O 553.001 -1.63957 0.742832 0
M  V30 5643 H 549.376 -0.528008 0.535454 0
M  V30 5644 H 551.347 -1.40013 2.63513 0
M  V30 5645 C 550.096 -2.97075 1.8067 0
M  V30 5646 H 549.419 -2.9728 2.67329 0
M  V30 5647 H 550.859 -3.74825 1.98197 0
M  V30 5648 C 549.318 -3.32247 0.558016 0
M  V30 5649 O 549.848 -4.00553 -0.303399 0
M  V30 5650 N 548.054 -2.87659 0.412415 0
M  V30 5651 H 547.601 -2.32246 1.11443 0
M  V30 5652 H 547.559 -3.11556 -0.421908 0
M  V30 5653 N 551.331 -1.39911 -0.725443 0
M  V30 5654 C 552.742 -1.33599 -1.30415 0
M  V30 5655 C 553.093 -0.00481792 -1.96199 0
M  V30 5656 O 552.218 0.897275 -1.96921 0
M  V30 5657 C 552.813 -2.41965 -2.37146 0
M  V30 5658 C 551.372 -2.39144 -2.90667 0
M  V30 5659 C 550.519 -2.23355 -1.64341 0
M  V30 5660 H 553.47 -1.4986 -0.522267 0
M  V30 5661 H 553.491 -2.09304 -3.17761 0
M  V30 5662 H 553.003 -3.38837 -1.89238 0
M  V30 5663 H 551.104 -1.4594 -3.4283 0
M  V30 5664 H 551.217 -3.34362 -3.43131 0
M  V30 5665 H 549.581 -1.70696 -1.89037 0
M  V30 5666 H 550.364 -3.2221 -1.18471 0
M  V30 5667 N 552.809 0.956637 -1.25245 0
M  V30 5668 C 554.056 1.701 -1.09874 0
M  V30 5669 C 554.384 1.91128 0.36062 0
M  V30 5670 O 553.639 1.47837 1.28229 0
M  V30 5671 C 553.938 3.08996 -1.79601 0
M  V30 5672 C 553.604 3.07774 -3.29523 0
M  V30 5673 C 552.266 3.07149 -3.70423 0
M  V30 5674 C 554.618 3.01257 -4.25316 0
M  V30 5675 C 551.946 2.97752 -5.0553 0
M  V30 5676 C 554.298 2.93403 -5.60444 0
M  V30 5677 C 552.962 2.91111 -6.00675 0
M  V30 5678 H 552.232 0.62244 -0.402056 0
M  V30 5679 H 554.879 1.1178 -1.55491 0
M  V30 5680 H 553.184 3.70848 -1.26408 0
M  V30 5681 H 554.881 3.65407 -1.65162 0
M  V30 5682 H 551.471 3.09032 -2.9698 0
M  V30 5683 H 555.655 3.00861 -3.9471 0
M  V30 5684 H 550.911 2.94346 -5.35883 0
M  V30 5685 H 555.085 2.87321 -6.34366 0
M  V30 5686 H 552.712 2.83586 -7.05325 0
M  V30 5687 N 554.287 1.06798 1.15896 0
M  V30 5688 C 555.217 0.704677 2.22613 0
M  V30 5689 C 556.198 -0.305252 1.67339 0
M  V30 5690 O 557.383 -0.179247 1.93371 0
M  V30 5691 C 554.513 0.0957325 3.47168 0
M  V30 5692 C 553.467 1.0322 4.15367 0
M  V30 5693 C 552.793 0.286293 5.33933 0
M  V30 5694 C 554.093 2.36341 4.65768 0
M  V30 5695 H 555.787 1.59688 2.53259 0
M  V30 5696 H 553.333 0.769257 1.21731 0
M  V30 5697 H 555.286 -0.170333 4.21056 0
M  V30 5698 H 554.01 -0.831516 3.15838 0
M  V30 5699 H 552.669 1.28309 3.43413 0
M  V30 5700 H 552.317 -0.644237 4.98857 0
M  V30 5701 H 552.017 0.910436 5.80504 0
M  V30 5702 H 553.541 0.0278938 6.10594 0
M  V30 5703 H 554.955 2.1561 5.31211 0
M  V30 5704 H 553.352 2.94299 5.2298 0
M  V30 5705 H 554.422 2.99047 3.81705 0
M  V30 5706 N 555.766 -1.3263 0.851289 0
M  V30 5707 C 556.991 -2.02097 0.466006 0
M  V30 5708 C 557.416 -1.63574 -0.928709 0
M  V30 5709 O 556.774 -0.834665 -1.60944 0
M  V30 5710 C 556.822 -3.55425 0.608737 0
M  V30 5711 O 555.926 -4.10827 -0.359878 0
M  V30 5712 H 555.267 -0.636911 0.187724 0
M  V30 5713 H 557.797 -1.69253 1.14955 0
M  V30 5714 H 557.807 -4.04986 0.495006 0
M  V30 5715 H 556.482 -3.82806 1.62581 0
M  V30 5716 H 555.059 -3.72349 -0.202666 0
M  V30 5717 N 557.244 -0.608902 -1.45362 0
M  V30 5718 C 558.207 0.0992563 -2.28985 0
M  V30 5719 C 559.207 0.793841 -1.39838 0
M  V30 5720 O 560.397 0.641804 -1.61946 0
M  V30 5721 C 557.529 1.15073 -3.20891 0
M  V30 5722 H 558.722 -0.635964 -2.93079 0
M  V30 5723 H 556.275 -0.368007 -1.51906 0
M  V30 5724 H 557.01 1.91667 -2.616 0
M  V30 5725 H 556.795 0.656867 -3.86559 0
M  V30 5726 H 558.285 1.64665 -3.83765 0
M  V30 5727 N 558.722 1.53707 -0.348139 0
M  V30 5728 C 559.652 2.28111 0.498766 0
M  V30 5729 C 560.633 1.29851 1.09876 0
M  V30 5730 O 561.818 1.587 1.11928 0
M  V30 5731 C 558.948 3.05735 1.64753 0
M  V30 5732 C 557.902 4.11537 1.17565 0
M  V30 5733 C 557.228 4.77142 2.4133 0
M  V30 5734 C 558.528 5.21587 0.272844 0
M  V30 5735 H 560.222 2.99152 -0.121934 0
M  V30 5736 H 557.768 1.43875 -0.0600842 0
M  V30 5737 H 559.721 3.56526 2.24649 0
M  V30 5738 H 558.445 2.32354 2.2952 0
M  V30 5739 H 557.104 3.61665 0.599483 0
M  V30 5740 H 556.752 4.0035 3.04514 0
M  V30 5741 H 556.452 5.48626 2.10436 0
M  V30 5742 H 557.976 5.30719 3.01943 0
M  V30 5743 H 559.39 5.67986 0.778779 0
M  V30 5744 H 557.787 6.00074 0.0555849 0
M  V30 5745 H 558.857 4.79969 -0.689785 0
M  V30 5746 N 560.2 0.0768682 1.57412 0
M  V30 5747 C 561.448 -0.589918 1.93299 0
M  V30 5748 C 561.769 -1.69842 0.958049 0
M  V30 5749 O 561.039 -1.95899 0.00703261 0
M  V30 5750 H 559.619 -0.220901 0.713591 0
M  V30 5751 H 562.281 0.135917 1.94425 0
M  V30 5752 H 561.377 -1.01195 2.95239 0
M  V30 5753 N 561.678 -1.56367 -0.196722 0
M  V30 5754 C 562.926 -1.80172 -0.915554 0
M  V30 5755 C 563.247 -0.649649 -1.8386 0
M  V30 5756 O 562.517 0.332111 -1.93064 0
M  V30 5757 H 561.097 -0.664592 -0.341067 0
M  V30 5758 H 563.759 -1.93844 -0.202622 0
M  V30 5759 H 562.855 -2.7327 -1.50764 0
M  V30 5760 N 563.156 0.464375 -1.50603 0
M  V30 5761 C 564.086 1.56944 -1.72889 0
M  V30 5762 C 565.067 1.59979 -0.577997 0
M  V30 5763 O 566.252 1.76138 -0.817855 0
M  V30 5764 C 563.382 2.95225 -1.8292 0
M  V30 5765 C 562.336 3.07056 -2.98162 0
M  V30 5766 C 561.662 4.47051 -2.93343 0
M  V30 5767 C 562.962 2.83648 -4.38567 0
M  V30 5768 H 564.656 1.38547 -2.65415 0
M  V30 5769 H 562.202 0.665082 -1.27721 0
M  V30 5770 H 564.155 3.72467 -1.97095 0
M  V30 5771 H 562.879 3.14793 -0.870209 0
M  V30 5772 H 561.538 2.32248 -2.83648 0
M  V30 5773 H 561.186 4.63547 -1.95276 0
M  V30 5774 H 560.886 4.55902 -3.70712 0
M  V30 5775 H 562.41 5.26304 -3.09575 0
M  V30 5776 H 563.824 3.50636 -4.53572 0
M  V30 5777 H 562.221 3.03937 -5.17438 0
M  V30 5778 H 563.291 1.79451 -4.50472 0
M  V30 5779 N 564.634 1.40294 0.718013 0
M  V30 5780 C 565.564 1.43118 1.84498 0
M  V30 5781 C 566.545 0.292403 1.67568 0
M  V30 5782 O 567.73 0.500675 1.87635 0
M  V30 5783 C 564.86 1.29065 3.22427 0
M  V30 5784 C 563.814 2.40521 3.54025 0
M  V30 5785 C 563.14 2.11546 4.91073 0
M  V30 5786 C 564.44 3.82859 3.55269 0
M  V30 5787 H 566.134 2.37432 1.82391 0
M  V30 5788 H 563.68 1.14283 0.87609 0
M  V30 5789 H 565.633 1.29658 4.00957 0
M  V30 5790 H 564.357 0.312271 3.25104 0
M  V30 5791 H 563.016 2.39173 2.77834 0
M  V30 5792 H 562.664 1.12104 4.90348 0
M  V30 5793 H 562.364 2.86216 5.1318 0
M  V30 5794 H 563.888 2.13817 5.71939 0
M  V30 5795 H 565.302 3.86044 4.23843 0
M  V30 5796 H 563.699 4.57029 3.88902 0
M  V30 5797 H 564.769 4.12617 2.54706 0
M  V30 5798 N 566.112 -0.949982 1.2575 0
M  V30 5799 C 567.34 -1.72972 1.13527 0
M  V30 5800 C 567.755 -1.8623 -0.310453 0
M  V30 5801 O 567.112 -1.36336 -1.2132 0
M  V30 5802 C 567.163 -3.14108 1.78936 0
M  V30 5803 O 566.884 -3.01493 3.17858 0
M  V30 5804 C 568.385 -4.08338 1.72554 0
M  V30 5805 H 565.605 -0.541864 0.395758 0
M  V30 5806 H 568.149 -1.19151 1.66202 0
M  V30 5807 H 566.304 -3.64858 1.30221 0
M  V30 5808 H 566.718 -3.90559 3.50092 0
M  V30 5809 H 568.192 -5.04963 2.22973 0
M  V30 5810 H 568.669 -4.33742 0.690251 0
M  V30 5811 H 569.275 -3.63506 2.2078 0
M  V30 5812 N 567.59 -1.07411 -1.15328 0
M  V30 5813 C 568.838 -0.796073 -1.85761 0
M  V30 5814 C 569.159 0.679864 -1.82764 0
M  V30 5815 O 568.429 1.49242 -1.269 0
M  V30 5816 H 567.009 -0.291495 -0.687779 0
M  V30 5817 H 569.671 -1.35799 -1.39802 0
M  V30 5818 H 568.767 -1.13114 -2.90881 0
M  V30 5819 N 569.068 1.32177 -0.85831 0
M  V30 5820 C 570.314 1.97417 -0.46417 0
M  V30 5821 C 570.647 1.67746 0.978514 0
M  V30 5822 O 569.922 0.967654 1.68721 0
M  V30 5823 C 570.205 3.53069 -0.708094 0
M  V30 5824 C 570.058 3.92357 -2.19946 0
M  V30 5825 C 571.377 4.39783 -0.166881 0
M  V30 5826 H 568.496 0.717097 -0.17012 0
M  V30 5827 H 571.138 1.56499 -1.07741 0
M  V30 5828 H 569.288 3.88054 -0.186128 0
M  V30 5829 H 570.96 3.67533 -2.78779 0
M  V30 5830 H 569.203 3.41384 -2.67656 0
M  V30 5831 H 569.874 5.00841 -2.32082 0
M  V30 5832 H 572.35 4.11556 -0.613285 0
M  V30 5833 H 571.226 5.47671 -0.367093 0
M  V30 5834 H 571.487 4.32196 0.930559 0
M  V30 5835 N 570.547 0.616602 1.45037 0
M  V30 5836 C 571.958 0.199359 1.85633 0
M  V30 5837 C 572.309 -1.24588 1.51566 0
M  V30 5838 O 571.434 -1.94594 0.94668 0
M  V30 5839 C 572.029 0.355033 3.36935 0
M  V30 5840 C 570.588 -0.00758748 3.76399 0
M  V30 5841 C 569.735 0.675256 2.68953 0
M  V30 5842 H 572.686 0.822708 1.3571 0
M  V30 5843 H 572.707 -0.410201 3.78282 0
M  V30 5844 H 572.219 1.40699 3.61698 0
M  V30 5845 H 570.32 -1.05837 3.57252 0
M  V30 5846 H 570.433 0.392346 4.77491 0
M  V30 5847 H 568.797 0.111992 2.54454 0
M  V30 5848 H 569.58 1.72952 2.96551 0
M  V30 5849 N 572.025 -1.5352 0.356285 0
M  V30 5850 C 573.436 -1.86282 -0.12492 0
M  V30 5851 C 573.787 -1.27717 -1.48939 0
M  V30 5852 O 572.912 -0.595614 -2.08042 0
M  V30 5853 C 573.507 -3.37995 -0.23345 0
M  V30 5854 C 572.066 -3.70588 -0.658899 0
M  V30 5855 C 571.213 -2.76581 0.199596 0
M  V30 5856 H 574.164 -1.47901 0.575423 0
M  V30 5857 H 574.185 -3.65475 -1.0587 0
M  V30 5858 H 573.697 -3.8059 0.759776 0
M  V30 5859 H 571.798 -3.33544 -1.66069 0
M  V30 5860 H 571.911 -4.77076 -0.439957 0
M  V30 5861 H 570.275 -2.52552 -0.330076 0
M  V30 5862 H 571.058 -3.22008 1.19019 0
M  V30 5863 N 573.503 -0.0852151 -1.57369 0
M  V30 5864 C 574.435 0.907099 -2.10486 0
M  V30 5865 C 575.448 1.25259 -1.03991 0
M  V30 5866 O 576.637 1.20743 -1.31467 0
M  V30 5867 C 573.737 2.21908 -2.56145 0
M  V30 5868 C 572.91 2.05042 -3.86363 0
M  V30 5869 C 571.969 3.19664 -4.17973 0
M  V30 5870 O 570.995 2.94062 -4.87356 0
M  V30 5871 N 572.197 4.45151 -3.72587 0
M  V30 5872 H 574.962 0.453505 -2.96249 0
M  V30 5873 H 572.523 0.100157 -1.6159 0
M  V30 5874 H 574.515 2.97519 -2.74343 0
M  V30 5875 H 573.085 2.58723 -1.75446 0
M  V30 5876 H 572.305 1.13819 -3.77411 0
M  V30 5877 H 573.593 1.91039 -4.71574 0
M  V30 5878 H 572.991 4.68834 -3.16561 0
M  V30 5879 H 571.548 5.17744 -3.9596 0
M  V30 5880 N 574.981 1.5647 0.188427 0
M  V30 5881 C 575.891 1.98285 1.2538 0
M  V30 5882 C 576.907 0.891535 1.49424 0
M  V30 5883 O 578.083 1.19782 1.61908 0
M  V30 5884 C 575.148 2.31965 2.57669 0
M  V30 5885 C 574.209 3.54838 2.41638 0
M  V30 5886 C 573.442 3.86901 3.67618 0
M  V30 5887 O 573.665 3.20163 4.72072 0
M  V30 5888 O 572.599 4.80309 3.62749 0
M  V30 5889 H 576.425 2.89145 0.928912 0
M  V30 5890 H 574.01 1.44112 0.393955 0
M  V30 5891 H 575.892 2.54673 3.35737 0
M  V30 5892 H 574.567 1.44271 2.89771 0
M  V30 5893 H 573.474 3.37369 1.61658 0
M  V30 5894 H 574.807 4.43019 2.14465 0
M  V30 5895 N 576.459 -0.456382 1.50847 0
M  V30 5896 C 577.389 -1.56025 1.73719 0
M  V30 5897 C 578.37 -1.5967 0.586473 0
M  V30 5898 O 579.555 -1.75702 0.827185 0
M  V30 5899 C 576.685 -2.94251 1.84483 0
M  V30 5900 C 575.639 -3.05471 2.99786 0
M  V30 5901 C 574.965 -4.45489 2.95709 0
M  V30 5902 C 576.265 -2.81318 4.40065 0
M  V30 5903 H 577.959 -1.37138 2.66146 0
M  V30 5904 H 575.505 -0.658299 1.28072 0
M  V30 5905 H 577.458 -3.71417 1.99067 0
M  V30 5906 H 576.182 -3.14328 0.886891 0
M  V30 5907 H 574.841 -2.30741 2.84876 0
M  V30 5908 H 574.489 -4.62505 1.97732 0
M  V30 5909 H 574.189 -4.53929 3.73125 0
M  V30 5910 H 575.713 -5.24655 3.12362 0
M  V30 5911 H 577.127 -3.48226 4.55425 0
M  V30 5912 H 575.524 -3.01188 5.19043 0
M  V30 5913 H 576.594 -1.7706 4.51418 0
M  V30 5914 N 577.937 -1.40673 -0.710563 0
M  V30 5915 C 579.183 -1.39428 -1.47267 0
M  V30 5916 C 579.516 0.00182129 -1.942 0
M  V30 5917 O 578.791 0.971387 -1.68506 0
M  V30 5918 C 579.074 -2.38812 -2.6952 0
M  V30 5919 C 578.927 -3.87467 -2.28449 0
M  V30 5920 C 580.246 -2.3566 -3.71689 0
M  V30 5921 H 577.365 -0.507768 -0.534173 0
M  V30 5922 H 580.007 -1.71843 -0.810547 0
M  V30 5923 H 578.157 -2.113 -3.26013 0
M  V30 5924 H 579.829 -4.25825 -1.77399 0
M  V30 5925 H 578.072 -4.03058 -1.60395 0
M  V30 5926 H 578.743 -4.5253 -3.16103 0
M  V30 5927 H 581.219 -2.6004 -3.24836 0
M  V30 5928 H 580.095 -3.07237 -4.54859 0
M  V30 5929 H 580.356 -1.36996 -4.20339 0
M  V30 5930 N 579.415 0.9433 -1.26252 0
M  V30 5931 C 580.347 2.04542 -1.03417 0
M  V30 5932 C 581.36 1.62799 0.0046911 0
M  V30 5933 O 582.549 1.76944 -0.235146 0
M  V30 5934 C 579.649 3.34511 -0.543671 0
M  V30 5935 C 578.822 4.05033 -1.65128 0
M  V30 5936 C 577.881 5.13273 -1.1592 0
M  V30 5937 O 576.907 5.38095 -1.85586 0
M  V30 5938 N 578.109 5.805 -0.00649279 0
M  V30 5939 H 580.874 2.24699 -1.98319 0
M  V30 5940 H 578.435 1.11264 -1.1761 0
M  V30 5941 H 580.427 4.04212 -0.198703 0
M  V30 5942 H 578.997 3.11042 0.311711 0
M  V30 5943 H 578.217 3.29275 -2.16729 0
M  V30 5944 H 579.505 4.48903 -2.39508 0
M  V30 5945 H 578.903 5.62767 0.575347 0
M  V30 5946 H 577.46 6.51201 0.279416 0
M  V30 5947 N 580.893 1.08022 1.14757 0
M  V30 5948 C 582.133 0.816959 1.87364 0
M  V30 5949 C 582.497 -0.645407 1.80827 0
M  V30 5950 O 583.698 -1.024 2.48531 0
M  V30 5951 C 581.969 1.31961 3.32146 0
M  V30 5952 S 583.528 1.18806 4.2241 0
M  V30 5953 H 580.346 0.295862 0.646519 0
M  V30 5954 H 582.948 1.3807 1.38408 0
M  V30 5955 H 581.652 2.37847 3.3445 0
M  V30 5956 H 581.183 0.751371 3.86158 0
M  V30 5957 H 583.198 0.129865 4.9603 0
M  V30 5958 N 582.371 -1.3172 0.865308 0
M  V30 5959 C 583.303 -2.27545 0.274906 0
M  V30 5960 C 584.316 -1.52887 -0.559413 0
M  V30 5961 O 585.505 -1.74361 -0.382166 0
M  V30 5962 C 582.605 -3.33006 -0.629286 0
M  V30 5963 C 581.778 -4.37063 0.171553 0
M  V30 5964 C 580.837 -5.22044 -0.660052 0
M  V30 5965 O 579.863 -5.69129 -0.0897527 0
M  V30 5966 N 581.065 -5.45946 -1.97289 0
M  V30 5967 H 583.83 -2.78848 1.09836 0
M  V30 5968 H 581.391 -1.44693 0.726331 0
M  V30 5969 H 583.383 -3.86772 -1.19121 0
M  V30 5970 H 581.953 -2.81782 -1.35342 0
M  V30 5971 H 581.173 -3.83436 0.914919 0
M  V30 5972 H 582.461 -5.03662 0.721235 0
M  V30 5973 H 581.859 -5.0944 -2.45942 0
M  V30 5974 H 580.416 -6.02665 -2.4827 0
M  V30 5975 N 583.85 -0.624285 -1.44708 0
M  V30 5976 C 584.812 0.0749638 -2.29077 0
M  V30 5977 C 585.812 0.778965 -1.40673 0
M  V30 5978 O 587.003 0.624591 -1.62618 0
M  V30 5979 C 584.135 1.11663 -3.22094 0
M  V30 5980 H 585.327 -0.667013 -2.92388 0
M  V30 5981 H 582.88 -0.384098 -1.51507 0
M  V30 5982 H 583.615 1.88881 -2.63618 0
M  V30 5983 H 583.401 0.61583 -3.87234 0
M  V30 5984 H 584.891 1.60585 -3.8549 0
M  V30 5985 N 585.328 1.53329 -0.364422 0
M  V30 5986 C 586.238 2.29414 0.490552 0
M  V30 5987 C 587.254 1.35335 1.09363 0
M  V30 5988 O 588.43 1.68391 1.10483 0
M  V30 5989 C 585.495 3.06772 1.61529 0
M  V30 5990 C 584.556 4.16516 1.03986 0
M  V30 5991 C 583.789 4.90176 2.111 0
M  V30 5992 O 584.012 4.63687 3.32191 0
M  V30 5993 O 582.946 5.76134 1.74222 0
M  V30 5994 H 586.772 3.03428 -0.12856 0
M  V30 5995 H 584.357 1.48843 -0.128837 0
M  V30 5996 H 586.239 3.55082 2.26924 0
M  V30 5997 H 584.914 2.35596 2.21983 0
M  V30 5998 H 583.821 3.7246 0.349856 0
M  V30 5999 H 585.154 4.89855 0.4799 0
M  V30 6000 N 586.806 0.0935595 1.57322 0
M  V30 6001 C 587.753 -0.865935 2.1394 0
M  V30 6002 C 588.723 -1.28083 1.05754 0
M  V30 6003 O 589.908 -1.36285 1.33533 0
M  V30 6004 C 587.048 -2.12023 2.72287 0
M  V30 6005 C 586.161 -1.756 3.94701 0
M  V30 6006 C 585.296 -2.95804 4.41218 0
M  V30 6007 C 584.335 -2.555 5.56225 0
M  V30 6008 N 583.472 -3.68534 5.97601 0
M  V30 6009 H 588.312 -0.376261 2.95615 0
M  V30 6010 H 585.849 -0.174052 1.46067 0
M  V30 6011 H 587.807 -2.85477 3.04235 0
M  V30 6012 H 586.437 -2.58492 1.93343 0
M  V30 6013 H 585.489 -0.921208 3.69077 0
M  V30 6014 H 586.801 -1.41964 4.78171 0
M  V30 6015 H 585.955 -3.77513 4.74941 0
M  V30 6016 H 584.694 -3.32649 3.56645 0
M  V30 6017 H 583.699 -1.72218 5.22131 0
M  V30 6018 H 584.924 -2.19801 6.42545 0
M  V30 6019 H 582.87 -4.051 5.15974 0
M  V30 6020 H 582.787 -3.38737 6.75865 0
M  V30 6021 H 584.055 -4.50757 6.35955 0
M  V30 6022 N 588.284 -1.56567 -0.180126 0
M  V30 6023 C 589.512 -1.85618 -0.913972 0
M  V30 6024 C 589.927 -0.677892 -1.7621 0
M  V30 6025 O 589.284 0.353171 -1.7905 0
M  V30 6026 C 589.335 -3.13619 -1.79793 0
M  V30 6027 O 589.056 -4.26906 -0.98402 0
M  V30 6028 C 590.557 -3.55954 -2.64219 0
M  V30 6029 H 587.777 -0.616043 -0.265954 0
M  V30 6030 H 590.321 -2.03681 -0.182872 0
M  V30 6031 H 588.476 -2.97409 -2.48247 0
M  V30 6032 H 588.89 -4.9989 -1.58776 0
M  V30 6033 H 590.364 -4.48444 -3.21873 0
M  V30 6034 H 590.841 -2.79653 -3.38661 0
M  V30 6035 H 591.447 -3.74746 -2.01111 0
M  V30 6036 N 589.762 0.448376 -1.51087 0
M  V30 6037 C 591.011 1.19561 -1.62444 0
M  V30 6038 C 591.324 1.92602 -0.341151 0
M  V30 6039 O 592.53 2.69439 -0.333936 0
M  V30 6040 C 590.986 2.17373 -2.8684 0
M  V30 6041 C 590.594 1.5003 -4.22131 0
M  V30 6042 C 592.338 2.92597 -3.0755 0
M  V30 6043 C 590.245 2.46262 -5.37689 0
M  V30 6044 H 589.175 0.449975 -0.605011 0
M  V30 6045 H 591.826 0.463735 -1.77544 0
M  V30 6046 H 590.208 2.93948 -2.65349 0
M  V30 6047 H 591.382 0.790886 -4.53962 0
M  V30 6048 H 589.697 0.870011 -4.0721 0
M  V30 6049 H 592.294 3.64663 -3.91056 0
M  V30 6050 H 592.637 3.53306 -2.20183 0
M  V30 6051 H 593.17 2.23131 -3.29329 0
M  V30 6052 H 589.909 1.90258 -6.27281 0
M  V30 6053 H 589.429 3.15289 -5.10248 0
M  V30 6054 H 591.108 3.07623 -5.6919 0
M  V30 6055 N 591.24 1.41047 0.703093 0
M  V30 6056 C 592.17 1.45067 1.82969 0
M  V30 6057 C 593.151 0.31016 1.67248 0
M  V30 6058 O 594.336 0.520548 1.87093 0
M  V30 6059 C 591.466 1.32478 3.2104 0
M  V30 6060 C 590.42 2.44262 3.51454 0
M  V30 6061 C 589.746 2.16742 4.88801 0
M  V30 6062 C 591.046 3.86606 3.51189 0
M  V30 6063 H 592.74 2.39353 1.79863 0
M  V30 6064 H 590.286 1.15206 0.863919 0
M  V30 6065 H 592.239 1.33904 3.99559 0
M  V30 6066 H 590.963 0.346735 3.24754 0
M  V30 6067 H 589.622 2.42107 2.75282 0
M  V30 6068 H 589.27 1.17299 4.89132 0
M  V30 6069 H 588.97 2.91643 5.10116 0
M  V30 6070 H 590.494 2.19872 5.69639 0
M  V30 6071 H 591.908 3.90517 4.19725 0
M  V30 6072 H 590.305 4.61128 3.84033 0
M  V30 6073 H 591.375 4.15296 2.50315 0
M  V30 6074 N 592.718 -0.936591 1.26751 0
M  V30 6075 C 593.681 -2.01752 1.08761 0
M  V30 6076 C 594.681 -1.60763 0.0344435 0
M  V30 6077 O 595.871 -1.71963 0.278258 0
M  V30 6078 C 593.003 -3.34543 0.655271 0
M  V30 6079 H 594.196 -2.19143 2.04735 0
M  V30 6080 H 591.749 -1.11618 1.09413 0
M  V30 6081 H 592.484 -3.22851 -0.30626 0
M  V30 6082 H 592.269 -3.65647 1.41578 0
M  V30 6083 H 593.759 -4.13944 0.551378 0
M  V30 6084 N 594.196 -1.08629 -1.14182 0
M  V30 6085 C 595.473 -0.73002 -1.81466 0
M  V30 6086 C 595.853 0.785996 -1.95922 0
M  V30 6087 O 595.201 1.70535 -1.52086 0
M  V30 6088 C 595.411 -1.45957 -3.17014 0
M  V30 6089 C 596.759 -1.62008 -3.92477 0
M  V30 6090 O 597.783 -1.42141 -3.26611 0
M  V30 6091 O 596.642 -1.94806 -5.106 0
M  V30 6092 H 593.736 -0.261307 -0.784632 0
M  V30 6093 H 596.282 -1.188 -1.2118 0
M  V30 6094 H 595.054 -2.49221 -3.01669 0
M  V30 6095 H 594.677 -0.993222 -3.84995 0
M  V30 6096 N 595.674 1.31259 -0.872281 0
M  V30 6097 C 596.902 2.00795 -0.498907 0
M  V30 6098 C 597.317 1.65464 0.909238 0
M  V30 6099 O 596.674 0.885073 1.59602 0
M  V30 6100 C 596.725 3.55625 -0.649092 0
M  V30 6101 O 596.446 3.89692 -2.00179 0
M  V30 6102 C 597.947 4.42434 -0.277034 0
M  V30 6103 H 595.167 0.642299 -0.194145 0
M  V30 6104 H 597.711 1.67438 -1.17408 0
M  V30 6105 H 595.866 3.87394 -0.0214402 0
M  V30 6106 H 596.28 4.84407 -2.01122 0
M  V30 6107 H 597.754 5.50299 -0.433064 0
M  V30 6108 H 598.231 4.32146 0.783989 0
M  V30 6109 H 598.837 4.16086 -0.880483 0
M  V30 6110 N 597.152 0.631951 1.44375 0
M  V30 6111 C 598.4 0.136497 2.01639 0
M  V30 6112 C 598.721 -1.24637 1.49969 0
M  V30 6113 O 597.991 -1.82827 0.70363 0
M  V30 6114 H 596.571 0.0474703 0.74549 0
M  V30 6115 H 599.233 0.818837 1.76865 0
M  V30 6116 H 598.329 0.104817 3.11924 0
M  V30 6117 N 598.631 -1.53133 0.372548 0
M  V30 6118 C 599.579 -2.27473 -0.485681 0
M  V30 6119 C 600.573 -1.30719 -1.07745 0
M  V30 6120 O 601.779 -1.48321 -1.01985 0
M  V30 6121 H 598.154 -0.731269 -0.175356 0
M  V30 6122 H 600.125 -2.97955 0.162986 0
M  V30 6123 C 598.874 -3.08191 -1.60978 0
M  V30 6124 H 598.197 -3.82488 -1.16373 0
M  V30 6125 H 599.637 -3.63373 -2.18485 0
M  V30 6126 C 598.096 -2.19461 -2.55614 0
M  V30 6127 O 598.626 -1.81008 -3.58607 0
M  V30 6128 N 596.832 -1.83955 -2.24965 0
M  V30 6129 H 596.379 -2.15423 -1.41247 0
M  V30 6130 H 596.337 -1.24874 -2.88538 0
M  V30 6131 N 600.109 -0.101901 -1.5727 0
M  V30 6132 C 601.056 0.854577 -2.14396 0
M  V30 6133 C 602.026 1.27521 -1.06432 0
M  V30 6134 O 603.211 1.35575 -1.34253 0
M  V30 6135 C 600.351 2.10576 -2.73408 0
M  V30 6136 C 599.464 1.73504 -3.95626 0
M  V30 6137 C 598.599 2.9346 -4.42781 0
M  V30 6138 C 597.638 2.52547 -5.57572 0
M  V30 6139 N 596.775 3.65359 -5.99547 0
M  V30 6140 H 601.615 0.360578 -2.9581 0
M  V30 6141 H 599.152 0.166303 -1.46157 0
M  V30 6142 H 601.11 2.83859 -3.05745 0
M  V30 6143 H 599.74 2.57463 -1.94711 0
M  V30 6144 H 598.792 0.901622 -3.6956 0
M  V30 6145 H 600.104 1.39426 -4.78917 0
M  V30 6146 H 599.258 3.74988 -4.76937 0
M  V30 6147 H 597.997 3.30753 -3.58404 0
M  V30 6148 H 597.002 1.69446 -5.23037 0
M  V30 6149 H 598.227 2.1639 -6.43702 0
M  V30 6150 H 596.173 4.02358 -5.18116 0
M  V30 6151 H 596.09 3.35148 -6.77652 0
M  V30 6152 H 597.358 4.47378 -6.38336 0
M  V30 6153 N 601.587 1.56661 0.17182 0
M  V30 6154 C 602.534 1.96371 1.21273 0
M  V30 6155 C 603.504 0.82756 1.44016 0
M  V30 6156 O 604.689 1.08764 1.56764 0
M  V30 6157 C 601.829 2.32838 2.54716 0
M  V30 6158 C 600.942 3.59628 2.39356 0
M  V30 6159 C 600.077 3.85311 3.65662 0
M  V30 6160 C 599.116 5.0545 3.45234 0
M  V30 6161 N 598.253 5.27268 4.63608 0
M  V30 6162 H 603.093 2.85106 0.86709 0
M  V30 6163 H 600.63 1.41073 0.416744 0
M  V30 6164 H 602.588 2.52004 3.3249 0
M  V30 6165 H 601.218 1.47214 2.87277 0
M  V30 6166 H 600.27 3.4838 1.52761 0
M  V30 6167 H 601.582 4.4756 2.20207 0
M  V30 6168 H 600.736 4.04841 4.51872 0
M  V30 6169 H 599.475 2.95753 3.8779 0
M  V30 6170 H 598.48 4.85819 2.5741 0
M  V30 6171 H 599.705 5.96538 3.24529 0
M  V30 6172 H 597.651 4.40662 4.85956 0
M  V30 6173 H 597.568 6.09422 4.4737 0
M  V30 6174 H 598.836 5.51277 5.51103 0
M  V30 6175 N 603.065 -0.440357 1.51323 0
M  V30 6176 C 604.476 -1.02032 1.56353 0
M  V30 6177 C 604.827 -1.92382 0.385197 0
M  V30 6178 O 603.952 -2.10583 -0.498373 0
M  V30 6179 C 604.547 -1.85723 2.83359 0
M  V30 6180 C 603.106 -2.38774 2.90971 0
M  V30 6181 C 602.253 -1.17908 2.50984 0
M  V30 6182 H 605.204 -0.221744 1.57143 0
M  V30 6183 H 605.225 -2.71141 2.66951 0
M  V30 6184 H 604.737 -1.19939 3.69102 0
M  V30 6185 H 602.838 -3.08021 2.09651 0
M  V30 6186 H 602.951 -2.71778 3.94555 0
M  V30 6187 H 601.315 -1.52347 2.04114 0
M  V30 6188 H 602.098 -0.537393 3.39068 0
M  V30 6189 N 604.543 -1.41418 -0.695603 0
M  V30 6190 C 605.773 -1.43921 -1.48224 0
M  V30 6191 C 606.181 -0.0428855 -1.89151 0
M  V30 6192 O 605.524 0.948138 -1.5734 0
M  V30 6193 C 605.586 -2.28466 -2.77567 0
M  V30 6194 C 605.25 -3.76629 -2.58844 0
M  V30 6195 C 606.247 -4.6879 -2.24793 0
M  V30 6196 C 603.932 -4.2067 -2.74485 0
M  V30 6197 C 605.926 -6.02981 -2.06622 0
M  V30 6198 C 603.613 -5.54926 -2.55931 0
M  V30 6199 C 604.611 -6.45897 -2.2205 0
M  V30 6200 O 604.299 -7.77675 -2.03657 0
M  V30 6201 H 604.031 -0.492252 -0.463318 0
M  V30 6202 H 606.585 -1.86347 -0.863952 0
M  V30 6203 H 604.815 -1.80853 -3.41802 0
M  V30 6204 H 606.504 -2.2267 -3.39371 0
M  V30 6205 H 607.27 -4.36055 -2.12323 0
M  V30 6206 H 603.149 -3.50167 -2.9984 0
M  V30 6207 H 606.693 -6.73951 -1.80099 0
M  V30 6208 H 602.59 -5.8724 -2.67991 0
M  V30 6209 H 603.358 -7.88819 -2.1842 0
M  V30 6210 N 606.021 0.929856 -1.27246 0
M  V30 6211 C 607.432 1.49223 -1.12203 0
M  V30 6212 C 607.783 1.93989 0.293731 0
M  V30 6213 O 606.908 1.80978 1.18642 0
M  V30 6214 C 607.503 2.71198 -2.0307 0
M  V30 6215 C 606.062 3.23666 -1.92139 0
M  V30 6216 C 605.209 1.96409 -1.95752 0
M  V30 6217 H 608.16 0.744181 -1.4017 0
M  V30 6218 H 608.181 3.45905 -1.58524 0
M  V30 6219 H 607.693 2.38585 -3.06102 0
M  V30 6220 H 605.794 3.61042 -0.920834 0
M  V30 6221 H 605.907 3.90006 -2.78267 0
M  V30 6222 H 604.271 2.12806 -1.39949 0
M  V30 6223 H 605.054 1.66113 -3.00436 0
M  V30 6224 N 607.499 1.09233 1.13605 0
M  V30 6225 C 608.745 0.838255 1.85324 0
M  V30 6226 C 609.1 -0.629314 1.81817 0
M  V30 6227 O 608.393 -1.45729 1.24393 0
M  V30 6228 C 608.587 1.305 3.32723 0
M  V30 6229 C 608.416 2.81641 3.50583 0
M  V30 6230 C 607.186 3.49494 3.64941 0
M  V30 6231 C 609.384 3.79789 3.46792 0
M  V30 6232 N 607.366 4.89082 3.71042 0
M  V30 6233 C 608.737 5.05319 3.59239 0
M  V30 6234 C 610.792 3.72673 3.30181 0
M  V30 6235 C 609.495 6.24574 3.56791 0
M  V30 6236 C 611.521 4.91413 3.29039 0
M  V30 6237 C 610.883 6.15785 3.42035 0
M  V30 6238 H 606.982 0.359572 0.69443 0
M  V30 6239 H 609.566 1.39232 1.36098 0
M  V30 6240 H 607.737 0.778411 3.8052 0
M  V30 6241 H 609.469 0.996465 3.92241 0
M  V30 6242 H 606.224 2.9992 3.66531 0
M  V30 6243 H 606.648 5.61787 3.77789 0
M  V30 6244 H 611.29 2.77444 3.19037 0
M  V30 6245 H 609.008 7.20105 3.66708 0
M  V30 6246 H 612.594 4.87604 3.17386 0
M  V30 6247 H 611.474 7.06126 3.41111 0
M  V30 6248 N 608.977 -1.30795 0.87923 0
M  V30 6249 C 610.205 -2.00527 0.509548 0
M  V30 6250 C 610.62 -1.65944 -0.90045 0
M  V30 6251 O 609.977 -0.893525 -1.5913 0
M  V30 6252 C 610.028 -3.55276 0.667943 0
M  V30 6253 O 609.749 -3.88625 2.02242 0
M  V30 6254 C 611.25 -4.4228 0.300494 0
M  V30 6255 H 608.47 -0.641261 0.197549 0
M  V30 6256 H 611.014 -1.66813 1.18295 0
M  V30 6257 H 609.169 -3.87377 0.0419843 0
M  V30 6258 H 609.583 -4.83334 2.03688 0
M  V30 6259 H 611.057 -5.50061 0.462242 0
M  V30 6260 H 611.534 -4.32556 -0.76106 0
M  V30 6261 H 612.14 -4.15613 0.902536 0
M  V30 6262 N 610.455 -0.639598 -1.44038 0
M  V30 6263 C 611.866 -0.228866 -1.85292 0
M  V30 6264 C 612.217 1.22161 -1.53529 0
M  V30 6265 O 611.342 1.93064 -0.977518 0
M  V30 6266 C 611.937 -0.408592 -3.36327 0
M  V30 6267 C 610.496 -0.0522953 -3.76364 0
M  V30 6268 C 609.643 -0.717959 -2.67844 0
M  V30 6269 H 612.594 -0.844194 -1.34384 0
M  V30 6270 H 612.615 0.349968 -3.78887 0
M  V30 6271 H 612.127 -1.46435 -3.59414 0
M  V30 6272 H 610.228 1.0014 -3.58891 0
M  V30 6273 H 610.341 -0.468261 -4.76806 0
M  V30 6274 H 608.705 -0.152459 -2.54243 0
M  V30 6275 H 609.488 -1.77648 -2.93762 0
M  V30 6276 N 611.933 1.52934 -0.380664 0
M  V30 6277 C 613.161 2.05886 0.204599 0
M  V30 6278 C 613.576 1.25305 1.41223 0
M  V30 6279 O 612.933 0.297504 1.80059 0
M  V30 6280 C 612.984 3.56764 0.583249 0
M  V30 6281 O 612.705 4.34292 -0.576398 0
M  V30 6282 C 614.206 4.2603 1.2253 0
M  V30 6283 H 611.426 0.670193 0.0328991 0
M  V30 6284 H 613.97 1.97148 -0.543397 0
M  V30 6285 H 612.125 3.65603 1.28115 0
M  V30 6286 H 612.539 5.23819 -0.267119 0
M  V30 6287 H 614.013 5.32868 1.44068 0
M  V30 6288 H 614.49 3.80698 2.19011 0
M  V30 6289 H 615.096 4.21485 0.568407 0
M  V30 6290 N 613.412 0.11024 1.57214 0
M  V30 6291 C 614.658 -0.550684 1.9518 0
M  V30 6292 C 614.991 -1.66885 0.993122 0
M  V30 6293 O 614.266 -1.94479 0.0287907 0
M  V30 6294 C 614.549 -1.09163 3.43155 0
M  V30 6295 C 614.402 0.0225198 4.49794 0
M  V30 6296 C 615.721 -1.98527 3.92778 0
M  V30 6297 H 612.84 -0.198706 0.709708 0
M  V30 6298 H 615.482 0.184024 1.89107 0
M  V30 6299 H 613.632 -1.71775 3.48462 0
M  V30 6300 H 615.304 0.657443 4.56591 0
M  V30 6301 H 613.547 0.686868 4.28328 0
M  V30 6302 H 614.218 -0.39706 5.5057 0
M  V30 6303 H 616.694 -1.458 3.8972 0
M  V30 6304 H 615.57 -2.33298 4.96853 0
M  V30 6305 H 615.831 -2.90846 3.32958 0
M  V30 6306 N 614.89 -1.56749 -0.16351 0
M  V30 6307 C 615.82 -2.00042 -1.20438 0
M  V30 6308 C 616.801 -0.877256 -1.45733 0
M  V30 6309 O 617.986 -1.1439 -1.56935 0
M  V30 6310 C 615.116 -2.36697 -2.54149 0
M  V30 6311 C 614.07 -3.52046 -2.43408 0
M  V30 6312 C 613.396 -3.74466 -3.81679 0
M  V30 6313 C 614.696 -4.85247 -1.93216 0
M  V30 6314 H 616.39 -2.87244 -0.844477 0
M  V30 6315 H 613.936 -1.38194 -0.40478 0
M  V30 6316 H 615.889 -2.65582 -3.27176 0
M  V30 6317 H 614.613 -1.46414 -2.91943 0
M  V30 6318 H 613.272 -3.23301 -1.72834 0
M  V30 6319 H 612.92 -2.81461 -4.1688 0
M  V30 6320 H 612.62 -4.52084 -3.75359 0
M  V30 6321 H 614.144 -4.0576 -4.5628 0
M  V30 6322 H 615.558 -5.12957 -2.56023 0
M  V30 6323 H 613.955 -5.66556 -1.97825 0
M  V30 6324 H 615.025 -4.7672 -0.88689 0
M  V30 6325 N 616.368 0.432326 -1.51554 0
M  V30 6326 C 617.779 1.01202 -1.56892 0
M  V30 6327 C 618.13 1.92175 -0.395394 0
M  V30 6328 O 617.255 2.10844 0.487198 0
M  V30 6329 C 617.85 1.84217 -2.8434 0
M  V30 6330 C 616.409 2.37228 -2.92233 0
M  V30 6331 C 615.556 1.16576 -2.51606 0
M  V30 6332 H 618.507 0.213407 -1.57259 0
M  V30 6333 H 618.528 2.69721 -2.68385 0
M  V30 6334 H 618.04 1.17979 -3.69733 0
M  V30 6335 H 616.141 3.06905 -2.11282 0
M  V30 6336 H 616.254 2.69682 -3.95991 0
M  V30 6337 H 614.618 1.51263 -2.04919 0
M  V30 6338 H 615.401 0.519404 -3.39348 0
M  V30 6339 N 617.846 1.41785 0.688094 0
M  V30 6340 C 619.095 1.4084 1.44385 0
M  V30 6341 C 619.408 0.0234166 1.95586 0
M  V30 6342 O 620.614 -0.108647 2.71283 0
M  V30 6343 C 619.07 2.47675 2.61123 0
M  V30 6344 C 618.678 3.92116 2.16677 0
M  V30 6345 C 620.422 2.55877 3.38714 0
M  V30 6346 C 618.329 4.90487 3.30419 0
M  V30 6347 H 617.259 0.523787 0.542368 0
M  V30 6348 H 619.91 1.6764 0.74627 0
M  V30 6349 H 618.292 2.14018 3.33185 0
M  V30 6350 H 619.466 4.35059 1.51856 0
M  V30 6351 H 617.781 3.87642 1.5206 0
M  V30 6352 H 620.378 3.26553 4.234 0
M  V30 6353 H 620.721 1.59801 3.84408 0
M  V30 6354 H 621.254 2.88662 2.73714 0
M  V30 6355 H 617.993 5.87994 2.89729 0
M  V30 6356 H 617.513 4.52187 3.94065 0
M  V30 6357 H 619.192 5.11591 3.96085 0
M  V30 6358 N 619.324 -0.923095 1.27737 0
M  V30 6359 C 620.256 -2.02871 1.06658 0
M  V30 6360 C 621.269 -1.62786 0.0212095 0
M  V30 6361 O 622.458 -1.76548 0.263267 0
M  V30 6362 C 619.558 -3.33603 0.59682 0
M  V30 6363 C 618.731 -4.02354 1.71551 0
M  V30 6364 C 617.79 -5.11364 1.24071 0
M  V30 6365 O 616.816 -5.35075 1.94123 0
M  V30 6366 N 618.018 -5.80416 0.0988444 0
M  V30 6367 H 620.783 -2.21515 2.01869 0
M  V30 6368 H 618.344 -1.09378 1.19365 0
M  V30 6369 H 620.336 -4.03845 0.262984 0
M  V30 6370 H 618.906 -3.11499 -0.262187 0
M  V30 6371 H 618.126 -3.25786 2.2194 0
M  V30 6372 H 619.414 -4.45035 2.46619 0
M  V30 6373 H 618.812 -5.63611 -0.485743 0
M  V30 6374 H 617.369 -6.51563 -0.17578 0
M  V30 6375 N 620.802 -1.09834 -1.13024 0
M  V30 6376 C 621.735 -0.685453 -2.17662 0
M  V30 6377 C 622.713 0.310142 -1.59615 0
M  V30 6378 O 623.897 0.21052 -1.87321 0
M  V30 6379 C 621.024 -0.0104476 -3.38698 0
M  V30 6380 C 620.07 -0.968522 -4.15358 0
M  V30 6381 S 620.903 -2.48272 -4.74469 0
M  V30 6382 C 622.059 -1.82025 -5.98847 0
M  V30 6383 H 622.292 -1.57187 -2.52348 0
M  V30 6384 H 619.825 -0.914728 -1.24387 0
M  V30 6385 H 621.783 0.372694 -4.08805 0
M  V30 6386 H 620.444 0.852673 -3.02305 0
M  V30 6387 H 619.637 -0.443373 -5.02046 0
M  V30 6388 H 619.239 -1.29327 -3.50928 0
M  V30 6389 H 621.531 -1.14678 -6.67724 0
M  V30 6390 H 622.474 -2.66645 -6.55977 0
M  V30 6391 H 622.882 -1.2874 -5.49624 0
M  V30 6392 N 622.28 1.30327 -0.886154 0
M  V30 6393 C 623.527 1.96097 -0.505192 0
M  V30 6394 C 623.855 1.69952 0.945868 0
M  V30 6395 O 623.11 0.997653 1.68361 0
M  V30 6396 C 623.409 3.49906 -0.728042 0
M  V30 6397 C 623.075 3.96103 -2.15437 0
M  V30 6398 C 621.737 4.08428 -2.5444 0
M  V30 6399 C 624.089 4.20177 -3.08384 0
M  V30 6400 C 621.417 4.42189 -3.85598 0
M  V30 6401 C 623.769 4.55407 -4.39075 0
M  V30 6402 C 622.433 4.65941 -4.7797 0
M  V30 6403 H 621.703 0.71757 -0.184863 0
M  V30 6404 H 624.35 1.55171 -1.12223 0
M  V30 6405 H 622.655 3.9179 -0.027978 0
M  V30 6406 H 624.352 3.98869 -0.412862 0
M  V30 6407 H 620.942 3.87017 -1.84162 0
M  V30 6408 H 625.126 4.10134 -2.7947 0
M  V30 6409 H 620.382 4.48544 -4.15473 0
M  V30 6410 H 624.556 4.72986 -5.11133 0
M  V30 6411 H 622.183 4.91856 -5.79639 0
M  V30 6412 N 623.758 0.647228 1.43697 0
M  V30 6413 C 625.174 0.314256 1.56476 0
M  V30 6414 C 625.374 -1.18191 1.63196 0
M  V30 6415 O 624.43 -1.96655 1.58376 0
M  V30 6416 C 625.743 1.02034 2.82859 0
M  V30 6417 C 627.291 1.00002 2.96595 0
M  V30 6418 C 627.766 1.68689 4.25803 0
M  V30 6419 N 629.257 1.65424 4.32654 0
M  V30 6420 C 629.992 2.1545 5.31384 0
M  V30 6421 N 629.488 2.73738 6.36427 0
M  V30 6422 N 631.281 2.05985 5.22998 0
M  V30 6423 H 623.432 1.61821 1.37578 0
M  V30 6424 H 625.695 0.680184 0.660344 0
M  V30 6425 H 625.401 2.07542 2.83935 0
M  V30 6426 H 625.275 0.568146 3.72897 0
M  V30 6427 H 627.662 -0.0466319 2.95063 0
M  V30 6428 H 627.743 1.49086 2.07863 0
M  V30 6429 H 627.387 2.73308 4.28095 0
M  V30 6430 H 627.317 1.17076 5.13421 0
M  V30 6431 H 629.808 1.22884 3.57363 0
M  V30 6432 H 630.121 3.09602 7.08072 0
M  V30 6433 H 628.466 2.77796 6.37067 0
M  V30 6434 H 631.657 1.60157 4.39849 0
M  V30 6435 H 631.83 2.45281 5.99784 0
M  V30 6436 N 625.236 -1.5273 0.388769 0
M  V30 6437 C 626.485 -2.00757 -0.194833 0
M  V30 6438 C 626.798 -1.27951 -1.47946 0
M  V30 6439 O 628.004 -1.66686 -2.14308 0
M  V30 6440 C 626.46 -3.57695 -0.397762 0
M  V30 6441 C 626.068 -4.394 0.873583 0
M  V30 6442 C 627.812 -4.14012 -0.937759 0
M  V30 6443 C 625.719 -5.87938 0.638962 0
M  V30 6444 H 624.649 -0.750101 -0.0765845 0
M  V30 6445 H 627.3 -1.76239 0.511086 0
M  V30 6446 H 625.682 -3.7846 -1.16552 0
M  V30 6447 H 626.856 -4.30403 1.64591 0
M  V30 6448 H 625.171 -3.94301 1.33849 0
M  V30 6449 H 627.768 -5.22645 -1.12899 0
M  V30 6450 H 628.111 -3.7007 -1.90666 0
M  V30 6451 H 628.644 -3.97137 -0.229588 0
M  V30 6452 H 625.383 -6.36202 1.57885 0
M  V30 6453 H 624.903 -5.99726 -0.094443 0
M  V30 6454 H 626.582 -6.46423 0.273299 0
M  V30 6455 N 626.714 -0.118576 -1.57153 0
M  V30 6456 C 627.962 0.538461 -1.94795 0
M  V30 6457 C 628.283 1.67243 -1.00274 0
M  V30 6458 O 627.553 1.95811 -0.0589692 0
M  V30 6459 H 626.133 0.201904 -0.719197 0
M  V30 6460 H 628.795 -0.187418 -1.93997 0
M  V30 6461 H 627.891 0.933315 -2.97818 0
M  V30 6462 N 628.193 1.56834 0.155195 0
M  V30 6463 C 629.125 1.94235 1.21677 0
M  V30 6464 C 630.138 0.83724 1.39621 0
M  V30 6465 O 631.327 1.11567 1.39338 0
M  V30 6466 C 628.427 2.19402 2.58294 0
M  V30 6467 C 627.6 3.50671 2.61436 0
M  V30 6468 C 626.659 3.64475 3.79532 0
M  V30 6469 O 625.685 4.36945 3.64784 0
M  V30 6470 N 626.887 3.00526 4.96653 0
M  V30 6471 H 629.652 2.85901 0.898932 0
M  V30 6472 H 627.213 1.58185 0.34483 0
M  V30 6473 H 629.205 2.25886 3.35794 0
M  V30 6474 H 627.775 1.34042 2.82403 0
M  V30 6475 H 626.995 3.55702 1.69912 0
M  V30 6476 H 628.283 4.3702 2.60559 0
M  V30 6477 H 627.681 2.41549 5.11538 0
M  V30 6478 H 626.238 3.12583 5.71958 0
M  V30 6479 N 629.671 -0.424282 1.51781 0
M  V30 6480 C 630.601 -1.52305 1.7699 0
M  V30 6481 C 631.582 -1.5839 0.620209 0
M  V30 6482 O 632.767 -1.73908 0.864268 0
M  V30 6483 C 629.897 -2.90271 1.90683 0
M  V30 6484 C 628.851 -2.99043 3.06198 0
M  V30 6485 C 628.177 -4.39116 3.05092 0
M  V30 6486 C 629.477 -2.7192 4.45934 0
M  V30 6487 H 631.171 -1.31461 2.68995 0
M  V30 6488 H 628.717 -0.630985 1.29439 0
M  V30 6489 H 630.67 -3.6711 2.06901 0
M  V30 6490 H 629.394 -3.12376 0.953365 0
M  V30 6491 H 628.053 -2.24646 2.89706 0
M  V30 6492 H 627.701 -4.58207 2.07498 0
M  V30 6493 H 627.401 -4.45912 3.82669 0
M  V30 6494 H 628.925 -5.17911 3.2342 0
M  V30 6495 H 630.339 -3.38487 4.62709 0
M  V30 6496 H 628.736 -2.90111 5.25315 0
M  V30 6497 H 629.806 -1.67445 4.55072 0
M  V30 6498 N 631.149 -1.42148 -0.680565 0
M  V30 6499 C 632.059 -1.47565 -1.82378 0
M  V30 6500 C 633.075 -0.36489 -1.70131 0
M  V30 6501 O 634.251 -0.614916 -1.91783 0
M  V30 6502 C 631.316 -1.37013 -3.18478 0
M  V30 6503 C 630.377 -2.58532 -3.42724 0
M  V30 6504 C 629.61 -2.48473 -4.72331 0
M  V30 6505 O 629.833 -1.51745 -5.49845 0
M  V30 6506 O 628.767 -3.38503 -4.97694 0
M  V30 6507 H 632.593 -2.44045 -1.80764 0
M  V30 6508 H 630.178 -1.23849 -0.835569 0
M  V30 6509 H 632.06 -1.33468 -3.99705 0
M  V30 6510 H 630.735 -0.436552 -3.20743 0
M  V30 6511 H 629.642 -2.67652 -2.61368 0
M  V30 6512 H 630.975 -3.50769 -3.45286 0
M  V30 6513 N 632.627 0.916307 -1.28225 0
M  V30 6514 C 633.557 2.0352 -1.14464 0
M  V30 6515 C 634.538 1.70045 -0.0430844 0
M  V30 6516 O 635.723 1.92954 -0.219619 0
M  V30 6517 C 632.853 3.37889 -0.803027 0
M  V30 6518 C 631.807 3.85516 -1.85908 0
M  V30 6519 C 631.133 5.1682 -1.37116 0
M  V30 6520 C 632.433 4.07655 -3.26519 0
M  V30 6521 H 634.127 2.1529 -2.08064 0
M  V30 6522 H 631.673 1.03446 -1.00174 0
M  V30 6523 H 633.626 4.15654 -0.693537 0
M  V30 6524 H 632.35 3.26164 0.168674 0
M  V30 6525 H 631.009 3.09953 -1.95767 0
M  V30 6526 H 630.657 5.01497 -0.38859 0
M  V30 6527 H 630.357 5.49657 -2.07728 0
M  V30 6528 H 631.881 5.97143 -1.27484 0
M  V30 6529 H 633.295 4.75953 -3.19596 0
M  V30 6530 H 631.692 4.51818 -3.94943 0
M  V30 6531 H 632.762 3.12553 -3.70727 0
M  V30 6532 N 634.105 1.10431 1.1244 0
M  V30 6533 C 635.035 0.775143 2.20258 0
M  V30 6534 C 636.016 -0.25186 1.68225 0
M  V30 6535 O 637.201 -0.117637 1.93843 0
M  V30 6536 C 634.331 0.206133 3.46688 0
M  V30 6537 C 633.285 1.16382 4.11873 0
M  V30 6538 C 632.611 0.456014 5.32752 0
M  V30 6539 C 633.911 2.5104 4.58013 0
M  V30 6540 H 635.605 1.67665 2.4805 0
M  V30 6541 H 633.151 0.807595 1.19222 0
M  V30 6542 H 635.104 -0.036291 4.21384 0
M  V30 6543 H 633.828 -0.730614 3.18323 0
M  V30 6544 H 632.487 1.39169 3.39157 0
M  V30 6545 H 632.135 -0.485203 5.00654 0
M  V30 6546 H 631.835 1.09466 5.77314 0
M  V30 6547 H 633.359 0.222135 6.10196 0
M  V30 6548 H 634.773 2.32401 5.24083 0
M  V30 6549 H 633.17 3.10789 5.13352 0
M  V30 6550 H 634.24 3.11039 3.71998 0
M  V30 6551 N 635.583 -1.29855 0.893053 0
M  V30 6552 C 636.831 -1.9544 0.514566 0
M  V30 6553 C 637.152 -1.70795 -0.940959 0
M  V30 6554 O 636.422 -1.03601 -1.66264 0
M  V30 6555 H 635.002 -0.723137 0.187302 0
M  V30 6556 H 637.664 -1.58234 1.13789 0
M  V30 6557 H 636.76 -3.04341 0.691581 0
M  V30 6558 N 637.061 -0.65484 -1.43351 0
M  V30 6559 C 638.024 0.0263562 -2.29185 0
M  V30 6560 C 639.024 0.748951 -1.42293 0
M  V30 6561 O 640.214 0.589957 -1.63906 0
M  V30 6562 C 637.346 1.04806 -3.2439 0
M  V30 6563 H 638.539 -0.728883 -2.90908 0
M  V30 6564 H 636.092 -0.416149 -1.50658 0
M  V30 6565 H 636.827 1.83247 -2.67565 0
M  V30 6566 H 636.612 0.533554 -3.88453 0
M  V30 6567 H 638.102 1.52372 -3.88809 0
M  V30 6568 N 638.539 1.52521 -0.396863 0
M  V30 6569 C 639.95 1.86547 0.0754868 0
M  V30 6570 C 640.301 1.31621 1.45501 0
M  V30 6571 O 639.426 0.650563 2.0639 0
M  V30 6572 C 640.021 3.38495 0.143754 0
M  V30 6573 C 638.58 3.72205 0.560413 0
M  V30 6574 C 637.727 2.75954 -0.272856 0
M  V30 6575 H 640.678 1.46323 -0.614434 0
M  V30 6576 H 640.699 3.68153 0.961425 0
M  V30 6577 H 640.211 3.78442 -0.860415 0
M  V30 6578 H 638.312 3.3783 1.57167 0
M  V30 6579 H 638.425 4.78074 0.313314 0
M  V30 6580 H 636.789 2.53339 0.263 0
M  V30 6581 H 637.572 3.1874 -1.27515 0
M  V30 6582 N 640.017 0.126909 1.57088 0
M  V30 6583 C 640.98 -0.806097 2.14557 0
M  V30 6584 C 641.98 -1.18918 1.08236 0
M  V30 6585 O 643.17 -1.11339 1.33975 0
M  V30 6586 C 640.302 -2.09116 2.69227 0
M  V30 6587 H 641.495 -0.306522 2.98329 0
M  V30 6588 H 639.048 -0.122393 1.5582 0
M  V30 6589 H 639.783 -2.63486 1.89065 0
M  V30 6590 H 639.568 -1.82588 3.46993 0
M  V30 6591 H 641.058 -2.75794 3.13572 0
M  V30 6592 N 641.495 -1.56914 -0.146875 0
M  V30 6593 C 642.405 -2.0154 -1.20079 0
M  V30 6594 C 643.421 -0.930838 -1.47008 0
M  V30 6595 O 644.597 -1.24032 -1.58676 0
M  V30 6596 C 641.662 -2.38715 -2.51428 0
M  V30 6597 C 640.723 -3.6112 -2.32145 0
M  V30 6598 C 639.956 -3.96512 -3.57231 0
M  V30 6599 O 640.179 -3.32566 -4.63418 0
M  V30 6600 O 639.113 -4.89758 -3.49887 0
M  V30 6601 H 642.939 -2.91506 -0.851924 0
M  V30 6602 H 640.524 -1.45106 -0.355607 0
M  V30 6603 H 642.406 -2.63485 -3.28867 0
M  V30 6604 H 641.081 -1.51903 -2.85845 0
M  V30 6605 H 639.988 -3.41536 -1.52656 0
M  V30 6606 H 641.321 -4.48549 -2.02644 0
M  V30 6607 N 642.974 0.416227 -1.52004 0
M  V30 6608 C 644.221 1.16383 -1.65714 0
M  V30 6609 C 644.549 1.9068 -0.383594 0
M  V30 6610 O 643.804 1.85174 0.633185 0
M  V30 6611 C 644.103 2.18923 -2.82502 0
M  V30 6612 C 643.769 1.61485 -4.20991 0
M  V30 6613 C 642.431 1.45545 -4.58661 0
M  V30 6614 C 644.783 1.19468 -5.07323 0
M  V30 6615 C 642.111 0.860937 -5.80349 0
M  V30 6616 C 644.463 0.614386 -6.29609 0
M  V30 6617 C 643.127 0.442056 -6.66035 0
M  V30 6618 H 642.397 0.425875 -0.606392 0
M  V30 6619 H 645.044 0.45199 -1.8609 0
M  V30 6620 H 643.349 2.96225 -2.56433 0
M  V30 6621 H 645.046 2.76628 -2.90307 0
M  V30 6622 H 641.636 1.74873 -3.91302 0
M  V30 6623 H 645.82 1.30596 -4.78809 0
M  V30 6624 H 641.076 0.715372 -6.072 0
M  V30 6625 H 645.25 0.280393 -6.95835 0
M  V30 6626 H 642.877 -0.0207218 -7.60197 0
M  V30 6627 N 644.452 1.42507 0.673017 0
M  V30 6628 C 645.68 1.46473 1.46128 0
M  V30 6629 C 646.095 0.0765912 1.88645 0
M  V30 6630 O 645.452 -0.909057 1.58248 0
M  V30 6631 C 645.503 2.39339 2.70923 0
M  V30 6632 O 645.224 3.72752 2.3019 0
M  V30 6633 C 646.725 2.52343 3.64469 0
M  V30 6634 H 643.945 0.49812 0.449575 0
M  V30 6635 H 646.489 1.87041 0.826802 0
M  V30 6636 H 644.644 2.02019 3.30556 0
M  V30 6637 H 645.058 4.22503 3.10791 0
M  V30 6638 H 646.532 3.2144 4.48754 0
M  V30 6639 H 647.009 1.56189 4.1049 0
M  V30 6640 H 647.615 2.90392 3.10729 0
M  V30 6641 N 645.93 -0.909495 1.28709 0
M  V30 6642 C 647.176 -1.66151 1.16283 0
M  V30 6643 C 647.509 -1.92067 -0.287069 0
M  V30 6644 O 646.784 -1.52409 -1.20837 0
M  V30 6645 C 647.067 -3.01676 1.9663 0
M  V30 6646 C 646.92 -2.82888 3.49707 0
M  V30 6647 C 648.239 -4.02274 1.78504 0
M  V30 6648 H 645.358 -0.602966 0.423793 0
M  V30 6649 H 648 -1.05418 1.58073 0
M  V30 6650 H 646.15 -3.53515 1.61119 0
M  V30 6651 H 647.822 -2.38026 3.95147 0
M  V30 6652 H 646.065 -2.17862 3.75125 0
M  V30 6653 H 646.736 -3.79147 4.01187 0
M  V30 6654 H 649.212 -3.59511 2.09503 0
M  V30 6655 H 648.088 -4.95056 2.37088 0
M  V30 6656 H 648.349 -4.35903 0.737647 0
M  V30 6657 N 647.408 -1.11026 -1.11852 0
M  V30 6658 C 648.341 -0.708501 -2.16923 0
M  V30 6659 C 649.319 0.293196 -1.59935 0
M  V30 6660 O 650.503 0.190641 -1.87533 0
M  V30 6661 C 647.63 -0.0463705 -3.38668 0
M  V30 6662 C 646.676 -1.01252 -4.14307 0
M  V30 6663 S 647.509 -2.53291 -4.71809 0
M  V30 6664 C 648.665 -1.88366 -5.96883 0
M  V30 6665 H 648.898 -1.59854 -2.50667 0
M  V30 6666 H 646.431 -0.927869 -1.2341 0
M  V30 6667 H 648.389 0.329314 -4.09177 0
M  V30 6668 H 647.05 0.820562 -3.03192 0
M  V30 6669 H 646.243 -0.496596 -5.01548 0
M  V30 6670 H 645.845 -1.33042 -3.49537 0
M  V30 6671 H 648.137 -1.21753 -6.6647 0
M  V30 6672 H 649.08 -2.73588 -6.53112 0
M  V30 6673 H 649.488 -1.34562 -5.48227 0
M  V30 6674 N 648.886 1.2938 -0.899927 0
M  V30 6675 C 649.849 2.25983 -0.382677 0
M  V30 6676 C 650.849 1.53366 0.483259 0
M  V30 6677 O 652.039 1.71798 0.28828 0
M  V30 6678 C 649.171 3.37878 0.452915 0
M  V30 6679 H 650.364 2.73252 -1.23586 0
M  V30 6680 H 647.917 1.40825 -0.678088 0
M  V30 6681 H 648.652 2.95949 1.32608 0
M  V30 6682 H 648.437 3.91742 -0.167562 0
M  V30 6683 H 649.927 4.09746 0.806107 0
M  V30 6684 N 650.364 0.662433 1.43002 0
M  V30 6685 C 651.612 0.179237 2.01304 0
M  V30 6686 C 651.933 -1.21428 1.52579 0
M  V30 6687 O 651.203 -1.81294 0.742252 0
M  V30 6688 H 649.783 0.0632725 0.744316 0
M  V30 6689 H 652.445 0.856169 1.75088 0
M  V30 6690 H 651.541 0.170957 3.11631 0
M  V30 6691 N 651.842 -1.52309 0.404946 0
M  V30 6692 C 653.088 -2.02065 -0.172455 0
M  V30 6693 C 653.421 -1.29022 -1.45145 0
M  V30 6694 O 652.696 -0.395284 -1.90441 0
M  V30 6695 C 652.979 -3.5759 -0.424433 0
M  V30 6696 C 652.832 -4.41287 0.870945 0
M  V30 6697 C 654.151 -4.23186 -1.20837 0
M  V30 6698 H 651.27 -0.734454 -0.0612035 0
M  V30 6699 H 653.912 -1.82236 0.53759 0
M  V30 6700 H 652.062 -3.74617 -1.02929 0
M  V30 6701 H 653.734 -4.3598 1.50729 0
M  V30 6702 H 651.977 -4.07669 1.48284 0
M  V30 6703 H 652.648 -5.48171 0.649083 0
M  V30 6704 H 655.124 -4.10232 -0.696338 0
M  V30 6705 H 654 -5.31953 -1.35343 0
M  V30 6706 H 654.261 -3.81862 -2.22786 0
M  V30 6707 N 653.32 -0.135238 -1.57019 0
M  V30 6708 C 654.736 0.221262 -1.58059 0
M  V30 6709 C 654.936 1.65538 -1.14889 0
M  V30 6710 O 653.992 2.37985 -0.843751 0
M  V30 6711 C 655.305 -0.0268114 -3.00688 0
M  V30 6712 C 656.853 0.0378206 -3.12977 0
M  V30 6713 C 657.328 -0.182769 -4.57635 0
M  V30 6714 N 658.819 -0.129292 -4.6302 0
M  V30 6715 C 659.554 -0.274648 -5.72742 0
M  V30 6716 N 659.05 -0.477075 -6.91155 0
M  V30 6717 N 660.843 -0.213077 -5.61696 0
M  V30 6718 H 652.994 -1.07177 -1.83376 0
M  V30 6719 H 655.257 -0.423338 -0.848227 0
M  V30 6720 H 654.963 -1.01889 -3.36618 0
M  V30 6721 H 654.837 0.697863 -3.70688 0
M  V30 6722 H 657.224 1.02043 -2.76896 0
M  V30 6723 H 657.305 -0.718996 -2.45487 0
M  V30 6724 H 656.949 -1.16243 -4.94419 0
M  V30 6725 H 656.879 0.59423 -5.23237 0
M  V30 6726 H 659.37 0.0229896 -3.77893 0
M  V30 6727 H 659.683 -0.578413 -7.70632 0
M  V30 6728 H 658.028 -0.513252 -6.93102 0
M  V30 6729 H 661.219 -0.0557796 -4.68067 0
M  V30 6730 H 661.392 -0.329796 -6.4716 0
M  V30 6731 N 654.798 1.5699 0.138552 0
M  V30 6732 C 656.047 1.82998 0.848205 0
M  V30 6733 C 656.36 0.717829 1.81952 0
M  V30 6734 O 657.566 0.863756 2.57394 0
M  V30 6735 C 656.022 3.24379 1.55904 0
M  V30 6736 C 655.63 4.43552 0.62971 0
M  V30 6737 C 657.374 3.59654 2.25498 0
M  V30 6738 C 655.281 5.75957 1.34266 0
M  V30 6739 H 654.211 0.682495 0.320495 0
M  V30 6740 H 656.862 1.83222 0.100924 0
M  V30 6741 H 655.244 3.18567 2.35226 0
M  V30 6742 H 656.418 4.6062 -0.128882 0
M  V30 6743 H 654.733 4.16379 0.0417526 0
M  V30 6744 H 657.33 4.55837 2.79493 0
M  V30 6745 H 657.673 2.86124 3.02388 0
M  V30 6746 H 658.206 3.67164 1.53087 0
M  V30 6747 H 654.945 6.52604 0.615441 0
M  V30 6748 H 654.465 5.62811 2.07375 0
M  V30 6749 H 656.144 6.19046 1.88126 0
M  V30 6750 N 656.276 -0.40816 1.52223 0
M  V30 6751 C 657.692 -0.74685 1.41047 0
M  V30 6752 C 657.892 -1.94788 0.51573 0
M  V30 6753 O 656.948 -2.52494 -0.0181156 0
M  V30 6754 C 658.261 -0.999878 2.83589 0
M  V30 6755 C 659.809 -1.10253 2.92939 0
M  V30 6756 C 660.284 -1.38832 4.36451 0
M  V30 6757 N 661.775 -1.45694 4.3969 0
M  V30 6758 C 662.51 -1.69435 5.47795 0
M  V30 6759 N 662.006 -1.90774 6.66016 0
M  V30 6760 N 663.799 -1.71458 5.35312 0
M  V30 6761 H 655.95 0.382409 2.08929 0
M  V30 6762 H 658.213 0.108807 0.941735 0
M  V30 6763 H 657.919 -0.189723 3.51188 0
M  V30 6764 H 657.793 -1.91978 3.24691 0
M  V30 6765 H 660.18 -1.90328 2.2552 0
M  V30 6766 H 660.261 -0.160973 2.55293 0
M  V30 6767 H 659.905 -0.592741 5.04429 0
M  V30 6768 H 659.835 -2.34241 4.71634 0
M  V30 6769 H 662.326 -1.3099 3.54472 0
M  V30 6770 H 662.639 -2.08342 7.44186 0
M  V30 6771 H 660.984 -1.88037 6.69079 0
M  V30 6772 H 664.175 -1.54326 4.41929 0
M  V30 6773 H 664.348 -1.89621 6.19635 0
M  V30 6774 N 657.755 -1.42862 -0.66545 0
M  V30 6775 C 659.171 -1.25993 -0.979687 0
M  V30 6776 C 659.371 -0.170831 -2.00775 0
M  V30 6777 O 658.427 0.454827 -2.4837 0
M  V30 6778 C 659.74 -2.62005 -1.47559 0
M  V30 6779 C 661.288 -2.69437 -1.59288 0
M  V30 6780 C 661.763 -4.05838 -2.12272 0
M  V30 6781 N 663.254 -4.0784 -2.19592 0
M  V30 6782 C 663.989 -5.10205 -2.61684 0
M  V30 6783 N 663.485 -6.22949 -3.03161 0
M  V30 6784 N 665.278 -4.9756 -2.61516 0
M  V30 6785 H 657.429 -2.12395 0.0150493 0
M  V30 6786 H 659.692 -0.946355 -0.0558187 0
M  V30 6787 H 659.398 -3.42605 -0.794654 0
M  V30 6788 H 659.272 -2.86566 -2.45275 0
M  V30 6789 H 661.659 -1.89178 -2.26486 0
M  V30 6790 H 661.74 -2.48655 -0.600374 0
M  V30 6791 H 661.384 -4.86559 -1.4568 0
M  V30 6792 H 661.314 -4.23977 -3.12331 0
M  V30 6793 H 663.805 -3.26452 -1.90361 0
M  V30 6794 H 664.118 -6.96899 -3.33993 0
M  V30 6795 H 662.463 -6.2644 -3.00995 0
M  V30 6796 H 665.654 -4.08551 -2.28481 0
M  V30 6797 H 665.827 -5.77468 -2.93999 0
M  V30 6798 N 659.233 0.902656 -1.29189 0
M  V30 6799 C 660.196 1.98797 -1.14071 0
M  V30 6800 C 661.196 1.60615 -0.0770549 0
M  V30 6801 O 662.386 1.71165 -0.323753 0
M  V30 6802 C 659.518 3.32688 -0.743739 0
M  V30 6803 H 660.711 2.13637 -2.10473 0
M  V30 6804 H 658.264 1.08678 -1.12334 0
M  V30 6805 H 658.999 3.23549 0.220554 0
M  V30 6806 H 658.784 3.61765 -1.51223 0
M  V30 6807 H 660.274 4.12337 -0.660935 0
M  V30 6808 N 660.711 1.11618 1.11262 0
M  V30 6809 C 661.957 0.867463 1.83311 0
M  V30 6810 C 662.29 -0.605366 1.84524 0
M  V30 6811 O 661.565 -1.44704 1.29965 0
M  V30 6812 C 661.848 1.43207 3.30399 0
M  V30 6813 C 661.701 2.97265 3.3757 0
M  V30 6814 C 663.02 1.08454 4.26528 0
M  V30 6815 H 660.139 0.316578 0.665543 0
M  V30 6816 H 662.781 1.38137 1.30454 0
M  V30 6817 H 660.931 0.994982 3.75543 0
M  V30 6818 H 662.603 3.49591 3.00971 0
M  V30 6819 H 660.846 3.33237 2.77733 0
M  V30 6820 H 661.517 3.31859 4.41105 0
M  V30 6821 H 663.993 1.4619 3.89574 0
M  V30 6822 H 662.869 1.50633 5.27826 0
M  V30 6823 H 663.13 -0.00444568 4.421 0
M  V30 6824 N 662.189 -1.289 0.906776 0
M  V30 6825 C 663.121 -2.26556 0.347159 0
M  V30 6826 C 664.134 -1.54589 -0.51049 0
M  V30 6827 O 665.323 -1.75489 -0.326501 0
M  V30 6828 C 662.423 -3.3484 -0.523024 0
M  V30 6829 C 661.596 -4.36296 0.310515 0
M  V30 6830 C 660.655 -5.23879 -0.493634 0
M  V30 6831 O 659.681 -5.69127 0.0913569 0
M  V30 6832 N 660.883 -5.51946 -1.7982 0
M  V30 6833 H 663.648 -2.75212 1.18652 0
M  V30 6834 H 661.209 -1.42309 0.771996 0
M  V30 6835 H 663.201 -3.90366 -1.06756 0
M  V30 6836 H 661.771 -2.85946 -1.26309 0
M  V30 6837 H 660.991 -3.80331 1.03644 0
M  V30 6838 H 662.279 -5.01113 0.881106 0
M  V30 6839 H 661.677 -5.17006 -2.2961 0
M  V30 6840 H 660.234 -6.10258 -2.28971 0
M  V30 6841 N 663.667 -0.670007 -1.42649 0
M  V30 6842 C 664.63 0.00204659 -2.292 0
M  V30 6843 C 665.63 0.733817 -1.4308 0
M  V30 6844 O 666.82 0.57254 -1.64522 0
M  V30 6845 C 663.952 1.01359 -3.25483 0
M  V30 6846 H 665.145 -0.759696 -2.90118 0
M  V30 6847 H 662.698 -0.432105 -1.50208 0
M  V30 6848 H 663.433 1.80399 -2.69493 0
M  V30 6849 H 663.218 0.492323 -3.88997 0
M  V30 6850 H 664.708 1.4824 -3.90403 0
M  V30 6851 N 665.145 1.52092 -0.413018 0
M  V30 6852 C 666.108 2.25706 0.398687 0
M  V30 6853 C 667.108 1.28221 0.970368 0
M  V30 6854 O 668.298 1.52131 0.848635 0
M  V30 6855 C 665.43 3.03029 1.5616 0
M  V30 6856 H 666.623 2.98888 -0.246131 0
M  V30 6857 H 664.176 1.5542 -0.165622 0
M  V30 6858 H 664.911 2.34205 2.24317 0
M  V30 6859 H 664.696 3.74606 1.15812 0
M  V30 6860 H 666.186 3.58857 2.13569 0
M  V30 6861 N 666.623 0.143563 1.56945 0
M  V30 6862 C 667.848 -0.518701 2.00809 0
M  V30 6863 C 668.273 -1.5785 1.02298 0
M  V30 6864 O 667.631 -1.813 -0.0017839 0
M  V30 6865 C 667.679 -1.09929 3.43436 0
M  V30 6866 O 666.783 -2.21425 3.47915 0
M  V30 6867 H 666.124 -0.127215 0.6517 0
M  V30 6868 H 668.654 0.239283 2.03196 0
M  V30 6869 H 668.664 -1.4288 3.82164 0
M  V30 6870 H 667.339 -0.323162 4.14643 0
M  V30 6871 H 665.916 -1.89728 3.21026 0
M  V30 6872 N 668.101 -1.57061 -0.130224 0
M  V30 6873 C 669.011 -2.02802 -1.17934 0
M  V30 6874 C 670.027 -0.946378 -1.46013 0
M  V30 6875 O 671.203 -1.25708 -1.57351 0
M  V30 6876 C 668.268 -2.41368 -2.48882 0
M  V30 6877 C 667.329 -3.63561 -2.28301 0
M  V30 6878 C 666.562 -4.00279 -3.53005 0
M  V30 6879 O 666.785 -3.37463 -4.59864 0
M  V30 6880 O 665.719 -4.93441 -3.44673 0
M  V30 6881 H 669.545 -2.92394 -0.820958 0
M  V30 6882 H 667.13 -1.45475 -0.340197 0
M  V30 6883 H 669.012 -2.66958 -3.26054 0
M  V30 6884 H 667.687 -1.54926 -2.84217 0
M  V30 6885 H 666.594 -3.43136 -1.49025 0
M  V30 6886 H 667.927 -4.50673 -1.97875 0
M  V30 6887 N 669.579 0.400081 -1.52437 0
M  V30 6888 C 670.542 1.4707 -1.75793 0
M  V30 6889 C 671.542 1.48036 -0.627856 0
M  V30 6890 O 672.732 1.49401 -0.895817 0
M  V30 6891 C 669.864 2.86427 -1.84858 0
M  V30 6892 H 671.057 1.27649 -2.71377 0
M  V30 6893 H 668.61 0.631141 -1.42991 0
M  V30 6894 H 669.345 3.11207 -0.912194 0
M  V30 6895 H 669.13 2.87128 -2.6702 0
M  V30 6896 H 670.62 3.64023 -2.04638 0
M  V30 6897 N 671.057 1.43213 0.657864 0
M  V30 6898 C 672.02 1.47687 1.75275 0
M  V30 6899 C 673.02 0.362179 1.56668 0
M  V30 6900 O 674.21 0.623734 1.62651 0
M  V30 6901 C 671.342 1.32497 3.14098 0
M  V30 6902 H 672.535 2.4519 1.7269 0
M  V30 6903 H 670.088 1.2991 0.869087 0
M  V30 6904 H 670.823 0.359831 3.22298 0
M  V30 6905 H 670.608 2.13299 3.29008 0
M  V30 6906 H 672.098 1.38549 3.93946 0
M  V30 6907 N 672.536 -0.895792 1.29666 0
M  V30 6908 C 673.784 -1.64339 1.17631 0
M  V30 6909 C 674.105 -1.93099 -0.271643 0
M  V30 6910 O 673.375 -1.55981 -1.18518 0
M  V30 6911 H 671.955 -0.609162 0.432354 0
M  V30 6912 H 674.617 -1.07389 1.62646 0
M  V30 6913 H 673.713 -2.59815 1.72924 0
M  V30 6914 N 674.014 -1.12206 -1.10668 0
M  V30 6915 C 675.263 -0.870595 -1.81944 0
M  V30 6916 C 675.576 0.605447 -1.85994 0
M  V30 6917 O 676.782 0.973433 -2.53449 0
M  V30 6918 C 675.238 -1.50783 -3.26791 0
M  V30 6919 C 674.846 -3.01849 -3.31046 0
M  V30 6920 C 676.59 -1.33653 -4.02911 0
M  V30 6921 C 674.497 -3.58518 -4.70339 0
M  V30 6922 H 673.427 -0.322043 -0.681765 0
M  V30 6923 H 676.078 -1.34827 -1.24475 0
M  V30 6924 H 674.46 -0.957825 -3.84242 0
M  V30 6925 H 675.634 -3.63321 -2.83433 0
M  V30 6926 H 673.949 -3.18346 -2.68411 0
M  V30 6927 H 676.546 -1.73416 -5.05797 0
M  V30 6928 H 676.889 -0.279949 -4.15358 0
M  V30 6929 H 677.422 -1.85562 -3.51868 0
M  V30 6930 H 674.161 -4.63925 -4.63091 0
M  V30 6931 H 673.681 -3.01819 -5.18329 0
M  V30 6932 H 675.36 -3.57434 -5.39305 0
M  V30 6933 N 675.492 1.28418 -0.913599 0
M  V30 6934 C 676.908 1.47411 -0.611728 0
M  V30 6935 C 677.108 1.83018 0.843008 0
M  V30 6936 O 676.164 1.93505 1.6221 0
M  V30 6937 C 677.477 2.57703 -1.5495 0
M  V30 6938 C 679.025 2.71572 -1.5562 0
M  V30 6939 C 679.5 3.85008 -2.48058 0
M  V30 6940 N 680.991 3.92361 -2.46184 0
M  V30 6941 C 681.726 4.79516 -3.14407 0
M  V30 6942 N 681.222 5.71262 -3.91958 0
M  V30 6943 N 683.015 4.73125 -3.03495 0
M  V30 6944 H 675.166 1.03585 -1.85429 0
M  V30 6945 H 677.429 0.515907 -0.795326 0
M  V30 6946 H 677.135 2.38298 -2.58663 0
M  V30 6947 H 677.009 3.54801 -1.28048 0
M  V30 6948 H 679.396 2.90366 -0.526441 0
M  V30 6949 H 679.477 1.75006 -1.86565 0
M  V30 6950 H 679.121 3.66969 -3.51136 0
M  V30 6951 H 679.051 4.80971 -2.14416 0
M  V30 6952 H 681.542 3.26749 -1.89851 0
M  V30 6953 H 681.855 6.34593 -4.41034 0
M  V30 6954 H 680.2 5.71103 -3.96063 0
M  V30 6955 H 683.391 4.00442 -2.42413 0
M  V30 6956 H 683.564 5.40834 -3.56935 0
M  V30 6957 N 676.97 0.677563 1.42291 0
M  V30 6958 C 677.92 -0.0218641 2.2799 0
M  V30 6959 C 678.904 -0.770816 1.41235 0
M  V30 6960 O 680.096 -0.649273 1.64662 0
M  V30 6961 C 677.225 -0.970449 3.29298 0
M  V30 6962 C 676.311 -0.218695 4.23536 0
M  V30 6963 N 676.702 0.777908 4.99782 0
M  V30 6964 C 675 -0.456748 4.43655 0
M  V30 6965 C 675.701 1.22632 5.68627 0
M  V30 6966 N 674.677 0.55573 5.40752 0
M  V30 6967 H 678.479 0.742516 2.84366 0
M  V30 6968 H 675.993 0.506862 1.54288 0
M  V30 6969 H 677.99 -1.48652 3.89497 0
M  V30 6970 H 676.65 -1.73463 2.74483 0
M  V30 6971 H 677.661 1.15754 5.04798 0
M  V30 6972 H 674.338 -1.20021 3.99877 0
M  V30 6973 H 675.728 2.05231 6.39789 0
M  V30 6974 N 678.448 -1.51871 0.421078 0
M  V30 6975 C 679.694 -2.02237 -0.151014 0
M  V30 6976 C 680.027 -1.30554 -1.43768 0
M  V30 6977 O 679.302 -0.41546 -1.90011 0
M  V30 6978 C 679.585 -3.5802 -0.386482 0
M  V30 6979 C 679.438 -4.40339 0.9177 0
M  V30 6980 C 680.757 -4.24444 -1.16342 0
M  V30 6981 H 677.876 -0.735062 -0.0534102 0
M  V30 6982 H 680.518 -1.81656 0.556888 0
M  V30 6983 H 678.668 -3.75688 -0.989494 0
M  V30 6984 H 680.34 -4.34357 1.55344 0
M  V30 6985 H 678.583 -4.06073 1.526 0
M  V30 6986 H 679.254 -5.47451 0.707187 0
M  V30 6987 H 681.73 -4.10948 -0.652788 0
M  V30 6988 H 680.606 -5.33358 -1.29693 0
M  V30 6989 H 680.867 -3.84204 -2.18724 0
M  V30 6990 N 679.926 -0.151884 -1.56866 0
M  V30 6991 C 681.172 0.498742 -1.96572 0
M  V30 6992 C 681.505 1.64194 -1.03702 0
M  V30 6993 O 680.78 1.94334 -0.0803432 0
M  V30 6994 C 681.063 1.00027 -3.45929 0
M  V30 6995 C 680.916 -0.141767 -4.49577 0
M  V30 6996 C 682.235 1.88044 -3.97904 0
M  V30 6997 H 679.354 0.17982 -0.714726 0
M  V30 6998 H 681.996 -0.234097 -1.88552 0
M  V30 6999 H 680.146 1.62476 -3.52894 0
M  V30 7000 H 681.818 -0.778269 -4.54687 0
M  V30 7001 H 680.061 -0.80019 -4.26356 0
M  V30 7002 H 680.732 0.250947 -5.51429 0
M  V30 7003 H 683.208 1.35416 -3.93449 0
M  V30 7004 H 682.084 2.20043 -5.02864 0
M  V30 7005 H 682.345 2.81916 -3.40552 0
M  V30 7006 N 681.404 1.57128 0.121893 0
M  V30 7007 C 682.651 1.847 0.830188 0
M  V30 7008 C 682.979 0.736543 1.80015 0
M  V30 7009 O 682.234 -0.272358 1.93796 0
M  V30 7010 C 682.533 3.1874 1.61677 0
M  V30 7011 C 682.199 4.43901 0.791361 0
M  V30 7012 C 680.861 4.77887 0.563731 0
M  V30 7013 C 683.213 5.20753 0.215823 0
M  V30 7014 C 680.541 5.86168 -0.249737 0
M  V30 7015 C 682.893 6.29891 -0.584821 0
M  V30 7016 C 681.557 6.6241 -0.822794 0
M  V30 7017 H 680.827 0.675866 0.303787 0
M  V30 7018 H 683.474 1.91276 0.0926894 0
M  V30 7019 H 681.779 3.07728 2.42509 0
M  V30 7020 H 683.476 3.37295 2.16872 0
M  V30 7021 H 680.066 4.17272 0.978867 0
M  V30 7022 H 684.25 4.94851 0.378907 0
M  V30 7023 H 679.506 6.0979 -0.44336 0
M  V30 7024 H 683.68 6.88624 -1.03779 0
M  V30 7025 H 681.307 7.46147 -1.45496 0
M  V30 7026 N 682.882 -0.391992 1.52647 0
M  V30 7027 C 683.83 -1.4991 1.77848 0
M  V30 7028 C 684.824 -1.56587 0.646282 0
M  V30 7029 O 686.03 -1.59789 0.828698 0
M  V30 7030 H 682.405 -0.498883 0.56269 0
M  V30 7031 H 684.376 -1.25847 2.70564 0
M  V30 7032 C 683.125 -2.87081 1.96163 0
M  V30 7033 H 682.448 -2.82692 2.82711 0
M  V30 7034 H 683.888 -3.63792 2.17787 0
M  V30 7035 C 682.347 -3.28822 0.733348 0
M  V30 7036 O 682.877 -4.01598 -0.0906481 0
M  V30 7037 N 681.083 -2.85068 0.564317 0
M  V30 7038 H 680.63 -2.26012 1.23598 0
M  V30 7039 H 680.588 -3.13355 -0.256166 0
M  V30 7040 N 684.36 -1.4356 -0.65026 0
M  V30 7041 C 685.608 -1.45046 -1.40734 0
M  V30 7042 C 685.929 -0.0769822 -1.94848 0
M  V30 7043 O 685.199 0.888098 -1.74613 0
M  V30 7044 H 683.779 -0.534034 -0.522318 0
M  V30 7045 H 686.441 -1.79186 -0.766703 0
M  V30 7046 H 685.537 -2.16476 -2.24822 0
M  V30 7047 N 685.838 0.888903 -1.30139 0
M  V30 7048 C 687.068 1.67115 -1.21474 0
M  V30 7049 C 687.476 1.87852 0.225472 0
M  V30 7050 O 686.819 1.42324 1.16145 0
M  V30 7051 C 686.881 3.0713 -1.86846 0
M  V30 7052 C 686.545 3.09582 -3.36167 0
M  V30 7053 C 687.542 2.88929 -4.32222 0
M  V30 7054 C 685.227 3.31304 -3.77549 0
M  V30 7055 C 687.221 2.89949 -5.67634 0
M  V30 7056 C 684.908 3.31954 -5.13079 0
M  V30 7057 C 685.906 3.113 -6.07932 0
M  V30 7058 O 685.594 3.11758 -7.40987 0
M  V30 7059 H 685.326 0.528372 -0.421662 0
M  V30 7060 H 687.88 1.11919 -1.7223 0
M  V30 7061 H 686.11 3.63973 -1.30615 0
M  V30 7062 H 687.799 3.6749 -1.72354 0
M  V30 7063 H 688.565 2.71948 -4.01584 0
M  V30 7064 H 684.444 3.46417 -3.04165 0
M  V30 7065 H 687.988 2.73746 -6.41645 0
M  V30 7066 H 683.885 3.48469 -5.43359 0
M  V30 7067 H 684.653 3.27951 -7.49927 0
M  V30 7068 N 687.317 1.12792 1.10072 0
M  V30 7069 C 688.28 0.802264 2.14701 0
M  V30 7070 C 689.28 -0.18515 1.59731 0
M  V30 7071 O 690.47 0.041109 1.74151 0
M  V30 7072 C 687.602 0.19285 3.40354 0
M  V30 7073 H 688.795 1.72932 2.45019 0
M  V30 7074 H 686.348 0.931662 1.25498 0
M  V30 7075 H 687.083 -0.743748 3.15656 0
M  V30 7076 H 686.868 0.903827 3.81541 0
M  V30 7077 H 688.358 -0.0183704 4.17596 0
M  V30 7078 N 688.795 -1.27931 0.920396 0
M  V30 7079 C 689.743 -2.29061 0.404191 0
M  V30 7080 C 690.737 -1.61615 -0.507634 0
M  V30 7081 O 691.943 -1.75765 -0.388144 0
M  V30 7082 H 688.318 -0.743594 0.112123 0
M  V30 7083 H 690.289 -2.70021 1.27008 0
M  V30 7084 C 689.038 -3.46088 -0.334466 0
M  V30 7085 H 688.361 -3.98194 0.35797 0
M  V30 7086 H 689.801 -4.18829 -0.660196 0
M  V30 7087 C 688.26 -2.99396 -1.54479 0
M  V30 7088 O 688.79 -3.02439 -2.64374 0
M  V30 7089 N 686.996 -2.54978 -1.39408 0
M  V30 7090 H 686.543 -2.52701 -0.500009 0
M  V30 7091 H 686.501 -2.24098 -2.20516 0
M  V30 7092 N 690.273 -0.685099 -1.4193 0
M  V30 7093 C 691.236 -0.0222632 -2.29189 0
M  V30 7094 C 692.236 0.7186 -1.4385 0
M  V30 7095 O 693.426 0.555058 -1.6512 0
M  V30 7096 C 690.558 0.979013 -3.2654 0
M  V30 7097 H 691.751 -0.790424 -2.89296 0
M  V30 7098 H 689.304 -0.448012 -1.49742 0
M  V30 7099 H 690.039 1.77531 -2.71392 0
M  V30 7100 H 689.824 0.451037 -3.89497 0
M  V30 7101 H 691.314 1.44091 -3.91954 0
M  V30 7102 N 691.751 1.51645 -0.429126 0
M  V30 7103 C 692.981 2.06133 0.138793 0
M  V30 7104 C 693.389 1.29735 1.37716 0
M  V30 7105 O 692.732 0.347955 1.80375 0
M  V30 7106 C 692.794 3.55504 0.534493 0
M  V30 7107 C 692.458 4.53098 -0.595917 0
M  V30 7108 C 693.455 4.98815 -1.46558 0
M  V30 7109 C 691.14 4.96296 -0.774309 0
M  V30 7110 C 693.134 5.86394 -2.4984 0
M  V30 7111 C 690.821 5.83667 -1.81042 0
M  V30 7112 C 691.819 6.28613 -2.67086 0
M  V30 7113 O 691.507 7.14251 -3.68919 0
M  V30 7114 H 691.239 0.675833 0.0150263 0
M  V30 7115 H 693.793 1.96301 -0.604584 0
M  V30 7116 H 692.023 3.63092 1.33045 0
M  V30 7117 H 693.712 3.92545 1.03262 0
M  V30 7118 H 694.478 4.66143 -1.33925 0
M  V30 7119 H 690.357 4.60859 -0.114178 0
M  V30 7120 H 693.901 6.21398 -3.17034 0
M  V30 7121 H 689.798 6.15753 -1.93698 0
M  V30 7122 H 690.566 7.3241 -3.65402 0
M  V30 7123 N 693.229 0.160201 1.56784 0
M  V30 7124 C 694.192 -0.760405 2.16219 0
M  V30 7125 C 695.192 -1.16595 1.10735 0
M  V30 7126 O 696.382 -1.08472 1.36306 0
M  V30 7127 C 693.514 -2.03358 2.73603 0
M  V30 7128 H 694.707 -0.243173 2.98912 0
M  V30 7129 H 692.26 -0.0893139 1.56045 0
M  V30 7130 H 692.995 -2.59416 1.94612 0
M  V30 7131 H 692.78 -1.75186 3.50788 0
M  V30 7132 H 694.27 -2.69081 3.19351 0
M  V30 7133 N 694.707 -1.5719 -0.113559 0
M  V30 7134 C 695.932 -1.89702 -0.838336 0
M  V30 7135 C 696.357 -0.752679 -1.72384 0
M  V30 7136 O 695.715 0.296575 -1.78858 0
M  V30 7137 C 695.763 -3.20989 -1.64312 0
M  V30 7138 O 694.867 -3.07278 -2.75053 0
M  V30 7139 H 694.208 -0.622339 -0.231496 0
M  V30 7140 H 696.738 -2.04382 -0.0943228 0
M  V30 7141 H 696.748 -3.53843 -2.03123 0
M  V30 7142 H 695.423 -4.03869 -0.993119 0
M  V30 7143 H 694 -2.85901 -2.39406 0
M  V30 7144 N 696.185 0.383891 -1.52853 0
M  V30 7145 C 697.415 1.14783 -1.7178 0
M  V30 7146 C 697.823 1.84055 -0.438211 0
M  V30 7147 O 697.166 1.73713 0.597465 0
M  V30 7148 C 697.228 2.23543 -2.81547 0
M  V30 7149 C 696.892 1.74195 -4.22499 0
M  V30 7150 C 697.889 1.21591 -5.05481 0
M  V30 7151 C 695.574 1.80262 -4.6884 0
M  V30 7152 C 697.568 0.757104 -6.32888 0
M  V30 7153 C 695.255 1.33993 -5.96229 0
M  V30 7154 C 696.253 0.818049 -6.78083 0
M  V30 7155 O 695.941 0.362123 -8.03084 0
M  V30 7156 H 695.673 0.349908 -0.578395 0
M  V30 7157 H 698.227 0.454377 -2.00311 0
M  V30 7158 H 696.457 2.96328 -2.48449 0
M  V30 7159 H 698.146 2.8519 -2.88828 0
M  V30 7160 H 698.912 1.16257 -4.7086 0
M  V30 7161 H 694.791 2.19825 -4.05213 0
M  V30 7162 H 698.335 0.34908 -6.96726 0
M  V30 7163 H 694.232 1.39015 -6.30353 0
M  V30 7164 H 695 0.483134 -8.17073 0
M  V30 7165 N 697.663 1.43903 0.642637 0
M  V30 7166 C 698.909 1.46296 1.40447 0
M  V30 7167 C 699.242 0.0908361 1.93987 0
M  V30 7168 O 698.517 -0.889884 1.72949 0
M  V30 7169 C 698.8 2.51399 2.57819 0
M  V30 7170 C 698.653 3.97926 2.09702 0
M  V30 7171 C 699.972 2.53125 3.60022 0
M  V30 7172 H 697.091 0.532676 0.509338 0
M  V30 7173 H 699.733 1.75515 0.727635 0
M  V30 7174 H 697.883 2.26614 3.1556 0
M  V30 7175 H 699.555 4.33804 1.5688 0
M  V30 7176 H 697.798 4.10252 1.40982 0
M  V30 7177 H 698.469 4.67096 2.94152 0
M  V30 7178 H 700.945 2.75242 3.12059 0
M  V30 7179 H 699.821 3.28589 4.39682 0
M  V30 7180 H 700.082 1.56895 4.13324 0
M  V30 7181 N 699.141 -0.881989 1.30609 0
M  V30 7182 C 700.369 -1.66711 1.22536 0
M  V30 7183 C 700.784 -1.87614 -0.2113 0
M  V30 7184 O 700.141 -1.42576 -1.13923 0
M  V30 7185 C 700.192 -3.04182 1.95335 0
M  V30 7186 O 699.913 -2.8422 3.33393 0
M  V30 7187 C 701.414 -3.98617 1.93956 0
M  V30 7188 H 698.634 -0.520124 0.423925 0
M  V30 7189 H 701.178 -1.10174 1.72285 0
M  V30 7190 H 699.333 -3.57442 1.49378 0
M  V30 7191 H 699.747 -3.71452 3.70302 0
M  V30 7192 H 701.221 -4.92433 2.49426 0
M  V30 7193 H 701.698 -4.29473 0.919198 0
M  V30 7194 H 702.304 -3.51292 2.39738 0
M  V30 7195 N 700.619 -1.13374 -1.09472 0
M  V30 7196 C 701.847 -0.918351 -1.85402 0
M  V30 7197 C 702.262 0.53281 -1.81126 0
M  V30 7198 O 701.619 1.36879 -1.20708 0
M  V30 7199 C 701.67 -1.39743 -3.33398 0
M  V30 7200 O 701.391 -2.79172 -3.37631 0
M  V30 7201 C 702.892 -1.22042 -4.2617 0
M  V30 7202 H 700.112 -0.327511 -0.585643 0
M  V30 7203 H 702.656 -1.50617 -1.38328 0
M  V30 7204 H 700.811 -0.852619 -3.77901 0
M  V30 7205 H 701.225 -3.00428 -4.29934 0
M  V30 7206 H 702.699 -1.60438 -5.2817 0
M  V30 7207 H 703.176 -0.162047 -4.38901 0
M  V30 7208 H 703.782 -1.75323 -3.87482 0
M  V30 7209 N 702.098 1.27442 -0.927168 0
M  V30 7210 C 703.514 1.46754 -0.627329 0
M  V30 7211 C 703.714 1.83902 0.823549 0
M  V30 7212 O 702.77 1.95215 1.60148 0
M  V30 7213 C 704.083 2.56045 -1.57674 0
M  V30 7214 C 705.631 2.69906 -1.58491 0
M  V30 7215 C 706.106 3.82355 -2.52128 0
M  V30 7216 N 707.597 3.89728 -2.50332 0
M  V30 7217 C 708.332 4.76155 -3.19475 0
M  V30 7218 N 707.828 5.67073 -3.97995 0
M  V30 7219 N 709.621 4.6988 -3.08496 0
M  V30 7220 H 701.772 1.01613 -1.86517 0
M  V30 7221 H 704.035 0.507443 -0.800753 0
M  V30 7222 H 703.741 2.35542 -2.61176 0
M  V30 7223 H 703.615 3.53423 -1.31804 0
M  V30 7224 H 706.002 2.89792 -0.557208 0
M  V30 7225 H 706.083 1.73018 -1.8841 0
M  V30 7226 H 705.727 3.63224 -3.55008 0
M  V30 7227 H 705.657 4.7867 -2.19505 0
M  V30 7228 H 708.148 3.24717 -1.93306 0
M  V30 7229 H 708.461 6.2988 -4.4774 0
M  V30 7230 H 706.806 5.6687 -4.02098 0
M  V30 7231 H 709.997 3.97848 -2.46646 0
M  V30 7232 H 710.17 5.37017 -3.62652 0
M  V30 7233 N 703.576 0.692616 1.41565 0
M  V30 7234 C 704.486 0.0258451 2.34586 0
M  V30 7235 C 705.502 -0.769324 1.56069 0
M  V30 7236 O 706.678 -0.707563 1.88562 0
M  V30 7237 C 703.743 -0.901289 3.3478 0
M  V30 7238 C 702.804 -0.0986579 4.29187 0
M  V30 7239 C 702.037 -0.981634 5.24595 0
M  V30 7240 O 702.26 -2.22115 5.25377 0
M  V30 7241 O 701.194 -0.432892 6.00341 0
M  V30 7242 H 705.02 0.792537 2.93177 0
M  V30 7243 H 702.605 0.452935 1.42369 0
M  V30 7244 H 704.487 -1.43302 3.96286 0
M  V30 7245 H 703.162 -1.64752 2.78637 0
M  V30 7246 H 702.069 0.477604 3.71039 0
M  V30 7247 H 703.402 0.608848 4.8842 0
M  V30 7248 N 705.054 -1.51416 0.437162 0
M  V30 7249 C 705.964 -2.31493 -0.380537 0
M  V30 7250 C 706.98 -1.40399 -1.02782 0
M  V30 7251 O 708.156 -1.73471 -1.02323 0
M  V30 7252 C 705.221 -3.1413 -1.46709 0
M  V30 7253 C 704.282 -4.21003 -0.839953 0
M  V30 7254 C 703.515 -4.9969 -1.87473 0
M  V30 7255 O 703.738 -4.79008 -3.09689 0
M  V30 7256 O 702.672 -5.8379 -1.46536 0
M  V30 7257 H 706.498 -3.02469 0.273183 0
M  V30 7258 H 704.083 -1.48059 0.199706 0
M  V30 7259 H 705.965 -3.65505 -2.09724 0
M  V30 7260 H 704.64 -2.45919 -2.10489 0
M  V30 7261 H 703.547 -3.73706 -0.171752 0
M  V30 7262 H 704.88 -4.91587 -0.245638 0
M  V30 7263 N 706.532 -0.168513 -1.56696 0
M  V30 7264 C 707.762 0.482802 -2.0088 0
M  V30 7265 C 708.17 1.57537 -1.0478 0
M  V30 7266 O 707.513 1.83656 -0.0402746 0
M  V30 7267 C 707.575 1.1236 -3.4149 0
M  V30 7268 C 707.239 0.173027 -4.56672 0
M  V30 7269 C 708.236 -0.607565 -5.16338 0
M  V30 7270 C 705.921 0.0696691 -5.02252 0
M  V30 7271 C 707.915 -1.47874 -6.2001 0
M  V30 7272 C 705.602 -0.805096 -6.05773 0
M  V30 7273 C 706.6 -1.57789 -6.64524 0
M  V30 7274 O 706.288 -2.43804 -7.66038 0
M  V30 7275 H 706.02 0.128246 -0.663723 0
M  V30 7276 H 708.574 -0.266532 -2.03663 0
M  V30 7277 H 706.804 1.921 -3.35611 0
M  V30 7278 H 708.493 1.67683 -3.69645 0
M  V30 7279 H 709.259 -0.53787 -4.82008 0
M  V30 7280 H 705.138 0.660957 -4.56237 0
M  V30 7281 H 708.682 -2.0824 -6.65794 0
M  V30 7282 H 704.579 -0.876005 -6.39528 0
M  V30 7283 H 705.347 -2.37289 -7.83349 0
M  V30 7284 N 708.01 1.57248 0.105221 0
M  V30 7285 C 708.973 2.00388 1.11252 0
M  V30 7286 C 709.973 0.89594 1.33527 0
M  V30 7287 O 711.163 1.16166 1.29811 0
M  V30 7288 C 708.295 2.35589 2.46395 0
M  V30 7289 H 709.488 2.90591 0.741424 0
M  V30 7290 H 707.041 1.52332 0.349956 0
M  V30 7291 H 707.776 1.4831 2.884 0
M  V30 7292 H 707.561 3.16408 2.31578 0
M  V30 7293 H 709.051 2.69658 3.18864 0
M  V30 7294 N 709.488 -0.375779 1.53054 0
M  V30 7295 C 710.451 -1.44254 1.7811 0
M  V30 7296 C 711.451 -1.47018 0.651328 0
M  V30 7297 O 712.641 -1.47957 0.919472 0
M  V30 7298 C 709.773 -2.8345 1.89391 0
M  V30 7299 H 710.966 -1.23316 2.73374 0
M  V30 7300 H 708.519 -0.608312 1.43977 0
M  V30 7301 H 709.254 -3.09716 0.961589 0
M  V30 7302 H 709.039 -2.82844 2.71555 0
M  V30 7303 H 710.529 -3.60722 2.10404 0
M  V30 7304 N 710.966 -1.44241 -0.634997 0
M  V30 7305 C 711.898 -1.46793 -1.76024 0
M  V30 7306 C 712.911 -0.361781 -1.58729 0
M  V30 7307 O 714.1 -0.627297 -1.67114 0
M  V30 7308 C 711.2 -1.28248 -3.13697 0
M  V30 7309 C 710.373 -2.52038 -3.57485 0
M  V30 7310 C 709.432 -2.2845 -4.74022 0
M  V30 7311 O 708.458 -3.01915 -4.82531 0
M  V30 7312 N 709.66 -1.31264 -5.65464 0
M  V30 7313 H 712.425 -2.43797 -1.74307 0
M  V30 7314 H 709.986 -1.39631 -0.819438 0
M  V30 7315 H 711.978 -1.10321 -3.89373 0
M  V30 7316 H 710.548 -0.39623 -3.10079 0
M  V30 7317 H 709.768 -2.85268 -2.72059 0
M  V30 7318 H 711.056 -3.34382 -3.83492 0
M  V30 7319 H 710.454 -0.705817 -5.6128 0
M  V30 7320 H 709.011 -1.19316 -6.40786 0
M  V30 7321 N 712.444 0.87505 -1.31075 0
M  V30 7322 C 713.354 2.01441 -1.20244 0
M  V30 7323 C 714.37 1.73584 -0.120227 0
M  V30 7324 O 715.546 1.98559 -0.337063 0
M  V30 7325 C 712.611 3.34675 -0.905199 0
M  V30 7326 C 711.672 3.75889 -2.0738 0
M  V30 7327 C 710.905 5.02764 -1.79064 0
M  V30 7328 O 711.128 5.65795 -0.723318 0
M  V30 7329 O 710.062 5.40623 -2.64594 0
M  V30 7330 H 713.888 2.13509 -2.1598 0
M  V30 7331 H 711.473 1.00257 -1.10765 0
M  V30 7332 H 713.355 4.1458 -0.755057 0
M  V30 7333 H 712.03 3.23692 0.0221695 0
M  V30 7334 H 710.937 2.96645 -2.27931 0
M  V30 7335 H 712.27 3.91489 -2.98324 0
M  V30 7336 N 713.922 1.13953 1.08869 0
M  V30 7337 C 715.152 0.926825 1.84644 0
M  V30 7338 C 715.56 -0.527941 1.81685 0
M  V30 7339 O 714.903 -1.37742 1.21543 0
M  V30 7340 C 714.965 1.34416 3.33426 0
M  V30 7341 C 714.629 2.81351 3.60126 0
M  V30 7342 C 715.626 3.79486 3.55368 0
M  V30 7343 C 713.311 3.1865 3.88288 0
M  V30 7344 C 715.305 5.1293 3.78393 0
M  V30 7345 C 712.992 4.5227 4.10968 0
M  V30 7346 C 713.99 5.4922 4.06013 0
M  V30 7347 O 713.678 6.80429 4.28102 0
M  V30 7348 H 713.41 0.33013 0.589907 0
M  V30 7349 H 715.964 1.51738 1.38436 0
M  V30 7350 H 714.194 0.696901 3.80368 0
M  V30 7351 H 715.883 1.10302 3.90626 0
M  V30 7352 H 716.649 3.52017 3.3363 0
M  V30 7353 H 712.528 2.43785 3.91267 0
M  V30 7354 H 716.072 5.88591 3.74442 0
M  V30 7355 H 711.969 4.79462 4.32188 0
M  V30 7356 H 712.737 6.86617 4.45533 0
M  V30 7357 N 715.4 -1.26948 0.933913 0
M  V30 7358 C 716.31 -2.30366 0.443671 0
M  V30 7359 C 717.326 -1.67284 -0.478745 0
M  V30 7360 O 718.502 -1.98156 -0.360043 0
M  V30 7361 C 715.567 -3.45485 -0.289974 0
M  V30 7362 C 714.628 -4.24069 0.668114 0
M  V30 7363 C 713.861 -5.33691 -0.0306138 0
M  V30 7364 O 714.084 -5.5656 -1.24888 0
M  V30 7365 O 713.018 -5.98441 0.644384 0
M  V30 7366 H 716.844 -2.74349 1.30254 0
M  V30 7367 H 714.429 -1.32012 0.699506 0
M  V30 7368 H 716.311 -4.15486 -0.70353 0
M  V30 7369 H 714.986 -3.03546 -1.12435 0
M  V30 7370 H 713.893 -3.56579 1.13147 0
M  V30 7371 H 715.226 -4.69739 1.46989 0
M  V30 7372 N 716.879 -0.700114 -1.41195 0
M  V30 7373 C 718.127 -0.232546 -2.00758 0
M  V30 7374 C 718.448 1.1734 -1.55745 0
M  V30 7375 O 717.718 1.79262 -0.790058 0
M  V30 7376 H 716.298 -0.0829845 -0.742376 0
M  V30 7377 H 718.96 -0.902289 -1.72756 0
M  V30 7378 H 718.056 -0.253521 -3.11069 0
M  V30 7379 N 718.357 1.51182 -0.445186 0
M  V30 7380 C 719.605 2.01753 0.11841 0
M  V30 7381 C 719.926 1.33087 1.42523 0
M  V30 7382 O 719.196 0.467891 1.9023 0
M  V30 7383 H 717.776 0.745536 0.0467492 0
M  V30 7384 H 720.438 1.85765 -0.589688 0
M  V30 7385 H 719.534 3.10762 0.288665 0
M  V30 7386 N 719.835 0.176821 1.56605 0
M  V30 7387 C 721.06 -0.47599 2.01864 0
M  V30 7388 C 721.485 -1.55645 1.05623 0
M  V30 7389 O 720.843 -1.81263 0.0366729 0
M  V30 7390 C 720.891 -1.02619 3.4569 0
M  V30 7391 O 719.995 -2.13996 3.52533 0
M  V30 7392 H 719.336 -0.113363 0.654251 0
M  V30 7393 H 721.866 0.28233 2.02643 0
M  V30 7394 H 721.876 -1.34742 3.85109 0
M  V30 7395 H 720.551 -0.235138 4.15235 0
M  V30 7396 H 719.128 -1.82876 3.24978 0
M  V30 7397 N 721.313 -1.57302 -0.09688 0
M  V30 7398 C 722.541 -1.90202 -0.814295 0
M  V30 7399 C 722.956 -0.770344 -1.72369 0
M  V30 7400 O 722.313 0.257764 -1.8067 0
M  V30 7401 C 722.364 -3.22708 -1.62916 0
M  V30 7402 O 722.085 -4.31522 -0.756343 0
M  V30 7403 C 723.586 -3.69459 -2.44979 0
M  V30 7404 H 720.806 -0.629275 -0.232925 0
M  V30 7405 H 723.35 -2.04364 -0.0746482 0
M  V30 7406 H 721.505 -3.1015 -2.32133 0
M  V30 7407 H 721.919 -5.07604 -1.32054 0
M  V30 7408 H 723.393 -4.64875 -2.9765 0
M  V30 7409 H 723.87 -2.97211 -3.23361 0
M  V30 7410 H 724.476 -3.84879 -1.80964 0
M  V30 7411 N 722.791 0.367657 -1.53252 0
M  V30 7412 C 723.721 1.45632 -1.8252 0
M  V30 7413 C 724.702 1.55979 -0.678568 0
M  V30 7414 O 725.887 1.70581 -0.928217 0
M  V30 7415 C 723.017 2.82994 -2.01325 0
M  V30 7416 C 721.971 2.87473 -3.17086 0
M  V30 7417 C 721.297 4.2749 -3.21179 0
M  V30 7418 C 722.597 2.55182 -4.55719 0
M  V30 7419 H 724.291 1.21387 -2.73689 0
M  V30 7420 H 721.837 0.58251 -1.31692 0
M  V30 7421 H 723.79 3.59179 -2.20383 0
M  V30 7422 H 722.514 3.08622 -1.06864 0
M  V30 7423 H 721.173 2.13739 -2.97844 0
M  V30 7424 H 720.821 4.5019 -2.24361 0
M  V30 7425 H 720.521 4.31403 -3.98955 0
M  V30 7426 H 722.045 5.0555 -3.42419 0
M  V30 7427 H 723.459 3.21081 -4.74953 0
M  V30 7428 H 721.856 2.70414 -5.3572 0
M  V30 7429 H 722.926 1.5044 -4.60973 0
M  V30 7430 N 724.269 1.44576 0.627338 0
M  V30 7431 C 725.499 1.50829 1.41189 0
M  V30 7432 C 725.907 0.133083 1.88731 0
M  V30 7433 O 725.25 -0.87199 1.61685 0
M  V30 7434 C 725.312 2.41449 2.66351 0
M  V30 7435 C 724.976 3.88549 2.40579 0
M  V30 7436 C 725.973 4.78981 2.0217 0
M  V30 7437 C 723.658 4.33287 2.54102 0
M  V30 7438 C 725.652 6.12153 1.77618 0
M  V30 7439 C 723.339 5.66505 2.29163 0
M  V30 7440 C 724.337 6.55756 1.9098 0
M  V30 7441 O 724.025 7.86506 1.66321 0
M  V30 7442 H 723.757 0.513797 0.439304 0
M  V30 7443 H 726.311 1.90256 0.774059 0
M  V30 7444 H 724.541 1.96955 3.32784 0
M  V30 7445 H 726.23 2.38608 3.28361 0
M  V30 7446 H 726.996 4.45689 1.91277 0
M  V30 7447 H 722.875 3.64074 2.82792 0
M  V30 7448 H 726.419 6.81776 1.47739 0
M  V30 7449 H 722.316 5.99358 2.39668 0
M  V30 7450 H 723.084 7.98341 1.80536 0
M  V30 7451 N 725.747 -0.868086 1.31537 0
M  V30 7452 C 726.995 -1.61807 1.21091 0
M  V30 7453 C 727.316 -1.93631 -0.230623 0
M  V30 7454 O 726.586 -1.5846 -1.15183 0
M  V30 7455 H 725.166 -0.599854 0.445178 0
M  V30 7456 H 727.828 -1.03915 1.64887 0
M  V30 7457 H 726.924 -2.56088 1.78396 0
M  V30 7458 N 727.225 -1.14528 -1.08264 0
M  V30 7459 C 728.636 -0.925261 -1.6216 0
M  V30 7460 C 728.987 0.535587 -1.88748 0
M  V30 7461 O 728.112 1.4048 -1.64604 0
M  V30 7462 C 728.707 -1.67316 -2.94603 0
M  V30 7463 C 727.266 -1.49868 -3.45278 0
M  V30 7464 C 726.413 -1.69471 -2.19487 0
M  V30 7465 H 729.364 -1.29687 -0.914707 0
M  V30 7466 H 729.385 -1.13721 -3.63109 0
M  V30 7467 H 728.897 -2.73635 -2.75219 0
M  V30 7468 H 726.998 -0.459032 -3.69762 0
M  V30 7469 H 727.111 -2.2696 -4.21931 0
M  V30 7470 H 725.475 -1.12048 -2.2873 0
M  V30 7471 H 726.258 -2.77136 -2.0261 0
M  V30 7472 N 728.703 1.26451 -0.940633 0
M  V30 7473 C 729.949 1.94401 -0.598303 0
M  V30 7474 C 730.304 1.72449 0.853178 0
M  V30 7475 O 729.597 1.0506 1.60228 0
M  V30 7476 C 729.791 3.46503 -0.875794 0
M  V30 7477 C 729.62 3.83247 -2.3527 0
M  V30 7478 C 728.39 4.06032 -3.00776 0
M  V30 7479 C 730.588 3.91841 -3.33114 0
M  V30 7480 N 728.57 4.29656 -4.38485 0
M  V30 7481 C 729.941 4.19991 -4.56078 0
M  V30 7482 C 731.996 3.74466 -3.28146 0
M  V30 7483 C 730.699 4.32574 -5.74693 0
M  V30 7484 C 732.725 3.88281 -4.46085 0
M  V30 7485 C 732.087 4.16829 -5.67831 0
M  V30 7486 H 728.186 0.734168 -0.269297 0
M  V30 7487 H 730.77 1.52541 -1.20992 0
M  V30 7488 H 728.941 3.87292 -0.293223 0
M  V30 7489 H 730.673 4.01664 -0.494788 0
M  V30 7490 H 727.428 4.01369 -2.51396 0
M  V30 7491 H 727.852 4.45501 -5.09762 0
M  V30 7492 H 732.494 3.51424 -2.35077 0
M  V30 7493 H 730.212 4.54438 -6.68215 0
M  V30 7494 H 733.798 3.76241 -4.43773 0
M  V30 7495 H 732.678 4.27284 -6.5757 0
M  V30 7496 N 730.181 0.707592 1.40822 0
M  V30 7497 C 731.409 0.253073 2.05346 0
M  V30 7498 C 731.824 -1.10218 1.53289 0
M  V30 7499 O 731.181 -1.69112 0.686105 0
M  V30 7500 C 731.232 0.215411 3.60858 0
M  V30 7501 O 730.953 1.51714 4.10992 0
M  V30 7502 C 732.454 -0.258636 4.42545 0
M  V30 7503 H 729.674 0.115256 0.661027 0
M  V30 7504 H 732.218 0.963555 1.80377 0
M  V30 7505 H 730.373 -0.445978 3.84824 0
M  V30 7506 H 730.787 1.41226 5.05129 0
M  V30 7507 H 732.261 -0.233849 5.51504 0
M  V30 7508 H 732.738 -1.2995 4.19535 0
M  V30 7509 H 733.344 0.372186 4.23668 0
M  V30 7510 N 731.66 -1.50943 0.453197 0
M  V30 7511 C 732.592 -2.25922 -0.38623 0
M  V30 7512 C 733.605 -1.3055 -0.972652 0
M  V30 7513 O 734.794 -1.56191 -0.864097 0
M  V30 7514 C 731.894 -3.01176 -1.5539 0
M  V30 7515 C 731.067 -4.23768 -1.0835 0
M  V30 7516 C 730.126 -4.81466 -2.12313 0
M  V30 7517 O 729.152 -5.42875 -1.71101 0
M  V30 7518 N 730.354 -4.66889 -3.44956 0
M  V30 7519 H 733.119 -2.98601 0.256468 0
M  V30 7520 H 730.68 -1.59408 0.282965 0
M  V30 7521 H 732.672 -3.36659 -2.24594 0
M  V30 7522 H 731.242 -2.31409 -2.10163 0
M  V30 7523 H 730.462 -3.93597 -0.217961 0
M  V30 7524 H 731.75 -5.03289 -0.746857 0
M  V30 7525 H 731.148 -4.18011 -3.81161 0
M  V30 7526 H 729.705 -5.06691 -4.1001 0
M  V30 7527 N 733.138 -0.185124 -1.56509 0
M  V30 7528 C 734.101 0.72591 -2.17401 0
M  V30 7529 C 735.101 1.14819 -1.12575 0
M  V30 7530 O 736.291 1.0629 -1.38015 0
M  V30 7531 C 733.423 1.98979 -2.76803 0
M  V30 7532 H 734.616 0.195588 -2.99262 0
M  V30 7533 H 732.169 0.0644772 -1.56167 0
M  V30 7534 H 732.904 2.56287 -1.98714 0
M  V30 7535 H 732.689 1.69583 -3.53531 0
M  V30 7536 H 734.179 2.63966 -3.23592 0
M  V30 7537 N 734.616 1.57351 0.0885366 0
M  V30 7538 C 735.579 2.01557 1.09121 0
M  V30 7539 C 736.579 0.910052 1.3257 0
M  V30 7540 O 737.769 1.17537 1.28572 0
M  V30 7541 C 734.901 2.38189 2.43883 0
M  V30 7542 H 736.094 2.91361 0.710562 0
M  V30 7543 H 733.647 1.52694 0.333779 0
M  V30 7544 H 734.382 1.5136 2.86811 0
M  V30 7545 H 734.167 3.18846 2.28209 0
M  V30 7546 H 735.657 2.73025 3.15986 0
M  V30 7547 N 736.094 -0.359525 1.53444 0
M  V30 7548 C 737.324 -1.12036 1.73585 0
M  V30 7549 C 737.732 -1.83335 0.467438 0
M  V30 7550 O 737.075 -1.74641 -0.569753 0
M  V30 7551 C 737.137 -2.19036 2.85068 0
M  V30 7552 C 736.801 -1.67451 4.25217 0
M  V30 7553 C 737.798 -1.13534 5.07352 0
M  V30 7554 C 735.483 -1.72781 4.71648 0
M  V30 7555 C 737.477 -0.656321 6.34012 0
M  V30 7556 C 735.164 -1.2449 5.98285 0
M  V30 7557 C 736.162 -0.710068 6.79299 0
M  V30 7558 O 735.85 -0.234314 8.03558 0
M  V30 7559 H 735.582 -0.340662 0.583888 0
M  V30 7560 H 738.136 -0.422452 2.01009 0
M  V30 7561 H 736.366 -2.92338 2.53131 0
M  V30 7562 H 738.055 -2.80559 2.93328 0
M  V30 7563 H 738.821 -1.08751 4.7265 0
M  V30 7564 H 734.7 -2.13351 4.08659 0
M  V30 7565 H 738.244 -0.238193 6.97193 0
M  V30 7566 H 734.141 -1.28969 6.32485 0
M  V30 7567 H 734.909 -0.353084 8.17738 0
M  V30 7568 N 737.572 -1.44907 -0.619662 0
M  V30 7569 C 738.504 -1.48652 -1.74457 0
M  V30 7570 C 739.517 -0.378596 -1.58337 0
M  V30 7571 O 740.706 -0.644987 -1.6644 0
M  V30 7572 C 737.806 -1.31568 -3.12319 0
M  V30 7573 C 736.979 -2.55816 -3.54792 0
M  V30 7574 C 736.038 -2.33465 -4.71573 0
M  V30 7575 O 735.064 -3.07015 -4.79302 0
M  V30 7576 N 736.266 -1.37254 -5.6404 0
M  V30 7577 H 739.031 -2.45632 -1.71712 0
M  V30 7578 H 736.592 -1.40492 -0.804582 0
M  V30 7579 H 738.584 -1.14445 -3.88181 0
M  V30 7580 H 737.154 -0.429095 -3.09641 0
M  V30 7581 H 736.374 -2.88137 -2.69018 0
M  V30 7582 H 737.662 -3.38431 -3.79924 0
M  V30 7583 H 737.06 -0.765309 -5.60499 0
M  V30 7584 H 735.617 -1.26106 -6.39485 0
M  V30 7585 N 739.05 0.861098 -1.31996 0
M  V30 7586 C 739.982 1.97551 -1.16216 0
M  V30 7587 C 740.995 1.625 -0.0988527 0
M  V30 7588 O 742.184 1.75091 -0.3472 0
M  V30 7589 C 739.284 3.30376 -0.755307 0
M  V30 7590 C 738.457 3.93711 -1.90552 0
M  V30 7591 C 737.516 5.04862 -1.48328 0
M  V30 7592 O 736.542 5.25204 -2.19431 0
M  V30 7593 N 737.744 5.79283 -0.375656 0
M  V30 7594 H 740.509 2.11632 -2.12208 0
M  V30 7595 H 738.07 1.03559 -1.24448 0
M  V30 7596 H 740.062 4.0213 -0.455364 0
M  V30 7597 H 738.632 3.12395 0.113269 0
M  V30 7598 H 737.852 3.14825 -2.37231 0
M  V30 7599 H 739.14 4.32762 -2.67571 0
M  V30 7600 H 738.538 5.65286 0.216284 0
M  V30 7601 H 737.095 6.5166 -0.135289 0
M  V30 7602 N 740.528 1.15101 1.07655 0
M  V30 7603 C 741.458 0.867864 2.16773 0
M  V30 7604 C 742.439 -0.180283 1.69142 0
M  V30 7605 O 743.624 -0.0353152 1.94168 0
M  V30 7606 C 740.754 0.35299 3.45501 0
M  V30 7607 C 739.708 1.33746 4.06566 0
M  V30 7608 C 739.034 0.681562 5.30338 0
M  V30 7609 C 740.334 2.7024 4.46954 0
M  V30 7610 H 742.028 1.78034 2.40716 0
M  V30 7611 H 739.574 0.857435 1.15689 0
M  V30 7612 H 741.527 0.142465 4.21159 0
M  V30 7613 H 740.251 -0.594945 3.21135 0
M  V30 7614 H 738.91 1.53429 3.32949 0
M  V30 7615 H 738.558 -0.272422 5.02262 0
M  V30 7616 H 738.258 1.33853 5.72151 0
M  V30 7617 H 739.782 0.48074 6.08705 0
M  V30 7618 H 741.196 2.5442 5.13754 0
M  V30 7619 H 739.593 3.32282 4.99709 0
M  V30 7620 H 740.663 3.26537 3.58471 0
M  V30 7621 N 742.006 -1.2595 0.947325 0
M  V30 7622 C 743.253 -1.93463 0.598178 0
M  V30 7623 C 743.581 -1.74271 -0.863705 0
M  V30 7624 O 742.836 -1.07684 -1.63409 0
M  V30 7625 C 743.135 -3.46034 0.894158 0
M  V30 7626 C 742.801 -3.85373 2.3409 0
M  V30 7627 C 741.463 -3.95823 2.73637 0
M  V30 7628 C 743.815 -4.04986 3.2808 0
M  V30 7629 C 741.143 -4.23288 4.06257 0
M  V30 7630 C 743.495 -4.3394 4.60303 0
M  V30 7631 C 742.159 -4.42606 4.99656 0
M  V30 7632 H 741.429 -0.707933 0.218889 0
M  V30 7633 H 744.076 -1.4964 1.19499 0
M  V30 7634 H 742.381 -3.9121 0.214874 0
M  V30 7635 H 744.078 -3.96445 0.602698 0
M  V30 7636 H 740.668 -3.7779 2.02417 0
M  V30 7637 H 744.852 -3.96333 2.9872 0
M  V30 7638 H 740.108 -4.28211 4.36401 0
M  V30 7639 H 744.282 -4.48061 5.33118 0
M  V30 7640 H 741.909 -4.63641 6.02446 0
M  V30 7641 N 743.484 -0.715051 -1.40445 0
M  V30 7642 C 744.73 -0.254705 -2.01194 0
M  V30 7643 C 745.063 1.14894 -1.56567 0
M  V30 7644 O 744.338 1.77933 -0.785491 0
M  V30 7645 C 744.621 -0.334148 -3.58546 0
M  V30 7646 C 744.474 -1.77613 -4.13248 0
M  V30 7647 C 745.793 0.294968 -4.3911 0
M  V30 7648 H 742.912 -0.094025 -0.730978 0
M  V30 7649 H 745.554 -0.907449 -1.66929 0
M  V30 7650 H 743.704 0.221609 -3.87867 0
M  V30 7651 H 745.376 -2.38723 -3.94727 0
M  V30 7652 H 743.619 -2.30402 -3.67556 0
M  V30 7653 H 744.29 -1.78311 -5.22407 0
M  V30 7654 H 746.766 -0.178563 -4.15717 0
M  V30 7655 H 745.642 0.208934 -5.48502 0
M  V30 7656 H 745.903 1.37841 -4.20062 0
M  V30 7657 N 744.962 1.50701 -0.461195 0
M  V30 7658 C 746.239 1.94958 0.158296 0
M  V30 7659 C 746.619 1.40111 1.57899 0
M  V30 7660 O 745.967 0.597976 2.20537 0
M  V30 7661 C 746.177 3.48821 0.11172 0
M  V30 7662 C 747.525 4.23499 0.30552 0
M  V30 7663 O 748.549 3.557 0.188758 0
M  V30 7664 O 747.408 5.43823 0.540244 0
M  V30 7665 H 744.502 0.818674 0.117054 0
M  V30 7666 H 747.048 1.61508 -0.520888 0
M  V30 7667 H 745.82 3.81263 -0.880577 0
M  V30 7668 H 745.443 3.88781 0.832791 0
M  V30 7669 N 746.441 0.193421 1.56409 0
M  V30 7670 C 747.374 -0.767384 2.1491 0
M  V30 7671 C 748.352 -1.21075 1.08534 0
M  V30 7672 O 749.536 -1.29856 1.36637 0
M  V30 7673 C 746.663 -2.03615 2.70663 0
M  V30 7674 C 745.709 -1.73505 3.89613 0
M  V30 7675 S 746.542 -0.884645 5.28142 0
M  V30 7676 C 747.698 -2.1636 5.87315 0
M  V30 7677 H 747.931 -0.270053 2.96071 0
M  V30 7678 H 745.464 -0.0215546 1.54385 0
M  V30 7679 H 747.422 -2.7648 3.03429 0
M  V30 7680 H 746.083 -2.50461 1.89547 0
M  V30 7681 H 745.276 -2.67701 4.27027 0
M  V30 7682 H 744.878 -1.08723 3.57848 0
M  V30 7683 H 747.17 -3.11629 6.01576 0
M  V30 7684 H 748.113 -1.8338 6.83943 0
M  V30 7685 H 748.521 -2.29129 5.15907 0
M  V30 7686 N 747.919 -1.57396 -0.0801906 0
M  V30 7687 C 748.882 -2.02133 -1.0805 0
M  V30 7688 C 749.882 -0.91707 -1.32085 0
M  V30 7689 O 751.072 -1.18217 -1.27947 0
M  V30 7690 C 748.204 -2.39479 -2.42616 0
M  V30 7691 H 749.397 -2.91733 -0.6951 0
M  V30 7692 H 746.95 -1.52869 -0.325677 0
M  V30 7693 H 747.685 -1.52879 -2.86004 0
M  V30 7694 H 747.47 -3.20052 -2.26515 0
M  V30 7695 H 748.96 -2.74697 -3.14534 0
M  V30 7696 N 749.397 0.351382 -1.53633 0
M  V30 7697 C 750.643 1.09411 -1.70754 0
M  V30 7698 C 750.976 1.88544 -0.465293 0
M  V30 7699 O 750.251 1.86923 0.537608 0
M  V30 7700 C 750.534 2.04173 -2.96623 0
M  V30 7701 C 750.387 1.28556 -4.31038 0
M  V30 7702 C 751.706 3.04102 -3.18136 0
M  V30 7703 H 748.825 0.396373 -0.621335 0
M  V30 7704 H 751.467 0.373464 -1.86293 0
M  V30 7705 H 749.617 2.65625 -2.83506 0
M  V30 7706 H 751.289 0.697786 -4.55992 0
M  V30 7707 H 749.532 0.587498 -4.29803 0
M  V30 7708 H 750.203 1.97989 -5.15271 0
M  V30 7709 H 752.679 2.5276 -3.30532 0
M  V30 7710 H 751.555 3.67616 -4.07615 0
M  V30 7711 H 751.816 3.75053 -2.34068 0
M  V30 7712 N 750.875 1.45233 0.611969 0
M  V30 7713 C 751.838 1.53189 1.70487 0
M  V30 7714 C 752.838 0.411839 1.55437 0
M  V30 7715 O 754.028 0.675164 1.60584 0
M  V30 7716 C 751.16 1.42422 3.09723 0
M  V30 7717 H 752.353 2.5056 1.64802 0
M  V30 7718 H 749.906 1.32609 0.827318 0
M  V30 7719 H 750.641 0.462185 3.2099 0
M  V30 7720 H 750.426 2.23658 3.22055 0
M  V30 7721 H 751.916 1.51012 3.89339 0
M  V30 7722 N 752.353 -0.854086 1.3245 0
M  V30 7723 C 753.283 -1.97827 1.24044 0
M  V30 7724 C 754.264 -1.69646 0.124166 0
M  V30 7725 O 755.449 -1.91687 0.31143 0
M  V30 7726 C 752.579 -3.33673 0.963324 0
M  V30 7727 C 751.533 -3.76207 2.04089 0
M  V30 7728 C 750.859 -5.0969 1.61618 0
M  V30 7729 C 752.159 -3.91612 3.45597 0
M  V30 7730 H 753.853 -2.05118 2.18099 0
M  V30 7731 H 751.399 -0.985489 1.04996 0
M  V30 7732 H 753.352 -4.11871 0.891061 0
M  V30 7733 H 752.076 -3.26597 -0.0128649 0
M  V30 7734 H 750.735 -3.0026 2.10332 0
M  V30 7735 H 750.383 -4.99072 0.627418 0
M  V30 7736 H 750.083 -5.3912 2.33717 0
M  V30 7737 H 751.607 -5.90381 1.55829 0
M  V30 7738 H 753.021 -4.60163 3.4194 0
M  V30 7739 H 751.418 -4.3246 4.16051 0
M  V30 7740 H 752.488 -2.9451 3.85217 0
M  V30 7741 N 753.831 -1.1567 -1.07043 0
M  V30 7742 C 755.247 -0.900006 -1.31803 0
M  V30 7743 C 755.447 0.451293 -1.96381 0
M  V30 7744 O 754.503 1.19252 -2.22565 0
M  V30 7745 C 755.816 -2.04334 -2.20609 0
M  V30 7746 C 757.364 -2.07823 -2.34048 0
M  V30 7747 C 757.839 -3.21488 -3.26204 0
M  V30 7748 N 759.33 -3.21156 -3.33786 0
M  V30 7749 C 760.065 -4.05746 -4.05163 0
M  V30 7750 N 759.561 -5.00407 -4.79129 0
M  V30 7751 N 761.354 -3.93759 -4.01136 0
M  V30 7752 H 753.505 -2.02681 -0.635146 0
M  V30 7753 H 755.768 -0.883956 -0.342528 0
M  V30 7754 H 755.474 -3.01895 -1.80423 0
M  V30 7755 H 755.348 -1.97838 -3.21154 0
M  V30 7756 H 757.735 -1.1086 -2.73485 0
M  V30 7757 H 757.816 -2.18386 -1.33197 0
M  V30 7758 H 757.46 -4.18706 -2.87485 0
M  V30 7759 H 757.39 -3.08162 -4.27017 0
M  V30 7760 H 759.881 -2.52606 -2.81067 0
M  V30 7761 H 760.194 -5.61387 -5.31097 0
M  V30 7762 H 758.539 -5.04393 -4.78135 0
M  V30 7763 H 761.73 -3.19115 -3.42466 0
M  V30 7764 H 761.903 -4.59906 -4.56498 0
M  V30 7765 N 755.309 1.25446 -0.953992 0
M  V30 7766 C 756.219 2.29632 -0.480264 0
M  V30 7767 C 757.235 1.68025 0.452071 0
M  V30 7768 O 758.411 1.98703 0.328472 0
M  V30 7769 C 755.476 3.45903 0.234974 0
M  V30 7770 C 754.537 4.22953 -0.735495 0
M  V30 7771 C 753.77 5.33672 -0.0542957 0
M  V30 7772 O 753.993 5.58477 1.16018 0
M  V30 7773 O 752.927 5.9734 -0.739509 0
M  V30 7774 H 756.753 2.72242 -1.34602 0
M  V30 7775 H 754.338 1.30883 -0.720419 0
M  V30 7776 H 756.22 4.16552 0.637341 0
M  V30 7777 H 754.895 3.05296 1.07592 0
M  V30 7778 H 753.802 3.54734 -1.18806 0
M  V30 7779 H 755.135 4.67341 -1.54444 0
M  V30 7780 N 756.787 0.722489 1.40064 0
M  V30 7781 C 758.203 0.396758 1.5459 0
M  V30 7782 C 758.403 -1.09375 1.69232 0
M  V30 7783 O 757.459 -1.87984 1.68578 0
M  V30 7784 C 758.772 1.16885 2.77053 0
M  V30 7785 C 760.32 1.15583 2.90877 0
M  V30 7786 C 760.795 1.91023 4.16262 0
M  V30 7787 N 762.286 1.88126 4.23276 0
M  V30 7788 C 763.021 2.43315 5.19216 0
M  V30 7789 N 762.517 3.07089 6.21022 0
M  V30 7790 N 764.31 2.33418 5.11344 0
M  V30 7791 H 756.461 1.68887 1.28806 0
M  V30 7792 H 758.724 0.714231 0.62336 0
M  V30 7793 H 758.43 2.22301 2.72534 0
M  V30 7794 H 758.304 0.765011 3.69361 0
M  V30 7795 H 760.691 0.10984 2.94896 0
M  V30 7796 H 760.772 1.59895 1.99668 0
M  V30 7797 H 760.416 2.95616 4.13006 0
M  V30 7798 H 760.346 1.44126 5.06493 0
M  V30 7799 H 762.837 1.41654 3.50346 0
M  V30 7800 H 763.15 3.467 6.90666 0
M  V30 7801 H 761.495 3.11175 6.21446 0
M  V30 7802 H 764.686 1.83248 4.30741 0
M  V30 7803 H 764.859 2.7673 5.85939 0
M  V30 7804 N 758.265 -1.50454 0.469181 0
M  V30 7805 C 759.195 -2.31353 -0.31592 0
M  V30 7806 C 760.176 -1.38172 -0.992094 0
M  V30 7807 O 761.361 -1.67093 -0.989633 0
M  V30 7808 C 758.491 -3.1786 -1.39937 0
M  V30 7809 C 757.445 -4.19578 -0.844909 0
M  V30 7810 C 756.771 -4.9481 -2.0265 0
M  V30 7811 C 758.071 -5.22106 0.142499 0
M  V30 7812 H 759.765 -2.97237 0.359269 0
M  V30 7813 H 757.311 -1.42942 0.174224 0
M  V30 7814 H 759.264 -3.7325 -1.95607 0
M  V30 7815 H 757.988 -2.49858 -2.1033 0
M  V30 7816 H 756.647 -3.65285 -0.310189 0
M  V30 7817 H 756.295 -4.23282 -2.71737 0
M  V30 7818 H 755.995 -5.63613 -1.66174 0
M  V30 7819 H 757.519 -5.53035 -2.58815 0
M  V30 7820 H 758.933 -5.72378 -0.324966 0
M  V30 7821 H 757.33 -5.98618 0.421441 0
M  V30 7822 H 758.4 -4.7297 1.06901 0
M  V30 7823 N 759.743 -0.201713 -1.56304 0
M  V30 7824 C 761.154 0.309711 -1.84113 0
M  V30 7825 C 761.505 1.60912 -1.12258 0
M  V30 7826 O 760.63 2.12937 -0.385587 0
M  V30 7827 C 761.225 0.568706 -3.33993 0
M  V30 7828 C 759.784 1.02448 -3.6219 0
M  V30 7829 C 758.931 0.0766842 -2.77194 0
M  V30 7830 H 761.882 -0.425356 -1.52893 0
M  V30 7831 H 761.903 1.41721 -3.53122 0
M  V30 7832 H 761.415 -0.37719 -3.86263 0
M  V30 7833 H 759.516 1.98443 -3.15359 0
M  V30 7834 H 759.629 0.912619 -4.70328 0
M  V30 7835 H 757.993 0.579809 -2.48013 0
M  V30 7836 H 758.776 -0.863774 -3.32256 0
M  V30 7837 N 761.222 1.57436 0.0718424 0
M  V30 7838 C 762.468 1.87525 0.772149 0
M  V30 7839 C 762.801 0.79399 1.77227 0
M  V30 7840 O 762.076 -0.195733 1.93513 0
M  V30 7841 C 762.359 3.28272 1.48018 0
M  V30 7842 C 762.212 4.47052 0.49647 0
M  V30 7843 C 763.531 3.67256 2.42509 0
M  V30 7844 H 760.65 0.682049 0.279245 0
M  V30 7845 H 763.292 1.89967 0.03534 0
M  V30 7846 H 761.442 3.26321 2.10824 0
M  V30 7847 H 763.114 4.61127 -0.126375 0
M  V30 7848 H 761.357 4.33392 -0.188205 0
M  V30 7849 H 762.028 5.42315 1.02949 0
M  V30 7850 H 764.504 3.70301 1.89781 0
M  V30 7851 H 763.38 4.66626 2.89053 0
M  V30 7852 H 763.641 2.97186 3.27312 0
M  V30 7853 N 762.7 -0.34323 1.53817 0
M  V30 7854 C 763.61 -1.44493 1.84821 0
M  V30 7855 C 764.626 -1.57556 0.738381 0
M  V30 7856 O 765.802 -1.73026 1.03072 0
M  V30 7857 C 762.867 -2.79478 2.05166 0
M  V30 7858 C 761.928 -2.75756 3.29025 0
M  V30 7859 C 761.161 -4.04302 3.4839 0
M  V30 7860 O 761.384 -5.01595 2.71586 0
M  V30 7861 O 760.318 -4.08754 4.41819 0
M  V30 7862 H 764.144 -1.21209 2.78464 0
M  V30 7863 H 761.729 -0.535437 1.39476 0
M  V30 7864 H 763.611 -3.59419 2.19991 0
M  V30 7865 H 762.286 -3.02692 1.14713 0
M  V30 7866 H 761.193 -1.94434 3.19603 0
M  V30 7867 H 762.526 -2.57495 4.19472 0
M  V30 7868 N 764.178 -1.45556 -0.604258 0
M  V30 7869 C 765.406 -1.53278 -1.38973 0
M  V30 7870 C 765.821 -0.166509 -1.88064 0
M  V30 7871 O 765.178 0.832519 -1.62405 0
M  V30 7872 C 765.229 -2.51992 -2.59195 0
M  V30 7873 O 764.95 -3.8331 -2.12143 0
M  V30 7874 C 766.451 -2.69445 -3.52015 0
M  V30 7875 H 763.671 -0.519003 -0.425297 0
M  V30 7876 H 766.215 -1.90773 -0.736621 0
M  V30 7877 H 764.37 -2.17561 -3.2054 0
M  V30 7878 H 764.784 -4.3685 -2.90279 0
M  V30 7879 H 766.258 -3.42485 -4.32907 0
M  V30 7880 H 766.735 -1.75596 -4.0257 0
M  V30 7881 H 767.341 -3.04886 -2.9652 0
M  V30 7882 N 765.656 0.84705 -1.32902 0
M  V30 7883 C 766.881 1.63925 -1.27056 0
M  V30 7884 C 767.306 1.87443 0.157136 0
M  V30 7885 O 766.664 1.43266 1.11106 0
M  V30 7886 C 766.712 2.97134 -2.04313 0
M  V30 7887 O 765.816 3.88049 -1.39614 0
M  V30 7888 H 765.157 0.499477 -0.437514 0
M  V30 7889 H 767.687 1.05443 -1.75336 0
M  V30 7890 H 767.697 3.46896 -2.14772 0
M  V30 7891 H 766.372 2.79339 -3.08128 0
M  V30 7892 H 764.949 3.46525 -1.3775 0
M  V30 7893 N 767.134 1.16236 1.06428 0
M  V30 7894 C 768.097 0.870163 2.1204 0
M  V30 7895 C 769.097 -0.134239 1.60239 0
M  V30 7896 O 770.287 0.0964932 1.73933 0
M  V30 7897 C 767.419 0.301033 3.39568 0
M  V30 7898 H 768.612 1.8064 2.39394 0
M  V30 7899 H 766.165 0.971116 1.2247 0
M  V30 7900 H 766.9 -0.642948 3.17863 0
M  V30 7901 H 766.685 1.02475 3.78472 0
M  V30 7902 H 768.175 0.114494 4.17443 0
M  V30 7903 N 768.612 -1.24939 0.960631 0
M  V30 7904 C 769.861 -1.92118 0.614298 0
M  V30 7905 C 770.174 -1.75998 -0.853474 0
M  V30 7906 O 771.38 -2.37804 -1.31003 0
M  V30 7907 C 769.836 -3.44303 1.04801 0
M  V30 7908 C 769.444 -3.69123 2.53875 0
M  V30 7909 C 771.188 -4.17375 0.774497 0
M  V30 7910 C 769.095 -5.14843 2.91016 0
M  V30 7911 H 768.025 -0.719319 0.226045 0
M  V30 7912 H 770.676 -1.41701 1.16589 0
M  V30 7913 H 769.058 -3.93715 0.42479 0
M  V30 7914 H 770.232 -3.30339 3.21267 0
M  V30 7915 H 768.547 -3.09323 2.78762 0
M  V30 7916 H 771.144 -5.24723 1.02808 0
M  V30 7917 H 771.487 -4.15294 -0.289192 0
M  V30 7918 H 772.02 -3.7389 1.35835 0
M  V30 7919 H 768.759 -5.2204 3.96427 0
M  V30 7920 H 768.279 -5.54652 2.28302 0
M  V30 7921 H 769.958 -5.83017 2.80535 0
M  V30 7922 N 770.09 -0.729906 -1.39679 0
M  V30 7923 C 771.053 -0.0951668 -2.29002 0
M  V30 7924 C 772.053 0.672471 -1.46063 0
M  V30 7925 O 773.243 0.502245 -1.66803 0
M  V30 7926 C 770.375 0.874631 -3.29489 0
M  V30 7927 H 771.568 -0.882062 -2.86635 0
M  V30 7928 H 769.121 -0.495424 -1.4824 0
M  V30 7929 H 769.856 1.68807 -2.76902 0
M  V30 7930 H 769.641 0.326893 -3.90735 0
M  V30 7931 H 771.131 1.31548 -3.96339 0
M  V30 7932 N 771.568 1.50203 -0.477153 0
M  V30 7933 C 772.979 1.86685 -0.0235041 0
M  V30 7934 C 773.33 1.39148 1.38319 0
M  V30 7935 O 772.455 0.759051 2.02651 0
M  V30 7936 C 773.05 3.38781 -0.0358767 0
M  V30 7937 C 771.609 3.74652 0.362327 0
M  V30 7938 C 770.756 2.7412 -0.41875 0
M  V30 7939 H 773.707 1.4286 -0.691133 0
M  V30 7940 H 773.728 3.72732 0.764924 0
M  V30 7941 H 773.24 3.73349 -1.05981 0
M  V30 7942 H 771.341 3.45686 1.39039 0
M  V30 7943 H 771.454 4.79063 0.059457 0
M  V30 7944 H 769.818 2.54376 0.128341 0
M  V30 7945 H 770.601 3.11532 -1.44231 0
M  V30 7946 N 773.046 0.209999 1.56195 0
M  V30 7947 C 774.323 -0.473214 1.89789 0
M  V30 7948 C 774.703 -1.78581 1.1257 0
M  V30 7949 O 774.051 -2.27325 0.231398 0
M  V30 7950 C 774.261 -0.677458 3.42362 0
M  V30 7951 C 775.609 -0.990114 4.12895 0
M  V30 7952 O 776.633 -0.764655 3.47896 0
M  V30 7953 O 775.492 -1.41737 5.278 0
M  V30 7954 H 772.586 -0.248622 0.788743 0
M  V30 7955 H 775.132 0.251324 1.67829 0
M  V30 7956 H 773.904 0.248878 3.90508 0
M  V30 7957 H 773.527 -1.45391 3.70064 0
M  V30 7958 N 774.524 -1.57472 -0.0634922 0
M  V30 7959 C 775.454 -2.07297 -1.07473 0
M  V30 7960 C 776.435 -0.968162 -1.39859 0
M  V30 7961 O 777.62 -1.24139 -1.49343 0
M  V30 7962 C 774.75 -2.52381 -2.38581 0
M  V30 7963 C 773.704 -3.66813 -2.20526 0
M  V30 7964 C 773.03 -3.97982 -3.57092 0
M  V30 7965 C 774.33 -4.96553 -1.61965 0
M  V30 7966 H 776.024 -2.92033 -0.660092 0
M  V30 7967 H 773.57 -1.40488 -0.316074 0
M  V30 7968 H 775.523 -2.85852 -3.09624 0
M  V30 7969 H 774.247 -1.64684 -2.8204 0
M  V30 7970 H 772.906 -3.33639 -1.51924 0
M  V30 7971 H 772.554 -3.07403 -3.98136 0
M  V30 7972 H 772.254 -4.7504 -3.45848 0
M  V30 7973 H 773.778 -4.33956 -4.29552 0
M  V30 7974 H 775.192 -5.28201 -2.22883 0
M  V30 7975 H 773.589 -5.7799 -1.61394 0
M  V30 7976 H 774.659 -4.81396 -0.581918 0
M  V30 7977 N 776.003 0.335068 -1.53997 0
M  V30 7978 C 777.228 1.09859 -1.75914 0
M  V30 7979 C 777.653 1.81308 -0.500915 0
M  V30 7980 O 777.011 1.72854 0.54693 0
M  V30 7981 C 777.059 2.08122 -2.94478 0
M  V30 7982 O 776.163 3.15805 -2.65219 0
M  V30 7983 H 775.504 0.317313 -0.583274 0
M  V30 7984 H 778.034 0.382872 -2.00986 0
M  V30 7985 H 778.044 2.51195 -3.21504 0
M  V30 7986 H 776.719 1.55517 -3.8573 0
M  V30 7987 H 775.296 2.77489 -2.49107 0
M  V30 7988 N 777.481 1.45874 0.596531 0
M  V30 7989 C 778.721 1.52015 1.36641 0
M  V30 7990 C 779.085 0.16226 1.91313 0
M  V30 7991 O 780.286 0.0983889 2.6862 0
M  V30 7992 C 778.557 2.57776 2.4756 0
M  V30 7993 S 780.116 2.83223 3.35157 0
M  V30 7994 H 776.934 0.537251 0.465706 0
M  V30 7995 H 779.536 1.83024 0.687205 0
M  V30 7996 H 778.24 3.55091 2.05764 0
M  V30 7997 H 777.771 2.28455 3.20269 0
M  V30 7998 H 779.786 2.17442 4.4602 0
M  V30 7999 N 778.959 -0.83999 1.33349 0
M  V30 8000 C 780.199 -1.60888 1.26073 0
M  V30 8001 C 780.563 -1.91234 -0.17129 0
M  V30 8002 O 781.764 -2.66269 -0.36799 0
M  V30 8003 C 780.035 -2.88438 2.11042 0
M  V30 8004 S 781.594 -3.79116 2.20944 0
M  V30 8005 H 778.412 -0.55166 0.448545 0
M  V30 8006 H 781.014 -0.99359 1.68369 0
M  V30 8007 H 779.718 -2.64113 3.14121 0
M  V30 8008 H 779.249 -3.54974 1.69579 0
M  V30 8009 H 781.264 -4.76921 1.36969 0
M  V30 8010 N 780.437 -1.16799 -1.0581 0
M  V30 8011 C 781.369 -0.836774 -2.13379 0
M  V30 8012 C 782.382 0.158116 -1.6203 0
M  V30 8013 O 783.571 -0.0673211 -1.78373 0
M  V30 8014 C 780.671 -0.225959 -3.38146 0
M  V30 8015 C 779.844 -1.26217 -4.18794 0
M  V30 8016 C 778.903 -0.670257 -5.21914 0
M  V30 8017 O 777.929 -1.34042 -5.53192 0
M  V30 8018 N 779.131 0.540683 -5.77977 0
M  V30 8019 H 781.896 -1.76257 -2.42391 0
M  V30 8020 H 779.457 -1.06599 -1.21853 0
M  V30 8021 H 781.449 0.18317 -4.04285 0
M  V30 8022 H 780.019 0.603494 -3.06719 0
M  V30 8023 H 779.239 -1.84729 -3.48237 0
M  V30 8024 H 780.527 -1.9613 -4.69479 0
M  V30 8025 H 779.925 1.10322 -5.54838 0
M  V30 8026 H 778.482 0.891958 -6.45668 0
M  V30 8027 N 781.915 1.24427 -0.967243 0
M  V30 8028 C 782.848 2.23885 -0.441683 0
M  V30 8029 C 783.826 1.55231 0.483963 0
M  V30 8030 O 785.01 1.83865 0.415445 0
M  V30 8031 C 782.137 3.36755 0.362458 0
M  V30 8032 C 781.183 4.23495 -0.505407 0
M  V30 8033 S 782.016 4.98916 -1.94534 0
M  V30 8034 C 783.172 6.15245 -1.14997 0
M  V30 8035 H 783.405 2.68118 -1.28453 0
M  V30 8036 H 780.938 1.337 -0.772243 0
M  V30 8037 H 782.896 4.02218 0.820445 0
M  V30 8038 H 781.557 2.91081 1.18027 0
M  V30 8039 H 780.75 5.03876 0.111979 0
M  V30 8040 H 780.352 3.63032 -0.899104 0
M  V30 8041 H 782.644 6.7629 -0.404769 0
M  V30 8042 H 783.587 6.81343 -1.92814 0
M  V30 8043 H 783.995 5.60455 -0.674543 0
M  V30 8044 N 783.393 0.737304 1.3929 0
M  V30 8045 C 784.341 0.0879867 2.32434 0
M  V30 8046 C 785.335 -0.723324 1.53181 0
M  V30 8047 O 786.541 -0.624251 1.68829 0
M  V30 8048 H 782.916 0.00965277 0.751938 0
M  V30 8049 H 784.887 0.889915 2.84821 0
M  V30 8050 C 783.636 -0.803384 3.38291 0
M  V30 8051 H 782.959 -0.18849 3.99355 0
M  V30 8052 H 784.399 -1.22528 4.0591 0
M  V30 8053 C 782.858 -1.93872 2.75527 0
M  V30 8054 O 783.388 -3.03154 2.63553 0
M  V30 8055 N 781.594 -1.72883 2.3358 0
M  V30 8056 H 781.141 -0.840005 2.43519 0
M  V30 8057 H 781.099 -2.49021 1.91927 0
M  V30 8058 N 784.871 -1.49948 0.485112 0
M  V30 8059 C 786.118 -2.02396 -0.0650059 0
M  V30 8060 C 786.446 -1.36606 -1.38452 0
M  V30 8061 O 785.701 -0.485476 -1.89583 0
M  V30 8062 C 786 -3.56282 -0.282434 0
M  V30 8063 C 785.666 -4.40625 0.957106 0
M  V30 8064 C 784.328 -4.63393 1.29692 0
M  V30 8065 C 786.68 -4.89799 1.78176 0
M  V30 8066 C 784.008 -5.3258 2.4612 0
M  V30 8067 C 786.36 -5.60266 2.93743 0
M  V30 8068 C 785.024 -5.81284 3.28124 0
M  V30 8069 H 784.294 -0.740618 -0.0237873 0
M  V30 8070 H 786.941 -1.80416 0.642044 0
M  V30 8071 H 785.246 -3.76853 -1.07186 0
M  V30 8072 H 786.943 -3.94442 -0.722276 0
M  V30 8073 H 783.533 -4.23133 0.682384 0
M  V30 8074 H 787.717 -4.7205 1.53239 0
M  V30 8075 H 782.973 -5.47059 2.73014 0
M  V30 8076 H 787.147 -5.97347 3.5798 0
M  V30 8077 H 784.774 -6.34671 4.18446 0
M  V30 8078 N 786.349 -0.21828 -1.56081 0
M  V30 8079 C 787.281 0.725447 -2.17416 0
M  V30 8080 C 788.294 1.15995 -1.14233 0
M  V30 8081 O 789.483 1.09166 -1.41227 0
M  V30 8082 C 786.583 1.99401 -2.7403 0
M  V30 8083 C 785.756 1.7156 -4.02351 0
M  V30 8084 C 784.815 2.8309 -4.43561 0
M  V30 8085 O 783.841 2.51701 -5.10525 0
M  V30 8086 N 785.043 4.11972 -4.08973 0
M  V30 8087 H 787.808 0.200801 -2.99027 0
M  V30 8088 H 785.369 -0.0371514 -1.61857 0
M  V30 8089 H 787.361 2.73198 -2.98571 0
M  V30 8090 H 785.931 2.42923 -1.96742 0
M  V30 8091 H 785.151 0.814233 -3.85699 0
M  V30 8092 H 786.439 1.50385 -4.86068 0
M  V30 8093 H 785.837 4.40319 -3.55156 0
M  V30 8094 H 784.394 4.82323 -4.38415 0
M  V30 8095 N 787.827 1.57504 0.0551401 0
M  V30 8096 C 789.055 1.92294 0.76358 0
M  V30 8097 C 789.47 0.815774 1.70266 0
M  V30 8098 O 788.827 -0.209772 1.8129 0
M  V30 8099 C 788.878 3.26914 1.54302 0
M  V30 8100 O 788.599 4.33375 0.641666 0
M  V30 8101 C 790.1 3.75825 2.35097 0
M  V30 8102 H 787.32 0.635229 0.216159 0
M  V30 8103 H 789.864 2.0449 0.0204385 0
M  V30 8104 H 788.019 3.16196 2.23828 0
M  V30 8105 H 788.433 5.10927 1.1855 0
M  V30 8106 H 789.907 4.72603 2.8522 0
M  V30 8107 H 790.384 3.0568 3.15367 0
M  V30 8108 H 790.99 3.89542 1.70696 0
M  V30 8109 N 789.305 -0.326896 1.54172 0
M  V30 8110 C 790.553 -1.06313 1.71878 0
M  V30 8111 C 790.874 -1.88652 0.493498 0
M  V30 8112 O 790.144 -1.89608 -0.492522 0
M  V30 8113 H 788.724 -0.39549 0.633716 0
M  V30 8114 H 791.386 -0.364139 1.91468 0
M  V30 8115 H 790.482 -1.73105 2.59694 0
M  V30 8116 N 790.784 -1.46188 -0.588786 0
M  V30 8117 C 792.03 -1.51407 -1.34921 0
M  V30 8118 C 792.363 -0.162771 -1.93517 0
M  V30 8119 O 791.638 0.825082 -1.76132 0
M  V30 8120 C 791.921 -2.60795 -2.48311 0
M  V30 8121 C 791.774 -4.05435 -1.94789 0
M  V30 8122 C 793.093 -2.66313 -3.50379 0
M  V30 8123 H 790.212 -0.551213 -0.489217 0
M  V30 8124 H 792.854 -1.78095 -0.661993 0
M  V30 8125 H 791.004 -2.3817 -3.06932 0
M  V30 8126 H 792.676 -4.39328 -1.40672 0
M  V30 8127 H 790.919 -4.15202 -1.25659 0
M  V30 8128 H 791.59 -4.77691 -2.76613 0
M  V30 8129 H 794.066 -2.86634 -3.01629 0
M  V30 8130 H 792.942 -3.44681 -4.27184 0
M  V30 8131 H 793.203 -1.72127 -4.07216 0
M  V30 8132 N 792.262 0.832906 -1.33792 0
M  V30 8133 C 793.508 1.59089 -1.25772 0
M  V30 8134 C 793.841 1.93414 0.174601 0
M  V30 8135 O 793.116 1.59195 1.11746 0
M  V30 8136 C 793.399 2.89699 -2.13885 0
M  V30 8137 C 793.252 2.62017 -3.65605 0
M  V30 8138 C 794.571 3.91182 -2.01654 0
M  V30 8139 H 791.69 0.577232 -0.458227 0
M  V30 8140 H 794.332 0.960227 -1.6395 0
M  V30 8141 H 792.482 3.4352 -1.81456 0
M  V30 8142 H 794.154 2.14582 -4.08353 0
M  V30 8143 H 792.397 1.95621 -3.87189 0
M  V30 8144 H 793.068 3.55112 -4.2261 0
M  V30 8145 H 795.544 3.46684 -2.30107 0
M  V30 8146 H 794.42 4.80391 -2.65548 0
M  V30 8147 H 794.681 4.30861 -0.990536 0
M  V30 8148 N 793.74 1.17359 1.05189 0
M  V30 8149 C 794.703 0.892604 2.11105 0
M  V30 8150 C 795.703 -0.117236 1.60372 0
M  V30 8151 O 796.893 0.114936 1.7382 0
M  V30 8152 C 794.025 0.337032 3.3923 0
M  V30 8153 H 795.218 1.83169 2.37464 0
M  V30 8154 H 792.771 0.984051 1.21434 0
M  V30 8155 H 793.506 -0.609198 3.18527 0
M  V30 8156 H 793.291 1.06484 3.77364 0
M  V30 8157 H 794.781 0.158763 4.17298 0
M  V30 8158 N 795.218 -1.23913 0.973828 0
M  V30 8159 C 796.495 -1.87539 0.555729 0
M  V30 8160 C 796.875 -1.87641 -0.967162 0
M  V30 8161 O 796.223 -1.35335 -1.84111 0
M  V30 8162 C 796.433 -3.29359 1.15427 0
M  V30 8163 C 797.781 -4.06 1.24294 0
M  V30 8164 O 798.805 -3.38554 1.10723 0
M  V30 8165 O 797.664 -5.26689 1.45813 0
M  V30 8166 H 794.758 -0.805769 0.186188 0
M  V30 8167 H 797.304 -1.31838 1.06849 0
M  V30 8168 H 796.076 -3.23817 2.19678 0
M  V30 8169 H 795.699 -3.92642 0.625925 0
M  V30 8170 N 796.696 -0.74468 -1.38897 0
M  V30 8171 C 797.973 -0.222773 -1.94327 0
M  V30 8172 C 798.353 1.27731 -1.68071 0
M  V30 8173 O 797.701 2.04754 -1.01429 0
M  V30 8174 C 797.911 -0.566836 -3.44366 0
M  V30 8175 C 799.259 -0.521531 -4.21385 0
M  V30 8176 O 800.283 -0.504599 -3.52608 0
M  V30 8177 O 799.142 -0.524595 -5.43976 0
M  V30 8178 H 796.236 -0.0439259 -0.825833 0
M  V30 8179 H 798.782 -0.824197 -1.48341 0
M  V30 8180 H 797.554 -1.60321 -3.56949 0
M  V30 8181 H 797.177 0.0630577 -3.9755 0
M  V30 8182 N 798.174 1.49689 -0.493057 0
M  V30 8183 C 799.585 1.8665 -0.0433032 0
M  V30 8184 C 799.936 1.40607 1.36836 0
M  V30 8185 O 799.061 0.780503 2.01834 0
M  V30 8186 C 799.656 3.38724 -0.0718069 0
M  V30 8187 C 798.215 3.75015 0.32257 0
M  V30 8188 C 797.362 2.7366 -0.4478 0
M  V30 8189 H 800.313 1.42119 -0.706246 0
M  V30 8190 H 800.334 3.73522 0.725347 0
M  V30 8191 H 799.846 3.72204 -1.09935 0
M  V30 8192 H 797.947 3.47142 1.35364 0
M  V30 8193 H 798.06 4.79099 0.00864259 0
M  V30 8194 H 796.424 2.54498 0.101354 0
M  V30 8195 H 797.207 3.09985 -1.47527 0
M  V30 8196 N 799.652 0.226554 1.55963 0
M  V30 8197 C 800.882 -0.407915 2.02533 0
M  V30 8198 C 801.29 -1.53539 1.10554 0
M  V30 8199 O 800.633 -1.8338 0.108409 0
M  V30 8200 C 800.695 -0.996081 3.45425 0
M  V30 8201 C 800.359 -0.00341651 4.57 0
M  V30 8202 C 801.356 0.798782 5.13727 0
M  V30 8203 C 799.041 0.116786 5.02164 0
M  V30 8204 C 801.035 1.70784 6.14094 0
M  V30 8205 C 798.722 1.02937 6.02368 0
M  V30 8206 C 799.72 1.82344 6.5821 0
M  V30 8207 O 799.408 2.72067 7.56462 0
M  V30 8208 H 799.14 -0.103524 0.668026 0
M  V30 8209 H 801.694 0.341937 2.02534 0
M  V30 8210 H 799.924 -1.79512 3.42509 0
M  V30 8211 H 801.613 -1.53848 3.75614 0
M  V30 8212 H 802.379 0.716393 4.7968 0
M  V30 8213 H 798.258 -0.491172 4.58376 0
M  V30 8214 H 801.802 2.32807 6.57607 0
M  V30 8215 H 797.699 1.11276 6.35836 0
M  V30 8216 H 798.467 2.66199 7.74003 0
M  V30 8217 N 801.13 -1.57531 -0.0467866 0
M  V30 8218 C 802.379 -1.87632 -0.740069 0
M  V30 8219 C 802.692 -0.822691 -1.77457 0
M  V30 8220 O 803.898 -1.01235 -2.5192 0
M  V30 8221 C 802.354 -3.32917 -1.36727 0
M  V30 8222 C 801.962 -4.46469 -0.370035 0
M  V30 8223 C 803.706 -3.72189 -2.04146 0
M  V30 8224 C 801.613 -5.82806 -1.00457 0
M  V30 8225 H 800.543 -0.70002 -0.280158 0
M  V30 8226 H 803.194 -1.83499 0.00607151 0
M  V30 8227 H 801.576 -3.31739 -2.16252 0
M  V30 8228 H 802.75 -4.59085 0.397217 0
M  V30 8229 H 801.065 -4.15914 0.201079 0
M  V30 8230 H 803.662 -4.71357 -2.52441 0
M  V30 8231 H 804.005 -3.03268 -2.85192 0
M  V30 8232 H 804.538 -3.75465 -1.3142 0
M  V30 8233 H 801.277 -6.55083 -0.233907 0
M  V30 8234 H 800.797 -5.73944 -1.74209 0
M  V30 8235 H 802.476 -6.28961 -1.51713 0
M  V30 8236 N 802.608 0.318715 -1.54344 0
M  V30 8237 C 803.856 1.054 -1.72439 0
M  V30 8238 C 804.177 1.88388 -0.503495 0
M  V30 8239 O 803.447 1.89866 0.48246 0
M  V30 8240 H 802.027 0.392124 -0.635805 0
M  V30 8241 H 804.689 0.35398 -1.91659 0
M  V30 8242 H 803.785 1.71726 -2.60608 0
M  V30 8243 N 804.086 1.46499 0.581025 0
M  V30 8244 C 805.033 1.5719 1.68997 0
M  V30 8245 C 806.003 0.416114 1.60803 0
M  V30 8246 O 807.188 0.633086 1.79991 0
M  V30 8247 C 804.328 1.56973 3.07333 0
M  V30 8248 C 803.441 2.83298 3.26139 0
M  V30 8249 C 802.576 2.74574 4.54734 0
M  V30 8250 C 801.615 3.9583 4.66889 0
M  V30 8251 N 800.752 3.85482 5.86811 0
M  V30 8252 H 805.592 2.51914 1.59196 0
M  V30 8253 H 803.129 1.24975 0.775857 0
M  V30 8254 H 805.087 1.54832 3.87405 0
M  V30 8255 H 803.717 0.657803 3.16027 0
M  V30 8256 H 802.769 2.95411 2.3966 0
M  V30 8257 H 804.081 3.7316 3.30988 0
M  V30 8258 H 803.235 2.70548 5.43036 0
M  V30 8259 H 801.974 1.82354 4.52325 0
M  V30 8260 H 800.979 4.00186 3.77003 0
M  V30 8261 H 802.204 4.89148 4.71075 0
M  V30 8262 H 800.15 2.96051 5.85397 0
M  V30 8263 H 800.067 4.69002 5.92936 0
M  V30 8264 H 801.335 3.85434 6.7754 0
M  V30 8265 N 805.565 -0.825799 1.34232 0
M  V30 8266 C 806.79 -1.61883 1.29648 0
M  V30 8267 C 807.215 -1.87669 -0.127295 0
M  V30 8268 O 806.573 -1.45016 -1.08813 0
M  V30 8269 C 806.621 -2.93846 2.09014 0
M  V30 8270 O 805.725 -3.85778 1.4577 0
M  V30 8271 H 805.066 -0.492454 0.445405 0
M  V30 8272 H 807.596 -1.02641 1.76992 0
M  V30 8273 H 807.606 -3.43435 2.20264 0
M  V30 8274 H 806.281 -2.74401 3.12533 0
M  V30 8275 H 804.858 -3.4429 1.43245 0
M  V30 8276 N 807.043 -1.17915 -1.04565 0
M  V30 8277 C 808.29 -0.971424 -1.77678 0
M  V30 8278 C 808.618 0.499401 -1.87979 0
M  V30 8279 O 807.873 1.38695 -1.38066 0
M  V30 8280 C 808.172 -1.56528 -3.213 0
M  V30 8281 C 807.838 -3.06138 -3.31044 0
M  V30 8282 C 806.5 -3.46974 -3.33411 0
M  V30 8283 C 808.852 -4.02151 -3.31548 0
M  V30 8284 C 806.18 -4.82406 -3.33918 0
M  V30 8285 C 808.532 -5.37492 -3.33595 0
M  V30 8286 C 807.196 -5.77782 -3.34251 0
M  V30 8287 H 806.466 -0.355469 -0.650171 0
M  V30 8288 H 809.113 -1.46902 -1.22849 0
M  V30 8289 H 807.418 -0.98955 -3.79098 0
M  V30 8290 H 809.115 -1.38003 -3.76505 0
M  V30 8291 H 805.705 -2.73589 -3.29919 0
M  V30 8292 H 809.889 -3.71656 -3.28916 0
M  V30 8293 H 805.145 -5.12927 -3.3274 0
M  V30 8294 H 809.319 -6.1166 -3.32934 0
M  V30 8295 H 806.946 -6.82702 -3.34397 0
M  V30 8296 N 808.521 1.23394 -0.980386 0
M  V30 8297 C 809.769 1.91431 -0.647978 0
M  V30 8298 C 810.09 1.76871 0.821066 0
M  V30 8299 O 809.36 1.14808 1.58732 0
M  V30 8300 H 807.94 0.708516 -0.236673 0
M  V30 8301 H 810.602 1.50019 -1.2442 0
M  V30 8302 H 809.698 2.98854 -0.899592 0
M  V30 8303 N 809.999 0.752036 1.385 0
M  V30 8304 C 811.276 0.233075 1.94206 0
M  V30 8305 C 811.656 -1.26838 1.68746 0
M  V30 8306 O 811.004 -2.04214 1.02513 0
M  V30 8307 C 811.214 0.58509 3.44061 0
M  V30 8308 C 812.562 0.543871 4.21102 0
M  V30 8309 O 813.586 0.523291 3.52335 0
M  V30 8310 O 812.445 0.553436 5.4369 0
M  V30 8311 H 809.539 0.0483049 0.825588 0
M  V30 8312 H 812.085 0.832053 1.47902 0
M  V30 8313 H 810.857 1.62212 3.56094 0
M  V30 8314 H 810.48 -0.0419738 3.97578 0
M  V30 8315 N 811.477 -1.49425 0.500989 0
M  V30 8316 C 812.723 -2.02753 -0.0436 0
M  V30 8317 C 813.056 -1.37991 -1.36646 0
M  V30 8318 O 812.331 -0.515597 -1.87542 0
M  V30 8319 C 812.614 -3.59565 -0.19616 0
M  V30 8320 C 812.467 -4.34855 1.14982 0
M  V30 8321 C 813.786 -4.30014 -0.936795 0
M  V30 8322 H 810.905 -0.73686 -0.0143711 0
M  V30 8323 H 813.547 -1.78448 0.652397 0
M  V30 8324 H 811.697 -3.80405 -0.788959 0
M  V30 8325 H 813.369 -4.25512 1.7815 0
M  V30 8326 H 811.612 -3.97414 1.73911 0
M  V30 8327 H 812.283 -5.42933 0.996385 0
M  V30 8328 H 814.759 -4.1383 -0.434036 0
M  V30 8329 H 813.635 -5.39483 -1.01238 0
M  V30 8330 H 813.896 -3.95257 -1.9805 0
M  V30 8331 N 812.955 -0.234822 -1.55841 0
M  V30 8332 C 813.885 0.664217 -2.23854 0
M  V30 8333 C 814.866 1.19076 -1.2147 0
M  V30 8334 O 816.051 1.23232 -1.50091 0
M  V30 8335 C 813.181 1.86666 -2.9287 0
M  V30 8336 C 812.135 1.47341 -4.01839 0
M  V30 8337 C 811.461 2.75571 -4.58219 0
M  V30 8338 C 812.761 0.653479 -5.18196 0
M  V30 8339 H 814.455 0.0971213 -2.99242 0
M  V30 8340 H 812.001 0.0452724 -1.43929 0
M  V30 8341 H 813.954 2.50116 -3.39146 0
M  V30 8342 H 812.678 2.45894 -2.1495 0
M  V30 8343 H 811.337 0.862314 -3.56314 0
M  V30 8344 H 810.985 3.32971 -3.77014 0
M  V30 8345 H 810.685 2.49987 -5.31771 0
M  V30 8346 H 812.209 3.39939 -5.07221 0
M  V30 8347 H 813.623 1.19198 -5.60771 0
M  V30 8348 H 812.02 0.494188 -5.98062 0
M  V30 8349 H 813.09 -0.337004 -4.83728 0
M  V30 8350 N 814.433 1.57553 0.0384317 0
M  V30 8351 C 815.365 2.02726 1.06934 0
M  V30 8352 C 816.378 0.938502 1.33026 0
M  V30 8353 O 817.567 1.21595 1.30678 0
M  V30 8354 C 814.667 2.37958 2.41308 0
M  V30 8355 C 813.84 3.69098 2.34703 0
M  V30 8356 C 812.899 3.91623 3.51451 0
M  V30 8357 O 811.925 4.628 3.31368 0
M  V30 8358 N 813.127 3.36538 4.72993 0
M  V30 8359 H 815.892 2.91781 0.684381 0
M  V30 8360 H 813.453 1.60307 0.226542 0
M  V30 8361 H 815.445 2.50172 3.18113 0
M  V30 8362 H 814.015 1.54621 2.71682 0
M  V30 8363 H 813.235 3.67325 1.43059 0
M  V30 8364 H 814.523 4.55144 2.27424 0
M  V30 8365 H 813.921 2.78828 4.92211 0
M  V30 8366 H 812.478 3.54148 5.47195 0
M  V30 8367 N 815.911 -0.310526 1.54511 0
M  V30 8368 C 816.843 -1.40405 1.8116 0
M  V30 8369 C 817.856 -1.47261 0.694114 0
M  V30 8370 O 819.045 -1.49751 0.971441 0
M  V30 8371 C 816.145 -2.78849 1.92604 0
M  V30 8372 C 815.318 -2.95041 3.22908 0
M  V30 8373 C 814.377 -4.13925 3.24889 0
M  V30 8374 O 813.403 -4.06463 3.98467 0
M  V30 8375 N 814.605 -5.24099 2.496 0
M  V30 8376 H 817.37 -1.17903 2.75534 0
M  V30 8377 H 814.931 -0.500564 1.53967 0
M  V30 8378 H 816.923 -3.5661 1.91342 0
M  V30 8379 H 815.493 -2.94342 1.05268 0
M  V30 8380 H 814.713 -2.04472 3.37023 0
M  V30 8381 H 816.001 -3.02763 4.08916 0
M  V30 8382 H 815.399 -5.33039 1.89435 0
M  V30 8383 H 813.956 -6.0023 2.54102 0
M  V30 8384 N 817.389 -1.46805 -0.573248 0
M  V30 8385 C 818.8 -1.46655 -1.15539 0
M  V30 8386 C 819.151 -0.2125 -1.95046 0
M  V30 8387 O 818.276 0.683759 -2.05314 0
M  V30 8388 C 818.871 -2.65711 -2.10198 0
M  V30 8389 C 817.43 -2.68572 -2.63716 0
M  V30 8390 C 816.577 -2.39498 -1.39772 0
M  V30 8391 H 819.528 -1.54547 -0.36068 0
M  V30 8392 H 819.549 -2.41768 -2.93817 0
M  V30 8393 H 819.061 -3.56967 -1.52303 0
M  V30 8394 H 817.162 -1.81414 -3.25453 0
M  V30 8395 H 817.275 -3.68809 -3.05805 0
M  V30 8396 H 815.639 -1.89749 -1.69904 0
M  V30 8397 H 816.422 -3.32942 -0.836943 0
M  V30 8398 N 818.867 0.818669 -1.34668 0
M  V30 8399 C 820.283 1.11243 -1.14443 0
M  V30 8400 C 820.483 2.01435 0.0512212 0
M  V30 8401 O 819.539 2.41854 0.725471 0
M  V30 8402 C 820.852 1.75504 -2.4417 0
M  V30 8403 C 822.4 1.8798 -2.50265 0
M  V30 8404 C 822.875 2.55657 -3.80004 0
M  V30 8405 N 824.366 2.63153 -3.81189 0
M  V30 8406 C 825.101 3.16258 -4.78298 0
M  V30 8407 N 824.597 3.69893 -5.85791 0
M  V30 8408 N 826.39 3.14698 -4.65748 0
M  V30 8409 H 818.541 0.218848 -2.1127 0
M  V30 8410 H 820.804 0.159655 -0.934459 0
M  V30 8411 H 820.51 1.16697 -3.31775 0
M  V30 8412 H 820.384 2.75329 -2.57825 0
M  V30 8413 H 822.771 2.45934 -1.63096 0
M  V30 8414 H 822.852 0.870447 -2.40535 0
M  V30 8415 H 822.496 1.98356 -4.67565 0
M  V30 8416 H 822.426 3.57105 -3.87019 0
M  V30 8417 H 824.917 2.2514 -3.03513 0
M  V30 8418 H 825.23 4.08678 -6.55898 0
M  V30 8419 H 823.575 3.68125 -5.89499 0
M  V30 8420 H 826.766 2.72066 -3.80917 0
M  V30 8421 H 826.939 3.5578 -5.41594 0
M  V30 8422 N 820.346 1.18468 1.03938 0
M  V30 8423 C 821.256 0.927889 2.1547 0
M  V30 8424 C 822.272 -0.108447 1.73662 0
M  V30 8425 O 823.448 0.0737636 2.01265 0
M  V30 8426 C 820.513 0.458494 3.43655 0
M  V30 8427 C 819.574 1.56295 3.99838 0
M  V30 8428 C 818.807 1.11586 5.21904 0
M  V30 8429 O 819.03 -0.0249057 5.70395 0
M  V30 8430 O 817.964 1.91412 5.70653 0
M  V30 8431 H 821.79 1.86116 2.39989 0
M  V30 8432 H 819.375 0.966607 1.13917 0
M  V30 8433 H 821.257 0.204861 4.20902 0
M  V30 8434 H 819.932 -0.446464 3.20606 0
M  V30 8435 H 818.839 1.87061 3.23974 0
M  V30 8436 H 820.172 2.44408 4.2723 0
M  V30 8437 N 821.824 -1.22873 0.986916 0
M  V30 8438 C 823.049 -1.96028 0.677341 0
M  V30 8439 C 823.474 -1.72487 -0.750319 0
M  V30 8440 O 822.832 -1.00036 -1.51203 0
M  V30 8441 C 822.88 -3.46983 0.981593 0
M  V30 8442 O 821.984 -4.12328 0.0770729 0
M  V30 8443 H 821.325 -0.613458 0.254096 0
M  V30 8444 H 823.855 -1.56132 1.32227 0
M  V30 8445 H 823.865 -3.9747 0.920969 0
M  V30 8446 H 822.54 -3.63442 2.02194 0
M  V30 8447 H 821.117 -3.72402 0.192666 0
M  V30 8448 N 823.302 -0.75937 -1.38099 0
M  V30 8449 C 824.532 -0.328634 -2.0397 0
M  V30 8450 C 824.94 1.04989 -1.57398 0
M  V30 8451 O 824.283 1.67918 -0.744932 0
M  V30 8452 C 824.345 -0.279216 -3.58414 0
M  V30 8453 C 824.009 -1.60025 -4.28067 0
M  V30 8454 C 825.006 -2.55048 -4.53041 0
M  V30 8455 C 822.691 -1.87128 -4.66142 0
M  V30 8456 C 824.685 -3.7539 -5.15132 0
M  V30 8457 C 822.372 -3.07742 -5.27956 0
M  V30 8458 C 823.37 -4.01694 -5.52387 0
M  V30 8459 O 823.058 -5.20186 -6.12912 0
M  V30 8460 H 822.79 -0.137443 -0.66188 0
M  V30 8461 H 825.344 -1.03082 -1.77661 0
M  V30 8462 H 823.574 0.479254 -3.83719 0
M  V30 8463 H 825.263 0.122781 -4.05714 0
M  V30 8464 H 826.029 -2.35387 -4.24049 0
M  V30 8465 H 821.908 -1.14833 -4.46469 0
M  V30 8466 H 825.452 -4.48737 -5.34117 0
M  V30 8467 H 821.349 -3.27294 -5.56371 0
M  V30 8468 H 822.117 -5.20846 -6.31397 0
M  V30 8469 N 824.78 1.49157 -0.508906 0
M  V30 8470 C 826.196 1.58741 -0.165372 0
M  V30 8471 C 826.396 1.5133 1.33047 0
M  V30 8472 O 825.452 1.39135 2.10707 0
M  V30 8473 C 826.765 2.91217 -0.749194 0
M  V30 8474 C 828.313 3.047 -0.716015 0
M  V30 8475 C 828.788 4.39807 -1.27804 0
M  V30 8476 N 830.279 4.46319 -1.23908 0
M  V30 8477 C 831.014 5.49325 -1.64406 0
M  V30 8478 N 830.51 6.59395 -2.12534 0
M  V30 8479 N 832.303 5.40084 -1.55773 0
M  V30 8480 H 824.454 1.52217 -1.48134 0
M  V30 8481 H 826.717 0.721514 -0.614915 0
M  V30 8482 H 826.423 3.02233 -1.79856 0
M  V30 8483 H 826.297 3.76592 -0.214144 0
M  V30 8484 H 828.684 2.9331 0.324535 0
M  V30 8485 H 828.765 2.2099 -1.2883 0
M  V30 8486 H 828.409 4.5195 -2.31741 0
M  V30 8487 H 828.339 5.2217 -0.681623 0
M  V30 8488 H 830.83 3.67354 -0.886537 0
M  V30 8489 H 831.143 7.34102 -2.41485 0
M  V30 8490 H 829.488 6.60414 -2.16513 0
M  V30 8491 H 832.679 4.52986 -1.17987 0
M  V30 8492 H 832.852 6.20233 -1.87657 0
M  V30 8493 N 826.258 0.243083 1.55714 0
M  V30 8494 C 827.507 -0.383188 1.98027 0
M  V30 8495 C 827.82 -1.59347 1.13436 0
M  V30 8496 O 829.026 -2.29065 1.45745 0
M  V30 8497 C 827.482 -0.733135 3.52354 0
M  V30 8498 C 827.09 0.455539 4.45678 0
M  V30 8499 C 828.834 -1.32381 4.03331 0
M  V30 8500 C 826.741 0.0819591 5.91343 0
M  V30 8501 H 825.671 -0.146944 0.739543 0
M  V30 8502 H 828.322 0.342697 1.80272 0
M  V30 8503 H 826.704 -1.51704 3.65789 0
M  V30 8504 H 827.878 1.23291 4.44 0
M  V30 8505 H 826.193 0.960886 4.05162 0
M  V30 8506 H 828.79 -1.61658 5.09677 0
M  V30 8507 H 829.133 -2.24698 3.50452 0
M  V30 8508 H 829.666 -0.602885 3.93205 0
M  V30 8509 H 826.405 0.972171 6.48251 0
M  V30 8510 H 825.925 -0.659291 5.96166 0
M  V30 8511 H 827.604 -0.3372 6.46121 0
M  V30 8512 N 827.736 -1.57571 -0.0300757 0
M  V30 8513 C 828.984 -1.88852 -0.719666 0
M  V30 8514 C 829.305 -0.840645 -1.75949 0
M  V30 8515 O 828.575 0.125854 -1.95495 0
M  V30 8516 H 827.155 -0.696965 -0.268792 0
M  V30 8517 H 829.817 -1.949 0.00373285 0
M  V30 8518 H 828.913 -2.87695 -1.20987 0
M  V30 8519 N 829.214 0.302327 -1.54673 0
M  V30 8520 C 830.491 1.05721 -1.64567 0
M  V30 8521 C 830.871 2.0526 -0.493108 0
M  V30 8522 O 830.219 2.22729 0.510315 0
M  V30 8523 C 830.429 1.74025 -3.02517 0
M  V30 8524 C 831.777 2.26271 -3.59286 0
M  V30 8525 O 832.801 1.8406 -3.0496 0
M  V30 8526 O 831.66 3.0361 -4.54404 0
M  V30 8527 H 828.754 0.488577 -0.667249 0
M  V30 8528 H 831.3 0.300521 -1.67018 0
M  V30 8529 H 830.072 1.0174 -3.77842 0
M  V30 8530 H 829.695 2.56454 -3.03838 0
M  V30 8531 N 830.692 1.47107 0.565454 0
M  V30 8532 C 831.639 1.58974 1.6732 0
M  V30 8533 C 832.609 0.433146 1.60353 0
M  V30 8534 O 833.794 0.652141 1.79309 0
M  V30 8535 C 830.934 1.60224 3.05651 0
M  V30 8536 C 830.047 2.86741 3.23116 0
M  V30 8537 C 829.182 2.79381 4.51796 0
M  V30 8538 C 828.221 4.0076 4.62664 0
M  V30 8539 N 827.358 3.91685 5.8269 0
M  V30 8540 H 832.198 2.53588 1.56515 0
M  V30 8541 H 829.735 1.25791 0.762558 0
M  V30 8542 H 831.693 1.58933 3.85741 0
M  V30 8543 H 830.323 0.691285 3.15311 0
M  V30 8544 H 829.375 2.97936 2.36513 0
M  V30 8545 H 830.687 3.7665 3.27011 0
M  V30 8546 H 829.841 2.76293 5.40136 0
M  V30 8547 H 828.58 1.87142 4.50366 0
M  V30 8548 H 827.585 4.04162 3.72738 0
M  V30 8549 H 828.81 4.94117 4.6586 0
M  V30 8550 H 826.756 3.02243 5.82224 0
M  V30 8551 H 826.673 4.75264 5.87929 0
M  V30 8552 H 827.941 3.92599 6.73414 0
M  V30 8553 N 832.17 -0.811516 1.35101 0
M  V30 8554 C 833.416 -1.57068 1.28287 0
M  V30 8555 C 833.749 -1.93667 -0.143808 0
M  V30 8556 O 833.024 -1.60953 -1.09199 0
M  V30 8557 C 833.307 -2.86259 2.18466 0
M  V30 8558 C 833.16 -2.56168 3.69727 0
M  V30 8559 C 834.479 -3.87924 2.07852 0
M  V30 8560 H 831.598 -0.569869 0.467353 0
M  V30 8561 H 834.24 -0.934023 1.65457 0
M  V30 8562 H 832.39 -3.4059 1.86898 0
M  V30 8563 H 834.062 -2.08059 4.11715 0
M  V30 8564 H 832.305 -1.89436 3.90252 0
M  V30 8565 H 832.976 -3.48344 4.28206 0
M  V30 8566 H 835.452 -3.4298 2.35593 0
M  V30 8567 H 834.328 -4.76106 2.73157 0
M  V30 8568 H 834.589 -4.2923 1.05896 0
M  V30 8569 N 833.648 -1.19017 -1.03309 0
M  V30 8570 C 834.876 -1.01534 -1.80273 0
M  V30 8571 C 835.291 0.43605 -1.83696 0
M  V30 8572 O 834.648 1.30288 -1.27794 0
M  V30 8573 C 834.699 -1.5722 -3.25522 0
M  V30 8574 O 834.42 -2.96677 -3.22358 0
M  V30 8575 C 835.921 -1.4446 -4.19102 0
M  V30 8576 H 833.141 -0.358094 -0.567459 0
M  V30 8577 H 835.685 -1.57738 -1.3015 0
M  V30 8578 H 833.84 -1.05174 -3.7285 0
M  V30 8579 H 834.254 -3.22795 -4.13405 0
M  V30 8580 H 835.728 -1.88209 -5.18923 0
M  V30 8581 H 836.205 -0.394471 -4.37425 0
M  V30 8582 H 836.811 -1.95616 -3.77643 0
M  V30 8583 N 835.127 1.22348 -0.993418 0
M  V30 8584 C 836.373 1.91393 -0.67056 0
M  V30 8585 C 836.706 1.77163 0.795428 0
M  V30 8586 O 835.981 1.14084 1.57528 0
M  V30 8587 C 836.264 3.43589 -1.0779 0
M  V30 8588 C 836.117 3.66867 -2.60248 0
M  V30 8589 C 837.436 4.35545 -0.631527 0
M  V30 8590 H 834.555 0.695057 -0.24508 0
M  V30 8591 H 837.197 1.44213 -1.23703 0
M  V30 8592 H 835.347 3.83903 -0.595902 0
M  V30 8593 H 837.019 3.35954 -3.16121 0
M  V30 8594 H 835.262 3.1113 -3.02293 0
M  V30 8595 H 835.933 4.73457 -2.838 0
M  V30 8596 H 838.409 4.0275 -1.04554 0
M  V30 8597 H 837.285 5.40707 -0.944831 0
M  V30 8598 H 837.546 4.39618 0.467779 0
M  V30 8599 N 836.605 0.766683 1.37694 0
M  V30 8600 C 837.568 0.155849 2.2867 0
M  V30 8601 C 838.568 -0.633509 1.47795 0
M  V30 8602 O 839.758 -0.457844 1.68076 0
M  V30 8603 C 836.89 -0.786965 3.31692 0
M  V30 8604 H 838.083 0.957748 2.84196 0
M  V30 8605 H 835.636 0.534554 1.46875 0
M  V30 8606 H 836.371 -1.61406 2.8128 0
M  V30 8607 H 836.156 -0.223182 3.91464 0
M  V30 8608 H 837.646 -1.20994 3.99688 0
M  V30 8609 N 838.083 -1.48885 0.516809 0
M  V30 8610 C 839.33 -2.02488 -0.0220602 0
M  V30 8611 C 839.658 -1.39513 -1.35523 0
M  V30 8612 O 838.913 -0.52558 -1.8851 0
M  V30 8613 C 839.212 -3.56801 -0.206798 0
M  V30 8614 C 838.878 -4.38496 1.05035 0
M  V30 8615 C 837.54 -4.60538 1.39492 0
M  V30 8616 C 839.892 -4.85909 1.88525 0
M  V30 8617 C 837.22 -5.2724 2.57361 0
M  V30 8618 C 839.572 -5.53909 3.05561 0
M  V30 8619 C 838.236 -5.74193 3.4038 0
M  V30 8620 H 837.506 -0.740956 -0.00807238 0
M  V30 8621 H 840.153 -1.79014 0.680168 0
M  V30 8622 H 838.458 -3.79042 -0.991687 0
M  V30 8623 H 840.155 -3.95885 -0.638447 0
M  V30 8624 H 836.745 -4.2159 0.771984 0
M  V30 8625 H 840.929 -4.68694 1.63218 0
M  V30 8626 H 836.185 -5.41145 2.84556 0
M  V30 8627 H 840.359 -5.89619 3.7057 0
M  V30 8628 H 837.986 -6.25652 4.31814 0
M  V30 8629 N 839.561 -0.251338 -1.55583 0
M  V30 8630 C 840.807 0.37272 -1.99346 0
M  V30 8631 C 841.14 1.57266 -1.13934 0
M  V30 8632 O 840.415 1.9343 -0.20377 0
M  V30 8633 C 840.698 0.778245 -3.5159 0
M  V30 8634 C 840.551 -0.427394 -4.47765 0
M  V30 8635 C 841.87 1.62358 -4.09057 0
M  V30 8636 H 838.989 0.134002 -0.724715 0
M  V30 8637 H 841.631 -0.353536 -1.86682 0
M  V30 8638 H 839.781 1.39704 -3.62512 0
M  V30 8639 H 841.453 -1.06586 -4.48818 0
M  V30 8640 H 839.696 -1.06972 -4.20404 0
M  V30 8641 H 840.367 -0.10025 -5.51909 0
M  V30 8642 H 842.843 1.1012 -4.01264 0
M  V30 8643 H 841.719 1.87617 -5.1584 0
M  V30 8644 H 841.98 2.59688 -3.57791 0
M  V30 8645 N 841.039 1.57585 0.0217189 0
M  V30 8646 C 842.267 1.93871 0.722619 0
M  V30 8647 C 842.682 0.851706 1.68498 0
M  V30 8648 O 842.039 -0.17127 1.81695 0
M  V30 8649 C 842.09 3.30114 1.47333 0
M  V30 8650 O 841.811 4.34639 0.549597 0
M  V30 8651 C 843.312 3.80727 2.27072 0
M  V30 8652 H 840.532 0.639671 0.202637 0
M  V30 8653 H 843.076 2.04487 -0.0229414 0
M  V30 8654 H 841.231 3.20872 2.17071 0
M  V30 8655 H 841.645 5.13326 1.07686 0
M  V30 8656 H 843.119 4.78547 2.75131 0
M  V30 8657 H 843.596 3.12301 3.08812 0
M  V30 8658 H 844.202 3.93075 1.62395 0
M  V30 8659 N 842.517 -0.29412 1.54831 0
M  V30 8660 C 843.765 -1.02643 1.74094 0
M  V30 8661 C 844.086 -1.87563 0.533402 0
M  V30 8662 O 843.356 -1.9061 -0.452192 0
M  V30 8663 H 841.936 -0.381959 0.641963 0
M  V30 8664 H 844.598 -0.323444 1.92197 0
M  V30 8665 H 843.694 -1.67558 2.63307 0
M  V30 8666 N 843.995 -1.47404 -0.557645 0
M  V30 8667 C 844.945 -1.56267 -1.66026 0
M  V30 8668 C 845.929 -0.42161 -1.55278 0
M  V30 8669 O 847.121 -0.671505 -1.63768 0
M  V30 8670 C 844.25 -1.57958 -3.04802 0
M  V30 8671 C 843.336 -2.77447 -3.20755 0
M  V30 8672 N 843.727 -4.02148 -3.06775 0
M  V30 8673 C 842.025 -2.74199 -3.51754 0
M  V30 8674 C 842.726 -4.82168 -3.25406 0
M  V30 8675 N 841.702 -4.14481 -3.5172 0
M  V30 8676 H 845.504 -2.50454 -1.53785 0
M  V30 8677 H 843.018 -1.43392 -0.762388 0
M  V30 8678 H 845.015 -1.62397 -3.8397 0
M  V30 8679 H 843.675 -0.648667 -3.18155 0
M  V30 8680 H 844.686 -4.33014 -2.84111 0
M  V30 8681 H 841.363 -1.90243 -3.71637 0
M  V30 8682 H 842.753 -5.91037 -3.19569 0
M  V30 8683 N 845.473 0.80434 -1.35529 0
M  V30 8684 C 846.884 1.37849 -1.25915 0
M  V30 8685 C 847.235 1.95905 0.107495 0
M  V30 8686 O 846.36 1.91462 1.00852 0
M  V30 8687 C 846.955 2.50608 -2.27994 0
M  V30 8688 C 845.514 3.03879 -2.22114 0
M  V30 8689 C 844.661 1.76856 -2.13582 0
M  V30 8690 H 847.612 0.607192 -1.46625 0
M  V30 8691 H 847.633 3.29221 -1.90772 0
M  V30 8692 H 847.145 2.08323 -3.27449 0
M  V30 8693 H 845.246 3.50622 -1.26077 0
M  V30 8694 H 845.359 3.61707 -3.14173 0
M  V30 8695 H 843.723 1.98498 -1.59595 0
M  V30 8696 H 844.506 1.36721 -3.14901 0
M  V30 8697 N 846.951 1.19563 1.02676 0
M  V30 8698 C 847.898 0.935291 2.11 0
M  V30 8699 C 848.868 -0.130685 1.65585 0
M  V30 8700 O 850.053 0.0119062 1.90796 0
M  V30 8701 C 847.193 0.482384 3.41712 0
M  V30 8702 C 846.306 1.61537 4.00662 0
M  V30 8703 C 845.441 1.11378 5.19392 0
M  V30 8704 C 844.48 2.22052 5.70403 0
M  V30 8705 N 843.617 1.73185 6.80405 0
M  V30 8706 H 848.457 1.86275 2.32606 0
M  V30 8707 H 845.994 0.928656 1.14081 0
M  V30 8708 H 847.952 0.20118 4.16715 0
M  V30 8709 H 846.582 -0.408086 3.2021 0
M  V30 8710 H 845.634 2.01173 3.22852 0
M  V30 8711 H 846.946 2.44912 4.34534 0
M  V30 8712 H 846.1 0.787935 6.01562 0
M  V30 8713 H 844.839 0.249789 4.8706 0
M  V30 8714 H 843.844 2.55465 4.86845 0
M  V30 8715 H 845.069 3.08911 6.04774 0
M  V30 8716 H 843.015 0.890973 6.49921 0
M  V30 8717 H 842.932 2.50148 7.13416 0
M  V30 8718 H 844.2 1.4357 7.66164 0
M  V30 8719 N 848.429 -1.21819 0.999893 0
M  V30 8720 C 849.377 -2.26027 0.549047 0
M  V30 8721 C 850.371 -1.64516 -0.403826 0
M  V30 8722 O 851.577 -1.77878 -0.275578 0
M  V30 8723 H 847.952 -0.734958 0.159185 0
M  V30 8724 H 849.923 -2.61398 1.43923 0
M  V30 8725 C 848.672 -3.47514 -0.11369 0
M  V30 8726 H 847.995 -3.95112 0.610482 0
M  V30 8727 H 849.435 -4.22179 -0.3925 0
M  V30 8728 C 847.894 -3.08614 -1.35126 0
M  V30 8729 O 848.424 -3.1864 -2.44605 0
M  V30 8730 N 846.63 -2.63327 -1.22911 0
M  V30 8731 H 846.177 -2.55369 -0.338288 0
M  V30 8732 H 846.135 -2.37668 -2.05818 0
M  V30 8733 N 849.908 -0.773975 -1.37286 0
M  V30 8734 C 851.185 -0.263942 -1.93811 0
M  V30 8735 C 851.565 1.24138 -1.70743 0
M  V30 8736 O 850.913 2.02557 -1.05749 0
M  V30 8737 C 851.123 -0.639753 -3.43086 0
M  V30 8738 C 852.471 -0.610796 -4.20184 0
M  V30 8739 O 853.495 -0.579278 -3.51458 0
M  V30 8740 O 852.354 -0.639862 -5.42741 0
M  V30 8741 H 849.448 -0.0614331 -0.824715 0
M  V30 8742 H 851.994 -0.855477 -1.46559 0
M  V30 8743 H 850.766 -1.67856 -3.53469 0
M  V30 8744 H 850.389 -0.0212827 -3.97594 0
M  V30 8745 N 851.386 1.48609 -0.524698 0
M  V30 8746 C 852.316 2.32366 0.229837 0
M  V30 8747 C 853.297 1.41759 0.940129 0
M  V30 8748 O 854.482 1.7065 0.926936 0
M  V30 8749 C 851.612 3.22835 1.28043 0
M  V30 8750 C 850.566 4.22424 0.688603 0
M  V30 8751 C 849.892 5.0199 1.84146 0
M  V30 8752 C 851.192 5.21217 -0.336176 0
M  V30 8753 H 852.886 2.95698 -0.469339 0
M  V30 8754 H 850.432 1.42197 -0.227156 0
M  V30 8755 H 852.385 3.80253 1.8162 0
M  V30 8756 H 851.109 2.57492 2.00912 0
M  V30 8757 H 849.768 3.66185 0.174402 0
M  V30 8758 H 849.416 4.33076 2.5584 0
M  V30 8759 H 849.116 5.69392 1.45142 0
M  V30 8760 H 850.64 5.62259 2.38111 0
M  V30 8761 H 852.054 5.7319 0.112307 0
M  V30 8762 H 850.451 5.96642 -0.643324 0
M  V30 8763 H 851.521 4.68676 -1.24381 0
M  V30 8764 N 852.864 0.259585 1.55447 0
M  V30 8765 C 854.28 -0.094961 1.59317 0
M  V30 8766 C 854.48 -1.55884 1.2768 0
M  V30 8767 O 853.536 -2.30528 1.0302 0
M  V30 8768 C 854.849 0.265669 2.99524 0
M  V30 8769 C 856.397 0.211007 3.12288 0
M  V30 8770 C 856.872 0.545851 4.54736 0
M  V30 8771 N 858.363 0.496823 4.60528 0
M  V30 8772 C 859.098 0.728909 5.68748 0
M  V30 8773 N 858.594 1.02479 6.85179 0
M  V30 8774 N 860.387 0.658756 5.58226 0
M  V30 8775 H 852.538 1.2141 1.7428 0
M  V30 8776 H 854.801 0.489404 0.811904 0
M  V30 8777 H 854.507 1.28316 3.27457 0
M  V30 8778 H 854.381 -0.401089 3.75061 0
M  V30 8779 H 856.768 -0.797172 2.84129 0
M  V30 8780 H 856.849 0.911799 2.38998 0
M  V30 8781 H 856.493 1.55164 4.83618 0
M  V30 8782 H 856.423 -0.17656 5.26304 0
M  V30 8783 H 858.914 0.277376 3.76881 0
M  V30 8784 H 859.227 1.18897 7.63599 0
M  V30 8785 H 857.572 1.0624 6.86832 0
M  V30 8786 H 860.763 0.427553 4.66143 0
M  V30 8787 H 860.936 0.84302 6.42493 0
M  V30 8788 N 854.342 -1.57594 -0.0133615 0
M  V30 8789 C 855.57 -1.94251 -0.712328 0
M  V30 8790 C 855.985 -0.86063 -1.68043 0
M  V30 8791 O 855.342 0.161632 -1.81783 0
M  V30 8792 C 855.393 -3.30891 -1.45581 0
M  V30 8793 O 855.114 -4.34924 -0.526539 0
M  V30 8794 C 856.615 -3.81926 -2.2505 0
M  V30 8795 H 853.835 -0.640737 -0.199241 0
M  V30 8796 H 856.379 -2.04472 0.0337855 0
M  V30 8797 H 854.534 -3.22019 -2.15366 0
M  V30 8798 H 854.948 -5.1389 -1.04962 0
M  V30 8799 H 856.422 -4.79999 -2.72589 0
M  V30 8800 H 856.899 -3.13934 -3.07152 0
M  V30 8801 H 857.505 -3.93931 -1.60308 0
M  V30 8802 N 855.82 0.285905 -1.54985 0
M  V30 8803 C 856.73 1.37534 -1.90057 0
M  V30 8804 C 857.746 1.54707 -0.796348 0
M  V30 8805 O 858.922 1.69082 -1.09423 0
M  V30 8806 C 855.987 2.7167 -2.15398 0
M  V30 8807 C 855.048 2.63354 -3.39033 0
M  V30 8808 C 854.281 3.91093 -3.63155 0
M  V30 8809 O 854.504 4.91169 -2.90015 0
M  V30 8810 O 853.438 3.92075 -4.56685 0
M  V30 8811 H 857.264 1.10791 -2.8277 0
M  V30 8812 H 854.849 0.483303 -1.41367 0
M  V30 8813 H 856.731 3.51006 -2.33179 0
M  V30 8814 H 855.406 2.98226 -1.25868 0
M  V30 8815 H 854.313 1.82438 -3.26599 0
M  V30 8816 H 855.646 2.41749 -4.2874 0
M  V30 8817 N 857.298 1.47698 0.54982 0
M  V30 8818 C 858.245 1.60739 1.65625 0
M  V30 8819 C 859.215 0.450129 1.59884 0
M  V30 8820 O 860.4 0.671123 1.78607 0
M  V30 8821 C 857.54 1.63457 3.03934 0
M  V30 8822 C 856.653 2.90152 3.20056 0
M  V30 8823 C 855.788 2.84157 4.48807 0
M  V30 8824 C 854.827 4.05644 4.58387 0
M  V30 8825 N 853.964 3.97843 5.78503 0
M  V30 8826 H 858.804 2.55234 1.53817 0
M  V30 8827 H 856.341 1.26593 0.749173 0
M  V30 8828 H 858.299 1.63015 3.84034 0
M  V30 8829 H 856.929 0.724689 3.1456 0
M  V30 8830 H 855.981 3.00428 2.33339 0
M  V30 8831 H 857.293 3.80097 3.22998 0
M  V30 8832 H 856.447 2.82006 5.37175 0
M  V30 8833 H 855.186 1.91908 4.48356 0
M  V30 8834 H 854.191 4.08092 3.6843 0
M  V30 8835 H 855.416 4.9903 4.60593 0
M  V30 8836 H 853.362 3.08401 5.78986 0
M  V30 8837 H 853.279 4.81473 5.82855 0
M  V30 8838 H 854.547 3.99719 6.69212 0
M  V30 8839 N 858.776 -0.797141 1.35954 0
M  V30 8840 C 860.004 -1.5858 1.32891 0
M  V30 8841 C 860.419 -1.88578 -0.0915564 0
M  V30 8842 O 859.776 -1.49532 -1.04625 0
M  V30 8843 C 859.827 -2.91143 2.14284 0
M  V30 8844 O 859.548 -2.62442 3.50793 0
M  V30 8845 C 861.049 -3.85476 2.18914 0
M  V30 8846 H 858.269 -0.492111 0.456144 0
M  V30 8847 H 860.813 -0.98994 1.78943 0
M  V30 8848 H 858.968 -3.47219 1.71807 0
M  V30 8849 H 859.382 -3.4715 3.93175 0
M  V30 8850 H 860.856 -4.75574 2.80238 0
M  V30 8851 H 861.333 -4.22758 1.19047 0
M  V30 8852 H 861.939 -3.35334 2.61593 0
M  V30 8853 N 860.254 -1.20106 -1.0204 0
M  V30 8854 C 861.501 -1.00889 -1.75578 0
M  V30 8855 C 861.829 0.459415 -1.88996 0
M  V30 8856 O 861.084 1.35735 -1.40977 0
M  V30 8857 C 861.383 -1.63308 -3.17908 0
M  V30 8858 C 861.049 -3.13091 -3.24476 0
M  V30 8859 C 859.711 -3.53968 -3.25976 0
M  V30 8860 C 862.063 -4.09093 -3.22944 0
M  V30 8861 C 859.391 -4.89381 -3.2361 0
M  V30 8862 C 861.743 -5.44447 -3.22119 0
M  V30 8863 C 860.407 -5.84742 -3.2192 0
M  V30 8864 H 859.677 -0.36918 -0.642485 0
M  V30 8865 H 862.324 -1.49475 -1.19706 0
M  V30 8866 H 860.629 -1.06974 -3.76914 0
M  V30 8867 H 862.326 -1.45958 -3.73493 0
M  V30 8868 H 858.916 -2.80526 -3.24042 0
M  V30 8869 H 863.1 -3.78549 -3.20958 0
M  V30 8870 H 858.356 -5.1987 -3.21785 0
M  V30 8871 H 862.53 -6.18584 -3.19885 0
M  V30 8872 H 860.157 -6.89642 -3.19841 0
M  V30 8873 N 861.732 1.21287 -1.00634 0
M  V30 8874 C 862.662 2.25973 -0.588089 0
M  V30 8875 C 863.643 1.65527 0.391764 0
M  V30 8876 O 864.828 1.92179 0.279452 0
M  V30 8877 C 861.958 3.47197 0.0847336 0
M  V30 8878 C 860.912 4.20168 -0.815039 0
M  V30 8879 C 860.238 5.34699 -0.00855393 0
M  V30 8880 C 861.538 4.77416 -2.11828 0
M  V30 8881 H 863.232 2.61212 -1.46317 0
M  V30 8882 H 860.778 1.25563 -0.704985 0
M  V30 8883 H 862.731 4.19602 0.388821 0
M  V30 8884 H 861.455 3.11092 0.994456 0
M  V30 8885 H 860.114 3.49614 -1.10297 0
M  V30 8886 H 859.762 4.94837 0.902499 0
M  V30 8887 H 859.462 5.84449 -0.607664 0
M  V30 8888 H 860.986 6.09914 0.289317 0
M  V30 8889 H 862.4 5.41694 -1.87725 0
M  V30 8890 H 860.797 5.37561 -2.66736 0
M  V30 8891 H 861.867 3.96724 -2.78816 0
M  V30 8892 N 863.21 0.781244 1.36873 0
M  V30 8893 C 864.12 0.174981 2.33947 0
M  V30 8894 C 865.136 -0.668512 1.60645 0
M  V30 8895 O 866.312 -0.586213 1.9268 0
M  V30 8896 C 863.377 -0.686557 3.39834 0
M  V30 8897 C 862.438 0.174489 4.28945 0
M  V30 8898 C 861.671 -0.646024 5.29776 0
M  V30 8899 O 861.894 -1.88254 5.38439 0
M  V30 8900 O 860.828 -0.0502214 6.01879 0
M  V30 8901 H 864.654 0.977382 2.87543 0
M  V30 8902 H 862.239 0.542559 1.392 0
M  V30 8903 H 864.121 -1.1781 4.04597 0
M  V30 8904 H 862.796 -1.46699 2.8855 0
M  V30 8905 H 861.703 0.712604 3.6725 0
M  V30 8906 H 863.036 0.918232 4.83559 0
M  V30 8907 N 864.689 -1.48329 0.532571 0
M  V30 8908 C 865.935 -2.028 -0.000583219 0
M  V30 8909 C 866.268 -1.40858 -1.33688 0
M  V30 8910 O 865.543 -0.555261 -1.86406 0
M  V30 8911 C 865.826 -3.59901 -0.119846 0
M  V30 8912 C 865.679 -4.32318 1.2418 0
M  V30 8913 C 866.998 -4.31904 -0.845372 0
M  V30 8914 H 864.117 -0.736999 0.00126205 0
M  V30 8915 H 866.759 -1.77024 0.690102 0
M  V30 8916 H 864.909 -3.81993 -0.708092 0
M  V30 8917 H 866.581 -4.21637 1.87136 0
M  V30 8918 H 864.824 -3.93635 1.82301 0
M  V30 8919 H 865.495 -5.40697 1.11132 0
M  V30 8920 H 867.971 -4.14658 -0.346159 0
M  V30 8921 H 866.847 -5.41509 -0.897723 0
M  V30 8922 H 867.108 -3.99369 -1.89622 0
M  V30 8923 N 866.167 -0.267825 -1.55308 0
M  V30 8924 C 867.413 0.351556 -1.9973 0
M  V30 8925 C 867.746 1.56049 -1.15596 0
M  V30 8926 O 867.021 1.93203 -0.224274 0
M  V30 8927 C 867.304 0.74091 -3.52395 0
M  V30 8928 C 867.157 -0.474861 -4.47286 0
M  V30 8929 C 868.476 1.5801 -4.10756 0
M  V30 8930 H 865.595 0.126308 -0.726096 0
M  V30 8931 H 868.237 -0.373316 -1.86296 0
M  V30 8932 H 866.387 1.35851 -3.63973 0
M  V30 8933 H 868.059 -1.1134 -4.47662 0
M  V30 8934 H 866.302 -1.11425 -4.19246 0
M  V30 8935 H 866.973 -0.158782 -5.51772 0
M  V30 8936 H 869.449 1.05857 -4.0241 0
M  V30 8937 H 868.325 1.82135 -5.17801 0
M  V30 8938 H 868.586 2.55878 -3.60526 0
M  V30 8939 N 867.645 1.57599 0.00500368 0
M  V30 8940 C 868.593 2.09223 1.01628 0
M  V30 8941 C 869.587 1.01113 1.35913 0
M  V30 8942 O 870.793 1.19583 1.34536 0
M  V30 8943 H 867.168 0.667999 0.345372 0
M  V30 8944 H 869.139 2.93188 0.555274 0
M  V30 8945 C 867.888 2.60674 2.30097 0
M  V30 8946 H 867.211 3.43491 2.04582 0
M  V30 8947 H 868.651 3.00479 2.99146 0
M  V30 8948 C 867.11 1.51862 3.00731 0
M  V30 8949 O 867.64 0.898651 3.91519 0
M  V30 8950 N 865.846 1.24729 2.62471 0
M  V30 8951 H 865.393 1.7533 1.88725 0
M  V30 8952 H 865.351 0.521437 3.10046 0
M  V30 8953 N 869.123 -0.277682 1.55134 0
M  V30 8954 C 870.372 -1.00766 1.74726 0
M  V30 8955 C 870.685 -1.87617 0.553092 0
M  V30 8956 O 871.891 -2.64058 0.631318 0
M  V30 8957 C 870.347 -1.84147 3.09221 0
M  V30 8958 C 869.955 -1.02186 4.3619 0
M  V30 8959 C 871.699 -2.56604 3.38164 0
M  V30 8960 C 869.606 -1.84978 5.61727 0
M  V30 8961 H 868.536 -0.379948 0.651273 0
M  V30 8962 H 871.187 -0.263543 1.81598 0
M  V30 8963 H 869.569 -2.62637 2.96375 0
M  V30 8964 H 870.743 -0.281459 4.5994 0
M  V30 8965 H 869.058 -0.412054 4.14356 0
M  V30 8966 H 871.655 -3.18942 4.29162 0
M  V30 8967 H 871.998 -3.26647 2.58085 0
M  V30 8968 H 872.531 -1.85147 3.52087 0
M  V30 8969 H 869.27 -1.19365 6.4454 0
M  V30 8970 H 868.79 -2.56628 5.42128 0
M  V30 8971 H 870.469 -2.42458 5.99853 0
M  V30 8972 N 870.601 -1.47988 -0.541979 0
M  V30 8973 C 871.849 -1.55086 -1.29587 0
M  V30 8974 C 872.17 -0.221304 -1.9374 0
M  V30 8975 O 871.44 0.756128 -1.80719 0
M  V30 8976 H 870.02 -0.571307 -0.481266 0
M  V30 8977 H 872.682 -1.8438 -0.631675 0
M  V30 8978 H 871.778 -2.32556 -2.08144 0
M  V30 8979 N 872.079 0.78992 -1.36375 0
M  V30 8980 C 873.026 1.90254 -1.3066 0
M  V30 8981 C 873.996 1.65171 -0.17539 0
M  V30 8982 O 875.181 1.87338 -0.361824 0
M  V30 8983 C 872.321 3.27057 -1.10125 0
M  V30 8984 C 871.434 3.64215 -2.32317 0
M  V30 8985 C 870.569 4.90134 -2.04798 0
M  V30 8986 C 869.608 5.19969 -3.22953 0
M  V30 8987 N 868.745 6.37071 -2.95102 0
M  V30 8988 H 873.585 1.94474 -2.25796 0
M  V30 8989 H 871.122 0.951022 -1.12223 0
M  V30 8990 H 873.08 4.05947 -0.962453 0
M  V30 8991 H 871.71 3.22261 -0.186444 0
M  V30 8992 H 870.762 2.80454 -2.57002 0
M  V30 8993 H 872.074 3.82212 -3.20492 0
M  V30 8994 H 871.228 5.76888 -1.87845 0
M  V30 8995 H 869.967 4.74205 -1.13932 0
M  V30 8996 H 868.972 4.31699 -3.40465 0
M  V30 8997 H 870.197 5.37817 -4.14644 0
M  V30 8998 H 868.143 6.22535 -2.06848 0
M  V30 8999 H 868.06 6.55398 -3.76815 0
M  V30 9000 H 869.328 7.26808 -2.81727 0
M  V30 9001 N 873.557 1.20646 1.01402 0
M  V30 9002 C 874.834 0.927176 1.72229 0
M  V30 9003 C 875.214 -0.563382 2.03443 0
M  V30 9004 O 874.562 -1.52576 1.70096 0
M  V30 9005 C 874.772 1.80285 2.98828 0
M  V30 9006 C 876.12 2.04624 3.72041 0
M  V30 9007 O 877.144 1.77559 3.0879 0
M  V30 9008 O 876.003 2.50347 4.85787 0
M  V30 9009 H 873.097 0.346891 0.75073 0
M  V30 9010 H 875.643 1.31532 1.07227 0
M  V30 9011 H 874.415 2.81204 2.72102 0
M  V30 9012 H 874.038 1.41495 3.71571 0
M  V30 9013 N 875.035 -1.20752 1.01276 0
M  V30 9014 C 876.283 -1.89645 0.698505 0
M  V30 9015 C 876.604 -1.78986 -0.773883 0
M  V30 9016 O 875.874 -1.18977 -1.55632 0
M  V30 9017 H 874.454 -0.701992 0.255375 0
M  V30 9018 H 877.116 -1.46668 1.28353 0
M  V30 9019 H 876.212 -2.96364 0.978512 0
M  V30 9020 N 876.513 -0.788492 -1.36457 0
M  V30 9021 C 877.46 -0.18435 -2.30063 0
M  V30 9022 C 878.43 0.67128 -1.51931 0
M  V30 9023 O 879.615 0.620152 -1.8044 0
M  V30 9024 C 876.755 0.675596 -3.38422 0
M  V30 9025 C 875.868 -0.198475 -4.31544 0
M  V30 9026 C 875.003 0.667757 -5.26986 0
M  V30 9027 C 874.042 -0.207825 -6.11747 0
M  V30 9028 N 873.179 0.617335 -6.99381 0
M  V30 9029 H 878.019 -0.988056 -2.81143 0
M  V30 9030 H 875.556 -0.498815 -1.38384 0
M  V30 9031 H 877.514 1.18916 -3.99894 0
M  V30 9032 H 876.144 1.44474 -2.88664 0
M  V30 9033 H 875.196 -0.829995 -3.71235 0
M  V30 9034 H 876.508 -0.873163 -4.91098 0
M  V30 9035 H 875.662 1.24716 -5.93743 0
M  V30 9036 H 874.401 1.37607 -4.67884 0
M  V30 9037 H 873.406 -0.799638 -5.43954 0
M  V30 9038 H 874.631 -0.913729 -6.72925 0
M  V30 9039 H 872.577 1.30996 -6.42788 0
M  V30 9040 H 872.494 0.000307255 -7.56 0
M  V30 9041 H 873.762 1.1806 -7.70508 0
M  V30 9042 N 877.991 1.48044 -0.54043 0
M  V30 9043 C 878.923 2.2779 0.253854 0
M  V30 9044 C 879.936 1.35999 0.894883 0
M  V30 9045 O 881.125 1.60963 0.771563 0
M  V30 9046 C 878.225 3.09724 1.37566 0
M  V30 9047 C 877.398 4.29364 0.83459 0
M  V30 9048 C 876.457 4.93026 1.83881 0
M  V30 9049 O 875.483 5.51927 1.39159 0
M  V30 9050 N 876.685 4.86207 3.17149 0
M  V30 9051 H 879.45 2.96597 -0.430125 0
M  V30 9052 H 877.011 1.57487 -0.375423 0
M  V30 9053 H 879.003 3.49181 2.04584 0
M  V30 9054 H 877.573 2.43269 1.96314 0
M  V30 9055 H 876.793 3.94198 -0.0118878 0
M  V30 9056 H 878.081 5.06787 0.452155 0
M  V30 9057 H 877.479 4.39523 3.56141 0
M  V30 9058 H 876.036 5.29733 3.79771 0
M  V30 9059 N 879.47 0.276058 1.55163 0
M  V30 9060 C 880.698 -0.343772 2.04024 0
M  V30 9061 C 881.113 -1.49397 1.15438 0
M  V30 9062 O 880.47 -1.81662 0.174692 0
M  V30 9063 C 880.521 -0.823885 3.51986 0
M  V30 9064 O 880.242 0.280507 4.37201 0
M  V30 9065 C 881.743 -1.51143 4.16738 0
M  V30 9066 H 878.963 -0.07828 0.666418 0
M  V30 9067 H 881.507 0.408427 2.0038 0
M  V30 9068 H 879.662 -1.52617 3.56071 0
M  V30 9069 H 880.076 -0.0887831 5.24425 0
M  V30 9070 H 881.55 -1.79878 5.2187 0
M  V30 9071 H 882.027 -2.44327 3.64967 0
M  V30 9072 H 882.633 -0.852975 4.16659 0
M  V30 9073 N 880.948 -1.576 0.00335426 0
M  V30 9074 C 882.359 -1.7875 -0.539008 0
M  V30 9075 C 882.71 -0.911097 -1.73763 0
M  V30 9076 O 881.835 -0.114476 -2.16097 0
M  V30 9077 C 882.43 -3.24177 -0.984611 0
M  V30 9078 C 880.989 -3.46412 -1.47226 0
M  V30 9079 C 880.136 -2.74024 -0.425004 0
M  V30 9080 H 883.087 -1.57032 0.229511 0
M  V30 9081 H 883.108 -3.32474 -1.85044 0
M  V30 9082 H 882.62 -3.87938 -0.112035 0
M  V30 9083 H 880.721 -2.8787 -2.36562 0
M  V30 9084 H 880.834 -4.55098 -1.49741 0
M  V30 9085 H 879.198 -2.38741 -0.887394 0
M  V30 9086 H 879.981 -3.40486 0.438662 0
M  V30 9087 N 882.426 0.269451 -1.5528 0
M  V30 9088 C 883.336 1.35511 -1.91505 0
M  V30 9089 C 884.352 1.53854 -0.812712 0
M  V30 9090 O 885.528 1.67912 -1.1121 0
M  V30 9091 C 882.593 2.6937 -2.18267 0
M  V30 9092 C 881.654 2.59743 -3.41807 0
M  V30 9093 C 880.887 3.87219 -3.67283 0
M  V30 9094 O 881.11 4.88066 -2.95208 0
M  V30 9095 O 880.044 3.87209 -4.60818 0
M  V30 9096 H 883.87 1.07785 -2.8393 0
M  V30 9097 H 881.455 0.468282 -1.41871 0
M  V30 9098 H 883.337 3.48513 -2.36889 0
M  V30 9099 H 882.012 2.96874 -1.29024 0
M  V30 9100 H 880.919 1.78964 -3.28516 0
M  V30 9101 H 882.252 2.37188 -4.3128 0
M  V30 9102 N 883.904 1.48273 0.534124 0
M  V30 9103 C 885.132 1.59734 1.31501 0
M  V30 9104 C 885.547 0.256047 1.87056 0
M  V30 9105 O 884.904 -0.754086 1.66192 0
M  V30 9106 C 884.955 2.64072 2.46877 0
M  V30 9107 O 884.676 3.92995 1.93613 0
M  V30 9108 C 886.177 2.85933 3.38758 0
M  V30 9109 H 883.397 0.538703 0.40005 0
M  V30 9110 H 885.941 1.9407 0.644762 0
M  V30 9111 H 884.096 2.32606 3.09795 0
M  V30 9112 H 884.51 4.50203 2.69106 0
M  V30 9113 H 885.984 3.62749 4.16073 0
M  V30 9114 H 886.461 1.94603 3.93734 0
M  V30 9115 H 887.067 3.18687 2.81636 0
M  V30 9116 N 885.382 -0.782676 1.36792 0
M  V30 9117 C 886.628 -1.54311 1.3159 0
M  V30 9118 C 886.961 -1.93928 -0.102696 0
M  V30 9119 O 886.236 -1.63233 -1.05761 0
M  V30 9120 C 886.519 -2.81561 2.24489 0
M  V30 9121 C 886.372 -2.48268 3.75078 0
M  V30 9122 C 887.691 -3.83428 2.16034 0
M  V30 9123 H 884.81 -0.559828 0.479335 0
M  V30 9124 H 887.452 -0.898717 1.67401 0
M  V30 9125 H 885.602 -3.36549 1.9408 0
M  V30 9126 H 887.274 -1.99279 4.16036 0
M  V30 9127 H 885.517 -1.81116 3.94182 0
M  V30 9128 H 886.188 -3.39183 4.35499 0
M  V30 9129 H 888.664 -3.37905 2.42815 0
M  V30 9130 H 887.54 -4.70204 2.83194 0
M  V30 9131 H 887.801 -4.26887 1.14976 0
M  V30 9132 N 886.86 -1.21182 -1.00761 0
M  V30 9133 C 887.823 -0.970339 -2.07646 0
M  V30 9134 C 888.823 0.0576345 -1.60697 0
M  V30 9135 O 890.013 -0.179369 -1.73274 0
M  V30 9136 C 887.145 -0.462703 -3.37745 0
M  V30 9137 H 888.338 -1.91856 -2.30502 0
M  V30 9138 H 885.891 -1.02844 -1.17698 0
M  V30 9139 H 886.626 0.490559 -3.20568 0
M  V30 9140 H 886.411 -1.20416 -3.73152 0
M  V30 9141 H 887.901 -0.313531 -4.16421 0
M  V30 9142 N 888.338 1.20213 -1.01915 0
M  V30 9143 C 889.566 1.93622 -0.729255 0
M  V30 9144 C 889.981 1.74923 0.710444 0
M  V30 9145 O 889.338 1.06484 1.48214 0
M  V30 9146 C 889.389 3.45651 -1.05865 0
M  V30 9147 O 889.11 3.63741 -2.44181 0
M  V30 9148 C 890.611 4.36201 -0.790176 0
M  V30 9149 H 887.831 0.615333 -0.267594 0
M  V30 9150 H 890.375 1.52633 -1.36101 0
M  V30 9151 H 888.53 3.84511 -0.47225 0
M  V30 9152 H 888.944 4.57702 -2.56143 0
M  V30 9153 H 890.418 5.41516 -1.07071 0
M  V30 9154 H 890.895 4.38334 0.275609 0
M  V30 9155 H 891.501 4.03008 -1.35885 0
M  V30 9156 N 889.816 0.795718 1.36037 0
M  V30 9157 C 891.093 0.294743 1.93367 0
M  V30 9158 C 891.473 -1.21406 1.72696 0
M  V30 9159 O 890.821 -2.00849 1.08959 0
M  V30 9160 C 891.031 0.694254 3.42025 0
M  V30 9161 C 892.379 0.677566 4.19159 0
M  V30 9162 O 893.403 0.635119 3.50492 0
M  V30 9163 O 892.262 0.726127 5.41655 0
M  V30 9164 H 889.356 0.0745459 0.823633 0
M  V30 9165 H 891.902 0.878685 1.4518 0
M  V30 9166 H 890.674 1.73458 3.50753 0
M  V30 9167 H 890.297 0.0845338 3.9751 0
M  V30 9168 N 891.294 -1.47756 0.548274 0
M  V30 9169 C 892.242 -2.3158 -0.217584 0
M  V30 9170 C 893.236 -1.42372 -0.917957 0
M  V30 9171 O 894.442 -1.59184 -0.840259 0
M  V30 9172 H 890.817 -0.74671 -0.0890388 0
M  V30 9173 H 892.788 -2.94032 0.508719 0
M  V30 9174 C 891.537 -3.24834 -1.24008 0
M  V30 9175 H 890.86 -3.93435 -0.710572 0
M  V30 9176 H 892.3 -3.86336 -1.74701 0
M  V30 9177 C 890.759 -2.47724 -2.2833 0
M  V30 9178 O 891.289 -2.21522 -3.35098 0
M  V30 9179 N 889.495 -2.08891 -2.02022 0
M  V30 9180 H 889.042 -2.30401 -1.1521 0
M  V30 9181 H 889 -1.57613 -2.7204 0
M  V30 9182 N 892.772 -0.284283 -1.55015 0
M  V30 9183 C 894.049 0.382125 -1.91831 0
M  V30 9184 C 894.429 1.73007 -1.20962 0
M  V30 9185 O 893.777 2.25962 -0.339594 0
M  V30 9186 C 893.987 0.513341 -3.45204 0
M  V30 9187 C 895.335 0.791989 -4.17148 0
M  V30 9188 O 896.359 0.597799 -3.51148 0
M  V30 9189 O 895.218 1.16394 -5.33961 0
M  V30 9190 H 892.312 0.210707 -0.799707 0
M  V30 9191 H 894.858 -0.331111 -1.66438 0
M  V30 9192 H 893.63 -0.434911 -3.88876 0
M  V30 9193 H 893.253 1.27569 -3.76579 0
M  V30 9194 N 894.251 1.57596 -0.0117121 0
M  V30 9195 C 895.497 1.92189 0.665966 0
M  V30 9196 C 895.852 0.887145 1.70726 0
M  V30 9197 O 895.145 -0.099151 1.91343 0
M  V30 9198 C 895.339 3.31296 1.34082 0
M  V30 9199 C 895.168 4.48205 0.366406 0
M  V30 9200 C 893.938 5.05293 -0.0274458 0
M  V30 9201 C 896.136 5.12951 -0.37219 0
M  V30 9202 N 894.118 6.0572 -0.998846 0
M  V30 9203 C 895.489 6.08318 -1.1979 0
M  V30 9204 C 897.544 4.95998 -0.434768 0
M  V30 9205 C 896.247 6.88555 -2.0805 0
M  V30 9206 C 898.273 5.7683 -1.30464 0
M  V30 9207 C 897.635 6.71798 -2.11816 0
M  V30 9208 H 893.734 0.751422 0.216537 0
M  V30 9209 H 896.318 1.94556 -0.0748079 0
M  V30 9210 H 894.489 3.2978 2.05182 0
M  V30 9211 H 896.221 3.53285 1.97413 0
M  V30 9212 H 892.976 4.72354 0.343382 0
M  V30 9213 H 893.4 6.60619 -1.48027 0
M  V30 9214 H 898.042 4.22417 0.179925 0
M  V30 9215 H 895.76 7.61453 -2.70581 0
M  V30 9216 H 899.346 5.6575 -1.35712 0
M  V30 9217 H 898.226 7.33256 -2.78037 0
M  V30 9218 N 895.729 -0.261212 1.5542 0
M  V30 9219 C 897.006 -1.01321 1.67312 0
M  V30 9220 C 897.386 -2.0388 0.547356 0
M  V30 9221 O 896.734 -2.24003 -0.451083 0
M  V30 9222 C 896.944 -1.65943 3.07024 0
M  V30 9223 C 898.292 -2.16666 3.65159 0
M  V30 9224 O 899.316 -1.75909 3.09733 0
M  V30 9225 O 898.175 -2.91455 4.62294 0
M  V30 9226 H 895.269 -0.470714 0.679968 0
M  V30 9227 H 897.815 -0.256133 1.67756 0
M  V30 9228 H 896.587 -0.916868 3.80407 0
M  V30 9229 H 896.21 -2.48308 3.1053 0
M  V30 9230 N 897.207 -1.48554 -0.526253 0
M  V30 9231 C 898.435 -1.60429 -1.30652 0
M  V30 9232 C 898.85 -0.265963 -1.86917 0
M  V30 9233 O 898.207 0.745262 -1.6659 0
M  V30 9234 C 898.258 -2.65377 -2.45473 0
M  V30 9235 O 897.979 -3.94017 -1.91527 0
M  V30 9236 C 899.48 -2.87726 -3.37237 0
M  V30 9237 H 896.7 -0.540817 -0.397187 0
M  V30 9238 H 899.244 -1.94409 -0.634461 0
M  V30 9239 H 897.399 -2.34246 -3.08557 0
M  V30 9240 H 897.813 -4.51623 -2.66715 0
M  V30 9241 H 899.287 -3.64951 -4.14144 0
M  V30 9242 H 899.764 -1.96688 -3.92696 0
M  V30 9243 H 900.37 -3.20176 -2.79942 0
M  V30 9244 N 898.685 0.775411 -1.37205 0
M  V30 9245 C 899.617 1.89761 -1.28544 0
M  V30 9246 C 900.63 1.61542 -0.201996 0
M  V30 9247 O 901.819 1.72528 -0.457848 0
M  V30 9248 C 898.919 3.24904 -0.963885 0
M  V30 9249 C 898.092 3.80796 -2.15205 0
M  V30 9250 C 897.151 4.94407 -1.80135 0
M  V30 9251 O 896.177 5.10185 -2.52388 0
M  V30 9252 N 897.379 5.75722 -0.743298 0
M  V30 9253 H 900.144 1.97708 -2.25237 0
M  V30 9254 H 897.705 0.954348 -1.30782 0
M  V30 9255 H 899.697 3.9842 -0.710182 0
M  V30 9256 H 898.267 3.12483 -0.085632 0
M  V30 9257 H 897.487 2.99101 -2.56773 0
M  V30 9258 H 898.775 4.1487 -2.94552 0
M  V30 9259 H 898.173 5.65518 -0.143655 0
M  V30 9260 H 896.73 6.4948 -0.549446 0
M  V30 9261 N 900.163 1.21714 1.00117 0
M  V30 9262 C 901.393 1.06124 1.77261 0
M  V30 9263 C 901.801 -0.391717 1.85101 0
M  V30 9264 O 901.144 -1.28347 1.31426 0
M  V30 9265 C 901.206 1.58778 3.22536 0
M  V30 9266 C 900.87 3.07289 3.38264 0
M  V30 9267 C 901.867 4.04801 3.26239 0
M  V30 9268 C 899.552 3.46574 3.63582 0
M  V30 9269 C 901.546 5.39585 3.39303 0
M  V30 9270 C 899.233 4.81509 3.76288 0
M  V30 9271 C 900.231 5.77824 3.64155 0
M  V30 9272 O 899.919 7.1031 3.7645 0
M  V30 9273 H 899.651 0.372979 0.563793 0
M  V30 9274 H 902.205 1.61589 1.26799 0
M  V30 9275 H 900.435 0.977129 3.74151 0
M  V30 9276 H 902.124 1.38974 3.81367 0
M  V30 9277 H 902.89 3.75795 3.066 0
M  V30 9278 H 898.769 2.72137 3.72106 0
M  V30 9279 H 902.313 6.14744 3.2975 0
M  V30 9280 H 898.21 5.102 3.95432 0
M  V30 9281 H 898.978 7.17774 3.93374 0
M  V30 9282 N 901.641 -1.19671 1.02551 0
M  V30 9283 C 903.057 -1.41305 0.741963 0
M  V30 9284 C 903.257 -1.89865 -0.674807 0
M  V30 9285 O 902.313 -2.07323 -1.44129 0
M  V30 9286 C 903.626 -2.42706 1.77522 0
M  V30 9287 C 905.174 -2.56458 1.79438 0
M  V30 9288 C 905.649 -3.61111 2.81715 0
M  V30 9289 N 907.14 -3.68603 2.8051 0
M  V30 9290 C 907.875 -4.49262 3.56302 0
M  V30 9291 N 907.371 -5.33653 4.41799 0
M  V30 9292 N 909.164 -4.43879 3.44859 0
M  V30 9293 H 901.315 -0.8647 1.94002 0
M  V30 9294 H 903.578 -0.442206 0.838545 0
M  V30 9295 H 903.284 -2.14042 2.79068 0
M  V30 9296 H 903.158 -3.41831 1.59472 0
M  V30 9297 H 905.545 -2.84447 0.78573 0
M  V30 9298 H 905.626 -1.57499 2.01563 0
M  V30 9299 H 905.27 -3.33864 3.82749 0
M  V30 9300 H 905.2 -4.59713 2.56849 0
M  V30 9301 H 907.691 -3.08329 2.18498 0
M  V30 9302 H 908.004 -5.92308 4.96378 0
M  V30 9303 H 906.349 -5.33125 4.45873 0
M  V30 9304 H 909.54 -3.7699 2.77482 0
M  V30 9305 H 909.713 -5.06501 4.04179 0
M  V30 9306 N 903.119 -0.802921 -1.35613 0
M  V30 9307 C 904.365 -0.391259 -1.99601 0
M  V30 9308 C 904.72 1.02922 -1.62557 0
M  V30 9309 O 904.013 1.70357 -0.876878 0
M  V30 9310 C 904.207 -0.507806 -3.53774 0
M  V30 9311 C 904.036 -1.93807 -4.05794 0
M  V30 9312 C 902.806 -2.56564 -4.3532 0
M  V30 9313 C 905.004 -2.90211 -4.24596 0
M  V30 9314 N 902.986 -3.91038 -4.73247 0
M  V30 9315 C 904.357 -4.09548 -4.65479 0
M  V30 9316 C 906.412 -2.87091 -4.06796 0
M  V30 9317 C 905.115 -5.26191 -4.90424 0
M  V30 9318 C 907.141 -4.02933 -4.32896 0
M  V30 9319 C 906.503 -5.21017 -4.74047 0
M  V30 9320 H 902.602 -0.190867 -0.758349 0
M  V30 9321 H 905.186 -1.04338 -1.64382 0
M  V30 9322 H 903.357 0.114306 -3.88232 0
M  V30 9323 H 905.089 -0.0710855 -4.04638 0
M  V30 9324 H 901.844 -2.07945 -4.25507 0
M  V30 9325 H 902.268 -4.60262 -4.96475 0
M  V30 9326 H 906.91 -1.96951 -3.74126 0
M  V30 9327 H 904.628 -6.16906 -5.2197 0
M  V30 9328 H 908.214 -4.01895 -4.2068 0
M  V30 9329 H 907.094 -6.09165 -4.93849 0
M  V30 9330 N 904.597 1.47463 -0.556102 0
M  V30 9331 C 905.507 2.33785 0.195378 0
M  V30 9332 C 906.523 1.48123 0.913 0
M  V30 9333 O 907.699 1.81053 0.882141 0
M  V30 9334 C 904.764 3.24795 1.21282 0
M  V30 9335 C 903.825 4.26346 0.502747 0
M  V30 9336 C 903.058 5.13007 1.47172 0
M  V30 9337 O 903.281 5.02103 2.70646 0
M  V30 9338 O 902.215 5.93588 0.996814 0
M  V30 9339 H 906.041 2.99341 -0.512676 0
M  V30 9340 H 903.626 1.46004 -0.31673 0
M  V30 9341 H 905.508 3.81015 1.80016 0
M  V30 9342 H 904.183 2.61868 1.90282 0
M  V30 9343 H 903.09 3.73889 -0.125757 0
M  V30 9344 H 904.423 4.91984 -0.145779 0
M  V30 9345 N 906.075 0.2925 1.54862 0
M  V30 9346 C 907.491 -0.0611461 1.59483 0
M  V30 9347 C 907.691 -1.53141 1.30958 0
M  V30 9348 O 906.747 -2.28291 1.07887 0
M  V30 9349 C 908.06 0.329143 2.98893 0
M  V30 9350 C 909.608 0.2772 3.1177 0
M  V30 9351 C 910.083 0.642185 4.53475 0
M  V30 9352 N 911.574 0.594396 4.5937 0
M  V30 9353 C 912.309 0.849385 5.67074 0
M  V30 9354 N 911.805 1.1699 6.82851 0
M  V30 9355 N 913.598 0.777016 5.56704 0
M  V30 9356 H 905.749 1.25079 1.71665 0
M  V30 9357 H 908.012 0.506516 0.80134 0
M  V30 9358 H 907.718 1.35233 3.24661 0
M  V30 9359 H 907.592 -0.321442 3.75828 0
M  V30 9360 H 909.979 -0.736725 2.85756 0
M  V30 9361 H 910.06 0.962289 2.3701 0
M  V30 9362 H 909.704 1.65388 4.80218 0
M  V30 9363 H 909.634 -0.0648831 5.2656 0
M  V30 9364 H 912.125 0.357256 3.76208 0
M  V30 9365 H 912.438 1.35067 7.60905 0
M  V30 9366 H 910.783 1.20785 6.84424 0
M  V30 9367 H 913.974 0.526333 4.65132 0
M  V30 9368 H 914.147 0.979113 6.4056 0
M  V30 9369 N 907.553 -1.57587 0.0200696 0
M  V30 9370 C 908.799 -1.91708 -0.661503 0
M  V30 9371 C 909.132 -0.895968 -1.72296 0
M  V30 9372 O 908.407 0.082577 -1.94325 0
M  V30 9373 C 908.69 -3.36344 -1.28627 0
M  V30 9374 C 908.543 -4.49186 -0.234982 0
M  V30 9375 C 909.862 -3.80771 -2.20685 0
M  V30 9376 H 906.981 -0.69717 -0.239005 0
M  V30 9377 H 909.623 -1.8985 0.0754764 0
M  V30 9378 H 907.773 -3.38058 -1.91439 0
M  V30 9379 H 909.445 -4.59606 0.395011 0
M  V30 9380 H 907.688 -4.31557 0.440565 0
M  V30 9381 H 908.359 -5.47395 -0.711558 0
M  V30 9382 H 910.835 -3.80735 -1.67868 0
M  V30 9383 H 909.711 -4.82685 -2.61356 0
M  V30 9384 H 909.972 -3.15764 -3.09428 0
M  V30 9385 N 909.032 0.252966 -1.55557 0
M  V30 9386 C 910.28 0.979912 -1.76754 0
M  V30 9387 C 910.601 1.86083 -0.582944 0
M  V30 9388 O 909.871 1.91742 0.401497 0
M  V30 9389 H 908.451 0.364805 -0.651864 0
M  V30 9390 H 911.113 0.272372 -1.92987 0
M  V30 9391 H 910.209 1.60518 -2.67657 0
M  V30 9392 N 910.51 1.48831 0.518367 0
M  V30 9393 C 911.759 1.5669 1.27008 0
M  V30 9394 C 912.072 0.250934 1.93984 0
M  V30 9395 O 913.278 0.207884 2.70703 0
M  V30 9396 C 911.734 2.76387 2.30517 0
M  V30 9397 C 911.342 4.14673 1.69559 0
M  V30 9398 C 913.086 2.93566 3.06625 0
M  V30 9399 C 910.993 5.25616 2.71076 0
M  V30 9400 H 909.923 0.583362 0.477708 0
M  V30 9401 H 912.574 1.75187 0.546052 0
M  V30 9402 H 910.956 2.51348 3.06006 0
M  V30 9403 H 912.13 4.49779 1.00179 0
M  V30 9404 H 910.445 4.02708 1.05902 0
M  V30 9405 H 913.042 3.7362 3.82508 0
M  V30 9406 H 913.385 2.03462 3.63193 0
M  V30 9407 H 913.918 3.18562 2.38251 0
M  V30 9408 H 910.657 6.17723 2.19313 0
M  V30 9409 H 910.177 4.94985 3.38748 0
M  V30 9410 H 911.856 5.5422 3.3384 0
M  V30 9411 N 911.988 -0.768124 1.37614 0
M  V30 9412 C 913.213 -1.56239 1.36397 0
M  V30 9413 C 913.638 -1.8804 -0.0475839 0
M  V30 9414 O 912.996 -1.495 -1.02564 0
M  V30 9415 C 913.044 -2.84716 2.21289 0
M  V30 9416 O 912.148 -3.79249 1.62001 0
M  V30 9417 H 911.489 -0.473119 0.465891 0
M  V30 9418 H 914.019 -0.950415 1.81186 0
M  V30 9419 H 914.029 -3.33784 2.34632 0
M  V30 9420 H 912.704 -2.60899 3.2389 0
M  V30 9421 H 911.281 -3.37904 1.57719 0
M  V30 9422 N 913.466 -1.22244 -0.994698 0
M  V30 9423 C 914.429 -0.992308 -2.06606 0
M  V30 9424 C 915.429 0.0405872 -1.60749 0
M  V30 9425 O 916.619 -0.197737 -1.73074 0
M  V30 9426 C 913.751 -0.498499 -3.37236 0
M  V30 9427 H 914.944 -1.9429 -2.28455 0
M  V30 9428 H 912.497 -1.04087 -1.166 0
M  V30 9429 H 913.232 0.456531 -3.21071 0
M  V30 9430 H 913.017 -1.24367 -3.71854 0
M  V30 9431 H 914.507 -0.35768 -4.16065 0
M  V30 9432 N 914.944 1.19125 -1.03184 0
M  V30 9433 C 916.169 1.93379 -0.749628 0
M  V30 9434 C 916.594 1.75153 0.685785 0
M  V30 9435 O 915.952 1.05579 1.47386 0
M  V30 9436 C 916 3.43101 -1.1097 0
M  V30 9437 O 915.104 4.11758 -0.230053 0
M  V30 9438 H 914.445 0.603605 -0.276689 0
M  V30 9439 H 916.975 1.51116 -1.37931 0
M  V30 9440 H 916.985 3.93778 -1.06785 0
M  V30 9441 H 915.66 3.55688 -2.15544 0
M  V30 9442 H 914.237 3.7143 -0.330748 0
M  V30 9443 N 916.422 0.810101 1.35185 0
M  V30 9444 C 917.369 0.220927 2.2974 0
M  V30 9445 C 918.339 -0.647024 1.5298 0
M  V30 9446 O 919.524 -0.591367 1.81404 0
M  V30 9447 C 916.664 -0.62167 3.39454 0
M  V30 9448 C 915.777 0.267104 4.31173 0
M  V30 9449 C 914.912 -0.583833 5.27982 0
M  V30 9450 C 913.951 0.305123 6.11339 0
M  V30 9451 N 913.088 -0.505992 7.00274 0
M  V30 9452 H 917.928 1.03266 2.79536 0
M  V30 9453 H 915.465 0.520768 1.37573 0
M  V30 9454 H 917.423 -1.12539 4.01735 0
M  V30 9455 H 916.053 -1.39863 2.90926 0
M  V30 9456 H 915.105 0.88895 3.69867 0
M  V30 9457 H 916.417 0.951182 4.89647 0
M  V30 9458 H 915.571 -1.15254 5.95652 0
M  V30 9459 H 914.31 -1.30146 4.70014 0
M  V30 9460 H 913.315 0.886075 5.42613 0
M  V30 9461 H 914.54 1.02067 6.71386 0
M  V30 9462 H 912.486 -1.20753 6.4479 0
M  V30 9463 H 912.403 0.119966 7.55905 0
M  V30 9464 H 913.671 -1.05787 7.72288 0
M  V30 9465 N 917.9 -1.47166 0.563914 0
M  V30 9466 C 918.863 -2.28571 -0.169624 0
M  V30 9467 C 919.863 -1.37331 -0.836467 0
M  V30 9468 O 921.053 -1.59896 -0.6913 0
M  V30 9469 C 918.185 -3.17201 -1.24886 0
M  V30 9470 H 919.378 -2.94896 0.545539 0
M  V30 9471 H 916.931 -1.52966 0.321121 0
M  V30 9472 H 917.666 -2.55582 -1.99621 0
M  V30 9473 H 917.451 -3.84356 -0.775426 0
M  V30 9474 H 918.941 -3.7852 -1.76388 0
M  V30 9475 N 919.378 -0.300708 -1.54705 0
M  V30 9476 C 920.606 0.31127 -2.04545 0
M  V30 9477 C 921.021 1.47542 -1.178 0
M  V30 9478 O 920.378 1.81361 -0.203571 0
M  V30 9479 C 920.429 0.767783 -3.53253 0
M  V30 9480 O 920.15 -0.350027 -4.36699 0
M  V30 9481 C 921.651 1.44494 -4.1909 0
M  V30 9482 H 918.871 0.067668 -0.667579 0
M  V30 9483 H 921.415 -0.440254 -1.99705 0
M  V30 9484 H 919.57 1.46933 -3.58454 0
M  V30 9485 H 919.984 0.00534038 -5.245 0
M  V30 9486 H 921.458 1.71553 -5.24665 0
M  V30 9487 H 921.935 2.3849 -3.68808 0
M  V30 9488 H 922.541 0.786581 -4.17963 0
M  V30 9489 N 920.856 1.57574 -0.0284266 0
M  V30 9490 C 922.105 1.9095 0.649704 0
M  V30 9491 C 922.418 0.906421 1.7333 0
M  V30 9492 O 923.624 1.1314 2.46803 0
M  V30 9493 C 922.08 3.39061 1.20687 0
M  V30 9494 C 921.688 4.47726 0.156597 0
M  V30 9495 C 923.432 3.81505 1.86156 0
M  V30 9496 C 921.339 5.86935 0.725365 0
M  V30 9497 H 920.269 0.712589 0.24644 0
M  V30 9498 H 922.92 1.83261 -0.0936143 0
M  V30 9499 H 921.302 3.41679 2.00178 0
M  V30 9500 H 922.476 4.56667 -0.6158 0
M  V30 9501 H 920.791 4.14481 -0.399288 0
M  V30 9502 H 923.388 4.82865 2.29665 0
M  V30 9503 H 923.731 3.16529 2.70398 0
M  V30 9504 H 924.264 3.81307 1.13356 0
M  V30 9505 H 921.003 6.55453 -0.0789081 0
M  V30 9506 H 920.523 5.81602 1.46627 0
M  V30 9507 H 922.202 6.35483 1.21532 0
M  V30 9508 N 922.334 -0.244713 1.55689 0
M  V30 9509 C 923.559 -0.994157 1.8202 0
M  V30 9510 C 923.984 -1.78079 0.60577 0
M  V30 9511 O 923.342 -1.75748 -0.445221 0
M  V30 9512 C 923.39 -1.90599 3.06111 0
M  V30 9513 O 922.494 -2.99804 2.8318 0
M  V30 9514 H 921.835 -0.282767 0.600782 0
M  V30 9515 H 924.365 -0.26504 2.02876 0
M  V30 9516 H 924.375 -2.32023 3.35603 0
M  V30 9517 H 923.05 -1.32763 3.9414 0
M  V30 9518 H 921.627 -2.62493 2.64862 0
M  V30 9519 N 923.813 -1.49104 -0.510467 0
M  V30 9520 C 925.059 -1.59322 -1.26444 0
M  V30 9521 C 925.414 -0.27219 -1.90465 0
M  V30 9522 O 924.707 0.726762 -1.77281 0
M  V30 9523 C 924.901 -2.68259 -2.36161 0
M  V30 9524 C 924.73 -4.10827 -1.82897 0
M  V30 9525 C 923.5 -4.77732 -1.64623 0
M  V30 9526 C 925.698 -4.96367 -1.34625 0
M  V30 9527 N 923.68 -6.04646 -1.06189 0
M  V30 9528 C 925.051 -6.13685 -0.882656 0
M  V30 9529 C 927.106 -4.8244 -1.2311 0
M  V30 9530 C 925.809 -7.18609 -0.315306 0
M  V30 9531 C 927.835 -5.87504 -0.677726 0
M  V30 9532 C 927.197 -7.04043 -0.224308 0
M  V30 9533 H 923.296 -0.637429 -0.453 0
M  V30 9534 H 925.88 -1.8607 -0.573237 0
M  V30 9535 H 924.051 -2.433 -3.02753 0
M  V30 9536 H 925.783 -2.68052 -3.032 0
M  V30 9537 H 922.538 -4.34377 -1.88716 0
M  V30 9538 H 922.962 -6.72383 -0.78927 0
M  V30 9539 H 927.604 -3.92663 -1.56766 0
M  V30 9540 H 925.322 -8.08093 0.0335425 0
M  V30 9541 H 928.908 -5.78785 -0.591535 0
M  V30 9542 H 927.788 -7.83952 0.197212 0
M  V30 9543 N 925.291 0.760815 -1.38019 0
M  V30 9544 C 926.516 1.55513 -1.37224 0
M  V30 9545 C 926.941 1.88062 0.037611 0
M  V30 9546 O 926.299 1.50042 1.0177 0
M  V30 9547 C 926.347 2.83539 -2.22796 0
M  V30 9548 O 925.451 3.78384 -1.64009 0
M  V30 9549 H 924.792 0.470642 -0.468393 0
M  V30 9550 H 927.322 0.940792 -1.81687 0
M  V30 9551 H 927.332 3.32535 -2.36399 0
M  V30 9552 H 926.007 2.59178 -3.25269 0
M  V30 9553 H 924.584 3.37063 -1.59508 0
M  V30 9554 N 926.769 1.22769 0.988202 0
M  V30 9555 C 928.018 1.0492 1.72263 0
M  V30 9556 C 928.331 -0.415282 1.91141 0
M  V30 9557 O 929.537 -0.713547 2.61956 0
M  V30 9558 C 927.993 1.82891 3.09966 0
M  V30 9559 C 927.601 3.33618 2.99003 0
M  V30 9560 C 929.345 1.73505 3.87423 0
M  V30 9561 C 927.252 4.04012 4.3189 0
M  V30 9562 H 926.182 0.38899 0.645912 0
M  V30 9563 H 928.833 1.46664 1.10281 0
M  V30 9564 H 927.215 1.33948 3.72658 0
M  V30 9565 H 928.389 3.8999 2.45448 0
M  V30 9566 H 926.704 3.43732 2.35027 0
M  V30 9567 H 929.301 2.23416 4.85787 0
M  V30 9568 H 929.644 0.696344 4.10435 0
M  V30 9569 H 930.177 2.20016 3.31418 0
M  V30 9570 H 926.916 5.08155 4.14075 0
M  V30 9571 H 926.436 3.52428 4.8534 0
M  V30 9572 H 928.115 4.0987 5.00615 0
M  V30 9573 N 928.247 -1.18576 1.03814 0
M  V30 9574 C 929.658 -1.70159 0.768299 0
M  V30 9575 C 930.009 -1.8286 -0.711106 0
M  V30 9576 O 929.134 -1.5063 -1.55369 0
M  V30 9577 C 929.729 -3.09062 1.38804 0
M  V30 9578 C 928.288 -3.57866 1.16656 0
M  V30 9579 C 927.435 -2.34484 1.48029 0
M  V30 9580 H 930.386 -1.03287 1.20488 0
M  V30 9581 H 930.407 -3.72211 0.7899 0
M  V30 9582 H 929.919 -2.99785 2.46476 0
M  V30 9583 H 928.02 -3.72442 0.108471 0
M  V30 9584 H 928.133 -4.41445 1.8618 0
M  V30 9585 H 926.497 -2.38273 0.899902 0
M  V30 9586 H 927.28 -2.27829 2.56805 0
M  V30 9587 N 929.725 -0.817259 -1.34754 0
M  V30 9588 C 931.136 -0.462215 -1.80888 0
M  V30 9589 C 931.487 1.01685 -1.67794 0
M  V30 9590 O 930.612 1.79094 -1.21468 0
M  V30 9591 C 931.207 -0.832204 -3.2842 0
M  V30 9592 C 929.766 -0.52961 -3.72655 0
M  V30 9593 C 928.913 -1.05214 -2.56564 0
M  V30 9594 H 931.864 -1.00795 -1.22581 0
M  V30 9595 H 931.885 -0.133804 -3.80265 0
M  V30 9596 H 931.397 -1.90873 -3.37919 0
M  V30 9597 H 929.498 0.537743 -3.68699 0
M  V30 9598 H 929.611 -1.06971 -4.67005 0
M  V30 9599 H 927.975 -0.473949 -2.50251 0
M  V30 9600 H 928.758 -2.135 -2.68836 0
M  V30 9601 N 931.203 1.46865 -0.571711 0
M  V30 9602 C 932.451 2.0203 -0.0530022 0
M  V30 9603 C 932.772 1.44687 1.30731 0
M  V30 9604 O 932.042 0.627429 1.85581 0
M  V30 9605 H 930.622 0.746815 -0.0166035 0
M  V30 9606 H 933.284 1.80099 -0.745003 0
M  V30 9607 H 932.38 3.12091 0.0242538 0
M  V30 9608 N 932.681 0.308908 1.54543 0
M  V30 9609 C 933.909 -0.300418 2.04707 0
M  V30 9610 C 934.324 -1.46915 1.18581 0
M  V30 9611 O 933.681 -1.81251 0.213186 0
M  V30 9612 C 933.732 -0.749038 3.53655 0
M  V30 9613 O 933.453 0.373181 4.36508 0
M  V30 9614 C 934.954 -1.4227 4.1985 0
M  V30 9615 H 932.174 -0.0641267 0.667929 0
M  V30 9616 H 934.718 0.450839 1.99469 0
M  V30 9617 H 932.873 -1.4503 3.59228 0
M  V30 9618 H 933.287 0.0224752 5.24495 0
M  V30 9619 H 934.761 -1.68768 5.25568 0
M  V30 9620 H 935.238 -2.36531 3.70067 0
M  V30 9621 H 935.844 -0.764404 4.18374 0
M  V30 9622 N 934.159 -1.57557 0.0367827 0
M  V30 9623 C 935.069 -2.14148 -0.958017 0
M  V30 9624 C 936.085 -1.09564 -1.35173 0
M  V30 9625 O 937.261 -1.4166 -1.43158 0
M  V30 9626 C 934.326 -2.6636 -2.21931 0
M  V30 9627 C 933.387 -3.85688 -1.8853 0
M  V30 9628 C 932.62 -4.35401 -3.08645 0
M  V30 9629 O 932.843 -3.8425 -4.21554 0
M  V30 9630 O 931.777 -5.27158 -2.90497 0
M  V30 9631 H 935.603 -2.99442 -0.506797 0
M  V30 9632 H 933.188 -1.48259 -0.184275 0
M  V30 9633 H 935.07 -2.99976 -2.9596 0
M  V30 9634 H 933.745 -1.84145 -2.66219 0
M  V30 9635 H 932.652 -3.56985 -1.11861 0
M  V30 9636 H 933.985 -4.69089 -1.49052 0
M  V30 9637 N 935.637 0.236453 -1.55816 0
M  V30 9638 C 937.048 0.80468 -1.68469 0
M  V30 9639 C 937.399 1.85601 -0.636133 0
M  V30 9640 O 936.524 2.15323 0.215622 0
M  V30 9641 C 937.119 1.46634 -3.05424 0
M  V30 9642 C 935.678 1.98214 -3.19981 0
M  V30 9643 C 934.825 0.83695 -2.64368 0
M  V30 9644 H 937.776 0.0120647 -1.58695 0
M  V30 9645 H 937.797 2.33472 -3.00451 0
M  V30 9646 H 937.309 0.700931 -3.81718 0
M  V30 9647 H 935.41 2.77604 -2.4853 0
M  V30 9648 H 935.523 2.17235 -4.2702 0
M  V30 9649 H 933.887 1.24028 -2.22462 0
M  V30 9650 H 934.67 0.084451 -3.43196 0
M  V30 9651 N 937.115 1.49373 0.502552 0
M  V30 9652 C 938.363 1.58467 1.25429 0
M  V30 9653 C 938.684 0.272593 1.93085 0
M  V30 9654 O 937.954 -0.707947 1.82661 0
M  V30 9655 H 936.534 0.583866 0.46595 0
M  V30 9656 H 939.196 1.8599 0.582568 0
M  V30 9657 H 938.292 2.37993 2.01906 0
M  V30 9658 N 938.594 -0.753485 1.38421 0
M  V30 9659 C 939.544 -1.85788 1.32162 0
M  V30 9660 C 940.528 -1.59577 0.20588 0
M  V30 9661 O 941.72 -1.71396 0.44186 0
M  V30 9662 C 938.849 -3.23498 1.14909 0
M  V30 9663 C 937.935 -3.556 2.31105 0
M  V30 9664 N 938.326 -3.58759 3.56547 0
M  V30 9665 C 936.624 -3.85866 2.23659 0
M  V30 9666 C 937.325 -3.8813 4.33278 0
M  V30 9667 N 936.301 -4.04966 3.62635 0
M  V30 9668 H 940.103 -1.86509 2.27138 0
M  V30 9669 H 937.617 -0.950843 1.31654 0
M  V30 9670 H 939.614 -4.02531 1.08509 0
M  V30 9671 H 938.274 -3.24029 0.20866 0
M  V30 9672 H 939.285 -3.40517 3.90216 0
M  V30 9673 H 935.962 -3.94112 1.37776 0
M  V30 9674 H 937.352 -3.97197 5.41926 0
M  V30 9675 N 940.072 -1.23292 -0.981677 0
M  V30 9676 C 941.302 -1.0893 -1.7555 0
M  V30 9677 C 941.71 0.362219 -1.857 0
M  V30 9678 O 941.053 1.2624 -1.33451 0
M  V30 9679 C 941.115 -1.6389 -3.19969 0
M  V30 9680 C 940.779 -3.12632 -3.33332 0
M  V30 9681 C 941.776 -4.0994 -3.19758 0
M  V30 9682 C 939.461 -3.52314 -3.58022 0
M  V30 9683 C 941.455 -5.44915 -3.30676 0
M  V30 9684 C 939.142 -4.87434 -3.6858 0
M  V30 9685 C 940.14 -5.83544 -3.54916 0
M  V30 9686 O 939.828 -7.16209 -3.65102 0
M  V30 9687 H 939.56 -0.381901 -0.557788 0
M  V30 9688 H 942.114 -1.63586 -1.24213 0
M  V30 9689 H 940.344 -1.03653 -3.72549 0
M  V30 9690 H 942.033 -1.45023 -3.79108 0
M  V30 9691 H 942.799 -3.80625 -3.00582 0
M  V30 9692 H 938.678 -2.78022 -3.67729 0
M  V30 9693 H 942.222 -6.19913 -3.19928 0
M  V30 9694 H 938.119 -5.16426 -3.87265 0
M  V30 9695 H 938.887 -7.23941 -3.81905 0
M  V30 9696 N 941.55 1.18024 -1.04442 0
M  V30 9697 C 942.78 1.91753 -0.769044 0
M  V30 9698 C 943.188 1.76629 0.678141 0
M  V30 9699 O 942.531 1.09589 1.47431 0
M  V30 9700 C 942.593 3.43505 -1.0604 0
M  V30 9701 C 942.257 3.82409 -2.50225 0
M  V30 9702 C 943.254 3.8588 -3.48414 0
M  V30 9703 C 940.939 4.13594 -2.85036 0
M  V30 9704 C 942.933 4.19993 -4.79463 0
M  V30 9705 C 940.62 4.47377 -4.1629 0
M  V30 9706 C 941.618 4.50553 -5.13314 0
M  V30 9707 O 941.306 4.83546 -6.42214 0
M  V30 9708 H 941.038 0.615466 -0.279603 0
M  V30 9709 H 943.592 1.5065 -1.3962 0
M  V30 9710 H 941.822 3.84866 -0.376125 0
M  V30 9711 H 943.511 3.98486 -0.772235 0
M  V30 9712 H 944.277 3.6192 -3.2286 0
M  V30 9713 H 940.156 4.10297 -2.10185 0
M  V30 9714 H 943.7 4.22387 -5.55189 0
M  V30 9715 H 939.597 4.70798 -4.4161 0
M  V30 9716 H 940.365 5.01433 -6.46921 0
M  V30 9717 N 943.028 0.824394 1.34319 0
M  V30 9718 C 944.277 0.40956 1.97498 0
M  V30 9719 C 944.59 -1.03323 1.66083 0
M  V30 9720 O 945.796 -1.55205 2.22764 0
M  V30 9721 C 944.252 0.681384 3.53391 0
M  V30 9722 C 943.86 2.1379 3.93698 0
M  V30 9723 C 945.604 0.332788 4.23194 0
M  V30 9724 C 943.511 2.35453 5.42509 0
M  V30 9725 H 942.441 0.149409 0.739049 0
M  V30 9726 H 945.092 1.01095 1.5314 0
M  V30 9727 H 943.474 0.00980375 3.95999 0
M  V30 9728 H 944.648 2.84876 3.62191 0
M  V30 9729 H 942.963 2.44807 3.36836 0
M  V30 9730 H 945.56 0.472463 5.32609 0
M  V30 9731 H 945.903 -0.722862 4.09976 0
M  V30 9732 H 946.436 0.959005 3.86067 0
M  V30 9733 H 943.175 3.39529 5.60714 0
M  V30 9734 H 942.695 1.68912 5.75525 0
M  V30 9735 H 944.374 2.17885 6.09209 0
M  V30 9736 N 944.506 -1.46559 0.579492 0
M  V30 9737 C 945.922 -1.57771 0.240921 0
M  V30 9738 C 946.122 -1.57505 -1.25676 0
M  V30 9739 O 945.178 -1.4903 -2.03829 0
M  V30 9740 C 946.491 -2.87311 0.887285 0
M  V30 9741 C 948.039 -3.00937 0.860576 0
M  V30 9742 C 948.514 -4.33208 1.48642 0
M  V30 9743 N 950.005 -4.39899 1.45062 0
M  V30 9744 C 950.74 -5.40856 1.90428 0
M  V30 9745 N 950.236 -6.48503 2.43752 0
M  V30 9746 N 952.029 -5.32037 1.81364 0
M  V30 9747 H 944.18 -1.44976 1.55228 0
M  V30 9748 H 946.443 -0.691354 0.648639 0
M  V30 9749 H 946.149 -2.93307 1.94071 0
M  V30 9750 H 946.023 -3.75141 0.393577 0
M  V30 9751 H 948.41 -2.94524 -0.184223 0
M  V30 9752 H 948.491 -2.14591 1.39227 0
M  V30 9753 H 948.135 -4.40378 2.5304 0
M  V30 9754 H 948.065 -5.18323 0.92998 0
M  V30 9755 H 950.556 -3.62706 1.0608 0
M  V30 9756 H 950.869 -7.21744 2.76234 0
M  V30 9757 H 949.214 -6.49332 2.47776 0
M  V30 9758 H 952.405 -4.46841 1.39465 0
M  V30 9759 H 952.578 -6.10573 2.17035 0
M  V30 9760 N 945.984 -0.3171 -1.54377 0
M  V30 9761 C 946.934 0.567199 -2.20832 0
M  V30 9762 C 947.918 1.08661 -1.18666 0
M  V30 9763 O 949.11 1.0247 -1.44322 0
M  V30 9764 C 946.239 1.73079 -2.96477 0
M  V30 9765 C 945.325 1.22658 -4.05975 0
M  V30 9766 N 945.716 0.441565 -5.03869 0
M  V30 9767 C 944.014 1.50589 -4.19808 0
M  V30 9768 C 944.715 0.171063 -5.81448 0
M  V30 9769 N 943.691 0.755389 -5.38326 0
M  V30 9770 H 947.493 -0.0399349 -2.93873 0
M  V30 9771 H 945.007 -0.122639 -1.61936 0
M  V30 9772 H 947.004 2.37601 -3.42566 0
M  V30 9773 H 945.664 2.34146 -2.24957 0
M  V30 9774 H 946.675 0.0849921 -5.1783 0
M  V30 9775 H 943.352 2.12288 -3.595 0
M  V30 9776 H 944.742 -0.460484 -6.7032 0
M  V30 9777 N 947.462 1.57535 -0.0451378 0
M  V30 9778 C 948.692 1.96476 0.638814 0
M  V30 9779 C 949.1 0.921056 1.65267 0
M  V30 9780 O 948.443 -0.103843 1.83406 0
M  V30 9781 C 948.505 3.31629 1.38788 0
M  V30 9782 C 948.169 4.5391 0.530545 0
M  V30 9783 C 949.166 5.19512 -0.200864 0
M  V30 9784 C 946.851 5.00159 0.463242 0
M  V30 9785 C 948.845 6.29695 -0.988078 0
M  V30 9786 C 946.532 6.10221 -0.327665 0
M  V30 9787 C 947.53 6.74849 -1.05202 0
M  V30 9788 O 947.218 7.82795 -1.82993 0
M  V30 9789 H 946.95 0.651625 0.17989 0
M  V30 9790 H 949.504 2.05126 -0.106031 0
M  V30 9791 H 947.734 3.19516 2.17822 0
M  V30 9792 H 949.423 3.5536 1.96148 0
M  V30 9793 H 950.189 4.84742 -0.158299 0
M  V30 9794 H 946.068 4.49651 1.01663 0
M  V30 9795 H 949.612 6.80072 -1.55397 0
M  V30 9796 H 945.509 6.44428 -0.37189 0
M  V30 9797 H 946.277 7.99542 -1.7514 0
M  V30 9798 N 948.94 -0.228186 1.55939 0
M  V30 9799 C 950.188 -0.951668 1.78291 0
M  V30 9800 C 950.509 -1.85132 0.612474 0
M  V30 9801 O 949.779 -1.92356 -0.370942 0
M  V30 9802 H 948.359 -0.354388 0.657585 0
M  V30 9803 H 951.021 -0.241635 1.93396 0
M  V30 9804 H 950.117 -1.56239 2.70177 0
M  V30 9805 N 950.418 -1.49637 -0.494624 0
M  V30 9806 C 951.366 -1.6727 -1.61627 0
M  V30 9807 C 952.36 -0.538587 -1.6061 0
M  V30 9808 O 953.566 -0.718411 -1.65042 0
M  V30 9809 H 949.941 -0.527557 -0.535899 0
M  V30 9810 H 951.912 -2.61405 -1.43909 0
M  V30 9811 C 950.661 -1.7624 -2.99725 0
M  V30 9812 H 949.984 -2.62886 -3.01216 0
M  V30 9813 H 951.424 -1.92611 -3.77726 0
M  V30 9814 C 949.883 -0.508632 -3.33038 0
M  V30 9815 O 950.413 0.362828 -4.00058 0
M  V30 9816 N 948.619 -0.369667 -2.88239 0
M  V30 9817 H 948.166 -1.07984 -2.33875 0
M  V30 9818 H 948.124 0.468112 -3.10896 0
M  V30 9819 N 951.896 0.746133 -1.38819 0
M  V30 9820 C 952.859 1.84167 -1.36437 0
M  V30 9821 C 953.859 1.58626 -0.263499 0
M  V30 9822 O 955.049 1.66233 -0.520801 0
M  V30 9823 C 952.181 3.21769 -1.12596 0
M  V30 9824 H 953.374 1.87684 -2.33912 0
M  V30 9825 H 950.927 0.948625 -1.24221 0
M  V30 9826 H 951.662 3.23917 -0.15758 0
M  V30 9827 H 951.447 3.41702 -1.92307 0
M  V30 9828 H 952.937 4.0184 -1.13643 0
M  V30 9829 N 953.375 1.23811 0.975125 0
M  V30 9830 C 954.322 1.02394 2.06843 0
M  V30 9831 C 955.292 -0.060337 1.6599 0
M  V30 9832 O 956.477 0.0928187 1.90574 0
M  V30 9833 C 953.617 0.626882 3.39359 0
M  V30 9834 C 952.73 1.78385 3.9345 0
M  V30 9835 C 951.865 1.33307 5.14201 0
M  V30 9836 C 950.904 2.46045 5.60471 0
M  V30 9837 N 950.041 2.01888 6.72448 0
M  V30 9838 H 954.881 1.95973 2.24496 0
M  V30 9839 H 952.418 0.976206 1.10039 0
M  V30 9840 H 954.376 0.377742 4.15486 0
M  V30 9841 H 953.006 -0.271907 3.21653 0
M  V30 9842 H 952.058 2.14685 3.14029 0
M  V30 9843 H 953.37 2.63122 4.23755 0
M  V30 9844 H 952.524 1.04237 5.97678 0
M  V30 9845 H 951.263 0.456143 4.85562 0
M  V30 9846 H 950.268 2.75884 4.75571 0
M  V30 9847 H 951.493 3.34283 5.91127 0
M  V30 9848 H 949.439 1.16583 6.45558 0
M  V30 9849 H 949.356 2.80182 7.02164 0
M  V30 9850 H 950.624 1.75937 7.59386 0
M  V30 9851 N 954.853 -1.17469 1.05066 0
M  V30 9852 C 955.801 -2.23495 0.644418 0
M  V30 9853 C 956.795 -1.66081 -0.333685 0
M  V30 9854 O 958.001 -1.78887 -0.199886 0
M  V30 9855 H 954.376 -0.727546 0.190214 0
M  V30 9856 H 956.347 -2.55058 1.5488 0
M  V30 9857 C 955.096 -3.47684 0.0338051 0
M  V30 9858 H 954.419 -3.92167 0.777513 0
M  V30 9859 H 955.859 -4.23464 -0.213086 0
M  V30 9860 C 954.318 -3.14067 -1.21915 0
M  V30 9861 O 954.848 -3.28728 -2.3087 0
M  V30 9862 N 953.054 -2.68304 -1.11631 0
M  V30 9863 H 952.601 -2.56574 -0.229673 0
M  V30 9864 H 952.559 -2.46184 -1.95553 0
M  V30 9865 N 956.331 -0.831506 -1.3388 0
M  V30 9866 C 957.578 -0.423674 -1.98018 0
M  V30 9867 C 957.906 1.01533 -1.65895 0
M  V30 9868 O 957.161 1.72342 -0.927183 0
M  V30 9869 C 957.46 -0.582733 -3.52617 0
M  V30 9870 C 957.126 -1.98874 -4.04673 0
M  V30 9871 C 955.788 -2.37334 -4.186 0
M  V30 9872 C 958.14 -2.90745 -4.3257 0
M  V30 9873 C 955.468 -3.66984 -4.57755 0
M  V30 9874 C 957.82 -4.19868 -4.73174 0
M  V30 9875 C 956.484 -4.58294 -4.85307 0
M  V30 9876 H 955.754 -0.155033 -0.7246 0
M  V30 9877 H 958.401 -1.05711 -1.59679 0
M  V30 9878 H 956.706 0.134052 -3.91571 0
M  V30 9879 H 958.403 -0.247576 -4.00235 0
M  V30 9880 H 954.993 -1.68001 -3.94301 0
M  V30 9881 H 959.177 -2.62272 -4.2134 0
M  V30 9882 H 954.433 -3.9657 -4.65341 0
M  V30 9883 H 958.607 -4.91138 -4.93717 0
M  V30 9884 H 956.234 -5.58805 -5.15404 0
M  V30 9885 N 957.809 1.4625 -0.587256 0
M  V30 9886 C 959.055 2.0323 -0.0830359 0
M  V30 9887 C 959.41 1.45007 1.26455 0
M  V30 9888 O 958.703 0.607494 1.81714 0
M  V30 9889 C 958.897 3.57382 0.036328 0
M  V30 9890 C 958.726 4.30556 -1.29814 0
M  V30 9891 C 957.496 4.69285 -1.87349 0
M  V30 9892 C 959.694 4.63806 -2.22236 0
M  V30 9893 N 957.676 5.27229 -3.14488 0
M  V30 9894 C 959.047 5.22368 -3.33964 0
M  V30 9895 C 961.102 4.45738 -2.2186 0
M  V30 9896 C 959.805 5.64769 -4.45454 0
M  V30 9897 C 961.831 4.89158 -3.32383 0
M  V30 9898 C 961.193 5.47795 -4.42832 0
M  V30 9899 H 957.292 0.77856 -0.0732716 0
M  V30 9900 H 959.876 1.78343 -0.781152 0
M  V30 9901 H 958.047 3.81973 0.703621 0
M  V30 9902 H 959.779 4.01009 0.545347 0
M  V30 9903 H 956.534 4.5219 -1.40789 0
M  V30 9904 H 956.958 5.60719 -3.79372 0
M  V30 9905 H 961.6 3.99735 -1.37739 0
M  V30 9906 H 959.318 6.09748 -5.30314 0
M  V30 9907 H 962.904 4.76926 -3.33216 0
M  V30 9908 H 961.784 5.80778 -5.26941 0
M  V30 9909 N 959.287 0.325282 1.54207 0
M  V30 9910 C 960.515 -0.27869 2.05014 0
M  V30 9911 C 960.93 -1.45649 1.20133 0
M  V30 9912 O 960.287 -1.81014 0.232398 0
M  V30 9913 C 960.338 -0.711486 3.54429 0
M  V30 9914 O 960.059 0.419458 4.36087 0
M  V30 9915 C 961.56 -1.37809 4.21336 0
M  V30 9916 H 958.78 -0.0570388 0.668571 0
M  V30 9917 H 961.324 0.47197 1.98979 0
M  V30 9918 H 959.479 -1.41212 3.60746 0
M  V30 9919 H 959.893 0.0781037 5.24442 0
M  V30 9920 H 961.367 -1.63184 5.27328 0
M  V30 9921 H 961.844 -2.32593 3.72555 0
M  V30 9922 H 962.45 -0.719987 4.19161 0
M  V30 9923 N 960.765 -1.57509 0.0534917 0
M  V30 9924 C 961.697 -2.08616 -0.949322 0
M  V30 9925 C 962.71 -1.01446 -1.27328 0
M  V30 9926 O 963.899 -1.29007 -1.23367 0
M  V30 9927 C 960.999 -2.51622 -2.27024 0
M  V30 9928 C 960.172 -3.82154 -2.12785 0
M  V30 9929 C 959.231 -4.11448 -3.2802 0
M  V30 9930 O 958.257 -4.81333 -3.03822 0
M  V30 9931 N 959.459 -3.63543 -4.52567 0
M  V30 9932 H 962.224 -2.95275 -0.5131 0
M  V30 9933 H 959.785 -1.61355 -0.132693 0
M  V30 9934 H 961.777 -2.68293 -3.02986 0
M  V30 9935 H 960.347 -1.70198 -2.62205 0
M  V30 9936 H 959.567 -3.75041 -1.21399 0
M  V30 9937 H 960.855 -4.67629 -2.00501 0
M  V30 9938 H 960.253 -3.07051 -4.75117 0
M  V30 9939 H 958.81 -3.85448 -5.25617 0
M  V30 9940 N 962.243 0.219913 -1.56058 0
M  V30 9941 C 963.19 1.27254 -1.92549 0
M  V30 9942 C 964.16 1.46493 -0.782883 0
M  V30 9943 O 965.345 1.60035 -1.03892 0
M  V30 9944 C 962.485 2.61756 -2.24896 0
M  V30 9945 C 961.598 2.50302 -3.52098 0
M  V30 9946 C 960.733 3.77338 -3.73884 0
M  V30 9947 C 959.772 3.60613 -4.94595 0
M  V30 9948 N 958.909 4.79603 -5.12763 0
M  V30 9949 H 963.749 0.954352 -2.82305 0
M  V30 9950 H 961.286 0.459928 -1.39725 0
M  V30 9951 H 963.244 3.40082 -2.4166 0
M  V30 9952 H 961.874 2.91668 -1.38311 0
M  V30 9953 H 960.926 1.63401 -3.43517 0
M  V30 9954 H 962.238 2.33866 -4.40577 0
M  V30 9955 H 961.392 4.64108 -3.90754 0
M  V30 9956 H 960.131 3.96702 -2.83689 0
M  V30 9957 H 959.136 2.72228 -4.77674 0
M  V30 9958 H 960.361 3.42719 -5.86277 0
M  V30 9959 H 958.307 4.99277 -4.2551 0
M  V30 9960 H 958.224 4.65899 -5.95377 0
M  V30 9961 H 959.492 5.67794 -5.34069 0
M  V30 9962 N 963.721 1.49897 0.486681 0
M  V30 9963 C 964.97 1.59349 1.23656 0
M  V30 9964 C 965.283 0.292024 1.93408 0
M  V30 9965 O 966.489 0.265258 2.70201 0
M  V30 9966 C 964.945 2.81215 2.24602 0
M  V30 9967 C 964.553 4.18177 1.60725 0
M  V30 9968 C 966.297 3.00004 3.00329 0
M  V30 9969 C 964.204 5.31247 2.59866 0
M  V30 9970 H 963.134 0.593363 0.465227 0
M  V30 9971 H 965.785 1.76306 0.508769 0
M  V30 9972 H 964.167 2.57783 3.00606 0
M  V30 9973 H 965.341 4.51802 0.90616 0
M  V30 9974 H 963.656 4.04864 0.973362 0
M  V30 9975 H 966.253 3.81649 3.74497 0
M  V30 9976 H 966.596 2.1112 3.58795 0
M  V30 9977 H 967.129 3.23544 2.3144 0
M  V30 9978 H 963.868 6.22236 2.06161 0
M  V30 9979 H 963.388 5.02059 3.28172 0
M  V30 9980 H 965.067 5.61177 3.22009 0
M  V30 9981 N 965.199 -0.738761 1.39212 0
M  V30 9982 C 966.424 -1.5331 1.39681 0
M  V30 9983 C 966.849 -1.88098 -0.00768715 0
M  V30 9984 O 966.207 -1.51642 -0.993699 0
M  V30 9985 C 966.255 -2.79958 2.27279 0
M  V30 9986 O 965.359 -3.75727 1.70008 0
M  V30 9987 H 964.7 -0.463131 0.475821 0
M  V30 9988 H 967.23 -0.911768 1.83161 0
M  V30 9989 H 967.24 -3.28732 2.41659 0
M  V30 9990 H 965.915 -2.5397 3.29351 0
M  V30 9991 H 964.492 -3.34483 1.64851 0
M  V30 9992 N 966.677 -1.24326 -0.968545 0
M  V30 9993 C 967.587 -1.05194 -2.09694 0
M  V30 9994 C 968.603 0.00701291 -1.73999 0
M  V30 9995 O 969.779 -0.190981 -2.00492 0
M  V30 9996 C 966.844 -0.658075 -3.40397 0
M  V30 9997 C 965.905 -1.79341 -3.90045 0
M  V30 9998 C 965.138 -1.41824 -5.14511 0
M  V30 9999 O 965.361 -0.307693 -5.69569 0
M  V30 10000 O 964.295 -2.24358 -5.58522 0
M  V30 10001 H 968.121 -1.99791 -2.2873 0
M  V30 10002 H 965.706 -1.03138 -1.08088 0
M  V30 10003 H 967.588 -0.449911 -4.18991 0
M  V30 10004 H 966.263 0.258782 -3.22664 0
M  V30 10005 H 965.17 -2.05632 -3.12516 0
M  V30 10006 H 966.503 -2.68901 -4.12254 0
M  V30 10007 N 968.156 1.1691 -1.05688 0
M  V30 10008 C 969.405 1.86629 -0.765022 0
M  V30 10009 C 969.718 1.82223 0.710918 0
M  V30 10010 O 970.924 2.47462 1.11691 0
M  V30 10011 C 969.38 3.34886 -1.3183 0
M  V30 10012 C 968.988 3.47781 -2.82404 0
M  V30 10013 C 970.732 4.099 -1.10372 0
M  V30 10014 C 968.639 4.9009 -3.31008 0
M  V30 10015 H 967.569 0.699082 -0.282491 0
M  V30 10016 H 970.22 1.31989 -1.27481 0
M  V30 10017 H 968.602 3.89094 -0.736312 0
M  V30 10018 H 969.776 3.03765 -3.46502 0
M  V30 10019 H 968.091 2.86193 -3.02461 0
M  V30 10020 H 970.688 5.14894 -1.4418 0
M  V30 10021 H 971.031 4.16279 -0.0417372 0
M  V30 10022 H 971.564 3.61913 -1.65117 0
M  V30 10023 H 968.303 4.88887 -4.36657 0
M  V30 10024 H 967.823 5.34756 -2.71655 0
M  V30 10025 H 969.502 5.58881 -3.25977 0
M  V30 10026 N 969.634 0.838594 1.33437 0
M  V30 10027 C 970.882 0.433312 1.974 0
M  V30 10028 C 971.203 -1.01078 1.66758 0
M  V30 10029 O 970.473 -1.70406 0.966373 0
M  V30 10030 H 969.053 0.15724 0.730263 0
M  V30 10031 H 971.715 1.07149 1.62804 0
M  V30 10032 H 970.811 0.565144 3.06941 0
M  V30 10033 N 971.112 -1.45937 0.595003 0
M  V30 10034 C 972.36 -2.01921 0.0851368 0
M  V30 10035 C 972.681 -1.46748 -1.28413 0
M  V30 10036 O 971.951 -0.656873 -1.84559 0
M  V30 10037 H 970.531 -0.746457 0.0284826 0
M  V30 10038 H 973.193 -1.78891 0.773561 0
M  V30 10039 H 972.289 -3.1209 0.0254002 0
M  V30 10040 N 972.59 -0.333456 -1.54032 0
M  V30 10041 C 973.815 0.270517 -2.05628 0
M  V30 10042 C 974.24 1.44231 -1.20744 0
M  V30 10043 O 973.598 1.79975 -0.218822 0
M  V30 10044 C 973.646 0.673251 -3.54259 0
M  V30 10045 O 972.75 1.77448 -3.72271 0
M  V30 10046 H 972.091 0.0469753 -0.662336 0
M  V30 10047 H 974.621 -0.484739 -1.98775 0
M  V30 10048 H 974.631 0.953194 -3.96709 0
M  V30 10049 H 973.306 -0.183747 -4.15494 0
M  V30 10050 H 971.883 1.49259 -3.41725 0
M  V30 10051 N 974.068 1.57479 -0.061844 0
M  V30 10052 C 975.296 1.97429 0.618837 0
M  V30 10053 C 975.711 0.939826 1.63746 0
M  V30 10054 O 975.068 -0.0747173 1.82347 0
M  V30 10055 C 975.119 3.3746 1.29628 0
M  V30 10056 O 974.84 4.36941 0.318431 0
M  V30 10057 C 976.341 3.92228 2.06572 0
M  V30 10058 H 973.561 0.649513 0.168444 0
M  V30 10059 H 976.105 2.04078 -0.131303 0
M  V30 10060 H 974.26 3.31928 1.99757 0
M  V30 10061 H 974.674 5.18313 0.803239 0
M  V30 10062 H 976.148 4.92458 2.49377 0
M  V30 10063 H 976.625 3.28231 2.91824 0
M  V30 10064 H 977.231 4.01131 1.4133 0
M  V30 10065 N 975.546 -0.211634 1.56173 0
M  V30 10066 C 976.962 -0.56177 1.49386 0
M  V30 10067 C 977.162 -1.86666 0.758813 0
M  V30 10068 O 976.218 -2.50681 0.302534 0
M  V30 10069 C 977.531 -0.631815 2.93987 0
M  V30 10070 C 979.079 -0.721773 3.04564 0
M  V30 10071 C 979.554 -0.823075 4.50544 0
M  V30 10072 N 981.045 -0.887038 4.54627 0
M  V30 10073 C 981.78 -0.985304 5.64871 0
M  V30 10074 N 981.276 -1.0469 6.84844 0
M  V30 10075 N 983.069 -1.02121 5.52746 0
M  V30 10076 H 975.22 0.64452 2.02385 0
M  V30 10077 H 977.483 0.227466 0.920306 0
M  V30 10078 H 977.189 0.257592 3.50755 0
M  V30 10079 H 977.063 -1.4921 3.46433 0
M  V30 10080 H 979.45 -1.60162 2.47855 0
M  V30 10081 H 979.531 0.164385 2.55271 0
M  V30 10082 H 979.175 0.0523511 5.07873 0
M  V30 10083 H 979.105 -1.72479 4.97552 0
M  V30 10084 H 981.596 -0.849352 3.68231 0
M  V30 10085 H 981.909 -1.12193 7.64613 0
M  V30 10086 H 980.254 -1.01586 6.87536 0
M  V30 10087 H 983.445 -0.969814 4.57943 0
M  V30 10088 H 983.618 -1.09434 6.38693 0
M  V30 10089 N 977.024 -1.50153 -0.478725 0
M  V30 10090 C 978.249 -1.64776 -1.2595 0
M  V30 10091 C 978.674 -0.327794 -1.85222 0
M  V30 10092 O 978.032 0.707418 -1.66929 0
M  V30 10093 C 978.08 -2.73551 -2.34952 0
M  V30 10094 O 977.184 -2.34273 -3.39397 0
M  V30 10095 H 976.525 -0.550769 -0.370877 0
M  V30 10096 H 979.055 -1.96482 -0.570605 0
M  V30 10097 H 979.065 -2.96397 -2.8038 0
M  V30 10098 H 977.74 -3.69354 -1.91181 0
M  V30 10099 H 976.317 -2.21844 -2.99733 0
M  V30 10100 N 978.502 0.731368 -1.39602 0
M  V30 10101 C 979.749 1.491 -1.37024 0
M  V30 10102 C 980.077 1.94473 0.0326423 0
M  V30 10103 O 979.332 1.6737 1.01418 0
M  V30 10104 C 979.631 2.74224 -2.29208 0
M  V30 10105 C 979.297 2.477 -3.7677 0
M  V30 10106 C 977.959 2.40175 -4.16976 0
M  V30 10107 C 980.311 2.25098 -4.70086 0
M  V30 10108 C 977.639 2.08095 -5.48556 0
M  V30 10109 C 979.991 1.94534 -6.01946 0
M  V30 10110 C 978.655 1.85481 -6.41212 0
M  V30 10111 H 977.925 0.545595 -0.501405 0
M  V30 10112 H 980.572 0.839127 -1.72136 0
M  V30 10113 H 978.877 3.44171 -1.87225 0
M  V30 10114 H 980.574 3.32264 -2.24504 0
M  V30 10115 H 977.164 2.54436 -3.44906 0
M  V30 10116 H 981.348 2.29876 -4.39853 0
M  V30 10117 H 976.604 1.99611 -5.77897 0
M  V30 10118 H 980.778 1.76054 -6.73779 0
M  V30 10119 H 978.405 1.60389 -7.43088 0
M  V30 10120 N 979.98 1.24838 0.961938 0
M  V30 10121 C 980.89 1.06304 2.09133 0
M  V30 10122 C 981.906 0.00221475 1.74 0
M  V30 10123 O 983.082 0.201611 2.00388 0
M  V30 10124 C 980.147 0.676117 3.40043 0
M  V30 10125 C 979.208 1.81407 3.89089 0
M  V30 10126 C 978.441 1.44551 5.13752 0
M  V30 10127 O 978.664 0.337894 5.69398 0
M  V30 10128 O 977.598 2.27316 5.57325 0
M  V30 10129 H 981.424 2.01001 2.27667 0
M  V30 10130 H 979.009 1.0371 1.07539 0
M  V30 10131 H 980.891 0.472124 4.18747 0
M  V30 10132 H 979.566 -0.241667 3.22797 0
M  V30 10133 H 978.473 2.07286 3.11421 0
M  V30 10134 H 979.806 2.71083 4.10822 0
M  V30 10135 N 981.458 -1.16348 1.06306 0
M  V30 10136 C 982.704 -1.87158 0.781007 0
M  V30 10137 C 983.037 -1.81499 -0.690784 0
M  V30 10138 O 982.312 -1.23074 -1.50609 0
M  V30 10139 C 982.595 -3.3672 1.27639 0
M  V30 10140 C 982.448 -3.51069 2.81194 0
M  V30 10141 C 983.767 -4.31122 0.884388 0
M  V30 10142 H 980.886 -0.679586 0.285187 0
M  V30 10143 H 983.528 -1.36756 1.31901 0
M  V30 10144 H 981.678 -3.79775 0.818715 0
M  V30 10145 H 983.35 -3.16952 3.35171 0
M  V30 10146 H 981.593 -2.92976 3.19918 0
M  V30 10147 H 982.264 -4.56105 3.10921 0
M  V30 10148 H 984.74 -3.95969 1.27858 0
M  V30 10149 H 983.616 -5.34279 1.25847 0
M  V30 10150 H 983.877 -4.41598 -0.210673 0
M  V30 10151 N 982.937 -0.845659 -1.3299 0
M  V30 10152 C 983.867 -0.298957 -2.31578 0
M  V30 10153 C 984.848 0.597012 -1.59279 0
M  V30 10154 O 986.033 0.519142 -1.87132 0
M  V30 10155 C 983.163 0.521109 -3.43368 0
M  V30 10156 C 982.117 -0.279651 -4.27085 0
M  V30 10157 C 981.443 0.664591 -5.30554 0
M  V30 10158 C 982.743 -1.50046 -5.00283 0
M  V30 10159 H 984.437 -1.12272 -2.77552 0
M  V30 10160 H 981.983 -0.54132 -1.33438 0
M  V30 10161 H 983.936 0.913921 -4.1137 0
M  V30 10162 H 982.66 1.37815 -2.96099 0
M  V30 10163 H 981.319 -0.654106 -3.60717 0
M  V30 10164 H 980.967 1.51822 -4.79541 0
M  V30 10165 H 980.667 0.132871 -5.8745 0
M  V30 10166 H 982.191 1.05477 -6.01421 0
M  V30 10167 H 983.605 -1.18044 -5.61016 0
M  V30 10168 H 982.002 -1.96946 -5.66862 0
M  V30 10169 H 983.072 -2.26659 -4.28665 0
M  V30 10170 N 984.415 1.45619 -0.602734 0
M  V30 10171 C 985.663 2.01873 -0.095844 0
M  V30 10172 C 985.984 1.47427 1.27633 0
M  V30 10173 O 985.254 0.666652 1.84208 0
M  V30 10174 H 983.834 0.746295 -0.0324408 0
M  V30 10175 H 986.496 1.78478 -0.783037 0
M  V30 10176 H 985.592 3.12072 -0.0419507 0
M  V30 10177 N 985.893 0.34162 1.53853 0
M  V30 10178 C 987.121 -0.256929 2.05299 0
M  V30 10179 C 987.536 -1.44366 1.21671 0
M  V30 10180 O 986.893 -1.80758 0.251584 0
M  V30 10181 C 986.944 -0.673854 3.55164 0
M  V30 10182 O 986.665 0.465687 4.35618 0
M  V30 10183 C 988.166 -1.33332 4.22773 0
M  V30 10184 H 985.386 -0.0499445 0.669139 0
M  V30 10185 H 987.93 0.493048 1.98467 0
M  V30 10186 H 986.085 -1.37378 3.62224 0
M  V30 10187 H 986.499 0.133723 5.2433 0
M  V30 10188 H 987.973 -1.57582 5.29029 0
M  V30 10189 H 988.45 -2.28628 3.75001 0
M  V30 10190 H 989.056 -0.675489 4.19901 0
M  V30 10191 N 987.371 -1.57444 0.0701946 0
M  V30 10192 C 988.599 -1.97754 -0.608358 0
M  V30 10193 C 989.014 -0.948496 -1.63245 0
M  V30 10194 O 988.371 0.065046 -1.82384 0
M  V30 10195 C 988.422 -3.38142 -1.27836 0
M  V30 10196 O 988.143 -4.37104 -0.295255 0
M  V30 10197 C 989.644 -3.93318 -2.04489 0
M  V30 10198 H 986.864 -0.650398 -0.164997 0
M  V30 10199 H 989.408 -2.04006 0.142124 0
M  V30 10200 H 987.563 -3.32982 -1.97994 0
M  V30 10201 H 987.977 -5.18732 -0.77574 0
M  V30 10202 H 989.451 -4.93774 -2.46762 0
M  V30 10203 H 989.928 -3.29774 -2.90079 0
M  V30 10204 H 990.534 -4.01875 -1.39201 0
M  V30 10205 N 988.849 0.203349 -1.56283 0
M  V30 10206 C 990.26 0.768764 -1.70138 0
M  V30 10207 C 990.611 1.8421 -0.675358 0
M  V30 10208 O 989.736 2.15732 0.1699 0
M  V30 10209 C 990.331 1.40123 -3.08466 0
M  V30 10210 C 988.89 1.91382 -3.24114 0
M  V30 10211 C 988.037 0.780685 -2.66084 0
M  V30 10212 H 990.988 -0.0215997 -1.58685 0
M  V30 10213 H 991.009 2.27046 -3.05336 0
M  V30 10214 H 990.521 0.619805 -3.83119 0
M  V30 10215 H 988.622 2.7227 -2.54362 0
M  V30 10216 H 988.735 2.08128 -4.31531 0
M  V30 10217 H 987.099 1.19281 -2.25042 0
M  V30 10218 H 987.882 0.0116351 -3.43298 0
M  V30 10219 O 990.366 1.57692 0.348646 0
M  V30 10220 H 991.057 1.65979 0.998527 0
M  V30 END ATOM
M  V30 BEGIN BOND
M  V30 END BOND
M  V30 END CTAB
M  END
$$$$
