drugbank_target|Q9I5F3 FMN-dependent NADH-azoreductase 1 (DB08209)
 OpenBabel12092120483D

  0  0  0     0  0            999 V3000
M  V30 BEGIN CTAB
M  V30 COUNTS 3233 3265 0 0 0
M  V30 BEGIN ATOM
M  V30 1 H -0.908 1.98254 -0.117106 0
M  V30 2 N 0 1.576 0 0
M  V30 3 C 0.933 2.03868 1.02534 0
M  V30 4 C 1.911 0.928543 1.3348 0
M  V30 5 O 3.095 1.19667 1.45644 0
M  V30 6 C 0.222 2.43627 2.35294 0
M  V30 7 C -0.732 3.65373 2.2001 0
M  V30 8 S 0.101 5.13292 1.52614 0
M  V30 9 C 1.257 5.56322 2.86805 0
M  V30 10 H 1.49 2.90518 0.631377 0
M  V30 11 H -0.977 1.52953 0.210867 0
M  V30 12 H 0.981 2.67203 3.11629 0
M  V30 13 H -0.358 1.57376 2.7183 0
M  V30 14 H -1.165 3.90944 3.18086 0
M  V30 15 H -1.563 3.418 1.51819 0
M  V30 16 H 0.729 5.58782 3.83104 0
M  V30 17 H 1.672 6.56266 2.65933 0
M  V30 18 H 2.08 4.83886 2.90714 0
M  V30 19 N 1.4781 -0.272755 1.55222 0
M  V30 20 C 2.7031 -1.02683 1.80197 0
M  V30 21 C 3.1281 -1.79142 0.573551 0
M  V30 22 O 2.4861 -1.74917 -0.476849 0
M  V30 23 C 2.5341 -1.9609 3.02624 0
M  V30 24 O 1.6381 -3.04863 2.77727 0
M  V30 25 H 0.9791 -0.293557 0.595584 0
M  V30 26 H 3.5091 -0.30159 2.02365 0
M  V30 27 H 3.5191 -2.38039 3.31363 0
M  V30 28 H 2.1941 -1.39851 3.91682 0
M  V30 29 H 0.7711 -2.67228 2.60084 0
M  V30 30 N 2.9562 -1.48159 -0.537278 0
M  V30 31 C 4.3722 -1.34118 -0.865129 0
M  V30 32 C 4.5722 -0.346678 -1.98495 0
M  V30 33 O 3.6282 0.234715 -2.51407 0
M  V30 34 C 4.9412 -2.73963 -1.23954 0
M  V30 35 C 6.4892 -2.82397 -1.34984 0
M  V30 36 C 6.9642 -4.22928 -1.75772 0
M  V30 37 N 8.4552 -4.25566 -1.82887 0
M  V30 38 C 9.1902 -5.31235 -2.15817 0
M  V30 39 N 8.6862 -6.47189 -2.47222 0
M  V30 40 N 10.4792 -5.18624 -2.16761 0
M  V30 41 H 2.6302 -2.1144 0.201715 0
M  V30 42 H 4.8932 -0.947598 0.0275949 0
M  V30 43 H 4.5992 -3.48264 -0.490381 0
M  V30 44 H 4.4732 -3.0702 -2.19132 0
M  V30 45 H 6.8602 -2.08356 -2.08978 0
M  V30 46 H 6.9412 -2.5297 -0.379448 0
M  V30 47 H 6.5852 -4.97482 -1.02341 0
M  V30 48 H 6.5152 -4.49794 -2.73848 0
M  V30 49 H 9.0062 -3.41924 -1.60924 0
M  V30 50 H 9.3192 -7.23564 -2.71433 0
M  V30 51 H 7.6642 -6.50476 -2.44757 0
M  V30 52 H 10.8552 -4.27056 -1.91679 0
M  V30 53 H 11.0282 -6.01078 -2.42093 0
M  V30 54 N 4.4343 0.785586 -1.36625 0
M  V30 55 C 5.6833 1.53883 -1.30396 0
M  V30 56 C 5.9963 1.95271 0.113452 0
M  V30 57 O 7.2023 2.69858 0.298142 0
M  V30 58 C 5.6583 2.77808 -2.28802 0
M  V30 59 C 5.2663 2.43574 -3.75999 0
M  V30 60 C 7.0103 3.55783 -2.31558 0
M  V30 61 C 4.9173 3.63919 -4.66173 0
M  V30 62 H 3.8473 0.577678 -0.484566 0
M  V30 63 H 6.4983 0.861705 -1.62009 0
M  V30 64 H 4.8803 3.47339 -1.90188 0
M  V30 65 H 6.0543 1.81916 -4.23371 0
M  V30 66 H 4.3693 1.78803 -3.76056 0
M  V30 67 H 6.9663 4.45205 -2.96137 0
M  V30 68 H 7.3093 3.94644 -1.3252 0
M  V30 69 H 7.8423 2.93235 -2.68809 0
M  V30 70 H 4.5813 3.3015 -5.66287 0
M  V30 71 H 4.1013 4.2473 -4.23515 0
M  V30 72 H 5.7803 4.30901 -4.82632 0
M  V30 73 N 5.9124 1.20967 1.01018 0
M  V30 74 C 6.8424 0.988272 2.11555 0
M  V30 75 C 7.8234 -0.0849778 1.69888 0
M  V30 76 O 9.0084 0.0738202 1.9406 0
M  V30 77 C 6.1384 0.546528 3.42973 0
M  V30 78 C 5.0924 1.56375 3.9841 0
M  V30 79 C 4.4184 0.97842 5.25672 0
M  V30 80 C 5.7184 2.94922 4.31066 0
M  V30 81 H 7.4124 1.91276 2.30334 0
M  V30 82 H 4.9584 0.921073 1.1069 0
M  V30 83 H 6.9114 0.378839 4.19694 0
M  V30 84 H 5.6354 -0.413598 3.23971 0
M  V30 85 H 4.2944 1.71891 3.23804 0
M  V30 86 H 3.9424 0.0101688 5.02999 0
M  V30 87 H 3.6424 1.65784 5.63728 0
M  V30 88 H 5.1664 0.821939 6.05043 0
M  V30 89 H 6.5804 2.8288 4.9865 0
M  V30 90 H 4.9774 3.5983 4.80253 0
M  V30 91 H 6.0474 3.4616 3.39561 0
M  V30 92 N 7.3905 -1.2043 1.01659 0
M  V30 93 C 8.3535 -2.21433 0.591616 0
M  V30 94 C 9.3535 -1.57203 -0.338226 0
M  V30 95 O 10.5435 -1.73737 -0.126918 0
M  V30 96 C 7.6755 -3.40628 -0.136058 0
M  V30 97 H 8.8685 -2.60545 1.48514 0
M  V30 98 H 6.4215 -1.33893 0.806379 0
M  V30 99 H 7.1565 -3.07019 -1.04449 0
M  V30 100 H 6.9415 -3.88475 0.531917 0
M  V30 101 H 8.4315 -4.15475 -0.420735 0
M  V30 102 N 8.8686 -0.792821 -1.36206 0
M  V30 103 C 10.1146 -0.36733 -1.99446 0
M  V30 104 C 10.4476 1.05917 -1.62774 0
M  V30 105 O 9.7226 1.7324 -0.88421 0
M  V30 106 C 10.0056 -0.535044 -3.56103 0
M  V30 107 C 9.8586 -2.00548 -4.02617 0
M  V30 108 C 11.1776 0.0478191 -4.40074 0
M  V30 109 H 8.2966 -0.134941 -0.724541 0
M  V30 110 H 10.9386 -0.999794 -1.61568 0
M  V30 111 H 9.0886 0.00336329 -3.885 0
M  V30 112 H 10.7606 -2.60521 -3.80692 0
M  V30 113 H 9.0036 -2.50686 -3.54032 0
M  V30 114 H 9.6746 -2.07377 -5.11565 0
M  V30 115 H 12.1506 -0.411822 -4.14057 0
M  V30 116 H 11.0266 -0.0995336 -5.4881 0
M  V30 117 H 11.2876 1.14025 -4.27142 0
M  V30 118 N 10.3467 1.47872 -0.545128 0
M  V30 119 C 11.2967 2.26842 0.229456 0
M  V30 120 C 12.2807 1.33626 0.896267 0
M  V30 121 O 13.4727 1.58063 0.79657 0
M  V30 122 C 10.6017 3.19089 1.26638 0
M  V30 123 C 9.6877 4.19783 0.603598 0
M  V30 124 N 10.0787 5.0479 -0.319405 0
M  V30 125 C 8.3767 4.3765 0.858989 0
M  V30 126 C 9.0777 5.77433 -0.703241 0
M  V30 127 N 8.0537 5.43566 -0.0608309 0
M  V30 128 H 11.8557 2.89947 -0.480391 0
M  V30 129 H 9.3697 1.58263 -0.364209 0
M  V30 130 H 11.3667 3.74337 1.83515 0
M  V30 131 H 10.0267 2.5754 1.97745 0
M  V30 132 H 11.0377 5.13244 -0.692889 0
M  V30 133 H 7.7147 3.87281 1.55948 0
M  V30 134 H 9.1047 6.55824 -1.46098 0
M  V30 135 N 11.8248 0.280983 1.55075 0
M  V30 136 C 12.7878 -0.590896 2.21452 0
M  V30 137 C 13.7878 -1.07682 1.19421 0
M  V30 138 O 14.9778 -0.97605 1.44288 0
M  V30 139 C 12.1098 -1.81587 2.88511 0
M  V30 140 H 13.3028 -0.0112554 2.99898 0
M  V30 141 H 10.8558 0.0316438 1.56268 0
M  V30 142 H 11.5908 -2.43587 2.14093 0
M  V30 143 H 11.3758 -1.4753 3.63287 0
M  V30 144 H 12.8658 -2.43575 3.39206 0
M  V30 145 N 13.3029 -1.57598 0.00835791 0
M  V30 146 C 14.5279 -1.95617 -0.689103 0
M  V30 147 C 14.9529 -0.883753 -1.66046 0
M  V30 148 O 14.3109 0.157352 -1.80616 0
M  V30 149 C 14.3589 -3.32736 -1.38994 0
M  V30 150 O 13.4629 -3.27631 -2.50463 0
M  V30 151 H 12.8039 -0.638379 -0.182668 0
M  V30 152 H 15.3339 -2.045 0.064036 0
M  V30 153 H 15.3439 -3.68494 -1.75147 0
M  V30 154 H 14.0189 -4.1034 -0.677778 0
M  V30 155 H 12.5959 -3.03561 -2.16576 0
M  V30 156 N 14.781 0.264519 -1.55364 0
M  V30 157 C 16.192 0.834936 -1.6699 0
M  V30 158 C 16.543 1.86718 -0.602552 0
M  V30 159 O 15.668 2.14899 0.254425 0
M  V30 160 C 16.263 1.5212 -3.02729 0
M  V30 161 C 14.822 2.03954 -3.16354 0
M  V30 162 C 13.969 0.884498 -2.62815 0
M  V30 163 H 16.92 0.0406869 -1.58648 0
M  V30 164 H 16.941 2.38853 -2.96191 0
M  V30 165 H 16.453 0.769668 -3.80392 0
M  V30 166 H 14.554 2.82041 -2.43482 0
M  V30 167 H 14.667 2.24902 -4.23032 0
M  V30 168 H 13.031 1.2802 -2.20188 0
M  V30 169 H 13.814 0.14634 -3.42988 0
M  V30 170 N 16.2591 1.48442 0.529413 0
M  V30 171 C 17.6751 1.34575 0.858004 0
M  V30 172 C 17.8751 0.3572 1.98309 0
M  V30 173 O 16.9311 -0.221379 2.51528 0
M  V30 174 C 18.2441 2.74617 1.22499 0
M  V30 175 C 19.7921 2.83109 1.33484 0
M  V30 176 C 20.2671 4.23854 1.73526 0
M  V30 177 N 21.7581 4.2653 1.80628 0
M  V30 178 C 22.4931 5.32372 2.12997 0
M  V30 179 N 21.9891 6.48491 2.43786 0
M  V30 180 N 23.7821 5.19766 2.14008 0
M  V30 181 H 15.9331 2.1133 -0.212925 0
M  V30 182 H 18.1961 0.947439 -0.0326199 0
M  V30 183 H 17.9021 3.4852 0.471905 0
M  V30 184 H 17.7761 3.08177 2.17501 0
M  V30 185 H 20.1631 2.09462 2.0787 0
M  V30 186 H 20.2441 2.53168 0.366027 0
M  V30 187 H 19.8881 4.98018 0.997013 0
M  V30 188 H 19.8181 4.5124 2.71459 0
M  V30 189 H 22.3091 3.42772 1.59108 0
M  V30 190 H 22.6221 7.24993 2.67592 0
M  V30 191 H 20.9671 6.51765 2.41304 0
M  V30 192 H 24.1581 4.28066 1.89412 0
M  V30 193 H 24.3311 6.02354 2.38902 0
M  V30 194 N 17.7372 -0.778329 1.37039 0
M  V30 195 C 18.9852 -1.53361 1.31623 0
M  V30 196 C 19.3062 -1.94739 -0.100831 0
M  V30 197 O 18.5762 -1.65797 -1.04347 0
M  V30 198 H 17.1562 -0.568794 0.484234 0
M  V30 199 H 19.8182 -0.926742 1.71457 0
M  V30 200 H 18.9142 -2.43606 1.95096 0
M  V30 201 N 19.2153 -1.21501 -1.00376 0
M  V30 202 C 20.1253 -0.991447 -2.12621 0
M  V30 203 C 21.1413 0.0568446 -1.73907 0
M  V30 204 O 22.3173 -0.13348 -2.00957 0
M  V30 205 C 19.3823 -0.560312 -3.42142 0
M  V30 206 C 18.4433 -1.68096 -3.95022 0
M  V30 207 C 17.6763 -1.2703 -5.18362 0
M  V30 208 O 17.8993 -0.144438 -5.70217 0
M  V30 209 O 16.8333 -2.08269 -5.64719 0
M  V30 210 H 20.6593 -1.93158 -2.34358 0
M  V30 211 H 18.2443 -0.999999 -1.10997 0
M  V30 212 H 20.1263 -0.329724 -4.20108 0
M  V30 213 H 18.8013 0.351089 -3.2179 0
M  V30 214 H 17.7083 -1.96597 -3.18278 0
M  V30 215 H 19.0413 -2.56983 -4.19786 0
M  V30 216 N 20.6934 1.19889 -1.02296 0
M  V30 217 C 22.1094 1.41462 -0.738954 0
M  V30 218 C 22.3094 1.89721 0.678846 0
M  V30 219 O 21.3654 2.07016 1.4457 0
M  V30 220 C 22.6784 2.43083 -1.77005 0
M  V30 221 C 24.2264 2.5684 -1.78892 0
M  V30 222 C 24.7014 3.61709 -2.80945 0
M  V30 223 N 26.1924 3.69199 -2.79725 0
M  V30 224 C 26.9274 4.50019 -3.55345 0
M  V30 225 N 26.4234 5.34592 -4.40662 0
M  V30 226 N 28.2164 4.44612 -3.43914 0
M  V30 227 H 20.3674 0.868827 -1.93817 0
M  V30 228 H 22.6304 0.44399 -0.837602 0
M  V30 229 H 22.3364 2.14636 -2.78612 0
M  V30 230 H 22.2104 3.4217 -1.58744 0
M  V30 231 H 24.5974 2.84614 -0.779674 0
M  V30 232 H 24.6784 1.57927 -2.01228 0
M  V30 233 H 24.3224 3.34678 -3.82038 0
M  V30 234 H 24.2524 4.60259 -2.5587 0
M  V30 235 H 26.7434 3.08794 -2.17842 0
M  V30 236 H 27.0564 5.93363 -4.95116 0
M  V30 237 H 25.4014 5.34073 -4.44737 0
M  V30 238 H 28.5924 3.7758 -2.76679 0
M  V30 239 H 28.7654 5.0736 -4.031 0
M  V30 240 N 22.1715 0.800033 1.35784 0
M  V30 241 C 23.3965 0.388511 2.03729 0
M  V30 242 C 23.8215 -0.990481 1.5991 0
M  V30 243 O 23.1795 -1.64013 0.772612 0
M  V30 244 C 23.2275 0.4726 3.5749 0
M  V30 245 O 22.3315 -0.51646 4.09153 0
M  V30 246 H 21.6725 0.163271 0.643614 0
M  V30 247 H 24.2025 1.0841 1.73518 0
M  V30 248 H 24.2125 0.34003 4.06581 0
M  V30 249 H 22.8875 1.47848 3.88734 0
M  V30 250 H 21.4645 -0.344673 3.71304 0
M  V30 251 N 23.6496 -1.47581 0.552962 0
M  V30 252 C 24.5816 -2.27997 -0.234533 0
M  V30 253 C 25.5946 -1.36753 -0.883321 0
M  V30 254 O 26.7836 -1.61612 -0.757889 0
M  V30 255 C 23.8836 -3.10879 -1.34935 0
M  V30 256 C 23.0566 -4.30056 -0.798158 0
M  V30 257 C 22.1156 -4.94567 -1.79694 0
M  V30 258 O 21.1416 -5.53087 -1.34474 0
M  V30 259 N 22.3436 -4.88878 -3.13015 0
M  V30 260 H 25.1086 -2.96222 0.455255 0
M  V30 261 H 22.6696 -1.57163 0.388761 0
M  V30 262 H 24.6616 -3.50903 -2.01616 0
M  V30 263 H 23.2316 -2.44924 -1.94244 0
M  V30 264 H 22.4516 -3.94174 0.0453079 0
M  V30 265 H 23.7396 -5.07152 -0.409173 0
M  V30 266 H 23.1376 -4.42526 -3.52402 0
M  V30 267 H 21.6946 -5.32934 -3.75266 0
M  V30 268 N 25.1277 -0.289203 -1.54924 0
M  V30 269 C 26.3527 0.329299 -2.04769 0
M  V30 270 C 26.7777 1.4763 -1.16564 0
M  V30 271 O 26.1357 1.80527 -0.167186 0
M  V30 272 C 26.1837 0.774438 -3.52186 0
M  V30 273 O 25.2877 1.88038 -3.67036 0
M  V30 274 H 24.6287 0.0659259 -0.660719 0
M  V30 275 H 27.1587 -0.42761 -2.00082 0
M  V30 276 H 27.1687 1.06642 -3.93816 0
M  V30 277 H 25.8437 -0.0646707 -4.1585 0
M  V30 278 H 24.4207 1.58985 -3.3731 0
M  V30 279 N 26.6058 1.57591 -0.0167156 0
M  V30 280 C 28.0218 1.55946 0.339557 0
M  V30 281 C 28.2218 1.02109 1.73713 0
M  V30 282 O 27.2778 0.662303 2.43659 0
M  V30 283 C 28.5908 3.00037 0.199499 0
M  V30 284 C 30.1388 3.11805 0.273193 0
M  V30 285 C 30.6138 4.57713 0.162068 0
M  V30 286 N 32.1048 4.6268 0.219444 0
M  V30 287 C 32.8398 5.73185 0.157054 0
M  V30 288 N 32.3358 6.92786 0.0442936 0
M  V30 289 N 34.1288 5.61707 0.21014 0
M  V30 290 H 26.2798 1.90921 -0.930758 0
M  V30 291 H 28.5428 0.877674 -0.358319 0
M  V30 292 H 28.2488 3.4333 -0.76273 0
M  V30 293 H 28.1228 3.64387 0.974786 0
M  V30 294 H 30.5098 2.68433 1.22587 0
M  V30 295 H 30.5908 2.50201 -0.532256 0
M  V30 296 H 30.2348 5.01763 -0.78714 0
M  V30 297 H 30.1648 5.17283 0.986222 0
M  V30 298 H 32.6558 3.76649 0.307246 0
M  V30 299 H 32.9688 7.728 0.00304069 0
M  V30 300 H 31.3138 6.94999 0.00968457 0
M  V30 301 H 34.5048 4.6716 0.296546 0
M  V30 302 H 34.6778 6.47807 0.158054 0
M  V30 303 N 28.0839 -0.256276 1.55502 0
M  V30 304 C 29.4999 -0.604325 1.47716 0
M  V30 305 C 29.6999 -1.88763 0.705039 0
M  V30 306 O 28.7559 -2.51445 0.230613 0
M  V30 307 C 30.0689 -0.715756 2.92057 0
M  V30 308 C 31.6169 -0.808706 3.02372 0
M  V30 309 C 32.0919 -0.951777 4.48001 0
M  V30 310 N 33.5829 -1.01688 4.519 0
M  V30 311 C 34.3179 -1.14668 5.61817 0
M  V30 312 N 33.8139 -1.24261 6.81565 0
M  V30 313 N 35.6069 -1.1791 5.49594 0
M  V30 314 H 27.7579 0.586291 2.04148 0
M  V30 315 H 30.0209 0.201015 0.926443 0
M  V30 316 H 29.7269 0.157027 3.51349 0
M  V30 317 H 29.6009 -1.59071 3.42018 0
M  V30 318 H 31.9879 -1.67195 2.43166 0
M  V30 319 H 32.0689 0.0912063 2.55637 0
M  V30 320 H 31.7129 -0.0931291 5.07815 0
M  V30 321 H 31.6429 -1.86659 4.92408 0
M  V30 322 H 34.1339 -0.954468 3.65648 0
M  V30 323 H 34.4469 -1.34046 7.61086 0
M  V30 324 H 32.7919 -1.21236 6.84344 0
M  V30 325 H 35.9829 -1.10057 4.54978 0
M  V30 326 H 36.1559 -1.27681 6.35296 0
M  V30 327 N 29.562 -1.4872 -0.521534 0
M  V30 328 C 30.492 -1.66771 -1.63431 0
M  V30 329 C 31.473 -0.516499 -1.62069 0
M  V30 330 O 32.658 -0.750013 -1.79132 0
M  V30 331 C 29.788 -1.71515 -3.01993 0
M  V30 332 C 28.742 -2.86222 -3.18216 0
M  V30 333 C 28.068 -2.76061 -4.57924 0
M  V30 334 C 29.368 -4.27419 -3.00184 0
M  V30 335 H 31.062 -2.59932 -1.48579 0
M  V30 336 H 28.608 -1.25089 -0.713358 0
M  V30 337 H 30.561 -1.82731 -3.7972 0
M  V30 338 H 29.285 -0.749393 -3.17886 0
M  V30 339 H 27.944 -2.74575 -2.42908 0
M  V30 340 H 27.592 -1.77437 -4.70665 0
M  V30 341 H 27.292 -3.53037 -4.69722 0
M  V30 342 H 28.816 -2.89256 -5.37739 0
M  V30 343 H 30.23 -4.39855 -3.67697 0
M  V30 344 H 28.627 -5.05458 -3.2347 0
M  V30 345 H 29.697 -4.43293 -1.96518 0
M  V30 346 N 31.0401 0.771051 -1.3745 0
M  V30 347 C 32.0031 1.86598 -1.33093 0
M  V30 348 C 33.0031 1.59076 -0.234845 0
M  V30 349 O 34.1931 1.67145 -0.490732 0
M  V30 350 C 31.3251 3.23747 -1.06773 0
M  V30 351 H 32.5181 1.91873 -2.30488 0
M  V30 352 H 30.0711 0.970876 -1.2249 0
M  V30 353 H 30.8061 3.24148 -0.099129 0
M  V30 354 H 30.5911 3.45115 -1.86112 0
M  V30 355 H 32.0811 4.03824 -1.06377 0
M  V30 356 N 32.5182 1.22032 0.997298 0
M  V30 357 C 33.4282 1.00271 2.12092 0
M  V30 358 C 34.4442 -0.047621 1.73935 0
M  V30 359 O 35.6202 0.144136 2.00884 0
M  V30 360 C 32.6852 0.578449 3.4184 0
M  V30 361 C 31.7462 1.70189 3.94125 0
M  V30 362 C 30.9792 1.29778 5.17681 0
M  V30 363 O 31.2022 0.174676 5.70132 0
M  V30 364 O 30.1362 2.11261 5.63607 0
M  V30 365 H 33.9622 1.94398 2.3333 0
M  V30 366 H 31.5472 1.00587 1.10465 0
M  V30 367 H 33.4292 0.351998 4.19927 0
M  V30 368 H 32.1042 -0.334019 3.21972 0
M  V30 369 H 31.0112 1.98282 3.1723 0
M  V30 370 H 32.3442 2.59206 4.18417 0
M  V30 371 N 33.9963 -1.19345 1.0293 0
M  V30 372 C 35.2423 -1.89318 0.727083 0
M  V30 373 C 35.5753 -1.79446 -0.742483 0
M  V30 374 O 34.8503 -1.1871 -1.54072 0
M  V30 375 C 35.1333 -3.40238 1.17942 0
M  V30 376 C 34.9863 -3.58979 2.71024 0
M  V30 377 C 36.3053 -4.33479 0.760548 0
M  V30 378 H 33.4243 -0.687475 0.265606 0
M  V30 379 H 36.0663 -1.40477 1.2793 0
M  V30 380 H 34.2163 -3.81964 0.709608 0
M  V30 381 H 35.8883 -3.26421 3.25955 0
M  V30 382 H 34.1313 -3.02018 3.11396 0
M  V30 383 H 34.8023 -4.64823 2.9773 0
M  V30 384 H 37.2783 -3.99469 1.16464 0
M  V30 385 H 36.1543 -5.37664 1.10493 0
M  V30 386 H 36.4153 -4.40813 -0.337063 0
M  V30 387 N 35.4744 -0.807222 -1.35358 0
M  V30 388 C 36.7214 -0.387888 -1.9875 0
M  V30 389 C 37.0494 1.04509 -1.64037 0
M  V30 390 O 36.3044 1.73986 -0.895946 0
M  V30 391 C 36.6034 -0.519036 -3.53611 0
M  V30 392 C 36.2694 -1.91542 -4.08194 0
M  V30 393 C 34.9314 -2.29745 -4.22813 0
M  V30 394 C 37.2834 -2.82896 -4.37744 0
M  V30 395 C 34.6114 -3.58668 -4.643 0
M  V30 396 C 36.9634 -4.11265 -4.8067 0
M  V30 397 C 35.6274 -4.49466 -4.93494 0
M  V30 398 H 34.8974 -0.141938 -0.727279 0
M  V30 399 H 37.5444 -1.02814 -1.6156 0
M  V30 400 H 35.8494 0.204658 -3.91265 0
M  V30 401 H 37.5464 -0.175345 -4.00616 0
M  V30 402 H 34.1364 -1.60862 -3.97268 0
M  V30 403 H 38.3204 -2.54629 -4.26002 0
M  V30 404 H 33.5764 -3.88113 -4.72418 0
M  V30 405 H 37.7504 -4.82153 -5.02496 0
M  V30 406 H 35.3774 -5.49418 -5.25399 0
M  V30 407 N 36.9525 1.47285 -0.560781 0
M  V30 408 C 37.8825 2.32857 0.173105 0
M  V30 409 C 38.8635 1.44009 0.905281 0
M  V30 410 O 40.0485 1.7286 0.885046 0
M  V30 411 C 37.1785 3.25861 1.20133 0
M  V30 412 C 36.1325 4.23978 0.585388 0
M  V30 413 C 35.4585 5.06332 1.7185 0
M  V30 414 C 36.7585 5.20242 -0.463178 0
M  V30 415 H 38.4525 2.94466 -0.541307 0
M  V30 416 H 35.9985 1.41601 -0.261764 0
M  V30 417 H 37.9515 3.84569 1.72293 0
M  V30 418 H 36.6755 2.62315 1.94573 0
M  V30 419 H 35.3345 3.66501 0.085054 0
M  V30 420 H 34.9825 4.39186 2.45203 0
M  V30 421 H 34.6825 5.72762 1.31213 0
M  V30 422 H 36.2065 5.67899 2.24329 0
M  V30 423 H 37.6205 5.73293 -0.027502 0
M  V30 424 H 36.0175 5.94896 -0.788627 0
M  V30 425 H 37.0875 4.65504 -1.35773 0
M  V30 426 N 38.4306 0.297415 1.54768 0
M  V30 427 C 39.3936 -0.567375 2.22066 0
M  V30 428 C 40.3936 -1.06409 1.20556 0
M  V30 429 O 41.5836 -0.960691 1.45315 0
M  V30 430 C 38.7156 -1.78517 2.90421 0
M  V30 431 H 39.9086 0.0205534 2.99893 0
M  V30 432 H 37.4616 0.0482163 1.56226 0
M  V30 433 H 38.1966 -2.41303 2.16664 0
M  V30 434 H 37.9816 -1.43669 3.64831 0
M  V30 435 H 39.4716 -2.39964 3.41771 0
M  V30 436 N 39.9087 -1.5758 0.0250728 0
M  V30 437 C 40.8717 -2.08896 -0.943139 0
M  V30 438 C 41.8717 -1.00321 -1.25668 0
M  V30 439 O 43.0617 -1.26495 -1.19769 0
M  V30 440 C 40.1937 -2.55143 -2.26086 0
M  V30 441 H 41.3867 -2.95723 -0.498775 0
M  V30 442 H 38.9397 -1.54703 -0.222888 0
M  V30 443 H 39.6747 -1.71633 -2.75159 0
M  V30 444 H 39.4597 -3.34461 -2.04641 0
M  V30 445 H 40.9497 -2.95083 -2.95492 0
M  V30 446 N 41.3868 0.248026 -1.55636 0
M  V30 447 C 42.6168 0.992367 -1.81206 0
M  V30 448 C 43.0248 1.7949 -0.598324 0
M  V30 449 O 42.3678 1.78292 0.442434 0
M  V30 450 C 42.4298 1.97926 -3.00109 0
M  V30 451 C 42.0938 1.36377 -4.36177 0
M  V30 452 C 43.0908 0.76682 -5.14214 0
M  V30 453 C 40.7758 1.38347 -4.82872 0
M  V30 454 C 42.7698 0.197778 -6.37093 0
M  V30 455 C 40.4568 0.810574 -6.057 0
M  V30 456 C 41.4548 0.218754 -6.8265 0
M  V30 457 O 41.1428 -0.345298 -8.03158 0
M  V30 458 H 40.8748 0.297704 -0.606917 0
M  V30 459 H 43.4288 0.276517 -2.0353 0
M  V30 460 H 41.6588 2.73339 -2.73538 0
M  V30 461 H 43.3478 2.58694 -3.12781 0
M  V30 462 H 44.1138 0.744114 -4.79258 0
M  V30 463 H 39.9928 1.8335 -4.2297 0
M  V30 464 H 43.5368 -0.264788 -6.97097 0
M  V30 465 H 39.4338 0.830604 -6.40134 0
M  V30 466 H 40.2018 -0.237055 -8.18157 0
M  V30 467 N 42.8649 1.48995 0.513639 0
M  V30 468 C 44.2809 1.35478 0.843682 0
M  V30 469 C 44.4809 0.378213 1.97919 0
M  V30 470 O 43.5369 -0.194689 2.51748 0
M  V30 471 C 44.8499 2.75901 1.1958 0
M  V30 472 C 46.3979 2.84509 1.30474 0
M  V30 473 C 46.8729 4.25671 1.69021 0
M  V30 474 N 48.3639 4.28422 1.76094 0
M  V30 475 C 49.0989 5.34601 2.07338 0
M  V30 476 N 48.5949 6.5104 2.36894 0
M  V30 477 N 50.3879 5.22007 2.08483 0
M  V30 478 H 42.5389 2.11092 -0.235328 0
M  V30 479 H 44.8019 0.947039 -0.0426669 0
M  V30 480 H 44.5079 3.49001 0.434913 0
M  V30 481 H 44.3819 3.10467 2.1422 0
M  V30 482 H 46.7689 2.11655 2.05637 0
M  V30 483 H 46.8499 2.53542 0.339155 0
M  V30 484 H 46.4939 4.99048 0.944135 0
M  V30 485 H 46.4239 4.54094 2.66658 0
M  V30 486 H 48.9149 3.44441 1.55464 0
M  V30 487 H 49.2279 7.2779 2.59887 0
M  V30 488 H 47.5729 6.54287 2.34378 0
M  V30 489 H 50.7639 4.30051 1.84861 0
M  V30 490 H 50.9369 6.04854 2.325 0
M  V30 491 N 44.343 -0.763751 1.37857 0
M  V30 492 C 45.253 -1.90817 1.36478 0
M  V30 493 C 46.269 -1.71997 0.263248 0
M  V30 494 O 47.445 -1.95095 0.499979 0
M  V30 495 C 44.51 -3.2605 1.17864 0
M  V30 496 C 43.571 -3.57467 2.3773 0
M  V30 497 C 42.804 -4.86249 2.19995 0
M  V30 498 O 43.027 -5.57884 1.18836 0
M  V30 499 O 41.961 -5.16911 3.08361 0
M  V30 500 H 45.787 -1.94933 2.32884 0
M  V30 501 H 43.372 -0.907619 1.1867 0
M  V30 502 H 45.254 -4.06924 1.09504 0
M  V30 503 H 43.929 -3.22769 0.245372 0
M  V30 504 H 42.836 -2.76796 2.51664 0
M  V30 505 H 44.169 -3.655 3.29652 0
M  V30 506 N 45.8211 -1.22559 -0.990812 0
M  V30 507 C 46.7841 -0.998863 -2.0629 0
M  V30 508 C 47.7841 0.0354834 -1.60761 0
M  V30 509 O 48.9741 -0.203231 -1.7301 0
M  V30 510 C 46.1061 -0.509203 -3.37076 0
M  V30 511 H 47.2991 -1.95014 -2.27837 0
M  V30 512 H 44.8521 -1.04456 -1.16269 0
M  V30 513 H 45.5871 0.446335 -3.21214 0
M  V30 514 H 45.3721 -1.25547 -3.71457 0
M  V30 515 H 46.8621 -0.370888 -4.1595 0
M  V30 516 N 47.2992 1.18797 -1.03562 0
M  V30 517 C 48.2492 2.20161 -0.592724 0
M  V30 518 C 49.2332 1.56772 0.362133 0
M  V30 519 O 50.4252 1.76062 0.182009 0
M  V30 520 C 47.5542 3.43266 0.0481024 0
M  V30 521 C 46.6402 4.13786 -0.9296 0
M  V30 522 N 47.0312 4.60388 -2.09467 0
M  V30 523 C 45.3292 4.39572 -0.754499 0
M  V30 524 C 46.0302 5.14619 -2.71187 0
M  V30 525 N 45.0062 5.05826 -1.991 0
M  V30 526 H 48.8082 2.53877 -1.48066 0
M  V30 527 H 46.3222 1.34946 -0.903514 0
M  V30 528 H 48.3192 4.15136 0.383058 0
M  V30 529 H 46.9792 3.11048 0.931636 0
M  V30 530 H 47.9902 4.54999 -2.47379 0
M  V30 531 H 44.6672 4.17425 0.0793713 0
M  V30 532 H 46.0572 5.60917 -3.69895 0
M  V30 533 N 48.7773 0.814389 1.34928 0
M  V30 534 C 50.1883 0.458364 1.80986 0
M  V30 535 C 50.5393 -1.02042 1.67577 0
M  V30 536 O 49.6643 -1.79352 1.21086 0
M  V30 537 C 50.2593 0.825212 3.28597 0
M  V30 538 C 48.8183 0.521677 3.72767 0
M  V30 539 C 47.9653 1.04668 2.56788 0
M  V30 540 H 50.9163 1.00533 1.22795 0
M  V30 541 H 50.9373 0.12571 3.80292 0
M  V30 542 H 50.4493 1.90154 3.38324 0
M  V30 543 H 48.5503 -0.545589 3.68584 0
M  V30 544 H 48.6633 1.05977 4.67232 0
M  V30 545 H 47.0273 0.468622 2.50352 0
M  V30 546 H 47.8103 2.12927 2.6929 0
M  V30 547 N 50.2554 -1.46986 0.568584 0
M  V30 548 C 51.1874 -2.28233 -0.210337 0
M  V30 549 C 52.2004 -1.37682 -0.868767 0
M  V30 550 O 53.3894 -1.62406 -0.740705 0
M  V30 551 C 50.4894 -3.12293 -1.3163 0
M  V30 552 C 49.6624 -4.30878 -0.7525 0
M  V30 553 C 48.7214 -4.96445 -1.74439 0
M  V30 554 O 47.7474 -5.54482 -1.286 0
M  V30 555 N 48.9494 -4.92171 -3.07812 0
M  V30 556 H 51.7144 -2.95723 0.486648 0
M  V30 557 H 49.2754 -1.56742 0.405409 0
M  V30 558 H 51.2674 -3.53022 -1.97883 0
M  V30 559 H 49.8374 -2.46971 -1.91636 0
M  V30 560 H 49.0574 -3.94104 0.0871128 0
M  V30 561 H 50.3454 -5.07558 -0.35536 0
M  V30 562 H 49.7434 -4.46239 -3.47688 0
M  V30 563 H 48.3004 -5.36884 -3.69592 0
M  V30 564 N 51.7335 -0.305618 -1.54608 0
M  V30 565 C 52.6965 0.555591 -2.22364 0
M  V30 566 C 53.6965 1.05768 -1.21119 0
M  V30 567 O 54.8865 0.952972 -1.45822 0
M  V30 568 C 52.0185 1.76974 -2.91364 0
M  V30 569 H 53.2115 -0.0364572 -2.99878 0
M  V30 570 H 50.7645 -0.0565007 -1.56198 0
M  V30 571 H 51.4995 2.40151 -2.17941 0
M  V30 572 H 51.2845 1.41732 -3.65588 0
M  V30 573 H 52.7745 2.38148 -3.43038 0
M  V30 574 N 53.2116 1.57565 -0.0334293 0
M  V30 575 C 54.6276 1.56297 0.322997 0
M  V30 576 C 54.8276 1.03945 1.7262 0
M  V30 577 O 53.8836 0.688109 2.42943 0
M  V30 578 C 55.1966 3.00232 0.167664 0
M  V30 579 C 56.7446 3.12078 0.240107 0
M  V30 580 C 57.2196 4.57859 0.113513 0
M  V30 581 N 58.7106 4.62887 0.170359 0
M  V30 582 C 59.4456 5.73319 0.0962517 0
M  V30 583 N 58.9416 6.92794 -0.0291881 0
M  V30 584 N 60.7346 5.61898 0.150551 0
M  V30 585 H 52.8856 1.89923 -0.950956 0
M  V30 586 H 55.1486 0.873824 -0.367608 0
M  V30 587 H 54.8546 3.42501 -0.799102 0
M  V30 588 H 54.7286 3.654 0.936083 0
M  V30 589 H 57.1156 2.69718 1.19733 0
M  V30 590 H 57.1966 2.49623 -0.558763 0
M  V30 591 H 56.8406 5.009 -0.840314 0
M  V30 592 H 56.7706 5.18299 0.931302 0
M  V30 593 H 59.2616 3.76954 0.26728 0
M  V30 594 H 59.5746 7.7276 -0.0789252 0
M  V30 595 H 57.9196 6.94971 -0.0640299 0
M  V30 596 H 61.1106 4.67448 0.246981 0
M  V30 597 H 61.2836 6.47938 0.0893365 0
M  V30 598 N 54.6897 -0.239769 1.55765 0
M  V30 599 C 55.9357 -0.968234 1.78194 0
M  V30 600 C 56.2687 -1.84701 0.599938 0
M  V30 601 O 55.5437 -1.9031 -0.401524 0
M  V30 602 C 55.8267 -1.8227 3.10564 0
M  V30 603 C 55.6797 -0.971633 4.3918 0
M  V30 604 C 56.9987 -2.80388 3.39221 0
M  V30 605 H 54.1177 -0.350572 0.648281 0
M  V30 606 H 56.7597 -0.238259 1.885 0
M  V30 607 H 54.9097 -2.44507 3.01908 0
M  V30 608 H 56.5817 -0.367408 4.59835 0
M  V30 609 H 54.8247 -0.276276 4.32919 0
M  V30 610 H 55.4957 -1.60346 5.28198 0
M  V30 611 H 57.9717 -2.28287 3.47885 0
M  V30 612 H 56.8477 -3.3729 4.33044 0
M  V30 613 H 57.1087 -3.57212 2.60484 0
M  V30 614 N 56.1678 -1.49265 -0.50573 0
M  V30 615 C 57.1308 -1.65075 -1.59006 0
M  V30 616 C 58.1308 -0.522768 -1.52065 0
M  V30 617 O 59.3208 -0.789117 -1.55302 0
M  V30 618 C 56.4528 -1.64369 -2.98656 0
M  V30 619 H 57.6458 -2.61784 -1.46319 0
M  V30 620 H 55.1988 -1.38226 -0.729616 0
M  V30 621 H 55.9338 -0.692272 -3.16825 0
M  V30 622 H 55.7188 -2.46282 -3.05103 0
M  V30 623 H 57.2088 -1.78674 -3.77446 0
M  V30 624 N 57.6459 0.756429 -1.3826 0
M  V30 625 C 59.0619 1.0591 -1.19395 0
M  V30 626 C 59.2619 2.01459 -0.0406567 0
M  V30 627 O 58.3179 2.44909 0.614467 0
M  V30 628 C 59.6309 1.64191 -2.51916 0
M  V30 629 C 61.1789 1.76376 -2.58574 0
M  V30 630 C 61.6539 2.38069 -3.91264 0
M  V30 631 N 63.1449 2.45503 -3.92788 0
M  V30 632 C 63.8799 2.94126 -4.92217 0
M  V30 633 N 63.3759 3.42805 -6.02043 0
M  V30 634 N 65.1689 2.9314 -4.7961 0
M  V30 635 H 57.3199 0.122313 -2.12048 0
M  V30 636 H 59.5829 0.116892 -0.940766 0
M  V30 637 H 59.2889 1.01451 -3.3675 0
M  V30 638 H 59.1629 2.6329 -2.70108 0
M  V30 639 H 61.5499 2.38244 -1.74137 0
M  V30 640 H 61.6309 0.759894 -2.44252 0
M  V30 641 H 61.2749 1.76835 -4.76121 0
M  V30 642 H 61.2049 3.39091 -4.02895 0
M  V30 643 H 63.6959 2.1107 -3.13461 0
M  V30 644 H 64.0089 3.78354 -6.73846 0
M  V30 645 H 62.3539 3.4087 -6.05667 0
M  V30 646 H 65.5449 2.54419 -3.92923 0
M  V30 647 H 65.7179 3.30721 -5.5725 0
M  V30 648 N 59.124 1.23083 0.984299 0
M  V30 649 C 60.54 0.992637 1.24975 0
M  V30 650 C 60.74 -0.308618 1.99123 0
M  V30 651 O 59.796 -1.02905 2.30579 0
M  V30 652 C 61.109 2.19698 2.05312 0
M  V30 653 C 62.657 2.24147 2.18465 0
M  V30 654 C 63.132 3.44157 3.02192 0
M  V30 655 N 64.623 3.44372 3.09777 0
M  V30 656 C 65.358 4.33886 3.74874 0
M  V30 657 N 64.854 5.3363 4.41827 0
M  V30 658 N 66.647 4.21639 3.71721 0
M  V30 659 H 58.798 2.06731 0.487453 0
M  V30 660 H 61.061 0.906339 0.277944 0
M  V30 661 H 60.767 3.1411 1.58201 0
M  V30 662 H 60.641 2.20465 3.06064 0
M  V30 663 H 63.028 1.30277 2.64786 0
M  V30 664 H 63.109 2.27415 1.17115 0
M  V30 665 H 62.753 4.38332 2.56568 0
M  V30 666 H 62.683 3.3813 4.03702 0
M  V30 667 H 65.174 2.72201 2.62135 0
M  V30 668 H 65.487 5.98196 4.89266 0
M  V30 669 H 63.832 5.37534 4.40548 0
M  V30 670 H 67.023 3.42962 3.18582 0
M  V30 671 H 67.196 4.91604 4.22173 0
M  V30 672 N 60.6021 -1.18246 1.0419 0
M  V30 673 C 61.5121 -2.25574 0.644476 0
M  V30 674 C 62.5281 -1.70845 -0.329826 0
M  V30 675 O 63.7041 -2.00554 -0.184443 0
M  V30 676 C 60.7691 -3.46697 0.014877 0
M  V30 677 C 59.8301 -4.16554 1.03834 0
M  V30 678 C 59.0631 -5.31894 0.438692 0
M  V30 679 O 59.2861 -5.65385 -0.754752 0
M  V30 680 O 58.2201 -5.90459 1.168 0
M  V30 681 H 62.0461 -2.61836 1.53869 0
M  V30 682 H 59.6311 -1.25352 0.812854 0
M  V30 683 H 61.5131 -4.20062 -0.335538 0
M  V30 684 H 60.1881 -3.12255 -0.853138 0
M  V30 685 H 59.0951 -3.45251 1.44057 0
M  V30 686 H 60.4281 -4.54998 1.87716 0
M  V30 687 N 62.0802 -0.821533 -1.34494 0
M  V30 688 C 63.3262 -0.409552 -1.98622 0
M  V30 689 C 63.6592 1.0244 -1.64984 0
M  V30 690 O 62.9342 1.71325 -0.920758 0
M  V30 691 C 63.2172 -0.610458 -3.54888 0
M  V30 692 C 63.0702 -2.09043 -3.98273 0
M  V30 693 C 64.3892 -0.0455379 -4.40076 0
M  V30 694 H 61.5082 -0.15028 -0.721516 0
M  V30 695 H 64.1502 -1.03384 -1.59411 0
M  V30 696 H 62.3002 -0.079044 -3.8842 0
M  V30 697 H 63.9722 -2.68537 -3.75081 0
M  V30 698 H 62.2152 -2.58139 -3.48635 0
M  V30 699 H 62.8862 -2.18182 -5.07051 0
M  V30 700 H 65.3622 -0.499557 -4.1309 0
M  V30 701 H 64.2382 -0.215922 -5.48475 0
M  V30 702 H 64.4992 1.04939 -4.29465 0
M  V30 703 N 63.5583 1.46682 -0.576371 0
M  V30 704 C 64.8063 2.02013 -0.0594163 0
M  V30 705 C 65.1273 1.45101 1.30271 0
M  V30 706 O 64.3973 0.633317 1.8538 0
M  V30 707 H 62.9773 0.746759 -0.0189745 0
M  V30 708 H 65.6393 1.79862 -0.750717 0
M  V30 709 H 64.7353 3.12097 0.014345 0
M  V30 710 N 65.0364 0.313813 1.54444 0
M  V30 711 C 66.4524 -0.0391619 1.59552 0
M  V30 712 C 66.6524 -1.51322 1.33056 0
M  V30 713 O 65.7084 -2.26782 1.11022 0
M  V30 714 C 67.0214 0.370302 2.98411 0
M  V30 715 C 68.5694 0.320139 3.11358 0
M  V30 716 C 69.0444 0.704617 4.52547 0
M  V30 717 N 70.5354 0.657645 4.58508 0
M  V30 718 C 71.2704 0.927453 5.6585 0
M  V30 719 N 70.7664 1.26389 6.81174 0
M  V30 720 N 72.5594 0.853662 5.5558 0
M  V30 721 H 64.7104 1.27433 1.69925 0
M  V30 722 H 66.9734 0.517511 0.794284 0
M  V30 723 H 66.6794 1.39694 3.22767 0
M  V30 724 H 66.5534 -0.269619 3.76235 0
M  V30 725 H 68.9404 -0.697275 2.86744 0
M  V30 726 H 69.0214 0.99486 2.35661 0
M  V30 727 H 68.6654 1.7199 4.77893 0
M  V30 728 H 68.5954 0.00768843 5.26599 0
M  V30 729 H 71.0864 0.409067 3.75679 0
M  V30 730 H 71.3994 1.4554 7.58972 0
M  V30 731 H 69.7444 1.30206 6.82694 0
M  V30 732 H 72.9354 0.590383 4.64362 0
M  V30 733 H 73.1084 1.0673 6.3915 0
M  V30 734 N 66.5145 -1.57545 0.0417849 0
M  V30 735 C 67.7605 -1.92601 -0.635021 0
M  V30 736 C 68.0935 -0.919627 -1.71045 0
M  V30 737 O 67.3685 0.0557892 -1.9442 0
M  V30 738 C 67.6515 -3.38085 -1.23979 0
M  V30 739 C 67.5045 -4.49467 -0.173057 0
M  V30 740 C 68.8235 -3.83776 -2.15416 0
M  V30 741 H 65.9425 -0.700397 -0.229374 0
M  V30 742 H 68.5845 -1.89728 0.101633 0
M  V30 743 H 66.7345 -3.40664 -1.86762 0
M  V30 744 H 68.4065 -4.59018 0.458312 0
M  V30 745 H 66.6495 -4.30909 0.499996 0
M  V30 746 H 67.3205 -5.48323 -0.636054 0
M  V30 747 H 69.7965 -3.83013 -1.62605 0
M  V30 748 H 68.6725 -4.8624 -2.54679 0
M  V30 749 H 68.9335 -3.19998 -3.05047 0
M  V30 750 N 67.9926 0.231505 -1.5589 0
M  V30 751 C 69.4036 0.799327 -1.68724 0
M  V30 752 C 69.7546 1.85398 -0.642022 0
M  V30 753 O 68.8796 2.1539 0.208784 0
M  V30 754 C 69.4746 1.45664 -3.05888 0
M  V30 755 C 68.0336 1.97197 -3.20609 0
M  V30 756 C 67.1806 0.828552 -2.64632 0
M  V30 757 H 70.1316 0.00702616 -1.58698 0
M  V30 758 H 70.1526 2.32517 -3.01191 0
M  V30 759 H 69.6646 0.688808 -3.81939 0
M  V30 760 H 67.7656 2.76813 -2.4941 0
M  V30 761 H 67.8786 2.15878 -4.27707 0
M  V30 762 H 66.2426 1.23321 -2.22854 0
M  V30 763 H 67.0256 0.0735544 -3.43221 0
M  V30 764 N 69.4707 1.49531 0.497807 0
M  V30 765 C 70.4007 1.6935 1.60757 0
M  V30 766 C 71.3817 0.542218 1.61227 0
M  V30 767 O 72.5667 0.778417 1.77917 0
M  V30 768 C 69.6967 1.76298 2.99226 0
M  V30 769 C 68.6507 2.91248 3.13622 0
M  V30 770 C 67.9767 2.83312 4.53474 0
M  V30 771 C 69.2767 4.3214 2.93346 0
M  V30 772 H 70.9707 2.62263 1.44425 0
M  V30 773 H 68.5167 1.26208 0.693367 0
M  V30 774 H 70.4697 1.88749 3.76765 0
M  V30 775 H 69.1937 0.799871 3.16654 0
M  V30 776 H 67.8527 2.78404 2.38509 0
M  V30 777 H 67.5007 1.84902 4.67782 0
M  V30 778 H 67.2007 3.60465 4.64046 0
M  V30 779 H 68.7247 2.97775 5.33069 0
M  V30 780 H 70.1387 4.45649 3.60652 0
M  V30 781 H 68.5357 5.1054 3.15387 0
M  V30 782 H 69.6057 4.46363 1.89441 0
M  V30 783 N 70.9488 -0.749086 1.3866 0
M  V30 784 C 72.3598 -1.32664 1.31366 0
M  V30 785 C 72.7108 -1.96179 -0.028484 0
M  V30 786 O 71.8358 -1.9537 -0.93057 0
M  V30 787 C 72.4308 -2.41219 2.37905 0
M  V30 788 C 70.9898 -2.94684 2.34176 0
M  V30 789 C 70.1368 -1.68108 2.20533 0
M  V30 790 H 73.0878 -0.547628 1.48952 0
M  V30 791 H 73.1088 -3.21268 2.0388 0
M  V30 792 H 72.6208 -1.94962 3.35576 0
M  V30 793 H 70.7218 -3.45258 1.401 0
M  V30 794 H 70.8348 -3.48757 3.2849 0
M  V30 795 H 69.1988 -1.91907 1.67463 0
M  V30 796 H 69.9818 -1.23923 3.20153 0
M  V30 797 N 72.4269 -1.23603 -0.977757 0
M  V30 798 C 73.3899 -1.02069 -2.05218 0
M  V30 799 C 74.3899 0.0184305 -1.60789 0
M  V30 800 O 75.5799 -0.221569 -1.72785 0
M  V30 801 C 72.7119 -0.544926 -3.36517 0
M  V30 802 H 73.9049 -1.9742 -2.25755 0
M  V30 803 H 71.4579 -1.05684 -1.15155 0
M  V30 804 H 72.1929 0.412241 -3.21669 0
M  V30 805 H 71.9779 -1.2948 -3.70105 0
M  V30 806 H 73.4679 -0.414985 -4.15533 0
M  V30 807 N 73.905 1.17692 -1.04816 0
M  V30 808 C 75.151 1.88137 -0.75711 0
M  V30 809 C 75.484 1.80604 0.713841 0
M  V30 810 O 74.759 1.21146 1.52164 0
M  V30 811 C 75.042 3.38318 -1.2334 0
M  V30 812 C 74.895 3.54622 -2.76701 0
M  V30 813 C 76.214 4.32214 -0.829415 0
M  V30 814 H 73.333 0.683163 -0.27651 0
M  V30 815 H 75.975 1.38424 -1.30149 0
M  V30 816 H 74.125 3.80787 -0.770286 0
M  V30 817 H 75.797 3.21194 -3.31107 0
M  V30 818 H 74.04 2.97026 -3.16161 0
M  V30 819 H 74.711 4.60028 -3.05088 0
M  V30 820 H 77.187 3.97565 -1.22805 0
M  V30 821 H 76.063 5.35838 -1.19033 0
M  V30 822 H 76.324 4.41294 0.266891 0
M  V30 823 N 75.3831 0.828654 1.34056 0
M  V30 824 C 76.6111 0.43262 2.02326 0
M  V30 825 C 77.0261 -0.963147 1.62385 0
M  V30 826 O 76.3831 -1.62425 0.832121 0
M  V30 827 C 76.4341 0.53182 3.57567 0
M  V30 828 O 76.1551 1.87258 3.96063 0
M  V30 829 C 77.6561 0.131422 4.43105 0
M  V30 830 H 74.8761 0.172923 0.648335 0
M  V30 831 H 77.4201 1.1184 1.71208 0
M  V30 832 H 75.5751 -0.105938 3.87255 0
M  V30 833 H 75.9891 1.85087 4.90758 0
M  V30 834 H 77.4631 0.251904 5.51425 0
M  V30 835 H 77.9401 -0.925645 4.29335 0
M  V30 836 H 78.5461 0.743207 4.18756 0
M  V30 837 N 76.8612 -1.46375 0.584142 0
M  V30 838 C 77.7712 -2.34115 -0.150728 0
M  V30 839 C 78.7872 -1.49838 -0.884567 0
M  V30 840 O 79.9632 -1.82704 -0.847429 0
M  V30 841 C 77.0282 -3.2705 -1.15062 0
M  V30 842 C 76.0892 -4.27228 -0.421293 0
M  V30 843 C 75.3222 -5.15722 -1.37355 0
M  V30 844 O 75.5452 -5.07176 -2.61014 0
M  V30 845 O 74.4792 -5.95383 -0.883355 0
M  V30 846 H 78.3052 -2.98309 0.569708 0
M  V30 847 H 75.8902 -1.45373 0.344535 0
M  V30 848 H 77.7722 -3.84381 -1.72712 0
M  V30 849 H 76.4472 -2.65451 -1.8525 0
M  V30 850 H 75.3542 -3.7358 0.197085 0
M  V30 851 H 76.6872 -4.91616 0.239641 0
M  V30 852 N 78.3393 -0.321999 -1.54275 0
M  V30 853 C 79.3023 0.531975 -2.22941 0
M  V30 854 C 80.3023 1.04478 -1.22234 0
M  V30 855 O 81.4923 0.937452 -1.46825 0
M  V30 856 C 78.6243 1.73874 -2.93224 0
M  V30 857 H 79.8173 -0.0682612 -2.99822 0
M  V30 858 H 77.3703 -0.0730644 -1.56129 0
M  V30 859 H 78.1053 2.37825 -2.20476 0
M  V30 860 H 77.8903 1.37847 -3.6707 0
M  V30 861 H 79.3803 2.34496 -3.45545 0
M  V30 862 N 79.8174 1.5752 -0.0501392 0
M  V30 863 C 81.0644 1.9265 0.623874 0
M  V30 864 C 81.3924 0.928411 1.70912 0
M  V30 865 O 80.6474 -0.0594525 1.9561 0
M  V30 866 C 80.9464 3.34467 1.25963 0
M  V30 867 C 80.6124 4.49883 0.302689 0
M  V30 868 C 79.2744 4.81184 0.0393636 0
M  V30 869 C 81.6264 5.20002 -0.353205 0
M  V30 870 C 78.9544 5.79951 -0.887308 0
M  V30 871 C 81.3064 6.1976 -1.26806 0
M  V30 872 C 79.9704 6.49491 -1.54007 0
M  V30 873 H 79.2404 0.704957 0.228292 0
M  V30 874 H 81.8874 1.91146 -0.116398 0
M  V30 875 H 80.1924 3.32333 2.07514 0
M  V30 876 H 81.8894 3.58928 1.78806 0
M  V30 877 H 78.4794 4.25457 0.518109 0
M  V30 878 H 82.6634 4.96033 -0.162854 0
M  V30 879 H 77.9194 6.01322 -1.10553 0
M  V30 880 H 82.0934 6.73205 -1.78236 0
M  V30 881 H 79.7204 7.25837 -2.25976 0
M  V30 882 N 81.2955 -0.223234 1.56011 0
M  V30 883 C 82.5415 -0.949279 1.79211 0
M  V30 884 C 82.8745 -1.84054 0.619494 0
M  V30 885 O 82.1495 -1.90726 -0.381317 0
M  V30 886 C 82.4325 -1.78965 3.12479 0
M  V30 887 C 82.2855 -0.924997 4.40186 0
M  V30 888 C 83.6045 -2.76774 3.42175 0
M  V30 889 H 80.7235 -0.343676 0.651963 0
M  V30 890 H 83.3655 -0.218253 1.88742 0
M  V30 891 H 81.5155 -2.41291 3.04485 0
M  V30 892 H 83.1875 -0.318615 4.60198 0
M  V30 893 H 81.4305 -0.230344 4.33188 0
M  V30 894 H 82.1015 -1.54735 5.29869 0
M  V30 895 H 84.5775 -2.24584 3.50287 0
M  V30 896 H 83.4535 -3.32678 4.36597 0
M  V30 897 H 83.7145 -3.54429 2.64258 0
M  V30 898 N 82.7736 -1.49793 -0.48987 0
M  V30 899 C 83.7366 -1.66752 -1.57246 0
M  V30 900 C 84.7366 -0.538867 -1.51502 0
M  V30 901 O 85.9266 -0.805545 -1.54456 0
M  V30 902 C 83.0586 -1.67528 -2.96896 0
M  V30 903 H 84.2516 -2.63321 -1.43534 0
M  V30 904 H 81.8046 -1.38992 -0.714914 0
M  V30 905 H 82.5396 -0.725837 -3.16073 0
M  V30 906 H 82.3246 -2.49504 -3.02473 0
M  V30 907 H 83.8146 -1.82667 -3.7553 0
M  V30 908 N 84.2517 0.741722 -1.39055 0
M  V30 909 C 85.2147 1.83733 -1.37021 0
M  V30 910 C 86.2147 1.58542 -0.268534 0
M  V30 911 O 87.4047 1.66067 -0.526076 0
M  V30 912 C 84.5367 3.2141 -1.13617 0
M  V30 913 H 85.7297 1.86941 -2.34506 0
M  V30 914 H 83.2827 0.944676 -1.24521 0
M  V30 915 H 84.0177 3.23865 -0.167863 0
M  V30 916 H 83.8027 3.4109 -1.93391 0
M  V30 917 H 85.2927 4.01477 -1.14918 0
M  V30 918 N 85.7298 1.2412 0.971189 0
M  V30 919 C 86.6928 1.03156 2.04674 0
M  V30 920 C 87.6928 -0.00990322 1.60797 0
M  V30 921 O 88.8828 0.230729 1.72665 0
M  V30 922 C 86.0148 0.562765 3.36223 0
M  V30 923 H 87.2078 1.98614 2.24705 0
M  V30 924 H 84.7608 1.06293 1.14593 0
M  V30 925 H 85.4958 -0.395176 3.21883 0
M  V30 926 H 85.2808 1.31441 3.69413 0
M  V30 927 H 86.7708 0.437015 4.15307 0
M  V30 928 N 87.2079 -1.17134 1.05439 0
M  V30 929 C 88.4549 -1.87456 0.765942 0
M  V30 930 C 88.7829 -1.81189 -0.707153 0
M  V30 931 O 88.0379 -1.21633 -1.5331 0
M  V30 932 C 88.3369 -3.36833 1.19491 0
M  V30 933 C 88.0029 -3.63301 2.67063 0
M  V30 934 C 86.6649 -3.70234 3.07376 0
M  V30 935 C 89.0169 -3.74575 3.62413 0
M  V30 936 C 86.3449 -3.85933 4.41896 0
M  V30 937 C 88.6969 -3.91793 4.9667 0
M  V30 938 C 87.3609 -3.96966 5.36633 0
M  V30 939 H 86.6309 -0.685948 0.280278 0
M  V30 940 H 89.2779 -1.38556 1.32192 0
M  V30 941 H 87.5829 -3.87807 0.557969 0
M  V30 942 H 89.2799 -3.89611 0.948893 0
M  V30 943 H 85.8699 -3.58532 2.34846 0
M  V30 944 H 90.0539 -3.68537 3.32406 0
M  V30 945 H 85.3099 -3.88187 4.72357 0
M  V30 946 H 89.4839 -3.99458 5.70444 0
M  V30 947 H 87.1109 -4.08883 6.40874 0
M  V30 948 N 88.686 -0.835752 -1.33615 0
M  V30 949 C 89.636 -0.238856 -2.26745 0
M  V30 950 C 90.62 0.604343 -1.49119 0
M  V30 951 O 91.812 0.456822 -1.71003 0
M  V30 952 C 88.941 0.587725 -3.38232 0
M  V30 953 C 88.027 -0.266811 -4.2326 0
M  V30 954 N 88.418 -1.34403 -4.87616 0
M  V30 955 C 86.716 -0.0533131 -4.45968 0
M  V30 956 C 87.417 -1.86819 -5.50884 0
M  V30 957 N 86.393 -1.17013 -5.30857 0
M  V30 958 H 90.195 -1.06266 -2.74016 0
M  V30 959 H 87.709 -0.679881 -1.47483 0
M  V30 960 H 89.706 1.03161 -4.03935 0
M  V30 961 H 88.366 1.40954 -2.9251 0
M  V30 962 H 89.377 -1.7269 -4.88261 0
M  V30 963 H 86.054 0.735312 -4.10974 0
M  V30 964 H 87.444 -2.7701 -6.1214 0
M  V30 965 N 90.1641 1.46063 -0.591896 0
M  V30 966 C 91.5751 1.85944 -0.167822 0
M  V30 967 C 91.9261 1.49429 1.27143 0
M  V30 968 O 91.0511 0.913515 1.96173 0
M  V30 969 C 91.6461 3.37489 -0.297794 0
M  V30 970 C 90.2051 3.76332 0.0714732 0
M  V30 971 C 89.3521 2.7006 -0.629509 0
M  V30 972 H 92.3031 1.37087 -0.799555 0
M  V30 973 H 92.3241 3.77532 0.474349 0
M  V30 974 H 91.8361 3.64034 -1.3454 0
M  V30 975 H 89.9371 3.55405 1.11886 0
M  V30 976 H 90.0501 4.78088 -0.311245 0
M  V30 977 H 88.4141 2.54607 -0.0687867 0
M  V30 978 H 89.1971 2.99444 -1.67894 0
M  V30 979 N 91.6422 0.330177 1.54103 0
M  V30 980 C 92.5742 -0.566902 2.22079 0
M  V30 981 C 93.5872 -1.07462 1.22294 0
M  V30 982 O 94.7762 -0.987065 1.48726 0
M  V30 983 C 91.8762 -1.79138 2.87685 0
M  V30 984 C 91.0492 -1.42123 4.13666 0
M  V30 985 C 90.1082 -2.50394 4.62806 0
M  V30 986 O 89.1342 -2.14261 5.27334 0
M  V30 987 N 90.3362 -3.81433 4.37595 0
M  V30 988 H 93.1012 0.0151844 2.99696 0
M  V30 989 H 90.6622 0.153681 1.61169 0
M  V30 990 H 92.6542 -2.50975 3.1748 0
M  V30 991 H 91.2242 -2.28115 2.13734 0
M  V30 992 H 90.4442 -0.534201 3.90564 0
M  V30 993 H 91.7322 -1.14971 4.9564 0
M  V30 994 H 91.1302 -4.13584 3.8596 0
M  V30 995 H 89.6872 -4.4948 4.72029 0
M  V30 996 N 93.1203 -1.57491 0.0584922 0
M  V30 997 C 94.5313 -1.80526 -0.476138 0
M  V30 998 C 94.8823 -0.971334 -1.70469 0
M  V30 999 O 94.0073 -0.190012 -2.15564 0
M  V30 1000 C 94.6023 -3.27424 -0.870587 0
M  V30 1001 C 93.1613 -3.51351 -1.35015 0
M  V30 1002 C 92.3083 -2.75343 -0.32887 0
M  V30 1003 H 95.2593 -1.56133 0.284312 0
M  V30 1004 H 95.2803 -3.38745 -1.73299 0
M  V30 1005 H 94.7923 -3.88093 0.0237627 0
M  V30 1006 H 92.8933 -2.95971 -2.26345 0
M  V30 1007 H 93.0063 -4.60059 -1.33726 0
M  V30 1008 H 91.3703 -2.417 -0.803321 0
M  V30 1009 H 92.1533 -3.38743 0.557521 0
M  V30 1010 N 94.5984 0.214957 -1.56127 0
M  V30 1011 C 95.5084 1.28727 -1.96129 0
M  V30 1012 C 96.5244 1.50916 -0.866044 0
M  V30 1013 O 97.7004 1.63918 -1.17016 0
M  V30 1014 C 94.7654 2.61569 -2.27558 0
M  V30 1015 C 93.8264 2.47625 -3.50685 0
M  V30 1016 C 93.0594 3.74132 -3.80606 0
M  V30 1017 O 93.2824 4.77438 -3.12104 0
M  V30 1018 O 92.2164 3.70849 -4.74083 0
M  V30 1019 H 96.0424 0.977855 -2.87527 0
M  V30 1020 H 93.6274 0.418358 -1.43423 0
M  V30 1021 H 95.5094 3.40012 -2.48938 0
M  V30 1022 H 94.1844 2.92178 -1.39332 0
M  V30 1023 H 93.0914 1.67361 -3.34576 0
M  V30 1024 H 94.4244 2.21954 -4.39315 0
M  V30 1025 N 96.0765 1.50051 0.48192 0
M  V30 1026 C 97.0085 1.64263 1.59844 0
M  V30 1027 C 98.0215 0.52451 1.54119 0
M  V30 1028 O 99.2105 0.797293 1.59704 0
M  V30 1029 C 96.3105 1.60102 2.98698 0
M  V30 1030 C 95.4835 2.87767 3.29407 0
M  V30 1031 C 94.5425 2.76397 4.47762 0
M  V30 1032 O 93.5685 3.50348 4.48603 0
M  V30 1033 N 94.7705 1.89222 5.48794 0
M  V30 1034 H 97.5355 2.60566 1.48073 0
M  V30 1035 H 95.0965 1.47379 0.670149 0
M  V30 1036 H 97.0885 1.50123 3.75826 0
M  V30 1037 H 95.6585 0.715798 3.04294 0
M  V30 1038 H 94.8785 3.11954 2.40994 0
M  V30 1039 H 96.1665 3.72365 3.4673 0
M  V30 1040 H 95.5645 1.28434 5.50928 0
M  V30 1041 H 94.1215 1.85154 6.24949 0
M  V30 1042 N 97.5546 -0.734337 1.39446 0
M  V30 1043 C 98.9706 -1.03997 1.21065 0
M  V30 1044 C 99.1706 -2.01369 0.0727019 0
M  V30 1045 O 98.2266 -2.45856 -0.575426 0
M  V30 1046 C 99.5396 -1.60163 2.54496 0
M  V30 1047 C 101.088 -1.7224 2.61347 0
M  V30 1048 C 101.563 -2.31814 3.95002 0
M  V30 1049 N 103.054 -2.39223 3.96644 0
M  V30 1050 C 103.789 -2.86258 4.96834 0
M  V30 1051 N 103.285 -3.33184 6.07421 0
M  V30 1052 N 105.078 -2.85473 4.84213 0
M  V30 1053 H 97.2286 -0.0885624 2.12215 0
M  V30 1054 H 99.4916 -0.10191 0.942506 0
M  V30 1055 H 99.1976 -0.960811 3.38321 0
M  V30 1056 H 99.0716 -2.5896 2.74262 0
M  V30 1057 H 101.459 -2.35443 1.77906 0
M  V30 1058 H 101.54 -0.720939 2.4543 0
M  V30 1059 H 101.184 -1.69238 4.78875 0
M  V30 1060 H 101.114 -3.32638 4.08239 0
M  V30 1061 H 103.605 -2.06057 3.16779 0
M  V30 1062 H 103.918 -3.67586 6.7978 0
M  V30 1063 H 102.263 -3.31191 6.11013 0
M  V30 1064 H 105.454 -2.48136 3.96921 0
M  V30 1065 H 105.627 -3.21814 5.62441 0
M  V30 1066 N 99.0327 -1.24633 -0.964593 0
M  V30 1067 C 100.258 -1.11596 -1.74818 0
M  V30 1068 C 100.683 0.32723 -1.85232 0
M  V30 1069 O 100.041 1.23695 -1.32549 0
M  V30 1070 C 100.089 -1.76397 -3.1451 0
M  V30 1071 O 99.1927 -1.03685 -3.99153 0
M  V30 1072 H 98.5337 -0.390196 -0.537255 0
M  V30 1073 H 101.064 -1.65002 -1.20977 0
M  V30 1074 H 101.074 -1.8228 -3.65018 0
M  V30 1075 H 99.7487 -2.81401 -3.06246 0
M  V30 1076 H 98.3257 -1.05611 -3.57632 0
M  V30 1077 N 100.511 1.16574 -1.06058 0
M  V30 1078 C 101.441 2.23057 -0.690488 0
M  V30 1079 C 102.422 1.67141 0.315901 0
M  V30 1080 O 103.607 1.93253 0.191556 0
M  V30 1081 C 100.737 3.47222 -0.073625 0
M  V30 1082 C 99.6908 4.16016 -1.00573 0
M  V30 1083 C 99.0168 5.34104 -0.252289 0
M  V30 1084 C 100.317 4.67264 -2.33371 0
M  V30 1085 H 102.011 2.54271 -1.58072 0
M  V30 1086 H 99.5568 1.22218 -0.76149 0
M  V30 1087 H 101.51 4.20939 0.19714 0
M  V30 1088 H 100.234 3.15302 0.85161 0
M  V30 1089 H 98.8928 3.44223 -1.2612 0
M  V30 1090 H 98.5408 4.98437 0.675988 0
M  V30 1091 H 98.2408 5.81072 -0.873455 0
M  V30 1092 H 99.7648 6.10599 0.0109857 0
M  V30 1093 H 101.179 5.32573 -2.12223 0
M  V30 1094 H 99.5758 5.24843 -2.90963 0
M  V30 1095 H 100.646 3.83602 -2.96611 0
M  V30 1096 N 101.989 0.842826 1.3317 0
M  V30 1097 C 102.952 0.284065 2.27433 0
M  V30 1098 C 103.952 -0.54948 1.5112 0
M  V30 1099 O 105.142 -0.362699 1.70382 0
M  V30 1100 C 102.274 -0.599384 3.35589 0
M  V30 1101 H 103.467 1.11589 2.78366 0
M  V30 1102 H 101.02 0.616221 1.4364 0
M  V30 1103 H 101.755 -1.45349 2.89904 0
M  V30 1104 H 101.54 -0.00291266 3.921 0
M  V30 1105 H 103.03 -0.983488 4.05854 0
M  V30 1106 N 103.467 -1.45747 0.599634 0
M  V30 1107 C 104.4 -2.27547 -0.172552 0
M  V30 1108 C 105.378 -1.36657 -0.881116 0
M  V30 1109 O 106.562 -1.66081 -0.891595 0
M  V30 1110 C 103.689 -3.14829 -1.24903 0
M  V30 1111 C 102.735 -4.21603 -0.644465 0
M  V30 1112 S 103.568 -5.32754 0.541606 0
M  V30 1113 C 104.724 -6.23604 -0.535656 0
M  V30 1114 H 104.957 -2.92691 0.521468 0
M  V30 1115 H 102.49 -1.49473 0.386947 0
M  V30 1116 H 104.448 -3.65675 -1.86527 0
M  V30 1117 H 103.109 -2.48965 -1.91508 0
M  V30 1118 H 102.302 -4.82566 -1.45417 0
M  V30 1119 H 101.904 -3.73857 -0.103534 0
M  V30 1120 H 104.196 -6.62519 -1.41686 0
M  V30 1121 H 105.139 -7.0809 0.0376246 0
M  V30 1122 H 105.547 -5.58103 -0.84741 0
M  V30 1123 N 104.945 -0.338344 -1.53925 0
M  V30 1124 C 105.877 0.555117 -2.22376 0
M  V30 1125 C 106.89 1.06812 -1.22862 0
M  V30 1126 O 108.079 0.979163 -1.49247 0
M  V30 1127 C 105.179 1.77609 -2.88631 0
M  V30 1128 C 104.352 1.39927 -4.14414 0
M  V30 1129 C 103.411 2.47936 -4.64127 0
M  V30 1130 O 102.437 2.11461 -5.28463 0
M  V30 1131 N 103.639 3.79107 -4.39612 0
M  V30 1132 H 106.404 -0.0310778 -2.99684 0
M  V30 1133 H 103.965 -0.162226 -1.61085 0
M  V30 1134 H 105.957 2.49287 -3.18807 0
M  V30 1135 H 104.527 2.26978 -2.14941 0
M  V30 1136 H 103.747 0.513481 -3.90841 0
M  V30 1137 H 105.035 1.12341 -4.96243 0
M  V30 1138 H 104.433 4.11531 -3.88148 0
M  V30 1139 H 102.99 4.4697 -4.74406 0
M  V30 1140 N 106.423 1.57458 -0.0668435 0
M  V30 1141 C 107.386 2.11323 0.887422 0
M  V30 1142 C 108.386 1.03618 1.22964 0
M  V30 1143 O 109.576 1.29626 1.16373 0
M  V30 1144 C 106.708 2.61048 2.19242 0
M  V30 1145 H 107.901 2.96942 0.420194 0
M  V30 1146 H 105.454 1.55239 0.181793 0
M  V30 1147 H 106.189 1.78868 2.70512 0
M  V30 1148 H 105.974 3.39769 1.95702 0
M  V30 1149 H 107.464 3.02814 2.87565 0
M  V30 1150 N 107.901 -0.206675 1.56239 0
M  V30 1151 C 109.178 -0.954051 1.70755 0
M  V30 1152 C 109.558 -2.01841 0.618353 0
M  V30 1153 O 108.906 -2.25444 -0.372434 0
M  V30 1154 C 109.116 -1.551 3.12642 0
M  V30 1155 C 110.464 -2.03757 3.72516 0
M  V30 1156 O 111.488 -1.64965 3.15698 0
M  V30 1157 O 110.347 -2.75103 4.72208 0
M  V30 1158 H 107.441 -0.446636 0.696021 0
M  V30 1159 H 109.987 -0.197283 1.68549 0
M  V30 1160 H 108.759 -0.783212 3.83382 0
M  V30 1161 H 108.382 -2.37291 3.19028 0
M  V30 1162 N 109.379 -1.50304 -0.473955 0
M  V30 1163 C 110.309 -1.71886 -1.58042 0
M  V30 1164 C 111.29 -0.567799 -1.60344 0
M  V30 1165 O 112.475 -0.806623 -1.76656 0
M  V30 1166 C 109.605 -1.81036 -2.96384 0
M  V30 1167 C 108.559 -2.962 -3.08949 0
M  V30 1168 C 107.885 -2.9049 -4.48909 0
M  V30 1169 C 109.185 -4.36752 -2.86434 0
M  V30 1170 H 110.879 -2.64527 -1.40234 0
M  V30 1171 H 108.425 -1.27295 -0.673201 0
M  V30 1172 H 110.378 -1.94719 -3.73714 0
M  V30 1173 H 109.102 -0.850147 -3.15341 0
M  V30 1174 H 107.761 -2.82164 -2.3405 0
M  V30 1175 H 107.409 -1.92321 -4.64781 0
M  V30 1176 H 107.109 -3.67802 -4.58253 0
M  V30 1177 H 108.633 -3.06218 -5.28264 0
M  V30 1178 H 110.047 -4.5133 -3.53517 0
M  V30 1179 H 108.444 -5.15493 -3.07225 0
M  V30 1180 H 109.514 -4.49321 -1.82316 0
M  V30 1181 N 110.857 0.726932 -1.39834 0
M  V30 1182 C 111.82 1.82269 -1.38962 0
M  V30 1183 C 112.82 1.58248 -0.285334 0
M  V30 1184 O 114.01 1.65499 -0.54366 0
M  V30 1185 C 111.142 3.20186 -1.17019 0
M  V30 1186 H 112.335 1.84443 -2.36476 0
M  V30 1187 H 109.888 0.931416 -1.25516 0
M  V30 1188 H 110.623 3.23669 -0.202204 0
M  V30 1189 H 110.408 3.3902 -1.96998 0
M  V30 1190 H 111.898 4.00235 -1.1917 0
M  V30 1191 N 112.336 1.25143 0.95797 0
M  V30 1192 C 113.266 1.07711 2.07173 0
M  V30 1193 C 114.247 -0.0128462 1.70095 0
M  V30 1194 O 115.432 0.156061 1.93572 0
M  V30 1195 C 112.562 0.691503 3.40346 0
M  V30 1196 C 111.516 1.73132 3.9142 0
M  V30 1197 C 110.842 1.20049 5.21049 0
M  V30 1198 C 112.142 3.1294 4.1817 0
M  V30 1199 H 113.836 2.00873 2.22014 0
M  V30 1200 H 111.382 0.967191 1.06684 0
M  V30 1201 H 113.335 0.556505 4.17709 0
M  V30 1202 H 112.059 -0.275819 3.25433 0
M  V30 1203 H 110.718 1.8547 3.16222 0
M  V30 1204 H 110.366 0.223499 5.02503 0
M  V30 1205 H 110.066 1.89545 5.56189 0
M  V30 1206 H 111.59 1.07782 6.01012 0
M  V30 1207 H 113.004 3.03775 4.86203 0
M  V30 1208 H 111.401 3.79875 4.64559 0
M  V30 1209 H 112.471 3.6025 3.24573 0
M  V30 1210 N 113.814 -1.1601 1.06675 0
M  V30 1211 C 115.039 -1.91068 0.806706 0
M  V30 1212 C 115.464 -1.77112 -0.633485 0
M  V30 1213 O 114.822 -1.09908 -1.44187 0
M  V30 1214 C 114.87 -3.39655 1.21106 0
M  V30 1215 O 113.974 -4.10893 0.352189 0
M  V30 1216 H 113.315 -0.595125 0.294486 0
M  V30 1217 H 115.845 -1.46955 1.42356 0
M  V30 1218 H 115.855 -3.90434 1.18428 0
M  V30 1219 H 114.53 -3.49132 2.26008 0
M  V30 1220 H 113.107 -3.70285 0.440868 0
M  V30 1221 N 115.292 -0.849877 -1.32721 0
M  V30 1222 C 116.569 -0.372405 -1.92022 0
M  V30 1223 C 116.949 1.1435 -1.77447 0
M  V30 1224 O 116.297 1.96296 -1.16962 0
M  V30 1225 C 116.507 -0.831482 -3.3895 0
M  V30 1226 C 117.855 -0.845882 -4.16089 0
M  V30 1227 O 118.879 -0.775806 -3.47649 0
M  V30 1228 O 117.738 -0.943753 -5.38289 0
M  V30 1229 H 114.832 -0.107667 -0.819961 0
M  V30 1230 H 117.378 -0.93646 -1.41522 0
M  V30 1231 H 116.15 -1.87448 -3.4348 0
M  V30 1232 H 115.773 -0.24461 -3.96847 0
M  V30 1233 N 116.77 1.45427 -0.607355 0
M  V30 1234 C 117.702 2.2871 0.149752 0
M  V30 1235 C 118.715 1.39937 0.831958 0
M  V30 1236 O 119.904 1.64313 0.697385 0
M  V30 1237 C 117.004 3.15673 1.23304 0
M  V30 1238 C 116.177 4.32722 0.637996 0
M  V30 1239 C 115.236 5.00895 1.61215 0
M  V30 1240 O 114.262 5.57697 1.13854 0
M  V30 1241 N 115.464 5.00159 2.94655 0
M  V30 1242 H 118.229 2.94328 -0.564882 0
M  V30 1243 H 115.79 1.55612 -0.446823 0
M  V30 1244 H 117.782 3.58144 1.88454 0
M  V30 1245 H 116.352 2.51965 1.8502 0
M  V30 1246 H 115.572 3.93734 -0.191572 0
M  V30 1247 H 116.86 5.08321 0.220665 0
M  V30 1248 H 116.258 4.553 3.35735 0
M  V30 1249 H 114.815 5.46495 3.55228 0
M  V30 1250 N 118.248 0.346503 1.53744 0
M  V30 1251 C 119.178 -0.501193 2.28058 0
M  V30 1252 C 120.159 -1.10014 1.29734 0
M  V30 1253 O 121.344 -1.12097 1.58581 0
M  V30 1254 C 118.474 -1.65078 3.05559 0
M  V30 1255 C 117.428 -1.18003 4.11411 0
M  V30 1256 C 116.754 -2.41837 4.76884 0
M  V30 1257 C 118.054 -0.278394 5.21558 0
M  V30 1258 H 119.748 0.11875 2.99164 0
M  V30 1259 H 117.294 0.0585531 1.43881 0
M  V30 1260 H 119.247 -2.25028 3.56287 0
M  V30 1261 H 117.971 -2.29767 2.32109 0
M  V30 1262 H 116.63 -0.603331 3.61601 0
M  V30 1263 H 116.278 -3.0494 4.00026 0
M  V30 1264 H 115.978 -2.1102 5.48402 0
M  V30 1265 H 117.502 -3.02508 5.30397 0
M  V30 1266 H 118.916 -0.784823 5.67903 0
M  V30 1267 H 117.313 -0.0619707 6.00068 0
M  V30 1268 H 118.383 0.684677 4.80042 0
M  V30 1269 N 119.726 -1.57421 0.075193 0
M  V30 1270 C 120.972 -1.93905 -0.594025 0
M  V30 1271 C 121.305 -0.955701 -1.69056 0
M  V30 1272 O 120.58 0.0145373 -1.94495 0
M  V30 1273 C 120.863 -3.40638 -1.1678 0
M  V30 1274 C 120.716 -4.49733 -0.0776792 0
M  V30 1275 C 122.035 -3.88259 -2.07228 0
M  V30 1276 H 119.154 -0.705105 -0.214466 0
M  V30 1277 H 121.796 -1.8947 0.141854 0
M  V30 1278 H 119.946 -3.44549 -1.79494 0
M  V30 1279 H 121.618 -4.57942 0.555573 0
M  V30 1280 H 119.861 -4.29751 0.591286 0
M  V30 1281 H 120.532 -5.49549 -0.519603 0
M  V30 1282 H 123.008 -3.86376 -1.54445 0
M  V30 1283 H 121.884 -4.91533 -2.44308 0
M  V30 1284 H 122.145 -3.26396 -2.98191 0
M  V30 1285 N 121.204 0.198386 -1.56346 0
M  V30 1286 C 122.452 0.91747 -1.80075 0
M  V30 1287 C 122.773 1.83929 -0.647692 0
M  V30 1288 O 122.043 1.93029 0.334166 0
M  V30 1289 H 120.623 0.341774 -0.664228 0
M  V30 1290 H 123.285 0.204684 -1.93822 0
M  V30 1291 H 122.381 1.51055 -2.7311 0
M  V30 1292 N 122.682 1.50554 0.465978 0
M  V30 1293 C 123.592 1.72585 1.58907 0
M  V30 1294 C 124.608 0.60911 1.6299 0
M  V30 1295 O 125.784 0.88804 1.80765 0
M  V30 1296 C 122.849 1.81995 2.95091 0
M  V30 1297 C 121.91 3.05751 3.01355 0
M  V30 1298 C 121.143 3.14702 4.31043 0
M  V30 1299 O 121.366 2.30313 5.21835 0
M  V30 1300 O 120.3 4.07468 4.43005 0
M  V30 1301 H 124.126 2.67799 1.43239 0
M  V30 1302 H 121.711 1.34711 0.646013 0
M  V30 1303 H 123.593 1.90335 3.75966 0
M  V30 1304 H 122.268 0.899659 3.10947 0
M  V30 1305 H 121.175 3.02908 2.19539 0
M  V30 1306 H 122.508 3.97375 2.90437 0
M  V30 1307 N 124.16 -0.719506 1.40217 0
M  V30 1308 C 125.09 -1.8465 1.42922 0
M  V30 1309 C 126.071 -1.67599 0.29062 0
M  V30 1310 O 127.256 -1.87688 0.498677 0
M  V30 1311 C 124.386 -3.22565 1.28722 0
M  V30 1312 C 123.34 -3.54281 2.40144 0
M  V30 1313 C 122.666 -4.91298 2.11023 0
M  V30 1314 C 123.966 -3.55676 3.82481 0
M  V30 1315 H 125.66 -1.82644 2.37237 0
M  V30 1316 H 123.206 -0.877305 1.1419 0
M  V30 1317 H 125.159 -4.01095 1.29232 0
M  V30 1318 H 123.883 -3.25137 0.308811 0
M  V30 1319 H 122.542 -2.78088 2.38877 0
M  V30 1320 H 122.19 -4.90468 1.11582 0
M  V30 1321 H 121.89 -5.13485 2.8567 0
M  V30 1322 H 123.414 -5.72166 2.13209 0
M  V30 1323 H 124.828 -4.24254 3.85592 0
M  V30 1324 H 123.225 -3.89388 4.56614 0
M  V30 1325 H 124.295 -2.55144 4.12346 0
M  V30 1326 N 125.638 -1.25649 -0.95132 0
M  V30 1327 C 126.885 -1.10594 -1.69633 0
M  V30 1328 C 127.213 0.352515 -1.91279 0
M  V30 1329 O 126.468 1.27601 -1.4838 0
M  V30 1330 C 126.767 -1.80909 -3.08231 0
M  V30 1331 C 126.433 -3.30825 -3.06375 0
M  V30 1332 C 125.095 -3.71722 -3.05576 0
M  V30 1333 C 127.447 -4.26589 -2.99452 0
M  V30 1334 C 124.775 -5.06788 -2.95606 0
M  V30 1335 C 127.127 -5.61683 -2.91024 0
M  V30 1336 C 125.791 -6.01904 -2.88562 0
M  V30 1337 H 125.061 -0.404691 -0.620731 0
M  V30 1338 H 127.708 -1.55964 -1.11119 0
M  V30 1339 H 126.013 -1.27979 -3.70309 0
M  V30 1340 H 127.71 -1.6671 -3.64704 0
M  V30 1341 H 124.3 -2.98287 -3.07771 0
M  V30 1342 H 128.484 -3.95982 -2.99185 0
M  V30 1343 H 123.74 -5.37126 -2.92071 0
M  V30 1344 H 127.914 -6.35578 -2.84629 0
M  V30 1345 H 125.541 -7.06521 -2.80593 0
M  V30 1346 N 127.117 1.15442 -1.07289 0
M  V30 1347 C 128.394 1.82306 -0.708792 0
M  V30 1348 C 128.774 1.94991 0.808807 0
M  V30 1349 O 128.122 1.50085 1.72298 0
M  V30 1350 C 128.332 3.18695 -1.42247 0
M  V30 1351 C 129.68 3.94341 -1.57417 0
M  V30 1352 O 130.704 3.28247 -1.38319 0
M  V30 1353 O 129.563 5.12839 -1.88834 0
M  V30 1354 H 126.657 0.787628 -0.252132 0
M  V30 1355 H 129.203 1.22559 -1.17377 0
M  V30 1356 H 127.975 3.04557 -2.45684 0
M  V30 1357 H 127.598 3.86128 -0.948223 0
M  V30 1358 N 128.595 0.856903 1.32268 0
M  V30 1359 C 129.82 0.474569 2.01897 0
M  V30 1360 C 130.245 -0.921766 1.63967 0
M  V30 1361 O 129.603 -1.60589 0.84148 0
M  V30 1362 C 129.651 0.623799 3.55164 0
M  V30 1363 O 128.755 -0.342459 4.10976 0
M  V30 1364 H 128.096 0.190422 0.63611 0
M  V30 1365 H 130.626 1.15672 1.68764 0
M  V30 1366 H 130.636 0.512169 4.04773 0
M  V30 1367 H 129.311 1.64202 3.82113 0
M  V30 1368 H 127.888 -0.18688 3.72431 0
M  V30 1369 N 130.073 -1.45103 0.615059 0
M  V30 1370 C 131.35 -1.95549 0.0448276 0
M  V30 1371 C 131.73 -1.55737 -1.4251 0
M  V30 1372 O 131.078 -0.823556 -2.13143 0
M  V30 1373 C 131.288 -3.48098 0.250785 0
M  V30 1374 C 132.636 -4.24384 0.135509 0
M  V30 1375 O 133.66 -3.55738 0.181299 0
M  V30 1376 O 132.519 -5.46493 0.0268878 0
M  V30 1377 H 129.613 -0.8264 -0.0314845 0
M  V30 1378 H 132.159 -1.55232 0.685642 0
M  V30 1379 H 130.931 -3.7007 1.27139 0
M  V30 1380 H 130.554 -3.95323 -0.424937 0
M  V30 1381 N 131.551 -0.354651 -1.53558 0
M  V30 1382 C 132.481 0.489091 -2.2832 0
M  V30 1383 C 133.462 1.09324 -1.30316 0
M  V30 1384 O 134.647 1.11255 -1.59173 0
M  V30 1385 C 131.777 1.63456 -3.0643 0
M  V30 1386 C 130.731 1.1582 -4.12031 0
M  V30 1387 C 130.057 2.39305 -4.7816 0
M  V30 1388 C 131.357 0.250731 -5.21698 0
M  V30 1389 H 133.051 -0.134614 -2.99097 0
M  V30 1390 H 130.597 -0.0661826 -1.43848 0
M  V30 1391 H 132.55 2.23136 -3.57475 0
M  V30 1392 H 131.274 2.28533 -2.33325 0
M  V30 1393 H 129.933 0.584146 -3.61916 0
M  V30 1394 H 129.581 3.02814 -4.01637 0
M  V30 1395 H 129.281 2.08109 -5.49513 0
M  V30 1396 H 130.805 2.99691 -5.31994 0
M  V30 1397 H 132.219 0.754695 -5.68311 0
M  V30 1398 H 130.616 0.0301468 -6.00092 0
M  V30 1399 H 131.686 -0.710125 -4.79672 0
M  V30 1400 N 133.029 1.57378 -0.0835403 0
M  V30 1401 C 133.959 2.1641 0.87686 0
M  V30 1402 C 134.94 1.09429 1.30228 0
M  V30 1403 O 136.125 1.37516 1.37124 0
M  V30 1404 C 133.255 2.73517 2.14022 0
M  V30 1405 C 132.209 3.85769 1.85381 0
M  V30 1406 C 131.535 4.29529 3.18448 0
M  V30 1407 C 132.835 5.09486 1.14984 0
M  V30 1408 H 134.529 2.96914 0.385059 0
M  V30 1409 H 132.075 1.42823 0.18377 0
M  V30 1410 H 134.028 3.13463 2.81636 0
M  V30 1411 H 132.752 1.90252 2.65465 0
M  V30 1412 H 131.411 3.46345 1.20169 0
M  V30 1413 H 131.059 3.43169 3.67755 0
M  V30 1414 H 130.759 5.05204 3.00071 0
M  V30 1415 H 132.283 4.72099 3.8724 0
M  V30 1416 H 133.697 5.46674 1.72687 0
M  V30 1417 H 132.094 5.90515 1.06826 0
M  V30 1418 H 133.164 4.84724 0.130749 0
M  V30 1419 N 134.507 -0.190092 1.56449 0
M  V30 1420 C 135.753 -0.911052 1.81184 0
M  V30 1421 C 136.086 -1.82699 0.658396 0
M  V30 1422 O 135.361 -1.91491 -0.340775 0
M  V30 1423 C 135.644 -1.72297 3.16205 0
M  V30 1424 C 135.497 -0.831419 4.42049 0
M  V30 1425 C 136.816 -2.69454 3.47969 0
M  V30 1426 H 133.935 -0.32977 0.659106 0
M  V30 1427 H 136.577 -0.178169 1.89163 0
M  V30 1428 H 134.727 -2.34778 3.09534 0
M  V30 1429 H 136.399 -0.220929 4.60771 0
M  V30 1430 H 134.642 -0.138406 4.33579 0
M  V30 1431 H 135.313 -1.43461 5.33032 0
M  V30 1432 H 137.789 -2.17104 3.54972 0
M  V30 1433 H 136.665 -3.23342 4.43555 0
M  V30 1434 H 136.926 -3.48744 2.71717 0
M  V30 1435 N 135.985 -1.50799 -0.457987 0
M  V30 1436 C 137.234 -1.6168 -1.20593 0
M  V30 1437 C 137.547 -0.32888 -1.92815 0
M  V30 1438 O 138.753 -0.316773 -2.69646 0
M  V30 1439 C 137.209 -2.8545 -2.19195 0
M  V30 1440 C 136.817 -4.21168 -1.52715 0
M  V30 1441 C 138.561 -3.05681 -2.94549 0
M  V30 1442 C 136.468 -5.3611 -2.4968 0
M  V30 1443 H 135.398 -0.602134 -0.453818 0
M  V30 1444 H 138.049 -1.77245 -0.475031 0
M  V30 1445 H 136.431 -2.63472 -2.95632 0
M  V30 1446 H 137.605 -4.53449 -0.819775 0
M  V30 1447 H 135.92 -4.06648 -0.895922 0
M  V30 1448 H 138.517 -3.88727 -3.67145 0
M  V30 1449 H 138.86 -2.17929 -3.54701 0
M  V30 1450 H 139.393 -3.27901 -2.25223 0
M  V30 1451 H 136.132 -6.26057 -1.94249 0
M  V30 1452 H 135.652 -5.0823 -3.18532 0
M  V30 1453 H 137.331 -5.6722 -3.11241 0
M  V30 1454 N 137.463 0.71206 -1.40597 0
M  V30 1455 C 138.688 1.50617 -1.42581 0
M  V30 1456 C 139.113 1.88079 -0.0282102 0
M  V30 1457 O 138.471 1.53511 0.964579 0
M  V30 1458 C 138.519 2.7557 -2.3258 0
M  V30 1459 O 137.623 3.72414 -1.77148 0
M  V30 1460 H 136.964 0.453966 -0.484573 0
M  V30 1461 H 139.494 0.876649 -1.84868 0
M  V30 1462 H 139.504 3.2406 -2.47889 0
M  V30 1463 H 138.179 2.47639 -3.34138 0
M  V30 1464 H 136.756 3.31276 -1.71204 0
M  V30 1465 N 138.941 1.26152 0.944643 0
M  V30 1466 C 140.169 1.14259 1.72489 0
M  V30 1467 C 140.584 -0.302555 1.8636 0
M  V30 1468 O 139.941 -1.20741 1.36849 0
M  V30 1469 C 139.992 1.80266 3.13347 0
M  V30 1470 O 139.713 3.19133 3.00143 0
M  V30 1471 C 141.214 1.74283 4.07603 0
M  V30 1472 H 138.434 0.398051 0.540181 0
M  V30 1473 H 140.978 1.66706 1.18446 0
M  V30 1474 H 139.133 1.31766 3.64303 0
M  V30 1475 H 139.547 3.51744 3.89071 0
M  V30 1476 H 141.021 2.25111 5.04013 0
M  V30 1477 H 141.498 0.708631 4.33446 0
M  V30 1478 H 142.104 2.22319 3.62567 0
M  V30 1479 N 140.419 -1.14872 1.07899 0
M  V30 1480 C 141.83 -1.67367 0.827363 0
M  V30 1481 C 142.181 -1.85236 -0.646693 0
M  V30 1482 O 141.306 -1.55974 -1.50004 0
M  V30 1483 C 141.901 -3.04016 1.49532 0
M  V30 1484 C 140.46 -3.53566 1.29106 0
M  V30 1485 C 139.607 -2.29161 1.56143 0
M  V30 1486 H 142.558 -0.990083 1.24028 0
M  V30 1487 H 142.579 -3.69219 0.919643 0
M  V30 1488 H 142.091 -2.90978 2.56814 0
M  V30 1489 H 140.192 -3.71835 0.238713 0
M  V30 1490 H 140.305 -4.34661 2.01511 0
M  V30 1491 H 138.669 -2.34978 0.982717 0
M  V30 1492 H 139.452 -2.18705 2.64619 0
M  V30 1493 N 141.898 -0.863906 -1.31812 0
M  V30 1494 C 142.831 -0.259963 -2.26714 0
M  V30 1495 C 143.809 0.607392 -1.50829 0
M  V30 1496 O 144.993 0.562155 -1.79922 0
M  V30 1497 C 142.12 0.632456 -3.32743 0
M  V30 1498 C 141.166 -0.162743 -4.26189 0
M  V30 1499 S 141.999 -1.53726 -5.12961 0
M  V30 1500 C 143.155 -0.650803 -6.22507 0
M  V30 1501 H 143.388 -1.06445 -2.77591 0
M  V30 1502 H 140.921 -0.662071 -1.39485 0
M  V30 1503 H 142.879 1.14167 -3.94305 0
M  V30 1504 H 141.54 1.41083 -2.80632 0
M  V30 1505 H 140.733 0.517366 -5.01338 0
M  V30 1506 H 140.335 -0.60385 -3.69093 0
M  V30 1507 H 142.627 0.141134 -6.77353 0
M  V30 1508 H 143.57 -1.37322 -6.94657 0
M  V30 1509 H 143.978 -0.221041 -5.64067 0
M  V30 1510 N 143.376 1.44774 -0.622745 0
M  V30 1511 C 144.606 2.06187 -0.130532 0
M  V30 1512 C 145.014 1.46547 1.19669 0
M  V30 1513 O 144.357 0.579636 1.74316 0
M  V30 1514 C 144.419 3.59437 0.0674983 0
M  V30 1515 C 144.083 4.41496 -1.18026 0
M  V30 1516 C 145.08 4.75512 -2.102 0
M  V30 1517 C 142.765 4.82007 -1.41333 0
M  V30 1518 C 144.759 5.48912 -3.23998 0
M  V30 1519 C 142.446 5.55157 -2.55429 0
M  V30 1520 C 143.444 5.88528 -3.46589 0
M  V30 1521 O 143.132 6.60191 -4.58697 0
M  V30 1522 H 142.864 0.672045 -0.0730162 0
M  V30 1523 H 145.418 1.86768 -0.854802 0
M  V30 1524 H 143.648 3.77314 0.846825 0
M  V30 1525 H 145.337 4.02642 0.513209 0
M  V30 1526 H 146.103 4.4476 -1.93425 0
M  V30 1527 H 141.982 4.55457 -0.712709 0
M  V30 1528 H 145.526 5.74877 -3.95174 0
M  V30 1529 H 141.423 5.85324 -2.72151 0
M  V30 1530 H 142.191 6.78654 -4.57571 0
M  V30 1531 N 144.854 0.36279 1.53368 0
M  V30 1532 C 145.802 -0.500155 2.27159 0
M  V30 1533 C 146.796 -1.08575 1.3003 0
M  V30 1534 O 148.002 -1.02927 1.47668 0
M  V30 1535 H 144.377 -0.180009 0.730138 0
M  V30 1536 H 146.348 0.14401 2.98052 0
M  V30 1537 C 145.097 -1.62937 3.07159 0
M  V30 1538 H 144.42 -1.18806 3.8174 0
M  V30 1539 H 145.86 -2.20795 3.61975 0
M  V30 1540 C 144.319 -2.57007 2.17829 0
M  V30 1541 O 144.849 -3.59752 1.78721 0
M  V30 1542 N 143.055 -2.26131 1.82518 0
M  V30 1543 H 142.602 -1.42616 2.14519 0
M  V30 1544 H 142.56 -2.89327 1.23034 0
M  V30 1545 N 146.332 -1.57332 0.0918853 0
M  V30 1546 C 147.579 -1.94236 -0.572577 0
M  V30 1547 C 147.907 -0.973398 -1.6839 0
M  V30 1548 O 147.162 0.00756912 -1.95699 0
M  V30 1549 C 147.461 -3.37689 -1.17051 0
M  V30 1550 C 147.127 -4.50527 -0.183304 0
M  V30 1551 C 145.789 -4.81119 0.0882276 0
M  V30 1552 C 148.141 -5.18883 0.49095 0
M  V30 1553 C 145.469 -5.77395 1.04076 0
M  V30 1554 C 147.821 -6.1618 1.43193 0
M  V30 1555 C 146.485 -6.45179 1.71173 0
M  V30 1556 H 145.755 -0.710762 -0.209521 0
M  V30 1557 H 148.402 -1.9077 0.167036 0
M  V30 1558 H 146.707 -3.37718 -1.9863 0
M  V30 1559 H 148.404 -3.63543 -1.69227 0
M  V30 1560 H 144.994 -4.26681 -0.405124 0
M  V30 1561 H 149.178 -4.95427 0.294312 0
M  V30 1562 H 144.434 -5.98179 1.26457 0
M  V30 1563 H 148.608 -6.68243 1.96023 0
M  V30 1564 H 146.235 -7.1959 2.4514 0
M  V30 1565 N 147.81 0.181792 -1.56548 0
M  V30 1566 C 149.035 0.920019 -1.85877 0
M  V30 1567 C 149.46 1.75494 -0.677021 0
M  V30 1568 O 148.818 1.77399 0.374056 0
M  V30 1569 C 148.866 1.78112 -3.13542 0
M  V30 1570 O 147.97 2.88152 -2.95029 0
M  V30 1571 H 147.311 0.258334 -0.611686 0
M  V30 1572 H 149.841 0.183092 -2.03779 0
M  V30 1573 H 149.851 2.18314 -3.44678 0
M  V30 1574 H 148.526 1.16777 -3.99169 0
M  V30 1575 H 147.103 2.51609 -2.75222 0
M  V30 1576 N 149.288 1.51039 0.449983 0
M  V30 1577 C 150.534 1.63322 1.20223 0
M  V30 1578 C 150.867 0.34241 1.91158 0
M  V30 1579 O 150.142 -0.657344 1.83055 0
M  V30 1580 C 150.425 2.82801 2.22925 0
M  V30 1581 C 150.278 4.21823 1.56157 0
M  V30 1582 C 151.597 2.97807 3.24035 0
M  V30 1583 H 148.716 0.594407 0.435718 0
M  V30 1584 H 151.358 1.83489 0.493136 0
M  V30 1585 H 149.508 2.65738 2.834 0
M  V30 1586 H 151.18 4.50526 0.991162 0
M  V30 1587 H 149.423 4.25105 0.864172 0
M  V30 1588 H 150.094 5.01391 2.30891 0
M  V30 1589 H 152.57 3.13497 2.73603 0
M  V30 1590 H 151.446 3.82992 3.93202 0
M  V30 1591 H 151.707 2.09328 3.89402 0
M  V30 1592 N 150.766 -0.704594 1.40972 0
M  V30 1593 C 152.177 -1.28418 1.3552 0
M  V30 1594 C 152.528 -1.96171 0.0339434 0
M  V30 1595 O 151.653 -1.98231 -0.867944 0
M  V30 1596 C 152.248 -2.33528 2.45459 0
M  V30 1597 C 150.807 -2.87085 2.43433 0
M  V30 1598 C 149.954 -1.61007 2.2577 0
M  V30 1599 H 152.905 -0.499963 1.50619 0
M  V30 1600 H 152.926 -3.14619 2.13998 0
M  V30 1601 H 152.438 -1.84187 3.41609 0
M  V30 1602 H 150.539 -3.40626 1.51013 0
M  V30 1603 H 150.652 -3.3813 3.39419 0
M  V30 1604 H 149.016 -1.86482 1.73483 0
M  V30 1605 H 149.799 -1.13675 3.23933 0
M  V30 1606 N 152.244 -1.26651 -0.937939 0
M  V30 1607 C 153.469 -1.15279 -1.72411 0
M  V30 1608 C 153.894 0.287866 -1.85884 0
M  V30 1609 O 153.252 1.20855 -1.35143 0
M  V30 1610 C 153.3 -1.83028 -3.10698 0
M  V30 1611 O 152.404 -1.12128 -3.96864 0
M  V30 1612 H 151.745 -0.401504 -0.528858 0
M  V30 1613 H 154.275 -1.67531 -1.1745 0
M  V30 1614 H 154.285 -1.89981 -3.6107 0
M  V30 1615 H 152.96 -2.87833 -3.00208 0
M  V30 1616 H 151.537 -1.13173 -3.55312 0
M  V30 1617 N 153.722 1.14298 -1.08507 0
M  V30 1618 C 154.97 1.84993 -0.813763 0
M  V30 1619 C 155.291 1.83405 0.662393 0
M  V30 1620 O 154.561 1.28319 1.48024 0
M  V30 1621 H 153.141 0.684966 -0.298045 0
M  V30 1622 H 155.803 1.385 -1.37126 0
M  V30 1623 H 154.899 2.89788 -1.15884 0
M  V30 1624 N 155.201 0.870884 1.31352 0
M  V30 1625 C 156.131 0.343096 2.30966 0
M  V30 1626 C 157.112 -0.566507 1.60389 0
M  V30 1627 O 158.297 -0.483336 1.88089 0
M  V30 1628 C 155.427 -0.455487 3.443 0
M  V30 1629 C 154.381 0.361103 4.26474 0
M  V30 1630 C 153.707 -0.563221 5.31725 0
M  V30 1631 C 155.007 1.59566 4.97329 0
M  V30 1632 H 156.701 1.17548 2.75359 0
M  V30 1633 H 154.247 0.566686 1.32381 0
M  V30 1634 H 156.2 -0.83525 4.13039 0
M  V30 1635 H 154.924 -1.32139 2.98675 0
M  V30 1636 H 153.583 0.722825 3.59403 0
M  V30 1637 H 153.231 -1.42643 4.82351 0
M  V30 1638 H 152.931 -0.0207409 5.87596 0
M  V30 1639 H 154.455 -0.939808 6.03324 0
M  V30 1640 H 155.869 1.28728 5.58661 0
M  V30 1641 H 154.266 2.07728 5.63 0
M  V30 1642 H 155.336 2.34798 4.24262 0
M  V30 1643 N 156.679 -1.44442 0.630414 0
M  V30 1644 C 157.626 -2.30678 -0.0749355 0
M  V30 1645 C 158.596 -1.4344 -0.837502 0
M  V30 1646 O 159.781 -1.72343 -0.818684 0
M  V30 1647 C 156.921 -3.28706 -1.05103 0
M  V30 1648 C 156.034 -4.31046 -0.286954 0
M  V30 1649 C 155.169 -5.16167 -1.2548 0
M  V30 1650 C 154.208 -6.10216 -0.479843 0
M  V30 1651 N 153.345 -6.88039 -1.39811 0
M  V30 1652 H 158.185 -2.90454 0.666386 0
M  V30 1653 H 155.722 -1.43107 0.340404 0
M  V30 1654 H 157.68 -3.84027 -1.63031 0
M  V30 1655 H 156.31 -2.70632 -1.75949 0
M  V30 1656 H 155.362 -3.78203 0.408243 0
M  V30 1657 H 156.674 -4.97794 0.316657 0
M  V30 1658 H 155.828 -5.76002 -1.90544 0
M  V30 1659 H 154.567 -4.49491 -1.89233 0
M  V30 1660 H 153.572 -5.49491 0.184295 0
M  V30 1661 H 154.797 -6.78928 0.152965 0
M  V30 1662 H 152.743 -6.24032 -2.02287 0
M  V30 1663 H 152.66 -7.51223 -0.848508 0
M  V30 1664 H 153.928 -7.52397 -2.03762 0
M  V30 1665 N 158.157 -0.370918 -1.53173 0
M  V30 1666 C 159.12 0.460778 -2.24521 0
M  V30 1667 C 160.12 1.00536 -1.25496 0
M  V30 1668 O 161.31 0.890266 -1.49733 0
M  V30 1669 C 158.442 1.64457 -2.98608 0
M  V30 1670 H 159.635 -0.163613 -2.99453 0
M  V30 1671 H 157.188 -0.122699 -1.55818 0
M  V30 1672 H 157.923 2.30691 -2.2793 0
M  V30 1673 H 157.708 1.26099 -3.7127 0
M  V30 1674 H 159.198 2.23384 -3.5283 0
M  V30 1675 N 159.635 1.57281 -0.100228 0
M  V30 1676 C 160.881 1.95626 0.556946 0
M  V30 1677 C 161.236 0.981655 1.65473 0
M  V30 1678 O 160.529 0.00849847 1.91598 0
M  V30 1679 C 160.723 3.38305 1.15259 0
M  V30 1680 C 160.552 4.49555 0.114035 0
M  V30 1681 C 159.322 5.0434 -0.311266 0
M  V30 1682 C 161.52 5.10051 -0.659768 0
M  V30 1683 N 159.502 5.99152 -1.33755 0
M  V30 1684 C 160.873 6.00628 -1.53774 0
M  V30 1685 C 162.928 4.92772 -0.712723 0
M  V30 1686 C 161.631 6.7578 -2.46403 0
M  V30 1687 C 163.657 5.6859 -1.62663 0
M  V30 1688 C 163.019 6.58838 -2.49222 0
M  V30 1689 H 159.118 0.7624 0.173982 0
M  V30 1690 H 161.702 1.93829 -0.183988 0
M  V30 1691 H 159.873 3.40786 1.86332 0
M  V30 1692 H 161.605 3.63817 1.77254 0
M  V30 1693 H 158.36 4.73537 0.0774812 0
M  V30 1694 H 158.784 6.5126 -1.84905 0
M  V30 1695 H 163.426 4.22761 -0.0576648 0
M  V30 1696 H 161.144 7.4505 -3.12931 0
M  V30 1697 H 164.73 5.57233 -1.67281 0
M  V30 1698 H 163.61 7.16479 -3.18791 0
M  V30 1699 N 161.113 -0.173488 1.56642 0
M  V30 1700 C 162.362 -0.888758 1.81063 0
M  V30 1701 C 162.675 -1.83506 0.67712 0
M  V30 1702 O 163.881 -2.59254 0.806206 0
M  V30 1703 C 162.337 -1.63091 3.20826 0
M  V30 1704 C 161.945 -0.728357 4.4204 0
M  V30 1705 C 163.689 -2.33454 3.54541 0
M  V30 1706 C 161.596 -1.47062 5.72823 0
M  V30 1707 H 160.526 -0.335618 0.675186 0
M  V30 1708 H 163.177 -0.141712 1.82952 0
M  V30 1709 H 161.559 -2.42263 3.13248 0
M  V30 1710 H 162.733 0.0262449 4.60793 0
M  V30 1711 H 161.048 -0.134492 4.16183 0
M  V30 1712 H 163.645 -2.89578 4.49498 0
M  V30 1713 H 163.988 -3.08687 2.79317 0
M  V30 1714 H 164.521 -1.61227 3.63663 0
M  V30 1715 H 161.26 -0.760658 6.51072 0
M  V30 1716 H 160.78 -2.1986 5.58052 0
M  V30 1717 H 162.459 -2.01868 6.14702 0
M  V30 1718 N 162.591 -1.51276 -0.441967 0
M  V30 1719 C 163.868 -1.54252 -1.20273 0
M  V30 1720 C 164.248 -0.30408 -2.08898 0
M  V30 1721 O 163.596 0.711084 -2.17154 0
M  V30 1722 C 163.806 -2.85406 -2.00859 0
M  V30 1723 C 165.154 -3.37181 -2.58059 0
M  V30 1724 O 166.178 -2.86925 -2.11074 0
M  V30 1725 O 165.037 -4.24858 -3.43741 0
M  V30 1726 H 162.131 -0.619969 -0.547328 0
M  V30 1727 H 164.677 -1.63586 -0.451413 0
M  V30 1728 H 163.449 -3.67003 -1.35736 0
M  V30 1729 H 163.072 -2.79213 -2.83065 0
M  V30 1730 N 164.069 0.697108 -1.41344 0
M  V30 1731 C 165.001 1.8224 -1.39001 0
M  V30 1732 C 166.014 1.60152 -0.292428 0
M  V30 1733 O 167.203 1.69684 -0.554048 0
M  V30 1734 C 164.303 3.18976 -1.14489 0
M  V30 1735 C 163.476 3.68105 -2.36258 0
M  V30 1736 C 162.535 4.83506 -2.07625 0
M  V30 1737 O 161.561 4.95201 -2.8065 0
M  V30 1738 N 162.763 5.70637 -1.06555 0
M  V30 1739 H 165.528 1.84742 -2.35988 0
M  V30 1740 H 163.089 0.87937 -1.35936 0
M  V30 1741 H 165.081 3.93801 -0.932885 0
M  V30 1742 H 163.651 3.11508 -0.261043 0
M  V30 1743 H 162.871 2.84204 -2.7317 0
M  V30 1744 H 164.159 3.97667 -3.17393 0
M  V30 1745 H 163.557 5.63817 -0.461125 0
M  V30 1746 H 162.114 6.45368 -0.913444 0
M  V30 1747 N 165.547 1.27147 0.931209 0
M  V30 1748 C 166.796 1.12664 1.67302 0
M  V30 1749 C 167.109 -0.327718 1.92835 0
M  V30 1750 O 168.315 -0.593392 2.64936 0
M  V30 1751 C 166.771 1.9683 3.01307 0
M  V30 1752 C 166.379 3.46901 2.83485 0
M  V30 1753 C 168.123 1.90985 3.79111 0
M  V30 1754 C 166.03 4.23279 4.13024 0
M  V30 1755 H 164.96 0.41803 0.627509 0
M  V30 1756 H 167.611 1.51539 1.03481 0
M  V30 1757 H 165.993 1.50797 3.66164 0
M  V30 1758 H 167.167 4.00773 2.27415 0
M  V30 1759 H 165.482 3.54088 2.19113 0
M  V30 1760 H 168.079 2.45328 4.75098 0
M  V30 1761 H 168.422 0.882718 4.06834 0
M  V30 1762 H 168.955 2.34895 3.21044 0
M  V30 1763 H 165.694 5.26503 3.90481 0
M  V30 1764 H 165.214 3.74186 4.6877 0
M  V30 1765 H 166.893 4.32265 4.81411 0
M  V30 1766 N 167.025 -1.13721 1.09112 0
M  V30 1767 C 168.271 -1.85198 0.826414 0
M  V30 1768 C 168.604 -1.83129 -0.646319 0
M  V30 1769 O 167.879 -1.2671 -1.47563 0
M  V30 1770 C 168.162 -3.33507 1.35812 0
M  V30 1771 C 168.015 -3.44108 2.89672 0
M  V30 1772 C 169.334 -4.28838 0.989256 0
M  V30 1773 H 166.453 -0.67243 0.301675 0
M  V30 1774 H 169.095 -1.33499 1.35197 0
M  V30 1775 H 167.245 -3.77666 0.911082 0
M  V30 1776 H 168.917 -3.08684 3.428 0
M  V30 1777 H 167.16 -2.85087 3.26967 0
M  V30 1778 H 167.831 -4.48388 3.21951 0
M  V30 1779 H 170.307 -3.92734 1.37475 0
M  V30 1780 H 169.183 -5.31051 1.38838 0
M  V30 1781 H 169.444 -4.4198 -0.102924 0
M  V30 1782 N 168.503 -0.877838 -1.30888 0
M  V30 1783 C 169.919 -0.570844 -1.49042 0
M  V30 1784 C 170.119 0.893159 -1.80624 0
M  V30 1785 O 169.175 1.67485 -1.88958 0
M  V30 1786 C 170.488 -1.47784 -2.61878 0
M  V30 1787 C 172.036 -1.48071 -2.75761 0
M  V30 1788 C 172.511 -2.37347 -3.91702 0
M  V30 1789 N 174.002 -2.35271 -3.99001 0
M  V30 1790 C 174.737 -3.01063 -4.88004 0
M  V30 1791 N 174.233 -3.76055 -5.81854 0
M  V30 1792 N 176.026 -2.90332 -4.81315 0
M  V30 1793 H 168.177 -1.82502 -1.0866 0
M  V30 1794 H 170.44 -0.780797 -0.537644 0
M  V30 1795 H 170.146 -2.51993 -2.45341 0
M  V30 1796 H 170.02 -1.18215 -3.58197 0
M  V30 1797 H 172.407 -0.446166 -2.91708 0
M  V30 1798 H 172.488 -1.81668 -1.80085 0
M  V30 1799 H 172.132 -3.40883 -3.76512 0
M  V30 1800 H 172.062 -2.01071 -4.86701 0
M  V30 1801 H 174.553 -1.80768 -3.3186 0
M  V30 1802 H 174.866 -4.23366 -6.46514 0
M  V30 1803 H 173.211 -3.80163 -5.81808 0
M  V30 1804 H 176.402 -2.31278 -4.06974 0
M  V30 1805 H 176.575 -3.41885 -5.50471 0
M  V30 1806 N 169.982 1.44106 -0.638065 0
M  V30 1807 C 170.912 2.33448 0.0494287 0
M  V30 1808 C 171.893 1.48606 0.827672 0
M  V30 1809 O 173.078 1.77308 0.792173 0
M  V30 1810 C 170.208 3.31771 1.02691 0
M  V30 1811 C 169.162 4.26485 0.359823 0
M  V30 1812 C 168.488 5.14729 1.44769 0
M  V30 1813 C 169.788 5.17056 -0.738296 0
M  V30 1814 H 171.482 2.91183 -0.696636 0
M  V30 1815 H 169.028 1.40014 -0.336456 0
M  V30 1816 H 170.981 3.93161 1.51666 0
M  V30 1817 H 169.705 2.7226 1.80395 0
M  V30 1818 H 168.364 3.66437 -0.10934 0
M  V30 1819 H 168.012 4.51566 2.21578 0
M  V30 1820 H 167.712 5.78913 1.00668 0
M  V30 1821 H 169.236 5.78991 1.93911 0
M  V30 1822 H 170.65 5.72342 -0.331354 0
M  V30 1823 H 169.047 5.89879 -1.10286 0
M  V30 1824 H 170.117 4.57652 -1.60258 0
M  V30 1825 N 171.46 0.379036 1.52974 0
M  V30 1826 C 172.708 -0.206014 2.01047 0
M  V30 1827 C 173.029 -1.48175 1.26765 0
M  V30 1828 O 172.299 -1.92085 0.384743 0
M  V30 1829 H 170.879 -0.0791184 0.742798 0
M  V30 1830 H 173.541 0.508366 1.88153 0
M  V30 1831 H 172.637 -0.423501 3.09213 0
M  V30 1832 N 172.938 -1.57226 0.108567 0
M  V30 1833 C 174.184 -1.95121 -0.552761 0
M  V30 1834 C 174.517 -0.991345 -1.66991 0
M  V30 1835 O 173.792 -0.0267211 -1.94482 0
M  V30 1836 C 174.075 -3.43039 -1.09528 0
M  V30 1837 C 173.928 -4.49797 0.0177332 0
M  V30 1838 C 175.247 -3.92567 -1.98945 0
M  V30 1839 H 172.366 -0.709496 -0.199461 0
M  V30 1840 H 175.008 -1.89126 0.182011 0
M  V30 1841 H 173.158 -3.48279 -1.72146 0
M  V30 1842 H 174.83 -4.56661 0.652584 0
M  V30 1843 H 173.073 -4.284 0.682309 0
M  V30 1844 H 173.744 -5.50528 -0.402919 0
M  V30 1845 H 176.22 -3.89565 -1.46214 0
M  V30 1846 H 175.096 -4.96605 -2.33827 0
M  V30 1847 H 175.357 -3.32648 -2.91201 0
M  V30 1848 N 174.416 0.165178 -1.56732 0
M  V30 1849 C 175.644 0.896218 -1.86482 0
M  V30 1850 C 176.059 1.75555 -0.694675 0
M  V30 1851 O 175.416 1.79379 0.33607 0
M  V30 1852 C 175.467 1.76792 -3.1532 0
M  V30 1853 O 175.188 0.943239 -4.27825 0
M  V30 1854 C 176.689 2.6081 -3.58459 0
M  V30 1855 H 173.909 0.260064 -0.618553 0
M  V30 1856 H 176.453 0.163428 -2.03846 0
M  V30 1857 H 174.608 2.45398 -2.99764 0
M  V30 1858 H 175.022 1.53998 -5.01383 0
M  V30 1859 H 176.496 3.17579 -4.51495 0
M  V30 1860 H 176.973 3.35977 -2.82872 0
M  V30 1861 H 177.579 1.97526 -3.76648 0
M  V30 1862 N 175.894 1.51508 0.433938 0
M  V30 1863 C 177.141 1.64345 1.18309 0
M  V30 1864 C 177.469 0.361315 1.91115 0
M  V30 1865 O 176.724 -0.654753 1.84422 0
M  V30 1866 C 177.023 2.79928 2.22205 0
M  V30 1867 C 176.689 4.19078 1.66387 0
M  V30 1868 C 175.351 4.56932 1.50887 0
M  V30 1869 C 177.703 5.05894 1.25381 0
M  V30 1870 C 175.031 5.79305 0.928608 0
M  V30 1871 C 177.383 6.2885 0.687823 0
M  V30 1872 C 176.047 6.65473 0.519755 0
M  V30 1873 H 175.317 0.601381 0.432923 0
M  V30 1874 H 177.964 1.85549 0.473676 0
M  V30 1875 H 176.269 2.52959 2.99197 0
M  V30 1876 H 177.966 2.87059 2.79997 0
M  V30 1877 H 174.556 3.89234 1.79428 0
M  V30 1878 H 178.74 4.77253 1.36175 0
M  V30 1879 H 173.996 6.06324 0.786186 0
M  V30 1880 H 178.17 6.95461 0.361581 0
M  V30 1881 H 175.797 7.6017 0.0679979 0
M  V30 1882 N 177.372 -0.689602 1.41712 0
M  V30 1883 C 178.649 -1.44457 1.31877 0
M  V30 1884 C 179.029 -2.11039 -0.0508537 0
M  V30 1885 O 178.377 -2.02138 -1.06547 0
M  V30 1886 C 178.587 -2.45913 2.47645 0
M  V30 1887 C 179.935 -3.10991 2.89084 0
M  V30 1888 O 180.959 -2.56238 2.47428 0
M  V30 1889 O 179.818 -4.10174 3.61137 0
M  V30 1890 H 176.912 -0.64362 0.519309 0
M  V30 1891 H 179.458 -0.719576 1.53689 0
M  V30 1892 H 178.23 -1.95409 3.39015 0
M  V30 1893 H 177.853 -3.25913 2.27742 0
M  V30 1894 N 178.85 -1.27639 -0.924453 0
M  V30 1895 C 180.097 -1.14167 -1.67249 0
M  V30 1896 C 180.425 0.311863 -1.91984 0
M  V30 1897 O 179.68 1.24425 -1.51053 0
M  V30 1898 C 179.979 -1.87407 -3.04325 0
M  V30 1899 C 179.645 -3.37249 -2.99289 0
M  V30 1900 C 178.307 -3.7812 -2.97622 0
M  V30 1901 C 180.659 -4.32845 -2.90336 0
M  V30 1902 C 177.987 -5.12944 -2.8479 0
M  V30 1903 C 180.339 -5.6773 -2.79045 0
M  V30 1904 C 179.003 -6.07889 -2.7573 0
M  V30 1905 H 178.273 -0.417766 -0.612007 0
M  V30 1906 H 180.92 -1.58286 -1.07786 0
M  V30 1907 H 179.225 -1.35805 -3.67511 0
M  V30 1908 H 180.922 -1.74408 -3.61086 0
M  V30 1909 H 177.512 -3.04748 -3.01374 0
M  V30 1910 H 181.696 -4.02239 -2.90719 0
M  V30 1911 H 176.952 -5.432 -2.80612 0
M  V30 1912 H 181.126 -6.41472 -2.71083 0
M  V30 1913 H 178.753 -7.12314 -2.65544 0
M  V30 1914 N 180.328 1.1314 -1.09713 0
M  V30 1915 C 181.574 1.84757 -0.836224 0
M  V30 1916 C 181.907 1.8347 0.636598 0
M  V30 1917 O 181.182 1.27491 1.46889 0
M  V30 1918 C 181.465 3.32782 -1.37578 0
M  V30 1919 C 181.318 3.42567 -2.91493 0
M  V30 1920 C 182.637 4.28307 -1.01198 0
M  V30 1921 H 179.756 0.67082 -0.305236 0
M  V30 1922 H 182.398 1.3278 -1.35903 0
M  V30 1923 H 180.548 3.77177 -0.931097 0
M  V30 1924 H 182.22 3.06862 -3.44432 0
M  V30 1925 H 180.463 2.83349 -3.28475 0
M  V30 1926 H 181.134 4.46674 -3.24324 0
M  V30 1927 H 183.61 3.91999 -1.39556 0
M  V30 1928 H 182.486 5.30307 -1.41653 0
M  V30 1929 H 182.747 4.42029 0.0794833 0
M  V30 1930 N 181.806 0.884767 1.30421 0
M  V30 1931 C 182.736 0.367574 2.30589 0
M  V30 1932 C 183.717 -0.549464 1.60981 0
M  V30 1933 O 184.902 -0.46336 1.88591 0
M  V30 1934 C 182.032 -0.418944 3.44764 0
M  V30 1935 C 180.986 0.406316 4.26067 0
M  V30 1936 C 180.312 -0.506793 5.32293 0
M  V30 1937 C 181.612 1.64832 4.95608 0
M  V30 1938 H 183.306 1.20462 2.74097 0
M  V30 1939 H 180.852 0.580695 1.31772 0
M  V30 1940 H 182.805 -0.791395 4.13902 0
M  V30 1941 H 181.529 -1.28964 3.0006 0
M  V30 1942 H 180.188 0.760903 3.58617 0
M  V30 1943 H 179.836 -1.37519 4.83836 0
M  V30 1944 H 179.536 0.0415828 5.87585 0
M  V30 1945 H 181.06 -0.875764 6.04287 0
M  V30 1946 H 182.474 1.34646 5.57264 0
M  V30 1947 H 180.871 2.13688 5.60765 0
M  V30 1948 H 181.941 2.39284 4.21748 0
M  V30 1949 N 183.284 -1.43765 0.645699 0
M  V30 1950 C 184.561 -1.9541 0.0862963 0
M  V30 1951 C 184.941 -1.58725 -1.39175 0
M  V30 1952 O 184.289 -0.868581 -2.11348 0
M  V30 1953 C 184.499 -3.47488 0.324565 0
M  V30 1954 C 185.847 -4.24001 0.225497 0
M  V30 1955 O 186.871 -3.55274 0.256715 0
M  V30 1956 O 185.73 -5.46313 0.142801 0
M  V30 1957 H 182.824 -0.826882 -0.0139483 0
M  V30 1958 H 185.37 -1.53743 0.718415 0
M  V30 1959 H 184.142 -3.67289 1.3496 0
M  V30 1960 H 183.765 -3.96135 -0.340987 0
M  V30 1961 N 184.763 -0.387143 -1.52771 0
M  V30 1962 C 185.711 0.463953 -2.27926 0
M  V30 1963 C 186.705 1.06493 -1.31741 0
M  V30 1964 O 187.911 1.00565 -1.49287 0
M  V30 1965 H 184.286 0.16837 -0.732909 0
M  V30 1966 H 186.257 -0.19141 -2.97785 0
M  V30 1967 C 185.006 1.5803 -3.09713 0
M  V30 1968 H 184.329 1.12718 -3.83581 0
M  V30 1969 H 185.769 2.15008 -3.65442 0
M  V30 1970 C 184.228 2.53509 -2.2189 0
M  V30 1971 O 184.758 3.56863 -1.84422 0
M  V30 1972 N 182.964 2.23199 -1.86093 0
M  V30 1973 H 182.511 1.39185 -2.16761 0
M  V30 1974 H 182.469 2.87333 -1.27621 0
M  V30 1975 N 186.241 1.57166 -0.116904 0
M  V30 1976 C 187.489 1.94737 0.540533 0
M  V30 1977 C 187.81 1.00096 1.67349 0
M  V30 1978 O 187.08 0.0568854 1.95817 0
M  V30 1979 H 185.66 0.718981 0.202669 0
M  V30 1980 H 188.322 1.94017 -0.185353 0
M  V30 1981 H 187.418 2.97719 0.936483 0
M  V30 1982 N 187.719 -0.156864 1.56817 0
M  V30 1983 C 188.965 -0.872416 1.83076 0
M  V30 1984 C 189.298 -1.81261 0.697001 0
M  V30 1985 O 188.573 -1.92171 -0.30008 0
M  V30 1986 C 188.856 -1.65551 3.19789 0
M  V30 1987 C 188.709 -0.737467 4.43713 0
M  V30 1988 C 190.028 -2.62012 3.53606 0
M  V30 1989 H 187.147 -0.315715 0.665953 0
M  V30 1990 H 189.789 -0.138004 1.89498 0
M  V30 1991 H 187.939 -2.28159 3.14445 0
M  V30 1992 H 189.611 -0.123143 4.61136 0
M  V30 1993 H 187.854 -0.0464067 4.33775 0
M  V30 1994 H 188.525 -1.32122 5.35955 0
M  V30 1995 H 191.001 -2.09525 3.59497 0
M  V30 1996 H 189.877 -3.13861 4.50314 0
M  V30 1997 H 190.138 -3.42902 2.79053 0
M  V30 1998 N 189.197 -1.51736 -0.425897 0
M  V30 1999 C 190.16 -1.73271 -1.50032 0
M  V30 2000 C 191.16 -0.602639 -1.4908 0
M  V30 2001 O 192.35 -0.87033 -1.509 0
M  V30 2002 C 189.482 -1.79969 -2.89523 0
M  V30 2003 H 190.675 -2.69172 -1.32237 0
M  V30 2004 H 188.228 -1.41899 -0.65532 0
M  V30 2005 H 188.963 -0.859241 -3.1271 0
M  V30 2006 H 188.748 -2.62109 -2.91619 0
M  V30 2007 H 190.238 -1.9843 -3.67444 0
M  V30 2008 N 190.675 0.682077 -1.42076 0
M  V30 2009 C 191.607 1.80755 -1.40926 0
M  V30 2010 C 192.62 1.59833 -0.309398 0
M  V30 2011 O 193.809 1.69087 -0.572014 0
M  V30 2012 C 190.909 3.17744 -1.17865 0
M  V30 2013 C 190.082 3.65578 -2.40149 0
M  V30 2014 C 189.141 4.81277 -2.12742 0
M  V30 2015 O 188.167 4.92197 -2.85887 0
M  V30 2016 N 189.369 5.69474 -1.12602 0
M  V30 2017 H 192.134 1.82229 -2.37935 0
M  V30 2018 H 189.695 0.864903 -1.36861 0
M  V30 2019 H 191.687 3.9279 -0.9746 0
M  V30 2020 H 190.257 3.11214 -0.294068 0
M  V30 2021 H 189.477 2.81291 -2.76169 0
M  V30 2022 H 190.765 3.94278 -3.21593 0
M  V30 2023 H 190.163 5.63297 -0.520899 0
M  V30 2024 H 188.72 6.44363 -0.981842 0
M  V30 2025 N 192.153 1.28127 0.917671 0
M  V30 2026 C 193.383 1.17722 1.6978 0
M  V30 2027 C 193.791 -0.267261 1.87303 0
M  V30 2028 O 193.134 -1.19286 1.39702 0
M  V30 2029 C 193.196 1.79958 3.11216 0
M  V30 2030 C 192.86 3.29187 3.16993 0
M  V30 2031 C 193.857 4.25679 2.98485 0
M  V30 2032 C 191.542 3.70075 3.39632 0
M  V30 2033 C 193.536 5.61035 3.02521 0
M  V30 2034 C 191.223 5.05557 3.433 0
M  V30 2035 C 192.221 6.00847 3.24764 0
M  V30 2036 O 191.909 7.33859 3.28187 0
M  V30 2037 H 191.641 0.409788 0.537634 0
M  V30 2038 H 194.195 1.69694 1.15728 0
M  V30 2039 H 192.425 1.22475 3.66793 0
M  V30 2040 H 194.114 1.64125 3.71238 0
M  V30 2041 H 194.88 3.95426 2.80826 0
M  V30 2042 H 190.759 2.96373 3.53106 0
M  V30 2043 H 194.303 6.35388 2.87971 0
M  V30 2044 H 190.2 5.35462 3.60486 0
M  V30 2045 H 190.968 7.42436 3.44575 0
M  V30 2046 N 193.631 -1.12557 1.10312 0
M  V30 2047 C 195.047 -1.36036 0.834649 0
M  V30 2048 C 195.247 -1.93946 -0.546539 0
M  V30 2049 O 194.303 -2.16484 -1.29966 0
M  V30 2050 C 195.616 -2.30312 1.9333 0
M  V30 2051 C 197.164 -2.43906 1.9616 0
M  V30 2052 C 197.639 -3.41496 3.05195 0
M  V30 2053 N 199.13 -3.49053 3.04494 0
M  V30 2054 C 199.865 -4.24471 3.85502 0
M  V30 2055 N 199.361 -5.02966 4.76442 0
M  V30 2056 N 201.154 -4.19864 3.73725 0
M  V30 2057 H 193.305 -0.733246 1.99342 0
M  V30 2058 H 195.568 -0.385234 0.866198 0
M  V30 2059 H 195.274 -1.94933 2.92735 0
M  V30 2060 H 195.148 -3.30421 1.81939 0
M  V30 2061 H 197.535 -2.78567 0.973886 0
M  V30 2062 H 197.616 -1.4369 2.11629 0
M  V30 2063 H 197.26 -3.07565 4.04186 0
M  V30 2064 H 197.19 -4.41539 2.86968 0
M  V30 2065 H 199.681 -2.93053 2.38596 0
M  V30 2066 H 199.994 -5.57846 5.34815 0
M  V30 2067 H 198.339 -5.02167 4.80472 0
M  V30 2068 H 201.53 -3.57623 3.02032 0
M  V30 2069 H 201.703 -4.78386 4.37093 0
M  V30 2070 N 195.109 -0.891671 -1.2995 0
M  V30 2071 C 196.52 -0.563104 -1.78006 0
M  V30 2072 C 196.871 0.920978 -1.73241 0
M  V30 2073 O 195.996 1.71987 -1.31337 0
M  V30 2074 C 196.591 -1.01539 -3.23226 0
M  V30 2075 C 195.15 -0.738124 -3.69092 0
M  V30 2076 C 194.297 -1.19461 -2.50249 0
M  V30 2077 H 197.248 -1.07522 -1.16725 0
M  V30 2078 H 197.269 -0.347217 -3.78912 0
M  V30 2079 H 196.781 -2.09555 -3.26662 0
M  V30 2080 H 194.882 0.329766 -3.71138 0
M  V30 2081 H 194.995 -1.33037 -4.60259 0
M  V30 2082 H 193.359 -0.613787 -2.47194 0
M  V30 2083 H 194.142 -2.28265 -2.56417 0
M  V30 2084 N 196.587 1.43421 -0.653314 0
M  V30 2085 C 197.517 2.33487 0.0246656 0
M  V30 2086 C 198.498 1.49475 0.811863 0
M  V30 2087 O 199.683 1.78139 0.773322 0
M  V30 2088 C 196.813 3.32841 0.99166 0
M  V30 2089 C 195.767 4.26842 0.314568 0
M  V30 2090 C 195.093 5.16236 1.39302 0
M  V30 2091 C 196.393 5.16243 -0.793095 0
M  V30 2092 H 198.087 2.90427 -0.727481 0
M  V30 2093 H 195.633 1.39649 -0.351287 0
M  V30 2094 H 197.586 3.94747 1.47487 0
M  V30 2095 H 196.31 2.74158 1.77497 0
M  V30 2096 H 194.969 3.663 -0.148199 0
M  V30 2097 H 194.617 4.53891 2.16776 0
M  V30 2098 H 194.317 5.79948 0.945223 0
M  V30 2099 H 195.841 5.81015 1.87759 0
M  V30 2100 H 197.255 5.71958 -0.392039 0
M  V30 2101 H 195.652 5.88676 -1.16536 0
M  V30 2102 H 196.722 4.55927 -1.65103 0
M  V30 2103 N 198.065 0.39524 1.52563 0
M  V30 2104 C 198.995 -0.428384 2.29537 0
M  V30 2105 C 199.976 -1.05831 1.33169 0
M  V30 2106 O 201.161 -1.06995 1.62067 0
M  V30 2107 C 198.291 -1.55274 3.10656 0
M  V30 2108 C 197.245 -1.04855 4.14957 0
M  V30 2109 C 196.571 -2.26543 4.84337 0
M  V30 2110 C 197.871 -0.112324 5.22179 0
M  V30 2111 H 199.565 0.213867 2.98635 0
M  V30 2112 H 197.111 0.104298 1.43622 0
M  V30 2113 H 199.064 -2.1358 3.63265 0
M  V30 2114 H 197.788 -2.22266 2.39302 0
M  V30 2115 H 196.447 -0.487985 3.63338 0
M  V30 2116 H 196.095 -2.92059 4.09525 0
M  V30 2117 H 195.795 -1.93466 5.54837 0
M  V30 2118 H 197.319 -2.85481 5.39753 0
M  V30 2119 H 198.733 -0.603752 5.70112 0
M  V30 2120 H 197.13 0.128968 5.99961 0
M  V30 2121 H 198.2 0.837052 4.77621 0
M  V30 2122 N 199.544 -1.57102 0.125237 0
M  V30 2123 C 200.96 -1.57915 -0.231322 0
M  V30 2124 C 201.16 -1.13833 -1.66266 0
M  V30 2125 O 200.216 -0.828581 -2.38518 0
M  V30 2126 C 201.529 -3.00699 0.00766489 0
M  V30 2127 C 203.077 -3.12947 -0.0577483 0
M  V30 2128 C 203.552 -4.57742 0.153626 0
M  V30 2129 N 205.043 -4.63092 0.0998073 0
M  V30 2130 C 205.778 -5.72905 0.238174 0
M  V30 2131 N 205.274 -6.91445 0.433057 0
M  V30 2132 N 207.067 -5.6182 0.177308 0
M  V30 2133 H 199.218 -1.84055 1.06007 0
M  V30 2134 H 201.481 -0.850905 0.417929 0
M  V30 2135 H 201.187 -3.3726 0.997431 0
M  V30 2136 H 201.061 -3.70236 -0.721452 0
M  V30 2137 H 203.448 -2.7624 -1.03804 0
M  V30 2138 H 203.529 -2.4594 0.70335 0
M  V30 2139 H 203.173 -4.95149 1.13092 0
M  V30 2140 H 203.103 -5.22848 -0.627534 0
M  V30 2141 H 205.594 -3.77871 -0.047051 0
M  V30 2142 H 205.907 -7.70985 0.529332 0
M  V30 2143 H 204.252 -6.93415 0.469109 0
M  V30 2144 H 207.443 -4.68093 0.0259748 0
M  V30 2145 H 207.616 -6.47357 0.288582 0
M  V30 2146 N 201.022 0.148545 -1.56898 0
M  V30 2147 C 202.27 0.859717 -1.82902 0
M  V30 2148 C 202.591 1.81775 -0.70588 0
M  V30 2149 O 201.861 1.93994 0.272586 0
M  V30 2150 H 200.441 0.320469 -0.674766 0
M  V30 2151 H 203.103 0.142918 -1.94375 0
M  V30 2152 H 202.199 1.4229 -2.77777 0
M  V30 2153 N 202.5 1.5196 0.417844 0
M  V30 2154 C 203.447 1.74678 1.50852 0
M  V30 2155 C 204.417 0.588947 1.55308 0
M  V30 2156 O 205.602 0.825544 1.72016 0
M  V30 2157 C 202.742 1.89544 2.88387 0
M  V30 2158 C 201.855 3.17166 2.93309 0
M  V30 2159 C 200.99 3.22513 4.22088 0
M  V30 2160 C 200.029 4.44372 4.20951 0
M  V30 2161 N 199.166 4.47161 5.41287 0
M  V30 2162 H 204.006 2.67768 1.30783 0
M  V30 2163 H 201.543 1.32689 0.63498 0
M  V30 2164 H 203.501 1.96146 3.68216 0
M  V30 2165 H 202.131 0.998424 3.06971 0
M  V30 2166 H 201.183 3.19778 2.06024 0
M  V30 2167 H 202.495 4.07021 2.88332 0
M  V30 2168 H 201.649 3.28139 5.10303 0
M  V30 2169 H 200.388 2.30581 4.29748 0
M  V30 2170 H 199.393 4.38902 3.31127 0
M  V30 2171 H 200.618 5.3759 4.14938 0
M  V30 2172 H 198.564 3.58108 5.49632 0
M  V30 2173 H 198.481 5.3085 5.3827 0
M  V30 2174 H 199.749 4.57005 6.3148 0
M  V30 2175 N 203.978 -0.674533 1.42435 0
M  V30 2176 C 205.394 -0.98769 1.25367 0
M  V30 2177 C 205.594 -2.00879 0.158044 0
M  V30 2178 O 204.65 -2.48075 -0.470633 0
M  V30 2179 C 205.963 -1.49224 2.6106 0
M  V30 2180 C 207.511 -1.61 2.68417 0
M  V30 2181 C 207.986 -2.14852 4.04478 0
M  V30 2182 N 209.477 -2.22185 4.06434 0
M  V30 2183 C 210.212 -2.64928 5.08528 0
M  V30 2184 N 209.708 -3.07121 6.21006 0
M  V30 2185 N 211.501 -2.64679 4.95885 0
M  V30 2186 H 203.652 0.00152503 2.124 0
M  V30 2187 H 205.915 -0.0618434 0.945981 0
M  V30 2188 H 205.621 -0.816453 3.42092 0
M  V30 2189 H 205.495 -2.47094 2.84999 0
M  V30 2190 H 207.882 -2.27686 1.87732 0
M  V30 2191 H 207.963 -0.616195 2.48267 0
M  V30 2192 H 207.607 -1.48775 4.85622 0
M  V30 2193 H 207.537 -3.15024 4.2198 0
M  V30 2194 H 210.028 -1.92435 3.25234 0
M  V30 2195 H 210.341 -3.38423 6.94759 0
M  V30 2196 H 208.686 -3.04978 6.24511 0
M  V30 2197 H 211.877 -2.31078 4.07088 0
M  V30 2198 H 212.05 -2.9767 5.75584 0
M  V30 2199 N 205.456 -1.28612 -0.910864 0
M  V30 2200 C 206.419 -1.12803 -1.9952 0
M  V30 2201 C 207.419 -0.0668264 -1.60661 0
M  V30 2202 O 208.609 -0.312847 -1.71368 0
M  V30 2203 C 205.741 -0.72254 -3.33155 0
M  V30 2204 H 206.934 -2.09109 -2.14973 0
M  V30 2205 H 204.487 -1.11639 -1.09391 0
M  V30 2206 H 205.222 0.241152 -3.23402 0
M  V30 2207 H 205.007 -1.48916 -3.62721 0
M  V30 2208 H 206.497 -0.634666 -4.12749 0
M  V30 2209 N 206.934 1.1197 -1.10907 0
M  V30 2210 C 207.864 2.19928 -0.784473 0
M  V30 2211 C 208.845 1.6833 0.244726 0
M  V30 2212 O 210.03 1.93892 0.109418 0
M  V30 2213 C 207.16 3.46597 -0.220827 0
M  V30 2214 C 206.114 4.11376 -1.18127 0
M  V30 2215 C 205.44 5.32554 -0.478594 0
M  V30 2216 C 206.74 4.56945 -2.52979 0
M  V30 2217 H 208.434 2.47337 -1.68715 0
M  V30 2218 H 205.98 1.18879 -0.812642 0
M  V30 2219 H 207.933 4.21396 0.0184278 0
M  V30 2220 H 206.657 3.1863 0.717113 0
M  V30 2221 H 205.316 3.38564 -1.40606 0
M  V30 2222 H 204.964 5.00856 0.463976 0
M  V30 2223 H 204.664 5.76844 -1.11912 0
M  V30 2224 H 206.188 6.10096 -0.248 0
M  V30 2225 H 207.602 5.23093 -2.3462 0
M  V30 2226 H 205.999 5.1203 -3.12962 0
M  V30 2227 H 207.069 3.70676 -3.12614 0
M  V30 2228 N 208.412 0.89855 1.29475 0
M  V30 2229 C 209.661 0.519863 1.94885 0
M  V30 2230 C 209.974 -0.9383 1.71625 0
M  V30 2231 O 211.18 -1.42445 2.31131 0
M  V30 2232 C 209.636 0.878836 3.49005 0
M  V30 2233 C 209.244 2.35569 3.81066 0
M  V30 2234 C 210.988 0.570004 4.20656 0
M  V30 2235 C 208.895 2.65558 5.28425 0
M  V30 2236 H 207.825 0.190692 0.729488 0
M  V30 2237 H 210.476 1.09539 1.47219 0
M  V30 2238 H 208.858 0.232253 3.95318 0
M  V30 2239 H 210.032 3.04773 3.45616 0
M  V30 2240 H 208.347 2.63343 3.22552 0
M  V30 2241 H 210.944 0.770925 5.29113 0
M  V30 2242 H 211.287 -0.491404 4.1339 0
M  V30 2243 H 211.82 1.17438 3.8007 0
M  V30 2244 H 208.559 3.70493 5.40754 0
M  V30 2245 H 208.079 2.00977 5.65127 0
M  V30 2246 H 209.758 2.51765 5.96006 0
M  V30 2247 N 209.89 -1.43072 0.660911 0
M  V30 2248 C 211.136 -2.0202 0.177708 0
M  V30 2249 C 211.469 -1.52066 -1.20787 0
M  V30 2250 O 210.744 -0.716987 -1.80802 0
M  V30 2251 C 211.027 -3.59561 0.197019 0
M  V30 2252 C 210.88 -4.19727 1.61706 0
M  V30 2253 C 212.199 -4.37664 -0.462396 0
M  V30 2254 H 209.318 -0.734034 0.0660494 0
M  V30 2255 H 211.96 -1.70272 0.843058 0
M  V30 2256 H 210.11 -3.86739 -0.369527 0
M  V30 2257 H 211.782 -4.03553 2.23479 0
M  V30 2258 H 210.025 -3.76084 2.16201 0
M  V30 2259 H 210.696 -5.28834 1.58237 0
M  V30 2260 H 213.172 -4.16095 0.0197215 0
M  V30 2261 H 212.048 -5.47305 -0.418188 0
M  V30 2262 H 212.309 -4.14493 -1.53778 0
M  V30 2263 N 211.368 -0.403325 -1.52352 0
M  V30 2264 C 212.596 0.174012 -2.06167 0
M  V30 2265 C 213.011 1.39347 -1.27388 0
M  V30 2266 O 212.368 1.79597 -0.324201 0
M  V30 2267 C 212.419 0.530223 -3.5759 0
M  V30 2268 O 212.14 -0.640806 -4.33388 0
M  V30 2269 C 213.641 1.16192 -4.27802 0
M  V30 2270 H 210.861 0.0229464 -0.670608 0
M  V30 2271 H 213.405 -0.572604 -1.9632 0
M  V30 2272 H 211.56 1.22673 -3.67464 0
M  V30 2273 H 211.974 -0.344851 -5.23365 0
M  V30 2274 H 213.448 1.36141 -5.34948 0
M  V30 2275 H 213.925 2.13335 -3.83907 0
M  V30 2276 H 214.531 0.505775 -4.22282 0
M  V30 2277 N 212.846 1.57033 -0.133567 0
M  V30 2278 C 214.071 2.00475 0.531477 0
M  V30 2279 C 214.496 1.01291 1.58499 0
M  V30 2280 O 213.854 -0.0133279 1.81295 0
M  V30 2281 C 213.902 3.42729 1.12113 0
M  V30 2282 O 213.006 3.46498 2.23636 0
M  V30 2283 H 212.347 0.650876 0.131362 0
M  V30 2284 H 214.877 2.03344 -0.22634 0
M  V30 2285 H 214.887 3.81246 1.4531 0
M  V30 2286 H 213.562 4.14428 0.349557 0
M  V30 2287 H 212.139 3.19811 1.91769 0
M  V30 2288 N 214.325 -0.140222 1.56975 0
M  V30 2289 C 215.741 -0.493088 1.51792 0
M  V30 2290 C 215.941 -1.83013 0.843116 0
M  V30 2291 O 214.997 -2.49041 0.416493 0
M  V30 2292 C 216.31 -0.497144 2.96562 0
M  V30 2293 C 217.858 -0.582186 3.07538 0
M  V30 2294 C 218.333 -0.616838 4.53827 0
M  V30 2295 N 219.824 -0.678873 4.58198 0
M  V30 2296 C 220.559 -0.726782 5.68775 0
M  V30 2297 N 220.055 -0.733623 6.88905 0
M  V30 2298 N 221.848 -0.768179 5.56826 0
M  V30 2299 H 213.999 0.736108 1.99237 0
M  V30 2300 H 216.262 0.269182 0.90898 0
M  V30 2301 H 215.968 0.417217 3.49217 0
M  V30 2302 H 215.842 -1.33263 3.52875 0
M  V30 2303 H 218.229 -1.48697 2.54899 0
M  V30 2304 H 218.31 0.280581 2.54257 0
M  V30 2305 H 217.954 0.283812 5.07106 0
M  V30 2306 H 217.884 -1.49619 5.04898 0
M  V30 2307 H 220.375 -0.68061 3.7172 0
M  V30 2308 H 220.688 -0.772215 7.68932 0
M  V30 2309 H 219.033 -0.701389 6.91452 0
M  V30 2310 H 222.224 -0.760051 4.61888 0
M  V30 2311 H 222.397 -0.80205 6.43017 0
M  V30 2312 N 215.803 -1.52179 -0.40978 0
M  V30 2313 C 217.051 -1.65878 -1.15451 0
M  V30 2314 C 217.372 -0.390771 -1.91044 0
M  V30 2315 O 216.642 0.594323 -1.86667 0
M  V30 2316 H 215.222 -0.611405 -0.429177 0
M  V30 2317 H 217.884 -1.89219 -0.467134 0
M  V30 2318 H 216.98 -2.49954 -1.86894 0
M  V30 2319 N 217.281 0.66697 -1.42791 0
M  V30 2320 C 218.529 1.42417 -1.43394 0
M  V30 2321 C 218.85 1.94925 -0.0542373 0
M  V30 2322 O 218.12 1.73564 0.908415 0
M  V30 2323 H 216.7 0.528515 -0.527902 0
M  V30 2324 H 219.362 0.787562 -1.78279 0
M  V30 2325 H 218.458 2.27333 -2.13837 0
M  V30 2326 N 218.759 1.29093 0.90403 0
M  V30 2327 C 219.709 1.10482 1.99443 0
M  V30 2328 C 220.693 0.0255401 1.6088 0
M  V30 2329 O 221.885 0.24677 1.75271 0
M  V30 2330 C 219.014 0.778882 3.34348 0
M  V30 2331 C 218.1 1.89749 3.79284 0
M  V30 2332 N 218.491 3.14045 3.96497 0
M  V30 2333 C 216.789 1.78955 4.08523 0
M  V30 2334 C 217.49 3.86996 4.34292 0
M  V30 2335 N 216.466 3.14909 4.43095 0
M  V30 2336 H 220.268 2.04778 2.10815 0
M  V30 2337 H 217.782 1.20155 1.09255 0
M  V30 2338 H 219.779 0.62661 4.12164 0
M  V30 2339 H 218.439 -0.156205 3.24324 0
M  V30 2340 H 219.45 3.49548 3.82148 0
M  V30 2341 H 216.127 0.926886 4.07081 0
M  V30 2342 H 217.517 4.93941 4.55491 0
M  V30 2343 N 220.237 -1.11381 1.11499 0
M  V30 2344 C 221.485 -1.8277 0.862524 0
M  V30 2345 C 221.806 -1.85097 -0.613534 0
M  V30 2346 O 221.076 -1.32198 -1.4457 0
M  V30 2347 H 219.656 -0.676823 0.316101 0
M  V30 2348 H 222.318 -1.34816 1.4075 0
M  V30 2349 H 221.414 -2.86614 1.23527 0
M  V30 2350 N 221.715 -0.905404 -1.28997 0
M  V30 2351 C 222.962 -0.534248 -1.95325 0
M  V30 2352 C 223.29 0.920535 -1.71337 0
M  V30 2353 O 222.545 1.66861 -1.02254 0
M  V30 2354 C 222.844 -0.779906 -3.48787 0
M  V30 2355 C 222.51 -2.21293 -3.92861 0
M  V30 2356 C 221.172 -2.60475 -4.04606 0
M  V30 2357 C 223.524 -3.14587 -4.15553 0
M  V30 2358 C 220.852 -3.9212 -4.36416 0
M  V30 2359 C 223.204 -4.45787 -4.48839 0
M  V30 2360 C 221.868 -4.84834 -4.58794 0
M  V30 2361 H 221.138 -0.195495 -0.714747 0
M  V30 2362 H 223.785 -1.14514 -1.53488 0
M  V30 2363 H 222.09 -0.0861365 -3.91705 0
M  V30 2364 H 223.787 -0.472029 -3.98212 0
M  V30 2365 H 220.377 -1.89887 -3.84241 0
M  V30 2366 H 224.561 -2.85528 -4.0594 0
M  V30 2367 H 219.817 -4.22086 -4.42327 0
M  V30 2368 H 223.991 -5.18098 -4.65346 0
M  V30 2369 H 221.618 -5.86877 -4.83197 0
M  V30 2370 N 223.193 1.4272 -0.668489 0
M  V30 2371 C 224.441 2.01226 -0.187769 0
M  V30 2372 C 224.762 1.53092 1.2078 0
M  V30 2373 O 224.032 0.74993 1.80977 0
M  V30 2374 H 222.612 0.744041 -0.0664272 0
M  V30 2375 H 225.274 1.74723 -0.863583 0
M  V30 2376 H 224.37 3.11556 -0.184166 0
M  V30 2377 N 224.671 0.411399 1.52136 0
M  V30 2378 C 226.082 -0.0576826 1.86611 0
M  V30 2379 C 226.433 -1.44238 1.33003 0
M  V30 2380 O 225.558 -2.05759 0.670228 0
M  V30 2381 C 226.153 -0.111448 3.38617 0
M  V30 2382 C 224.712 -0.52487 3.72723 0
M  V30 2383 C 223.859 0.299176 2.75681 0
M  V30 2384 H 226.81 0.628368 1.4573 0
M  V30 2385 H 226.831 -0.926252 3.69054 0
M  V30 2386 H 226.343 0.896488 3.77604 0
M  V30 2387 H 224.444 -1.53936 3.39315 0
M  V30 2388 H 224.557 -0.267681 4.78352 0
M  V30 2389 H 222.921 -0.238814 2.53578 0
M  V30 2390 H 223.704 1.3055 3.17508 0
M  V30 2391 N 226.149 -1.5696 0.141893 0
M  V30 2392 C 227.397 -1.95573 -0.509484 0
M  V30 2393 C 227.718 -1.02746 -1.65736 0
M  V30 2394 O 226.988 -0.0880311 -1.95702 0
M  V30 2395 H 225.568 -0.722115 -0.191205 0
M  V30 2396 H 228.23 -1.93697 0.216196 0
M  V30 2397 H 227.326 -2.99171 -0.889 0
M  V30 2398 N 227.627 0.131896 -1.57047 0
M  V30 2399 C 228.875 0.840269 -1.83804 0
M  V30 2400 C 229.196 1.81017 -0.72512 0
M  V30 2401 O 228.466 1.94272 0.251995 0
M  V30 2402 H 227.046 0.313294 -0.678127 0
M  V30 2403 H 229.708 0.122294 -1.94516 0
M  V30 2404 H 228.804 1.39335 -2.79271 0
M  V30 2405 N 229.106 1.52395 0.401703 0
M  V30 2406 C 230.016 1.7917 1.51444 0
M  V30 2407 C 231.032 0.677691 1.6026 0
M  V30 2408 O 232.208 0.963909 1.76835 0
M  V30 2409 C 229.273 1.94347 2.87107 0
M  V30 2410 C 228.334 3.18257 2.88116 0
M  V30 2411 C 227.567 3.32701 4.17308 0
M  V30 2412 O 227.79 2.52238 5.11598 0
M  V30 2413 O 226.724 4.25891 4.25324 0
M  V30 2414 H 230.55 2.73633 1.31752 0
M  V30 2415 H 228.135 1.3733 0.588296 0
M  V30 2416 H 230.017 2.06109 3.67555 0
M  V30 2417 H 228.692 1.03073 3.06851 0
M  V30 2418 H 227.599 3.11947 2.06494 0
M  V30 2419 H 228.932 4.09336 2.73322 0
M  V30 2420 N 230.584 -0.659388 1.43143 0
M  V30 2421 C 231.532 -1.79374 1.4808 0
M  V30 2422 C 232.526 -1.65639 0.354988 0
M  V30 2423 O 233.732 -1.7206 0.528704 0
M  V30 2424 H 230.107 -0.591705 0.4641 0
M  V30 2425 H 232.078 -1.72329 2.43609 0
M  V30 2426 C 230.827 -3.17606 1.41499 0
M  V30 2427 H 230.15 -3.28809 2.27431 0
M  V30 2428 H 231.59 -3.96951 1.49015 0
M  V30 2429 C 230.049 -3.36642 0.131765 0
M  V30 2430 O 230.579 -3.93461 -0.809386 0
M  V30 2431 N 228.785 -2.90567 0.0439396 0
M  V30 2432 H 228.332 -2.44513 0.810619 0
M  V30 2433 H 228.29 -3.03681 -0.813969 0
M  V30 2434 N 232.062 -1.29571 -0.897171 0
M  V30 2435 C 232.994 -1.10724 -2.00681 0
M  V30 2436 C 234.007 -0.0540026 -1.6271 0
M  V30 2437 O 235.196 -0.298783 -1.75982 0
M  V30 2438 C 232.296 -0.663912 -3.32333 0
M  V30 2439 C 231.469 -1.79622 -3.98816 0
M  V30 2440 C 230.528 -1.34349 -5.0876 0
M  V30 2441 O 229.554 -2.04864 -5.31055 0
M  V30 2442 N 230.756 -0.215764 -5.80099 0
M  V30 2443 H 233.521 -2.06291 -2.17403 0
M  V30 2444 H 231.082 -1.21544 -1.06951 0
M  V30 2445 H 233.074 -0.344295 -4.03233 0
M  V30 2446 H 231.644 0.199375 -3.11964 0
M  V30 2447 H 230.864 -2.28459 -3.21248 0
M  V30 2448 H 232.152 -2.55535 -4.39976 0
M  V30 2449 H 231.55 0.372091 -5.64475 0
M  V30 2450 H 230.107 0.0444707 -6.51785 0
M  V30 2451 N 233.54 1.10788 -1.12088 0
M  V30 2452 C 234.503 2.15207 -0.788577 0
M  V30 2453 C 235.503 1.59609 0.195317 0
M  V30 2454 O 236.693 1.74174 -0.0300193 0
M  V30 2455 C 233.825 3.4047 -0.171174 0
M  V30 2456 H 235.018 2.46116 -1.71368 0
M  V30 2457 H 232.571 1.26089 -0.923652 0
M  V30 2458 H 233.306 3.15176 0.763832 0
M  V30 2459 H 233.091 3.82109 -0.879514 0
M  V30 2460 H 234.581 4.17576 0.04496 0
M  V30 2461 N 235.018 0.912232 1.28515 0
M  V30 2462 C 235.951 0.343928 2.25593 0
M  V30 2463 C 236.929 -0.550994 1.5298 0
M  V30 2464 O 238.113 -0.494991 1.81885 0
M  V30 2465 C 235.24 -0.508525 3.34861 0
M  V30 2466 C 234.286 0.320808 4.25292 0
M  V30 2467 S 235.119 1.72658 5.06902 0
M  V30 2468 C 236.275 0.881394 6.19663 0
M  V30 2469 H 236.508 1.16674 2.73449 0
M  V30 2470 H 234.041 0.713384 1.36931 0
M  V30 2471 H 235.999 -0.994539 3.9827 0
M  V30 2472 H 234.66 -1.30571 2.85675 0
M  V30 2473 H 233.853 -0.330941 5.02912 0
M  V30 2474 H 233.455 0.74042 3.66598 0
M  V30 2475 H 235.747 0.110359 6.7741 0
M  V30 2476 H 236.69 1.63009 6.89082 0
M  V30 2477 H 237.098 0.430239 5.62858 0
M  V30 2478 N 236.496 -1.42363 0.676048 0
M  V30 2479 C 237.444 -2.32596 -0.0131507 0
M  V30 2480 C 238.438 -1.49891 -0.789238 0
M  V30 2481 O 239.644 -1.65955 -0.697061 0
M  V30 2482 H 236.019 -0.751647 -0.0230481 0
M  V30 2483 H 237.99 -2.88421 0.765243 0
M  V30 2484 C 236.739 -3.34479 -0.949702 0
M  V30 2485 H 236.062 -3.98158 -0.361938 0
M  V30 2486 H 237.502 -4.00199 -1.4006 0
M  V30 2487 C 235.961 -2.66838 -2.05667 0
M  V30 2488 O 236.491 -2.50124 -3.14326 0
M  V30 2489 N 234.697 -2.25843 -1.82875 0
M  V30 2490 H 234.244 -2.39637 -0.945085 0
M  V30 2491 H 234.202 -1.80918 -2.5713 0
M  V30 2492 N 237.974 -0.419461 -1.51915 0
M  V30 2493 C 238.924 0.418496 -2.24126 0
M  V30 2494 C 239.908 1.00495 -1.25656 0
M  V30 2495 O 241.1 0.926058 -1.50842 0
M  V30 2496 C 238.229 1.52899 -3.07371 0
M  V30 2497 C 237.315 0.952797 -4.13258 0
M  V30 2498 N 237.706 0.104175 -5.05693 0
M  V30 2499 C 236.004 1.22224 -4.28926 0
M  V30 2500 C 236.705 -0.21752 -5.81293 0
M  V30 2501 N 235.681 0.394293 -5.42168 0
M  V30 2502 H 239.483 -0.236048 -2.92951 0
M  V30 2503 H 236.997 -0.230481 -1.60756 0
M  V30 2504 H 238.994 2.14199 -3.57665 0
M  V30 2505 H 237.654 2.18605 -2.40088 0
M  V30 2506 H 238.665 -0.260924 -5.17242 0
M  V30 2507 H 235.342 1.87812 -3.72871 0
M  V30 2508 H 236.732 -0.906992 -6.6575 0
M  V30 2509 N 239.452 1.56882 -0.150215 0
M  V30 2510 C 240.415 2.1573 0.774157 0
M  V30 2511 C 241.415 1.0999 1.17298 0
M  V30 2512 O 242.605 1.35613 1.09338 0
M  V30 2513 C 239.737 2.72302 2.05096 0
M  V30 2514 H 240.93 2.98752 0.262201 0
M  V30 2515 H 238.483 1.55985 0.099248 0
M  V30 2516 H 239.218 1.92956 2.6065 0
M  V30 2517 H 239.003 3.49665 1.77416 0
M  V30 2518 H 240.493 3.17632 2.71109 0
M  V30 2519 N 240.93 -0.123565 1.57115 0
M  V30 2520 C 242.207 -0.862196 1.75572 0
M  V30 2521 C 242.587 -1.98279 0.724475 0
M  V30 2522 O 241.935 -2.27102 -0.252407 0
M  V30 2523 C 242.145 -1.38309 3.20424 0
M  V30 2524 C 243.493 -1.83724 3.82793 0
M  V30 2525 O 244.517 -1.47999 3.23998 0
M  V30 2526 O 243.376 -2.49685 4.86127 0
M  V30 2527 H 240.47 -0.409113 0.718718 0
M  V30 2528 H 243.016 -0.107661 1.69358 0
M  V30 2529 H 241.788 -0.578889 3.86994 0
M  V30 2530 H 241.411 -2.20046 3.31158 0
M  V30 2531 N 242.408 -1.52605 -0.393616 0
M  V30 2532 C 243.819 -1.59417 -0.971761 0
M  V30 2533 C 244.17 -0.444173 -1.91106 0
M  V30 2534 O 243.295 0.433382 -2.12016 0
M  V30 2535 C 243.89 -2.88936 -1.76921 0
M  V30 2536 C 242.449 -2.98175 -2.29714 0
M  V30 2537 C 241.596 -2.54491 -1.10135 0
M  V30 2538 H 244.547 -1.57751 -0.173317 0
M  V30 2539 H 244.568 -2.75163 -2.62804 0
M  V30 2540 H 244.08 -3.72616 -1.08532 0
M  V30 2541 H 242.181 -2.19024 -3.01429 0
M  V30 2542 H 242.294 -4.02726 -2.59517 0
M  V30 2543 H 240.658 -2.08702 -1.45999 0
M  V30 2544 H 241.441 -3.4056 -0.432874 0
M  V30 2545 N 243.887 0.651787 -1.4349 0
M  V30 2546 C 245.133 1.4121 -1.46395 0
M  V30 2547 C 245.488 1.92202 -0.087366 0
M  V30 2548 O 244.781 1.69452 0.894231 0
M  V30 2549 C 244.975 2.60914 -2.44251 0
M  V30 2550 C 244.804 2.21639 -3.91288 0
M  V30 2551 C 243.574 2.09897 -4.59643 0
M  V30 2552 C 245.772 1.81835 -4.81083 0
M  V30 2553 N 243.754 1.63967 -5.91598 0
M  V30 2554 C 245.125 1.46998 -6.02322 0
M  V30 2555 C 247.18 1.69031 -4.6833 0
M  V30 2556 C 245.883 1.00638 -7.12225 0
M  V30 2557 C 247.909 1.24077 -5.78238 0
M  V30 2558 C 247.271 0.901772 -6.98604 0
M  V30 2559 H 243.37 0.512322 -0.590805 0
M  V30 2560 H 245.954 0.74989 -1.7968 0
M  V30 2561 H 244.125 3.24792 -2.1299 0
M  V30 2562 H 245.857 3.27622 -2.37584 0
M  V30 2563 H 242.612 2.297 -4.14168 0
M  V30 2564 H 243.036 1.43359 -6.61647 0
M  V30 2565 H 247.678 1.93878 -3.75727 0
M  V30 2566 H 245.396 0.745399 -8.04655 0
M  V30 2567 H 248.982 1.14657 -5.7039 0
M  V30 2568 H 247.862 0.559226 -7.82203 0
M  V30 2569 N 245.365 1.30045 0.890287 0
M  V30 2570 C 246.295 1.18541 2.01172 0
M  V30 2571 C 247.276 0.0773356 1.69924 0
M  V30 2572 O 248.461 0.25845 1.92473 0
M  V30 2573 C 245.591 0.870941 3.36202 0
M  V30 2574 C 244.545 1.93637 3.81692 0
M  V30 2575 C 243.871 1.475 5.13953 0
M  V30 2576 C 245.171 3.34666 4.00994 0
M  V30 2577 H 246.865 2.12359 2.11054 0
M  V30 2578 H 244.411 1.02238 1.01407 0
M  V30 2579 H 246.364 0.777141 4.14172 0
M  V30 2580 H 245.088 -0.102926 3.26438 0
M  V30 2581 H 243.747 2.01972 3.05946 0
M  V30 2582 H 243.395 0.489551 5.00612 0
M  V30 2583 H 243.095 2.1876 5.4536 0
M  V30 2584 H 244.619 1.39489 5.94454 0
M  V30 2585 H 246.033 3.2912 4.69417 0
M  V30 2586 H 244.43 4.03966 4.43769 0
M  V30 2587 H 245.5 3.76949 3.05021 0
M  V30 2588 N 246.843 -1.10192 1.12674 0
M  V30 2589 C 248.259 -1.34235 0.863317 0
M  V30 2590 C 248.459 -1.95062 -0.505277 0
M  V30 2591 O 247.515 -2.19192 -1.25345 0
M  V30 2592 C 248.828 -2.2616 1.98172 0
M  V30 2593 C 250.376 -2.3969 2.0129 0
M  V30 2594 C 250.851 -3.34946 3.1237 0
M  V30 2595 N 252.342 -3.42515 3.11829 0
M  V30 2596 C 253.077 -4.16199 3.94419 0
M  V30 2597 N 252.573 -4.92747 4.87004 0
M  V30 2598 N 254.366 -4.11843 3.82547 0
M  V30 2599 H 246.517 -0.690798 2.00853 0
M  V30 2600 H 248.78 -0.366774 0.874174 0
M  V30 2601 H 248.486 -1.8868 2.96804 0
M  V30 2602 H 248.36 -3.26488 1.88906 0
M  V30 2603 H 250.747 -2.76438 1.03276 0
M  V30 2604 H 250.828 -1.39169 2.14629 0
M  V30 2605 H 250.472 -2.98923 4.10619 0
M  V30 2606 H 250.402 -4.35353 2.96269 0
M  V30 2607 H 252.893 -2.87926 2.44759 0
M  V30 2608 H 253.206 -5.46376 5.46528 0
M  V30 2609 H 251.551 -4.91862 4.91016 0
M  V30 2610 H 254.742 -3.51136 3.0955 0
M  V30 2611 H 254.915 -4.69007 4.47142 0
M  V30 2612 N 248.321 -0.919034 -1.28029 0
M  V30 2613 C 249.549 -0.570971 -1.98866 0
M  V30 2614 C 249.964 0.848996 -1.68634 0
M  V30 2615 O 249.321 1.56307 -0.942036 0
M  V30 2616 C 249.372 -0.776876 -3.53054 0
M  V30 2617 O 249.093 -2.14097 -3.82222 0
M  V30 2618 C 250.594 -0.436356 -4.41147 0
M  V30 2619 H 247.814 -0.217175 -0.634883 0
M  V30 2620 H 250.358 -1.23368 -1.63097 0
M  V30 2621 H 248.513 -0.161085 -3.87065 0
M  V30 2622 H 248.927 -2.18455 -4.76841 0
M  V30 2623 H 250.401 -0.63117 -5.4838 0
M  V30 2624 H 250.878 0.627686 -4.34692 0
M  V30 2625 H 251.484 -1.02991 -4.12641 0
M  V30 2626 N 249.799 1.42003 -0.683588 0
M  V30 2627 C 250.762 2.29191 -0.0198243 0
M  V30 2628 C 251.762 1.43773 0.72013 0
M  V30 2629 O 252.952 1.65061 0.556815 0
M  V30 2630 C 250.084 3.26435 0.982487 0
M  V30 2631 H 251.277 2.8938 -0.787345 0
M  V30 2632 H 248.83 1.49789 -0.446418 0
M  V30 2633 H 249.565 2.71203 1.77819 0
M  V30 2634 H 249.35 3.89449 0.455182 0
M  V30 2635 H 250.84 3.918 1.44508 0
M  V30 2636 N 251.277 0.427512 1.51691 0
M  V30 2637 C 252.207 -0.3796 2.30394 0
M  V30 2638 C 253.188 -1.02982 1.35384 0
M  V30 2639 O 254.373 -1.03534 1.643 0
M  V30 2640 C 251.503 -1.48649 3.1388 0
M  V30 2641 C 250.457 -0.960294 4.17088 0
M  V30 2642 C 249.783 -2.16219 4.89033 0
M  V30 2643 C 251.083 -0.00153679 5.223 0
M  V30 2644 H 252.777 0.277164 2.98114 0
M  V30 2645 H 250.323 0.134739 1.43368 0
M  V30 2646 H 252.276 -2.05826 3.67714 0
M  V30 2647 H 251 -2.1714 2.43962 0
M  V30 2648 H 249.659 -0.410806 3.64291 0
M  V30 2649 H 249.307 -2.83307 4.15628 0
M  V30 2650 H 249.007 -1.81654 5.58816 0
M  V30 2651 H 250.531 -2.73968 5.45687 0
M  V30 2652 H 251.945 -0.482687 5.71264 0
M  V30 2653 H 250.342 0.256199 5.99553 0
M  V30 2654 H 251.412 0.938174 4.75738 0
M  V30 2655 N 252.755 -1.56801 0.158532 0
M  V30 2656 C 254.003 -1.96102 -0.488712 0
M  V30 2657 C 254.324 -1.04498 -1.64636 0
M  V30 2658 O 253.594 -0.108783 -1.95598 0
M  V30 2659 H 252.174 -0.724102 -0.183535 0
M  V30 2660 H 254.836 -1.93457 0.236728 0
M  V30 2661 H 253.932 -3.00097 -0.857219 0
M  V30 2662 N 254.233 0.115231 -1.57178 0
M  V30 2663 C 255.48 0.822351 -1.8505 0
M  V30 2664 C 255.808 1.79701 -0.744168 0
M  V30 2665 O 255.063 1.93909 0.26414 0
M  V30 2666 C 255.362 1.60324 -3.19423 0
M  V30 2667 C 255.028 0.772536 -4.44233 0
M  V30 2668 C 253.69 0.543468 -4.78121 0
M  V30 2669 C 256.042 0.193746 -5.2084 0
M  V30 2670 C 253.37 -0.274583 -5.86057 0
M  V30 2671 C 255.722 -0.611517 -6.29637 0
M  V30 2672 C 254.386 -0.850867 -6.62055 0
M  V30 2673 H 253.656 0.30092 -0.677147 0
M  V30 2674 H 256.303 0.0845802 -1.91313 0
M  V30 2675 H 254.608 2.41203 -3.08753 0
M  V30 2676 H 256.305 2.1544 -3.38211 0
M  V30 2677 H 252.895 0.96117 -4.17683 0
M  V30 2678 H 257.079 0.357926 -4.95008 0
M  V30 2679 H 252.335 -0.469206 -6.09597 0
M  V30 2680 H 256.509 -1.06697 -6.88178 0
M  V30 2681 H 254.136 -1.48657 -7.45523 0
M  V30 2682 N 255.711 1.52812 0.385517 0
M  V30 2683 C 256.96 1.67249 1.12741 0
M  V30 2684 C 257.273 0.4205 1.91027 0
M  V30 2685 O 258.479 0.445064 2.67827 0
M  V30 2686 C 256.935 2.95583 2.05326 0
M  V30 2687 C 256.543 4.27974 1.32447 0
M  V30 2688 C 258.287 3.19386 2.7963 0
M  V30 2689 C 256.194 5.47412 2.23818 0
M  V30 2690 H 255.124 0.6231 0.424573 0
M  V30 2691 H 257.775 1.79309 0.389924 0
M  V30 2692 H 256.157 2.77277 2.82725 0
M  V30 2693 H 257.331 4.56844 0.602495 0
M  V30 2694 H 255.646 4.10459 0.700885 0
M  V30 2695 H 258.243 4.05801 3.48181 0
M  V30 2696 H 258.586 2.34604 3.43899 0
M  V30 2697 H 259.119 3.38274 2.09322 0
M  V30 2698 H 255.858 6.34612 1.64157 0
M  V30 2699 H 255.378 5.22849 2.93921 0
M  V30 2700 H 257.057 5.81423 2.83824 0
M  V30 2701 N 257.189 -0.644168 1.43834 0
M  V30 2702 C 258.437 -1.40117 1.45642 0
M  V30 2703 C 258.758 -1.94814 0.0852413 0
M  V30 2704 O 258.028 -1.74988 -0.880688 0
M  V30 2705 H 256.608 -0.52005 0.536243 0
M  V30 2706 H 259.27 -0.7591 1.7951 0
M  V30 2707 H 258.366 -2.23902 2.17427 0
M  V30 2708 N 258.668 -1.30515 -0.883378 0
M  V30 2709 C 259.917 -1.18795 -1.63005 0
M  V30 2710 C 260.23 0.255923 -1.93919 0
M  V30 2711 O 261.436 0.494654 -2.66956 0
M  V30 2712 C 259.892 -2.07878 -2.93794 0
M  V30 2713 C 259.5 -3.57184 -2.70414 0
M  V30 2714 C 261.244 -2.04924 -3.71761 0
M  V30 2715 C 259.151 -4.38317 -3.97029 0
M  V30 2716 H 258.081 -0.441031 -0.611562 0
M  V30 2717 H 260.732 -1.55275 -0.977854 0
M  V30 2718 H 259.114 -1.64283 -3.60315 0
M  V30 2719 H 260.288 -4.08937 -2.12384 0
M  V30 2720 H 258.603 -3.61976 -2.0582 0
M  V30 2721 H 261.2 -2.62792 -4.65665 0
M  V30 2722 H 261.543 -1.0331 -4.03277 0
M  V30 2723 H 262.076 -2.46649 -3.12104 0
M  V30 2724 H 258.815 -5.40632 -3.70671 0
M  V30 2725 H 258.335 -3.91326 -4.54559 0
M  V30 2726 H 260.014 -4.49834 -4.65036 0
M  V30 2727 N 260.146 1.09593 -1.13257 0
M  V30 2728 C 261.423 1.78293 -0.804432 0
M  V30 2729 C 261.803 1.99004 0.70431 0
M  V30 2730 O 261.151 1.59007 1.641 0
M  V30 2731 C 261.361 3.10707 -1.5894 0
M  V30 2732 C 262.709 3.85443 -1.78099 0
M  V30 2733 O 263.733 3.20454 -1.55525 0
M  V30 2734 O 262.592 5.02108 -2.15753 0
M  V30 2735 H 259.686 0.773156 -0.293528 0
M  V30 2736 H 262.232 1.16164 -1.23709 0
M  V30 2737 H 261.004 2.91106 -2.61482 0
M  V30 2738 H 260.627 3.80558 -1.15157 0
M  V30 2739 N 261.624 0.925811 1.2754 0
M  V30 2740 C 262.534 0.428993 2.30644 0
M  V30 2741 C 263.55 -0.489387 1.66976 0
M  V30 2742 O 264.726 -0.372653 1.97922 0
M  V30 2743 C 261.791 -0.311967 3.45294 0
M  V30 2744 C 260.852 0.641098 4.24486 0
M  V30 2745 C 260.085 -0.0645955 5.33661 0
M  V30 2746 O 260.308 -1.28429 5.55754 0
M  V30 2747 O 259.242 0.606265 5.98839 0
M  V30 2748 H 263.068 1.28504 2.75173 0
M  V30 2749 H 260.653 0.691086 1.32455 0
M  V30 2750 H 262.535 -0.729972 4.15029 0
M  V30 2751 H 261.21 -1.14365 3.02824 0
M  V30 2752 H 260.117 1.10874 3.57292 0
M  V30 2753 H 261.45 1.43995 4.70666 0
M  V30 2754 N 263.102 -1.41638 0.69111 0
M  V30 2755 C 264.348 -2.01598 0.220519 0
M  V30 2756 C 264.681 -1.54594 -1.17535 0
M  V30 2757 O 263.956 -0.755177 -1.79241 0
M  V30 2758 C 264.239 -3.59062 0.273243 0
M  V30 2759 C 264.092 -4.16203 1.70573 0
M  V30 2760 C 265.411 -4.38546 -0.369457 0
M  V30 2761 H 262.53 -0.732468 0.0816045 0
M  V30 2762 H 265.172 -1.68445 0.878986 0
M  V30 2763 H 263.322 -3.87435 -0.287411 0
M  V30 2764 H 264.994 -3.98722 2.31989 0
M  V30 2765 H 263.237 -3.71414 2.2413 0
M  V30 2766 H 263.908 -5.25358 1.69419 0
M  V30 2767 H 266.384 -4.1596 0.107977 0
M  V30 2768 H 265.26 -5.48069 -0.302002 0
M  V30 2769 H 265.521 -4.17662 -1.44951 0
M  V30 2770 N 264.58 -0.43555 -1.51462 0
M  V30 2771 C 265.808 0.130242 -2.0649 0
M  V30 2772 C 266.223 1.36614 -1.30315 0
M  V30 2773 O 265.58 1.78869 -0.362223 0
M  V30 2774 C 265.631 0.454253 -3.58635 0
M  V30 2775 O 265.352 -0.73259 -4.31931 0
M  V30 2776 C 266.853 1.07091 -4.3017 0
M  V30 2777 H 264.073 0.00871669 -0.670943 0
M  V30 2778 H 266.617 -0.614117 -1.95061 0
M  V30 2779 H 264.772 1.14851 -3.69984 0
M  V30 2780 H 265.186 -0.455787 -5.22516 0
M  V30 2781 H 266.66 1.24764 -5.37716 0
M  V30 2782 H 267.137 2.05144 -3.88346 0
M  V30 2783 H 267.743 0.416089 -4.2326 0
M  V30 2784 N 266.058 1.56714 -0.166846 0
M  V30 2785 C 267.304 1.97039 0.479962 0
M  V30 2786 C 267.637 1.05264 1.63197 0
M  V30 2787 O 266.912 0.0988833 1.94248 0
M  V30 2788 C 267.195 3.46867 0.967212 0
M  V30 2789 C 267.048 4.49421 -0.18466 0
M  V30 2790 C 268.367 3.9968 1.84238 0
M  V30 2791 H 265.486 0.71641 0.172992 0
M  V30 2792 H 268.128 1.8832 -0.252079 0
M  V30 2793 H 266.278 3.54428 1.59101 0
M  V30 2794 H 267.95 4.53924 -0.821621 0
M  V30 2795 H 266.193 4.25573 -0.840837 0
M  V30 2796 H 266.864 5.51644 0.198317 0
M  V30 2797 H 269.34 3.94723 1.31655 0
M  V30 2798 H 268.216 5.04941 2.15234 0
M  V30 2799 H 268.477 3.43226 2.78654 0
M  V30 2800 N 267.536 -0.106894 1.57237 0
M  V30 2801 C 268.782 -0.81373 1.85759 0
M  V30 2802 C 269.115 -1.78952 0.754315 0
M  V30 2803 O 268.39 -1.93029 -0.23879 0
M  V30 2804 C 268.673 -1.55293 3.24894 0
M  V30 2805 C 268.526 -0.595929 4.45835 0
M  V30 2806 C 269.845 -2.5063 3.61763 0
M  V30 2807 H 266.964 -0.294369 0.67566 0
M  V30 2808 H 269.606 -0.0776472 1.89841 0
M  V30 2809 H 267.756 -2.1804 3.21544 0
M  V30 2810 H 269.428 0.0236262 4.61294 0
M  V30 2811 H 267.671 0.0916191 4.33703 0
M  V30 2812 H 268.342 -1.15004 5.39887 0
M  V30 2813 H 270.818 -1.97982 3.65981 0
M  V30 2814 H 269.694 -2.99376 4.60071 0
M  V30 2815 H 269.955 -3.3385 2.89821 0
M  V30 2816 N 269.014 -1.53014 -0.377408 0
M  V30 2817 C 269.977 -1.77957 -1.44444 0
M  V30 2818 C 270.977 -0.649763 -1.47087 0
M  V30 2819 O 272.167 -0.917897 -1.48055 0
M  V30 2820 C 269.299 -1.89089 -2.83651 0
M  V30 2821 H 270.492 -2.73243 -1.23606 0
M  V30 2822 H 268.045 -1.43912 -0.609844 0
M  V30 2823 H 268.78 -0.958293 -3.09818 0
M  V30 2824 H 268.565 -2.71254 -2.83132 0
M  V30 2825 H 270.055 -2.1002 -3.60945 0
M  V30 2826 N 270.492 0.636531 -1.44174 0
M  V30 2827 C 271.455 1.73063 -1.50273 0
M  V30 2828 C 272.455 1.56113 -0.385397 0
M  V30 2829 O 273.645 1.61707 -0.64781 0
M  V30 2830 C 270.777 3.12096 -1.37145 0
M  V30 2831 H 271.97 1.69031 -2.47727 0
M  V30 2832 H 269.523 0.849706 -1.31186 0
M  V30 2833 H 270.258 3.21728 -0.407636 0
M  V30 2834 H 270.043 3.25805 -2.18159 0
M  V30 2835 H 271.533 3.91846 -1.44382 0
M  V30 2836 N 271.97 1.30982 0.876444 0
M  V30 2837 C 272.88 1.2003 2.01569 0
M  V30 2838 C 273.896 0.11838 1.73597 0
M  V30 2839 O 275.072 0.33495 1.98595 0
M  V30 2840 C 272.137 0.901637 3.34771 0
M  V30 2841 C 271.198 2.06979 3.76109 0
M  V30 2842 C 270.431 1.78529 5.02954 0
M  V30 2843 O 270.654 0.717296 5.65872 0
M  V30 2844 O 269.588 2.64019 5.40905 0
M  V30 2845 H 273.414 2.15753 2.13739 0
M  V30 2846 H 270.999 1.10658 1.00375 0
M  V30 2847 H 272.881 0.750645 4.1466 0
M  V30 2848 H 271.556 -0.0256141 3.2369 0
M  V30 2849 H 270.463 2.27616 2.96887 0
M  V30 2850 H 271.796 2.97907 3.91807 0
M  V30 2851 N 273.449 -1.08991 1.13837 0
M  V30 2852 C 274.697 -1.80899 0.901098 0
M  V30 2853 C 275.018 -1.86356 -0.574134 0
M  V30 2854 O 274.288 -1.35235 -1.41733 0
M  V30 2855 H 272.868 -0.669966 0.330386 0
M  V30 2856 H 275.53 -1.318 1.43578 0
M  V30 2857 H 274.626 -2.83929 1.29578 0
M  V30 2858 N 274.927 -0.932562 -1.27047 0
M  V30 2859 C 275.837 -0.441219 -2.30414 0
M  V30 2860 C 276.853 0.480525 -1.67233 0
M  V30 2861 O 278.029 0.362151 -1.98117 0
M  V30 2862 C 275.094 0.293651 -3.45454 0
M  V30 2863 C 274.155 -0.663601 -4.2414 0
M  V30 2864 C 273.388 0.0362932 -5.33688 0
M  V30 2865 O 273.611 1.2548 -5.56427 0
M  V30 2866 O 272.545 -0.638015 -5.98509 0
M  V30 2867 H 276.371 -1.29962 -2.74488 0
M  V30 2868 H 273.956 -0.6981 -1.32087 0
M  V30 2869 H 275.838 0.707951 -4.15411 0
M  V30 2870 H 274.513 1.12758 -3.03426 0
M  V30 2871 H 273.42 -1.12768 -3.56699 0
M  V30 2872 H 274.753 -1.46489 -4.69896 0
M  V30 2873 N 276.405 1.4127 -0.698611 0
M  V30 2874 C 277.315 2.34573 -0.0357891 0
M  V30 2875 C 278.331 1.56393 0.762701 0
M  V30 2876 O 279.507 1.8886 0.699564 0
M  V30 2877 C 276.572 3.35159 0.887089 0
M  V30 2878 C 275.633 4.29225 0.0804634 0
M  V30 2879 C 274.866 5.25006 0.959387 0
M  V30 2880 O 275.089 5.26314 2.19886 0
M  V30 2881 O 274.023 6.00519 0.407439 0
M  V30 2882 H 277.849 2.92838 -0.804957 0
M  V30 2883 H 275.434 1.42175 -0.458966 0
M  V30 2884 H 277.316 3.9689 1.41621 0
M  V30 2885 H 275.991 2.79333 1.6357 0
M  V30 2886 H 274.898 3.70833 -0.493328 0
M  V30 2887 H 276.231 4.88157 -0.629547 0
M  V30 2888 N 277.883 0.443576 1.51229 0
M  V30 2889 C 279.108 -0.121648 2.07043 0
M  V30 2890 C 279.533 -1.35156 1.30823 0
M  V30 2891 O 278.891 -1.7793 0.347934 0
M  V30 2892 C 278.939 -0.41624 3.5819 0
M  V30 2893 O 278.043 -1.50163 3.8409 0
M  V30 2894 H 277.384 0.000871367 0.663999 0
M  V30 2895 H 279.914 0.626706 1.94765 0
M  V30 2896 H 279.924 -0.664867 4.02546 0
M  V30 2897 H 278.599 0.482653 4.1309 0
M  V30 2898 H 277.176 -1.24248 3.51592 0
M  V30 2899 N 279.361 -1.56624 0.175154 0
M  V30 2900 C 280.609 -1.96609 -0.467885 0
M  V30 2901 C 280.93 -1.06238 -1.63519 0
M  V30 2902 O 280.2 -0.129523 -1.95471 0
M  V30 2903 H 278.78 -0.726008 -0.175845 0
M  V30 2904 H 281.442 -1.93195 0.257234 0
M  V30 2905 H 280.538 -3.00989 -0.825342 0
M  V30 2906 N 280.839 0.0985539 -1.57292 0
M  V30 2907 C 282.087 0.801092 -1.85545 0
M  V30 2908 C 282.408 1.79438 -0.763353 0
M  V30 2909 O 281.678 1.94763 0.21073 0
M  V30 2910 H 280.258 0.29884 -0.684619 0
M  V30 2911 H 282.92 0.0810064 -1.94732 0
M  V30 2912 H 282.016 1.3338 -2.82163 0
M  V30 2913 N 282.317 1.53212 0.369288 0
M  V30 2914 C 283.733 1.42902 0.710712 0
M  V30 2915 C 283.933 0.565135 1.93413 0
M  V30 2916 O 282.989 0.0461484 2.52458 0
M  V30 2917 C 284.302 2.86042 0.927382 0
M  V30 2918 C 285.85 2.9565 1.02762 0
M  V30 2919 C 286.325 4.39843 1.27679 0
M  V30 2920 N 287.816 4.43256 1.34457 0
M  V30 2921 C 288.551 5.51929 1.55439 0
M  V30 2922 N 288.047 6.70655 1.73762 0
M  V30 2923 N 289.84 5.39502 1.57779 0
M  V30 2924 H 281.991 2.07888 -0.435457 0
M  V30 2925 H 284.254 0.938661 -0.132739 0
M  V30 2926 H 283.96 3.51557 0.100287 0
M  V30 2927 H 283.834 3.29472 1.83653 0
M  V30 2928 H 286.221 2.30291 1.84527 0
M  V30 2929 H 286.302 2.5562 0.0959504 0
M  V30 2930 H 285.946 5.05774 0.464175 0
M  V30 2931 H 285.876 4.77443 2.22162 0
M  V30 2932 H 288.367 3.5769 1.21926 0
M  V30 2933 H 288.68 7.49248 1.89335 0
M  V30 2934 H 287.025 6.73648 1.70948 0
M  V30 2935 H 290.216 4.45713 1.43029 0
M  V30 2936 H 290.389 6.2426 1.7379 0
M  V30 2937 N 283.795 -0.628877 1.44509 0
M  V30 2938 C 285.02 -1.42048 1.5112 0
M  V30 2939 C 285.445 -1.87594 0.137818 0
M  V30 2940 O 284.803 -1.58873 -0.873437 0
M  V30 2941 C 284.851 -2.61541 2.48251 0
M  V30 2942 O 283.955 -3.61453 1.98559 0
M  V30 2943 H 283.296 -0.424942 0.510216 0
M  V30 2944 H 285.826 -0.767374 1.89664 0
M  V30 2945 H 285.836 -3.09057 2.66361 0
M  V30 2946 H 284.511 -2.27736 3.48007 0
M  V30 2947 H 283.088 -3.20731 1.90227 0
M  V30 2948 N 285.273 -1.31445 -0.869486 0
M  V30 2949 C 286.52 -1.21158 -1.62256 0
M  V30 2950 C 286.848 0.230155 -1.93133 0
M  V30 2951 O 286.103 1.17906 -1.56194 0
M  V30 2952 C 286.402 -2.00145 -2.96102 0
M  V30 2953 C 286.068 -3.4964 -2.84715 0
M  V30 2954 C 284.73 -3.90403 -2.81317 0
M  V30 2955 C 287.082 -4.44769 -2.71716 0
M  V30 2956 C 284.41 -5.24561 -2.62778 0
M  V30 2957 C 286.762 -5.79054 -2.54714 0
M  V30 2958 C 285.426 -6.19037 -2.49699 0
M  V30 2959 H 284.696 -0.443348 -0.593737 0
M  V30 2960 H 287.343 -1.62715 -1.00976 0
M  V30 2961 H 285.648 -1.5127 -3.6142 0
M  V30 2962 H 287.345 -1.89566 -3.53363 0
M  V30 2963 H 283.935 -3.17256 -2.88178 0
M  V30 2964 H 288.119 -4.14208 -2.73397 0
M  V30 2965 H 283.375 -5.54613 -2.57321 0
M  V30 2966 H 287.549 -6.52393 -2.43632 0
M  V30 2967 H 285.176 -7.22935 -2.35093 0
M  V30 2968 N 286.751 1.08385 -1.14413 0
M  V30 2969 C 287.661 2.18856 -0.844951 0
M  V30 2970 C 288.677 1.73121 0.174668 0
M  V30 2971 O 289.853 2.014 0.00312857 0
M  V30 2972 C 286.918 3.45155 -0.32696 0
M  V30 2973 C 285.979 4.05513 -1.40916 0
M  V30 2974 C 285.212 5.25784 -0.915793 0
M  V30 2975 O 285.435 5.69884 0.242651 0
M  V30 2976 O 284.369 5.77545 -1.69487 0
M  V30 2977 H 288.195 2.46919 -1.76818 0
M  V30 2978 H 285.78 1.17524 -0.922411 0
M  V30 2979 H 287.662 4.21377 -0.0440211 0
M  V30 2980 H 286.337 3.18668 0.568539 0
M  V30 2981 H 285.244 3.30879 -1.74556 0
M  V30 2982 H 286.577 4.3625 -2.27919 0
M  V30 2983 N 288.23 0.939286 1.26551 0
M  V30 2984 C 289.507 0.5038 1.89001 0
M  V30 2985 C 289.887 -1.01854 1.84903 0
M  V30 2986 O 289.235 -1.87773 1.30206 0
M  V30 2987 C 289.445 1.063 3.32417 0
M  V30 2988 C 290.793 1.13051 4.09273 0
M  V30 2989 O 291.817 1.01345 3.41479 0
M  V30 2990 O 290.676 1.31233 5.30509 0
M  V30 2991 H 287.77 0.163897 0.810597 0
M  V30 2992 H 290.316 1.03173 1.34735 0
M  V30 2993 H 289.088 2.10665 3.29752 0
M  V30 2994 H 288.711 0.517408 3.94219 0
M  V30 2995 N 289.708 -1.40897 0.706093 0
M  V30 2996 C 290.933 -2.05895 0.249435 0
M  V30 2997 C 291.358 -1.52823 -1.09666 0
M  V30 2998 O 290.716 -0.659589 -1.68876 0
M  V30 2999 C 290.764 -3.59872 0.22904 0
M  V30 3000 O 289.868 -4.04708 -0.792784 0
M  V30 3001 H 289.209 -0.653206 0.119241 0
M  V30 3002 H 291.739 -1.80471 0.96391 0
M  V30 3003 H 291.749 -4.07951 0.0634791 0
M  V30 3004 H 290.424 -3.97866 1.21141 0
M  V30 3005 H 289.001 -3.68111 -0.59572 0
M  V30 3006 N 291.186 -0.45159 -1.50991 0
M  V30 3007 C 292.426 0.109066 -2.04109 0
M  V30 3008 C 292.79 1.38716 -1.32747 0
M  V30 3009 O 293.991 2.02896 -1.76314 0
M  V30 3010 C 292.262 0.308354 -3.56067 0
M  V30 3011 S 293.821 0.830369 -4.30872 0
M  V30 3012 H 290.639 0.0251531 -0.710555 0
M  V30 3013 H 293.241 -0.614264 -1.85599 0
M  V30 3014 H 291.945 -0.627962 -4.05567 0
M  V30 3015 H 291.476 1.05836 -3.78896 0
M  V30 3016 H 293.491 2.10626 -4.49279 0
M  V30 3017 N 292.664 1.56529 -0.183458 0
M  V30 3018 C 293.941 1.88959 0.50536 0
M  V30 3019 C 294.321 1.09523 1.80466 0
M  V30 3020 O 293.669 0.19278 2.27685 0
M  V30 3021 C 293.879 3.41162 0.73547 0
M  V30 3022 C 295.227 4.11155 1.06005 0
M  V30 3023 O 296.251 3.46548 0.823594 0
M  V30 3024 O 295.11 5.25318 1.50675 0
M  V30 3025 H 292.204 0.78441 0.261973 0
M  V30 3026 H 294.75 1.68231 -0.222802 0
M  V30 3027 H 293.522 3.90874 -0.182561 0
M  V30 3028 H 293.145 3.67543 1.51651 0
M  V30 3029 N 294.142 -0.090211 1.57342 0
M  V30 3030 C 295.052 -1.12735 2.05738 0
M  V30 3031 C 296.068 -1.43557 0.983231 0
M  V30 3032 O 297.244 -1.54101 1.29672 0
M  V30 3033 C 294.309 -2.42659 2.47624 0
M  V30 3034 C 293.37 -2.18975 3.69254 0
M  V30 3035 C 292.603 -3.42704 4.09133 0
M  V30 3036 O 292.826 -4.51127 3.49057 0
M  V30 3037 O 291.76 -3.32003 5.02053 0
M  V30 3038 H 295.586 -0.746279 2.94388 0
M  V30 3039 H 293.171 -0.303064 1.46294 0
M  V30 3040 H 295.053 -3.19155 2.7517 0
M  V30 3041 H 293.728 -2.80182 1.62109 0
M  V30 3042 H 292.635 -1.40244 3.46818 0
M  V30 3043 H 293.968 -1.86342 4.55563 0
M  V30 3044 N 295.62 -1.53406 -0.361157 0
M  V30 3045 C 296.583 -1.79479 -1.42548 0
M  V30 3046 C 297.583 -0.665327 -1.4639 0
M  V30 3047 O 298.773 -0.933549 -1.47073 0
M  V30 3048 C 295.905 -1.92087 -2.8163 0
M  V30 3049 H 297.098 -2.74538 -1.20701 0
M  V30 3050 H 294.651 -1.4455 -0.594546 0
M  V30 3051 H 295.386 -0.991099 -3.08784 0
M  V30 3052 H 295.171 -2.74241 -2.80239 0
M  V30 3053 H 296.661 -2.13836 -3.58697 0
M  V30 3054 N 297.098 0.621204 -1.44841 0
M  V30 3055 C 298.008 1.7612 -1.5498 0
M  V30 3056 C 299.024 1.68477 -0.434927 0
M  V30 3057 O 300.2 1.89076 -0.693693 0
M  V30 3058 C 297.265 3.1254 -1.50065 0
M  V30 3059 C 296.326 3.31741 -2.72482 0
M  V30 3060 C 295.559 4.61653 -2.67792 0
M  V30 3061 O 295.782 5.431 -1.74352 0
M  V30 3062 O 294.716 4.83271 -3.58794 0
M  V30 3063 H 298.542 1.70518 -2.51311 0
M  V30 3064 H 296.127 0.783643 -1.27198 0
M  V30 3065 H 298.009 3.93844 -1.49882 0
M  V30 3066 H 296.684 3.18663 -0.568806 0
M  V30 3067 H 295.591 2.50077 -2.7823 0
M  V30 3068 H 296.924 3.30486 -3.64746 0
M  V30 3069 N 298.576 1.31904 0.862503 0
M  V30 3070 C 299.508 1.16005 1.97675 0
M  V30 3071 C 300.521 0.0971234 1.6251 0
M  V30 3072 O 301.71 0.345337 1.75128 0
M  V30 3073 C 298.81 0.751791 3.30456 0
M  V30 3074 C 297.983 1.90133 3.93914 0
M  V30 3075 C 297.042 1.4779 5.05019 0
M  V30 3076 O 296.068 2.18872 5.25437 0
M  V30 3077 N 297.27 0.369491 5.79323 0
M  V30 3078 H 300.035 2.11982 2.11857 0
M  V30 3079 H 297.596 1.24337 1.03691 0
M  V30 3080 H 299.588 0.451084 4.02178 0
M  V30 3081 H 298.158 -0.116593 3.12382 0
M  V30 3082 H 297.378 2.36896 3.15078 0
M  V30 3083 H 298.666 2.67111 4.33047 0
M  V30 3084 H 298.064 -0.222299 5.65263 0
M  V30 3085 H 296.621 0.128354 6.51674 0
M  V30 3086 N 300.054 -1.07777 1.14986 0
M  V30 3087 C 301.47 -1.32373 0.891596 0
M  V30 3088 C 301.67 -1.9609 -0.463788 0
M  V30 3089 O 300.726 -2.21801 -1.20667 0
M  V30 3090 C 302.039 -2.21905 2.02925 0
M  V30 3091 C 303.587 -2.35367 2.06329 0
M  V30 3092 C 304.062 -3.28245 3.19405 0
M  V30 3093 N 305.553 -3.35824 3.19024 0
M  V30 3094 C 306.288 -4.07739 4.03158 0
M  V30 3095 N 305.784 -4.82306 4.97346 0
M  V30 3096 N 307.577 -4.03635 3.91197 0
M  V30 3097 H 299.728 -0.648039 2.02273 0
M  V30 3098 H 301.991 -0.348149 0.881757 0
M  V30 3099 H 301.697 -1.82342 3.0074 0
M  V30 3100 H 301.571 -3.22407 1.95789 0
M  V30 3101 H 303.958 -2.74186 1.09116 0
M  V30 3102 H 304.039 -1.34585 2.17533 0
M  V30 3103 H 303.683 -2.90146 4.16867 0
M  V30 3104 H 303.613 -4.28971 3.05437 0
M  V30 3105 H 306.104 -2.8267 2.50811 0
M  V30 3106 H 306.417 -5.34661 5.57994 0
M  V30 3107 H 304.762 -4.81337 5.01338 0
M  V30 3108 H 307.953 -3.44491 3.16928 0
M  V30 3109 H 308.126 -4.59417 4.5699 0
M  V30 3110 N 301.532 -0.945985 -1.26051 0
M  V30 3111 C 302.462 -0.477172 -2.28572 0
M  V30 3112 C 303.443 0.472032 -1.63419 0
M  V30 3113 O 304.628 0.372853 -1.90587 0
M  V30 3114 C 301.758 0.253975 -3.4637 0
M  V30 3115 C 300.712 -0.609135 -4.23643 0
M  V30 3116 C 300.038 0.252252 -5.34105 0
M  V30 3117 C 301.338 -1.8829 -4.8718 0
M  V30 3118 H 303.032 -1.33402 -2.68038 0
M  V30 3119 H 300.578 -0.642904 -1.28852 0
M  V30 3120 H 302.531 0.593016 -4.17207 0
M  V30 3121 H 301.255 1.145 -3.05871 0
M  V30 3122 H 299.914 -0.931138 -3.54578 0
M  V30 3123 H 299.562 1.14278 -4.89846 0
M  V30 3124 H 299.262 -0.32188 -5.86718 0
M  V30 3125 H 300.786 0.586454 -6.07777 0
M  V30 3126 H 302.2 -1.61081 -5.50205 0
M  V30 3127 H 300.597 -2.40199 -5.49931 0
M  V30 3128 H 301.667 -2.59134 -4.09851 0
M  V30 3129 N 303.011 1.40521 -0.713556 0
M  V30 3130 C 303.941 2.33381 -0.0743864 0
M  V30 3131 C 304.922 1.52784 0.747735 0
M  V30 3132 O 306.107 1.81258 0.697071 0
M  V30 3133 C 303.237 3.36748 0.849598 0
M  V30 3134 C 302.191 4.27793 0.133247 0
M  V30 3135 C 301.517 5.21679 1.17281 0
M  V30 3136 C 302.817 5.12415 -1.01134 0
M  V30 3137 H 304.511 2.87081 -0.850007 0
M  V30 3138 H 302.057 1.38034 -0.410201 0
M  V30 3139 H 304.01 4.00648 1.30612 0
M  V30 3140 H 302.734 2.81439 1.65709 0
M  V30 3141 H 301.393 3.65342 -0.303426 0
M  V30 3142 H 301.041 4.62677 1.9733 0
M  V30 3143 H 300.741 5.83435 0.698397 0
M  V30 3144 H 302.265 5.88456 1.62947 0
M  V30 3145 H 303.679 5.69781 -0.634274 0
M  V30 3146 H 302.076 5.83203 -1.41399 0
M  V30 3147 H 303.146 4.48514 -1.84292 0
M  V30 3148 N 304.489 0.459591 1.5075 0
M  V30 3149 C 305.452 -0.329093 2.26825 0
M  V30 3150 C 306.452 -0.930481 1.31144 0
M  V30 3151 O 307.642 -0.801453 1.54669 0
M  V30 3152 C 304.774 -1.46768 3.07688 0
M  V30 3153 H 305.967 0.337924 2.9799 0
M  V30 3154 H 303.52 0.213336 1.54837 0
M  V30 3155 H 304.255 -2.17009 2.40993 0
M  V30 3156 H 304.04 -1.04238 3.77991 0
M  V30 3157 H 305.53 -2.02433 3.65254 0
M  V30 3158 N 305.967 -1.56429 0.191757 0
M  V30 3159 C 306.897 -2.21937 -0.725696 0
M  V30 3160 C 307.878 -1.1814 -1.2238 0
M  V30 3161 O 309.063 -1.46636 -1.27325 0
M  V30 3162 C 306.193 -2.87611 -1.94672 0
M  V30 3163 C 305.147 -3.97623 -1.58366 0
M  V30 3164 C 304.473 -4.50446 -2.88102 0
M  V30 3165 C 305.773 -5.16197 -0.796133 0
M  V30 3166 H 307.467 -2.98861 -0.179606 0
M  V30 3167 H 305.013 -1.43749 -0.0849464 0
M  V30 3168 H 306.966 -3.3212 -2.59373 0
M  V30 3169 H 305.69 -2.08087 -2.51728 0
M  V30 3170 H 304.349 -3.53801 -0.960247 0
M  V30 3171 H 303.997 -3.67688 -3.43241 0
M  V30 3172 H 303.697 -5.24675 -2.64556 0
M  V30 3173 H 305.221 -4.97654 -3.53798 0
M  V30 3174 H 306.635 -5.57271 -1.34618 0
M  V30 3175 H 305.032 -5.96471 -0.658928 0
M  V30 3176 H 306.102 -4.84473 0.203478 0
M  V30 3177 N 307.445 0.0818655 -1.57387 0
M  V30 3178 C 308.408 1.08265 -2.02018 0
M  V30 3179 C 309.408 1.32183 -0.915664 0
M  V30 3180 O 310.598 1.28073 -1.18081 0
M  V30 3181 C 307.73 2.42871 -2.39221 0
M  V30 3182 H 308.923 0.698204 -2.91659 0
M  V30 3183 H 306.476 0.327303 -1.52835 0
M  V30 3184 H 307.211 2.86167 -1.52575 0
M  V30 3185 H 306.996 2.26855 -3.19811 0
M  V30 3186 H 308.486 3.14826 -2.74362 0
M  V30 3187 N 308.923 1.53595 0.353017 0
M  V30 3188 C 310.339 1.43648 0.695516 0
M  V30 3189 C 310.539 0.585617 1.92802 0
M  V30 3190 O 309.595 0.0729223 2.52395 0
M  V30 3191 C 310.908 2.8701 0.896991 0
M  V30 3192 C 312.456 2.96723 0.996209 0
M  V30 3193 C 312.931 4.41173 1.23007 0
M  V30 3194 N 314.422 4.44657 1.29749 0
M  V30 3195 C 315.157 5.53547 1.49577 0
M  V30 3196 N 314.653 6.72461 1.66639 0
M  V30 3197 N 316.446 5.41145 1.52048 0
M  V30 3198 H 308.597 2.07415 -0.457481 0
M  V30 3199 H 310.86 0.9372 -0.142687 0
M  V30 3200 H 310.566 3.51644 0.0629938 0
M  V30 3201 H 310.44 3.31401 1.80148 0
M  V30 3202 H 312.827 2.32235 1.82074 0
M  V30 3203 H 312.908 2.55707 0.0688331 0
M  V30 3204 H 312.552 5.06238 0.410505 0
M  V30 3205 H 312.482 4.79772 2.17086 0
M  V30 3206 H 314.973 3.58963 1.18126 0
M  V30 3207 H 315.286 7.51214 1.81378 0
M  V30 3208 H 313.631 6.75423 1.63794 0
M  V30 3209 H 316.822 4.47205 1.38294 0
M  V30 3210 H 316.995 6.26068 1.67159 0
M  V30 3211 N 310.401 -0.613514 1.45168 0
M  V30 3212 C 311.626 -1.40437 1.52618 0
M  V30 3213 C 312.051 -1.87438 0.157707 0
M  V30 3214 O 311.409 -1.59791 -0.856537 0
M  V30 3215 C 311.457 -2.58894 2.51011 0
M  V30 3216 O 310.561 -3.59326 2.02382 0
M  V30 3217 H 309.902 -0.419506 0.514695 0
M  V30 3218 H 312.432 -0.747215 1.90467 0
M  V30 3219 H 312.442 -3.06214 2.69624 0
M  V30 3220 H 311.117 -2.24032 3.50403 0
M  V30 3221 H 309.694 -3.18695 1.93618 0
M  V30 3222 N 311.879 -1.3236 -0.855495 0
M  V30 3223 C 312.842 -1.21164 -1.94556 0
M  V30 3224 C 313.842 -0.134908 -1.60233 0
M  V30 3225 O 315.032 -0.385249 -1.69887 0
M  V30 3226 C 312.164 -0.863192 -3.29791 0
M  V30 3227 H 313.357 -2.18038 -2.05911 0
M  V30 3228 H 310.91 -1.16179 -1.04557 0
M  V30 3229 H 311.645 0.103769 -3.24134 0
M  V30 3230 H 311.43 -1.64166 -3.56078 0
M  V30 3231 H 312.92 -0.809156 -4.09686 0
M  V30 3232 O 313.396 0.992737 -1.27385 0
M  V30 3233 H 314.087 1.61512 -1.06928 0
M  V30 END ATOM
M  V30 BEGIN BOND
M  V30 END BOND
M  V30 END CTAB
M  END
$$$$
