drugbank_target|Q9JZW6 3-methyl-2-oxobutanoate hydroxymethyltransferase (DB04074)
 OpenBabel12092120003D

  0  0  0     0  0            999 V3000
M  V30 BEGIN CTAB
M  V30 COUNTS 3883 3914 0 0 0
M  V30 BEGIN ATOM
M  V30 1 H -0.908 1.98254 -0.117106 0
M  V30 2 N 0 1.576 0 0
M  V30 3 C 0.933 2.03868 1.02534 0
M  V30 4 C 1.911 0.928543 1.3348 0
M  V30 5 O 3.095 1.19667 1.45644 0
M  V30 6 C 0.222 2.43627 2.35294 0
M  V30 7 C -0.732 3.65373 2.2001 0
M  V30 8 S 0.101 5.13292 1.52614 0
M  V30 9 C 1.257 5.56322 2.86805 0
M  V30 10 H 1.49 2.90518 0.631377 0
M  V30 11 H -0.977 1.52953 0.210867 0
M  V30 12 H 0.981 2.67203 3.11629 0
M  V30 13 H -0.358 1.57376 2.7183 0
M  V30 14 H -1.165 3.90944 3.18086 0
M  V30 15 H -1.563 3.418 1.51819 0
M  V30 16 H 0.729 5.58782 3.83104 0
M  V30 17 H 1.672 6.56266 2.65933 0
M  V30 18 H 2.08 4.83886 2.90714 0
M  V30 19 N 1.4781 -0.272755 1.55222 0
M  V30 20 C 2.7271 -1.00211 1.75045 0
M  V30 21 C 3.0401 -1.87441 0.559046 0
M  V30 22 O 4.2461 -2.63856 0.639698 0
M  V30 23 C 2.7021 -1.83165 3.09804 0
M  V30 24 C 2.3101 -1.008 4.36513 0
M  V30 25 C 4.0541 -2.55529 3.38977 0
M  V30 26 C 1.9611 -1.83194 5.62311 0
M  V30 27 H 0.8911 -0.377878 0.652476 0
M  V30 28 H 3.5421 -0.257776 1.8168 0
M  V30 29 H 1.9241 -2.61694 2.97207 0
M  V30 30 H 3.0981 -0.266855 4.60027 0
M  V30 31 H 1.4131 -0.398897 4.14485 0
M  V30 32 H 4.0101 -3.17578 4.30172 0
M  V30 33 H 4.3531 -3.25825 2.59121 0
M  V30 34 H 4.8861 -1.84029 3.52673 0
M  V30 35 H 1.6251 -1.17318 6.44916 0
M  V30 36 H 1.1451 -2.54905 5.4294 0
M  V30 37 H 2.8241 -2.40552 6.00619 0
M  V30 38 N 2.9562 -1.48159 -0.537278 0
M  V30 39 C 4.1842 -1.59454 -1.31841 0
M  V30 40 C 4.5992 -0.252065 -1.8711 0
M  V30 41 O 3.9562 0.757621 -1.66031 0
M  V30 42 C 4.0072 -2.63546 -2.47439 0
M  V30 43 O 3.7282 -3.92583 -1.94449 0
M  V30 44 C 5.2292 -2.85212 -3.39366 0
M  V30 45 H 2.4492 -0.53785 -0.401196 0
M  V30 46 H 4.9932 -1.93932 -0.648891 0
M  V30 47 H 3.1482 -2.31946 -3.1029 0
M  V30 48 H 3.5622 -4.49629 -2.70063 0
M  V30 49 H 5.0362 -3.61863 -4.16844 0
M  V30 50 H 5.5132 -1.93765 -3.94147 0
M  V30 51 H 6.1192 -3.18086 -2.82314 0
M  V30 52 N 4.4343 0.785586 -1.36625 0
M  V30 53 C 5.6803 1.54591 -1.31261 0
M  V30 54 C 6.0133 1.93906 0.106823 0
M  V30 55 O 5.2883 1.63007 1.06108 0
M  V30 56 C 5.5713 2.82038 -2.23889 0
M  V30 57 C 5.4243 2.49066 -3.74548 0
M  V30 58 C 6.7433 3.83887 -2.15217 0
M  V30 59 H 3.8623 0.560846 -0.478143 0
M  V30 60 H 6.5043 0.902278 -1.67209 0
M  V30 61 H 4.6543 3.36961 -1.93363 0
M  V30 62 H 6.3263 2.00164 -4.15611 0
M  V30 63 H 4.5693 1.81954 -3.93796 0
M  V30 64 H 5.2403 3.40109 -4.34776 0
M  V30 65 H 7.7163 3.38421 -2.42096 0
M  V30 66 H 6.5923 4.70806 -2.82193 0
M  V30 67 H 6.8533 4.27131 -1.14068 0
M  V30 68 N 5.9124 1.20967 1.01018 0
M  V30 69 C 6.8604 0.961223 2.1181 0
M  V30 70 C 7.8544 -0.0897034 1.69162 0
M  V30 71 O 9.0604 0.0612271 1.79896 0
M  V30 72 H 5.4354 0.29355 0.692338 0
M  V30 73 H 7.4064 1.90178 2.29946 0
M  V30 74 C 6.1554 0.536854 3.4353 0
M  V30 75 H 5.4784 1.33713 3.76777 0
M  V30 76 H 6.9184 0.402286 4.22087 0
M  V30 77 C 5.3774 -0.751574 3.2841 0
M  V30 78 O 5.9074 -1.80841 3.58691 0
M  V30 79 N 4.1134 -0.716079 2.81639 0
M  V30 80 H 3.6604 0.144236 2.57196 0
M  V30 81 H 3.6184 -1.57847 2.71904 0
M  V30 82 N 7.3905 -1.2043 1.01659 0
M  V30 83 C 8.6185 -1.93777 0.725132 0
M  V30 84 C 9.0335 -1.74772 -0.714166 0
M  V30 85 O 8.3905 -1.06169 -1.4844 0
M  V30 86 C 8.4415 -3.45876 1.05129 0
M  V30 87 O 8.1625 -3.6426 2.43406 0
M  V30 88 C 9.6635 -4.36368 0.780891 0
M  V30 89 H 6.8835 -0.615901 0.266284 0
M  V30 90 H 9.4275 -1.52922 1.35776 0
M  V30 91 H 7.5825 -3.8461 0.464065 0
M  V30 92 H 7.9965 -4.58246 2.55169 0
M  V30 93 H 9.4705 -5.41743 1.05918 0
M  V30 94 H 9.9475 -4.38275 -0.284937 0
M  V30 95 H 10.5535 -4.03296 1.35027 0
M  V30 96 N 8.8686 -0.792821 -1.36206 0
M  V30 97 C 9.7986 -0.207853 -2.32573 0
M  V30 98 C 10.7796 0.659055 -1.56813 0
M  V30 99 O 11.9646 0.592176 -1.84951 0
M  V30 100 C 9.0946 0.655449 -3.41059 0
M  V30 101 C 8.0486 -0.111842 -4.27854 0
M  V30 102 C 7.3746 0.872274 -5.27537 0
M  V30 103 C 8.6746 -1.30299 -5.05786 0
M  V30 104 H 10.3686 -1.01294 -2.81744 0
M  V30 105 H 7.9146 -0.48854 -1.3546 0
M  V30 106 H 9.8676 1.07464 -4.07467 0
M  V30 107 H 8.5916 1.49328 -2.90463 0
M  V30 108 H 7.2506 -0.512053 -3.63006 0
M  V30 109 H 6.8986 1.70523 -4.73214 0
M  V30 110 H 6.5986 0.363291 -5.86476 0
M  V30 111 H 8.1226 1.28996 -5.96818 0
M  V30 112 H 9.5366 -0.959379 -5.65216 0
M  V30 113 H 7.9336 -1.7455 -5.74154 0
M  V30 114 H 9.0036 -2.09663 -4.37229 0
M  V30 115 N 10.3467 1.47872 -0.545128 0
M  V30 116 C 11.2787 2.27869 0.246621 0
M  V30 117 C 12.2917 1.36282 0.890561 0
M  V30 118 O 13.4807 1.61207 0.766449 0
M  V30 119 C 10.5807 3.10159 1.36582 0
M  V30 120 C 9.7537 4.29627 0.820954 0
M  V30 121 C 8.8127 4.93607 1.82314 0
M  V30 122 O 7.8387 5.52366 1.37406 0
M  V30 123 N 9.0407 4.87211 3.15603 0
M  V30 124 H 11.8057 2.96459 -0.439539 0
M  V30 125 H 9.3667 1.57367 -0.380421 0
M  V30 126 H 11.3587 3.49829 2.03474 0
M  V30 127 H 9.9287 2.43891 1.9554 0
M  V30 128 H 9.1487 3.94192 -0.0244032 0
M  V30 129 H 10.4367 5.06928 0.436063 0
M  V30 130 H 9.8347 4.40651 3.54744 0
M  V30 131 H 8.3917 5.30937 3.78087 0
M  V30 132 N 11.8248 0.280983 1.55075 0
M  V30 133 C 12.7718 -0.603937 2.22758 0
M  V30 134 C 13.7418 -1.1452 1.20309 0
M  V30 135 O 14.9268 -1.19343 1.48869 0
M  V30 136 C 12.0668 -1.77947 2.95684 0
M  V30 137 C 11.1798 -1.2715 4.12864 0
M  V30 138 C 10.3148 -2.4093 4.7342 0
M  V30 139 C 9.3538 -1.87165 5.82783 0
M  V30 140 N 8.4908 -2.94441 6.37377 0
M  V30 141 H 13.3308 -0.020124 2.97993 0
M  V30 142 H 10.8678 0.00183425 1.471 0
M  V30 143 H 12.8258 -2.47055 3.36184 0
M  V30 144 H 11.4558 -2.33522 2.22861 0
M  V30 145 H 10.5078 -0.473331 3.77444 0
M  V30 146 H 11.8198 -0.837751 4.91715 0
M  V30 147 H 10.9738 -3.18021 5.1667 0
M  V30 148 H 9.7128 -2.87623 3.93859 0
M  V30 149 H 8.7178 -1.08556 5.38976 0
M  V30 150 H 9.9428 -1.41401 6.64216 0
M  V30 151 H 7.8888 -3.40505 5.60707 0
M  V30 152 H 7.8058 -2.55501 7.11516 0
M  V30 153 H 9.0738 -3.71489 6.85285 0
M  V30 154 N 13.3029 -1.57598 0.00835791 0
M  V30 155 C 14.2359 -2.04409 -1.01451 0
M  V30 156 C 15.2139 -0.935609 -1.32985 0
M  V30 157 O 16.3979 -1.20437 -1.45007 0
M  V30 158 C 13.5249 -2.44872 -2.33999 0
M  V30 159 C 12.5709 -3.66535 -2.18069 0
M  V30 160 S 13.4039 -5.14095 -1.4989 0
M  V30 161 C 14.5599 -5.57835 -2.8385 0
M  V30 162 H 14.7929 -2.90849 -0.615961 0
M  V30 163 H 12.3259 -1.53063 -0.202752 0
M  V30 164 H 14.2839 -2.68852 -3.10208 0
M  V30 165 H 12.9449 -1.58815 -2.70992 0
M  V30 166 H 12.1379 -3.92626 -3.16008 0
M  V30 167 H 11.7399 -3.426 -1.50004 0
M  V30 168 H 14.0319 -5.60806 -3.80136 0
M  V30 169 H 14.9749 -6.57667 -2.62449 0
M  V30 170 H 15.3829 -4.85421 -2.88144 0
M  V30 171 N 14.781 0.264519 -1.55364 0
M  V30 172 C 15.728 1.32717 -1.88825 0
M  V30 173 C 16.698 1.48675 -0.740605 0
M  V30 174 O 17.883 1.62945 -0.992657 0
M  V30 175 C 15.023 2.68089 -2.17307 0
M  V30 176 C 14.136 2.60284 -3.44785 0
M  V30 177 C 13.271 3.87892 -3.62924 0
M  V30 178 C 12.31 3.74631 -4.84064 0
M  V30 179 N 11.447 4.94092 -4.98816 0
M  V30 180 H 16.287 1.03481 -2.79456 0
M  V30 181 H 13.824 0.499757 -1.3835 0
M  V30 182 H 15.782 3.46864 -2.31821 0
M  V30 183 H 14.412 2.95509 -1.299 0
M  V30 184 H 13.464 1.73173 -3.38697 0
M  V30 185 H 14.776 2.46388 -4.33698 0
M  V30 186 H 13.93 4.75109 -3.77302 0
M  V30 187 H 12.669 4.04664 -2.7221 0
M  V30 188 H 11.674 2.85797 -4.69681 0
M  V30 189 H 12.899 3.5937 -5.76221 0
M  V30 190 H 10.845 5.11259 -4.11036 0
M  V30 191 H 10.762 4.8276 -5.81789 0
M  V30 192 H 12.03 5.82857 -5.17588 0
M  V30 193 N 16.2591 1.48442 0.529413 0
M  V30 194 C 17.2221 1.62524 1.61612 0
M  V30 195 C 18.2221 0.498509 1.52877 0
M  V30 196 O 19.4121 0.76431 1.56537 0
M  V30 197 C 16.5441 1.59597 3.01233 0
M  V30 198 H 17.7371 2.59423 1.50465 0
M  V30 199 H 15.2901 1.37047 0.751514 0
M  V30 200 H 16.0251 0.641781 3.17886 0
M  V30 201 H 15.8101 2.41397 3.08982 0
M  V30 202 H 17.3001 1.72646 3.80241 0
M  V30 203 N 17.7372 -0.778329 1.37039 0
M  V30 204 C 18.7002 -1.87301 1.32102 0
M  V30 205 C 19.7002 -1.59198 0.226405 0
M  V30 206 O 20.8902 -1.67403 0.481861 0
M  V30 207 C 18.0222 -3.24309 1.05055 0
M  V30 208 H 19.2152 -1.93093 2.29467 0
M  V30 209 H 16.7682 -0.977358 1.21973 0
M  V30 210 H 17.5032 -3.24196 0.0819373 0
M  V30 211 H 17.2882 -3.46098 1.84279 0
M  V30 212 H 18.7782 -4.04382 1.04234 0
M  V30 213 N 19.2153 -1.21501 -1.00376 0
M  V30 214 C 20.4633 -1.03095 -1.73827 0
M  V30 215 C 20.7843 0.436341 -1.90055 0
M  V30 216 O 20.0543 1.31466 -1.45236 0
M  V30 217 H 18.6343 -0.378487 -0.644016 0
M  V30 218 H 21.2963 -1.52831 -1.20949 0
M  V30 219 H 20.3923 -1.49991 -2.73695 0
M  V30 220 N 20.6934 1.19889 -1.02296 0
M  V30 221 C 21.6034 2.26571 -0.608508 0
M  V30 222 C 22.6194 1.70299 0.356964 0
M  V30 223 O 23.7954 2.00235 0.216326 0
M  V30 224 C 20.8604 3.46677 0.0402814 0
M  V30 225 C 19.9214 4.18153 -0.97194 0
M  V30 226 C 19.1544 5.32525 -0.354016 0
M  V30 227 O 19.3774 5.64112 0.844604 0
M  V30 228 O 18.3114 5.92242 -1.07391 0
M  V30 229 H 22.1374 2.64251 -1.49684 0
M  V30 230 H 19.7224 1.26629 -0.792809 0
M  V30 231 H 21.6044 4.19475 0.402324 0
M  V30 232 H 20.2794 3.10858 0.902707 0
M  V30 233 H 19.1864 3.47499 -1.38546 0
M  V30 234 H 20.5194 4.57927 -1.80454 0
M  V30 235 N 22.1715 0.800033 1.35784 0
M  V30 236 C 23.1185 0.203848 2.29898 0
M  V30 237 C 24.0885 -0.658375 1.52495 0
M  V30 238 O 25.2735 -0.604832 1.8096 0
M  V30 239 C 22.4135 -0.64688 3.38983 0
M  V30 240 C 21.5265 0.235054 4.3136 0
M  V30 241 C 20.6615 -0.623054 5.27533 0
M  V30 242 C 19.7005 0.259682 6.11549 0
M  V30 243 N 18.8375 -0.558019 6.99879 0
M  V30 244 H 23.6775 1.01186 2.80295 0
M  V30 245 H 21.2145 0.51053 1.37957 0
M  V30 246 H 23.1725 -1.15521 4.00887 0
M  V30 247 H 21.8025 -1.42021 2.89879 0
M  V30 248 H 20.8545 0.861438 3.70518 0
M  V30 249 H 22.1665 0.914768 4.9034 0
M  V30 250 H 21.3205 -1.19678 5.94779 0
M  V30 251 H 20.0595 -1.33636 4.69034 0
M  V30 252 H 19.0645 0.845726 5.43256 0
M  V30 253 H 20.2895 0.970748 6.72126 0
M  V30 254 H 18.2355 -1.25542 6.43875 0
M  V30 255 H 18.1525 0.0637872 7.55973 0
M  V30 256 H 19.4205 -1.11523 7.71481 0
M  V30 257 N 23.6496 -1.47581 0.552962 0
M  V30 258 C 24.8986 -2.01684 0.0251995 0
M  V30 259 C 25.2116 -1.43317 -1.33115 0
M  V30 260 O 26.4176 -1.89057 -1.94858 0
M  V30 261 C 24.8736 -3.599 -0.00542052 0
M  V30 262 C 24.4816 -4.27257 1.34742 0
M  V30 263 C 26.2256 -4.21768 -0.4808 0
M  V30 264 C 24.1326 -5.77467 1.27614 0
M  V30 265 H 23.0626 -0.753979 0.00565033 0
M  V30 266 H 25.7136 -1.69616 0.70018 0
M  V30 267 H 24.0956 -3.88911 -0.745961 0
M  V30 268 H 25.2696 -4.09893 2.10534 0
M  V30 269 H 23.5846 -3.77358 1.76039 0
M  V30 270 H 26.1816 -5.31838 -0.55246 0
M  V30 271 H 26.5246 -3.88651 -1.49184 0
M  V30 272 H 27.0576 -3.97273 0.204752 0
M  V30 273 H 23.7966 -6.15196 2.26304 0
M  V30 274 H 23.3166 -5.9718 0.55996 0
M  V30 275 H 24.9956 -6.3959 0.976421 0
M  V30 276 N 25.1277 -0.289203 -1.54924 0
M  V30 277 C 26.0907 0.579144 -2.21762 0
M  V30 278 C 27.0907 1.07047 -1.1999 0
M  V30 279 O 28.2807 0.968384 -1.44803 0
M  V30 280 C 25.4127 1.80055 -2.8947 0
M  V30 281 H 26.6057 -0.00464908 -2.999 0
M  V30 282 H 24.1587 -0.0399306 -1.56249 0
M  V30 283 H 24.8937 2.42449 -2.15381 0
M  V30 284 H 24.6787 1.45602 -3.64064 0
M  V30 285 H 26.1687 2.41773 -3.40493 0
M  V30 286 N 26.6058 1.57591 -0.0167156 0
M  V30 287 C 27.5388 2.04944 1.00366 0
M  V30 288 C 28.5168 0.942648 1.32487 0
M  V30 289 O 29.7008 1.21205 1.44367 0
M  V30 290 C 26.8278 2.46109 2.32697 0
M  V30 291 C 25.8738 3.67686 2.16123 0
M  V30 292 S 26.7068 5.14882 1.47161 0
M  V30 293 C 27.8628 5.59332 2.80888 0
M  V30 294 H 28.0958 2.91172 0.600528 0
M  V30 295 H 25.6288 1.53168 0.194632 0
M  V30 296 H 27.5868 2.70493 3.08778 0
M  V30 297 H 26.2478 1.6025 2.70146 0
M  V30 298 H 25.4408 3.94296 3.13922 0
M  V30 299 H 25.0428 3.43391 1.48185 0
M  V30 300 H 27.3348 5.62814 3.77156 0
M  V30 301 H 28.2778 6.5905 2.58958 0
M  V30 302 H 28.6858 4.86942 2.85565 0
M  V30 303 N 28.0839 -0.256276 1.55502 0
M  V30 304 C 29.0139 -1.32102 1.92539 0
M  V30 305 C 29.9949 -1.50684 0.789194 0
M  V30 306 O 31.1799 -1.63449 1.04872 0
M  V30 307 C 28.3099 -2.67752 2.21192 0
M  V30 308 C 27.2639 -2.63878 3.36975 0
M  V30 309 C 26.5899 -4.03236 3.51147 0
M  V30 310 C 27.8899 -2.21682 4.72921 0
M  V30 311 H 29.5839 -1.01351 2.81724 0
M  V30 312 H 27.1299 -0.486105 1.35547 0
M  V30 313 H 29.0829 -3.42365 2.45691 0
M  V30 314 H 27.8069 -3.0012 1.28824 0
M  V30 315 H 26.4659 -1.91722 3.12471 0
M  V30 316 H 26.1139 -4.32854 2.56216 0
M  V30 317 H 25.8139 -4.01535 4.29003 0
M  V30 318 H 27.3379 -4.79563 3.77957 0
M  V30 319 H 28.7519 -2.86023 4.96854 0
M  V30 320 H 27.1489 -2.3111 5.53812 0
M  V30 321 H 28.2189 -1.16833 4.70615 0
M  V30 322 N 29.562 -1.4872 -0.521534 0
M  V30 323 C 30.79 -1.60843 -1.30142 0
M  V30 324 C 31.205 -0.271897 -1.86832 0
M  V30 325 O 30.562 0.739969 -1.66825 0
M  V30 326 C 30.613 -2.66155 -2.4463 0
M  V30 327 O 30.334 -3.94623 -1.90275 0
M  V30 328 C 31.835 -2.88795 -3.36322 0
M  V30 329 H 29.055 -0.542075 -0.395468 0
M  V30 330 H 31.599 -1.94609 -0.628285 0
M  V30 331 H 29.754 -2.35224 -3.07812 0
M  V30 332 H 30.168 -4.52468 -2.65279 0
M  V30 333 H 31.642 -3.66264 -4.12983 0
M  V30 334 H 32.119 -1.97934 -3.9207 0
M  V30 335 H 32.725 -3.21063 -2.78924 0
M  V30 336 N 31.0401 0.771051 -1.3745 0
M  V30 337 C 32.0031 1.86598 -1.33093 0
M  V30 338 C 33.0031 1.59076 -0.234845 0
M  V30 339 O 34.1931 1.67145 -0.490732 0
M  V30 340 C 31.3251 3.23747 -1.06773 0
M  V30 341 H 32.5181 1.91873 -2.30488 0
M  V30 342 H 30.0711 0.970876 -1.2249 0
M  V30 343 H 30.8061 3.24148 -0.099129 0
M  V30 344 H 30.5911 3.45115 -1.86112 0
M  V30 345 H 32.0811 4.03824 -1.06377 0
M  V30 346 N 32.5182 1.22032 0.997298 0
M  V30 347 C 33.7482 1.06686 1.76923 0
M  V30 348 C 34.1562 -0.385838 1.85224 0
M  V30 349 O 33.4992 -1.27929 1.31833 0
M  V30 350 C 33.5612 1.59802 3.22031 0
M  V30 351 C 33.2252 3.08362 3.37286 0
M  V30 352 C 34.2222 4.05835 3.24952 0
M  V30 353 C 31.9072 3.47727 3.6248 0
M  V30 354 C 33.9012 5.4066 3.37588 0
M  V30 355 C 31.5882 4.82701 3.74757 0
M  V30 356 C 32.5862 5.78977 3.62319 0
M  V30 357 O 32.2742 7.11502 3.74193 0
M  V30 358 H 32.0062 0.374767 0.562606 0
M  V30 359 H 34.5602 1.61991 1.26286 0
M  V30 360 H 32.7902 0.989003 3.73839 0
M  V30 361 H 34.4792 1.40184 3.80924 0
M  V30 362 H 35.2452 3.76766 3.05405 0
M  V30 363 H 31.1242 2.73317 3.7124 0
M  V30 364 H 34.6682 6.15788 3.27796 0
M  V30 365 H 30.5652 5.11453 3.9381 0
M  V30 366 H 31.3332 7.19019 3.91093 0
M  V30 367 N 33.9963 -1.19345 1.0293 0
M  V30 368 C 34.9063 -2.26245 0.620515 0
M  V30 369 C 35.9223 -1.70486 -0.347928 0
M  V30 370 O 37.0983 -2.00347 -0.205704 0
M  V30 371 C 34.1633 -3.46693 -0.0218957 0
M  V30 372 C 33.2243 -4.17632 0.994102 0
M  V30 373 C 32.4573 -5.32329 0.382253 0
M  V30 374 O 32.6803 -5.64552 -0.814676 0
M  V30 375 O 31.6143 -5.91664 1.10531 0
M  V30 376 H 35.4403 -2.63453 1.51083 0
M  V30 377 H 33.0253 -1.26207 0.799513 0
M  V30 378 H 34.9073 -4.19683 -0.380072 0
M  V30 379 H 33.5823 -3.11333 -0.886209 0
M  V30 380 H 32.4893 -3.4676 1.40387 0
M  V30 381 H 33.8223 -4.56964 1.8288 0
M  V30 382 N 35.4744 -0.807222 -1.35358 0
M  V30 383 C 36.6994 -0.399309 -2.0352 0
M  V30 384 C 37.1244 0.981986 -1.60433 0
M  V30 385 O 36.4824 1.63601 -0.781299 0
M  V30 386 C 36.5304 -0.491552 -3.57234 0
M  V30 387 O 35.6344 0.494754 -4.09421 0
M  V30 388 H 34.9754 -0.166682 -0.642739 0
M  V30 389 H 37.5054 -1.09328 -1.72941 0
M  V30 390 H 37.5154 -0.361588 -4.06395 0
M  V30 391 H 36.1904 -1.49907 -3.87944 0
M  V30 392 H 34.7674 0.324977 -3.71481 0
M  V30 393 N 36.9525 1.47285 -0.560781 0
M  V30 394 C 38.1775 2.07359 -0.0410566 0
M  V30 395 C 38.6025 1.41017 1.24483 0
M  V30 396 O 37.9605 0.486368 1.74654 0
M  V30 397 C 38.0085 3.6035 0.134123 0
M  V30 398 O 37.1125 3.94681 1.19587 0
M  V30 399 H 36.4535 0.661887 -0.0529291 0
M  V30 400 H 38.9835 1.89252 -0.777482 0
M  V30 401 H 38.9935 4.0652 0.347207 0
M  V30 402 H 37.6685 4.08034 -0.805047 0
M  V30 403 H 36.2455 3.60251 0.962987 0
M  V30 404 N 38.4306 0.297415 1.54768 0
M  V30 405 C 39.6776 -0.312913 2.00068 0
M  V30 406 C 40.0056 -1.54171 1.18582 0
M  V30 407 O 39.2606 -1.94108 0.249133 0
M  V30 408 C 39.5596 -0.717561 3.50123 0
M  V30 409 C 39.2256 0.409095 4.4904 0
M  V30 410 C 37.8876 0.718399 4.75807 0
M  V30 411 C 40.2396 1.16717 5.07963 0
M  V30 412 C 37.5676 1.78896 5.5876 0
M  V30 413 C 39.9196 2.22762 5.92081 0
M  V30 414 C 38.5836 2.54303 6.1716 0
M  V30 415 H 37.8536 -0.114503 0.7321 0
M  V30 416 H 40.5006 0.415767 1.86932 0
M  V30 417 H 38.8056 -1.52627 3.60849 0
M  V30 418 H 40.5026 -1.20091 3.82595 0
M  V30 419 H 37.0926 0.157918 4.28309 0
M  V30 420 H 41.2766 0.941466 4.87289 0
M  V30 421 H 36.5326 2.0381 5.7643 0
M  V30 422 H 40.7066 2.81962 6.36765 0
M  V30 423 H 38.3336 3.3739 6.81229 0
M  V30 424 N 39.9087 -1.5758 0.0250728 0
M  V30 425 C 40.8717 -2.08896 -0.943139 0
M  V30 426 C 41.8717 -1.00321 -1.25668 0
M  V30 427 O 43.0617 -1.26495 -1.19769 0
M  V30 428 C 40.1937 -2.55143 -2.26086 0
M  V30 429 H 41.3867 -2.95723 -0.498775 0
M  V30 430 H 38.9397 -1.54703 -0.222888 0
M  V30 431 H 39.6747 -1.71633 -2.75159 0
M  V30 432 H 39.4597 -3.34461 -2.04641 0
M  V30 433 H 40.9497 -2.95083 -2.95492 0
M  V30 434 N 41.3868 0.248026 -1.55636 0
M  V30 435 C 42.3498 1.29044 -1.89421 0
M  V30 436 C 43.3498 1.41134 -0.770581 0
M  V30 437 O 44.5398 1.39854 -1.03858 0
M  V30 438 C 41.6718 2.66831 -2.12165 0
M  V30 439 H 42.8648 1.00305 -2.82629 0
M  V30 440 H 40.4178 0.487265 -1.48511 0
M  V30 441 H 41.1528 3.00711 -1.21422 0
M  V30 442 H 40.9378 2.59438 -2.93997 0
M  V30 443 H 42.4278 3.42103 -2.3949 0
M  V30 444 N 42.8649 1.48995 0.513639 0
M  V30 445 C 43.7949 1.67636 1.62544 0
M  V30 446 C 44.7759 0.525087 1.61793 0
M  V30 447 O 45.9609 0.759502 1.78732 0
M  V30 448 C 43.0909 1.73114 3.01079 0
M  V30 449 C 42.0449 2.87905 3.16693 0
M  V30 450 C 41.3709 2.78486 4.56453 0
M  V30 451 C 42.6709 4.29005 2.97913 0
M  V30 452 H 44.3649 2.60716 1.47198 0
M  V30 453 H 41.9109 1.25465 0.706714 0
M  V30 454 H 43.8639 1.84742 3.78746 0
M  V30 455 H 42.5879 0.766241 3.17484 0
M  V30 456 H 41.2469 2.75859 2.41448 0
M  V30 457 H 40.8949 1.7993 4.69717 0
M  V30 458 H 40.5949 3.55523 4.67843 0
M  V30 459 H 42.1189 2.92104 5.36197 0
M  V30 460 H 43.5329 4.41798 3.65359 0
M  V30 461 H 41.9299 5.07166 3.20785 0
M  V30 462 H 42.9999 4.44329 1.94165 0
M  V30 463 N 44.343 -0.763751 1.37857 0
M  V30 464 C 45.276 -1.88486 1.28639 0
M  V30 465 C 46.254 -1.61757 0.165363 0
M  V30 466 O 47.438 -1.85391 0.340948 0
M  V30 467 C 44.565 -3.23884 0.990811 0
M  V30 468 C 43.611 -3.69514 2.12983 0
M  V30 469 S 44.444 -3.82244 3.75033 0
M  V30 470 C 45.6 -5.20477 3.47641 0
M  V30 471 H 45.833 -1.96017 2.23527 0
M  V30 472 H 43.366 -0.925684 1.23574 0
M  V30 473 H 45.324 -4.02081 0.827101 0
M  V30 474 H 43.985 -3.14044 0.0592832 0
M  V30 475 H 43.178 -4.67696 1.87821 0
M  V30 476 H 42.78 -2.98441 2.25408 0
M  V30 477 H 45.072 -6.05905 3.03125 0
M  V30 478 H 46.015 -5.50655 4.4518 0
M  V30 479 H 46.423 -4.88793 2.82385 0
M  V30 480 N 45.8211 -1.22559 -0.990812 0
M  V30 481 C 47.0981 -0.959875 -1.70428 0
M  V30 482 C 47.4781 0.524455 -2.04481 0
M  V30 483 O 46.8261 1.49302 -1.72977 0
M  V30 484 C 47.0361 -1.85955 -2.95333 0
M  V30 485 C 48.3841 -2.11687 -3.68068 0
M  V30 486 O 49.4081 -1.8342 -3.05345 0
M  V30 487 O 48.2671 -2.59572 -4.80921 0
M  V30 488 H 45.3611 -0.361154 -0.743974 0
M  V30 489 H 47.9071 -1.33554 -1.04697 0
M  V30 490 H 46.6791 -2.86346 -2.66687 0
M  V30 491 H 46.3021 -1.4856 -3.68803 0
M  V30 492 N 47.2992 1.18797 -1.03562 0
M  V30 493 C 48.5762 1.84469 -0.650434 0
M  V30 494 C 48.9562 1.92319 0.870433 0
M  V30 495 O 48.3042 1.44528 1.76986 0
M  V30 496 C 48.5142 3.2306 -1.32036 0
M  V30 497 C 49.8622 3.9915 -1.44792 0
M  V30 498 O 50.8862 3.32481 -1.27806 0
M  V30 499 O 49.7452 5.18587 -1.72423 0
M  V30 500 H 46.8392 0.795251 -0.226946 0
M  V30 501 H 49.3852 1.26231 -1.13419 0
M  V30 502 H 48.1572 3.1222 -2.3587 0
M  V30 503 H 47.7802 3.88949 -0.8249 0
M  V30 504 N 48.7773 0.814389 1.34928 0
M  V30 505 C 49.7403 0.235759 2.27984 0
M  V30 506 C 50.7403 -0.581412 1.49921 0
M  V30 507 O 51.9303 -0.398758 1.69575 0
M  V30 508 C 49.0623 -0.670433 3.34242 0
M  V30 509 H 50.2553 1.05659 2.80671 0
M  V30 510 H 47.8083 0.585614 1.44915 0
M  V30 511 H 48.5433 -1.51466 2.86755 0
M  V30 512 H 48.3283 -0.0860822 3.92005 0
M  V30 513 H 49.8183 -1.06935 4.03676 0
M  V30 514 N 50.2554 -1.46986 0.568584 0
M  V30 515 C 51.5034 -2.02041 0.0487022 0
M  V30 516 C 51.8244 -1.44408 -1.31039 0
M  V30 517 O 51.0944 -0.623477 -1.85714 0
M  V30 518 H 49.6744 -0.746849 0.015014 0
M  V30 519 H 52.3364 -1.80257 0.741168 0
M  V30 520 H 51.4324 -3.12085 -0.0308961 0
M  V30 521 N 51.7335 -0.305618 -1.54608 0
M  V30 522 C 52.9795 0.302746 -2.00528 0
M  V30 523 C 53.3125 1.53184 -1.19367 0
M  V30 524 O 52.5875 1.92598 -0.271321 0
M  V30 525 C 52.8705 0.654756 -3.54097 0
M  V30 526 C 52.7235 -0.583793 -4.45995 0
M  V30 527 C 54.0425 1.47947 -4.14487 0
M  V30 528 H 51.1615 0.108564 -0.72896 0
M  V30 529 H 53.8035 -0.418634 -1.85331 0
M  V30 530 H 51.9535 1.26935 -3.67178 0
M  V30 531 H 53.6255 -1.22224 -4.44814 0
M  V30 532 H 51.8685 -1.21615 -4.16404 0
M  V30 533 H 52.5395 -0.293287 -5.5122 0
M  V30 534 H 55.0155 0.96013 -4.04871 0
M  V30 535 H 53.8915 1.69454 -5.22088 0
M  V30 536 H 54.1525 2.47011 -3.66658 0
M  V30 537 N 53.2116 1.57565 -0.0334293 0
M  V30 538 C 54.1216 2.13943 0.962572 0
M  V30 539 C 55.1376 1.09276 1.35406 0
M  V30 540 O 56.3136 1.41355 1.4346 0
M  V30 541 C 53.3786 2.65887 2.22497 0
M  V30 542 C 52.4396 3.85286 1.8935 0
M  V30 543 C 51.6726 4.34743 3.09571 0
M  V30 544 O 51.8956 3.83352 4.22371 0
M  V30 545 O 50.8296 5.26538 2.91618 0
M  V30 546 H 54.6556 2.99333 0.513169 0
M  V30 547 H 52.2406 1.4822 0.18743 0
M  V30 548 H 54.1226 2.99346 2.96598 0
M  V30 549 H 52.7976 1.83578 2.6661 0
M  V30 550 H 51.7046 3.56746 1.1262 0
M  V30 551 H 53.0376 4.68771 1.5005 0
M  V30 552 N 54.6897 -0.239769 1.55765 0
M  V30 553 C 55.6227 -1.32356 1.85895 0
M  V30 554 C 56.6007 -1.46053 0.714662 0
M  V30 555 O 57.7847 -1.62154 0.961157 0
M  V30 556 C 54.9117 -2.6962 2.04994 0
M  V30 557 C 53.9577 -2.73036 3.27648 0
M  V30 558 S 54.7907 -2.28929 4.84099 0
M  V30 559 C 55.9467 -3.68103 5.06212 0
M  V30 560 H 56.1797 -1.06601 2.77531 0
M  V30 561 H 53.7127 -0.441112 1.47965 0
M  V30 562 H 55.6707 -3.48653 2.16682 0
M  V30 563 H 54.3317 -2.92609 1.14188 0
M  V30 564 H 53.5247 -3.7386 3.38 0
M  V30 565 H 53.1267 -2.02052 3.14723 0
M  V30 566 H 55.4187 -4.63656 4.93993 0
M  V30 567 H 56.3617 -3.6268 6.08168 0
M  V30 568 H 56.7697 -3.60947 4.34025 0
M  V30 569 N 56.1678 -1.49265 -0.50573 0
M  V30 570 C 57.0978 -1.68495 -1.61653 0
M  V30 571 C 58.0788 -0.53366 -1.61512 0
M  V30 572 O 59.2638 -0.76897 -1.78327 0
M  V30 573 C 56.3938 -1.74709 -3.00157 0
M  V30 574 C 55.3478 -2.89581 -3.15162 0
M  V30 575 C 54.6738 -2.80903 -4.5497 0
M  V30 576 C 55.9738 -4.30578 -2.95634 0
M  V30 577 H 57.6678 -2.61493 -1.45814 0
M  V30 578 H 55.2138 -1.25838 -0.70005 0
M  V30 579 H 57.1668 -1.86748 -3.77761 0
M  V30 580 H 55.8908 -0.783067 -3.17074 0
M  V30 581 H 54.5498 -2.77136 -2.39982 0
M  V30 582 H 54.1978 -1.82419 -4.68756 0
M  V30 583 H 53.8978 -3.57999 -4.65951 0
M  V30 584 H 55.4218 -2.94944 -5.34641 0
M  V30 585 H 56.8358 -4.4373 -3.63011 0
M  V30 586 H 55.2328 -5.0886 -3.18091 0
M  V30 587 H 56.3028 -4.45352 -1.91806 0
M  V30 588 N 57.6459 0.756429 -1.3826 0
M  V30 589 C 58.5759 1.88374 -1.37976 0
M  V30 590 C 59.5569 1.68311 -0.246082 0
M  V30 591 O 60.7419 1.88944 -0.44874 0
M  V30 592 C 57.8719 3.25864 -1.20125 0
M  V30 593 C 56.8259 3.60523 -2.30666 0
M  V30 594 C 56.1519 4.9672 -1.97923 0
M  V30 595 C 57.4519 3.65692 -3.72916 0
M  V30 596 H 59.1459 1.88869 -2.32312 0
M  V30 597 H 56.6919 0.907272 -1.11824 0
M  V30 598 H 58.6449 4.0438 -1.18552 0
M  V30 599 H 57.3689 3.25841 -0.222498 0
M  V30 600 H 56.0279 2.84324 -2.3142 0
M  V30 601 H 55.6759 4.93253 -0.985393 0
M  V30 602 H 55.3759 5.20878 -2.71955 0
M  V30 603 H 56.8999 5.77618 -1.97964 0
M  V30 604 H 58.3139 4.34328 -3.74208 0
M  V30 605 H 56.7109 4.01358 -4.4613 0
M  V30 606 H 57.7809 2.65987 -4.05436 0
M  V30 607 N 59.124 1.23083 0.984299 0
M  V30 608 C 60.37 1.06214 1.72761 0
M  V30 609 C 60.703 -0.400584 1.90024 0
M  V30 610 O 59.978 -1.29672 1.44967 0
M  V30 611 C 60.261 1.78375 3.12817 0
M  V30 612 C 60.114 3.32296 3.03149 0
M  V30 613 C 61.433 1.54309 4.12161 0
M  V30 614 H 58.552 0.387251 0.627061 0
M  V30 615 H 61.194 1.51536 1.14616 0
M  V30 616 H 59.344 1.39848 3.62457 0
M  V30 617 H 61.016 3.8032 2.61064 0
M  V30 618 H 59.259 3.6153 2.39747 0
M  V30 619 H 59.93 3.77972 4.02295 0
M  V30 620 H 62.406 1.87791 3.71314 0
M  V30 621 H 61.282 2.07281 5.08258 0
M  V30 622 H 61.543 0.477572 4.39513 0
M  V30 623 N 60.6021 -1.18246 1.0419 0
M  V30 624 C 61.8501 -1.87886 0.744543 0
M  V30 625 C 62.1711 -1.8082 -0.730006 0
M  V30 626 O 61.4411 -1.22736 -1.52685 0
M  V30 627 H 60.0211 -0.695556 0.272417 0
M  V30 628 H 62.6831 -1.43494 1.31892 0
M  V30 629 H 61.7791 -2.9389 1.05049 0
M  V30 630 N 62.0802 -0.821533 -1.34494 0
M  V30 631 C 63.3572 -0.33159 -1.92769 0
M  V30 632 C 63.7372 1.18088 -1.74981 0
M  V30 633 O 63.0852 1.98733 -1.12772 0
M  V30 634 C 63.2952 -0.759398 -3.40638 0
M  V30 635 C 64.6432 -0.757433 -4.1779 0
M  V30 636 O 65.6672 -0.70189 -3.49216 0
M  V30 637 O 64.5262 -0.829361 -5.4017 0
M  V30 638 H 61.6202 -0.0902502 -0.822061 0
M  V30 639 H 64.1662 -0.906231 -1.43477 0
M  V30 640 H 62.9382 -1.8012 -3.47379 0
M  V30 641 H 62.5612 -0.160378 -3.97276 0
M  V30 642 N 63.5583 1.46682 -0.576371 0
M  V30 643 C 64.7833 2.07304 -0.0630475 0
M  V30 644 C 65.2083 1.42329 1.2298 0
M  V30 645 O 64.5663 0.504865 1.74129 0
M  V30 646 C 64.6143 3.60472 0.095895 0
M  V30 647 O 63.7183 3.95927 1.15394 0
M  V30 648 H 63.0593 0.661288 -0.0599463 0
M  V30 649 H 65.5893 1.88417 -0.797511 0
M  V30 650 H 65.5993 4.06865 0.304071 0
M  V30 651 H 64.2743 4.07157 -0.84828 0
M  V30 652 H 62.8513 3.61252 0.924724 0
M  V30 653 N 65.0364 0.313813 1.54444 0
M  V30 654 C 65.9664 -0.549454 2.26943 0
M  V30 655 C 66.9474 -1.12741 1.27372 0
M  V30 656 O 68.1324 -1.15436 1.56167 0
M  V30 657 C 65.2624 -1.71523 3.01989 0
M  V30 658 C 64.2164 -1.26703 4.08816 0
M  V30 659 C 63.5424 -2.51898 4.71647 0
M  V30 660 C 64.8424 -0.388962 5.2085 0
M  V30 661 H 66.5364 0.0552661 2.99349 0
M  V30 662 H 64.0824 0.0280207 1.43973 0
M  V30 663 H 66.0354 -2.32535 3.51433 0
M  V30 664 H 64.7594 -2.34639 2.27183 0
M  V30 665 H 63.4184 -0.679896 3.6024 0
M  V30 666 H 63.0664 -3.13356 3.93468 0
M  V30 667 H 62.7664 -2.22605 5.43802 0
M  V30 668 H 64.2904 -3.1369 5.23861 0
M  V30 669 H 65.7044 -0.905107 5.6611 0
M  V30 670 H 64.1014 -0.18924 5.99802 0
M  V30 671 H 65.1714 0.582699 4.81386 0
M  V30 672 N 66.5145 -1.57545 0.0417849 0
M  V30 673 C 67.7625 -1.91937 -0.632829 0
M  V30 674 C 68.0835 -0.919978 -1.71934 0
M  V30 675 O 67.3535 0.0366064 -1.95866 0
M  V30 676 H 65.9335 -0.708493 -0.236742 0
M  V30 677 H 68.5955 -1.9468 0.0925745 0
M  V30 678 H 67.6915 -2.92912 -1.07746 0
M  V30 679 N 67.9926 0.231505 -1.5589 0
M  V30 680 C 68.9256 1.31369 -1.86595 0
M  V30 681 C 69.9036 1.45671 -0.722397 0
M  V30 682 O 71.0876 1.61642 -0.969743 0
M  V30 683 C 68.2146 2.68529 -2.06421 0
M  V30 684 C 67.2606 2.71295 -3.29092 0
M  V30 685 S 68.0936 2.26358 -4.85306 0
M  V30 686 C 69.2496 3.65414 -5.08157 0
M  V30 687 H 69.4826 1.05128 -2.78092 0
M  V30 688 H 67.0156 0.433259 -1.48197 0
M  V30 689 H 68.9736 3.47499 -2.18528 0
M  V30 690 H 67.6346 2.91999 -1.15738 0
M  V30 691 H 66.8276 3.72063 -3.39978 0
M  V30 692 H 66.4296 2.0038 -3.15791 0
M  V30 693 H 68.7216 4.6103 -4.96445 0
M  V30 694 H 69.6646 3.5945 -6.10083 0
M  V30 695 H 70.0726 3.5864 -4.35933 0
M  V30 696 N 69.4707 1.49531 0.497807 0
M  V30 697 C 70.4337 1.65916 1.58128 0
M  V30 698 C 71.4337 0.530825 1.51786 0
M  V30 699 O 72.6237 0.797342 1.54881 0
M  V30 700 C 69.7557 1.65951 2.9778 0
M  V30 701 H 70.9487 2.62556 1.44929 0
M  V30 702 H 68.5017 1.38611 0.722275 0
M  V30 703 H 69.2367 0.709065 3.16453 0
M  V30 704 H 69.0217 2.47897 3.03792 0
M  V30 705 H 70.5117 1.80673 3.76493 0
M  V30 706 N 70.9488 -0.749086 1.3866 0
M  V30 707 C 72.1948 -1.51056 1.35314 0
M  V30 708 C 72.5278 -1.94121 -0.0553751 0
M  V30 709 O 71.8028 -1.65763 -1.01749 0
M  V30 710 C 72.0858 -2.76003 2.31288 0
M  V30 711 C 71.9388 -2.39047 3.8102 0
M  V30 712 C 73.2578 -3.78046 2.2532 0
M  V30 713 H 70.3768 -0.547972 0.492844 0
M  V30 714 H 73.0188 -0.857628 1.69543 0
M  V30 715 H 71.1688 -3.31716 2.02229 0
M  V30 716 H 72.8408 -1.89074 4.20771 0
M  V30 717 H 71.0838 -1.71449 3.98482 0
M  V30 718 H 71.7548 -3.28462 4.4364 0
M  V30 719 H 74.2308 -3.31884 2.50983 0
M  V30 720 H 73.1068 -4.63159 2.94576 0
M  V30 721 H 73.3678 -4.23957 1.25352 0
M  V30 722 N 72.4269 -1.23603 -0.977757 0
M  V30 723 C 73.3589 -0.977369 -2.07317 0
M  V30 724 C 74.3719 0.0495845 -1.62724 0
M  V30 725 O 75.5609 -0.186261 -1.77526 0
M  V30 726 C 72.6609 -0.451216 -3.35883 0
M  V30 727 C 71.8339 -1.53896 -4.09432 0
M  V30 728 C 70.8929 -1.01721 -5.16274 0
M  V30 729 O 69.9189 -1.70676 -5.43009 0
M  V30 730 N 71.1209 0.153594 -5.80297 0
M  V30 731 H 73.8859 -1.92047 -2.30082 0
M  V30 732 H 71.4469 -1.14497 -1.14465 0
M  V30 733 H 73.4389 -0.0871574 -4.04606 0
M  V30 734 H 72.0089 0.397368 -3.10064 0
M  V30 735 H 71.2289 -2.07566 -3.35127 0
M  V30 736 H 72.5169 -2.27037 -4.55337 0
M  V30 737 H 71.9149 0.730323 -5.60966 0
M  V30 738 H 70.4719 0.458892 -6.50183 0
M  V30 739 N 73.905 1.17692 -1.04816 0
M  V30 740 C 75.153 1.87488 -0.754497 0
M  V30 741 C 75.474 1.81205 0.720407 0
M  V30 742 O 74.744 1.23544 1.52032 0
M  V30 743 H 73.324 0.694101 -0.276102 0
M  V30 744 H 75.986 1.42793 -1.32651 0
M  V30 745 H 75.082 2.93328 -1.06606 0
M  V30 746 N 75.3831 0.828654 1.34056 0
M  V30 747 C 76.7991 0.515135 1.51058 0
M  V30 748 C 76.9991 -0.959581 1.77184 0
M  V30 749 O 76.0551 -1.74382 1.82612 0
M  V30 750 C 77.3681 1.37963 2.67183 0
M  V30 751 C 78.9161 1.37735 2.81066 0
M  V30 752 C 79.3911 2.22645 4.00241 0
M  V30 753 N 80.8821 2.203 4.07458 0
M  V30 754 C 81.6171 2.82744 4.98842 0
M  V30 755 N 81.1131 3.54201 5.9541 0
M  V30 756 N 82.9061 2.72268 4.91759 0
M  V30 757 H 75.0571 1.78343 1.15358 0
M  V30 758 H 77.3201 0.760304 0.566252 0
M  V30 759 H 77.0261 2.42714 2.54525 0
M  V30 760 H 76.9001 1.0484 3.62338 0
M  V30 761 H 79.2871 0.337593 2.93163 0
M  V30 762 H 79.3681 1.74859 1.86703 0
M  V30 763 H 79.0121 3.26674 3.88905 0
M  V30 764 H 78.9421 1.82869 4.93829 0
M  V30 765 H 81.4331 1.68327 3.38341 0
M  V30 766 H 81.7461 3.9908 6.61782 0
M  V30 767 H 80.0911 3.58308 5.95517 0
M  V30 768 H 83.2821 2.16014 4.15278 0
M  V30 769 H 83.4551 3.21219 5.62781 0
M  V30 770 N 76.8612 -1.46375 0.584142 0
M  V30 771 C 77.8082 -2.30323 -0.148286 0
M  V30 772 C 78.7782 -1.40703 -0.882713 0
M  V30 773 O 79.9632 -1.69651 -0.873099 0
M  V30 774 C 77.1032 -3.25196 -1.15507 0
M  V30 775 C 76.2162 -4.29915 -0.423943 0
M  V30 776 C 75.3512 -5.11914 -1.41838 0
M  V30 777 C 74.3902 -6.08381 -0.673736 0
M  V30 778 N 73.5272 -6.83242 -1.6163 0
M  V30 779 H 78.3672 -2.92427 0.573644 0
M  V30 780 H 75.9042 -1.44118 0.294703 0
M  V30 781 H 77.8622 -3.78646 -1.75166 0
M  V30 782 H 76.4922 -2.64898 -1.8447 0
M  V30 783 H 75.5442 -3.7931 0.287714 0
M  V30 784 H 76.8562 -4.98549 0.158128 0
M  V30 785 H 76.0102 -5.69648 -2.08773 0
M  V30 786 H 74.7492 -4.43243 -2.03438 0
M  V30 787 H 73.7542 -5.49799 0.00938483 0
M  V30 788 H 74.9792 -6.79071 -0.0631082 0
M  V30 789 H 72.9252 -6.1728 -2.22038 0
M  V30 790 H 72.8422 -7.48144 -1.08707 0
M  V30 791 H 74.1102 -7.45534 -2.27596 0
M  V30 792 N 78.3393 -0.321999 -1.54275 0
M  V30 793 C 79.5643 0.285791 -2.05422 0
M  V30 794 C 79.9893 1.45124 -1.19669 0
M  V30 795 O 79.3473 1.80132 -0.205441 0
M  V30 796 C 79.3953 0.69956 -3.53749 0
M  V30 797 O 78.4993 1.8021 -3.70942 0
M  V30 798 H 77.8403 0.0518962 -0.661969 0
M  V30 799 H 80.3703 -0.469954 -1.9913 0
M  V30 800 H 80.3803 0.982649 -3.9599 0
M  V30 801 H 79.0553 -0.152864 -4.15619 0
M  V30 802 H 77.6323 1.51794 -3.40607 0
M  V30 803 N 79.8174 1.5752 -0.0501392 0
M  V30 804 C 81.0454 1.96963 0.633492 0
M  V30 805 C 81.4604 0.927631 1.6444 0
M  V30 806 O 80.8174 -0.0882665 1.82286 0
M  V30 807 C 80.8684 3.36487 1.32132 0
M  V30 808 O 80.5894 4.36693 0.350894 0
M  V30 809 C 82.0904 3.90682 2.09481 0
M  V30 810 H 79.3104 0.648244 0.173266 0
M  V30 811 H 81.8544 2.0417 -0.116134 0
M  V30 812 H 80.0094 3.30434 2.02218 0
M  V30 813 H 80.4234 5.17702 0.841735 0
M  V30 814 H 81.8974 4.90591 2.5303 0
M  V30 815 H 82.3744 3.26053 2.94255 0
M  V30 816 H 82.9804 4.00069 1.44307 0
M  V30 817 N 81.2955 -0.223234 1.56011 0
M  V30 818 C 82.2255 -1.27988 1.95298 0
M  V30 819 C 83.2065 -1.48976 0.820979 0
M  V30 820 O 84.3915 -1.61188 1.08315 0
M  V30 821 C 81.5215 -2.63 2.26822 0
M  V30 822 C 80.4755 -2.56671 3.42497 0
M  V30 823 C 79.8015 -3.95697 3.59622 0
M  V30 824 C 81.1015 -2.11601 4.77517 0
M  V30 825 H 82.7955 -0.953525 2.8381 0
M  V30 826 H 80.3415 -0.457244 1.36548 0
M  V30 827 H 82.2945 -3.37077 2.52898 0
M  V30 828 H 81.0185 -2.9732 1.35161 0
M  V30 829 H 79.6775 -1.85051 3.16467 0
M  V30 830 H 79.3255 -4.27322 2.6534 0
M  V30 831 H 79.0255 -3.92345 4.37424 0
M  V30 832 H 80.5495 -4.71438 3.88044 0
M  V30 833 H 81.9635 -2.7542 5.02809 0
M  V30 834 H 80.3605 -2.19311 5.5859 0
M  V30 835 H 81.4305 -1.06824 4.72987 0
M  V30 836 N 82.7736 -1.49793 -0.48987 0
M  V30 837 C 84.1846 -1.52914 -1.07118 0
M  V30 838 C 84.5356 -0.321738 -1.93544 0
M  V30 839 O 83.6606 0.567338 -2.08831 0
M  V30 840 C 84.2556 -2.771 -1.94938 0
M  V30 841 C 82.8146 -2.82963 -2.48212 0
M  V30 842 C 81.9616 -2.46972 -1.26096 0
M  V30 843 H 84.9126 -1.56329 -0.273289 0
M  V30 844 H 84.9336 -2.57892 -2.79771 0
M  V30 845 H 84.4456 -3.64959 -1.32009 0
M  V30 846 H 82.5466 -1.99411 -3.14748 0
M  V30 847 H 82.6596 -3.85406 -2.84603 0
M  V30 848 H 81.0236 -1.98994 -1.58976 0
M  V30 849 H 81.8066 -3.37118 -0.648581 0
M  V30 850 N 84.2517 0.741722 -1.39055 0
M  V30 851 C 85.4977 1.50336 -1.36113 0
M  V30 852 C 85.8307 1.94148 0.0450796 0
M  V30 853 O 85.1057 1.66301 1.00868 0
M  V30 854 C 85.3887 2.74773 -2.32749 0
M  V30 855 C 85.2417 2.37023 -3.82283 0
M  V30 856 C 86.5607 3.76846 -2.27322 0
M  V30 857 H 83.6797 0.545351 -0.495743 0
M  V30 858 H 86.3217 0.848624 -1.69995 0
M  V30 859 H 84.4717 3.30639 -2.03986 0
M  V30 860 H 86.1437 1.8684 -4.21768 0
M  V30 861 H 84.3867 1.69334 -3.99385 0
M  V30 862 H 85.0577 3.26104 -4.45376 0
M  V30 863 H 87.5337 3.30548 -2.5274 0
M  V30 864 H 86.4097 4.6159 -2.97028 0
M  V30 865 H 86.6707 4.23286 -1.27599 0
M  V30 866 N 85.7298 1.2412 0.971189 0
M  V30 867 C 86.9548 1.10667 1.75407 0
M  V30 868 C 87.3798 -0.337048 1.85056 0
M  V30 869 O 86.7378 -1.24396 1.31892 0
M  V30 870 C 86.7858 1.74726 3.15441 0
M  V30 871 O 85.8898 1.01566 3.99697 0
M  V30 872 H 85.2308 0.387341 0.539317 0
M  V30 873 H 87.7608 1.64358 1.2185 0
M  V30 874 H 87.7708 1.80341 3.6598 0
M  V30 875 H 86.4458 2.79773 3.07734 0
M  V30 876 H 85.0228 1.03713 3.58187 0
M  V30 877 N 87.2079 -1.17134 1.05439 0
M  V30 878 C 88.1379 -2.2342 0.678649 0
M  V30 879 C 89.1189 -1.66971 -0.32476 0
M  V30 880 O 90.3039 -1.93149 -0.201802 0
M  V30 881 C 87.4339 -3.47256 0.0552099 0
M  V30 882 C 86.3879 -4.16543 0.98365 0
M  V30 883 C 85.7139 -5.34231 0.223961 0
M  V30 884 C 87.0139 -4.68495 2.3089 0
M  V30 885 H 88.7079 -2.55105 1.56722 0
M  V30 886 H 86.2539 -1.2262 0.754998 0
M  V30 887 H 88.2069 -4.20828 -0.21946 0
M  V30 888 H 86.9309 -3.14846 -0.868319 0
M  V30 889 H 85.5899 -3.44887 1.24293 0
M  V30 890 H 85.2379 -4.98071 -0.702412 0
M  V30 891 H 84.9379 -5.81527 0.842627 0
M  V30 892 H 86.4619 -6.10585 -0.0433671 0
M  V30 893 H 87.8759 -5.33691 2.09396 0
M  V30 894 H 86.2729 -5.26379 2.88176 0
M  V30 895 H 87.3429 -3.85169 2.94572 0
M  V30 896 N 88.686 -0.835752 -1.33615 0
M  V30 897 C 90.102 -0.523139 -1.50783 0
M  V30 898 C 90.302 0.950171 -1.77691 0
M  V30 899 O 89.358 1.73411 -1.83534 0
M  V30 900 C 90.671 -1.39378 -2.66448 0
M  V30 901 C 92.219 -1.39223 -2.80332 0
M  V30 902 C 92.694 -2.24765 -3.99055 0
M  V30 903 N 94.185 -2.22458 -4.06284 0
M  V30 904 C 94.92 -2.85386 -4.97336 0
M  V30 905 N 94.416 -3.57354 -5.93523 0
M  V30 906 N 96.209 -2.74872 -4.90308 0
M  V30 907 H 88.36 -1.78952 -1.14411 0
M  V30 908 H 90.623 -0.763297 -0.562212 0
M  V30 909 H 90.329 -2.44061 -2.53234 0
M  V30 910 H 90.203 -1.0676 -3.61776 0
M  V30 911 H 92.59 -0.353136 -2.92979 0
M  V30 912 H 92.671 -1.75846 -1.85773 0
M  V30 913 H 92.315 -3.28732 -3.87167 0
M  V30 914 H 92.245 -1.85485 -4.92852 0
M  V30 915 H 94.736 -1.70119 -3.37443 0
M  V30 916 H 95.049 -4.02584 -6.59656 0
M  V30 917 H 93.394 -3.61461 -5.93608 0
M  V30 918 H 96.585 -2.18213 -4.14126 0
M  V30 919 H 96.758 -3.24199 -5.61069 0
M  V30 920 N 90.1641 1.46063 -0.591896 0
M  V30 921 C 91.4411 1.95595 -0.0137119 0
M  V30 922 C 91.8211 1.5345 1.4497 0
M  V30 923 O 91.1691 0.789543 2.14426 0
M  V30 924 C 91.3791 3.48453 -0.195373 0
M  V30 925 C 92.7271 4.24546 -0.0679765 0
M  V30 926 O 93.7511 3.55982 -0.124681 0
M  V30 927 O 92.6101 5.46467 0.0600579 0
M  V30 928 H 89.7041 0.825795 0.0446279 0
M  V30 929 H 92.2501 1.56303 -0.660859 0
M  V30 930 H 91.0221 3.72045 -1.21235 0
M  V30 931 H 90.6451 3.94597 0.487775 0
M  V30 932 N 91.6422 0.330177 1.54103 0
M  V30 933 C 92.5752 -0.575477 2.20825 0
M  V30 934 C 93.5532 -1.11064 1.18758 0
M  V30 935 O 94.7372 -1.17341 1.47524 0
M  V30 936 C 91.8642 -1.79032 2.87516 0
M  V30 937 C 90.9102 -1.38581 4.03358 0
M  V30 938 S 91.7432 -0.416911 5.33875 0
M  V30 939 C 92.8992 -1.63889 6.04062 0
M  V30 940 H 93.1322 -0.00872114 2.97299 0
M  V30 941 H 90.6652 0.114254 1.53977 0
M  V30 942 H 92.6232 -2.48734 3.2656 0
M  V30 943 H 91.2842 -2.32827 2.10832 0
M  V30 944 H 90.4772 -2.29123 4.48908 0
M  V30 945 H 90.0792 -0.768419 3.66021 0
M  V30 946 H 92.3712 -2.57536 6.26643 0
M  V30 947 H 93.3142 -1.22542 6.97416 0
M  V30 948 H 93.7222 -1.82887 5.34053 0
M  V30 949 N 93.1203 -1.57491 0.0584922 0
M  V30 950 C 94.3603 -1.94851 -0.617458 0
M  V30 951 C 94.7243 -0.937165 -1.67575 0
M  V30 952 O 95.9253 -1.19795 -2.40629 0
M  V30 953 C 94.1963 -3.36955 -1.19147 0
M  V30 954 S 95.7553 -3.96277 -1.8844 0
M  V30 955 H 92.5733 -0.681539 -0.202547 0
M  V30 956 H 95.1753 -1.95073 0.129176 0
M  V30 957 H 93.8793 -4.08355 -0.409215 0
M  V30 958 H 93.4103 -3.40245 -1.97476 0
M  V30 959 H 95.4253 -3.82099 -3.16568 0
M  V30 960 N 94.5984 0.214957 -1.56127 0
M  V30 961 C 95.8284 0.953707 -1.8327 0
M  V30 962 C 96.2364 1.78181 -0.636262 0
M  V30 963 O 95.5794 1.79191 0.404516 0
M  V30 964 C 95.6414 1.91516 -3.0424 0
M  V30 965 C 95.3054 1.27094 -4.38972 0
M  V30 966 C 96.3024 0.657575 -5.15725 0
M  V30 967 C 93.9874 1.28073 -4.85698 0
M  V30 968 C 95.9814 0.0625968 -6.37369 0
M  V30 969 C 93.6684 0.681914 -6.07283 0
M  V30 970 C 94.6664 0.0739046 -6.8296 0
M  V30 971 O 94.3544 -0.515582 -8.02245 0
M  V30 972 H 94.0864 0.284764 -0.613095 0
M  V30 973 H 96.6404 0.233283 -2.04071 0
M  V30 974 H 94.8704 2.67475 -2.79274 0
M  V30 975 H 96.5594 2.52001 -3.18198 0
M  V30 976 H 97.3254 0.642288 -4.80728 0
M  V30 977 H 93.2044 1.74337 -4.26764 0
M  V30 978 H 96.7484 -0.412593 -6.96379 0
M  V30 979 H 92.6454 0.694636 -6.41752 0
M  V30 980 H 93.4134 -0.410544 -8.1747 0
M  V30 981 N 96.0765 1.50051 0.48192 0
M  V30 982 C 97.0265 1.64512 1.5786 0
M  V30 983 C 98.0105 0.500073 1.52932 0
M  V30 984 O 99.2025 0.753964 1.60139 0
M  V30 985 C 96.3315 1.73263 2.9637 0
M  V30 986 C 95.4175 2.93409 3.06222 0
M  V30 987 N 95.8085 4.17236 2.85915 0
M  V30 988 C 94.1065 2.91742 3.37346 0
M  V30 989 C 94.8075 4.981 3.00451 0
M  V30 990 N 93.7835 4.3184 3.30174 0
M  V30 991 H 97.5855 2.57955 1.40842 0
M  V30 992 H 95.0995 1.47086 0.688439 0
M  V30 993 H 97.0965 1.81724 3.75209 0
M  V30 994 H 95.7565 0.809711 3.14442 0
M  V30 995 H 96.7675 4.46909 2.6171 0
M  V30 996 H 93.4445 2.08907 3.61475 0
M  V30 997 H 94.8345 6.06532 2.89082 0
M  V30 998 N 97.5546 -0.734337 1.39446 0
M  V30 999 C 98.7826 -1.52358 1.39981 0
M  V30 1000 C 99.1976 -1.88799 -0.0054975 0
M  V30 1001 O 98.5546 -1.54146 -0.976998 0
M  V30 1002 C 98.6056 -2.81072 2.27333 0
M  V30 1003 O 98.3266 -2.46178 3.62392 0
M  V30 1004 C 99.8276 -3.75096 2.36259 0
M  V30 1005 H 97.0476 -0.470806 0.478103 0
M  V30 1006 H 99.5916 -0.907339 1.83269 0
M  V30 1007 H 97.7466 -3.39026 1.87457 0
M  V30 1008 H 98.1606 -3.28866 4.08592 0
M  V30 1009 H 99.6346 -4.62305 3.01626 0
M  V30 1010 H 100.112 -4.16892 1.38194 0
M  V30 1011 H 100.718 -3.23061 2.76608 0
M  V30 1012 N 99.0327 -1.24633 -0.964593 0
M  V30 1013 C 99.9427 -1.05859 -2.09359 0
M  V30 1014 C 100.959 0.00148855 -1.74 0
M  V30 1015 O 102.135 -0.197346 -2.00431 0
M  V30 1016 C 99.1997 -0.668879 -3.40187 0
M  V30 1017 C 98.2607 -1.80578 -3.89474 0
M  V30 1018 C 97.4937 -1.43457 -5.14058 0
M  V30 1019 O 97.7167 -0.325775 -5.69469 0
M  V30 1020 O 96.6507 -2.2613 -5.57807 0
M  V30 1021 H 100.477 -2.00516 -2.28094 0
M  V30 1022 H 98.0617 -1.03481 -1.0776 0
M  V30 1023 H 99.9437 -0.463211 -4.18846 0
M  V30 1024 H 98.6187 0.248536 -3.22744 0
M  V30 1025 H 97.5257 -2.06623 -3.11862 0
M  V30 1026 H 98.8587 -2.70208 -4.11398 0
M  V30 1027 N 100.511 1.16574 -1.06058 0
M  V30 1028 C 101.751 1.88723 -0.78504 0
M  V30 1029 C 102.115 1.79706 0.676006 0
M  V30 1030 O 103.316 2.46757 1.06603 0
M  V30 1031 C 101.587 3.34338 -1.26304 0
M  V30 1032 S 103.146 4.24366 -1.1162 0
M  V30 1033 H 99.9638 0.651448 -0.284846 0
M  V30 1034 H 102.566 1.40732 -1.35701 0
M  V30 1035 H 101.27 3.38439 -2.32136 0
M  V30 1036 H 100.801 3.87378 -0.685719 0
M  V30 1037 H 102.816 4.96179 -0.0456539 0
M  V30 1038 N 101.989 0.842826 1.3317 0
M  V30 1039 C 103.235 0.441099 1.97945 0
M  V30 1040 C 103.568 -0.998024 1.66593 0
M  V30 1041 O 102.843 -1.69839 0.947898 0
M  V30 1042 C 103.126 0.666841 3.53872 0
M  V30 1043 C 102.979 2.15352 3.94897 0
M  V30 1044 C 104.298 0.115544 4.39948 0
M  V30 1045 H 101.417 0.161739 0.719034 0
M  V30 1046 H 104.059 1.05907 1.57746 0
M  V30 1047 H 102.209 0.140828 3.88245 0
M  V30 1048 H 103.881 2.7447 3.70761 0
M  V30 1049 H 102.124 2.63653 3.44484 0
M  V30 1050 H 102.795 2.26221 5.03516 0
M  V30 1051 H 105.271 0.565213 4.12243 0
M  V30 1052 H 104.147 0.303152 5.48062 0
M  V30 1053 H 104.408 -0.980935 4.3108 0
M  V30 1054 N 103.467 -1.45747 0.599634 0
M  V30 1055 C 104.43 -2.28917 -0.113835 0
M  V30 1056 C 105.43 -1.3933 -0.802729 0
M  V30 1057 O 106.62 -1.61534 -0.652103 0
M  V30 1058 C 103.752 -3.20152 -1.17114 0
M  V30 1059 H 104.945 -2.93478 0.617289 0
M  V30 1060 H 102.498 -1.52137 0.358327 0
M  V30 1061 H 103.233 -2.60374 -1.93329 0
M  V30 1062 H 103.018 -3.86133 -0.681468 0
M  V30 1063 H 104.508 -3.82708 -1.67105 0
M  V30 1064 N 104.945 -0.338344 -1.53925 0
M  V30 1065 C 106.361 0.0137736 -1.59594 0
M  V30 1066 C 106.561 1.49186 -1.35447 0
M  V30 1067 O 105.617 2.24987 -1.14616 0
M  V30 1068 C 106.93 -0.41773 -2.97784 0
M  V30 1069 C 108.478 -0.369633 -3.1081 0
M  V30 1070 C 108.953 -0.776524 -4.51369 0
M  V30 1071 N 110.444 -0.730506 -4.57403 0
M  V30 1072 C 111.179 -1.01736 -5.64303 0
M  V30 1073 N 110.675 -1.3721 -6.79077 0
M  V30 1074 N 112.468 -0.941942 -5.54151 0
M  V30 1075 H 104.619 -1.3012 -1.67876 0
M  V30 1076 H 106.882 -0.530082 -0.78595 0
M  V30 1077 H 106.588 -1.44811 -3.20504 0
M  V30 1078 H 106.462 0.209729 -3.76616 0
M  V30 1079 H 108.849 0.651568 -2.87817 0
M  V30 1080 H 108.93 -1.03223 -2.34049 0
M  V30 1081 H 108.574 -1.79571 -4.75096 0
M  V30 1082 H 108.504 -0.0914649 -5.26521 0
M  V30 1083 H 110.995 -0.468783 -3.74981 0
M  V30 1084 H 111.308 -1.57597 -7.5656 0
M  V30 1085 H 109.653 -1.4105 -6.80536 0
M  V30 1086 H 112.844 -0.664184 -4.63364 0
M  V30 1087 H 113.017 -1.16884 -6.37371 0
M  V30 1088 N 106.423 1.57458 -0.0668435 0
M  V30 1089 C 107.671 1.92919 0.602214 0
M  V30 1090 C 107.992 0.947215 1.70449 0
M  V30 1091 O 107.262 -0.00544117 1.95899 0
M  V30 1092 H 105.842 0.71217 0.22544 0
M  V30 1093 H 108.504 1.94508 -0.123535 0
M  V30 1094 H 107.6 2.94589 1.03073 0
M  V30 1095 N 107.901 -0.206675 1.56239 0
M  V30 1096 C 108.864 -1.23976 1.92776 0
M  V30 1097 C 109.864 -1.39041 0.807729 0
M  V30 1098 O 111.054 -1.37051 1.0753 0
M  V30 1099 C 108.186 -2.61112 2.19165 0
M  V30 1100 H 109.379 -0.927764 2.85189 0
M  V30 1101 H 106.932 -0.447718 1.4975 0
M  V30 1102 H 107.667 -2.97386 1.29352 0
M  V30 1103 H 107.452 -2.51552 3.00772 0
M  V30 1104 H 108.942 -3.35633 2.48476 0
M  V30 1105 N 109.379 -1.50304 -0.473955 0
M  V30 1106 C 110.326 -1.68959 -1.57231 0
M  V30 1107 C 111.296 -0.530899 -1.57387 0
M  V30 1108 O 112.481 -0.761133 -1.74961 0
M  V30 1109 C 109.621 -1.7871 -2.95223 0
M  V30 1110 C 108.734 -3.06061 -3.04878 0
M  V30 1111 C 107.869 -3.06626 -4.33767 0
M  V30 1112 C 106.908 -4.28443 -4.37154 0
M  V30 1113 N 106.045 -4.26763 -5.5751 0
M  V30 1114 H 110.885 -2.6273 -1.40631 0
M  V30 1115 H 108.422 -1.30241 -0.683789 0
M  V30 1116 H 110.38 -1.82344 -3.75242 0
M  V30 1117 H 109.01 -0.883806 -3.10465 0
M  V30 1118 H 108.062 -3.11911 -2.17751 0
M  V30 1119 H 109.374 -3.96039 -3.0324 0
M  V30 1120 H 108.528 -3.08973 -5.22131 0
M  V30 1121 H 107.267 -2.14473 -4.3801 0
M  V30 1122 H 106.272 -4.2631 -3.47188 0
M  V30 1123 H 107.497 -5.2182 -4.34605 0
M  V30 1124 H 105.443 -3.37462 -5.62544 0
M  V30 1125 H 105.36 -5.10507 -5.57601 0
M  V30 1126 H 106.628 -4.33253 -6.48006 0
M  V30 1127 N 110.857 0.726932 -1.39834 0
M  V30 1128 C 111.805 1.86235 -1.39353 0
M  V30 1129 C 112.799 1.67144 -0.275555 0
M  V30 1130 O 114.005 1.74387 -0.44601 0
M  V30 1131 H 110.38 0.613174 -0.43534 0
M  V30 1132 H 112.351 1.83756 -2.35109 0
M  V30 1133 C 111.1 3.23995 -1.26185 0
M  V30 1134 H 110.423 3.39285 -2.11484 0
M  V30 1135 H 111.863 4.03609 -1.29907 0
M  V30 1136 C 110.322 3.36888 0.0290018 0
M  V30 1137 O 110.852 3.89152 0.99619 0
M  V30 1138 N 109.058 2.90446 0.0947437 0
M  V30 1139 H 108.605 2.48102 -0.693035 0
M  V30 1140 H 108.563 2.99451 0.957932 0
M  V30 1141 N 112.336 1.25143 0.95797 0
M  V30 1142 C 113.299 1.05321 2.03569 0
M  V30 1143 C 114.299 0.007152 1.60798 0
M  V30 1144 O 115.489 0.24903 1.72411 0
M  V30 1145 C 112.621 0.598394 3.35607 0
M  V30 1146 H 113.814 2.00986 2.22586 0
M  V30 1147 H 111.367 1.07502 1.13459 0
M  V30 1148 H 112.102 -0.361014 3.22284 0
M  V30 1149 H 111.887 1.35351 3.67998 0
M  V30 1150 H 113.377 0.48104 4.1482 0
M  V30 1151 N 113.814 -1.1601 1.06675 0
M  V30 1152 C 114.747 -2.1947 0.625168 0
M  V30 1153 C 115.725 -1.58699 -0.354041 0
M  V30 1154 O 116.909 -1.86669 -0.262098 0
M  V30 1155 C 114.036 -3.38598 -0.0829593 0
M  V30 1156 C 113.082 -4.1787 0.853611 0
M  V30 1157 S 113.915 -4.81135 2.35094 0
M  V30 1158 C 115.071 -6.03639 1.65441 0
M  V30 1159 H 115.304 -2.56587 1.50168 0
M  V30 1160 H 112.837 -1.26862 0.880078 0
M  V30 1161 H 114.795 -4.07621 -0.485288 0
M  V30 1162 H 113.456 -2.99839 -0.935716 0
M  V30 1163 H 112.649 -5.03078 0.304755 0
M  V30 1164 H 112.251 -3.54361 1.196 0
M  V30 1165 H 114.543 -6.70632 0.962201 0
M  V30 1166 H 115.486 -6.63081 2.48454 0
M  V30 1167 H 115.894 -5.52965 1.13534 0
M  V30 1168 N 115.292 -0.849877 -1.32721 0
M  V30 1169 C 116.541 -0.447175 -1.96681 0
M  V30 1170 C 116.854 1.00135 -1.68025 0
M  V30 1171 O 118.06 1.50926 -2.25685 0
M  V30 1172 C 116.516 -0.7487 -3.52026 0
M  V30 1173 C 116.124 -2.21264 -3.89546 0
M  V30 1174 C 117.868 -0.413487 -4.22481 0
M  V30 1175 C 115.775 -2.45763 -5.37917 0
M  V30 1176 H 114.705 -0.163486 -0.736063 0
M  V30 1177 H 117.356 -1.03999 -1.51183 0
M  V30 1178 H 115.738 -0.0853727 -3.95908 0
M  V30 1179 H 116.912 -2.91736 -3.56689 0
M  V30 1180 H 115.227 -2.5119 -3.32103 0
M  V30 1181 H 117.824 -0.574017 -5.3161 0
M  V30 1182 H 118.167 0.644492 -4.11281 0
M  V30 1183 H 118.7 -1.03251 -3.84167 0
M  V30 1184 H 115.439 -3.50168 -5.54132 0
M  V30 1185 H 114.959 -1.79864 -5.72197 0
M  V30 1186 H 116.638 -2.29471 -6.0494 0
M  V30 1187 N 116.77 1.45427 -0.607355 0
M  V30 1188 C 118.016 2.0254 -0.102607 0
M  V30 1189 C 118.349 1.47478 1.26348 0
M  V30 1190 O 117.624 0.64939 1.83339 0
M  V30 1191 C 117.907 3.60044 -0.0634347 0
M  V30 1192 C 117.76 4.2544 -1.46017 0
M  V30 1193 C 119.079 4.35646 0.624514 0
M  V30 1194 H 116.198 0.73598 -0.0387607 0
M  V30 1195 H 118.84 1.73284 -0.779282 0
M  V30 1196 H 116.99 3.85101 0.512808 0
M  V30 1197 H 118.662 4.11569 -2.08347 0
M  V30 1198 H 116.905 3.83849 -2.02094 0
M  V30 1199 H 117.576 5.34342 -1.385 0
M  V30 1200 H 120.052 4.15882 0.134723 0
M  V30 1201 H 118.928 5.45376 0.621028 0
M  V30 1202 H 119.189 4.08501 1.69055 0
M  V30 1203 N 118.248 0.346503 1.53744 0
M  V30 1204 C 119.473 -0.253074 2.0585 0
M  V30 1205 C 119.898 -1.43202 1.21962 0
M  V30 1206 O 119.256 -1.79783 0.234073 0
M  V30 1207 C 119.304 -0.643193 3.54817 0
M  V30 1208 O 118.408 -1.74286 3.73762 0
M  V30 1209 H 117.749 -0.0413583 0.662711 0
M  V30 1210 H 120.279 0.501574 1.98357 0
M  V30 1211 H 120.289 -0.919526 3.97503 0
M  V30 1212 H 118.964 0.218966 4.15323 0
M  V30 1213 H 117.541 -1.46356 3.42979 0
M  V30 1214 N 119.726 -1.57421 0.075193 0
M  V30 1215 C 121.003 -1.85029 -0.634329 0
M  V30 1216 C 121.383 -0.968305 -1.87582 0
M  V30 1217 O 120.731 -0.0354749 -2.28472 0
M  V30 1218 C 120.941 -3.35286 -0.968742 0
M  V30 1219 C 122.289 -4.02875 -1.34077 0
M  V30 1220 O 123.313 -3.40051 -1.06037 0
M  V30 1221 O 122.172 -5.13691 -1.86506 0
M  V30 1222 H 119.266 -0.7645 -0.315387 0
M  V30 1223 H 121.812 -1.69366 0.106382 0
M  V30 1224 H 120.584 -3.91203 -0.0871376 0
M  V30 1225 H 120.207 -3.56223 -1.7661 0
M  V30 1226 N 121.204 0.198386 -1.56346 0
M  V30 1227 C 122.134 1.24865 -1.9731 0
M  V30 1228 C 123.115 1.47651 -0.844576 0
M  V30 1229 O 124.3 1.59444 -1.10866 0
M  V30 1230 C 121.43 2.59358 -2.30977 0
M  V30 1231 C 120.384 2.5119 -3.46537 0
M  V30 1232 C 119.71 3.89926 -3.65871 0
M  V30 1233 C 121.01 2.03977 -4.80823 0
M  V30 1234 H 122.704 0.908252 -2.85291 0
M  V30 1235 H 120.25 0.435462 -1.37258 0
M  V30 1236 H 122.203 3.33011 -2.58228 0
M  V30 1237 H 120.927 2.95132 -1.39874 0
M  V30 1238 H 119.586 1.79993 -3.19371 0
M  V30 1239 H 119.234 4.23046 -2.72105 0
M  V30 1240 H 118.934 3.85336 -4.4361 0
M  V30 1241 H 120.458 4.65205 -3.95495 0
M  V30 1242 H 121.872 2.67386 -5.07127 0
M  V30 1243 H 120.269 2.10397 -5.62008 0
M  V30 1244 H 121.339 0.992861 -4.74626 0
M  V30 1245 N 122.682 1.50554 0.465978 0
M  V30 1246 C 124.093 1.54599 1.04671 0
M  V30 1247 C 124.444 0.352488 1.93008 0
M  V30 1248 O 123.569 -0.534044 2.09707 0
M  V30 1249 C 124.164 2.80166 1.90505 0
M  V30 1250 C 122.723 2.86876 2.43678 0
M  V30 1251 C 121.87 2.48947 1.22151 0
M  V30 1252 H 124.821 1.56744 0.248384 0
M  V30 1253 H 124.842 2.62311 2.75633 0
M  V30 1254 H 124.354 3.67013 1.26186 0
M  V30 1255 H 122.455 2.04393 3.11536 0
M  V30 1256 H 122.568 3.89885 2.78436 0
M  V30 1257 H 120.932 2.01498 1.5579 0
M  V30 1258 H 121.715 3.38107 0.594866 0
M  V30 1259 N 124.16 -0.719506 1.40217 0
M  V30 1260 C 125.407 -1.47933 1.38283 0
M  V30 1261 C 125.735 -1.94493 -0.0161536 0
M  V30 1262 O 124.99 -1.68224 -0.999956 0
M  V30 1263 C 125.289 -2.72271 2.31524 0
M  V30 1264 C 124.955 -2.44496 3.78857 0
M  V30 1265 C 123.617 -2.36631 4.18998 0
M  V30 1266 C 125.969 -2.21104 4.71977 0
M  V30 1267 C 123.297 -2.03437 5.503 0
M  V30 1268 C 125.649 -1.89423 6.03574 0
M  V30 1269 C 124.313 -1.80038 6.42762 0
M  V30 1270 H 123.583 -0.541325 0.506012 0
M  V30 1271 H 126.23 -0.824502 1.72842 0
M  V30 1272 H 124.535 -3.42572 1.90137 0
M  V30 1273 H 126.232 -3.30348 2.27313 0
M  V30 1274 H 122.822 -2.51503 3.47051 0
M  V30 1275 H 127.006 -2.26139 4.41786 0
M  V30 1276 H 122.262 -1.94705 5.79569 0
M  V30 1277 H 126.436 -1.70336 6.75247 0
M  V30 1278 H 124.063 -1.54083 7.44421 0
M  V30 1279 N 125.638 -1.25649 -0.95132 0
M  V30 1280 C 126.886 -1.10375 -1.69298 0
M  V30 1281 C 127.207 0.355339 -1.91735 0
M  V30 1282 O 126.477 1.25188 -1.50681 0
M  V30 1283 H 125.057 -0.405461 -0.627384 0
M  V30 1284 H 127.719 -1.57823 -1.14358 0
M  V30 1285 H 126.815 -1.61465 -2.67087 0
M  V30 1286 N 127.117 1.15442 -1.07289 0
M  V30 1287 C 128.08 2.18358 -0.696591 0
M  V30 1288 C 129.08 1.58637 0.262837 0
M  V30 1289 O 130.27 1.74145 0.0438809 0
M  V30 1290 C 127.402 3.4089 -0.0266151 0
M  V30 1291 H 128.595 2.53162 -1.60776 0
M  V30 1292 H 126.148 1.29893 -0.869342 0
M  V30 1293 H 126.883 3.11653 0.896822 0
M  V30 1294 H 126.668 3.85495 -0.716657 0
M  V30 1295 H 128.158 4.17009 0.222028 0
M  V30 1296 N 128.595 0.856903 1.32268 0
M  V30 1297 C 129.825 0.47475 2.01071 0
M  V30 1298 C 130.233 -0.933746 1.64553 0
M  V30 1299 O 129.576 -1.62114 0.863989 0
M  V30 1300 C 129.638 0.536746 3.55471 0
M  V30 1301 C 129.302 1.90453 4.15423 0
M  V30 1302 C 130.299 2.87029 4.33486 0
M  V30 1303 C 127.984 2.20229 4.51447 0
M  V30 1304 C 129.978 4.11532 4.86744 0
M  V30 1305 C 127.665 3.44984 5.0441 0
M  V30 1306 C 128.663 4.40452 5.22007 0
M  V30 1307 O 128.351 5.62998 5.73837 0
M  V30 1308 H 128.083 0.184778 0.650256 0
M  V30 1309 H 130.637 1.15615 1.69771 0
M  V30 1310 H 128.867 -0.20152 3.86175 0
M  V30 1311 H 130.556 0.169875 4.05544 0
M  V30 1312 H 131.322 2.6533 4.05986 0
M  V30 1313 H 127.201 1.46705 4.37034 0
M  V30 1314 H 130.745 4.86056 5.00395 0
M  V30 1315 H 126.642 3.66532 5.31342 0
M  V30 1316 H 127.41 5.64987 5.92226 0
M  V30 1317 N 130.073 -1.45103 0.615059 0
M  V30 1318 C 131.005 -2.28786 -0.13762 0
M  V30 1319 C 132.018 -1.40376 -0.824525 0
M  V30 1320 O 133.207 -1.64681 -0.688662 0
M  V30 1321 C 130.307 -3.16322 -1.21628 0
M  V30 1322 C 129.48 -4.33054 -0.615039 0
M  V30 1323 C 128.539 -5.01743 -1.58556 0
M  V30 1324 O 127.565 -5.58293 -1.10895 0
M  V30 1325 N 128.767 -5.01714 -2.91998 0
M  V30 1326 H 131.532 -2.94025 0.580483 0
M  V30 1327 H 129.093 -1.55373 0.45507 0
M  V30 1328 H 131.085 -3.59139 -1.86552 0
M  V30 1329 H 129.655 -2.52943 -1.83681 0
M  V30 1330 H 128.875 -3.93627 0.21245 0
M  V30 1331 H 130.163 -5.08431 -0.193704 0
M  V30 1332 H 129.561 -4.57075 -3.33316 0
M  V30 1333 H 128.118 -5.48371 -3.52325 0
M  V30 1334 N 131.551 -0.354651 -1.53558 0
M  V30 1335 C 132.483 0.5315 -2.22952 0
M  V30 1336 C 133.496 1.05503 -1.23988 0
M  V30 1337 O 134.685 0.963279 -1.50277 0
M  V30 1338 C 131.785 1.74538 -2.90499 0
M  V30 1339 C 130.958 1.35524 -4.15875 0
M  V30 1340 C 130.017 2.42999 -4.66731 0
M  V30 1341 O 129.043 2.05844 -5.30676 0
M  V30 1342 N 130.245 3.74423 -4.43608 0
M  V30 1343 H 133.01 -0.0628615 -2.99634 0
M  V30 1344 H 130.571 -0.179302 -1.60904 0
M  V30 1345 H 132.563 2.45892 -3.21433 0
M  V30 1346 H 131.133 2.24686 -2.17336 0
M  V30 1347 H 130.353 0.471998 -3.91364 0
M  V30 1348 H 131.641 1.07071 -4.97406 0
M  V30 1349 H 131.039 4.07391 -3.92491 0
M  V30 1350 H 129.596 4.41913 -4.7912 0
M  V30 1351 N 133.029 1.57378 -0.0835403 0
M  V30 1352 C 134.254 1.98682 0.594987 0
M  V30 1353 C 134.679 0.961969 1.61641 0
M  V30 1354 O 134.037 -0.0709989 1.81161 0
M  V30 1355 C 134.085 3.38988 1.2296 0
M  V30 1356 O 133.189 3.39208 2.34546 0
M  V30 1357 H 132.53 0.646368 0.152002 0
M  V30 1358 H 135.06 2.03961 -0.161533 0
M  V30 1359 H 135.07 3.76431 1.57366 0
M  V30 1360 H 133.745 4.13107 0.481228 0
M  V30 1361 H 132.322 3.13548 2.01846 0
M  V30 1362 N 134.507 -0.190092 1.56449 0
M  V30 1363 C 135.454 -1.23557 1.94942 0
M  V30 1364 C 136.424 -1.44972 0.810696 0
M  V30 1365 O 137.609 -1.58023 1.06927 0
M  V30 1366 C 134.749 -2.57416 2.2985 0
M  V30 1367 C 133.862 -2.43537 3.5681 0
M  V30 1368 C 132.997 -3.70134 3.81017 0
M  V30 1369 C 132.036 -3.51109 5.01387 0
M  V30 1370 N 131.173 -4.6973 5.21822 0
M  V30 1371 H 136.013 -0.900304 2.84075 0
M  V30 1372 H 133.55 -0.43318 1.40577 0
M  V30 1373 H 135.508 -3.35409 2.48106 0
M  V30 1374 H 134.138 -2.88975 1.43852 0
M  V30 1375 H 133.19 -1.56816 3.46573 0
M  V30 1376 H 134.502 -2.25415 4.4496 0
M  V30 1377 H 133.656 -4.56566 3.9954 0
M  V30 1378 H 132.395 -3.91215 2.91207 0
M  V30 1379 H 131.4 -2.63063 4.82782 0
M  V30 1380 H 132.625 -3.31468 5.9271 0
M  V30 1381 H 130.571 -4.91065 4.34961 0
M  V30 1382 H 130.488 -4.54452 6.0416 0
M  V30 1383 H 131.756 -5.57499 5.44808 0
M  V30 1384 N 135.985 -1.50799 -0.457987 0
M  V30 1385 C 136.895 -1.73426 -1.57989 0
M  V30 1386 C 137.911 -0.617745 -1.62665 0
M  V30 1387 O 139.087 -0.897614 -1.80291 0
M  V30 1388 C 136.152 -1.83557 -2.94122 0
M  V30 1389 C 135.213 -3.07345 -2.99729 0
M  V30 1390 C 134.446 -3.16983 -4.29368 0
M  V30 1391 O 134.669 -2.33077 -5.20607 0
M  V30 1392 O 133.603 -4.09812 -4.40837 0
M  V30 1393 H 137.429 -2.68555 -1.41817 0
M  V30 1394 H 135.014 -1.35052 -0.638859 0
M  V30 1395 H 136.896 -1.92326 -3.74952 0
M  V30 1396 H 135.571 -0.916137 -3.10465 0
M  V30 1397 H 134.478 -3.04068 -2.1793 0
M  V30 1398 H 135.811 -3.9891 -2.88326 0
M  V30 1399 N 137.463 0.71206 -1.40597 0
M  V30 1400 C 138.395 1.83704 -1.37061 0
M  V30 1401 C 139.408 1.60453 -0.275426 0
M  V30 1402 O 140.597 1.70262 -0.53602 0
M  V30 1403 C 137.697 3.20172 -1.11099 0
M  V30 1404 C 136.87 3.7059 -2.3234 0
M  V30 1405 C 135.929 4.85681 -2.02485 0
M  V30 1406 O 134.955 4.9815 -2.75382 0
M  V30 1407 N 136.157 5.71735 -1.00497 0
M  V30 1408 H 138.922 1.87235 -2.34016 0
M  V30 1409 H 136.483 0.893739 -1.34996 0
M  V30 1410 H 138.475 3.94768 -0.891064 0
M  V30 1411 H 137.045 3.11767 -0.227989 0
M  V30 1412 H 136.265 2.87085 -2.7014 0
M  V30 1413 H 137.553 4.01011 -3.13157 0
M  V30 1414 H 136.951 5.64275 -0.401298 0
M  V30 1415 H 135.508 6.463 -0.844942 0
M  V30 1416 N 138.941 1.26152 0.944643 0
M  V30 1417 C 139.904 1.07474 2.0244 0
M  V30 1418 C 140.904 0.0242064 1.60782 0
M  V30 1419 O 142.094 0.267302 1.72137 0
M  V30 1420 C 139.226 0.633956 3.34953 0
M  V30 1421 H 140.419 2.03336 2.20442 0
M  V30 1422 H 137.972 1.087 1.12312 0
M  V30 1423 H 138.707 -0.326811 3.22649 0
M  V30 1424 H 138.492 1.39247 3.66542 0
M  V30 1425 H 139.982 0.52501 4.14287 0
M  V30 1426 N 140.419 -1.14872 1.07899 0
M  V30 1427 C 141.666 -1.85789 0.805532 0
M  V30 1428 C 141.994 -1.82649 -0.668561 0
M  V30 1429 O 141.249 -1.24858 -1.50695 0
M  V30 1430 C 141.548 -3.34223 1.26609 0
M  V30 1431 C 141.214 -3.57555 2.74709 0
M  V30 1432 C 139.876 -3.63631 3.1516 0
M  V30 1433 C 142.228 -3.66803 3.70277 0
M  V30 1434 C 139.556 -3.76473 4.49983 0
M  V30 1435 C 141.908 -3.8117 5.04869 0
M  V30 1436 C 140.572 -3.85494 5.44932 0
M  V30 1437 H 139.842 -0.679849 0.294765 0
M  V30 1438 H 142.489 -1.3572 1.35101 0
M  V30 1439 H 140.794 -3.86536 0.640103 0
M  V30 1440 H 142.491 -3.87511 1.03132 0
M  V30 1441 H 139.081 -3.5347 2.42398 0
M  V30 1442 H 143.265 -3.61404 3.40149 0
M  V30 1443 H 138.521 -3.7808 4.80484 0
M  V30 1444 H 142.695 -3.87268 5.78789 0
M  V30 1445 H 140.322 -3.95197 6.49403 0
M  V30 1446 N 141.898 -0.863906 -1.31812 0
M  V30 1447 C 142.861 -0.320212 -2.26952 0
M  V30 1448 C 143.861 0.525369 -1.51975 0
M  V30 1449 O 145.051 0.335547 -1.70938 0
M  V30 1450 C 142.183 0.545919 -3.365 0
M  V30 1451 H 143.376 -1.16004 -2.76556 0
M  V30 1452 H 140.929 -0.638995 -1.42641 0
M  V30 1453 H 141.664 1.40718 -2.92179 0
M  V30 1454 H 141.449 -0.0594674 -3.92055 0
M  V30 1455 H 142.939 0.918796 -4.07367 0
M  V30 1456 N 143.376 1.44774 -0.622745 0
M  V30 1457 C 144.339 2.29069 0.0774015 0
M  V30 1458 C 145.339 1.4059 0.780461 0
M  V30 1459 O 146.529 1.62551 0.626322 0
M  V30 1460 C 143.661 3.21974 1.12006 0
M  V30 1461 H 144.854 2.92459 -0.663901 0
M  V30 1462 H 142.407 1.51548 -0.382486 0
M  V30 1463 H 143.142 2.63417 1.89162 0
M  V30 1464 H 142.927 3.87168 0.619951 0
M  V30 1465 H 144.417 3.85318 1.60995 0
M  V30 1466 N 144.854 0.36279 1.53368 0
M  V30 1467 C 145.817 -0.472679 2.24273 0
M  V30 1468 C 146.817 -1.012 1.24961 0
M  V30 1469 O 148.007 -0.898194 1.49259 0
M  V30 1470 C 145.139 -1.66039 2.97731 0
M  V30 1471 H 146.332 0.14773 2.99536 0
M  V30 1472 H 143.885 0.114434 1.55881 0
M  V30 1473 H 144.62 -2.31896 2.26704 0
M  V30 1474 H 144.405 -1.28066 3.70596 0
M  V30 1475 H 145.895 -2.25252 3.51641 0
M  V30 1476 N 146.332 -1.57332 0.0918853 0
M  V30 1477 C 147.295 -2.12708 -0.85369 0
M  V30 1478 C 148.295 -1.05561 -1.213 0
M  V30 1479 O 149.485 -1.31461 -1.14296 0
M  V30 1480 C 146.617 -2.64503 -2.15061 0
M  V30 1481 H 147.81 -2.97573 -0.3729 0
M  V30 1482 H 145.363 -1.55509 -0.157072 0
M  V30 1483 H 146.098 -1.83149 -2.67632 0
M  V30 1484 H 145.883 -3.4284 -1.90272 0
M  V30 1485 H 147.373 -3.07351 -2.82711 0
M  V30 1486 N 147.81 0.181792 -1.56548 0
M  V30 1487 C 148.72 1.24538 -1.98815 0
M  V30 1488 C 149.736 1.49045 -0.897861 0
M  V30 1489 O 150.912 1.61399 -1.20467 0
M  V30 1490 C 147.977 2.56683 -2.33055 0
M  V30 1491 C 147.038 2.40131 -3.55859 0
M  V30 1492 C 146.271 3.65975 -3.88456 0
M  V30 1493 O 146.494 4.70711 -3.22161 0
M  V30 1494 O 145.428 3.6071 -4.81842 0
M  V30 1495 H 149.254 0.916647 -2.89536 0
M  V30 1496 H 146.839 0.387842 -1.44278 0
M  V30 1497 H 148.721 3.34655 -2.56094 0
M  V30 1498 H 147.396 2.89157 -1.45498 0
M  V30 1499 H 146.303 1.60226 -3.38051 0
M  V30 1500 H 147.636 2.12585 -4.43924 0
M  V30 1501 N 149.288 1.51039 0.449983 0
M  V30 1502 C 150.218 1.74379 1.55288 0
M  V30 1503 C 151.199 0.593236 1.5942 0
M  V30 1504 O 152.384 0.834625 1.7535 0
M  V30 1505 C 149.514 1.85728 2.93466 0
M  V30 1506 C 148.468 3.01078 3.04197 0
M  V30 1507 C 147.794 2.97595 4.44231 0
M  V30 1508 C 149.094 4.41254 2.7945 0
M  V30 1509 H 150.788 2.66725 1.36008 0
M  V30 1510 H 148.334 1.2835 0.652864 0
M  V30 1511 H 150.287 2.0064 3.70569 0
M  V30 1512 H 149.011 0.900207 3.13949 0
M  V30 1513 H 147.67 2.85851 2.29531 0
M  V30 1514 H 147.318 1.99691 4.61663 0
M  V30 1515 H 147.018 3.75046 4.52343 0
M  V30 1516 H 148.542 3.14583 5.23326 0
M  V30 1517 H 149.956 4.56897 3.46292 0
M  V30 1518 H 148.353 5.20315 2.98985 0
M  V30 1519 H 149.423 4.52164 1.75144 0
M  V30 1520 N 150.766 -0.704594 1.40972 0
M  V30 1521 C 151.699 -1.82861 1.36518 0
M  V30 1522 C 152.677 -1.6091 0.23382 0
M  V30 1523 O 153.861 -1.83778 0.419271 0
M  V30 1524 C 150.988 -3.1939 1.12729 0
M  V30 1525 C 150.034 -3.60148 2.28463 0
M  V30 1526 S 150.867 -3.65994 3.90907 0
M  V30 1527 C 152.023 -5.05264 3.69403 0
M  V30 1528 H 152.256 -1.86361 2.3164 0
M  V30 1529 H 149.789 -0.872439 1.27389 0
M  V30 1530 H 151.747 -3.98211 0.996893 0
M  V30 1531 H 150.408 -3.1351 0.192427 0
M  V30 1532 H 149.601 -4.59309 2.07489 0
M  V30 1533 H 149.203 -2.88612 2.37863 0
M  V30 1534 H 151.495 -5.92504 3.28551 0
M  V30 1535 H 152.438 -5.31278 4.68134 0
M  V30 1536 H 152.846 -4.76377 3.02862 0
M  V30 1537 N 152.244 -1.26651 -0.937939 0
M  V30 1538 C 153.207 -1.08546 -2.01867 0
M  V30 1539 C 154.207 -0.0327327 -1.60767 0
M  V30 1540 O 155.397 -0.276427 -1.71993 0
M  V30 1541 C 152.529 -0.651711 -3.34613 0
M  V30 1542 H 153.722 -2.04502 -2.1936 0
M  V30 1543 H 151.275 -1.09294 -1.11734 0
M  V30 1544 H 152.01 0.309696 -3.22818 0
M  V30 1545 H 151.795 -1.41189 -3.65798 0
M  V30 1546 H 153.285 -0.546973 -4.14002 0
M  V30 1547 N 153.722 1.14298 -1.08507 0
M  V30 1548 C 154.685 2.17607 -0.719711 0
M  V30 1549 C 155.685 1.58907 0.245997 0
M  V30 1550 O 156.875 1.74181 0.0254081 0
M  V30 1551 C 154.007 3.40842 -0.0627695 0
M  V30 1552 H 155.2 2.51443 -1.63452 0
M  V30 1553 H 152.753 1.28963 -0.88307 0
M  V30 1554 H 153.488 3.12587 0.863716 0
M  V30 1555 H 153.273 3.84713 -0.757504 0
M  V30 1556 H 154.763 4.17221 0.177786 0
M  V30 1557 N 155.201 0.870884 1.31352 0
M  V30 1558 C 156.449 0.48132 1.96285 0
M  V30 1559 C 156.77 -0.969813 1.69173 0
M  V30 1560 O 156.04 -1.67998 1.00764 0
M  V30 1561 H 154.62 0.175002 0.726212 0
M  V30 1562 H 157.282 1.11087 1.60143 0
M  V30 1563 H 156.378 0.639825 3.05471 0
M  V30 1564 N 156.679 -1.44442 0.630414 0
M  V30 1565 C 157.642 -2.29107 -0.0652523 0
M  V30 1566 C 158.642 -1.41002 -0.772995 0
M  V30 1567 O 159.832 -1.62881 -0.617692 0
M  V30 1568 C 156.964 -3.22564 -1.10296 0
M  V30 1569 H 158.157 -2.92103 0.679401 0
M  V30 1570 H 155.71 -1.51343 0.390517 0
M  V30 1571 H 156.445 -2.64416 -1.87762 0
M  V30 1572 H 156.23 -3.87491 -0.59941 0
M  V30 1573 H 157.72 -3.86167 -1.5895 0
M  V30 1574 N 158.157 -0.370918 -1.53173 0
M  V30 1575 C 159.107 0.489588 -2.22681 0
M  V30 1576 C 160.091 1.04442 -1.22395 0
M  V30 1577 O 161.283 0.973578 -1.47819 0
M  V30 1578 C 158.412 1.626 -3.02351 0
M  V30 1579 C 157.498 1.08379 -4.10018 0
M  V30 1580 N 157.889 0.265004 -5.05105 0
M  V30 1581 C 156.187 1.35809 -4.2482 0
M  V30 1582 C 156.888 -0.0324755 -5.81691 0
M  V30 1583 N 155.864 0.566581 -5.40639 0
M  V30 1584 H 159.666 -0.142729 -2.93553 0
M  V30 1585 H 157.18 -0.179221 -1.61408 0
M  V30 1586 H 159.177 2.2547 -3.50669 0
M  V30 1587 H 157.837 2.26132 -2.33011 0
M  V30 1588 H 158.848 -0.0962352 -5.17811 0
M  V30 1589 H 155.525 1.9958 -3.66707 0
M  V30 1590 H 156.915 -0.69473 -6.68299 0
M  V30 1591 N 159.635 1.57281 -0.100228 0
M  V30 1592 C 160.568 2.09976 0.893612 0
M  V30 1593 C 161.546 1.01155 1.27304 0
M  V30 1594 O 162.73 1.28687 1.37739 0
M  V30 1595 C 159.857 2.58098 2.19324 0
M  V30 1596 C 158.903 3.78626 1.96328 0
M  V30 1597 S 159.736 5.21959 1.19662 0
M  V30 1598 C 160.892 5.73435 2.50844 0
M  V30 1599 H 161.125 2.93946 0.44534 0
M  V30 1600 H 158.658 1.53985 0.113167 0
M  V30 1601 H 160.616 2.8648 2.94005 0
M  V30 1602 H 159.277 1.74344 2.61272 0
M  V30 1603 H 158.47 4.10382 2.92579 0
M  V30 1604 H 158.072 3.50763 1.29775 0
M  V30 1605 H 160.364 5.82015 3.46792 0
M  V30 1606 H 161.307 6.7185 2.23659 0
M  V30 1607 H 161.715 5.01395 2.59352 0
M  V30 1608 N 161.113 -0.173488 1.56642 0
M  V30 1609 C 162.359 -0.891784 1.8214 0
M  V30 1610 C 162.692 -1.8199 0.677736 0
M  V30 1611 O 161.967 -1.91842 -0.320446 0
M  V30 1612 C 162.25 -1.68933 3.18015 0
M  V30 1613 C 162.103 -0.784487 4.42906 0
M  V30 1614 C 163.422 -2.65748 3.50808 0
M  V30 1615 H 160.541 -0.322761 0.662567 0
M  V30 1616 H 163.183 -0.158095 1.89341 0
M  V30 1617 H 161.333 -2.31482 3.12007 0
M  V30 1618 H 163.005 -0.172046 4.60979 0
M  V30 1619 H 161.248 -0.0924117 4.33702 0
M  V30 1620 H 161.919 -1.37799 5.34524 0
M  V30 1621 H 164.395 -2.13327 3.57255 0
M  V30 1622 H 163.271 -3.18619 4.4696 0
M  V30 1623 H 163.532 -3.45842 2.75401 0
M  V30 1624 N 162.591 -1.51276 -0.441967 0
M  V30 1625 C 163.538 -1.72256 -1.53612 0
M  V30 1626 C 164.508 -0.564164 -1.56225 0
M  V30 1627 O 165.693 -0.798074 -1.73307 0
M  V30 1628 C 162.833 -1.84932 -2.91366 0
M  V30 1629 C 161.946 -3.12459 -2.98317 0
M  V30 1630 C 161.081 -3.15758 -4.27166 0
M  V30 1631 C 160.12 -4.37619 -4.27967 0
M  V30 1632 N 159.257 -4.38493 -5.48333 0
M  V30 1633 H 164.097 -2.65654 -1.35026 0
M  V30 1634 H 161.634 -1.31662 -0.656009 0
M  V30 1635 H 163.592 -1.90263 -3.7129 0
M  V30 1636 H 162.222 -0.949461 -3.08521 0
M  V30 1637 H 161.274 -3.1646 -2.11086 0
M  V30 1638 H 162.586 -4.02382 -2.94771 0
M  V30 1639 H 161.74 -3.19979 -5.15459 0
M  V30 1640 H 160.479 -2.23715 -4.33362 0
M  V30 1641 H 159.484 -4.33579 -3.38067 0
M  V30 1642 H 160.709 -5.30921 -4.23438 0
M  V30 1643 H 158.655 -3.49318 -5.55259 0
M  V30 1644 H 158.572 -5.22219 -5.46647 0
M  V30 1645 H 159.84 -4.469 -6.38671 0
M  V30 1646 N 164.069 0.697108 -1.41344 0
M  V30 1647 C 164.999 1.82353 -1.45841 0
M  V30 1648 C 165.98 1.67115 -0.317247 0
M  V30 1649 O 167.165 1.86871 -0.528474 0
M  V30 1650 C 164.295 3.20476 -1.33838 0
M  V30 1651 C 163.249 3.50415 -2.4575 0
M  V30 1652 C 162.575 4.87878 -2.18813 0
M  V30 1653 C 163.875 3.49546 -3.88091 0
M  V30 1654 H 165.569 1.78846 -2.40113 0
M  V30 1655 H 163.115 0.859028 -1.15571 0
M  V30 1656 H 165.068 3.98988 -1.35596 0
M  V30 1657 H 163.792 3.24604 -0.360498 0
M  V30 1658 H 162.451 2.74253 -2.43271 0
M  V30 1659 H 162.099 4.8863 -1.19371 0
M  V30 1660 H 161.799 5.08875 -2.93803 0
M  V30 1661 H 163.323 5.68702 -2.22284 0
M  V30 1662 H 164.737 4.18066 -3.92293 0
M  V30 1663 H 163.134 3.82075 -4.62751 0
M  V30 1664 H 164.204 2.48552 -4.16353 0
M  V30 1665 N 165.547 1.27147 0.931209 0
M  V30 1666 C 166.457 1.11372 2.06478 0
M  V30 1667 C 167.473 0.044645 1.73943 0
M  V30 1668 O 168.649 0.250417 1.99837 0
M  V30 1669 C 165.714 0.758838 3.38294 0
M  V30 1670 C 164.775 1.90841 3.84549 0
M  V30 1671 C 164.008 1.57036 5.10074 0
M  V30 1672 O 164.231 0.476645 5.68405 0
M  V30 1673 O 163.165 2.40839 5.51616 0
M  V30 1674 H 166.991 2.06493 2.22698 0
M  V30 1675 H 164.576 1.06301 1.04978 0
M  V30 1676 H 166.458 0.574098 4.17471 0
M  V30 1677 H 165.133 -0.162879 3.2329 0
M  V30 1678 H 164.04 2.14819 3.06274 0
M  V30 1679 H 165.373 2.81021 4.04089 0
M  V30 1680 N 167.025 -1.13721 1.09112 0
M  V30 1681 C 168.273 -1.84559 0.823562 0
M  V30 1682 C 168.594 -1.83754 -0.652658 0
M  V30 1683 O 167.864 -1.29102 -1.47342 0
M  V30 1684 H 166.444 -0.683376 0.301673 0
M  V30 1685 H 169.106 -1.37771 1.37859 0
M  V30 1686 H 168.202 -2.8917 1.17419 0
M  V30 1687 N 168.503 -0.877838 -1.30888 0
M  V30 1688 C 169.751 -0.491723 -1.96027 0
M  V30 1689 C 170.072 0.960827 -1.69685 0
M  V30 1690 O 169.342 1.67462 -1.01654 0
M  V30 1691 H 167.922 -0.17885 -0.725273 0
M  V30 1692 H 170.584 -1.11935 -1.59551 0
M  V30 1693 H 169.68 -0.656016 -3.05128 0
M  V30 1694 N 169.982 1.44106 -0.638065 0
M  V30 1695 C 171.228 2.02277 -0.145546 0
M  V30 1696 C 171.561 1.50125 1.23191 0
M  V30 1697 O 170.836 0.688133 1.8192 0
M  V30 1698 C 171.119 3.59829 -0.139791 0
M  V30 1699 C 170.972 4.22247 -1.55008 0
M  V30 1700 C 172.291 4.36873 0.531966 0
M  V30 1701 H 169.41 0.734992 -0.0543632 0
M  V30 1702 H 172.052 1.71592 -0.815863 0
M  V30 1703 H 170.202 3.86102 0.431007 0
M  V30 1704 H 171.874 4.07057 -2.1703 0
M  V30 1705 H 170.117 3.79476 -2.10191 0
M  V30 1706 H 170.788 5.31284 -1.49804 0
M  V30 1707 H 173.264 4.16074 0.0464781 0
M  V30 1708 H 172.14 5.4657 0.505206 0
M  V30 1709 H 172.401 4.11995 1.60352 0
M  V30 1710 N 171.46 0.379036 1.52974 0
M  V30 1711 C 172.706 -0.199244 2.02422 0
M  V30 1712 C 173.061 -1.4532 1.26095 0
M  V30 1713 O 172.354 -1.88377 0.34996 0
M  V30 1714 C 172.548 -0.53096 3.53434 0
M  V30 1715 C 172.377 0.689298 4.44386 0
M  V30 1716 C 171.147 1.20546 4.9071 0
M  V30 1717 C 173.345 1.55856 4.90116 0
M  V30 1718 N 171.327 2.38434 5.65705 0
M  V30 1719 C 172.698 2.58396 5.63588 0
M  V30 1720 C 174.753 1.57986 4.7217 0
M  V30 1721 C 173.456 3.62939 6.21022 0
M  V30 1722 C 175.482 2.6143 5.30479 0
M  V30 1723 C 174.844 3.62693 6.03849 0
M  V30 1724 H 170.943 -0.0352671 0.781204 0
M  V30 1725 H 173.527 0.526614 1.87443 0
M  V30 1726 H 171.698 -1.22588 3.68547 0
M  V30 1727 H 173.43 -1.0955 3.89591 0
M  V30 1728 H 170.185 0.768022 4.67331 0
M  V30 1729 H 170.609 2.98055 6.07859 0
M  V30 1730 H 175.251 0.810475 4.14959 0
M  V30 1731 H 172.969 4.40751 6.77321 0
M  V30 1732 H 176.555 2.63949 5.18481 0
M  V30 1733 H 175.435 4.41424 6.48163 0
M  V30 1734 N 172.938 -1.57226 0.108567 0
M  V30 1735 C 173.871 -2.10447 -0.882464 0
M  V30 1736 C 174.849 -1.01829 -1.26766 0
M  V30 1737 O 176.033 -1.29415 -1.37054 0
M  V30 1738 C 173.16 -2.59258 -2.17952 0
M  V30 1739 C 172.206 -3.79662 -1.94318 0
M  V30 1740 S 173.039 -5.22586 -1.16892 0
M  V30 1741 C 174.195 -5.74758 -2.47799 0
M  V30 1742 H 174.428 -2.94178 -0.429745 0
M  V30 1743 H 171.961 -1.54043 -0.105 0
M  V30 1744 H 173.919 -2.88036 -2.92482 0
M  V30 1745 H 172.58 -1.75728 -2.60343 0
M  V30 1746 H 171.773 -4.11928 -2.90399 0
M  V30 1747 H 171.375 -3.51446 -1.27913 0
M  V30 1748 H 173.667 -5.83846 -3.43701 0
M  V30 1749 H 174.61 -6.73027 -2.20093 0
M  V30 1750 H 175.018 -5.02763 -2.56689 0
M  V30 1751 N 174.416 0.165178 -1.56732 0
M  V30 1752 C 175.379 1.18822 -1.95995 0
M  V30 1753 C 176.379 1.3685 -0.84431 0
M  V30 1754 O 177.569 1.34152 -1.11126 0
M  V30 1755 C 174.701 2.5521 -2.26011 0
M  V30 1756 H 175.894 0.851825 -2.87548 0
M  V30 1757 H 173.447 0.407857 -1.50885 0
M  V30 1758 H 174.182 2.93852 -1.37191 0
M  V30 1759 H 173.967 2.43489 -3.07336 0
M  V30 1760 H 175.457 3.28927 -2.57288 0
M  V30 1761 N 175.894 1.51508 0.433938 0
M  V30 1762 C 176.804 1.75917 1.5521 0
M  V30 1763 C 177.82 0.643545 1.61662 0
M  V30 1764 O 178.996 0.926183 1.7884 0
M  V30 1765 C 176.061 1.88213 2.91164 0
M  V30 1766 C 175.122 3.12074 2.94802 0
M  V30 1767 C 174.355 3.23774 4.24271 0
M  V30 1768 O 174.578 2.4133 5.16833 0
M  V30 1769 O 173.512 4.16774 4.34262 0
M  V30 1770 H 177.338 2.70777 1.37527 0
M  V30 1771 H 174.923 1.36051 0.617293 0
M  V30 1772 H 176.805 1.98267 3.71845 0
M  V30 1773 H 175.48 0.965413 3.08968 0
M  V30 1774 H 174.387 3.07497 2.13065 0
M  V30 1775 H 175.72 4.03446 2.81943 0
M  V30 1776 N 177.372 -0.689602 1.41712 0
M  V30 1777 C 178.6 -1.47827 1.44758 0
M  V30 1778 C 179.015 -1.88721 0.0545703 0
M  V30 1779 O 178.372 -1.57176 -0.927463 0
M  V30 1780 C 178.423 -2.73698 2.3616 0
M  V30 1781 O 178.144 -2.34524 3.7004 0
M  V30 1782 C 179.645 -3.67389 2.48072 0
M  V30 1783 H 176.865 -0.455357 0.49284 0
M  V30 1784 H 179.409 -0.848574 1.86063 0
M  V30 1785 H 177.564 -3.32891 1.98148 0
M  V30 1786 H 177.978 -3.15701 4.18847 0
M  V30 1787 H 179.452 -4.52475 3.16181 0
M  V30 1788 H 179.929 -4.12284 1.51388 0
M  V30 1789 H 180.535 -3.14097 2.86746 0
M  V30 1790 N 178.85 -1.27639 -0.924453 0
M  V30 1791 C 180.078 -1.16989 -1.70649 0
M  V30 1792 C 180.493 0.272869 -1.86818 0
M  V30 1793 O 179.85 1.18549 -1.38753 0
M  V30 1794 C 179.901 -1.85229 -3.10439 0
M  V30 1795 O 179.622 -3.23868 -2.95028 0
M  V30 1796 C 181.123 -1.80746 -4.04779 0
M  V30 1797 H 178.343 -0.406595 -0.53378 0
M  V30 1798 H 180.887 -1.68569 -1.15778 0
M  V30 1799 H 179.042 -1.37545 -3.6216 0
M  V30 1800 H 179.456 -3.57889 -3.83426 0
M  V30 1801 H 180.93 -2.33101 -5.00368 0
M  V30 1802 H 181.407 -0.777499 -4.32263 0
M  V30 1803 H 182.013 -2.28059 -3.58984 0
M  V30 1804 N 180.328 1.1314 -1.09713 0
M  V30 1805 C 181.238 2.22242 -0.751367 0
M  V30 1806 C 182.254 1.72224 0.247938 0
M  V30 1807 O 183.43 2.01205 0.0885463 0
M  V30 1808 C 180.495 3.46231 -0.180274 0
M  V30 1809 C 179.556 4.11125 -1.2359 0
M  V30 1810 C 178.789 5.29195 -0.691966 0
M  V30 1811 O 179.012 5.68342 0.48414 0
M  V30 1812 O 177.946 5.84214 -1.44838 0
M  V30 1813 H 181.772 2.54197 -1.66186 0
M  V30 1814 H 179.357 1.21331 -0.871735 0
M  V30 1815 H 181.239 4.21185 0.134739 0
M  V30 1816 H 179.914 3.1597 0.703185 0
M  V30 1817 H 178.821 3.37985 -1.60366 0
M  V30 1818 H 180.154 4.45524 -2.09211 0
M  V30 1819 N 181.806 0.884767 1.30421 0
M  V30 1820 C 183.053 0.503105 1.96151 0
M  V30 1821 C 183.381 -0.947676 1.69851 0
M  V30 1822 O 182.636 -1.68467 0.995861 0
M  V30 1823 C 182.935 0.724318 3.49983 0
M  V30 1824 C 182.601 2.15015 3.96332 0
M  V30 1825 C 181.263 2.54005 4.08699 0
M  V30 1826 C 183.615 3.07936 4.20505 0
M  V30 1827 C 180.943 3.85128 4.42599 0
M  V30 1828 C 183.295 4.3859 4.55874 0
M  V30 1829 C 181.959 4.77474 4.66449 0
M  V30 1830 H 181.229 0.184099 0.717766 0
M  V30 1831 H 183.876 1.12058 1.55291 0
M  V30 1832 H 182.181 0.0238086 3.91793 0
M  V30 1833 H 183.878 0.408617 3.98913 0
M  V30 1834 H 180.468 1.8375 3.87213 0
M  V30 1835 H 184.652 2.79033 4.10431 0
M  V30 1836 H 179.908 4.14996 4.48986 0
M  V30 1837 H 184.082 5.10629 4.7353 0
M  V30 1838 H 181.709 5.79115 4.92473 0
M  V30 1839 N 183.284 -1.43765 0.645699 0
M  V30 1840 C 184.214 -2.33471 -0.0370477 0
M  V30 1841 C 185.195 -1.49042 -0.819779 0
M  V30 1842 O 186.38 -1.77726 -0.782758 0
M  V30 1843 C 183.51 -3.32311 -1.0093 0
M  V30 1844 C 182.464 -4.2667 -0.337201 0
M  V30 1845 C 181.79 -5.1549 -1.42037 0
M  V30 1846 C 183.09 -5.16657 0.765706 0
M  V30 1847 H 184.784 -2.90809 0.712069 0
M  V30 1848 H 182.33 -1.39834 0.343876 0
M  V30 1849 H 184.283 -3.9396 -1.49578 0
M  V30 1850 H 183.007 -2.73213 -1.78948 0
M  V30 1851 H 181.666 -3.66374 0.128771 0
M  V30 1852 H 181.314 -4.52735 -2.1918 0
M  V30 1853 H 181.014 -5.79438 -0.975966 0
M  V30 1854 H 182.538 -5.80012 -1.90838 0
M  V30 1855 H 183.952 -5.72158 0.361702 0
M  V30 1856 H 182.349 -5.89286 1.13413 0
M  V30 1857 H 183.419 -4.56796 1.62683 0
M  V30 1858 N 184.763 -0.387143 -1.52771 0
M  V30 1859 C 185.695 0.484089 -2.2403 0
M  V30 1860 C 186.708 1.02849 -1.26198 0
M  V30 1861 O 187.897 0.931186 -1.52286 0
M  V30 1862 C 184.997 1.68337 -2.94136 0
M  V30 1863 C 184.17 1.26672 -4.18656 0
M  V30 1864 C 183.229 2.33045 -4.7178 0
M  V30 1865 O 182.255 1.94541 -5.34923 0
M  V30 1866 N 183.457 3.64929 -4.5145 0
M  V30 1867 H 186.222 -0.126404 -2.99433 0
M  V30 1868 H 183.783 -0.213392 -1.60488 0
M  V30 1869 H 185.775 2.39019 -3.26577 0
M  V30 1870 H 184.345 2.20025 -2.22053 0
M  V30 1871 H 183.565 0.388878 -3.92277 0
M  V30 1872 H 184.853 0.964964 -4.99566 0
M  V30 1873 H 184.251 3.98974 -4.01044 0
M  V30 1874 H 182.808 4.31651 -4.88386 0
M  V30 1875 N 186.241 1.57166 -0.116904 0
M  V30 1876 C 187.174 2.10912 0.871291 0
M  V30 1877 C 188.152 1.025 1.26224 0
M  V30 1878 O 189.336 1.3014 1.36366 0
M  V30 1879 C 186.463 2.6041 2.16574 0
M  V30 1880 C 185.509 3.80687 1.92302 0
M  V30 1881 S 186.342 5.23199 1.14119 0
M  V30 1882 C 187.498 5.76064 2.44748 0
M  V30 1883 H 187.731 2.94401 0.414138 0
M  V30 1884 H 185.264 1.54096 0.096829 0
M  V30 1885 H 187.222 2.89583 2.9095 0
M  V30 1886 H 185.883 1.77106 2.59408 0
M  V30 1887 H 185.076 4.13462 2.8821 0
M  V30 1888 H 184.678 3.5212 1.26047 0
M  V30 1889 H 186.97 5.8566 3.406 0
M  V30 1890 H 187.913 6.74184 2.16521 0
M  V30 1891 H 188.321 5.04117 2.54019 0
M  V30 1892 N 187.719 -0.156864 1.56817 0
M  V30 1893 C 189.135 -0.50916 1.5126 0
M  V30 1894 C 189.335 -1.83897 0.823658 0
M  V30 1895 O 188.391 -2.49469 0.390055 0
M  V30 1896 C 189.704 -0.52857 2.96018 0
M  V30 1897 C 191.252 -0.614771 3.06903 0
M  V30 1898 C 191.727 -0.664938 4.53147 0
M  V30 1899 N 193.218 -0.727433 4.57452 0
M  V30 1900 C 193.953 -0.787067 5.67973 0
M  V30 1901 N 193.449 -0.806649 6.88088 0
M  V30 1902 N 195.242 -0.827195 5.5598 0
M  V30 1903 H 187.393 0.714935 2.00006 0
M  V30 1904 H 189.656 0.259526 0.911784 0
M  V30 1905 H 189.362 0.380154 3.49639 0
M  V30 1906 H 189.236 -1.36998 3.51442 0
M  V30 1907 H 191.623 -1.51392 2.53307 0
M  V30 1908 H 191.704 0.253597 2.5454 0
M  V30 1909 H 191.348 0.230011 5.07379 0
M  V30 1910 H 191.278 -1.54966 5.03282 0
M  V30 1911 H 193.769 -0.719998 3.70978 0
M  V30 1912 H 194.082 -0.853727 7.6807 0
M  V30 1913 H 192.427 -0.774687 6.90669 0
M  V30 1914 H 195.618 -0.808998 4.61056 0
M  V30 1915 H 195.791 -0.870206 6.4213 0
M  V30 1916 N 189.197 -1.51736 -0.425897 0
M  V30 1917 C 190.445 -1.64644 -1.17204 0
M  V30 1918 C 190.766 -0.370486 -1.91448 0
M  V30 1919 O 190.036 0.614088 -1.86026 0
M  V30 1920 H 188.616 -0.606819 -0.435638 0
M  V30 1921 H 191.278 -1.88713 -0.487177 0
M  V30 1922 H 190.374 -2.47958 -1.89534 0
M  V30 1923 N 190.675 0.682077 -1.42076 0
M  V30 1924 C 191.924 1.43786 -1.41451 0
M  V30 1925 C 192.237 1.95574 -0.0317074 0
M  V30 1926 O 193.443 2.71326 0.0971462 0
M  V30 1927 C 191.899 2.60071 -2.48779 0
M  V30 1928 C 191.507 2.15013 -3.93031 0
M  V30 1929 C 193.251 3.37626 -2.57311 0
M  V30 1930 C 191.158 3.28336 -4.91883 0
M  V30 1931 H 190.088 0.540143 -0.526082 0
M  V30 1932 H 192.739 0.739157 -1.67955 0
M  V30 1933 H 191.121 3.32275 -2.15429 0
M  V30 1934 H 192.295 1.5001 -4.35699 0
M  V30 1935 H 190.61 1.50416 -3.88284 0
M  V30 1936 H 193.207 4.22012 -3.28345 0
M  V30 1937 H 193.55 3.83727 -1.61429 0
M  V30 1938 H 194.083 2.72488 -2.89819 0
M  V30 1939 H 190.822 2.87234 -5.89217 0
M  V30 1940 H 190.342 3.92145 -4.53853 0
M  V30 1941 H 192.021 3.93913 -5.13265 0
M  V30 1942 N 192.153 1.28127 0.917671 0
M  V30 1943 C 193.564 1.13622 1.48145 0
M  V30 1944 C 193.915 -0.275207 1.9426 0
M  V30 1945 O 193.04 -1.1691 1.82102 0
M  V30 1946 C 193.635 2.05648 2.69248 0
M  V30 1947 C 192.194 1.95219 3.21818 0
M  V30 1948 C 191.341 1.97618 1.94532 0
M  V30 1949 H 194.292 1.40874 0.730772 0
M  V30 1950 H 194.313 1.61818 3.44377 0
M  V30 1951 H 193.825 3.08365 2.35653 0
M  V30 1952 H 191.926 0.955244 3.60147 0
M  V30 1953 H 192.039 2.81976 3.87333 0
M  V30 1954 H 190.403 1.41973 2.11461 0
M  V30 1955 H 191.186 3.02007 1.63238 0
M  V30 1956 N 193.631 -1.12557 1.10312 0
M  V30 1957 C 194.877 -1.84311 0.846011 0
M  V30 1958 C 195.21 -1.83805 -0.626859 0
M  V30 1959 O 194.485 -1.28268 -1.46211 0
M  V30 1960 C 194.768 -3.32048 1.39341 0
M  V30 1961 C 194.621 -3.41016 2.93305 0
M  V30 1962 C 195.94 -4.27764 1.03468 0
M  V30 1963 H 193.059 -0.669192 0.30879 0
M  V30 1964 H 195.701 -1.32057 1.36605 0
M  V30 1965 H 193.851 -3.76678 0.951087 0
M  V30 1966 H 195.523 -3.05031 3.46055 0
M  V30 1967 H 193.766 -2.81603 3.29973 0
M  V30 1968 H 194.437 -4.44948 3.26689 0
M  V30 1969 H 196.913 -3.91253 1.41633 0
M  V30 1970 H 195.789 -5.29549 1.44463 0
M  V30 1971 H 196.05 -4.42064 -0.0560404 0
M  V30 1972 N 195.109 -0.891671 -1.2995 0
M  V30 1973 C 196.349 -0.520296 -1.97667 0
M  V30 1974 C 196.713 0.914797 -1.68806 0
M  V30 1975 O 197.914 1.39263 -2.29911 0
M  V30 1976 C 196.185 -0.795222 -3.48441 0
M  V30 1977 S 197.744 -0.526953 -4.35624 0
M  V30 1978 H 194.562 -0.19333 -0.684211 0
M  V30 1979 H 197.164 -1.15238 -1.57926 0
M  V30 1980 H 195.868 -1.83805 -3.66938 0
M  V30 1981 H 195.399 -0.15095 -3.9311 0
M  V30 1982 H 197.414 0.631533 -4.92165 0
M  V30 1983 N 196.587 1.43421 -0.653314 0
M  V30 1984 C 197.55 2.29182 0.0287951 0
M  V30 1985 C 198.55 1.42213 0.750465 0
M  V30 1986 O 199.74 1.63843 0.591701 0
M  V30 1987 C 196.872 3.24278 1.05151 0
M  V30 1988 H 198.065 2.90985 -0.725786 0
M  V30 1989 H 195.618 1.50702 -0.414545 0
M  V30 1990 H 196.353 2.6737 1.83532 0
M  V30 1991 H 196.138 3.88396 0.537687 0
M  V30 1992 H 197.628 3.88647 1.52786 0
M  V30 1993 N 198.065 0.39524 1.52563 0
M  V30 1994 C 199.015 -0.4541 2.23432 0
M  V30 1995 C 199.999 -1.02482 1.24042 0
M  V30 1996 O 201.191 -0.949938 1.49349 0
M  V30 1997 C 198.32 -1.57769 3.049 0
M  V30 1998 C 197.406 -1.01842 4.1169 0
M  V30 1999 N 197.797 -0.184613 5.05463 0
M  V30 2000 C 196.095 -1.29033 4.26927 0
M  V30 2001 C 196.796 0.125013 5.81566 0
M  V30 2002 N 195.772 -0.480498 5.41472 0
M  V30 2003 H 199.574 0.189413 2.93289 0
M  V30 2004 H 197.088 0.204877 1.61102 0
M  V30 2005 H 199.085 -2.19862 3.54212 0
M  V30 2006 H 197.745 -2.22397 2.36579 0
M  V30 2007 H 198.756 0.178602 5.17592 0
M  V30 2008 H 195.433 -1.93721 3.69836 0
M  V30 2009 H 196.823 0.800962 6.67109 0
M  V30 2010 N 199.544 -1.57102 0.125237 0
M  V30 2011 C 200.793 -1.94582 -0.531095 0
M  V30 2012 C 201.106 -1.01126 -1.6743 0
M  V30 2013 O 202.312 -1.28097 -2.39381 0
M  V30 2014 C 200.768 -3.45839 -0.996164 0
M  V30 2015 C 200.376 -4.47842 0.118926 0
M  V30 2016 C 202.12 -3.92227 -1.62352 0
M  V30 2017 C 200.027 -5.90284 -0.363192 0
M  V30 2018 H 198.957 -0.726391 -0.20217 0
M  V30 2019 H 201.608 -1.82339 0.206092 0
M  V30 2020 H 199.99 -3.53338 -1.78796 0
M  V30 2021 H 201.164 -4.52018 0.895358 0
M  V30 2022 H 199.479 -4.11243 0.653324 0
M  V30 2023 H 202.076 -4.96069 -1.99548 0
M  V30 2024 H 202.419 -3.32552 -2.50429 0
M  V30 2025 H 202.952 -3.87554 -0.897019 0
M  V30 2026 H 199.691 -6.53728 0.481679 0
M  V30 2027 H 199.211 -5.89515 -1.10597 0
M  V30 2028 H 200.89 -6.41752 -0.822377 0
M  V30 2029 N 201.022 0.148545 -1.56898 0
M  V30 2030 C 202.27 0.859717 -1.82902 0
M  V30 2031 C 202.591 1.81775 -0.70588 0
M  V30 2032 O 201.861 1.93994 0.272586 0
M  V30 2033 H 200.441 0.320469 -0.674766 0
M  V30 2034 H 203.103 0.142918 -1.94375 0
M  V30 2035 H 202.199 1.4229 -2.77777 0
M  V30 2036 N 202.5 1.5196 0.417844 0
M  V30 2037 C 203.43 1.77634 1.51554 0
M  V30 2038 C 204.411 0.626918 1.58126 0
M  V30 2039 O 205.596 0.871632 1.7354 0
M  V30 2040 C 202.726 1.91911 2.8946 0
M  V30 2041 C 201.68 3.07463 2.97743 0
M  V30 2042 C 201.006 3.06951 4.37819 0
M  V30 2043 C 202.306 4.47082 2.70027 0
M  V30 2044 H 204 2.6955 1.3032 0
M  V30 2045 H 201.546 1.29706 0.625492 0
M  V30 2046 H 203.499 2.08455 3.6623 0
M  V30 2047 H 202.223 0.966598 3.11969 0
M  V30 2048 H 200.882 2.90656 2.23416 0
M  V30 2049 H 200.53 2.09438 4.57323 0
M  V30 2050 H 200.23 3.84556 4.44286 0
M  V30 2051 H 201.754 3.25613 5.16535 0
M  V30 2052 H 203.168 4.6414 3.36522 0
M  V30 2053 H 201.565 5.2654 2.87881 0
M  V30 2054 H 202.635 4.55777 1.65514 0
M  V30 2055 N 203.978 -0.674533 1.42435 0
M  V30 2056 C 205.206 -1.46283 1.46317 0
M  V30 2057 C 205.621 -1.88653 0.0745836 0
M  V30 2058 O 204.978 -1.58151 -0.91074 0
M  V30 2059 C 205.029 -2.71178 2.3905 0
M  V30 2060 O 204.75 -2.30586 3.72507 0
M  V30 2061 C 206.251 -3.64738 2.51955 0
M  V30 2062 H 203.471 -0.450104 0.497642 0
M  V30 2063 H 206.015 -0.828792 1.86953 0
M  V30 2064 H 204.17 -3.3077 2.01667 0
M  V30 2065 H 204.584 -3.11241 4.22172 0
M  V30 2066 H 206.058 -4.49096 3.20962 0
M  V30 2067 H 206.535 -4.10656 1.55752 0
M  V30 2068 H 207.141 -3.11038 2.90061 0
M  V30 2069 N 205.456 -1.28612 -0.910864 0
M  V30 2070 C 206.867 -1.14406 -1.47541 0
M  V30 2071 C 207.218 0.264901 -1.94403 0
M  V30 2072 O 206.343 1.15942 -1.82719 0
M  V30 2073 C 206.938 -2.07073 -2.68153 0
M  V30 2074 C 205.497 -1.96923 -3.20778 0
M  V30 2075 C 204.644 -1.98646 -1.93481 0
M  V30 2076 H 207.595 -1.41259 -0.723291 0
M  V30 2077 H 207.616 -1.63642 -3.43514 0
M  V30 2078 H 207.128 -3.09611 -2.34015 0
M  V30 2079 H 205.229 -0.97433 -3.59635 0
M  V30 2080 H 205.342 -2.84026 -3.85832 0
M  V30 2081 H 203.706 -1.43093 -2.10705 0
M  V30 2082 H 204.489 -3.02868 -1.61634 0
M  V30 2083 N 206.934 1.1197 -1.10907 0
M  V30 2084 C 207.866 2.17592 -0.720175 0
M  V30 2085 C 208.879 1.60938 0.245495 0
M  V30 2086 O 210.068 1.78476 0.0292245 0
M  V30 2087 C 207.168 3.38873 -0.0427917 0
M  V30 2088 C 206.341 4.25006 -1.03388 0
M  V30 2089 C 205.4 5.24774 -0.387075 0
M  V30 2090 O 204.426 5.59631 -1.03934 0
M  V30 2091 N 205.628 5.74208 0.852407 0
M  V30 2092 H 208.393 2.51567 -1.62893 0
M  V30 2093 H 205.954 1.27439 -0.998543 0
M  V30 2094 H 207.946 4.02703 0.401501 0
M  V30 2095 H 206.516 3.03007 0.768456 0
M  V30 2096 H 205.736 3.57716 -1.65629 0
M  V30 2097 H 207.024 4.79397 -1.70458 0
M  V30 2098 H 206.422 5.48062 1.40161 0
M  V30 2099 H 204.979 6.39901 1.23977 0
M  V30 2100 N 208.412 0.89855 1.29475 0
M  V30 2101 C 209.637 0.538561 2.00285 0
M  V30 2102 C 210.062 -0.869135 1.66816 0
M  V30 2103 O 209.42 -1.57831 0.892145 0
M  V30 2104 C 209.468 0.736475 3.52999 0
M  V30 2105 O 208.572 -0.211537 4.11857 0
M  V30 2106 H 207.913 0.210563 0.62973 0
M  V30 2107 H 210.443 1.20982 1.64998 0
M  V30 2108 H 210.453 0.640685 4.02938 0
M  V30 2109 H 209.128 1.76276 3.76696 0
M  V30 2110 H 207.705 -0.0682991 3.72837 0
M  V30 2111 N 209.89 -1.43072 0.660911 0
M  V30 2112 C 211.136 -2.0202 0.177708 0
M  V30 2113 C 211.469 -1.52066 -1.20787 0
M  V30 2114 O 210.744 -0.716987 -1.80802 0
M  V30 2115 C 211.027 -3.59561 0.197019 0
M  V30 2116 C 210.88 -4.19727 1.61706 0
M  V30 2117 C 212.199 -4.37664 -0.462396 0
M  V30 2118 H 209.318 -0.734034 0.0660494 0
M  V30 2119 H 211.96 -1.70272 0.843058 0
M  V30 2120 H 210.11 -3.86739 -0.369527 0
M  V30 2121 H 211.782 -4.03553 2.23479 0
M  V30 2122 H 210.025 -3.76084 2.16201 0
M  V30 2123 H 210.696 -5.28834 1.58237 0
M  V30 2124 H 213.172 -4.16095 0.0197215 0
M  V30 2125 H 212.048 -5.47305 -0.418188 0
M  V30 2126 H 212.309 -4.14493 -1.53778 0
M  V30 2127 N 211.368 -0.403325 -1.52352 0
M  V30 2128 C 212.615 0.174347 -2.01748 0
M  V30 2129 C 212.943 1.45636 -1.2892 0
M  V30 2130 O 212.198 1.9193 -0.382258 0
M  V30 2131 C 212.497 0.474665 -3.54234 0
M  V30 2132 C 212.163 -0.717458 -4.45155 0
M  V30 2133 C 210.825 -1.04447 -4.69728 0
M  V30 2134 C 213.177 -1.51432 -4.98716 0
M  V30 2135 C 210.505 -2.16963 -5.45109 0
M  V30 2136 C 212.857 -2.6302 -5.75329 0
M  V30 2137 C 211.521 -2.96213 -5.98175 0
M  V30 2138 H 210.791 0.0637981 -0.738248 0
M  V30 2139 H 213.438 -0.543553 -1.83624 0
M  V30 2140 H 211.743 1.27406 -3.70506 0
M  V30 2141 H 213.44 0.934496 -3.89959 0
M  V30 2142 H 210.03 -0.452596 -4.26204 0
M  V30 2143 H 214.214 -1.27491 -4.79645 0
M  V30 2144 H 209.47 -2.43034 -5.61021 0
M  V30 2145 H 213.644 -3.25158 -6.15829 0
M  V30 2146 H 211.271 -3.83516 -6.56368 0
M  V30 2147 N 212.846 1.57033 -0.133567 0
M  V30 2148 C 213.809 2.14897 0.796995 0
M  V30 2149 C 214.809 1.0874 1.18458 0
M  V30 2150 O 215.999 1.34446 1.1077 0
M  V30 2151 C 213.131 2.70112 2.07973 0
M  V30 2152 H 214.324 2.98457 0.293873 0
M  V30 2153 H 211.877 1.55871 0.115787 0
M  V30 2154 H 212.612 1.9018 2.62682 0
M  V30 2155 H 212.397 3.47764 1.81115 0
M  V30 2156 H 213.887 3.14738 2.74462 0
M  V30 2157 N 214.325 -0.140222 1.56975 0
M  V30 2158 C 215.572 -0.851687 1.83719 0
M  V30 2159 C 215.9 -1.80862 0.715485 0
M  V30 2160 O 215.155 -1.93464 -0.294956 0
M  V30 2161 C 215.454 -1.65386 3.16832 0
M  V30 2162 C 215.12 -0.843112 4.42947 0
M  V30 2163 C 213.782 -0.619464 4.77196 0
M  V30 2164 C 216.134 -0.276582 5.20466 0
M  V30 2165 C 213.462 0.181312 5.8642 0
M  V30 2166 C 215.814 0.51127 6.30531 0
M  V30 2167 C 214.478 0.745432 6.63325 0
M  V30 2168 H 213.748 -0.311654 0.672274 0
M  V30 2169 H 216.395 -0.115006 1.91154 0
M  V30 2170 H 214.7 -2.46084 3.04877 0
M  V30 2171 H 216.397 -2.20793 3.34741 0
M  V30 2172 H 212.987 -1.0275 4.16101 0
M  V30 2173 H 217.171 -0.436632 4.94376 0
M  V30 2174 H 212.427 0.372165 6.10266 0
M  V30 2175 H 216.601 0.957354 6.89788 0
M  V30 2176 H 214.228 1.36778 7.47794 0
M  V30 2177 N 215.803 -1.52179 -0.40978 0
M  V30 2178 C 217.051 -1.65878 -1.15451 0
M  V30 2179 C 217.372 -0.390771 -1.91044 0
M  V30 2180 O 216.642 0.594323 -1.86667 0
M  V30 2181 H 215.222 -0.611405 -0.429177 0
M  V30 2182 H 217.884 -1.89219 -0.467134 0
M  V30 2183 H 216.98 -2.49954 -1.86894 0
M  V30 2184 N 217.281 0.66697 -1.42791 0
M  V30 2185 C 218.529 1.42417 -1.43394 0
M  V30 2186 C 218.85 1.94925 -0.0542373 0
M  V30 2187 O 218.12 1.73564 0.908415 0
M  V30 2188 H 216.7 0.528515 -0.527902 0
M  V30 2189 H 219.362 0.787562 -1.78279 0
M  V30 2190 H 218.458 2.27333 -2.13837 0
M  V30 2191 N 218.759 1.29093 0.90403 0
M  V30 2192 C 219.989 1.19516 1.68522 0
M  V30 2193 C 220.397 -0.24738 1.87576 0
M  V30 2194 O 219.74 -1.17798 1.40959 0
M  V30 2195 C 219.802 1.83249 3.0929 0
M  V30 2196 C 219.466 3.32531 3.13484 0
M  V30 2197 C 220.463 4.28821 2.93953 0
M  V30 2198 C 218.148 3.73656 3.35688 0
M  V30 2199 C 220.142 5.64212 2.96553 0
M  V30 2200 C 217.829 5.0917 3.37919 0
M  V30 2201 C 218.827 6.04258 3.18373 0
M  V30 2202 O 218.515 7.37298 3.20385 0
M  V30 2203 H 218.247 0.415467 0.533257 0
M  V30 2204 H 220.801 1.70912 1.13922 0
M  V30 2205 H 219.031 1.26358 3.65473 0
M  V30 2206 H 220.72 1.68054 3.69476 0
M  V30 2207 H 221.486 3.98382 2.76616 0
M  V30 2208 H 217.365 3.00101 3.49943 0
M  V30 2209 H 220.909 6.38407 2.81216 0
M  V30 2210 H 216.806 5.39256 3.54787 0
M  V30 2211 H 217.574 7.46048 3.36681 0
M  V30 2212 N 220.237 -1.11381 1.11499 0
M  V30 2213 C 221.184 -2.17439 0.773887 0
M  V30 2214 C 222.154 -1.64132 -0.254899 0
M  V30 2215 O 223.339 -1.90345 -0.13168 0
M  V30 2216 C 220.479 -3.44373 0.223917 0
M  V30 2217 C 219.592 -4.1168 1.30934 0
M  V30 2218 C 218.727 -5.263 0.71984 0
M  V30 2219 C 217.766 -5.85493 1.78507 0
M  V30 2220 N 216.903 -6.91507 1.21502 0
M  V30 2221 H 221.743 -2.45962 1.68246 0
M  V30 2222 H 219.28 -1.20744 0.840191 0
M  V30 2223 H 221.238 -4.17047 -0.112921 0
M  V30 2224 H 219.868 -3.16232 -0.647851 0
M  V30 2225 H 218.92 -3.37073 1.76312 0
M  V30 2226 H 220.232 -4.51729 2.11524 0
M  V30 2227 H 219.386 -6.05785 0.333094 0
M  V30 2228 H 218.125 -4.87559 -0.117377 0
M  V30 2229 H 217.13 -5.04686 2.18111 0
M  V30 2230 H 218.355 -6.26301 2.62533 0
M  V30 2231 H 216.301 -6.54783 0.399455 0
M  V30 2232 H 216.218 -7.30214 1.95763 0
M  V30 2233 H 217.486 -7.74795 0.855181 0
M  V30 2234 N 221.715 -0.905404 -1.28997 0
M  V30 2235 C 222.961 -0.535039 -1.95615 0
M  V30 2236 C 223.294 0.917404 -1.71165 0
M  V30 2237 O 222.569 1.65123 -1.02785 0
M  V30 2238 C 222.852 -0.834918 -3.50287 0
M  V30 2239 C 222.705 -2.33948 -3.84172 0
M  V30 2240 C 224.024 -0.325318 -4.38896 0
M  V30 2241 H 221.143 -0.195861 -0.710498 0
M  V30 2242 H 223.785 -1.13313 -1.52513 0
M  V30 2243 H 221.935 -0.325904 -3.87131 0
M  V30 2244 H 223.607 -2.91847 -3.57243 0
M  V30 2245 H 221.85 -2.79789 -3.31513 0
M  V30 2246 H 222.521 -2.49987 -4.92149 0
M  V30 2247 H 224.997 -0.761256 -4.09077 0
M  V30 2248 H 223.873 -0.564295 -5.45992 0
M  V30 2249 H 224.134 0.774144 -4.35269 0
M  V30 2250 N 223.193 1.4272 -0.668489 0
M  V30 2251 C 224.125 2.2914 0.052613 0
M  V30 2252 C 225.138 1.43339 0.771857 0
M  V30 2253 O 226.327 1.67123 0.627067 0
M  V30 2254 C 223.427 3.20618 1.09804 0
M  V30 2255 C 222.6 4.35039 0.45389 0
M  V30 2256 C 221.659 5.07282 1.39825 0
M  V30 2257 O 220.685 5.62024 0.900978 0
M  V30 2258 N 221.887 5.12206 2.73176 0
M  V30 2259 H 224.652 2.91668 -0.689209 0
M  V30 2260 H 222.213 1.53577 -0.512422 0
M  V30 2261 H 224.205 3.65815 1.73094 0
M  V30 2262 H 222.775 2.59585 1.74167 0
M  V30 2263 H 221.995 3.92567 -0.358396 0
M  V30 2264 H 223.283 5.088 0.00486972 0
M  V30 2265 H 222.681 4.6913 3.16122 0
M  V30 2266 H 221.238 5.61069 3.31729 0
M  V30 2267 N 224.671 0.411399 1.52136 0
M  V30 2268 C 225.919 -0.163322 2.01439 0
M  V30 2269 C 226.24 -1.45453 1.29879 0
M  V30 2270 O 225.51 -1.91225 0.4254 0
M  V30 2271 H 224.09 -0.0633447 0.744309 0
M  V30 2272 H 226.752 0.548161 1.87033 0
M  V30 2273 H 225.848 -0.357817 3.10042 0
M  V30 2274 N 226.149 -1.5696 0.141893 0
M  V30 2275 C 227.565 -1.58151 -0.21456 0
M  V30 2276 C 227.765 -1.1559 -1.65049 0
M  V30 2277 O 226.821 -0.853832 -2.37626 0
M  V30 2278 C 228.134 -3.00674 0.0395576 0
M  V30 2279 C 229.682 -3.1299 -0.0245529 0
M  V30 2280 C 230.157 -4.57554 0.202167 0
M  V30 2281 N 231.648 -4.62961 0.148919 0
M  V30 2282 C 232.383 -5.7262 0.298924 0
M  V30 2283 N 231.879 -6.90947 0.50637 0
M  V30 2284 N 233.672 -5.61601 0.236886 0
M  V30 2285 H 225.823 -1.8292 1.07953 0
M  V30 2286 H 228.086 -0.846425 0.42693 0
M  V30 2287 H 227.792 -3.36183 1.03315 0
M  V30 2288 H 227.666 -3.70981 -0.682143 0
M  V30 2289 H 230.053 -2.77326 -1.00869 0
M  V30 2290 H 230.134 -2.4518 0.729396 0
M  V30 2291 H 229.778 -4.93922 1.18338 0
M  V30 2292 H 229.708 -5.23484 -0.572044 0
M  V30 2293 H 232.199 -3.77899 -0.00697015 0
M  V30 2294 H 232.512 -7.7038 0.611076 0
M  V30 2295 H 230.857 -6.92878 0.542628 0
M  V30 2296 H 234.048 -4.68039 0.0756209 0
M  V30 2297 H 234.221 -6.47015 0.357227 0
M  V30 2298 N 227.627 0.131896 -1.57047 0
M  V30 2299 C 228.875 0.840269 -1.83804 0
M  V30 2300 C 229.196 1.81017 -0.72512 0
M  V30 2301 O 228.466 1.94272 0.251995 0
M  V30 2302 H 227.046 0.313294 -0.678127 0
M  V30 2303 H 229.708 0.122294 -1.94516 0
M  V30 2304 H 228.804 1.39335 -2.79271 0
M  V30 2305 N 229.106 1.52395 0.401703 0
M  V30 2306 C 230.354 1.66488 1.14569 0
M  V30 2307 C 230.675 0.400897 1.90835 0
M  V30 2308 O 229.945 -0.584415 1.8698 0
M  V30 2309 H 228.525 0.613672 0.425929 0
M  V30 2310 H 231.187 1.89464 0.457093 0
M  V30 2311 H 230.283 2.50942 1.85566 0
M  V30 2312 N 230.584 -0.659388 1.43143 0
M  V30 2313 C 231.531 -1.77249 1.47822 0
M  V30 2314 C 232.501 -1.62818 0.328558 0
M  V30 2315 O 233.686 -1.83151 0.534838 0
M  V30 2316 C 230.826 -3.15371 1.40126 0
M  V30 2317 C 229.939 -3.4098 2.65249 0
M  V30 2318 C 229.074 -4.68915 2.49584 0
M  V30 2319 C 228.113 -4.87608 3.70006 0
M  V30 2320 N 227.25 -6.06796 3.53189 0
M  V30 2321 H 232.09 -1.72584 2.42938 0
M  V30 2322 H 229.627 -0.842297 1.20598 0
M  V30 2323 H 231.585 -3.9521 1.33659 0
M  V30 2324 H 230.215 -3.19121 0.485964 0
M  V30 2325 H 229.267 -2.55282 2.8202 0
M  V30 2326 H 230.579 -3.50681 3.54717 0
M  V30 2327 H 229.733 -5.56871 2.4079 0
M  V30 2328 H 228.472 -4.61524 1.5763 0
M  V30 2329 H 227.477 -3.9809 3.79215 0
M  V30 2330 H 228.702 -4.96834 4.62961 0
M  V30 2331 H 226.648 -6.00549 2.63965 0
M  V30 2332 H 226.565 -6.17428 4.36255 0
M  V30 2333 H 227.833 -6.9739 3.48236 0
M  V30 2334 N 232.062 -1.29571 -0.897171 0
M  V30 2335 C 233.025 -1.14913 -1.98312 0
M  V30 2336 C 234.025 -0.0838629 -1.60581 0
M  V30 2337 O 235.215 -0.331006 -1.71026 0
M  V30 2338 C 232.347 -0.757835 -3.3237 0
M  V30 2339 H 233.54 -2.11377 -2.12743 0
M  V30 2340 H 231.093 -1.12793 -1.08201 0
M  V30 2341 H 231.828 0.206837 -3.2364 0
M  V30 2342 H 231.613 -1.52755 -3.61121 0
M  V30 2343 H 233.103 -0.678408 -4.12053 0
M  V30 2344 N 233.54 1.10788 -1.12088 0
M  V30 2345 C 234.472 2.16816 -0.743213 0
M  V30 2346 C 235.485 1.6119 0.228412 0
M  V30 2347 O 236.674 1.78497 0.0102931 0
M  V30 2348 C 233.774 3.38809 -0.0787313 0
M  V30 2349 C 232.947 4.23885 -1.0789 0
M  V30 2350 C 232.006 5.24334 -0.442713 0
M  V30 2351 O 231.032 5.58497 -1.09864 0
M  V30 2352 N 232.234 5.75079 0.791457 0
M  V30 2353 H 234.999 2.49825 -1.65552 0
M  V30 2354 H 232.56 1.26373 -1.012 0
M  V30 2355 H 234.552 4.03107 0.358766 0
M  V30 2356 H 233.122 3.03805 0.736275 0
M  V30 2357 H 232.342 3.55939 -1.69414 0
M  V30 2358 H 233.63 4.77562 -1.75533 0
M  V30 2359 H 233.028 5.49517 1.3434 0
M  V30 2360 H 231.585 6.4118 1.17183 0
M  V30 2361 N 235.018 0.912232 1.28515 0
M  V30 2362 C 235.981 0.404223 2.25607 0
M  V30 2363 C 236.981 -0.468602 1.53821 0
M  V30 2364 O 238.171 -0.271873 1.72065 0
M  V30 2365 C 235.303 -0.420653 3.38295 0
M  V30 2366 H 236.496 1.26188 2.7206 0
M  V30 2367 H 234.049 0.691495 1.40171 0
M  V30 2368 H 234.784 -1.29777 2.97201 0
M  V30 2369 H 234.569 0.204935 3.91564 0
M  V30 2370 H 236.059 -0.766971 4.10496 0
M  V30 2371 N 236.496 -1.42363 0.676048 0
M  V30 2372 C 237.426 -2.33497 0.0124832 0
M  V30 2373 C 238.407 -1.50748 -0.787981 0
M  V30 2374 O 239.592 -1.79346 -0.744884 0
M  V30 2375 C 236.722 -3.34377 -0.938582 0
M  V30 2376 C 235.676 -4.27289 -0.246622 0
M  V30 2377 C 235.002 -5.18386 -1.31071 0
M  V30 2378 C 236.302 -5.14916 0.875125 0
M  V30 2379 H 237.996 -2.89233 0.773593 0
M  V30 2380 H 235.542 -1.39073 0.37346 0
M  V30 2381 H 237.495 -3.97044 -1.41188 0
M  V30 2382 H 236.219 -2.76947 -1.73113 0
M  V30 2383 H 234.878 -3.66018 0.206456 0
M  V30 2384 H 234.526 -4.57282 -2.09528 0
M  V30 2385 H 234.226 -5.81378 -0.852839 0
M  V30 2386 H 235.75 -5.83929 -1.78492 0
M  V30 2387 H 237.164 -5.71262 0.482983 0
M  V30 2388 H 235.561 -5.86747 1.25887 0
M  V30 2389 H 236.631 -4.53242 1.72335 0
M  V30 2390 N 237.974 -0.419461 -1.51915 0
M  V30 2391 C 238.904 0.391813 -2.30189 0
M  V30 2392 C 239.885 1.03699 -1.34836 0
M  V30 2393 O 241.07 1.04403 -1.63748 0
M  V30 2394 C 238.2 1.50312 -3.13087 0
M  V30 2395 C 237.154 0.9824 -4.16573 0
M  V30 2396 C 236.48 2.18809 -4.8788 0
M  V30 2397 C 237.78 0.0292356 -5.22292 0
M  V30 2398 H 239.474 -0.26135 -2.98257 0
M  V30 2399 H 237.02 -0.127134 -1.43438 0
M  V30 2400 H 238.973 2.07773 -3.66617 0
M  V30 2401 H 237.697 2.18431 -2.42807 0
M  V30 2402 H 236.356 0.430119 -3.64068 0
M  V30 2403 H 236.004 2.85507 -4.14119 0
M  V30 2404 H 235.704 1.84615 -5.57845 0
M  V30 2405 H 237.228 2.76858 -5.44226 0
M  V30 2406 H 238.642 0.512976 -5.71 0
M  V30 2407 H 237.039 -0.2244 -5.9968 0
M  V30 2408 H 238.109 -0.912931 -4.76228 0
M  V30 2409 N 239.452 1.56882 -0.150215 0
M  V30 2410 C 240.4 2.18214 0.805313 0
M  V30 2411 C 241.394 1.14006 1.25296 0
M  V30 2412 O 242.6 1.3225 1.22107 0
M  V30 2413 H 238.975 0.698762 0.277913 0
M  V30 2414 H 240.946 2.97231 0.263862 0
M  V30 2415 C 239.695 2.82065 2.03309 0
M  V30 2416 H 239.018 3.61968 1.69763 0
M  V30 2417 H 240.458 3.28477 2.68103 0
M  V30 2418 C 238.917 1.80739 2.84315 0
M  V30 2419 O 239.447 1.27983 3.80767 0
M  V30 2420 N 237.653 1.4997 2.48913 0
M  V30 2421 H 237.2 1.93062 1.70542 0
M  V30 2422 H 237.158 0.824217 3.03404 0
M  V30 2423 N 240.93 -0.123565 1.57115 0
M  V30 2424 C 242.207 -0.862196 1.75572 0
M  V30 2425 C 242.587 -1.98279 0.724475 0
M  V30 2426 O 241.935 -2.27102 -0.252407 0
M  V30 2427 C 242.145 -1.38309 3.20424 0
M  V30 2428 C 243.493 -1.83724 3.82793 0
M  V30 2429 O 244.517 -1.47999 3.23998 0
M  V30 2430 O 243.376 -2.49685 4.86127 0
M  V30 2431 H 240.47 -0.409113 0.718718 0
M  V30 2432 H 243.016 -0.107661 1.69358 0
M  V30 2433 H 241.788 -0.578889 3.86994 0
M  V30 2434 H 241.411 -2.20046 3.31158 0
M  V30 2435 N 242.408 -1.52605 -0.393616 0
M  V30 2436 C 243.371 -1.76415 -1.46323 0
M  V30 2437 C 244.371 -0.634126 -1.47768 0
M  V30 2438 O 245.561 -0.902142 -1.4902 0
M  V30 2439 C 242.693 -1.8607 -2.85641 0
M  V30 2440 H 243.886 -2.71916 -1.26498 0
M  V30 2441 H 241.439 -1.43257 -0.625073 0
M  V30 2442 H 242.174 -0.925378 -3.10817 0
M  V30 2443 H 241.959 -2.68235 -2.85993 0
M  V30 2444 H 243.449 -2.06179 -3.63153 0
M  V30 2445 N 243.887 0.651787 -1.4349 0
M  V30 2446 C 244.834 1.76462 -1.4876 0
M  V30 2447 C 245.804 1.62641 -0.337189 0
M  V30 2448 O 246.989 1.82864 -0.544544 0
M  V30 2449 C 244.129 3.14623 -1.41796 0
M  V30 2450 C 243.242 3.39568 -2.67053 0
M  V30 2451 C 242.377 4.67585 -2.52068 0
M  V30 2452 C 241.416 4.85639 -3.72587 0
M  V30 2453 N 240.553 6.04915 -3.56402 0
M  V30 2454 H 245.393 1.71293 -2.43849 0
M  V30 2455 H 242.93 0.835889 -1.21043 0
M  V30 2456 H 244.888 3.94496 -1.35753 0
M  V30 2457 H 243.518 3.18859 -0.50288 0
M  V30 2458 H 242.57 2.53783 -2.8337 0
M  V30 2459 H 243.882 3.48795 -3.56572 0
M  V30 2460 H 243.036 5.55586 -2.4374 0
M  V30 2461 H 241.775 4.60681 -1.60075 0
M  V30 2462 H 240.78 3.96073 -3.81321 0
M  V30 2463 H 242.005 4.94372 -4.65589 0
M  V30 2464 H 239.951 5.9914 -2.67146 0
M  V30 2465 H 239.868 6.15106 -4.39524 0
M  V30 2466 H 241.136 6.95533 -3.51929 0
M  V30 2467 N 245.365 1.30045 0.890287 0
M  V30 2468 C 246.328 1.15963 1.977 0
M  V30 2469 C 247.328 0.0923777 1.60534 0
M  V30 2470 O 248.518 0.340071 1.70848 0
M  V30 2471 C 245.65 0.775451 3.31963 0
M  V30 2472 H 246.843 2.12502 2.11619 0
M  V30 2473 H 244.396 1.13366 1.07601 0
M  V30 2474 H 245.131 -0.189671 3.23745 0
M  V30 2475 H 244.916 1.54668 3.60306 0
M  V30 2476 H 246.406 0.700251 4.11687 0
M  V30 2477 N 246.843 -1.10192 1.12674 0
M  V30 2478 C 247.793 -2.14754 0.765801 0
M  V30 2479 C 248.777 -1.59154 -0.236409 0
M  V30 2480 O 249.969 -1.76951 -0.0415261 0
M  V30 2481 C 247.098 -3.42563 0.224827 0
M  V30 2482 C 246.184 -4.05091 1.25548 0
M  V30 2483 N 246.575 -4.42287 2.4539 0
M  V30 2484 C 244.873 -4.32186 1.10142 0
M  V30 2485 C 245.574 -4.91441 3.11224 0
M  V30 2486 N 244.55 -4.88405 2.38666 0
M  V30 2487 H 248.352 -2.41309 1.67772 0
M  V30 2488 H 245.866 -1.27339 1.00789 0
M  V30 2489 H 247.863 -4.16868 -0.0519578 0
M  V30 2490 H 246.523 -3.17467 -0.681515 0
M  V30 2491 H 247.534 -4.33902 2.82754 0
M  V30 2492 H 244.211 -4.16735 0.252587 0
M  V30 2493 H 245.601 -5.29749 4.13298 0
M  V30 2494 N 248.321 -0.919034 -1.28029 0
M  V30 2495 C 249.598 -0.473668 -1.89778 0
M  V30 2496 C 249.978 1.04783 -1.83259 0
M  V30 2497 O 249.326 1.8982 -1.27202 0
M  V30 2498 C 249.536 -1.00998 -3.34066 0
M  V30 2499 C 250.884 -1.06525 -4.1102 0
M  V30 2500 O 251.908 -0.958996 -3.43048 0
M  V30 2501 O 250.767 -1.22776 -5.3253 0
M  V30 2502 H 247.861 -0.15098 -0.813101 0
M  V30 2503 H 250.407 -1.01016 -1.36359 0
M  V30 2504 H 249.179 -2.05392 -3.33061 0
M  V30 2505 H 248.802 -0.454626 -3.94992 0
M  V30 2506 N 249.799 1.42003 -0.683588 0
M  V30 2507 C 251.076 1.95112 -0.138075 0
M  V30 2508 C 251.456 1.62359 1.34918 0
M  V30 2509 O 250.804 0.924311 2.08971 0
M  V30 2510 C 251.014 3.46505 -0.416581 0
M  V30 2511 C 252.362 4.23254 -0.337834 0
M  V30 2512 O 253.386 3.54468 -0.35082 0
M  V30 2513 O 252.245 5.45743 -0.287596 0
M  V30 2514 H 249.339 0.826961 -0.00797996 0
M  V30 2515 H 251.885 1.51784 -0.758924 0
M  V30 2516 H 250.657 3.63582 -1.4465 0
M  V30 2517 H 250.28 3.969 0.235839 0
M  V30 2518 N 251.277 0.427512 1.51691 0
M  V30 2519 C 252.24 -0.377132 2.26076 0
M  V30 2520 C 253.24 -0.958089 1.29141 0
M  V30 2521 O 254.43 -0.83408 1.52934 0
M  V30 2522 C 251.562 -1.53262 3.04506 0
M  V30 2523 H 252.755 0.27464 2.9864 0
M  V30 2524 H 250.308 0.180445 1.55255 0
M  V30 2525 H 251.043 -2.22072 2.36335 0
M  V30 2526 H 250.828 -1.12232 3.75694 0
M  V30 2527 H 252.318 -2.10135 3.60878 0
M  V30 2528 N 252.755 -1.56801 0.158532 0
M  V30 2529 C 254.003 -1.96102 -0.488712 0
M  V30 2530 C 254.324 -1.04498 -1.64636 0
M  V30 2531 O 253.594 -0.108783 -1.95598 0
M  V30 2532 H 252.174 -0.724102 -0.183535 0
M  V30 2533 H 254.836 -1.93457 0.236728 0
M  V30 2534 H 253.932 -3.00097 -0.857219 0
M  V30 2535 N 254.233 0.115231 -1.57178 0
M  V30 2536 C 255.196 1.12526 -1.99676 0
M  V30 2537 C 256.196 1.34095 -0.88742 0
M  V30 2538 O 257.386 1.30548 -1.15337 0
M  V30 2539 C 254.518 2.4789 -2.34015 0
M  V30 2540 H 255.711 0.759912 -2.90113 0
M  V30 2541 H 253.264 0.359648 -1.52106 0
M  V30 2542 H 253.999 2.89339 -1.4647 0
M  V30 2543 H 253.784 2.33588 -3.14927 0
M  V30 2544 H 255.274 3.20575 -2.67622 0
M  V30 2545 N 255.711 1.52812 0.385517 0
M  V30 2546 C 256.674 1.77188 1.45386 0
M  V30 2547 C 257.674 0.641953 1.4743 0
M  V30 2548 O 258.864 0.910033 1.4854 0
M  V30 2549 C 255.996 1.87582 2.8465 0
M  V30 2550 H 257.189 2.72583 1.25054 0
M  V30 2551 H 254.742 1.43586 0.617467 0
M  V30 2552 H 255.477 0.941849 3.10322 0
M  V30 2553 H 255.262 2.69748 2.84567 0
M  V30 2554 H 256.752 2.08102 3.62054 0
M  V30 2555 N 257.189 -0.644168 1.43834 0
M  V30 2556 C 258.435 -1.40603 1.46146 0
M  V30 2557 C 258.768 -1.93997 0.0887717 0
M  V30 2558 O 258.043 -1.72854 -0.891724 0
M  V30 2559 C 258.326 -2.58086 2.51124 0
M  V30 2560 C 258.179 -2.10126 3.97702 0
M  V30 2561 C 259.498 -3.60291 2.52742 0
M  V30 2562 H 256.617 -0.509905 0.532134 0
M  V30 2563 H 259.259 -0.729502 1.75437 0
M  V30 2564 H 257.409 -3.15801 2.26278 0
M  V30 2565 H 259.081 -1.57342 4.33637 0
M  V30 2566 H 257.324 -1.41419 4.10101 0
M  V30 2567 H 257.995 -2.94649 4.66783 0
M  V30 2568 H 260.471 -3.12352 2.7491 0
M  V30 2569 H 259.347 -4.40032 3.28121 0
M  V30 2570 H 259.608 -4.1349 1.56455 0
M  V30 2571 N 258.668 -1.30515 -0.883378 0
M  V30 2572 C 259.914 -1.19607 -1.63774 0
M  V30 2573 C 260.247 0.248314 -1.92606 0
M  V30 2574 O 259.522 1.17742 -1.54813 0
M  V30 2575 C 259.805 -2.02669 -2.97653 0
M  V30 2576 C 259.658 -3.55335 -2.75784 0
M  V30 2577 C 260.977 -1.86573 -3.98596 0
M  V30 2578 H 258.096 -0.435856 -0.594305 0
M  V30 2579 H 260.738 -1.60165 -1.02212 0
M  V30 2580 H 258.888 -1.68208 -3.50197 0
M  V30 2581 H 260.56 -3.99863 -2.30016 0
M  V30 2582 H 258.803 -3.79438 -2.1026 0
M  V30 2583 H 259.474 -4.08745 -3.70988 0
M  V30 2584 H 261.95 -2.16703 -3.55217 0
M  V30 2585 H 260.826 -2.47014 -4.90179 0
M  V30 2586 H 261.087 -0.825321 -4.34328 0
M  V30 2587 N 260.146 1.09593 -1.13257 0
M  V30 2588 C 261.076 2.18214 -0.830946 0
M  V30 2589 C 262.057 1.68812 0.208966 0
M  V30 2590 O 263.242 1.9408 0.0682666 0
M  V30 2591 C 260.372 3.46051 -0.294296 0
M  V30 2592 C 259.326 4.08778 -1.26826 0
M  V30 2593 C 258.652 5.31419 -0.591449 0
M  V30 2594 C 259.952 4.51476 -2.62615 0
M  V30 2595 H 261.646 2.43703 -1.73923 0
M  V30 2596 H 259.192 1.17128 -0.837675 0
M  V30 2597 H 261.145 4.2134 -0.0709606 0
M  V30 2598 H 259.869 3.20079 0.649366 0
M  V30 2599 H 258.528 3.35505 -1.47756 0
M  V30 2600 H 258.176 5.01727 0.357633 0
M  V30 2601 H 257.876 5.74341 -1.24123 0
M  V30 2602 H 259.4 6.09433 -0.377355 0
M  V30 2603 H 260.814 5.17999 -2.45663 0
M  V30 2604 H 259.211 5.05277 -3.23752 0
M  V30 2605 H 260.281 3.63962 -3.20406 0
M  V30 2606 N 261.624 0.925811 1.2754 0
M  V30 2607 C 262.557 0.367836 2.25216 0
M  V30 2608 C 263.535 -0.534738 1.53556 0
M  V30 2609 O 264.719 -0.475672 1.824 0
M  V30 2610 C 261.846 -0.47298 3.35381 0
M  V30 2611 C 260.892 0.365898 4.24928 0
M  V30 2612 S 261.725 1.78025 5.05042 0
M  V30 2613 C 262.881 0.947068 6.18693 0
M  V30 2614 H 263.114 1.19568 2.72196 0
M  V30 2615 H 260.647 0.727867 1.36167 0
M  V30 2616 H 262.605 -0.952242 3.99303 0
M  V30 2617 H 261.266 -1.27533 2.87044 0
M  V30 2618 H 260.459 -0.277582 5.03235 0
M  V30 2619 H 260.061 0.779261 3.65792 0
M  V30 2620 H 262.353 0.182201 6.77255 0
M  V30 2621 H 263.296 1.70309 6.87314 0
M  V30 2622 H 263.704 0.489913 5.6237 0
M  V30 2623 N 263.102 -1.41638 0.69111 0
M  V30 2624 C 264.012 -2.34588 0.0233487 0
M  V30 2625 C 265.028 -1.55987 -0.770984 0
M  V30 2626 O 266.204 -1.88486 -0.709569 0
M  V30 2627 C 263.269 -3.34684 -0.904851 0
M  V30 2628 C 262.33 -4.29176 -0.103225 0
M  V30 2629 C 261.563 -5.2449 -0.987216 0
M  V30 2630 O 261.786 -5.2514 -2.22674 0
M  V30 2631 O 260.72 -6.00295 -0.439281 0
M  V30 2632 H 264.546 -2.93261 0.789416 0
M  V30 2633 H 262.131 -1.42417 0.45142 0
M  V30 2634 H 264.013 -3.96133 -1.43724 0
M  V30 2635 H 262.688 -2.78461 -1.65049 0
M  V30 2636 H 261.595 -3.71089 0.473655 0
M  V30 2637 H 262.928 -4.88484 0.60365 0
M  V30 2638 N 264.58 -0.43555 -1.51462 0
M  V30 2639 C 265.82 0.130708 -2.03982 0
M  V30 2640 C 266.184 1.40117 -1.31268 0
M  V30 2641 O 267.385 2.04755 -1.74152 0
M  V30 2642 C 265.656 0.346102 -3.5572 0
M  V30 2643 S 267.215 0.876022 -4.29967 0
M  V30 2644 H 264.033 0.0326881 -0.710248 0
M  V30 2645 H 266.635 -0.594544 -1.8624 0
M  V30 2646 H 265.339 -0.584911 -4.0621 0
M  V30 2647 H 264.87 1.09849 -3.77752 0
M  V30 2648 H 266.885 2.15379 -4.47019 0
M  V30 2649 N 266.058 1.56714 -0.166846 0
M  V30 2650 C 267.304 1.97039 0.479962 0
M  V30 2651 C 267.637 1.05264 1.63197 0
M  V30 2652 O 266.912 0.0988833 1.94248 0
M  V30 2653 C 267.195 3.46867 0.967212 0
M  V30 2654 C 267.048 4.49421 -0.18466 0
M  V30 2655 C 268.367 3.9968 1.84238 0
M  V30 2656 H 265.486 0.71641 0.172992 0
M  V30 2657 H 268.128 1.8832 -0.252079 0
M  V30 2658 H 266.278 3.54428 1.59101 0
M  V30 2659 H 267.95 4.53924 -0.821621 0
M  V30 2660 H 266.193 4.25573 -0.840837 0
M  V30 2661 H 266.864 5.51644 0.198317 0
M  V30 2662 H 269.34 3.94723 1.31655 0
M  V30 2663 H 268.216 5.04941 2.15234 0
M  V30 2664 H 268.477 3.43226 2.78654 0
M  V30 2665 N 267.536 -0.106894 1.57237 0
M  V30 2666 C 268.466 -1.13148 2.04254 0
M  V30 2667 C 269.447 -1.42476 0.929224 0
M  V30 2668 O 270.632 -1.52709 1.19973 0
M  V30 2669 C 267.762 -2.4545 2.45706 0
M  V30 2670 C 266.716 -2.30558 3.60592 0
M  V30 2671 C 266.042 -3.67931 3.87983 0
M  V30 2672 C 267.342 -1.75597 4.91897 0
M  V30 2673 H 269.036 -0.740374 2.90101 0
M  V30 2674 H 266.582 -0.354696 1.39563 0
M  V30 2675 H 268.535 -3.17389 2.77205 0
M  V30 2676 H 267.259 -2.86475 1.56843 0
M  V30 2677 H 265.918 -1.61067 3.29322 0
M  V30 2678 H 265.566 -4.06462 2.96306 0
M  V30 2679 H 265.266 -3.58817 4.65322 0
M  V30 2680 H 266.79 -4.41356 4.21945 0
M  V30 2681 H 268.204 -2.37364 5.21854 0
M  V30 2682 H 266.601 -1.77272 5.73319 0
M  V30 2683 H 267.671 -0.714451 4.79608 0
M  V30 2684 N 269.014 -1.53014 -0.377408 0
M  V30 2685 C 269.977 -1.77957 -1.44444 0
M  V30 2686 C 270.977 -0.649763 -1.47087 0
M  V30 2687 O 272.167 -0.917897 -1.48055 0
M  V30 2688 C 269.299 -1.89089 -2.83651 0
M  V30 2689 H 270.492 -2.73243 -1.23606 0
M  V30 2690 H 268.045 -1.43912 -0.609844 0
M  V30 2691 H 268.78 -0.958293 -3.09818 0
M  V30 2692 H 268.565 -2.71254 -2.83132 0
M  V30 2693 H 270.055 -2.1002 -3.60945 0
M  V30 2694 N 270.492 0.636531 -1.44174 0
M  V30 2695 C 271.402 1.77754 -1.53103 0
M  V30 2696 C 272.418 1.68928 -0.417034 0
M  V30 2697 O 273.594 1.89801 -0.6736 0
M  V30 2698 C 270.659 3.14115 -1.46741 0
M  V30 2699 C 269.72 3.34612 -2.68948 0
M  V30 2700 C 268.953 4.64467 -2.6288 0
M  V30 2701 O 269.176 5.44919 -1.68581 0
M  V30 2702 O 268.11 4.87049 -3.53648 0
M  V30 2703 H 271.936 1.73174 -2.49489 0
M  V30 2704 H 269.521 0.79709 -1.2636 0
M  V30 2705 H 271.403 3.95412 -1.45696 0
M  V30 2706 H 270.078 3.19249 -0.534975 0
M  V30 2707 H 268.985 2.53014 -2.75562 0
M  V30 2708 H 270.318 3.34336 -3.61221 0
M  V30 2709 N 271.97 1.30982 0.876444 0
M  V30 2710 C 272.9 1.20668 1.99903 0
M  V30 2711 C 273.881 0.095354 1.69833 0
M  V30 2712 O 275.066 0.27885 1.92188 0
M  V30 2713 C 272.196 0.90655 3.3526 0
M  V30 2714 C 271.15 1.97675 3.79617 0
M  V30 2715 C 270.476 1.52943 5.1236 0
M  V30 2716 C 271.776 3.389 3.97422 0
M  V30 2717 H 273.47 2.14586 2.0879 0
M  V30 2718 H 271.016 1.03308 1.00317 0
M  V30 2719 H 272.969 0.821025 4.13324 0
M  V30 2720 H 271.693 -0.0682969 3.26529 0
M  V30 2721 H 270.352 2.05205 3.03787 0
M  V30 2722 H 270 0.54262 5.00065 0
M  V30 2723 H 269.7 2.24532 5.43009 0
M  V30 2724 H 271.224 1.45786 5.92941 0
M  V30 2725 H 272.638 3.34081 4.659 0
M  V30 2726 H 271.035 4.0865 4.3946 0
M  V30 2727 H 272.105 3.80163 3.01006 0
M  V30 2728 N 273.449 -1.08991 1.13837 0
M  V30 2729 C 274.412 -2.13925 0.822715 0
M  V30 2730 C 275.412 -1.599 -0.1699 0
M  V30 2731 O 276.602 -1.74104 0.0577251 0
M  V30 2732 C 273.734 -3.40155 0.225318 0
M  V30 2733 H 274.927 -2.43358 1.75262 0
M  V30 2734 H 272.48 -1.24603 0.943594 0
M  V30 2735 H 273.215 -3.16352 -0.713594 0
M  V30 2736 H 273 -3.80661 0.940193 0
M  V30 2737 H 274.49 -4.17594 0.0214784 0
M  V30 2738 N 274.927 -0.932562 -1.27047 0
M  V30 2739 C 275.874 -0.434072 -2.26681 0
M  V30 2740 C 276.844 0.501639 -1.58344 0
M  V30 2741 O 278.029 0.419734 -1.86126 0
M  V30 2742 C 275.169 0.30261 -3.43771 0
M  V30 2743 C 274.282 -0.667774 -4.26808 0
M  V30 2744 C 273.417 0.0892393 -5.31125 0
M  V30 2745 C 272.456 -0.873532 -6.05835 0
M  V30 2746 N 271.593 -0.148832 -7.01942 0
M  V30 2747 H 276.433 -1.28868 -2.68695 0
M  V30 2748 H 273.97 -0.646713 -1.32121 0
M  V30 2749 H 275.928 0.746092 -4.10474 0
M  V30 2750 H 274.558 1.12142 -3.02695 0
M  V30 2751 H 273.61 -1.22978 -3.59973 0
M  V30 2752 H 274.922 -1.40337 -4.78651 0
M  V30 2753 H 274.076 0.592409 -6.03801 0
M  V30 2754 H 272.815 0.85777 -4.80097 0
M  V30 2755 H 271.82 -1.38791 -5.31994 0
M  V30 2756 H 273.045 -1.64193 -6.58952 0
M  V30 2757 H 270.991 0.601365 -6.53238 0
M  V30 2758 H 270.908 -0.82391 -7.51497 0
M  V30 2759 H 272.176 0.333527 -7.78786 0
M  V30 2760 N 276.405 1.4127 -0.698611 0
M  V30 2761 C 277.352 2.30773 -0.0352094 0
M  V30 2762 C 278.322 1.47273 0.768111 0
M  V30 2763 O 279.507 1.76053 0.735524 0
M  V30 2764 C 276.647 3.33346 0.893 0
M  V30 2765 C 275.76 4.31924 0.0809695 0
M  V30 2766 C 274.895 5.21566 1.0071 0
M  V30 2767 C 273.934 6.11811 0.188155 0
M  V30 2768 N 273.071 6.93926 1.06825 0
M  V30 2769 H 277.911 2.86943 -0.804207 0
M  V30 2770 H 275.448 1.4132 -0.408294 0
M  V30 2771 H 277.406 3.91368 1.44523 0
M  V30 2772 H 276.036 2.78719 1.62836 0
M  V30 2773 H 275.088 3.75825 -0.588224 0
M  V30 2774 H 276.4 4.95716 -0.553801 0
M  V30 2775 H 275.554 5.84437 1.62845 0
M  V30 2776 H 274.293 4.58008 1.67572 0
M  V30 2777 H 273.298 5.47986 -0.446254 0
M  V30 2778 H 274.523 6.77425 -0.476716 0
M  V30 2779 H 272.469 6.32973 1.72283 0
M  V30 2780 H 272.386 7.54416 0.489123 0
M  V30 2781 H 273.654 7.61262 1.67632 0
M  V30 2782 N 277.883 0.443576 1.51229 0
M  V30 2783 C 279.129 -0.120975 2.02439 0
M  V30 2784 C 279.462 -1.41815 1.32674 0
M  V30 2785 O 278.737 -1.89373 0.443622 0
M  V30 2786 C 279.02 -0.333291 3.58554 0
M  V30 2787 C 278.873 0.982968 4.38928 0
M  V30 2788 C 280.192 -1.10028 4.26124 0
M  V30 2789 H 277.311 -0.0424923 0.735774 0
M  V30 2790 H 279.953 0.583794 1.80809 0
M  V30 2791 H 278.103 -0.933614 3.77115 0
M  V30 2792 H 279.775 1.61775 4.32003 0
M  V30 2793 H 278.018 1.58611 4.03763 0
M  V30 2794 H 278.689 0.788379 5.46341 0
M  V30 2795 H 281.165 -0.591711 4.11871 0
M  V30 2796 H 280.041 -1.21761 5.35225 0
M  V30 2797 H 280.302 -2.12996 3.87408 0
M  V30 2798 N 279.361 -1.56624 0.175154 0
M  V30 2799 C 280.589 -2.01374 -0.474971 0
M  V30 2800 C 281.004 -1.05537 -1.56548 0
M  V30 2801 O 280.361 -0.0568668 -1.82411 0
M  V30 2802 C 280.412 -3.45923 -1.04975 0
M  V30 2803 O 280.133 -4.381 -0.00276605 0
M  V30 2804 C 281.634 -4.06093 -1.77773 0
M  V30 2805 H 278.854 -0.659962 -0.121206 0
M  V30 2806 H 281.398 -2.02601 0.27801 0
M  V30 2807 H 279.553 -3.45458 -1.75321 0
M  V30 2808 H 279.967 -5.22753 -0.427681 0
M  V30 2809 H 281.441 -5.09147 -2.13245 0
M  V30 2810 H 281.918 -3.48405 -2.67414 0
M  V30 2811 H 282.524 -4.10272 -1.12059 0
M  V30 2812 N 280.839 0.0985539 -1.57292 0
M  V30 2813 C 281.749 1.13824 -2.05137 0
M  V30 2814 C 282.765 1.44076 -0.975604 0
M  V30 2815 O 283.941 1.54786 -1.28853 0
M  V30 2816 C 281.006 2.43969 -2.46333 0
M  V30 2817 C 280.067 2.2093 -3.68087 0
M  V30 2818 C 279.3 3.44869 -4.0731 0
M  V30 2819 O 279.523 4.52972 -3.46659 0
M  V30 2820 O 278.457 3.34661 -5.00285 0
M  V30 2821 H 282.283 0.761881 -2.93988 0
M  V30 2822 H 279.868 0.310818 -1.46131 0
M  V30 2823 H 281.75 3.20609 -2.73473 0
M  V30 2824 H 280.425 2.81038 -1.60621 0
M  V30 2825 H 279.332 1.42081 -3.46069 0
M  V30 2826 H 280.665 1.88755 -4.54568 0
M  V30 2827 N 282.317 1.53212 0.369288 0
M  V30 2828 C 283.545 1.73119 1.13303 0
M  V30 2829 C 283.96 0.458455 1.83149 0
M  V30 2830 O 283.317 -0.568403 1.73423 0
M  V30 2831 C 283.368 2.89413 2.16616 0
M  V30 2832 O 283.089 4.11761 1.49614 0
M  V30 2833 C 284.59 3.21161 3.05566 0
M  V30 2834 H 281.81 0.579107 0.338934 0
M  V30 2835 H 284.354 1.99942 0.429338 0
M  V30 2836 H 282.509 2.64994 2.82589 0
M  V30 2837 H 282.923 4.76858 2.18419 0
M  V30 2838 H 284.397 4.05949 3.74045 0
M  V30 2839 H 284.874 2.36369 3.70171 0
M  V30 2840 H 285.48 3.47492 2.45213 0
M  V30 2841 N 283.795 -0.628877 1.44509 0
M  V30 2842 C 285.041 -1.39045 1.47629 0
M  V30 2843 C 285.374 -1.93892 0.109343 0
M  V30 2844 O 284.649 -1.7379 -0.87334 0
M  V30 2845 C 284.932 -2.55408 2.53848 0
M  V30 2846 C 284.785 -2.05896 3.99909 0
M  V30 2847 C 286.104 -3.5759 2.56549 0
M  V30 2848 H 283.223 -0.504232 0.537512 0
M  V30 2849 H 285.865 -0.710854 1.76201 0
M  V30 2850 H 284.015 -3.13384 2.29615 0
M  V30 2851 H 285.687 -1.52734 4.35282 0
M  V30 2852 H 283.93 -1.37061 4.11578 0
M  V30 2853 H 284.601 -2.89681 4.69882 0
M  V30 2854 H 287.077 -3.09419 2.78207 0
M  V30 2855 H 285.953 -4.36527 3.32769 0
M  V30 2856 H 286.214 -4.11808 1.60832 0
M  V30 2857 N 285.273 -1.31445 -0.869486 0
M  V30 2858 C 286.498 -1.24256 -1.66058 0
M  V30 2859 C 286.923 0.188928 -1.87149 0
M  V30 2860 O 286.281 1.13522 -1.4136 0
M  V30 2861 C 286.329 -1.9924 -3.00559 0
M  V30 2862 O 285.433 -1.33007 -3.90362 0
M  V30 2863 H 284.774 -0.428973 -0.506831 0
M  V30 2864 H 287.304 -1.73521 -1.08404 0
M  V30 2865 H 287.314 -2.08854 -3.50491 0
M  V30 2866 H 285.989 -3.03342 -2.84528 0
M  V30 2867 H 284.566 -1.31848 -3.48813 0
M  V30 2868 N 286.751 1.08385 -1.14413 0
M  V30 2869 C 287.991 1.8238 -0.922868 0
M  V30 2870 C 288.355 1.84225 0.540842 0
M  V30 2871 O 289.556 2.53985 0.880058 0
M  V30 2872 C 287.827 3.24048 -1.50757 0
M  V30 2873 S 289.386 4.14917 -1.4279 0
M  V30 2874 H 286.204 0.628524 -0.332384 0
M  V30 2875 H 288.806 1.30278 -1.45766 0
M  V30 2876 H 287.51 3.20288 -2.56601 0
M  V30 2877 H 287.041 3.81224 -0.971178 0
M  V30 2878 H 289.056 4.94473 -0.413582 0
M  V30 2879 N 288.23 0.939286 1.26551 0
M  V30 2880 C 289.641 0.628782 1.75793 0
M  V30 2881 C 289.992 -0.856046 1.7654 0
M  V30 2882 O 289.117 -1.66994 1.3763 0
M  V30 2883 C 289.712 1.13465 3.19235 0
M  V30 2884 C 288.271 0.874601 3.66098 0
M  V30 2885 C 287.418 1.28667 2.45642 0
M  V30 2886 H 290.369 1.1178 1.12654 0
M  V30 2887 H 290.39 0.487609 3.77363 0
M  V30 2888 H 289.902 2.21535 3.1866 0
M  V30 2889 H 288.003 -0.191793 3.72106 0
M  V30 2890 H 288.116 1.50028 4.55004 0
M  V30 2891 H 286.48 0.705109 2.44745 0
M  V30 2892 H 287.263 2.37625 2.47769 0
M  V30 2893 N 289.708 -1.40897 0.706093 0
M  V30 2894 C 290.936 -2.05373 0.250887 0
M  V30 2895 C 291.351 -1.53172 -1.10381 0
M  V30 2896 O 290.708 -0.684305 -1.69185 0
M  V30 2897 C 290.759 -3.6088 0.211571 0
M  V30 2898 O 290.48 -4.11153 1.51276 0
M  V30 2899 C 291.981 -4.42517 -0.263346 0
M  V30 2900 H 289.201 -0.66115 0.114552 0
M  V30 2901 H 291.745 -1.80479 0.961635 0
M  V30 2902 H 289.9 -3.84777 -0.450073 0
M  V30 2903 H 290.314 -5.05279 1.40689 0
M  V30 2904 H 291.788 -5.51479 -0.239718 0
M  V30 2905 H 292.265 -4.19396 -1.30397 0
M  V30 2906 H 292.871 -4.23708 0.367677 0
M  V30 2907 N 291.186 -0.45159 -1.50991 0
M  V30 2908 C 292.435 0.111653 -2.01391 0
M  V30 2909 C 292.748 1.42529 -1.33959 0
M  V30 2910 O 293.954 2.07232 -1.75405 0
M  V30 2911 C 292.41 0.249514 -3.59034 0
M  V30 2912 C 292.018 -1.05453 -4.35412 0
M  V30 2913 C 293.762 0.765762 -4.17536 0
M  V30 2914 C 291.669 -0.881529 -5.84793 0
M  V30 2915 H 290.599 0.0455022 -0.752626 0
M  V30 2916 H 293.25 -0.583524 -1.73975 0
M  V30 2917 H 291.632 1.00803 -3.82955 0
M  V30 2918 H 292.806 -1.82248 -4.23229 0
M  V30 2919 H 291.121 -1.50039 -3.88429 0
M  V30 2920 H 293.718 0.911913 -5.26866 0
M  V30 2921 H 294.061 1.75201 -3.77638 0
M  V30 2922 H 294.594 0.0651744 -3.97747 0
M  V30 2923 H 291.333 -1.84057 -6.29129 0
M  V30 2924 H 290.853 -0.153625 -5.99603 0
M  V30 2925 H 292.532 -0.540363 -6.4474 0
M  V30 2926 N 292.664 1.56529 -0.183458 0
M  V30 2927 C 293.912 1.96855 0.457452 0
M  V30 2928 C 294.233 1.07104 1.62953 0
M  V30 2929 O 293.503 0.139887 1.954 0
M  V30 2930 H 292.083 0.72693 0.171992 0
M  V30 2931 H 294.745 1.93056 -0.267476 0
M  V30 2932 H 293.841 3.01423 0.809368 0
M  V30 2933 N 294.142 -0.090211 1.57342 0
M  V30 2934 C 295.391 -0.791531 1.8552 0
M  V30 2935 C 295.704 -1.79659 0.773441 0
M  V30 2936 O 296.91 -2.54616 0.942497 0
M  V30 2937 C 295.366 -1.45856 3.2902 0
M  V30 2938 C 294.974 -0.493017 4.45279 0
M  V30 2939 C 296.718 -2.14332 3.66418 0
M  V30 2940 C 294.625 -1.16491 5.79814 0
M  V30 2941 H 293.555 -0.299356 0.692027 0
M  V30 2942 H 296.206 -0.0445343 1.83446 0
M  V30 2943 H 294.588 -2.25318 3.2565 0
M  V30 2944 H 295.762 0.270464 4.60006 0
M  V30 2945 H 294.077 0.0863061 4.16311 0
M  V30 2946 H 296.674 -2.65344 4.64216 0
M  V30 2947 H 297.017 -2.93447 2.95287 0
M  V30 2948 H 297.55 -1.41724 3.71698 0
M  V30 2949 H 294.289 -0.41447 6.54188 0
M  V30 2950 H 293.809 -1.8997 5.68921 0
M  V30 2951 H 295.488 -1.69001 6.24538 0
M  V30 2952 N 295.62 -1.53406 -0.361157 0
M  V30 2953 C 296.868 -1.69467 -1.10115 0
M  V30 2954 C 297.189 -0.451352 -1.89705 0
M  V30 2955 O 296.459 0.534636 -1.88463 0
M  V30 2956 H 295.039 -0.624749 -0.409508 0
M  V30 2957 H 297.701 -1.90609 -0.406699 0
M  V30 2958 H 296.797 -2.55774 -1.78847 0
M  V30 2959 N 297.098 0.621204 -1.44841 0
M  V30 2960 C 298.061 1.71459 -1.521 0
M  V30 2961 C 299.061 1.55696 -0.401933 0
M  V30 2962 O 300.251 1.61011 -0.664925 0
M  V30 2963 C 297.383 3.10624 -1.40447 0
M  V30 2964 H 298.576 1.66394 -2.49506 0
M  V30 2965 H 296.129 0.835745 -1.3208 0
M  V30 2966 H 296.864 3.21277 -0.441737 0
M  V30 2967 H 296.649 3.23473 -2.21602 0
M  V30 2968 H 298.139 3.90293 -1.4853 0
M  V30 2969 N 298.576 1.31904 0.862503 0
M  V30 2970 C 299.824 1.21776 1.61292 0
M  V30 2971 C 300.145 -0.222413 1.93727 0
M  V30 2972 O 299.415 -1.1451 1.58947 0
M  V30 2973 H 297.995 0.447717 0.597962 0
M  V30 2974 H 300.657 1.65326 1.03215 0
M  V30 2975 H 299.753 1.7948 2.5533 0
M  V30 2976 N 300.054 -1.07777 1.14986 0
M  V30 2977 C 301.017 -2.13041 0.845358 0
M  V30 2978 C 302.017 -1.60071 -0.152931 0
M  V30 2979 O 303.207 -1.74033 0.0761879 0
M  V30 2980 C 300.339 -3.39896 0.261383 0
M  V30 2981 H 301.532 -2.41485 1.77834 0
M  V30 2982 H 299.085 -1.23595 0.956757 0
M  V30 2983 H 299.82 -3.17091 -0.68 0
M  V30 2984 H 299.605 -3.79642 0.980514 0
M  V30 2985 H 301.095 -4.17548 0.0657687 0
M  V30 2986 N 301.532 -0.945985 -1.26051 0
M  V30 2987 C 302.809 -0.513816 -1.88731 0
M  V30 2988 C 303.189 1.00872 -1.8544 0
M  V30 2989 O 302.537 1.8708 -1.312 0
M  V30 2990 C 302.747 -1.08062 -3.31849 0
M  V30 2991 C 304.095 -1.1522 -4.08668 0
M  V30 2992 O 305.119 -1.03155 -3.40936 0
M  V30 2993 O 303.978 -1.34044 -5.29806 0
M  V30 2994 H 301.072 -0.168193 -0.809716 0
M  V30 2995 H 303.618 -1.03886 -1.34186 0
M  V30 2996 H 302.39 -2.1241 -3.2863 0
M  V30 2997 H 302.013 -0.538307 -3.93939 0
M  V30 2998 N 303.011 1.40521 -0.713556 0
M  V30 2999 C 304.251 2.02783 -0.256584 0
M  V30 3000 C 304.615 1.55352 1.12827 0
M  V30 3001 O 305.816 2.09663 1.68211 0
M  V30 3002 C 304.087 3.5586 -0.331414 0
M  V30 3003 S 305.646 4.38773 0.0488703 0
M  V30 3004 H 302.464 0.703655 -0.101934 0
M  V30 3005 H 305.066 1.71674 -0.935325 0
M  V30 3006 H 303.77 3.87874 -1.34098 0
M  V30 3007 H 303.301 3.91695 0.365873 0
M  V30 3008 H 305.316 4.79633 1.2715 0
M  V30 3009 N 304.489 0.459591 1.5075 0
M  V30 3010 C 305.766 -0.160371 1.94941 0
M  V30 3011 C 306.146 -1.58048 1.39943 0
M  V30 3012 O 305.494 -2.206 0.595629 0
M  V30 3013 C 305.704 -0.115432 3.48809 0
M  V30 3014 C 307.052 -0.310026 4.23467 0
M  V30 3015 O 308.076 -0.192543 3.55679 0
M  V30 3016 O 306.935 -0.546031 5.43765 0
M  V30 3017 H 304.029 -0.117925 0.818549 0
M  V30 3018 H 306.575 0.519169 1.61563 0
M  V30 3019 H 305.347 0.87652 3.81357 0
M  V30 3020 H 304.97 -0.836928 3.88692 0
M  V30 3021 N 305.967 -1.56429 0.191757 0
M  V30 3022 C 307.215 -1.97095 -0.447006 0
M  V30 3023 C 307.536 -1.07967 -1.62383 0
M  V30 3024 O 306.806 -0.150248 -1.95323 0
M  V30 3025 H 305.386 -0.727832 -0.168135 0
M  V30 3026 H 308.048 -1.92911 0.27771 0
M  V30 3027 H 307.144 -3.01848 -0.793371 0
M  V30 3028 N 307.445 0.0818655 -1.57387 0
M  V30 3029 C 308.377 1.12484 -1.997 0
M  V30 3030 C 309.39 1.35564 -0.90146 0
M  V30 3031 O 310.579 1.33982 -1.17945 0
M  V30 3032 C 307.679 2.47778 -2.31213 0
M  V30 3033 C 306.852 2.44793 -3.62485 0
M  V30 3034 C 305.911 3.62117 -3.81782 0
M  V30 3035 O 304.937 3.44005 -4.53486 0
M  V30 3036 N 306.139 4.82094 -3.23367 0
M  V30 3037 H 308.904 0.764585 -2.89783 0
M  V30 3038 H 306.465 0.270664 -1.59621 0
M  V30 3039 H 308.457 3.24891 -2.41304 0
M  V30 3040 H 307.027 2.75843 -1.4707 0
M  V30 3041 H 306.247 1.53134 -3.6324 0
M  V30 3042 H 307.535 2.39889 -4.48699 0
M  V30 3043 H 306.933 4.99713 -2.65148 0
M  V30 3044 H 305.49 5.56753 -3.38923 0
M  V30 3045 N 308.923 1.53595 0.353017 0
M  V30 3046 C 310.169 1.70638 1.09593 0
M  V30 3047 C 310.502 0.463286 1.88593 0
M  V30 3048 O 309.777 -0.539597 1.86865 0
M  V30 3049 C 310.06 2.96406 2.04489 0
M  V30 3050 C 309.913 4.30901 1.29014 0
M  V30 3051 C 311.232 3.17812 3.0444 0
M  V30 3052 H 308.351 0.620913 0.397034 0
M  V30 3053 H 310.993 1.86254 0.375446 0
M  V30 3054 H 309.143 2.83223 2.65927 0
M  V30 3055 H 310.815 4.55917 0.702638 0
M  V30 3056 H 309.058 4.29741 0.592071 0
M  V30 3057 H 309.729 5.1506 1.98537 0
M  V30 3058 H 312.205 3.30263 2.53112 0
M  V30 3059 H 311.081 4.07223 3.6805 0
M  V30 3060 H 311.342 2.33669 3.75301 0
M  V30 3061 N 310.401 -0.613514 1.45168 0
M  V30 3062 C 311.331 -1.7354 1.56225 0
M  V30 3063 C 312.312 -1.64981 0.41414 0
M  V30 3064 O 313.497 -1.83472 0.636526 0
M  V30 3065 C 310.627 -3.12128 1.52295 0
M  V30 3066 C 309.581 -3.35491 2.65762 0
M  V30 3067 C 308.907 -4.74291 2.46885 0
M  V30 3068 C 310.207 -3.26325 4.0781 0
M  V30 3069 H 311.901 -1.64543 2.50132 0
M  V30 3070 H 309.447 -0.790185 1.20383 0
M  V30 3071 H 311.4 -3.90404 1.58628 0
M  V30 3072 H 310.124 -3.2195 0.549139 0
M  V30 3073 H 308.783 -2.59603 2.58847 0
M  V30 3074 H 308.431 -4.80839 1.47657 0
M  V30 3075 H 308.131 -4.9088 3.22972 0
M  V30 3076 H 309.655 -5.54775 2.55063 0
M  V30 3077 H 311.069 -3.94483 4.16 0
M  V30 3078 H 309.466 -3.54445 4.8424 0
M  V30 3079 H 310.536 -2.23855 4.30136 0
M  V30 3080 N 311.879 -1.3236 -0.855495 0
M  V30 3081 C 313.125 -1.23054 -1.612 0
M  V30 3082 C 313.458 0.207404 -1.93089 0
M  V30 3083 O 312.733 1.14432 -1.57275 0
M  V30 3084 C 313.016 -2.08937 -2.93287 0
M  V30 3085 C 312.869 -3.61105 -2.68185 0
M  V30 3086 C 314.188 -1.94986 -3.94549 0
M  V30 3087 H 311.307 -0.448364 -0.584926 0
M  V30 3088 H 313.949 -1.62297 -0.987917 0
M  V30 3089 H 312.099 -1.75599 -3.46551 0
M  V30 3090 H 313.771 -4.04652 -2.21483 0
M  V30 3091 H 312.014 -3.83813 -2.02164 0
M  V30 3092 H 312.685 -4.16522 -3.62234 0
M  V30 3093 H 315.161 -2.24189 -3.5054 0
M  V30 3094 H 314.037 -2.57356 -4.84829 0
M  V30 3095 H 314.298 -0.917263 -4.3248 0
M  V30 3096 N 313.357 1.07166 -1.15556 0
M  V30 3097 C 314.29 2.13808 -0.797593 0
M  V30 3098 C 315.268 1.6101 0.226812 0
M  V30 3099 O 316.452 1.88161 0.112932 0
M  V30 3100 C 313.579 3.38187 -0.186371 0
M  V30 3101 C 312.625 4.09766 -1.18297 0
M  V30 3102 S 313.458 4.60932 -2.72584 0
M  V30 3103 C 314.614 5.88583 -2.12886 0
M  V30 3104 H 314.847 2.43843 -1.70083 0
M  V30 3105 H 312.38 1.19467 -0.978106 0
M  V30 3106 H 314.338 4.10189 0.159837 0
M  V30 3107 H 312.999 3.06326 0.694489 0
M  V30 3108 H 312.192 4.99065 -0.703562 0
M  V30 3109 H 311.794 3.43736 -1.47381 0
M  V30 3110 H 314.086 6.60866 -1.49208 0
M  V30 3111 H 315.029 6.41241 -3.0036 0
M  V30 3112 H 315.437 5.42194 -1.57116 0
M  V30 3113 N 314.835 0.952656 1.25548 0
M  V30 3114 C 315.785 0.442033 2.23674 0
M  V30 3115 C 316.769 -0.467632 1.53955 0
M  V30 3116 O 317.961 -0.301006 1.74422 0
M  V30 3117 C 315.09 -0.280816 3.4215 0
M  V30 3118 C 314.176 0.646803 4.19139 0
M  V30 3119 N 314.567 1.77759 4.73535 0
M  V30 3120 C 312.865 0.454617 4.43677 0
M  V30 3121 C 313.566 2.35658 5.31827 0
M  V30 3122 N 312.542 1.64333 5.18166 0
M  V30 3123 H 316.344 1.30505 2.63336 0
M  V30 3124 H 313.858 0.809904 1.40763 0
M  V30 3125 H 315.855 -0.663747 4.11582 0
M  V30 3126 H 314.515 -1.14046 3.04012 0
M  V30 3127 H 315.526 2.15949 4.7073 0
M  V30 3128 H 312.203 -0.362312 4.15925 0
M  V30 3129 H 313.593 3.30998 5.84713 0
M  V30 3130 N 316.313 -1.40141 0.720998 0
M  V30 3131 C 317.59 -1.94677 0.189757 0
M  V30 3132 C 317.97 -1.65879 -1.30566 0
M  V30 3133 O 317.318 -0.979391 -2.06447 0
M  V30 3134 C 317.528 -3.45279 0.508304 0
M  V30 3135 C 318.876 -4.22209 0.449934 0
M  V30 3136 O 319.9 -3.53413 0.444677 0
M  V30 3137 O 318.759 -5.44788 0.432189 0
M  V30 3138 H 315.853 -0.826459 0.0299026 0
M  V30 3139 H 318.399 -1.49719 0.7989 0
M  V30 3140 H 317.171 -3.59619 1.54239 0
M  V30 3141 H 316.794 -3.97386 -0.130525 0
M  V30 3142 N 317.792 -0.46758 -1.50504 0
M  V30 3143 C 318.725 0.374324 -2.25109 0
M  V30 3144 C 319.703 0.99921 -1.28275 0
M  V30 3145 O 320.887 1.03583 -1.57489 0
M  V30 3146 C 318.014 1.52419 -3.02467 0
M  V30 3147 C 317.06 1.01702 -4.14197 0
M  V30 3148 S 317.893 -0.0654477 -5.3546 0
M  V30 3149 C 319.049 1.08837 -6.16365 0
M  V30 3150 H 319.282 -0.258983 -2.9617 0
M  V30 3151 H 316.815 -0.252421 -1.52323 0
M  V30 3152 H 318.773 2.18322 -3.47628 0
M  V30 3153 H 317.434 2.129 -2.30938 0
M  V30 3154 H 316.627 1.87776 -4.67714 0
M  V30 3155 H 316.229 0.435757 -3.71453 0
M  V30 3156 H 318.521 2.00071 -6.47285 0
M  V30 3157 H 319.464 0.592538 -7.05616 0
M  V30 3158 H 319.872 1.34061 -5.4835 0
M  V30 3159 N 319.27 1.56325 -0.20005 0
M  V30 3160 C 320.2 2.22318 0.713916 0
M  V30 3161 C 321.181 1.18788 1.21752 0
M  V30 3162 O 322.366 1.47309 1.26545 0
M  V30 3163 C 319.496 2.88639 1.93144 0
M  V30 3164 C 318.45 3.98457 1.56255 0
M  V30 3165 C 317.776 4.51967 2.85709 0
M  V30 3166 C 319.076 5.16612 0.768747 0
M  V30 3167 H 320.77 2.98952 0.163755 0
M  V30 3168 H 318.316 1.43792 0.0773219 0
M  V30 3169 H 320.269 3.33491 2.57608 0
M  V30 3170 H 318.993 2.09419 2.50621 0
M  V30 3171 H 317.652 3.54305 0.941471 0
M  V30 3172 H 317.3 3.69503 3.41287 0
M  V30 3173 H 317 5.26071 2.6177 0
M  V30 3174 H 318.524 4.99523 3.51154 0
M  V30 3175 H 319.938 5.57977 1.3166 0
M  V30 3176 H 318.335 5.96812 0.627286 0
M  V30 3177 H 319.405 4.84358 -0.229168 0
M  V30 3178 N 320.748 -0.0735177 1.57428 0
M  V30 3179 C 321.996 -0.771472 1.86796 0
M  V30 3180 C 322.317 -1.78201 0.791804 0
M  V30 3181 O 321.587 -1.95074 -0.179718 0
M  V30 3182 H 320.167 -0.28791 0.689287 0
M  V30 3183 H 322.829 -0.0500161 1.94836 0
M  V30 3184 H 321.925 -1.28874 2.8425 0
M  V30 3185 N 322.226 -1.5378 -0.344866 0
M  V30 3186 C 323.475 -1.7018 -1.08267 0
M  V30 3187 C 323.788 -0.471 -1.89845 0
M  V30 3188 O 324.994 -0.515917 -2.66553 0
M  V30 3189 C 323.45 -3.00923 -1.97417 0
M  V30 3190 C 323.058 -4.31335 -1.21053 0
M  V30 3191 C 324.802 -3.26688 -2.71063 0
M  V30 3192 C 322.709 -5.53153 -2.09225 0
M  V30 3193 H 321.639 -0.634138 -0.407903 0
M  V30 3194 H 324.29 -1.8028 -0.342246 0
M  V30 3195 H 322.672 -2.84676 -2.75274 0
M  V30 3196 H 323.846 -4.58281 -0.481159 0
M  V30 3197 H 322.161 -4.12173 -0.591813 0
M  V30 3198 H 324.758 -4.1489 -3.37299 0
M  V30 3199 H 325.101 -2.43639 -3.37558 0
M  V30 3200 H 325.634 -3.43705 -2.0028 0
M  V30 3201 H 322.373 -6.38741 -1.47274 0
M  V30 3202 H 321.893 -5.30458 -2.79955 0
M  V30 3203 H 323.572 -5.88744 -2.68308 0
M  V30 3204 N 323.704 0.605807 -1.45491 0
M  V30 3205 C 324.951 1.36476 -1.49601 0
M  V30 3206 C 325.279 1.94007 -0.138452 0
M  V30 3207 O 324.534 1.75638 0.863114 0
M  V30 3208 C 324.833 2.53012 -2.52428 0
M  V30 3209 C 324.499 2.13617 -3.97087 0
M  V30 3210 C 323.161 2.02587 -4.36477 0
M  V30 3211 C 325.513 1.82899 -4.88055 0
M  V30 3212 C 322.841 1.59064 -5.64726 0
M  V30 3213 C 325.193 1.40861 -6.16718 0
M  V30 3214 C 323.857 1.28391 -6.55036 0
M  V30 3215 H 323.127 0.499402 -0.547429 0
M  V30 3216 H 325.774 0.684546 -1.78847 0
M  V30 3217 H 324.079 3.26379 -2.16758 0
M  V30 3218 H 325.776 3.1124 -2.52845 0
M  V30 3219 H 322.366 2.23129 -3.65939 0
M  V30 3220 H 326.55 1.90317 -4.58359 0
M  V30 3221 H 321.806 1.48034 -5.93208 0
M  V30 3222 H 325.98 1.16138 -6.86648 0
M  V30 3223 H 323.607 0.944403 -7.54311 0
M  V30 3224 N 325.182 1.32811 0.848464 0
M  V30 3225 C 326.593 1.21315 1.41914 0
M  V30 3226 C 326.944 -0.171847 1.95446 0
M  V30 3227 O 326.069 -1.07093 1.88043 0
M  V30 3228 C 326.664 2.19631 2.57968 0
M  V30 3229 C 325.223 2.12003 3.11017 0
M  V30 3230 C 324.37 2.07651 1.83783 0
M  V30 3231 H 327.321 1.44549 0.655071 0
M  V30 3232 H 327.342 1.79845 3.35315 0
M  V30 3233 H 326.854 3.20423 2.18976 0
M  V30 3234 H 324.955 1.14481 3.54577 0
M  V30 3235 H 325.068 3.02111 3.71841 0
M  V30 3236 H 323.432 1.52983 2.03638 0
M  V30 3237 H 324.215 3.10235 1.47 0
M  V30 3238 N 326.66 -1.06551 1.16123 0
M  V30 3239 C 327.908 -1.78947 0.939267 0
M  V30 3240 C 328.229 -1.87532 -0.534476 0
M  V30 3241 O 327.499 -1.38211 -1.38833 0
M  V30 3242 H 326.079 -0.662807 0.344523 0
M  V30 3243 H 328.741 -1.28725 1.46342 0
M  V30 3244 H 327.837 -2.81117 1.35572 0
M  V30 3245 N 328.138 -0.959301 -1.25041 0
M  V30 3246 C 329.085 -0.482057 -2.2571 0
M  V30 3247 C 330.055 0.467939 -1.59372 0
M  V30 3248 O 331.24 0.380159 -1.86974 0
M  V30 3249 C 328.38 0.229623 -3.44335 0
M  V30 3250 C 327.493 -0.758156 -4.25295 0
M  V30 3251 C 326.628 -0.0234403 -5.31195 0
M  V30 3252 C 325.667 -1.00184 -6.03846 0
M  V30 3253 N 324.804 -0.29769 -7.01469 0
M  V30 3254 H 329.644 -1.34538 -2.65901 0
M  V30 3255 H 327.181 -0.674592 -1.3072 0
M  V30 3256 H 329.139 0.658856 -4.11965 0
M  V30 3257 H 327.769 1.05696 -3.05005 0
M  V30 3258 H 326.821 -1.30586 -3.57284 0
M  V30 3259 H 328.133 -1.50458 -4.75567 0
M  V30 3260 H 327.287 0.464201 -6.04922 0
M  V30 3261 H 326.026 0.755741 -4.81809 0
M  V30 3262 H 325.031 -1.50044 -5.2893 0
M  V30 3263 H 326.256 -1.78133 -6.55321 0
M  V30 3264 H 324.202 0.462668 -6.54366 0
M  V30 3265 H 324.119 -0.983128 -7.4958 0
M  V30 3266 H 325.387 0.16826 -7.79318 0
M  V30 3267 N 329.616 1.39756 -0.72842 0
M  V30 3268 C 330.844 2.04948 -0.283528 0
M  V30 3269 C 331.259 1.54908 1.0793 0
M  V30 3270 O 330.616 0.711135 1.68075 0
M  V30 3271 C 330.667 3.60498 -0.268957 0
M  V30 3272 O 330.388 4.08695 -1.57798 0
M  V30 3273 C 331.889 4.4288 0.192912 0
M  V30 3274 H 329.109 0.659243 -0.125056 0
M  V30 3275 H 331.653 1.78927 -0.990226 0
M  V30 3276 H 329.808 3.85444 0.388801 0
M  V30 3277 H 330.222 5.02977 -1.48709 0
M  V30 3278 H 331.696 5.51791 0.151952 0
M  V30 3279 H 332.173 4.21418 1.23708 0
M  V30 3280 H 332.779 4.23069 -0.435039 0
M  V30 3281 N 331.094 0.475555 1.50254 0
M  V30 3282 C 332.057 -0.305016 2.27161 0
M  V30 3283 C 333.057 -0.916519 1.32123 0
M  V30 3284 O 334.247 -0.785003 1.5551 0
M  V30 3285 C 331.379 -1.43496 3.09227 0
M  V30 3286 H 332.572 0.369511 2.97615 0
M  V30 3287 H 330.125 0.229747 1.54602 0
M  V30 3288 H 330.86 -2.14441 2.43281 0
M  V30 3289 H 330.645 -1.00223 3.79075 0
M  V30 3290 H 332.135 -1.98548 3.67381 0
M  V30 3291 N 332.573 -1.56217 0.208337 0
M  V30 3292 C 333.52 -2.19699 -0.707192 0
M  V30 3293 C 334.49 -1.14836 -1.20008 0
M  V30 3294 O 335.675 -1.4314 -1.26157 0
M  V30 3295 C 332.815 -2.87061 -1.91546 0
M  V30 3296 C 331.928 -4.06483 -1.46271 0
M  V30 3297 C 331.063 -4.61665 -2.62752 0
M  V30 3298 C 330.102 -5.73417 -2.14147 0
M  V30 3299 N 329.239 -6.22948 -3.23853 0
M  V30 3300 H 334.079 -2.97575 -0.159111 0
M  V30 3301 H 331.616 -1.46948 -0.0667874 0
M  V30 3302 H 333.574 -3.24294 -2.62468 0
M  V30 3303 H 332.204 -2.11725 -2.43664 0
M  V30 3304 H 331.256 -3.74825 -0.648886 0
M  V30 3305 H 332.568 -4.87271 -1.06622 0
M  V30 3306 H 331.722 -5.01272 -3.41776 0
M  V30 3307 H 330.461 -3.80013 -3.05682 0
M  V30 3308 H 329.466 -5.33326 -1.33581 0
M  V30 3309 H 330.691 -6.56897 -1.72232 0
M  V30 3310 H 328.637 -5.44213 -3.6629 0
M  V30 3311 H 328.554 -6.98823 -2.88414 0
M  V30 3312 H 329.822 -6.6721 -4.03052 0
M  V30 3313 N 334.051 0.0651679 -1.57465 0
M  V30 3314 C 335.298 0.763063 -1.87573 0
M  V30 3315 C 335.626 1.77242 -0.800961 0
M  V30 3316 O 334.881 1.94651 0.202316 0
M  V30 3317 C 335.18 1.50081 -3.24362 0
M  V30 3318 C 334.846 0.630816 -4.46466 0
M  V30 3319 C 333.508 0.391082 -4.79608 0
M  V30 3320 C 335.86 0.0279465 -5.21193 0
M  V30 3321 C 333.188 -0.460894 -5.84887 0
M  V30 3322 C 335.54 -0.811522 -6.27373 0
M  V30 3323 C 334.204 -1.06106 -6.59013 0
M  V30 3324 H 333.474 0.279224 -0.686378 0
M  V30 3325 H 336.121 0.0236726 -1.91485 0
M  V30 3326 H 334.426 2.31258 -3.16271 0
M  V30 3327 H 336.123 2.04571 -3.44894 0
M  V30 3328 H 332.713 0.8278 -4.2053 0
M  V30 3329 H 336.897 0.200262 -4.95896 0
M  V30 3330 H 332.153 -0.662907 -6.07796 0
M  V30 3331 H 336.327 -1.28537 -6.84435 0
M  V30 3332 H 333.954 -1.723 -7.40417 0
M  V30 3333 N 335.529 1.53961 0.336706 0
M  V30 3334 C 336.775 1.7179 1.07777 0
M  V30 3335 C 337.108 0.483263 1.88091 0
M  V30 3336 O 336.383 -0.519747 1.87427 0
M  V30 3337 C 336.666 2.98558 2.01334 0
M  V30 3338 C 336.519 4.32245 1.24437 0
M  V30 3339 C 337.838 3.21023 3.01052 0
M  V30 3340 H 334.957 0.625089 0.390426 0
M  V30 3341 H 337.599 1.86641 0.35567 0
M  V30 3342 H 335.749 2.86028 2.62908 0
M  V30 3343 H 337.421 4.56637 0.654243 0
M  V30 3344 H 335.664 4.30344 0.546458 0
M  V30 3345 H 336.335 5.17137 1.93063 0
M  V30 3346 H 338.811 3.32929 2.49595 0
M  V30 3347 H 337.687 4.11104 3.6371 0
M  V30 3348 H 337.948 2.37637 3.72802 0
M  V30 3349 N 337.007 -0.598083 1.45811 0
M  V30 3350 C 337.954 -1.7082 1.55207 0
M  V30 3351 C 338.924 -1.61278 0.39732 0
M  V30 3352 O 340.109 -1.80717 0.612038 0
M  V30 3353 C 337.249 -3.09144 1.53376 0
M  V30 3354 C 336.362 -3.29423 2.79472 0
M  V30 3355 C 335.497 -4.57907 2.69248 0
M  V30 3356 C 334.536 -4.71476 3.90354 0
M  V30 3357 N 333.673 -5.9127 3.78608 0
M  V30 3358 H 338.513 -1.62125 2.50039 0
M  V30 3359 H 336.05 -0.790389 1.24062 0
M  V30 3360 H 338.008 -3.89186 1.50301 0
M  V30 3361 H 336.638 -3.16773 0.620876 0
M  V30 3362 H 335.69 -2.43091 2.92594 0
M  V30 3363 H 337.002 -3.3532 3.69272 0
M  V30 3364 H 336.156 -5.46157 2.64192 0
M  V30 3365 H 334.895 -4.54423 1.77063 0
M  V30 3366 H 333.9 -3.81648 3.95759 0
M  V30 3367 H 335.125 -4.76751 4.83617 0
M  V30 3368 H 333.071 -5.88813 2.89199 0
M  V30 3369 H 332.988 -5.98369 4.6205 0
M  V30 3370 H 334.256 -6.81992 3.77501 0
M  V30 3371 N 338.485 -1.33259 -0.841409 0
M  V30 3372 C 339.433 -1.23279 -1.97244 0
M  V30 3373 C 340.427 -0.134706 -1.68864 0
M  V30 3374 O 341.633 -0.298501 -1.77508 0
M  V30 3375 H 338.008 -0.382497 -0.647457 0
M  V30 3376 H 339.979 -2.18906 -2.02787 0
M  V30 3377 C 338.728 -0.986268 -3.33419 0
M  V30 3378 H 338.051 -1.82347 -3.55794 0
M  V30 3379 H 339.491 -0.956728 -4.13065 0
M  V30 3380 C 337.95 0.310842 -3.35463 0
M  V30 3381 O 338.48 1.31838 -3.79449 0
M  V30 3382 N 336.686 0.337485 -2.88634 0
M  V30 3383 H 336.233 -0.482967 -2.53032 0
M  V30 3384 H 336.191 1.20518 -2.90384 0
M  V30 3385 N 339.963 1.05934 -1.16686 0
M  V30 3386 C 341.21 1.788 -0.950622 0
M  V30 3387 C 341.538 1.87384 0.521305 0
M  V30 3388 O 340.793 1.36438 1.40297 0
M  V30 3389 C 341.092 3.23105 -1.52767 0
M  V30 3390 C 340.758 3.34594 -3.02254 0
M  V30 3391 C 339.42 3.37437 -3.43059 0
M  V30 3392 C 341.772 3.36219 -3.98254 0
M  V30 3393 C 339.1 3.39525 -4.78477 0
M  V30 3394 C 341.452 3.39845 -5.33562 0
M  V30 3395 C 340.116 3.40971 -5.73842 0
M  V30 3396 H 339.386 0.654275 -0.347857 0
M  V30 3397 H 342.033 1.24555 -1.45459 0
M  V30 3398 H 340.338 3.80227 -0.94524 0
M  V30 3399 H 342.035 3.7809 -1.336 0
M  V30 3400 H 338.625 3.3309 -2.6972 0
M  V30 3401 H 342.809 3.33231 -3.67792 0
M  V30 3402 H 338.065 3.38703 -5.09009 0
M  V30 3403 H 342.239 3.4005 -6.07733 0
M  V30 3404 H 339.866 3.42342 -6.78753 0
M  V30 3405 N 341.441 0.965919 1.2453 0
M  V30 3406 C 342.374 0.4393 2.23932 0
M  V30 3407 C 343.352 -0.485615 1.55179 0
M  V30 3408 O 344.536 -0.417402 1.83821 0
M  V30 3409 C 341.663 -0.366042 3.36716 0
M  V30 3410 C 340.709 0.5009 4.23548 0
M  V30 3411 S 341.542 1.94002 4.99123 0
M  V30 3412 C 342.698 1.14342 6.15367 0
M  V30 3413 H 342.931 1.28167 2.68254 0
M  V30 3414 H 340.464 0.770819 1.33782 0
M  V30 3415 H 342.422 -0.824724 4.0213 0
M  V30 3416 H 341.083 -1.18337 2.90956 0
M  V30 3417 H 340.276 -0.117341 5.03863 0
M  V30 3418 H 339.878 0.89524 3.63127 0
M  V30 3419 H 342.17 0.397572 6.76332 0
M  V30 3420 H 343.113 1.92089 6.81548 0
M  V30 3421 H 343.521 0.668579 5.60527 0
M  V30 3422 N 342.919 -1.39368 0.735821 0
M  V30 3423 C 343.851 -2.2913 0.0567723 0
M  V30 3424 C 344.864 -1.46859 -0.702589 0
M  V30 3425 O 346.053 -1.69925 -0.546616 0
M  V30 3426 C 343.153 -3.25492 -0.943823 0
M  V30 3427 C 342.326 -4.36709 -0.24581 0
M  V30 3428 C 341.385 -5.13376 -1.15463 0
M  V30 3429 O 340.411 -5.65683 -0.631803 0
M  V30 3430 N 341.613 -5.24656 -2.48427 0
M  V30 3431 H 344.378 -2.88047 0.827582 0
M  V30 3432 H 341.939 -1.50957 0.585112 0
M  V30 3433 H 343.931 -3.73657 -1.55443 0
M  V30 3434 H 342.501 -2.676 -1.61583 0
M  V30 3435 H 341.721 -3.9041 0.545286 0
M  V30 3436 H 343.009 -5.08244 0.237891 0
M  V30 3437 H 342.407 -4.83679 -2.93379 0
M  V30 3438 H 340.964 -5.76258 -3.04582 0
M  V30 3439 N 344.397 -0.483516 -1.5 0
M  V30 3440 C 345.645 0.067027 -2.01989 0
M  V30 3441 C 345.966 1.3909 -1.36671 0
M  V30 3442 O 345.236 1.88978 -0.516152 0
M  V30 3443 H 343.816 0.0277606 -0.746484 0
M  V30 3444 H 346.478 -0.636773 -1.84204 0
M  V30 3445 H 345.574 0.209484 -3.11396 0
M  V30 3446 N 345.875 1.56104 -0.216619 0
M  V30 3447 C 346.825 2.16703 0.708798 0
M  V30 3448 C 347.809 1.11392 1.16106 0
M  V30 3449 O 349.001 1.37395 1.11587 0
M  V30 3450 C 346.13 2.84666 1.91886 0
M  V30 3451 C 345.216 3.97195 1.48651 0
M  V30 3452 N 345.607 4.99959 0.766434 0
M  V30 3453 C 343.905 4.09193 1.77418 0
M  V30 3454 C 344.606 5.79126 0.546659 0
M  V30 3455 N 343.582 5.32315 1.10188 0
M  V30 3456 H 347.384 2.93516 0.150162 0
M  V30 3457 H 344.898 1.6239 -0.0176768 0
M  V30 3458 H 346.895 3.26486 2.59253 0
M  V30 3459 H 345.555 2.09347 2.48202 0
M  V30 3460 H 346.566 5.16197 0.419634 0
M  V30 3461 H 343.243 3.45021 2.35088 0
M  V30 3462 H 344.633 6.71895 -0.026103 0
M  V30 3463 N 347.353 -0.0568162 1.57498 0
M  V30 3464 C 348.63 -0.786954 1.79071 0
M  V30 3465 C 349.01 -1.95028 0.80792 0
M  V30 3466 O 348.358 -2.27968 -0.155858 0
M  V30 3467 C 348.568 -1.24594 3.26002 0
M  V30 3468 C 349.916 -1.67323 3.90241 0
M  V30 3469 O 350.94 -1.34124 3.29984 0
M  V30 3470 O 349.799 -2.28842 4.9628 0
M  V30 3471 H 346.893 -0.378262 0.735423 0
M  V30 3472 H 349.439 -0.035734 1.69662 0
M  V30 3473 H 348.211 -0.41423 3.89101 0
M  V30 3474 H 347.834 -2.05803 3.40192 0
M  V30 3475 N 348.832 -1.54138 -0.328536 0
M  V30 3476 C 350.057 -1.76378 -1.09112 0
M  V30 3477 C 350.482 -0.508596 -1.81094 0
M  V30 3478 O 349.84 0.539598 -1.73084 0
M  V30 3479 C 349.888 -2.95358 -2.06872 0
M  V30 3480 O 348.992 -2.66556 -3.14677 0
M  V30 3481 H 348.333 -0.584614 -0.314838 0
M  V30 3482 H 350.863 -2.01146 -0.374348 0
M  V30 3483 H 350.873 -3.22566 -2.4983 0
M  V30 3484 H 349.548 -3.86385 -1.5388 0
M  V30 3485 H 348.125 -2.50282 -2.7643 0
M  V30 3486 N 350.31 0.590341 -1.46126 0
M  V30 3487 C 351.556 1.35082 -1.51264 0
M  V30 3488 C 351.889 1.93534 -0.160711 0
M  V30 3489 O 351.164 1.76045 0.826956 0
M  V30 3490 C 351.447 2.48588 -2.6053 0
M  V30 3491 C 351.3 1.95221 -4.05227 0
M  V30 3492 C 352.619 3.50662 -2.6594 0
M  V30 3493 H 349.738 0.489803 -0.550692 0
M  V30 3494 H 352.38 0.663887 -1.78024 0
M  V30 3495 H 350.53 3.07186 -2.37843 0
M  V30 3496 H 352.202 1.41139 -4.39178 0
M  V30 3497 H 350.445 1.26101 -4.15068 0
M  V30 3498 H 351.116 2.77121 -4.77397 0
M  V30 3499 H 353.592 3.01934 -2.86313 0
M  V30 3500 H 352.468 4.27551 -3.44226 0
M  V30 3501 H 352.729 4.07399 -1.71694 0
M  V30 3502 N 351.788 1.33704 0.83433 0
M  V30 3503 C 352.72 1.20172 1.9517 0
M  V30 3504 C 353.733 0.131572 1.62267 0
M  V30 3505 O 354.922 0.382406 1.74356 0
M  V30 3506 C 352.022 0.821716 3.28787 0
M  V30 3507 C 351.195 1.98446 3.89792 0
M  V30 3508 C 350.254 1.58469 5.01771 0
M  V30 3509 O 349.28 2.29968 5.20676 0
M  V30 3510 N 350.482 0.492291 5.78409 0
M  V30 3511 H 353.247 2.16429 2.07313 0
M  V30 3512 H 350.808 1.26509 1.0103 0
M  V30 3513 H 352.8 0.536291 4.01131 0
M  V30 3514 H 351.37 -0.0503058 3.1256 0
M  V30 3515 H 350.59 2.43526 3.09982 0
M  V30 3516 H 351.878 2.76236 4.27283 0
M  V30 3517 H 351.276 -0.102349 5.65607 0
M  V30 3518 H 349.833 0.266555 6.51255 0
M  V30 3519 N 353.266 -1.05314 1.17247 0
M  V30 3520 C 354.229 -2.112 0.890357 0
M  V30 3521 C 355.229 -1.60359 -0.118943 0
M  V30 3522 O 356.419 -1.73833 0.113086 0
M  V30 3523 C 353.551 -3.39266 0.333422 0
M  V30 3524 H 354.744 -2.37659 1.82916 0
M  V30 3525 H 352.297 -1.21538 0.982758 0
M  V30 3526 H 353.032 -3.18462 -0.612587 0
M  V30 3527 H 352.817 -3.77477 1.06082 0
M  V30 3528 H 354.307 -4.17315 0.154322 0
M  V30 3529 N 354.744 -0.972509 -1.24016 0
M  V30 3530 C 355.707 -0.511403 -2.23422 0
M  V30 3531 C 356.707 0.394679 -1.55881 0
M  V30 3532 O 357.897 0.189469 -1.73167 0
M  V30 3533 C 355.029 0.258769 -3.39916 0
M  V30 3534 H 356.222 -1.39024 -2.6573 0
M  V30 3535 H 353.775 -0.757585 -1.36713 0
M  V30 3536 H 354.51 1.1545 -3.03054 0
M  V30 3537 H 354.295 -0.391522 -3.9014 0
M  V30 3538 H 355.785 0.570244 -4.13688 0
M  V30 3539 N 356.222 1.38976 -0.743202 0
M  V30 3540 C 357.468 2.0064 -0.295189 0
M  V30 3541 C 357.801 1.5885 1.11716 0
M  V30 3542 O 357.076 0.821181 1.76315 0
M  V30 3543 C 357.359 3.578 -0.406318 0
M  V30 3544 C 357.212 4.09586 -1.85903 0
M  V30 3545 C 358.531 4.39616 0.206439 0
M  V30 3546 H 355.65 0.728935 -0.108733 0
M  V30 3547 H 358.292 1.65067 -0.940897 0
M  V30 3548 H 356.442 3.88235 0.143419 0
M  V30 3549 H 358.114 3.89837 -2.46627 0
M  V30 3550 H 356.357 3.6284 -2.3776 0
M  V30 3551 H 357.028 5.18708 -1.888 0
M  V30 3552 H 359.504 4.15273 -0.262283 0
M  V30 3553 H 358.38 5.48812 0.0983819 0
M  V30 3554 H 358.641 4.22754 1.2935 0
M  V30 3555 N 357.7 0.491464 1.49741 0
M  V30 3556 C 359.116 0.146835 1.58923 0
M  V30 3557 C 359.316 -1.34804 1.49767 0
M  V30 3558 O 358.372 -2.12317 1.36667 0
M  V30 3559 C 359.685 0.715157 2.92072 0
M  V30 3560 C 361.233 0.680407 3.05515 0
M  V30 3561 C 361.708 1.22663 4.41269 0
M  V30 3562 N 363.199 1.18691 4.47735 0
M  V30 3563 C 363.934 1.57984 5.51207 0
M  V30 3564 N 363.43 2.04824 6.6183 0
M  V30 3565 N 365.223 1.49459 5.41866 0
M  V30 3566 H 357.374 1.46347 1.53936 0
M  V30 3567 H 359.637 0.606453 0.728642 0
M  V30 3568 H 359.343 1.76317 3.04311 0
M  V30 3569 H 359.217 0.17018 3.76816 0
M  V30 3570 H 361.604 -0.358743 2.92911 0
M  V30 3571 H 361.685 1.26242 2.22478 0
M  V30 3572 H 361.329 2.26451 4.54623 0
M  V30 3573 H 361.259 0.620637 5.2293 0
M  V30 3574 H 363.75 0.843605 3.68364 0
M  V30 3575 H 364.063 2.32901 7.3687 0
M  V30 3576 H 362.408 2.08791 6.62896 0
M  V30 3577 H 365.599 1.12692 4.54333 0
M  V30 3578 H 365.772 1.80406 6.22381 0
M  V30 3579 N 359.178 -1.55987 0.224894 0
M  V30 3580 C 360.141 -2.19178 -0.670348 0
M  V30 3581 C 361.141 -1.15461 -1.11917 0
M  V30 3582 O 362.331 -1.40675 -1.02743 0
M  V30 3583 C 359.463 -2.81777 -1.9187 0
M  V30 3584 H 360.656 -2.99662 -0.119364 0
M  V30 3585 H 358.209 -1.5628 -0.0247128 0
M  V30 3586 H 358.944 -2.05172 -2.51147 0
M  V30 3587 H 358.729 -3.57732 -1.60531 0
M  V30 3588 H 360.219 -3.30205 -2.55645 0
M  V30 3589 N 360.656 0.0484629 -1.57525 0
M  V30 3590 C 361.886 0.754326 -1.92337 0
M  V30 3591 C 362.294 1.70443 -0.82132 0
M  V30 3592 O 361.637 1.82466 0.21254 0
M  V30 3593 C 361.699 1.58231 -3.22805 0
M  V30 3594 C 361.363 0.799074 -4.4996 0
M  V30 3595 C 362.36 0.1079 -5.19788 0
M  V30 3596 C 360.045 0.759345 -4.96527 0
M  V30 3597 C 362.039 -0.612516 -6.3445 0
M  V30 3598 C 359.726 0.0351713 -6.1109 0
M  V30 3599 C 360.724 -0.649537 -6.79904 0
M  V30 3600 O 360.412 -1.36199 -7.92278 0
M  V30 3601 H 360.144 0.218257 -0.639797 0
M  V30 3602 H 362.698 0.0159295 -2.05394 0
M  V30 3603 H 360.928 2.36406 -3.06021 0
M  V30 3604 H 362.617 2.16898 -3.43089 0
M  V30 3605 H 363.383 0.129748 -4.84826 0
M  V30 3606 H 359.262 1.28177 -4.42822 0
M  V30 3607 H 362.806 -1.14751 -6.88097 0
M  V30 3608 H 358.703 0.0113314 -6.45499 0
M  V30 3609 H 359.471 -1.27366 -8.0853 0
M  V30 3610 N 362.134 1.5431 0.320358 0
M  V30 3611 C 363.38 1.72924 1.05949 0
M  V30 3612 C 363.713 0.503185 1.87568 0
M  V30 3613 O 362.988 -0.499839 1.87968 0
M  V30 3614 C 363.271 3.00676 1.98156 0
M  V30 3615 C 363.124 4.3354 1.19845 0
M  V30 3616 C 364.443 3.24198 2.9763 0
M  V30 3617 H 361.562 0.629195 0.383774 0
M  V30 3618 H 364.204 1.87008 0.335854 0
M  V30 3619 H 362.354 2.888 2.59859 0
M  V30 3620 H 364.026 4.57305 0.605773 0
M  V30 3621 H 362.269 4.309 0.500784 0
M  V30 3622 H 362.94 5.19156 1.87567 0
M  V30 3623 H 365.416 3.35557 2.4605 0
M  V30 3624 H 364.292 4.14938 3.59329 0
M  V30 3625 H 364.553 2.41577 3.7026 0
M  V30 3626 N 363.613 -0.582584 1.46437 0
M  V30 3627 C 364.576 -1.67366 1.56592 0
M  V30 3628 C 365.576 -1.54575 0.443072 0
M  V30 3629 O 366.766 -1.59191 0.707381 0
M  V30 3630 C 363.898 -3.06791 1.48634 0
M  V30 3631 H 365.091 -1.5972 2.5383 0
M  V30 3632 H 362.644 -0.800432 1.34249 0
M  V30 3633 H 363.379 -3.19993 0.526763 0
M  V30 3634 H 363.164 -3.17484 2.30101 0
M  V30 3635 H 364.654 -3.86218 1.58826 0
M  V30 3636 N 365.091 -1.34144 -0.827227 0
M  V30 3637 C 366.001 -1.27428 -1.96975 0
M  V30 3638 C 367.017 -0.182728 -1.73038 0
M  V30 3639 O 368.193 -0.408426 -1.97215 0
M  V30 3640 C 365.258 -1.02526 -3.31194 0
M  V30 3641 C 364.319 -2.20796 -3.68168 0
M  V30 3642 C 363.552 -1.97073 -4.95982 0
M  V30 3643 O 363.775 -0.926822 -5.6282 0
M  V30 3644 O 362.709 -2.83912 -5.30733 0
M  V30 3645 H 366.535 -2.23537 -2.05584 0
M  V30 3646 H 364.12 -1.14307 -0.961989 0
M  V30 3647 H 366.002 -0.904026 -4.11589 0
M  V30 3648 H 364.677 -0.0945389 -3.23562 0
M  V30 3649 H 363.584 -2.38477 -2.88235 0
M  V30 3650 H 364.917 -3.12243 -3.8048 0
M  V30 3651 N 366.569 1.04691 -1.17803 0
M  V30 3652 C 367.815 1.78045 -0.970969 0
M  V30 3653 C 368.148 1.87686 0.498751 0
M  V30 3654 O 367.423 1.38035 1.37027 0
M  V30 3655 C 367.706 3.2166 -1.61884 0
M  V30 3656 C 367.559 3.20001 -3.161 0
M  V30 3657 C 368.878 4.1962 -1.3269 0
M  V30 3658 H 365.997 0.64633 -0.354155 0
M  V30 3659 H 368.639 1.22333 -1.45378 0
M  V30 3660 H 366.789 3.69232 -1.20831 0
M  V30 3661 H 368.461 2.80467 -3.66246 0
M  V30 3662 H 366.704 2.58203 -3.48588 0
M  V30 3663 H 367.375 4.21386 -3.56564 0
M  V30 3664 H 369.851 3.80567 -1.68249 0
M  V30 3665 H 368.727 5.18339 -1.80599 0
M  V30 3666 H 368.988 4.414 -0.248622 0
M  V30 3667 N 368.047 0.979072 1.23499 0
M  V30 3668 C 368.994 0.517904 2.24914 0
M  V30 3669 C 369.964 -0.442525 1.60097 0
M  V30 3670 O 371.149 -0.350365 1.87556 0
M  V30 3671 C 368.289 -0.174813 3.44657 0
M  V30 3672 C 367.402 0.825721 4.24035 0
M  V30 3673 C 366.537 0.107946 5.3109 0
M  V30 3674 C 365.576 1.09778 6.02175 0
M  V30 3675 N 364.713 0.40925 7.00906 0
M  V30 3676 H 369.553 1.38751 2.63727 0
M  V30 3677 H 367.09 0.695303 1.2963 0
M  V30 3678 H 369.048 -0.593233 4.12961 0
M  V30 3679 H 367.678 -1.0083 3.06648 0
M  V30 3680 H 366.73 1.36253 3.55161 0
M  V30 3681 H 368.042 1.58005 4.73113 0
M  V30 3682 H 367.196 -0.367904 6.05583 0
M  V30 3683 H 365.935 -0.678994 4.8295 0
M  V30 3684 H 364.94 1.5844 5.26476 0
M  V30 3685 H 366.165 1.88536 6.52404 0
M  V30 3686 H 364.111 -0.358506 6.5502 0
M  V30 3687 H 364.028 1.10226 7.47921 0
M  V30 3688 H 365.296 -0.0442557 7.79487 0
M  V30 3689 N 369.525 -1.3858 0.750561 0
M  V30 3690 C 370.488 -2.28836 0.129152 0
M  V30 3691 C 371.488 -1.47045 -0.650714 0
M  V30 3692 O 372.678 -1.6753 -0.477428 0
M  V30 3693 C 369.81 -3.30751 -0.825622 0
M  V30 3694 H 371.003 -2.85294 0.924516 0
M  V30 3695 H 368.556 -1.47489 0.517376 0
M  V30 3696 H 369.291 -2.79378 -1.64677 0
M  V30 3697 H 369.076 -3.91177 -0.268852 0
M  V30 3698 H 370.566 -3.98249 -1.2565 0
M  V30 3699 N 371.003 -0.499398 -1.49478 0
M  V30 3700 C 371.95 0.279881 -2.29097 0
M  V30 3701 C 372.92 0.961805 -1.3542 0
M  V30 3702 O 374.105 0.968777 -1.64376 0
M  V30 3703 C 371.245 1.33932 -3.18051 0
M  V30 3704 C 370.358 0.669333 -4.26783 0
M  V30 3705 C 369.493 1.70907 -5.02955 0
M  V30 3706 C 368.532 1.02087 -6.03527 0
M  V30 3707 N 367.669 2.00474 -6.7287 0
M  V30 3708 H 372.509 -0.405317 -2.95231 0
M  V30 3709 H 370.046 -0.211726 -1.45568 0
M  V30 3710 H 372.004 1.96553 -3.67998 0
M  V30 3711 H 370.634 1.9933 -2.53904 0
M  V30 3712 H 369.686 -0.0701234 -3.80335 0
M  V30 3713 H 370.998 0.127503 -4.98637 0
M  V30 3714 H 370.152 2.41037 -5.56764 0
M  V30 3715 H 368.891 2.28476 -4.30871 0
M  V30 3716 H 367.896 0.305338 -5.48951 0
M  V30 3717 H 369.121 0.451708 -6.77596 0
M  V30 3718 H 367.067 2.57007 -6.03559 0
M  V30 3719 H 366.984 1.51353 -7.40694 0
M  V30 3720 H 368.252 2.69897 -7.31284 0
M  V30 3721 N 372.481 1.55866 -0.233164 0
M  V30 3722 C 373.709 2.02998 0.399905 0
M  V30 3723 C 374.124 1.11274 1.52524 0
M  V30 3724 O 373.481 0.124528 1.82075 0
M  V30 3725 C 373.532 3.4958 0.920639 0
M  V30 3726 O 373.253 4.37808 -0.159834 0
M  V30 3727 C 374.754 4.12411 1.62578 0
M  V30 3728 H 371.974 0.664006 0.0966281 0
M  V30 3729 H 374.518 2.0143 -0.353013 0
M  V30 3730 H 372.673 3.51727 1.62379 0
M  V30 3731 H 373.087 5.23981 0.23337 0
M  V30 3732 H 374.561 5.16711 1.94201 0
M  V30 3733 H 375.038 3.5809 2.54299 0
M  V30 3734 H 375.644 4.14148 0.967553 0
M  V30 3735 N 373.959 -0.0401083 1.57549 0
M  V30 3736 C 375.206 -0.733125 1.88763 0
M  V30 3737 C 375.534 -1.75946 0.829058 0
M  V30 3738 O 374.789 -1.94949 -0.171323 0
M  V30 3739 C 375.088 -1.44902 3.26708 0
M  V30 3740 C 374.754 -0.559707 4.47413 0
M  V30 3741 C 373.416 -0.314731 4.8017 0
M  V30 3742 C 375.768 0.0549743 5.21171 0
M  V30 3743 C 373.096 0.553886 5.8408 0
M  V30 3744 C 375.448 0.911229 6.26003 0
M  V30 3745 C 374.112 1.16577 6.57241 0
M  V30 3746 H 373.382 -0.268269 0.690733 0
M  V30 3747 H 376.029 0.00679408 1.91499 0
M  V30 3748 H 374.334 -2.26197 3.1991 0
M  V30 3749 H 376.031 -1.99058 3.48105 0
M  V30 3750 H 372.621 -0.760793 4.21794 0
M  V30 3751 H 376.805 -0.121344 4.96152 0
M  V30 3752 H 372.061 0.759518 6.06664 0
M  V30 3753 H 376.235 1.3941 6.82303 0
M  V30 3754 H 373.862 1.84058 7.37582 0
M  V30 3755 N 375.437 -1.54477 -0.31217 0
M  V30 3756 C 376.848 -1.64344 -0.885891 0
M  V30 3757 C 377.199 -0.54485 -1.88483 0
M  V30 3758 O 376.324 0.320387 -2.14015 0
M  V30 3759 C 376.919 -2.97908 -1.61357 0
M  V30 3760 C 375.478 -3.09933 -2.13585 0
M  V30 3761 C 374.625 -2.59971 -0.964897 0
M  V30 3762 H 377.576 -1.58448 -0.0894528 0
M  V30 3763 H 377.597 -2.88706 -2.47848 0
M  V30 3764 H 377.109 -3.77845 -0.886277 0
M  V30 3765 H 375.21 -2.34694 -2.89395 0
M  V30 3766 H 375.323 -4.15916 -2.37804 0
M  V30 3767 H 373.687 -2.16147 -1.34731 0
M  V30 3768 H 374.47 -3.42376 -0.251742 0
M  V30 3769 N 376.915 0.57481 -1.46744 0
M  V30 3770 C 377.878 1.66533 -1.57478 0
M  V30 3771 C 378.878 1.54338 -0.451263 0
M  V30 3772 O 380.068 1.58814 -0.715813 0
M  V30 3773 C 377.2 3.05999 -1.50259 0
M  V30 3774 H 378.393 1.58372 -2.54673 0
M  V30 3775 H 375.946 0.793301 -1.34672 0
M  V30 3776 H 376.681 3.19709 -0.543725 0
M  V30 3777 H 376.466 3.16259 -2.31781 0
M  V30 3778 H 377.956 3.8537 -1.60872 0
M  V30 3779 N 378.394 1.34581 0.820102 0
M  V30 3780 C 379.357 1.2628 1.91275 0
M  V30 3781 C 380.357 0.177344 1.59819 0
M  V30 3782 O 381.547 0.430156 1.68806 0
M  V30 3783 C 378.679 0.950327 3.27386 0
M  V30 3784 H 379.872 2.23421 2.00057 0
M  V30 3785 H 377.425 1.1891 1.0144 0
M  V30 3786 H 378.16 -0.0177938 3.24295 0
M  V30 3787 H 377.945 1.73549 3.51601 0
M  V30 3788 H 379.435 0.917492 4.07396 0
M  V30 3789 N 379.872 -1.04064 1.18357 0
M  V30 3790 C 380.782 -2.15569 0.925596 0
M  V30 3791 C 381.798 -1.7365 -0.110295 0
M  V30 3792 O 382.974 -2.01273 0.0716218 0
M  V30 3793 C 380.039 -3.43704 0.454836 0
M  V30 3794 C 379.1 -4.00004 1.55869 0
M  V30 3795 C 378.333 -5.22023 1.1103 0
M  V30 3796 O 378.556 -5.70392 -0.0309756 0
M  V30 3797 O 377.49 -5.70856 1.90805 0
M  V30 3798 H 381.316 -2.40187 1.8586 0
M  V30 3799 H 378.901 -1.1402 0.965394 0
M  V30 3800 H 380.783 -4.20923 0.200382 0
M  V30 3801 H 379.458 -3.20559 -0.449876 0
M  V30 3802 H 378.365 -3.24172 1.86716 0
M  V30 3803 H 379.698 -4.2749 2.43953 0
M  V30 3804 N 381.35 -0.985608 -1.22978 0
M  V30 3805 C 382.3 -0.50118 -2.22423 0
M  V30 3806 C 383.284 0.426649 -1.5514 0
M  V30 3807 O 384.476 0.254656 -1.75159 0
M  V30 3808 C 381.605 0.190003 -3.42774 0
M  V30 3809 C 380.691 -0.757703 -4.17276 0
M  V30 3810 N 381.082 -1.90251 -4.68656 0
M  V30 3811 C 379.38 -0.57209 -4.42316 0
M  V30 3812 C 380.081 -2.49676 -5.25392 0
M  V30 3813 N 379.057 -1.78013 -5.13627 0
M  V30 3814 H 382.859 -1.37441 -2.59783 0
M  V30 3815 H 380.373 -0.846941 -1.38567 0
M  V30 3816 H 382.37 0.55439 -4.13197 0
M  V30 3817 H 381.03 1.05946 -3.06929 0
M  V30 3818 H 382.041 -2.28354 -4.64839 0
M  V30 3819 H 378.718 0.251909 -4.16739 0
M  V30 3820 H 380.108 -3.46384 -5.75732 0
M  V30 3821 N 382.828 1.3818 -0.7579 0
M  V30 3822 C 384.077 1.99261 -0.312744 0
M  V30 3823 C 384.39 1.60846 1.11301 0
M  V30 3824 O 385.596 2.14929 1.65885 0
M  V30 3825 C 384.052 3.56294 -0.50821 0
M  V30 3826 C 383.66 4.03657 -1.94333 0
M  V30 3827 C 385.404 4.24313 -0.125982 0
M  V30 3828 C 383.311 5.53347 -2.08712 0
M  V30 3829 H 382.241 0.745456 -0.113185 0
M  V30 3830 H 384.892 1.57889 -0.935056 0
M  V30 3831 H 383.274 3.95575 0.183353 0
M  V30 3832 H 384.448 3.75655 -2.66871 0
M  V30 3833 H 382.763 3.48376 -2.28086 0
M  V30 3834 H 385.36 5.34279 -0.212125 0
M  V30 3835 H 385.703 4.05962 0.921964 0
M  V30 3836 H 386.236 3.90285 -0.769563 0
M  V30 3837 H 382.975 5.76607 -3.11777 0
M  V30 3838 H 382.495 5.83078 -1.4064 0
M  V30 3839 H 384.174 6.19111 -1.87912 0
M  V30 3840 N 384.306 0.507319 1.49211 0
M  V30 3841 C 385.553 -0.0349529 2.0247 0
M  V30 3842 C 385.881 -1.36409 1.38647 0
M  V30 3843 O 385.136 -1.88841 0.513566 0
M  V30 3844 C 385.435 -0.229513 3.56662 0
M  V30 3845 C 385.101 1.02241 4.39156 0
M  V30 3846 C 383.763 1.36557 4.61417 0
M  V30 3847 C 386.115 1.85428 4.871 0
M  V30 3848 C 383.443 2.53999 5.28868 0
M  V30 3849 C 385.795 3.02028 5.55843 0
M  V30 3850 C 384.459 3.36717 5.76349 0
M  V30 3851 H 383.729 -0.0127902 0.74089 0
M  V30 3852 H 386.376 0.668756 1.79443 0
M  V30 3853 H 384.681 -1.0158 3.78403 0
M  V30 3854 H 386.378 -0.663641 3.9547 0
M  V30 3855 H 382.968 0.745124 4.22073 0
M  V30 3856 H 387.152 1.6023 4.69723 0
M  V30 3857 H 382.408 2.81105 5.42946 0
M  V30 3858 H 386.582 3.66808 5.91967 0
M  V30 3859 H 384.209 4.27821 6.28389 0
M  V30 3860 N 385.784 -1.5574 0.241426 0
M  V30 3861 C 386.747 -2.19877 -0.647063 0
M  V30 3862 C 387.747 -1.16642 -1.10686 0
M  V30 3863 O 388.937 -1.41757 -1.01245 0
M  V30 3864 C 386.069 -2.83797 -1.88871 0
M  V30 3865 H 387.262 -2.99772 -0.087574 0
M  V30 3866 H 384.815 -1.56298 -0.00813574 0
M  V30 3867 H 385.55 -2.07824 -2.48957 0
M  V30 3868 H 385.335 -3.59414 -1.56728 0
M  V30 3869 H 386.825 -3.32898 -2.52129 0
M  V30 3870 N 387.262 0.0317525 -1.57568 0
M  V30 3871 C 388.539 0.758366 -1.803 0
M  V30 3872 C 388.919 1.93718 -0.838845 0
M  V30 3873 O 388.267 2.28187 0.119571 0
M  V30 3874 C 388.477 1.19392 -3.27943 0
M  V30 3875 C 389.825 1.61094 -3.92854 0
M  V30 3876 O 390.849 1.28857 -3.32076 0
M  V30 3877 O 389.708 2.20918 -4.99858 0
M  V30 3878 H 386.802 0.366514 -0.741348 0
M  V30 3879 H 389.348 0.00873765 -1.69698 0
M  V30 3880 H 388.12 0.352275 -3.89711 0
M  V30 3881 H 387.743 2.00365 -3.43424 0
M  V30 3882 O 388.779 1.60553 0.174647 0
M  V30 3883 H 389.47 1.75876 0.811619 0
M  V30 END ATOM
M  V30 BEGIN BOND
M  V30 END BOND
M  V30 END CTAB
M  END
$$$$
