drugbank_target|Q9K597 Membrane protein (DB02415; DB04233)
 OpenBabel12092120443D

  0  0  0     0  0            999 V3000
M  V30 BEGIN CTAB
M  V30 COUNTS 5504 5566 0 0 0
M  V30 BEGIN ATOM
M  V30 1 H -0.908 1.98254 -0.117106 0
M  V30 2 N 0 1.576 0 0
M  V30 3 C 0.933 2.03868 1.02534 0
M  V30 4 C 1.911 0.928543 1.3348 0
M  V30 5 O 3.095 1.19667 1.45644 0
M  V30 6 C 0.222 2.43627 2.35294 0
M  V30 7 C -0.732 3.65373 2.2001 0
M  V30 8 S 0.101 5.13292 1.52614 0
M  V30 9 C 1.257 5.56322 2.86805 0
M  V30 10 H 1.49 2.90518 0.631377 0
M  V30 11 H -0.977 1.52953 0.210867 0
M  V30 12 H 0.981 2.67203 3.11629 0
M  V30 13 H -0.358 1.57376 2.7183 0
M  V30 14 H -1.165 3.90944 3.18086 0
M  V30 15 H -1.563 3.418 1.51819 0
M  V30 16 H 0.729 5.58782 3.83104 0
M  V30 17 H 1.672 6.56266 2.65933 0
M  V30 18 H 2.08 4.83886 2.90714 0
M  V30 19 N 1.4781 -0.272755 1.55222 0
M  V30 20 C 2.4251 -1.33716 1.88119 0
M  V30 21 C 3.3951 -1.49066 0.73271 0
M  V30 22 O 4.5801 -1.63469 0.984002 0
M  V30 23 C 1.7201 -2.69238 2.15882 0
M  V30 24 C 0.8331 -2.62108 3.43399 0
M  V30 25 C -0.0319 -3.89811 3.60861 0
M  V30 26 C -0.9929 -3.77193 4.8207 0
M  V30 27 N -1.8559 -4.9673 4.96189 0
M  V30 28 H 2.9841 -1.04962 2.78903 0
M  V30 29 H 0.5211 -0.507088 1.38083 0
M  V30 30 H 2.4791 -3.48089 2.29978 0
M  V30 31 H 1.1091 -2.96194 1.28331 0
M  V30 32 H 0.1611 -1.74967 3.37773 0
M  V30 33 H 1.4731 -2.48685 4.32386 0
M  V30 34 H 0.6271 -4.77103 3.74777 0
M  V30 35 H -0.6339 -4.06102 2.7006 0
M  V30 36 H -1.6289 -2.88284 4.68159 0
M  V30 37 H -0.4039 -3.62421 5.74307 0
M  V30 38 H -2.4579 -5.13431 4.08319 0
M  V30 39 H -2.5409 -4.85839 5.79221 0
M  V30 40 H -1.2729 -5.85594 5.1449 0
M  V30 41 N 2.9562 -1.48159 -0.537278 0
M  V30 42 C 4.2022 -1.56035 -1.29541 0
M  V30 43 C 4.5352 -0.230377 -1.92829 0
M  V30 44 O 3.8102 0.762952 -1.78911 0
M  V30 45 C 4.0932 -2.69323 -2.39034 0
M  V30 46 C 3.9462 -4.12002 -1.80485 0
M  V30 47 C 5.2652 -2.78408 -3.40847 0
M  V30 48 H 2.3842 -0.567992 -0.469632 0
M  V30 49 H 5.0262 -1.80302 -0.599277 0
M  V30 50 H 3.1762 -2.48763 -2.98412 0
M  V30 51 H 4.8482 -4.43981 -1.25215 0
M  V30 52 H 3.0912 -4.19344 -1.11055 0
M  V30 53 H 3.7622 -4.87077 -2.59731 0
M  V30 54 H 6.2382 -2.97012 -2.91416 0
M  V30 55 H 5.1142 -3.59416 -4.14863 0
M  V30 56 H 5.3752 -1.86269 -4.00944 0
M  V30 57 N 4.4343 0.785586 -1.36625 0
M  V30 58 C 5.3813 1.89838 -1.31264 0
M  V30 59 C 6.3513 1.65115 -0.180633 0
M  V30 60 O 7.5363 1.87222 -0.36777 0
M  V30 61 C 4.6763 3.26706 -1.11163 0
M  V30 62 C 3.7893 3.63476 -2.33472 0
M  V30 63 C 2.9243 4.89481 -2.06353 0
M  V30 64 C 1.9633 5.18941 -3.24602 0
M  V30 65 N 1.1003 6.36131 -2.97123 0
M  V30 66 H 5.9403 1.93756 -2.26413 0
M  V30 67 H 3.4773 0.947454 -1.12524 0
M  V30 68 H 5.4353 4.05639 -0.975337 0
M  V30 69 H 4.0653 3.222 -0.196674 0
M  V30 70 H 3.1173 2.79636 -2.57891 0
M  V30 71 H 4.4293 3.81193 -3.21704 0
M  V30 72 H 3.5833 5.76288 -1.89675 0
M  V30 73 H 2.3223 4.73841 -1.15437 0
M  V30 74 H 1.3273 4.30615 -3.41834 0
M  V30 75 H 2.5523 5.36498 -4.16349 0
M  V30 76 H 0.4983 6.21875 -2.08823 0
M  V30 77 H 0.4153 6.54198 -3.78894 0
M  V30 78 H 1.6833 7.2591 -2.84033 0
M  V30 79 N 5.9124 1.20967 1.01018 0
M  V30 80 C 7.1584 1.02526 1.74975 0
M  V30 81 C 7.4914 -0.4408 1.89131 0
M  V30 82 O 6.7664 -1.32718 1.42184 0
M  V30 83 C 7.0494 1.71699 3.1653 0
M  V30 84 C 6.9024 3.25791 3.10129 0
M  V30 85 C 8.2214 1.45531 4.15342 0
M  V30 86 H 5.3404 0.373863 0.635134 0
M  V30 87 H 7.9824 1.49071 1.17805 0
M  V30 88 H 6.1324 1.32128 3.65341 0
M  V30 89 H 7.8044 3.74697 2.69072 0
M  V30 90 H 6.0474 3.56363 2.47362 0
M  V30 91 H 6.7184 3.69353 4.10222 0
M  V30 92 H 9.1944 1.79872 3.75213 0
M  V30 93 H 8.0704 1.96453 5.1254 0
M  V30 94 H 8.3314 0.384237 4.40427 0
M  V30 95 N 7.3905 -1.2043 1.01659 0
M  V30 96 C 8.3205 -2.25466 0.607226 0
M  V30 97 C 9.3015 -1.65853 -0.377716 0
M  V30 98 O 10.4865 -1.92409 -0.263149 0
M  V30 99 C 7.6165 -3.47256 -0.0552949 0
M  V30 100 C 6.5705 -4.19462 0.850632 0
M  V30 101 C 5.8965 -5.34673 0.0538859 0
M  V30 102 C 7.1965 -4.75603 2.15868 0
M  V30 103 H 8.8905 -2.59962 1.48526 0
M  V30 104 H 6.4365 -1.2496 0.715605 0
M  V30 105 H 8.3895 -4.19917 -0.353233 0
M  V30 106 H 7.1135 -3.11924 -0.968045 0
M  V30 107 H 5.7725 -3.48667 1.13257 0
M  V30 108 H 5.4205 -4.95585 -0.860514 0
M  V30 109 H 5.1205 -5.83913 0.657192 0
M  V30 110 H 6.6445 -6.10138 -0.237598 0
M  V30 111 H 8.0585 -5.40083 1.92311 0
M  V30 112 H 6.4555 -5.3528 2.71284 0
M  V30 113 H 7.5255 -3.94346 2.82169 0
M  V30 114 N 8.8686 -0.792821 -1.36206 0
M  V30 115 C 10.0936 -0.377701 -2.03932 0
M  V30 116 C 10.5186 0.998947 -1.59382 0
M  V30 117 O 9.8766 1.64421 -0.763903 0
M  V30 118 C 9.9246 -0.453635 -3.57735 0
M  V30 119 O 9.0286 0.538151 -4.08874 0
M  V30 120 H 8.3696 -0.159855 -0.644471 0
M  V30 121 H 10.8996 -1.07488 -1.7409 0
M  V30 122 H 10.9096 -0.318464 -4.06755 0
M  V30 123 H 9.5846 -1.45784 -3.89512 0
M  V30 124 H 8.1616 0.364359 -3.71116 0
M  V30 125 N 10.3467 1.47872 -0.545128 0
M  V30 126 C 11.2767 2.32661 0.197793 0
M  V30 127 C 12.2577 1.43041 0.920504 0
M  V30 128 O 13.4427 1.71912 0.90333 0
M  V30 129 C 10.5727 3.24569 1.23582 0
M  V30 130 C 9.5267 4.23333 0.630323 0
M  V30 131 C 8.8527 5.0448 1.77211 0
M  V30 132 C 10.1527 5.20704 -0.407974 0
M  V30 133 H 11.8467 2.95024 -0.510045 0
M  V30 134 H 9.3927 1.4187 -0.246731 0
M  V30 135 H 11.3457 3.8272 1.76362 0
M  V30 136 H 10.0697 2.60236 1.97344 0
M  V30 137 H 8.7287 3.6639 0.123922 0
M  V30 138 H 8.3767 4.36561 2.49847 0
M  V30 139 H 8.0767 5.71339 1.37281 0
M  V30 140 H 9.6007 5.65487 2.3034 0
M  V30 141 H 11.0147 5.7329 0.033305 0
M  V30 142 H 9.4117 5.95699 -0.725486 0
M  V30 143 H 10.4817 4.66917 -1.30828 0
M  V30 144 N 11.8248 0.280983 1.55075 0
M  V30 145 C 12.7548 -0.597469 2.25727 0
M  V30 146 C 13.7358 -1.15417 1.24952 0
M  V30 147 O 14.9208 -1.18722 1.53684 0
M  V30 148 C 12.0508 -1.7789 2.98283 0
M  V30 149 C 11.0048 -1.35347 4.06036 0
M  V30 150 C 10.3308 -2.61846 4.66198 0
M  V30 151 C 11.6308 -0.499354 5.19907 0
M  V30 152 H 13.3248 -0.00824265 2.99399 0
M  V30 153 H 10.8708 -0.0025244 1.44 0
M  V30 154 H 12.8238 -2.39937 3.46422 0
M  V30 155 H 11.5478 -2.39405 2.22155 0
M  V30 156 H 10.2068 -0.756156 3.58717 0
M  V30 157 H 9.8548 -3.21632 3.86732 0
M  V30 158 H 9.5548 -2.3409 5.38958 0
M  V30 159 H 11.0788 -3.24732 5.1709 0
M  V30 160 H 12.4928 -1.02498 5.64063 0
M  V30 161 H 10.8898 -0.316424 5.99265 0
M  V30 162 H 11.9598 0.480459 4.82514 0
M  V30 163 N 13.3029 -1.57598 0.00835791 0
M  V30 164 C 14.5489 -1.91211 -0.675732 0
M  V30 165 C 14.8819 -0.883139 -1.72958 0
M  V30 166 O 14.1569 0.097016 -1.94258 0
M  V30 167 C 14.4399 -3.35379 -1.31123 0
M  V30 168 C 14.2929 -4.48999 -0.268356 0
M  V30 169 C 15.6119 -3.7912 -2.23508 0
M  V30 170 H 12.7309 -0.695374 -0.244179 0
M  V30 171 H 15.3729 -1.89901 0.0613655 0
M  V30 172 H 13.5229 -3.36626 -1.93946 0
M  V30 173 H 15.1949 -4.59887 0.360844 0
M  V30 174 H 13.4379 -4.31873 0.408482 0
M  V30 175 H 14.1089 -5.46851 -0.752218 0
M  V30 176 H 16.5849 -3.79477 -1.70693 0
M  V30 177 H 15.4609 -4.80729 -2.64936 0
M  V30 178 H 15.7219 -3.13455 -3.11766 0
M  V30 179 N 14.781 0.264519 -1.55364 0
M  V30 180 C 16.192 0.834936 -1.6699 0
M  V30 181 C 16.543 1.86718 -0.602552 0
M  V30 182 O 15.668 2.14899 0.254425 0
M  V30 183 C 16.263 1.5212 -3.02729 0
M  V30 184 C 14.822 2.03954 -3.16354 0
M  V30 185 C 13.969 0.884498 -2.62815 0
M  V30 186 H 16.92 0.0406869 -1.58648 0
M  V30 187 H 16.941 2.38853 -2.96191 0
M  V30 188 H 16.453 0.769668 -3.80392 0
M  V30 189 H 14.554 2.82041 -2.43482 0
M  V30 190 H 14.667 2.24902 -4.23032 0
M  V30 191 H 13.031 1.2802 -2.20188 0
M  V30 192 H 13.814 0.14634 -3.42988 0
M  V30 193 N 16.2591 1.48442 0.529413 0
M  V30 194 C 17.2221 1.62524 1.61612 0
M  V30 195 C 18.2221 0.498509 1.52877 0
M  V30 196 O 19.4121 0.76431 1.56537 0
M  V30 197 C 16.5441 1.59597 3.01233 0
M  V30 198 H 17.7371 2.59423 1.50465 0
M  V30 199 H 15.2901 1.37047 0.751514 0
M  V30 200 H 16.0251 0.641781 3.17886 0
M  V30 201 H 15.8101 2.41397 3.08982 0
M  V30 202 H 17.3001 1.72646 3.80241 0
M  V30 203 N 17.7372 -0.778329 1.37039 0
M  V30 204 C 18.6672 -1.90546 1.34962 0
M  V30 205 C 19.6482 -1.68681 0.219274 0
M  V30 206 O 20.8332 -1.89634 0.418624 0
M  V30 207 C 17.9632 -3.27734 1.14925 0
M  V30 208 C 16.9172 -3.64147 2.24902 0
M  V30 209 C 16.2432 -4.99806 1.89996 0
M  V30 210 C 17.5432 -3.71579 3.67051 0
M  V30 211 H 19.2372 -1.92541 2.29277 0
M  V30 212 H 16.7832 -0.924948 1.10366 0
M  V30 213 H 18.7362 -4.06215 1.12104 0
M  V30 214 H 17.4602 -3.26154 0.170631 0
M  V30 215 H 16.1192 -2.8797 2.26868 0
M  V30 216 H 15.7672 -4.94759 0.906796 0
M  V30 217 H 15.4672 -5.25139 2.63634 0
M  V30 218 H 16.9912 -5.80694 1.88749 0
M  V30 219 H 18.4052 -4.40227 3.67251 0
M  V30 220 H 16.8022 -4.08405 4.39688 0
M  V30 221 H 17.8722 -2.72404 4.01154 0
M  V30 222 N 19.2153 -1.21501 -1.00376 0
M  V30 223 C 20.1453 -0.999478 -2.11028 0
M  V30 224 C 21.1263 0.0759671 -1.6993 0
M  V30 225 O 22.3113 -0.0841106 -1.94018 0
M  V30 226 C 19.4413 -0.564709 -3.42678 0
M  V30 227 C 18.3953 -1.58486 -3.97576 0
M  V30 228 C 17.7213 -1.00628 -5.25146 0
M  V30 229 C 19.0213 -2.97204 -4.29496 0
M  V30 230 H 20.7153 -1.92495 -2.29317 0
M  V30 231 H 18.2613 -0.92693 -1.102 0
M  V30 232 H 20.2143 -0.401091 -4.19487 0
M  V30 233 H 18.9383 0.396411 -3.24185 0
M  V30 234 H 17.5973 -1.73606 -3.22888 0
M  V30 235 H 17.2453 -0.0368439 -5.02987 0
M  V30 236 H 16.9453 -1.68771 -5.62841 0
M  V30 237 H 18.4693 -0.854015 -6.04598 0
M  V30 238 H 19.8833 -2.8552 -4.97143 0
M  V30 239 H 18.2803 -3.62372 -4.78338 0
M  V30 240 H 19.3503 -3.47956 -3.3772 0
M  V30 241 N 20.6934 1.19889 -1.02296 0
M  V30 242 C 21.9394 1.89701 -0.717033 0
M  V30 243 C 22.2724 1.7905 0.751989 0
M  V30 244 O 21.5474 1.17891 1.547 0
M  V30 245 C 21.8304 3.40858 -1.16136 0
M  V30 246 C 21.6834 3.60411 -2.69117 0
M  V30 247 C 23.0024 4.33876 -0.737549 0
M  V30 248 H 20.1214 0.688874 -0.261957 0
M  V30 249 H 22.7634 1.41154 -1.27183 0
M  V30 250 H 20.9134 3.82335 -0.689342 0
M  V30 251 H 22.5854 3.28145 -3.2422 0
M  V30 252 H 20.8284 3.03665 -3.0979 0
M  V30 253 H 21.4994 4.66396 -2.95261 0
M  V30 254 H 23.9754 4.00081 -1.14344 0
M  V30 255 H 22.8514 5.38242 -1.0764 0
M  V30 256 H 23.1124 4.40628 0.360436 0
M  V30 257 N 22.1715 0.800033 1.35784 0
M  V30 258 C 23.1345 0.211565 2.28221 0
M  V30 259 C 24.1345 -0.59728 1.49296 0
M  V30 260 O 25.3245 -0.416721 1.69142 0
M  V30 261 C 22.4565 -0.705846 3.33513 0
M  V30 262 H 23.6495 1.02677 2.81776 0
M  V30 263 H 21.2025 0.570211 1.45528 0
M  V30 264 H 21.9375 -1.54498 2.85133 0
M  V30 265 H 21.7225 -0.127655 3.91892 0
M  V30 266 H 23.2125 -1.11211 4.02519 0
M  V30 267 N 23.6496 -1.47581 0.552962 0
M  V30 268 C 24.8976 -2.02082 0.0272703 0
M  V30 269 C 25.2186 -1.4301 -1.32563 0
M  V30 270 O 24.4886 -0.603745 -1.86365 0
M  V30 271 H 23.0686 -0.746966 0.00709182 0
M  V30 272 H 25.7306 -1.81033 0.722008 0
M  V30 273 H 24.8266 -3.12034 -0.0639951 0
M  V30 274 N 25.1277 -0.289203 -1.54924 0
M  V30 275 C 26.0907 0.579144 -2.21762 0
M  V30 276 C 27.0907 1.07047 -1.1999 0
M  V30 277 O 28.2807 0.968384 -1.44803 0
M  V30 278 C 25.4127 1.80055 -2.8947 0
M  V30 279 H 26.6057 -0.00464908 -2.999 0
M  V30 280 H 24.1587 -0.0399306 -1.56249 0
M  V30 281 H 24.8937 2.42449 -2.15381 0
M  V30 282 H 24.6787 1.45602 -3.64064 0
M  V30 283 H 26.1687 2.41773 -3.40493 0
M  V30 284 N 26.6058 1.57591 -0.0167156 0
M  V30 285 C 27.5688 2.08393 0.954204 0
M  V30 286 C 28.5688 0.996531 1.26198 0
M  V30 287 O 29.7588 1.25858 1.20438 0
M  V30 288 C 26.8908 2.5394 2.27436 0
M  V30 289 H 28.0838 2.95455 0.514451 0
M  V30 290 H 25.6368 1.54582 0.231089 0
M  V30 291 H 26.3718 1.70171 2.76066 0
M  V30 292 H 26.1568 3.33371 2.06412 0
M  V30 293 H 27.6468 2.93512 2.97053 0
M  V30 294 N 28.0839 -0.256276 1.55502 0
M  V30 295 C 29.0319 -1.33694 1.90338 0
M  V30 296 C 30.0259 -1.50299 0.781441 0
M  V30 297 O 31.2319 -1.51885 0.965966 0
M  V30 298 H 27.6069 -0.447483 0.60437 0
M  V30 299 H 29.5779 -1.01574 2.8058 0
M  V30 300 C 28.3269 -2.68724 2.20642 0
M  V30 301 H 27.6499 -2.56743 3.06469 0
M  V30 302 H 29.0899 -3.43237 2.48926 0
M  V30 303 C 27.5489 -3.21101 1.01959 0
M  V30 304 O 28.0789 -4.0084 0.262762 0
M  V30 305 N 26.2849 -2.79003 0.812746 0
M  V30 306 H 25.8319 -2.14271 1.42989 0
M  V30 307 H 25.7899 -3.14393 0.0203076 0
M  V30 308 N 29.562 -1.4872 -0.521534 0
M  V30 309 C 30.525 -1.63379 -1.60748 0
M  V30 310 C 31.525 -0.50661 -1.52611 0
M  V30 311 O 32.715 -0.772601 -1.5613 0
M  V30 312 C 29.847 -1.61192 -3.00383 0
M  V30 313 H 31.04 -2.60217 -1.49087 0
M  V30 314 H 28.593 -1.37444 -0.744235 0
M  V30 315 H 29.328 -0.65863 -3.17541 0
M  V30 316 H 29.113 -2.43032 -3.07698 0
M  V30 317 H 30.603 -1.7466 -3.7932 0
M  V30 318 N 31.0401 0.771051 -1.3745 0
M  V30 319 C 32.0031 1.86598 -1.33093 0
M  V30 320 C 33.0031 1.59076 -0.234845 0
M  V30 321 O 34.1931 1.67145 -0.490732 0
M  V30 322 C 31.3251 3.23747 -1.06773 0
M  V30 323 H 32.5181 1.91873 -2.30488 0
M  V30 324 H 30.0711 0.970876 -1.2249 0
M  V30 325 H 30.8061 3.24148 -0.099129 0
M  V30 326 H 30.5911 3.45115 -1.86112 0
M  V30 327 H 32.0811 4.03824 -1.06377 0
M  V30 328 N 32.5182 1.22032 0.997298 0
M  V30 329 C 33.4282 1.00271 2.12092 0
M  V30 330 C 34.4442 -0.047621 1.73935 0
M  V30 331 O 35.6202 0.144136 2.00884 0
M  V30 332 C 32.6852 0.578449 3.4184 0
M  V30 333 C 31.7462 1.70189 3.94125 0
M  V30 334 C 30.9792 1.29778 5.17681 0
M  V30 335 O 31.2022 0.174676 5.70132 0
M  V30 336 O 30.1362 2.11261 5.63607 0
M  V30 337 H 33.9622 1.94398 2.3333 0
M  V30 338 H 31.5472 1.00587 1.10465 0
M  V30 339 H 33.4292 0.351998 4.19927 0
M  V30 340 H 32.1042 -0.334019 3.21972 0
M  V30 341 H 31.0112 1.98282 3.1723 0
M  V30 342 H 32.3442 2.59206 4.18417 0
M  V30 343 N 33.9963 -1.19345 1.0293 0
M  V30 344 C 35.2453 -1.88363 0.721256 0
M  V30 345 C 35.5583 -1.80514 -0.753254 0
M  V30 346 O 36.7643 -2.44788 -1.17436 0
M  V30 347 C 35.2203 -3.37872 1.23978 0
M  V30 348 C 34.8283 -3.54278 2.74211 0
M  V30 349 C 36.5723 -4.12365 1.00775 0
M  V30 350 C 34.4793 -4.97682 3.19479 0
M  V30 351 H 33.4093 -0.705484 0.266098 0
M  V30 352 H 36.0603 -1.34928 1.24365 0
M  V30 353 H 34.4423 -3.90707 0.6453 0
M  V30 354 H 35.6163 -3.11769 3.39318 0
M  V30 355 H 33.9313 -2.93174 2.95699 0
M  V30 356 H 36.5283 -5.18119 1.32123 0
M  V30 357 H 36.8713 -4.16263 -0.0554308 0
M  V30 358 H 37.4043 -3.65668 1.56625 0
M  V30 359 H 34.1433 -4.98945 4.25128 0
M  V30 360 H 33.6633 -5.4095 2.591 0
M  V30 361 H 35.3423 -5.66337 3.12845 0
M  V30 362 N 35.4744 -0.807222 -1.35358 0
M  V30 363 C 36.7044 -0.399796 -2.02695 0
M  V30 364 C 37.1124 0.994176 -1.60974 0
M  V30 365 O 36.4554 1.65209 -0.803226 0
M  V30 366 C 36.5174 -0.404445 -3.57218 0
M  V30 367 C 36.1814 -1.74904 -4.22206 0
M  V30 368 C 37.1784 -2.70743 -4.4384 0
M  V30 369 C 34.8634 -2.03322 -4.5931 0
M  V30 370 C 36.8574 -3.93183 -5.01683 0
M  V30 371 C 34.5444 -3.26026 -5.16866 0
M  V30 372 C 35.5424 -4.20774 -5.37994 0
M  V30 373 O 35.2304 -5.41312 -5.94337 0
M  V30 374 H 34.9624 -0.160517 -0.656666 0
M  V30 375 H 37.5164 -1.09235 -1.73945 0
M  V30 376 H 35.7464 0.344707 -3.85161 0
M  V30 377 H 37.4354 -0.0192429 -4.05895 0
M  V30 378 H 38.2014 -2.5008 -4.15554 0
M  V30 379 H 34.0804 -1.30384 -4.42178 0
M  V30 380 H 37.6244 -4.6715 -5.1809 0
M  V30 381 H 33.5214 -3.46559 -5.44579 0
M  V30 382 H 34.2894 -5.42618 -6.12787 0
M  V30 383 N 36.9525 1.47285 -0.560781 0
M  V30 384 C 37.9005 2.31756 0.197942 0
M  V30 385 C 38.8945 1.43146 0.905854 0
M  V30 386 O 40.1005 1.59891 0.826733 0
M  V30 387 H 36.4755 0.747438 0.0827049 0
M  V30 388 H 38.4465 2.9359 -0.533629 0
M  V30 389 C 37.1955 3.25874 1.21249 0
M  V30 390 H 36.5185 3.94023 0.67719 0
M  V30 391 H 37.9585 3.87803 1.71419 0
M  V30 392 C 36.4175 2.49651 2.26221 0
M  V30 393 O 36.9475 2.24355 3.33208 0
M  V30 394 N 35.1535 2.10597 2.00243 0
M  V30 395 H 34.7005 2.31369 1.13252 0
M  V30 396 H 34.6585 1.59913 2.70694 0
M  V30 397 N 38.4306 0.297415 1.54768 0
M  V30 398 C 39.3776 -0.580276 2.23386 0
M  V30 399 C 40.3476 -1.13238 1.21517 0
M  V30 400 O 41.5326 -1.17757 1.50126 0
M  V30 401 C 38.6726 -1.74801 2.97555 0
M  V30 402 C 37.7856 -1.22764 4.1419 0
M  V30 403 C 36.9206 -2.35895 4.75949 0
M  V30 404 C 35.9596 -1.80974 5.84735 0
M  V30 405 N 35.0966 -2.87664 6.40464 0
M  V30 406 H 39.9366 0.0114833 2.97998 0
M  V30 407 H 37.4736 0.0174361 1.4709 0
M  V30 408 H 39.4316 -2.43475 3.38786 0
M  V30 409 H 38.0616 -2.31145 2.25326 0
M  V30 410 H 37.1136 -0.433271 3.77924 0
M  V30 411 H 38.4256 -0.785551 4.92575 0
M  V30 412 H 37.5796 -3.12523 5.20014 0
M  V30 413 H 36.3186 -2.83429 3.96887 0
M  V30 414 H 35.3236 -1.02834 5.40097 0
M  V30 415 H 36.5486 -1.34348 6.65678 0
M  V30 416 H 34.4946 -3.34538 5.64287 0
M  V30 417 H 34.4116 -2.4794 7.14186 0
M  V30 418 H 35.6796 -3.642 6.89187 0
M  V30 419 N 39.9087 -1.5758 0.0250728 0
M  V30 420 C 41.1857 -1.82917 -0.692873 0
M  V30 421 C 41.5657 -0.908137 -1.90568 0
M  V30 422 O 40.9137 0.0372298 -2.2847 0
M  V30 423 C 41.1237 -3.32034 -1.07492 0
M  V30 424 C 42.4717 -3.98406 -1.46826 0
M  V30 425 O 43.4957 -3.36505 -1.16801 0
M  V30 426 O 42.3547 -5.07497 -2.02754 0
M  V30 427 H 39.4487 -0.754079 -0.33955 0
M  V30 428 H 41.9947 -1.69619 0.0524456 0
M  V30 429 H 40.7667 -3.90728 -0.211552 0
M  V30 430 H 40.3897 -3.50424 -1.87854 0
M  V30 431 N 41.3868 0.248026 -1.55636 0
M  V30 432 C 42.6348 0.974295 -1.77065 0
M  V30 433 C 42.9558 1.85897 -0.588849 0
M  V30 434 O 42.2258 1.91868 0.395407 0
M  V30 435 H 40.8058 0.362733 -0.653019 0
M  V30 436 H 43.4678 0.266244 -1.93073 0
M  V30 437 H 42.5638 1.59667 -2.68166 0
M  V30 438 N 42.8649 1.48995 0.513639 0
M  V30 439 C 43.8129 1.65199 1.63744 0
M  V30 440 C 44.8069 0.51809 1.61283 0
M  V30 441 O 46.0129 0.697335 1.65943 0
M  V30 442 H 42.3879 0.52069 0.542574 0
M  V30 443 H 44.3589 2.59552 1.47226 0
M  V30 444 C 43.1079 1.72409 3.01945 0
M  V30 445 H 42.4309 2.59029 3.04539 0
M  V30 446 H 43.8709 1.87785 3.80148 0
M  V30 447 C 42.3299 0.46618 3.33659 0
M  V30 448 O 42.8599 -0.413744 3.99564 0
M  V30 449 N 41.0659 0.332931 2.88687 0
M  V30 450 H 40.6129 1.04996 2.35231 0
M  V30 451 H 40.5709 -0.507665 3.10274 0
M  V30 452 N 44.343 -0.763751 1.37857 0
M  V30 453 C 45.29 -1.87726 1.34267 0
M  V30 454 C 46.26 -1.64807 0.206879 0
M  V30 455 O 47.445 -1.86613 0.397508 0
M  V30 456 C 44.585 -3.24896 1.16346 0
M  V30 457 C 43.698 -3.59716 2.39225 0
M  V30 458 C 42.833 -4.86137 2.14114 0
M  V30 459 C 41.872 -5.13711 3.32817 0
M  V30 460 N 41.009 -6.31323 3.07206 0
M  V30 461 H 45.849 -1.90129 2.29466 0
M  V30 462 H 43.386 -0.929433 1.14017 0
M  V30 463 H 45.344 -4.04036 1.03975 0
M  V30 464 H 43.974 -3.21847 0.247909 0
M  V30 465 H 43.026 -2.75498 2.62307 0
M  V30 466 H 44.338 -3.76027 3.27728 0
M  V30 467 H 43.492 -5.73198 1.9882 0
M  V30 468 H 42.231 -4.71945 1.22961 0
M  V30 469 H 41.236 -4.25123 3.48641 0
M  V30 470 H 42.461 -5.29807 4.24832 0
M  V30 471 H 40.407 -6.18474 2.1869 0
M  V30 472 H 40.324 -6.48087 3.89254 0
M  V30 473 H 41.592 -7.213 2.95546 0
M  V30 474 N 45.8211 -1.22559 -0.990812 0
M  V30 475 C 46.7511 -1.0218 -2.09956 0
M  V30 476 C 47.7321 0.0579394 -1.70001 0
M  V30 477 O 48.9171 -0.104684 -1.93918 0
M  V30 478 C 46.0471 -0.601023 -3.4206 0
M  V30 479 C 45.0011 -1.62694 -3.95872 0
M  V30 480 C 44.3271 -1.06193 -5.24049 0
M  V30 481 C 45.6271 -3.01743 -4.2632 0
M  V30 482 H 47.3211 -1.94916 -2.27262 0
M  V30 483 H 44.8671 -0.938566 -1.09211 0
M  V30 484 H 46.8201 -0.445561 -4.19038 0
M  V30 485 H 45.5441 0.362005 -3.24588 0
M  V30 486 H 44.2031 -1.77021 -3.21028 0
M  V30 487 H 43.8511 -0.0901903 -5.02919 0
M  V30 488 H 43.5511 -1.74732 -5.61019 0
M  V30 489 H 45.0751 -0.918092 -6.03658 0
M  V30 490 H 46.4891 -2.90777 -4.94087 0
M  V30 491 H 44.8861 -3.67425 -4.74467 0
M  V30 492 H 45.9561 -3.51518 -3.34011 0
M  V30 493 N 47.2992 1.18797 -1.03562 0
M  V30 494 C 48.5762 1.84469 -0.650434 0
M  V30 495 C 48.9562 1.92319 0.870433 0
M  V30 496 O 48.3042 1.44528 1.76986 0
M  V30 497 C 48.5142 3.2306 -1.32036 0
M  V30 498 C 49.8622 3.9915 -1.44792 0
M  V30 499 O 50.8862 3.32481 -1.27806 0
M  V30 500 O 49.7452 5.18587 -1.72423 0
M  V30 501 H 46.8392 0.795251 -0.226946 0
M  V30 502 H 49.3852 1.26231 -1.13419 0
M  V30 503 H 48.1572 3.1222 -2.3587 0
M  V30 504 H 47.7802 3.88949 -0.8249 0
M  V30 505 N 48.7773 0.814389 1.34928 0
M  V30 506 C 49.7073 0.244827 2.32213 0
M  V30 507 C 50.6883 -0.634024 1.57842 0
M  V30 508 O 51.8733 -0.562676 1.8587 0
M  V30 509 C 49.0033 -0.601106 3.42058 0
M  V30 510 C 47.9573 0.179896 4.27622 0
M  V30 511 C 47.2833 -0.788237 5.28858 0
M  V30 512 C 48.5833 1.38329 5.03649 0
M  V30 513 H 50.2773 1.05763 2.80097 0
M  V30 514 H 47.8233 0.510029 1.34665 0
M  V30 515 H 49.7763 -1.00968 4.09125 0
M  V30 516 H 48.5003 -1.44688 2.92802 0
M  V30 517 H 47.1593 0.569739 3.62146 0
M  V30 518 H 46.8073 -1.62973 4.75866 0
M  V30 519 H 46.5073 -0.269942 5.8698 0
M  V30 520 H 48.0313 -1.19485 5.98795 0
M  V30 521 H 49.4453 1.04918 5.63618 0
M  V30 522 H 47.8423 1.83662 5.71304 0
M  V30 523 H 48.9123 2.16592 4.33839 0
M  V30 524 N 50.2554 -1.46986 0.568584 0
M  V30 525 C 51.4854 -2.0653 0.0539173 0
M  V30 526 C 51.8934 -1.42004 -1.25026 0
M  V30 527 O 51.2364 -0.514541 -1.76347 0
M  V30 528 C 51.2984 -3.58938 -0.200854 0
M  V30 529 C 50.9624 -4.45572 1.01559 0
M  V30 530 C 51.9594 -4.82986 1.92407 0
M  V30 531 C 49.6444 -4.8692 1.23346 0
M  V30 532 C 51.6384 -5.60559 3.03402 0
M  V30 533 C 49.3254 -5.64255 2.34649 0
M  V30 534 C 50.3234 -6.00986 3.24507 0
M  V30 535 O 50.0114 -6.76761 4.33878 0
M  V30 536 H 49.7434 -0.674292 0.0480234 0
M  V30 537 H 52.2974 -1.89812 0.784896 0
M  V30 538 H 50.5274 -3.73911 -0.986279 0
M  V30 539 H 52.2164 -4.0046 -0.662294 0
M  V30 540 H 52.9824 -4.51633 1.76785 0
M  V30 541 H 48.8614 -4.57789 0.543178 0
M  V30 542 H 52.4054 -5.89147 3.73565 0
M  V30 543 H 48.3024 -5.95021 2.5024 0
M  V30 544 H 49.0704 -6.95168 4.32068 0
M  V30 545 N 51.7335 -0.305618 -1.54608 0
M  V30 546 C 52.9815 0.301701 -1.99835 0
M  V30 547 C 53.3025 1.54054 -1.19551 0
M  V30 548 O 52.5725 1.93702 -0.292658 0
M  V30 549 H 51.1525 0.114468 -0.738178 0
M  V30 550 H 53.8145 -0.418016 -1.90364 0
M  V30 551 H 52.9105 0.570548 -3.06841 0
M  V30 552 N 53.2116 1.57565 -0.0334293 0
M  V30 553 C 54.1586 2.10478 0.946981 0
M  V30 554 C 55.1286 1.00787 1.32027 0
M  V30 555 O 56.3136 1.28232 1.41284 0
M  V30 556 C 53.4536 2.63994 2.22263 0
M  V30 557 C 52.5666 3.87709 1.90541 0
M  V30 558 C 51.7016 4.29604 3.12433 0
M  V30 559 C 50.7406 5.46065 2.76549 0
M  V30 560 N 49.8776 5.83096 3.9108 0
M  V30 561 H 54.7176 2.93963 0.488846 0
M  V30 562 H 52.2546 1.45296 0.22969 0
M  V30 563 H 54.2126 2.93114 2.96884 0
M  V30 564 H 52.8426 1.83333 2.65685 0
M  V30 565 H 51.8946 3.65291 1.06144 0
M  V30 566 H 53.2066 4.72403 1.60116 0
M  V30 567 H 52.3606 4.60182 3.9537 0
M  V30 568 H 51.0996 3.43685 3.46023 0
M  V30 569 H 50.1046 5.15176 1.92026 0
M  V30 570 H 51.3296 6.33685 2.44171 0
M  V30 571 H 49.2756 5.00132 4.24504 0
M  V30 572 H 49.1926 6.6244 3.64293 0
M  V30 573 H 50.4606 6.18282 4.74708 0
M  V30 574 N 54.6897 -0.239769 1.55765 0
M  V30 575 C 55.9357 -0.968234 1.78194 0
M  V30 576 C 56.2687 -1.84701 0.599938 0
M  V30 577 O 55.5437 -1.9031 -0.401524 0
M  V30 578 C 55.8267 -1.8227 3.10564 0
M  V30 579 C 55.6797 -0.971633 4.3918 0
M  V30 580 C 56.9987 -2.80388 3.39221 0
M  V30 581 H 54.1177 -0.350572 0.648281 0
M  V30 582 H 56.7597 -0.238259 1.885 0
M  V30 583 H 54.9097 -2.44507 3.01908 0
M  V30 584 H 56.5817 -0.367408 4.59835 0
M  V30 585 H 54.8247 -0.276276 4.32919 0
M  V30 586 H 55.4957 -1.60346 5.28198 0
M  V30 587 H 57.9717 -2.28287 3.47885 0
M  V30 588 H 56.8477 -3.3729 4.33044 0
M  V30 589 H 57.1087 -3.57212 2.60484 0
M  V30 590 N 56.1678 -1.49265 -0.50573 0
M  V30 591 C 57.4448 -1.49012 -1.26707 0
M  V30 592 C 57.8248 -0.215205 -2.1 0
M  V30 593 O 57.1728 0.802547 -2.13943 0
M  V30 594 C 57.3828 -2.7663 -2.12783 0
M  V30 595 C 58.7308 -3.25932 -2.72127 0
M  V30 596 O 59.7548 -2.77715 -2.23054 0
M  V30 597 O 58.6138 -4.09897 -3.61451 0
M  V30 598 H 55.7078 -0.596197 -0.57313 0
M  V30 599 H 58.2538 -1.61524 -0.52039 0
M  V30 600 H 57.0258 -3.60916 -1.5118 0
M  V30 601 H 56.6488 -2.66956 -2.94653 0
M  V30 602 N 57.6459 0.756429 -1.3826 0
M  V30 603 C 58.8939 1.51248 -1.34047 0
M  V30 604 C 59.2149 1.94875 0.0698372 0
M  V30 605 O 58.4849 1.67436 1.01696 0
M  V30 606 H 57.0649 0.561018 -0.493222 0
M  V30 607 H 59.7269 0.899347 -1.7291 0
M  V30 608 H 58.8229 2.40472 -1.98947 0
M  V30 609 N 59.124 1.23083 0.984299 0
M  V30 610 C 60.054 1.03292 2.09411 0
M  V30 611 C 61.035 -0.048923 1.7003 0
M  V30 612 O 62.22 0.114967 1.93859 0
M  V30 613 C 59.35 0.619155 3.41736 0
M  V30 614 C 58.304 1.64791 3.95004 0
M  V30 615 C 57.63 1.0897 5.23478 0
M  V30 616 C 58.93 3.03999 4.24714 0
M  V30 617 H 60.624 1.96119 2.26225 0
M  V30 618 H 58.17 0.944344 1.08711 0
M  V30 619 H 60.123 0.467777 4.18796 0
M  V30 620 H 58.847 -0.344786 3.24775 0
M  V30 621 H 57.506 1.78721 3.20085 0
M  V30 622 H 57.154 0.11686 5.02864 0
M  V30 623 H 56.854 1.77704 5.60085 0
M  V30 624 H 58.378 0.950093 6.03163 0
M  V30 625 H 59.792 2.93393 4.92538 0
M  V30 626 H 58.189 3.69936 4.72512 0
M  V30 627 H 59.259 3.53285 3.32142 0
M  V30 628 N 60.6021 -1.18246 1.0419 0
M  V30 629 C 61.5521 -2.19843 0.604392 0
M  V30 630 C 62.5361 -1.56962 -0.353814 0
M  V30 631 O 63.7281 -1.76156 -0.17267 0
M  V30 632 C 60.8571 -3.43287 -0.0298975 0
M  V30 633 C 59.9431 -4.13288 0.951531 0
M  V30 634 N 60.3341 -4.59271 2.11906 0
M  V30 635 C 58.6321 -4.39165 0.7778 0
M  V30 636 C 59.3331 -5.13173 2.73912 0
M  V30 637 N 58.3091 -5.04763 2.01779 0
M  V30 638 H 62.1111 -2.53089 1.4941 0
M  V30 639 H 59.6251 -1.34465 0.910658 0
M  V30 640 H 61.6221 -4.15334 -0.361037 0
M  V30 641 H 60.2821 -3.11537 -0.915127 0
M  V30 642 H 61.2931 -4.5368 2.49789 0
M  V30 643 H 57.9701 -4.17461 -0.0572331 0
M  V30 644 H 59.3601 -5.58947 3.72864 0
M  V30 645 N 62.0802 -0.821533 -1.34494 0
M  V30 646 C 63.3102 -0.421272 -2.02259 0
M  V30 647 C 63.7182 0.977047 -1.6202 0
M  V30 648 O 63.0612 1.64348 -0.820703 0
M  V30 649 C 63.1232 -0.44231 -3.56769 0
M  V30 650 C 62.7872 -1.79372 -4.20327 0
M  V30 651 C 63.7842 -2.75435 -4.40944 0
M  V30 652 C 61.4692 -2.08182 -4.57127 0
M  V30 653 C 63.4632 -3.98482 -4.97484 0
M  V30 654 C 61.1502 -3.31489 -5.13379 0
M  V30 655 C 62.1482 -4.26457 -5.33501 0
M  V30 656 O 61.8362 -5.47585 -5.88562 0
M  V30 657 H 61.5682 -0.167473 -0.654927 0
M  V30 658 H 64.1222 -1.11073 -1.72777 0
M  V30 659 H 62.3522 0.303836 -3.85505 0
M  V30 660 H 64.0412 -0.0622925 -4.05852 0
M  V30 661 H 64.8072 -2.54473 -4.12878 0
M  V30 662 H 60.6862 -1.35066 -4.4077 0
M  V30 663 H 64.2302 -4.72618 -5.13106 0
M  V30 664 H 60.1272 -3.52316 -5.40873 0
M  V30 665 H 60.8952 -5.49086 -6.06998 0
M  V30 666 N 63.5583 1.46682 -0.576371 0
M  V30 667 C 64.8053 2.02412 -0.0595339 0
M  V30 668 C 65.1333 1.44859 1.29793 0
M  V30 669 O 64.3883 0.601099 1.8624 0
M  V30 670 C 64.6873 3.57345 0.062886 0
M  V30 671 C 64.3533 4.33908 -1.22616 0
M  V30 672 C 63.0153 4.54544 -1.57933 0
M  V30 673 C 65.3673 4.77919 -2.07948 0
M  V30 674 C 62.6953 5.16444 -2.78393 0
M  V30 675 C 65.0473 5.41149 -3.27629 0
M  V30 676 C 63.7113 5.60014 -3.63236 0
M  V30 677 H 62.9813 0.74068 -0.021785 0
M  V30 678 H 65.6283 1.76128 -0.751735 0
M  V30 679 H 63.9333 3.82729 0.838178 0
M  V30 680 H 65.6303 3.98136 0.478439 0
M  V30 681 H 62.2203 4.18138 -0.941202 0
M  V30 682 H 66.4043 4.61738 -1.81967 0
M  V30 683 H 61.6603 5.29242 -3.06126 0
M  V30 684 H 65.8343 5.74211 -3.94023 0
M  V30 685 H 63.4613 6.07748 -4.56669 0
M  V30 686 N 65.0364 0.313813 1.54444 0
M  V30 687 C 66.2614 -0.296681 2.05267 0
M  V30 688 C 66.6864 -1.45757 1.18897 0
M  V30 689 O 66.0444 -1.80239 0.195886 0
M  V30 690 C 66.0924 -0.71831 3.53373 0
M  V30 691 O 65.1964 -1.82175 3.69981 0
M  V30 692 H 64.5374 -0.0554061 0.661684 0
M  V30 693 H 67.0674 0.459387 1.99376 0
M  V30 694 H 67.0774 -1.00364 3.95463 0
M  V30 695 H 65.7524 0.130821 4.15694 0
M  V30 696 H 64.3294 -1.53598 3.39797 0
M  V30 697 N 66.5145 -1.57545 0.0417849 0
M  V30 698 C 67.7915 -1.83642 -0.673433 0
M  V30 699 C 68.1715 -0.928298 -1.89594 0
M  V30 700 O 67.5195 0.0129955 -2.28496 0
M  V30 701 C 67.7295 -3.33155 -1.03964 0
M  V30 702 C 69.0775 -3.99941 -1.42592 0
M  V30 703 O 70.1015 -3.37725 -1.13226 0
M  V30 704 O 68.9605 -5.09619 -1.9736 0
M  V30 705 H 66.0545 -0.757638 -0.331533 0
M  V30 706 H 68.6005 -1.69554 0.070433 0
M  V30 707 H 67.3725 -3.9093 -0.170098 0
M  V30 708 H 66.9955 -3.52396 -1.84126 0
M  V30 709 N 67.9926 0.231505 -1.5589 0
M  V30 710 C 68.9406 1.30649 -1.92441 0
M  V30 711 C 69.9346 1.49037 -0.805254 0
M  V30 712 O 71.1406 1.50329 -0.990007 0
M  V30 713 H 67.5156 0.437812 -0.611412 0
M  V30 714 H 69.4866 0.970973 -2.82161 0
M  V30 715 C 68.2356 2.65179 -2.24889 0
M  V30 716 H 67.5586 2.51835 -3.10514 0
M  V30 717 H 68.9986 3.39234 -2.54355 0
M  V30 718 C 67.4576 3.19439 -1.07054 0
M  V30 719 O 67.9876 4.00371 -0.326499 0
M  V30 720 N 66.1936 2.77675 -0.85703 0
M  V30 721 H 65.7406 2.11969 -1.46379 0
M  V30 722 H 65.6986 3.14321 -0.0703223 0
M  V30 723 N 69.4707 1.49531 0.497807 0
M  V30 724 C 70.7477 1.49682 1.25915 0
M  V30 725 C 71.1277 0.226339 2.09883 0
M  V30 726 O 70.4757 -0.791189 2.14365 0
M  V30 727 C 70.6857 2.77755 2.11313 0
M  V30 728 C 72.0337 3.27371 2.70395 0
M  V30 729 O 73.0577 2.78894 2.21578 0
M  V30 730 O 71.9167 4.11808 3.59272 0
M  V30 731 H 69.0107 0.599228 0.56996 0
M  V30 732 H 71.5567 1.61798 0.511816 0
M  V30 733 H 70.3287 3.61713 1.49264 0
M  V30 734 H 69.9517 2.68515 2.93233 0
M  V30 735 N 70.9488 -0.749086 1.3866 0
M  V30 736 C 72.1738 -1.54344 1.38538 0
M  V30 737 C 72.5988 -1.88088 -0.0216655 0
M  V30 738 O 71.9568 -1.50899 -1.00494 0
M  V30 739 C 72.0048 -2.8164 2.25192 0
M  V30 740 O 71.1088 -3.7698 1.67212 0
M  V30 741 H 70.4498 -0.466654 0.472367 0
M  V30 742 H 72.9798 -0.925355 1.82478 0
M  V30 743 H 72.9898 -3.30519 2.3921 0
M  V30 744 H 71.6648 -2.56411 3.27454 0
M  V30 745 H 70.2418 -3.35699 1.6236 0
M  V30 746 N 72.4269 -1.23603 -0.977757 0
M  V30 747 C 73.3739 -1.01954 -2.07061 0
M  V30 748 C 74.3439 0.0638697 -1.65977 0
M  V30 749 O 75.5289 -0.0887624 -1.90593 0
M  V30 750 C 72.6689 -0.619658 -3.39491 0
M  V30 751 C 71.7819 -1.77547 -3.93829 0
M  V30 752 C 70.9169 -1.32212 -5.14484 0
M  V30 753 C 69.9559 -2.44852 -5.60994 0
M  V30 754 N 69.0929 -2.00456 -6.72876 0
M  V30 755 H 73.9329 -1.95495 -2.24913 0
M  V30 756 H 71.4699 -0.973861 -1.10247 0
M  V30 757 H 73.4279 -0.368898 -4.15566 0
M  V30 758 H 72.0579 0.278752 -3.21594 0
M  V30 759 H 71.1099 -2.14016 -3.14486 0
M  V30 760 H 72.4219 -2.62219 -4.24314 0
M  V30 761 H 71.5759 -1.02965 -5.97899 0
M  V30 762 H 70.3149 -0.445808 -4.85658 0
M  V30 763 H 69.3199 -2.74871 -4.76157 0
M  V30 764 H 70.5449 -3.33024 -5.91837 0
M  V30 765 H 68.4909 -1.15208 -6.45804 0
M  V30 766 H 68.4079 -2.78687 -7.02759 0
M  V30 767 H 69.6759 -1.7432 -7.59758 0
M  V30 768 N 73.905 1.17692 -1.04816 0
M  V30 769 C 75.182 1.83768 -0.669963 0
M  V30 770 C 75.562 1.93232 0.849986 0
M  V30 771 O 74.91 1.46397 1.75443 0
M  V30 772 C 75.12 3.21641 -1.35455 0
M  V30 773 C 76.468 3.97592 -1.49017 0
M  V30 774 O 77.492 3.31107 -1.31326 0
M  V30 775 O 76.351 5.16729 -1.77914 0
M  V30 776 H 73.445 0.792799 -0.235368 0
M  V30 777 H 75.991 1.25021 -1.14751 0
M  V30 778 H 74.763 3.097 -2.39168 0
M  V30 779 H 74.386 3.88052 -0.866107 0
M  V30 780 N 75.3831 0.828654 1.34056 0
M  V30 781 C 76.6311 0.41863 1.97717 0
M  V30 782 C 76.9521 -1.02314 1.66002 0
M  V30 783 O 76.2221 -1.71119 0.953683 0
M  V30 784 H 74.8021 0.151809 0.731412 0
M  V30 785 H 77.4641 1.05936 1.63596 0
M  V30 786 H 76.5601 0.542318 3.07352 0
M  V30 787 N 76.8612 -1.46375 0.584142 0
M  V30 788 C 78.1382 -1.956 0.0033388 0
M  V30 789 C 78.5182 -1.52679 -1.45782 0
M  V30 790 O 77.8662 -0.77816 -2.14842 0
M  V30 791 C 78.0762 -3.48551 0.176891 0
M  V30 792 C 79.4242 -4.24576 0.0454609 0
M  V30 793 O 80.4482 -3.56043 0.105801 0
M  V30 794 O 79.3072 -5.46427 -0.0890376 0
M  V30 795 H 76.4012 -0.825547 -0.0490066 0
M  V30 796 H 78.9472 -1.56652 0.65256 0
M  V30 797 H 77.7192 -3.72683 1.1926 0
M  V30 798 H 77.3422 -3.94332 -0.508695 0
M  V30 799 N 78.3393 -0.321999 -1.54275 0
M  V30 800 C 79.2863 0.544664 -2.24281 0
M  V30 801 C 80.2563 1.1129 -1.23303 0
M  V30 802 O 81.4413 1.15354 -1.51981 0
M  V30 803 C 78.5813 1.70045 -3.00298 0
M  V30 804 C 77.6943 1.16159 -4.1609 0
M  V30 805 C 76.8293 2.28293 -4.79641 0
M  V30 806 C 75.8683 1.71648 -5.8754 0
M  V30 807 N 75.0053 2.77438 -6.44959 0
M  V30 808 H 79.8453 -0.0588907 -2.97942 0
M  V30 809 H 77.3823 -0.0408345 -1.47043 0
M  V30 810 H 79.3403 2.38054 -3.42616 0
M  V30 811 H 77.9703 2.27531 -2.28975 0
M  V30 812 H 77.0223 0.373092 -3.78566 0
M  V30 813 H 78.3343 0.707087 -4.93763 0
M  V30 814 H 77.4883 3.0421 -5.2492 0
M  V30 815 H 76.2273 2.77079 -4.01346 0
M  V30 816 H 75.2323 0.942282 -5.41665 0
M  V30 817 H 76.4573 1.23741 -6.67731 0
M  V30 818 H 74.4033 3.25519 -5.69538 0
M  V30 819 H 74.3203 2.36547 -7.1804 0
M  V30 820 H 75.5883 3.53189 -6.94894 0
M  V30 821 N 79.8174 1.5752 -0.0501392 0
M  V30 822 C 81.0454 1.96963 0.633492 0
M  V30 823 C 81.4604 0.927631 1.6444 0
M  V30 824 O 80.8174 -0.0882665 1.82286 0
M  V30 825 C 80.8684 3.36487 1.32132 0
M  V30 826 O 80.5894 4.36693 0.350894 0
M  V30 827 C 82.0904 3.90682 2.09481 0
M  V30 828 H 79.3104 0.648244 0.173266 0
M  V30 829 H 81.8544 2.0417 -0.116134 0
M  V30 830 H 80.0094 3.30434 2.02218 0
M  V30 831 H 80.4234 5.17702 0.841735 0
M  V30 832 H 81.8974 4.90591 2.5303 0
M  V30 833 H 82.3744 3.26053 2.94255 0
M  V30 834 H 82.9804 4.00069 1.44307 0
M  V30 835 N 81.2955 -0.223234 1.56011 0
M  V30 836 C 82.5255 -0.963413 1.82762 0
M  V30 837 C 82.9335 -1.78516 0.626804 0
M  V30 838 O 82.2765 -1.78974 -0.414014 0
M  V30 839 C 82.3385 -1.93126 3.0322 0
M  V30 840 C 82.0025 -1.2942 4.38291 0
M  V30 841 C 82.9995 -0.684916 5.15369 0
M  V30 842 C 80.6845 -1.30647 4.85012 0
M  V30 843 C 82.6785 -0.0963971 6.37327 0
M  V30 844 C 80.3655 -0.71411 6.06913 0
M  V30 845 C 81.3635 -0.110123 6.82911 0
M  V30 846 O 81.0515 0.47303 8.02507 0
M  V30 847 H 80.7835 -0.288011 0.611576 0
M  V30 848 H 83.3375 -0.244103 2.03944 0
M  V30 849 H 81.5675 -2.68952 2.77852 0
M  V30 850 H 83.2565 -2.53685 3.16857 0
M  V30 851 H 84.0225 -0.667774 4.80381 0
M  V30 852 H 79.9015 -1.76598 4.25833 0
M  V30 853 H 83.4455 0.375657 6.96588 0
M  V30 854 H 79.3425 -0.728659 6.41374 0
M  V30 855 H 80.1105 0.367186 8.17676 0
M  V30 856 N 82.7736 -1.49793 -0.48987 0
M  V30 857 C 83.7066 -1.61898 -1.60823 0
M  V30 858 C 84.6846 -0.467651 -1.5573 0
M  V30 859 O 85.8686 -0.684682 -1.75626 0
M  V30 860 C 82.9956 -1.58422 -2.99366 0
M  V30 861 C 82.0416 -2.78889 -3.22682 0
M  V30 862 S 82.8746 -4.40429 -3.04602 0
M  V30 863 C 84.0306 -4.39617 -4.4552 0
M  V30 864 H 84.2636 -2.56502 -1.50312 0
M  V30 865 H 81.7966 -1.38822 -0.675849 0
M  V30 866 H 83.7546 -1.57103 -3.79248 0
M  V30 867 H 82.4156 -0.650866 -3.07283 0
M  V30 868 H 81.6086 -2.72708 -4.23847 0
M  V30 869 H 81.2106 -2.77678 -2.50541 0
M  V30 870 H 83.5026 -4.12022 -5.37814 0
M  V30 871 H 84.4456 -5.41097 -4.56749 0
M  V30 872 H 84.8536 -3.69554 -4.2672 0
M  V30 873 N 84.2517 0.741722 -1.39055 0
M  V30 874 C 85.6677 1.04638 -1.20512 0
M  V30 875 C 85.8677 2.01405 -0.0620218 0
M  V30 876 O 84.9237 2.45547 0.588457 0
M  V30 877 C 86.2367 1.6151 -2.53643 0
M  V30 878 C 87.7847 1.73623 -2.6043 0
M  V30 879 C 88.2597 2.33906 -3.93767 0
M  V30 880 N 89.7507 2.41323 -3.9537 0
M  V30 881 C 90.4857 2.88888 -4.95309 0
M  V30 882 N 89.9817 3.36401 -6.05645 0
M  V30 883 N 91.7747 2.88037 -4.82692 0
M  V30 884 H 83.9257 0.0998155 -2.12165 0
M  V30 885 H 86.1887 0.106907 -0.941953 0
M  V30 886 H 85.8947 0.978739 -3.37807 0
M  V30 887 H 85.7687 2.60411 -2.72885 0
M  V30 888 H 88.1557 2.36384 -1.76655 0
M  V30 889 H 88.2367 0.733945 -2.45045 0
M  V30 890 H 87.8807 1.71776 -4.7797 0
M  V30 891 H 87.8107 3.34799 -4.06469 0
M  V30 892 H 90.3017 2.07734 -3.15682 0
M  V30 893 H 90.6147 3.71186 -6.77821 0
M  V30 894 H 88.9597 3.34427 -6.09248 0
M  V30 895 H 92.1507 2.50237 -3.95599 0
M  V30 896 H 92.3237 3.24792 -5.60726 0
M  V30 897 N 85.7298 1.2412 0.971189 0
M  V30 898 C 86.6598 1.05508 2.08304 0
M  V30 899 C 87.6408 -0.0308864 1.70072 0
M  V30 900 O 88.8258 0.135521 1.93727 0
M  V30 901 C 85.9558 0.655365 3.4106 0
M  V30 902 C 84.9098 1.68971 3.93234 0
M  V30 903 C 84.2358 1.14516 5.22293 0
M  V30 904 C 85.5358 3.08487 4.21465 0
M  V30 905 H 87.2298 1.98507 2.24132 0
M  V30 906 H 84.7758 0.955821 1.07704 0
M  V30 907 H 86.7288 0.51217 4.18276 0
M  V30 908 H 85.4528 -0.31032 3.25122 0
M  V30 909 H 84.1118 1.82106 3.18171 0
M  V30 910 H 83.7598 0.170189 5.02712 0
M  V30 911 H 83.4598 1.83635 5.58168 0
M  V30 912 H 84.9838 1.01401 6.02121 0
M  V30 913 H 86.3978 2.98601 4.89398 0
M  V30 914 H 84.7948 3.74926 4.68562 0
M  V30 915 H 85.8648 3.56787 3.28376 0
M  V30 916 N 87.2079 -1.17134 1.05439 0
M  V30 917 C 88.4559 -1.87085 0.764429 0
M  V30 918 C 88.7769 -1.81584 -0.710787 0
M  V30 919 O 88.0469 -1.24349 -1.51374 0
M  V30 920 H 86.6269 -0.692627 0.279779 0
M  V30 921 H 89.2889 -1.42087 1.33406 0
M  V30 922 H 88.3849 -2.92759 1.0816 0
M  V30 923 N 88.686 -0.835752 -1.33615 0
M  V30 924 C 89.933 -0.429959 -1.97883 0
M  V30 925 C 90.261 1.01006 -1.66217 0
M  V30 926 O 89.516 1.72047 -0.93265 0
M  V30 927 C 89.815 -0.593925 -3.52431 0
M  V30 928 C 89.481 -2.00158 -4.04039 0
M  V30 929 C 88.143 -2.38662 -4.17844 0
M  V30 930 C 90.495 -2.92117 -4.31644 0
M  V30 931 C 87.823 -3.68435 -4.56588 0
M  V30 932 C 90.175 -4.21368 -4.71838 0
M  V30 933 C 88.839 -4.59833 -4.83849 0
M  V30 934 H 88.109 -0.157333 -0.724104 0
M  V30 935 H 90.756 -1.06217 -1.59343 0
M  V30 936 H 89.061 0.121619 -3.91611 0
M  V30 937 H 90.758 -0.260282 -4.00154 0
M  V30 938 H 87.348 -1.69252 -3.93766 0
M  V30 939 H 91.532 -2.63608 -4.20505 0
M  V30 940 H 86.788 -3.98046 -4.64079 0
M  V30 941 H 90.962 -4.92703 -4.92155 0
M  V30 942 H 88.589 -5.60438 -5.13627 0
M  V30 943 N 90.1641 1.46063 -0.591896 0
M  V30 944 C 91.1111 2.30399 0.136069 0
M  V30 945 C 92.0811 1.41169 0.875238 0
M  V30 946 O 93.2661 1.70112 0.86409 0
M  V30 947 C 90.4061 3.25804 1.13781 0
M  V30 948 C 89.5191 4.30134 0.401137 0
M  V30 949 C 88.6541 5.12659 1.39121 0
M  V30 950 C 87.6931 6.0873 0.641462 0
M  V30 951 N 86.8301 6.8409 1.58004 0
M  V30 952 H 91.6701 2.92118 -0.589144 0
M  V30 953 H 89.2071 1.43959 -0.302342 0
M  V30 954 H 91.1651 3.79569 1.73156 0
M  V30 955 H 89.7951 2.65872 1.83062 0
M  V30 956 H 88.8471 3.79152 -0.307826 0
M  V30 957 H 90.1591 4.98458 -0.184565 0
M  V30 958 H 89.3131 5.70747 2.05749 0
M  V30 959 H 88.0521 4.44316 2.01084 0
M  V30 960 H 87.0571 5.49786 -0.0385419 0
M  V30 961 H 88.2821 6.79095 0.0270945 0
M  V30 962 H 86.2281 6.18449 2.18761 0
M  V30 963 H 86.1451 7.48709 1.04738 0
M  V30 964 H 87.4131 7.4673 2.23639 0
M  V30 965 N 91.6422 0.330177 1.54103 0
M  V30 966 C 92.8902 -0.269871 2.0029 0
M  V30 967 C 93.2112 -1.52133 1.21986 0
M  V30 968 O 92.4812 -1.93212 0.323438 0
M  V30 969 H 91.0612 -0.10271 0.739905 0
M  V30 970 H 93.7232 0.448249 1.89675 0
M  V30 971 H 92.8192 -0.52166 3.07709 0
M  V30 972 N 93.1203 -1.57491 0.0584922 0
M  V30 973 C 94.0303 -2.15448 -0.928414 0
M  V30 974 C 95.0463 -1.11416 -1.3365 0
M  V30 975 O 96.2223 -1.4362 -1.41193 0
M  V30 976 C 93.2873 -2.69393 -2.18239 0
M  V30 977 C 92.3483 -3.88249 -1.83196 0
M  V30 978 C 91.5813 -4.39613 -3.02616 0
M  V30 979 O 91.8043 -3.90023 -4.16219 0
M  V30 980 O 90.7383 -5.31111 -2.83204 0
M  V30 981 H 94.5643 -3.00112 -0.465483 0
M  V30 982 H 92.1493 -1.48499 -0.163826 0
M  V30 983 H 94.0313 -3.04026 -2.91798 0
M  V30 984 H 92.7063 -1.87796 -2.63656 0
M  V30 985 H 91.6133 -3.58492 -1.06931 0
M  V30 986 H 92.9463 -4.71098 -1.42573 0
M  V30 987 N 94.5984 0.214957 -1.56127 0
M  V30 988 C 95.8264 0.955092 -1.83536 0
M  V30 989 C 96.2414 1.77677 -0.638472 0
M  V30 990 O 95.5984 1.78219 0.392968 0
M  V30 991 C 95.6494 1.86734 -3.09536 0
M  V30 992 O 95.3704 1.07887 -4.24608 0
M  V30 993 C 96.8714 2.72082 -3.4998 0
M  V30 994 H 94.0914 0.279611 -0.609966 0
M  V30 995 H 96.6354 0.228197 -2.03223 0
M  V30 996 H 94.7904 2.5481 -2.91806 0
M  V30 997 H 95.2044 1.69872 -4.9623 0
M  V30 998 H 96.6784 3.31782 -4.41163 0
M  V30 999 H 97.1554 3.44806 -2.7204 0
M  V30 1000 H 97.7614 2.09409 -3.70173 0
M  V30 1001 N 96.0765 1.50051 0.48192 0
M  V30 1002 C 97.0085 1.64263 1.59844 0
M  V30 1003 C 98.0215 0.52451 1.54119 0
M  V30 1004 O 99.2105 0.797293 1.59704 0
M  V30 1005 C 96.3105 1.60102 2.98698 0
M  V30 1006 C 95.4835 2.87767 3.29407 0
M  V30 1007 C 94.5425 2.76397 4.47762 0
M  V30 1008 O 93.5685 3.50348 4.48603 0
M  V30 1009 N 94.7705 1.89222 5.48794 0
M  V30 1010 H 97.5355 2.60566 1.48073 0
M  V30 1011 H 95.0965 1.47379 0.670149 0
M  V30 1012 H 97.0885 1.50123 3.75826 0
M  V30 1013 H 95.6585 0.715798 3.04294 0
M  V30 1014 H 94.8785 3.11954 2.40994 0
M  V30 1015 H 96.1665 3.72365 3.4673 0
M  V30 1016 H 95.5645 1.28434 5.50928 0
M  V30 1017 H 94.1215 1.85154 6.24949 0
M  V30 1018 N 97.5546 -0.734337 1.39446 0
M  V30 1019 C 98.8006 -1.49613 1.36908 0
M  V30 1020 C 99.1336 -1.94169 -0.0347829 0
M  V30 1021 O 98.4086 -1.66833 -0.999847 0
M  V30 1022 C 98.6916 -2.73534 2.34203 0
M  V30 1023 C 98.5446 -2.34993 3.83534 0
M  V30 1024 C 99.8636 -3.75635 2.29317 0
M  V30 1025 H 96.9826 -0.542714 0.498629 0
M  V30 1026 H 99.6246 -0.839597 1.70443 0
M  V30 1027 H 97.7746 -3.29553 2.05736 0
M  V30 1028 H 99.4466 -1.84601 4.22753 0
M  V30 1029 H 97.6896 -1.67213 4.00278 0
M  V30 1030 H 98.3606 -3.23738 4.47099 0
M  V30 1031 H 100.837 -3.29203 2.54489 0
M  V30 1032 H 99.7126 -4.60008 2.99472 0
M  V30 1033 H 99.9736 -4.22603 1.29842 0
M  V30 1034 N 99.0327 -1.24633 -0.964593 0
M  V30 1035 C 100.261 -1.11501 -1.74285 0
M  V30 1036 C 100.676 0.332165 -1.85855 0
M  V30 1037 O 100.033 1.22903 -1.34911 0
M  V30 1038 C 100.084 -1.75258 -3.16175 0
M  V30 1039 O 99.8047 -3.14318 -3.05182 0
M  V30 1040 C 101.306 -1.67776 -4.10324 0
M  V30 1041 H 98.5257 -0.389407 -0.546446 0
M  V30 1042 H 101.07 -1.64801 -1.21083 0
M  V30 1043 H 99.2247 -1.25954 -3.66353 0
M  V30 1044 H 99.6387 -3.4551 -3.94618 0
M  V30 1045 H 101.113 -2.17064 -5.0753 0
M  V30 1046 H 101.59 -0.639584 -4.34518 0
M  V30 1047 H 102.196 -2.16522 -3.66058 0
M  V30 1048 N 100.511 1.16574 -1.06058 0
M  V30 1049 C 101.788 1.83048 -0.689416 0
M  V30 1050 C 102.168 1.94122 0.829443 0
M  V30 1051 O 101.516 1.48249 1.7388 0
M  V30 1052 C 101.726 3.20186 -1.38859 0
M  V30 1053 C 103.074 3.95989 -1.53226 0
M  V30 1054 O 104.098 3.29696 -1.3483 0
M  V30 1055 O 102.957 5.14813 -1.83384 0
M  V30 1056 H 100.051 0.790258 -0.243764 0
M  V30 1057 H 102.597 1.23797 -1.16071 0
M  V30 1058 H 101.369 3.07146 -2.4244 0
M  V30 1059 H 100.992 3.87112 -0.907216 0
M  V30 1060 N 101.989 0.842826 1.3317 0
M  V30 1061 C 102.921 0.236245 2.27979 0
M  V30 1062 C 103.934 -0.585282 1.51915 0
M  V30 1063 O 105.123 -0.411705 1.73687 0
M  V30 1064 C 102.223 -0.685717 3.3189 0
M  V30 1065 C 101.396 0.0973448 4.37292 0
M  V30 1066 C 100.455 -0.748565 5.20848 0
M  V30 1067 O 99.4809 -0.186339 5.68895 0
M  V30 1068 N 100.683 -2.06527 5.42519 0
M  V30 1069 H 103.448 1.05088 2.80672 0
M  V30 1070 H 101.009 0.701667 1.45905 0
M  V30 1071 H 103.001 -1.25669 3.84694 0
M  V30 1072 H 101.571 -1.40105 2.79445 0
M  V30 1073 H 100.791 0.849706 3.84933 0
M  V30 1074 H 102.079 0.635643 5.04814 0
M  V30 1075 H 101.477 -2.54554 5.05192 0
M  V30 1076 H 100.034 -2.58464 5.98364 0
M  V30 1077 N 103.467 -1.45747 0.599634 0
M  V30 1078 C 104.397 -2.33235 -0.111306 0
M  V30 1079 C 105.378 -1.46359 -0.866781 0
M  V30 1080 O 106.563 -1.75146 -0.838904 0
M  V30 1081 C 103.693 -3.28932 -1.11451 0
M  V30 1082 C 102.647 -4.25381 -0.472772 0
M  V30 1083 C 101.973 -5.1071 -1.58365 0
M  V30 1084 C 103.273 -5.18831 0.600948 0
M  V30 1085 H 104.967 -2.92927 0.61919 0
M  V30 1086 H 102.513 -1.40857 0.299215 0
M  V30 1087 H 104.466 -3.89002 -1.62036 0
M  V30 1088 H 103.19 -2.67381 -1.8755 0
M  V30 1089 H 101.849 -3.66598 0.0121472 0
M  V30 1090 H 101.497 -4.45533 -2.33473 0
M  V30 1091 H 101.197 -5.7604 -1.15982 0
M  V30 1092 H 102.721 -5.73647 -2.09194 0
M  V30 1093 H 104.135 -5.73019 0.179491 0
M  V30 1094 H 102.532 -5.92595 0.946076 0
M  V30 1095 H 103.602 -4.6174 1.48068 0
M  V30 1096 N 104.945 -0.338344 -1.53925 0
M  V30 1097 C 106.173 0.261298 -2.05243 0
M  V30 1098 C 106.588 1.44625 -1.21363 0
M  V30 1099 O 105.945 1.80811 -0.247736 0
M  V30 1100 C 105.996 0.681412 -3.5502 0
M  V30 1101 O 105.717 -0.456414 -4.35716 0
M  V30 1102 C 107.218 1.34232 -4.22489 0
M  V30 1103 H 104.438 0.0513685 -0.669031 0
M  V30 1104 H 106.982 -0.488822 -1.98572 0
M  V30 1105 H 105.137 1.38148 -3.61931 0
M  V30 1106 H 105.551 -0.122564 -5.24357 0
M  V30 1107 H 107.025 1.58708 -5.28693 0
M  V30 1108 H 107.502 2.29426 -3.74514 0
M  V30 1109 H 108.108 0.684424 -4.19757 0
M  V30 1110 N 106.423 1.57458 -0.0668435 0
M  V30 1111 C 107.671 1.92919 0.602214 0
M  V30 1112 C 107.992 0.947215 1.70449 0
M  V30 1113 O 107.262 -0.00544117 1.95899 0
M  V30 1114 H 105.842 0.71217 0.22544 0
M  V30 1115 H 108.504 1.94508 -0.123535 0
M  V30 1116 H 107.6 2.94589 1.03073 0
M  V30 1117 N 107.901 -0.206675 1.56239 0
M  V30 1118 C 109.131 -0.943975 1.83773 0
M  V30 1119 C 109.539 -1.77841 0.645703 0
M  V30 1120 O 108.882 -1.79403 -0.395008 0
M  V30 1121 C 108.944 -1.899 3.05251 0
M  V30 1122 C 108.608 -1.24764 4.39639 0
M  V30 1123 C 109.605 -0.630216 5.16066 0
M  V30 1124 C 107.29 -1.25496 4.8637 0
M  V30 1125 C 109.284 -0.0287946 6.37393 0
M  V30 1126 C 106.971 -0.649698 6.07637 0
M  V30 1127 C 107.969 -0.0376845 6.8299 0
M  V30 1128 O 107.657 0.55812 8.0196 0
M  V30 1129 H 107.389 -0.281508 0.614597 0
M  V30 1130 H 109.943 -0.222458 2.04192 0
M  V30 1131 H 108.173 -2.6599 2.80689 0
M  V30 1132 H 109.862 -2.5031 3.1953 0
M  V30 1133 H 110.628 -0.616785 4.81062 0
M  V30 1134 H 106.507 -1.72072 4.27683 0
M  V30 1135 H 110.051 0.449518 6.9615 0
M  V30 1136 H 105.948 -0.660592 6.42111 0
M  V30 1137 H 106.716 0.453891 8.17241 0
M  V30 1138 N 109.379 -1.50304 -0.473955 0
M  V30 1139 C 110.627 -1.60832 -1.22382 0
M  V30 1140 C 110.948 -0.30939 -1.9253 0
M  V30 1141 O 110.218 0.67296 -1.83978 0
M  V30 1142 H 108.798 -0.592652 -0.454723 0
M  V30 1143 H 111.46 -1.87068 -0.546968 0
M  V30 1144 H 110.556 -2.41803 -1.97327 0
M  V30 1145 N 110.857 0.726932 -1.39834 0
M  V30 1146 C 111.789 1.85147 -1.35104 0
M  V30 1147 C 112.802 1.60736 -0.258392 0
M  V30 1148 O 113.991 1.70821 -0.517931 0
M  V30 1149 C 111.091 3.21332 -1.07697 0
M  V30 1150 C 110.264 3.73033 -2.28396 0
M  V30 1151 C 109.323 4.87802 -1.97322 0
M  V30 1152 O 108.349 5.01043 -2.70083 0
M  V30 1153 N 109.551 5.72768 -0.944273 0
M  V30 1154 H 112.316 1.89706 -2.32017 0
M  V30 1155 H 109.877 0.908006 -1.3404 0
M  V30 1156 H 111.869 3.95691 -0.849144 0
M  V30 1157 H 110.439 3.11992 -0.194909 0
M  V30 1158 H 109.659 2.89934 -2.6708 0
M  V30 1159 H 110.947 4.0431 -3.08887 0
M  V30 1160 H 110.345 5.64669 -0.341427 0
M  V30 1161 H 108.902 6.4716 -0.776346 0
M  V30 1162 N 112.336 1.25143 0.95797 0
M  V30 1163 C 113.582 1.10863 1.70531 0
M  V30 1164 C 113.937 -0.347391 1.89238 0
M  V30 1165 O 113.23 -1.25262 1.44983 0
M  V30 1166 C 113.424 1.79272 3.09187 0
M  V30 1167 C 113.253 3.31376 3.04006 0
M  V30 1168 C 112.023 4.0062 3.07948 0
M  V30 1169 C 114.221 4.27825 2.8543 0
M  V30 1170 N 112.203 5.39526 2.9289 0
M  V30 1171 C 113.574 5.53794 2.78769 0
M  V30 1172 C 115.629 4.1828 2.70085 0
M  V30 1173 C 114.332 6.7131 2.58331 0
M  V30 1174 C 116.358 5.35485 2.51017 0
M  V30 1175 C 115.72 6.60393 2.45073 0
M  V30 1176 H 111.819 0.460362 0.632132 0
M  V30 1177 H 114.403 1.58196 1.13499 0
M  V30 1178 H 112.574 1.34439 3.64391 0
M  V30 1179 H 114.306 1.57764 3.72683 0
M  V30 1180 H 111.061 3.51855 3.17009 0
M  V30 1181 H 111.485 6.12416 2.88574 0
M  V30 1182 H 116.127 3.22461 2.73457 0
M  V30 1183 H 113.845 7.67243 2.53701 0
M  V30 1184 H 117.431 5.29959 2.40073 0
M  V30 1185 H 116.311 7.49557 2.30509 0
M  V30 1186 N 113.814 -1.1601 1.06675 0
M  V30 1187 C 114.724 -2.24156 0.692179 0
M  V30 1188 C 115.74 -1.71507 -0.293513 0
M  V30 1189 O 116.916 -2.009 -0.141861 0
M  V30 1190 C 113.981 -3.46587 0.0884131 0
M  V30 1191 C 113.042 -4.14257 1.12646 0
M  V30 1192 C 112.275 -5.30844 0.551416 0
M  V30 1193 O 112.498 -5.66858 -0.634656 0
M  V30 1194 O 111.432 -5.87848 1.29298 0
M  V30 1195 H 115.258 -2.58513 1.59388 0
M  V30 1196 H 112.843 -1.23599 0.83926 0
M  V30 1197 H 114.725 -4.20679 -0.246361 0
M  V30 1198 H 113.4 -3.13994 -0.786712 0
M  V30 1199 H 112.307 -3.42118 1.51348 0
M  V30 1200 H 113.64 -4.50914 1.97325 0
M  V30 1201 N 115.292 -0.849877 -1.32721 0
M  V30 1202 C 116.522 -0.46408 -2.0132 0
M  V30 1203 C 116.93 0.94246 -1.64056 0
M  V30 1204 O 116.273 1.6257 -0.855379 0
M  V30 1205 C 116.335 -0.517887 -3.5575 0
M  V30 1206 C 115.999 -1.88248 -4.16427 0
M  V30 1207 C 116.996 -2.84726 -4.35002 0
M  V30 1208 C 114.681 -2.17832 -4.52609 0
M  V30 1209 C 116.675 -4.08945 -4.8892 0
M  V30 1210 C 114.362 -3.42304 -5.06232 0
M  V30 1211 C 115.36 -4.37677 -5.24335 0
M  V30 1212 O 115.048 -5.59946 -5.76815 0
M  V30 1213 H 114.78 -0.181327 -0.651227 0
M  V30 1214 H 117.334 -1.14713 -1.70382 0
M  V30 1215 H 115.564 0.221997 -3.86062 0
M  V30 1216 H 117.253 -0.148366 -4.05629 0
M  V30 1217 H 118.019 -2.63174 -4.07388 0
M  V30 1218 H 113.898 -1.44385 -4.37806 0
M  V30 1219 H 117.442 -4.83396 -5.02966 0
M  V30 1220 H 113.339 -3.63709 -5.33278 0
M  V30 1221 H 114.107 -5.61838 -5.95214 0
M  V30 1222 N 116.77 1.45427 -0.607355 0
M  V30 1223 C 117.702 2.2871 0.149752 0
M  V30 1224 C 118.715 1.39937 0.831958 0
M  V30 1225 O 119.904 1.64313 0.697385 0
M  V30 1226 C 117.004 3.15673 1.23304 0
M  V30 1227 C 116.177 4.32722 0.637996 0
M  V30 1228 C 115.236 5.00895 1.61215 0
M  V30 1229 O 114.262 5.57697 1.13854 0
M  V30 1230 N 115.464 5.00159 2.94655 0
M  V30 1231 H 118.229 2.94328 -0.564882 0
M  V30 1232 H 115.79 1.55612 -0.446823 0
M  V30 1233 H 117.782 3.58144 1.88454 0
M  V30 1234 H 116.352 2.51965 1.8502 0
M  V30 1235 H 115.572 3.93734 -0.191572 0
M  V30 1236 H 116.86 5.08321 0.220665 0
M  V30 1237 H 116.258 4.553 3.35735 0
M  V30 1238 H 114.815 5.46495 3.55228 0
M  V30 1239 N 118.248 0.346503 1.53744 0
M  V30 1240 C 119.497 -0.250122 2.00143 0
M  V30 1241 C 119.81 -1.51418 1.23822 0
M  V30 1242 O 121.016 -2.18823 1.60713 0
M  V30 1243 C 119.472 -0.496252 3.56462 0
M  V30 1244 C 119.08 0.752077 4.41642 0
M  V30 1245 C 120.824 -1.05157 4.11269 0
M  V30 1246 C 118.731 0.476583 5.89477 0
M  V30 1247 H 117.661 -0.0972409 0.747703 0
M  V30 1248 H 120.312 0.46229 1.77581 0
M  V30 1249 H 118.694 -1.26944 3.75102 0
M  V30 1250 H 119.868 1.5266 4.34778 0
M  V30 1251 H 118.183 1.22925 3.97842 0
M  V30 1252 H 120.78 -1.27269 5.19333 0
M  V30 1253 H 121.123 -2.00799 3.64672 0
M  V30 1254 H 121.656 -0.339019 3.96353 0
M  V30 1255 H 118.395 1.4028 6.40314 0
M  V30 1256 H 117.915 -0.259794 5.99237 0
M  V30 1257 H 119.594 0.0949315 6.4693 0
M  V30 1258 N 119.726 -1.57421 0.075193 0
M  V30 1259 C 120.658 -2.09904 -0.920483 0
M  V30 1260 C 121.671 -1.03191 -1.25918 0
M  V30 1261 O 122.86 -1.30695 -1.21577 0
M  V30 1262 C 119.96 -2.54726 -2.23534 0
M  V30 1263 C 119.133 -3.8505 -2.07498 0
M  V30 1264 C 118.192 -4.15929 -3.22319 0
M  V30 1265 O 117.218 -4.85474 -2.9716 0
M  V30 1266 N 118.42 -3.69745 -4.47514 0
M  V30 1267 H 121.185 -2.95954 -0.472359 0
M  V30 1268 H 118.746 -1.61523 -0.110444 0
M  V30 1269 H 120.738 -2.72443 -2.9926 0
M  V30 1270 H 119.308 -1.73795 -2.59835 0
M  V30 1271 H 118.528 -3.76679 -1.16219 0
M  V30 1272 H 119.816 -4.70348 -1.94038 0
M  V30 1273 H 119.214 -3.13569 -4.7084 0
M  V30 1274 H 117.771 -3.92655 -5.20255 0
M  V30 1275 N 121.204 0.198386 -1.56346 0
M  V30 1276 C 122.452 0.91747 -1.80075 0
M  V30 1277 C 122.773 1.83929 -0.647692 0
M  V30 1278 O 122.043 1.93029 0.334166 0
M  V30 1279 H 120.623 0.341774 -0.664228 0
M  V30 1280 H 123.285 0.204684 -1.93822 0
M  V30 1281 H 122.381 1.51055 -2.7311 0
M  V30 1282 N 122.682 1.50554 0.465978 0
M  V30 1283 C 123.63 1.70324 1.58406 0
M  V30 1284 C 124.624 0.569139 1.59553 0
M  V30 1285 O 125.83 0.749776 1.63641 0
M  V30 1286 H 122.205 0.537688 0.525734 0
M  V30 1287 H 124.176 2.64104 1.38894 0
M  V30 1288 C 122.925 1.81928 2.96307 0
M  V30 1289 H 122.248 2.68586 2.96144 0
M  V30 1290 H 123.688 1.99784 3.73982 0
M  V30 1291 C 122.147 0.572095 3.32007 0
M  V30 1292 O 122.677 -0.286416 4.00678 0
M  V30 1293 N 120.883 0.424606 2.87481 0
M  V30 1294 H 120.43 1.12427 2.31771 0
M  V30 1295 H 120.388 -0.408697 3.11732 0
M  V30 1296 N 124.16 -0.719506 1.40217 0
M  V30 1297 C 125.07 -1.86378 1.42479 0
M  V30 1298 C 126.086 -1.71073 0.317834 0
M  V30 1299 O 127.262 -1.93406 0.561794 0
M  V30 1300 C 124.327 -3.22136 1.28178 0
M  V30 1301 C 123.388 -3.49723 2.48982 0
M  V30 1302 C 122.621 -4.79004 2.35353 0
M  V30 1303 O 122.844 -5.53821 1.36524 0
M  V30 1304 O 121.778 -5.06839 3.2465 0
M  V30 1305 H 125.604 -1.87425 2.38968 0
M  V30 1306 H 123.189 -0.869405 1.21498 0
M  V30 1307 H 125.071 -4.03234 1.22395 0
M  V30 1308 H 123.746 -3.21825 0.347934 0
M  V30 1309 H 122.653 -2.6865 2.60342 0
M  V30 1310 H 123.986 -3.54828 3.41113 0
M  V30 1311 N 125.638 -1.25649 -0.95132 0
M  V30 1312 C 127.049 -1.09654 -1.51106 0
M  V30 1313 C 127.4 0.326615 -1.93462 0
M  V30 1314 O 126.525 1.21697 -1.78938 0
M  V30 1315 C 127.12 -1.98437 -2.74605 0
M  V30 1316 C 125.679 -1.86618 -3.2688 0
M  V30 1317 C 124.826 -1.9239 -1.99703 0
M  V30 1318 H 127.777 -1.38887 -0.767865 0
M  V30 1319 H 127.798 -1.5263 -3.48546 0
M  V30 1320 H 127.31 -3.02009 -2.43746 0
M  V30 1321 H 125.411 -0.859421 -3.62553 0
M  V30 1322 H 125.524 -2.71607 -3.94673 0
M  V30 1323 H 123.888 -1.36317 -2.15151 0
M  V30 1324 H 124.671 -2.97573 -1.71188 0
M  V30 1325 N 127.117 1.15442 -1.07289 0
M  V30 1326 C 128.027 2.23786 -0.704057 0
M  V30 1327 C 129.043 1.7166 0.284413 0
M  V30 1328 O 130.219 2.00972 0.131205 0
M  V30 1329 C 127.284 3.46535 -0.106792 0
M  V30 1330 C 126.345 4.13654 -1.14842 0
M  V30 1331 C 125.578 5.30544 -0.57956 0
M  V30 1332 O 125.801 5.67187 0.604585 0
M  V30 1333 O 124.735 5.87154 -1.32414 0
M  V30 1334 H 128.561 2.57664 -1.60757 0
M  V30 1335 H 126.146 1.23152 -0.845803 0
M  V30 1336 H 128.028 4.20804 0.224048 0
M  V30 1337 H 126.703 3.14407 0.770049 0
M  V30 1338 H 125.61 3.4131 -1.5316 0
M  V30 1339 H 126.943 4.49861 -1.99714 0
M  V30 1340 N 128.595 0.856903 1.32268 0
M  V30 1341 C 129.82 0.474569 2.01897 0
M  V30 1342 C 130.245 -0.921766 1.63967 0
M  V30 1343 O 129.603 -1.60589 0.84148 0
M  V30 1344 C 129.651 0.623799 3.55164 0
M  V30 1345 O 128.755 -0.342459 4.10976 0
M  V30 1346 H 128.096 0.190422 0.63611 0
M  V30 1347 H 130.626 1.15672 1.68764 0
M  V30 1348 H 130.636 0.512169 4.04773 0
M  V30 1349 H 129.311 1.64202 3.82113 0
M  V30 1350 H 127.888 -0.18688 3.72431 0
M  V30 1351 N 130.073 -1.45103 0.615059 0
M  V30 1352 C 131.35 -1.95549 0.0448276 0
M  V30 1353 C 131.73 -1.55737 -1.4251 0
M  V30 1354 O 131.078 -0.823556 -2.13143 0
M  V30 1355 C 131.288 -3.48098 0.250785 0
M  V30 1356 C 132.636 -4.24384 0.135509 0
M  V30 1357 O 133.66 -3.55738 0.181299 0
M  V30 1358 O 132.519 -5.46493 0.0268878 0
M  V30 1359 H 129.613 -0.8264 -0.0314845 0
M  V30 1360 H 132.159 -1.55232 0.685642 0
M  V30 1361 H 130.931 -3.7007 1.27139 0
M  V30 1362 H 130.554 -3.95323 -0.424937 0
M  V30 1363 N 131.551 -0.354651 -1.53558 0
M  V30 1364 C 132.499 0.512195 -2.26891 0
M  V30 1365 C 133.493 1.09263 -1.29452 0
M  V30 1366 O 134.699 1.03709 -1.47121 0
M  V30 1367 H 131.074 0.183878 -0.729173 0
M  V30 1368 H 133.045 -0.128202 -2.98124 0
M  V30 1369 C 131.794 1.64563 -3.06291 0
M  V30 1370 H 131.117 1.20829 -3.81104 0
M  V30 1371 H 132.557 2.22711 -3.60799 0
M  V30 1372 C 131.016 2.58158 -2.16462 0
M  V30 1373 O 131.546 3.60695 -1.76811 0
M  V30 1374 N 129.752 2.27096 -1.81317 0
M  V30 1375 H 129.299 1.43751 -2.1376 0
M  V30 1376 H 129.257 2.89975 -1.21498 0
M  V30 1377 N 133.029 1.57378 -0.0835403 0
M  V30 1378 C 134.254 1.98682 0.594987 0
M  V30 1379 C 134.679 0.961969 1.61641 0
M  V30 1380 O 134.037 -0.0709989 1.81161 0
M  V30 1381 C 134.085 3.38988 1.2296 0
M  V30 1382 O 133.189 3.39208 2.34546 0
M  V30 1383 H 132.53 0.646368 0.152002 0
M  V30 1384 H 135.06 2.03961 -0.161533 0
M  V30 1385 H 135.07 3.76431 1.57366 0
M  V30 1386 H 133.745 4.13107 0.481228 0
M  V30 1387 H 132.322 3.13548 2.01846 0
M  V30 1388 N 134.507 -0.190092 1.56449 0
M  V30 1389 C 135.732 -0.929864 1.85387 0
M  V30 1390 C 136.157 -1.7585 0.667704 0
M  V30 1391 O 135.515 -1.77198 -0.383459 0
M  V30 1392 C 135.563 -1.79773 3.12593 0
M  V30 1393 O 134.667 -2.89713 2.93496 0
M  V30 1394 H 134.008 -0.261574 0.610307 0
M  V30 1395 H 136.538 -0.193896 2.03679 0
M  V30 1396 H 136.548 -2.20139 3.43515 0
M  V30 1397 H 135.223 -1.18892 3.98544 0
M  V30 1398 H 133.8 -2.53065 2.73884 0
M  V30 1399 N 135.985 -1.50799 -0.457987 0
M  V30 1400 C 137.231 -1.63648 -1.20792 0
M  V30 1401 C 137.586 -0.338662 -1.89396 0
M  V30 1402 O 136.879 0.664291 -1.79716 0
M  V30 1403 C 137.073 -2.76358 -2.2663 0
M  V30 1404 C 136.902 -4.16974 -1.68411 0
M  V30 1405 C 135.672 -4.83199 -1.47807 0
M  V30 1406 C 137.87 -5.00774 -1.17176 0
M  V30 1407 N 135.852 -6.07991 -0.849692 0
M  V30 1408 C 137.223 -6.16397 -0.667403 0
M  V30 1409 C 139.278 -4.86452 -1.06155 0
M  V30 1410 C 137.981 -7.19272 -0.0636908 0
M  V30 1411 C 140.007 -5.89515 -0.471759 0
M  V30 1412 C 139.369 -7.04397 0.0221557 0
M  V30 1413 H 135.468 -0.652888 -0.43042 0
M  V30 1414 H 138.052 -1.87962 -0.507785 0
M  V30 1415 H 136.223 -2.53744 -2.94056 0
M  V30 1416 H 137.955 -2.78496 -2.93636 0
M  V30 1417 H 134.71 -4.40714 -1.73403 0
M  V30 1418 H 135.134 -6.74733 -0.553537 0
M  V30 1419 H 139.776 -3.97907 -1.42932 0
M  V30 1420 H 137.494 -8.07481 0.316253 0
M  V30 1421 H 141.08 -5.805 -0.388671 0
M  V30 1422 H 139.96 -7.82782 0.471375 0
M  V30 1423 N 137.463 0.71206 -1.40597 0
M  V30 1424 C 138.691 1.50111 -1.42388 0
M  V30 1425 C 139.106 1.88784 -0.0245395 0
M  V30 1426 O 138.463 1.55681 0.952351 0
M  V30 1427 C 138.514 2.7742 -2.31776 0
M  V30 1428 O 138.235 2.40382 -3.66262 0
M  V30 1429 C 139.736 3.7129 -2.42196 0
M  V30 1430 H 136.956 0.46314 -0.485533 0
M  V30 1431 H 139.5 0.878068 -1.8469 0
M  V30 1432 H 137.655 3.36001 -1.92827 0
M  V30 1433 H 138.069 3.22324 -4.13772 0
M  V30 1434 H 139.543 4.57448 -3.08943 0
M  V30 1435 H 140.02 4.14641 -1.44809 0
M  V30 1436 H 140.626 3.18619 -2.81712 0
M  V30 1437 N 138.941 1.26152 0.944643 0
M  V30 1438 C 140.357 1.03189 1.21754 0
M  V30 1439 C 140.557 -0.245112 2.00004 0
M  V30 1440 O 139.613 -0.955176 2.33736 0
M  V30 1441 C 140.926 2.26119 1.98219 0
M  V30 1442 C 142.474 2.30984 2.11224 0
M  V30 1443 C 142.949 3.53597 2.91089 0
M  V30 1444 N 144.44 3.54053 2.98664 0
M  V30 1445 C 145.175 4.45593 3.60881 0
M  V30 1446 N 144.671 5.47416 4.24626 0
M  V30 1447 N 146.464 4.33252 3.58119 0
M  V30 1448 H 138.615 2.08177 0.421437 0
M  V30 1449 H 140.878 0.914723 0.248969 0
M  V30 1450 H 140.584 3.18984 1.48128 0
M  V30 1451 H 140.458 2.3009 2.98895 0
M  V30 1452 H 142.845 1.38635 2.60508 0
M  V30 1453 H 142.926 2.31026 1.09821 0
M  V30 1454 H 142.57 4.46273 2.42493 0
M  V30 1455 H 142.5 3.50802 3.92741 0
M  V30 1456 H 144.991 2.80403 2.53343 0
M  V30 1457 H 145.304 6.13459 4.69987 0
M  V30 1458 H 143.649 5.51278 4.23223 0
M  V30 1459 H 146.84 3.52924 3.0751 0
M  V30 1460 H 147.013 5.04786 4.06319 0
M  V30 1461 N 140.419 -1.14872 1.07899 0
M  V30 1462 C 141.665 -1.86064 0.806725 0
M  V30 1463 C 141.998 -1.82434 -0.665706 0
M  V30 1464 O 141.273 -1.25138 -1.48899 0
M  V30 1465 C 141.556 -3.34929 1.32267 0
M  V30 1466 C 141.409 -3.47161 2.86006 0
M  V30 1467 C 142.728 -4.29863 0.943717 0
M  V30 1468 H 139.847 -0.675591 0.294526 0
M  V30 1469 H 142.489 -1.34925 1.33773 0
M  V30 1470 H 140.639 -3.78611 0.870974 0
M  V30 1471 H 142.311 -3.12302 3.39507 0
M  V30 1472 H 140.554 -2.88539 3.23925 0
M  V30 1473 H 141.225 -4.51777 3.17177 0
M  V30 1474 H 143.701 -3.9417 1.33302 0
M  V30 1475 H 142.577 -5.32494 1.33198 0
M  V30 1476 H 142.838 -4.41846 -0.149796 0
M  V30 1477 N 141.898 -0.863906 -1.31812 0
M  V30 1478 C 142.861 -0.320212 -2.26952 0
M  V30 1479 C 143.861 0.525369 -1.51975 0
M  V30 1480 O 145.051 0.335547 -1.70938 0
M  V30 1481 C 142.183 0.545919 -3.365 0
M  V30 1482 H 143.376 -1.16004 -2.76556 0
M  V30 1483 H 140.929 -0.638995 -1.42641 0
M  V30 1484 H 141.664 1.40718 -2.92179 0
M  V30 1485 H 141.449 -0.0594674 -3.92055 0
M  V30 1486 H 142.939 0.918796 -4.07367 0
M  V30 1487 N 143.376 1.44774 -0.622745 0
M  V30 1488 C 144.623 2.02121 -0.1239 0
M  V30 1489 C 144.951 1.48915 1.25118 0
M  V30 1490 O 144.206 0.660045 1.84233 0
M  V30 1491 C 144.505 3.57364 -0.0508323 0
M  V30 1492 C 144.171 4.29787 -1.36358 0
M  V30 1493 C 142.833 4.4929 -1.72314 0
M  V30 1494 C 145.185 4.71062 -2.23048 0
M  V30 1495 C 142.513 5.07325 -2.94682 0
M  V30 1496 C 144.865 5.30452 -3.44679 0
M  V30 1497 C 143.529 5.48175 -3.80868 0
M  V30 1498 H 142.799 0.739612 -0.0453381 0
M  V30 1499 H 145.446 1.73648 -0.807389 0
M  V30 1500 H 143.751 3.85202 0.715991 0
M  V30 1501 H 145.448 3.99456 0.351533 0
M  V30 1502 H 142.038 4.14932 -1.07375 0
M  V30 1503 H 146.222 4.55715 -1.96565 0
M  V30 1504 H 141.478 5.19235 -3.22809 0
M  V30 1505 H 145.652 5.61385 -4.12092 0
M  V30 1506 H 143.279 5.92912 -4.75773 0
M  V30 1507 N 144.854 0.36279 1.53368 0
M  V30 1508 C 145.817 -0.472679 2.24273 0
M  V30 1509 C 146.817 -1.012 1.24961 0
M  V30 1510 O 148.007 -0.898194 1.49259 0
M  V30 1511 C 145.139 -1.66039 2.97731 0
M  V30 1512 H 146.332 0.14773 2.99536 0
M  V30 1513 H 143.885 0.114434 1.55881 0
M  V30 1514 H 144.62 -2.31896 2.26704 0
M  V30 1515 H 144.405 -1.28066 3.70596 0
M  V30 1516 H 145.895 -2.25252 3.51641 0
M  V30 1517 N 146.332 -1.57332 0.0918853 0
M  V30 1518 C 147.58 -1.93853 -0.571446 0
M  V30 1519 C 147.901 -0.974212 -1.6892 0
M  V30 1520 O 147.171 -0.0257254 -1.95883 0
M  V30 1521 H 145.751 -0.715666 -0.214082 0
M  V30 1522 H 148.413 -1.94287 0.154464 0
M  V30 1523 H 147.509 -2.96191 -0.983729 0
M  V30 1524 N 147.81 0.181792 -1.56548 0
M  V30 1525 C 148.74 1.22765 -1.98623 0
M  V30 1526 C 149.721 1.46747 -0.860189 0
M  V30 1527 O 150.906 1.58259 -1.12551 0
M  V30 1528 C 148.036 2.56894 -2.33715 0
M  V30 1529 C 146.99 2.475 -3.49182 0
M  V30 1530 C 146.316 3.86023 -3.69986 0
M  V30 1531 C 147.616 1.98866 -4.82959 0
M  V30 1532 H 149.31 0.877942 -2.86239 0
M  V30 1533 H 146.856 0.42088 -1.37712 0
M  V30 1534 H 148.809 3.30253 -2.61746 0
M  V30 1535 H 147.533 2.93632 -1.42997 0
M  V30 1536 H 146.192 1.76596 -3.21262 0
M  V30 1537 H 145.84 4.20136 -2.76576 0
M  V30 1538 H 145.54 3.80609 -4.47672 0
M  V30 1539 H 147.064 4.60984 -4.00407 0
M  V30 1540 H 148.478 2.61992 -5.09934 0
M  V30 1541 H 146.875 2.04424 -5.64208 0
M  V30 1542 H 147.945 0.942465 -4.75653 0
M  V30 1543 N 149.288 1.51039 0.449983 0
M  V30 1544 C 150.235 1.71439 1.54523 0
M  V30 1545 C 151.205 0.555871 1.56522 0
M  V30 1546 O 152.39 0.788871 1.73728 0
M  V30 1547 C 149.53 1.83384 2.92343 0
M  V30 1548 C 148.643 3.10873 2.9997 0
M  V30 1549 C 147.778 3.13488 4.28834 0
M  V30 1550 C 146.817 4.35343 4.30282 0
M  V30 1551 N 145.954 4.35579 5.5065 0
M  V30 1552 H 150.794 2.64934 1.36433 0
M  V30 1553 H 148.331 1.31312 0.662982 0
M  V30 1554 H 150.289 1.88291 3.72293 0
M  V30 1555 H 148.919 0.933086 3.0902 0
M  V30 1556 H 147.971 3.15336 2.12761 0
M  V30 1557 H 149.283 4.00814 2.96901 0
M  V30 1558 H 148.437 3.17241 5.17149 0
M  V30 1559 H 147.176 2.21414 4.34543 0
M  V30 1560 H 146.181 4.3178 3.40362 0
M  V30 1561 H 147.406 5.28668 4.26248 0
M  V30 1562 H 145.352 3.46369 5.57104 0
M  V30 1563 H 145.269 5.19313 5.49409 0
M  V30 1564 H 146.537 4.43507 6.41032 0
M  V30 1565 N 150.766 -0.704594 1.40972 0
M  V30 1566 C 152.013 -1.46458 1.39844 0
M  V30 1567 C 152.341 -1.94499 0.00447594 0
M  V30 1568 O 151.596 -1.69275 -0.982057 0
M  V30 1569 C 151.895 -2.698 2.34399 0
M  V30 1570 C 151.561 -2.40464 3.81429 0
M  V30 1571 C 150.223 -2.32174 4.21484 0
M  V30 1572 C 152.575 -2.16086 4.74296 0
M  V30 1573 C 149.903 -1.97589 5.52427 0
M  V30 1574 C 152.255 -1.83011 6.05549 0
M  V30 1575 C 150.919 -1.7321 6.44635 0
M  V30 1576 H 150.189 -0.535927 0.511725 0
M  V30 1577 H 152.836 -0.806124 1.73706 0
M  V30 1578 H 151.141 -3.40536 1.93759 0
M  V30 1579 H 152.838 -3.27919 2.30804 0
M  V30 1580 H 149.428 -2.47808 3.49699 0
M  V30 1581 H 153.612 -2.2144 4.4416 0
M  V30 1582 H 148.868 -1.88547 5.81601 0
M  V30 1583 H 153.042 -1.63164 6.77016 0
M  V30 1584 H 150.669 -1.46179 7.46013 0
M  V30 1585 N 152.244 -1.26651 -0.937939 0
M  V30 1586 C 153.176 -1.04283 -2.04102 0
M  V30 1587 C 154.189 -0.00221014 -1.628 0
M  V30 1588 O 155.378 -0.242645 -1.76843 0
M  V30 1589 C 152.478 -0.557846 -3.34277 0
M  V30 1590 C 151.651 -1.66843 -4.04329 0
M  V30 1591 C 150.71 -1.18095 -5.12777 0
M  V30 1592 O 149.736 -1.87865 -5.37304 0
M  V30 1593 N 150.938 -0.0311006 -5.80492 0
M  V30 1594 H 153.703 -1.9927 -2.23856 0
M  V30 1595 H 151.264 -1.1808 -1.10764 0
M  V30 1596 H 153.256 -0.215836 -4.04124 0
M  V30 1597 H 151.826 0.298523 -3.11171 0
M  V30 1598 H 151.046 -2.18123 -3.28353 0
M  V30 1599 H 152.334 -2.41408 -4.47883 0
M  V30 1600 H 151.732 0.551486 -5.63005 0
M  V30 1601 H 150.289 0.251809 -6.51313 0
M  V30 1602 N 153.722 1.14298 -1.08507 0
M  V30 1603 C 154.999 1.81544 -0.728088 0
M  V30 1604 C 155.379 1.95838 0.78808 0
M  V30 1605 O 154.727 1.51904 1.70697 0
M  V30 1606 C 154.937 3.17169 -1.45619 0
M  V30 1607 C 156.285 3.9265 -1.61591 0
M  V30 1608 O 157.309 3.26762 -1.41793 0
M  V30 1609 O 156.168 5.10807 -1.94263 0
M  V30 1610 H 153.262 0.78491 -0.260471 0
M  V30 1611 H 155.808 1.21307 -1.18671 0
M  V30 1612 H 154.58 3.01934 -2.489 0
M  V30 1613 H 154.203 3.851 -0.989124 0
M  V30 1614 N 155.201 0.870884 1.31352 0
M  V30 1615 C 156.447 0.482987 1.96965 0
M  V30 1616 C 156.78 -0.962462 1.68672 0
M  V30 1617 O 156.055 -1.6779 0.98371 0
M  V30 1618 C 156.338 0.741752 3.52378 0
M  V30 1619 C 156.191 2.2368 3.9024 0
M  V30 1620 C 157.51 0.208838 4.39604 0
M  V30 1621 H 154.629 0.176955 0.715441 0
M  V30 1622 H 157.271 1.09229 1.55464 0
M  V30 1623 H 155.421 0.223149 3.87859 0
M  V30 1624 H 157.093 2.82273 3.64856 0
M  V30 1625 H 155.336 2.70901 3.38814 0
M  V30 1626 H 156.007 2.3685 4.98604 0
M  V30 1627 H 158.483 0.652529 4.10952 0
M  V30 1628 H 157.359 0.419336 5.47296 0
M  V30 1629 H 157.62 -0.889275 4.33064 0
M  V30 1630 N 156.679 -1.44442 0.630414 0
M  V30 1631 C 157.927 -2.01653 0.134351 0
M  V30 1632 C 158.248 -1.49836 -1.24796 0
M  V30 1633 O 157.518 -0.701684 -1.82902 0
M  V30 1634 H 156.098 -0.74554 0.0466769 0
M  V30 1635 H 158.76 -1.76952 0.816955 0
M  V30 1636 H 157.856 -3.11935 0.101498 0
M  V30 1637 N 158.157 -0.370918 -1.53173 0
M  V30 1638 C 159.382 0.220293 -2.06227 0
M  V30 1639 C 159.807 1.41243 -1.24225 0
M  V30 1640 O 159.165 1.79387 -0.262645 0
M  V30 1641 C 159.213 0.586663 -3.55796 0
M  V30 1642 O 158.317 1.68317 -3.76488 0
M  V30 1643 H 157.658 0.0308099 -0.663285 0
M  V30 1644 H 160.188 -0.533068 -1.97534 0
M  V30 1645 H 160.198 0.85617 -3.98916 0
M  V30 1646 H 158.873 -0.285013 -4.14922 0
M  V30 1647 H 157.45 1.40881 -3.45264 0
M  V30 1648 N 159.635 1.57281 -0.100228 0
M  V30 1649 C 160.882 1.94537 0.562268 0
M  V30 1650 C 161.21 0.982315 1.67871 0
M  V30 1651 O 160.465 0.00280936 1.957 0
M  V30 1652 C 160.764 3.38305 1.15259 0
M  V30 1653 C 160.43 4.50618 0.159409 0
M  V30 1654 C 159.092 4.81066 -0.113741 0
M  V30 1655 C 161.444 5.18615 -0.518461 0
M  V30 1656 C 158.772 5.76835 -1.07137 0
M  V30 1657 C 161.124 6.15412 -1.46459 0
M  V30 1658 C 159.788 6.44262 -1.74592 0
M  V30 1659 H 159.058 0.711863 0.205748 0
M  V30 1660 H 161.705 1.90679 -0.17715 0
M  V30 1661 H 160.01 3.38766 1.96836 0
M  V30 1662 H 161.707 3.64435 1.67297 0
M  V30 1663 H 158.297 4.2689 0.382491 0
M  V30 1664 H 162.481 4.95264 -0.320581 0
M  V30 1665 H 157.737 5.975 -1.29628 0
M  V30 1666 H 161.911 6.67194 -1.99564 0
M  V30 1667 H 159.538 7.1828 -2.48953 0
M  V30 1668 N 161.113 -0.173488 1.56642 0
M  V30 1669 C 162.39 -0.917617 1.7274 0
M  V30 1670 C 162.77 -2.00484 0.661027 0
M  V30 1671 O 162.118 -2.26184 -0.32453 0
M  V30 1672 C 162.328 -1.48433 3.15862 0
M  V30 1673 C 163.676 -1.95809 3.76754 0
M  V30 1674 O 164.7 -1.58231 3.19126 0
M  V30 1675 O 163.559 -2.65024 4.77938 0
M  V30 1676 H 160.653 -0.431772 0.705338 0
M  V30 1677 H 163.199 -0.161487 1.6893 0
M  V30 1678 H 161.971 -0.701715 3.84957 0
M  V30 1679 H 161.594 -2.30471 3.23989 0
M  V30 1680 N 162.591 -1.51276 -0.441967 0
M  V30 1681 C 163.821 -1.67273 -1.21257 0
M  V30 1682 C 164.229 -0.367624 -1.85594 0
M  V30 1683 O 163.572 0.663349 -1.71305 0
M  V30 1684 C 163.634 -2.72807 -2.34129 0
M  V30 1685 C 163.298 -4.1554 -1.90198 0
M  V30 1686 C 164.295 -5.00471 -1.40801 0
M  V30 1687 C 161.98 -4.61616 -1.9803 0
M  V30 1688 C 163.974 -6.29536 -0.998174 0
M  V30 1689 C 161.661 -5.90679 -1.56658 0
M  V30 1690 C 162.659 -6.74466 -1.07633 0
M  V30 1691 O 162.347 -8.01116 -0.668459 0
M  V30 1692 H 162.079 -0.564614 -0.371734 0
M  V30 1693 H 164.633 -1.9843 -0.530521 0
M  V30 1694 H 162.863 -2.36954 -3.05597 0
M  V30 1695 H 164.552 -2.77729 -2.96009 0
M  V30 1696 H 165.318 -4.66079 -1.34148 0
M  V30 1697 H 161.197 -3.96526 -2.35135 0
M  V30 1698 H 164.741 -6.94885 -0.61482 0
M  V30 1699 H 160.638 -6.24586 -1.62979 0
M  V30 1700 H 161.406 -8.14633 -0.794722 0
M  V30 1701 N 164.069 0.697108 -1.41344 0
M  V30 1702 C 165.317 1.45426 -1.40341 0
M  V30 1703 C 165.638 1.94996 -0.0128787 0
M  V30 1704 O 164.908 1.71599 0.945027 0
M  V30 1705 H 163.488 0.539594 -0.516573 0
M  V30 1706 H 166.15 0.825201 -1.76569 0
M  V30 1707 H 165.246 2.31817 -2.08967 0
M  V30 1708 N 165.547 1.27147 0.931209 0
M  V30 1709 C 166.963 1.04475 1.20653 0
M  V30 1710 C 167.163 -0.223885 2.00252 0
M  V30 1711 O 166.219 -0.930332 2.34736 0
M  V30 1712 C 167.532 2.28209 1.95809 0
M  V30 1713 C 169.08 2.33211 2.08762 0
M  V30 1714 C 169.555 3.56665 2.87323 0
M  V30 1715 N 171.046 3.57201 2.94892 0
M  V30 1716 C 171.781 4.49395 3.56134 0
M  V30 1717 N 171.277 5.51889 4.18796 0
M  V30 1718 N 173.07 4.37026 3.53504 0
M  V30 1719 H 165.221 2.08612 0.399333 0
M  V30 1720 H 167.484 0.917312 0.239253 0
M  V30 1721 H 167.19 3.20538 1.44736 0
M  V30 1722 H 167.064 2.33247 2.96438 0
M  V30 1723 H 169.451 1.41391 2.59023 0
M  V30 1724 H 169.532 2.32178 1.07364 0
M  V30 1725 H 169.176 4.4882 2.37746 0
M  V30 1726 H 169.106 3.54948 3.88998 0
M  V30 1727 H 171.597 2.83074 2.50354 0
M  V30 1728 H 171.91 6.18409 4.63454 0
M  V30 1729 H 170.255 5.55735 4.17353 0
M  V30 1730 H 173.446 3.56166 3.03749 0
M  V30 1731 H 173.619 5.09067 4.00942 0
M  V30 1732 N 167.025 -1.13721 1.09112 0
M  V30 1733 C 167.973 -2.21103 0.722219 0
M  V30 1734 C 168.967 -1.67147 -0.275374 0
M  V30 1735 O 170.173 -1.79477 -0.137176 0
M  V30 1736 H 166.548 -0.720445 0.215553 0
M  V30 1737 H 168.519 -2.49483 1.63709 0
M  V30 1738 C 167.268 -3.47352 0.15543 0
M  V30 1739 H 166.591 -3.89206 0.914246 0
M  V30 1740 H 168.031 -4.2395 -0.0647967 0
M  V30 1741 C 166.49 -3.1814 -1.10852 0
M  V30 1742 O 167.02 -3.36604 -2.19227 0
M  V30 1743 N 165.226 -2.72045 -1.02176 0
M  V30 1744 H 164.773 -2.57221 -0.139764 0
M  V30 1745 H 164.731 -2.52875 -1.8682 0
M  V30 1746 N 168.503 -0.877838 -1.30888 0
M  V30 1747 C 169.733 -0.506678 -2.00291 0
M  V30 1748 C 170.141 0.907449 -1.66018 0
M  V30 1749 O 169.484 1.60719 -0.88967 0
M  V30 1750 C 169.546 -0.59323 -3.54572 0
M  V30 1751 C 169.21 -1.97038 -4.12341 0
M  V30 1752 C 170.207 -2.93889 -4.28865 0
M  V30 1753 C 167.892 -2.27383 -4.47886 0
M  V30 1754 C 169.886 -4.19224 -4.80136 0
M  V30 1755 C 167.573 -3.52965 -4.98857 0
M  V30 1756 C 168.571 -4.48701 -5.14934 0
M  V30 1757 O 168.259 -5.72056 -5.64808 0
M  V30 1758 H 167.991 -0.1951 -0.647234 0
M  V30 1759 H 170.545 -1.18301 -1.6791 0
M  V30 1760 H 168.775 0.140057 -3.86446 0
M  V30 1761 H 170.464 -0.234372 -4.05223 0
M  V30 1762 H 171.23 -2.71756 -4.01714 0
M  V30 1763 H 167.109 -1.53639 -4.34645 0
M  V30 1764 H 170.653 -4.93956 -4.92599 0
M  V30 1765 H 166.55 -3.74939 -5.25443 0
M  V30 1766 H 167.318 -5.74337 -5.83163 0
M  V30 1767 N 169.982 1.44106 -0.638065 0
M  V30 1768 C 171.23 2.01579 -0.145043 0
M  V30 1769 C 171.551 1.50496 1.24 0
M  V30 1770 O 170.821 0.711374 1.82527 0
M  V30 1771 H 169.401 0.745282 -0.05063 0
M  V30 1772 H 172.063 1.76516 -0.826327 0
M  V30 1773 H 171.159 3.11877 -0.118039 0
M  V30 1774 N 171.46 0.379036 1.52974 0
M  V30 1775 C 172.706 -0.206727 2.01744 0
M  V30 1776 C 173.039 -1.47314 1.26539 0
M  V30 1777 O 172.314 -1.91084 0.362903 0
M  V30 1778 C 172.597 -0.485066 3.56818 0
M  V30 1779 C 172.45 0.795919 4.42702 0
M  V30 1780 C 173.769 -1.28003 4.21074 0
M  V30 1781 H 170.888 -0.0736607 0.73331 0
M  V30 1782 H 173.53 0.506581 1.83122 0
M  V30 1783 H 171.68 -1.09272 3.72816 0
M  V30 1784 H 173.352 1.43307 4.38476 0
M  V30 1785 H 171.595 1.41344 4.10127 0
M  V30 1786 H 172.266 0.555947 5.49193 0
M  V30 1787 H 174.742 -0.765867 4.08991 0
M  V30 1788 H 173.618 -1.44352 5.29579 0
M  V30 1789 H 173.879 -2.29236 3.78026 0
M  V30 1790 N 172.938 -1.57226 0.108567 0
M  V30 1791 C 174.184 -1.95121 -0.552761 0
M  V30 1792 C 174.517 -0.991345 -1.66991 0
M  V30 1793 O 173.792 -0.0267211 -1.94482 0
M  V30 1794 C 174.075 -3.43039 -1.09528 0
M  V30 1795 C 173.928 -4.49797 0.0177332 0
M  V30 1796 C 175.247 -3.92567 -1.98945 0
M  V30 1797 H 172.366 -0.709496 -0.199461 0
M  V30 1798 H 175.008 -1.89126 0.182011 0
M  V30 1799 H 173.158 -3.48279 -1.72146 0
M  V30 1800 H 174.83 -4.56661 0.652584 0
M  V30 1801 H 173.073 -4.284 0.682309 0
M  V30 1802 H 173.744 -5.50528 -0.402919 0
M  V30 1803 H 176.22 -3.89565 -1.46214 0
M  V30 1804 H 175.096 -4.96605 -2.33827 0
M  V30 1805 H 175.357 -3.32648 -2.91201 0
M  V30 1806 N 174.416 0.165178 -1.56732 0
M  V30 1807 C 175.646 0.894919 -1.86212 0
M  V30 1808 C 176.054 1.76066 -0.692627 0
M  V30 1809 O 175.397 1.80387 0.347303 0
M  V30 1810 C 175.459 1.8174 -3.10179 0
M  V30 1811 C 175.123 1.13064 -4.42793 0
M  V30 1812 C 176.12 0.493169 -5.17556 0
M  V30 1813 C 173.805 1.12556 -4.89527 0
M  V30 1814 C 175.799 -0.140209 -6.37246 0
M  V30 1815 C 173.486 0.488366 -6.09145 0
M  V30 1816 C 174.484 -0.143411 -6.82849 0
M  V30 1817 O 174.172 -0.77055 -8.00199 0
M  V30 1818 H 173.904 0.265114 -0.621844 0
M  V30 1819 H 176.458 0.168242 -2.0471 0
M  V30 1820 H 174.688 2.58455 -2.87642 0
M  V30 1821 H 176.377 2.4175 -3.26055 0
M  V30 1822 H 177.143 0.489023 -4.82528 0
M  V30 1823 H 173.022 1.60672 -4.32094 0
M  V30 1824 H 176.566 -0.633932 -6.94714 0
M  V30 1825 H 172.463 0.490116 -6.43637 0
M  V30 1826 H 173.231 -0.670408 -8.1575 0
M  V30 1827 N 175.894 1.51508 0.433938 0
M  V30 1828 C 177.171 1.54888 1.19453 0
M  V30 1829 C 177.551 0.315154 2.08734 0
M  V30 1830 O 176.899 -0.699558 2.17528 0
M  V30 1831 C 177.109 2.86467 1.99342 0
M  V30 1832 C 178.457 3.38545 2.56267 0
M  V30 1833 O 179.481 2.88041 2.0955 0
M  V30 1834 O 178.34 4.26675 3.41483 0
M  V30 1835 H 175.434 0.622863 0.544032 0
M  V30 1836 H 177.98 1.63823 0.442732 0
M  V30 1837 H 176.752 3.67718 1.33788 0
M  V30 1838 H 176.375 2.8071 2.8158 0
M  V30 1839 N 177.372 -0.689602 1.41712 0
M  V30 1840 C 178.618 -1.45181 1.41599 0
M  V30 1841 C 178.951 -1.94181 0.0270081 0
M  V30 1842 O 178.226 -1.6993 -0.946265 0
M  V30 1843 C 178.509 -2.65945 2.42787 0
M  V30 1844 C 178.362 -2.22672 3.90816 0
M  V30 1845 C 179.681 -3.68149 2.41151 0
M  V30 1846 H 176.8 -0.526576 0.515642 0
M  V30 1847 H 179.442 -0.784947 1.73028 0
M  V30 1848 H 177.592 -3.2284 2.16116 0
M  V30 1849 H 179.264 -1.71058 4.28412 0
M  V30 1850 H 177.507 -1.54394 4.05395 0
M  V30 1851 H 178.178 -3.0935 4.57172 0
M  V30 1852 H 180.654 -3.2094 2.64834 0
M  V30 1853 H 179.53 -4.50248 3.13955 0
M  V30 1854 H 179.791 -4.18259 1.43221 0
M  V30 1855 N 178.85 -1.27639 -0.924453 0
M  V30 1856 C 180.078 -1.16989 -1.70649 0
M  V30 1857 C 180.493 0.272869 -1.86818 0
M  V30 1858 O 179.85 1.18549 -1.38753 0
M  V30 1859 C 179.901 -1.85229 -3.10439 0
M  V30 1860 O 179.622 -3.23868 -2.95028 0
M  V30 1861 C 181.123 -1.80746 -4.04779 0
M  V30 1862 H 178.343 -0.406595 -0.53378 0
M  V30 1863 H 180.887 -1.68569 -1.15778 0
M  V30 1864 H 179.042 -1.37545 -3.6216 0
M  V30 1865 H 179.456 -3.57889 -3.83426 0
M  V30 1866 H 180.93 -2.33101 -5.00368 0
M  V30 1867 H 181.407 -0.777499 -4.32263 0
M  V30 1868 H 182.013 -2.28059 -3.58984 0
M  V30 1869 N 180.328 1.1314 -1.09713 0
M  V30 1870 C 181.553 1.88862 -0.857081 0
M  V30 1871 C 181.978 1.78729 0.586304 0
M  V30 1872 O 181.336 1.13692 1.41222 0
M  V30 1873 C 181.384 3.36325 -1.30069 0
M  V30 1874 O 180.488 4.09815 -0.461007 0
M  V30 1875 H 179.829 0.587108 -0.310162 0
M  V30 1876 H 182.359 1.43129 -1.46203 0
M  V30 1877 H 182.369 3.87157 -1.28738 0
M  V30 1878 H 181.044 3.43017 -2.35185 0
M  V30 1879 H 179.621 3.68986 -0.538888 0
M  V30 1880 N 181.806 0.884767 1.30421 0
M  V30 1881 C 183.052 0.513218 1.96819 0
M  V30 1882 C 183.407 -0.927347 1.68577 0
M  V30 1883 O 182.7 -1.64644 0.979941 0
M  V30 1884 C 182.894 0.724318 3.49983 0
M  V30 1885 C 182.723 2.18385 3.93113 0
M  V30 1886 C 181.493 2.82839 4.18725 0
M  V30 1887 C 183.691 3.15763 4.05953 0
M  V30 1888 N 181.673 4.1939 4.48314 0
M  V30 1889 C 183.044 4.37387 4.39423 0
M  V30 1890 C 185.099 3.11555 3.88379 0
M  V30 1891 C 183.802 5.55343 4.5715 0
M  V30 1892 C 185.828 4.28782 4.07308 0
M  V30 1893 C 185.19 5.49172 4.41123 0
M  V30 1894 H 181.289 0.237123 0.745182 0
M  V30 1895 H 183.873 1.14246 1.57658 0
M  V30 1896 H 182.044 0.124565 3.882 0
M  V30 1897 H 183.776 0.31969 4.03435 0
M  V30 1898 H 180.531 2.33708 4.11919 0
M  V30 1899 H 180.955 4.89911 4.67243 0
M  V30 1900 H 185.597 2.19576 3.61312 0
M  V30 1901 H 183.315 6.47826 4.8306 0
M  V30 1902 H 186.901 4.26995 3.95179 0
M  V30 1903 H 185.781 6.38371 4.55469 0
M  V30 1904 N 183.284 -1.43765 0.645699 0
M  V30 1905 C 184.512 -2.06253 0.163556 0
M  V30 1906 C 184.927 -1.48352 -1.16778 0
M  V30 1907 O 184.284 -0.611932 -1.71935 0
M  V30 1908 C 184.335 -3.61453 0.0583186 0
M  V30 1909 O 184.056 -4.172 1.33702 0
M  V30 1910 C 185.557 -4.41002 -0.450795 0
M  V30 1911 H 182.777 -0.665413 0.0864077 0
M  V30 1912 H 185.321 -1.84396 0.884222 0
M  V30 1913 H 183.476 -3.82522 -0.612865 0
M  V30 1914 H 183.89 -5.10791 1.19131 0
M  V30 1915 H 185.364 -5.49966 -0.473403 0
M  V30 1916 H 185.841 -4.13488 -1.48068 0
M  V30 1917 H 186.447 -4.24886 0.187637 0
M  V30 1918 N 184.763 -0.387143 -1.52771 0
M  V30 1919 C 186.04 0.253197 -1.93954 0
M  V30 1920 C 186.42 1.64545 -1.32243 0
M  V30 1921 O 185.768 2.23191 -0.489699 0
M  V30 1922 C 185.978 0.281722 -3.47861 0
M  V30 1923 C 187.326 0.511715 -4.21505 0
M  V30 1924 O 188.35 0.362023 -3.54356 0
M  V30 1925 O 187.209 0.804847 -5.40541 0
M  V30 1926 H 184.303 0.156845 -0.811991 0
M  V30 1927 H 186.849 -0.441494 -1.63856 0
M  V30 1928 H 185.621 -0.693571 -3.85104 0
M  V30 1929 H 185.244 1.02142 -3.84256 0
M  V30 1930 N 186.241 1.57166 -0.116904 0
M  V30 1931 C 187.487 1.95412 0.542405 0
M  V30 1932 C 187.82 1.00019 1.66463 0
M  V30 1933 O 187.095 0.0370346 1.94465 0
M  V30 1934 C 187.378 3.43615 1.07708 0
M  V30 1935 C 187.231 4.49781 -0.0415868 0
M  V30 1936 C 188.55 3.93616 1.96861 0
M  V30 1937 H 185.669 0.710543 0.195696 0
M  V30 1938 H 188.311 1.89027 -0.192038 0
M  V30 1939 H 186.461 3.49187 1.70296 0
M  V30 1940 H 188.133 4.56308 -0.676793 0
M  V30 1941 H 186.376 4.28033 -0.705019 0
M  V30 1942 H 187.047 5.50733 0.373717 0
M  V30 1943 H 189.523 3.90335 1.44146 0
M  V30 1944 H 188.399 4.97838 2.3119 0
M  V30 1945 H 188.66 3.34188 2.89432 0
M  V30 1946 N 187.719 -0.156864 1.56817 0
M  V30 1947 C 188.649 -1.19589 2.00551 0
M  V30 1948 C 189.63 -1.4536 0.883426 0
M  V30 1949 O 190.815 -1.56449 1.15054 0
M  V30 1950 C 187.945 -2.53143 2.37773 0
M  V30 1951 C 186.899 -2.41913 3.53075 0
M  V30 1952 C 186.225 -3.80088 3.76081 0
M  V30 1953 C 187.525 -1.91157 4.86062 0
M  V30 1954 H 189.219 -0.832293 2.87599 0
M  V30 1955 H 186.765 -0.398918 1.38364 0
M  V30 1956 H 188.718 -3.26047 2.66967 0
M  V30 1957 H 187.442 -2.91319 1.4765 0
M  V30 1958 H 186.101 -1.71462 3.24031 0
M  V30 1959 H 185.749 -4.15683 2.83225 0
M  V30 1960 H 185.449 -3.73439 4.53671 0
M  V30 1961 H 186.973 -4.54556 4.0769 0
M  V30 1962 H 188.387 -2.53846 5.14038 0
M  V30 1963 H 186.784 -1.95422 5.67389 0
M  V30 1964 H 187.854 -0.866673 4.77092 0
M  V30 1965 N 189.197 -1.51736 -0.425897 0
M  V30 1966 C 190.608 -1.5732 -1.00536 0
M  V30 1967 C 190.959 -0.403537 -1.92005 0
M  V30 1968 O 190.084 0.478256 -2.11049 0
M  V30 1969 C 190.679 -2.85119 -1.8301 0
M  V30 1970 C 189.238 -2.93236 -2.35987 0
M  V30 1971 C 188.385 -2.52098 -1.15508 0
M  V30 1972 H 191.336 -1.57348 -0.206739 0
M  V30 1973 H 191.357 -2.69526 -2.68581 0
M  V30 1974 H 190.869 -3.7023 -1.16411 0
M  V30 1975 H 188.97 -2.12581 -3.06007 0
M  V30 1976 H 189.083 -3.9713 -2.68001 0
M  V30 1977 H 187.447 -2.05558 -1.50393 0
M  V30 1978 H 188.23 -3.39565 -0.505014 0
M  V30 1979 N 190.675 0.682077 -1.42076 0
M  V30 1980 C 191.585 1.82535 -1.47371 0
M  V30 1981 C 192.601 1.7017 -0.363079 0
M  V30 1982 O 193.777 1.91848 -0.612875 0
M  V30 1983 C 190.842 3.18624 -1.36674 0
M  V30 1984 C 189.903 3.42999 -2.58167 0
M  V30 1985 C 189.136 4.72595 -2.4797 0
M  V30 1986 O 189.359 5.50006 -1.5116 0
M  V30 1987 O 188.293 4.98054 -3.37974 0
M  V30 1988 H 192.119 1.81023 -2.43853 0
M  V30 1989 H 189.704 0.836887 -1.2376 0
M  V30 1990 H 191.586 3.99847 -1.33043 0
M  V30 1991 H 190.261 3.20789 -0.433138 0
M  V30 1992 H 189.168 2.61653 -2.67373 0
M  V30 1993 H 190.501 3.45659 -3.50401 0
M  V30 1994 N 192.153 1.28127 0.917671 0
M  V30 1995 C 193.4 1.15052 1.66641 0
M  V30 1996 C 193.728 -0.301677 1.92146 0
M  V30 1997 O 192.983 -1.23622 1.51711 0
M  V30 1998 C 193.282 1.89018 3.03327 0
M  V30 1999 C 192.948 3.38832 2.97496 0
M  V30 2000 C 191.61 3.79693 2.95613 0
M  V30 2001 C 193.962 4.34378 2.88036 0
M  V30 2002 C 191.29 5.14447 2.82066 0
M  V30 2003 C 193.642 5.69201 2.7603 0
M  V30 2004 C 192.306 6.09343 2.72502 0
M  V30 2005 H 191.576 0.421006 0.609783 0
M  V30 2006 H 194.223 1.58855 1.06945 0
M  V30 2007 H 192.528 1.37752 3.66785 0
M  V30 2008 H 194.225 1.76321 3.60156 0
M  V30 2009 H 190.815 3.06342 2.99754 0
M  V30 2010 H 194.999 4.03775 2.88581 0
M  V30 2011 H 190.255 5.44681 2.77728 0
M  V30 2012 H 194.429 6.42901 2.67678 0
M  V30 2013 H 192.056 7.13712 2.61762 0
M  V30 2014 N 193.631 -1.12557 1.10312 0
M  V30 2015 C 194.879 -1.83675 0.843091 0
M  V30 2016 C 195.2 -1.84435 -0.633131 0
M  V30 2017 O 194.47 -1.30657 -1.45964 0
M  V30 2018 H 193.05 -0.680138 0.308904 0
M  V30 2019 H 195.712 -1.36301 1.39313 0
M  V30 2020 H 194.808 -2.87908 1.2048 0
M  V30 2021 N 195.109 -0.891671 -1.2995 0
M  V30 2022 C 196.357 -0.512486 -1.95494 0
M  V30 2023 C 196.678 0.942776 -1.70695 0
M  V30 2024 O 195.948 1.66374 -1.03424 0
M  V30 2025 H 194.528 -0.186533 -0.723336 0
M  V30 2026 H 197.19 -1.13621 -1.58355 0
M  V30 2027 H 196.286 -0.688342 -3.04415 0
M  V30 2028 N 196.587 1.43421 -0.653314 0
M  V30 2029 C 197.864 1.95361 -0.0966581 0
M  V30 2030 C 198.244 1.59461 1.38331 0
M  V30 2031 O 197.592 0.879777 2.10884 0
M  V30 2032 C 197.802 3.47311 -0.342988 0
M  V30 2033 C 199.15 4.23875 -0.24798 0
M  V30 2034 O 200.174 3.55133 -0.275553 0
M  V30 2035 O 199.033 5.4623 -0.171771 0
M  V30 2036 H 196.127 0.826945 0.00956291 0
M  V30 2037 H 198.673 1.5336 -0.726558 0
M  V30 2038 H 197.445 3.66569 -1.36906 0
M  V30 2039 H 197.068 3.9631 0.319975 0
M  V30 2040 N 198.065 0.39524 1.52563 0
M  V30 2041 C 199.293 -0.184943 2.06072 0
M  V30 2042 C 199.708 -1.40021 1.26647 0
M  V30 2043 O 199.065 -1.79767 0.314672 0
M  V30 2044 C 199.116 -0.549179 3.57304 0
M  V30 2045 O 198.837 0.617813 4.33722 0
M  V30 2046 C 200.338 -1.18459 4.2718 0
M  V30 2047 H 197.558 -0.0265025 0.670476 0
M  V30 2048 H 200.102 0.562184 1.96621 0
M  V30 2049 H 198.257 -1.2462 3.66809 0
M  V30 2050 H 198.671 0.317091 5.23541 0
M  V30 2051 H 200.145 -1.38976 5.34219 0
M  V30 2052 H 200.622 -2.15368 3.82771 0
M  V30 2053 H 201.228 -0.528163 4.22008 0
M  V30 2054 N 199.544 -1.57102 0.125237 0
M  V30 2055 C 200.774 -1.99472 -0.538015 0
M  V30 2056 C 201.182 -1.00395 -1.60366 0
M  V30 2057 O 200.525 0.0103875 -1.83697 0
M  V30 2058 C 200.587 -3.38262 -1.21734 0
M  V30 2059 C 200.251 -4.56021 -0.298897 0
M  V30 2060 C 201.248 -5.17817 0.464943 0
M  V30 2061 C 198.933 -5.01869 -0.208149 0
M  V30 2062 C 200.927 -6.23852 1.3072 0
M  V30 2063 C 198.614 -6.07763 0.637736 0
M  V30 2064 C 199.612 -6.68622 1.39403 0
M  V30 2065 O 199.3 -7.7247 2.22586 0
M  V30 2066 H 199.032 -0.659934 -0.146501 0
M  V30 2067 H 201.586 -2.04321 0.210267 0
M  V30 2068 H 199.816 -3.30185 -2.01282 0
M  V30 2069 H 201.505 -3.6488 -1.77813 0
M  V30 2070 H 202.271 -4.83308 0.404741 0
M  V30 2071 H 198.15 -4.54241 -0.786522 0
M  V30 2072 H 201.694 -6.71284 1.898 0
M  V30 2073 H 197.591 -6.41701 0.699309 0
M  V30 2074 H 198.359 -7.89595 2.15596 0
M  V30 2075 N 201.022 0.148545 -1.56898 0
M  V30 2076 C 202.299 0.890019 -1.74178 0
M  V30 2077 C 202.679 1.99407 -0.692839 0
M  V30 2078 O 202.027 2.26671 0.288505 0
M  V30 2079 C 202.237 1.43389 -3.18183 0
M  V30 2080 C 203.585 1.89791 -3.79822 0
M  V30 2081 O 204.609 1.53134 -3.21603 0
M  V30 2082 O 203.468 2.57387 -4.82093 0
M  V30 2083 H 200.562 0.420496 -0.712118 0
M  V30 2084 H 203.108 0.134591 -1.69165 0
M  V30 2085 H 201.88 0.640383 -3.86024 0
M  V30 2086 H 201.503 2.25287 -3.27615 0
M  V30 2087 N 202.5 1.5196 0.417844 0
M  V30 2088 C 203.725 1.69717 1.1921 0
M  V30 2089 C 204.15 0.402148 1.83751 0
M  V30 2090 O 203.508 -0.639593 1.69643 0
M  V30 2091 C 203.556 2.82794 2.2374 0
M  V30 2092 O 202.66 2.47756 3.29683 0
M  V30 2093 H 202.001 0.565263 0.348387 0
M  V30 2094 H 204.531 1.98621 0.490985 0
M  V30 2095 H 204.541 3.07452 2.68212 0
M  V30 2096 H 203.216 3.76756 1.76146 0
M  V30 2097 H 201.793 2.33739 2.90552 0
M  V30 2098 N 203.978 -0.674533 1.42435 0
M  V30 2099 C 205.255 -1.4305 1.33402 0
M  V30 2100 C 205.635 -2.11081 -0.0284674 0
M  V30 2101 O 204.983 -2.03257 -1.04397 0
M  V30 2102 C 205.193 -2.43272 2.50239 0
M  V30 2103 C 206.541 -3.07907 2.92367 0
M  V30 2104 O 207.565 -2.53599 2.50132 0
M  V30 2105 O 206.424 -4.0632 3.65467 0
M  V30 2106 H 203.518 -0.638076 0.526106 0
M  V30 2107 H 206.064 -0.703235 1.54443 0
M  V30 2108 H 204.836 -1.91803 3.41068 0
M  V30 2109 H 204.459 -3.23479 2.31186 0
M  V30 2110 N 205.456 -1.28612 -0.910864 0
M  V30 2111 C 206.404 -1.1265 -2.03501 0
M  V30 2112 C 207.398 -0.0450054 -1.6934 0
M  V30 2113 O 208.604 -0.203988 -1.7884 0
M  V30 2114 H 204.979 -0.347639 -0.666822 0
M  V30 2115 H 206.95 -2.07849 -2.14106 0
M  V30 2116 C 205.699 -0.808143 -3.38178 0
M  V30 2117 H 205.022 -1.63231 -3.6496 0
M  V30 2118 H 206.462 -0.736426 -4.17556 0
M  V30 2119 C 204.921 0.488226 -3.33344 0
M  V30 2120 O 205.451 1.51766 -3.71927 0
M  V30 2121 N 203.657 0.490009 -2.86439 0
M  V30 2122 H 203.204 -0.348161 -2.55236 0
M  V30 2123 H 203.162 1.35741 -2.83587 0
M  V30 2124 N 206.934 1.1197 -1.10907 0
M  V30 2125 C 208.181 1.83588 -0.854507 0
M  V30 2126 C 208.509 1.84357 0.6199 0
M  V30 2127 O 207.764 1.28809 1.47332 0
M  V30 2128 C 208.063 3.30749 -1.35425 0
M  V30 2129 C 207.729 3.50146 -2.84093 0
M  V30 2130 C 206.391 3.55148 -3.2469 0
M  V30 2131 C 208.743 3.56857 -3.79872 0
M  V30 2132 C 206.071 3.6441 -4.59806 0
M  V30 2133 C 208.423 3.6765 -5.14797 0
M  V30 2134 C 207.087 3.7091 -5.54961 0
M  V30 2135 H 206.357 0.671795 -0.312686 0
M  V30 2136 H 209.004 1.32091 -1.38652 0
M  V30 2137 H 207.309 3.84703 -0.742361 0
M  V30 2138 H 209.006 3.8464 -1.1337 0
M  V30 2139 H 205.596 3.46919 -2.51685 0
M  V30 2140 H 209.78 3.52258 -3.49611 0
M  V30 2141 H 205.036 3.65208 -4.9034 0
M  V30 2142 H 209.21 3.71786 -5.88853 0
M  V30 2143 H 206.837 3.7784 -6.59652 0
M  V30 2144 N 208.412 0.89855 1.29475 0
M  V30 2145 C 209.345 0.319981 2.25945 0
M  V30 2146 C 210.323 -0.567189 1.52387 0
M  V30 2147 O 211.507 -0.514254 1.8135 0
M  V30 2148 C 208.634 -0.544013 3.34303 0
M  V30 2149 C 207.68 0.275682 4.25608 0
M  V30 2150 S 208.513 1.67272 5.08704 0
M  V30 2151 C 209.669 0.815621 6.20563 0
M  V30 2152 H 209.902 1.13767 2.74671 0
M  V30 2153 H 207.435 0.69882 1.3768 0
M  V30 2154 H 209.393 -1.03673 3.97193 0
M  V30 2155 H 208.054 -1.33593 2.84274 0
M  V30 2156 H 207.247 -0.384263 5.02533 0
M  V30 2157 H 206.849 0.701496 3.67362 0
M  V30 2158 H 209.141 0.0385042 6.77489 0
M  V30 2159 H 210.084 1.55691 6.90772 0
M  V30 2160 H 210.492 0.370516 5.63283 0
M  V30 2161 N 209.89 -1.43072 0.660911 0
M  V30 2162 C 210.822 -2.29108 -0.0647641 0
M  V30 2163 C 211.835 -1.42928 -0.779448 0
M  V30 2164 O 213.024 -1.66788 -0.635921 0
M  V30 2165 C 210.124 -3.20032 -1.11503 0
M  V30 2166 C 209.297 -4.34792 -0.476955 0
M  V30 2167 C 208.356 -5.06534 -1.42513 0
M  V30 2168 O 207.382 -5.61538 -0.930771 0
M  V30 2169 N 208.584 -5.1075 -2.75889 0
M  V30 2170 H 211.349 -2.92029 0.673731 0
M  V30 2171 H 208.91 -1.53846 0.50427 0
M  V30 2172 H 210.902 -3.64892 -1.75032 0
M  V30 2173 H 209.472 -2.58658 -1.75541 0
M  V30 2174 H 208.692 -3.92752 0.337572 0
M  V30 2175 H 209.98 -5.0879 -0.0318525 0
M  V30 2176 H 209.378 -4.67447 -3.18606 0
M  V30 2177 H 207.935 -5.59302 -3.347 0
M  V30 2178 N 211.368 -0.403325 -1.52352 0
M  V30 2179 C 212.3 0.4603 -2.2453 0
M  V30 2180 C 213.313 1.01505 -1.27282 0
M  V30 2181 O 214.502 0.914982 -1.53266 0
M  V30 2182 C 211.602 1.65208 -2.95905 0
M  V30 2183 C 210.775 1.22224 -4.19976 0
M  V30 2184 C 209.834 2.28028 -4.74226 0
M  V30 2185 O 208.86 1.88857 -5.36956 0
M  V30 2186 N 210.062 3.6012 -4.55295 0
M  V30 2187 H 212.827 -0.158156 -2.99282 0
M  V30 2188 H 210.388 -0.230402 -1.60252 0
M  V30 2189 H 212.38 2.35541 -3.29093 0
M  V30 2190 H 210.95 2.17658 -2.24374 0
M  V30 2191 H 210.17 0.34725 -3.92668 0
M  V30 2192 H 211.458 0.911924 -5.00561 0
M  V30 2193 H 210.856 3.94698 -4.05253 0
M  V30 2194 H 209.413 4.26447 -4.92936 0
M  V30 2195 N 212.846 1.57033 -0.133567 0
M  V30 2196 C 214.262 1.58035 0.222944 0
M  V30 2197 C 214.462 1.14713 1.6566 0
M  V30 2198 O 213.518 0.841218 2.38075 0
M  V30 2199 C 214.831 3.00691 -0.0236116 0
M  V30 2200 C 216.379 3.12973 0.0411512 0
M  V30 2201 C 216.854 4.57654 -0.177899 0
M  V30 2202 N 218.345 4.63033 -0.124365 0
M  V30 2203 C 219.08 5.72771 -0.268553 0
M  V30 2204 N 218.576 6.91206 -0.46972 0
M  V30 2205 N 220.369 5.61718 -0.2071 0
M  V30 2206 H 212.52 1.8349 -1.06981 0
M  V30 2207 H 214.783 0.848677 -0.422436 0
M  V30 2208 H 214.489 3.36726 -1.0153 0
M  V30 2209 H 214.363 3.70614 0.701808 0
M  V30 2210 H 216.75 2.76787 1.02338 0
M  V30 2211 H 216.831 2.45564 -0.716383 0
M  V30 2212 H 216.475 4.94542 -1.15717 0
M  V30 2213 H 216.405 5.23173 0.599797 0
M  V30 2214 H 218.896 3.7789 0.027011 0
M  V30 2215 H 219.209 7.70693 -0.570212 0
M  V30 2216 H 217.554 6.93156 -0.505876 0
M  V30 2217 H 220.745 4.68072 -0.0507986 0
M  V30 2218 H 220.918 6.47195 -0.322909 0
M  V30 2219 N 214.325 -0.140222 1.56975 0
M  V30 2220 C 215.573 -0.850005 1.83356 0
M  V30 2221 C 215.894 -1.81399 0.71551 0
M  V30 2222 O 215.164 -1.94136 -0.262294 0
M  V30 2223 H 213.744 -0.316886 0.676456 0
M  V30 2224 H 216.406 -0.132608 1.94448 0
M  V30 2225 H 215.502 -1.40814 2.78528 0
M  V30 2226 N 215.803 -1.52179 -0.40978 0
M  V30 2227 C 216.751 -1.76086 -1.51975 0
M  V30 2228 C 217.745 -0.627964 -1.57331 0
M  V30 2229 O 218.951 -0.809993 -1.60745 0
M  V30 2230 H 215.326 -0.556829 -0.505416 0
M  V30 2231 H 217.297 -2.69077 -1.28996 0
M  V30 2232 C 216.046 -1.92799 -2.8935 0
M  V30 2233 H 215.369 -2.79392 -2.85972 0
M  V30 2234 H 216.809 -2.13527 -3.66309 0
M  V30 2235 C 215.268 -0.694923 -3.29655 0
M  V30 2236 O 215.798 0.13751 -4.01465 0
M  V30 2237 N 214.004 -0.53101 -2.85707 0
M  V30 2238 H 213.551 -1.20952 -2.27439 0
M  V30 2239 H 213.509 0.292718 -3.13034 0
M  V30 2240 N 217.281 0.66697 -1.42791 0
M  V30 2241 C 218.529 1.42417 -1.43394 0
M  V30 2242 C 218.85 1.94925 -0.0542373 0
M  V30 2243 O 218.12 1.73564 0.908415 0
M  V30 2244 H 216.7 0.528515 -0.527902 0
M  V30 2245 H 219.362 0.787562 -1.78279 0
M  V30 2246 H 218.458 2.27333 -2.13837 0
M  V30 2247 N 218.759 1.29093 0.90403 0
M  V30 2248 C 220.006 1.16813 1.65411 0
M  V30 2249 C 220.334 -0.28128 1.92455 0
M  V30 2250 O 219.589 -1.22006 1.53013 0
M  V30 2251 C 219.888 1.92224 3.01305 0
M  V30 2252 C 219.554 3.41968 2.93885 0
M  V30 2253 C 218.216 3.82807 2.91569 0
M  V30 2254 C 220.568 4.37409 2.83413 0
M  V30 2255 C 217.896 5.1741 2.76594 0
M  V30 2256 C 220.248 5.72097 2.69977 0
M  V30 2257 C 218.912 6.12199 2.66024 0
M  V30 2258 H 218.182 0.42745 0.605283 0
M  V30 2259 H 220.829 1.59981 1.05254 0
M  V30 2260 H 219.134 1.41635 3.65304 0
M  V30 2261 H 220.831 1.80131 3.58265 0
M  V30 2262 H 217.421 3.09504 2.96488 0
M  V30 2263 H 221.605 4.06813 2.84283 0
M  V30 2264 H 216.861 5.47596 2.71935 0
M  V30 2265 H 221.035 6.45704 2.60844 0
M  V30 2266 H 218.662 7.16448 2.54178 0
M  V30 2267 N 220.237 -1.11381 1.11499 0
M  V30 2268 C 221.2 -2.15622 0.777153 0
M  V30 2269 C 222.2 -1.59504 -0.203779 0
M  V30 2270 O 223.39 -1.74188 0.020782 0
M  V30 2271 C 220.522 -3.40556 0.153116 0
M  V30 2272 H 221.715 -2.47021 1.70061 0
M  V30 2273 H 219.268 -1.26577 0.916952 0
M  V30 2274 H 220.003 -3.14767 -0.780536 0
M  V30 2275 H 219.788 -3.8257 0.859238 0
M  V30 2276 H 221.278 -4.17546 -0.0671044 0
M  V30 2277 N 221.715 -0.905404 -1.28997 0
M  V30 2278 C 222.943 -0.549846 -1.9946 0
M  V30 2279 C 223.358 0.866834 -1.67724 0
M  V30 2280 O 222.715 1.57298 -0.925404 0
M  V30 2281 C 222.766 -0.739387 -3.53858 0
M  V30 2282 O 222.487 -2.10031 -3.84472 0
M  V30 2283 C 223.988 -0.389541 -4.41585 0
M  V30 2284 H 221.208 -0.210429 -0.637151 0
M  V30 2285 H 223.752 -1.21632 -1.64396 0
M  V30 2286 H 221.907 -0.120023 -3.87214 0
M  V30 2287 H 222.321 -2.13385 -4.79132 0
M  V30 2288 H 223.795 -0.572972 -5.49018 0
M  V30 2289 H 224.272 0.673756 -4.34001 0
M  V30 2290 H 224.878 -0.986089 -4.1371 0
M  V30 2291 N 223.193 1.4272 -0.668489 0
M  V30 2292 C 224.423 2.05668 -0.196063 0
M  V30 2293 C 224.831 1.5028 1.14946 0
M  V30 2294 O 224.174 0.6348 1.72383 0
M  V30 2295 C 224.236 3.59469 -0.0468879 0
M  V30 2296 C 223.9 4.37518 -1.32012 0
M  V30 2297 C 224.897 4.68584 -2.25222 0
M  V30 2298 C 222.582 4.77266 -1.56596 0
M  V30 2299 C 224.576 5.38326 -3.41297 0
M  V30 2300 C 222.263 5.4675 -2.72962 0
M  V30 2301 C 223.261 5.77204 -3.65137 0
M  V30 2302 O 222.949 6.45264 -4.79468 0
M  V30 2303 H 222.681 0.669382 -0.0943599 0
M  V30 2304 H 225.235 1.83954 -0.913788 0
M  V30 2305 H 223.465 3.79817 0.726357 0
M  V30 2306 H 225.154 4.04071 0.384852 0
M  V30 2307 H 225.92 4.38382 -2.07477 0
M  V30 2308 H 221.799 4.52959 -0.857249 0
M  V30 2309 H 225.343 5.62014 -4.13263 0
M  V30 2310 H 221.24 5.76369 -2.90635 0
M  V30 2311 H 222.008 6.63753 -4.78931 0
M  V30 2312 N 224.671 0.411399 1.52136 0
M  V30 2313 C 226.087 0.0623865 1.59478 0
M  V30 2314 C 226.287 -1.42554 1.4241 0
M  V30 2315 O 225.343 -2.19263 1.2522 0
M  V30 2316 C 226.656 0.559331 2.95452 0
M  V30 2317 C 228.204 0.517503 3.08692 0
M  V30 2318 C 228.679 0.990994 4.4715 0
M  V30 2319 N 230.17 0.947908 4.53397 0
M  V30 2320 C 230.905 1.28544 5.58806 0
M  V30 2321 N 230.401 1.69454 6.71757 0
M  V30 2322 N 232.194 1.20526 5.49026 0
M  V30 2323 H 224.345 1.37982 1.61477 0
M  V30 2324 H 226.608 0.566977 0.759764 0
M  V30 2325 H 226.314 1.59938 3.1323 0
M  V30 2326 H 226.188 -0.0298014 3.77188 0
M  V30 2327 H 228.575 -0.513505 2.90598 0
M  V30 2328 H 228.656 1.14272 2.28857 0
M  V30 2329 H 228.3 2.02034 4.65988 0
M  V30 2330 H 228.23 0.34257 5.25485 0
M  V30 2331 H 230.721 0.647157 3.72317 0
M  V30 2332 H 231.034 1.93513 7.48179 0
M  V30 2333 H 229.379 1.73359 6.73032 0
M  V30 2334 H 232.57 0.884505 4.59667 0
M  V30 2335 H 232.743 1.47161 6.31069 0
M  V30 2336 N 226.149 -1.5696 0.141893 0
M  V30 2337 C 227.097 -2.17784 -0.816874 0
M  V30 2338 C 228.091 -1.1334 -1.25899 0
M  V30 2339 O 229.297 -1.316 -1.22806 0
M  V30 2340 H 225.672 -0.697278 -0.281615 0
M  V30 2341 H 227.643 -2.97087 -0.279621 0
M  V30 2342 C 226.392 -2.80983 -2.04802 0
M  V30 2343 H 225.715 -3.61062 -1.7168 0
M  V30 2344 H 227.155 -3.2705 -2.69841 0
M  V30 2345 C 225.614 -1.79228 -2.8527 0
M  V30 2346 O 226.144 -1.25962 -3.8144 0
M  V30 2347 N 224.35 -1.48647 -2.49704 0
M  V30 2348 H 223.897 -1.92155 -1.71564 0
M  V30 2349 H 223.855 -0.808115 -3.03837 0
M  V30 2350 N 227.627 0.131896 -1.57047 0
M  V30 2351 C 228.855 0.856461 -1.88341 0
M  V30 2352 C 229.27 1.74042 -0.731757 0
M  V30 2353 O 228.627 1.80051 0.297945 0
M  V30 2354 C 228.678 1.70064 -3.18999 0
M  V30 2355 O 228.399 0.852278 -4.2973 0
M  V30 2356 C 229.9 2.53148 -3.63911 0
M  V30 2357 H 227.12 0.246885 -0.62393 0
M  V30 2358 H 229.664 0.120152 -2.04147 0
M  V30 2359 H 227.819 2.38984 -3.04902 0
M  V30 2360 H 228.233 1.43329 -5.04537 0
M  V30 2361 H 229.707 3.07931 -4.58129 0
M  V30 2362 H 230.184 3.29901 -2.89935 0
M  V30 2363 H 230.79 1.89492 -3.80753 0
M  V30 2364 N 229.106 1.52395 0.401703 0
M  V30 2365 C 230.383 1.57387 1.16141 0
M  V30 2366 C 230.763 0.359359 2.08019 0
M  V30 2367 O 230.111 -0.65326 2.18963 0
M  V30 2368 C 230.321 2.90631 1.93221 0
M  V30 2369 C 231.669 3.43904 2.49028 0
M  V30 2370 O 232.693 2.92421 2.03393 0
M  V30 2371 O 231.552 4.33823 3.32356 0
M  V30 2372 H 228.646 0.634262 0.530698 0
M  V30 2373 H 231.192 1.64725 0.407883 0
M  V30 2374 H 229.964 3.70473 1.25958 0
M  V30 2375 H 229.587 2.8662 2.75563 0
M  V30 2376 N 230.584 -0.659388 1.43143 0
M  V30 2377 C 231.831 -1.41935 1.44433 0
M  V30 2378 C 232.159 -1.94387 0.0663522 0
M  V30 2379 O 231.414 -1.72314 -0.927706 0
M  V30 2380 C 231.713 -2.62206 2.42864 0
M  V30 2381 C 231.379 -2.28208 3.88886 0
M  V30 2382 C 230.041 -2.18647 4.28657 0
M  V30 2383 C 232.393 -2.00887 4.8093 0
M  V30 2384 C 229.721 -1.79914 5.58433 0
M  V30 2385 C 232.073 -1.63653 6.11065 0
M  V30 2386 C 230.737 -1.52614 6.49819 0
M  V30 2387 H 230.007 -0.519376 0.528517 0
M  V30 2388 H 232.654 -0.750453 1.76183 0
M  V30 2389 H 230.959 -3.34199 2.04495 0
M  V30 2390 H 232.656 -3.2041 2.41119 0
M  V30 2391 H 229.246 -2.36557 3.57406 0
M  V30 2392 H 233.43 -2.07198 4.5098 0
M  V30 2393 H 228.686 -1.69948 5.87305 0
M  V30 2394 H 232.86 -1.41543 6.81864 0
M  V30 2395 H 230.487 -1.22371 7.50286 0
M  V30 2396 N 232.062 -1.29571 -0.897171 0
M  V30 2397 C 233.309 -1.17689 -1.6479 0
M  V30 2398 C 233.637 0.27107 -1.92602 0
M  V30 2399 O 232.892 1.21193 -1.53658 0
M  V30 2400 C 233.191 -1.9382 -3.00281 0
M  V30 2401 C 232.857 -3.43522 -2.92068 0
M  V30 2402 C 231.519 -3.84348 -2.89535 0
M  V30 2403 C 233.871 -4.38906 -2.81089 0
M  V30 2404 C 231.199 -5.18869 -2.73846 0
M  V30 2405 C 233.551 -5.73521 -2.66939 0
M  V30 2406 C 232.215 -6.13601 -2.62774 0
M  V30 2407 H 231.485 -0.430654 -0.603008 0
M  V30 2408 H 234.132 -1.60536 -1.04404 0
M  V30 2409 H 232.437 -1.4357 -3.64547 0
M  V30 2410 H 234.134 -1.82028 -3.57305 0
M  V30 2411 H 230.724 -3.11072 -2.94842 0
M  V30 2412 H 234.908 -4.08315 -2.82121 0
M  V30 2413 H 230.164 -5.4903 -2.69027 0
M  V30 2414 H 234.338 -6.47078 -2.57416 0
M  V30 2415 H 231.965 -7.17786 -2.50375 0
M  V30 2416 N 233.54 1.10788 -1.12088 0
M  V30 2417 C 234.788 1.8231 -0.872205 0
M  V30 2418 C 235.109 1.85419 0.603709 0
M  V30 2419 O 234.379 1.32963 1.43867 0
M  V30 2420 H 232.959 0.675137 -0.319686 0
M  V30 2421 H 235.621 1.34068 -1.41463 0
M  V30 2422 H 234.717 2.85955 -1.25045 0
M  V30 2423 N 235.018 0.912232 1.28515 0
M  V30 2424 C 235.948 0.416403 2.29757 0
M  V30 2425 C 236.929 -0.515194 1.6211 0
M  V30 2426 O 238.114 -0.423253 1.89532 0
M  V30 2427 C 235.244 -0.34572 3.45575 0
M  V30 2428 C 234.198 0.496599 4.25109 0
M  V30 2429 C 233.524 -0.393771 5.33248 0
M  V30 2430 C 234.824 1.75307 4.92001 0
M  V30 2431 H 236.518 1.26249 2.7148 0
M  V30 2432 H 234.064 0.608515 1.30511 0
M  V30 2433 H 236.017 -0.703422 4.15488 0
M  V30 2434 H 234.741 -1.2257 3.02728 0
M  V30 2435 H 233.4 0.8368 3.56922 0
M  V30 2436 H 233.048 -1.27225 4.86644 0
M  V30 2437 H 232.748 0.166209 5.87365 0
M  V30 2438 H 234.272 -0.747389 6.06009 0
M  V30 2439 H 235.686 1.46437 5.54283 0
M  V30 2440 H 234.083 2.25534 5.56106 0
M  V30 2441 H 235.153 2.48176 4.16577 0
M  V30 2442 N 236.496 -1.42363 0.676048 0
M  V30 2443 C 237.742 -2.0182 0.199125 0
M  V30 2444 C 238.075 -1.53339 -1.19168 0
M  V30 2445 O 237.35 -0.736124 -1.80032 0
M  V30 2446 C 237.633 -3.59331 0.235144 0
M  V30 2447 C 237.486 -4.17989 1.66149 0
M  V30 2448 C 238.805 -4.3813 -0.41595 0
M  V30 2449 H 235.924 -0.733293 0.0738311 0
M  V30 2450 H 238.566 -1.69368 0.86107 0
M  V30 2451 H 236.716 -3.87109 -0.328487 0
M  V30 2452 H 238.388 -4.0116 2.27747 0
M  V30 2453 H 236.631 -3.7377 2.20178 0
M  V30 2454 H 237.302 -5.27126 1.63837 0
M  V30 2455 H 239.778 -4.16051 0.0638529 0
M  V30 2456 H 238.654 -5.47717 -0.360115 0
M  V30 2457 H 238.915 -4.16101 -1.49373 0
M  V30 2458 N 237.974 -0.419461 -1.51915 0
M  V30 2459 C 239.251 0.211999 -1.94448 0
M  V30 2460 C 239.631 1.61703 -1.35703 0
M  V30 2461 O 238.979 2.22102 -0.536931 0
M  V30 2462 C 239.189 0.207872 -3.4838 0
M  V30 2463 C 240.537 0.422192 -4.22496 0
M  V30 2464 O 241.561 0.286778 -3.55044 0
M  V30 2465 O 240.42 0.690009 -5.42126 0
M  V30 2466 H 237.514 0.139586 -0.815135 0
M  V30 2467 H 240.06 -0.476151 -1.62883 0
M  V30 2468 H 238.832 -0.775102 -3.83546 0
M  V30 2469 H 238.455 0.939688 -3.86336 0
M  V30 2470 N 239.452 1.56882 -0.150215 0
M  V30 2471 C 240.7 1.9584 0.499105 0
M  V30 2472 C 241.021 1.03623 1.65188 0
M  V30 2473 O 240.291 0.0984084 1.95653 0
M  V30 2474 H 238.871 0.723119 0.187373 0
M  V30 2475 H 241.533 1.9358 -0.226466 0
M  V30 2476 H 240.629 2.99638 0.873122 0
M  V30 2477 N 240.93 -0.123565 1.57115 0
M  V30 2478 C 241.86 -1.15309 2.03042 0
M  V30 2479 C 242.841 -1.43454 0.914061 0
M  V30 2480 O 244.026 -1.53973 1.18347 0
M  V30 2481 C 241.156 -2.48043 2.43089 0
M  V30 2482 C 240.11 -2.3437 3.58127 0
M  V30 2483 C 239.436 -3.72026 3.84059 0
M  V30 2484 C 240.736 -1.80804 4.90007 0
M  V30 2485 H 242.43 -0.771102 2.893 0
M  V30 2486 H 239.976 -0.369479 1.39179 0
M  V30 2487 H 241.929 -3.20311 2.73823 0
M  V30 2488 H 240.653 -2.88122 1.53796 0
M  V30 2489 H 239.312 -1.64551 3.27595 0
M  V30 2490 H 238.96 -4.09582 2.91979 0
M  V30 2491 H 238.66 -3.63732 4.6149 0
M  V30 2492 H 240.184 -4.45806 4.1724 0
M  V30 2493 H 241.598 -2.42886 5.19307 0
M  V30 2494 H 239.995 -1.83343 5.71407 0
M  V30 2495 H 241.065 -0.76528 4.78823 0
M  V30 2496 N 242.408 -1.52605 -0.393616 0
M  V30 2497 C 243.685 -1.58001 -1.15304 0
M  V30 2498 C 244.065 -0.370385 -2.07825 0
M  V30 2499 O 243.413 0.641638 -2.19306 0
M  V30 2500 C 243.623 -2.91652 -1.91677 0
M  V30 2501 C 244.971 -3.4522 -2.47201 0
M  V30 2502 O 245.995 -2.93495 -2.01839 0
M  V30 2503 O 244.854 -4.35579 -3.3005 0
M  V30 2504 H 241.948 -0.637068 -0.527327 0
M  V30 2505 H 244.494 -1.64939 -0.399141 0
M  V30 2506 H 243.266 -3.71136 -1.23992 0
M  V30 2507 H 242.889 -2.88077 -2.74039 0
M  V30 2508 N 243.887 0.651787 -1.4349 0
M  V30 2509 C 245.134 1.41167 -1.45183 0
M  V30 2510 C 245.462 1.94349 -0.0766601 0
M  V30 2511 O 244.717 1.72804 0.918555 0
M  V30 2512 C 245.016 2.60914 -2.44251 0
M  V30 2513 C 244.682 2.26142 -3.9009 0
M  V30 2514 C 243.344 2.16371 -4.2981 0
M  V30 2515 C 245.696 1.98334 -4.81989 0
M  V30 2516 C 243.024 1.7695 -5.5938 0
M  V30 2517 C 245.376 1.6041 -6.11924 0
M  V30 2518 C 244.04 1.49166 -6.5062 0
M  V30 2519 H 243.31 0.516566 -0.531263 0
M  V30 2520 H 245.957 0.741099 -1.76579 0
M  V30 2521 H 244.262 3.3311 -2.06265 0
M  V30 2522 H 245.959 3.19127 -2.42815 0
M  V30 2523 H 242.549 2.34658 -3.58655 0
M  V30 2524 H 246.733 2.04803 -4.52072 0
M  V30 2525 H 241.989 1.66831 -5.88198 0
M  V30 2526 H 246.163 1.37925 -6.82605 0
M  V30 2527 H 243.79 1.1839 -7.50925 0
M  V30 2528 N 245.365 1.30045 0.890287 0
M  V30 2529 C 246.328 1.15963 1.977 0
M  V30 2530 C 247.328 0.0923777 1.60534 0
M  V30 2531 O 248.518 0.340071 1.70848 0
M  V30 2532 C 245.65 0.775451 3.31963 0
M  V30 2533 H 246.843 2.12502 2.11619 0
M  V30 2534 H 244.396 1.13366 1.07601 0
M  V30 2535 H 245.131 -0.189671 3.23745 0
M  V30 2536 H 244.916 1.54668 3.60306 0
M  V30 2537 H 246.406 0.700251 4.11687 0
M  V30 2538 N 246.843 -1.10192 1.12674 0
M  V30 2539 C 248.089 -1.82475 0.884915 0
M  V30 2540 C 248.422 -1.85093 -0.58773 0
M  V30 2541 O 247.697 -1.3134 -1.43457 0
M  V30 2542 C 247.98 -3.29018 1.46353 0
M  V30 2543 C 247.833 -3.34718 3.00473 0
M  V30 2544 C 249.152 -4.25473 1.12519 0
M  V30 2545 H 246.271 -0.662492 0.322915 0
M  V30 2546 H 248.913 -1.2913 1.39375 0
M  V30 2547 H 247.063 -3.74576 1.03077 0
M  V30 2548 H 248.735 -2.97622 3.52447 0
M  V30 2549 H 246.978 -2.74541 3.35872 0
M  V30 2550 H 247.649 -4.37918 3.36053 0
M  V30 2551 H 250.125 -3.88161 1.499 0
M  V30 2552 H 249.001 -5.26365 1.55663 0
M  V30 2553 H 249.262 -4.42084 0.0377407 0
M  V30 2554 N 248.321 -0.919034 -1.28029 0
M  V30 2555 C 249.253 -0.368762 -2.26214 0
M  V30 2556 C 250.266 0.495716 -1.55069 0
M  V30 2557 O 251.455 0.30974 -1.75792 0
M  V30 2558 C 248.555 0.491049 -3.35324 0
M  V30 2559 C 247.728 -0.352133 -4.3598 0
M  V30 2560 C 246.787 0.443622 -5.24327 0
M  V30 2561 O 245.813 -0.14566 -5.69014 0
M  V30 2562 N 247.015 1.74545 -5.53637 0
M  V30 2563 H 249.78 -1.21273 -2.74068 0
M  V30 2564 H 247.341 -0.785541 -1.41566 0
M  V30 2565 H 249.333 1.03026 -3.91366 0
M  V30 2566 H 247.903 1.23574 -2.87138 0
M  V30 2567 H 247.123 -1.07269 -3.79324 0
M  V30 2568 H 248.411 -0.928883 -5.00249 0
M  V30 2569 H 247.809 2.24666 -5.19174 0
M  V30 2570 H 246.366 2.23138 -6.12416 0
M  V30 2571 N 249.799 1.42003 -0.683588 0
M  V30 2572 C 251.029 2.05448 -0.217866 0
M  V30 2573 C 251.437 1.51491 1.13346 0
M  V30 2574 O 250.78 0.653048 1.717 0
M  V30 2575 C 250.842 3.59399 -0.0850118 0
M  V30 2576 C 250.506 4.36093 -1.36645 0
M  V30 2577 C 251.503 4.66169 -2.30179 0
M  V30 2578 C 249.188 4.75578 -1.61649 0
M  V30 2579 C 251.182 5.34676 -3.46988 0
M  V30 2580 C 248.869 5.43824 -2.78745 0
M  V30 2581 C 249.867 5.73299 -3.71238 0
M  V30 2582 O 249.555 6.40142 -4.86285 0
M  V30 2583 H 249.287 0.668344 -0.101454 0
M  V30 2584 H 251.841 1.82974 -0.933248 0
M  V30 2585 H 250.071 3.80566 0.686031 0
M  V30 2586 H 251.76 4.04457 0.341973 0
M  V30 2587 H 252.526 4.36156 -2.12115 0
M  V30 2588 H 248.405 4.52025 -0.905243 0
M  V30 2589 H 251.949 5.57599 -4.19201 0
M  V30 2590 H 247.846 5.73254 -2.96732 0
M  V30 2591 H 248.614 6.58636 -4.85944 0
M  V30 2592 N 251.277 0.427512 1.51691 0
M  V30 2593 C 252.209 -0.424521 2.25234 0
M  V30 2594 C 253.222 -0.994671 1.2888 0
M  V30 2595 O 254.411 -0.890483 1.54702 0
M  V30 2596 C 251.511 -1.60479 2.98496 0
M  V30 2597 C 250.684 -1.15527 4.21868 0
M  V30 2598 C 249.743 -2.20454 4.77793 0
M  V30 2599 O 248.769 -1.8029 5.39893 0
M  V30 2600 N 249.971 -3.52831 4.60967 0
M  V30 2601 H 252.736 0.205749 2.98993 0
M  V30 2602 H 250.297 0.255867 1.59865 0
M  V30 2603 H 252.289 -2.30276 3.32799 0
M  V30 2604 H 250.859 -2.14061 2.27809 0
M  V30 2605 H 250.079 -0.284736 3.9317 0
M  V30 2606 H 251.367 -0.832173 5.01949 0
M  V30 2607 H 250.765 -3.88201 4.11481 0
M  V30 2608 H 249.322 -4.18551 4.99658 0
M  V30 2609 N 252.755 -1.56801 0.158532 0
M  V30 2610 C 254.003 -1.96102 -0.488712 0
M  V30 2611 C 254.324 -1.04498 -1.64636 0
M  V30 2612 O 253.594 -0.108783 -1.95598 0
M  V30 2613 H 252.174 -0.724102 -0.183535 0
M  V30 2614 H 254.836 -1.93457 0.236728 0
M  V30 2615 H 253.932 -3.00097 -0.857219 0
M  V30 2616 N 254.233 0.115231 -1.57178 0
M  V30 2617 C 255.18 1.14115 -2.00615 0
M  V30 2618 C 256.15 1.40939 -0.878941 0
M  V30 2619 O 257.335 1.52741 -1.14345 0
M  V30 2620 C 254.475 2.46156 -2.4187 0
M  V30 2621 C 253.588 2.26236 -3.68024 0
M  V30 2622 C 252.723 3.51534 -3.98243 0
M  V30 2623 C 251.762 3.26787 -5.17568 0
M  V30 2624 N 250.899 4.44298 -5.43639 0
M  V30 2625 H 255.739 0.763743 -2.88047 0
M  V30 2626 H 253.276 0.365615 -1.42484 0
M  V30 2627 H 255.234 3.23189 -2.63827 0
M  V30 2628 H 253.864 2.81783 -1.57475 0
M  V30 2629 H 252.916 1.40102 -3.5366 0
M  V30 2630 H 254.228 2.03929 -4.55208 0
M  V30 2631 H 253.382 4.36984 -4.20868 0
M  V30 2632 H 252.121 3.76876 -3.09541 0
M  V30 2633 H 251.126 2.39729 -4.94783 0
M  V30 2634 H 252.351 3.02812 -6.0785 0
M  V30 2635 H 250.297 4.69754 -4.57895 0
M  V30 2636 H 250.214 4.25109 -6.25154 0
M  V30 2637 H 251.482 5.3087 -5.70786 0
M  V30 2638 N 255.711 1.52812 0.385517 0
M  V30 2639 C 256.659 1.78482 1.49155 0
M  V30 2640 C 257.653 0.652914 1.56312 0
M  V30 2641 O 258.859 0.835464 1.59436 0
M  V30 2642 H 255.234 0.5648 0.496493 0
M  V30 2643 H 257.205 2.71095 1.24699 0
M  V30 2644 C 255.954 1.97378 2.86247 0
M  V30 2645 H 255.277 2.83907 2.81491 0
M  V30 2646 H 256.717 2.19327 3.62866 0
M  V30 2647 C 255.176 0.74728 3.28508 0
M  V30 2648 O 255.706 -0.0736232 4.01633 0
M  V30 2649 N 253.912 0.576396 2.84826 0
M  V30 2650 H 253.459 1.24555 2.25486 0
M  V30 2651 H 253.417 -0.24288 3.1346 0
M  V30 2652 N 257.189 -0.644168 1.43834 0
M  V30 2653 C 258.437 -1.40117 1.45642 0
M  V30 2654 C 258.758 -1.94814 0.0852413 0
M  V30 2655 O 258.028 -1.74988 -0.880688 0
M  V30 2656 H 256.608 -0.52005 0.536243 0
M  V30 2657 H 259.27 -0.7591 1.7951 0
M  V30 2658 H 258.366 -2.23902 2.17427 0
M  V30 2659 N 258.668 -1.30515 -0.883378 0
M  V30 2660 C 259.893 -1.22487 -1.67367 0
M  V30 2661 C 260.318 0.208767 -1.86938 0
M  V30 2662 O 259.676 1.15015 -1.40148 0
M  V30 2663 C 259.724 -1.96041 -3.02655 0
M  V30 2664 O 258.828 -1.28859 -3.91751 0
M  V30 2665 H 258.169 -0.423573 -0.511353 0
M  V30 2666 H 260.699 -1.72362 -1.10239 0
M  V30 2667 H 260.709 -2.05124 -3.52687 0
M  V30 2668 H 259.384 -3.00307 -2.8773 0
M  V30 2669 H 257.961 -1.28141 -3.50192 0
M  V30 2670 N 260.146 1.09593 -1.13257 0
M  V30 2671 C 261.109 2.14359 -0.811358 0
M  V30 2672 C 262.109 1.59808 0.178377 0
M  V30 2673 O 263.299 1.74132 -0.0484911 0
M  V30 2674 C 260.431 3.40269 -0.207276 0
M  V30 2675 H 261.624 2.44284 -1.73969 0
M  V30 2676 H 259.177 1.25102 -0.936973 0
M  V30 2677 H 259.912 3.15969 0.73036 0
M  V30 2678 H 259.697 3.81154 -0.919992 0
M  V30 2679 H 261.187 4.176 0.000667944 0
M  V30 2680 N 261.624 0.925811 1.2754 0
M  V30 2681 C 262.574 0.394488 2.24561 0
M  V30 2682 C 263.558 -0.500183 1.52928 0
M  V30 2683 O 264.75 -0.337936 1.73744 0
M  V30 2684 C 261.879 -0.353328 3.41477 0
M  V30 2685 C 260.965 0.557752 4.20416 0
M  V30 2686 N 261.356 1.67674 4.77199 0
M  V30 2687 C 259.654 0.360404 4.44541 0
M  V30 2688 C 260.355 2.24324 5.36706 0
M  V30 2689 N 259.331 1.53305 5.21535 0
M  V30 2690 H 263.133 1.2489 2.66045 0
M  V30 2691 H 260.647 0.779864 1.4245 0
M  V30 2692 H 262.644 -0.7509 4.10082 0
M  V30 2693 H 261.304 -1.20469 3.01525 0
M  V30 2694 H 262.315 2.05915 4.75204 0
M  V30 2695 H 258.992 -0.450454 4.15063 0
M  V30 2696 H 260.382 3.18521 5.91603 0
M  V30 2697 N 263.102 -1.41638 0.69111 0
M  V30 2698 C 264.35 -2.00902 0.219758 0
M  V30 2699 C 264.671 -1.54994 -1.18329 0
M  V30 2700 O 263.941 -0.778628 -1.79762 0
M  V30 2701 H 262.521 -0.74289 0.0782558 0
M  V30 2702 H 265.183 -1.73327 0.891271 0
M  V30 2703 H 264.279 -3.11224 0.233708 0
M  V30 2704 N 264.58 -0.43555 -1.51462 0
M  V30 2705 C 265.49 0.383001 -2.31453 0
M  V30 2706 C 266.506 1.02931 -1.4029 0
M  V30 2707 O 267.682 1.02507 -1.73362 0
M  V30 2708 C 264.747 1.47043 -3.13973 0
M  V30 2709 C 263.808 0.844433 -4.20913 0
M  V30 2710 C 263.041 1.88004 -4.9949 0
M  V30 2711 O 263.264 3.10199 -4.78678 0
M  V30 2712 O 262.198 1.47157 -5.83634 0
M  V30 2713 H 266.024 -0.269964 -3.02498 0
M  V30 2714 H 263.609 -0.19813 -1.4808 0
M  V30 2715 H 265.491 2.10113 -3.65281 0
M  V30 2716 H 264.166 2.10751 -2.45695 0
M  V30 2717 H 263.073 0.175729 -3.73687 0
M  V30 2718 H 264.406 0.250869 -4.9156 0
M  V30 2719 N 266.058 1.56714 -0.166846 0
M  V30 2720 C 267.306 1.96358 0.478305 0
M  V30 2721 C 267.627 1.0537 1.6408 0
M  V30 2722 O 266.897 0.119154 1.95537 0
M  V30 2723 H 265.477 0.725065 0.179692 0
M  V30 2724 H 268.139 1.93329 -0.246985 0
M  V30 2725 H 267.235 3.00547 0.841292 0
M  V30 2726 N 267.536 -0.106894 1.57237 0
M  V30 2727 C 268.469 -1.16125 1.96444 0
M  V30 2728 C 269.447 -1.3947 0.835871 0
M  V30 2729 O 270.631 -1.53425 1.09513 0
M  V30 2730 C 267.758 -2.51277 2.27107 0
M  V30 2731 C 266.804 -2.44285 3.4961 0
M  V30 2732 S 267.637 -1.87077 5.01759 0
M  V30 2733 C 268.793 -3.23877 5.35588 0
M  V30 2734 H 269.026 -0.826971 2.85567 0
M  V30 2735 H 266.559 -0.314124 1.51171 0
M  V30 2736 H 268.517 -3.29035 2.45451 0
M  V30 2737 H 267.178 -2.81879 1.38576 0
M  V30 2738 H 266.371 -3.4387 3.68469 0
M  V30 2739 H 265.973 -1.74652 3.30715 0
M  V30 2740 H 268.265 -4.20122 5.31511 0
M  V30 2741 H 269.208 -3.09833 6.36717 0
M  V30 2742 H 269.616 -3.22864 4.63054 0
M  V30 2743 N 269.014 -1.53014 -0.377408 0
M  V30 2744 C 270.242 -1.72515 -1.14219 0
M  V30 2745 C 270.657 -0.448735 -1.8339 0
M  V30 2746 O 270.014 0.577592 -1.73119 0
M  V30 2747 C 270.065 -2.8826 -2.18148 0
M  V30 2748 O 269.786 -4.10962 -1.51795 0
M  V30 2749 C 271.287 -3.19536 -3.07264 0
M  V30 2750 H 268.507 -0.577301 -0.342001 0
M  V30 2751 H 271.051 -1.99712 -0.439935 0
M  V30 2752 H 269.206 -2.63492 -2.83991 0
M  V30 2753 H 269.62 -4.75693 -2.20945 0
M  V30 2754 H 271.094 -4.03959 -3.76193 0
M  V30 2755 H 271.571 -2.34403 -3.71419 0
M  V30 2756 H 272.177 -3.46186 -2.47053 0
M  V30 2757 N 270.492 0.636531 -1.44174 0
M  V30 2758 C 271.72 1.42353 -1.50144 0
M  V30 2759 C 272.135 1.88389 -0.124575 0
M  V30 2760 O 271.492 1.6051 0.868489 0
M  V30 2761 C 271.543 2.64744 -2.46156 0
M  V30 2762 O 271.264 2.20629 -3.7849 0
M  V30 2763 C 272.765 3.57929 -2.61537 0
M  V30 2764 H 269.985 0.436752 -0.5094 0
M  V30 2765 H 272.529 0.778933 -1.89084 0
M  V30 2766 H 270.684 3.25307 -2.10366 0
M  V30 2767 H 271.098 2.99938 -4.30276 0
M  V30 2768 H 272.572 4.40428 -3.32757 0
M  V30 2769 H 273.049 4.06382 -1.66585 0
M  V30 2770 H 273.655 3.03238 -2.98206 0
M  V30 2771 N 271.97 1.30982 0.876444 0
M  V30 2772 C 272.918 1.18006 2.00443 0
M  V30 2773 C 273.912 0.0898871 1.69161 0
M  V30 2774 O 275.118 0.251333 1.78237 0
M  V30 2775 H 271.493 0.365196 0.65737 0
M  V30 2776 H 273.464 2.13453 2.0852 0
M  V30 2777 C 272.213 0.897521 3.35916 0
M  V30 2778 H 271.536 1.7285 3.60504 0
M  V30 2779 H 272.976 0.846874 4.15456 0
M  V30 2780 C 271.435 -0.399674 3.34521 0
M  V30 2781 O 271.965 -1.41852 3.7582 0
M  V30 2782 N 270.171 -0.413893 2.87637 0
M  V30 2783 H 269.718 0.41571 2.54224 0
M  V30 2784 H 269.676 -1.28175 2.87086 0
M  V30 2785 N 273.449 -1.08991 1.13837 0
M  V30 2786 C 274.697 -1.80899 0.901098 0
M  V30 2787 C 275.018 -1.86356 -0.574134 0
M  V30 2788 O 274.288 -1.35235 -1.41733 0
M  V30 2789 H 272.868 -0.669966 0.330386 0
M  V30 2790 H 275.53 -1.318 1.43578 0
M  V30 2791 H 274.626 -2.83929 1.29578 0
M  V30 2792 N 274.927 -0.932562 -1.27047 0
M  V30 2793 C 276.343 -0.633544 -1.46487 0
M  V30 2794 C 276.543 0.815746 -1.84249 0
M  V30 2795 O 275.599 1.59319 -1.95892 0
M  V30 2796 C 276.912 -1.58758 -2.55375 0
M  V30 2797 C 278.46 -1.59634 -2.69232 0
M  V30 2798 C 278.935 -2.53747 -3.81283 0
M  V30 2799 N 280.426 -2.51982 -3.88664 0
M  V30 2800 C 281.161 -3.21491 -4.74796 0
M  V30 2801 N 280.657 -4.00395 -5.65381 0
M  V30 2802 N 282.45 -3.10485 -4.68568 0
M  V30 2803 H 274.601 -1.86946 -1.00821 0
M  V30 2804 H 276.864 -0.802897 -0.504044 0
M  V30 2805 H 276.57 -2.62172 -2.34432 0
M  V30 2806 H 276.444 -1.33301 -3.52861 0
M  V30 2807 H 278.831 -0.569488 -2.89553 0
M  V30 2808 H 278.912 -1.89142 -1.72218 0
M  V30 2809 H 278.556 -3.56545 -3.61715 0
M  V30 2810 H 278.486 -2.21532 -4.77735 0
M  V30 2811 H 280.977 -1.94681 -3.23895 0
M  V30 2812 H 281.29 -4.50406 -6.27976 0
M  V30 2813 H 279.635 -4.04498 -5.65161 0
M  V30 2814 H 282.826 -2.48331 -3.96799 0
M  V30 2815 H 282.999 -3.64925 -5.35475 0
M  V30 2816 N 276.405 1.4127 -0.698611 0
M  V30 2817 C 277.682 1.94955 -0.158762 0
M  V30 2818 C 278.062 1.63781 1.33188 0
M  V30 2819 O 277.41 0.946423 2.07979 0
M  V30 2820 C 277.62 3.46044 -0.453309 0
M  V30 2821 C 278.968 4.22872 -0.382707 0
M  V30 2822 O 279.992 3.54076 -0.388396 0
M  V30 2823 O 278.851 5.45407 -0.345463 0
M  V30 2824 H 275.945 0.82683 -0.0167505 0
M  V30 2825 H 278.491 1.50971 -0.77498 0
M  V30 2826 H 277.263 3.62028 -1.48498 0
M  V30 2827 H 276.886 3.97128 0.19373 0
M  V30 2828 N 277.883 0.443576 1.51229 0
M  V30 2829 C 279.16 -0.181038 1.9476 0
M  V30 2830 C 279.54 -1.59523 1.38259 0
M  V30 2831 O 278.888 -2.2122 0.572198 0
M  V30 2832 C 279.098 -0.152422 3.48667 0
M  V30 2833 C 280.446 -0.354923 4.23114 0
M  V30 2834 O 281.47 -0.230257 3.55455 0
M  V30 2835 O 280.329 -0.603674 5.43156 0
M  V30 2836 H 277.423 -0.1266 0.817252 0
M  V30 2837 H 279.969 0.502004 1.62105 0
M  V30 2838 H 278.741 0.836022 3.82265 0
M  V30 2839 H 278.364 -0.878107 3.87782 0
M  V30 2840 N 279.361 -1.56624 0.175154 0
M  V30 2841 C 280.607 -1.9729 -0.469506 0
M  V30 2842 C 280.94 -1.06128 -1.62636 0
M  V30 2843 O 280.215 -0.109183 -1.94193 0
M  V30 2844 C 280.498 -3.47375 -0.948804 0
M  V30 2845 C 280.351 -4.49317 0.208491 0
M  V30 2846 C 281.67 -4.00652 -1.82116 0
M  V30 2847 H 278.789 -0.717317 -0.16919 0
M  V30 2848 H 281.431 -1.88184 0.262062 0
M  V30 2849 H 279.581 -3.55267 -1.57219 0
M  V30 2850 H 281.253 -4.53482 0.845682 0
M  V30 2851 H 279.496 -4.25121 0.863395 0
M  V30 2852 H 280.167 -5.51741 -0.169059 0
M  V30 2853 H 282.643 -3.95416 -1.2956 0
M  V30 2854 H 281.519 -5.06075 -2.12554 0
M  V30 2855 H 281.78 -3.44699 -2.7683 0
M  V30 2856 N 280.839 0.0985539 -1.57292 0
M  V30 2857 C 282.086 0.802678 -1.85912 0
M  V30 2858 C 282.414 1.78901 -0.763186 0
M  V30 2859 O 281.669 1.94178 0.243559 0
M  V30 2860 C 281.968 1.56927 -3.21105 0
M  V30 2861 C 281.634 0.725376 -4.45027 0
M  V30 2862 C 280.296 0.492726 -4.78671 0
M  V30 2863 C 282.648 0.138493 -5.21016 0
M  V30 2864 C 279.976 -0.336727 -5.85733 0
M  V30 2865 C 282.328 -0.678264 -6.28953 0
M  V30 2866 C 280.992 -0.921039 -6.61115 0
M  V30 2867 H 280.262 0.293721 -0.680301 0
M  V30 2868 H 282.909 0.0642841 -1.91392 0
M  V30 2869 H 281.214 2.37914 -3.11294 0
M  V30 2870 H 282.911 2.11841 -3.40477 0
M  V30 2871 H 279.501 0.916815 -4.18679 0
M  V30 2872 H 283.685 0.305404 -4.95359 0
M  V30 2873 H 278.941 -0.533836 -6.09065 0
M  V30 2874 H 283.115 -1.1399 -6.87007 0
M  V30 2875 H 280.742 -1.56556 -7.43905 0
M  V30 2876 N 282.317 1.53212 0.369288 0
M  V30 2877 C 283.227 1.82342 1.47609 0
M  V30 2878 C 284.243 0.711532 1.58787 0
M  V30 2879 O 285.419 1.0012 1.74751 0
M  V30 2880 C 282.484 2.00393 2.8292 0
M  V30 2881 C 281.545 3.24297 2.81301 0
M  V30 2882 C 280.778 3.41478 4.10157 0
M  V30 2883 O 281.001 2.63033 5.06132 0
M  V30 2884 O 279.935 4.34817 4.16194 0
M  V30 2885 H 283.761 2.76366 1.25918 0
M  V30 2886 H 281.346 1.38547 0.559034 0
M  V30 2887 H 283.228 2.13859 3.63101 0
M  V30 2888 H 281.903 1.09559 3.04596 0
M  V30 2889 H 280.81 3.16257 1.99831 0
M  V30 2890 H 282.143 4.15041 2.64578 0
M  V30 2891 N 283.795 -0.628877 1.44509 0
M  V30 2892 C 284.727 -1.754 1.47538 0
M  V30 2893 C 285.74 -1.58575 0.368506 0
M  V30 2894 O 286.929 -1.66847 0.634376 0
M  V30 2895 C 284.029 -3.1315 1.29577 0
M  V30 2896 C 283.202 -3.56413 2.53551 0
M  V30 2897 C 282.261 -4.7305 2.30457 0
M  V30 2898 O 281.287 -4.81247 3.03957 0
M  V30 2899 N 282.489 -5.64903 1.3366 0
M  V30 2900 H 285.254 -1.73272 2.44534 0
M  V30 2901 H 282.815 -0.813512 1.39977 0
M  V30 2902 H 284.807 -3.88902 1.11971 0
M  V30 2903 H 283.377 -3.09908 0.409371 0
M  V30 2904 H 282.597 -2.70847 2.86419 0
M  V30 2905 H 283.885 -3.82071 3.36005 0
M  V30 2906 H 283.283 -5.60975 0.729604 0
M  V30 2907 H 281.84 -6.40275 1.22032 0
M  V30 2908 N 285.273 -1.31445 -0.869486 0
M  V30 2909 C 286.221 -1.19067 -1.99814 0
M  V30 2910 C 287.215 -0.0988569 -1.69111 0
M  V30 2911 O 288.421 -0.260781 -1.78101 0
M  V30 2912 H 284.796 -0.368677 -0.655425 0
M  V30 2913 H 286.767 -2.14555 -2.07385 0
M  V30 2914 C 285.516 -0.915323 -3.35436 0
M  V30 2915 H 284.839 -1.74759 -3.59582 0
M  V30 2916 H 286.279 -0.868895 -4.15001 0
M  V30 2917 C 284.738 0.381928 -3.34728 0
M  V30 2918 O 285.268 1.39857 -3.76567 0
M  V30 2919 N 283.474 0.398633 -2.87853 0
M  V30 2920 H 283.021 -0.429186 -2.54 0
M  V30 2921 H 282.979 1.26651 -2.87762 0
M  V30 2922 N 286.751 1.08385 -1.14413 0
M  V30 2923 C 287.999 1.80419 -0.910679 0
M  V30 2924 C 288.32 1.86658 0.564243 0
M  V30 2925 O 287.59 1.35985 1.41014 0
M  V30 2926 H 286.17 0.668204 -0.333934 0
M  V30 2927 H 288.832 1.31037 -1.44275 0
M  V30 2928 H 287.928 2.83238 -1.31082 0
M  V30 2929 N 288.23 0.939286 1.26551 0
M  V30 2930 C 289.507 0.5038 1.89001 0
M  V30 2931 C 289.887 -1.01854 1.84903 0
M  V30 2932 O 289.235 -1.87773 1.30206 0
M  V30 2933 C 289.445 1.063 3.32417 0
M  V30 2934 C 290.793 1.13051 4.09273 0
M  V30 2935 O 291.817 1.01345 3.41479 0
M  V30 2936 O 290.676 1.31233 5.30509 0
M  V30 2937 H 287.77 0.163897 0.810597 0
M  V30 2938 H 290.316 1.03173 1.34735 0
M  V30 2939 H 289.088 2.10665 3.29752 0
M  V30 2940 H 288.711 0.517408 3.94219 0
M  V30 2941 N 289.708 -1.40897 0.706093 0
M  V30 2942 C 290.956 -2.00657 0.241054 0
M  V30 2943 C 291.277 -1.56241 -1.16678 0
M  V30 2944 O 290.547 -0.79765 -1.78926 0
M  V30 2945 H 289.127 -0.742018 0.0861308 0
M  V30 2946 H 291.789 -1.72372 0.909604 0
M  V30 2947 H 290.885 -3.10958 0.266705 0
M  V30 2948 N 291.186 -0.45159 -1.50991 0
M  V30 2949 C 292.432 0.110237 -2.025 0
M  V30 2950 C 292.765 1.41109 -1.33424 0
M  V30 2951 O 292.04 1.89135 -0.453659 0
M  V30 2952 C 292.323 0.314271 -3.58726 0
M  V30 2953 C 292.176 -1.00623 -4.38401 0
M  V30 2954 C 293.495 1.07767 -4.26702 0
M  V30 2955 H 290.614 0.0385897 -0.735989 0
M  V30 2956 H 293.256 -0.593374 -1.80497 0
M  V30 2957 H 291.406 0.913601 -3.77605 0
M  V30 2958 H 293.078 -1.64064 -4.31139 0
M  V30 2959 H 291.321 -1.6075 -4.02917 0
M  V30 2960 H 291.992 -0.817341 -5.45915 0
M  V30 2961 H 294.468 0.56986 -4.12179 0
M  V30 2962 H 293.344 1.18921 -5.35863 0
M  V30 2963 H 293.605 2.10939 -3.88532 0
M  V30 2964 N 292.664 1.56529 -0.183458 0
M  V30 2965 C 293.912 1.96855 0.457452 0
M  V30 2966 C 294.233 1.07104 1.62953 0
M  V30 2967 O 293.503 0.139887 1.954 0
M  V30 2968 H 292.083 0.72693 0.171992 0
M  V30 2969 H 294.745 1.93056 -0.267476 0
M  V30 2970 H 293.841 3.01423 0.809368 0
M  V30 2971 N 294.142 -0.090211 1.57342 0
M  V30 2972 C 295.39 -0.791241 1.85967 0
M  V30 2973 C 295.711 -1.7903 0.772859 0
M  V30 2974 O 294.981 -1.94872 -0.200398 0
M  V30 2975 H 293.561 -0.295205 0.686195 0
M  V30 2976 H 296.223 -0.0706782 1.94772 0
M  V30 2977 H 295.319 -1.31882 2.82867 0
M  V30 2978 N 295.62 -1.53406 -0.361157 0
M  V30 2979 C 296.845 -1.74024 -1.12829 0
M  V30 2980 C 297.27 -0.470069 -1.82132 0
M  V30 2981 O 296.628 0.57619 -1.719 0
M  V30 2982 C 296.676 -2.90903 -2.13091 0
M  V30 2983 O 295.78 -2.59821 -3.20261 0
M  V30 2984 H 295.121 -0.577804 -0.327168 0
M  V30 2985 H 297.651 -2.00307 -0.41693 0
M  V30 2986 H 297.661 -3.17194 -2.56616 0
M  V30 2987 H 296.336 -3.83034 -1.62042 0
M  V30 2988 H 294.913 -2.44362 -2.81677 0
M  V30 2989 N 297.098 0.621204 -1.44841 0
M  V30 2990 C 298.347 1.37658 -1.47422 0
M  V30 2991 C 298.66 1.95264 -0.114629 0
M  V30 2992 O 299.866 2.71494 -0.0180199 0
M  V30 2993 C 298.322 2.49285 -2.59586 0
M  V30 2994 C 297.93 1.98149 -4.01797 0
M  V30 2995 C 299.674 3.26409 -2.71399 0
M  V30 2996 C 297.581 3.07178 -5.05367 0
M  V30 2997 H 296.511 0.517344 -0.548517 0
M  V30 2998 H 299.162 0.667257 -1.70938 0
M  V30 2999 H 297.544 3.22839 -2.29328 0
M  V30 3000 H 298.718 1.31395 -4.41669 0
M  V30 3001 H 297.033 1.33812 -3.94314 0
M  V30 3002 H 299.63 4.07706 -3.45948 0
M  V30 3003 H 299.973 3.76535 -1.77559 0
M  V30 3004 H 300.506 2.5995 -3.01116 0
M  V30 3005 H 297.245 2.61985 -6.00869 0
M  V30 3006 H 296.765 3.72542 -4.70077 0
M  V30 3007 H 298.444 3.71789 -5.29511 0
M  V30 3008 N 298.576 1.31904 0.862503 0
M  V30 3009 C 299.804 1.24998 1.64873 0
M  V30 3010 C 300.219 -0.183425 1.87907 0
M  V30 3011 O 299.576 -1.11794 1.44251 0
M  V30 3012 C 299.627 1.99829 3.01248 0
M  V30 3013 O 299.348 3.37575 2.79239 0
M  V30 3014 C 300.849 1.99852 3.95694 0
M  V30 3015 H 298.069 0.431599 0.513773 0
M  V30 3016 H 300.613 1.73901 1.07604 0
M  V30 3017 H 298.768 1.54668 3.55185 0
M  V30 3018 H 299.182 3.75776 3.65914 0
M  V30 3019 H 300.656 2.56709 4.88676 0
M  V30 3020 H 301.133 0.982852 4.28062 0
M  V30 3021 H 301.739 2.44926 3.47694 0
M  V30 3022 N 300.054 -1.07777 1.14986 0
M  V30 3023 C 301.284 -1.83752 0.944402 0
M  V30 3024 C 301.692 -1.8218 -0.51058 0
M  V30 3025 O 301.035 -1.22852 -1.36576 0
M  V30 3026 C 301.097 -3.32128 1.37592 0
M  V30 3027 C 300.761 -3.57425 2.84775 0
M  V30 3028 C 301.758 -3.5173 3.8286 0
M  V30 3029 C 299.443 -3.8523 3.2234 0
M  V30 3030 C 301.437 -3.73482 5.16517 0
M  V30 3031 C 299.124 -4.06634 4.56171 0
M  V30 3032 C 300.122 -4.00754 5.53069 0
M  V30 3033 O 299.81 -4.2159 6.84483 0
M  V30 3034 H 299.542 -0.58673 0.335744 0
M  V30 3035 H 302.096 -1.36982 1.53052 0
M  V30 3036 H 300.326 -3.79686 0.733165 0
M  V30 3037 H 302.015 -3.89555 1.14024 0
M  V30 3038 H 302.781 -3.30256 3.55184 0
M  V30 3039 H 298.66 -3.88923 2.47508 0
M  V30 3040 H 302.204 -3.68808 5.92137 0
M  V30 3041 H 298.101 -4.27593 4.83564 0
M  V30 3042 H 298.869 -4.38961 6.90837 0
M  V30 3043 N 301.532 -0.945985 -1.26051 0
M  V30 3044 C 302.48 -0.450259 -2.282 0
M  V30 3045 C 303.474 0.47497 -1.62605 0
M  V30 3046 O 304.68 0.352653 -1.76512 0
M  V30 3047 H 301.055 -0.127081 -0.741184 0
M  V30 3048 H 303.026 -1.32422 -2.67408 0
M  V30 3049 C 301.775 0.26467 -3.46691 0
M  V30 3050 H 301.098 -0.438123 -3.97392 0
M  V30 3051 H 302.538 0.575678 -4.20074 0
M  V30 3052 C 300.997 1.48416 -3.02447 0
M  V30 3053 O 301.527 2.58227 -3.07704 0
M  V30 3054 N 299.733 1.34243 -2.57735 0
M  V30 3055 H 299.28 0.448994 -2.53657 0
M  V30 3056 H 299.238 2.15957 -2.28495 0
M  V30 3057 N 303.011 1.40521 -0.713556 0
M  V30 3058 C 304.241 2.0494 -0.261395 0
M  V30 3059 C 304.649 1.53861 1.10107 0
M  V30 3060 O 303.992 0.689321 1.70276 0
M  V30 3061 C 304.054 3.59138 -0.161227 0
M  V30 3062 C 303.718 4.33096 -1.45865 0
M  V30 3063 C 304.715 4.61182 -2.40016 0
M  V30 3064 C 302.4 4.72043 -1.71701 0
M  V30 3065 C 304.394 5.27196 -3.58251 0
M  V30 3066 C 302.081 5.37789 -2.90218 0
M  V30 3067 C 303.079 5.65295 -3.83315 0
M  V30 3068 O 302.767 6.29683 -4.99754 0
M  V30 3069 H 302.499 0.666041 -0.115608 0
M  V30 3070 H 305.053 1.80954 -0.971849 0
M  V30 3071 H 303.283 3.81936 0.605153 0
M  V30 3072 H 304.972 4.05091 0.256105 0
M  V30 3073 H 305.738 4.31559 -2.21318 0
M  V30 3074 H 301.617 4.50003 -1.00092 0
M  V30 3075 H 305.161 5.48582 -4.30934 0
M  V30 3076 H 301.058 5.66831 -3.08825 0
M  V30 3077 H 301.826 6.4818 -4.99805 0
M  V30 3078 N 304.489 0.459591 1.5075 0
M  V30 3079 C 305.399 -0.34613 2.32033 0
M  V30 3080 C 306.415 -1.00686 1.41909 0
M  V30 3081 O 307.591 -0.997361 1.7497 0
M  V30 3082 C 304.656 -1.42029 3.16273 0
M  V30 3083 C 303.717 -0.777362 4.22203 0
M  V30 3084 C 302.95 -1.80034 5.02418 0
M  V30 3085 O 303.173 -3.02544 4.83553 0
M  V30 3086 O 302.107 -1.37853 5.85901 0
M  V30 3087 H 305.933 0.318054 3.0203 0
M  V30 3088 H 303.518 0.221663 1.47746 0
M  V30 3089 H 305.4 -2.04275 3.68578 0
M  V30 3090 H 304.075 -2.06815 2.49016 0
M  V30 3091 H 302.982 -0.116256 3.73919 0
M  V30 3092 H 304.315 -0.172634 4.91897 0
M  V30 3093 N 305.967 -1.56429 0.191757 0
M  V30 3094 C 307.215 -1.97095 -0.447006 0
M  V30 3095 C 307.536 -1.07967 -1.62383 0
M  V30 3096 O 306.806 -0.150248 -1.95323 0
M  V30 3097 H 305.386 -0.727832 -0.168135 0
M  V30 3098 H 308.048 -1.92911 0.27771 0
M  V30 3099 H 307.144 -3.01848 -0.793371 0
M  V30 3100 N 307.445 0.0818655 -1.57387 0
M  V30 3101 C 308.692 0.782914 -1.86753 0
M  V30 3102 C 309.02 1.78082 -0.782118 0
M  V30 3103 O 308.275 1.94426 0.22295 0
M  V30 3104 C 308.574 1.53513 -3.22752 0
M  V30 3105 C 308.24 0.678134 -4.45771 0
M  V30 3106 C 306.902 0.441929 -4.79166 0
M  V30 3107 C 309.254 0.0832243 -5.21134 0
M  V30 3108 C 306.582 -0.398833 -5.85343 0
M  V30 3109 C 308.934 -0.744935 -6.28199 0
M  V30 3110 C 307.598 -0.991107 -6.60101 0
M  V30 3111 H 306.868 0.286489 -0.683378 0
M  V30 3112 H 309.515 0.0439808 -1.91449 0
M  V30 3113 H 307.82 2.34599 -3.138 0
M  V30 3114 H 309.517 2.08218 -3.42705 0
M  V30 3115 H 306.107 0.872357 -4.19628 0
M  V30 3116 H 310.291 0.252847 -4.95655 0
M  V30 3117 H 305.547 -0.598405 -6.08465 0
M  V30 3118 H 309.721 -1.21271 -6.8576 0
M  V30 3119 H 307.348 -1.64437 -7.42202 0
M  V30 3120 N 308.923 1.53595 0.353017 0
M  V30 3121 C 310.171 1.70049 1.09215 0
M  V30 3122 C 310.492 0.461406 1.89463 0
M  V30 3123 O 309.762 -0.524633 1.88744 0
M  V30 3124 H 308.342 0.626912 0.40619 0
M  V30 3125 H 311.004 1.90822 0.396585 0
M  V30 3126 H 310.1 2.56718 1.77488 0
M  V30 3127 N 310.401 -0.613514 1.45168 0
M  V30 3128 C 311.65 -1.36874 1.4815 0
M  V30 3129 C 311.963 -1.952 0.124982 0
M  V30 3130 O 313.169 -2.71481 0.0324176 0
M  V30 3131 C 311.625 -2.47905 2.60904 0
M  V30 3132 C 311.233 -1.96016 4.02842 0
M  V30 3133 C 312.977 -3.24965 2.73126 0
M  V30 3134 C 310.884 -3.04494 5.06988 0
M  V30 3135 H 309.814 -0.514428 0.551253 0
M  V30 3136 H 312.465 -0.658182 1.7129 0
M  V30 3137 H 310.847 -3.21618 2.31037 0
M  V30 3138 H 312.021 -1.29051 4.4236 0
M  V30 3139 H 310.336 -1.31719 3.95018 0
M  V30 3140 H 312.933 -4.05865 3.48106 0
M  V30 3141 H 313.276 -3.75588 1.79553 0
M  V30 3142 H 313.809 -2.5835 3.0249 0
M  V30 3143 H 310.548 -2.58795 6.0225 0
M  V30 3144 H 310.068 -3.70044 4.72046 0
M  V30 3145 H 311.747 -3.68976 5.31475 0
M  V30 3146 N 311.879 -1.3236 -0.855495 0
M  V30 3147 C 313.127 -1.22629 -1.60644 0
M  V30 3148 C 313.448 0.212136 -1.93843 0
M  V30 3149 O 312.718 1.13666 -1.59552 0
M  V30 3150 H 311.298 -0.450882 -0.595579 0
M  V30 3151 H 313.96 -1.65871 -1.02337 0
M  V30 3152 H 313.056 -1.80832 -2.54374 0
M  V30 3153 N 313.357 1.07166 -1.15556 0
M  V30 3154 C 314.32 2.12589 -0.856644 0
M  V30 3155 C 315.32 1.6015 0.14444 0
M  V30 3156 O 316.51 1.7399 -0.0854163 0
M  V30 3157 C 313.642 3.39753 -0.279405 0
M  V30 3158 H 314.835 2.40539 -1.79112 0
M  V30 3159 H 312.388 1.23086 -0.963298 0
M  V30 3160 H 313.123 3.17447 0.663174 0
M  V30 3161 H 312.908 3.79117 -1.00063 0
M  V30 3162 H 314.398 4.17507 -0.0879113 0
M  V30 3163 N 314.835 0.952656 1.25548 0
M  V30 3164 C 315.798 0.475794 2.24207 0
M  V30 3165 C 316.798 -0.419428 1.55234 0
M  V30 3166 O 317.988 -0.216994 1.72843 0
M  V30 3167 C 315.12 -0.312814 3.39462 0
M  V30 3168 H 316.313 1.34779 2.67908 0
M  V30 3169 H 313.866 0.735739 1.37901 0
M  V30 3170 H 314.601 -1.20257 3.01179 0
M  V30 3171 H 314.386 0.329404 3.90714 0
M  V30 3172 H 315.876 -0.635986 4.12729 0
M  V30 3173 N 316.313 -1.40141 0.720998 0
M  V30 3174 C 317.559 -2.01084 0.263231 0
M  V30 3175 C 317.892 -1.57052 -1.14229 0
M  V30 3176 O 317.167 -0.793027 -1.77599 0
M  V30 3177 C 317.45 -3.58401 0.349344 0
M  V30 3178 C 317.303 -4.12491 1.79363 0
M  V30 3179 C 318.622 -4.39231 -0.276351 0
M  V30 3180 H 315.741 -0.730572 0.0971228 0
M  V30 3181 H 318.383 -1.66543 0.914518 0
M  V30 3182 H 316.533 -3.87958 -0.205165 0
M  V30 3183 H 318.205 -3.93711 2.40394 0
M  V30 3184 H 316.448 -3.66576 2.31958 0
M  V30 3185 H 317.119 -5.21646 1.80524 0
M  V30 3186 H 319.595 -4.15637 0.196184 0
M  V30 3187 H 318.471 -5.48586 -0.185681 0
M  V30 3188 H 318.732 -4.20643 -1.36059 0
M  V30 3189 N 317.792 -0.46758 -1.50504 0
M  V30 3190 C 319.017 0.0886943 -2.0721 0
M  V30 3191 C 319.442 1.33057 -1.32956 0
M  V30 3192 O 318.8 1.77354 -0.376197 0
M  V30 3193 C 318.848 0.359202 -3.58806 0
M  V30 3194 O 317.952 1.44034 -3.8643 0
M  V30 3195 H 317.293 -0.0114349 -0.663902 0
M  V30 3196 H 319.823 -0.657613 -1.93744 0
M  V30 3197 H 319.833 0.600742 -4.03553 0
M  V30 3198 H 318.508 -0.548311 -4.1227 0
M  V30 3199 H 317.085 1.18638 -3.53524 0
M  V30 3200 N 319.27 1.56325 -0.20005 0
M  V30 3201 C 320.495 2.02548 0.44597 0
M  V30 3202 C 320.92 1.07922 1.5406 0
M  V30 3203 O 320.278 0.0635775 1.81188 0
M  V30 3204 C 320.326 3.47175 0.974761 0
M  V30 3205 O 319.43 3.55671 2.08739 0
M  V30 3206 H 318.771 0.655862 0.103638 0
M  V30 3207 H 321.301 2.02201 -0.312381 0
M  V30 3208 H 321.311 3.87067 1.2901 0
M  V30 3209 H 319.986 4.15538 0.17347 0
M  V30 3210 H 318.563 3.27657 1.78032 0
M  V30 3211 N 320.748 -0.0735177 1.57428 0
M  V30 3212 C 321.973 -0.789787 1.91774 0
M  V30 3213 C 322.398 -1.70413 0.796306 0
M  V30 3214 O 321.756 -1.79555 -0.250961 0
M  V30 3215 C 321.804 -1.5609 3.25067 0
M  V30 3216 O 320.908 -2.67144 3.14178 0
M  V30 3217 H 320.249 -0.215582 0.628029 0
M  V30 3218 H 322.779 -0.0422781 2.04556 0
M  V30 3219 H 322.789 -1.94052 3.58898 0
M  V30 3220 H 321.464 -0.890015 4.06265 0
M  V30 3221 H 320.041 -2.32052 2.91901 0
M  V30 3222 N 322.226 -1.5378 -0.344866 0
M  V30 3223 C 323.173 -1.81676 -1.42346 0
M  V30 3224 C 324.143 -0.662376 -1.52321 0
M  V30 3225 O 325.328 -0.906675 -1.67881 0
M  V30 3226 C 322.468 -2.03087 -2.79015 0
M  V30 3227 C 321.581 -3.30799 -2.77842 0
M  V30 3228 C 320.716 -3.42285 -4.0622 0
M  V30 3229 C 319.755 -4.6395 -3.9927 0
M  V30 3230 N 318.892 -4.72477 -5.19336 0
M  V30 3231 H 323.732 -2.73703 -1.17858 0
M  V30 3232 H 321.269 -1.35568 -0.570949 0
M  V30 3233 H 323.227 -2.1349 -3.58438 0
M  V30 3234 H 321.857 -1.14375 -3.01858 0
M  V30 3235 H 320.909 -3.29244 -1.90533 0
M  V30 3236 H 322.221 -4.20314 -2.68584 0
M  V30 3237 H 321.375 -3.52113 -4.94066 0
M  V30 3238 H 320.114 -2.50823 -4.18258 0
M  V30 3239 H 319.119 -4.54201 -3.09809 0
M  V30 3240 H 320.344 -5.56775 -3.88817 0
M  V30 3241 H 318.29 -3.83924 -5.3192 0
M  V30 3242 H 318.207 -5.55927 -5.12329 0
M  V30 3243 H 319.475 -4.86613 -6.08957 0
M  V30 3244 N 323.704 0.605807 -1.45491 0
M  V30 3245 C 325.12 0.926751 -1.29936 0
M  V30 3246 C 325.32 1.99896 -0.253706 0
M  V30 3247 O 324.376 2.50038 0.351737 0
M  V30 3248 C 325.689 1.36599 -2.67883 0
M  V30 3249 C 327.237 1.4801 -2.75793 0
M  V30 3250 C 327.712 1.95309 -4.14268 0
M  V30 3251 N 329.203 2.0254 -4.16571 0
M  V30 3252 C 329.938 2.40363 -5.20589 0
M  V30 3253 N 329.434 2.77143 -6.34952 0
M  V30 3254 N 331.227 2.40718 -5.07948 0
M  V30 3255 H 323.378 -0.102862 -2.12151 0
M  V30 3256 H 325.641 0.016639 -0.947854 0
M  V30 3257 H 325.347 0.652306 -3.45598 0
M  V30 3258 H 325.221 2.33215 -2.96463 0
M  V30 3259 H 327.608 2.1847 -1.98381 0
M  V30 3260 H 327.689 0.497041 -2.50925 0
M  V30 3261 H 327.333 1.25436 -4.92167 0
M  V30 3262 H 327.263 2.94532 -4.3653 0
M  V30 3263 H 329.754 1.76699 -3.34045 0
M  V30 3264 H 330.067 3.0489 -7.10114 0
M  V30 3265 H 328.412 2.74834 -6.3835 0
M  V30 3266 H 331.603 2.11392 -4.1765 0
M  V30 3267 H 331.776 2.69869 -5.89131 0
M  V30 3268 N 325.182 1.32811 0.848464 0
M  V30 3269 C 326.41 1.26739 1.63538 0
M  V30 3270 C 326.825 -0.163484 1.88091 0
M  V30 3271 O 326.182 -1.10258 1.45429 0
M  V30 3272 C 326.233 2.03013 2.99112 0
M  V30 3273 O 325.954 3.40518 2.75643 0
M  V30 3274 C 327.455 2.04038 3.93552 0
M  V30 3275 H 324.675 0.437024 0.509167 0
M  V30 3276 H 327.219 1.75033 1.05753 0
M  V30 3277 H 325.374 1.58426 3.53525 0
M  V30 3278 H 325.788 3.79635 3.61908 0
M  V30 3279 H 327.262 2.61877 4.85926 0
M  V30 3280 H 327.739 1.0282 4.26995 0
M  V30 3281 H 328.345 2.486 3.45077 0
M  V30 3282 N 326.66 -1.06551 1.16123 0
M  V30 3283 C 327.906 -1.79719 0.952505 0
M  V30 3284 C 328.261 -1.85396 -0.514385 0
M  V30 3285 O 327.554 -1.33263 -1.37665 0
M  V30 3286 C 327.748 -3.23911 1.51052 0
M  V30 3287 C 327.577 -3.32284 3.03013 0
M  V30 3288 C 326.347 -3.42371 3.71632 0
M  V30 3289 C 328.545 -3.22363 4.00732 0
M  V30 3290 N 326.527 -3.39732 5.11327 0
M  V30 3291 C 327.898 -3.26937 5.26794 0
M  V30 3292 C 329.953 -3.0623 3.92591 0
M  V30 3293 C 328.656 -3.17035 6.45663 0
M  V30 3294 C 330.682 -2.97665 5.11028 0
M  V30 3295 C 330.044 -3.02858 6.35969 0
M  V30 3296 H 326.143 -0.670585 0.402293 0
M  V30 3297 H 328.727 -1.27125 1.4747 0
M  V30 3298 H 326.898 -3.74907 1.01484 0
M  V30 3299 H 328.63 -3.85242 1.2398 0
M  V30 3300 H 325.385 -3.47058 3.22254 0
M  V30 3301 H 325.809 -3.41919 5.84312 0
M  V30 3302 H 330.451 -3.01063 2.96852 0
M  V30 3303 H 328.169 -3.2096 7.41627 0
M  V30 3304 H 331.755 -2.86273 5.06497 0
M  V30 3305 H 330.635 -2.96286 7.26075 0
M  V30 3306 N 328.138 -0.959301 -1.25041 0
M  V30 3307 C 329.415 -0.533805 -1.88175 0
M  V30 3308 C 329.795 0.988994 -1.865 0
M  V30 3309 O 329.143 1.85677 -1.33177 0
M  V30 3310 C 329.353 -1.11575 -3.30684 0
M  V30 3311 C 330.701 -1.19548 -4.07423 0
M  V30 3312 O 331.725 -1.06765 -3.39823 0
M  V30 3313 O 330.584 -1.39656 -5.28354 0
M  V30 3314 H 327.678 -0.176772 -0.807887 0
M  V30 3315 H 330.224 -1.05303 -1.33076 0
M  V30 3316 H 328.996 -2.15884 -3.26358 0
M  V30 3317 H 328.619 -0.580059 -3.93346 0
M  V30 3318 N 329.616 1.39756 -0.72842 0
M  V30 3319 C 330.548 2.29157 -0.0446202 0
M  V30 3320 C 331.561 1.46484 0.710367 0
M  V30 3321 O 332.75 1.69632 0.55562 0
M  V30 3322 C 329.85 3.24987 0.961071 0
M  V30 3323 C 329.023 4.36572 0.268967 0
M  V30 3324 C 328.082 5.12756 1.18184 0
M  V30 3325 O 327.108 5.6534 0.661794 0
M  V30 3326 N 328.31 5.23331 2.51206 0
M  V30 3327 H 331.075 2.88482 -0.812295 0
M  V30 3328 H 328.636 1.51265 -0.577098 0
M  V30 3329 H 330.628 3.72827 1.57423 0
M  V30 3330 H 329.198 2.66739 1.63 0
M  V30 3331 H 328.418 3.90694 -0.524574 0
M  V30 3332 H 329.706 5.08363 -0.210934 0
M  V30 3333 H 329.104 4.82116 2.9594 0
M  V30 3334 H 327.661 5.74634 3.07634 0
M  V30 3335 N 331.094 0.475555 1.50254 0
M  V30 3336 C 332.042 -0.330276 2.30243 0
M  V30 3337 C 333.036 -0.986306 1.37726 0
M  V30 3338 O 334.242 -0.9169 1.54897 0
M  V30 3339 H 330.617 -0.125353 0.741479 0
M  V30 3340 H 332.588 0.364702 2.96163 0
M  V30 3341 C 331.337 -1.39704 3.18399 0
M  V30 3342 H 330.66 -0.901621 3.89501 0
M  V30 3343 H 332.1 -1.93336 3.77355 0
M  V30 3344 C 330.559 -2.4014 2.36293 0
M  V30 3345 O 331.089 -3.45504 2.04914 0
M  V30 3346 N 329.295 -2.1197 1.98789 0
M  V30 3347 H 328.842 -1.2631 2.24507 0
M  V30 3348 H 328.8 -2.79403 1.44157 0
M  V30 3349 N 332.573 -1.56217 0.208337 0
M  V30 3350 C 333.521 -2.21053 -0.723769 0
M  V30 3351 C 334.515 -1.18578 -1.20978 0
M  V30 3352 O 335.721 -1.36691 -1.17114 0
M  V30 3353 H 332.096 -0.708595 -0.251788 0
M  V30 3354 H 334.067 -2.98006 -0.153365 0
M  V30 3355 C 332.816 -2.89417 -1.927 0
M  V30 3356 H 332.139 -3.68019 -1.56212 0
M  V30 3357 H 333.579 -3.38201 -2.55727 0
M  V30 3358 C 332.038 -1.91166 -2.77411 0
M  V30 3359 O 332.568 -1.42026 -3.75754 0
M  V30 3360 N 330.774 -1.59105 -2.43175 0
M  V30 3361 H 330.321 -1.99259 -1.63259 0
M  V30 3362 H 330.279 -0.936255 -3.00136 0
M  V30 3363 N 334.051 0.0651679 -1.57465 0
M  V30 3364 C 335.279 0.775808 -1.91804 0
M  V30 3365 C 335.694 1.70782 -0.804916 0
M  V30 3366 O 335.051 1.81153 0.221311 0
M  V30 3367 C 335.102 1.56381 -3.25925 0
M  V30 3368 O 334.823 0.669248 -4.32958 0
M  V30 3369 C 336.324 2.37485 -3.7432 0
M  V30 3370 H 333.544 0.2202 -0.63384 0
M  V30 3371 H 336.088 0.0334587 -2.04473 0
M  V30 3372 H 334.243 2.25837 -3.14764 0
M  V30 3373 H 334.657 1.21801 -5.10162 0
M  V30 3374 H 336.131 2.88223 -4.70778 0
M  V30 3375 H 336.608 3.17307 -3.03666 0
M  V30 3376 H 337.214 1.73173 -3.88447 0
M  V30 3377 N 335.529 1.53961 0.336706 0
M  V30 3378 C 336.777 1.71197 1.07405 0
M  V30 3379 C 337.098 0.481475 1.88962 0
M  V30 3380 O 336.368 -0.504585 1.8929 0
M  V30 3381 H 334.948 0.631185 0.399517 0
M  V30 3382 H 337.61 1.91232 0.376323 0
M  V30 3383 H 336.706 2.58587 1.74755 0
M  V30 3384 N 337.007 -0.598083 1.45811 0
M  V30 3385 C 337.937 -1.71873 1.58057 0
M  V30 3386 C 338.918 -1.64533 0.431615 0
M  V30 3387 O 340.103 -1.82787 0.65595 0
M  V30 3388 C 337.233 -3.10495 1.55597 0
M  V30 3389 C 336.187 -3.32654 2.69305 0
M  V30 3390 C 335.513 -4.71646 2.51902 0
M  V30 3391 C 336.813 -3.21981 4.11248 0
M  V30 3392 H 338.507 -1.61881 2.51863 0
M  V30 3393 H 336.053 -0.777372 1.21214 0
M  V30 3394 H 338.006 -3.88699 1.6276 0
M  V30 3395 H 336.73 -3.2135 0.583255 0
M  V30 3396 H 335.389 -2.56843 2.61586 0
M  V30 3397 H 335.037 -4.79246 1.52748 0
M  V30 3398 H 334.737 -4.87426 3.2816 0
M  V30 3399 H 336.261 -5.52038 2.60933 0
M  V30 3400 H 337.675 -3.90049 4.20161 0
M  V30 3401 H 336.072 -3.49289 4.87972 0
M  V30 3402 H 337.142 -2.1928 4.32486 0
M  V30 3403 N 338.485 -1.33259 -0.841409 0
M  V30 3404 C 339.734 -1.23921 -1.59143 0
M  V30 3405 C 340.047 0.1941 -1.94635 0
M  V30 3406 O 341.253 0.409474 -2.68394 0
M  V30 3407 C 339.709 -2.17119 -2.87032 0
M  V30 3408 C 339.317 -3.65606 -2.58914 0
M  V30 3409 C 341.061 -2.16648 -3.65053 0
M  V30 3410 C 338.968 -4.50726 -3.82884 0
M  V30 3411 H 337.898 -0.460264 -0.597221 0
M  V30 3412 H 340.549 -1.58307 -0.927959 0
M  V30 3413 H 338.931 -1.75663 -3.54906 0
M  V30 3414 H 340.105 -4.15487 -1.99267 0
M  V30 3415 H 338.42 -3.68341 -1.942 0
M  V30 3416 H 341.017 -2.77474 -4.57069 0
M  V30 3417 H 341.36 -1.16088 -3.99787 0
M  V30 3418 H 341.893 -2.56453 -3.041 0
M  V30 3419 H 338.632 -5.52151 -3.53283 0
M  V30 3420 H 338.152 -4.0559 -4.41879 0
M  V30 3421 H 339.831 -4.64401 -4.50489 0
M  V30 3422 N 339.963 1.05934 -1.16686 0
M  V30 3423 C 341.211 1.78447 -0.948744 0
M  V30 3424 C 341.532 1.87813 0.524523 0
M  V30 3425 O 340.802 1.38945 1.38098 0
M  V30 3426 H 339.382 0.660971 -0.348033 0
M  V30 3427 H 342.044 1.27947 -1.47022 0
M  V30 3428 H 341.14 2.80394 -1.37061 0
M  V30 3429 N 341.441 0.965919 1.2453 0
M  V30 3430 C 342.669 0.644385 1.96609 0
M  V30 3431 C 343.084 -0.785823 1.71669 0
M  V30 3432 O 342.441 -1.52703 0.999399 0
M  V30 3433 C 342.492 0.907375 3.49927 0
M  V30 3434 O 342.213 2.28136 3.74013 0
M  V30 3435 C 343.714 0.599784 4.39224 0
M  V30 3436 H 340.934 0.240588 0.626385 0
M  V30 3437 H 343.478 1.29337 1.58405 0
M  V30 3438 H 341.633 0.304631 3.862 0
M  V30 3439 H 342.047 2.36002 4.68405 0
M  V30 3440 H 343.521 0.834263 5.45659 0
M  V30 3441 H 343.998 -0.465921 4.36722 0
M  V30 3442 H 344.604 1.18235 4.08535 0
M  V30 3443 N 342.919 -1.39368 0.735821 0
M  V30 3444 C 344.167 -2.00101 0.283562 0
M  V30 3445 C 344.488 -1.5868 -1.13338 0
M  V30 3446 O 343.758 -0.835423 -1.77193 0
M  V30 3447 H 342.338 -0.740024 0.101851 0
M  V30 3448 H 345 -1.70404 0.945962 0
M  V30 3449 H 344.096 -3.10323 0.332604 0
M  V30 3450 N 344.397 -0.483516 -1.5 0
M  V30 3451 C 345.674 0.129337 -1.95172 0
M  V30 3452 C 346.054 1.55802 -1.4244 0
M  V30 3453 O 345.402 2.19625 -0.630649 0
M  V30 3454 C 345.612 0.0599251 -3.48949 0
M  V30 3455 C 346.96 0.242617 -4.23906 0
M  V30 3456 O 347.984 0.135933 -3.55941 0
M  V30 3457 O 346.843 0.459454 -5.44565 0
M  V30 3458 H 343.937 0.104887 -0.820322 0
M  V30 3459 H 346.483 -0.544807 -1.60717 0
M  V30 3460 H 345.255 -0.937079 -3.79914 0
M  V30 3461 H 344.878 0.774984 -3.89974 0
M  V30 3462 N 345.875 1.56104 -0.216619 0
M  V30 3463 C 347.291 1.58995 0.13886 0
M  V30 3464 C 347.491 1.23333 1.59346 0
M  V30 3465 O 346.547 0.966234 2.33281 0
M  V30 3466 C 347.86 3.00143 -0.182968 0
M  V30 3467 C 349.408 3.12751 -0.124807 0
M  V30 3468 C 349.883 4.56068 -0.420241 0
M  V30 3469 N 351.374 4.61723 -0.369634 0
M  V30 3470 C 352.109 5.70542 -0.571789 0
M  V30 3471 N 351.605 6.87744 -0.835453 0
M  V30 3472 N 353.398 5.59831 -0.504563 0
M  V30 3473 H 345.549 1.77562 -1.16557 0
M  V30 3474 H 347.812 0.825091 -0.466828 0
M  V30 3475 H 347.518 3.30871 -1.19237 0
M  V30 3476 H 347.392 3.73813 0.504367 0
M  V30 3477 H 349.779 2.81822 0.875223 0
M  V30 3478 H 349.86 2.41421 -0.845544 0
M  V30 3479 H 349.504 4.87713 -1.41769 0
M  V30 3480 H 349.434 5.25617 0.321631 0
M  V30 3481 H 351.925 3.77502 -0.173338 0
M  V30 3482 H 352.238 7.66587 -0.977938 0
M  V30 3483 H 350.583 6.895 -0.872592 0
M  V30 3484 H 353.774 4.67145 -0.298842 0
M  V30 3485 H 353.947 6.44573 -0.665519 0
M  V30 3486 N 347.353 -0.0568162 1.57498 0
M  V30 3487 C 348.316 -1.05038 2.03715 0
M  V30 3488 C 349.316 -1.30709 0.936577 0
M  V30 3489 O 350.506 -1.26178 1.20103 0
M  V30 3490 C 347.638 -2.39034 2.43055 0
M  V30 3491 H 348.831 -0.651715 2.92733 0
M  V30 3492 H 346.384 -0.302947 1.53336 0
M  V30 3493 H 347.119 -2.83703 1.57108 0
M  V30 3494 H 346.904 -2.21739 3.2338 0
M  V30 3495 H 348.394 -3.10421 2.79336 0
M  V30 3496 N 348.832 -1.54138 -0.328536 0
M  V30 3497 C 349.742 -1.86192 -1.42723 0
M  V30 3498 C 350.758 -0.753382 -1.56844 0
M  V30 3499 O 351.934 -1.04718 -1.72035 0
M  V30 3500 C 348.999 -2.07824 -2.77507 0
M  V30 3501 C 348.06 -3.31641 -2.72603 0
M  V30 3502 C 347.293 -3.52232 -4.00959 0
M  V30 3503 O 347.516 -2.7636 -4.9898 0
M  V30 3504 O 346.45 -4.45699 -4.0452 0
M  V30 3505 H 350.276 -2.79608 -1.18547 0
M  V30 3506 H 347.861 -1.3998 -0.522104 0
M  V30 3507 H 349.743 -2.23411 -3.57303 0
M  V30 3508 H 348.418 -1.17596 -3.01584 0
M  V30 3509 H 347.325 -3.21444 -1.91376 0
M  V30 3510 H 348.658 -4.2191 -2.53481 0
M  V30 3511 N 350.31 0.590341 -1.46126 0
M  V30 3512 C 351.538 1.37504 -1.54597 0
M  V30 3513 C 351.953 1.87897 -0.184447 0
M  V30 3514 O 351.31 1.63192 0.816984 0
M  V30 3515 C 351.361 2.56779 -2.54454 0
M  V30 3516 O 351.082 2.08476 -3.85317 0
M  V30 3517 C 352.583 3.49427 -2.72792 0
M  V30 3518 H 349.803 0.420325 -0.523037 0
M  V30 3519 H 352.347 0.718383 -1.91467 0
M  V30 3520 H 350.502 3.1845 -2.20609 0
M  V30 3521 H 350.916 2.86097 -4.396 0
M  V30 3522 H 352.39 4.29619 -3.466 0
M  V30 3523 H 352.867 4.00876 -1.79429 0
M  V30 3524 H 353.473 2.93598 -3.07702 0
M  V30 3525 N 351.788 1.33704 0.83433 0
M  V30 3526 C 353.018 1.28281 1.6195 0
M  V30 3527 C 353.426 -0.147603 1.88623 0
M  V30 3528 O 352.769 -1.1016 1.47005 0
M  V30 3529 C 352.831 1.99386 2.99141 0
M  V30 3530 C 352.495 3.48681 2.95416 0
M  V30 3531 C 353.492 4.438 2.70809 0
M  V30 3532 C 351.177 3.90925 3.15409 0
M  V30 3533 C 353.171 5.79138 2.66229 0
M  V30 3534 C 350.858 5.26366 3.10454 0
M  V30 3535 C 351.856 6.20284 2.85895 0
M  V30 3536 O 351.544 7.53245 2.80852 0
M  V30 3537 H 351.276 0.44315 0.510484 0
M  V30 3538 H 353.83 1.76711 1.04702 0
M  V30 3539 H 352.06 1.45554 3.58261 0
M  V30 3540 H 353.749 1.87403 3.60049 0
M  V30 3541 H 354.515 4.12485 2.5511 0
M  V30 3542 H 350.394 3.18229 3.33543 0
M  V30 3543 H 353.938 6.52416 2.4698 0
M  V30 3544 H 349.835 5.57304 3.25703 0
M  V30 3545 H 350.603 7.62846 2.96661 0
M  V30 3546 N 353.266 -1.05314 1.17247 0
M  V30 3547 C 354.494 -1.81971 0.984593 0
M  V30 3548 C 354.909 -1.82929 -0.467166 0
M  V30 3549 O 354.266 -1.25564 -1.32438 0
M  V30 3550 C 354.317 -3.28143 1.51672 0
M  V30 3551 O 354.038 -3.27347 2.91163 0
M  V30 3552 C 355.539 -4.21493 1.37326 0
M  V30 3553 H 352.759 -0.573455 0.348411 0
M  V30 3554 H 355.303 -1.32808 1.55506 0
M  V30 3555 H 353.458 -3.74582 0.988302 0
M  V30 3556 H 353.872 -4.18824 3.15732 0
M  V30 3557 H 355.346 -5.22043 1.79375 0
M  V30 3558 H 355.823 -4.38031 0.320169 0
M  V30 3559 H 356.429 -3.80909 1.89178 0
M  V30 3560 N 354.744 -0.972509 -1.24016 0
M  V30 3561 C 355.992 -0.635776 -1.91839 0
M  V30 3562 C 356.313 0.832312 -1.76345 0
M  V30 3563 O 355.583 1.5946 -1.13795 0
M  V30 3564 H 354.163 -0.232157 -0.710009 0
M  V30 3565 H 356.825 -1.23462 -1.50809 0
M  V30 3566 H 355.921 -0.880545 -2.99421 0
M  V30 3567 N 356.222 1.38976 -0.743202 0
M  V30 3568 C 357.47 1.99948 -0.29417 0
M  V30 3569 C 357.791 1.59279 1.12495 0
M  V30 3570 O 357.061 0.844808 1.76748 0
M  V30 3571 H 355.641 0.739473 -0.105774 0
M  V30 3572 H 358.303 1.699 -0.954986 0
M  V30 3573 H 357.399 3.10142 -0.349056 0
M  V30 3574 N 357.7 0.491464 1.49741 0
M  V30 3575 C 358.63 -0.28154 2.31796 0
M  V30 3576 C 359.611 -0.971473 1.3963 0
M  V30 3577 O 360.796 -0.964719 1.68543 0
M  V30 3578 C 357.926 -1.35203 3.19902 0
M  V30 3579 C 356.88 -0.782529 4.20786 0
M  V30 3580 C 356.206 -1.95283 4.97764 0
M  V30 3581 C 357.506 0.21999 5.21837 0
M  V30 3582 H 359.2 0.403355 2.96671 0
M  V30 3583 H 356.746 0.195425 1.42668 0
M  V30 3584 H 358.699 -1.90045 3.76113 0
M  V30 3585 H 357.423 -2.06598 2.52953 0
M  V30 3586 H 356.082 -0.255928 3.65706 0
M  V30 3587 H 355.73 -2.65423 4.2727 0
M  V30 3588 H 355.43 -1.57789 5.66018 0
M  V30 3589 H 356.954 -2.50577 5.56816 0
M  V30 3590 H 358.368 -0.23996 5.72798 0
M  V30 3591 H 356.765 0.51026 5.97927 0
M  V30 3592 H 357.835 1.13911 4.7133 0
M  V30 3593 N 359.178 -1.55987 0.224894 0
M  V30 3594 C 360.125 -2.20436 -0.68385 0
M  V30 3595 C 361.095 -1.16102 -1.18783 0
M  V30 3596 O 362.28 -1.4447 -1.24632 0
M  V30 3597 C 359.42 -2.89076 -1.88491 0
M  V30 3598 C 358.533 -4.08012 -1.41951 0
M  V30 3599 C 357.668 -4.64426 -2.5784 0
M  V30 3600 C 356.707 -5.75656 -2.08053 0
M  V30 3601 N 355.844 -6.26347 -3.17227 0
M  V30 3602 H 360.684 -2.97727 -0.12754 0
M  V30 3603 H 358.221 -1.47011 -0.0511978 0
M  V30 3604 H 360.179 -3.27059 -2.59014 0
M  V30 3605 H 358.809 -2.14298 -2.41405 0
M  V30 3606 H 357.861 -3.75492 -0.609095 0
M  V30 3607 H 359.173 -4.88375 -1.01447 0
M  V30 3608 H 358.327 -5.04869 -3.3644 0
M  V30 3609 H 357.066 -3.83233 -3.01635 0
M  V30 3610 H 356.071 -5.34712 -1.27916 0
M  V30 3611 H 357.296 -6.58686 -1.65255 0
M  V30 3612 H 355.242 -5.48067 -3.60497 0
M  V30 3613 H 355.159 -7.01843 -2.80986 0
M  V30 3614 H 356.427 -6.71447 -3.95953 0
M  V30 3615 N 360.656 0.0484629 -1.57525 0
M  V30 3616 C 361.886 0.754326 -1.92337 0
M  V30 3617 C 362.294 1.70443 -0.82132 0
M  V30 3618 O 361.637 1.82466 0.21254 0
M  V30 3619 C 361.699 1.58231 -3.22805 0
M  V30 3620 C 361.363 0.799074 -4.4996 0
M  V30 3621 C 362.36 0.1079 -5.19788 0
M  V30 3622 C 360.045 0.759345 -4.96527 0
M  V30 3623 C 362.039 -0.612516 -6.3445 0
M  V30 3624 C 359.726 0.0351713 -6.1109 0
M  V30 3625 C 360.724 -0.649537 -6.79904 0
M  V30 3626 O 360.412 -1.36199 -7.92278 0
M  V30 3627 H 360.144 0.218257 -0.639797 0
M  V30 3628 H 362.698 0.0159295 -2.05394 0
M  V30 3629 H 360.928 2.36406 -3.06021 0
M  V30 3630 H 362.617 2.16898 -3.43089 0
M  V30 3631 H 363.383 0.129748 -4.84826 0
M  V30 3632 H 359.262 1.28177 -4.42822 0
M  V30 3633 H 362.806 -1.14751 -6.88097 0
M  V30 3634 H 358.703 0.0113314 -6.45499 0
M  V30 3635 H 359.471 -1.27366 -8.0853 0
M  V30 3636 N 362.134 1.5431 0.320358 0
M  V30 3637 C 363.411 1.63322 1.07635 0
M  V30 3638 C 363.791 0.46912 2.05821 0
M  V30 3639 O 363.139 -0.536274 2.22118 0
M  V30 3640 C 363.349 3.00465 1.77544 0
M  V30 3641 C 364.697 3.56621 2.30449 0
M  V30 3642 O 365.721 3.02791 1.87606 0
M  V30 3643 O 364.58 4.5083 3.08892 0
M  V30 3644 H 361.674 0.661502 0.496331 0
M  V30 3645 H 364.22 1.66656 0.319992 0
M  V30 3646 H 362.992 3.76629 1.06143 0
M  V30 3647 H 362.615 3.00824 2.59982 0
M  V30 3648 N 363.613 -0.582584 1.46437 0
M  V30 3649 C 364.576 -1.67366 1.56592 0
M  V30 3650 C 365.576 -1.54575 0.443072 0
M  V30 3651 O 366.766 -1.59191 0.707381 0
M  V30 3652 C 363.898 -3.06791 1.48634 0
M  V30 3653 H 365.091 -1.5972 2.5383 0
M  V30 3654 H 362.644 -0.800432 1.34249 0
M  V30 3655 H 363.379 -3.19993 0.526763 0
M  V30 3656 H 363.164 -3.17484 2.30101 0
M  V30 3657 H 364.654 -3.86218 1.58826 0
M  V30 3658 N 365.091 -1.34144 -0.827227 0
M  V30 3659 C 366.039 -1.25364 -1.95925 0
M  V30 3660 C 367.033 -0.152608 -1.68711 0
M  V30 3661 O 368.239 -0.317311 -1.77181 0
M  V30 3662 H 364.614 -0.389342 -0.643364 0
M  V30 3663 H 366.585 -2.21045 -2.00454 0
M  V30 3664 C 365.334 -1.02158 -3.32354 0
M  V30 3665 H 364.657 -1.86111 -3.5384 0
M  V30 3666 H 366.097 -1.00048 -4.12027 0
M  V30 3667 C 364.556 0.275244 -3.35774 0
M  V30 3668 O 365.086 1.27806 -3.80826 0
M  V30 3669 N 363.292 0.306853 -2.88975 0
M  V30 3670 H 362.839 -0.509777 -2.52506 0
M  V30 3671 H 362.797 1.17432 -2.91646 0
M  V30 3672 N 366.569 1.04691 -1.17803 0
M  V30 3673 C 367.517 2.14665 -0.895635 0
M  V30 3674 C 368.511 1.68806 0.141679 0
M  V30 3675 O 369.717 1.79999 -0.00587914 0
M  V30 3676 H 366.092 0.701038 -0.272121 0
M  V30 3677 H 368.063 2.35685 -1.83017 0
M  V30 3678 C 366.812 3.45019 -0.430962 0
M  V30 3679 H 366.135 3.8071 -1.22064 0
M  V30 3680 H 367.575 4.23125 -0.272301 0
M  V30 3681 C 366.034 3.25943 0.852207 0
M  V30 3682 O 366.564 3.5296 1.91786 0
M  V30 3683 N 364.77 2.79304 0.802346 0
M  V30 3684 H 364.317 2.57518 -0.0650788 0
M  V30 3685 H 364.275 2.66921 1.66134 0
M  V30 3686 N 368.047 0.979072 1.23499 0
M  V30 3687 C 369.296 0.642751 1.91185 0
M  V30 3688 C 369.609 -0.827253 1.77245 0
M  V30 3689 O 370.815 -1.27458 2.39722 0
M  V30 3690 C 369.271 1.09901 3.42709 0
M  V30 3691 C 368.879 2.59327 3.65313 0
M  V30 3692 C 370.623 0.836371 4.16179 0
M  V30 3693 C 368.53 2.98627 5.10467 0
M  V30 3694 H 367.46 0.236698 0.715884 0
M  V30 3695 H 370.111 1.1868 1.39955 0
M  V30 3696 H 368.493 0.48319 3.93041 0
M  V30 3697 H 369.667 3.26136 3.25533 0
M  V30 3698 H 367.982 2.83323 3.05151 0
M  V30 3699 H 370.579 1.10586 5.23139 0
M  V30 3700 H 370.922 -0.227509 4.15678 0
M  V30 3701 H 371.455 1.41371 3.71832 0
M  V30 3702 H 368.194 4.04133 5.16098 0
M  V30 3703 H 367.714 2.3651 5.51201 0
M  V30 3704 H 369.393 2.89159 5.78788 0
M  V30 3705 N 369.525 -1.3858 0.750561 0
M  V30 3706 C 370.755 -2.04175 0.31564 0
M  V30 3707 C 371.163 -1.56726 -1.05989 0
M  V30 3708 O 370.506 -0.734225 -1.68389 0
M  V30 3709 C 370.568 -3.58585 0.256389 0
M  V30 3710 C 370.232 -4.29077 1.57296 0
M  V30 3711 C 371.229 -4.54656 2.52159 0
M  V30 3712 C 368.914 -4.67324 1.84156 0
M  V30 3713 C 370.908 -5.17512 3.72103 0
M  V30 3714 C 368.595 -5.29905 3.04374 0
M  V30 3715 C 369.593 -5.54933 3.98168 0
M  V30 3716 O 369.281 -6.16212 5.16273 0
M  V30 3717 H 369.013 -0.662742 0.133226 0
M  V30 3718 H 371.567 -1.78313 1.01948 0
M  V30 3719 H 369.797 -3.83406 -0.503677 0
M  V30 3720 H 371.486 -4.05628 -0.148612 0
M  V30 3721 H 372.252 -4.25539 2.32683 0
M  V30 3722 H 368.131 -4.47191 1.11988 0
M  V30 3723 H 371.675 -5.36963 4.45327 0
M  V30 3724 H 367.572 -5.58444 3.23745 0
M  V30 3725 H 368.34 -6.34701 5.16815 0
M  V30 3726 N 371.003 -0.499398 -1.49478 0
M  V30 3727 C 371.933 0.269244 -2.31943 0
M  V30 3728 C 372.914 0.964054 -1.40143 0
M  V30 3729 O 374.099 0.955767 -1.69052 0
M  V30 3730 C 371.229 1.33504 -3.20615 0
M  V30 3731 C 370.183 0.760202 -4.21195 0
M  V30 3732 C 369.509 1.9264 -4.98792 0
M  V30 3733 C 370.809 -0.247661 -5.21712 0
M  V30 3734 H 372.503 -0.419082 -2.96452 0
M  V30 3735 H 370.049 -0.202988 -1.42562 0
M  V30 3736 H 372.002 1.88048 -3.77115 0
M  V30 3737 H 370.726 2.05253 -2.54045 0
M  V30 3738 H 369.385 0.23653 -3.65836 0
M  V30 3739 H 369.033 2.63154 -4.28671 0
M  V30 3740 H 368.733 1.54785 -5.66847 0
M  V30 3741 H 370.257 2.4762 -5.58137 0
M  V30 3742 H 371.671 0.209579 -5.72917 0
M  V30 3743 H 370.068 -0.541962 -5.97648 0
M  V30 3744 H 371.138 -1.16409 -4.7072 0
M  V30 3745 N 372.481 1.55866 -0.233164 0
M  V30 3746 C 373.444 2.1953 0.658715 0
M  V30 3747 C 374.444 1.16053 1.11303 0
M  V30 3748 O 375.634 1.41218 1.01996 0
M  V30 3749 C 372.766 2.82791 1.90373 0
M  V30 3750 H 373.959 2.99721 0.10347 0
M  V30 3751 H 371.512 1.56291 0.0164245 0
M  V30 3752 H 372.247 2.06501 2.50056 0
M  V30 3753 H 372.032 3.58578 1.58632 0
M  V30 3754 H 373.522 3.31556 2.53891 0
M  V30 3755 N 373.959 -0.0401083 1.57549 0
M  V30 3756 C 374.922 -1.02871 2.04817 0
M  V30 3757 C 375.922 -1.29708 0.950388 0
M  V30 3758 O 377.112 -1.24897 1.21435 0
M  V30 3759 C 374.244 -2.36443 2.45576 0
M  V30 3760 H 375.437 -0.620631 2.93408 0
M  V30 3761 H 372.99 -0.286667 1.53649 0
M  V30 3762 H 373.725 -2.82021 1.60108 0
M  V30 3763 H 373.51 -2.18296 3.25713 0
M  V30 3764 H 375 -3.07441 2.82612 0
M  V30 3765 N 375.437 -1.54477 -0.31217 0
M  V30 3766 C 376.369 -1.81011 -1.40598 0
M  V30 3767 C 377.382 -0.692546 -1.47335 0
M  V30 3768 O 378.571 -0.969847 -1.49854 0
M  V30 3769 C 375.671 -1.92307 -2.79054 0
M  V30 3770 C 374.844 -3.22594 -2.95384 0
M  V30 3771 C 373.903 -3.24448 -4.1427 0
M  V30 3772 O 372.929 -3.98035 -4.06887 0
M  V30 3773 N 374.131 -2.49042 -5.24365 0
M  V30 3774 H 376.896 -2.75408 -1.18196 0
M  V30 3775 H 374.457 -1.53914 -0.502202 0
M  V30 3776 H 376.449 -1.90962 -3.56813 0
M  V30 3777 H 375.019 -1.04955 -2.94454 0
M  V30 3778 H 374.239 -3.36806 -2.04831 0
M  V30 3779 H 375.527 -4.08593 -3.03198 0
M  V30 3780 H 374.925 -1.88867 -5.33241 0
M  V30 3781 H 373.482 -2.53463 -6.005 0
M  V30 3782 N 376.915 0.57481 -1.46744 0
M  V30 3783 C 378.145 1.35659 -1.55821 0
M  V30 3784 C 378.553 1.88129 -0.201036 0
M  V30 3785 O 377.896 1.64723 0.813134 0
M  V30 3786 C 377.958 2.57473 -2.50894 0
M  V30 3787 C 377.622 2.26415 -3.9697 0
M  V30 3788 C 378.619 1.84771 -4.85958 0
M  V30 3789 C 376.304 2.38316 -4.42166 0
M  V30 3790 C 378.298 1.55434 -6.18158 0
M  V30 3791 C 375.985 2.08591 -5.74398 0
M  V30 3792 C 376.983 1.67216 -6.62214 0
M  V30 3793 O 376.671 1.37859 -7.91991 0
M  V30 3794 H 376.403 0.420496 -0.529301 0
M  V30 3795 H 378.957 0.704967 -1.92923 0
M  V30 3796 H 377.187 3.25468 -2.08824 0
M  V30 3797 H 378.876 3.19546 -2.50291 0
M  V30 3798 H 379.642 1.75085 -4.52295 0
M  V30 3799 H 375.521 2.69483 -3.74032 0
M  V30 3800 H 379.065 1.23065 -6.86659 0
M  V30 3801 H 374.962 2.17905 -6.07608 0
M  V30 3802 H 375.73 1.51638 -8.04331 0
M  V30 3803 N 378.394 1.34581 0.820102 0
M  V30 3804 C 379.622 1.3018 1.60813 0
M  V30 3805 C 380.037 -0.123551 1.88395 0
M  V30 3806 O 379.394 -1.07148 1.47735 0
M  V30 3807 C 379.445 2.09312 2.94739 0
M  V30 3808 O 379.166 3.46288 2.68358 0
M  V30 3809 C 380.667 2.1234 3.89136 0
M  V30 3810 H 377.887 0.447726 0.499782 0
M  V30 3811 H 380.431 1.77237 1.02017 0
M  V30 3812 H 378.586 1.65889 3.50085 0
M  V30 3813 H 379 3.87227 3.53774 0
M  V30 3814 H 380.474 2.72126 4.80262 0
M  V30 3815 H 380.951 1.11854 4.24718 0
M  V30 3816 H 381.557 2.55864 3.39726 0
M  V30 3817 N 379.872 -1.04064 1.18357 0
M  V30 3818 C 380.804 -2.12114 0.868358 0
M  V30 3819 C 381.817 -1.62247 -0.134045 0
M  V30 3820 O 383.006 -1.78253 0.0937933 0
M  V30 3821 C 380.106 -3.37773 0.276132 0
M  V30 3822 C 379.279 -4.16874 1.3242 0
M  V30 3823 C 378.338 -5.20861 0.747662 0
M  V30 3824 O 377.364 -5.51141 1.42239 0
M  V30 3825 N 378.566 -5.78715 -0.454823 0
M  V30 3826 H 381.331 -2.39748 1.79836 0
M  V30 3827 H 378.892 -1.20258 1.08396 0
M  V30 3828 H 380.884 -4.04513 -0.123133 0
M  V30 3829 H 379.454 -3.07581 -0.557895 0
M  V30 3830 H 378.674 -3.45456 1.89878 0
M  V30 3831 H 379.962 -4.66516 2.03078 0
M  V30 3832 H 379.36 -5.56415 -1.02073 0
M  V30 3833 H 377.917 -6.46921 -0.79601 0
M  V30 3834 N 381.35 -0.985608 -1.22978 0
M  V30 3835 C 382.578 -0.675582 -1.95559 0
M  V30 3836 C 382.993 0.758413 -1.72897 0
M  V30 3837 O 382.35 1.51094 -1.02357 0
M  V30 3838 C 382.401 -0.96293 -3.48439 0
M  V30 3839 O 382.122 -2.34057 -3.70336 0
M  V30 3840 C 383.623 -0.669585 -4.38214 0
M  V30 3841 H 380.843 -0.250523 -0.622478 0
M  V30 3842 H 383.387 -1.3184 -1.56328 0
M  V30 3843 H 381.542 -0.366033 -3.85667 0
M  V30 3844 H 381.956 -2.43424 -4.64591 0
M  V30 3845 H 383.43 -0.920967 -5.44263 0
M  V30 3846 H 383.907 0.396383 -4.37408 0
M  V30 3847 H 384.513 -1.2472 -4.06602 0
M  V30 3848 N 382.828 1.3818 -0.7579 0
M  V30 3849 C 384.058 2.04004 -0.326463 0
M  V30 3850 C 384.466 1.57286 1.05156 0
M  V30 3851 O 383.809 0.743144 1.67997 0
M  V30 3852 C 383.871 3.58444 -0.275402 0
M  V30 3853 C 383.535 4.28237 -1.59569 0
M  V30 3854 C 384.532 4.53312 -2.54566 0
M  V30 3855 C 382.217 4.66341 -1.86631 0
M  V30 3856 C 384.211 5.15531 -3.74842 0
M  V30 3857 C 381.898 5.28283 -3.0718 0
M  V30 3858 C 382.896 5.52814 -4.01106 0
M  V30 3859 O 382.584 6.13465 -5.19534 0
M  V30 3860 H 382.316 0.662026 -0.136739 0
M  V30 3861 H 384.87 1.7777 -1.02893 0
M  V30 3862 H 383.1 3.83667 0.483337 0
M  V30 3863 H 384.789 4.05701 0.127099 0
M  V30 3864 H 385.555 4.24299 -2.34936 0
M  V30 3865 H 381.434 4.46591 -1.14358 0
M  V30 3866 H 384.978 5.34594 -4.48168 0
M  V30 3867 H 380.875 5.56719 -3.26702 0
M  V30 3868 H 381.643 6.31951 -5.20173 0
M  V30 3869 N 384.306 0.507319 1.49211 0
M  V30 3870 C 385.254 -0.281364 2.30892 0
M  V30 3871 C 386.248 -0.95687 1.39787 0
M  V30 3872 O 387.454 -0.883838 1.56807 0
M  V30 3873 H 383.829 -0.109597 0.743971 0
M  V30 3874 H 385.8 0.42744 2.95323 0
M  V30 3875 C 384.549 -1.32918 3.21291 0
M  V30 3876 H 383.872 -0.818799 3.91326 0
M  V30 3877 H 385.312 -1.85288 3.81372 0
M  V30 3878 C 383.771 -2.35074 2.41333 0
M  V30 3879 O 384.301 -3.4108 2.12197 0
M  V30 3880 N 382.507 -2.07705 2.03241 0
M  V30 3881 H 382.054 -1.2152 2.27136 0
M  V30 3882 H 382.012 -2.76283 1.50051 0
M  V30 3883 N 385.784 -1.5574 0.241426 0
M  V30 3884 C 386.747 -2.19877 -0.647063 0
M  V30 3885 C 387.747 -1.16642 -1.10686 0
M  V30 3886 O 388.937 -1.41757 -1.01245 0
M  V30 3887 C 386.069 -2.83797 -1.88871 0
M  V30 3888 H 387.262 -2.99772 -0.087574 0
M  V30 3889 H 384.815 -1.56298 -0.00813574 0
M  V30 3890 H 385.55 -2.07824 -2.48957 0
M  V30 3891 H 385.335 -3.59414 -1.56728 0
M  V30 3892 H 386.825 -3.32898 -2.52129 0
M  V30 3893 N 387.262 0.0317525 -1.57568 0
M  V30 3894 C 388.49 0.734949 -1.93407 0
M  V30 3895 C 388.905 1.69036 -0.84096 0
M  V30 3896 O 388.262 1.81582 0.182836 0
M  V30 3897 C 388.313 1.49432 -3.29169 0
M  V30 3898 O 388.034 0.577261 -4.3428 0
M  V30 3899 C 389.535 2.29492 -3.79273 0
M  V30 3900 H 386.755 0.206706 -0.638368 0
M  V30 3901 H 389.299 -0.00992046 -2.04498 0
M  V30 3902 H 387.454 2.1911 -3.19483 0
M  V30 3903 H 387.868 1.10952 -5.1263 0
M  V30 3904 H 389.342 2.78172 -4.76785 0
M  V30 3905 H 389.819 3.10794 -3.10328 0
M  V30 3906 H 390.425 1.64894 -3.92033 0
M  V30 3907 N 388.74 1.54641 0.303973 0
M  V30 3908 C 390.156 1.45788 0.649463 0
M  V30 3909 C 390.356 0.64666 1.90842 0
M  V30 3910 O 389.412 0.153183 2.52035 0
M  V30 3911 C 390.725 2.89718 0.805227 0
M  V30 3912 C 392.273 2.99742 0.901305 0
M  V30 3913 C 392.748 4.44863 1.08909 0
M  V30 3914 N 394.239 4.48559 1.15536 0
M  V30 3915 C 394.974 5.58026 1.3189 0
M  V30 3916 N 394.47 6.77422 1.45161 0
M  V30 3917 N 396.263 5.45708 1.34755 0
M  V30 3918 H 388.414 2.05854 -0.523237 0
M  V30 3919 H 390.677 0.932186 -0.172431 0
M  V30 3920 H 390.383 3.51666 -0.0489108 0
M  V30 3921 H 390.257 3.36964 1.69513 0
M  V30 3922 H 392.644 2.3791 1.74593 0
M  V30 3923 H 392.725 2.55797 -0.0125531 0
M  V30 3924 H 392.369 5.07288 0.249241 0
M  V30 3925 H 392.299 4.86436 2.01713 0
M  V30 3926 H 394.79 3.6254 1.06646 0
M  V30 3927 H 395.103 7.56604 1.57387 0
M  V30 3928 H 393.448 6.80292 1.42223 0
M  V30 3929 H 396.639 4.51378 1.23996 0
M  V30 3930 H 396.812 6.3107 1.47157 0
M  V30 3931 N 390.218 -0.567019 1.47046 0
M  V30 3932 C 391.464 -1.32658 1.53394 0
M  V30 3933 C 391.797 -1.93254 0.19148 0
M  V30 3934 O 391.072 -1.77338 -0.798844 0
M  V30 3935 C 391.355 -2.44412 2.64452 0
M  V30 3936 C 391.208 -1.88749 4.08282 0
M  V30 3937 C 392.527 -3.46387 2.71485 0
M  V30 3938 H 389.646 -0.48098 0.558415 0
M  V30 3939 H 392.288 -0.635481 1.79058 0
M  V30 3940 H 390.438 -3.03363 2.427 0
M  V30 3941 H 392.11 -1.34134 4.41368 0
M  V30 3942 H 390.353 -1.19481 4.17021 0
M  V30 3943 H 391.024 -2.69491 4.81745 0
M  V30 3944 H 393.5 -2.9734 2.91081 0
M  V30 3945 H 392.376 -4.2202 3.50985 0
M  V30 3946 H 392.637 -4.04616 1.78153 0
M  V30 3947 N 391.696 -1.35014 -0.812953 0
M  V30 3948 C 392.944 -1.27678 -1.56661 0
M  V30 3949 C 393.265 0.150359 -1.94419 0
M  V30 3950 O 392.535 1.08532 -1.63088 0
M  V30 3951 H 391.115 -0.469602 -0.580933 0
M  V30 3952 H 393.777 -1.69043 -0.970076 0
M  V30 3953 H 392.873 -1.88833 -2.48492 0
M  V30 3954 N 393.175 1.03435 -1.18907 0
M  V30 3955 C 394.4 1.80919 -1.01406 0
M  V30 3956 C 394.825 1.83055 0.432721 0
M  V30 3957 O 394.183 1.25252 1.31079 0
M  V30 3958 C 394.231 3.24091 -1.58105 0
M  V30 3959 O 393.335 4.04434 -0.806669 0
M  V30 3960 H 392.676 0.558709 -0.358803 0
M  V30 3961 H 395.206 1.30223 -1.57807 0
M  V30 3962 H 395.216 3.74853 -1.61087 0
M  V30 3963 H 393.891 3.21851 -2.6341 0
M  V30 3964 H 392.468 3.63091 -0.849666 0
M  V30 3965 N 394.653 0.992116 1.22453 0
M  V30 3966 C 395.583 0.561677 2.26644 0
M  V30 3967 C 396.564 -0.411055 1.65059 0
M  V30 3968 O 397.749 -0.301861 1.9184 0
M  V30 3969 C 394.879 -0.125247 3.47074 0
M  V30 3970 C 393.833 0.765948 4.21091 0
M  V30 3971 C 393.159 -0.0538484 5.34673 0
M  V30 3972 C 394.459 2.06242 4.79856 0
M  V30 3973 H 396.153 1.43259 2.62902 0
M  V30 3974 H 393.699 0.690283 1.26377 0
M  V30 3975 H 395.652 -0.437764 4.1912 0
M  V30 3976 H 394.376 -1.03069 3.0991 0
M  V30 3977 H 393.035 1.0621 3.50878 0
M  V30 3978 H 392.683 -0.960188 4.9375 0
M  V30 3979 H 392.383 0.539415 5.85119 0
M  V30 3980 H 393.907 -0.360477 6.09535 0
M  V30 3981 H 395.321 1.8139 5.43848 0
M  V30 3982 H 393.718 2.60444 5.40638 0
M  V30 3983 H 394.788 2.74167 3.99951 0
M  V30 3984 N 396.131 -1.37776 0.765217 0
M  V30 3985 C 397.379 -1.99454 0.325943 0
M  V30 3986 C 397.7 -1.61049 -1.09947 0
M  V30 3987 O 396.97 -0.872821 -1.75381 0
M  V30 3988 H 395.55 -0.737697 0.117525 0
M  V30 3989 H 398.212 -1.68359 0.981895 0
M  V30 3990 H 397.308 -3.09547 0.398353 0
M  V30 3991 N 397.609 -0.515225 -1.4894 0
M  V30 3992 C 398.855 0.016187 -2.03394 0
M  V30 3993 C 399.21 1.33377 -1.38666 0
M  V30 3994 O 398.503 1.84461 -0.518141 0
M  V30 3995 C 398.697 0.210595 -3.56779 0
M  V30 3996 C 398.526 -1.08659 -4.36375 0
M  V30 3997 C 397.296 -1.64237 -4.77864 0
M  V30 3998 C 399.494 -1.9935 -4.74093 0
M  V30 3999 N 397.476 -2.88398 -5.41941 0
M  V30 4000 C 398.847 -3.08088 -5.38035 0
M  V30 4001 C 400.902 -1.99856 -4.56029 0
M  V30 4002 C 399.605 -4.17377 -5.85823 0
M  V30 4003 C 401.631 -3.08129 -5.04787 0
M  V30 4004 C 400.993 -4.15586 -5.68742 0
M  V30 4005 H 397.092 -0.0352107 -0.781207 0
M  V30 4006 H 399.676 -0.693237 -1.8194 0
M  V30 4007 H 397.847 0.889088 -3.78087 0
M  V30 4008 H 399.579 0.740287 -3.97872 0
M  V30 4009 H 396.334 -1.18566 -4.58518 0
M  V30 4010 H 396.758 -3.51572 -5.78555 0
M  V30 4011 H 401.4 -1.18079 -4.05977 0
M  V30 4012 H 399.118 -4.99943 -6.34888 0
M  V30 4013 H 402.704 -3.09557 -4.92611 0
M  V30 4014 H 401.584 -4.97987 -6.05787 0
M  V30 4015 N 399.087 1.5561 -0.249682 0
M  V30 4016 C 400.05 2.20217 0.635394 0
M  V30 4017 C 401.05 1.17227 1.10066 0
M  V30 4018 O 402.24 1.42292 1.00492 0
M  V30 4019 C 399.372 2.84794 1.87363 0
M  V30 4020 H 400.565 2.99814 0.0716752 0
M  V30 4021 H 398.118 1.563 -0.000153234 0
M  V30 4022 H 398.853 2.09142 2.47851 0
M  V30 4023 H 398.638 3.60241 1.5482 0
M  V30 4024 H 400.128 3.3423 2.5036 0
M  V30 4025 N 400.565 -0.0233959 1.57583 0
M  V30 4026 C 401.513 -1.04063 2.08023 0
M  V30 4027 C 402.507 -1.37084 0.995204 0
M  V30 4028 O 403.713 -1.35923 1.18004 0
M  V30 4029 H 400.088 -0.353144 0.663922 0
M  V30 4030 H 402.059 -0.589453 2.9252 0
M  V30 4031 C 400.808 -2.33123 2.57971 0
M  V30 4032 H 400.131 -2.08577 3.4108 0
M  V30 4033 H 401.571 -3.02632 2.96967 0
M  V30 4034 C 400.03 -3.02483 1.48342 0
M  V30 4035 O 400.56 -3.92541 0.852898 0
M  V30 4036 N 398.766 -2.63909 1.21658 0
M  V30 4037 H 398.313 -1.90758 1.73116 0
M  V30 4038 H 398.271 -3.10633 0.485218 0
M  V30 4039 N 402.043 -1.548 -0.295768 0
M  V30 4040 C 402.99 -1.86113 -1.36494 0
M  V30 4041 C 403.96 -0.7105 -1.50137 0
M  V30 4042 O 405.145 -0.959626 -1.64912 0
M  V30 4043 C 402.285 -2.11861 -2.72413 0
M  V30 4044 C 401.398 -3.39471 -2.67177 0
M  V30 4045 C 400.533 -3.55035 -3.95125 0
M  V30 4046 C 399.572 -4.76418 -3.84308 0
M  V30 4047 N 398.709 -4.8876 -5.04042 0
M  V30 4048 H 403.549 -2.77314 -1.09091 0
M  V30 4049 H 401.086 -1.37315 -0.52753 0
M  V30 4050 H 403.044 -2.24786 -3.51464 0
M  V30 4051 H 401.674 -1.2392 -2.98066 0
M  V30 4052 H 400.726 -3.35139 -1.79962 0
M  V30 4053 H 402.038 -4.28646 -2.55076 0
M  V30 4054 H 401.192 -3.67653 -4.82614 0
M  V30 4055 H 399.931 -2.64002 -4.10066 0
M  V30 4056 H 398.936 -4.63827 -2.95202 0
M  V30 4057 H 400.161 -5.68863 -3.70906 0
M  V30 4058 H 398.107 -4.00652 -5.19436 0
M  V30 4059 H 398.024 -5.71945 -4.94384 0
M  V30 4060 H 399.292 -5.0574 -5.93167 0
M  V30 4061 N 403.521 0.559213 -1.47345 0
M  V30 4062 C 404.484 1.64854 -1.59235 0
M  V30 4063 C 405.484 1.53851 -0.467607 0
M  V30 4064 O 406.674 1.58045 -0.732617 0
M  V30 4065 C 403.806 3.04388 -1.53496 0
M  V30 4066 H 404.999 1.55662 -2.56339 0
M  V30 4067 H 402.552 0.778973 -1.35505 0
M  V30 4068 H 403.287 3.19115 -0.577604 0
M  V30 4069 H 403.072 3.13783 -2.35123 0
M  V30 4070 H 404.562 3.83642 -1.6495 0
M  V30 4071 N 404.999 1.35443 0.805782 0
M  V30 4072 C 405.931 1.24285 1.92577 0
M  V30 4073 C 406.944 0.165962 1.61952 0
M  V30 4074 O 408.133 0.419303 1.73505 0
M  V30 4075 C 405.233 0.891272 3.2697 0
M  V30 4076 C 404.406 2.06669 3.85495 0
M  V30 4077 C 403.465 1.69077 4.98297 0
M  V30 4078 O 402.491 2.4096 5.15681 0
M  V30 4079 N 403.693 0.614869 5.77234 0
M  V30 4080 H 406.458 2.20777 2.02676 0
M  V30 4081 H 404.019 1.28623 0.983243 0
M  V30 4082 H 406.011 0.621256 3.99903 0
M  V30 4083 H 404.581 0.016004 3.12596 0
M  V30 4084 H 403.801 2.50046 3.04747 0
M  V30 4085 H 405.089 2.85237 4.21328 0
M  V30 4086 H 404.487 0.017648 5.65697 0
M  V30 4087 H 403.044 0.404636 6.50543 0
M  V30 4088 N 406.477 -1.02803 1.19454 0
M  V30 4089 C 407.425 -2.13213 0.929673 0
M  V30 4090 C 408.419 -1.69011 -0.114806 0
M  V30 4091 O 409.625 -1.79967 0.0345147 0
M  V30 4092 H 406 -0.69662 0.28324 0
M  V30 4093 H 407.971 -2.32744 1.86743 0
M  V30 4094 C 406.72 -3.4429 0.485797 0
M  V30 4095 H 406.043 -3.7872 1.28105 0
M  V30 4096 H 407.483 -4.22638 0.339582 0
M  V30 4097 C 405.942 -3.27258 -0.800244 0
M  V30 4098 O 406.472 -3.55967 -1.86146 0
M  V30 4099 N 404.678 -2.80545 -0.75781 0
M  V30 4100 H 404.225 -2.57382 0.106039 0
M  V30 4101 H 404.183 -2.6953 -1.61867 0
M  V30 4102 N 407.956 -0.998596 -1.21925 0
M  V30 4103 C 409.203 -0.677663 -1.90824 0
M  V30 4104 C 409.531 0.790905 -1.77693 0
M  V30 4105 O 408.786 1.58817 -1.14349 0
M  V30 4106 C 409.085 -1.03648 -3.42041 0
M  V30 4107 C 408.751 -2.49825 -3.75364 0
M  V30 4108 C 407.413 -2.8977 -3.8417 0
M  V30 4109 C 409.765 -3.44545 -3.91073 0
M  V30 4110 C 407.093 -4.23412 -4.06127 0
M  V30 4111 C 409.445 -4.77853 -4.14535 0
M  V30 4112 C 408.109 -5.17531 -4.21566 0
M  V30 4113 H 407.379 -0.247975 -0.698276 0
M  V30 4114 H 410.026 -1.25584 -1.44571 0
M  V30 4115 H 408.331 -0.376457 -3.89987 0
M  V30 4116 H 410.028 -0.766113 -3.93614 0
M  V30 4117 H 406.618 -2.17866 -3.69097 0
M  V30 4118 H 410.802 -3.14853 -3.83642 0
M  V30 4119 H 406.058 -4.53734 -4.09799 0
M  V30 4120 H 410.232 -5.51189 -4.25633 0
M  V30 4121 H 407.859 -6.21102 -4.38333 0
M  V30 4122 N 409.434 1.37368 -0.772513 0
M  V30 4123 C 410.344 2.34053 -0.160081 0
M  V30 4124 C 411.36 1.60216 0.678728 0
M  V30 4125 O 412.536 1.92303 0.59847 0
M  V30 4126 C 409.601 3.3939 0.708182 0
M  V30 4127 C 408.662 4.29048 -0.147172 0
M  V30 4128 C 407.895 5.29354 0.679744 0
M  V30 4129 O 408.118 5.3723 1.91678 0
M  V30 4130 O 407.052 6.01835 0.0885444 0
M  V30 4131 H 410.878 2.88159 -0.959053 0
M  V30 4132 H 408.463 1.39543 -0.533685 0
M  V30 4133 H 410.345 4.03839 1.20384 0
M  V30 4134 H 409.02 2.8761 1.48533 0
M  V30 4135 H 407.927 3.67697 -0.689205 0
M  V30 4136 H 409.26 4.84134 -0.887423 0
M  V30 4137 N 410.912 0.523116 1.48665 0
M  V30 4138 C 411.875 -0.232592 2.28017 0
M  V30 4139 C 412.875 -0.874021 1.34972 0
M  V30 4140 O 414.065 -0.735132 1.57929 0
M  V30 4141 C 411.197 -1.33586 3.13636 0
M  V30 4142 H 412.39 0.464008 2.96289 0
M  V30 4143 H 409.943 0.278816 1.53793 0
M  V30 4144 H 410.678 -2.06593 2.4998 0
M  V30 4145 H 410.463 -0.881125 3.82071 0
M  V30 4146 H 411.953 -1.86759 3.73511 0
M  V30 4147 N 412.39 -1.55475 0.257931 0
M  V30 4148 C 413.636 -1.99502 -0.364266 0
M  V30 4149 C 413.969 -1.146 -1.56782 0
M  V30 4150 O 413.244 -0.211968 -1.93342 0
M  V30 4151 C 413.527 -3.51917 -0.763333 0
M  V30 4152 C 413.38 -4.4758 0.446371 0
M  V30 4153 C 414.699 -4.09742 -1.60623 0
M  V30 4154 H 411.818 -0.725277 -0.130929 0
M  V30 4155 H 414.46 -1.8653 0.361446 0
M  V30 4156 H 412.61 -3.63101 -1.38166 0
M  V30 4157 H 414.282 -4.48362 1.08487 0
M  V30 4158 H 412.525 -4.19947 1.08753 0
M  V30 4159 H 413.196 -5.51862 0.123645 0
M  V30 4160 H 415.672 -4.01727 -1.08418 0
M  V30 4161 H 414.548 -5.16631 -1.85429 0
M  V30 4162 H 414.809 -3.58889 -2.58169 0
M  V30 4163 N 413.868 0.0150385 -1.57593 0
M  V30 4164 C 414.831 0.995996 -2.06428 0
M  V30 4165 C 415.831 1.2818 -0.970903 0
M  V30 4166 O 417.021 1.22949 -1.23406 0
M  V30 4167 C 414.153 2.32506 -2.49307 0
M  V30 4168 H 415.346 0.573873 -2.94358 0
M  V30 4169 H 412.899 0.262186 -1.54085 0
M  V30 4170 H 413.634 2.79438 -1.64575 0
M  V30 4171 H 413.419 2.13087 -3.29145 0
M  V30 4172 H 414.909 3.02906 -2.87468 0
M  V30 4173 N 415.346 1.54954 0.287554 0
M  V30 4174 C 416.278 1.83224 1.37701 0
M  V30 4175 C 417.291 0.715898 1.46215 0
M  V30 4176 O 418.48 0.993565 1.48292 0
M  V30 4177 C 415.58 1.96723 2.75959 0
M  V30 4178 C 414.753 3.27253 2.90215 0
M  V30 4179 C 413.812 3.30998 4.09056 0
M  V30 4180 O 412.838 4.04457 4.00503 0
M  V30 4181 N 414.04 2.57353 5.20336 0
M  V30 4182 H 416.805 2.77254 1.138 0
M  V30 4183 H 414.366 1.54694 0.477652 0
M  V30 4184 H 416.358 1.96615 3.5373 0
M  V30 4185 H 414.928 1.09626 2.92747 0
M  V30 4186 H 414.148 3.40022 1.99447 0
M  V30 4187 H 415.436 4.13365 2.96659 0
M  V30 4188 H 414.834 1.97327 5.30169 0
M  V30 4189 H 413.391 2.62984 5.96391 0
M  V30 4190 N 416.824 -0.551391 1.4764 0
M  V30 4191 C 418.054 -1.33163 1.57959 0
M  V30 4192 C 418.462 -1.87785 0.23094 0
M  V30 4193 O 417.805 -1.65996 -0.786825 0
M  V30 4194 C 417.867 -2.53449 2.54958 0
M  V30 4195 C 417.531 -2.20071 4.00522 0
M  V30 4196 C 418.528 -1.77017 4.88836 0
M  V30 4197 C 416.213 -2.31252 4.45901 0
M  V30 4198 C 418.207 -1.4558 6.20552 0
M  V30 4199 C 415.894 -1.99427 5.77644 0
M  V30 4200 C 416.892 -1.56659 6.64791 0
M  V30 4201 O 416.58 -1.25242 7.94084 0
M  V30 4202 H 416.312 -0.412022 0.535923 0
M  V30 4203 H 418.866 -0.674186 1.9402 0
M  V30 4204 H 417.096 -3.22104 2.13976 0
M  V30 4205 H 418.785 -3.15523 2.55343 0
M  V30 4206 H 419.551 -1.67867 4.55023 0
M  V30 4207 H 415.43 -2.63498 3.78272 0
M  V30 4208 H 418.974 -1.12125 6.8853 0
M  V30 4209 H 414.871 -2.08211 6.10998 0
M  V30 4210 H 415.639 -1.38822 8.06642 0
M  V30 4211 N 418.302 -1.35869 -0.798587 0
M  V30 4212 C 419.234 -1.25305 -1.91915 0
M  V30 4213 C 420.247 -0.174548 -1.61862 0
M  V30 4214 O 421.436 -0.428499 -1.73281 0
M  V30 4215 C 418.536 -0.9086 -3.26493 0
M  V30 4216 C 417.709 -2.08711 -3.84394 0
M  V30 4217 C 416.768 -1.71717 -4.97393 0
M  V30 4218 O 415.794 -2.43692 -5.14396 0
M  V30 4219 N 416.996 -0.645473 -5.769 0
M  V30 4220 H 419.761 -2.21849 -2.01502 0
M  V30 4221 H 417.322 -1.29143 -0.976408 0
M  V30 4222 H 419.314 -0.642455 -3.99568 0
M  V30 4223 H 417.884 -0.0325815 -3.12583 0
M  V30 4224 H 417.104 -2.51659 -3.03416 0
M  V30 4225 H 418.392 -2.87468 -4.19809 0
M  V30 4226 H 417.79 -0.047648 -5.6568 0
M  V30 4227 H 416.347 -0.43913 -6.50319 0
M  V30 4228 N 419.78 1.02168 -1.19998 0
M  V30 4229 C 421.027 1.75685 -1.00702 0
M  V30 4230 C 421.355 1.88947 0.461426 0
M  V30 4231 O 420.61 1.40832 1.35885 0
M  V30 4232 C 420.909 3.18081 -1.62969 0
M  V30 4233 C 420.575 3.24809 -3.12746 0
M  V30 4234 C 419.237 3.26352 -3.53621 0
M  V30 4235 C 421.589 3.23379 -4.08749 0
M  V30 4236 C 418.917 3.2413 -4.89036 0
M  V30 4237 C 421.269 3.22698 -5.44104 0
M  V30 4238 C 419.933 3.22542 -5.84399 0
M  V30 4239 H 419.203 0.642877 -0.368496 0
M  V30 4240 H 421.85 1.19865 -1.49348 0
M  V30 4241 H 420.155 3.77027 -1.06573 0
M  V30 4242 H 421.852 3.73648 -1.45561 0
M  V30 4243 H 418.442 3.2434 -2.80181 0
M  V30 4244 H 422.626 3.21361 -3.78207 0
M  V30 4245 H 417.882 3.22338 -5.19527 0
M  V30 4246 H 422.056 3.20543 -6.18244 0
M  V30 4247 H 419.683 3.20575 -6.89301 0
M  V30 4248 N 421.258 1.00505 1.21394 0
M  V30 4249 C 422.535 0.603277 1.86064 0
M  V30 4250 C 422.915 -0.919095 1.90042 0
M  V30 4251 O 422.263 -1.80607 1.39977 0
M  V30 4252 C 422.473 1.23772 3.26315 0
M  V30 4253 C 423.821 1.34586 4.02705 0
M  V30 4254 O 424.845 1.19304 3.35626 0
M  V30 4255 O 423.704 1.59169 5.22807 0
M  V30 4256 H 420.798 0.206634 0.800769 0
M  V30 4257 H 423.344 1.1017 1.29076 0
M  V30 4258 H 422.116 2.27848 3.18121 0
M  V30 4259 H 421.739 0.725648 3.90922 0
M  V30 4260 N 422.737 -1.36956 0.779787 0
M  V30 4261 C 423.984 -1.99491 0.347766 0
M  V30 4262 C 424.312 -1.61898 -1.07793 0
M  V30 4263 O 423.567 -0.86071 -1.75756 0
M  V30 4264 C 423.866 -3.54585 0.447686 0
M  V30 4265 C 423.532 -4.1197 1.83279 0
M  V30 4266 C 422.194 -4.27356 2.2118 0
M  V30 4267 C 424.546 -4.43354 2.74019 0
M  V30 4268 C 421.874 -4.71432 3.4924 0
M  V30 4269 C 424.226 -4.88858 4.01497 0
M  V30 4270 C 422.89 -5.0245 4.39432 0
M  V30 4271 H 422.16 -0.729991 0.127257 0
M  V30 4272 H 424.807 -1.63599 0.995376 0
M  V30 4273 H 423.112 -3.90773 -0.283447 0
M  V30 4274 H 424.809 -4.00888 0.0945948 0
M  V30 4275 H 421.399 -4.00428 1.52825 0
M  V30 4276 H 425.583 -4.31045 2.45995 0
M  V30 4277 H 420.839 -4.80141 3.78516 0
M  V30 4278 H 425.013 -5.12108 4.71931 0
M  V30 4279 H 422.64 -5.36362 5.38721 0
M  V30 4280 N 424.215 -0.530993 -1.48385 0
M  V30 4281 C 425.463 0.00273189 -2.021 0
M  V30 4282 C 425.784 1.34672 -1.41027 0
M  V30 4283 O 425.054 1.8724 -0.576012 0
M  V30 4284 H 423.634 0.00399774 -0.746989 0
M  V30 4285 H 426.296 -0.695054 -1.82085 0
M  V30 4286 H 425.392 0.11031 -3.11905 0
M  V30 4287 N 425.693 1.55336 -0.266172 0
M  V30 4288 C 426.623 2.25146 0.618981 0
M  V30 4289 C 427.604 1.23845 1.16604 0
M  V30 4290 O 428.789 1.52544 1.20183 0
M  V30 4291 C 425.919 2.96572 1.80728 0
M  V30 4292 C 424.873 4.04726 1.39215 0
M  V30 4293 C 424.199 4.63678 2.66283 0
M  V30 4294 C 425.499 5.19407 0.548942 0
M  V30 4295 H 427.193 2.99377 0.0368116 0
M  V30 4296 H 424.739 1.43991 0.0162651 0
M  V30 4297 H 426.692 3.44116 2.43232 0
M  V30 4298 H 425.416 2.19861 2.41514 0
M  V30 4299 H 424.075 3.57979 0.790351 0
M  V30 4300 H 423.723 3.83646 3.25308 0
M  V30 4301 H 423.423 5.367 2.39222 0
M  V30 4302 H 424.947 5.13967 3.29651 0
M  V30 4303 H 426.361 5.63059 1.07876 0
M  V30 4304 H 424.758 5.98936 0.373593 0
M  V30 4305 H 425.828 4.8295 -0.434394 0
M  V30 4306 N 427.171 -0.0066808 1.57599 0
M  V30 4307 C 428.587 -0.36267 1.55425 0
M  V30 4308 C 428.787 -1.75209 0.995187 0
M  V30 4309 O 427.843 -2.44616 0.626058 0
M  V30 4310 C 429.156 -0.244017 2.99708 0
M  V30 4311 C 430.704 -0.319451 3.11366 0
M  V30 4312 C 431.179 -0.229998 4.57422 0
M  V30 4313 N 432.67 -0.288105 4.62303 0
M  V30 4314 C 433.405 -0.242127 5.72889 0
M  V30 4315 N 432.901 -0.147133 6.92644 0
M  V30 4316 N 434.694 -0.293502 5.61333 0
M  V30 4317 H 426.845 0.902314 1.92281 0
M  V30 4318 H 429.108 0.34525 0.882896 0
M  V30 4319 H 428.814 0.711678 3.44424 0
M  V30 4320 H 428.688 -1.02877 3.629 0
M  V30 4321 H 431.075 -1.26559 2.66584 0
M  V30 4322 H 431.156 0.495055 2.50964 0
M  V30 4323 H 430.8 0.712566 5.02877 0
M  V30 4324 H 430.73 -1.0629 5.15761 0
M  V30 4325 H 433.221 -0.363126 3.76151 0
M  V30 4326 H 433.534 -0.117763 7.7271 0
M  V30 4327 H 431.879 -0.112857 6.94908 0
M  V30 4328 H 435.07 -0.365864 4.66668 0
M  V30 4329 H 435.243 -0.254204 6.47501 0
M  V30 4330 N 428.649 -1.55105 -0.279332 0
M  V30 4331 C 430.06 -1.66186 -0.850832 0
M  V30 4332 C 430.411 -0.584707 -1.87285 0
M  V30 4333 O 429.536 0.274919 -2.14647 0
M  V30 4334 C 430.131 -3.01264 -1.55001 0
M  V30 4335 C 428.69 -3.14394 -2.06963 0
M  V30 4336 C 427.837 -2.61959 -0.909536 0
M  V30 4337 H 430.788 -1.58602 -0.0558235 0
M  V30 4338 H 430.809 -2.93899 -2.41669 0
M  V30 4339 H 430.321 -3.7964 -0.805931 0
M  V30 4340 H 428.422 -2.4078 -2.84352 0
M  V30 4341 H 428.535 -4.20867 -2.28928 0
M  V30 4342 H 426.899 -2.18957 -1.30116 0
M  V30 4343 H 427.682 -3.42833 -0.179062 0
M  V30 4344 N 430.127 0.543554 -1.4793 0
M  V30 4345 C 431.352 1.32995 -1.59145 0
M  V30 4346 C 431.777 1.86472 -0.246956 0
M  V30 4347 O 431.135 1.63696 0.779324 0
M  V30 4348 C 431.183 2.46623 -2.63077 0
M  V30 4349 O 430.287 3.49261 -2.19295 0
M  V30 4350 H 429.628 0.394472 -0.534124 0
M  V30 4351 H 432.158 0.655489 -1.93816 0
M  V30 4352 H 432.168 2.93001 -2.83926 0
M  V30 4353 H 430.843 2.07059 -3.60693 0
M  V30 4354 H 429.42 3.09094 -2.08603 0
M  V30 4355 N 431.605 1.3629 0.791371 0
M  V30 4356 C 432.535 1.33137 1.91825 0
M  V30 4357 C 433.516 0.203168 1.68882 0
M  V30 4358 O 434.701 0.400509 1.90025 0
M  V30 4359 C 431.831 1.11793 3.28816 0
M  V30 4360 C 430.785 2.21417 3.66277 0
M  V30 4361 C 430.111 1.85218 5.01596 0
M  V30 4362 C 431.411 3.63489 3.75064 0
M  V30 4363 H 433.105 2.2743 1.9472 0
M  V30 4364 H 430.651 1.09479 0.935437 0
M  V30 4365 H 432.604 1.08222 4.07266 0
M  V30 4366 H 431.328 0.139501 3.26302 0
M  V30 4367 H 429.987 2.2411 2.90121 0
M  V30 4368 H 429.635 0.859544 4.95602 0
M  V30 4369 H 429.335 2.58611 5.27631 0
M  V30 4370 H 430.859 1.832 5.82469 0
M  V30 4371 H 432.273 3.63034 4.43711 0
M  V30 4372 H 430.67 4.35771 4.12582 0
M  V30 4373 H 431.74 3.98536 2.76219 0
M  V30 4374 N 433.083 -1.0153 1.20538 0
M  V30 4375 C 434.046 -2.0826 0.957098 0
M  V30 4376 C 435.046 -1.60657 -0.0678655 0
M  V30 4377 O 436.236 -1.73385 0.168332 0
M  V30 4378 C 433.368 -3.38033 0.441188 0
M  V30 4379 H 434.561 -2.31719 1.90384 0
M  V30 4380 H 432.114 -1.1835 1.02093 0
M  V30 4381 H 432.849 -3.20249 -0.510961 0
M  V30 4382 H 432.634 -3.73911 1.18038 0
M  V30 4383 H 434.124 -4.16613 0.287009 0
M  V30 4384 N 434.561 -1.01147 -1.20859 0
M  V30 4385 C 435.791 -0.715872 -1.93801 0
M  V30 4386 C 436.199 0.726592 -1.74692 0
M  V30 4387 O 435.542 1.50397 -1.05482 0
M  V30 4388 C 435.604 -0.965269 -3.46299 0
M  V30 4389 C 435.268 -2.39584 -3.89164 0
M  V30 4390 C 436.265 -3.3764 -3.95342 0
M  V30 4391 C 433.95 -2.73522 -4.21297 0
M  V30 4392 C 435.944 -4.67698 -4.33056 0
M  V30 4393 C 433.631 -4.03794 -4.58687 0
M  V30 4394 C 434.629 -5.00693 -4.64538 0
M  V30 4395 O 434.317 -6.28635 -5.01072 0
M  V30 4396 H 434.049 -0.262524 -0.622942 0
M  V30 4397 H 436.603 -1.35413 -1.54443 0
M  V30 4398 H 434.833 -0.269847 -3.85757 0
M  V30 4399 H 436.522 -0.662051 -4.00464 0
M  V30 4400 H 437.288 -3.12757 -3.70686 0
M  V30 4401 H 433.167 -1.9879 -4.15937 0
M  V30 4402 H 436.711 -5.4333 -4.37537 0
M  V30 4403 H 432.608 -4.28459 -4.82797 0
M  V30 4404 H 433.376 -6.32847 -5.19083 0
M  V30 4405 N 436.039 1.36541 -0.78704 0
M  V30 4406 C 436.969 2.32659 -0.197992 0
M  V30 4407 C 437.95 1.56533 0.665697 0
M  V30 4408 O 439.135 1.84698 0.60001 0
M  V30 4409 C 436.265 3.40778 0.669901 0
M  V30 4410 C 435.219 4.27897 -0.0937039 0
M  V30 4411 C 434.545 5.27163 0.894629 0
M  V30 4412 C 435.845 5.06334 -1.28154 0
M  V30 4413 H 437.539 2.82171 -1.00099 0
M  V30 4414 H 435.085 1.35665 -0.482793 0
M  V30 4415 H 437.038 4.07008 1.09191 0
M  V30 4416 H 435.762 2.89827 1.50558 0
M  V30 4417 H 434.421 3.6322 -0.49666 0
M  V30 4418 H 434.069 4.72486 1.72527 0
M  V30 4419 H 433.769 5.86317 0.388149 0
M  V30 4420 H 435.293 5.96266 1.31525 0
M  V30 4421 H 436.707 5.65617 -0.93541 0
M  V30 4422 H 435.104 5.74888 -1.72115 0
M  V30 4423 H 436.174 4.38114 -2.07807 0
M  V30 4424 N 437.518 0.538854 1.48102 0
M  V30 4425 C 438.45 -0.256278 2.27763 0
M  V30 4426 C 439.463 -0.89633 1.35904 0
M  V30 4427 O 440.652 -0.773275 1.60881 0
M  V30 4428 C 437.752 -1.37896 3.09577 0
M  V30 4429 C 436.925 -0.839159 4.29275 0
M  V30 4430 C 435.984 -1.84405 4.9283 0
M  V30 4431 O 435.01 -1.39746 5.51779 0
M  V30 4432 N 436.212 -3.17666 4.85869 0
M  V30 4433 H 438.977 0.426968 2.96643 0
M  V30 4434 H 436.538 0.373747 1.57527 0
M  V30 4435 H 438.53 -2.04955 3.48963 0
M  V30 4436 H 437.1 -1.96572 2.4306 0
M  V30 4437 H 436.32 0.00769287 3.94199 0
M  V30 4438 H 437.608 -0.457548 5.06739 0
M  V30 4439 H 437.006 -3.56609 4.39143 0
M  V30 4440 H 435.563 -3.80334 5.29329 0
M  V30 4441 N 438.996 -1.55193 0.274407 0
M  V30 4442 C 440.221 -2.04446 -0.348824 0
M  V30 4443 C 440.646 -1.15149 -1.48735 0
M  V30 4444 O 440.004 -0.149952 -1.80679 0
M  V30 4445 C 440.052 -3.51431 -0.808009 0
M  V30 4446 O 439.156 -3.65225 -1.91531 0
M  V30 4447 H 438.497 -0.66006 -0.0722276 0
M  V30 4448 H 441.027 -2.00481 0.408498 0
M  V30 4449 H 441.037 -3.92781 -1.10395 0
M  V30 4450 H 439.712 -4.15892 0.0249865 0
M  V30 4451 H 438.289 -3.35778 -1.62196 0
M  V30 4452 N 440.474 -0.00167713 -1.576 0
M  V30 4453 C 441.421 0.989195 -2.08527 0
M  V30 4454 C 442.391 1.34031 -0.981065 0
M  V30 4455 O 443.576 1.43839 -1.2536 0
M  V30 4456 C 440.716 2.27537 -2.59463 0
M  V30 4457 C 439.829 1.98314 -3.83791 0
M  V30 4458 C 438.964 3.21025 -4.23222 0
M  V30 4459 C 438.003 2.87495 -5.40382 0
M  V30 4460 N 437.14 4.02749 -5.75098 0
M  V30 4461 H 441.98 0.547973 -2.92919 0
M  V30 4462 H 439.517 0.258917 -1.44803 0
M  V30 4463 H 441.475 3.02729 -2.87073 0
M  V30 4464 H 440.105 2.69325 -1.77943 0
M  V30 4465 H 439.157 1.13482 -3.63078 0
M  V30 4466 H 440.469 1.69601 -4.69081 0
M  V30 4467 H 439.623 4.04561 -4.52123 0
M  V30 4468 H 438.362 3.52877 -3.36644 0
M  V30 4469 H 437.367 2.02367 -5.11202 0
M  V30 4470 H 438.592 2.56889 -6.28637 0
M  V30 4471 H 436.538 4.34494 -4.91478 0
M  V30 4472 H 436.455 3.77566 -6.54966 0
M  V30 4473 H 437.723 4.87068 -6.08592 0
M  V30 4474 N 441.952 1.55251 0.271103 0
M  V30 4475 C 443.2 1.75599 1.00047 0
M  V30 4476 C 443.521 0.561188 1.8675 0
M  V30 4477 O 442.791 -0.423846 1.9126 0
M  V30 4478 H 441.371 0.647562 0.372387 0
M  V30 4479 H 444.033 1.92656 0.294876 0
M  V30 4480 H 443.129 2.65766 1.6363 0
M  V30 4481 N 443.43 -0.535701 1.48216 0
M  V30 4482 C 444.377 -1.64083 1.62312 0
M  V30 4483 C 445.347 -1.59448 0.465365 0
M  V30 4484 O 446.532 -1.77959 0.688135 0
M  V30 4485 C 443.672 -3.0236 1.66349 0
M  V30 4486 C 442.785 -3.17273 2.93193 0
M  V30 4487 C 441.92 -4.46075 2.88427 0
M  V30 4488 C 440.959 -4.54496 4.1 0
M  V30 4489 N 440.096 -5.7468 4.03345 0
M  V30 4490 H 444.936 -1.51374 2.5669 0
M  V30 4491 H 442.473 -0.737059 1.27302 0
M  V30 4492 H 444.431 -3.82461 1.66672 0
M  V30 4493 H 443.061 -3.13854 0.754672 0
M  V30 4494 H 442.113 -2.30462 3.02641 0
M  V30 4495 H 443.425 -3.19357 3.83162 0
M  V30 4496 H 442.579 -5.3446 2.87119 0
M  V30 4497 H 441.318 -4.46504 1.96177 0
M  V30 4498 H 440.323 -3.64519 4.11589 0
M  V30 4499 H 441.548 -4.5581 5.03402 0
M  V30 4500 H 439.494 -5.76017 3.13912 0
M  V30 4501 H 439.411 -5.78234 4.87013 0
M  V30 4502 H 440.679 -6.65367 4.06087 0
M  V30 4503 N 444.908 -1.36708 -0.784132 0
M  V30 4504 C 445.856 -1.31533 -1.91838 0
M  V30 4505 C 446.85 -0.206205 -1.6814 0
M  V30 4506 O 448.056 -0.373519 -1.76082 0
M  V30 4507 H 444.431 -0.409613 -0.630651 0
M  V30 4508 H 446.402 -2.2731 -1.9332 0
M  V30 4509 C 445.151 -1.12679 -3.28936 0
M  V30 4510 H 444.474 -1.97274 -3.4774 0
M  V30 4511 H 445.914 -1.13106 -4.08636 0
M  V30 4512 C 444.373 0.168281 -3.36479 0
M  V30 4513 O 444.903 1.15625 -3.84699 0
M  V30 4514 N 443.109 0.214762 -2.89805 0
M  V30 4515 H 442.656 -0.589852 -2.50756 0
M  V30 4516 H 442.614 1.08094 -2.95234 0
M  V30 4517 N 446.386 1.0089 -1.21074 0
M  V30 4518 C 447.316 2.1145 -0.990523 0
M  V30 4519 C 448.297 1.69897 0.0831699 0
M  V30 4520 O 449.482 1.94052 -0.0758853 0
M  V30 4521 C 446.612 3.42914 -0.550177 0
M  V30 4522 C 445.566 3.98244 -1.56799 0
M  V30 4523 C 444.892 5.25568 -0.984013 0
M  V30 4524 C 446.192 4.30752 -2.95381 0
M  V30 4525 H 447.886 2.3013 -1.91521 0
M  V30 4526 H 445.432 1.10592 -0.92225 0
M  V30 4527 H 447.385 4.19653 -0.383305 0
M  V30 4528 H 446.109 3.24014 0.41015 0
M  V30 4529 H 444.768 3.23621 -1.72236 0
M  V30 4530 H 444.416 5.02998 -0.0155216 0
M  V30 4531 H 444.116 5.63551 -1.66384 0
M  V30 4532 H 445.64 6.04955 -0.828378 0
M  V30 4533 H 447.054 4.98349 -2.8341 0
M  V30 4534 H 445.451 4.79869 -3.60341 0
M  V30 4535 H 446.521 3.39192 -3.46521 0
M  V30 4536 N 447.864 1.01787 1.20321 0
M  V30 4537 C 449.112 0.706538 1.89347 0
M  V30 4538 C 449.433 -0.766289 1.79313 0
M  V30 4539 O 448.703 -1.55126 1.19635 0
M  V30 4540 H 447.283 0.258348 0.700903 0
M  V30 4541 H 449.945 1.28974 1.46122 0
M  V30 4542 H 449.041 0.991066 2.95946 0
M  V30 4543 N 449.342 -1.36122 0.79427 0
M  V30 4544 C 450.758 -1.5232 0.476525 0
M  V30 4545 C 450.958 -1.74685 -1.00436 0
M  V30 4546 O 450.014 -1.78115 -1.78973 0
M  V30 4547 C 451.327 -2.70607 1.31119 0
M  V30 4548 C 452.875 -2.8448 1.30537 0
M  V30 4549 C 453.35 -4.05778 2.12387 0
M  V30 4550 N 454.841 -4.12933 2.09859 0
M  V30 4551 C 455.576 -5.05876 2.69957 0
M  V30 4552 N 455.072 -6.04232 3.38934 0
M  V30 4553 N 456.865 -4.98528 2.59665 0
M  V30 4554 H 449.016 -1.1986 1.75349 0
M  V30 4555 H 451.279 -0.585418 0.745647 0
M  V30 4556 H 450.985 -2.60619 2.36158 0
M  V30 4557 H 450.859 -3.64888 0.955843 0
M  V30 4558 H 453.246 -2.93927 0.262876 0
M  V30 4559 H 453.327 -1.91093 1.70051 0
M  V30 4560 H 452.971 -3.97092 3.1667 0
M  V30 4561 H 452.901 -4.98323 1.70242 0
M  V30 4562 H 455.392 -3.42515 1.59662 0
M  V30 4563 H 455.705 -6.71724 3.82109 0
M  V30 4564 H 454.05 -6.04443 3.43036 0
M  V30 4565 H 457.241 -4.20641 2.05375 0
M  V30 4566 H 457.414 -5.70773 3.06793 0
M  V30 4567 N 450.82 -0.546701 -1.47814 0
M  V30 4568 C 452.068 -0.0187037 -2.02091 0
M  V30 4569 C 452.389 1.33168 -1.42447 0
M  V30 4570 O 451.659 1.86619 -0.595839 0
M  V30 4571 H 450.239 -0.00392531 -0.74699 0
M  V30 4572 H 452.901 -0.714327 -1.81338 0
M  V30 4573 H 451.997 0.0772219 -3.12004 0
M  V30 4574 N 452.299 1.55045 -0.282633 0
M  V30 4575 C 453.529 2.03872 0.334635 0
M  V30 4576 C 453.937 1.16018 1.49454 0
M  V30 4577 O 453.28 0.174449 1.8287 0
M  V30 4578 C 453.342 3.48791 0.870905 0
M  V30 4579 C 453.006 4.56715 -0.161338 0
M  V30 4580 C 454.003 5.10513 -0.983466 0
M  V30 4581 C 451.688 5.01417 -0.297745 0
M  V30 4582 C 453.682 6.07538 -1.92811 0
M  V30 4583 C 451.369 5.98265 -1.24586 0
M  V30 4584 C 452.367 6.51208 -2.05954 0
M  V30 4585 O 452.055 7.46162 -2.99162 0
M  V30 4586 H 451.787 0.671324 0.0793742 0
M  V30 4587 H 454.341 2.01169 -0.41473 0
M  V30 4588 H 452.571 3.48758 1.67047 0
M  V30 4589 H 454.26 3.80916 1.40207 0
M  V30 4590 H 455.026 4.76785 -0.888856 0
M  V30 4591 H 450.905 4.59849 0.325604 0
M  V30 4592 H 454.449 6.48787 -2.56363 0
M  V30 4593 H 450.346 6.31412 -1.34126 0
M  V30 4594 H 451.114 7.63903 -2.93929 0
M  V30 4595 N 453.777 0.010035 1.57597 0
M  V30 4596 C 455.054 -0.710296 1.82248 0
M  V30 4597 C 455.434 -1.91426 0.889911 0
M  V30 4598 O 454.782 -2.28424 -0.0590292 0
M  V30 4599 C 454.992 -1.10655 3.30993 0
M  V30 4600 C 456.34 -1.50621 3.96987 0
M  V30 4601 O 457.364 -1.20007 3.35375 0
M  V30 4602 O 456.223 -2.07587 5.05539 0
M  V30 4603 H 453.317 -0.34673 0.750804 0
M  V30 4604 H 455.863 0.0362578 1.69661 0
M  V30 4605 H 454.635 -0.248826 3.90508 0
M  V30 4606 H 454.258 -1.91189 3.48615 0
M  V30 4607 N 455.255 -1.55392 -0.262866 0
M  V30 4608 C 456.532 -1.67204 -1.01499 0
M  V30 4609 C 456.912 -0.545186 -2.03939 0
M  V30 4610 O 456.26 0.453467 -2.23955 0
M  V30 4611 C 456.47 -3.06847 -1.6627 0
M  V30 4612 C 457.818 -3.64928 -2.17054 0
M  V30 4613 O 458.842 -3.09545 -1.76239 0
M  V30 4614 O 457.701 -4.61984 -2.91947 0
M  V30 4615 H 454.795 -0.679467 -0.471438 0
M  V30 4616 H 457.341 -1.67729 -0.257918 0
M  V30 4617 H 456.113 -3.80309 -0.920915 0
M  V30 4618 H 455.736 -3.10266 -2.48638 0
M  V30 4619 N 456.733 0.527833 -1.48498 0
M  V30 4620 C 457.643 1.65907 -1.65867 0
M  V30 4621 C 458.659 1.6537 -0.541192 0
M  V30 4622 O 459.835 1.84282 -0.812534 0
M  V30 4623 C 456.9 3.02364 -1.69637 0
M  V30 4624 C 455.961 3.1374 -2.93028 0
M  V30 4625 C 455.194 4.43688 -2.96609 0
M  V30 4626 O 455.417 5.30913 -2.08538 0
M  V30 4627 O 454.351 4.59475 -3.88802 0
M  V30 4628 H 458.177 1.5419 -2.61647 0
M  V30 4629 H 455.762 0.701163 -1.31924 0
M  V30 4630 H 457.644 3.83515 -1.74625 0
M  V30 4631 H 456.319 3.14401 -0.770312 0
M  V30 4632 H 455.226 2.31877 -2.93571 0
M  V30 4633 H 456.559 3.06621 -3.85026 0
M  V30 4634 N 458.211 1.37122 0.776871 0
M  V30 4635 C 459.488 1.22586 1.52421 0
M  V30 4636 C 459.868 -0.182726 2.10308 0
M  V30 4637 O 459.216 -1.18979 1.9508 0
M  V30 4638 C 459.426 2.31782 2.60918 0
M  V30 4639 C 460.774 2.69071 3.2846 0
M  V30 4640 O 461.798 2.3092 2.71209 0
M  V30 4641 O 460.657 3.3478 4.31954 0
M  V30 4642 H 457.751 0.478045 0.674835 0
M  V30 4643 H 460.297 1.48888 0.814275 0
M  V30 4644 H 459.069 3.26131 2.16227 0
M  V30 4645 H 458.692 2.06916 3.39517 0
M  V30 4646 N 459.689 -1.00246 1.21608 0
M  V30 4647 C 460.938 -1.73476 1.02902 0
M  V30 4648 C 461.251 -1.90643 -0.437561 0
M  V30 4649 O 462.457 -2.61105 -0.74407 0
M  V30 4650 C 460.913 -3.12079 1.79261 0
M  V30 4651 C 460.521 -3.02877 3.30106 0
M  V30 4652 C 462.265 -3.89421 1.68972 0
M  V30 4653 C 460.172 -4.36575 3.98944 0
M  V30 4654 H 459.102 -0.650408 0.381425 0
M  V30 4655 H 461.753 -1.11985 1.45367 0
M  V30 4656 H 460.135 -3.74196 1.2959 0
M  V30 4657 H 461.309 -2.49983 3.87098 0
M  V30 4658 H 459.624 -2.39022 3.40965 0
M  V30 4659 H 462.221 -4.88362 2.17731 0
M  V30 4660 H 462.564 -4.1122 0.648397 0
M  V30 4661 H 463.097 -3.33963 2.16133 0
M  V30 4662 H 459.836 -4.19978 5.03288 0
M  V30 4663 H 459.356 -4.8942 3.4674 0
M  V30 4664 H 461.035 -5.05364 4.04 0
M  V30 4665 N 461.167 -1.02423 -1.1978 0
M  V30 4666 C 462.097 -0.62157 -2.25075 0
M  V30 4667 C 463.078 0.367148 -1.6609 0
M  V30 4668 O 464.263 0.250892 -1.92573 0
M  V30 4669 C 461.393 0.0331826 -3.47284 0
M  V30 4670 C 460.347 -0.877323 -4.18912 0
M  V30 4671 C 459.673 -0.0879296 -5.34628 0
M  V30 4672 C 460.973 -2.18892 -4.74219 0
M  V30 4673 H 462.667 -1.50179 -2.59011 0
M  V30 4674 H 460.213 -0.723547 -1.24502 0
M  V30 4675 H 462.166 0.326488 -4.20133 0
M  V30 4676 H 460.89 0.948164 -3.12534 0
M  V30 4677 H 459.549 -1.15475 -3.47938 0
M  V30 4678 H 459.197 0.828941 -4.96123 0
M  V30 4679 H 458.897 -0.694359 -5.83483 0
M  V30 4680 H 460.421 0.198743 -6.10276 0
M  V30 4681 H 461.835 -1.95746 -5.38847 0
M  V30 4682 H 460.232 -2.74686 -5.33542 0
M  V30 4683 H 461.302 -2.84674 -3.92541 0
M  V30 4684 N 462.645 1.35699 -0.801477 0
M  V30 4685 C 463.592 2.29876 -0.206294 0
M  V30 4686 C 464.562 1.52565 0.656752 0
M  V30 4687 O 465.747 1.81024 0.602906 0
M  V30 4688 C 462.887 3.39052 0.643272 0
M  V30 4689 C 462 4.31335 -0.239644 0
M  V30 4690 C 461.135 5.27599 0.61744 0
M  V30 4691 C 460.174 6.11521 -0.26619 0
M  V30 4692 N 459.311 6.99938 0.550571 0
M  V30 4693 H 464.151 2.80187 -1.01484 0
M  V30 4694 H 461.688 1.37902 -0.511997 0
M  V30 4695 H 463.646 4.0101 1.15094 0
M  V30 4696 H 462.276 2.9003 1.41713 0
M  V30 4697 H 461.328 3.70426 -0.865381 0
M  V30 4698 H 462.64 4.90243 -0.919985 0
M  V30 4699 H 461.794 5.94906 1.19045 0
M  V30 4700 H 460.533 4.69176 1.33137 0
M  V30 4701 H 459.538 5.43166 -0.851507 0
M  V30 4702 H 460.763 6.72022 -0.9779 0
M  V30 4703 H 458.709 6.44008 1.24856 0
M  V30 4704 H 458.626 7.55966 -0.071832 0
M  V30 4705 H 459.894 7.71599 1.10702 0
M  V30 4706 N 464.123 0.554532 1.47522 0
M  V30 4707 C 465.353 0.0342074 2.06572 0
M  V30 4708 C 465.761 -1.26375 1.40805 0
M  V30 4709 O 465.104 -1.7683 0.49769 0
M  V30 4710 C 465.166 -0.235096 3.5873 0
M  V30 4711 C 464.83 0.973024 4.46521 0
M  V30 4712 C 465.827 1.8779 4.848 0
M  V30 4713 C 463.512 1.18694 4.88075 0
M  V30 4714 C 465.506 2.98039 5.63428 0
M  V30 4715 C 463.193 2.29254 5.66468 0
M  V30 4716 C 464.191 3.18757 6.04055 0
M  V30 4717 O 463.879 4.27401 6.8087 0
M  V30 4718 H 463.611 0.041587 0.67472 0
M  V30 4719 H 466.165 0.766748 1.90552 0
M  V30 4720 H 464.395 -1.02191 3.72953 0
M  V30 4721 H 466.084 -0.700477 3.9981 0
M  V30 4722 H 466.85 1.72467 4.53299 0
M  V30 4723 H 462.729 0.49947 4.58286 0
M  V30 4724 H 466.273 3.67926 5.92685 0
M  V30 4725 H 462.17 2.4455 5.97382 0
M  V30 4726 H 462.938 4.25415 6.9926 0
M  V30 4727 N 465.601 -1.54893 0.290851 0
M  V30 4728 C 466.847 -2.0023 -0.321867 0
M  V30 4729 C 467.18 -1.179 -1.54316 0
M  V30 4730 O 466.455 -0.25293 -1.92848 0
M  V30 4731 C 466.738 -3.53456 -0.688515 0
M  V30 4732 C 466.591 -4.46532 0.541209 0
M  V30 4733 C 467.91 -4.13057 -1.51895 0
M  V30 4734 H 465.029 -0.727891 -0.115515 0
M  V30 4735 H 467.671 -1.85722 0.400931 0
M  V30 4736 H 465.821 -3.6595 -1.30433 0
M  V30 4737 H 467.493 -4.4596 1.17973 0
M  V30 4738 H 465.736 -4.17545 1.17636 0
M  V30 4739 H 466.407 -5.51475 0.240675 0
M  V30 4740 H 468.883 -4.03937 -0.99872 0
M  V30 4741 H 467.759 -5.20448 -1.74429 0
M  V30 4742 H 468.02 -3.64284 -2.50498 0
M  V30 4743 N 467.08 -0.0183926 -1.57589 0
M  V30 4744 C 468.357 0.700621 -1.82622 0
M  V30 4745 C 468.737 1.90951 -0.90005 0
M  V30 4746 O 468.085 2.28452 0.0469145 0
M  V30 4747 C 468.295 1.08899 -3.31575 0
M  V30 4748 C 469.643 1.48514 -3.9778 0
M  V30 4749 O 470.667 1.18227 -3.36007 0
M  V30 4750 O 469.526 2.04903 -5.06633 0
M  V30 4751 H 466.62 0.342743 -0.752633 0
M  V30 4752 H 469.166 -0.0452548 -1.6964 0
M  V30 4753 H 467.938 0.228113 -3.90635 0
M  V30 4754 H 467.561 1.89338 -3.49624 0
M  V30 4755 N 468.558 1.5553 0.254621 0
M  V30 4756 C 469.804 1.77262 0.985193 0
M  V30 4757 C 470.137 0.582286 1.85265 0
M  V30 4758 O 469.412 -0.419666 1.89919 0
M  V30 4759 C 469.695 3.0881 1.85225 0
M  V30 4760 C 469.548 4.38233 1.0135 0
M  V30 4761 C 470.867 3.3653 2.83612 0
M  V30 4762 H 467.986 0.644906 0.356742 0
M  V30 4763 H 470.628 1.88264 0.256236 0
M  V30 4764 H 468.778 2.99562 2.47376 0
M  V30 4765 H 470.45 4.59463 0.411269 0
M  V30 4766 H 468.693 4.32636 0.317574 0
M  V30 4767 H 469.364 5.26644 1.65379 0
M  V30 4768 H 471.84 3.45691 2.31596 0
M  V30 4769 H 470.716 4.29805 3.41407 0
M  V30 4770 H 470.977 2.57064 3.59681 0
M  V30 4771 N 470.036 -0.519951 1.48776 0
M  V30 4772 C 471.284 -1.2727 1.56993 0
M  V30 4773 C 471.605 -1.9339 0.25004 0
M  V30 4774 O 470.875 -1.81822 -0.729216 0
M  V30 4775 H 469.455 -0.472732 0.578389 0
M  V30 4776 H 472.117 -0.604234 1.85297 0
M  V30 4777 H 471.213 -2.04669 2.3562 0
M  V30 4778 N 471.514 -1.37532 -0.769588 0
M  V30 4779 C 472.477 -1.33292 -1.86456 0
M  V30 4780 C 473.477 -0.236537 -1.59051 0
M  V30 4781 O 474.667 -0.492511 -1.67093 0
M  V30 4782 C 471.799 -1.07118 -3.23633 0
M  V30 4783 H 472.992 -2.30692 -1.91628 0
M  V30 4784 H 470.545 -1.22593 -0.969572 0
M  V30 4785 H 471.28 -0.102578 -3.24138 0
M  V30 4786 H 471.065 -1.86479 -3.44917 0
M  V30 4787 H 472.555 -1.06806 -4.03711 0
M  V30 4788 N 472.992 0.995999 -1.22138 0
M  V30 4789 C 474.22 1.77066 -1.07029 0
M  V30 4790 C 474.635 1.8495 0.379357 0
M  V30 4791 O 473.992 1.3174 1.26297 0
M  V30 4792 C 474.043 3.20533 -1.67155 0
M  V30 4793 O 473.764 3.13082 -3.06449 0
M  V30 4794 C 475.265 4.14461 -1.5728 0
M  V30 4795 H 472.485 0.556179 -0.375374 0
M  V30 4796 H 475.029 1.25238 -1.61666 0
M  V30 4797 H 473.184 3.6944 -1.16589 0
M  V30 4798 H 473.598 4.03283 -3.35355 0
M  V30 4799 H 475.072 5.1289 -2.04078 0
M  V30 4800 H 475.549 4.36005 -0.528795 0
M  V30 4801 H 476.155 3.71449 -2.07136 0
M  V30 4802 N 474.47 1.03057 1.19235 0
M  V30 4803 C 475.7 0.746613 1.92638 0
M  V30 4804 C 476.108 -0.698708 1.75826 0
M  V30 4805 O 475.451 -1.487 1.07861 0
M  V30 4806 C 475.513 1.02024 3.44719 0
M  V30 4807 C 475.177 2.45745 3.85303 0
M  V30 4808 C 476.174 3.43887 3.8992 0
M  V30 4809 C 473.859 2.8019 4.16892 0
M  V30 4810 C 475.853 4.74529 4.2556 0
M  V30 4811 C 473.54 4.1104 4.52205 0
M  V30 4812 C 474.538 5.0802 4.56513 0
M  V30 4813 O 474.226 6.36527 4.91008 0
M  V30 4814 H 473.958 0.272401 0.618687 0
M  V30 4815 H 476.512 1.37853 1.52269 0
M  V30 4816 H 474.742 0.331184 3.85279 0
M  V30 4817 H 476.431 0.725677 3.9936 0
M  V30 4818 H 477.197 3.18614 3.65664 0
M  V30 4819 H 473.076 2.05382 4.12722 0
M  V30 4820 H 476.62 5.50222 4.28838 0
M  V30 4821 H 472.517 4.36086 4.7592 0
M  V30 4822 H 473.285 6.41025 5.08949 0
M  V30 4823 N 475.948 -1.35272 0.808662 0
M  V30 4824 C 477.178 -2.02652 0.401953 0
M  V30 4825 C 477.586 -1.6108 -0.992462 0
M  V30 4826 O 476.929 -0.804984 -1.65123 0
M  V30 4827 C 476.991 -3.57174 0.408246 0
M  V30 4828 C 476.655 -4.22019 1.75353 0
M  V30 4829 C 477.652 -4.43552 2.71215 0
M  V30 4830 C 475.337 -4.59093 2.03811 0
M  V30 4831 C 477.331 -5.01264 3.93717 0
M  V30 4832 C 475.018 -5.16519 3.26576 0
M  V30 4833 C 476.016 -5.37546 4.21347 0
M  V30 4834 O 475.704 -5.93761 5.41944 0
M  V30 4835 H 475.436 -0.656495 0.161216 0
M  V30 4836 H 477.99 -1.73829 1.0942 0
M  V30 4837 H 476.22 -3.85197 -0.340608 0
M  V30 4838 H 477.909 -4.05893 0.0235623 0
M  V30 4839 H 478.675 -4.15288 2.50522 0
M  V30 4840 H 474.554 -4.42039 1.30854 0
M  V30 4841 H 478.098 -5.17592 4.67701 0
M  V30 4842 H 473.995 -5.4421 3.47139 0
M  V30 4843 H 474.763 -6.1221 5.43269 0
M  V30 4844 N 477.426 -0.562348 -1.47226 0
M  V30 4845 C 478.673 -0.0402165 -2.0246 0
M  V30 4846 C 479.001 1.31169 -1.43614 0
M  V30 4847 O 478.256 1.86805 -0.5833 0
M  V30 4848 C 478.555 0.0969817 -3.57268 0
M  V30 4849 C 478.221 -1.1847 -4.35058 0
M  V30 4850 C 476.883 -1.53588 -4.56031 0
M  V30 4851 C 479.235 -2.03378 -4.79882 0
M  V30 4852 C 476.563 -2.73452 -5.19077 0
M  V30 4853 C 478.915 -3.2245 -5.44251 0
M  V30 4854 C 477.579 -3.57876 -5.63455 0
M  V30 4855 H 476.849 -0.0147163 -0.740854 0
M  V30 4856 H 479.496 -0.734895 -1.76838 0
M  V30 4857 H 477.801 0.87466 -3.81912 0
M  V30 4858 H 479.498 0.516408 -3.97661 0
M  V30 4859 H 476.088 -0.90126 -4.19017 0
M  V30 4860 H 480.272 -1.77553 -4.63453 0
M  V30 4861 H 475.528 -3.01062 -5.32139 0
M  V30 4862 H 479.702 -3.88526 -5.77945 0
M  V30 4863 H 477.329 -4.50849 -6.12078 0
M  V30 4864 N 478.904 1.54736 -0.299062 0
M  V30 4865 C 479.852 2.24897 0.593658 0
M  V30 4866 C 480.846 1.25429 1.13859 0
M  V30 4867 O 482.052 1.43286 1.08945 0
M  V30 4868 H 478.427 0.72207 0.210046 0
M  V30 4869 H 480.398 2.98393 -0.0206421 0
M  V30 4870 C 479.147 3.00159 1.75499 0
M  V30 4871 H 478.47 3.76501 1.34489 0
M  V30 4872 H 479.91 3.52535 2.35574 0
M  V30 4873 C 478.369 2.07015 2.65794 0
M  V30 4874 O 478.899 1.63692 3.66835 0
M  V30 4875 N 477.105 1.73012 2.33485 0
M  V30 4876 H 476.652 2.08439 1.51364 0
M  V30 4877 H 476.61 1.10965 2.94167 0
M  V30 4878 N 480.382 0.0267497 1.57577 0
M  V30 4879 C 481.329 -0.955894 2.10075 0
M  V30 4880 C 482.299 -1.32453 1.00226 0
M  V30 4881 O 483.484 -1.41826 1.27632 0
M  V30 4882 C 480.624 -2.2338 2.6305 0
M  V30 4883 C 479.737 -1.92183 3.86898 0
M  V30 4884 C 478.872 -3.14251 4.28275 0
M  V30 4885 C 477.911 -2.78862 5.44888 0
M  V30 4886 N 477.048 -3.93548 5.81433 0
M  V30 4887 H 481.888 -0.501303 2.93753 0
M  V30 4888 H 479.425 -0.235847 1.45197 0
M  V30 4889 H 481.383 -2.98124 2.91853 0
M  V30 4890 H 480.013 -2.6646 1.82205 0
M  V30 4891 H 479.065 -1.07692 3.64838 0
M  V30 4892 H 480.377 -1.62117 4.7172 0
M  V30 4893 H 479.531 -3.97317 4.58502 0
M  V30 4894 H 478.27 -3.47476 3.42215 0
M  V30 4895 H 477.275 -1.94208 5.14357 0
M  V30 4896 H 478.5 -2.46855 6.32645 0
M  V30 4897 H 476.446 -4.2662 4.98328 0
M  V30 4898 H 476.363 -3.67098 6.6089 0
M  V30 4899 H 477.631 -4.77325 6.16264 0
M  V30 4900 N 481.861 -1.55662 -0.24637 0
M  V30 4901 C 482.809 -1.91186 -1.3248 0
M  V30 4902 C 483.803 -0.790996 -1.49799 0
M  V30 4903 O 485.009 -0.975617 -1.51267 0
M  V30 4904 H 481.384 -0.607207 -0.443626 0
M  V30 4905 H 483.355 -2.81221 -0.997853 0
M  V30 4906 C 482.104 -2.22349 -2.67313 0
M  V30 4907 H 481.427 -3.08097 -2.54786 0
M  V30 4908 H 482.867 -2.51107 -3.41645 0
M  V30 4909 C 481.326 -1.04001 -3.20446 0
M  V30 4910 O 481.856 -0.28828 -4.00664 0
M  V30 4911 N 480.062 -0.830494 -2.7848 0
M  V30 4912 H 479.609 -1.4435 -2.13356 0
M  V30 4913 H 479.567 -0.0403258 -3.14374 0
M  V30 4914 N 483.339 0.512053 -1.4905 0
M  V30 4915 C 484.272 1.63209 -1.59493 0
M  V30 4916 C 485.25 1.56407 -0.444481 0
M  V30 4917 O 486.434 1.76623 -0.658535 0
M  V30 4918 C 483.561 3.01685 -1.53961 0
M  V30 4919 C 482.607 3.26786 -2.74068 0
M  V30 4920 S 483.44 3.11107 -4.35859 0
M  V30 4921 C 484.596 4.51997 -4.32954 0
M  V30 4922 H 484.829 1.54104 -2.54243 0
M  V30 4923 H 482.362 0.696382 -1.37804 0
M  V30 4924 H 484.32 3.81538 -1.51455 0
M  V30 4925 H 482.981 3.08215 -0.605178 0
M  V30 4926 H 482.174 4.27849 -2.66386 0
M  V30 4927 H 481.776 2.54635 -2.73928 0
M  V30 4928 H 484.068 5.43871 -4.03993 0
M  V30 4929 H 485.011 4.64731 -5.34257 0
M  V30 4930 H 485.419 4.32159 -3.63178 0
M  V30 4931 N 484.817 1.37938 0.762283 0
M  V30 4932 C 486.042 1.37059 1.55659 0
M  V30 4933 C 486.467 -0.0396123 1.88058 0
M  V30 4934 O 485.825 -1.01929 1.49934 0
M  V30 4935 C 485.873 2.22494 2.83776 0
M  V30 4936 O 484.977 1.63607 3.78559 0
M  V30 4937 H 484.318 0.467892 0.47114 0
M  V30 4938 H 486.848 1.81587 0.942725 0
M  V30 4939 H 486.858 2.36045 3.32786 0
M  V30 4940 H 485.533 3.24993 2.59524 0
M  V30 4941 H 484.11 1.5915 3.37233 0
M  V30 4942 N 486.295 -0.989507 1.22664 0
M  V30 4943 C 487.523 -1.76496 1.07967 0
M  V30 4944 C 487.938 -1.85148 -0.369543 0
M  V30 4945 O 487.295 -1.32408 -1.25596 0
M  V30 4946 C 487.346 -3.19642 1.68853 0
M  V30 4947 O 487.067 -3.11453 3.08105 0
M  V30 4948 C 488.568 -4.13621 1.59475 0
M  V30 4949 H 485.788 -0.55418 0.378319 0
M  V30 4950 H 488.332 -1.24378 1.62328 0
M  V30 4951 H 486.487 -3.68816 1.18547 0
M  V30 4952 H 486.901 -4.01499 3.37489 0
M  V30 4953 H 488.375 -5.11801 2.06795 0
M  V30 4954 H 488.852 -4.35718 0.55191 0
M  V30 4955 H 489.458 -3.70346 2.09103 0
M  V30 4956 N 487.773 -1.03688 -1.18687 0
M  V30 4957 C 489.003 -0.756819 -1.92239 0
M  V30 4958 C 489.411 0.689374 -1.76194 0
M  V30 4959 O 488.754 1.48126 -1.08648 0
M  V30 4960 C 488.816 -1.03851 -3.44173 0
M  V30 4961 C 488.48 -2.47785 -3.83994 0
M  V30 4962 C 489.477 -3.4595 -3.88091 0
M  V30 4963 C 487.162 -2.82397 -4.154 0
M  V30 4964 C 489.156 -4.76779 -4.23038 0
M  V30 4965 C 486.843 -4.13433 -4.50018 0
M  V30 4966 C 487.841 -5.10434 -4.53813 0
M  V30 4967 O 487.529 -6.39122 -4.87625 0
M  V30 4968 H 487.261 -0.275678 -0.617234 0
M  V30 4969 H 489.815 -1.38658 -1.51536 0
M  V30 4970 H 488.045 -0.351612 -3.85098 0
M  V30 4971 H 489.734 -0.746846 -3.9897 0
M  V30 4972 H 490.5 -3.20549 -3.63969 0
M  V30 4973 H 486.379 -2.07568 -4.11627 0
M  V30 4974 H 489.923 -5.52488 -4.25914 0
M  V30 4975 H 485.82 -4.38604 -4.736 0
M  V30 4976 H 486.588 -6.43715 -5.05542 0
M  V30 4977 N 489.251 1.34841 -0.815825 0
M  V30 4978 C 490.497 1.98793 -0.401129 0
M  V30 4979 C 490.83 1.64548 1.03139 0
M  V30 4980 O 490.105 0.913487 1.71714 0
M  V30 4981 C 490.388 3.55143 -0.595409 0
M  V30 4982 C 490.241 3.99155 -2.07352 0
M  V30 4983 C 491.56 4.40092 -0.0268823 0
M  V30 4984 H 488.679 0.722146 -0.14722 0
M  V30 4985 H 491.321 1.59847 -1.02707 0
M  V30 4986 H 489.471 3.8845 -0.0625779 0
M  V30 4987 H 491.143 3.76216 -2.66945 0
M  V30 4988 H 489.386 3.49726 -2.56659 0
M  V30 4989 H 490.057 5.07971 -2.1603 0
M  V30 4990 H 492.533 4.13298 -0.482042 0
M  V30 4991 H 491.409 5.48562 -0.19267 0
M  V30 4992 H 491.67 4.29016 1.06759 0
M  V30 4993 N 490.729 0.570148 1.46925 0
M  V30 4994 C 492.006 -0.0153259 1.95594 0
M  V30 4995 C 492.386 -1.47232 1.51281 0
M  V30 4996 O 491.734 -2.15574 0.757624 0
M  V30 4997 C 491.944 0.143624 3.48704 0
M  V30 4998 C 493.292 0.00494484 4.246 0
M  V30 4999 O 494.316 0.0718214 3.56128 0
M  V30 5000 O 493.175 -0.141175 5.46318 0
M  V30 5001 H 490.269 -0.0568819 0.825041 0
M  V30 5002 H 492.815 0.637583 1.57267 0
M  V30 5003 H 491.587 1.15699 3.73804 0
M  V30 5004 H 491.21 -0.5463 3.93829 0
M  V30 5005 N 492.207 -1.54576 0.307264 0
M  V30 5006 C 493.437 -2.04378 -0.302158 0
M  V30 5007 C 493.845 -1.18381 -1.47589 0
M  V30 5008 O 493.188 -0.20352 -1.82569 0
M  V30 5009 C 493.25 -3.50133 -0.815305 0
M  V30 5010 C 492.914 -4.56401 0.233977 0
M  V30 5011 C 493.911 -5.08884 1.06456 0
M  V30 5012 C 491.596 -5.0088 0.377478 0
M  V30 5013 C 493.59 -6.04394 2.02452 0
M  V30 5014 C 491.277 -5.96208 1.34088 0
M  V30 5015 C 492.275 -6.47849 2.16288 0
M  V30 5016 O 491.963 -7.41308 3.10994 0
M  V30 5017 H 491.695 -0.672502 -0.0686839 0
M  V30 5018 H 494.249 -2.00484 0.446682 0
M  V30 5019 H 492.479 -3.51371 -1.61478 0
M  V30 5020 H 494.168 -3.83098 -1.34129 0
M  V30 5021 H 494.934 -4.75311 0.964596 0
M  V30 5022 H 490.813 -4.60309 -0.252405 0
M  V30 5023 H 494.357 -6.44626 2.66652 0
M  V30 5024 H 490.254 -6.29198 1.44154 0
M  V30 5025 H 491.022 -7.5913 3.06045 0
M  V30 5026 N 493.685 -0.035106 -1.57561 0
M  V30 5027 C 494.632 0.94474 -2.10578 0
M  V30 5028 C 495.602 1.3192 -1.00927 0
M  V30 5029 O 496.787 1.41147 -1.28382 0
M  V30 5030 C 493.927 2.21982 -2.64231 0
M  V30 5031 C 493.04 1.90128 -3.87911 0
M  V30 5032 C 492.175 3.11975 -4.29936 0
M  V30 5033 C 491.214 2.75968 -5.46359 0
M  V30 5034 N 490.351 3.90459 -5.83512 0
M  V30 5035 H 495.191 0.485717 -2.94015 0
M  V30 5036 H 492.728 0.228143 -1.4532 0
M  V30 5037 H 494.686 2.96572 -2.9343 0
M  V30 5038 H 493.316 2.6549 -1.83616 0
M  V30 5039 H 492.368 1.05755 -3.65404 0
M  V30 5040 H 493.68 1.59613 -4.72573 0
M  V30 5041 H 492.834 3.9488 -4.60603 0
M  V30 5042 H 491.573 3.45657 -3.44053 0
M  V30 5043 H 490.578 1.91478 -5.1538 0
M  V30 5044 H 491.803 2.43497 -6.33945 0
M  V30 5045 H 489.749 4.23971 -5.00584 0
M  V30 5046 H 489.666 3.63588 -6.62827 0
M  V30 5047 H 490.934 4.7405 -6.18787 0
M  V30 5048 N 495.163 1.55791 0.238111 0
M  V30 5049 C 496.412 1.77234 0.962868 0
M  V30 5050 C 496.725 0.600661 1.86149 0
M  V30 5051 O 497.931 0.698315 2.62366 0
M  V30 5052 C 496.387 3.13808 1.76218 0
M  V30 5053 C 495.995 4.3865 0.910518 0
M  V30 5054 C 497.739 3.44585 2.47914 0
M  V30 5055 C 495.646 5.66252 1.70623 0
M  V30 5056 H 494.576 0.660731 0.36325 0
M  V30 5057 H 497.227 1.8221 0.217242 0
M  V30 5058 H 495.609 3.02963 2.55009 0
M  V30 5059 H 496.783 4.60507 0.164316 0
M  V30 5060 H 495.098 4.15271 0.30647 0
M  V30 5061 H 497.695 4.3714 3.07917 0
M  V30 5062 H 498.038 2.66314 3.19973 0
M  V30 5063 H 498.571 3.56685 1.76127 0
M  V30 5064 H 495.31 6.47369 1.02923 0
M  V30 5065 H 494.83 5.48483 2.42748 0
M  V30 5066 H 496.509 6.05829 2.27114 0
M  V30 5067 N 496.642 -0.504142 1.49319 0
M  V30 5068 C 497.59 -1.62689 1.66238 0
M  V30 5069 C 498.584 -1.6095 0.528349 0
M  V30 5070 O 499.79 -1.65496 0.707887 0
M  V30 5071 H 496.165 -0.539247 0.524134 0
M  V30 5072 H 498.136 -1.45571 2.60484 0
M  V30 5073 C 496.885 -3.00841 1.74328 0
M  V30 5074 H 496.208 -3.02884 2.60963 0
M  V30 5075 H 497.648 -3.78945 1.90202 0
M  V30 5076 C 496.107 -3.33355 0.487416 0
M  V30 5077 O 496.637 -3.99819 -0.388294 0
M  V30 5078 N 494.843 -2.88469 0.351306 0
M  V30 5079 H 494.39 -2.34557 1.06492 0
M  V30 5080 H 494.348 -3.10591 -0.487899 0
M  V30 5081 N 498.12 -1.38341 -0.754957 0
M  V30 5082 C 499.05 -1.38176 -1.88227 0
M  V30 5083 C 500.031 -0.247873 -1.68284 0
M  V30 5084 O 501.216 -0.45075 -1.88896 0
M  V30 5085 C 498.346 -1.20471 -3.25736 0
M  V30 5086 C 497.3 -2.3105 -3.60278 0
M  V30 5087 C 496.626 -1.98452 -4.96509 0
M  V30 5088 C 497.926 -3.73305 -3.65295 0
M  V30 5089 H 499.62 -2.32512 -1.88622 0
M  V30 5090 H 497.166 -1.1192 -0.906082 0
M  V30 5091 H 499.119 -1.18982 -4.04254 0
M  V30 5092 H 497.843 -0.225965 -3.25817 0
M  V30 5093 H 496.502 -2.31723 -2.84078 0
M  V30 5094 H 496.15 -0.990641 -4.93148 0
M  V30 5095 H 495.85 -2.7251 -5.20588 0
M  V30 5096 H 497.374 -1.98578 -5.77407 0
M  V30 5097 H 498.788 -3.7467 -4.3393 0
M  V30 5098 H 497.185 -4.46557 -4.00883 0
M  V30 5099 H 498.255 -4.05719 -2.65556 0
M  V30 5100 N 499.598 0.982988 -1.23187 0
M  V30 5101 C 500.528 2.09301 -1.03515 0
M  V30 5102 C 501.509 1.70035 0.0471136 0
M  V30 5103 O 502.694 1.93847 -0.117029 0
M  V30 5104 C 499.824 3.4167 -0.622791 0
M  V30 5105 C 498.778 3.94828 -1.65211 0
M  V30 5106 C 498.104 5.23362 -1.09527 0
M  V30 5107 C 499.404 4.2439 -3.04451 0
M  V30 5108 H 501.098 2.26016 -1.96359 0
M  V30 5109 H 498.644 1.08611 -0.945501 0
M  V30 5110 H 500.597 4.18746 -0.472233 0
M  V30 5111 H 499.321 3.24811 0.341329 0
M  V30 5112 H 497.98 3.19895 -1.79061 0
M  V30 5113 H 497.628 5.02852 -0.122211 0
M  V30 5114 H 497.328 5.59895 -1.783 0
M  V30 5115 H 498.852 6.03062 -0.956511 0
M  V30 5116 H 500.266 4.92225 -2.93917 0
M  V30 5117 H 498.663 4.72118 -3.70438 0
M  V30 5118 H 499.733 3.31765 -3.53638 0
M  V30 5119 N 501.076 1.04316 1.18135 0
M  V30 5120 C 502.353 0.662166 1.84051 0
M  V30 5121 C 502.733 -0.858169 1.9287 0
M  V30 5122 O 502.081 -1.76062 1.45652 0
M  V30 5123 C 502.291 1.3409 3.22212 0
M  V30 5124 C 503.639 1.4733 3.9822 0
M  V30 5125 O 504.663 1.29921 3.31661 0
M  V30 5126 O 503.522 1.75722 5.17479 0
M  V30 5127 H 500.616 0.232005 0.79379 0
M  V30 5128 H 503.162 1.1422 1.25506 0
M  V30 5129 H 501.934 2.37853 3.10711 0
M  V30 5130 H 501.557 0.849649 3.88416 0
M  V30 5131 N 502.554 -1.34406 0.822964 0
M  V30 5132 C 503.831 -1.92733 0.333641 0
M  V30 5133 C 504.211 -1.75107 -1.17901 0
M  V30 5134 O 503.559 -1.12983 -1.98613 0
M  V30 5135 C 503.769 -3.40557 0.763023 0
M  V30 5136 C 505.117 -4.17709 0.761879 0
M  V30 5137 O 506.141 -3.49141 0.705606 0
M  V30 5138 O 505 -5.40082 0.835109 0
M  V30 5139 H 502.094 -0.821964 0.0911249 0
M  V30 5140 H 504.64 -1.4338 0.907757 0
M  V30 5141 H 503.412 -3.47187 1.8049 0
M  V30 5142 H 503.035 -3.97259 0.164605 0
M  V30 5143 N 504.032 -0.577932 -1.46621 0
M  V30 5144 C 504.98 0.170882 -2.31971 0
M  V30 5145 C 505.974 0.889086 -1.44193 0
M  V30 5146 O 507.18 0.808017 -1.60845 0
M  V30 5147 H 503.555 0.0739763 -0.748353 0
M  V30 5148 H 505.526 -0.567856 -2.92947 0
M  V30 5149 C 504.275 1.17438 -3.27267 0
M  V30 5150 H 503.598 0.63116 -3.94787 0
M  V30 5151 H 505.038 1.66882 -3.89778 0
M  V30 5152 C 503.497 2.23292 -2.52274 0
M  V30 5153 O 504.027 3.30567 -2.28229 0
M  V30 5154 N 502.233 1.97772 -2.12919 0
M  V30 5155 H 501.78 1.10545 -2.32675 0
M  V30 5156 H 501.738 2.68809 -1.63062 0
M  V30 5157 N 505.51 1.54411 -0.315457 0
M  V30 5158 C 506.926 1.59556 0.037464 0
M  V30 5159 C 507.126 1.33217 1.5118 0
M  V30 5160 O 506.182 1.11264 2.26664 0
M  V30 5161 C 507.495 2.98372 -0.373477 0
M  V30 5162 C 509.043 3.11324 -0.323452 0
M  V30 5163 C 509.518 4.52472 -0.709433 0
M  V30 5164 N 511.009 4.58437 -0.662524 0
M  V30 5165 C 511.744 5.65751 -0.933474 0
M  V30 5166 N 511.24 6.81039 -1.27114 0
M  V30 5167 N 513.033 5.55489 -0.859573 0
M  V30 5168 H 505.184 1.6979 -1.27614 0
M  V30 5169 H 507.447 0.793732 -0.518356 0
M  V30 5170 H 507.153 3.22618 -1.40037 0
M  V30 5171 H 507.027 3.76264 0.265615 0
M  V30 5172 H 509.414 2.86818 0.694223 0
M  V30 5173 H 509.495 2.35555 -0.997367 0
M  V30 5174 H 509.139 4.7771 -1.72498 0
M  V30 5175 H 509.069 5.26598 -0.0132923 0
M  V30 5176 H 511.56 3.75636 -0.413065 0
M  V30 5177 H 511.873 7.58816 -1.46348 0
M  V30 5178 H 510.218 6.82555 -1.30932 0
M  V30 5179 H 513.409 4.64299 -0.595324 0
M  V30 5180 H 513.582 6.39036 -1.0741 0
M  V30 5181 N 506.988 0.0434614 1.5754 0
M  V30 5182 C 508.235 -0.632035 1.92384 0
M  V30 5183 C 508.563 -1.71304 0.921157 0
M  V30 5184 O 507.818 -1.95583 -0.067744 0
M  V30 5185 C 508.117 -1.2738 3.3393 0
M  V30 5186 C 507.783 -0.321757 4.49751 0
M  V30 5187 C 506.445 -0.0597611 4.81163 0
M  V30 5188 C 508.797 0.331158 5.20147 0
M  V30 5189 C 506.125 0.862715 5.80322 0
M  V30 5190 C 508.477 1.24178 6.20292 0
M  V30 5191 C 507.141 1.51252 6.50138 0
M  V30 5192 H 506.411 -0.231278 0.703983 0
M  V30 5193 H 509.058 0.108294 1.91194 0
M  V30 5194 H 507.363 -2.08921 3.3145 0
M  V30 5195 H 509.06 -1.80326 3.58167 0
M  V30 5196 H 505.65 -0.53614 4.25233 0
M  V30 5197 H 509.834 0.141826 4.96097 0
M  V30 5198 H 505.09 1.08003 6.01785 0
M  V30 5199 H 509.264 1.75381 6.73954 0
M  V30 5200 H 506.891 2.22897 7.26788 0
M  V30 5201 N 508.466 -1.55915 -0.229846 0
M  V30 5202 C 509.694 -1.82617 -0.972562 0
M  V30 5203 C 510.109 -0.621488 -1.78278 0
M  V30 5204 O 509.466 0.409956 -1.77836 0
M  V30 5205 C 509.517 -3.0774 -1.89679 0
M  V30 5206 O 509.238 -4.23559 -1.11934 0
M  V30 5207 C 510.739 -3.47368 -2.75409 0
M  V30 5208 H 507.959 -0.60727 -0.285419 0
M  V30 5209 H 510.503 -2.02996 -0.247579 0
M  V30 5210 H 508.658 -2.89361 -2.57583 0
M  V30 5211 H 509.072 -4.94586 -1.74599 0
M  V30 5212 H 510.546 -4.37977 -3.35977 0
M  V30 5213 H 511.023 -2.68737 -3.47386 0
M  V30 5214 H 511.629 -3.68158 -2.12931 0
M  V30 5215 N 509.944 0.496216 -1.49584 0
M  V30 5216 C 511.36 0.827814 -1.36453 0
M  V30 5217 C 511.56 1.97464 -0.401285 0
M  V30 5218 O 510.616 2.51958 0.165296 0
M  V30 5219 C 511.929 1.16352 -2.77277 0
M  V30 5220 C 513.477 1.27145 -2.86013 0
M  V30 5221 C 513.952 1.64042 -4.27615 0
M  V30 5222 N 515.443 1.71082 -4.30448 0
M  V30 5223 C 516.178 2.01085 -5.36984 0
M  V30 5224 N 515.674 2.2928 -6.5376 0
M  V30 5225 N 517.467 2.02376 -5.24405 0
M  V30 5226 H 509.618 -0.259947 -2.10803 0
M  V30 5227 H 511.881 -0.0537163 -0.946477 0
M  V30 5228 H 511.587 0.394153 -3.49484 0
M  V30 5229 H 511.461 2.10582 -3.12946 0
M  V30 5230 H 513.848 2.03152 -2.1404 0
M  V30 5231 H 513.929 0.309542 -2.5392 0
M  V30 5232 H 513.573 0.88583 -5.00115 0
M  V30 5233 H 513.503 2.6134 -4.57175 0
M  V30 5234 H 515.994 1.51434 -3.46232 0
M  V30 5235 H 516.307 2.51376 -7.30774 0
M  V30 5236 H 514.652 2.26726 -6.56978 0
M  V30 5237 H 517.843 1.79829 -4.32179 0
M  V30 5238 H 518.016 2.25425 -6.07526 0
M  V30 5239 N 511.423 1.38739 0.74761 0
M  V30 5240 C 512.7 1.25791 1.49786 0
M  V30 5241 C 513.08 -0.138075 2.10648 0
M  V30 5242 O 512.428 -1.14815 1.9756 0
M  V30 5243 C 512.638 2.37265 2.55942 0
M  V30 5244 C 513.986 2.75978 3.22679 0
M  V30 5245 O 515.01 2.36621 2.6625 0
M  V30 5246 O 513.869 3.43867 4.24756 0
M  V30 5247 H 510.963 0.492251 0.664543 0
M  V30 5248 H 513.509 1.50582 0.782511 0
M  V30 5249 H 512.281 3.30644 2.0926 0
M  V30 5250 H 511.904 2.14071 3.35051 0
M  V30 5251 N 512.901 -0.976442 1.23707 0
M  V30 5252 C 513.864 -2.0511 1.02287 0
M  V30 5253 C 514.864 -1.60791 -0.0167195 0
M  V30 5254 O 516.054 -1.72761 0.223408 0
M  V30 5255 C 513.186 -3.36458 0.548507 0
M  V30 5256 H 514.379 -2.25545 1.9766 0
M  V30 5257 H 511.932 -1.15042 1.05806 0
M  V30 5258 H 512.667 -3.21713 -0.408818 0
M  V30 5259 H 512.452 -3.69967 1.29874 0
M  V30 5260 H 513.942 -4.15489 0.419406 0
M  V30 5261 N 514.379 -1.04941 -1.1758 0
M  V30 5262 C 515.627 -0.756492 -1.87408 0
M  V30 5263 C 515.948 0.718478 -1.81281 0
M  V30 5264 O 515.218 1.519 -1.23706 0
M  V30 5265 H 513.798 -0.276841 -0.693807 0
M  V30 5266 H 516.46 -1.32803 -1.42652 0
M  V30 5267 H 515.556 -1.06918 -2.93215 0
M  V30 5268 N 515.857 1.33968 -0.830081 0
M  V30 5269 C 517.106 1.97323 -0.417928 0
M  V30 5270 C 517.419 1.6652 1.02618 0
M  V30 5271 O 518.625 2.2342 1.54259 0
M  V30 5272 C 517.081 3.53099 -0.696359 0
M  V30 5273 C 516.689 3.92788 -2.15457 0
M  V30 5274 C 518.433 4.23049 -0.350724 0
M  V30 5275 C 516.34 5.41506 -2.37751 0
M  V30 5276 H 515.27 0.738409 -0.152541 0
M  V30 5277 H 517.921 1.52711 -1.01744 0
M  V30 5278 H 516.303 3.95991 -0.0265904 0
M  V30 5279 H 517.477 3.6098 -2.86408 0
M  V30 5280 H 515.792 3.35795 -2.46232 0
M  V30 5281 H 518.389 5.32403 -0.495036 0
M  V30 5282 H 518.732 4.10279 0.705476 0
M  V30 5283 H 519.265 3.85657 -0.975362 0
M  V30 5284 H 516.004 5.5927 -3.41903 0
M  V30 5285 H 515.524 5.74804 -1.7135 0
M  V30 5286 H 517.203 6.0828 -2.20465 0
M  V30 5287 N 517.335 0.585699 1.46312 0
M  V30 5288 C 518.283 -0.158577 2.32059 0
M  V30 5289 C 519.277 -0.881427 1.44662 0
M  V30 5290 O 520.483 -0.799476 1.61271 0
M  V30 5291 H 516.858 -0.0700066 0.748734 0
M  V30 5292 H 518.829 0.583383 2.92642 0
M  V30 5293 C 517.578 -1.15701 3.27885 0
M  V30 5294 H 516.901 -0.610215 3.95116 0
M  V30 5295 H 518.341 -1.64812 3.90657 0
M  V30 5296 C 516.8 -2.21951 2.53455 0
M  V30 5297 O 517.33 -3.29352 2.29978 0
M  V30 5298 N 515.536 -1.9664 2.13965 0
M  V30 5299 H 515.083 -1.09309 2.33258 0
M  V30 5300 H 515.041 -2.6794 1.64485 0
M  V30 5301 N 518.813 -1.54241 0.323641 0
M  V30 5302 C 520.041 -2.04985 -0.280871 0
M  V30 5303 C 520.456 -1.19978 -1.45777 0
M  V30 5304 O 519.813 -0.230471 -1.81039 0
M  V30 5305 C 519.864 -3.54353 -0.715258 0
M  V30 5306 O 519.585 -4.36132 0.414817 0
M  V30 5307 C 521.086 -4.21189 -1.38257 0
M  V30 5308 H 518.306 -0.66851 -0.0577502 0
M  V30 5309 H 520.85 -1.99029 0.469852 0
M  V30 5310 H 519.005 -3.60596 -1.41596 0
M  V30 5311 H 519.419 -5.2445 0.0725227 0
M  V30 5312 H 520.893 -5.27154 -1.63745 0
M  V30 5313 H 521.37 -3.72307 -2.32989 0
M  V30 5314 H 521.976 -4.19085 -0.724447 0
M  V30 5315 N 520.291 -0.0518155 -1.57515 0
M  V30 5316 C 521.568 0.661727 -1.84067 0
M  V30 5317 C 521.948 1.88999 -0.940351 0
M  V30 5318 O 521.296 2.285 -0.00155404 0
M  V30 5319 C 521.506 1.01841 -3.3381 0
M  V30 5320 C 522.854 1.40043 -4.00841 0
M  V30 5321 O 523.878 1.11073 -3.38439 0
M  V30 5322 O 522.737 1.94111 -5.10865 0
M  V30 5323 H 519.831 0.326702 -0.759733 0
M  V30 5324 H 522.377 -0.0812277 -1.69505 0
M  V30 5325 H 521.149 0.145202 -3.91031 0
M  V30 5326 H 520.772 1.81879 -3.53562 0
M  V30 5327 N 521.769 1.56035 0.221574 0
M  V30 5328 C 523.046 1.69837 0.970301 0
M  V30 5329 C 523.426 0.599065 2.02421 0
M  V30 5330 O 522.774 -0.393929 2.25079 0
M  V30 5331 C 522.984 3.11148 1.58076 0
M  V30 5332 C 524.332 3.70555 2.07302 0
M  V30 5333 O 525.356 3.14109 1.6797 0
M  V30 5334 O 524.215 4.69562 2.79596 0
M  V30 5335 H 521.309 0.691727 0.453257 0
M  V30 5336 H 523.855 1.68353 0.213358 0
M  V30 5337 H 522.627 3.82617 0.819759 0
M  V30 5338 H 522.25 3.16749 2.40324 0
M  V30 5339 N 523.247 -0.488276 1.49845 0
M  V30 5340 C 524.496 -1.23826 1.59217 0
M  V30 5341 C 524.809 -1.93439 0.289966 0
M  V30 5342 O 526.015 -2.70229 0.262382 0
M  V30 5343 C 524.471 -2.24902 2.80976 0
M  V30 5344 C 524.079 -1.6117 4.18005 0
M  V30 5345 C 525.823 -3.00648 2.99685 0
M  V30 5346 C 523.73 -2.60431 5.3097 0
M  V30 5347 H 522.66 -0.465858 0.592868 0
M  V30 5348 H 525.311 -0.510645 1.76252 0
M  V30 5349 H 523.693 -3.0088 2.57463 0
M  V30 5350 H 524.867 -0.910968 4.51706 0
M  V30 5351 H 523.182 -0.97767 4.0476 0
M  V30 5352 H 525.779 -3.74903 3.81251 0
M  V30 5353 H 526.122 -3.5902 2.10738 0
M  V30 5354 H 526.655 -2.31784 3.23297 0
M  V30 5355 H 523.394 -2.06823 6.22017 0
M  V30 5356 H 522.914 -3.28707 5.01709 0
M  V30 5357 H 524.593 -3.22606 5.60834 0
M  V30 5358 N 524.725 -1.39134 -0.740242 0
M  V30 5359 C 525.971 -1.36273 -1.50192 0
M  V30 5360 C 526.304 0.0430136 -1.94152 0
M  V30 5361 O 525.579 1.00691 -1.66408 0
M  V30 5362 C 525.862 -2.33041 -2.74525 0
M  V30 5363 C 525.715 -3.82535 -2.36617 0
M  V30 5364 C 527.034 -2.27723 -3.76604 0
M  V30 5365 H 524.153 -0.496323 -0.544823 0
M  V30 5366 H 526.795 -1.70085 -0.846815 0
M  V30 5367 H 524.945 -2.04337 -3.30422 0
M  V30 5368 H 526.617 -4.21967 -1.86391 0
M  V30 5369 H 524.86 -3.99565 -1.68909 0
M  V30 5370 H 525.531 -4.45723 -3.2563 0
M  V30 5371 H 528.007 -2.53091 -3.30279 0
M  V30 5372 H 526.883 -2.97519 -4.61274 0
M  V30 5373 H 527.144 -1.28049 -4.2315 0
M  V30 5374 N 526.204 0.969867 -1.24223 0
M  V30 5375 C 527.167 2.04564 -1.03373 0
M  V30 5376 C 528.167 1.60798 0.00819206 0
M  V30 5377 O 529.357 1.72641 -0.232567 0
M  V30 5378 C 526.489 3.36163 -0.566343 0
M  V30 5379 H 527.682 2.24494 -1.98853 0
M  V30 5380 H 525.235 1.1448 -1.06415 0
M  V30 5381 H 525.97 3.21925 0.391751 0
M  V30 5382 H 525.755 3.69273 -1.31834 0
M  V30 5383 H 527.245 4.1526 -0.441435 0
M  V30 5384 N 527.682 1.05563 1.17022 0
M  V30 5385 C 528.612 0.681026 2.23348 0
M  V30 5386 C 529.593 -0.322983 1.67005 0
M  V30 5387 O 530.778 -0.199746 1.9317 0
M  V30 5388 C 527.908 0.0589053 3.4725 0
M  V30 5389 C 526.862 0.988082 4.16438 0
M  V30 5390 C 526.188 0.229646 5.34207 0
M  V30 5391 C 527.488 2.31388 4.68249 0
M  V30 5392 H 529.182 1.56993 2.54938 0
M  V30 5393 H 526.728 0.756302 1.2254 0
M  V30 5394 H 528.681 -0.214982 4.20851 0
M  V30 5395 H 527.405 -0.864968 3.14938 0
M  V30 5396 H 526.064 1.24659 3.44754 0
M  V30 5397 H 525.712 -0.697111 4.98146 0
M  V30 5398 H 525.412 0.848815 5.81437 0
M  V30 5399 H 526.936 -0.0368694 6.10589 0
M  V30 5400 H 528.35 2.09964 5.33468 0
M  V30 5401 H 526.747 2.88736 5.26072 0
M  V30 5402 H 527.817 2.94982 3.84855 0
M  V30 5403 N 529.16 -1.33526 0.837174 0
M  V30 5404 C 530.408 -1.97446 0.431211 0
M  V30 5405 C 530.729 -1.6665 -1.01255 0
M  V30 5406 O 529.999 -0.964559 -1.70508 0
M  V30 5407 H 528.579 -0.73043 0.156463 0
M  V30 5408 H 531.241 -1.62918 1.06976 0
M  V30 5409 H 530.337 -3.07001 0.561877 0
M  V30 5410 N 530.638 -0.59345 -1.46 0
M  V30 5411 C 531.568 0.121192 -2.33185 0
M  V30 5412 C 532.549 0.872977 -1.4599 0
M  V30 5413 O 533.734 0.846321 -1.74789 0
M  V30 5414 C 530.864 1.12844 -3.28456 0
M  V30 5415 C 529.818 0.4908 -4.25177 0
M  V30 5416 C 529.144 1.60529 -5.10034 0
M  V30 5417 C 530.444 -0.578949 -5.19081 0
M  V30 5418 H 532.138 -0.606767 -2.93187 0
M  V30 5419 H 529.684 -0.293242 -1.40983 0
M  V30 5420 H 531.637 1.63684 -3.88311 0
M  V30 5421 H 530.361 1.88681 -2.66584 0
M  V30 5422 H 529.02 0.00339328 -3.666 0
M  V30 5423 H 528.668 2.35359 -4.44539 0
M  V30 5424 H 528.368 1.18422 -5.75543 0
M  V30 5425 H 529.892 2.11623 -5.72755 0
M  V30 5426 H 531.306 -0.155199 -5.7309 0
M  V30 5427 H 529.703 -0.920947 -5.92991 0
M  V30 5428 H 530.773 -1.46109 -4.62364 0
M  V30 5429 N 532.116 1.54067 -0.331816 0
M  V30 5430 C 533.362 2.01012 0.268667 0
M  V30 5431 C 533.695 1.2195 1.51136 0
M  V30 5432 O 532.97 0.303972 1.9211 0
M  V30 5433 C 533.253 3.55158 0.59456 0
M  V30 5434 C 533.106 4.4494 -0.659409 0
M  V30 5435 C 534.425 4.16939 1.4089 0
M  V30 5436 H 531.544 0.730698 0.0961756 0
M  V30 5437 H 534.186 1.84593 -0.450031 0
M  V30 5438 H 532.336 3.6928 1.20685 0
M  V30 5439 H 534.008 4.42675 -1.29756 0
M  V30 5440 H 532.251 4.1428 -1.28665 0
M  V30 5441 H 532.922 5.50643 -0.386804 0
M  V30 5442 H 535.398 4.06443 0.891272 0
M  V30 5443 H 534.274 5.24889 1.60569 0
M  V30 5444 H 534.535 3.70798 2.40752 0
M  V30 5445 N 533.594 0.0601682 1.57485 0
M  V30 5446 C 534.824 -0.620037 1.97076 0
M  V30 5447 C 535.232 -1.64381 0.936784 0
M  V30 5448 O 534.575 -1.83497 -0.0863377 0
M  V30 5449 C 534.637 -1.35617 3.32939 0
M  V30 5450 C 534.301 -0.487208 4.54396 0
M  V30 5451 C 535.298 0.250428 5.19297 0
M  V30 5452 C 532.983 -0.415494 5.00579 0
M  V30 5453 C 534.977 1.04812 6.28723 0
M  V30 5454 C 532.664 0.385879 6.0988 0
M  V30 5455 C 533.662 1.11637 6.73815 0
M  V30 5456 O 533.35 1.90454 7.81014 0
M  V30 5457 H 533.082 -0.173664 0.653312 0
M  V30 5458 H 535.636 0.1256 2.05016 0
M  V30 5459 H 533.866 -2.14763 3.2158 0
M  V30 5460 H 535.555 -1.92749 3.57215 0
M  V30 5461 H 536.321 0.204546 4.84568 0
M  V30 5462 H 532.2 -0.973679 4.506 0
M  V30 5463 H 535.744 1.6188 6.78558 0
M  V30 5464 H 531.641 0.433366 6.44044 0
M  V30 5465 H 532.409 1.82762 7.97835 0
M  V30 5466 N 535.072 -1.5615 -0.213296 0
M  V30 5467 C 536.004 -1.89586 -1.28802 0
M  V30 5468 C 537.017 -0.784844 -1.42633 0
M  V30 5469 O 538.206 -1.06319 -1.43383 0
M  V30 5470 C 535.306 -2.09665 -2.66259 0
M  V30 5471 C 534.479 -3.40726 -2.7427 0
M  V30 5472 C 533.538 -3.50137 -3.92798 0
M  V30 5473 O 532.564 -4.23105 -3.8075 0
M  V30 5474 N 533.766 -2.81886 -5.07465 0
M  V30 5475 H 536.531 -2.82368 -1.00442 0
M  V30 5476 H 534.092 -1.56796 -0.403302 0
M  V30 5477 H 536.084 -2.13268 -3.43946 0
M  V30 5478 H 534.654 -1.23469 -2.87183 0
M  V30 5479 H 533.874 -3.4915 -1.82997 0
M  V30 5480 H 535.162 -4.27048 -2.76599 0
M  V30 5481 H 534.56 -2.22397 -5.2015 0
M  V30 5482 H 533.117 -2.91139 -5.83165 0
M  V30 5483 N 536.55 0.480323 -1.50102 0
M  V30 5484 C 537.797 1.23307 -1.60629 0
M  V30 5485 C 538.125 1.92135 -0.302375 0
M  V30 5486 O 537.38 1.82321 0.711154 0
M  V30 5487 C 537.679 2.30708 -2.72963 0
M  V30 5488 C 537.345 1.79195 -4.13763 0
M  V30 5489 C 536.007 1.64867 -4.52076 0
M  V30 5490 C 538.359 1.40878 -5.018 0
M  V30 5491 C 535.687 1.10631 -5.76175 0
M  V30 5492 C 538.039 0.880872 -6.26437 0
M  V30 5493 C 536.703 0.724146 -6.6356 0
M  V30 5494 H 535.973 0.451211 -0.587784 0
M  V30 5495 H 538.62 0.53051 -1.84005 0
M  V30 5496 H 536.925 3.06834 -2.43639 0
M  V30 5497 H 538.622 2.88692 -2.78313 0
M  V30 5498 H 535.212 1.91313 -3.83533 0
M  V30 5499 H 539.396 1.50786 -4.7284 0
M  V30 5500 H 534.652 0.972263 -6.0362 0
M  V30 5501 H 538.826 0.575269 -6.9402 0
M  V30 5502 H 536.453 0.301722 -7.59601 0
M  V30 5503 O 538.067 1.48883 0.625791 0
M  V30 5504 H 538.758 1.45381 1.28 0
M  V30 END ATOM
M  V30 BEGIN BOND
M  V30 END BOND
M  V30 END CTAB
M  END
$$$$
