drugbank_target|Q9KB30 Reducing end xylose-releasing exo-oligoxylanase (DB03389)
 OpenBabel12092120273D

  0  0  0     0  0            999 V3000
M  V30 BEGIN CTAB
M  V30 COUNTS 6100 6205 0 0 0
M  V30 BEGIN ATOM
M  V30 1 H -0.908 1.98254 -0.117106 0
M  V30 2 N 0 1.576 0 0
M  V30 3 C 0.933 2.03868 1.02534 0
M  V30 4 C 1.911 0.928543 1.3348 0
M  V30 5 O 3.095 1.19667 1.45644 0
M  V30 6 C 0.222 2.43627 2.35294 0
M  V30 7 C -0.732 3.65373 2.2001 0
M  V30 8 S 0.101 5.13292 1.52614 0
M  V30 9 C 1.257 5.56322 2.86805 0
M  V30 10 H 1.49 2.90518 0.631377 0
M  V30 11 H -0.977 1.52953 0.210867 0
M  V30 12 H 0.981 2.67203 3.11629 0
M  V30 13 H -0.358 1.57376 2.7183 0
M  V30 14 H -1.165 3.90944 3.18086 0
M  V30 15 H -1.563 3.418 1.51819 0
M  V30 16 H 0.729 5.58782 3.83104 0
M  V30 17 H 1.672 6.56266 2.65933 0
M  V30 18 H 2.08 4.83886 2.90714 0
M  V30 19 N 1.4781 -0.272755 1.55222 0
M  V30 20 C 2.4251 -1.33716 1.88119 0
M  V30 21 C 3.3951 -1.49066 0.73271 0
M  V30 22 O 4.5801 -1.63469 0.984002 0
M  V30 23 C 1.7201 -2.69238 2.15882 0
M  V30 24 C 0.8331 -2.62108 3.43399 0
M  V30 25 C -0.0319 -3.89811 3.60861 0
M  V30 26 C -0.9929 -3.77193 4.8207 0
M  V30 27 N -1.8559 -4.9673 4.96189 0
M  V30 28 H 2.9841 -1.04962 2.78903 0
M  V30 29 H 0.5211 -0.507088 1.38083 0
M  V30 30 H 2.4791 -3.48089 2.29978 0
M  V30 31 H 1.1091 -2.96194 1.28331 0
M  V30 32 H 0.1611 -1.74967 3.37773 0
M  V30 33 H 1.4731 -2.48685 4.32386 0
M  V30 34 H 0.6271 -4.77103 3.74777 0
M  V30 35 H -0.6339 -4.06102 2.7006 0
M  V30 36 H -1.6289 -2.88284 4.68159 0
M  V30 37 H -0.4039 -3.62421 5.74307 0
M  V30 38 H -2.4579 -5.13431 4.08319 0
M  V30 39 H -2.5409 -4.85839 5.79221 0
M  V30 40 H -1.2729 -5.85594 5.1449 0
M  V30 41 N 2.9562 -1.48159 -0.537278 0
M  V30 42 C 3.9032 -1.62138 -1.64256 0
M  V30 43 C 4.8732 -0.463668 -1.59497 0
M  V30 44 O 6.0582 -0.686241 -1.78032 0
M  V30 45 C 3.1982 -1.66028 -3.02537 0
M  V30 46 C 2.3112 -2.92855 -3.17585 0
M  V30 47 C 1.4462 -2.87952 -4.46382 0
M  V30 48 C 0.4852 -4.09516 -4.54932 0
M  V30 49 N -0.3778 -4.02733 -5.75109 0
M  V30 50 H 4.4622 -2.56529 -1.51647 0
M  V30 51 H 1.9992 -1.27224 -0.738414 0
M  V30 52 H 3.9572 -1.66265 -3.82638 0
M  V30 53 H 2.5872 -0.751331 -3.13934 0
M  V30 54 H 1.6392 -3.02395 -2.30784 0
M  V30 55 H 2.9512 -3.82822 -3.19764 0
M  V30 56 H 2.1052 -2.8655 -5.34765 0
M  V30 57 H 0.8442 -1.95702 -4.46712 0
M  V30 58 H -0.1508 -4.11201 -3.64957 0
M  V30 59 H 1.0742 -5.02917 -4.56346 0
M  V30 60 H -0.9798 -3.13299 -5.76351 0
M  V30 61 H -1.0628 -4.86397 -5.78752 0
M  V30 62 H 0.2052 -4.05379 -6.65799 0
M  V30 63 N 4.4343 0.785586 -1.36625 0
M  V30 64 C 5.6623 1.57448 -1.3423 0
M  V30 65 C 6.0773 1.88649 0.0755653 0
M  V30 66 O 5.4343 1.50414 1.03354 0
M  V30 67 C 5.4853 2.89316 -2.16745 0
M  V30 68 O 5.2063 2.59459 -3.53005 0
M  V30 69 C 6.7073 3.83606 -2.22174 0
M  V30 70 H 3.9273 0.488226 -0.4603 0
M  V30 71 H 6.4713 0.974733 -1.79775 0
M  V30 72 H 4.6263 3.4575 -1.74745 0
M  V30 73 H 5.0403 3.43804 -3.96105 0
M  V30 74 H 6.5143 4.73181 -2.8426 0
M  V30 75 H 6.9913 4.21734 -1.22627 0
M  V30 76 H 7.5973 3.33104 -2.64427 0
M  V30 77 N 5.9124 1.20967 1.01018 0
M  V30 78 C 7.1404 1.04956 1.78303 0
M  V30 79 C 7.5554 -0.400915 1.84494 0
M  V30 80 O 6.9124 -1.27826 1.30257 0
M  V30 81 C 6.9634 1.63403 3.22462 0
M  V30 82 O 6.6844 3.02775 3.16637 0
M  V30 83 C 8.1854 1.52432 4.16268 0
M  V30 84 H 5.4054 0.368858 0.560522 0
M  V30 85 H 7.9494 1.60193 1.27116 0
M  V30 86 H 6.1044 1.1227 3.70775 0
M  V30 87 H 6.5184 3.30626 4.07169 0
M  V30 88 H 7.9924 1.98078 5.15237 0
M  V30 89 H 8.4694 0.477875 4.36592 0
M  V30 90 H 9.0754 2.02787 3.73841 0
M  V30 91 N 7.3905 -1.2043 1.01659 0
M  V30 92 C 8.3005 -2.2689 0.596484 0
M  V30 93 C 9.3165 -1.70107 -0.36599 0
M  V30 94 O 10.4925 -2.00117 -0.226942 0
M  V30 95 C 7.5575 -3.4665 -0.0586659 0
M  V30 96 C 6.6185 -4.18662 0.949751 0
M  V30 97 C 5.8515 -5.32705 0.32577 0
M  V30 98 O 6.0745 -5.63656 -0.874509 0
M  V30 99 O 5.0085 -5.92803 1.04249 0
M  V30 100 H 8.8345 -2.65041 1.4828 0
M  V30 101 H 6.4195 -1.27048 0.786082 0
M  V30 102 H 8.3015 -4.19256 -0.424564 0
M  V30 103 H 6.9765 -3.10375 -0.91918 0
M  V30 104 H 5.8835 -3.48229 1.36702 0
M  V30 105 H 7.2165 -4.58878 1.78023 0
M  V30 106 N 8.8686 -0.792821 -1.36206 0
M  V30 107 C 10.1166 -0.366062 -1.98757 0
M  V30 108 C 10.4376 1.0668 -1.63231 0
M  V30 109 O 9.7076 1.73587 -0.907978 0
M  V30 110 H 8.2876 -0.132364 -0.735179 0
M  V30 111 H 10.9496 -1.01562 -1.66347 0
M  V30 112 H 10.0456 -0.460638 -3.08682 0
M  V30 113 N 10.3467 1.47872 -0.545128 0
M  V30 114 C 11.3097 2.28337 0.198717 0
M  V30 115 C 12.3097 1.36255 0.853888 0
M  V30 116 O 13.4997 1.59003 0.711606 0
M  V30 117 C 10.6317 3.15585 1.28915 0
M  V30 118 H 11.8247 2.95567 -0.507941 0
M  V30 119 H 9.3777 1.53362 -0.301616 0
M  V30 120 H 10.1127 2.53019 2.02859 0
M  V30 121 H 9.8977 3.83337 0.824309 0
M  V30 122 H 11.3877 3.76243 1.81194 0
M  V30 123 N 11.8248 0.280983 1.55075 0
M  V30 124 C 13.0718 -0.334115 1.99725 0
M  V30 125 C 13.3998 -1.5542 1.1694 0
M  V30 126 O 12.6548 -1.94361 0.228531 0
M  V30 127 C 12.9538 -0.754656 3.49342 0
M  V30 128 C 12.6198 0.361445 4.49449 0
M  V30 129 C 11.2818 0.667893 4.76542 0
M  V30 130 C 13.6338 1.11322 5.09173 0
M  V30 131 C 10.9618 1.7296 5.60626 0
M  V30 132 C 13.3138 2.1647 5.9441 0
M  V30 133 C 11.9778 2.47742 6.19822 0
M  V30 134 H 11.2478 -0.122261 0.730844 0
M  V30 135 H 13.8948 0.395917 1.87363 0
M  V30 136 H 12.1998 -1.56446 3.5921 0
M  V30 137 H 13.8968 -1.24142 3.813 0
M  V30 138 H 10.4868 0.112481 4.28452 0
M  V30 139 H 14.6708 0.88973 4.8826 0
M  V30 140 H 9.9268 1.97684 5.78559 0
M  V30 141 H 14.1008 2.75193 6.3972 0
M  V30 142 H 11.7278 3.30145 6.84769 0
M  V30 143 N 13.3029 -1.57598 0.00835791 0
M  V30 144 C 14.5329 -1.94931 -0.684496 0
M  V30 145 C 14.9409 -0.882233 -1.67372 0
M  V30 146 O 14.2839 0.146621 -1.83114 0
M  V30 147 C 14.3459 -3.283 -1.4649 0
M  V30 148 C 14.0099 -4.52548 -0.63634 0
M  V30 149 C 15.0069 -5.19839 0.0795586 0
M  V30 150 C 12.6919 -4.98942 -0.579849 0
M  V30 151 C 14.6859 -6.3183 0.840843 0
M  V30 152 C 12.3729 -6.10819 0.185155 0
M  V30 153 C 13.3709 -6.77121 0.894227 0
M  V30 154 O 13.0589 -7.86853 1.64673 0
M  V30 155 H 12.7909 -0.647249 -0.19505 0
M  V30 156 H 15.3449 -2.05318 0.0581272 0
M  V30 157 H 13.5749 -3.14345 -2.2522 0
M  V30 158 H 15.2639 -3.50685 -2.04389 0
M  V30 159 H 16.0299 -4.84979 0.0451202 0
M  V30 160 H 11.9089 -4.47155 -1.1213 0
M  V30 161 H 15.4529 -6.83513 1.39483 0
M  V30 162 H 11.3499 -6.4512 0.221384 0
M  V30 163 H 12.1179 -8.03412 1.56432 0
M  V30 164 N 14.781 0.264519 -1.55364 0
M  V30 165 C 16.009 1.013 -1.80405 0
M  V30 166 C 16.424 1.79618 -0.581622 0
M  V30 167 O 15.781 1.76879 0.449468 0
M  V30 168 C 15.832 1.96487 -3.03439 0
M  V30 169 O 15.553 1.21341 -4.20961 0
M  V30 170 C 17.054 2.83079 -3.41147 0
M  V30 171 H 14.274 0.298875 -0.600762 0
M  V30 172 H 16.818 0.292736 -2.02394 0
M  V30 173 H 14.973 2.63965 -2.83551 0
M  V30 174 H 15.387 1.85573 -4.90574 0
M  V30 175 H 16.861 3.4565 -4.30384 0
M  V30 176 H 17.338 3.53286 -2.60932 0
M  V30 177 H 17.944 2.2108 -3.63323 0
M  V30 178 N 16.2591 1.48442 0.529413 0
M  V30 179 C 17.6751 1.34575 0.858004 0
M  V30 180 C 17.8751 0.3572 1.98309 0
M  V30 181 O 16.9311 -0.221379 2.51528 0
M  V30 182 C 18.2441 2.74617 1.22499 0
M  V30 183 C 19.7921 2.83109 1.33484 0
M  V30 184 C 20.2671 4.23854 1.73526 0
M  V30 185 N 21.7581 4.2653 1.80628 0
M  V30 186 C 22.4931 5.32372 2.12997 0
M  V30 187 N 21.9891 6.48491 2.43786 0
M  V30 188 N 23.7821 5.19766 2.14008 0
M  V30 189 H 15.9331 2.1133 -0.212925 0
M  V30 190 H 18.1961 0.947439 -0.0326199 0
M  V30 191 H 17.9021 3.4852 0.471905 0
M  V30 192 H 17.7761 3.08177 2.17501 0
M  V30 193 H 20.1631 2.09462 2.0787 0
M  V30 194 H 20.2441 2.53168 0.366027 0
M  V30 195 H 19.8881 4.98018 0.997013 0
M  V30 196 H 19.8181 4.5124 2.71459 0
M  V30 197 H 22.3091 3.42772 1.59108 0
M  V30 198 H 22.6221 7.24993 2.67592 0
M  V30 199 H 20.9671 6.51765 2.41304 0
M  V30 200 H 24.1581 4.28066 1.89412 0
M  V30 201 H 24.3311 6.02354 2.38902 0
M  V30 202 N 17.7372 -0.778329 1.37039 0
M  V30 203 C 18.6472 -1.92253 1.34446 0
M  V30 204 C 19.6632 -1.72267 0.244991 0
M  V30 205 O 20.8392 -1.95615 0.479258 0
M  V30 206 C 17.9042 -3.27282 1.144 0
M  V30 207 C 16.9652 -3.59969 2.33925 0
M  V30 208 C 16.1982 -4.88555 2.14825 0
M  V30 209 O 16.4212 -5.59113 1.12912 0
M  V30 210 O 15.3552 -5.20153 3.02861 0
M  V30 211 H 19.1812 -1.97392 2.30803 0
M  V30 212 H 16.7662 -0.920154 1.17701 0
M  V30 213 H 18.6482 -4.08062 1.05182 0
M  V30 214 H 17.3232 -3.23011 0.211124 0
M  V30 215 H 16.2302 -2.7945 2.48714 0
M  V30 216 H 17.5632 -3.68976 3.25757 0
M  V30 217 N 19.2153 -1.21501 -1.00376 0
M  V30 218 C 20.4453 -1.05746 -1.77486 0
M  V30 219 C 20.8533 0.395655 -1.85017 0
M  V30 220 O 20.1963 1.28626 -1.31152 0
M  V30 221 C 20.2583 -1.58092 -3.22873 0
M  V30 222 C 19.9223 -3.06568 -3.38917 0
M  V30 223 C 20.9193 -4.04106 -3.271 0
M  V30 224 C 18.6043 -3.45799 -3.64319 0
M  V30 225 C 20.5983 -5.38862 -3.40451 0
M  V30 226 C 18.2853 -4.80707 -3.77311 0
M  V30 227 C 19.2833 -5.77047 -3.65384 0
M  V30 228 O 18.9713 -7.09507 -3.77961 0
M  V30 229 H 18.7033 -0.371778 -0.564586 0
M  V30 230 H 21.2573 -1.61319 -1.27143 0
M  V30 231 H 19.4873 -0.969163 -3.74358 0
M  V30 232 H 21.1763 -1.38162 -3.81662 0
M  V30 233 H 21.9423 -3.75141 -3.07399 0
M  V30 234 H 17.8213 -2.71344 -3.72684 0
M  V30 235 H 21.3653 -6.14041 -3.31058 0
M  V30 236 H 17.2623 -5.09357 -3.96517 0
M  V30 237 H 18.0303 -7.16935 -3.94901 0
M  V30 238 N 20.6934 1.19889 -1.02296 0
M  V30 239 C 22.1094 1.41462 -0.738954 0
M  V30 240 C 22.3094 1.89721 0.678846 0
M  V30 241 O 21.3654 2.07016 1.4457 0
M  V30 242 C 22.6784 2.43083 -1.77005 0
M  V30 243 C 24.2264 2.5684 -1.78892 0
M  V30 244 C 24.7014 3.61709 -2.80945 0
M  V30 245 N 26.1924 3.69199 -2.79725 0
M  V30 246 C 26.9274 4.50019 -3.55345 0
M  V30 247 N 26.4234 5.34592 -4.40662 0
M  V30 248 N 28.2164 4.44612 -3.43914 0
M  V30 249 H 20.3674 0.868827 -1.93817 0
M  V30 250 H 22.6304 0.44399 -0.837602 0
M  V30 251 H 22.3364 2.14636 -2.78612 0
M  V30 252 H 22.2104 3.4217 -1.58744 0
M  V30 253 H 24.5974 2.84614 -0.779674 0
M  V30 254 H 24.6784 1.57927 -2.01228 0
M  V30 255 H 24.3224 3.34678 -3.82038 0
M  V30 256 H 24.2524 4.60259 -2.5587 0
M  V30 257 H 26.7434 3.08794 -2.17842 0
M  V30 258 H 27.0564 5.93363 -4.95116 0
M  V30 259 H 25.4014 5.34073 -4.44737 0
M  V30 260 H 28.5924 3.7758 -2.76679 0
M  V30 261 H 28.7654 5.0736 -4.031 0
M  V30 262 N 22.1715 0.800033 1.35784 0
M  V30 263 C 23.1195 0.193851 2.31791 0
M  V30 264 C 24.1135 -0.652744 1.56319 0
M  V30 265 O 25.3195 -0.546641 1.71499 0
M  V30 266 H 21.6945 0.04392 0.750716 0
M  V30 267 H 23.6655 1.01883 2.80468 0
M  V30 268 C 22.4145 -0.648338 3.41602 0
M  V30 269 H 21.7375 -0.00624665 3.998 0
M  V30 270 H 23.1775 -1.03898 4.11073 0
M  V30 271 C 21.6365 -1.8111 2.84079 0
M  V30 272 O 22.1665 -2.90825 2.77099 0
M  V30 273 N 20.3725 -1.62056 2.41218 0
M  V30 274 H 19.9195 -0.728123 2.47095 0
M  V30 275 H 19.8775 -2.40013 2.03079 0
M  V30 276 N 23.6496 -1.47581 0.552962 0
M  V30 277 C 24.5796 -2.32762 -0.185451 0
M  V30 278 C 25.5606 -1.43527 -0.912905 0
M  V30 279 O 26.7456 -1.72388 -0.894201 0
M  V30 280 C 23.8756 -3.25219 -1.21859 0
M  V30 281 C 22.8296 -4.23661 -0.607864 0
M  V30 282 C 22.1556 -5.05413 -1.74533 0
M  V30 283 C 23.4556 -5.20481 0.435582 0
M  V30 284 H 25.1496 -2.94749 0.525684 0
M  V30 285 H 22.6956 -1.41738 0.254251 0
M  V30 286 H 24.6486 -3.8365 -1.7433 0
M  V30 287 H 23.3726 -2.61279 -1.95961 0
M  V30 288 H 22.0316 -3.66451 -0.104489 0
M  V30 289 H 21.6796 -4.3788 -2.47529 0
M  V30 290 H 21.3796 -5.72059 -1.34249 0
M  V30 291 H 22.9036 -5.66701 -2.27338 0
M  V30 292 H 24.3176 -5.733 -0.00290157 0
M  V30 293 H 22.7146 -5.95305 0.757067 0
M  V30 294 H 23.7846 -4.66217 1.33303 0
M  V30 295 N 25.1277 -0.289203 -1.54924 0
M  V30 296 C 26.3747 0.323519 -1.99899 0
M  V30 297 C 26.7027 1.54797 -1.17762 0
M  V30 298 O 25.9577 1.94237 -0.238835 0
M  V30 299 C 26.2567 0.736119 -3.49737 0
M  V30 300 C 25.9227 -0.385276 -4.49251 0
M  V30 301 C 24.5847 -0.693156 -4.76181 0
M  V30 302 C 26.9367 -1.14021 -5.08575 0
M  V30 303 C 24.2647 -1.7593 -5.59701 0
M  V30 304 C 26.6167 -2.19619 -5.93254 0
M  V30 305 C 25.2807 -2.51026 -6.185 0
M  V30 306 H 24.5507 0.118384 -0.731482 0
M  V30 307 H 27.1977 -0.405847 -1.8715 0
M  V30 308 H 25.5027 1.54539 -3.60035 0
M  V30 309 H 27.1997 1.22118 -3.81953 0
M  V30 310 H 23.7897 -0.135202 -4.28387 0
M  V30 311 H 27.9737 -0.915611 -4.87781 0
M  V30 312 H 23.2297 -2.0075 -5.77503 0
M  V30 313 H 27.4037 -2.78581 -6.38252 0
M  V30 314 H 25.0307 -3.33772 -6.83008 0
M  V30 315 N 26.6058 1.57591 -0.0167156 0
M  V30 316 C 27.5528 2.09462 0.969251 0
M  V30 317 C 28.5228 0.99381 1.33089 0
M  V30 318 O 29.7078 1.26726 1.42636 0
M  V30 319 C 26.8478 2.61622 2.25051 0
M  V30 320 C 25.9608 3.85666 1.94642 0
M  V30 321 C 25.0958 4.26266 3.16972 0
M  V30 322 C 24.1348 5.43101 2.82326 0
M  V30 323 N 23.2718 5.78915 3.97243 0
M  V30 324 H 28.1118 2.93428 0.519997 0
M  V30 325 H 25.6488 1.45044 0.245087 0
M  V30 326 H 27.6068 2.89949 2.99976 0
M  V30 327 H 26.2368 1.80505 2.67615 0
M  V30 328 H 25.2888 3.64145 1.10013 0
M  V30 329 H 26.6008 4.70678 1.65117 0
M  V30 330 H 25.7548 4.55963 4.00228 0
M  V30 331 H 24.4938 3.39996 3.49648 0
M  V30 332 H 23.4988 5.1311 1.97479 0
M  V30 333 H 24.7238 6.3106 2.50879 0
M  V30 334 H 22.6698 4.95602 4.29785 0
M  V30 335 H 22.5868 6.58539 3.71299 0
M  V30 336 H 23.8548 6.13212 4.81239 0
M  V30 337 N 28.0839 -0.256276 1.55502 0
M  V30 338 C 28.9939 -1.33882 1.92647 0
M  V30 339 C 30.0099 -1.53159 0.825727 0
M  V30 340 O 31.1859 -1.66963 1.12629 0
M  V30 341 C 28.2509 -2.6751 2.20543 0
M  V30 342 C 27.3119 -2.56836 3.43997 0
M  V30 343 C 26.5449 -3.84092 3.70553 0
M  V30 344 O 26.7679 -4.85545 2.99336 0
M  V30 345 O 25.7019 -3.83288 4.64084 0
M  V30 346 H 29.5279 -1.05374 2.84833 0
M  V30 347 H 27.1129 -0.456237 1.42263 0
M  V30 348 H 28.9949 -3.46492 2.39835 0
M  V30 349 H 27.6699 -2.9577 1.31536 0
M  V30 350 H 26.5769 -1.76172 3.30021 0
M  V30 351 H 27.9099 -2.33523 4.33275 0
M  V30 352 N 29.562 -1.4872 -0.521534 0
M  V30 353 C 30.809 -1.57168 -1.27689 0
M  V30 354 C 31.137 -0.249275 -1.92896 0
M  V30 355 O 30.392 0.761162 -1.80291 0
M  V30 356 C 30.691 -2.66497 -2.38148 0
M  V30 357 C 30.357 -4.08664 -1.90538 0
M  V30 358 C 29.019 -4.47357 -1.77271 0
M  V30 359 C 31.371 -4.97724 -1.54663 0
M  V30 360 C 28.699 -5.72905 -1.26478 0
M  V30 361 C 31.051 -6.2377 -1.05329 0
M  V30 362 C 29.715 -6.61311 -0.906861 0
M  V30 363 H 28.985 -0.575117 -0.467249 0
M  V30 364 H 31.632 -1.82472 -0.581051 0
M  V30 365 H 29.937 -2.35085 -3.13437 0
M  V30 366 H 31.634 -2.70246 -2.96257 0
M  V30 367 H 28.224 -3.78111 -2.01816 0
M  V30 368 H 32.408 -4.68501 -1.63768 0
M  V30 369 H 27.664 -6.00709 -1.13835 0
M  V30 370 H 31.838 -6.9217 -0.76644 0
M  V30 371 H 29.465 -7.5848 -0.511083 0
M  V30 372 N 31.0401 0.771051 -1.3745 0
M  V30 373 C 32.2881 1.52661 -1.32435 0
M  V30 374 C 32.6091 1.9479 0.0905024 0
M  V30 375 O 31.8791 1.66348 1.03466 0
M  V30 376 H 30.4591 0.566218 -0.487244 0
M  V30 377 H 33.1211 0.917636 -1.71946 0
M  V30 378 H 32.2171 2.42568 -1.96385 0
M  V30 379 N 32.5182 1.22032 0.997298 0
M  V30 380 C 33.7482 1.06686 1.76923 0
M  V30 381 C 34.1562 -0.385838 1.85224 0
M  V30 382 O 33.4992 -1.27929 1.31833 0
M  V30 383 C 33.5612 1.59802 3.22031 0
M  V30 384 C 33.2252 3.08362 3.37286 0
M  V30 385 C 34.2222 4.05835 3.24952 0
M  V30 386 C 31.9072 3.47727 3.6248 0
M  V30 387 C 33.9012 5.4066 3.37588 0
M  V30 388 C 31.5882 4.82701 3.74757 0
M  V30 389 C 32.5862 5.78977 3.62319 0
M  V30 390 O 32.2742 7.11502 3.74193 0
M  V30 391 H 32.0062 0.374767 0.562606 0
M  V30 392 H 34.5602 1.61991 1.26286 0
M  V30 393 H 32.7902 0.989003 3.73839 0
M  V30 394 H 34.4792 1.40184 3.80924 0
M  V30 395 H 35.2452 3.76766 3.05405 0
M  V30 396 H 31.1242 2.73317 3.7124 0
M  V30 397 H 34.6682 6.15788 3.27796 0
M  V30 398 H 30.5652 5.11453 3.9381 0
M  V30 399 H 31.3332 7.19019 3.91093 0
M  V30 400 N 33.9963 -1.19345 1.0293 0
M  V30 401 C 35.2213 -1.93538 0.745511 0
M  V30 402 C 35.6463 -1.75007 -0.689511 0
M  V30 403 O 35.0043 -1.05265 -1.47611 0
M  V30 404 C 35.0523 -3.43336 1.10239 0
M  V30 405 O 34.1563 -4.11806 0.221289 0
M  V30 406 H 33.4973 -0.604193 0.275404 0
M  V30 407 H 36.0273 -1.5141 1.37609 0
M  V30 408 H 36.0373 -3.94004 1.05947 0
M  V30 409 H 34.7123 -3.56146 2.14786 0
M  V30 410 H 33.2893 -3.715 0.322842 0
M  V30 411 N 35.4744 -0.807222 -1.35358 0
M  V30 412 C 36.3844 -0.219594 -2.3357 0
M  V30 413 C 37.4004 0.637734 -1.61892 0
M  V30 414 O 38.5764 0.549336 -1.93763 0
M  V30 415 C 35.6414 0.62158 -3.41083 0
M  V30 416 C 34.7024 -0.256315 -4.28534 0
M  V30 417 C 33.9354 0.544807 -5.30912 0
M  V30 418 O 34.1584 1.77944 -5.41934 0
M  V30 419 O 33.0924 -0.0646478 -6.01865 0
M  V30 420 H 36.9184 -1.03208 -2.85625 0
M  V30 421 H 34.5034 -0.569025 -1.38139 0
M  V30 422 H 36.3854 1.10067 -4.06772 0
M  V30 423 H 35.0604 1.41165 -2.91297 0
M  V30 424 H 33.9674 -0.782559 -3.65823 0
M  V30 425 H 35.3004 -1.01034 -4.81719 0
M  V30 426 N 36.9525 1.47285 -0.560781 0
M  V30 427 C 37.9155 2.28535 0.174488 0
M  V30 428 C 38.9155 1.37153 0.839388 0
M  V30 429 O 40.1055 1.59748 0.694702 0
M  V30 430 C 37.2375 3.16934 1.25561 0
M  V30 431 H 38.4305 2.95012 -0.539262 0
M  V30 432 H 35.9835 1.53034 -0.317865 0
M  V30 433 H 36.7185 2.55157 2.00164 0
M  V30 434 H 36.5035 3.8419 0.783604 0
M  V30 435 H 37.9935 3.78143 1.77193 0
M  V30 436 N 38.4306 0.297415 1.54768 0
M  V30 437 C 39.3406 -0.58983 2.27064 0
M  V30 438 C 40.3566 -1.15144 1.30453 0
M  V30 439 O 41.5326 -1.17699 1.63428 0
M  V30 440 C 38.5976 -1.74714 2.9946 0
M  V30 441 C 37.6586 -1.21997 4.11601 0
M  V30 442 C 36.8916 -2.32212 4.80535 0
M  V30 443 O 37.1146 -3.52036 4.48806 0
M  V30 444 O 36.0486 -1.99106 5.68014 0
M  V30 445 H 39.8746 -0.00348199 3.037 0
M  V30 446 H 37.4596 0.0640035 1.49263 0
M  V30 447 H 39.3416 -2.42147 3.44881 0
M  V30 448 H 38.0166 -2.32016 2.25722 0
M  V30 449 H 36.9236 -0.511458 3.70587 0
M  V30 450 H 38.2566 -0.692419 4.87305 0
M  V30 451 N 39.9087 -1.5758 0.0250728 0
M  V30 452 C 41.1577 -1.90811 -0.653767 0
M  V30 453 C 41.4707 -0.90273 -1.73523 0
M  V30 454 O 42.6767 -1.12614 -2.47043 0
M  V30 455 C 41.1327 -3.38804 -1.21409 0
M  V30 456 C 40.7407 -4.47692 -0.166126 0
M  V30 457 C 42.4847 -3.81108 -1.86967 0
M  V30 458 C 40.3917 -5.86779 -0.737856 0
M  V30 459 H 39.3217 -0.712063 -0.247956 0
M  V30 460 H 41.9727 -1.83281 0.0897137 0
M  V30 461 H 40.3547 -3.41252 -2.00905 0
M  V30 462 H 41.5287 -4.56797 0.606079 0
M  V30 463 H 39.8437 -4.14565 0.390466 0
M  V30 464 H 42.4407 -4.82375 -2.30692 0
M  V30 465 H 42.7837 -3.15953 -2.71071 0
M  V30 466 H 43.3167 -3.81065 -1.14167 0
M  V30 467 H 40.0557 -6.55468 0.0649577 0
M  V30 468 H 39.5757 -5.81288 -1.47864 0
M  V30 469 H 41.2547 -6.35223 -1.22884 0
M  V30 470 N 41.3868 0.248026 -1.55636 0
M  V30 471 C 42.3188 1.32993 -1.8667 0
M  V30 472 C 43.3318 1.44345 -0.752877 0
M  V30 473 O 44.5208 1.45715 -1.03098 0
M  V30 474 C 41.6208 2.70863 -2.03682 0
M  V30 475 C 40.7938 2.81792 -3.34532 0
M  V30 476 C 39.8528 4.005 -3.41301 0
M  V30 477 O 38.8788 3.9008 -4.14519 0
M  V30 478 N 40.0808 5.13618 -2.70512 0
M  V30 479 H 42.8458 1.06707 -2.8006 0
M  V30 480 H 40.4068 0.438129 -1.55859 0
M  V30 481 H 42.3988 3.48612 -2.05553 0
M  V30 482 H 40.9688 2.89862 -1.17041 0
M  V30 483 H 40.1888 1.90729 -3.44987 0
M  V30 484 H 41.4768 2.86043 -4.20781 0
M  V30 485 H 40.8748 5.24975 -2.10755 0
M  V30 486 H 39.4318 5.89505 -2.78077 0
M  V30 487 N 42.8649 1.48995 0.513639 0
M  V30 488 C 43.7749 1.67443 1.64317 0
M  V30 489 C 44.7909 0.556947 1.64846 0
M  V30 490 O 45.9669 0.830082 1.83498 0
M  V30 491 C 43.0319 1.72515 3.00732 0
M  V30 492 C 42.0929 2.96009 3.1093 0
M  V30 493 C 41.3259 3.00829 4.40837 0
M  V30 494 O 41.5489 2.13594 5.28898 0
M  V30 495 O 40.4829 3.93168 4.55744 0
M  V30 496 H 44.3089 2.63106 1.51687 0
M  V30 497 H 41.8939 1.32588 0.688543 0
M  V30 498 H 43.7759 1.78277 3.81831 0
M  V30 499 H 42.4509 0.800278 3.13651 0
M  V30 500 H 41.3579 2.9577 2.29065 0
M  V30 501 H 42.6909 3.87934 3.02933 0
M  V30 502 N 44.343 -0.763751 1.37857 0
M  V30 503 C 45.759 -1.06542 1.18832 0
M  V30 504 C 45.959 -2.01478 0.0299722 0
M  V30 505 O 45.015 -2.4458 -0.627447 0
M  V30 506 C 46.328 -1.65525 2.51042 0
M  V30 507 C 47.876 -1.77745 2.57635 0
M  V30 508 C 48.351 -2.4014 3.89996 0
M  V30 509 N 49.842 -2.47582 3.91481 0
M  V30 510 C 50.577 -2.96732 4.9065 0
M  V30 511 N 50.073 -3.45993 6.00217 0
M  V30 512 N 51.866 -2.95679 4.78048 0
M  V30 513 H 44.017 -0.133556 2.1198 0
M  V30 514 H 46.28 -0.121879 0.940133 0
M  V30 515 H 45.986 -1.03236 3.36207 0
M  V30 516 H 45.86 -2.64719 2.68707 0
M  V30 517 H 48.247 -2.39164 1.72872 0
M  V30 518 H 48.328 -0.772836 2.43846 0
M  V30 519 H 47.972 -1.79358 4.75177 0
M  V30 520 H 47.902 -3.41223 4.01092 0
M  V30 521 H 50.393 -2.1273 3.12337 0
M  V30 522 H 50.706 -3.81922 6.7183 0
M  V30 523 H 49.051 -3.44077 6.03851 0
M  V30 524 H 52.242 -2.56499 3.91568 0
M  V30 525 H 52.415 -3.33672 5.55488 0
M  V30 526 N 45.8211 -1.22559 -0.990812 0
M  V30 527 C 47.0671 -1.05297 -1.73322 0
M  V30 528 C 47.4001 0.410655 -1.89808 0
M  V30 529 O 46.6751 1.30439 -1.44277 0
M  V30 530 C 46.9581 -1.76713 -3.13759 0
M  V30 531 C 46.8111 -3.30684 -3.04907 0
M  V30 532 C 48.1301 -1.52121 -4.12974 0
M  V30 533 H 45.2491 -0.38392 -0.629106 0
M  V30 534 H 47.8911 -1.50926 -1.15418 0
M  V30 535 H 46.0411 -1.37924 -3.63193 0
M  V30 536 H 47.7131 -3.7893 -2.63077 0
M  V30 537 H 45.9561 -3.60253 -2.41661 0
M  V30 538 H 46.6271 -3.75833 -4.04294 0
M  V30 539 H 49.1031 -1.85819 -3.72304 0
M  V30 540 H 47.9791 -2.04582 -5.0935 0
M  V30 541 H 48.2401 -0.454257 -4.3976 0
M  V30 542 N 47.2992 1.18797 -1.03562 0
M  V30 543 C 48.2462 2.22253 -0.622259 0
M  V30 544 C 49.2162 1.61987 0.36736 0
M  V30 545 O 50.4012 1.88986 0.262492 0
M  V30 546 C 47.5412 3.45097 0.0138462 0
M  V30 547 C 46.6542 4.19722 -1.02263 0
M  V30 548 C 45.7892 5.30009 -0.355573 0
M  V30 549 C 44.8282 5.96399 -1.37749 0
M  V30 550 N 43.9652 6.98234 -0.735766 0
M  V30 551 H 48.8052 2.56968 -1.50903 0
M  V30 552 H 46.3422 1.26245 -0.755017 0
M  V30 553 H 48.3002 4.15279 0.399948 0
M  V30 554 H 46.9302 3.11018 0.864158 0
M  V30 555 H 45.9822 3.48418 -1.52673 0
M  V30 556 H 47.2942 4.65227 -1.79903 0
M  V30 557 H 46.4482 6.0664 0.0850095 0
M  V30 558 H 45.1872 4.85592 0.452967 0
M  V30 559 H 44.1922 5.18512 -1.82826 0
M  V30 560 H 45.4172 6.42899 -2.18764 0
M  V30 561 H 43.3632 6.55979 0.0525597 0
M  V30 562 H 43.2802 7.41965 -1.44995 0
M  V30 563 H 44.5482 7.78845 -0.31941 0
M  V30 564 N 48.7773 0.814389 1.34928 0
M  V30 565 C 50.0543 0.321363 1.92942 0
M  V30 566 C 50.4343 -1.19014 1.74353 0
M  V30 567 O 49.7823 -1.99328 1.11716 0
M  V30 568 C 49.9923 0.741323 3.41036 0
M  V30 569 C 51.3403 0.735266 4.18185 0
M  V30 570 O 52.3643 0.68336 3.49584 0
M  V30 571 O 51.2233 0.800703 5.40602 0
M  V30 572 H 48.3173 0.0858893 0.822528 0
M  V30 573 H 50.8633 0.898609 1.43955 0
M  V30 574 H 49.6353 1.78276 3.4833 0
M  V30 575 H 49.2583 0.139307 3.97356 0
M  V30 576 N 50.2554 -1.46986 0.568584 0
M  V30 577 C 51.4834 -2.0683 0.0539956 0
M  V30 578 C 51.8984 -1.41953 -1.24478 0
M  V30 579 O 51.2554 -0.519933 -1.74937 0
M  V30 580 C 51.3064 -3.61254 -0.133362 0
M  V30 581 O 51.0274 -4.237 1.11399 0
M  V30 582 C 52.5284 -4.37992 -0.683927 0
M  V30 583 H 49.7484 -0.669058 0.0510141 0
M  V30 584 H 52.2924 -1.88824 0.785234 0
M  V30 585 H 50.4474 -3.78735 -0.81477 0
M  V30 586 H 50.8614 -5.16388 0.91888 0
M  V30 587 H 52.3354 -5.46684 -0.764263 0
M  V30 588 H 52.8124 -4.05058 -1.69778 0
M  V30 589 H 53.4184 -4.25283 -0.0378494 0
M  V30 590 N 51.7335 -0.305618 -1.54608 0
M  V30 591 C 52.9795 0.295595 -2.01241 0
M  V30 592 C 53.3345 1.51171 -1.19018 0
M  V30 593 O 52.6275 1.89832 -0.259684 0
M  V30 594 C 52.8215 0.698983 -3.50498 0
M  V30 595 C 52.6505 -0.476491 -4.47168 0
M  V30 596 C 51.4205 -0.969963 -4.95903 0
M  V30 597 C 53.6185 -1.32294 -4.96994 0
M  V30 598 N 51.6005 -2.11172 -5.76437 0
M  V30 599 C 52.9715 -2.31212 -5.75275 0
M  V30 600 C 55.0265 -1.35278 -4.7917 0
M  V30 601 C 53.7295 -3.32896 -6.37631 0
M  V30 602 C 55.7555 -2.35823 -5.42348 0
M  V30 603 C 55.1175 -3.33469 -6.20466 0
M  V30 604 H 51.2165 0.0724992 -0.778632 0
M  V30 605 H 53.8005 -0.436583 -1.89742 0
M  V30 606 H 51.9715 1.40032 -3.62278 0
M  V30 607 H 53.7035 1.28013 -3.8392 0
M  V30 608 H 50.4585 -0.544178 -4.70463 0
M  V30 609 H 50.8825 -2.68714 -6.21387 0
M  V30 610 H 55.5245 -0.61157 -4.18354 0
M  V30 611 H 53.2425 -4.07933 -6.97579 0
M  V30 612 H 56.8285 -2.38911 -5.30484 0
M  V30 613 H 55.7085 -4.09996 -6.68485 0
M  V30 614 N 53.2116 1.57565 -0.0334293 0
M  V30 615 C 54.1216 2.13943 0.962572 0
M  V30 616 C 55.1376 1.09276 1.35406 0
M  V30 617 O 56.3136 1.41355 1.4346 0
M  V30 618 C 53.3786 2.65887 2.22497 0
M  V30 619 C 52.4396 3.85286 1.8935 0
M  V30 620 C 51.6726 4.34743 3.09571 0
M  V30 621 O 51.8956 3.83352 4.22371 0
M  V30 622 O 50.8296 5.26538 2.91618 0
M  V30 623 H 54.6556 2.99333 0.513169 0
M  V30 624 H 52.2406 1.4822 0.18743 0
M  V30 625 H 54.1226 2.99346 2.96598 0
M  V30 626 H 52.7976 1.83578 2.6661 0
M  V30 627 H 51.7046 3.56746 1.1262 0
M  V30 628 H 53.0376 4.68771 1.5005 0
M  V30 629 N 54.6897 -0.239769 1.55765 0
M  V30 630 C 55.6217 -1.32001 1.87372 0
M  V30 631 C 56.6347 -1.43944 0.760522 0
M  V30 632 O 57.8237 -1.45167 1.0387 0
M  V30 633 C 54.9237 -2.69779 2.05115 0
M  V30 634 C 54.0967 -2.80014 3.36022 0
M  V30 635 C 53.1557 -3.98684 3.4342 0
M  V30 636 O 52.1817 -3.87877 4.16582 0
M  V30 637 N 53.3837 -5.12176 2.73232 0
M  V30 638 H 56.1487 -1.0522 2.80622 0
M  V30 639 H 53.7097 -0.429857 1.56089 0
M  V30 640 H 55.7017 -3.47517 2.07399 0
M  V30 641 H 54.2717 -2.89237 1.18577 0
M  V30 642 H 53.4917 -1.88896 3.45994 0
M  V30 643 H 54.7797 -2.83808 4.22292 0
M  V30 644 H 54.1777 -5.2385 2.13536 0
M  V30 645 H 52.7347 -5.88022 2.81199 0
M  V30 646 N 56.1678 -1.49265 -0.50573 0
M  V30 647 C 57.0978 -1.68495 -1.61653 0
M  V30 648 C 58.0788 -0.53366 -1.61512 0
M  V30 649 O 59.2638 -0.76897 -1.78327 0
M  V30 650 C 56.3938 -1.74709 -3.00157 0
M  V30 651 C 55.3478 -2.89581 -3.15162 0
M  V30 652 C 54.6738 -2.80903 -4.5497 0
M  V30 653 C 55.9738 -4.30578 -2.95634 0
M  V30 654 H 57.6678 -2.61493 -1.45814 0
M  V30 655 H 55.2138 -1.25838 -0.70005 0
M  V30 656 H 57.1668 -1.86748 -3.77761 0
M  V30 657 H 55.8908 -0.783067 -3.17074 0
M  V30 658 H 54.5498 -2.77136 -2.39982 0
M  V30 659 H 54.1978 -1.82419 -4.68756 0
M  V30 660 H 53.8978 -3.57999 -4.65951 0
M  V30 661 H 55.4218 -2.94944 -5.34641 0
M  V30 662 H 56.8358 -4.4373 -3.63011 0
M  V30 663 H 55.2328 -5.0886 -3.18091 0
M  V30 664 H 56.3028 -4.45352 -1.91806 0
M  V30 665 N 57.6459 0.756429 -1.3826 0
M  V30 666 C 58.8929 1.51547 -1.34312 0
M  V30 667 C 59.2209 1.94382 0.0677144 0
M  V30 668 O 58.4759 1.65514 1.04421 0
M  V30 669 C 58.7749 2.78313 -2.24224 0
M  V30 670 C 58.4409 2.54455 -3.72241 0
M  V30 671 C 57.1029 2.47657 -4.12576 0
M  V30 672 C 59.4549 2.3354 -4.65949 0
M  V30 673 C 56.7829 2.17956 -5.44713 0
M  V30 674 C 59.1349 2.05359 -5.9834 0
M  V30 675 C 57.7989 1.97016 -6.37762 0
M  V30 676 H 57.0689 0.55455 -0.491482 0
M  V30 677 H 59.7159 0.870039 -1.70595 0
M  V30 678 H 58.0209 3.47492 -1.80987 0
M  V30 679 H 59.7179 3.36259 -2.18474 0
M  V30 680 H 56.3079 2.60616 -3.40261 0
M  V30 681 H 60.4919 2.37772 -4.35635 0
M  V30 682 H 55.7479 2.10003 -5.74203 0
M  V30 683 H 59.9219 1.88179 -6.70494 0
M  V30 684 H 57.5489 1.73766 -7.40074 0
M  V30 685 N 59.124 1.23083 0.984299 0
M  V30 686 C 60.372 1.05848 1.72165 0
M  V30 687 C 60.693 -0.406049 1.90726 0
M  V30 688 O 59.963 -1.29139 1.47309 0
M  V30 689 H 58.543 0.388685 0.637913 0
M  V30 690 H 61.205 1.54736 1.18503 0
M  V30 691 H 60.301 1.54327 2.71274 0
M  V30 692 N 60.6021 -1.18246 1.0419 0
M  V30 693 C 61.8791 -1.84121 0.660208 0
M  V30 694 C 62.2591 -1.92778 -0.860221 0
M  V30 695 O 61.6071 -1.45464 -1.76217 0
M  V30 696 C 61.8171 -3.22355 1.33747 0
M  V30 697 C 63.1651 -3.98376 1.46906 0
M  V30 698 O 64.1891 -3.31799 1.29568 0
M  V30 699 O 63.0481 -5.17665 1.75171 0
M  V30 700 H 60.1421 -0.794036 0.231161 0
M  V30 701 H 62.6881 -1.25628 1.14087 0
M  V30 702 H 61.4601 -3.10964 2.37522 0
M  V30 703 H 61.0831 -3.88506 0.845515 0
M  V30 704 N 62.0802 -0.821533 -1.34494 0
M  V30 705 C 63.0282 -0.230702 -2.31453 0
M  V30 706 C 64.0222 0.627793 -1.57338 0
M  V30 707 O 65.2282 0.519288 -1.72347 0
M  V30 708 H 61.6032 -0.0558577 -0.749923 0
M  V30 709 H 63.5742 -1.06332 -2.78812 0
M  V30 710 C 62.3232 0.59391 -3.4259 0
M  V30 711 H 61.6462 -0.0573588 -3.99759 0
M  V30 712 H 63.0862 0.973446 -4.12674 0
M  V30 713 C 61.5452 1.76568 -2.86924 0
M  V30 714 O 62.0752 2.8638 -2.81691 0
M  V30 715 N 60.2812 1.58198 -2.43766 0
M  V30 716 H 59.8282 0.68872 -2.48222 0
M  V30 717 H 59.7862 2.36752 -2.06871 0
M  V30 718 N 63.5583 1.46682 -0.576371 0
M  V30 719 C 64.9693 1.86112 -0.148091 0
M  V30 720 C 65.3203 1.48073 1.2872 0
M  V30 721 O 64.4453 0.892656 1.97131 0
M  V30 722 C 65.0403 3.37786 -0.261982 0
M  V30 723 C 63.5993 3.76235 0.111384 0
M  V30 724 C 62.7463 2.70713 -0.60083 0
M  V30 725 H 65.6973 1.37927 -0.78497 0
M  V30 726 H 65.7183 3.77007 0.514364 0
M  V30 727 H 65.2303 3.6544 -1.30671 0
M  V30 728 H 63.3313 3.54198 1.15649 0
M  V30 729 H 63.4443 4.78391 -0.26052 0
M  V30 730 H 61.8083 2.54666 -0.0417783 0
M  V30 731 H 62.5913 3.01208 -1.64708 0
M  V30 732 N 65.0364 0.313813 1.54444 0
M  V30 733 C 65.9464 -0.565714 2.27677 0
M  V30 734 C 66.9624 -1.13754 1.31666 0
M  V30 735 O 68.1384 -1.15959 1.64668 0
M  V30 736 C 65.2034 -1.71528 3.01296 0
M  V30 737 C 64.2644 -1.17624 4.12872 0
M  V30 738 C 63.4974 -2.27102 4.8297 0
M  V30 739 O 63.7204 -3.47256 4.52514 0
M  V30 740 O 62.6544 -1.9307 5.70094 0
M  V30 741 H 66.4804 0.0287296 3.03686 0
M  V30 742 H 64.0654 0.0798312 1.49187 0
M  V30 743 H 65.9474 -2.38476 3.4743 0
M  V30 744 H 64.6224 -2.29608 2.2817 0
M  V30 745 H 63.5294 -0.472124 3.71109 0
M  V30 746 H 64.8624 -0.640695 4.88012 0
M  V30 747 N 66.5145 -1.57545 0.0417849 0
M  V30 748 C 67.7425 -1.96624 -0.643928 0
M  V30 749 C 68.1575 -0.918897 -1.64929 0
M  V30 750 O 67.5145 0.0979323 -1.82237 0
M  V30 751 C 67.5655 -3.35781 -1.33914 0
M  V30 752 O 67.2865 -4.365 -0.374048 0
M  V30 753 C 68.7875 -3.89566 -2.1155 0
M  V30 754 H 66.0075 -0.647316 -0.176702 0
M  V30 755 H 68.5515 -2.04229 0.105304 0
M  V30 756 H 66.7065 -3.29357 -2.03968 0
M  V30 757 H 67.1205 -5.17248 -0.869179 0
M  V30 758 H 68.5945 -4.89242 -2.55628 0
M  V30 759 H 69.0715 -3.24488 -2.9598 0
M  V30 760 H 69.6775 -3.99298 -1.46427 0
M  V30 761 N 67.9926 0.231505 -1.5589 0
M  V30 762 C 68.9396 1.28682 -1.91598 0
M  V30 763 C 69.9096 1.47071 -0.771974 0
M  V30 764 O 71.0946 1.60802 -1.027 0
M  V30 765 C 68.2346 2.6342 -2.22944 0
M  V30 766 C 67.3476 2.52912 -3.50228 0
M  V30 767 C 66.4826 3.80106 -3.7107 0
M  V30 768 C 65.5216 3.64279 -4.91902 0
M  V30 769 N 64.6586 4.834 -5.09184 0
M  V30 770 H 69.4986 0.975305 -2.81588 0
M  V30 771 H 67.0356 0.470299 -1.39379 0
M  V30 772 H 68.9936 3.41869 -2.39126 0
M  V30 773 H 67.6236 2.92687 -1.36139 0
M  V30 774 H 66.6756 1.6595 -3.42294 0
M  V30 775 H 67.9876 2.37133 -4.38827 0
M  V30 776 H 67.1416 4.66999 -3.87295 0
M  V30 777 H 65.8806 3.98799 -2.80733 0
M  V30 778 H 64.8856 2.7577 -4.75637 0
M  V30 779 H 66.1106 3.47067 -5.83714 0
M  V30 780 H 64.0566 5.02425 -4.21788 0
M  V30 781 H 63.9736 4.70311 -5.91898 0
M  V30 782 H 65.2416 5.71747 -5.29835 0
M  V30 783 N 69.4707 1.49531 0.497807 0
M  V30 784 C 70.7197 1.58426 1.24837 0
M  V30 785 C 71.0327 0.277643 1.93619 0
M  V30 786 O 72.2387 0.24517 2.70391 0
M  V30 787 C 70.6947 2.79538 2.26686 0
M  V30 788 C 70.3027 4.16971 1.63828 0
M  V30 789 C 72.0467 2.97764 3.0255 0
M  V30 790 C 69.9537 5.29301 2.63807 0
M  V30 791 H 68.8837 0.58989 0.469623 0
M  V30 792 H 71.5347 1.75923 0.521857 0
M  V30 793 H 69.9167 2.55542 3.02514 0
M  V30 794 H 71.0907 4.51116 0.939711 0
M  V30 795 H 69.4057 4.04129 1.00342 0
M  V30 796 H 72.0027 3.78856 3.77323 0
M  V30 797 H 72.3457 2.08448 3.60354 0
M  V30 798 H 72.8787 3.21815 2.33838 0
M  V30 799 H 69.6177 6.20687 2.10779 0
M  V30 800 H 69.1377 4.99606 3.31894 0
M  V30 801 H 70.8167 5.58768 3.2617 0
M  V30 802 N 70.9488 -0.749086 1.3866 0
M  V30 803 C 72.1788 -1.53611 1.38157 0
M  V30 804 C 72.5868 -1.89177 -0.0293595 0
M  V30 805 O 71.9298 -1.53606 -1.00752 0
M  V30 806 C 71.9918 -2.86087 2.17702 0
M  V30 807 C 71.6558 -2.73034 3.66472 0
M  V30 808 C 72.6528 -2.42526 4.59866 0
M  V30 809 C 70.3378 -2.90345 4.09884 0
M  V30 810 C 72.3318 -2.29492 5.94653 0
M  V30 811 C 70.0188 -2.7693 5.4475 0
M  V30 812 C 71.0168 -2.46547 6.36949 0
M  V30 813 O 70.7048 -2.33199 7.69333 0
M  V30 814 H 70.4368 -0.481773 0.474205 0
M  V30 815 H 72.9908 -0.934465 1.82912 0
M  V30 816 H 71.2208 -3.48458 1.67672 0
M  V30 817 H 72.9098 -3.47625 2.09551 0
M  V30 818 H 73.6758 -2.28816 4.27631 0
M  V30 819 H 69.5548 -3.1299 3.38464 0
M  V30 820 H 73.0988 -2.05698 6.66584 0
M  V30 821 H 68.9958 -2.90215 5.76581 0
M  V30 822 H 69.7638 -2.48376 7.79905 0
M  V30 823 N 72.4269 -1.23603 -0.977757 0
M  V30 824 C 73.6569 -1.09487 -1.75203 0
M  V30 825 C 74.0649 0.356321 -1.85814 0
M  V30 826 O 73.4079 1.25816 -1.33851 0
M  V30 827 C 73.4699 -1.64905 -3.19447 0
M  V30 828 C 73.1339 -3.13688 -3.32338 0
M  V30 829 C 74.1309 -4.10953 -3.18455 0
M  V30 830 C 71.8159 -3.53449 -3.56902 0
M  V30 831 C 73.8099 -5.45962 -3.28944 0
M  V30 832 C 71.4969 -4.88602 -3.6703 0
M  V30 833 C 72.4949 -5.84668 -3.53062 0
M  V30 834 O 72.1829 -7.17365 -3.62826 0
M  V30 835 H 71.9149 -0.38367 -0.556573 0
M  V30 836 H 74.4689 -1.6398 -1.23693 0
M  V30 837 H 72.6989 -1.04835 -3.72218 0
M  V30 838 H 74.3879 -1.46226 -3.78646 0
M  V30 839 H 75.1539 -3.81577 -2.99372 0
M  V30 840 H 71.0329 -2.79188 -3.66844 0
M  V30 841 H 74.5769 -6.20925 -3.17958 0
M  V30 842 H 70.4739 -5.17653 -3.85623 0
M  V30 843 H 71.2419 -7.2515 -3.79605 0
M  V30 844 N 73.905 1.17692 -1.04816 0
M  V30 845 C 74.815 2.25229 -0.65643 0
M  V30 846 C 75.831 1.71018 0.320761 0
M  V30 847 O 77.007 2.00649 0.173805 0
M  V30 848 C 74.072 3.46684 -0.0332629 0
M  V30 849 C 73.133 4.15997 -1.06042 0
M  V30 850 C 72.366 5.31654 -0.466893 0
M  V30 851 O 72.589 5.65777 0.724758 0
M  V30 852 O 71.523 5.89831 -1.1993 0
M  V30 853 H 75.349 2.61016 -1.55255 0
M  V30 854 H 72.934 1.24919 -0.81949 0
M  V30 855 H 74.816 4.20234 0.313256 0
M  V30 856 H 73.491 3.12703 0.836566 0
M  V30 857 H 72.398 3.44482 -1.45886 0
M  V30 858 H 73.731 4.53996 -1.90127 0
M  V30 859 N 75.3831 0.828654 1.34056 0
M  V30 860 C 76.6291 0.42008 1.98402 0
M  V30 861 C 76.9621 -1.01564 1.65525 0
M  V30 862 O 76.2371 -1.70834 0.929831 0
M  V30 863 C 76.5201 0.62927 3.54559 0
M  V30 864 C 76.3731 2.11152 3.97159 0
M  V30 865 C 77.6921 0.0688756 4.40046 0
M  V30 866 H 74.8111 0.154104 0.720709 0
M  V30 867 H 77.4531 1.04228 1.5886 0
M  V30 868 H 75.6031 0.0996418 3.88372 0
M  V30 869 H 77.2751 2.70522 3.73651 0
M  V30 870 H 75.5181 2.59985 3.47261 0
M  V30 871 H 76.1891 2.20868 5.05887 0
M  V30 872 H 78.6651 0.521458 4.1282 0
M  V30 873 H 77.5411 0.245006 5.48353 0
M  V30 874 H 77.8021 -1.0266 4.30015 0
M  V30 875 N 76.8612 -1.46375 0.584142 0
M  V30 876 C 78.1092 -2.01978 0.0701287 0
M  V30 877 C 78.4302 -1.4579 -1.295 0
M  V30 878 O 77.7002 -0.64314 -1.85042 0
M  V30 879 H 76.2802 -0.746648 0.0229345 0
M  V30 880 H 78.9422 -1.79461 0.760245 0
M  V30 881 H 78.0382 -3.121 0.0022064 0
M  V30 882 N 78.3393 -0.321999 -1.54275 0
M  V30 883 C 79.6163 0.335232 -1.92706 0
M  V30 884 C 79.9963 1.70006 -1.25145 0
M  V30 885 O 79.3443 2.25067 -0.394596 0
M  V30 886 C 79.5543 0.429008 -3.46353 0
M  V30 887 C 80.9023 0.690029 -4.18956 0
M  V30 888 O 81.9263 0.511992 -3.52501 0
M  V30 889 O 80.7853 1.03338 -5.36641 0
M  V30 890 H 77.8793 0.191143 -0.804608 0
M  V30 891 H 80.4253 -0.3716 -1.65581 0
M  V30 892 H 79.1973 -0.529611 -3.87699 0
M  V30 893 H 78.8203 1.18348 -3.79578 0
M  V30 894 N 79.8174 1.5752 -0.0501392 0
M  V30 895 C 81.0944 1.83996 0.663685 0
M  V30 896 C 81.4744 0.938339 1.89099 0
M  V30 897 O 80.8224 -0.00087759 2.285 0
M  V30 898 C 81.0324 3.33702 1.02196 0
M  V30 899 C 82.3804 4.00691 1.40469 0
M  V30 900 O 83.4044 3.38321 1.11433 0
M  V30 901 O 82.2634 5.10658 1.94654 0
M  V30 902 H 79.3574 0.759385 0.32751 0
M  V30 903 H 81.9034 1.69514 -0.0794238 0
M  V30 904 H 80.6754 3.91015 0.149364 0
M  V30 905 H 80.2984 3.53368 1.82255 0
M  V30 906 N 81.2955 -0.223234 1.56011 0
M  V30 907 C 82.2255 -1.27988 1.95298 0
M  V30 908 C 83.2065 -1.48976 0.820979 0
M  V30 909 O 84.3915 -1.61188 1.08315 0
M  V30 910 C 81.5215 -2.63 2.26822 0
M  V30 911 C 80.4755 -2.56671 3.42497 0
M  V30 912 C 79.8015 -3.95697 3.59622 0
M  V30 913 C 81.1015 -2.11601 4.77517 0
M  V30 914 H 82.7955 -0.953525 2.8381 0
M  V30 915 H 80.3415 -0.457244 1.36548 0
M  V30 916 H 82.2945 -3.37077 2.52898 0
M  V30 917 H 81.0185 -2.9732 1.35161 0
M  V30 918 H 79.6775 -1.85051 3.16467 0
M  V30 919 H 79.3255 -4.27322 2.6534 0
M  V30 920 H 79.0255 -3.92345 4.37424 0
M  V30 921 H 80.5495 -4.71438 3.88044 0
M  V30 922 H 81.9635 -2.7542 5.02809 0
M  V30 923 H 80.3605 -2.19311 5.5859 0
M  V30 924 H 81.4305 -1.06824 4.72987 0
M  V30 925 N 82.7736 -1.49793 -0.48987 0
M  V30 926 C 84.0216 -1.59525 -1.24081 0
M  V30 927 C 84.3426 -0.288953 -1.92847 0
M  V30 928 O 83.6126 0.692436 -1.83254 0
M  V30 929 H 82.1926 -0.587796 -0.460983 0
M  V30 930 H 84.8546 -1.86477 -0.566778 0
M  V30 931 H 83.9506 -2.39696 -1.99881 0
M  V30 932 N 84.2517 0.741722 -1.39055 0
M  V30 933 C 85.4817 1.52876 -1.3897 0
M  V30 934 C 85.8897 1.8919 0.0193266 0
M  V30 935 O 85.2327 1.54138 0.999356 0
M  V30 936 C 85.2947 2.84929 -2.19216 0
M  V30 937 C 84.9587 2.71086 -3.67915 0
M  V30 938 C 85.9557 2.40084 -4.61146 0
M  V30 939 C 83.6407 2.88168 -4.11418 0
M  V30 940 C 85.6347 2.26335 -5.95862 0
M  V30 941 C 83.3217 2.74037 -5.46211 0
M  V30 942 C 84.3197 2.43166 -6.38247 0
M  V30 943 O 84.0077 2.29115 -7.70559 0
M  V30 944 H 83.7397 0.479252 -0.476753 0
M  V30 945 H 86.2937 0.924751 -1.83405 0
M  V30 946 H 84.5237 3.47564 -1.69518 0
M  V30 947 H 86.2127 3.46509 -2.11392 0
M  V30 948 H 86.9787 2.26545 -4.28838 0
M  V30 949 H 82.8577 3.11191 -3.40119 0
M  V30 950 H 86.4017 2.0216 -6.67665 0
M  V30 951 H 82.2987 2.87153 -5.78112 0
M  V30 952 H 83.0667 2.44237 -7.81211 0
M  V30 953 N 85.7298 1.2412 0.971189 0
M  V30 954 C 86.6598 1.05508 2.08304 0
M  V30 955 C 87.6408 -0.0308864 1.70072 0
M  V30 956 O 88.8258 0.135521 1.93727 0
M  V30 957 C 85.9558 0.655365 3.4106 0
M  V30 958 C 84.9098 1.68971 3.93234 0
M  V30 959 C 84.2358 1.14516 5.22293 0
M  V30 960 C 85.5358 3.08487 4.21465 0
M  V30 961 H 87.2298 1.98507 2.24132 0
M  V30 962 H 84.7758 0.955821 1.07704 0
M  V30 963 H 86.7288 0.51217 4.18276 0
M  V30 964 H 85.4528 -0.31032 3.25122 0
M  V30 965 H 84.1118 1.82106 3.18171 0
M  V30 966 H 83.7598 0.170189 5.02712 0
M  V30 967 H 83.4598 1.83635 5.58168 0
M  V30 968 H 84.9838 1.01401 6.02121 0
M  V30 969 H 86.3978 2.98601 4.89398 0
M  V30 970 H 84.7948 3.74926 4.68562 0
M  V30 971 H 85.8648 3.56787 3.28376 0
M  V30 972 N 87.2079 -1.17134 1.05439 0
M  V30 973 C 88.1379 -2.2342 0.678649 0
M  V30 974 C 89.1189 -1.66971 -0.32476 0
M  V30 975 O 90.3039 -1.93149 -0.201802 0
M  V30 976 C 87.4339 -3.47256 0.0552099 0
M  V30 977 C 86.3879 -4.16543 0.98365 0
M  V30 978 C 85.7139 -5.34231 0.223961 0
M  V30 979 C 87.0139 -4.68495 2.3089 0
M  V30 980 H 88.7079 -2.55105 1.56722 0
M  V30 981 H 86.2539 -1.2262 0.754998 0
M  V30 982 H 88.2069 -4.20828 -0.21946 0
M  V30 983 H 86.9309 -3.14846 -0.868319 0
M  V30 984 H 85.5899 -3.44887 1.24293 0
M  V30 985 H 85.2379 -4.98071 -0.702412 0
M  V30 986 H 84.9379 -5.81527 0.842627 0
M  V30 987 H 86.4619 -6.10585 -0.0433671 0
M  V30 988 H 87.8759 -5.33691 2.09396 0
M  V30 989 H 86.2729 -5.26379 2.88176 0
M  V30 990 H 87.3429 -3.85169 2.94572 0
M  V30 991 N 88.686 -0.835752 -1.33615 0
M  V30 992 C 89.963 -0.352017 -1.92406 0
M  V30 993 C 90.343 1.16225 -1.76224 0
M  V30 994 O 89.691 1.97526 -1.14873 0
M  V30 995 C 89.901 -0.795485 -3.39813 0
M  V30 996 C 91.249 -0.801703 -4.16963 0
M  V30 997 O 92.273 -0.738889 -3.48452 0
M  V30 998 O 91.132 -0.886607 -5.3926 0
M  V30 999 H 88.226 -0.0989641 -0.821057 0
M  V30 1000 H 90.772 -0.921397 -1.42507 0
M  V30 1001 H 89.544 -1.83795 -3.45449 0
M  V30 1002 H 89.167 -0.202505 -3.97084 0
M  V30 1003 N 90.1641 1.46063 -0.591896 0
M  V30 1004 C 91.3921 2.06717 -0.0868936 0
M  V30 1005 C 91.8071 1.43916 1.22203 0
M  V30 1006 O 91.1641 0.547698 1.74088 0
M  V30 1007 C 91.2151 3.6142 0.0758725 0
M  V30 1008 O 90.9361 4.21874 -1.18126 0
M  V30 1009 C 92.4371 4.39025 0.61416 0
M  V30 1010 H 89.6571 0.668162 -0.0616518 0
M  V30 1011 H 92.2011 1.8755 -0.815175 0
M  V30 1012 H 90.3561 3.79983 0.754413 0
M  V30 1013 H 90.7701 5.14861 -1.00092 0
M  V30 1014 H 92.2441 5.4783 0.677193 0
M  V30 1015 H 92.7211 4.07708 1.63312 0
M  V30 1016 H 93.3271 4.2529 -0.0298142 0
M  V30 1017 N 91.6422 0.330177 1.54103 0
M  V30 1018 C 92.8902 -0.269871 2.0029 0
M  V30 1019 C 93.2112 -1.52133 1.21986 0
M  V30 1020 O 92.4812 -1.93212 0.323438 0
M  V30 1021 H 91.0612 -0.10271 0.739905 0
M  V30 1022 H 93.7232 0.448249 1.89675 0
M  V30 1023 H 92.8192 -0.52166 3.07709 0
M  V30 1024 N 93.1203 -1.57491 0.0584922 0
M  V30 1025 C 94.0683 -2.13148 -0.931168 0
M  V30 1026 C 95.0623 -1.06507 -1.31729 0
M  V30 1027 O 96.2683 -1.24906 -1.29609 0
M  V30 1028 H 92.6433 -0.68137 -0.31818 0
M  V30 1029 H 94.6143 -2.95187 -0.436707 0
M  V30 1030 C 93.3633 -2.69732 -2.19408 0
M  V30 1031 H 92.6863 -3.51454 -1.90578 0
M  V30 1032 H 94.1263 -3.12287 -2.86798 0
M  V30 1033 C 92.5853 -1.63855 -2.94369 0
M  V30 1034 O 93.1153 -1.05565 -3.87581 0
M  V30 1035 N 91.3213 -1.35202 -2.57233 0
M  V30 1036 H 90.8683 -1.82791 -1.81508 0
M  V30 1037 H 90.8263 -0.645922 -3.07693 0
M  V30 1038 N 94.5984 0.214957 -1.56127 0
M  V30 1039 C 95.5284 1.2695 -1.95974 0
M  V30 1040 C 96.5094 1.48539 -0.828868 0
M  V30 1041 O 97.6944 1.60611 -1.09168 0
M  V30 1042 C 94.8244 2.61794 -2.28214 0
M  V30 1043 C 93.7784 2.54851 -3.43853 0
M  V30 1044 C 93.1044 3.93785 -3.61715 0
M  V30 1045 C 94.4044 2.09065 -4.78632 0
M  V30 1046 H 96.0984 0.93846 -2.84312 0
M  V30 1047 H 93.6444 0.449996 -1.36788 0
M  V30 1048 H 95.5974 3.35731 -2.54682 0
M  V30 1049 H 94.3214 2.96599 -1.36736 0
M  V30 1050 H 92.9804 1.8337 -3.17444 0
M  V30 1051 H 92.6284 4.25908 -2.67602 0
M  V30 1052 H 92.3284 3.90019 -4.39498 0
M  V30 1053 H 93.8524 4.69374 -3.90539 0
M  V30 1054 H 95.2664 2.7275 -5.04262 0
M  V30 1055 H 93.6634 2.16346 -5.59745 0
M  V30 1056 H 94.7334 1.04315 -4.73547 0
M  V30 1057 N 96.0765 1.50051 0.48192 0
M  V30 1058 C 97.3535 1.51009 1.2432 0
M  V30 1059 C 97.7335 0.248587 2.09631 0
M  V30 1060 O 97.0815 -0.768409 2.15192 0
M  V30 1061 C 97.2915 2.79981 2.08355 0
M  V30 1062 C 98.6395 3.3022 2.66908 0
M  V30 1063 O 99.6635 2.81228 2.18607 0
M  V30 1064 O 98.5225 4.15595 3.54884 0
M  V30 1065 H 95.6165 0.605239 0.563573 0
M  V30 1066 H 98.1625 1.62332 0.494627 0
M  V30 1067 H 96.9345 3.63275 1.45419 0
M  V30 1068 H 96.5575 2.7161 2.90368 0
M  V30 1069 N 97.5546 -0.734337 1.39446 0
M  V30 1070 C 98.8006 -1.49613 1.36908 0
M  V30 1071 C 99.1336 -1.94169 -0.0347829 0
M  V30 1072 O 98.4086 -1.66833 -0.999847 0
M  V30 1073 C 98.6916 -2.73534 2.34203 0
M  V30 1074 C 98.5446 -2.34993 3.83534 0
M  V30 1075 C 99.8636 -3.75635 2.29317 0
M  V30 1076 H 96.9826 -0.542714 0.498629 0
M  V30 1077 H 99.6246 -0.839597 1.70443 0
M  V30 1078 H 97.7746 -3.29553 2.05736 0
M  V30 1079 H 99.4466 -1.84601 4.22753 0
M  V30 1080 H 97.6896 -1.67213 4.00278 0
M  V30 1081 H 98.3606 -3.23738 4.47099 0
M  V30 1082 H 100.837 -3.29203 2.54489 0
M  V30 1083 H 99.7126 -4.60008 2.99472 0
M  V30 1084 H 99.9736 -4.22603 1.29842 0
M  V30 1085 N 99.0327 -1.24633 -0.964593 0
M  V30 1086 C 100.449 -1.01239 -1.2338 0
M  V30 1087 C 100.649 0.2769 -1.99588 0
M  V30 1088 O 99.7047 0.992241 -2.32187 0
M  V30 1089 C 101.018 -2.22937 -2.01791 0
M  V30 1090 C 102.566 -2.27594 -2.14872 0
M  V30 1091 C 103.041 -3.48921 -2.96678 0
M  V30 1092 N 104.532 -3.49257 -3.04259 0
M  V30 1093 C 105.267 -4.39795 -3.67924 0
M  V30 1094 N 104.763 -5.40591 -4.33281 0
M  V30 1095 N 106.556 -4.275 -3.64966 0
M  V30 1096 H 98.7067 -2.0748 -0.454502 0
M  V30 1097 H 100.97 -0.910647 -0.26349 0
M  V30 1098 H 100.676 -3.16587 -1.53184 0
M  V30 1099 H 100.55 -2.25306 -3.02518 0
M  V30 1100 H 102.937 -1.34473 -2.6268 0
M  V30 1101 H 103.018 -2.2925 -1.13482 0
M  V30 1102 H 102.662 -4.42359 -2.49562 0
M  V30 1103 H 102.592 -3.4451 -3.98272 0
M  V30 1104 H 105.083 -2.76337 -2.57771 0
M  V30 1105 H 105.396 -6.05904 -4.79687 0
M  V30 1106 H 103.741 -5.44475 -4.3194 0
M  V30 1107 H 106.932 -3.47987 -3.13086 0
M  V30 1108 H 107.105 -4.98258 -4.14298 0
M  V30 1109 N 100.511 1.16574 -1.06058 0
M  V30 1110 C 101.739 1.90952 -0.796552 0
M  V30 1111 C 102.154 1.77302 0.648808 0
M  V30 1112 O 101.511 1.11605 1.44397 0
M  V30 1113 C 101.562 3.41736 -1.17894 0
M  V30 1114 O 101.283 3.54975 -2.56758 0
M  V30 1115 C 102.784 4.33169 -0.942308 0
M  V30 1116 H 100.004 0.605594 -0.288959 0
M  V30 1117 H 102.548 1.47777 -1.41358 0
M  V30 1118 H 100.703 3.82623 -0.606491 0
M  V30 1119 H 101.117 4.4846 -2.72 0
M  V30 1120 H 102.591 5.37439 -1.25952 0
M  V30 1121 H 103.068 4.3903 0.122078 0
M  V30 1122 H 103.674 3.98007 -1.49902 0
M  V30 1123 N 101.989 0.842826 1.3317 0
M  V30 1124 C 102.899 0.281444 2.32906 0
M  V30 1125 C 103.915 -0.594587 1.63526 0
M  V30 1126 O 105.091 -0.49777 1.95152 0
M  V30 1127 C 102.156 -0.530929 3.42611 0
M  V30 1128 C 101.217 0.369843 4.27704 0
M  V30 1129 C 100.45 -0.403853 5.3217 0
M  V30 1130 O 100.673 -1.63513 5.46461 0
M  V30 1131 O 99.6069 0.224199 6.01482 0
M  V30 1132 H 103.433 1.10744 2.82789 0
M  V30 1133 H 101.018 0.60545 1.36582 0
M  V30 1134 H 102.9 -0.992437 4.09547 0
M  V30 1135 H 101.575 -1.33392 2.94938 0
M  V30 1136 H 100.482 0.879275 3.6362 0
M  V30 1137 H 101.815 1.13771 4.78871 0
M  V30 1138 N 103.467 -1.45747 0.599634 0
M  V30 1139 C 104.715 -2.01893 0.0915472 0
M  V30 1140 C 105.036 -1.47155 -1.27946 0
M  V30 1141 O 104.306 -0.66273 -1.84349 0
M  V30 1142 H 102.886 -0.746363 0.0308524 0
M  V30 1143 H 105.548 -1.78645 0.779237 0
M  V30 1144 H 104.644 -3.1208 0.0353086 0
M  V30 1145 N 104.945 -0.338344 -1.53925 0
M  V30 1146 C 105.878 0.563758 -2.21127 0
M  V30 1147 C 106.856 1.10433 -1.19345 0
M  V30 1148 O 108.04 1.16557 -1.48144 0
M  V30 1149 C 105.167 1.77505 -2.88461 0
M  V30 1150 C 104.213 1.3644 -4.04087 0
M  V30 1151 S 105.046 0.388593 -5.34088 0
M  V30 1152 C 106.202 1.60683 -6.04923 0
M  V30 1153 H 106.435 -0.00704546 -2.97299 0
M  V30 1154 H 103.968 -0.122418 -1.53914 0
M  V30 1155 H 105.926 2.46999 -3.27875 0
M  V30 1156 H 104.587 2.31706 -2.12064 0
M  V30 1157 H 103.78 2.26739 -4.50117 0
M  V30 1158 H 103.382 0.748998 -3.66423 0
M  V30 1159 H 105.674 2.54209 -6.28 0
M  V30 1160 H 106.617 1.18842 -6.98056 0
M  V30 1161 H 107.025 1.80052 -5.35015 0
M  V30 1162 N 106.423 1.57458 -0.0668435 0
M  V30 1163 C 107.648 1.9804 0.616027 0
M  V30 1164 C 108.073 0.944771 1.62652 0
M  V30 1165 O 107.431 -0.0902094 1.81075 0
M  V30 1166 C 107.479 3.37665 1.26549 0
M  V30 1167 O 106.583 3.36701 2.38131 0
M  V30 1168 H 105.924 0.644719 0.158849 0
M  V30 1169 H 108.454 2.04121 -0.139891 0
M  V30 1170 H 108.464 3.7474 1.6135 0
M  V30 1171 H 107.139 4.12573 0.525016 0
M  V30 1172 H 105.716 3.1139 2.0516 0
M  V30 1173 N 107.901 -0.206675 1.56239 0
M  V30 1174 C 109.131 -0.943975 1.83773 0
M  V30 1175 C 109.539 -1.77841 0.645703 0
M  V30 1176 O 108.882 -1.79403 -0.395008 0
M  V30 1177 C 108.944 -1.899 3.05251 0
M  V30 1178 C 108.608 -1.24764 4.39639 0
M  V30 1179 C 109.605 -0.630216 5.16066 0
M  V30 1180 C 107.29 -1.25496 4.8637 0
M  V30 1181 C 109.284 -0.0287946 6.37393 0
M  V30 1182 C 106.971 -0.649698 6.07637 0
M  V30 1183 C 107.969 -0.0376845 6.8299 0
M  V30 1184 O 107.657 0.55812 8.0196 0
M  V30 1185 H 107.389 -0.281508 0.614597 0
M  V30 1186 H 109.943 -0.222458 2.04192 0
M  V30 1187 H 108.173 -2.6599 2.80689 0
M  V30 1188 H 109.862 -2.5031 3.1953 0
M  V30 1189 H 110.628 -0.616785 4.81062 0
M  V30 1190 H 106.507 -1.72072 4.27683 0
M  V30 1191 H 110.051 0.449518 6.9615 0
M  V30 1192 H 105.948 -0.660592 6.42111 0
M  V30 1193 H 106.716 0.453891 8.17241 0
M  V30 1194 N 109.379 -1.50304 -0.473955 0
M  V30 1195 C 110.627 -1.60832 -1.22382 0
M  V30 1196 C 110.948 -0.30939 -1.9253 0
M  V30 1197 O 110.218 0.67296 -1.83978 0
M  V30 1198 H 108.798 -0.592652 -0.454723 0
M  V30 1199 H 111.46 -1.87068 -0.546968 0
M  V30 1200 H 110.556 -2.41803 -1.97327 0
M  V30 1201 N 110.857 0.726932 -1.39834 0
M  V30 1202 C 111.79 1.8501 -1.33592 0
M  V30 1203 C 112.768 1.61262 -0.208191 0
M  V30 1204 O 113.952 1.84422 -0.389981 0
M  V30 1205 C 111.079 3.21143 -1.07633 0
M  V30 1206 C 110.125 3.63737 -2.22705 0
M  V30 1207 S 110.958 3.72167 -3.85035 0
M  V30 1208 C 112.114 5.11077 -3.61318 0
M  V30 1209 H 112.347 1.90022 -2.28646 0
M  V30 1210 H 109.88 0.892595 -1.25985 0
M  V30 1211 H 111.838 3.99747 -0.933415 0
M  V30 1212 H 110.499 3.13776 -0.142526 0
M  V30 1213 H 109.692 4.62551 -2.00155 0
M  V30 1214 H 109.294 2.9236 -2.33242 0
M  V30 1215 H 111.586 5.97656 -3.19083 0
M  V30 1216 H 112.529 5.38658 -4.59623 0
M  V30 1217 H 112.937 4.81135 -2.95245 0
M  V30 1218 N 112.336 1.25143 0.95797 0
M  V30 1219 C 113.269 0.995565 2.05338 0
M  V30 1220 C 114.247 -0.0740423 1.62431 0
M  V30 1221 O 115.431 0.0649212 1.88388 0
M  V30 1222 C 112.558 0.504298 3.34925 0
M  V30 1223 C 111.604 1.56393 3.96792 0
M  V30 1224 S 112.437 3.14815 4.33188 0
M  V30 1225 C 113.593 2.67415 5.65898 0
M  V30 1226 H 113.826 1.92309 2.26726 0
M  V30 1227 H 111.359 1.08635 1.09716 0
M  V30 1228 H 113.317 0.227497 4.09869 0
M  V30 1229 H 111.978 -0.402671 3.11508 0
M  V30 1230 H 111.171 1.17082 4.90212 0
M  V30 1231 H 110.773 1.79124 3.28315 0
M  V30 1232 H 113.065 2.10833 6.4386 0
M  V30 1233 H 114.008 3.59463 6.10076 0
M  V30 1234 H 114.416 2.07521 5.24972 0
M  V30 1235 N 113.814 -1.1601 1.06675 0
M  V30 1236 C 114.747 -2.1947 0.625168 0
M  V30 1237 C 115.725 -1.58699 -0.354041 0
M  V30 1238 O 116.909 -1.86669 -0.262098 0
M  V30 1239 C 114.036 -3.38598 -0.0829593 0
M  V30 1240 C 113.082 -4.1787 0.853611 0
M  V30 1241 S 113.915 -4.81135 2.35094 0
M  V30 1242 C 115.071 -6.03639 1.65441 0
M  V30 1243 H 115.304 -2.56587 1.50168 0
M  V30 1244 H 112.837 -1.26862 0.880078 0
M  V30 1245 H 114.795 -4.07621 -0.485288 0
M  V30 1246 H 113.456 -2.99839 -0.935716 0
M  V30 1247 H 112.649 -5.03078 0.304755 0
M  V30 1248 H 112.251 -3.54361 1.196 0
M  V30 1249 H 114.543 -6.70632 0.962201 0
M  V30 1250 H 115.486 -6.63081 2.48454 0
M  V30 1251 H 115.894 -5.52965 1.13534 0
M  V30 1252 N 115.292 -0.849877 -1.32721 0
M  V30 1253 C 116.255 -0.296122 -2.27279 0
M  V30 1254 C 117.255 0.541458 -1.5141 0
M  V30 1255 O 118.445 0.353658 -1.70572 0
M  V30 1256 C 115.577 0.581579 -3.35902 0
M  V30 1257 H 116.77 -1.13064 -2.77771 0
M  V30 1258 H 114.323 -0.62383 -1.43311 0
M  V30 1259 H 115.058 1.43809 -2.9067 0
M  V30 1260 H 114.843 -0.0178814 -3.92096 0
M  V30 1261 H 116.333 0.961951 -4.0637 0
M  V30 1262 N 116.77 1.45427 -0.607355 0
M  V30 1263 C 118.016 2.0254 -0.102607 0
M  V30 1264 C 118.349 1.47478 1.26348 0
M  V30 1265 O 117.624 0.64939 1.83339 0
M  V30 1266 C 117.907 3.60044 -0.0634347 0
M  V30 1267 C 117.76 4.2544 -1.46017 0
M  V30 1268 C 119.079 4.35646 0.624514 0
M  V30 1269 H 116.198 0.73598 -0.0387607 0
M  V30 1270 H 118.84 1.73284 -0.779282 0
M  V30 1271 H 116.99 3.85101 0.512808 0
M  V30 1272 H 118.662 4.11569 -2.08347 0
M  V30 1273 H 116.905 3.83849 -2.02094 0
M  V30 1274 H 117.576 5.34342 -1.385 0
M  V30 1275 H 120.052 4.15882 0.134723 0
M  V30 1276 H 118.928 5.45376 0.621028 0
M  V30 1277 H 119.189 4.08501 1.69055 0
M  V30 1278 N 118.248 0.346503 1.53744 0
M  V30 1279 C 119.18 -0.543316 2.22667 0
M  V30 1280 C 120.193 -1.06159 1.23427 0
M  V30 1281 O 121.382 -0.971235 1.49764 0
M  V30 1282 C 118.482 -1.76076 2.89569 0
M  V30 1283 C 117.655 -1.37727 4.15151 0
M  V30 1284 C 116.714 -2.45471 4.65436 0
M  V30 1285 O 115.74 -2.08655 5.29577 0
M  V30 1286 N 116.942 -3.7677 4.41616 0
M  V30 1287 H 119.707 0.0469703 2.99663 0
M  V30 1288 H 117.268 0.170766 1.60997 0
M  V30 1289 H 119.26 -2.47593 3.20125 0
M  V30 1290 H 117.83 -2.25835 2.16142 0
M  V30 1291 H 117.05 -0.492746 3.91108 0
M  V30 1292 H 118.338 -1.09708 4.96832 0
M  V30 1293 H 117.736 -4.09467 3.90325 0
M  V30 1294 H 116.293 -4.44448 4.7677 0
M  V30 1295 N 119.726 -1.57421 0.075193 0
M  V30 1296 C 120.659 -2.08528 -0.926904 0
M  V30 1297 C 121.637 -0.991171 -1.28898 0
M  V30 1298 O 122.821 -1.26479 -1.39769 0
M  V30 1299 C 119.948 -2.54576 -2.23402 0
M  V30 1300 C 118.994 -3.75454 -2.02327 0
M  V30 1301 S 119.827 -5.19989 -1.27951 0
M  V30 1302 C 120.983 -5.69372 -2.59935 0
M  V30 1303 H 121.216 -2.932 -0.492048 0
M  V30 1304 H 118.749 -1.53785 -0.137651 0
M  V30 1305 H 120.707 -2.81767 -2.98526 0
M  V30 1306 H 119.368 -1.70166 -2.64012 0
M  V30 1307 H 118.561 -4.05675 -2.99071 0
M  V30 1308 H 118.163 -3.48654 -1.35339 0
M  V30 1309 H 120.455 -5.76424 -3.56008 0
M  V30 1310 H 121.398 -6.68207 -2.34319 0
M  V30 1311 H 121.806 -4.97205 -2.67296 0
M  V30 1312 N 121.204 0.198386 -1.56346 0
M  V30 1313 C 122.481 0.944982 -1.71258 0
M  V30 1314 C 122.861 2.0151 -0.629048 0
M  V30 1315 O 122.209 2.25639 0.360473 0
M  V30 1316 C 122.419 1.5344 -3.1346 0
M  V30 1317 C 123.767 2.01778 -3.73591 0
M  V30 1318 O 124.791 1.63288 -3.16568 0
M  V30 1319 O 123.65 2.72594 -4.73661 0
M  V30 1320 H 120.744 0.442939 -0.69838 0
M  V30 1321 H 123.29 0.188342 -1.68652 0
M  V30 1322 H 122.062 0.762869 -3.83792 0
M  V30 1323 H 121.685 2.35596 -3.20282 0
M  V30 1324 N 122.682 1.50554 0.465978 0
M  V30 1325 C 124.098 1.38093 0.800154 0
M  V30 1326 C 124.298 0.440988 1.96615 0
M  V30 1327 O 123.354 -0.114499 2.5224 0
M  V30 1328 C 124.667 2.79565 1.10742 0
M  V30 1329 C 126.215 2.88516 1.21357 0
M  V30 1330 C 126.69 4.30833 1.55393 0
M  V30 1331 N 128.181 4.33807 1.62375 0
M  V30 1332 C 128.916 5.40927 1.90225 0
M  V30 1333 N 128.412 6.58247 2.16062 0
M  V30 1334 N 130.205 5.28376 1.9177 0
M  V30 1335 H 122.356 2.10237 -0.302366 0
M  V30 1336 H 124.619 0.945203 -0.0727746 0
M  V30 1337 H 124.325 3.50208 0.323661 0
M  V30 1338 H 124.199 3.17125 2.04234 0
M  V30 1339 H 126.586 2.1809 1.98799 0
M  V30 1340 H 126.667 2.54492 0.258321 0
M  V30 1341 H 126.311 5.01799 0.784889 0
M  V30 1342 H 126.241 4.62347 2.52076 0
M  V30 1343 H 128.732 3.49212 1.44427 0
M  V30 1344 H 129.045 7.3569 2.36601 0
M  V30 1345 H 127.39 6.61413 2.13444 0
M  V30 1346 H 130.581 4.35715 1.71085 0
M  V30 1347 H 130.754 6.11944 2.13139 0
M  V30 1348 N 124.16 -0.719506 1.40217 0
M  V30 1349 C 125.107 -1.83359 1.40172 0
M  V30 1350 C 126.077 -1.64065 0.259206 0
M  V30 1351 O 127.262 -1.85254 0.456677 0
M  V30 1352 C 124.402 -3.2103 1.26624 0
M  V30 1353 C 123.515 -3.51923 2.50548 0
M  V30 1354 C 122.65 -4.79079 2.29471 0
M  V30 1355 C 121.689 -5.02863 3.48992 0
M  V30 1356 N 120.826 -6.2123 3.27135 0
M  V30 1357 H 125.666 -1.82733 2.35399 0
M  V30 1358 H 123.203 -0.892688 1.16917 0
M  V30 1359 H 125.161 -4.00524 1.16776 0
M  V30 1360 H 123.791 -3.20895 0.350176 0
M  V30 1361 H 122.843 -2.67014 2.70939 0
M  V30 1362 H 124.155 -3.6541 3.39525 0
M  V30 1363 H 123.309 -5.66582 2.16955 0
M  V30 1364 H 122.048 -4.67794 1.37913 0
M  V30 1365 H 121.053 -4.13816 3.6199 0
M  V30 1366 H 122.278 -5.16023 4.41472 0
M  V30 1367 H 120.224 -6.11204 2.38256 0
M  V30 1368 H 120.141 -6.35375 4.09675 0
M  V30 1369 H 121.409 -7.11532 3.18344 0
M  V30 1370 N 125.638 -1.25649 -0.95132 0
M  V30 1371 C 126.915 -1.01361 -1.67288 0
M  V30 1372 C 127.295 0.459135 -2.06046 0
M  V30 1373 O 126.643 1.43723 -1.7764 0
M  V30 1374 C 126.853 -1.95256 -2.89268 0
M  V30 1375 C 128.201 -2.23289 -3.61147 0
M  V30 1376 O 129.225 -1.93041 -2.99355 0
M  V30 1377 O 128.084 -2.74741 -4.72419 0
M  V30 1378 H 125.178 -0.38464 -0.732107 0
M  V30 1379 H 127.724 -1.36817 -1.00395 0
M  V30 1380 H 126.496 -2.94685 -2.57442 0
M  V30 1381 H 126.119 -1.60218 -3.6389 0
M  V30 1382 N 127.117 1.15442 -1.07289 0
M  V30 1383 C 128.366 1.85557 -0.790669 0
M  V30 1384 C 128.679 1.83186 0.685739 0
M  V30 1385 O 129.885 2.48977 1.0827 0
M  V30 1386 C 128.341 3.33038 -1.36433 0
M  V30 1387 C 127.949 3.43856 -2.8717 0
M  V30 1388 C 129.693 4.0834 -1.1601 0
M  V30 1389 C 127.6 4.85482 -3.3773 0
M  V30 1390 H 126.53 0.695122 -0.292098 0
M  V30 1391 H 129.181 1.30219 -1.29287 0
M  V30 1392 H 127.563 3.88043 -0.789864 0
M  V30 1393 H 128.737 2.98961 -3.50655 0
M  V30 1394 H 127.052 2.81998 -3.06376 0
M  V30 1395 H 129.649 5.12859 -1.51262 0
M  V30 1396 H 129.992 4.16182 -0.0991007 0
M  V30 1397 H 130.525 3.59603 -1.70089 0
M  V30 1398 H 127.264 4.82823 -4.43353 0
M  V30 1399 H 126.784 5.30961 -2.78999 0
M  V30 1400 H 128.463 5.54335 -3.33648 0
M  V30 1401 N 128.595 0.856903 1.32268 0
M  V30 1402 C 129.842 0.461386 1.97174 0
M  V30 1403 C 130.17 -0.983491 1.67803 0
M  V30 1404 O 129.425 -1.70541 0.959903 0
M  V30 1405 C 129.724 0.649919 3.51441 0
M  V30 1406 C 129.39 2.0656 4.00804 0
M  V30 1407 C 128.052 2.45279 4.13995 0
M  V30 1408 C 130.404 2.98947 4.26943 0
M  V30 1409 C 127.732 3.75653 4.50668 0
M  V30 1410 C 130.084 4.28822 4.65075 0
M  V30 1411 C 128.748 4.67472 4.76472 0
M  V30 1412 H 128.018 0.168833 0.72151 0
M  V30 1413 H 130.665 1.08739 1.57633 0
M  V30 1414 H 128.97 -0.0593018 3.91755 0
M  V30 1415 H 130.667 0.32391 3.9969 0
M  V30 1416 H 127.257 1.75495 3.91024 0
M  V30 1417 H 131.441 2.70265 4.16258 0
M  V30 1418 H 126.697 4.05379 4.57688 0
M  V30 1419 H 130.871 5.0047 4.84255 0
M  V30 1420 H 128.498 5.68539 5.04646 0
M  V30 1421 N 130.073 -1.45103 0.615059 0
M  V30 1422 C 131.35 -1.95549 0.0448276 0
M  V30 1423 C 131.73 -1.55737 -1.4251 0
M  V30 1424 O 131.078 -0.823556 -2.13143 0
M  V30 1425 C 131.288 -3.48098 0.250785 0
M  V30 1426 C 132.636 -4.24384 0.135509 0
M  V30 1427 O 133.66 -3.55738 0.181299 0
M  V30 1428 O 132.519 -5.46493 0.0268878 0
M  V30 1429 H 129.613 -0.8264 -0.0314845 0
M  V30 1430 H 132.159 -1.55232 0.685642 0
M  V30 1431 H 130.931 -3.7007 1.27139 0
M  V30 1432 H 130.554 -3.95323 -0.424937 0
M  V30 1433 N 131.551 -0.354651 -1.53558 0
M  V30 1434 C 132.967 -0.00315426 -1.596 0
M  V30 1435 C 133.167 1.47741 -1.37021 0
M  V30 1436 O 132.223 2.23759 -1.16996 0
M  V30 1437 C 133.536 -0.44929 -2.97325 0
M  V30 1438 C 135.084 -0.402578 -3.104 0
M  V30 1439 C 135.559 -0.824355 -4.5052 0
M  V30 1440 N 137.05 -0.778979 -4.56603 0
M  V30 1441 C 137.785 -1.07715 -5.63192 0
M  V30 1442 N 137.281 -1.44405 -6.77583 0
M  V30 1443 N 139.074 -1.00066 -5.53121 0
M  V30 1444 H 131.225 -1.31893 -1.66487 0
M  V30 1445 H 133.488 -0.538388 -0.780284 0
M  V30 1446 H 133.194 -1.48202 -3.1895 0
M  V30 1447 H 133.068 0.169772 -3.76818 0
M  V30 1448 H 135.455 0.621004 -2.88492 0
M  V30 1449 H 135.536 -1.05699 -2.32941 0
M  V30 1450 H 135.18 -1.846 -4.73165 0
M  V30 1451 H 135.11 -0.147304 -5.26394 0
M  V30 1452 H 137.601 -0.508528 -3.74463 0
M  V30 1453 H 137.914 -1.65612 -7.54846 0
M  V30 1454 H 136.259 -1.4826 -6.79002 0
M  V30 1455 H 139.45 -0.713293 -4.62633 0
M  V30 1456 H 139.623 -1.23638 -6.36096 0
M  V30 1457 N 133.029 1.57378 -0.0835403 0
M  V30 1458 C 134.278 1.93106 0.582498 0
M  V30 1459 C 134.591 0.96651 1.70053 0
M  V30 1460 O 135.797 1.21705 2.42693 0
M  V30 1461 C 134.253 3.43076 1.08751 0
M  V30 1462 C 133.861 4.48 -0.000146404 0
M  V30 1463 C 135.605 3.87785 1.72694 0
M  V30 1464 C 133.512 5.89113 0.519568 0
M  V30 1465 H 132.442 0.720775 0.221358 0
M  V30 1466 H 135.093 1.82821 -0.157675 0
M  V30 1467 H 133.475 3.48474 1.88101 0
M  V30 1468 H 134.649 4.54233 -0.775199 0
M  V30 1469 H 132.964 4.1283 -0.54406 0
M  V30 1470 H 135.561 4.90604 2.1263 0
M  V30 1471 H 135.904 3.25796 2.59158 0
M  V30 1472 H 136.437 3.8504 0.999457 0
M  V30 1473 H 133.176 6.54775 -0.308186 0
M  V30 1474 H 132.696 5.86376 1.26188 0
M  V30 1475 H 134.375 6.39346 0.992237 0
M  V30 1476 N 134.507 -0.190092 1.56449 0
M  V30 1477 C 135.753 -0.906472 1.82084 0
M  V30 1478 C 136.108 -1.80677 0.661335 0
M  V30 1479 O 135.401 -1.88501 -0.343237 0
M  V30 1480 C 135.595 -1.75382 3.1141 0
M  V30 1481 C 135.424 -0.937053 4.39829 0
M  V30 1482 C 134.194 -0.619507 5.01488 0
M  V30 1483 C 136.392 -0.2874 5.13496 0
M  V30 1484 N 134.374 0.215367 6.13522 0
M  V30 1485 C 135.745 0.409454 6.18646 0
M  V30 1486 C 137.8 -0.203639 4.97483 0
M  V30 1487 C 136.503 1.1821 7.0952 0
M  V30 1488 C 138.529 0.555622 5.88784 0
M  V30 1489 C 137.891 1.24091 6.93384 0
M  V30 1490 H 133.99 -0.310931 0.717528 0
M  V30 1491 H 136.574 -0.174821 1.93914 0
M  V30 1492 H 134.745 -2.45703 3.00806 0
M  V30 1493 H 136.477 -2.41006 3.25112 0
M  V30 1494 H 133.232 -0.945126 4.64074 0
M  V30 1495 H 133.656 0.622562 6.74131 0
M  V30 1496 H 138.298 -0.719099 4.1664 0
M  V30 1497 H 136.016 1.70897 7.89823 0
M  V30 1498 H 139.602 0.621854 5.78467 0
M  V30 1499 H 138.482 1.81901 7.62812 0
M  V30 1500 N 135.985 -1.50799 -0.457987 0
M  V30 1501 C 136.933 -1.71162 -1.575 0
M  V30 1502 C 137.927 -0.577592 -1.59249 0
M  V30 1503 O 139.133 -0.758443 -1.63241 0
M  V30 1504 H 135.508 -0.540468 -0.522875 0
M  V30 1505 H 137.479 -2.64837 -1.37492 0
M  V30 1506 C 136.228 -1.83496 -2.95338 0
M  V30 1507 H 135.551 -2.70153 -2.94716 0
M  V30 1508 H 136.991 -2.01765 -3.72917 0
M  V30 1509 C 135.45 -0.589694 -3.31699 0
M  V30 1510 O 135.98 0.265163 -4.00824 0
M  V30 1511 N 134.186 -0.439845 -2.87252 0
M  V30 1512 H 133.733 -1.13655 -2.31172 0
M  V30 1513 H 133.691 0.392159 -3.11945 0
M  V30 1514 N 137.463 0.71206 -1.40597 0
M  V30 1515 C 138.709 1.47292 -1.40274 0
M  V30 1516 C 139.064 1.92399 -0.00576812 0
M  V30 1517 O 138.357 1.65507 0.965297 0
M  V30 1518 C 138.551 2.71039 -2.32965 0
M  V30 1519 C 138.38 2.38035 -3.81536 0
M  V30 1520 C 137.15 2.29203 -4.50327 0
M  V30 1521 C 139.348 2.02076 -4.72938 0
M  V30 1522 N 137.33 1.88911 -5.84111 0
M  V30 1523 C 138.701 1.72412 -5.95545 0
M  V30 1524 C 140.756 1.88742 -4.60739 0
M  V30 1525 C 139.459 1.30756 -7.07316 0
M  V30 1526 C 141.485 1.4849 -5.72455 0
M  V30 1527 C 140.847 1.19726 -6.94151 0
M  V30 1528 H 136.946 0.536919 -0.568544 0
M  V30 1529 H 139.53 0.825424 -1.76337 0
M  V30 1530 H 137.701 3.33533 -1.99023 0
M  V30 1531 H 139.433 3.37404 -2.23474 0
M  V30 1532 H 136.188 2.47059 -4.04053 0
M  V30 1533 H 136.612 1.71293 -6.54972 0
M  V30 1534 H 141.254 2.0964 -3.67166 0
M  V30 1535 H 138.972 1.08601 -8.00769 0
M  V30 1536 H 142.558 1.38747 -5.65014 0
M  V30 1537 H 141.438 0.890482 -7.79128 0
M  V30 1538 N 138.941 1.26152 0.944643 0
M  V30 1539 C 140.169 1.14259 1.72489 0
M  V30 1540 C 140.584 -0.302555 1.8636 0
M  V30 1541 O 139.941 -1.20741 1.36849 0
M  V30 1542 C 139.992 1.80266 3.13347 0
M  V30 1543 O 139.713 3.19133 3.00143 0
M  V30 1544 C 141.214 1.74283 4.07603 0
M  V30 1545 H 138.434 0.398051 0.540181 0
M  V30 1546 H 140.978 1.66706 1.18446 0
M  V30 1547 H 139.133 1.31766 3.64303 0
M  V30 1548 H 139.547 3.51744 3.89071 0
M  V30 1549 H 141.021 2.25111 5.04013 0
M  V30 1550 H 141.498 0.708631 4.33446 0
M  V30 1551 H 142.104 2.22319 3.62567 0
M  V30 1552 N 140.419 -1.14872 1.07899 0
M  V30 1553 C 141.352 -2.18794 0.64841 0
M  V30 1554 C 142.33 -1.59065 -0.337189 0
M  V30 1555 O 143.514 -1.86936 -0.242284 0
M  V30 1556 C 140.641 -3.38667 -0.0470417 0
M  V30 1557 C 139.687 -4.16942 0.897884 0
M  V30 1558 S 140.52 -4.78615 2.40183 0
M  V30 1559 C 141.676 -6.0185 1.71834 0
M  V30 1560 H 141.909 -2.5498 1.52881 0
M  V30 1561 H 139.442 -1.25922 0.893484 0
M  V30 1562 H 141.4 -4.08113 -0.442027 0
M  V30 1563 H 140.061 -3.00814 -0.903861 0
M  V30 1564 H 139.254 -5.02726 0.358096 0
M  V30 1565 H 138.856 -3.53073 1.23352 0
M  V30 1566 H 141.148 -6.69574 1.03328 0
M  V30 1567 H 142.091 -6.60408 2.55473 0
M  V30 1568 H 142.499 -5.5173 1.19392 0
M  V30 1569 N 141.898 -0.863906 -1.31812 0
M  V30 1570 C 142.845 -0.313303 -2.28664 0
M  V30 1571 C 143.815 0.584868 -1.55462 0
M  V30 1572 O 145 0.517805 -1.83639 0
M  V30 1573 C 142.14 0.48441 -3.41683 0
M  V30 1574 C 141.253 -0.440594 -4.29747 0
M  V30 1575 C 140.388 0.370652 -5.29905 0
M  V30 1576 C 139.427 -0.551164 -6.09613 0
M  V30 1577 N 138.564 0.223462 -7.01744 0
M  V30 1578 H 143.404 -1.14444 -2.75148 0
M  V30 1579 H 140.941 -0.575769 -1.35364 0
M  V30 1580 H 142.899 0.962627 -4.05943 0
M  V30 1581 H 141.529 1.28029 -2.96325 0
M  V30 1582 H 140.581 -1.03724 -3.65986 0
M  V30 1583 H 141.893 -1.14767 -4.85417 0
M  V30 1584 H 141.047 0.911638 -5.99812 0
M  V30 1585 H 139.786 1.11105 -4.74876 0
M  V30 1586 H 138.791 -1.10396 -5.38603 0
M  V30 1587 H 140.016 -1.29032 -6.66729 0
M  V30 1588 H 137.962 0.946787 -6.49132 0
M  V30 1589 H 137.879 -0.424399 -7.54808 0
M  V30 1590 H 139.147 0.745876 -7.75923 0
M  V30 1591 N 143.376 1.44774 -0.622745 0
M  V30 1592 C 144.324 2.32387 0.0994683 0
M  V30 1593 C 145.318 1.46859 0.844326 0
M  V30 1594 O 146.524 1.63254 0.758174 0
M  V30 1595 H 142.899 0.750273 0.0509291 0
M  V30 1596 H 144.87 2.91062 -0.65767 0
M  V30 1597 C 143.619 3.30723 1.07319 0
M  V30 1598 H 142.942 3.96541 0.509462 0
M  V30 1599 H 144.382 3.94725 1.54817 0
M  V30 1600 C 142.841 2.59021 2.15429 0
M  V30 1601 O 143.371 2.38286 3.23393 0
M  V30 1602 N 141.577 2.189 1.91131 0
M  V30 1603 H 141.124 2.35964 1.03337 0
M  V30 1604 H 141.082 1.71251 2.63668 0
M  V30 1605 N 144.854 0.36279 1.53368 0
M  V30 1606 C 145.787 -0.528507 2.21996 0
M  V30 1607 C 146.765 -1.0852 1.21087 0
M  V30 1608 O 147.949 -1.14186 1.4998 0
M  V30 1609 C 145.076 -1.72893 2.91249 0
M  V30 1610 C 144.122 -1.29994 4.06207 0
M  V30 1611 S 144.955 -0.303575 5.34639 0
M  V30 1612 C 146.111 -1.51039 6.07403 0
M  V30 1613 H 146.344 0.0543423 2.9725 0
M  V30 1614 H 143.877 0.146889 1.537 0
M  V30 1615 H 145.835 -2.41751 3.31763 0
M  V30 1616 H 144.496 -2.28303 2.15724 0
M  V30 1617 H 143.689 -2.19549 4.53667 0
M  V30 1618 H 143.291 -0.690608 3.67569 0
M  V30 1619 H 145.583 -2.44186 6.31965 0
M  V30 1620 H 146.526 -1.07721 6.99858 0
M  V30 1621 H 146.934 -1.71518 5.37812 0
M  V30 1622 N 146.332 -1.57332 0.0918853 0
M  V30 1623 C 147.562 -1.98286 -0.580205 0
M  V30 1624 C 147.97 -0.969713 -1.6246 0
M  V30 1625 O 147.313 0.0493501 -1.83634 0
M  V30 1626 C 147.375 -3.35603 -1.28882 0
M  V30 1627 C 147.039 -4.55285 -0.395559 0
M  V30 1628 C 148.036 -5.18687 0.355002 0
M  V30 1629 C 145.721 -5.01314 -0.314556 0
M  V30 1630 C 147.715 -6.26484 1.17458 0
M  V30 1631 C 145.402 -6.08979 0.508677 0
M  V30 1632 C 146.4 -6.71429 1.2519 0
M  V30 1633 O 146.088 -7.77018 2.06151 0
M  V30 1634 H 145.82 -0.656678 -0.160466 0
M  V30 1635 H 148.374 -2.04721 0.16688 0
M  V30 1636 H 146.604 -3.25842 -2.08241 0
M  V30 1637 H 148.293 -3.61026 -1.85512 0
M  V30 1638 H 149.059 -4.84058 0.302134 0
M  V30 1639 H 144.938 -4.5247 -0.882697 0
M  V30 1640 H 148.482 -6.75159 1.75518 0
M  V30 1641 H 144.379 -6.4304 0.563037 0
M  V30 1642 H 145.147 -7.93991 1.98799 0
M  V30 1643 N 147.81 0.181792 -1.56548 0
M  V30 1644 C 148.743 1.25366 -1.90679 0
M  V30 1645 C 149.721 1.43299 -0.768376 0
M  V30 1646 O 150.905 1.58475 -1.02068 0
M  V30 1647 C 148.032 2.61826 -2.1486 0
M  V30 1648 C 147.078 2.60688 -3.37556 0
M  V30 1649 S 147.911 2.10804 -4.92262 0
M  V30 1650 C 149.067 3.49062 -5.19525 0
M  V30 1651 H 149.3 0.962277 -2.81296 0
M  V30 1652 H 146.833 0.385892 -1.495 0
M  V30 1653 H 148.791 3.40371 -2.29473 0
M  V30 1654 H 147.452 2.88169 -1.24969 0
M  V30 1655 H 146.645 3.61058 -3.51643 0
M  V30 1656 H 146.247 1.90232 -3.22006 0
M  V30 1657 H 148.539 4.45003 -5.10861 0
M  V30 1658 H 149.482 3.39859 -6.2121 0
M  V30 1659 H 149.89 3.4459 -4.47122 0
M  V30 1660 N 149.288 1.51039 0.449983 0
M  V30 1661 C 150.516 1.66869 1.2232 0
M  V30 1662 C 150.931 0.360727 1.85322 0
M  V30 1663 O 150.288 -0.659531 1.70166 0
M  V30 1664 C 150.339 2.77524 2.31652 0
M  V30 1665 O 150.06 4.03252 1.7123 0
M  V30 1666 C 151.561 3.04512 3.2216 0
M  V30 1667 H 148.781 0.560326 0.369155 0
M  V30 1668 H 151.325 1.97385 0.534719 0
M  V30 1669 H 149.48 2.49642 2.96239 0
M  V30 1670 H 149.894 4.64609 2.43389 0
M  V30 1671 H 151.368 3.85551 3.95038 0
M  V30 1672 H 151.845 2.16415 3.8218 0
M  V30 1673 H 152.451 3.34005 2.63288 0
M  V30 1674 N 150.766 -0.704594 1.40972 0
M  V30 1675 C 151.676 -1.84856 1.44448 0
M  V30 1676 C 152.692 -1.70726 0.335961 0
M  V30 1677 O 153.868 -1.92799 0.582276 0
M  V30 1678 C 150.933 -3.20758 1.31587 0
M  V30 1679 C 149.994 -3.47063 2.52677 0
M  V30 1680 C 149.227 -4.76481 2.4042 0
M  V30 1681 O 149.45 -5.52341 1.42391 0
M  V30 1682 O 148.384 -5.03367 3.30007 0
M  V30 1683 H 152.21 -1.8488 2.40942 0
M  V30 1684 H 149.795 -0.85647 1.22413 0
M  V30 1685 H 151.677 -4.01913 1.26665 0
M  V30 1686 H 150.352 -3.21438 0.382049 0
M  V30 1687 H 149.259 -2.65873 2.63177 0
M  V30 1688 H 150.592 -3.5119 3.44858 0
M  V30 1689 N 152.244 -1.26651 -0.937939 0
M  V30 1690 C 153.492 -1.12165 -1.68118 0
M  V30 1691 C 153.813 0.334983 -1.92101 0
M  V30 1692 O 153.083 1.23583 -1.52 0
M  V30 1693 H 151.663 -0.412093 -0.623048 0
M  V30 1694 H 154.325 -1.59027 -1.12678 0
M  V30 1695 H 153.421 -1.64289 -2.6536 0
M  V30 1696 N 153.722 1.14298 -1.08507 0
M  V30 1697 C 154.968 1.85633 -0.816581 0
M  V30 1698 C 155.301 1.82784 0.656021 0
M  V30 1699 O 154.576 1.25926 1.48233 0
M  V30 1700 C 154.859 3.34223 -1.34041 0
M  V30 1701 C 154.712 3.45639 -2.87843 0
M  V30 1702 C 156.031 4.29356 -0.9665 0
M  V30 1703 H 153.15 0.67402 -0.298104 0
M  V30 1704 H 155.792 1.34214 -1.34487 0
M  V30 1705 H 153.942 3.78144 -0.89104 0
M  V30 1706 H 155.614 3.10498 -3.41158 0
M  V30 1707 H 153.857 2.86817 -3.25451 0
M  V30 1708 H 154.528 4.50089 -3.19569 0
M  V30 1709 H 157.004 3.93457 -1.35391 0
M  V30 1710 H 155.88 5.3178 -1.3602 0
M  V30 1711 H 156.141 4.41919 0.126362 0
M  V30 1712 N 155.201 0.870884 1.31352 0
M  V30 1713 C 156.151 0.298889 2.26032 0
M  V30 1714 C 157.135 -0.564595 1.50669 0
M  V30 1715 O 158.327 -0.411323 1.72154 0
M  V30 1716 C 155.456 -0.497842 3.39671 0
M  V30 1717 C 154.542 0.378937 4.22404 0
M  V30 1718 N 154.933 1.47284 4.83881 0
M  V30 1719 C 153.231 0.171535 4.4567 0
M  V30 1720 C 153.932 2.01359 5.45738 0
M  V30 1721 N 152.908 1.31047 5.27568 0
M  V30 1722 H 156.71 1.13494 2.71102 0
M  V30 1723 H 154.224 0.718745 1.45629 0
M  V30 1724 H 156.221 -0.924155 4.06528 0
M  V30 1725 H 154.881 -1.33149 2.96144 0
M  V30 1726 H 155.892 1.85575 4.8351 0
M  V30 1727 H 152.569 -0.626091 4.12779 0
M  V30 1728 H 153.959 2.93143 6.0458 0
M  V30 1729 N 156.679 -1.44442 0.630414 0
M  V30 1730 C 157.642 -2.29107 -0.0652523 0
M  V30 1731 C 158.642 -1.41002 -0.772995 0
M  V30 1732 O 159.832 -1.62881 -0.617692 0
M  V30 1733 C 156.964 -3.22564 -1.10296 0
M  V30 1734 H 158.157 -2.92103 0.679401 0
M  V30 1735 H 155.71 -1.51343 0.390517 0
M  V30 1736 H 156.445 -2.64416 -1.87762 0
M  V30 1737 H 156.23 -3.87491 -0.59941 0
M  V30 1738 H 157.72 -3.86167 -1.5895 0
M  V30 1739 N 158.157 -0.370918 -1.53173 0
M  V30 1740 C 159.405 0.216673 -2.00935 0
M  V30 1741 C 159.726 1.48845 -1.25977 0
M  V30 1742 O 158.996 1.92286 -0.374551 0
M  V30 1743 H 157.576 0.0830565 -0.742368 0
M  V30 1744 H 160.238 -0.49838 -1.8842 0
M  V30 1745 H 159.334 0.439893 -3.08984 0
M  V30 1746 N 159.635 1.57281 -0.100228 0
M  V30 1747 C 160.865 1.98591 0.569681 0
M  V30 1748 C 161.273 0.978315 1.61943 0
M  V30 1749 O 160.616 -0.0396108 1.83657 0
M  V30 1750 C 160.678 3.36282 1.271 0
M  V30 1751 C 160.342 4.55488 0.371409 0
M  V30 1752 C 161.339 5.18491 -0.382504 0
M  V30 1753 C 159.024 5.01474 0.287965 0
M  V30 1754 C 161.018 6.25852 -1.20779 0
M  V30 1755 C 158.705 6.08701 -0.540965 0
M  V30 1756 C 159.703 6.70755 -1.28749 0
M  V30 1757 O 159.391 7.75914 -2.10269 0
M  V30 1758 H 159.123 0.65752 0.156982 0
M  V30 1759 H 161.677 2.0463 -0.177734 0
M  V30 1760 H 159.907 3.26941 2.0651 0
M  V30 1761 H 161.596 3.62005 1.83595 0
M  V30 1762 H 162.362 4.83891 -0.3278 0
M  V30 1763 H 158.241 4.52932 0.858689 0
M  V30 1764 H 161.785 6.74218 -1.79096 0
M  V30 1765 H 157.682 6.42732 -0.597131 0
M  V30 1766 H 158.45 7.92925 -2.03007 0
M  V30 1767 N 161.113 -0.173488 1.56642 0
M  V30 1768 C 162.36 -0.890465 1.81871 0
M  V30 1769 C 162.688 -1.82339 0.67696 0
M  V30 1770 O 161.943 -1.92795 -0.335926 0
M  V30 1771 C 162.242 -1.72069 3.13252 0
M  V30 1772 C 161.908 -0.936878 4.41059 0
M  V30 1773 C 160.57 -0.720545 4.75775 0
M  V30 1774 C 162.922 -0.386919 5.19762 0
M  V30 1775 C 160.25 0.0568829 5.86672 0
M  V30 1776 C 162.602 0.37741 6.31473 0
M  V30 1777 C 161.266 0.604563 6.64757 0
M  V30 1778 H 160.536 -0.325844 0.665512 0
M  V30 1779 H 163.183 -0.155527 1.90867 0
M  V30 1780 H 161.488 -2.52496 2.99588 0
M  V30 1781 H 163.185 -2.27844 3.29982 0
M  V30 1782 H 159.775 -1.11553 4.13828 0
M  V30 1783 H 163.959 -0.541398 4.93338 0
M  V30 1784 H 159.215 0.242635 6.10918 0
M  V30 1785 H 163.389 0.810825 6.91664 0
M  V30 1786 H 161.016 1.20885 7.50527 0
M  V30 1787 N 162.591 -1.51276 -0.441967 0
M  V30 1788 C 163.554 -1.7167 -1.51862 0
M  V30 1789 C 164.554 -0.586793 -1.49711 0
M  V30 1790 O 165.744 -0.854276 -1.51815 0
M  V30 1791 C 162.876 -1.76889 -2.91416 0
M  V30 1792 H 164.069 -2.67754 -1.35084 0
M  V30 1793 H 161.622 -1.41196 -0.670333 0
M  V30 1794 H 162.357 -0.826026 -3.13604 0
M  V30 1795 H 162.142 -2.59001 -2.94382 0
M  V30 1796 H 163.632 -1.94522 -3.69528 0
M  V30 1797 N 164.069 0.697108 -1.41344 0
M  V30 1798 C 165.315 1.45796 -1.41828 0
M  V30 1799 C 165.67 1.92382 -0.0261743 0
M  V30 1800 O 164.963 1.66522 0.947688 0
M  V30 1801 C 165.157 2.68553 -2.35826 0
M  V30 1802 C 164.986 2.33975 -3.84039 0
M  V30 1803 C 163.756 2.24414 -4.52732 0
M  V30 1804 C 165.954 1.97048 -4.75054 0
M  V30 1805 N 163.936 1.82705 -5.86082 0
M  V30 1806 C 165.307 1.66086 -5.9734 0
M  V30 1807 C 167.362 1.83845 -4.62715 0
M  V30 1808 C 166.065 1.23246 -7.08663 0
M  V30 1809 C 168.091 1.4241 -5.73998 0
M  V30 1810 C 167.453 1.12357 -6.95381 0
M  V30 1811 H 163.552 0.530859 -0.574206 0
M  V30 1812 H 166.136 0.806674 -1.77203 0
M  V30 1813 H 164.307 3.31404 -2.02549 0
M  V30 1814 H 166.039 3.35015 -2.2704 0
M  V30 1815 H 162.794 2.4276 -4.0665 0
M  V30 1816 H 163.218 1.64337 -6.56751 0
M  V30 1817 H 167.86 2.05734 -3.69369 0
M  V30 1818 H 165.578 1.00102 -8.01876 0
M  V30 1819 H 169.164 1.32746 -5.66454 0
M  V30 1820 H 168.044 0.807795 -7.80028 0
M  V30 1821 N 165.547 1.27147 0.931209 0
M  V30 1822 C 166.772 1.16191 1.71797 0
M  V30 1823 C 167.197 -0.278004 1.86034 0
M  V30 1824 O 166.555 -1.20137 1.35782 0
M  V30 1825 C 166.603 1.84673 3.09723 0
M  V30 1826 O 165.707 1.14231 3.96264 0
M  V30 1827 H 165.048 0.404303 0.526721 0
M  V30 1828 H 167.578 1.68152 1.1656 0
M  V30 1829 H 167.588 1.91893 3.60057 0
M  V30 1830 H 166.263 2.89421 2.98677 0
M  V30 1831 H 164.84 1.15056 3.54706 0
M  V30 1832 N 167.025 -1.13721 1.09112 0
M  V30 1833 C 168.265 -1.86576 0.834801 0
M  V30 1834 C 168.629 -1.81435 -0.628122 0
M  V30 1835 O 169.83 -2.49497 -1.00024 0
M  V30 1836 C 168.101 -3.30872 1.35124 0
M  V30 1837 S 169.66 -4.21257 1.22832 0
M  V30 1838 H 166.478 -0.643666 0.302017 0
M  V30 1839 H 169.08 -1.37085 1.39385 0
M  V30 1840 H 167.784 -3.32166 2.41027 0
M  V30 1841 H 167.315 -3.85423 0.788185 0
M  V30 1842 H 169.33 -4.95884 0.177191 0
M  V30 1843 N 168.503 -0.877838 -1.30888 0
M  V30 1844 C 169.435 -0.296607 -2.27273 0
M  V30 1845 C 170.448 0.544799 -1.53414 0
M  V30 1846 O 171.637 0.365511 -1.74718 0
M  V30 1847 C 168.737 0.597481 -3.33592 0
M  V30 1848 C 167.91 -0.213251 -4.3688 0
M  V30 1849 C 166.969 0.610208 -5.2265 0
M  V30 1850 O 165.995 0.035441 -5.69189 0
M  V30 1851 N 167.197 1.92071 -5.47804 0
M  V30 1852 H 169.962 -1.12492 -2.77787 0
M  V30 1853 H 167.523 -0.740105 -1.43993 0
M  V30 1854 H 169.515 1.15425 -3.87891 0
M  V30 1855 H 168.085 1.32647 -2.83061 0
M  V30 1856 H 167.305 -0.951466 -3.82545 0
M  V30 1857 H 168.593 -0.769262 -5.02951 0
M  V30 1858 H 167.991 2.4107 -5.11763 0
M  V30 1859 H 166.548 2.42508 -6.05007 0
M  V30 1860 N 169.982 1.44106 -0.638065 0
M  V30 1861 C 171.393 1.85316 -0.226894 0
M  V30 1862 C 171.744 1.53399 1.22324 0
M  V30 1863 O 170.869 0.975463 1.93167 0
M  V30 1864 C 171.464 3.3637 -0.405013 0
M  V30 1865 C 170.023 3.76369 -0.0482902 0
M  V30 1866 C 169.17 2.67921 -0.715108 0
M  V30 1867 H 172.121 1.34474 -0.842764 0
M  V30 1868 H 172.142 3.7885 0.354 0
M  V30 1869 H 171.654 3.59569 -1.46053 0
M  V30 1870 H 169.755 3.58784 1.00522 0
M  V30 1871 H 169.868 4.76856 -0.463187 0
M  V30 1872 H 168.232 2.54259 -0.149753 0
M  V30 1873 H 169.015 2.93951 -1.77335 0
M  V30 1874 N 171.46 0.379036 1.52974 0
M  V30 1875 C 172.737 -0.263479 1.93817 0
M  V30 1876 C 173.117 -1.65244 1.31368 0
M  V30 1877 O 172.465 -2.23448 0.477856 0
M  V30 1878 C 172.675 -0.300166 3.47707 0
M  V30 1879 C 174.023 -0.534061 4.21228 0
M  V30 1880 O 175.047 -0.38081 3.54159 0
M  V30 1881 O 173.906 -0.833501 5.40106 0
M  V30 1882 H 171 -0.161149 0.811147 0
M  V30 1883 H 173.546 0.432798 1.64088 0
M  V30 1884 H 172.318 0.673138 3.85467 0
M  V30 1885 H 171.941 -1.04179 3.83709 0
M  V30 1886 N 172.938 -1.57226 0.108567 0
M  V30 1887 C 174.186 -1.94448 -0.550853 0
M  V30 1888 C 174.507 -0.992074 -1.67878 0
M  V30 1889 O 173.777 -0.0465 -1.95845 0
M  V30 1890 H 172.357 -0.717897 -0.206479 0
M  V30 1891 H 175.019 -1.94112 0.175062 0
M  V30 1892 H 174.115 -2.97218 -0.952259 0
M  V30 1893 N 174.416 0.165178 -1.56732 0
M  V30 1894 C 175.644 0.896218 -1.86482 0
M  V30 1895 C 176.059 1.75555 -0.694675 0
M  V30 1896 O 175.416 1.79379 0.33607 0
M  V30 1897 C 175.467 1.76792 -3.1532 0
M  V30 1898 O 175.188 0.943239 -4.27825 0
M  V30 1899 C 176.689 2.6081 -3.58459 0
M  V30 1900 H 173.909 0.260064 -0.618553 0
M  V30 1901 H 176.453 0.163428 -2.03846 0
M  V30 1902 H 174.608 2.45398 -2.99764 0
M  V30 1903 H 175.022 1.53998 -5.01383 0
M  V30 1904 H 176.496 3.17579 -4.51495 0
M  V30 1905 H 176.973 3.35977 -2.82872 0
M  V30 1906 H 177.579 1.97526 -3.76648 0
M  V30 1907 N 175.894 1.51508 0.433938 0
M  V30 1908 C 176.841 1.73068 1.52696 0
M  V30 1909 C 177.811 0.572441 1.55924 0
M  V30 1910 O 178.996 0.807253 1.72882 0
M  V30 1911 C 176.136 1.86474 2.90381 0
M  V30 1912 C 175.249 3.14037 2.96656 0
M  V30 1913 C 174.384 3.18019 4.25485 0
M  V30 1914 C 173.423 4.39882 4.2564 0
M  V30 1915 N 172.56 4.41394 5.45999 0
M  V30 1916 H 177.4 2.66366 1.33615 0
M  V30 1917 H 174.937 1.32008 0.649018 0
M  V30 1918 H 176.895 1.92229 3.70275 0
M  V30 1919 H 175.525 0.965809 3.08013 0
M  V30 1920 H 174.577 3.17575 2.09404 0
M  V30 1921 H 175.889 4.0394 2.92633 0
M  V30 1922 H 175.043 3.22708 5.13755 0
M  V30 1923 H 173.782 2.2601 4.3217 0
M  V30 1924 H 172.787 4.35366 3.35763 0
M  V30 1925 H 174.012 5.33159 4.20617 0
M  V30 1926 H 171.958 3.52258 5.53399 0
M  V30 1927 H 171.875 5.25111 5.4387 0
M  V30 1928 H 173.143 4.50281 6.36292 0
M  V30 1929 N 177.372 -0.689602 1.41712 0
M  V30 1930 C 178.32 -1.82475 1.44242 0
M  V30 1931 C 179.314 -1.66354 0.319774 0
M  V30 1932 O 180.52 -1.73143 0.492089 0
M  V30 1933 H 176.895 -0.601416 0.451445 0
M  V30 1934 H 178.866 -1.77458 2.39899 0
M  V30 1935 C 177.615 -3.20535 1.3473 0
M  V30 1936 H 176.938 -3.33559 2.20405 0
M  V30 1937 H 178.378 -4.00023 1.40562 0
M  V30 1938 C 176.837 -3.36846 0.0603281 0
M  V30 1939 O 177.367 -3.91656 -0.892663 0
M  V30 1940 N 175.573 -2.90595 -0.0177039 0
M  V30 1941 H 175.12 -2.46178 0.758572 0
M  V30 1942 H 175.078 -3.01886 -0.878201 0
M  V30 1943 N 178.85 -1.27639 -0.924453 0
M  V30 1944 C 180.075 -1.17101 -1.71179 0
M  V30 1945 C 180.5 0.268134 -1.86179 0
M  V30 1946 O 179.858 1.19415 -1.36418 0
M  V30 1947 C 179.906 -1.86313 -3.08739 0
M  V30 1948 O 179.01 -1.16331 -3.95652 0
M  V30 1949 H 178.351 -0.407091 -0.524569 0
M  V30 1950 H 180.881 -1.68767 -1.15666 0
M  V30 1951 H 180.891 -1.938 -3.59034 0
M  V30 1952 H 179.566 -2.91001 -2.97138 0
M  V30 1953 H 178.143 -1.16935 -3.54091 0
M  V30 1954 N 180.328 1.1314 -1.09713 0
M  V30 1955 C 181.574 1.84967 -0.846104 0
M  V30 1956 C 181.929 1.82082 0.621601 0
M  V30 1957 O 181.222 1.2501 1.452 0
M  V30 1958 C 181.416 3.32167 -1.3191 0
M  V30 1959 C 181.245 3.49386 -2.83125 0
M  V30 1960 C 180.015 3.63456 -3.51038 0
M  V30 1961 C 182.213 3.45179 -3.81256 0
M  V30 1962 N 180.195 3.68966 -4.9065 0
M  V30 1963 C 181.566 3.57094 -5.06837 0
M  V30 1964 C 183.621 3.28598 -3.74069 0
M  V30 1965 C 182.324 3.5414 -6.26081 0
M  V30 1966 C 184.35 3.26953 -4.92804 0
M  V30 1967 C 183.712 3.39422 -6.17229 0
M  V30 1968 H 179.811 0.692899 -0.362512 0
M  V30 1969 H 182.395 1.35506 -1.39808 0
M  V30 1970 H 180.566 3.80186 -0.794535 0
M  V30 1971 H 182.298 3.91815 -1.01308 0
M  V30 1972 H 179.053 3.65256 -3.01471 0
M  V30 1973 H 179.477 3.75404 -5.63383 0
M  V30 1974 H 184.119 3.17858 -2.78794 0
M  V30 1975 H 181.837 3.63653 -7.21653 0
M  V30 1976 H 185.423 3.15316 -4.88945 0
M  V30 1977 H 184.303 3.38114 -7.07565 0
M  V30 1978 N 181.806 0.884767 1.30421 0
M  V30 1979 C 183.054 0.502112 1.95763 0
M  V30 1980 C 183.375 -0.951815 1.70192 0
M  V30 1981 O 182.645 -1.6692 1.0254 0
M  V30 1982 H 181.225 0.182694 0.724315 0
M  V30 1983 H 183.887 1.1278 1.58955 0
M  V30 1984 H 182.983 0.672188 3.04775 0
M  V30 1985 N 183.284 -1.43765 0.645699 0
M  V30 1986 C 184.695 -1.85193 0.236719 0
M  V30 1987 C 185.046 -1.54045 -1.21509 0
M  V30 1988 O 184.171 -0.985694 -1.92647 0
M  V30 1989 C 184.766 -3.36151 0.422845 0
M  V30 1990 C 183.325 -3.76338 0.0682492 0
M  V30 1991 C 182.472 -2.67538 0.729306 0
M  V30 1992 H 185.423 -1.34025 0.849883 0
M  V30 1993 H 185.444 -3.79032 -0.333904 0
M  V30 1994 H 184.956 -3.5879 1.47958 0
M  V30 1995 H 183.057 -3.59312 -0.986179 0
M  V30 1996 H 183.17 -4.76603 0.488469 0
M  V30 1997 H 181.534 -2.54176 0.163235 0
M  V30 1998 H 182.317 -2.93006 1.78892 0
M  V30 1999 N 184.763 -0.387143 -1.52771 0
M  V30 2000 C 185.726 0.436939 -2.24997 0
M  V30 2001 C 186.726 0.991991 -1.26555 0
M  V30 2002 O 187.916 0.874335 -1.50669 0
M  V30 2003 C 185.048 1.61281 -3.00335 0
M  V30 2004 H 186.241 -0.195365 -2.99263 0
M  V30 2005 H 183.794 -0.139218 -1.55679 0
M  V30 2006 H 184.529 2.2826 -2.30364 0
M  V30 2007 H 184.314 1.22154 -3.72587 0
M  V30 2008 H 185.804 2.19629 -3.5518 0
M  V30 2009 N 186.241 1.57166 -0.116904 0
M  V30 2010 C 187.652 1.82169 0.408809 0
M  V30 2011 C 188.003 1.03393 1.66746 0
M  V30 2012 O 187.128 0.269886 2.1471 0
M  V30 2013 C 187.723 3.30429 0.748466 0
M  V30 2014 C 186.282 3.5612 1.21882 0
M  V30 2015 C 185.429 2.76374 0.226452 0
M  V30 2016 H 188.38 1.5497 -0.342063 0
M  V30 2017 H 188.401 3.44943 1.60607 0
M  V30 2018 H 187.913 3.87737 -0.167784 0
M  V30 2019 H 186.014 3.04168 2.15204 0
M  V30 2020 H 186.127 4.64705 1.16559 0
M  V30 2021 H 184.491 2.44515 0.713063 0
M  V30 2022 H 185.274 3.3644 -0.682859 0
M  V30 2023 N 187.719 -0.156864 1.56817 0
M  V30 2024 C 188.996 -0.899244 1.73704 0
M  V30 2025 C 189.376 -1.99771 0.682254 0
M  V30 2026 O 188.724 -2.26515 -0.300522 0
M  V30 2027 C 188.934 -1.45075 3.17418 0
M  V30 2028 C 190.282 -1.91802 3.7881 0
M  V30 2029 O 191.306 -1.54838 3.20786 0
M  V30 2030 O 190.165 -2.5994 4.80722 0
M  V30 2031 H 187.259 -0.424267 0.709878 0
M  V30 2032 H 189.805 -0.143561 1.69092 0
M  V30 2033 H 188.577 -0.660846 3.85679 0
M  V30 2034 H 188.2 -2.27021 3.26416 0
M  V30 2035 N 189.197 -1.51736 -0.425897 0
M  V30 2036 C 190.445 -1.64644 -1.17204 0
M  V30 2037 C 190.766 -0.370486 -1.91448 0
M  V30 2038 O 190.036 0.614088 -1.86026 0
M  V30 2039 H 188.616 -0.606819 -0.435638 0
M  V30 2040 H 191.278 -1.88713 -0.487177 0
M  V30 2041 H 190.374 -2.47958 -1.89534 0
M  V30 2042 N 190.675 0.682077 -1.42076 0
M  V30 2043 C 191.585 1.82535 -1.47371 0
M  V30 2044 C 192.601 1.7017 -0.363079 0
M  V30 2045 O 193.777 1.91848 -0.612875 0
M  V30 2046 C 190.842 3.18624 -1.36674 0
M  V30 2047 C 189.903 3.42999 -2.58167 0
M  V30 2048 C 189.136 4.72595 -2.4797 0
M  V30 2049 O 189.359 5.50006 -1.5116 0
M  V30 2050 O 188.293 4.98054 -3.37974 0
M  V30 2051 H 192.119 1.81023 -2.43853 0
M  V30 2052 H 189.704 0.836887 -1.2376 0
M  V30 2053 H 191.586 3.99847 -1.33043 0
M  V30 2054 H 190.261 3.20789 -0.433138 0
M  V30 2055 H 189.168 2.61653 -2.67373 0
M  V30 2056 H 190.501 3.45659 -3.50401 0
M  V30 2057 N 192.153 1.28127 0.917671 0
M  V30 2058 C 193.063 1.13556 2.05286 0
M  V30 2059 C 194.079 0.0630914 1.73886 0
M  V30 2060 O 195.255 0.271598 1.9956 0
M  V30 2061 C 192.32 0.794676 3.3747 0
M  V30 2062 C 191.381 1.94909 3.82504 0
M  V30 2063 C 190.614 1.62437 5.0838 0
M  V30 2064 O 190.837 0.536905 5.67867 0
M  V30 2065 O 189.771 2.46677 5.4903 0
M  V30 2066 H 193.597 2.08844 2.20495 0
M  V30 2067 H 191.182 1.07409 1.03845 0
M  V30 2068 H 193.064 0.618344 4.16839 0
M  V30 2069 H 191.739 -0.128581 3.23445 0
M  V30 2070 H 190.646 2.18055 3.03978 0
M  V30 2071 H 191.979 2.85291 4.01086 0
M  V30 2072 N 193.631 -1.12557 1.10312 0
M  V30 2073 C 194.861 -1.87592 0.865617 0
M  V30 2074 C 195.269 -1.79851 -0.587389 0
M  V30 2075 O 194.612 -1.16949 -1.41664 0
M  V30 2076 C 194.674 -3.37665 1.23381 0
M  V30 2077 C 194.338 -3.69181 2.69359 0
M  V30 2078 C 195.335 -3.67652 3.67597 0
M  V30 2079 C 193.02 -3.98555 3.05711 0
M  V30 2080 C 195.014 -3.95053 5.00212 0
M  V30 2081 C 192.701 -4.25616 4.38514 0
M  V30 2082 C 193.699 -4.23851 5.35574 0
M  V30 2083 O 193.387 -4.50242 6.65986 0
M  V30 2084 H 193.119 -0.600442 0.310557 0
M  V30 2085 H 195.673 -1.4335 1.47105 0
M  V30 2086 H 193.903 -3.82454 0.571467 0
M  V30 2087 H 195.592 -3.94041 0.973994 0
M  V30 2088 H 196.358 -3.45024 3.40857 0
M  V30 2089 H 192.237 -3.99071 2.30789 0
M  V30 2090 H 195.781 -3.93591 5.75962 0
M  V30 2091 H 191.678 -4.47718 4.64994 0
M  V30 2092 H 192.446 -4.67867 6.71597 0
M  V30 2093 N 195.109 -0.891671 -1.2995 0
M  V30 2094 C 196.356 -0.513501 -1.95881 0
M  V30 2095 C 196.684 0.938655 -1.70351 0
M  V30 2096 O 195.939 1.67936 -1.00478 0
M  V30 2097 C 196.238 -0.742868 -3.49594 0
M  V30 2098 C 195.904 -2.17114 -3.95186 0
M  V30 2099 C 194.566 -2.56169 -4.07346 0
M  V30 2100 C 196.918 -3.10162 -4.18866 0
M  V30 2101 C 194.246 -3.87469 -4.4055 0
M  V30 2102 C 196.598 -4.41001 -4.53542 0
M  V30 2103 C 195.262 -4.79941 -4.63911 0
M  V30 2104 H 194.532 -0.187903 -0.71678 0
M  V30 2105 H 197.179 -1.1288 -1.54694 0
M  V30 2106 H 195.484 -0.044586 -3.91775 0
M  V30 2107 H 197.181 -0.429767 -3.9869 0
M  V30 2108 H 193.771 -1.85801 -3.86233 0
M  V30 2109 H 197.955 -2.81206 -4.08946 0
M  V30 2110 H 193.211 -4.17371 -4.46779 0
M  V30 2111 H 197.385 -5.13133 -4.70815 0
M  V30 2112 H 195.012 -5.81719 -4.89395 0
M  V30 2113 N 196.587 1.43421 -0.653314 0
M  V30 2114 C 197.55 2.29182 0.0287951 0
M  V30 2115 C 198.55 1.42213 0.750465 0
M  V30 2116 O 199.74 1.63843 0.591701 0
M  V30 2117 C 196.872 3.24278 1.05151 0
M  V30 2118 H 198.065 2.90985 -0.725786 0
M  V30 2119 H 195.618 1.50702 -0.414545 0
M  V30 2120 H 196.353 2.6737 1.83532 0
M  V30 2121 H 196.138 3.88396 0.537687 0
M  V30 2122 H 197.628 3.88647 1.52786 0
M  V30 2123 N 198.065 0.39524 1.52563 0
M  V30 2124 C 198.995 -0.428384 2.29537 0
M  V30 2125 C 199.976 -1.05831 1.33169 0
M  V30 2126 O 201.161 -1.06995 1.62067 0
M  V30 2127 C 198.291 -1.55274 3.10656 0
M  V30 2128 C 197.245 -1.04855 4.14957 0
M  V30 2129 C 196.571 -2.26543 4.84337 0
M  V30 2130 C 197.871 -0.112324 5.22179 0
M  V30 2131 H 199.565 0.213867 2.98635 0
M  V30 2132 H 197.111 0.104298 1.43622 0
M  V30 2133 H 199.064 -2.1358 3.63265 0
M  V30 2134 H 197.788 -2.22266 2.39302 0
M  V30 2135 H 196.447 -0.487985 3.63338 0
M  V30 2136 H 196.095 -2.92059 4.09525 0
M  V30 2137 H 195.795 -1.93466 5.54837 0
M  V30 2138 H 197.319 -2.85481 5.39753 0
M  V30 2139 H 198.733 -0.603752 5.70112 0
M  V30 2140 H 197.13 0.128968 5.99961 0
M  V30 2141 H 198.2 0.837052 4.77621 0
M  V30 2142 N 199.544 -1.57102 0.125237 0
M  V30 2143 C 200.507 -2.14471 -0.80838 0
M  V30 2144 C 201.507 -1.0811 -1.19033 0
M  V30 2145 O 202.697 -1.33856 -1.11482 0
M  V30 2146 C 199.829 -2.69005 -2.09402 0
M  V30 2147 H 201.022 -2.98297 -0.309696 0
M  V30 2148 H 198.575 -1.55807 -0.124051 0
M  V30 2149 H 199.31 -1.88785 -2.63687 0
M  V30 2150 H 199.095 -3.46799 -1.82957 0
M  V30 2151 H 200.585 -3.13278 -2.76128 0
M  V30 2152 N 201.022 0.148545 -1.56898 0
M  V30 2153 C 201.952 1.18524 -2.01182 0
M  V30 2154 C 202.933 1.4489 -0.891123 0
M  V30 2155 O 204.118 1.55836 -1.15882 0
M  V30 2156 C 201.248 2.51879 -2.39112 0
M  V30 2157 C 200.202 2.40038 -3.54353 0
M  V30 2158 C 199.528 3.78089 -3.78091 0
M  V30 2159 C 200.828 1.88577 -4.87069 0
M  V30 2160 H 202.522 0.817029 -2.88036 0
M  V30 2161 H 200.068 0.391575 -1.38574 0
M  V30 2162 H 202.021 3.24627 -2.68692 0
M  V30 2163 H 200.745 2.90532 -1.49193 0
M  V30 2164 H 199.404 1.69742 -3.24936 0
M  V30 2165 H 199.052 4.14175 -2.85426 0
M  V30 2166 H 198.752 3.71028 -4.55645 0
M  V30 2167 H 200.276 4.52387 -4.10095 0
M  V30 2168 H 201.69 2.51117 -5.15377 0
M  V30 2169 H 200.087 1.9241 -5.68417 0
M  V30 2170 H 201.157 0.84136 -4.77545 0
M  V30 2171 N 202.5 1.5196 0.417844 0
M  V30 2172 C 203.747 1.65591 1.16559 0
M  V30 2173 C 204.075 0.381565 1.90721 0
M  V30 2174 O 203.33 -0.635156 1.85106 0
M  V30 2175 C 203.629 2.82269 2.19223 0
M  V30 2176 C 203.295 4.20819 1.61933 0
M  V30 2177 C 201.957 4.58506 1.46033 0
M  V30 2178 C 204.309 5.07196 1.20008 0
M  V30 2179 C 201.637 5.80257 0.867113 0
M  V30 2180 C 203.989 6.29544 0.621086 0
M  V30 2181 C 202.653 6.65987 0.449144 0
M  V30 2182 H 201.923 0.605939 0.42652 0
M  V30 2183 H 204.57 1.86041 0.45397 0
M  V30 2184 H 202.875 2.56118 2.96498 0
M  V30 2185 H 204.572 2.90012 2.76936 0
M  V30 2186 H 201.162 3.91116 1.7529 0
M  V30 2187 H 205.346 4.7867 1.31105 0
M  V30 2188 H 200.602 6.07124 0.721833 0
M  V30 2189 H 204.776 6.95805 0.287798 0
M  V30 2190 H 202.403 7.60199 -0.012632 0
M  V30 2191 N 203.978 -0.674533 1.42435 0
M  V30 2192 C 205.225 -1.43459 1.42919 0
M  V30 2193 C 205.553 -1.94446 0.0457312 0
M  V30 2194 O 204.808 -1.7132 -0.94593 0
M  V30 2195 C 205.107 -2.64767 2.40069 0
M  V30 2196 C 204.773 -2.3232 3.86443 0
M  V30 2197 C 203.435 -2.23182 4.26314 0
M  V30 2198 C 205.787 -2.05977 4.78773 0
M  V30 2199 C 203.115 -1.85827 5.56494 0
M  V30 2200 C 205.467 -1.70125 6.09295 0
M  V30 2201 C 204.131 -1.59498 6.48164 0
M  V30 2202 H 203.401 -0.524952 0.522978 0
M  V30 2203 H 206.048 -0.769097 1.75377 0
M  V30 2204 H 204.353 -3.36349 2.00939 0
M  V30 2205 H 206.05 -3.22949 2.37707 0
M  V30 2206 H 202.64 -2.40334 3.54877 0
M  V30 2207 H 206.824 -2.11969 4.48757 0
M  V30 2208 H 202.08 -1.76168 5.8547 0
M  V30 2209 H 206.254 -1.48767 6.80324 0
M  V30 2210 H 203.881 -1.30322 7.48946 0
M  V30 2211 N 205.456 -1.28612 -0.910864 0
M  V30 2212 C 206.419 -1.12803 -1.9952 0
M  V30 2213 C 207.419 -0.0668264 -1.60661 0
M  V30 2214 O 208.609 -0.312847 -1.71368 0
M  V30 2215 C 205.741 -0.72254 -3.33155 0
M  V30 2216 H 206.934 -2.09109 -2.14973 0
M  V30 2217 H 204.487 -1.11639 -1.09391 0
M  V30 2218 H 205.222 0.241152 -3.23402 0
M  V30 2219 H 205.007 -1.48916 -3.62721 0
M  V30 2220 H 206.497 -0.634666 -4.12749 0
M  V30 2221 N 206.934 1.1197 -1.10907 0
M  V30 2222 C 208.159 1.87942 -0.877064 0
M  V30 2223 C 208.584 1.79341 0.567314 0
M  V30 2224 O 207.942 1.15184 1.40009 0
M  V30 2225 C 207.99 3.34926 -1.33629 0
M  V30 2226 O 207.094 4.09303 -0.504447 0
M  V30 2227 H 206.435 0.583785 -0.316371 0
M  V30 2228 H 208.965 1.4157 -1.47712 0
M  V30 2229 H 208.975 3.8577 -1.32837 0
M  V30 2230 H 207.65 3.40504 -2.3881 0
M  V30 2231 H 206.227 3.68393 -0.577993 0
M  V30 2232 N 208.412 0.89855 1.29475 0
M  V30 2233 C 209.362 0.346767 2.25348 0
M  V30 2234 C 210.346 -0.532509 1.51833 0
M  V30 2235 O 211.538 -0.374714 1.72988 0
M  V30 2236 C 208.667 -0.425681 3.40651 0
M  V30 2237 C 207.753 0.46845 4.21505 0
M  V30 2238 N 208.144 1.57514 4.80648 0
M  V30 2239 C 206.442 0.26603 4.45206 0
M  V30 2240 C 207.143 2.12889 5.41344 0
M  V30 2241 N 206.119 1.42208 5.24669 0
M  V30 2242 H 209.921 1.19219 2.68634 0
M  V30 2243 H 207.435 0.749473 1.44072 0
M  V30 2244 H 209.432 -0.837716 4.08397 0
M  V30 2245 H 208.092 -1.26838 2.98902 0
M  V30 2246 H 209.103 1.95789 4.79465 0
M  V30 2247 H 205.78 -0.538394 4.14014 0
M  V30 2248 H 207.17 3.05901 5.98226 0
M  V30 2249 N 209.89 -1.43072 0.660911 0
M  V30 2250 C 211.306 -1.56169 0.329173 0
M  V30 2251 C 211.506 -1.64317 -1.16629 0
M  V30 2252 O 210.562 -1.60245 -1.95135 0
M  V30 2253 C 211.875 -2.81873 1.04729 0
M  V30 2254 C 213.423 -2.95627 1.02828 0
M  V30 2255 C 213.898 -4.24174 1.72744 0
M  V30 2256 N 215.389 -4.31055 1.69545 0
M  V30 2257 C 216.124 -5.29304 2.20511 0
M  V30 2258 N 215.62 -6.33786 2.79799 0
M  V30 2259 N 217.413 -5.21008 2.10966 0
M  V30 2260 H 209.564 -1.36027 1.63127 0
M  V30 2261 H 211.827 -0.653823 0.686454 0
M  V30 2262 H 211.533 -2.81942 2.10242 0
M  V30 2263 H 211.407 -3.72338 0.603702 0
M  V30 2264 H 213.794 -2.95094 -0.0184742 0
M  V30 2265 H 213.875 -2.06431 1.51063 0
M  V30 2266 H 213.519 -4.25467 2.7738 0
M  V30 2267 H 213.449 -5.1228 1.2197 0
M  V30 2268 H 215.94 -3.56174 1.26288 0
M  V30 2269 H 216.253 -7.05086 3.16344 0
M  V30 2270 H 214.598 -6.34387 2.83863 0
M  V30 2271 H 217.789 -4.38301 1.64347 0
M  V30 2272 H 217.962 -5.97416 2.50993 0
M  V30 2273 N 211.368 -0.403325 -1.52352 0
M  V30 2274 C 212.614 0.167015 -2.02713 0
M  V30 2275 C 212.969 1.43296 -1.28391 0
M  V30 2276 O 212.262 1.87796 -0.379885 0
M  V30 2277 C 212.456 0.474665 -3.54234 0
M  V30 2278 C 212.285 -0.759909 -4.43233 0
M  V30 2279 C 211.055 -1.28338 -4.88731 0
M  V30 2280 C 213.253 -1.63634 -4.87574 0
M  V30 2281 N 211.235 -2.47404 -5.6184 0
M  V30 2282 C 212.606 -2.67329 -5.59406 0
M  V30 2283 C 214.661 -1.65478 -4.69597 0
M  V30 2284 C 213.364 -3.72773 -6.15169 0
M  V30 2285 C 215.39 -2.69837 -5.26253 0
M  V30 2286 C 214.752 -3.72253 -5.98002 0
M  V30 2287 H 210.851 0.0228343 -0.781667 0
M  V30 2288 H 213.435 -0.556368 -1.86581 0
M  V30 2289 H 211.606 1.16709 -3.7045 0
M  V30 2290 H 213.338 1.03338 -3.91284 0
M  V30 2291 H 210.093 -0.842273 -4.6605 0
M  V30 2292 H 210.517 -3.07688 -6.0304 0
M  V30 2293 H 215.159 -0.876389 -4.13617 0
M  V30 2294 H 212.877 -4.51471 -6.70223 0
M  V30 2295 H 216.463 -2.72164 -5.14216 0
M  V30 2296 H 215.343 -4.51679 -6.41058 0
M  V30 2297 N 212.846 1.57033 -0.133567 0
M  V30 2298 C 214.094 1.953 0.519848 0
M  V30 2299 C 214.415 1.01866 1.66278 0
M  V30 2300 O 213.685 0.0776513 1.95746 0
M  V30 2301 H 212.265 0.721091 0.195032 0
M  V30 2302 H 214.927 1.93809 -0.205921 0
M  V30 2303 H 214.023 2.98695 0.904854 0
M  V30 2304 N 214.325 -0.140222 1.56975 0
M  V30 2305 C 215.602 -0.880769 1.74648 0
M  V30 2306 C 215.982 -1.99036 0.703404 0
M  V30 2307 O 215.33 -2.26821 -0.27648 0
M  V30 2308 C 215.54 -1.417 3.18939 0
M  V30 2309 C 216.888 -1.87774 3.80823 0
M  V30 2310 O 217.912 -1.51427 3.2241 0
M  V30 2311 O 216.771 -2.54827 4.83452 0
M  V30 2312 H 213.865 -0.416713 0.714338 0
M  V30 2313 H 216.411 -0.125618 1.69234 0
M  V30 2314 H 215.183 -0.619902 3.86359 0
M  V30 2315 H 214.806 -2.23546 3.28805 0
M  V30 2316 N 215.803 -1.52179 -0.40978 0
M  V30 2317 C 217.051 -1.65878 -1.15451 0
M  V30 2318 C 217.372 -0.390771 -1.91044 0
M  V30 2319 O 216.642 0.594323 -1.86667 0
M  V30 2320 H 215.222 -0.611405 -0.429177 0
M  V30 2321 H 217.884 -1.89219 -0.467134 0
M  V30 2322 H 216.98 -2.49954 -1.86894 0
M  V30 2323 N 217.281 0.66697 -1.42791 0
M  V30 2324 C 218.558 1.4234 -1.34159 0
M  V30 2325 C 218.938 2.11093 0.0172729 0
M  V30 2326 O 218.286 2.03808 1.03318 0
M  V30 2327 C 218.496 2.41942 -2.51526 0
M  V30 2328 C 219.844 3.06353 -2.93995 0
M  V30 2329 O 220.868 2.52269 -2.51473 0
M  V30 2330 O 219.727 4.04376 -3.67617 0
M  V30 2331 H 216.821 0.635277 -0.529483 0
M  V30 2332 H 219.367 0.695034 -1.54814 0
M  V30 2333 H 218.139 1.89991 -3.42081 0
M  V30 2334 H 217.762 3.22249 -2.32898 0
M  V30 2335 N 218.759 1.29093 0.90403 0
M  V30 2336 C 219.669 1.15727 2.0407 0
M  V30 2337 C 220.685 0.0815308 1.73809 0
M  V30 2338 O 221.861 0.292749 1.99261 0
M  V30 2339 C 218.926 0.830424 3.36608 0
M  V30 2340 C 217.987 1.98955 3.80415 0
M  V30 2341 C 217.22 1.6782 5.06628 0
M  V30 2342 O 217.443 0.597105 5.67266 0
M  V30 2343 O 216.377 2.52486 5.46383 0
M  V30 2344 H 220.203 2.11171 2.18267 0
M  V30 2345 H 217.788 1.08504 1.027 0
M  V30 2346 H 219.67 0.662521 4.16159 0
M  V30 2347 H 218.345 -0.0942678 3.23563 0
M  V30 2348 H 217.252 2.21267 3.01648 0
M  V30 2349 H 218.585 2.89529 3.98037 0
M  V30 2350 N 220.237 -1.11381 1.11499 0
M  V30 2351 C 221.169 -2.17207 0.731704 0
M  V30 2352 C 222.182 -1.61066 -0.236957 0
M  V30 2353 O 223.371 -1.78489 -0.0197591 0
M  V30 2354 C 220.471 -3.38846 0.0607624 0
M  V30 2355 C 219.644 -4.24451 1.0564 0
M  V30 2356 C 218.703 -5.24562 0.4149 0
M  V30 2357 O 217.729 -5.59071 1.069 0
M  V30 2358 N 218.931 -5.74651 -0.821943 0
M  V30 2359 H 221.696 -2.50699 1.64225 0
M  V30 2360 H 219.257 -1.26908 1.00529 0
M  V30 2361 H 221.249 -4.02911 -0.380139 0
M  V30 2362 H 219.819 -3.03411 -0.752376 0
M  V30 2363 H 219.039 -3.56833 1.67524 0
M  V30 2364 H 220.327 -4.78486 1.72998 0
M  V30 2365 H 219.725 -5.48797 -1.37252 0
M  V30 2366 H 218.282 -6.40549 -1.20582 0
M  V30 2367 N 221.715 -0.905404 -1.28997 0
M  V30 2368 C 223.126 -0.581953 -1.77398 0
M  V30 2369 C 223.477 0.902552 -1.74208 0
M  V30 2370 O 222.602 1.70584 -1.33154 0
M  V30 2371 C 223.197 -1.04961 -3.22131 0
M  V30 2372 C 221.756 -0.777229 -3.68288 0
M  V30 2373 C 220.903 -1.22109 -2.48967 0
M  V30 2374 H 223.854 -1.08754 -1.15578 0
M  V30 2375 H 223.875 -0.387387 -3.78523 0
M  V30 2376 H 223.387 -2.13008 -3.24421 0
M  V30 2377 H 221.488 0.290383 -3.71467 0
M  V30 2378 H 221.601 -1.37911 -4.58822 0
M  V30 2379 H 219.965 -0.639971 -2.46529 0
M  V30 2380 H 220.748 -2.30972 -2.53982 0
M  V30 2381 N 223.193 1.4272 -0.668489 0
M  V30 2382 C 224.44 2.01624 -0.18814 0
M  V30 2383 C 224.768 1.5282 1.20317 0
M  V30 2384 O 224.023 0.718323 1.8204 0
M  V30 2385 C 224.322 3.57021 -0.164499 0
M  V30 2386 C 223.988 4.25232 -1.49962 0
M  V30 2387 C 222.65 4.4358 -1.8652 0
M  V30 2388 C 225.002 4.63727 -2.37921 0
M  V30 2389 C 222.33 4.97694 -3.10674 0
M  V30 2390 C 224.682 5.19218 -3.6138 0
M  V30 2391 C 223.346 5.3578 -3.98115 0
M  V30 2392 H 222.616 0.737795 -0.0688454 0
M  V30 2393 H 225.263 1.70991 -0.862225 0
M  V30 2394 H 223.568 3.87285 0.593079 0
M  V30 2395 H 225.265 4.00372 0.224271 0
M  V30 2396 H 221.855 4.11306 -1.20522 0
M  V30 2397 H 226.039 4.4923 -2.10964 0
M  V30 2398 H 221.295 5.08702 -3.39164 0
M  V30 2399 H 225.469 5.4799 -4.29743 0
M  V30 2400 H 223.096 5.77475 -4.94395 0
M  V30 2401 N 224.671 0.411399 1.52136 0
M  V30 2402 C 225.619 -0.427633 2.28635 0
M  V30 2403 C 226.613 -1.04383 1.33419 0
M  V30 2404 O 227.819 -0.981772 1.50868 0
M  V30 2405 H 224.194 -0.156689 0.735495 0
M  V30 2406 H 226.165 0.238761 2.97443 0
M  V30 2407 C 224.914 -1.53082 3.12188 0
M  V30 2408 H 224.237 -1.06601 3.85326 0
M  V30 2409 H 225.677 -2.09167 3.68816 0
M  V30 2410 C 224.136 -2.49946 2.25895 0
M  V30 2411 O 224.666 -3.53884 1.90076 0
M  V30 2412 N 222.872 -2.2021 1.8962 0
M  V30 2413 H 222.419 -1.35719 2.18948 0
M  V30 2414 H 222.377 -2.85266 1.32176 0
M  V30 2415 N 226.149 -1.5696 0.141893 0
M  V30 2416 C 227.379 -2.00031 -0.516828 0
M  V30 2417 C 227.787 -1.02091 -1.59293 0
M  V30 2418 O 227.13 -0.00909657 -1.83698 0
M  V30 2419 C 227.192 -3.39534 -1.1814 0
M  V30 2420 C 226.856 -4.56313 -0.250513 0
M  V30 2421 C 227.853 -5.17295 0.519839 0
M  V30 2422 C 225.538 -5.02061 -0.154907 0
M  V30 2423 C 227.532 -6.2243 1.3733 0
M  V30 2424 C 225.219 -6.07053 0.702161 0
M  V30 2425 C 226.217 -6.67106 1.46487 0
M  V30 2426 O 225.905 -7.70066 2.30767 0
M  V30 2427 H 225.637 -0.661451 -0.139493 0
M  V30 2428 H 228.191 -2.04086 0.231926 0
M  V30 2429 H 226.421 -3.32302 -1.97769 0
M  V30 2430 H 228.11 -3.66745 -1.73933 0
M  V30 2431 H 228.876 -4.82852 0.45598 0
M  V30 2432 H 224.755 -4.5505 -0.7383 0
M  V30 2433 H 228.299 -6.69233 1.96909 0
M  V30 2434 H 224.196 -6.40923 0.76733 0
M  V30 2435 H 224.964 -7.87264 2.23959 0
M  V30 2436 N 227.627 0.131896 -1.57047 0
M  V30 2437 C 228.852 0.860418 -1.8871 0
M  V30 2438 C 229.277 1.73251 -0.73251 0
M  V30 2439 O 228.635 1.785 0.317429 0
M  V30 2440 C 228.683 1.68047 -3.19049 0
M  V30 2441 O 227.787 2.7862 -3.04047 0
M  V30 2442 H 227.128 0.238743 -0.619595 0
M  V30 2443 H 229.658 0.118169 -2.04258 0
M  V30 2444 H 229.668 2.07238 -3.51449 0
M  V30 2445 H 228.343 1.04018 -4.02682 0
M  V30 2446 H 226.92 2.42726 -2.83088 0
M  V30 2447 N 229.106 1.52395 0.401703 0
M  V30 2448 C 230.016 1.7917 1.51444 0
M  V30 2449 C 231.032 0.677691 1.6026 0
M  V30 2450 O 232.208 0.963909 1.76835 0
M  V30 2451 C 229.273 1.94347 2.87107 0
M  V30 2452 C 228.334 3.18257 2.88116 0
M  V30 2453 C 227.567 3.32701 4.17308 0
M  V30 2454 O 227.79 2.52238 5.11598 0
M  V30 2455 O 226.724 4.25891 4.25324 0
M  V30 2456 H 230.55 2.73633 1.31752 0
M  V30 2457 H 228.135 1.3733 0.588296 0
M  V30 2458 H 230.017 2.06109 3.67555 0
M  V30 2459 H 228.692 1.03073 3.06851 0
M  V30 2460 H 227.599 3.11947 2.06494 0
M  V30 2461 H 228.932 4.09336 2.73322 0
M  V30 2462 N 230.584 -0.659388 1.43143 0
M  V30 2463 C 231.516 -1.7849 1.43784 0
M  V30 2464 C 232.529 -1.5932 0.334787 0
M  V30 2465 O 233.718 -1.68155 0.598842 0
M  V30 2466 C 230.818 -3.15828 1.22906 0
M  V30 2467 C 229.991 -3.61711 2.45934 0
M  V30 2468 C 229.05 -4.77831 2.20371 0
M  V30 2469 O 228.076 -4.87586 2.93681 0
M  V30 2470 N 229.278 -5.67611 1.21647 0
M  V30 2471 H 232.043 -1.7842 2.40803 0
M  V30 2472 H 229.604 -0.84302 1.3822 0
M  V30 2473 H 231.596 -3.91189 1.03697 0
M  V30 2474 H 230.166 -3.10707 0.343542 0
M  V30 2475 H 229.386 -2.76861 2.80609 0
M  V30 2476 H 230.674 -3.89112 3.27825 0
M  V30 2477 H 230.072 -5.62397 0.610449 0
M  V30 2478 H 228.629 -6.42719 1.08423 0
M  V30 2479 N 232.062 -1.29571 -0.897171 0
M  V30 2480 C 233.025 -1.14913 -1.98312 0
M  V30 2481 C 234.025 -0.0838629 -1.60581 0
M  V30 2482 O 235.215 -0.331006 -1.71026 0
M  V30 2483 C 232.347 -0.757835 -3.3237 0
M  V30 2484 H 233.54 -2.11377 -2.12743 0
M  V30 2485 H 231.093 -1.12793 -1.08201 0
M  V30 2486 H 231.828 0.206837 -3.2364 0
M  V30 2487 H 231.613 -1.52755 -3.61121 0
M  V30 2488 H 233.103 -0.678408 -4.12053 0
M  V30 2489 N 233.54 1.10788 -1.12088 0
M  V30 2490 C 234.956 1.34691 -0.856186 0
M  V30 2491 C 235.156 1.94791 0.515615 0
M  V30 2492 O 234.212 2.18524 1.26505 0
M  V30 2493 C 235.525 2.27208 -1.9697 0
M  V30 2494 C 237.073 2.40755 -2.00016 0
M  V30 2495 C 237.548 3.36598 -3.1059 0
M  V30 2496 N 239.039 3.44164 -3.10008 0
M  V30 2497 C 239.774 4.18284 -3.92206 0
M  V30 2498 N 239.27 4.95322 -4.84384 0
M  V30 2499 N 241.063 4.13865 -3.80357 0
M  V30 2500 H 233.214 0.70144 -2.00483 0
M  V30 2501 H 235.477 0.371405 -0.872217 0
M  V30 2502 H 235.183 1.90251 -2.958 0
M  V30 2503 H 235.057 3.27485 -1.87172 0
M  V30 2504 H 237.444 2.76982 -1.01808 0
M  V30 2505 H 237.525 1.40305 -2.13888 0
M  V30 2506 H 237.169 3.01096 -4.09028 0
M  V30 2507 H 237.099 4.36918 -2.93956 0
M  V30 2508 H 239.59 2.8922 -2.43228 0
M  V30 2509 H 239.903 5.49267 -5.43623 0
M  V30 2510 H 238.248 4.94459 -4.884 0
M  V30 2511 H 241.439 3.52773 -3.07683 0
M  V30 2512 H 241.612 4.71372 -4.44649 0
M  V30 2513 N 235.018 0.912232 1.28515 0
M  V30 2514 C 235.965 0.397954 2.27343 0
M  V30 2515 C 236.935 -0.526766 1.57526 0
M  V30 2516 O 238.12 -0.449292 1.85435 0
M  V30 2517 C 235.26 -0.357263 3.43246 0
M  V30 2518 C 234.373 0.599788 4.27816 0
M  V30 2519 C 233.508 -0.173725 5.30916 0
M  V30 2520 C 232.547 0.777039 6.07148 0
M  V30 2521 N 231.684 0.0371398 7.0209 0
M  V30 2522 H 236.524 1.24577 2.70711 0
M  V30 2523 H 234.061 0.625612 1.33133 0
M  V30 2524 H 236.019 -0.8113 4.09236 0
M  V30 2525 H 234.649 -1.16943 3.00872 0
M  V30 2526 H 233.701 1.17235 3.61884 0
M  V30 2527 H 235.013 1.32704 4.80823 0
M  V30 2528 H 234.167 -0.688394 6.02782 0
M  V30 2529 H 232.906 -0.934041 4.78672 0
M  V30 2530 H 231.911 1.3031 5.34134 0
M  V30 2531 H 233.136 1.53689 6.61481 0
M  V30 2532 H 231.082 -0.705213 6.52198 0
M  V30 2533 H 230.999 0.704249 7.52713 0
M  V30 2534 H 232.267 -0.457383 7.78157 0
M  V30 2535 N 236.496 -1.42363 0.676048 0
M  V30 2536 C 237.426 -2.33497 0.0124832 0
M  V30 2537 C 238.407 -1.50748 -0.787981 0
M  V30 2538 O 239.592 -1.79346 -0.744884 0
M  V30 2539 C 236.722 -3.34377 -0.938582 0
M  V30 2540 C 235.676 -4.27289 -0.246622 0
M  V30 2541 C 235.002 -5.18386 -1.31071 0
M  V30 2542 C 236.302 -5.14916 0.875125 0
M  V30 2543 H 237.996 -2.89233 0.773593 0
M  V30 2544 H 235.542 -1.39073 0.37346 0
M  V30 2545 H 237.495 -3.97044 -1.41188 0
M  V30 2546 H 236.219 -2.76947 -1.73113 0
M  V30 2547 H 234.878 -3.66018 0.206456 0
M  V30 2548 H 234.526 -4.57282 -2.09528 0
M  V30 2549 H 234.226 -5.81378 -0.852839 0
M  V30 2550 H 235.75 -5.83929 -1.78492 0
M  V30 2551 H 237.164 -5.71262 0.482983 0
M  V30 2552 H 235.561 -5.86747 1.25887 0
M  V30 2553 H 236.631 -4.53242 1.72335 0
M  V30 2554 N 237.974 -0.419461 -1.51915 0
M  V30 2555 C 238.904 0.391813 -2.30189 0
M  V30 2556 C 239.885 1.03699 -1.34836 0
M  V30 2557 O 241.07 1.04403 -1.63748 0
M  V30 2558 C 238.2 1.50312 -3.13087 0
M  V30 2559 C 237.154 0.9824 -4.16573 0
M  V30 2560 C 236.48 2.18809 -4.8788 0
M  V30 2561 C 237.78 0.0292356 -5.22292 0
M  V30 2562 H 239.474 -0.26135 -2.98257 0
M  V30 2563 H 237.02 -0.127134 -1.43438 0
M  V30 2564 H 238.973 2.07773 -3.66617 0
M  V30 2565 H 237.697 2.18431 -2.42807 0
M  V30 2566 H 236.356 0.430119 -3.64068 0
M  V30 2567 H 236.004 2.85507 -4.14119 0
M  V30 2568 H 235.704 1.84615 -5.57845 0
M  V30 2569 H 237.228 2.76858 -5.44226 0
M  V30 2570 H 238.642 0.512976 -5.71 0
M  V30 2571 H 237.039 -0.2244 -5.9968 0
M  V30 2572 H 238.109 -0.912931 -4.76228 0
M  V30 2573 N 239.452 1.56882 -0.150215 0
M  V30 2574 C 240.402 2.13501 0.800071 0
M  V30 2575 C 241.386 1.06368 1.20726 0
M  V30 2576 O 242.578 1.32538 1.17314 0
M  V30 2577 C 239.707 2.76271 2.03787 0
M  V30 2578 C 238.793 3.90533 1.65364 0
M  V30 2579 N 239.184 4.96259 0.977794 0
M  V30 2580 C 237.482 4.013 1.94613 0
M  V30 2581 C 238.183 5.76286 0.791794 0
M  V30 2582 N 237.159 5.27163 1.32666 0
M  V30 2583 H 240.961 2.92615 0.274517 0
M  V30 2584 H 238.475 1.62319 0.0512144 0
M  V30 2585 H 240.472 3.15197 2.72867 0
M  V30 2586 H 239.132 1.98631 2.56857 0
M  V30 2587 H 240.143 5.13953 0.638193 0
M  V30 2588 H 236.82 3.3474 2.4951 0
M  V30 2589 H 238.21 6.71401 0.258894 0
M  V30 2590 N 240.93 -0.123565 1.57115 0
M  V30 2591 C 242.158 -0.846461 1.88793 0
M  V30 2592 C 242.573 -1.73652 0.740976 0
M  V30 2593 O 241.93 -1.80207 -0.288393 0
M  V30 2594 C 241.981 -1.6837 3.19897 0
M  V30 2595 O 241.702 -0.829477 4.30176 0
M  V30 2596 C 243.203 -2.51214 3.65248 0
M  V30 2597 H 240.423 -0.243573 0.625231 0
M  V30 2598 H 242.967 -0.109324 2.04208 0
M  V30 2599 H 241.122 -2.37364 3.06165 0
M  V30 2600 H 241.536 -1.40651 5.0529 0
M  V30 2601 H 243.01 -3.05497 4.59756 0
M  V30 2602 H 243.487 -3.28359 2.9168 0
M  V30 2603 H 244.093 -1.8747 3.81752 0
M  V30 2604 N 242.408 -1.52605 -0.393616 0
M  V30 2605 C 243.648 -1.6911 -1.1481 0
M  V30 2606 C 244.012 -0.41969 -1.87357 0
M  V30 2607 O 245.213 -0.461034 -2.64817 0
M  V30 2608 C 243.484 -2.88909 -2.10395 0
M  V30 2609 S 245.043 -3.25977 -2.93742 0
M  V30 2610 H 241.861 -0.595337 -0.38871 0
M  V30 2611 H 244.463 -1.90641 -0.433178 0
M  V30 2612 H 243.167 -3.79672 -1.55812 0
M  V30 2613 H 242.698 -2.69698 -2.86403 0
M  V30 2614 H 244.713 -2.75806 -4.12487 0
M  V30 2615 N 243.887 0.651787 -1.4349 0
M  V30 2616 C 245.133 1.41376 -1.45398 0
M  V30 2617 C 245.466 1.94041 -0.0784823 0
M  V30 2618 O 244.741 1.72379 0.900878 0
M  V30 2619 C 245.024 2.59414 -2.49752 0
M  V30 2620 C 244.877 2.12232 -3.96582 0
M  V30 2621 C 246.196 3.61626 -2.50827 0
M  V30 2622 H 243.315 0.512719 -0.529422 0
M  V30 2623 H 245.957 0.738796 -1.75048 0
M  V30 2624 H 244.107 3.16997 -2.246 0
M  V30 2625 H 245.779 1.59639 -4.32797 0
M  V30 2626 H 244.022 1.43592 -4.09346 0
M  V30 2627 H 244.693 2.9712 -4.65214 0
M  V30 2628 H 247.169 3.13805 -2.7325 0
M  V30 2629 H 246.045 4.41766 -3.25783 0
M  V30 2630 H 246.306 4.14314 -1.5426 0
M  V30 2631 N 245.365 1.30045 0.890287 0
M  V30 2632 C 246.315 1.12592 1.9826 0
M  V30 2633 C 247.299 0.0426021 1.60844 0
M  V30 2634 O 248.491 0.265346 1.75 0
M  V30 2635 C 245.62 0.814301 3.33503 0
M  V30 2636 C 244.706 1.93761 3.7725 0
M  V30 2637 N 245.097 3.18232 3.93143 0
M  V30 2638 C 243.395 1.83277 4.06602 0
M  V30 2639 C 244.096 3.9158 4.30163 0
M  V30 2640 N 243.072 3.19591 4.3973 0
M  V30 2641 H 246.874 2.07003 2.08631 0
M  V30 2642 H 244.388 1.21307 1.07974 0
M  V30 2643 H 246.385 0.67029 4.11476 0
M  V30 2644 H 245.045 -0.121797 3.24471 0
M  V30 2645 H 246.056 3.53581 3.78419 0
M  V30 2646 H 242.733 0.97001 4.06075 0
M  V30 2647 H 244.123 4.98744 4.50226 0
M  V30 2648 N 246.843 -1.10192 1.12674 0
M  V30 2649 C 247.791 -2.18694 0.792196 0
M  V30 2650 C 248.785 -1.67938 -0.222058 0
M  V30 2651 O 249.991 -1.79822 -0.0800074 0
M  V30 2652 H 246.366 -0.713223 0.238364 0
M  V30 2653 H 248.337 -2.44149 1.71564 0
M  V30 2654 C 247.086 -3.46682 0.265859 0
M  V30 2655 H 246.409 -3.86101 1.03761 0
M  V30 2656 H 247.849 -4.23942 0.0701128 0
M  V30 2657 C 246.308 -3.21506 -1.00675 0
M  V30 2658 O 246.838 -3.43408 -2.08408 0
M  V30 2659 N 245.044 -2.75158 -0.934692 0
M  V30 2660 H 244.591 -2.57535 -0.0578604 0
M  V30 2661 H 244.549 -2.58691 -1.7868 0
M  V30 2662 N 248.321 -0.919034 -1.28029 0
M  V30 2663 C 249.569 -0.553838 -1.94363 0
M  V30 2664 C 249.89 0.906357 -1.72656 0
M  V30 2665 O 249.16 1.64143 -1.0693 0
M  V30 2666 H 247.74 -0.201834 -0.719216 0
M  V30 2667 H 250.402 -1.16954 -1.55909 0
M  V30 2668 H 249.498 -0.752758 -3.02886 0
M  V30 2669 N 249.799 1.42003 -0.683588 0
M  V30 2670 C 250.709 2.34597 -0.0109075 0
M  V30 2671 C 251.725 1.55576 0.779245 0
M  V30 2672 O 252.901 1.88107 0.719555 0
M  V30 2673 C 249.966 3.34199 0.922588 0
M  V30 2674 C 249.027 4.29115 0.125984 0
M  V30 2675 C 248.26 5.23959 1.01502 0
M  V30 2676 O 248.483 5.23952 2.25456 0
M  V30 2677 O 247.417 6.00053 0.47111 0
M  V30 2678 H 251.243 2.93675 -0.773853 0
M  V30 2679 H 248.828 1.42654 -0.443861 0
M  V30 2680 H 250.71 3.95365 1.45823 0
M  V30 2681 H 249.385 2.77582 1.66523 0
M  V30 2682 H 248.292 3.71335 -0.453969 0
M  V30 2683 H 249.625 4.88798 -0.577736 0
M  V30 2684 N 251.277 0.427512 1.51691 0
M  V30 2685 C 252.525 -0.141948 2.01601 0
M  V30 2686 C 252.846 -1.44067 1.31414 0
M  V30 2687 O 252.116 -1.90763 0.445658 0
M  V30 2688 H 250.696 -0.0554468 0.744939 0
M  V30 2689 H 253.358 0.567968 1.86441 0
M  V30 2690 H 252.454 -0.324913 3.10404 0
M  V30 2691 N 252.755 -1.56801 0.158532 0
M  V30 2692 C 254.003 -1.96102 -0.488712 0
M  V30 2693 C 254.324 -1.04498 -1.64636 0
M  V30 2694 O 253.594 -0.108783 -1.95598 0
M  V30 2695 H 252.174 -0.724102 -0.183535 0
M  V30 2696 H 254.836 -1.93457 0.236728 0
M  V30 2697 H 253.932 -3.00097 -0.857219 0
M  V30 2698 N 254.233 0.115231 -1.57178 0
M  V30 2699 C 255.644 0.67197 -1.74188 0
M  V30 2700 C 255.995 1.80125 -0.777777 0
M  V30 2701 O 255.12 2.16346 0.0484376 0
M  V30 2702 C 255.715 1.22573 -3.1585 0
M  V30 2703 C 254.274 1.72872 -3.34353 0
M  V30 2704 C 253.421 0.629972 -2.70049 0
M  V30 2705 H 256.372 -0.110712 -1.58313 0
M  V30 2706 H 256.393 2.09535 -3.17609 0
M  V30 2707 H 255.905 0.403598 -3.85996 0
M  V30 2708 H 254.006 2.5755 -2.69256 0
M  V30 2709 H 254.119 1.83557 -4.42542 0
M  V30 2710 H 252.483 1.0645 -2.31388 0
M  V30 2711 H 253.266 -0.181241 -3.42821 0
M  V30 2712 N 255.711 1.52812 0.385517 0
M  V30 2713 C 256.959 1.67694 1.12797 0
M  V30 2714 C 257.28 0.421115 1.90399 0
M  V30 2715 O 256.55 -0.564551 1.87589 0
M  V30 2716 H 255.13 0.618155 0.419396 0
M  V30 2717 H 257.792 1.89938 0.436972 0
M  V30 2718 H 256.888 2.52896 1.82894 0
M  V30 2719 N 257.189 -0.644168 1.43834 0
M  V30 2720 C 258.139 -1.7501 1.46135 0
M  V30 2721 C 259.123 -1.57507 0.328685 0
M  V30 2722 O 260.315 -1.67465 0.5731 0
M  V30 2723 C 257.444 -3.13641 1.39585 0
M  V30 2724 C 256.53 -3.3666 2.57916 0
M  V30 2725 N 256.921 -3.30107 3.83227 0
M  V30 2726 C 255.219 -3.67411 2.52834 0
M  V30 2727 C 255.92 -3.53456 4.61999 0
M  V30 2728 N 254.896 -3.75705 3.9287 0
M  V30 2729 H 258.698 -1.68382 2.40883 0
M  V30 2730 H 256.212 -0.846169 1.38614 0
M  V30 2731 H 258.209 -3.92933 1.39317 0
M  V30 2732 H 256.869 -3.21444 0.45865 0
M  V30 2733 H 257.88 -3.09316 4.15384 0
M  V30 2734 H 254.557 -3.82275 1.67845 0
M  V30 2735 H 255.947 -3.54093 5.71024 0
M  V30 2736 N 258.668 -1.30515 -0.883378 0
M  V30 2737 C 260.079 -1.17509 -1.45081 0
M  V30 2738 C 260.43 0.223605 -1.94922 0
M  V30 2739 O 259.555 1.12041 -1.85137 0
M  V30 2740 C 260.15 -2.12715 -2.63701 0
M  V30 2741 C 258.709 -2.03682 -3.16529 0
M  V30 2742 C 257.856 -2.02706 -1.89224 0
M  V30 2743 H 260.807 -1.42762 -0.693165 0
M  V30 2744 H 260.828 -1.70891 -3.39965 0
M  V30 2745 H 260.34 -3.14505 -2.27395 0
M  V30 2746 H 258.441 -1.05039 -3.57488 0
M  V30 2747 H 258.554 -2.92146 -3.7972 0
M  V30 2748 H 256.918 -1.4753 -2.07622 0
M  V30 2749 H 257.701 -3.06229 -1.55174 0
M  V30 2750 N 260.146 1.09593 -1.13257 0
M  V30 2751 C 261.079 2.15451 -0.752061 0
M  V30 2752 C 262.057 1.60493 0.260913 0
M  V30 2753 O 263.241 1.8788 0.152819 0
M  V30 2754 C 260.368 3.38506 -0.114594 0
M  V30 2755 C 259.414 4.12183 -1.09579 0
M  V30 2756 S 260.247 4.6661 -2.62745 0
M  V30 2757 C 261.403 5.92966 -2.00354 0
M  V30 2758 H 261.636 2.47395 -1.64872 0
M  V30 2759 H 259.169 1.21515 -0.952545 0
M  V30 2760 H 261.127 4.09757 0.246808 0
M  V30 2761 H 259.788 3.04784 0.759309 0
M  V30 2762 H 258.981 5.00445 -0.597545 0
M  V30 2763 H 258.583 3.46785 -1.40057 0
M  V30 2764 H 260.875 6.63882 -1.35156 0
M  V30 2765 H 261.818 6.47467 -2.86691 0
M  V30 2766 H 262.226 5.45405 -1.4558 0
M  V30 2767 N 261.624 0.925811 1.2754 0
M  V30 2768 C 262.87 0.575575 1.95086 0
M  V30 2769 C 263.225 -0.873246 1.71441 0
M  V30 2770 O 262.518 -1.61443 1.03183 0
M  V30 2771 C 262.712 0.835296 3.47502 0
M  V30 2772 C 262.541 2.30781 3.85967 0
M  V30 2773 C 261.311 2.96017 4.09514 0
M  V30 2774 C 263.509 3.28519 3.95702 0
M  V30 2775 N 261.491 4.3344 4.34744 0
M  V30 2776 C 262.862 4.51146 4.25285 0
M  V30 2777 C 264.917 3.23753 3.7827 0
M  V30 2778 C 263.62 5.69606 4.39251 0
M  V30 2779 C 265.646 4.41523 3.9346 0
M  V30 2780 C 265.008 5.62928 4.23428 0
M  V30 2781 H 261.107 0.260711 0.737261 0
M  V30 2782 H 263.691 1.19204 1.53943 0
M  V30 2783 H 261.862 0.248005 3.87607 0
M  V30 2784 H 263.594 0.447878 4.02214 0
M  V30 2785 H 260.349 2.46695 4.04275 0
M  V30 2786 H 260.773 5.04528 4.5142 0
M  V30 2787 H 265.415 2.3096 3.54143 0
M  V30 2788 H 263.133 6.62866 4.62205 0
M  V30 2789 H 266.719 4.39351 3.81394 0
M  V30 2790 H 265.599 6.52538 4.34929 0
M  V30 2791 N 263.102 -1.41638 0.69111 0
M  V30 2792 C 264.05 -2.32597 0.0115199 0
M  V30 2793 C 265.044 -1.5072 -0.773296 0
M  V30 2794 O 266.25 -1.66685 -0.67942 0
M  V30 2795 H 262.625 -0.751849 -0.0150746 0
M  V30 2796 H 264.596 -2.87593 0.795791 0
M  V30 2797 C 263.345 -3.35467 -0.914172 0
M  V30 2798 H 262.668 -3.9852 -0.319687 0
M  V30 2799 H 264.108 -4.01662 -1.35808 0
M  V30 2800 C 262.567 -2.69004 -2.02826 0
M  V30 2801 O 263.097 -2.53444 -3.11655 0
M  V30 2802 N 261.303 -2.2777 -1.80469 0
M  V30 2803 H 260.85 -2.40626 -0.919615 0
M  V30 2804 H 260.808 -1.83635 -2.55197 0
M  V30 2805 N 264.58 -0.43555 -1.51462 0
M  V30 2806 C 265.996 -0.0877501 -1.59359 0
M  V30 2807 C 266.196 1.4027 -1.4466 0
M  V30 2808 O 265.252 2.17243 -1.28693 0
M  V30 2809 C 266.565 -0.606264 -2.94525 0
M  V30 2810 C 268.113 -0.566548 -3.0783 0
M  V30 2811 C 268.588 -1.06201 -4.45517 0
M  V30 2812 N 270.079 -1.01992 -4.51832 0
M  V30 2813 C 270.814 -1.37417 -5.5669 0
M  V30 2814 N 270.31 -1.80119 -6.68976 0
M  V30 2815 N 272.103 -1.29245 -5.47039 0
M  V30 2816 H 264.254 -1.40533 -1.59261 0
M  V30 2817 H 266.517 -0.578992 -0.750648 0
M  V30 2818 H 266.223 -1.64901 -3.10645 0
M  V30 2819 H 266.097 -0.0302097 -3.77188 0
M  V30 2820 H 268.484 0.467208 -2.91378 0
M  V30 2821 H 268.565 -1.17898 -2.2701 0
M  V30 2822 H 268.209 -2.09422 -4.62715 0
M  V30 2823 H 268.139 -0.426127 -5.24873 0
M  V30 2824 H 270.63 -0.706308 -3.71241 0
M  V30 2825 H 270.943 -2.05392 -7.45006 0
M  V30 2826 H 269.288 -1.84044 -6.70189 0
M  V30 2827 H 272.479 -0.957522 -4.58202 0
M  V30 2828 H 272.652 -1.57182 -6.28648 0
M  V30 2829 N 266.058 1.56714 -0.166846 0
M  V30 2830 C 267.335 1.88412 0.525373 0
M  V30 2831 C 267.715 1.07602 1.81618 0
M  V30 2832 O 267.063 0.168621 2.27877 0
M  V30 2833 C 267.273 3.40363 0.771613 0
M  V30 2834 C 268.621 4.10007 1.1036 0
M  V30 2835 O 269.645 3.45655 0.860304 0
M  V30 2836 O 268.504 5.2369 1.56239 0
M  V30 2837 H 265.598 0.781587 0.270278 0
M  V30 2838 H 268.144 1.68458 -0.204946 0
M  V30 2839 H 266.916 3.91046 -0.141093 0
M  V30 2840 H 266.539 3.65914 1.55541 0
M  V30 2841 N 267.536 -0.106894 1.57237 0
M  V30 2842 C 268.484 -1.14944 2.02215 0
M  V30 2843 C 269.478 -1.42167 0.92114 0
M  V30 2844 O 270.684 -1.41987 1.10634 0
M  V30 2845 H 267.059 -0.387841 0.64427 0
M  V30 2846 H 269.03 -0.743683 2.88984 0
M  V30 2847 C 267.779 -2.4647 2.4525 0
M  V30 2848 H 267.102 -2.26363 3.29545 0
M  V30 2849 H 268.542 -3.17948 2.80508 0
M  V30 2850 C 267.001 -3.09921 1.321 0
M  V30 2851 O 267.531 -3.9651 0.643622 0
M  V30 2852 N 265.737 -2.69986 1.07497 0
M  V30 2853 H 265.284 -1.99667 1.62761 0
M  V30 2854 H 265.242 -3.12769 0.319876 0
M  V30 2855 N 269.014 -1.53014 -0.377408 0
M  V30 2856 C 269.961 -1.78616 -1.46168 0
M  V30 2857 C 270.931 -0.629917 -1.53692 0
M  V30 2858 O 272.116 -0.870861 -1.69766 0
M  V30 2859 C 269.256 -1.97123 -2.8326 0
M  V30 2860 C 268.369 -3.24831 -2.84796 0
M  V30 2861 C 267.504 -3.33591 -4.13389 0
M  V30 2862 C 266.543 -4.55377 -4.09021 0
M  V30 2863 N 265.68 -4.61355 -5.29241 0
M  V30 2864 H 270.52 -2.71142 -1.23637 0
M  V30 2865 H 268.057 -1.34326 -0.599577 0
M  V30 2866 H 270.015 -2.05839 -3.62886 0
M  V30 2867 H 268.645 -1.07946 -3.04216 0
M  V30 2868 H 267.697 -3.25128 -1.97474 0
M  V30 2869 H 269.009 -4.14523 -2.77439 0
M  V30 2870 H 268.163 -3.41554 -5.01424 0
M  V30 2871 H 266.902 -2.41894 -4.23484 0
M  V30 2872 H 265.907 -4.47527 -3.19373 0
M  V30 2873 H 267.132 -5.48402 -4.00539 0
M  V30 2874 H 265.078 -3.72554 -5.39944 0
M  V30 2875 H 264.995 -5.44935 -5.24006 0
M  V30 2876 H 266.263 -4.73586 -6.19141 0
M  V30 2877 N 270.492 0.636531 -1.44174 0
M  V30 2878 C 271.422 1.76003 -1.53444 0
M  V30 2879 C 272.403 1.65619 -0.387841 0
M  V30 2880 O 273.588 1.84461 -0.607257 0
M  V30 2881 C 270.718 3.14511 -1.4731 0
M  V30 2882 C 269.672 3.39677 -2.60391 0
M  V30 2883 C 268.998 4.78159 -2.39308 0
M  V30 2884 C 270.298 3.32772 -4.02567 0
M  V30 2885 H 271.992 1.68501 -2.47483 0
M  V30 2886 H 269.538 0.809237 -1.19111 0
M  V30 2887 H 271.491 3.92878 -1.52397 0
M  V30 2888 H 270.215 3.22783 -0.49785 0
M  V30 2889 H 268.874 2.63688 -2.54684 0
M  V30 2890 H 268.522 4.83128 -1.39988 0
M  V30 2891 H 268.222 4.95956 -3.15122 0
M  V30 2892 H 269.746 5.58762 -2.46205 0
M  V30 2893 H 271.16 4.01051 -4.09672 0
M  V30 2894 H 269.557 3.62104 -4.7854 0
M  V30 2895 H 270.627 2.30669 -4.2652 0
M  V30 2896 N 271.97 1.30982 0.876444 0
M  V30 2897 C 273.219 1.19658 1.62373 0
M  V30 2898 C 273.532 -0.245636 1.94052 0
M  V30 2899 O 274.738 -0.48049 2.67214 0
M  V30 2900 C 273.194 2.09433 2.92687 0
M  V30 2901 C 272.802 3.58613 2.68516 0
M  V30 2902 C 274.546 2.06893 3.70669 0
M  V30 2903 C 272.453 4.40416 3.94699 0
M  V30 2904 H 271.383 0.444268 0.609214 0
M  V30 2905 H 274.034 1.55791 0.969605 0
M  V30 2906 H 272.416 1.66191 3.59439 0
M  V30 2907 H 273.59 4.10058 2.10212 0
M  V30 2908 H 271.905 3.63063 2.03898 0
M  V30 2909 H 274.502 2.65258 4.64265 0
M  V30 2910 H 274.845 1.05448 4.02724 0
M  V30 2911 H 275.378 2.48301 3.10792 0
M  V30 2912 H 272.117 5.42591 3.67798 0
M  V30 2913 H 271.637 3.93731 4.52477 0
M  V30 2914 H 273.316 4.52294 4.62644 0
M  V30 2915 N 273.449 -1.08991 1.13837 0
M  V30 2916 C 274.396 -2.15748 0.819835 0
M  V30 2917 C 275.366 -1.64636 -0.220026 0
M  V30 2918 O 276.551 -1.90582 -0.0912757 0
M  V30 2919 C 273.691 -3.4382 0.296913 0
M  V30 2920 C 272.804 -4.0881 1.39636 0
M  V30 2921 C 271.939 -5.24655 0.831314 0
M  V30 2922 C 270.978 -5.81575 1.90886 0
M  V30 2923 N 270.115 -6.88774 1.36142 0
M  V30 2924 H 274.955 -2.42338 1.73426 0
M  V30 2925 H 272.492 -1.18935 0.865613 0
M  V30 2926 H 274.45 -4.17193 -0.0244339 0
M  V30 2927 H 273.08 -3.17535 -0.580628 0
M  V30 2928 H 272.132 -3.33258 1.83422 0
M  V30 2929 H 273.444 -4.47141 2.21058 0
M  V30 2930 H 272.598 -6.04942 0.461515 0
M  V30 2931 H 271.337 -4.87698 -0.013932 0
M  V30 2932 H 270.342 -4.99946 2.28767 0
M  V30 2933 H 271.567 -6.20592 2.75758 0
M  V30 2934 H 269.513 -6.53788 0.538254 0
M  V30 2935 H 269.43 -7.25898 2.11208 0
M  V30 2936 H 270.698 -7.72806 1.01933 0
M  V30 2937 N 274.927 -0.932562 -1.27047 0
M  V30 2938 C 276.174 -0.575559 -1.94148 0
M  V30 2939 C 276.502 0.883984 -1.73251 0
M  V30 2940 O 275.757 1.64655 -1.0577 0
M  V30 2941 C 276.056 -0.853713 -3.47054 0
M  V30 2942 C 275.722 -2.29577 -3.88079 0
M  V30 2943 C 274.384 -2.68999 -3.9899 0
M  V30 2944 C 276.736 -3.23331 -4.08787 0
M  V30 2945 C 274.064 -4.01289 -4.28 0
M  V30 2946 C 276.416 -4.55207 -4.39282 0
M  V30 2947 C 275.08 -4.94457 -4.48407 0
M  V30 2948 H 274.35 -0.210612 -0.710439 0
M  V30 2949 H 276.997 -1.17744 -1.51025 0
M  V30 2950 H 275.302 -0.169204 -3.91434 0
M  V30 2951 H 276.999 -0.55639 -3.97121 0
M  V30 2952 H 273.589 -1.97994 -3.80127 0
M  V30 2953 H 277.773 -2.94074 -3.99793 0
M  V30 2954 H 273.029 -4.31374 -4.33275 0
M  V30 2955 H 277.203 -5.27852 -4.54252 0
M  V30 2956 H 274.83 -5.96994 -4.7064 0
M  V30 2957 N 276.405 1.4127 -0.698611 0
M  V30 2958 C 277.654 2.00408 -0.227949 0
M  V30 2959 C 277.967 1.55981 1.18023 0
M  V30 2960 O 279.173 2.07699 1.74852 0
M  V30 2961 C 277.629 3.58129 -0.356636 0
M  V30 2962 C 277.237 4.11536 -1.77037 0
M  V30 2963 C 278.981 4.24466 0.0540969 0
M  V30 2964 C 276.888 5.61701 -1.85055 0
M  V30 2965 H 275.818 0.749586 -0.0814657 0
M  V30 2966 H 278.469 1.61713 -0.867249 0
M  V30 2967 H 276.851 3.94442 0.350965 0
M  V30 2968 H 278.025 3.86636 -2.50698 0
M  V30 2969 H 276.34 3.57736 -2.13105 0
M  V30 2970 H 278.937 5.34698 0.0146723 0
M  V30 2971 H 279.28 4.01687 1.09332 0
M  V30 2972 H 279.813 3.93198 -0.603337 0
M  V30 2973 H 276.552 5.89312 -2.8704 0
M  V30 2974 H 276.072 5.88519 -1.15783 0
M  V30 2975 H 277.751 6.26524 -1.61484 0
M  V30 2976 N 277.883 0.443576 1.51229 0
M  V30 2977 C 279.294 -0.0180867 1.86691 0
M  V30 2978 C 279.645 -1.41384 1.36033 0
M  V30 2979 O 278.77 -2.04291 0.713722 0
M  V30 2980 C 279.365 -0.039597 3.38777 0
M  V30 2981 C 277.924 -0.445692 3.73752 0
M  V30 2982 C 277.071 0.357584 2.74985 0
M  V30 2983 H 280.022 0.659138 1.44364 0
M  V30 2984 H 280.043 -0.847761 3.70936 0
M  V30 2985 H 279.555 0.976382 3.75617 0
M  V30 2986 H 277.656 -1.46704 3.42503 0
M  V30 2987 H 277.769 -0.166155 4.78812 0
M  V30 2988 H 276.133 -0.184973 2.54027 0
M  V30 2989 H 276.916 1.37256 3.14668 0
M  V30 2990 N 279.361 -1.56624 0.175154 0
M  V30 2991 C 280.271 -2.21741 -0.766042 0
M  V30 2992 C 281.287 -1.21023 -1.25018 0
M  V30 2993 O 282.463 -1.53697 -1.3015 0
M  V30 2994 C 279.528 -2.84839 -1.97655 0
M  V30 2995 C 278.589 -4.00769 -1.53892 0
M  V30 2996 C 277.822 -4.60849 -2.69173 0
M  V30 2997 O 278.045 -4.19823 -3.86141 0
M  V30 2998 O 276.979 -5.50655 -2.43028 0
M  V30 2999 H 280.805 -3.02738 -0.241585 0
M  V30 3000 H 278.39 -1.49305 -0.053222 0
M  V30 3001 H 280.272 -3.24834 -2.68442 0
M  V30 3002 H 278.947 -2.06836 -2.48999 0
M  V30 3003 H 277.854 -3.65436 -0.80044 0
M  V30 3004 H 279.187 -4.80376 -1.07236 0
M  V30 3005 N 280.839 0.0985539 -1.57292 0
M  V30 3006 C 282.085 0.803867 -1.86188 0
M  V30 3007 C 282.418 1.78549 -0.763794 0
M  V30 3008 O 281.693 1.93153 0.22855 0
M  V30 3009 C 281.976 1.53568 -3.25713 0
M  V30 3010 C 281.829 0.572277 -4.46145 0
M  V30 3011 C 283.148 2.48708 -3.63087 0
M  V30 3012 H 280.267 0.290781 -0.677211 0
M  V30 3013 H 282.909 0.0675783 -1.8988 0
M  V30 3014 H 281.059 2.16332 -3.22696 0
M  V30 3015 H 282.731 -0.0480894 -4.61275 0
M  V30 3016 H 280.974 -0.114618 -4.33649 0
M  V30 3017 H 281.645 1.12139 -5.40489 0
M  V30 3018 H 284.121 1.96039 -3.67026 0
M  V30 3019 H 282.997 2.96932 -4.61652 0
M  V30 3020 H 283.258 3.32309 -2.91588 0
M  V30 3021 N 282.317 1.53212 0.369288 0
M  V30 3022 C 283.227 1.82342 1.47609 0
M  V30 3023 C 284.243 0.711532 1.58787 0
M  V30 3024 O 285.419 1.0012 1.74751 0
M  V30 3025 C 282.484 2.00393 2.8292 0
M  V30 3026 C 281.545 3.24297 2.81301 0
M  V30 3027 C 280.778 3.41478 4.10157 0
M  V30 3028 O 281.001 2.63033 5.06132 0
M  V30 3029 O 279.935 4.34817 4.16194 0
M  V30 3030 H 283.761 2.76366 1.25918 0
M  V30 3031 H 281.346 1.38547 0.559034 0
M  V30 3032 H 283.228 2.13859 3.63101 0
M  V30 3033 H 281.903 1.09559 3.04596 0
M  V30 3034 H 280.81 3.16257 1.99831 0
M  V30 3035 H 282.143 4.15041 2.64578 0
M  V30 3036 N 283.795 -0.628877 1.44509 0
M  V30 3037 C 285.042 -1.38839 1.47411 0
M  V30 3038 C 285.37 -1.94202 0.10757 0
M  V30 3039 O 284.625 -1.74243 -0.890947 0
M  V30 3040 C 284.924 -2.56995 2.48371 0
M  V30 3041 C 284.59 -2.19908 3.93639 0
M  V30 3042 C 283.252 -2.09506 4.33198 0
M  V30 3043 C 285.604 -1.9064 4.85083 0
M  V30 3044 C 282.932 -1.68028 5.62124 0
M  V30 3045 C 285.284 -1.50655 6.14399 0
M  V30 3046 C 283.948 -1.38796 6.5291 0
M  V30 3047 H 283.218 -0.508048 0.539414 0
M  V30 3048 H 285.865 -0.712913 1.77735 0
M  V30 3049 H 284.17 -3.29786 2.11538 0
M  V30 3050 H 285.867 -3.15223 2.47861 0
M  V30 3051 H 282.457 -2.28922 3.62343 0
M  V30 3052 H 286.641 -1.97585 4.55273 0
M  V30 3053 H 281.897 -1.57452 5.90778 0
M  V30 3054 H 286.071 -1.27048 6.84713 0
M  V30 3055 H 283.698 -1.06429 7.52713 0
M  V30 3056 N 285.273 -1.31445 -0.869486 0
M  V30 3057 C 286.498 -1.24256 -1.66058 0
M  V30 3058 C 286.923 0.188928 -1.87149 0
M  V30 3059 O 286.281 1.13522 -1.4136 0
M  V30 3060 C 286.329 -1.9924 -3.00559 0
M  V30 3061 O 285.433 -1.33007 -3.90362 0
M  V30 3062 H 284.774 -0.428973 -0.506831 0
M  V30 3063 H 287.304 -1.73521 -1.08404 0
M  V30 3064 H 287.314 -2.08854 -3.50491 0
M  V30 3065 H 285.989 -3.03342 -2.84528 0
M  V30 3066 H 284.566 -1.31848 -3.48813 0
M  V30 3067 N 286.751 1.08385 -1.14413 0
M  V30 3068 C 288.028 1.77429 -0.823297 0
M  V30 3069 C 288.408 1.9974 0.683163 0
M  V30 3070 O 287.756 1.60739 1.62405 0
M  V30 3071 C 287.966 3.09004 -1.62227 0
M  V30 3072 C 289.314 3.83532 -1.82177 0
M  V30 3073 O 290.338 3.18786 -1.58915 0
M  V30 3074 O 289.197 4.99792 -2.21067 0
M  V30 3075 H 286.291 0.769999 -0.301712 0
M  V30 3076 H 288.837 1.14846 -1.24934 0
M  V30 3077 H 287.609 2.88316 -2.64555 0
M  V30 3078 H 287.232 3.79316 -1.19187 0
M  V30 3079 N 288.23 0.939286 1.26551 0
M  V30 3080 C 289.641 0.628782 1.75793 0
M  V30 3081 C 289.992 -0.856046 1.7654 0
M  V30 3082 O 289.117 -1.66994 1.3763 0
M  V30 3083 C 289.712 1.13465 3.19235 0
M  V30 3084 C 288.271 0.874601 3.66098 0
M  V30 3085 C 287.418 1.28667 2.45642 0
M  V30 3086 H 290.369 1.1178 1.12654 0
M  V30 3087 H 290.39 0.487609 3.77363 0
M  V30 3088 H 289.902 2.21535 3.1866 0
M  V30 3089 H 288.003 -0.191793 3.72106 0
M  V30 3090 H 288.116 1.50028 4.55004 0
M  V30 3091 H 286.48 0.705109 2.44745 0
M  V30 3092 H 287.263 2.37625 2.47769 0
M  V30 3093 N 289.708 -1.40897 0.706093 0
M  V30 3094 C 290.933 -2.05895 0.249435 0
M  V30 3095 C 291.358 -1.52823 -1.09666 0
M  V30 3096 O 290.716 -0.659589 -1.68876 0
M  V30 3097 C 290.764 -3.59872 0.22904 0
M  V30 3098 O 289.868 -4.04708 -0.792784 0
M  V30 3099 H 289.209 -0.653206 0.119241 0
M  V30 3100 H 291.739 -1.80471 0.96391 0
M  V30 3101 H 291.749 -4.07951 0.0634791 0
M  V30 3102 H 290.424 -3.97866 1.21141 0
M  V30 3103 H 289.001 -3.68111 -0.59572 0
M  V30 3104 N 291.186 -0.45159 -1.50991 0
M  V30 3105 C 292.416 0.108177 -2.06317 0
M  V30 3106 C 292.824 1.35774 -1.31765 0
M  V30 3107 O 292.167 1.79838 -0.374694 0
M  V30 3108 C 292.229 0.481659 -3.56259 0
M  V30 3109 C 291.893 -0.663114 -4.52163 0
M  V30 3110 C 292.89 -1.53947 -4.96585 0
M  V30 3111 C 290.575 -0.8479 -4.95092 0
M  V30 3112 C 292.569 -2.58518 -5.82621 0
M  V30 3113 C 290.256 -1.89686 -5.80915 0
M  V30 3114 C 291.254 -2.76388 -6.24579 0
M  V30 3115 O 290.942 -3.79482 -7.08695 0
M  V30 3116 H 290.674 0.00499183 -0.675982 0
M  V30 3117 H 293.228 -0.633659 -1.95381 0
M  V30 3118 H 291.458 1.27641 -3.65027 0
M  V30 3119 H 293.147 0.974233 -3.94035 0
M  V30 3120 H 293.913 -1.4083 -4.64103 0
M  V30 3121 H 289.792 -0.18258 -4.60638 0
M  V30 3122 H 293.336 -3.26224 -6.16623 0
M  V30 3123 H 289.233 -2.02817 -6.12809 0
M  V30 3124 H 290.001 -3.76234 -7.26905 0
M  V30 3125 N 292.664 1.56529 -0.183458 0
M  V30 3126 C 293.614 2.1515 0.754605 0
M  V30 3127 C 294.598 1.08904 1.18443 0
M  V30 3128 O 295.79 1.34997 1.14476 0
M  V30 3129 C 292.919 2.80531 1.97881 0
M  V30 3130 C 292.005 3.93952 1.57043 0
M  V30 3131 N 292.396 4.98221 0.87231 0
M  V30 3132 C 290.694 4.05338 1.86057 0
M  V30 3133 C 291.395 5.77836 0.669377 0
M  V30 3134 N 290.371 5.29858 1.21454 0
M  V30 3135 H 294.173 2.93132 0.212387 0
M  V30 3136 H 291.687 1.62391 0.0167725 0
M  V30 3137 H 293.684 3.20914 2.6612 0
M  V30 3138 H 292.344 2.04035 2.52586 0
M  V30 3139 H 293.355 5.15191 0.529033 0
M  V30 3140 H 290.032 3.39957 2.42354 0
M  V30 3141 H 291.422 6.71799 0.116422 0
M  V30 3142 N 294.142 -0.090211 1.57342 0
M  V30 3143 C 295.072 -1.10976 2.05443 0
M  V30 3144 C 296.053 -1.41482 0.944284 0
M  V30 3145 O 297.238 -1.51428 1.21586 0
M  V30 3146 C 294.368 -2.42831 2.48295 0
M  V30 3147 C 293.322 -2.26721 3.63018 0
M  V30 3148 C 292.648 -3.63796 3.91863 0
M  V30 3149 C 293.948 -1.7037 4.93732 0
M  V30 3150 H 295.642 -0.709564 2.9087 0
M  V30 3151 H 293.188 -0.339874 1.39932 0
M  V30 3152 H 295.141 -3.14431 2.80555 0
M  V30 3153 H 293.865 -2.84795 1.59873 0
M  V30 3154 H 292.524 -1.57565 3.31012 0
M  V30 3155 H 292.172 -4.03297 3.00601 0
M  V30 3156 H 291.872 -3.53861 4.69101 0
M  V30 3157 H 293.396 -4.36855 4.26603 0
M  V30 3158 H 294.81 -2.31816 5.24342 0
M  V30 3159 H 293.207 -1.71181 5.75167 0
M  V30 3160 H 294.277 -0.663542 4.80339 0
M  V30 3161 N 295.62 -1.53406 -0.361157 0
M  V30 3162 C 297.031 -1.61442 -0.937728 0
M  V30 3163 C 297.382 -0.48461 -1.90121 0
M  V30 3164 O 296.507 0.388312 -2.12888 0
M  V30 3165 C 297.102 -2.92624 -1.70753 0
M  V30 3166 C 295.661 -3.02981 -2.23337 0
M  V30 3167 C 294.808 -2.5677 -1.04712 0
M  V30 3168 H 297.759 -1.58083 -0.139816 0
M  V30 3169 H 297.78 -2.80675 -2.56908 0
M  V30 3170 H 297.292 -3.74834 -1.00604 0
M  V30 3171 H 295.393 -2.25368 -2.96715 0
M  V30 3172 H 295.506 -4.0814 -2.50916 0
M  V30 3173 H 293.87 -2.11752 -1.41539 0
M  V30 3174 H 294.653 -3.41402 -0.360539 0
M  V30 3175 N 297.098 0.621204 -1.44841 0
M  V30 3176 C 298.048 1.72663 -1.48901 0
M  V30 3177 C 299.032 1.56964 -0.353702 0
M  V30 3178 O 300.224 1.66532 -0.599669 0
M  V30 3179 C 297.353 3.11381 -1.44557 0
M  V30 3180 C 296.439 3.32514 -2.6324 0
M  V30 3181 N 296.83 3.23969 -3.8843 0
M  V30 3182 C 295.128 3.63343 -2.58647 0
M  V30 3183 C 295.829 3.46062 -4.67564 0
M  V30 3184 N 294.805 3.69407 -3.98797 0
M  V30 3185 H 298.607 1.64529 -2.43531 0
M  V30 3186 H 296.121 0.82401 -1.39942 0
M  V30 3187 H 298.118 3.90667 -1.4555 0
M  V30 3188 H 296.778 3.20674 -0.509731 0
M  V30 3189 H 297.789 3.02669 -4.20252 0
M  V30 3190 H 294.466 3.79556 -1.73906 0
M  V30 3191 H 295.856 3.44963 -5.76585 0
M  V30 3192 N 298.576 1.31904 0.862503 0
M  V30 3193 C 299.823 1.22017 1.61611 0
M  V30 3194 C 300.151 -0.21991 1.93253 0
M  V30 3195 O 299.406 -1.17076 1.56817 0
M  V30 3196 C 299.705 2.01713 2.95037 0
M  V30 3197 C 299.371 3.51145 2.82857 0
M  V30 3198 C 298.033 3.91889 2.79243 0
M  V30 3199 C 300.385 4.46204 2.69353 0
M  V30 3200 C 297.713 5.25947 2.59993 0
M  V30 3201 C 300.065 5.80397 2.5164 0
M  V30 3202 C 298.729 6.20352 2.46413 0
M  V30 3203 H 297.999 0.44649 0.591378 0
M  V30 3204 H 300.646 1.63248 1.00111 0
M  V30 3205 H 298.951 1.53185 3.60613 0
M  V30 3206 H 300.648 1.91437 3.52353 0
M  V30 3207 H 297.238 3.1878 2.86491 0
M  V30 3208 H 301.422 4.15652 2.71196 0
M  V30 3209 H 296.678 5.5597 2.54376 0
M  V30 3210 H 300.852 6.53676 2.40169 0
M  V30 3211 H 298.479 7.24172 2.31256 0
M  V30 3212 N 300.054 -1.07777 1.14986 0
M  V30 3213 C 301.284 -1.83752 0.944402 0
M  V30 3214 C 301.692 -1.8218 -0.51058 0
M  V30 3215 O 301.035 -1.22852 -1.36576 0
M  V30 3216 C 301.097 -3.32128 1.37592 0
M  V30 3217 C 300.761 -3.57425 2.84775 0
M  V30 3218 C 301.758 -3.5173 3.8286 0
M  V30 3219 C 299.443 -3.8523 3.2234 0
M  V30 3220 C 301.437 -3.73482 5.16517 0
M  V30 3221 C 299.124 -4.06634 4.56171 0
M  V30 3222 C 300.122 -4.00754 5.53069 0
M  V30 3223 O 299.81 -4.2159 6.84483 0
M  V30 3224 H 299.542 -0.58673 0.335744 0
M  V30 3225 H 302.096 -1.36982 1.53052 0
M  V30 3226 H 300.326 -3.79686 0.733165 0
M  V30 3227 H 302.015 -3.89555 1.14024 0
M  V30 3228 H 302.781 -3.30256 3.55184 0
M  V30 3229 H 298.66 -3.88923 2.47508 0
M  V30 3230 H 302.204 -3.68808 5.92137 0
M  V30 3231 H 298.101 -4.27593 4.83564 0
M  V30 3232 H 298.869 -4.38961 6.90837 0
M  V30 3233 N 301.532 -0.945985 -1.26051 0
M  V30 3234 C 302.442 -0.465633 -2.29933 0
M  V30 3235 C 303.458 0.462761 -1.67733 0
M  V30 3236 O 304.634 0.341118 -1.9849 0
M  V30 3237 C 301.699 0.256994 -3.45746 0
M  V30 3238 C 300.76 -0.708549 -4.23412 0
M  V30 3239 C 299.993 -0.0203135 -5.33696 0
M  V30 3240 O 300.216 1.19571 -5.57726 0
M  V30 3241 O 299.15 -0.701459 -5.97799 0
M  V30 3242 H 302.976 -1.32866 -2.73094 0
M  V30 3243 H 300.561 -0.712071 -1.31339 0
M  V30 3244 H 302.443 0.663852 -4.16138 0
M  V30 3245 H 301.118 1.09533 -3.04605 0
M  V30 3246 H 300.025 -1.16545 -3.55483 0
M  V30 3247 H 301.358 -1.51465 -4.68315 0
M  V30 3248 N 303.011 1.40521 -0.713556 0
M  V30 3249 C 303.941 2.33381 -0.0743864 0
M  V30 3250 C 304.922 1.52784 0.747735 0
M  V30 3251 O 306.107 1.81258 0.697071 0
M  V30 3252 C 303.237 3.36748 0.849598 0
M  V30 3253 C 302.191 4.27793 0.133247 0
M  V30 3254 C 301.517 5.21679 1.17281 0
M  V30 3255 C 302.817 5.12415 -1.01134 0
M  V30 3256 H 304.511 2.87081 -0.850007 0
M  V30 3257 H 302.057 1.38034 -0.410201 0
M  V30 3258 H 304.01 4.00648 1.30612 0
M  V30 3259 H 302.734 2.81439 1.65709 0
M  V30 3260 H 301.393 3.65342 -0.303426 0
M  V30 3261 H 301.041 4.62677 1.9733 0
M  V30 3262 H 300.741 5.83435 0.698397 0
M  V30 3263 H 302.265 5.88456 1.62947 0
M  V30 3264 H 303.679 5.69781 -0.634274 0
M  V30 3265 H 302.076 5.83203 -1.41399 0
M  V30 3266 H 303.146 4.48514 -1.84292 0
M  V30 3267 N 304.489 0.459591 1.5075 0
M  V30 3268 C 305.736 -0.0993495 2.02256 0
M  V30 3269 C 306.064 -1.40751 1.34237 0
M  V30 3270 O 305.319 -1.90379 0.453228 0
M  V30 3271 C 305.618 -0.342866 3.55752 0
M  V30 3272 C 305.284 0.88218 4.42186 0
M  V30 3273 C 303.946 1.21808 4.65528 0
M  V30 3274 C 306.298 1.69837 4.92752 0
M  V30 3275 C 303.626 2.37045 5.36681 0
M  V30 3276 C 305.978 2.84192 5.65171 0
M  V30 3277 C 304.642 3.1821 5.8677 0
M  V30 3278 H 303.912 -0.0363545 0.740108 0
M  V30 3279 H 306.559 0.611329 1.8148 0
M  V30 3280 H 304.864 -1.13567 3.7498 0
M  V30 3281 H 306.561 -0.789121 3.93159 0
M  V30 3282 H 303.151 0.610467 4.2423 0
M  V30 3283 H 307.335 1.45205 4.74583 0
M  V30 3284 H 302.591 2.63689 5.51614 0
M  V30 3285 H 306.765 3.4779 6.03337 0
M  V30 3286 H 304.392 4.07613 6.41682 0
M  V30 3287 N 305.967 -1.56429 0.191757 0
M  V30 3288 C 307.192 -2.02309 -0.456706 0
M  V30 3289 C 307.617 -1.07103 -1.5463 0
M  V30 3290 O 306.975 -0.0539677 -1.8122 0
M  V30 3291 C 307.023 -3.46654 -0.993159 0
M  V30 3292 O 306.127 -3.54559 -2.10622 0
M  V30 3293 H 305.468 -0.655303 -0.107114 0
M  V30 3294 H 307.998 -2.02364 0.301653 0
M  V30 3295 H 308.008 -3.86377 -1.31061 0
M  V30 3296 H 306.683 -4.1544 -0.195504 0
M  V30 3297 H 305.26 -3.26708 -1.79767 0
M  V30 3298 N 307.445 0.0818655 -1.57387 0
M  V30 3299 C 308.375 1.09885 -2.06028 0
M  V30 3300 C 309.356 1.4098 -0.951774 0
M  V30 3301 O 310.541 1.50781 -1.22387 0
M  V30 3302 C 307.671 2.4151 -2.4958 0
M  V30 3303 C 306.625 2.24792 -3.64215 0
M  V30 3304 C 305.951 3.61712 -3.93787 0
M  V30 3305 C 307.251 1.67749 -4.94629 0
M  V30 3306 H 308.945 0.694128 -2.91243 0
M  V30 3307 H 306.491 0.332448 -1.4011 0
M  V30 3308 H 308.444 3.12939 -2.82219 0
M  V30 3309 H 307.168 2.83943 -1.61381 0
M  V30 3310 H 305.827 1.55807 -3.31843 0
M  V30 3311 H 305.475 4.01697 -3.02735 0
M  V30 3312 H 305.175 3.51368 -4.70971 0
M  V30 3313 H 306.699 4.34587 -4.28913 0
M  V30 3314 H 308.113 2.29032 -5.25564 0
M  V30 3315 H 306.51 1.68128 -5.76067 0
M  V30 3316 H 307.58 0.638059 -4.80684 0
M  V30 3317 N 308.923 1.53595 0.353017 0
M  V30 3318 C 310.169 1.71581 1.09232 0
M  V30 3319 C 310.524 0.468328 1.86613 0
M  V30 3320 O 309.817 -0.538911 1.83865 0
M  V30 3321 C 310.011 2.91313 2.07054 0
M  V30 3322 C 309.84 4.27585 1.39287 0
M  V30 3323 C 308.61 4.92233 1.1417 0
M  V30 3324 C 310.808 5.07656 0.824005 0
M  V30 3325 N 308.79 6.124 0.428841 0
M  V30 3326 C 310.161 6.19531 0.241195 0
M  V30 3327 C 312.216 4.92609 0.723922 0
M  V30 3328 C 310.919 7.18002 -0.431952 0
M  V30 3329 C 312.945 5.91365 0.0645334 0
M  V30 3330 C 312.307 7.02571 -0.507347 0
M  V30 3331 H 308.406 0.680987 0.384422 0
M  V30 3332 H 310.99 1.91013 0.377096 0
M  V30 3333 H 309.161 2.73398 2.75877 0
M  V30 3334 H 310.893 2.98062 2.73753 0
M  V30 3335 H 307.648 4.51612 1.42631 0
M  V30 3336 H 308.072 6.76944 0.0874131 0
M  V30 3337 H 312.714 4.06808 1.15181 0
M  V30 3338 H 310.432 8.03384 -0.871758 0
M  V30 3339 H 314.018 5.81799 -0.0121469 0
M  V30 3340 H 312.898 7.77675 -1.0095 0
M  V30 3341 N 310.401 -0.613514 1.45168 0
M  V30 3342 C 311.364 -1.7065 1.53007 0
M  V30 3343 C 312.364 -1.5548 0.410184 0
M  V30 3344 O 313.554 -1.60656 0.673455 0
M  V30 3345 C 310.686 -3.09875 1.42093 0
M  V30 3346 H 311.879 -1.65068 2.50385 0
M  V30 3347 H 309.432 -0.828728 1.32521 0
M  V30 3348 H 310.167 -3.21039 0.458769 0
M  V30 3349 H 309.952 -3.22293 2.23315 0
M  V30 3350 H 311.442 -3.895 1.50598 0
M  V30 3351 N 311.879 -1.3236 -0.855495 0
M  V30 3352 C 312.827 -1.2118 -1.9854 0
M  V30 3353 C 313.821 -0.116788 -1.68997 0
M  V30 3354 O 315.027 -0.279657 -1.77814 0
M  V30 3355 H 311.402 -0.375608 -0.651477 0
M  V30 3356 H 313.373 -2.16743 -2.05098 0
M  V30 3357 C 312.122 -0.950849 -3.34446 0
M  V30 3358 H 311.445 -1.78563 -3.57708 0
M  V30 3359 H 312.885 -0.912863 -4.14057 0
M  V30 3360 C 311.344 0.346404 -3.35114 0
M  V30 3361 O 311.874 1.35855 -3.7803 0
M  V30 3362 N 310.08 0.36808 -2.88259 0
M  V30 3363 H 309.627 -0.456102 -2.5353 0
M  V30 3364 H 309.585 1.23591 -2.89089 0
M  V30 3365 N 313.357 1.07166 -1.15556 0
M  V30 3366 C 314.267 2.17947 -0.868116 0
M  V30 3367 C 315.283 1.73297 0.156297 0
M  V30 3368 O 316.459 2.01392 -0.0182327 0
M  V30 3369 C 313.524 3.44789 -0.36355 0
M  V30 3370 C 312.585 4.03996 -1.45209 0
M  V30 3371 C 311.818 5.24783 -0.971508 0
M  V30 3372 O 312.041 5.70109 0.182194 0
M  V30 3373 O 310.975 5.75715 -1.75603 0
M  V30 3374 H 314.801 2.4503 -1.79427 0
M  V30 3375 H 312.386 1.16539 -0.934824 0
M  V30 3376 H 314.268 4.21307 -0.0887113 0
M  V30 3377 H 312.943 3.19253 0.534708 0
M  V30 3378 H 311.85 3.29009 -1.78056 0
M  V30 3379 H 313.183 4.33808 -2.32533 0
M  V30 3380 N 314.835 0.952656 1.25548 0
M  V30 3381 C 315.745 0.47782 2.29682 0
M  V30 3382 C 316.761 -0.453859 1.67977 0
M  V30 3383 O 317.937 -0.330587 1.98668 0
M  V30 3384 C 315.002 -0.238655 3.45878 0
M  V30 3385 C 314.063 0.730994 4.23031 0
M  V30 3386 C 313.296 0.0486165 5.33678 0
M  V30 3387 O 313.519 -1.16612 5.58353 0
M  V30 3388 O 312.453 0.733152 5.97418 0
M  V30 3389 H 316.279 1.34312 2.72386 0
M  V30 3390 H 313.864 0.719026 1.30959 0
M  V30 3391 H 315.746 -0.641774 4.16484 0
M  V30 3392 H 314.421 -1.07916 3.05181 0
M  V30 3393 H 313.328 1.18428 3.5486 0
M  V30 3394 H 314.661 1.53946 4.67506 0
M  V30 3395 N 316.313 -1.40141 0.720998 0
M  V30 3396 C 317.59 -1.94677 0.189757 0
M  V30 3397 C 317.97 -1.65879 -1.30566 0
M  V30 3398 O 317.318 -0.979391 -2.06447 0
M  V30 3399 C 317.528 -3.45279 0.508304 0
M  V30 3400 C 318.876 -4.22209 0.449934 0
M  V30 3401 O 319.9 -3.53413 0.444677 0
M  V30 3402 O 318.759 -5.44788 0.432189 0
M  V30 3403 H 315.853 -0.826459 0.0299026 0
M  V30 3404 H 318.399 -1.49719 0.7989 0
M  V30 3405 H 317.171 -3.59619 1.54239 0
M  V30 3406 H 316.794 -3.97386 -0.130525 0
M  V30 3407 N 317.792 -0.46758 -1.50504 0
M  V30 3408 C 319.208 -0.121533 -1.59137 0
M  V30 3409 C 319.408 1.3717 -1.47603 0
M  V30 3410 O 318.464 2.14464 -1.33272 0
M  V30 3411 C 319.777 -0.6686 -2.93173 0
M  V30 3412 C 321.325 -0.631716 -3.06559 0
M  V30 3413 C 321.8 -1.15627 -4.43164 0
M  V30 3414 N 323.291 -1.11553 -4.49567 0
M  V30 3415 C 324.026 -1.49195 -5.5365 0
M  V30 3416 N 323.522 -1.94269 -6.65005 0
M  V30 3417 N 325.315 -1.4082 -5.44175 0
M  V30 3418 H 317.466 -1.4388 -1.56245 0
M  V30 3419 H 319.729 -0.594784 -0.738198 0
M  V30 3420 H 319.435 -1.71453 -3.07078 0
M  V30 3421 H 319.309 -0.11021 -3.77039 0
M  V30 3422 H 321.696 0.405297 -2.92304 0
M  V30 3423 H 321.777 -1.22687 -2.24458 0
M  V30 3424 H 321.421 -2.1919 -4.58168 0
M  V30 3425 H 321.351 -0.537365 -5.23851 0
M  V30 3426 H 323.842 -0.784895 -3.69659 0
M  V30 3427 H 324.155 -2.21148 -7.40482 0
M  V30 3428 H 322.5 -1.98219 -6.66134 0
M  V30 3429 H 325.691 -1.0545 -4.56068 0
M  V30 3430 H 325.864 -1.70481 -6.25172 0
M  V30 3431 N 319.27 1.56325 -0.20005 0
M  V30 3432 C 320.516 1.98012 0.438059 0
M  V30 3433 C 320.849 1.08702 1.60927 0
M  V30 3434 O 320.124 0.140064 1.93995 0
M  V30 3435 C 320.407 3.48841 0.893419 0
M  V30 3436 C 320.26 4.48928 -0.279947 0
M  V30 3437 C 321.579 4.03498 1.75719 0
M  V30 3438 H 318.698 0.719918 0.157757 0
M  V30 3439 H 321.34 1.87743 -0.291968 0
M  V30 3440 H 319.49 3.57723 1.51547 0
M  V30 3441 H 321.162 4.52079 -0.91772 0
M  V30 3442 H 319.405 4.23694 -0.930919 0
M  V30 3443 H 320.076 5.5194 0.0812601 0
M  V30 3444 H 322.552 3.97427 1.23253 0
M  V30 3445 H 321.428 5.09393 2.04476 0
M  V30 3446 H 321.689 3.4906 2.71311 0
M  V30 3447 N 320.748 -0.0735177 1.57428 0
M  V30 3448 C 321.995 -0.772999 1.87166 0
M  V30 3449 C 322.323 -1.77665 0.791551 0
M  V30 3450 O 321.578 -1.94541 -0.212636 0
M  V30 3451 C 321.877 -1.51799 3.23561 0
M  V30 3452 C 321.543 -0.654484 4.46125 0
M  V30 3453 C 320.205 -0.416511 4.79394 0
M  V30 3454 C 322.557 -0.0555862 5.2117 0
M  V30 3455 C 319.885 0.429869 5.85123 0
M  V30 3456 C 322.237 0.778239 6.27795 0
M  V30 3457 C 320.901 1.0261 6.59566 0
M  V30 3458 H 320.171 -0.282861 0.684888 0
M  V30 3459 H 322.818 -0.0338272 1.9147 0
M  V30 3460 H 321.123 -2.32932 3.1504 0
M  V30 3461 H 322.82 -2.06397 3.43804 0
M  V30 3462 H 319.41 -0.850091 4.20085 0
M  V30 3463 H 323.594 -0.226558 4.95783 0
M  V30 3464 H 318.85 0.630665 6.08139 0
M  V30 3465 H 323.024 1.24906 6.85107 0
M  V30 3466 H 320.651 1.68371 7.4132 0
M  V30 3467 N 322.226 -1.5378 -0.344866 0
M  V30 3468 C 323.472 -1.72158 -1.0832 0
M  V30 3469 C 323.827 -0.478218 -1.86362 0
M  V30 3470 O 323.12 0.529152 -1.84148 0
M  V30 3471 C 323.314 -2.92407 -2.05506 0
M  V30 3472 C 323.143 -4.28318 -1.37017 0
M  V30 3473 C 321.913 -4.92832 -1.11558 0
M  V30 3474 C 324.111 -5.08086 -0.797071 0
M  V30 3475 N 322.093 -6.12619 -0.396358 0
M  V30 3476 C 323.464 -6.1965 -0.208336 0
M  V30 3477 C 325.519 -4.92986 -0.697787 0
M  V30 3478 C 324.222 -7.17763 0.470023 0
M  V30 3479 C 326.248 -5.91391 -0.033171 0
M  V30 3480 C 325.61 -7.02292 0.544599 0
M  V30 3481 H 321.709 -0.683017 -0.380805 0
M  V30 3482 H 324.293 -1.91211 -0.366961 0
M  V30 3483 H 322.464 -2.74857 -2.74423 0
M  V30 3484 H 324.196 -2.9951 -2.72169 0
M  V30 3485 H 320.951 -4.52362 -1.40234 0
M  V30 3486 H 321.375 -6.7698 -0.0515119 0
M  V30 3487 H 326.017 -4.07414 -1.13022 0
M  V30 3488 H 323.735 -8.0291 0.914351 0
M  V30 3489 H 327.321 -5.81784 0.0430009 0
M  V30 3490 H 326.201 -7.77129 1.05073 0
M  V30 3491 N 323.704 0.605807 -1.45491 0
M  V30 3492 C 324.651 1.7164 -1.54299 0
M  V30 3493 C 325.621 1.61486 -0.388761 0
M  V30 3494 O 326.806 1.81039 -0.602445 0
M  V30 3495 C 323.946 3.09953 -1.51734 0
M  V30 3496 C 323.059 3.309 -2.77721 0
M  V30 3497 C 322.194 4.59329 -2.66816 0
M  V30 3498 C 321.233 4.7354 -3.87848 0
M  V30 3499 N 320.37 5.9327 -3.75467 0
M  V30 3500 H 325.21 1.63449 -2.49176 0
M  V30 3501 H 322.747 0.796957 -1.23641 0
M  V30 3502 H 324.705 3.89977 -1.48235 0
M  V30 3503 H 323.335 3.17098 -0.604068 0
M  V30 3504 H 322.387 2.44639 -2.913 0
M  V30 3505 H 323.699 3.37274 -3.67488 0
M  V30 3506 H 322.853 5.4755 -2.61292 0
M  V30 3507 H 321.592 4.55355 -1.74651 0
M  V30 3508 H 320.597 3.83741 -3.93729 0
M  V30 3509 H 321.822 4.79309 -4.81082 0
M  V30 3510 H 319.768 5.90338 -2.86072 0
M  V30 3511 H 319.685 6.00811 -4.5887 0
M  V30 3512 H 320.953 6.83984 -3.73879 0
M  V30 3513 N 325.182 1.32811 0.848464 0
M  V30 3514 C 326.092 1.24278 1.98978 0
M  V30 3515 C 327.108 0.155176 1.73307 0
M  V30 3516 O 328.284 0.376999 1.9784 0
M  V30 3517 C 325.349 0.972444 3.32783 0
M  V30 3518 C 324.41 2.14911 3.71634 0
M  V30 3519 C 323.643 1.89157 4.99054 0
M  V30 3520 O 323.866 0.837165 5.64223 0
M  V30 3521 O 322.8 2.75433 5.35183 0
M  V30 3522 H 326.626 2.20238 2.09115 0
M  V30 3523 H 324.211 1.12762 0.980052 0
M  V30 3524 H 326.093 0.838432 4.12975 0
M  V30 3525 H 324.768 0.043051 3.23671 0
M  V30 3526 H 323.675 2.33862 2.91992 0
M  V30 3527 H 325.008 3.06151 3.85399 0
M  V30 3528 N 326.66 -1.06551 1.16123 0
M  V30 3529 C 327.623 -2.12132 0.867906 0
M  V30 3530 C 328.623 -1.60224 -0.135944 0
M  V30 3531 O 329.813 -1.73943 0.0946422 0
M  V30 3532 C 326.945 -3.396 0.297419 0
M  V30 3533 H 328.138 -2.39586 1.80385 0
M  V30 3534 H 325.691 -1.22574 0.969812 0
M  V30 3535 H 326.426 -3.17794 -0.64633 0
M  V30 3536 H 326.211 -3.78581 1.02073 0
M  V30 3537 H 327.701 -4.17455 0.110052 0
M  V30 3538 N 328.138 -0.959301 -1.25041 0
M  V30 3539 C 329.101 -0.487677 -2.23952 0
M  V30 3540 C 330.101 0.41119 -1.55454 0
M  V30 3541 O 331.291 0.207825 -1.72956 0
M  V30 3542 C 328.423 0.294807 -3.39623 0
M  V30 3543 H 329.616 -1.36198 -2.67189 0
M  V30 3544 H 327.169 -0.743042 -1.37508 0
M  V30 3545 H 327.904 1.18658 -3.01813 0
M  V30 3546 H 327.689 -0.35012 -3.90534 0
M  V30 3547 H 329.179 0.614089 -4.1306 0
M  V30 3548 N 329.616 1.39756 -0.72842 0
M  V30 3549 C 330.526 2.34444 -0.0855374 0
M  V30 3550 C 331.542 1.57976 0.729356 0
M  V30 3551 O 332.718 1.90301 0.659346 0
M  V30 3552 C 329.783 3.36965 0.815798 0
M  V30 3553 C 328.844 4.29299 -0.0105996 0
M  V30 3554 C 328.077 5.26923 0.84781 0
M  V30 3555 O 328.3 5.30859 2.08673 0
M  V30 3556 O 327.234 6.01249 0.279969 0
M  V30 3557 H 331.06 2.91065 -0.866892 0
M  V30 3558 H 328.645 1.4117 -0.48902 0
M  V30 3559 H 330.527 3.99804 1.33171 0
M  V30 3560 H 329.202 2.82739 1.57608 0
M  V30 3561 H 328.109 3.69703 -0.571877 0
M  V30 3562 H 329.442 4.86712 -0.73295 0
M  V30 3563 N 331.094 0.475555 1.50254 0
M  V30 3564 C 332.057 -0.305016 2.27161 0
M  V30 3565 C 333.057 -0.916519 1.32123 0
M  V30 3566 O 334.247 -0.785003 1.5551 0
M  V30 3567 C 331.379 -1.43496 3.09227 0
M  V30 3568 H 332.572 0.369511 2.97615 0
M  V30 3569 H 330.125 0.229747 1.54602 0
M  V30 3570 H 330.86 -2.14441 2.43281 0
M  V30 3571 H 330.645 -1.00223 3.79075 0
M  V30 3572 H 332.135 -1.98548 3.67381 0
M  V30 3573 N 332.573 -1.56217 0.208337 0
M  V30 3574 C 333.798 -2.02782 -0.435222 0
M  V30 3575 C 334.223 -1.08738 -1.53485 0
M  V30 3576 O 333.581 -0.0731855 -1.81152 0
M  V30 3577 C 333.629 -3.47687 -0.956335 0
M  V30 3578 O 332.733 -3.56773 -2.06849 0
M  V30 3579 H 332.074 -0.656403 -0.100158 0
M  V30 3580 H 334.604 -2.02033 0.3231 0
M  V30 3581 H 334.614 -3.87745 -1.26955 0
M  V30 3582 H 333.289 -4.15624 -0.15143 0
M  V30 3583 H 331.866 -3.28597 -1.76292 0
M  V30 3584 N 334.051 0.0651679 -1.57465 0
M  V30 3585 C 335.467 0.420105 -1.53972 0
M  V30 3586 C 335.667 1.78782 -0.929474 0
M  V30 3587 O 334.723 2.46771 -0.534839 0
M  V30 3588 C 336.036 0.355084 -2.98596 0
M  V30 3589 C 337.584 0.434792 -3.09965 0
M  V30 3590 C 338.059 0.399609 -4.56253 0
M  V30 3591 N 339.55 0.459488 -4.60915 0
M  V30 3592 C 340.285 0.454584 -5.71595 0
M  V30 3593 N 339.781 0.404102 -6.9162 0
M  V30 3594 N 341.574 0.501635 -5.59857 0
M  V30 3595 H 333.725 -0.830328 -1.95498 0
M  V30 3596 H 335.988 -0.312244 -0.895102 0
M  V30 3597 H 335.694 -0.583357 -3.46828 0
M  V30 3598 H 335.568 1.16275 -3.58831 0
M  V30 3599 H 337.955 1.36366 -2.61703 0
M  V30 3600 H 338.036 -0.40157 -2.52628 0
M  V30 3601 H 337.68 -0.525436 -5.05175 0
M  V30 3602 H 337.61 1.25359 -5.11461 0
M  V30 3603 H 340.101 0.502482 -3.74544 0
M  V30 3604 H 340.414 0.404468 -7.71741 0
M  V30 3605 H 338.759 0.37069 -6.94011 0
M  V30 3606 H 341.95 0.538812 -4.64989 0
M  V30 3607 H 342.123 0.494345 -6.46112 0
M  V30 3608 N 335.529 1.53961 0.336706 0
M  V30 3609 C 336.439 1.85432 1.43708 0
M  V30 3610 C 337.455 0.745053 1.57242 0
M  V30 3611 O 338.631 1.03804 1.72588 0
M  V30 3612 C 335.696 2.06349 2.78605 0
M  V30 3613 C 334.757 3.30191 2.74358 0
M  V30 3614 C 333.99 3.50101 4.02822 0
M  V30 3615 O 334.213 2.7371 5.00439 0
M  V30 3616 O 333.147 4.43547 4.06878 0
M  V30 3617 H 336.973 2.78975 1.20028 0
M  V30 3618 H 334.558 1.39701 0.52952 0
M  V30 3619 H 336.44 2.21513 3.58483 0
M  V30 3620 H 335.115 1.15995 3.02203 0
M  V30 3621 H 334.022 3.20425 1.93078 0
M  V30 3622 H 335.355 4.2056 2.55715 0
M  V30 3623 N 337.007 -0.598083 1.45811 0
M  V30 3624 C 338.237 -1.38121 1.53643 0
M  V30 3625 C 338.645 -1.88425 0.171081 0
M  V30 3626 O 337.988 -1.63409 -0.839237 0
M  V30 3627 C 338.05 -2.61432 2.46766 0
M  V30 3628 C 337.714 -2.32702 3.93318 0
M  V30 3629 C 338.711 -1.92479 4.82957 0
M  V30 3630 C 336.396 -2.45321 4.38318 0
M  V30 3631 C 338.39 -1.65248 6.15607 0
M  V30 3632 C 336.077 -2.17703 5.71007 0
M  V30 3633 C 337.075 -1.7773 6.5947 0
M  V30 3634 O 336.763 -1.50441 7.89698 0
M  V30 3635 H 336.495 -0.428863 0.522544 0
M  V30 3636 H 339.049 -0.73557 1.91777 0
M  V30 3637 H 337.279 -3.28749 2.0362 0
M  V30 3638 H 338.968 -3.23487 2.45175 0
M  V30 3639 H 339.734 -1.82258 4.49452 0
M  V30 3640 H 335.613 -2.75399 3.69697 0
M  V30 3641 H 339.157 -1.33973 6.84614 0
M  V30 3642 H 335.054 -2.27544 6.04065 0
M  V30 3643 H 335.822 -1.64415 8.01817 0
M  V30 3644 N 338.485 -1.33259 -0.841409 0
M  V30 3645 C 339.415 -1.25926 -1.96634 0
M  V30 3646 C 340.396 -0.140349 -1.6952 0
M  V30 3647 O 341.581 -0.329707 -1.91381 0
M  V30 3648 C 338.711 -0.99512 -3.32738 0
M  V30 3649 C 337.665 -2.0767 -3.74242 0
M  V30 3650 C 336.991 -1.66474 -5.08125 0
M  V30 3651 C 338.291 -3.49318 -3.88297 0
M  V30 3652 H 339.985 -2.20046 -2.03027 0
M  V30 3653 H 337.531 -1.05931 -0.975425 0
M  V30 3654 H 339.484 -0.930323 -4.11002 0
M  V30 3655 H 338.208 -0.0183004 -3.26595 0
M  V30 3656 H 336.867 -2.13187 -2.98239 0
M  V30 3657 H 336.515 -0.675012 -4.9845 0
M  V30 3658 H 336.215 -2.3885 -5.36865 0
M  V30 3659 H 337.739 -1.61455 -5.88867 0
M  V30 3660 H 339.153 -3.46316 -4.56879 0
M  V30 3661 H 337.55 -4.20158 -4.28471 0
M  V30 3662 H 338.62 -3.8801 -2.9082 0
M  V30 3663 N 339.963 1.05934 -1.16686 0
M  V30 3664 C 340.91 2.13499 -0.876748 0
M  V30 3665 C 341.88 1.65162 0.176299 0
M  V30 3666 O 343.065 1.90757 0.0407143 0
M  V30 3667 C 340.205 3.42912 -0.387967 0
M  V30 3668 C 339.318 4.04964 -1.50426 0
M  V30 3669 C 338.453 5.22266 -0.970125 0
M  V30 3670 C 337.492 5.76309 -2.06238 0
M  V30 3671 N 336.629 6.84922 -1.54356 0
M  V30 3672 H 341.469 2.37654 -1.7979 0
M  V30 3673 H 339.006 1.16598 -0.896843 0
M  V30 3674 H 340.964 4.17111 -0.086186 0
M  V30 3675 H 339.594 3.18963 0.496235 0
M  V30 3676 H 338.646 3.28277 -1.92193 0
M  V30 3677 H 339.958 4.41122 -2.32836 0
M  V30 3678 H 339.112 6.03506 -0.621743 0
M  V30 3679 H 337.851 4.87564 -0.115377 0
M  V30 3680 H 336.856 4.93704 -2.41942 0
M  V30 3681 H 338.081 6.13062 -2.92115 0
M  V30 3682 H 336.027 6.52131 -0.711406 0
M  V30 3683 H 335.944 7.20043 -2.30379 0
M  V30 3684 H 337.212 7.69832 -1.22387 0
M  V30 3685 N 341.441 0.965919 1.2453 0
M  V30 3686 C 342.69 0.622437 1.91856 0
M  V30 3687 C 343.003 -0.846006 1.76358 0
M  V30 3688 O 344.209 -1.29993 2.38357 0
M  V30 3689 C 342.665 1.0626 3.43856 0
M  V30 3690 C 342.273 2.55437 3.68043 0
M  V30 3691 C 344.017 0.792183 4.17043 0
M  V30 3692 C 341.924 2.93196 5.13605 0
M  V30 3693 H 340.854 0.229092 0.718354 0
M  V30 3694 H 343.505 1.17189 1.41206 0
M  V30 3695 H 341.887 0.441476 3.93531 0
M  V30 3696 H 343.061 3.22665 3.28974 0
M  V30 3697 H 341.376 2.8007 3.08139 0
M  V30 3698 H 343.973 1.05031 5.24283 0
M  V30 3699 H 344.316 -0.271584 4.15413 0
M  V30 3700 H 344.849 1.37419 3.73311 0
M  V30 3701 H 341.588 3.98636 5.20355 0
M  V30 3702 H 341.108 2.30651 5.53679 0
M  V30 3703 H 342.787 2.83004 5.81823 0
M  V30 3704 N 342.919 -1.39368 0.735821 0
M  V30 3705 C 343.882 -2.2896 0.104874 0
M  V30 3706 C 344.882 -1.46347 -0.666274 0
M  V30 3707 O 346.072 -1.67014 -0.49517 0
M  V30 3708 C 343.204 -3.29857 -0.860656 0
M  V30 3709 H 344.397 -2.86259 0.894205 0
M  V30 3710 H 341.95 -1.48029 0.501704 0
M  V30 3711 H 342.685 -2.77615 -1.67631 0
M  V30 3712 H 342.47 -3.9087 -0.310327 0
M  V30 3713 H 343.96 -3.96893 -1.29867 0
M  V30 3714 N 344.397 -0.483516 -1.5 0
M  V30 3715 C 345.637 0.0657469 -2.04294 0
M  V30 3716 C 346.001 1.35869 -1.35659 0
M  V30 3717 O 347.202 1.99111 -1.80578 0
M  V30 3718 C 345.473 0.232758 -3.56641 0
M  V30 3719 S 347.032 0.738788 -4.32536 0
M  V30 3720 H 343.85 0.0100755 -0.710929 0
M  V30 3721 H 346.452 -0.653494 -1.84254 0
M  V30 3722 H 345.156 -0.713847 -4.04144 0
M  V30 3723 H 344.687 0.977751 -3.81056 0
M  V30 3724 H 346.702 2.01048 -4.53645 0
M  V30 3725 N 345.875 1.56104 -0.216619 0
M  V30 3726 C 346.825 2.16703 0.708798 0
M  V30 3727 C 347.809 1.11392 1.16106 0
M  V30 3728 O 349.001 1.37395 1.11587 0
M  V30 3729 C 346.13 2.84666 1.91886 0
M  V30 3730 C 345.216 3.97195 1.48651 0
M  V30 3731 N 345.607 4.99959 0.766434 0
M  V30 3732 C 343.905 4.09193 1.77418 0
M  V30 3733 C 344.606 5.79126 0.546659 0
M  V30 3734 N 343.582 5.32315 1.10188 0
M  V30 3735 H 347.384 2.93516 0.150162 0
M  V30 3736 H 344.898 1.6239 -0.0176768 0
M  V30 3737 H 346.895 3.26486 2.59253 0
M  V30 3738 H 345.555 2.09347 2.48202 0
M  V30 3739 H 346.566 5.16197 0.419634 0
M  V30 3740 H 343.243 3.45021 2.35088 0
M  V30 3741 H 344.633 6.71895 -0.026103 0
M  V30 3742 N 347.353 -0.0568162 1.57498 0
M  V30 3743 C 348.764 -0.606858 1.76562 0
M  V30 3744 C 349.115 -1.77114 0.844094 0
M  V30 3745 O 348.24 -2.16376 0.0318911 0
M  V30 3746 C 348.835 -1.10766 3.20182 0
M  V30 3747 C 347.394 -1.60344 3.40539 0
M  V30 3748 C 346.541 -0.529311 2.72201 0
M  V30 3749 H 349.492 0.169393 1.57793 0
M  V30 3750 H 349.513 -1.97602 3.25167 0
M  V30 3751 H 349.025 -0.26006 3.87228 0
M  V30 3752 H 347.126 -2.47379 2.78629 0
M  V30 3753 H 347.239 -1.67006 4.4905 0
M  V30 3754 H 345.603 -0.977893 2.35179 0
M  V30 3755 H 346.386 0.308352 3.41912 0
M  V30 3756 N 348.832 -1.54138 -0.328536 0
M  V30 3757 C 349.742 -1.86192 -1.42723 0
M  V30 3758 C 350.758 -0.753382 -1.56844 0
M  V30 3759 O 351.934 -1.04718 -1.72035 0
M  V30 3760 C 348.999 -2.07824 -2.77507 0
M  V30 3761 C 348.06 -3.31641 -2.72603 0
M  V30 3762 C 347.293 -3.52232 -4.00959 0
M  V30 3763 O 347.516 -2.7636 -4.9898 0
M  V30 3764 O 346.45 -4.45699 -4.0452 0
M  V30 3765 H 350.276 -2.79608 -1.18547 0
M  V30 3766 H 347.861 -1.3998 -0.522104 0
M  V30 3767 H 349.743 -2.23411 -3.57303 0
M  V30 3768 H 348.418 -1.17596 -3.01584 0
M  V30 3769 H 347.325 -3.21444 -1.91376 0
M  V30 3770 H 348.658 -4.2191 -2.53481 0
M  V30 3771 N 350.31 0.590341 -1.46126 0
M  V30 3772 C 351.538 1.37504 -1.54597 0
M  V30 3773 C 351.953 1.87897 -0.184447 0
M  V30 3774 O 351.31 1.63192 0.816984 0
M  V30 3775 C 351.361 2.56779 -2.54454 0
M  V30 3776 O 351.082 2.08476 -3.85317 0
M  V30 3777 C 352.583 3.49427 -2.72792 0
M  V30 3778 H 349.803 0.420325 -0.523037 0
M  V30 3779 H 352.347 0.718383 -1.91467 0
M  V30 3780 H 350.502 3.1845 -2.20609 0
M  V30 3781 H 350.916 2.86097 -4.396 0
M  V30 3782 H 352.39 4.29619 -3.466 0
M  V30 3783 H 352.867 4.00876 -1.79429 0
M  V30 3784 H 353.473 2.93598 -3.07702 0
M  V30 3785 N 351.788 1.33704 0.83433 0
M  V30 3786 C 353.036 1.25169 1.58673 0
M  V30 3787 C 353.357 -0.18127 1.94156 0
M  V30 3788 O 352.627 -1.11113 1.6134 0
M  V30 3789 H 351.207 0.4603 0.58833 0
M  V30 3790 H 353.869 1.67478 0.996847 0
M  V30 3791 H 352.965 1.84856 2.51465 0
M  V30 3792 N 353.266 -1.05314 1.17247 0
M  V30 3793 C 354.196 -2.1498 0.911362 0
M  V30 3794 C 355.177 -1.69471 -0.146169 0
M  V30 3795 O 356.362 -1.942 0.003812 0
M  V30 3796 C 353.492 -3.4472 0.422528 0
M  V30 3797 C 352.446 -4.03789 1.4191 0
M  V30 3798 C 351.772 -5.28858 0.788274 0
M  V30 3799 C 353.072 -4.41418 2.7919 0
M  V30 3800 H 354.766 -2.3708 1.82848 0
M  V30 3801 H 352.312 -1.13938 0.880569 0
M  V30 3802 H 354.265 -4.20787 0.227289 0
M  V30 3803 H 352.989 -3.22269 -0.530123 0
M  V30 3804 H 351.648 -3.2979 1.60106 0
M  V30 3805 H 351.296 -5.02709 -0.171173 0
M  V30 3806 H 350.996 -5.69338 1.45353 0
M  V30 3807 H 352.52 -6.07612 0.603282 0
M  V30 3808 H 353.934 -5.08524 2.64719 0
M  V30 3809 H 352.331 -4.92913 3.42282 0
M  V30 3810 H 353.401 -3.51819 3.33693 0
M  V30 3811 N 354.744 -0.972509 -1.24016 0
M  V30 3812 C 355.707 -0.511403 -2.23422 0
M  V30 3813 C 356.707 0.394679 -1.55881 0
M  V30 3814 O 357.897 0.189469 -1.73167 0
M  V30 3815 C 355.029 0.258769 -3.39916 0
M  V30 3816 H 356.222 -1.39024 -2.6573 0
M  V30 3817 H 353.775 -0.757585 -1.36713 0
M  V30 3818 H 354.51 1.1545 -3.03054 0
M  V30 3819 H 354.295 -0.391522 -3.9014 0
M  V30 3820 H 355.785 0.570244 -4.13688 0
M  V30 3821 N 356.222 1.38976 -0.743202 0
M  V30 3822 C 357.633 1.83123 -0.363732 0
M  V30 3823 C 357.984 1.6205 1.10609 0
M  V30 3824 O 357.109 1.11606 1.854 0
M  V30 3825 C 357.704 3.32439 -0.653408 0
M  V30 3826 C 356.263 3.74974 -0.327338 0
M  V30 3827 C 355.41 2.61878 -0.911875 0
M  V30 3828 H 358.361 1.27852 -0.940191 0
M  V30 3829 H 358.382 3.80432 0.0720031 0
M  V30 3830 H 357.894 3.47745 -1.72323 0
M  V30 3831 H 355.995 3.65252 0.736314 0
M  V30 3832 H 356.108 4.72106 -0.815631 0
M  V30 3833 H 354.472 2.52448 -0.337944 0
M  V30 3834 H 355.255 2.79987 -1.98651 0
M  V30 3835 N 357.7 0.491464 1.49741 0
M  V30 3836 C 358.61 -0.296835 2.32715 0
M  V30 3837 C 359.626 -0.976536 1.44013 0
M  V30 3838 O 360.802 -0.960023 1.77047 0
M  V30 3839 C 357.867 -1.35288 3.19215 0
M  V30 3840 C 356.928 -0.687632 4.23757 0
M  V30 3841 C 356.161 -1.69336 5.06123 0
M  V30 3842 O 356.384 -2.92219 4.89861 0
M  V30 3843 O 355.318 -1.25394 5.88693 0
M  V30 3844 H 359.144 0.382048 3.01287 0
M  V30 3845 H 356.729 0.252953 1.47243 0
M  V30 3846 H 358.611 -1.96411 3.72828 0
M  V30 3847 H 357.286 -2.01487 2.53347 0
M  V30 3848 H 356.193 -0.0369159 3.74082 0
M  V30 3849 H 357.526 -0.0682566 4.92153 0
M  V30 3850 N 359.178 -1.55987 0.224894 0
M  V30 3851 C 360.408 -2.02489 -0.41007 0
M  V30 3852 C 360.816 -1.10391 -1.53657 0
M  V30 3853 O 360.159 -0.106458 -1.83391 0
M  V30 3854 C 360.221 -3.45319 -0.999757 0
M  V30 3855 C 359.885 -4.56999 -0.00827976 0
M  V30 3856 C 360.882 -5.13812 0.793314 0
M  V30 3857 C 358.567 -5.02176 0.111442 0
M  V30 3858 C 360.561 -6.14276 1.7013 0
M  V30 3859 C 358.248 -6.02477 1.02296 0
M  V30 3860 C 359.246 -6.58403 1.81643 0
M  V30 3861 O 358.934 -7.56751 2.71262 0
M  V30 3862 H 358.666 -0.667915 -0.104235 0
M  V30 3863 H 361.22 -2.0257 0.339782 0
M  V30 3864 H 359.45 -3.42318 -1.79876 0
M  V30 3865 H 361.139 -3.7545 -1.54248 0
M  V30 3866 H 361.905 -4.79756 0.711288 0
M  V30 3867 H 357.784 -4.58323 -0.49605 0
M  V30 3868 H 361.328 -6.57854 2.32107 0
M  V30 3869 H 357.225 -6.35954 1.10599 0
M  V30 3870 H 357.993 -7.74286 2.65375 0
M  V30 3871 N 360.656 0.0484629 -1.57525 0
M  V30 3872 C 361.619 1.03956 -2.04269 0
M  V30 3873 C 362.619 1.30211 -0.943496 0
M  V30 3874 O 363.809 1.25539 -1.20771 0
M  V30 3875 C 360.941 2.37742 -2.44319 0
M  V30 3876 H 362.134 0.636182 -2.93075 0
M  V30 3877 H 359.687 0.294811 -1.53494 0
M  V30 3878 H 360.422 2.82866 -1.5861 0
M  V30 3879 H 360.207 2.20021 -3.24551 0
M  V30 3880 H 361.697 3.08936 -2.80978 0
M  V30 3881 N 362.134 1.5431 0.320358 0
M  V30 3882 C 363.364 1.7638 1.07582 0
M  V30 3883 C 363.772 0.513944 1.82086 0
M  V30 3884 O 363.115 -0.525123 1.76035 0
M  V30 3885 C 363.177 2.9055 2.1171 0
M  V30 3886 C 362.841 4.2934 1.56575 0
M  V30 3887 C 363.838 5.10077 1.00586 0
M  V30 3888 C 361.523 4.75893 1.60722 0
M  V30 3889 C 363.517 6.35477 0.494756 0
M  V30 3890 C 361.204 6.0126 1.09224 0
M  V30 3891 C 362.202 6.80886 0.53696 0
M  V30 3892 O 361.89 8.03894 0.0297371 0
M  V30 3893 H 361.622 0.592369 0.325692 0
M  V30 3894 H 364.176 2.02019 0.37116 0
M  V30 3895 H 362.406 2.60489 2.85801 0
M  V30 3896 H 364.095 3.00373 2.73003 0
M  V30 3897 H 364.861 4.75265 0.966869 0
M  V30 3898 H 360.74 4.13957 2.02882 0
M  V30 3899 H 364.284 6.97574 0.0606842 0
M  V30 3900 H 360.181 6.35562 1.12831 0
M  V30 3901 H 360.949 8.18372 0.14486 0
M  V30 3902 N 363.613 -0.582584 1.46437 0
M  V30 3903 C 364.843 -1.36484 1.55099 0
M  V30 3904 C 365.251 -1.88233 0.191056 0
M  V30 3905 O 364.594 -1.6429 -0.821858 0
M  V30 3906 C 364.656 -2.588 2.49525 0
M  V30 3907 C 364.32 -2.28517 3.95764 0
M  V30 3908 C 365.317 -1.87346 4.84972 0
M  V30 3909 C 363.002 -2.40658 4.40896 0
M  V30 3910 C 364.996 -1.5871 6.17325 0
M  V30 3911 C 362.683 -2.11635 5.73284 0
M  V30 3912 C 363.681 -1.70725 6.61318 0
M  V30 3913 O 363.369 -1.42057 7.91249 0
M  V30 3914 H 363.101 -0.423297 0.527063 0
M  V30 3915 H 365.655 -0.715188 1.92547 0
M  V30 3916 H 363.885 -3.26571 2.07095 0
M  V30 3917 H 365.574 -3.20868 2.48593 0
M  V30 3918 H 366.34 -1.77481 4.5136 0
M  V30 3919 H 362.219 -2.71463 3.72598 0
M  V30 3920 H 365.763 -1.26704 6.85997 0
M  V30 3921 H 361.66 -2.21124 6.06444 0
M  V30 3922 H 362.428 -1.55901 8.03515 0
M  V30 3923 N 365.091 -1.34144 -0.827227 0
M  V30 3924 C 366.368 -1.16844 -1.56865 0
M  V30 3925 C 366.748 0.260654 -2.09485 0
M  V30 3926 O 366.096 1.26138 -1.9053 0
M  V30 3927 C 366.306 -2.21939 -2.6934 0
M  V30 3928 C 367.654 -2.56695 -3.3822 0
M  V30 3929 O 368.678 -2.20695 -2.79593 0
M  V30 3930 O 367.537 -3.18518 -4.44082 0
M  V30 3931 H 364.631 -0.452669 -0.692112 0
M  V30 3932 H 367.177 -1.45763 -0.868973 0
M  V30 3933 H 365.949 -3.17882 -2.28182 0
M  V30 3934 H 365.572 -1.94172 -3.46962 0
M  V30 3935 N 366.569 1.04691 -1.17803 0
M  V30 3936 C 367.817 1.7743 -0.967617 0
M  V30 3937 C 368.138 1.88359 0.504574 0
M  V30 3938 O 367.408 1.40402 1.36617 0
M  V30 3939 H 365.988 0.657242 -0.355024 0
M  V30 3940 H 368.65 1.2638 -1.48371 0
M  V30 3941 H 367.746 2.78924 -1.40027 0
M  V30 3942 N 368.047 0.979072 1.23499 0
M  V30 3943 C 369.275 0.665202 1.95915 0
M  V30 3944 C 369.69 -0.767571 1.72493 0
M  V30 3945 O 369.047 -1.51635 1.01554 0
M  V30 3946 C 369.098 0.944438 3.48945 0
M  V30 3947 O 368.819 2.3209 3.71572 0
M  V30 3948 C 370.32 0.646336 4.38563 0
M  V30 3949 H 367.54 0.247218 0.623798 0
M  V30 3950 H 370.084 1.31009 1.57025 0
M  V30 3951 H 368.239 0.345575 3.85856 0
M  V30 3952 H 368.653 2.40957 4.65876 0
M  V30 3953 H 370.127 0.892091 5.44744 0
M  V30 3954 H 370.604 -0.419575 4.37191 0
M  V30 3955 H 371.21 1.22562 4.07258 0
M  V30 3956 N 369.525 -1.3858 0.750561 0
M  V30 3957 C 370.936 -1.82927 0.373438 0
M  V30 3958 C 371.287 -1.62634 -1.09748 0
M  V30 3959 O 370.412 -1.12588 -1.84805 0
M  V30 3960 C 371.007 -3.32088 0.671029 0
M  V30 3961 C 369.566 -3.74795 0.34722 0
M  V30 3962 C 368.713 -2.61391 0.92575 0
M  V30 3963 H 371.664 -1.27351 0.946958 0
M  V30 3964 H 371.685 -3.80465 -0.0518269 0
M  V30 3965 H 371.197 -3.46826 1.74164 0
M  V30 3966 H 369.298 -3.65638 -0.716933 0
M  V30 3967 H 369.411 -4.71667 0.840656 0
M  V30 3968 H 367.775 -2.52265 0.351327 0
M  V30 3969 H 368.558 -2.78929 2.00133 0
M  V30 3970 N 371.003 -0.499398 -1.49478 0
M  V30 3971 C 371.951 0.293604 -2.3074 0
M  V30 3972 C 372.945 0.96427 -1.39277 0
M  V30 3973 O 374.151 0.892141 -1.56336 0
M  V30 3974 H 370.526 0.113541 -0.743379 0
M  V30 3975 H 372.497 -0.411772 -2.95545 0
M  V30 3976 C 371.246 1.3462 -3.20582 0
M  V30 3977 H 370.569 0.83954 -3.90886 0
M  V30 3978 H 372.009 1.87308 -3.80384 0
M  V30 3979 C 370.468 2.36351 -2.40083 0
M  V30 3980 O 370.998 3.422 -2.10385 0
M  V30 3981 N 369.204 2.0878 -2.02137 0
M  V30 3982 H 368.751 1.22723 -2.26488 0
M  V30 3983 H 368.709 2.77075 -1.48583 0
M  V30 3984 N 372.481 1.55866 -0.233164 0
M  V30 3985 C 373.758 1.90471 0.444988 0
M  V30 3986 C 374.138 1.15209 1.7689 0
M  V30 3987 O 373.486 0.265119 2.26957 0
M  V30 3988 C 373.696 3.4333 0.626559 0
M  V30 3989 C 375.044 4.14319 0.92871 0
M  V30 3990 O 376.068 3.48993 0.712926 0
M  V30 3991 O 374.927 5.29846 1.33887 0
M  V30 3992 H 372.021 0.792347 0.236885 0
M  V30 3993 H 374.567 1.67437 -0.276211 0
M  V30 3994 H 373.339 3.90095 -0.306822 0
M  V30 3995 H 372.962 3.72181 1.39881 0
M  V30 3996 N 373.959 -0.0401083 1.57549 0
M  V30 3997 C 374.869 -1.06133 2.0922 0
M  V30 3998 C 375.885 -1.40356 1.0284 0
M  V30 3999 O 377.061 -1.49897 1.34509 0
M  V30 4000 C 374.126 -2.34658 2.55218 0
M  V30 4001 C 373.187 -2.07117 3.76033 0
M  V30 4002 C 372.42 -3.29514 4.19829 0
M  V30 4003 O 372.643 -4.39794 3.63232 0
M  V30 4004 O 371.577 -3.15863 5.12362 0
M  V30 4005 H 375.403 -0.652244 2.96613 0
M  V30 4006 H 372.988 -0.256368 1.47184 0
M  V30 4007 H 374.87 -3.10239 2.85184 0
M  V30 4008 H 373.545 -2.74883 1.70941 0
M  V30 4009 H 372.452 -1.29139 3.51104 0
M  V30 4010 H 373.785 -1.71754 4.61261 0
M  V30 4011 N 375.437 -1.54477 -0.31217 0
M  V30 4012 C 376.384 -1.84655 -1.38461 0
M  V30 4013 C 377.354 -0.694536 -1.50882 0
M  V30 4014 O 378.539 -0.942081 -1.6592 0
M  V30 4015 C 375.679 -2.0896 -2.74645 0
M  V30 4016 C 374.792 -3.36618 -2.70763 0
M  V30 4017 C 373.927 -3.50824 -3.98868 0
M  V30 4018 C 372.966 -4.72315 -3.89339 0
M  V30 4019 N 372.103 -4.83387 -5.09197 0
M  V30 4020 H 376.943 -2.76142 -1.12026 0
M  V30 4021 H 374.48 -1.36748 -0.542065 0
M  V30 4022 H 376.438 -2.21045 -3.53829 0
M  V30 4023 H 375.068 -1.20752 -2.99364 0
M  V30 4024 H 374.12 -3.33211 -1.83506 0
M  V30 4025 H 375.432 -4.25917 -2.59608 0
M  V30 4026 H 374.586 -3.62513 -4.86486 0
M  V30 4027 H 373.325 -2.59638 -4.12843 0
M  V30 4028 H 372.33 -4.6067 -3.00105 0
M  V30 4029 H 373.555 -5.64897 -3.76919 0
M  V30 4030 H 371.501 -3.9512 -5.23657 0
M  V30 4031 H 371.418 -5.66669 -5.00422 0
M  V30 4032 H 372.686 -4.9942 -5.98498 0
M  V30 4033 N 376.915 0.57481 -1.46744 0
M  V30 4034 C 378.163 1.33009 -1.52161 0
M  V30 4035 C 378.484 1.94185 -0.178092 0
M  V30 4036 O 377.754 1.7899 0.796196 0
M  V30 4037 H 376.334 0.493873 -0.560445 0
M  V30 4038 H 378.996 0.672589 -1.82927 0
M  V30 4039 H 378.092 2.13273 -2.27862 0
M  V30 4040 N 378.394 1.34581 0.820102 0
M  V30 4041 C 379.624 1.29991 1.6058 0
M  V30 4042 C 380.032 -0.127588 1.88769 0
M  V30 4043 O 379.375 -1.08595 1.48165 0
M  V30 4044 C 379.437 2.02548 2.9701 0
M  V30 4045 C 379.101 3.51794 2.91701 0
M  V30 4046 C 380.098 4.46647 2.66087 0
M  V30 4047 C 377.783 3.94249 3.11245 0
M  V30 4048 C 379.777 5.81929 2.60071 0
M  V30 4049 C 377.464 5.2963 3.04853 0
M  V30 4050 C 378.462 6.23282 2.793 0
M  V30 4051 O 378.15 7.56181 2.72847 0
M  V30 4052 H 377.882 0.448539 0.505756 0
M  V30 4053 H 380.436 1.77811 1.02822 0
M  V30 4054 H 378.666 1.49345 3.56697 0
M  V30 4055 H 380.355 1.91211 3.58041 0
M  V30 4056 H 381.121 4.15168 2.5072 0
M  V30 4057 H 377 3.21749 3.30149 0
M  V30 4058 H 380.544 6.54999 2.40046 0
M  V30 4059 H 376.441 5.60727 3.19774 0
M  V30 4060 H 377.209 7.6595 2.88553 0
M  V30 4061 N 379.872 -1.04064 1.18357 0
M  V30 4062 C 381.12 -1.76915 0.977013 0
M  V30 4063 C 381.441 -1.88624 -0.494577 0
M  V30 4064 O 380.711 -1.41125 -1.3587 0
M  V30 4065 H 379.291 -0.65535 0.358504 0
M  V30 4066 H 381.953 -1.25592 1.49039 0
M  V30 4067 H 381.049 -2.78178 1.41504 0
M  V30 4068 N 381.35 -0.985608 -1.22978 0
M  V30 4069 C 382.3 -0.50118 -2.22423 0
M  V30 4070 C 383.284 0.426649 -1.5514 0
M  V30 4071 O 384.476 0.254656 -1.75159 0
M  V30 4072 C 381.605 0.190003 -3.42774 0
M  V30 4073 C 380.691 -0.757703 -4.17276 0
M  V30 4074 N 381.082 -1.90251 -4.68656 0
M  V30 4075 C 379.38 -0.57209 -4.42316 0
M  V30 4076 C 380.081 -2.49676 -5.25392 0
M  V30 4077 N 379.057 -1.78013 -5.13627 0
M  V30 4078 H 382.859 -1.37441 -2.59783 0
M  V30 4079 H 380.373 -0.846941 -1.38567 0
M  V30 4080 H 382.37 0.55439 -4.13197 0
M  V30 4081 H 381.03 1.05946 -3.06929 0
M  V30 4082 H 382.041 -2.28354 -4.64839 0
M  V30 4083 H 378.718 0.251909 -4.16739 0
M  V30 4084 H 380.108 -3.46384 -5.75732 0
M  V30 4085 N 382.828 1.3818 -0.7579 0
M  V30 4086 C 384.075 2.00019 -0.315985 0
M  V30 4087 C 384.403 1.60163 1.10355 0
M  V30 4088 O 383.658 0.83264 1.77103 0
M  V30 4089 C 383.957 3.55252 -0.391218 0
M  V30 4090 C 383.623 4.14834 -1.76702 0
M  V30 4091 C 382.285 4.30821 -2.14353 0
M  V30 4092 C 384.637 4.47658 -2.66931 0
M  V30 4093 C 381.965 4.76928 -3.41696 0
M  V30 4094 C 384.317 4.95184 -3.93669 0
M  V30 4095 C 382.981 5.09377 -4.31383 0
M  V30 4096 H 382.251 0.731923 -0.115627 0
M  V30 4097 H 384.898 1.65161 -0.969223 0
M  V30 4098 H 383.203 3.90273 0.34558 0
M  V30 4099 H 384.9 4.00988 -0.030805 0
M  V30 4100 H 381.49 4.02808 -1.46435 0
M  V30 4101 H 385.674 4.34904 -2.39106 0
M  V30 4102 H 380.93 4.86103 -3.70829 0
M  V30 4103 H 385.104 5.19551 -4.63724 0
M  V30 4104 H 382.731 5.44865 -5.30119 0
M  V30 4105 N 384.306 0.507319 1.49211 0
M  V30 4106 C 385.553 -0.0349529 2.0247 0
M  V30 4107 C 385.881 -1.36409 1.38647 0
M  V30 4108 O 385.136 -1.88841 0.513566 0
M  V30 4109 C 385.435 -0.229513 3.56662 0
M  V30 4110 C 385.101 1.02241 4.39156 0
M  V30 4111 C 383.763 1.36557 4.61417 0
M  V30 4112 C 386.115 1.85428 4.871 0
M  V30 4113 C 383.443 2.53999 5.28868 0
M  V30 4114 C 385.795 3.02028 5.55843 0
M  V30 4115 C 384.459 3.36717 5.76349 0
M  V30 4116 H 383.729 -0.0127902 0.74089 0
M  V30 4117 H 386.376 0.668756 1.79443 0
M  V30 4118 H 384.681 -1.0158 3.78403 0
M  V30 4119 H 386.378 -0.663641 3.9547 0
M  V30 4120 H 382.968 0.745124 4.22073 0
M  V30 4121 H 387.152 1.6023 4.69723 0
M  V30 4122 H 382.408 2.81105 5.42946 0
M  V30 4123 H 386.582 3.66808 5.91967 0
M  V30 4124 H 384.209 4.27821 6.28389 0
M  V30 4125 N 385.784 -1.5574 0.241426 0
M  V30 4126 C 387.009 -2.0366 -0.392111 0
M  V30 4127 C 387.434 -1.11969 -1.51144 0
M  V30 4128 O 386.792 -0.111594 -1.80956 0
M  V30 4129 C 386.84 -3.49638 -0.882371 0
M  V30 4130 O 385.944 -3.6108 -1.99235 0
M  V30 4131 H 385.285 -0.658379 -0.0862122 0
M  V30 4132 H 387.815 -2.01302 0.365881 0
M  V30 4133 H 387.825 -3.90351 -1.18702 0
M  V30 4134 H 386.5 -4.15852 -0.0632361 0
M  V30 4135 H 385.077 -3.32262 -1.69282 0
M  V30 4136 N 387.262 0.0317525 -1.57568 0
M  V30 4137 C 388.539 0.758366 -1.803 0
M  V30 4138 C 388.919 1.93718 -0.838845 0
M  V30 4139 O 388.267 2.28187 0.119571 0
M  V30 4140 C 388.477 1.19392 -3.27943 0
M  V30 4141 C 389.825 1.61094 -3.92854 0
M  V30 4142 O 390.849 1.28857 -3.32076 0
M  V30 4143 O 389.708 2.20918 -4.99858 0
M  V30 4144 H 386.802 0.366514 -0.741348 0
M  V30 4145 H 389.348 0.00873765 -1.69698 0
M  V30 4146 H 388.12 0.352275 -3.89711 0
M  V30 4147 H 387.743 2.00365 -3.43424 0
M  V30 4148 N 388.74 1.54641 0.303973 0
M  V30 4149 C 389.965 1.78092 1.06292 0
M  V30 4150 C 390.39 0.537342 1.80262 0
M  V30 4151 O 389.748 -0.511993 1.7392 0
M  V30 4152 C 389.796 2.98612 2.02147 0
M  V30 4153 O 388.9 2.71528 3.10397 0
M  V30 4154 H 388.241 0.589548 0.305497 0
M  V30 4155 H 390.771 2.01716 0.3423 0
M  V30 4156 H 390.781 3.265 2.44667 0
M  V30 4157 H 389.456 3.88785 1.47714 0
M  V30 4158 H 388.033 2.54648 2.72413 0
M  V30 4159 N 390.218 -0.567019 1.47046 0
M  V30 4160 C 391.448 -1.34831 1.56538 0
M  V30 4161 C 391.856 -1.8802 0.21101 0
M  V30 4162 O 391.199 -1.65152 -0.804387 0
M  V30 4163 C 391.261 -2.56139 2.52256 0
M  V30 4164 C 390.925 -2.24307 3.98165 0
M  V30 4165 C 391.922 -1.82192 4.86931 0
M  V30 4166 C 389.607 -2.35968 4.43423 0
M  V30 4167 C 391.601 -1.52153 6.18973 0
M  V30 4168 C 389.288 -2.05542 5.75496 0
M  V30 4169 C 390.286 -1.63701 6.63092 0
M  V30 4170 O 389.974 -1.33657 7.92711 0
M  V30 4171 H 389.706 -0.417683 0.531523 0
M  V30 4172 H 392.26 -0.694726 1.93294 0
M  V30 4173 H 390.49 -3.24356 2.10548 0
M  V30 4174 H 392.179 -3.18214 2.51982 0
M  V30 4175 H 392.945 -1.72684 4.53217 0
M  V30 4176 H 388.824 -2.67495 3.75456 0
M  V30 4177 H 392.368 -1.19421 6.87302 0
M  V30 4178 H 388.265 -2.14679 6.08755 0
M  V30 4179 H 389.033 -1.4737 8.05124 0
M  V30 4180 N 391.696 -1.35014 -0.812953 0
M  V30 4181 C 393.112 -1.14914 -1.10757 0
M  V30 4182 C 393.312 0.0426818 -2.01455 0
M  V30 4183 O 392.368 0.715212 -2.42159 0
M  V30 4184 C 393.681 -2.44911 -1.74468 0
M  V30 4185 C 395.229 -2.5106 -1.86917 0
M  V30 4186 C 395.704 -3.81085 -2.54044 0
M  V30 4187 N 397.195 -3.82301 -2.61535 0
M  V30 4188 C 397.93 -4.79634 -3.14227 0
M  V30 4189 N 397.426 -5.87353 -3.67407 0
M  V30 4190 N 399.219 -4.67078 -3.12721 0
M  V30 4191 H 391.37 -2.1136 -0.20989 0
M  V30 4192 H 393.633 -0.935128 -0.155692 0
M  V30 4193 H 393.339 -3.32267 -1.15289 0
M  V30 4194 H 393.213 -2.58989 -2.74234 0
M  V30 4195 H 395.6 -1.64137 -2.45241 0
M  V30 4196 H 395.681 -2.40901 -0.860242 0
M  V30 4197 H 395.325 -4.68402 -1.96372 0
M  V30 4198 H 395.255 -3.88529 -3.55461 0
M  V30 4199 H 397.746 -3.04465 -2.23851 0
M  V30 4200 H 398.059 -6.57624 -4.05894 0
M  V30 4201 H 396.404 -5.91054 -3.65623 0
M  V30 4202 H 399.595 -3.82067 -2.70449 0
M  V30 4203 H 399.768 -5.43098 -3.53481 0
M  V30 4204 N 393.175 1.03435 -1.18907 0
M  V30 4205 C 394.421 1.77005 -0.989798 0
M  V30 4206 C 394.754 1.88205 0.478816 0
M  V30 4207 O 394.029 1.39481 1.35556 0
M  V30 4208 C 394.312 3.19925 -1.65287 0
M  V30 4209 C 394.165 3.1663 -3.19477 0
M  V30 4210 C 395.484 4.18189 -1.37134 0
M  V30 4211 H 392.603 0.642538 -0.360991 0
M  V30 4212 H 395.245 1.20784 -1.46667 0
M  V30 4213 H 393.395 3.67929 -1.24741 0
M  V30 4214 H 395.067 2.76567 -3.692 0
M  V30 4215 H 393.31 2.54491 -3.51307 0
M  V30 4216 H 393.981 4.1758 -3.61013 0
M  V30 4217 H 396.457 3.78761 -1.72276 0
M  V30 4218 H 395.333 5.16394 -1.86087 0
M  V30 4219 H 395.594 4.41112 -0.295424 0
M  V30 4220 N 394.653 0.992116 1.22453 0
M  V30 4221 C 395.616 0.546883 2.2258 0
M  V30 4222 C 396.616 -0.369829 1.56489 0
M  V30 4223 O 397.806 -0.161896 1.73446 0
M  V30 4224 C 394.938 -0.204659 3.40285 0
M  V30 4225 H 396.131 1.43234 2.63484 0
M  V30 4226 H 393.684 0.779239 1.3549 0
M  V30 4227 H 394.419 -1.10614 3.04853 0
M  V30 4228 H 394.204 0.45354 3.89468 0
M  V30 4229 H 395.694 -0.504358 4.14543 0
M  V30 4230 N 396.131 -1.37776 0.765217 0
M  V30 4231 C 397.094 -2.28686 0.153416 0
M  V30 4232 C 398.094 -1.47727 -0.635081 0
M  V30 4233 O 399.284 -1.68027 -0.459632 0
M  V30 4234 C 396.416 -3.31608 -0.790495 0
M  V30 4235 H 397.609 -2.84297 0.954723 0
M  V30 4236 H 395.162 -1.46932 0.53299 0
M  V30 4237 H 395.897 -2.81109 -1.61705 0
M  V30 4238 H 395.682 -3.9144 -0.227348 0
M  V30 4239 H 397.172 -3.99559 -1.21419 0
M  V30 4240 N 397.609 -0.515225 -1.4894 0
M  V30 4241 C 398.557 0.269115 -2.31038 0
M  V30 4242 C 399.551 0.949443 -1.40292 0
M  V30 4243 O 400.757 0.87551 -1.57273 0
M  V30 4244 H 397.132 0.10565 -0.744542 0
M  V30 4245 H 399.103 -0.443096 -2.95092 0
M  V30 4246 C 397.852 1.31213 -3.21991 0
M  V30 4247 H 397.175 0.798034 -3.91754 0
M  V30 4248 H 398.615 1.83263 -3.82349 0
M  V30 4249 C 397.074 2.33791 -2.42576 0
M  V30 4250 O 397.604 3.3995 -2.14003 0
M  V30 4251 N 395.81 2.06625 -2.0434 0
M  V30 4252 H 395.357 1.20314 -2.27777 0
M  V30 4253 H 395.315 2.75483 -1.51514 0
M  V30 4254 N 399.087 1.5561 -0.249682 0
M  V30 4255 C 400.336 1.98187 0.37479 0
M  V30 4256 C 400.649 1.14111 1.58865 0
M  V30 4257 O 401.855 1.46714 2.28445 0
M  V30 4258 C 400.311 3.52661 0.718192 0
M  V30 4259 C 399.919 4.45481 -0.474428 0
M  V30 4260 C 401.663 4.03888 1.3067 0
M  V30 4261 C 399.57 5.91303 -0.107026 0
M  V30 4262 H 398.5 0.740159 0.143808 0
M  V30 4263 H 401.151 1.80125 -0.350336 0
M  V30 4264 H 399.533 3.66429 1.50152 0
M  V30 4265 H 400.707 4.43473 -1.25172 0
M  V30 4266 H 399.022 4.04751 -0.978052 0
M  V30 4267 H 401.619 5.10358 1.59496 0
M  V30 4268 H 401.962 3.51401 2.23211 0
M  V30 4269 H 402.495 3.93457 0.586211 0
M  V30 4270 H 399.234 6.47833 -0.999642 0
M  V30 4271 H 398.754 5.9644 0.634013 0
M  V30 4272 H 400.433 6.46258 0.309807 0
M  V30 4273 N 400.565 -0.0233959 1.57583 0
M  V30 4274 C 401.813 -0.711654 1.89156 0
M  V30 4275 C 402.134 -1.75591 0.848096 0
M  V30 4276 O 401.404 -1.95547 -0.117566 0
M  V30 4277 H 399.984 -0.265835 0.698098 0
M  V30 4278 H 402.646 0.0119948 1.94896 0
M  V30 4279 H 401.742 -1.19766 2.88206 0
M  V30 4280 N 402.043 -1.548 -0.295768 0
M  V30 4281 C 402.973 -1.89115 -1.36959 0
M  V30 4282 C 403.954 -0.75059 -1.52644 0
M  V30 4283 O 405.139 -1.00678 -1.66065 0
M  V30 4284 C 402.269 -2.14307 -2.73295 0
M  V30 4285 C 401.223 -3.30151 -2.72368 0
M  V30 4286 C 400.549 -3.40772 -4.12042 0
M  V30 4287 C 401.849 -4.67126 -2.33646 0
M  V30 4288 H 403.543 -2.79053 -1.08488 0
M  V30 4289 H 401.089 -1.34266 -0.520443 0
M  V30 4290 H 403.042 -2.36898 -3.48507 0
M  V30 4291 H 401.766 -1.21145 -3.03301 0
M  V30 4292 H 400.425 -3.0749 -1.99613 0
M  V30 4293 H 400.073 -2.45117 -4.39234 0
M  V30 4294 H 399.773 -4.18645 -4.12322 0
M  V30 4295 H 401.297 -3.6563 -4.89027 0
M  V30 4296 H 402.711 -4.89414 -2.98575 0
M  V30 4297 H 401.108 -5.47751 -2.45129 0
M  V30 4298 H 402.178 -4.67489 -1.28772 0
M  V30 4299 N 403.521 0.559213 -1.47345 0
M  V30 4300 C 404.798 1.31997 -1.44348 0
M  V30 4301 C 405.178 2.1064 -0.139358 0
M  V30 4302 O 404.526 2.1091 0.879153 0
M  V30 4303 C 404.736 2.22618 -2.68779 0
M  V30 4304 C 406.084 2.83701 -3.1591 0
M  V30 4305 O 407.108 2.32921 -2.69493 0
M  V30 4306 O 405.967 3.75993 -3.966 0
M  V30 4307 H 403.061 0.594251 -0.575147 0
M  V30 4308 H 405.607 0.578282 -1.59543 0
M  V30 4309 H 404.379 1.64093 -3.55231 0
M  V30 4310 H 404.002 3.04085 -2.5616 0
M  V30 4311 N 404.999 1.35443 0.805782 0
M  V30 4312 C 405.962 1.28301 1.89925 0
M  V30 4313 C 406.962 0.194285 1.59622 0
M  V30 4314 O 408.152 0.448036 1.6834 0
M  V30 4315 C 405.284 0.984997 3.2636 0
M  V30 4316 H 406.477 2.2553 1.97677 0
M  V30 4317 H 404.03 1.19979 1.00173 0
M  V30 4318 H 404.765 0.016603 3.24296 0
M  V30 4319 H 404.55 1.77269 3.4974 0
M  V30 4320 H 406.04 0.960651 4.064 0
M  V30 4321 N 406.477 -1.02803 1.19454 0
M  V30 4322 C 407.387 -2.14575 0.948408 0
M  V30 4323 C 408.403 -1.73757 -0.091871 0
M  V30 4324 O 409.579 -2.01185 0.0929654 0
M  V30 4325 C 406.644 -3.43202 0.491265 0
M  V30 4326 C 405.705 -3.98328 1.60103 0
M  V30 4327 C 404.938 -5.20816 1.16561 0
M  V30 4328 O 405.161 -5.70392 0.0295238 0
M  V30 4329 O 404.095 -5.68801 1.96849 0
M  V30 4330 H 407.921 -2.38202 1.88397 0
M  V30 4331 H 405.506 -1.12989 0.977433 0
M  V30 4332 H 407.388 -4.20687 0.245015 0
M  V30 4333 H 406.063 -3.21018 -0.415851 0
M  V30 4334 H 404.97 -3.22174 1.90144 0
M  V30 4335 H 406.303 -4.24879 2.48473 0
M  V30 4336 N 407.956 -0.998596 -1.21925 0
M  V30 4337 C 409.202 -0.688337 -1.91399 0
M  V30 4338 C 409.557 0.771805 -1.76241 0
M  V30 4339 O 408.85 1.55153 -1.1242 0
M  V30 4340 C 409.044 -1.03648 -3.42041 0
M  V30 4341 C 408.873 -2.52892 -3.71855 0
M  V30 4342 C 407.643 -3.19389 -3.91559 0
M  V30 4343 C 409.841 -3.5103 -3.75875 0
M  V30 4344 N 407.823 -4.5805 -4.08734 0
M  V30 4345 C 409.194 -4.75174 -3.98259 0
M  V30 4346 C 411.249 -3.45257 -3.58751 0
M  V30 4347 C 409.952 -5.94247 -4.05294 0
M  V30 4348 C 411.978 -4.63712 -3.67049 0
M  V30 4349 C 411.34 -5.86658 -3.89887 0
M  V30 4350 H 407.439 -0.303251 -0.720807 0
M  V30 4351 H 410.023 -1.27977 -1.46731 0
M  V30 4352 H 408.194 -0.473569 -3.85502 0
M  V30 4353 H 409.926 -0.681619 -3.98919 0
M  V30 4354 H 406.681 -2.69846 -3.89205 0
M  V30 4355 H 407.105 -5.29989 -4.21237 0
M  V30 4356 H 411.747 -2.51215 -3.40075 0
M  V30 4357 H 409.465 -6.88687 -4.22772 0
M  V30 4358 H 413.051 -4.6084 -3.5513 0
M  V30 4359 H 411.931 -6.76786 -3.96144 0
M  V30 4360 N 409.434 1.37368 -0.772513 0
M  V30 4361 C 410.681 1.99673 -0.337182 0
M  V30 4362 C 411.009 1.61324 1.0865 0
M  V30 4363 O 410.264 0.851377 1.7621 0
M  V30 4364 C 410.563 3.54817 -0.428876 0
M  V30 4365 C 410.229 4.12936 -1.81092 0
M  V30 4366 C 408.891 4.28523 -2.1891 0
M  V30 4367 C 411.243 4.44801 -2.71664 0
M  V30 4368 C 408.571 4.73277 -3.46735 0
M  V30 4369 C 410.923 4.90981 -3.98899 0
M  V30 4370 C 409.587 5.04773 -4.36761 0
M  V30 4371 H 408.857 0.730656 -0.123384 0
M  V30 4372 H 411.504 1.64124 -0.986686 0
M  V30 4373 H 409.809 3.90618 0.304167 0
M  V30 4374 H 411.506 4.00933 -0.0733334 0
M  V30 4375 H 408.096 4.01233 -1.50699 0
M  V30 4376 H 412.28 4.32344 -2.43706 0
M  V30 4377 H 407.536 4.82142 -3.75964 0
M  V30 4378 H 411.71 5.14603 -4.69208 0
M  V30 4379 H 409.337 5.39211 -5.35868 0
M  V30 4380 N 410.912 0.523116 1.48665 0
M  V30 4381 C 412.16 -0.0134497 2.02096 0
M  V30 4382 C 412.481 -1.35418 1.40311 0
M  V30 4383 O 411.751 -1.87543 0.566074 0
M  V30 4384 H 410.331 -0.00795915 0.746958 0
M  V30 4385 H 412.993 0.685388 1.82451 0
M  V30 4386 H 412.089 -0.126849 3.11842 0
M  V30 4387 N 412.39 -1.55475 0.257931 0
M  V30 4388 C 413.638 -1.98813 -0.363009 0
M  V30 4389 C 413.959 -1.14757 -1.57657 0
M  V30 4390 O 413.229 -0.232956 -1.9451 0
M  V30 4391 H 411.809 -0.734308 -0.137113 0
M  V30 4392 H 414.471 -1.9156 0.359281 0
M  V30 4393 H 413.567 -3.04941 -0.664634 0
M  V30 4394 N 413.868 0.0150385 -1.57593 0
M  V30 4395 C 415.093 0.718067 -1.94573 0
M  V30 4396 C 415.518 1.6734 -0.859005 0
M  V30 4397 O 414.876 1.80362 0.184147 0
M  V30 4398 C 414.924 1.43918 -3.30636 0
M  V30 4399 O 414.028 2.55299 -3.23876 0
M  V30 4400 H 413.369 0.192125 -0.635597 0
M  V30 4401 H 415.899 -0.0336708 -2.04572 0
M  V30 4402 H 415.909 1.80598 -3.65853 0
M  V30 4403 H 414.584 0.738619 -4.09289 0
M  V30 4404 H 413.161 2.21058 -3.00312 0
M  V30 4405 N 415.346 1.54954 0.287554 0
M  V30 4406 C 416.256 1.8991 1.37736 0
M  V30 4407 C 417.272 0.794701 1.54792 0
M  V30 4408 O 418.448 1.09243 1.69198 0
M  V30 4409 C 415.513 2.15108 2.71899 0
M  V30 4410 C 414.574 3.38752 2.63715 0
M  V30 4411 C 413.807 3.62739 3.91479 0
M  V30 4412 O 414.03 2.89492 4.91478 0
M  V30 4413 O 412.964 4.56267 3.92561 0
M  V30 4414 H 416.79 2.82652 1.11092 0
M  V30 4415 H 414.375 1.41315 0.484807 0
M  V30 4416 H 416.257 2.32806 3.51254 0
M  V30 4417 H 414.932 1.25551 2.9836 0
M  V30 4418 H 413.839 3.26405 1.82786 0
M  V30 4419 H 415.172 4.28483 2.42205 0
M  V30 4420 N 416.824 -0.551391 1.4764 0
M  V30 4421 C 418.07 -1.30789 1.55774 0
M  V30 4422 C 418.425 -1.91143 0.219562 0
M  V30 4423 O 417.718 -1.7521 -0.775375 0
M  V30 4424 C 417.912 -2.43469 2.61644 0
M  V30 4425 C 417.741 -1.94157 4.05627 0
M  V30 4426 C 416.511 -1.77734 4.7301 0
M  V30 4427 C 418.709 -1.48262 4.92466 0
M  V30 4428 N 416.691 -1.22823 6.01488 0
M  V30 4429 C 418.062 -1.05156 6.11017 0
M  V30 4430 C 420.117 -1.36367 4.78862 0
M  V30 4431 C 418.82 -0.513357 7.17466 0
M  V30 4432 C 420.846 -0.839484 5.85411 0
M  V30 4433 C 420.208 -0.418377 7.03156 0
M  V30 4434 H 416.307 -0.470406 0.624694 0
M  V30 4435 H 418.891 -0.624331 1.84419 0
M  V30 4436 H 417.062 -3.09348 2.34859 0
M  V30 4437 H 418.794 -3.10477 2.59589 0
M  V30 4438 H 415.549 -2.00623 4.29007 0
M  V30 4439 H 415.973 -0.974393 6.69951 0
M  V30 4440 H 420.615 -1.67535 3.88191 0
M  V30 4441 H 418.333 -0.189318 8.07878 0
M  V30 4442 H 421.919 -0.750921 5.76934 0
M  V30 4443 H 420.799 -0.0190538 7.84198 0
M  V30 4444 N 418.302 -1.35869 -0.798587 0
M  V30 4445 C 419.527 -1.32883 -1.59238 0
M  V30 4446 C 419.952 0.0894587 -1.87887 0
M  V30 4447 O 419.31 1.05869 -1.47178 0
M  V30 4448 C 419.358 -2.14892 -2.89575 0
M  V30 4449 O 418.462 -1.53512 -3.82763 0
M  V30 4450 H 417.803 -0.455236 -0.48338 0
M  V30 4451 H 420.333 -1.79024 -0.990539 0
M  V30 4452 H 420.343 -2.27139 -3.38928 0
M  V30 4453 H 419.018 -3.17998 -2.68049 0
M  V30 4454 H 417.595 -1.50153 -3.41334 0
M  V30 4455 N 419.78 1.02168 -1.19998 0
M  V30 4456 C 420.743 2.08765 -0.94604 0
M  V30 4457 C 421.743 1.60618 0.0763846 0
M  V30 4458 O 422.933 1.73472 -0.159135 0
M  V30 4459 C 420.065 3.38262 -0.423255 0
M  V30 4460 H 421.258 2.32726 -1.89153 0
M  V30 4461 H 418.811 1.1889 -1.01464 0
M  V30 4462 H 419.546 3.19974 0.527938 0
M  V30 4463 H 419.331 3.74532 -1.16053 0
M  V30 4464 H 420.821 4.16759 -0.264911 0
M  V30 4465 N 421.258 1.00505 1.21394 0
M  V30 4466 C 422.168 0.574806 2.27449 0
M  V30 4467 C 423.184 -0.382206 1.6975 0
M  V30 4468 O 424.36 -0.246027 1.99892 0
M  V30 4469 C 421.425 -0.0917414 3.46579 0
M  V30 4470 C 420.486 0.909758 4.1955 0
M  V30 4471 C 419.719 0.274924 5.32991 0
M  V30 4472 O 419.942 -0.928254 5.62796 0
M  V30 4473 O 418.876 0.985877 5.93771 0
M  V30 4474 H 422.702 1.45744 2.66444 0
M  V30 4475 H 420.287 0.773923 1.27792 0
M  V30 4476 H 422.169 -0.464551 4.18832 0
M  V30 4477 H 420.844 -0.948755 3.09484 0
M  V30 4478 H 419.751 1.33372 3.49518 0
M  V30 4479 H 421.084 1.73636 4.60555 0
M  V30 4480 N 422.737 -1.36956 0.779787 0
M  V30 4481 C 423.647 -2.33965 0.172491 0
M  V30 4482 C 424.663 -1.60574 -0.670222 0
M  V30 4483 O 425.839 -1.92617 -0.588263 0
M  V30 4484 C 422.904 -3.39761 -0.690173 0
M  V30 4485 C 421.965 -4.28964 0.169924 0
M  V30 4486 C 421.198 -5.29707 -0.651662 0
M  V30 4487 O 421.421 -5.38238 -1.88827 0
M  V30 4488 O 420.355 -6.01873 -0.0566264 0
M  V30 4489 H 424.181 -2.87647 0.974321 0
M  V30 4490 H 421.766 -1.39258 0.541078 0
M  V30 4491 H 423.648 -4.04471 -1.1824 0
M  V30 4492 H 422.323 -2.88394 -1.47006 0
M  V30 4493 H 421.23 -3.67326 0.708696 0
M  V30 4494 H 422.563 -4.83656 0.913085 0
M  V30 4495 N 424.215 -0.530993 -1.48385 0
M  V30 4496 C 425.464 0.00474348 -2.01699 0
M  V30 4497 C 425.777 1.35227 -1.41325 0
M  V30 4498 O 426.983 1.97643 -1.86144 0
M  V30 4499 C 425.439 0.0588473 -3.59852 0
M  V30 4500 C 425.047 -1.28385 -4.2921 0
M  V30 4501 C 426.791 0.543358 -4.21008 0
M  V30 4502 C 424.698 -1.19028 -5.79298 0
M  V30 4503 H 423.628 0.00554317 -0.75398 0
M  V30 4504 H 426.279 -0.674924 -1.70637 0
M  V30 4505 H 424.661 0.803612 -3.8776 0
M  V30 4506 H 425.835 -2.04426 -4.12973 0
M  V30 4507 H 424.15 -1.70418 -3.7993 0
M  V30 4508 H 426.747 0.631351 -5.3096 0
M  V30 4509 H 427.09 1.54937 -3.86394 0
M  V30 4510 H 427.623 -0.145754 -3.97533 0
M  V30 4511 H 424.362 -2.17147 -6.18488 0
M  V30 4512 H 423.882 -0.471246 -5.97946 0
M  V30 4513 H 425.561 -0.881365 -6.40969 0
M  V30 4514 N 425.693 1.55336 -0.266172 0
M  V30 4515 C 426.641 2.23587 0.641228 0
M  V30 4516 C 427.635 1.22986 1.16494 0
M  V30 4517 O 428.841 1.40943 1.1196 0
M  V30 4518 H 425.216 0.717452 0.225315 0
M  V30 4519 H 427.187 2.9837 0.0426561 0
M  V30 4520 C 425.936 2.96369 1.81826 0
M  V30 4521 H 425.259 3.73563 1.42445 0
M  V30 4522 H 426.699 3.47459 2.42998 0
M  V30 4523 C 425.158 2.0133 2.70125 0
M  V30 4524 O 425.688 1.55875 3.70224 0
M  V30 4525 N 423.894 1.6802 2.37102 0
M  V30 4526 H 423.441 2.05181 1.55751 0
M  V30 4527 H 423.399 1.047 2.96454 0
M  V30 4528 N 427.171 -0.0066808 1.57599 0
M  V30 4529 C 428.118 -1.00024 2.08 0
M  V30 4530 C 429.088 -1.34549 0.973943 0
M  V30 4531 O 430.273 -1.44502 1.24595 0
M  V30 4532 C 427.413 -2.2891 2.58252 0
M  V30 4533 C 426.526 -2.00346 3.82734 0
M  V30 4534 C 425.661 -3.23265 4.21513 0
M  V30 4535 C 424.7 -2.90357 5.3885 0
M  V30 4536 N 423.837 -4.05793 5.72954 0
M  V30 4537 H 428.677 -0.563499 2.92624 0
M  V30 4538 H 426.214 -0.266592 1.44664 0
M  V30 4539 H 428.172 -3.04247 2.85464 0
M  V30 4540 H 426.802 -2.70265 1.76512 0
M  V30 4541 H 425.854 -1.15406 3.62471 0
M  V30 4542 H 427.166 -1.72086 4.68175 0
M  V30 4543 H 426.32 -4.06953 4.49971 0
M  V30 4544 H 425.059 -3.54657 3.34768 0
M  V30 4545 H 424.064 -2.05075 5.10122 0
M  V30 4546 H 425.289 -2.60219 6.27266 0
M  V30 4547 H 423.235 -4.37094 4.89167 0
M  V30 4548 H 423.152 -3.81034 6.52954 0
M  V30 4549 H 424.42 -4.90289 6.06001 0
M  V30 4550 N 428.649 -1.55105 -0.279332 0
M  V30 4551 C 429.898 -1.74618 -1.00952 0
M  V30 4552 C 430.211 -0.551096 -1.87676 0
M  V30 4553 O 431.417 -0.628507 -2.64125 0
M  V30 4554 C 429.873 -3.09025 -1.84476 0
M  V30 4555 C 429.481 -4.36081 -1.0265 0
M  V30 4556 C 431.225 -3.37891 -2.56963 0
M  V30 4557 C 429.132 -5.6153 -1.85576 0
M  V30 4558 H 428.062 -0.650868 -0.38064 0
M  V30 4559 H 430.713 -1.81569 -0.265475 0
M  V30 4560 H 429.095 -2.96095 -2.62952 0
M  V30 4561 H 430.269 -4.59909 -0.286354 0
M  V30 4562 H 428.584 -4.14312 -0.416464 0
M  V30 4563 H 431.181 -4.28822 -3.19399 0
M  V30 4564 H 431.524 -2.57737 -3.26921 0
M  V30 4565 H 432.057 -3.5189 -1.85522 0
M  V30 4566 H 428.796 -6.44413 -1.2005 0
M  V30 4567 H 428.316 -5.41854 -2.57204 0
M  V30 4568 H 429.995 -5.99594 -2.43096 0
M  V30 4569 N 430.127 0.543554 -1.4793 0
M  V30 4570 C 431.059 1.665 -1.57513 0
M  V30 4571 C 432.072 1.56156 -0.460333 0
M  V30 4572 O 433.261 1.62865 -0.730573 0
M  V30 4573 C 430.361 3.05063 -1.47614 0
M  V30 4574 C 429.534 3.41024 -2.739 0
M  V30 4575 C 428.593 4.58809 -2.57645 0
M  V30 4576 O 427.619 4.62707 -3.31498 0
M  V30 4577 N 428.821 5.56149 -1.66368 0
M  V30 4578 H 431.586 1.5872 -2.5422 0
M  V30 4579 H 429.147 0.730517 -1.44482 0
M  V30 4580 H 431.139 3.81712 -1.34455 0
M  V30 4581 H 429.709 3.06994 -0.589359 0
M  V30 4582 H 428.929 2.53687 -3.01723 0
M  V30 4583 H 430.217 3.61831 -3.57709 0
M  V30 4584 H 429.615 5.55767 -1.05543 0
M  V30 4585 H 428.172 6.32071 -1.59154 0
M  V30 4586 N 431.605 1.3629 0.791371 0
M  V30 4587 C 432.568 1.30309 1.88553 0
M  V30 4588 C 433.568 0.211204 1.59407 0
M  V30 4589 O 434.758 0.465865 1.67855 0
M  V30 4590 C 431.89 1.01956 3.25297 0
M  V30 4591 H 433.083 2.27614 1.95273 0
M  V30 4592 H 430.636 1.21035 0.988953 0
M  V30 4593 H 431.371 0.050998 3.2426 0
M  V30 4594 H 431.156 1.80968 3.4784 0
M  V30 4595 H 432.646 1.0037 4.05359 0
M  V30 4596 N 433.083 -1.0153 1.20538 0
M  V30 4597 C 434.33 -1.75149 1.01633 0
M  V30 4598 C 434.658 -1.89189 -0.451399 0
M  V30 4599 O 433.913 -1.41551 -1.35136 0
M  V30 4600 C 434.212 -3.17213 1.64654 0
M  V30 4601 C 433.878 -3.23146 3.14464 0
M  V30 4602 C 432.54 -3.24472 3.55347 0
M  V30 4603 C 434.892 -3.21207 4.10458 0
M  V30 4604 C 432.22 -3.21532 4.90748 0
M  V30 4605 C 434.572 -3.19808 5.45807 0
M  V30 4606 C 433.236 -3.19439 5.86102 0
M  V30 4607 H 432.506 -0.640914 0.3719 0
M  V30 4608 H 435.153 -1.19071 1.49981 0
M  V30 4609 H 433.458 -3.76457 1.08571 0
M  V30 4610 H 435.155 -3.72871 1.4754 0
M  V30 4611 H 431.745 -3.2285 2.81897 0
M  V30 4612 H 435.929 -3.19351 3.79906 0
M  V30 4613 H 431.185 -3.19578 5.21229 0
M  V30 4614 H 435.359 -3.1726 6.19935 0
M  V30 4615 H 432.986 -3.16915 6.90991 0
M  V30 4616 N 434.561 -1.01147 -1.20859 0
M  V30 4617 C 435.808 -0.697865 -1.90095 0
M  V30 4618 C 436.136 0.772014 -1.78522 0
M  V30 4619 O 435.391 1.57595 -1.16027 0
M  V30 4620 C 435.69 -1.0727 -3.40922 0
M  V30 4621 C 435.356 -2.53792 -3.72693 0
M  V30 4622 C 434.018 -2.93829 -3.81075 0
M  V30 4623 C 436.37 -3.48674 -3.87397 0
M  V30 4624 C 433.698 -4.27696 -4.01613 0
M  V30 4625 C 436.05 -4.82223 -4.09444 0
M  V30 4626 C 434.714 -5.21973 -4.16054 0
M  V30 4627 H 433.984 -0.255367 -0.695607 0
M  V30 4628 H 436.631 -1.27111 -1.43231 0
M  V30 4629 H 434.936 -0.417799 -3.89566 0
M  V30 4630 H 436.633 -0.807818 -3.92779 0
M  V30 4631 H 433.223 -2.21768 -3.66765 0
M  V30 4632 H 437.407 -3.18904 -3.80281 0
M  V30 4633 H 432.663 -4.58055 -4.04964 0
M  V30 4634 H 436.837 -5.55672 -4.19763 0
M  V30 4635 H 434.464 -6.25717 -4.31721 0
M  V30 4636 N 436.039 1.36541 -0.78704 0
M  V30 4637 C 437.002 2.28413 -0.189778 0
M  V30 4638 C 438.002 1.48719 0.611499 0
M  V30 4639 O 439.192 1.68737 0.432842 0
M  V30 4640 C 436.324 3.32824 0.737638 0
M  V30 4641 H 437.517 2.82743 -0.999831 0
M  V30 4642 H 435.07 1.46065 -0.556298 0
M  V30 4643 H 435.805 2.83646 1.57212 0
M  V30 4644 H 435.59 3.91752 0.165044 0
M  V30 4645 H 437.08 4.0144 1.15047 0
M  V30 4646 N 437.518 0.538854 1.48102 0
M  V30 4647 C 438.795 -0.0568108 1.95517 0
M  V30 4648 C 439.175 -1.50408 1.48124 0
M  V30 4649 O 438.523 -2.17133 0.711727 0
M  V30 4650 C 438.733 0.0696262 3.48931 0
M  V30 4651 C 440.081 -0.0851202 4.24515 0
M  V30 4652 O 441.105 -0.0037347 3.562 0
M  V30 4653 O 439.964 -0.257025 5.45895 0
M  V30 4654 H 437.058 -0.0743695 0.823649 0
M  V30 4655 H 439.604 0.604081 1.58584 0
M  V30 4656 H 438.376 1.07744 3.76174 0
M  V30 4657 H 437.999 -0.629714 3.92582 0
M  V30 4658 N 438.996 -1.55193 0.274407 0
M  V30 4659 C 439.943 -2.225 -0.613374 0
M  V30 4660 C 440.913 -1.19823 -1.15029 0
M  V30 4661 O 442.098 -1.48362 -1.19973 0
M  V30 4662 C 439.238 -2.94927 -1.79199 0
M  V30 4663 C 438.351 -4.12322 -1.28899 0
M  V30 4664 C 437.486 -4.72394 -2.42934 0
M  V30 4665 C 436.525 -5.81984 -1.89634 0
M  V30 4666 N 435.662 -6.36123 -2.9714 0
M  V30 4667 H 440.502 -2.97982 -0.032756 0
M  V30 4668 H 438.039 -1.47099 -0.00440146 0
M  V30 4669 H 439.997 -3.35134 -2.48478 0
M  V30 4670 H 438.627 -2.2187 -2.34465 0
M  V30 4671 H 437.679 -3.7724 -0.489327 0
M  V30 4672 H 438.991 -4.91355 -0.858587 0
M  V30 4673 H 438.145 -5.15317 -3.20208 0
M  V30 4674 H 436.884 -3.92636 -2.8929 0
M  V30 4675 H 435.889 -5.38511 -1.1084 0
M  V30 4676 H 437.114 -6.6361 -1.44215 0
M  V30 4677 H 435.06 -5.59259 -3.42878 0
M  V30 4678 H 434.977 -7.10427 -2.58515 0
M  V30 4679 H 436.245 -6.83704 -3.74391 0
M  V30 4680 N 440.474 -0.00167713 -1.576 0
M  V30 4681 C 441.384 1.00548 -2.1196 0
M  V30 4682 C 442.4 1.3758 -1.06526 0
M  V30 4683 O 443.576 1.46278 -1.38436 0
M  V30 4684 C 440.641 2.27809 -2.6135 0
M  V30 4685 C 439.702 1.97074 -3.81393 0
M  V30 4686 C 438.935 3.18267 -4.28417 0
M  V30 4687 O 439.158 4.30009 -3.74765 0
M  V30 4688 O 438.092 3.02167 -5.20556 0
M  V30 4689 H 441.918 0.573373 -2.98238 0
M  V30 4690 H 439.503 0.217255 -1.47812 0
M  V30 4691 H 441.385 3.02568 -2.93309 0
M  V30 4692 H 440.06 2.70254 -1.78169 0
M  V30 4693 H 438.967 1.19785 -3.54404 0
M  V30 4694 H 440.3 1.59464 -4.65652 0
M  V30 4695 N 441.952 1.55251 0.271103 0
M  V30 4696 C 443.363 1.66635 0.842007 0
M  V30 4697 C 443.714 0.594631 1.86972 0
M  V30 4698 O 442.839 -0.263532 2.14789 0
M  V30 4699 C 443.434 3.02082 1.53401 0
M  V30 4700 C 441.993 3.15487 2.05293 0
M  V30 4701 C 441.14 2.62438 0.895631 0
M  V30 4702 H 444.091 1.58629 0.0474117 0
M  V30 4703 H 444.112 2.95176 2.40107 0
M  V30 4704 H 443.624 3.80062 0.785786 0
M  V30 4705 H 441.725 2.42284 2.83071 0
M  V30 4706 H 441.838 4.22075 2.26693 0
M  V30 4707 H 440.202 2.19644 1.28953 0
M  V30 4708 H 440.985 3.42923 0.160878 0
M  V30 4709 N 443.43 -0.535701 1.48216 0
M  V30 4710 C 444.34 -1.66785 1.64985 0
M  V30 4711 C 445.356 -1.65654 0.532414 0
M  V30 4712 O 446.532 -1.8471 0.80275 0
M  V30 4713 C 443.597 -3.0326 1.68031 0
M  V30 4714 C 442.658 -3.1529 2.9136 0
M  V30 4715 C 441.891 -4.45255 2.94252 0
M  V30 4716 O 442.114 -5.32011 2.05719 0
M  V30 4717 O 441.048 -4.6153 3.86359 0
M  V30 4718 H 444.874 -1.55576 2.60825 0
M  V30 4719 H 442.459 -0.70815 1.31551 0
M  V30 4720 H 444.341 -3.84436 1.72589 0
M  V30 4721 H 443.016 -3.14805 0.753628 0
M  V30 4722 H 441.923 -2.3343 2.92337 0
M  V30 4723 H 443.256 -3.08658 3.83394 0
M  V30 4724 N 444.908 -1.36708 -0.784132 0
M  V30 4725 C 446.185 -1.21776 -1.53069 0
M  V30 4726 C 446.565 0.193876 -2.10208 0
M  V30 4727 O 445.913 1.20012 -1.94446 0
M  V30 4728 C 446.123 -2.30395 -2.62143 0
M  V30 4729 C 447.471 -2.67325 -3.29882 0
M  V30 4730 O 448.495 -2.29478 -2.7243 0
M  V30 4731 O 447.354 -3.32485 -4.33724 0
M  V30 4732 H 444.448 -0.474459 -0.677361 0
M  V30 4733 H 446.994 -1.48454 -0.82216 0
M  V30 4734 H 445.766 -3.2498 -2.17953 0
M  V30 4735 H 445.389 -2.05112 -3.40609 0
M  V30 4736 N 446.386 1.0089 -1.21074 0
M  V30 4737 C 447.616 1.77933 -1.04993 0
M  V30 4738 C 448.024 1.84847 0.403495 0
M  V30 4739 O 447.367 1.30606 1.29181 0
M  V30 4740 C 447.429 3.23541 -1.56722 0
M  V30 4741 C 447.093 3.40214 -3.05129 0
M  V30 4742 C 448.09 3.2881 -4.02716 0
M  V30 4743 C 445.775 3.65781 -3.44252 0
M  V30 4744 C 447.769 3.42732 -5.37414 0
M  V30 4745 C 445.456 3.79346 -4.79103 0
M  V30 4746 C 446.454 3.67827 -5.75493 0
M  V30 4747 O 446.142 3.80965 -7.07899 0
M  V30 4748 H 445.874 0.566157 -0.369381 0
M  V30 4749 H 448.428 1.27826 -1.60779 0
M  V30 4750 H 446.658 3.74766 -0.953285 0
M  V30 4751 H 448.347 3.82245 -1.36543 0
M  V30 4752 H 449.113 3.08986 -3.73835 0
M  V30 4753 H 444.992 3.73831 -2.69762 0
M  V30 4754 H 448.536 3.33658 -6.12632 0
M  V30 4755 H 444.433 3.98672 -5.07672 0
M  V30 4756 H 445.201 3.97937 -7.15254 0
M  V30 4757 N 447.864 1.01787 1.20321 0
M  V30 4758 C 449.28 0.732951 1.41774 0
M  V30 4759 C 449.48 -0.686883 1.89431 0
M  V30 4760 O 448.536 -1.45446 2.06402 0
M  V30 4761 C 449.849 1.75973 2.43832 0
M  V30 4762 C 451.397 1.77802 2.57596 0
M  V30 4763 C 451.872 2.7941 3.62897 0
M  V30 4764 N 453.363 2.78157 3.70382 0
M  V30 4765 C 454.098 3.53434 4.51521 0
M  V30 4766 N 453.594 4.38392 5.36455 0
M  V30 4767 N 455.387 3.42026 4.46066 0
M  V30 4768 H 447.538 1.93447 0.877035 0
M  V30 4769 H 449.801 0.835712 0.447536 0
M  V30 4770 H 449.507 2.77699 2.15815 0
M  V30 4771 H 449.381 1.57292 3.4284 0
M  V30 4772 H 451.768 0.767602 2.84942 0
M  V30 4773 H 451.849 2.00557 1.58779 0
M  V30 4774 H 451.493 3.80616 3.36295 0
M  V30 4775 H 451.423 2.53916 4.61339 0
M  V30 4776 H 453.914 2.16531 3.09714 0
M  V30 4777 H 454.227 4.92596 5.95457 0
M  V30 4778 H 452.572 4.4247 5.35953 0
M  V30 4779 H 455.763 2.75075 3.78749 0
M  V30 4780 H 455.936 4.00946 5.09064 0
M  V30 4781 N 449.342 -1.36122 0.79427 0
M  V30 4782 C 450.758 -1.5232 0.476525 0
M  V30 4783 C 450.958 -1.74685 -1.00436 0
M  V30 4784 O 450.014 -1.78115 -1.78973 0
M  V30 4785 C 451.327 -2.70607 1.31119 0
M  V30 4786 C 452.875 -2.8448 1.30537 0
M  V30 4787 C 453.35 -4.05778 2.12387 0
M  V30 4788 N 454.841 -4.12933 2.09859 0
M  V30 4789 C 455.576 -5.05876 2.69957 0
M  V30 4790 N 455.072 -6.04232 3.38934 0
M  V30 4791 N 456.865 -4.98528 2.59665 0
M  V30 4792 H 449.016 -1.1986 1.75349 0
M  V30 4793 H 451.279 -0.585418 0.745647 0
M  V30 4794 H 450.985 -2.60619 2.36158 0
M  V30 4795 H 450.859 -3.64888 0.955843 0
M  V30 4796 H 453.246 -2.93927 0.262876 0
M  V30 4797 H 453.327 -1.91093 1.70051 0
M  V30 4798 H 452.971 -3.97092 3.1667 0
M  V30 4799 H 452.901 -4.98323 1.70242 0
M  V30 4800 H 455.392 -3.42515 1.59662 0
M  V30 4801 H 455.705 -6.71724 3.82109 0
M  V30 4802 H 454.05 -6.04443 3.43036 0
M  V30 4803 H 457.241 -4.20641 2.05375 0
M  V30 4804 H 457.414 -5.70773 3.06793 0
M  V30 4805 N 450.82 -0.546701 -1.47814 0
M  V30 4806 C 452.05 -0.0232519 -2.06587 0
M  V30 4807 C 452.458 1.2712 -1.40133 0
M  V30 4808 O 451.801 1.77091 -0.488305 0
M  V30 4809 C 451.863 0.254117 -3.58601 0
M  V30 4810 C 451.527 -0.949331 -4.47031 0
M  V30 4811 C 452.524 -1.85216 -4.85789 0
M  V30 4812 C 450.209 -1.16104 -4.88697 0
M  V30 4813 C 452.203 -2.95047 -5.65001 0
M  V30 4814 C 449.89 -2.26247 -5.67676 0
M  V30 4815 C 450.888 -3.1555 -6.05737 0
M  V30 4816 O 450.576 -4.23784 -6.83127 0
M  V30 4817 H 450.308 -0.0380082 -0.674931 0
M  V30 4818 H 452.862 -0.756631 -1.90956 0
M  V30 4819 H 451.092 1.04168 -3.72406 0
M  V30 4820 H 452.781 0.72167 -3.99433 0
M  V30 4821 H 453.547 -1.70061 -4.54207 0
M  V30 4822 H 449.426 -0.475159 -4.58545 0
M  V30 4823 H 452.97 -3.64778 -5.94628 0
M  V30 4824 H 448.867 -2.41379 -5.98671 0
M  V30 4825 H 449.635 -4.21701 -7.01506 0
M  V30 4826 N 452.299 1.55045 -0.282633 0
M  V30 4827 C 453.246 2.22822 0.601566 0
M  V30 4828 C 454.216 1.20431 1.14392 0
M  V30 4829 O 455.401 1.48996 1.19184 0
M  V30 4830 C 452.541 2.95873 1.77632 0
M  V30 4831 C 451.654 4.12999 1.26711 0
M  V30 4832 C 450.789 4.73676 2.40426 0
M  V30 4833 C 449.828 5.82981 1.86545 0
M  V30 4834 N 448.965 6.3769 2.93762 0
M  V30 4835 H 453.805 2.97995 0.0169528 0
M  V30 4836 H 451.342 1.471 -0.00339964 0
M  V30 4837 H 453.3 3.36447 2.46697 0
M  V30 4838 H 451.93 2.2311 2.33285 0
M  V30 4839 H 450.982 3.77494 0.469314 0
M  V30 4840 H 452.294 4.91803 0.832518 0
M  V30 4841 H 451.448 5.17008 3.17471 0
M  V30 4842 H 450.187 3.94164 2.87203 0
M  V30 4843 H 449.192 5.39092 1.07983 0
M  V30 4844 H 450.417 6.64366 1.40694 0
M  V30 4845 H 448.363 5.61069 3.39908 0
M  V30 4846 H 448.28 7.11788 2.54744 0
M  V30 4847 H 449.548 6.8568 3.7076 0
M  V30 4848 N 453.777 0.010035 1.57597 0
M  V30 4849 C 455.026 -0.671945 1.90178 0
M  V30 4850 C 455.339 -1.74376 0.886131 0
M  V30 4851 O 456.545 -2.48107 1.10252 0
M  V30 4852 C 455.001 -1.24636 3.3763 0
M  V30 4853 C 454.609 -0.208838 4.47513 0
M  V30 4854 C 456.353 -1.90595 3.79307 0
M  V30 4855 C 454.26 -0.793814 5.86048 0
M  V30 4856 H 453.19 -0.25474 0.709665 0
M  V30 4857 H 455.841 0.0722206 1.83358 0
M  V30 4858 H 454.223 -2.04152 3.3932 0
M  V30 4859 H 455.397 0.562463 4.57354 0
M  V30 4860 H 453.712 0.350889 4.14919 0
M  V30 4861 H 456.309 -2.35284 4.80151 0
M  V30 4862 H 456.652 -2.74074 3.13352 0
M  V30 4863 H 457.185 -1.17798 3.79958 0
M  V30 4864 H 453.924 0.00240855 6.555 0
M  V30 4865 H 453.444 -1.53404 5.79851 0
M  V30 4866 H 455.123 -1.2894 6.34022 0
M  V30 4867 N 455.255 -1.55392 -0.262866 0
M  V30 4868 C 456.532 -1.67204 -1.01499 0
M  V30 4869 C 456.912 -0.545186 -2.03939 0
M  V30 4870 O 456.26 0.453467 -2.23955 0
M  V30 4871 C 456.47 -3.06847 -1.6627 0
M  V30 4872 C 457.818 -3.64928 -2.17054 0
M  V30 4873 O 458.842 -3.09545 -1.76239 0
M  V30 4874 O 457.701 -4.61984 -2.91947 0
M  V30 4875 H 454.795 -0.679467 -0.471438 0
M  V30 4876 H 457.341 -1.67729 -0.257918 0
M  V30 4877 H 456.113 -3.80309 -0.920915 0
M  V30 4878 H 455.736 -3.10266 -2.48638 0
M  V30 4879 N 456.733 0.527833 -1.48498 0
M  V30 4880 C 457.981 1.28101 -1.56316 0
M  V30 4881 C 458.302 1.9352 -0.239781 0
M  V30 4882 O 457.572 1.81433 0.738849 0
M  V30 4883 H 456.152 0.475793 -0.575873 0
M  V30 4884 H 458.814 0.614052 -1.84974 0
M  V30 4885 H 457.91 2.05916 -2.34532 0
M  V30 4886 N 458.211 1.37122 0.776871 0
M  V30 4887 C 459.121 1.34651 1.9211 0
M  V30 4888 C 460.137 0.246824 1.7224 0
M  V30 4889 O 461.313 0.48134 1.95563 0
M  V30 4890 C 458.378 1.14748 3.2716 0
M  V30 4891 C 457.439 2.34308 3.5972 0
M  V30 4892 C 456.672 2.15345 4.88326 0
M  V30 4893 O 456.895 1.13507 5.58992 0
M  V30 4894 O 455.829 3.03414 5.1983 0
M  V30 4895 H 459.655 2.31013 1.97146 0
M  V30 4896 H 457.24 1.17799 0.918901 0
M  V30 4897 H 459.122 1.05616 4.0795 0
M  V30 4898 H 457.797 0.214562 3.22988 0
M  V30 4899 H 456.704 2.49011 2.79185 0
M  V30 4900 H 458.037 3.26149 3.68629 0
M  V30 4901 N 459.689 -1.00246 1.21608 0
M  V30 4902 C 461.1 -1.55511 1.03312 0
M  V30 4903 C 461.451 -1.91946 -0.406332 0
M  V30 4904 O 460.576 -1.73753 -1.28992 0
M  V30 4905 C 461.171 -2.82576 1.86913 0
M  V30 4906 C 459.73 -3.34318 1.72941 0
M  V30 4907 C 458.877 -2.07487 1.83968 0
M  V30 4908 H 461.828 -0.824638 1.35593 0
M  V30 4909 H 461.849 -3.54559 1.38087 0
M  V30 4910 H 461.361 -2.56026 2.91672 0
M  V30 4911 H 459.462 -3.65797 0.70877 0
M  V30 4912 H 459.575 -4.05566 2.55055 0
M  V30 4913 H 457.939 -2.20603 1.27304 0
M  V30 4914 H 458.722 -1.83346 2.9024 0
M  V30 4915 N 461.167 -1.02423 -1.1978 0
M  V30 4916 C 462.414 -0.717988 -1.89344 0
M  V30 4917 C 462.742 0.753036 -1.79331 0
M  V30 4918 O 461.997 1.56355 -1.17692 0
M  V30 4919 C 462.296 -1.1088 -3.39765 0
M  V30 4920 C 461.962 -2.57731 -3.6998 0
M  V30 4921 C 460.624 -2.97854 -3.77937 0
M  V30 4922 C 462.976 -3.52763 -3.83677 0
M  V30 4923 C 460.304 -4.31931 -3.97054 0
M  V30 4924 C 462.656 -4.86538 -4.04306 0
M  V30 4925 C 461.32 -5.26356 -4.10494 0
M  V30 4926 H 460.59 -0.26273 -0.692859 0
M  V30 4927 H 463.237 -1.28623 -1.41875 0
M  V30 4928 H 461.542 -0.459094 -3.89101 0
M  V30 4929 H 463.239 -0.849432 -3.919 0
M  V30 4930 H 459.829 -2.25646 -3.64393 0
M  V30 4931 H 464.013 -3.2292 -3.76877 0
M  V30 4932 H 459.269 -4.62324 -4.00083 0
M  V30 4933 H 463.443 -5.60093 -4.13846 0
M  V30 4934 H 461.07 -6.3026 -4.2506 0
M  V30 4935 N 462.645 1.35699 -0.801477 0
M  V30 4936 C 463.555 2.33661 -0.209691 0
M  V30 4937 C 464.571 1.6162 0.644591 0
M  V30 4938 O 465.747 1.93529 0.557545 0
M  V30 4939 C 462.812 3.40816 0.636033 0
M  V30 4940 C 461.873 4.28639 -0.238147 0
M  V30 4941 C 461.106 5.30676 0.567307 0
M  V30 4942 O 461.329 5.41174 1.8024 0
M  V30 4943 O 460.263 6.01887 -0.0391336 0
M  V30 4944 H 464.089 2.8606 -1.01996 0
M  V30 4945 H 461.674 1.38379 -0.563164 0
M  V30 4946 H 463.556 4.06301 1.11791 0
M  V30 4947 H 462.231 2.90696 1.42399 0
M  V30 4948 H 461.138 3.66152 -0.767044 0
M  V30 4949 H 462.471 4.82143 -0.989915 0
M  V30 4950 N 464.123 0.554532 1.47522 0
M  V30 4951 C 465.033 -0.197865 2.33764 0
M  V30 4952 C 466.049 -0.914576 1.48025 0
M  V30 4953 O 467.225 -0.884067 1.80959 0
M  V30 4954 C 464.29 -1.21628 3.24665 0
M  V30 4955 C 463.351 -0.507283 4.26292 0
M  V30 4956 C 462.584 -1.47718 5.1285 0
M  V30 4957 O 462.807 -2.7118 5.01814 0
M  V30 4958 O 461.741 -1.00313 5.93482 0
M  V30 4959 H 465.567 0.50949 2.99396 0
M  V30 4960 H 463.152 0.315176 1.46038 0
M  V30 4961 H 465.034 -1.80421 3.80823 0
M  V30 4962 H 463.709 -1.9056 2.61665 0
M  V30 4963 H 462.616 0.121778 3.73902 0
M  V30 4964 H 463.949 0.140544 4.91999 0
M  V30 4965 N 465.601 -1.54893 0.290851 0
M  V30 4966 C 466.548 -2.23138 -0.58974 0
M  V30 4967 C 467.518 -1.21036 -1.13752 0
M  V30 4968 O 468.703 -1.49626 -1.18392 0
M  V30 4969 C 465.843 -2.96811 -1.76061 0
M  V30 4970 C 464.956 -4.13665 -1.24519 0
M  V30 4971 C 464.091 -4.74944 -2.3791 0
M  V30 4972 C 463.13 -5.83963 -1.83451 0
M  V30 4973 N 462.267 -6.39239 -2.90376 0
M  V30 4974 H 467.107 -2.98 -0.00114915 0
M  V30 4975 H 464.644 -1.47096 0.0112006 0
M  V30 4976 H 466.602 -3.37751 -2.44909 0
M  V30 4977 H 465.232 -2.24344 -2.32098 0
M  V30 4978 H 464.284 -3.77737 -0.449288 0
M  V30 4979 H 465.596 -4.92238 -0.806424 0
M  V30 4980 H 464.75 -5.18684 -3.14724 0
M  V30 4981 H 463.489 -3.95682 -2.85109 0
M  V30 4982 H 462.494 -5.39657 -1.05122 0
M  V30 4983 H 463.719 -6.65103 -1.37169 0
M  V30 4984 H 461.665 -5.62864 -3.36927 0
M  V30 4985 H 461.582 -7.13129 -2.50965 0
M  V30 4986 H 462.85 -6.87637 -3.67118 0
M  V30 4987 N 467.08 -0.0183926 -1.57589 0
M  V30 4988 C 468.305 0.676634 -1.96052 0
M  V30 4989 C 468.73 1.6548 -0.894307 0
M  V30 4990 O 468.088 1.80712 0.145849 0
M  V30 4991 C 468.136 1.36872 -3.33614 0
M  V30 4992 O 467.24 2.48372 -3.29219 0
M  V30 4993 H 466.581 0.1786 -0.63953 0
M  V30 4994 H 469.111 -0.077056 -2.04455 0
M  V30 4995 H 469.121 1.72797 -3.69601 0
M  V30 4996 H 467.796 0.651636 -4.10763 0
M  V30 4997 H 466.373 2.14639 -3.04934 0
M  V30 4998 N 468.558 1.5553 0.254621 0
M  V30 4999 C 469.488 1.9268 1.31897 0
M  V30 5000 C 470.469 0.790797 1.506 0
M  V30 5001 O 471.654 1.05045 1.63337 0
M  V30 5002 C 468.784 2.21477 2.67517 0
M  V30 5003 C 467.738 3.37256 2.63519 0
M  V30 5004 C 467.064 3.51576 4.02862 0
M  V30 5005 C 468.364 4.73157 2.21179 0
M  V30 5006 H 470.058 2.81832 1.01051 0
M  V30 5007 H 467.604 1.35599 0.484662 0
M  V30 5008 H 469.557 2.46055 3.42104 0
M  V30 5009 H 468.281 1.29144 2.99982 0
M  V30 5010 H 466.94 3.12675 1.9139 0
M  V30 5011 H 466.588 2.56676 4.32581 0
M  V30 5012 H 466.288 4.2943 4.01078 0
M  V30 5013 H 467.812 3.78467 4.79161 0
M  V30 5014 H 469.226 4.97158 2.85494 0
M  V30 5015 H 467.623 5.54058 2.30521 0
M  V30 5016 H 468.693 4.70739 1.16332 0
M  V30 5017 N 470.036 -0.519951 1.48776 0
M  V30 5018 C 470.986 -1.61995 1.60442 0
M  V30 5019 C 471.97 -1.54155 0.460991 0
M  V30 5020 O 473.162 -1.62006 0.712965 0
M  V30 5021 C 470.291 -3.00683 1.65664 0
M  V30 5022 C 469.377 -3.1359 2.8552 0
M  V30 5023 N 469.768 -2.96441 4.09825 0
M  V30 5024 C 468.066 -3.44662 2.83062 0
M  V30 5025 C 468.767 -3.1303 4.90293 0
M  V30 5026 N 467.743 -3.41058 4.23297 0
M  V30 5027 H 471.545 -1.47362 2.54287 0
M  V30 5028 H 469.059 -0.725649 1.45286 0
M  V30 5029 H 471.056 -3.79712 1.72117 0
M  V30 5030 H 469.716 -3.16401 0.729425 0
M  V30 5031 H 470.727 -2.72999 4.40104 0
M  V30 5032 H 467.404 -3.66675 1.9964 0
M  V30 5033 H 468.794 -3.04424 5.98979 0
M  V30 5034 N 471.514 -1.37532 -0.769588 0
M  V30 5035 C 472.925 -1.29382 -1.346 0
M  V30 5036 C 473.276 0.0576039 -1.96115 0
M  V30 5037 O 472.401 0.95947 -1.93967 0
M  V30 5038 C 472.996 -2.34298 -2.44724 0
M  V30 5039 C 471.555 -2.29776 -2.98128 0
M  V30 5040 C 470.702 -2.18013 -1.71364 0
M  V30 5041 H 473.653 -1.48123 -0.56968 0
M  V30 5042 H 473.674 -1.99089 -3.24259 0
M  V30 5043 H 473.186 -3.32645 -1.99922 0
M  V30 5044 H 471.287 -1.34959 -3.47299 0
M  V30 5045 H 471.4 -3.23276 -3.53595 0
M  V30 5046 H 469.764 -1.64595 -1.94372 0
M  V30 5047 H 470.547 -3.18278 -1.28662 0
M  V30 5048 N 472.992 0.995999 -1.22138 0
M  V30 5049 C 474.238 1.73767 -1.04561 0
M  V30 5050 C 474.571 1.89633 0.418698 0
M  V30 5051 O 473.846 1.43723 1.3105 0
M  V30 5052 C 474.129 3.14505 -1.75382 0
M  V30 5053 C 473.982 3.06306 -3.29388 0
M  V30 5054 C 475.301 4.13615 -1.50369 0
M  V30 5055 H 472.42 0.630728 -0.38125 0
M  V30 5056 H 475.062 1.16057 -1.50435 0
M  V30 5057 H 473.212 3.63775 -1.36383 0
M  V30 5058 H 474.884 2.64681 -3.77812 0
M  V30 5059 H 473.127 2.43186 -3.59226 0
M  V30 5060 H 473.798 4.05884 -3.74116 0
M  V30 5061 H 476.274 3.73089 -1.84239 0
M  V30 5062 H 475.15 5.10212 -2.02421 0
M  V30 5063 H 475.411 4.39949 -0.435611 0
M  V30 5064 N 474.47 1.03057 1.19235 0
M  V30 5065 C 475.718 0.726581 1.88587 0
M  V30 5066 C 476.039 -0.747227 1.80115 0
M  V30 5067 O 475.309 -1.53849 1.21274 0
M  V30 5068 H 473.889 0.265768 0.698124 0
M  V30 5069 H 476.551 1.30516 1.44746 0
M  V30 5070 H 475.647 1.0224 2.94879 0
M  V30 5071 N 475.948 -1.35272 0.808662 0
M  V30 5072 C 476.878 -2.32315 0.234981 0
M  V30 5073 C 477.859 -1.57572 -0.64071 0
M  V30 5074 O 479.044 -1.8563 -0.570551 0
M  V30 5075 C 476.174 -3.41801 -0.615601 0
M  V30 5076 C 475.128 -4.27694 0.161767 0
M  V30 5077 C 474.454 -5.28519 -0.810649 0
M  V30 5078 C 475.754 -5.04231 1.36193 0
M  V30 5079 H 477.448 -2.80543 1.04575 0
M  V30 5080 H 474.994 -1.3488 0.504315 0
M  V30 5081 H 476.947 -4.08693 -1.02702 0
M  V30 5082 H 475.671 -2.92186 -1.45928 0
M  V30 5083 H 474.33 -3.62384 0.554382 0
M  V30 5084 H 473.978 -4.75171 -1.64988 0
M  V30 5085 H 473.678 -5.8686 -0.294822 0
M  V30 5086 H 475.202 -5.98283 -1.22023 0
M  V30 5087 H 476.616 -5.64058 1.02528 0
M  V30 5088 H 475.013 -5.72077 1.81239 0
M  V30 5089 H 476.083 -4.34753 2.14751 0
M  V30 5090 N 477.426 -0.562348 -1.47226 0
M  V30 5091 C 478.675 -0.038041 -2.01664 0
M  V30 5092 C 478.988 1.32199 -1.44162 0
M  V30 5093 O 480.194 1.9365 -1.90294 0
M  V30 5094 C 478.65 -0.0174958 -3.59896 0
M  V30 5095 C 478.258 -1.3746 -4.2639 0
M  V30 5096 C 480.002 0.453934 -4.22066 0
M  V30 5097 C 477.909 -1.31289 -5.76643 0
M  V30 5098 H 476.839 -0.0104511 -0.753928 0
M  V30 5099 H 479.49 -0.710966 -1.69167 0
M  V30 5100 H 477.872 0.721182 -3.89378 0
M  V30 5101 H 479.046 -2.1314 -4.08544 0
M  V30 5102 H 477.361 -1.78438 -3.7623 0
M  V30 5103 H 479.958 0.518584 -5.32179 0
M  V30 5104 H 480.301 1.46706 -3.89594 0
M  V30 5105 H 480.834 -0.230044 -3.97134 0
M  V30 5106 H 477.573 -2.30217 -6.13743 0
M  V30 5107 H 477.093 -0.597973 -5.96812 0
M  V30 5108 H 478.772 -1.01713 -6.38955 0
M  V30 5109 N 478.904 1.54736 -0.299062 0
M  V30 5110 C 479.867 2.22127 0.565012 0
M  V30 5111 C 480.867 1.20669 1.06281 0
M  V30 5112 O 482.057 1.45417 0.959145 0
M  V30 5113 C 479.189 2.90611 1.78208 0
M  V30 5114 H 480.382 2.99891 -0.0237448 0
M  V30 5115 H 477.935 1.5622 -0.0498788 0
M  V30 5116 H 478.67 2.16921 2.41072 0
M  V30 5117 H 478.455 3.64984 1.43281 0
M  V30 5118 H 479.945 3.42026 2.396 0
M  V30 5119 N 480.382 0.0267497 1.57577 0
M  V30 5120 C 481.61 -0.662661 1.96001 0
M  V30 5121 C 482.025 -1.65799 0.903117 0
M  V30 5122 O 481.382 -1.82135 -0.115317 0
M  V30 5123 C 481.433 -1.37112 3.34488 0
M  V30 5124 O 481.154 -0.415683 4.36123 0
M  V30 5125 C 482.655 -2.15257 3.8753 0
M  V30 5126 H 479.875 -0.18287 0.6456 0
M  V30 5127 H 482.419 0.0858116 2.0432 0
M  V30 5128 H 480.574 -2.07101 3.27395 0
M  V30 5129 H 480.988 -0.918496 5.16395 0
M  V30 5130 H 482.462 -2.60285 4.86781 0
M  V30 5131 H 482.939 -2.99063 3.21649 0
M  V30 5132 H 483.545 -1.50231 3.97883 0
M  V30 5133 N 481.861 -1.55662 -0.24637 0
M  V30 5134 C 482.809 -1.91186 -1.3248 0
M  V30 5135 C 483.803 -0.790996 -1.49799 0
M  V30 5136 O 485.009 -0.975617 -1.51267 0
M  V30 5137 H 481.384 -0.607207 -0.443626 0
M  V30 5138 H 483.355 -2.81221 -0.997853 0
M  V30 5139 C 482.104 -2.22349 -2.67313 0
M  V30 5140 H 481.427 -3.08097 -2.54786 0
M  V30 5141 H 482.867 -2.51107 -3.41645 0
M  V30 5142 C 481.326 -1.04001 -3.20446 0
M  V30 5143 O 481.856 -0.28828 -4.00664 0
M  V30 5144 N 480.062 -0.830494 -2.7848 0
M  V30 5145 H 479.609 -1.4435 -2.13356 0
M  V30 5146 H 479.567 -0.0403258 -3.14374 0
M  V30 5147 N 483.339 0.512053 -1.4905 0
M  V30 5148 C 484.302 1.59704 -1.64399 0
M  V30 5149 C 485.302 1.52285 -0.516317 0
M  V30 5150 O 486.492 1.55635 -0.782527 0
M  V30 5151 C 483.624 2.9935 -1.63102 0
M  V30 5152 H 484.817 1.47428 -2.61161 0
M  V30 5153 H 482.37 0.735469 -1.37915 0
M  V30 5154 H 483.105 3.17116 -0.678836 0
M  V30 5155 H 482.89 3.06144 -2.44986 0
M  V30 5156 H 484.38 3.782 -1.77072 0
M  V30 5157 N 484.817 1.37938 0.762283 0
M  V30 5158 C 485.75 1.2884 1.88349 0
M  V30 5159 C 486.728 0.167084 1.61739 0
M  V30 5160 O 487.912 0.34292 1.85355 0
M  V30 5161 C 485.039 0.994257 3.23778 0
M  V30 5162 C 484.085 2.13376 3.69287 0
M  V30 5163 S 484.918 3.75439 3.81845 0
M  V30 5164 C 486.074 3.48195 5.20107 0
M  V30 5165 H 486.307 2.23736 1.95779 0
M  V30 5166 H 483.84 1.23672 0.924368 0
M  V30 5167 H 485.798 0.83138 4.01993 0
M  V30 5168 H 484.459 0.0626251 3.14038 0
M  V30 5169 H 483.652 1.88319 4.67495 0
M  V30 5170 H 483.254 2.25726 2.98201 0
M  V30 5171 H 485.546 3.0377 6.05583 0
M  V30 5172 H 486.489 4.45765 5.50181 0
M  V30 5173 H 486.897 2.82905 4.88493 0
M  V30 5174 N 486.295 -0.989507 1.22664 0
M  V30 5175 C 487.543 -1.72612 1.05117 0
M  V30 5176 C 487.864 -1.90552 -0.414131 0
M  V30 5177 O 487.134 -1.4676 -1.29762 0
M  V30 5178 H 485.714 -0.639555 0.385977 0
M  V30 5179 H 488.376 -1.19158 1.54232 0
M  V30 5180 H 487.472 -2.71926 1.53175 0
M  V30 5181 N 487.773 -1.03688 -1.18687 0
M  V30 5182 C 488.998 -0.757819 -1.93059 0
M  V30 5183 C 489.423 0.678353 -1.75442 0
M  V30 5184 O 488.781 1.46938 -1.06203 0
M  V30 5185 C 488.829 -1.12423 -3.42627 0
M  V30 5186 O 487.933 -0.247505 -4.11657 0
M  V30 5187 H 487.274 -0.279245 -0.602427 0
M  V30 5188 H 489.804 -1.3857 -1.5053 0
M  V30 5189 H 489.814 -1.08454 -3.93322 0
M  V30 5190 H 488.489 -2.17049 -3.54771 0
M  V30 5191 H 487.066 -0.34649 -3.71287 0
M  V30 5192 N 489.251 1.34841 -0.815825 0
M  V30 5193 C 490.181 2.32187 -0.247298 0
M  V30 5194 C 491.162 1.5791 0.632344 0
M  V30 5195 O 492.347 1.8593 0.560698 0
M  V30 5196 C 489.477 3.42122 0.597466 0
M  V30 5197 C 488.431 4.27602 -0.184446 0
M  V30 5198 C 487.757 5.28942 0.782609 0
M  V30 5199 C 489.057 5.03502 -1.38865 0
M  V30 5200 H 490.751 2.79985 -1.06061 0
M  V30 5201 H 488.297 1.34611 -0.511461 0
M  V30 5202 H 490.25 4.09232 1.00533 0
M  V30 5203 H 488.974 2.92956 1.44376 0
M  V30 5204 H 487.633 3.62085 -0.573592 0
M  V30 5205 H 487.281 4.7604 1.62466 0
M  V30 5206 H 486.981 5.87008 0.263695 0
M  V30 5207 H 488.505 5.98922 1.18848 0
M  V30 5208 H 489.919 5.63506 -1.05518 0
M  V30 5209 H 488.316 5.71108 -1.8427 0
M  V30 5210 H 489.386 4.33608 -2.17054 0
M  V30 5211 N 490.729 0.570148 1.46925 0
M  V30 5212 C 491.692 -0.159933 2.28641 0
M  V30 5213 C 492.692 -0.830638 1.37685 0
M  V30 5214 O 493.882 -0.684516 1.60187 0
M  V30 5215 C 491.014 -1.2354 3.17727 0
M  V30 5216 H 492.207 0.558035 2.94662 0
M  V30 5217 H 489.76 0.327603 1.52828 0
M  V30 5218 H 490.495 -1.98535 2.56426 0
M  V30 5219 H 490.28 -0.759125 3.84681 0
M  V30 5220 H 491.77 -1.74782 3.79264 0
M  V30 5221 N 492.207 -1.54576 0.307264 0
M  V30 5222 C 493.432 -2.05139 -0.305379 0
M  V30 5223 C 493.857 -1.18278 -1.46259 0
M  V30 5224 O 493.215 -0.188243 -1.8032 0
M  V30 5225 C 493.263 -3.53066 -0.733283 0
M  V30 5226 O 492.367 -3.69206 -1.83741 0
M  V30 5227 H 491.708 -0.661444 -0.0582105 0
M  V30 5228 H 494.238 -1.99569 0.450931 0
M  V30 5229 H 494.248 -3.95034 -1.02039 0
M  V30 5230 H 492.923 -4.15746 0.113198 0
M  V30 5231 H 491.5 -3.39143 -1.55037 0
M  V30 5232 N 493.685 -0.035106 -1.57561 0
M  V30 5233 C 494.931 0.64318 -1.92331 0
M  V30 5234 C 495.264 1.71434 -0.912368 0
M  V30 5235 O 494.539 1.94395 0.0640303 0
M  V30 5236 C 494.822 1.25411 -3.37556 0
M  V30 5237 C 494.675 0.192109 -4.4939 0
M  V30 5238 C 495.994 2.17041 -3.82859 0
M  V30 5239 H 493.113 0.232341 -0.699419 0
M  V30 5240 H 495.755 -0.0935889 -1.89769 0
M  V30 5241 H 493.905 1.88205 -3.39869 0
M  V30 5242 H 495.577 -0.438849 -4.59208 0
M  V30 5243 H 493.82 -0.481725 -4.31117 0
M  V30 5244 H 494.491 0.659292 -5.48049 0
M  V30 5245 H 496.967 1.64228 -3.8232 0
M  V30 5246 H 495.843 2.56738 -4.85157 0
M  V30 5247 H 496.104 3.06401 -3.18702 0
M  V30 5248 N 495.163 1.55791 0.238111 0
M  V30 5249 C 496.44 1.68798 0.98826 0
M  V30 5250 C 496.82 0.577562 2.03045 0
M  V30 5251 O 496.168 -0.41778 2.24648 0
M  V30 5252 C 496.378 3.09454 1.61367 0
M  V30 5253 C 497.726 3.68335 2.11221 0
M  V30 5254 O 498.75 3.1231 1.71292 0
M  V30 5255 O 497.609 4.6657 2.84561 0
M  V30 5256 H 494.703 0.686881 0.460568 0
M  V30 5257 H 497.249 1.68118 0.231202 0
M  V30 5258 H 496.021 3.81726 0.860295 0
M  V30 5259 H 495.644 3.14182 2.4367 0
M  V30 5260 N 496.642 -0.504142 1.49319 0
M  V30 5261 C 497.89 -1.25598 1.58334 0
M  V30 5262 C 498.211 -1.93114 0.270538 0
M  V30 5263 O 497.481 -1.82585 -0.709891 0
M  V30 5264 H 496.061 -0.466571 0.58337 0
M  V30 5265 H 498.723 -0.584547 1.85928 0
M  V30 5266 H 497.819 -2.02159 2.37778 0
M  V30 5267 N 498.12 -1.38341 -0.754957 0
M  V30 5268 C 499.531 -1.30803 -1.3322 0
M  V30 5269 C 499.882 0.0368 -1.96165 0
M  V30 5270 O 499.007 0.938844 -1.94974 0
M  V30 5271 C 499.602 -2.3688 -2.42225 0
M  V30 5272 C 498.161 -2.32925 -2.95674 0
M  V30 5273 C 497.308 -2.19819 -1.69042 0
M  V30 5274 H 500.259 -1.48719 -0.553937 0
M  V30 5275 H 500.28 -2.02517 -3.22129 0
M  V30 5276 H 499.792 -3.34747 -1.96383 0
M  V30 5277 H 497.893 -1.38635 -3.45848 0
M  V30 5278 H 498.006 -3.27008 -3.50146 0
M  V30 5279 H 496.37 -1.66648 -1.92615 0
M  V30 5280 H 497.153 -3.19625 -1.25279 0
M  V30 5281 N 499.598 0.982988 -1.23187 0
M  V30 5282 C 500.828 1.75666 -1.08743 0
M  V30 5283 C 501.236 1.85662 0.364195 0
M  V30 5284 O 500.579 1.33317 1.26382 0
M  V30 5285 C 500.641 3.20144 -1.63549 0
M  V30 5286 C 500.305 3.33665 -3.12277 0
M  V30 5287 C 501.302 3.20194 -4.096 0
M  V30 5288 C 498.987 3.58397 -3.51933 0
M  V30 5289 C 500.981 3.31256 -5.44563 0
M  V30 5290 C 498.668 3.69098 -4.87042 0
M  V30 5291 C 499.666 3.55537 -5.83166 0
M  V30 5292 O 499.354 3.65864 -7.1582 0
M  V30 5293 H 499.086 0.558194 -0.381307 0
M  V30 5294 H 501.64 1.24387 -1.63454 0
M  V30 5295 H 499.87 3.72659 -1.03256 0
M  V30 5296 H 501.559 3.79262 -1.4462 0
M  V30 5297 H 502.325 3.00987 -3.80305 0
M  V30 5298 H 498.204 3.68025 -2.77631 0
M  V30 5299 H 501.748 3.20588 -6.19572 0
M  V30 5300 H 497.645 3.87814 -5.16014 0
M  V30 5301 H 498.413 3.82675 -7.23534 0
M  V30 5302 N 501.076 1.04316 1.18135 0
M  V30 5303 C 502.039 0.640794 2.2006 0
M  V30 5304 C 503.039 -0.303124 1.57917 0
M  V30 5305 O 504.229 -0.0881855 1.73977 0
M  V30 5306 C 501.361 -0.060148 3.40847 0
M  V30 5307 H 502.554 1.54281 2.57172 0
M  V30 5308 H 500.107 0.836004 1.32063 0
M  V30 5309 H 500.842 -0.975845 3.0927 0
M  V30 5310 H 500.627 0.618319 3.87194 0
M  V30 5311 H 502.117 -0.328082 4.16309 0
M  V30 5312 N 502.554 -1.34406 0.822964 0
M  V30 5313 C 503.501 -2.29519 0.24284 0
M  V30 5314 C 504.471 -1.5359 -0.632397 0
M  V30 5315 O 505.656 -1.8196 -0.57403 0
M  V30 5316 C 502.796 -3.40032 -0.58925 0
M  V30 5317 C 501.909 -4.30899 0.308236 0
M  V30 5318 C 501.044 -5.28515 -0.533425 0
M  V30 5319 C 500.083 -6.1102 0.363444 0
M  V30 5320 N 499.22 -7.00725 -0.439147 0
M  V30 5321 H 504.06 -2.78537 1.05929 0
M  V30 5322 H 501.597 -1.3707 0.533872 0
M  V30 5323 H 503.555 -4.0279 -1.087 0
M  V30 5324 H 502.185 -2.92248 -1.37081 0
M  V30 5325 H 501.237 -3.69002 0.924203 0
M  V30 5326 H 502.549 -4.88717 0.997862 0
M  V30 5327 H 501.703 -5.96725 -1.09565 0
M  V30 5328 H 500.442 -4.71235 -1.25656 0
M  V30 5329 H 499.447 -5.41743 0.937812 0
M  V30 5330 H 500.672 -6.70381 1.08469 0
M  V30 5331 H 498.618 -6.45913 -1.14595 0
M  V30 5332 H 498.535 -7.55756 0.19209 0
M  V30 5333 H 499.803 -7.73263 -0.984124 0
M  V30 5334 N 504.032 -0.577932 -1.46621 0
M  V30 5335 C 504.995 0.147805 -2.28723 0
M  V30 5336 C 505.995 0.823325 -1.38123 0
M  V30 5337 O 507.185 0.676011 -1.60548 0
M  V30 5338 C 504.317 1.21853 -3.18378 0
M  V30 5339 H 505.51 -0.573654 -2.94362 0
M  V30 5340 H 503.063 -0.335703 -1.52652 0
M  V30 5341 H 503.798 1.97173 -2.57475 0
M  V30 5342 H 503.583 0.738714 -3.85078 0
M  V30 5343 H 505.073 1.72768 -3.80186 0
M  V30 5344 N 505.51 1.54411 -0.315457 0
M  V30 5345 C 506.458 2.25514 0.569771 0
M  V30 5346 C 507.452 1.2663 1.12522 0
M  V30 5347 O 508.658 1.44434 1.07419 0
M  V30 5348 H 505.033 0.724257 0.202376 0
M  V30 5349 H 507.004 2.98354 -0.0522895 0
M  V30 5350 C 505.753 3.02004 1.72305 0
M  V30 5351 H 505.076 3.77906 1.30488 0
M  V30 5352 H 506.516 3.55014 2.31821 0
M  V30 5353 C 504.975 2.09822 2.63583 0
M  V30 5354 O 505.505 1.67574 3.65078 0
M  V30 5355 N 503.711 1.75478 2.31637 0
M  V30 5356 H 503.258 2.10032 1.49145 0
M  V30 5357 H 503.216 1.14079 2.92973 0
M  V30 5358 N 506.988 0.0434614 1.5754 0
M  V30 5359 C 508.234 -0.632971 1.92669 0
M  V30 5360 C 508.567 -1.70947 0.921446 0
M  V30 5361 O 507.842 -1.94426 -0.0537202 0
M  V30 5362 C 508.125 -1.23619 3.38216 0
M  V30 5363 C 507.978 -0.168274 4.49485 0
M  V30 5364 C 509.297 -2.15008 3.84005 0
M  V30 5365 H 506.416 -0.228629 0.700641 0
M  V30 5366 H 509.058 0.103651 1.89717 0
M  V30 5367 H 507.208 -1.864 3.40863 0
M  V30 5368 H 508.88 0.463196 4.58969 0
M  V30 5369 H 507.123 0.504581 4.30855 0
M  V30 5370 H 507.794 -0.630218 5.48391 0
M  V30 5371 H 510.27 -1.62198 3.83185 0
M  V30 5372 H 509.146 -2.54161 4.86511 0
M  V30 5373 H 509.407 -3.04707 3.20322 0
M  V30 5374 N 508.466 -1.55915 -0.229846 0
M  V30 5375 C 509.743 -1.6932 -0.979295 0
M  V30 5376 C 510.123 -0.588321 -2.02736 0
M  V30 5377 O 509.471 0.40586 -2.24867 0
M  V30 5378 C 509.681 -3.10305 -1.59724 0
M  V30 5379 C 511.029 -3.6945 -2.09264 0
M  V30 5380 O 512.053 -3.13214 -1.69633 0
M  V30 5381 O 510.912 -4.68072 -2.82082 0
M  V30 5382 H 508.006 -0.689314 -0.456919 0
M  V30 5383 H 510.552 -1.68238 -0.222283 0
M  V30 5384 H 509.324 -3.82177 -0.840039 0
M  V30 5385 H 508.947 -3.1547 -2.42001 0
M  V30 5386 N 509.944 0.496216 -1.49584 0
M  V30 5387 C 510.874 1.60576 -1.69521 0
M  V30 5388 C 511.855 1.61169 -0.543933 0
M  V30 5389 O 513.04 1.77834 -0.78031 0
M  V30 5390 C 510.17 2.99038 -1.76616 0
M  V30 5391 C 509.124 3.13312 -2.91581 0
M  V30 5392 C 508.45 4.53172 -2.83794 0
M  V30 5393 C 509.75 2.92886 -4.32452 0
M  V30 5394 H 511.444 1.44146 -2.62416 0
M  V30 5395 H 508.99 0.692024 -1.26282 0
M  V30 5396 H 510.943 3.76564 -1.8915 0
M  V30 5397 H 509.667 3.16568 -0.80324 0
M  V30 5398 H 508.326 2.38213 -2.78658 0
M  V30 5399 H 507.974 4.67585 -1.854 0
M  V30 5400 H 507.674 4.63662 -3.60958 0
M  V30 5401 H 509.198 5.32752 -2.98342 0
M  V30 5402 H 510.612 3.60178 -4.46032 0
M  V30 5403 H 509.009 3.14844 -5.10875 0
M  V30 5404 H 510.079 1.88966 -4.46565 0
M  V30 5405 N 511.423 1.38739 0.74761 0
M  V30 5406 C 512.67 1.35274 1.50689 0
M  V30 5407 C 512.998 -0.0553359 1.94421 0
M  V30 5408 O 512.253 -1.03365 1.66175 0
M  V30 5409 C 512.552 2.25992 2.7688 0
M  V30 5410 C 512.218 3.73854 2.5208 0
M  V30 5411 C 510.88 4.14145 2.45025 0
M  V30 5412 C 513.232 4.67427 2.30568 0
M  V30 5413 C 510.56 5.4609 2.14483 0
M  V30 5414 C 512.912 5.99635 2.01545 0
M  V30 5415 C 511.576 6.39004 1.92951 0
M  V30 5416 H 510.846 0.495003 0.55141 0
M  V30 5417 H 513.493 1.71145 0.859158 0
M  V30 5418 H 511.798 1.83196 3.46333 0
M  V30 5419 H 513.495 2.20611 3.34861 0
M  V30 5420 H 510.085 3.41913 2.58444 0
M  V30 5421 H 514.269 4.3714 2.34994 0
M  V30 5422 H 509.525 5.75528 2.06342 0
M  V30 5423 H 513.699 6.71678 1.83906 0
M  V30 5424 H 511.326 7.41165 1.6905 0
M  V30 5425 N 512.901 -0.976442 1.23707 0
M  V30 5426 C 514.147 -1.72158 1.08319 0
M  V30 5427 C 514.502 -1.88701 -0.375445 0
M  V30 5428 O 513.795 -1.43107 -1.274 0
M  V30 5429 C 513.989 -3.11814 1.74662 0
M  V30 5430 C 513.818 -3.08892 3.26827 0
M  V30 5431 C 512.588 -3.13861 3.96004 0
M  V30 5432 C 514.786 -2.9175 4.2354 0
M  V30 5433 N 512.768 -3.00867 5.35119 0
M  V30 5434 C 514.139 -2.8696 5.49595 0
M  V30 5435 C 516.194 -2.76265 4.14225 0
M  V30 5436 C 514.897 -2.68268 6.67401 0
M  V30 5437 C 516.923 -2.58938 5.317 0
M  V30 5438 C 516.285 -2.54849 6.56682 0
M  V30 5439 H 512.384 -0.638896 0.450927 0
M  V30 5440 H 514.968 -1.15835 1.56494 0
M  V30 5441 H 513.139 -3.66347 1.29014 0
M  V30 5442 H 514.871 -3.74984 1.52215 0
M  V30 5443 H 511.626 -3.22198 3.4711 0
M  V30 5444 H 512.05 -2.97634 6.08065 0
M  V30 5445 H 516.692 -2.78213 3.18366 0
M  V30 5446 H 514.41 -2.65063 7.63392 0
M  V30 5447 H 517.996 -2.47914 5.26336 0
M  V30 5448 H 516.876 -2.41611 7.46052 0
M  V30 5449 N 514.379 -1.04941 -1.1758 0
M  V30 5450 C 515.327 -0.64204 -2.23563 0
M  V30 5451 C 516.321 0.335453 -1.66045 0
M  V30 5452 O 517.527 0.20179 -1.78865 0
M  V30 5453 H 513.902 -0.18944 -0.727748 0
M  V30 5454 H 515.873 -1.54609 -2.55223 0
M  V30 5455 C 514.622 -0.0301051 -3.47687 0
M  V30 5456 H 513.945 -0.773339 -3.92249 0
M  V30 5457 H 515.385 0.217592 -4.23441 0
M  V30 5458 C 513.844 1.2225 -3.13937 0
M  V30 5459 O 514.374 2.3122 -3.28482 0
M  V30 5460 N 512.58 1.11917 -2.68185 0
M  V30 5461 H 512.127 0.232403 -2.5655 0
M  V30 5462 H 512.085 1.95814 -2.45976 0
M  V30 5463 N 515.857 1.33968 -0.830081 0
M  V30 5464 C 517.085 2.0228 -0.434773 0
M  V30 5465 C 517.5 1.62487 0.961419 0
M  V30 5466 O 516.857 0.833849 1.62337 0
M  V30 5467 C 516.908 3.5751 -0.535625 0
M  V30 5468 O 516.629 3.95864 -1.87679 0
M  V30 5469 C 518.13 4.43091 -0.136137 0
M  V30 5470 H 515.35 0.648151 -0.173613 0
M  V30 5471 H 517.894 1.71089 -1.12022 0
M  V30 5472 H 516.049 3.87266 0.101817 0
M  V30 5473 H 516.463 4.9056 -1.85609 0
M  V30 5474 H 517.937 5.51398 -0.257772 0
M  V30 5475 H 518.414 4.29433 0.921076 0
M  V30 5476 H 519.02 4.18677 -0.747662 0
M  V30 5477 N 517.335 0.585699 1.46312 0
M  V30 5478 C 518.746 0.159938 1.86014 0
M  V30 5479 C 519.097 -1.27775 1.48889 0
M  V30 5480 O 518.222 -1.96559 0.90519 0
M  V30 5481 C 518.817 0.283485 3.37612 0
M  V30 5482 C 517.376 -0.0874256 3.76298 0
M  V30 5483 C 516.523 0.618055 2.70325 0
M  V30 5484 H 519.474 0.793737 1.37425 0
M  V30 5485 H 519.495 -0.490348 3.77327 0
M  V30 5486 H 519.007 1.32995 3.64601 0
M  V30 5487 H 517.108 -1.13391 3.54927 0
M  V30 5488 H 517.221 0.290975 4.78216 0
M  V30 5489 H 515.585 0.057993 2.54634 0
M  V30 5490 H 516.368 1.66623 3.00153 0
M  V30 5491 N 518.813 -1.54241 0.323641 0
M  V30 5492 C 520.059 -2.00867 -0.279323 0
M  V30 5493 C 520.392 -1.21146 -1.5178 0
M  V30 5494 O 519.667 -0.29378 -1.92269 0
M  V30 5495 C 519.95 -3.54837 -0.613387 0
M  V30 5496 C 519.803 -4.45284 0.635803 0
M  V30 5497 C 521.122 -4.16186 -1.43099 0
M  V30 5498 H 518.241 -0.730177 -0.100049 0
M  V30 5499 H 520.883 -1.84829 0.440235 0
M  V30 5500 H 519.033 -3.68634 -1.22641 0
M  V30 5501 H 520.705 -4.43357 1.27406 0
M  V30 5502 H 518.948 -4.14956 1.26466 0
M  V30 5503 H 519.619 -5.5084 0.357597 0
M  V30 5504 H 522.095 -4.05964 -0.912814 0
M  V30 5505 H 520.971 -5.24031 -1.6335 0
M  V30 5506 H 521.232 -3.69516 -2.42715 0
M  V30 5507 N 520.291 -0.0518155 -1.57515 0
M  V30 5508 C 521.707 0.304735 -1.56664 0
M  V30 5509 C 521.907 1.71395 -1.05953 0
M  V30 5510 O 520.963 2.42123 -0.716414 0
M  V30 5511 C 522.276 0.132614 -3.00407 0
M  V30 5512 C 523.824 0.20367 -3.12337 0
M  V30 5513 C 524.299 0.0600706 -4.57961 0
M  V30 5514 N 525.79 0.116326 -4.63054 0
M  V30 5515 C 526.525 0.0293363 -5.73392 0
M  V30 5516 N 526.021 -0.110038 -6.92713 0
M  V30 5517 N 527.814 0.0849651 -5.62036 0
M  V30 5518 H 519.965 -0.973056 -1.888 0
M  V30 5519 H 522.228 -0.377781 -0.869474 0
M  V30 5520 H 521.934 -0.839019 -3.41546 0
M  V30 5521 H 521.808 0.893376 -3.66468 0
M  V30 5522 H 524.195 1.16578 -2.71097 0
M  V30 5523 H 524.276 -0.587857 -2.48954 0
M  V30 5524 H 523.92 -0.898715 -4.99886 0
M  V30 5525 H 523.85 0.87075 -5.19351 0
M  V30 5526 H 526.341 0.22327 -3.7724 0
M  V30 5527 H 526.654 -0.169104 -7.72615 0
M  V30 5528 H 524.999 -0.145132 -6.94848 0
M  V30 5529 H 528.19 0.192411 -4.67704 0
M  V30 5530 H 528.363 0.0137131 -6.47999 0
M  V30 5531 N 521.769 1.56035 0.221574 0
M  V30 5532 C 522.997 1.8313 0.962864 0
M  V30 5533 C 523.412 0.630934 1.77946 0
M  V30 5534 O 522.769 -0.400519 1.78051 0
M  V30 5535 C 522.82 3.08742 1.88045 0
M  V30 5536 O 522.541 4.24147 1.09686 0
M  V30 5537 C 524.042 3.48824 2.73563 0
M  V30 5538 H 521.262 0.608775 0.282194 0
M  V30 5539 H 523.806 2.03124 0.23681 0
M  V30 5540 H 521.961 2.90723 2.56045 0
M  V30 5541 H 522.375 4.95505 1.71974 0
M  V30 5542 H 523.849 4.39752 3.3365 0
M  V30 5543 H 524.326 2.70575 3.45956 0
M  V30 5544 H 524.932 3.69282 2.10976 0
M  V30 5545 N 523.247 -0.488276 1.49845 0
M  V30 5546 C 524.495 -1.23911 1.59657 0
M  V30 5547 C 524.816 -1.92816 0.291005 0
M  V30 5548 O 524.086 -1.83328 -0.690485 0
M  V30 5549 H 522.666 -0.460357 0.588286 0
M  V30 5550 H 525.328 -0.564794 1.86537 0
M  V30 5551 H 524.424 -1.99625 2.39909 0
M  V30 5552 N 524.725 -1.39134 -0.740242 0
M  V30 5553 C 525.673 -1.3757 -1.87556 0
M  V30 5554 C 526.667 -0.259593 -1.67399 0
M  V30 5555 O 527.873 -0.429349 -1.74804 0
M  V30 5556 H 524.248 -0.42947 -0.6173 0
M  V30 5557 H 526.219 -2.33345 -1.85991 0
M  V30 5558 C 524.968 -1.23087 -3.25184 0
M  V30 5559 H 524.291 -2.08237 -3.41288 0
M  V30 5560 H 525.731 -1.26049 -4.0483 0
M  V30 5561 C 524.19 0.0611471 -3.36845 0
M  V30 5562 O 524.72 1.03328 -3.88183 0
M  V30 5563 N 522.926 0.122454 -2.90342 0
M  V30 5564 H 522.473 -0.669329 -2.48752 0
M  V30 5565 H 522.431 0.986463 -2.98523 0
M  V30 5566 N 526.204 0.969867 -1.24223 0
M  V30 5567 C 527.62 1.23809 -1.00716 0
M  V30 5568 C 527.82 1.99469 0.285358 0
M  V30 5569 O 526.876 2.31764 1.00207 0
M  V30 5570 C 528.189 2.02734 -2.2208 0
M  V30 5571 C 529.737 2.15834 -2.26681 0
M  V30 5572 C 530.212 2.98154 -3.47661 0
M  V30 5573 N 531.703 3.05737 -3.47964 0
M  V30 5574 C 532.438 3.69785 -4.38231 0
M  V30 5575 N 531.934 4.35569 -5.3875 0
M  V30 5576 N 533.727 3.66775 -4.25949 0
M  V30 5577 H 525.878 0.463294 -2.07286 0
M  V30 5578 H 528.141 0.267348 -0.909521 0
M  V30 5579 H 527.847 1.54524 -3.15935 0
M  V30 5580 H 527.721 3.0347 -2.24021 0
M  V30 5581 H 530.108 2.63248 -1.33359 0
M  V30 5582 H 530.189 1.14453 -2.28767 0
M  V30 5583 H 529.833 2.51435 -4.41297 0
M  V30 5584 H 529.763 3.99729 -3.42818 0
M  V30 5585 H 532.254 2.58941 -2.75242 0
M  V30 5586 H 532.567 4.82251 -6.03866 0
M  V30 5587 H 530.912 4.34244 -5.42639 0
M  V30 5588 H 534.103 3.14558 -3.46657 0
M  V30 5589 H 534.276 4.16407 -4.96497 0
M  V30 5590 N 527.682 1.05563 1.17022 0
M  V30 5591 C 529.098 0.777684 1.39371 0
M  V30 5592 C 529.298 -0.626269 1.91521 0
M  V30 5593 O 528.354 -1.38806 2.10924 0
M  V30 5594 C 529.667 1.83642 2.3811 0
M  V30 5595 C 531.215 1.85907 2.51809 0
M  V30 5596 C 531.69 2.90813 3.53824 0
M  V30 5597 N 533.181 2.898 3.61345 0
M  V30 5598 C 533.916 3.6762 4.40049 0
M  V30 5599 N 533.412 4.55237 5.22237 0
M  V30 5600 N 535.205 3.56044 4.34959 0
M  V30 5601 H 527.356 1.9614 0.815047 0
M  V30 5602 H 529.619 0.849527 0.420722 0
M  V30 5603 H 529.325 2.84425 2.06871 0
M  V30 5604 H 529.199 1.6812 3.37662 0
M  V30 5605 H 531.586 0.857865 2.82356 0
M  V30 5606 H 531.667 2.05506 1.52318 0
M  V30 5607 H 531.311 3.91122 3.24015 0
M  V30 5608 H 531.241 2.68465 4.53028 0
M  V30 5609 H 533.732 2.26274 3.02669 0
M  V30 5610 H 534.045 5.11291 5.79484 0
M  V30 5611 H 532.39 4.59296 5.21605 0
M  V30 5612 H 535.581 2.86986 3.69806 0
M  V30 5613 H 535.754 4.16938 4.96051 0
M  V30 5614 N 529.16 -1.33526 0.837174 0
M  V30 5615 C 530.39 -2.01754 0.444848 0
M  V30 5616 C 530.798 -1.63149 -0.958072 0
M  V30 5617 O 530.141 -0.839827 -1.63379 0
M  V30 5618 C 530.203 -3.56228 0.483917 0
M  V30 5619 C 529.867 -4.18205 1.84265 0
M  V30 5620 C 530.864 -4.37699 2.80563 0
M  V30 5621 C 528.549 -4.54667 2.13503 0
M  V30 5622 C 530.543 -4.928 4.04261 0
M  V30 5623 C 528.23 -5.09475 3.37458 0
M  V30 5624 C 529.228 -5.28488 4.32654 0
M  V30 5625 O 528.916 -5.82132 5.54417 0
M  V30 5626 H 528.648 -0.652928 0.175104 0
M  V30 5627 H 531.202 -1.71469 1.13082 0
M  V30 5628 H 529.432 -3.85833 -0.258826 0
M  V30 5629 H 531.121 -4.05752 0.109653 0
M  V30 5630 H 531.887 -4.0988 2.59274 0
M  V30 5631 H 527.766 -4.39164 1.40201 0
M  V30 5632 H 531.31 -5.07555 4.78574 0
M  V30 5633 H 527.207 -5.36725 3.58604 0
M  V30 5634 H 527.975 -6.00548 5.56133 0
M  V30 5635 N 530.638 -0.59345 -1.46 0
M  V30 5636 C 531.868 -0.0889642 -2.06408 0
M  V30 5637 C 532.276 1.22597 -1.44106 0
M  V30 5638 O 531.619 1.75448 -0.544398 0
M  V30 5639 C 531.681 0.139902 -3.59228 0
M  V30 5640 C 531.345 -1.09107 -4.43784 0
M  V30 5641 C 532.342 -2.00577 -4.79651 0
M  V30 5642 C 530.027 -1.31593 -4.84756 0
M  V30 5643 C 532.021 -3.12873 -5.55328 0
M  V30 5644 C 529.708 -2.44192 -5.60191 0
M  V30 5645 C 530.706 -3.34661 -5.95392 0
M  V30 5646 O 530.394 -4.45302 -6.69299 0
M  V30 5647 H 530.126 -0.0594613 -0.67338 0
M  V30 5648 H 532.68 -0.817 -1.88452 0
M  V30 5649 H 530.91 0.922672 -3.75531 0
M  V30 5650 H 532.599 0.594228 -4.01527 0
M  V30 5651 H 533.365 -1.84425 -4.48567 0
M  V30 5652 H 529.244 -0.620801 -4.56801 0
M  V30 5653 H 532.788 -3.83511 -5.82722 0
M  V30 5654 H 528.685 -2.60303 -5.90688 0
M  V30 5655 H 529.453 -4.43805 -6.87735 0
M  V30 5656 N 532.116 1.54067 -0.331816 0
M  V30 5657 C 533.393 1.92915 0.322955 0
M  V30 5658 C 533.773 1.26225 1.69205 0
M  V30 5659 O 533.121 0.408919 2.24811 0
M  V30 5660 C 533.331 3.46619 0.406946 0
M  V30 5661 C 534.679 4.19386 0.663339 0
M  V30 5662 O 535.703 3.5282 0.489536 0
M  V30 5663 O 534.562 5.37288 0.999193 0
M  V30 5664 H 531.656 0.805808 0.186016 0
M  V30 5665 H 534.202 1.65342 -0.382135 0
M  V30 5666 H 532.974 3.87354 -0.554287 0
M  V30 5667 H 532.597 3.80324 1.15929 0
M  V30 5668 N 533.594 0.0601682 1.57485 0
M  V30 5669 C 534.542 -0.928899 2.13247 0
M  V30 5670 C 535.536 -1.31616 1.06647 0
M  V30 5671 O 536.742 -1.29476 1.25043 0
M  V30 5672 H 533.117 -0.317455 0.681708 0
M  V30 5673 H 535.088 -0.433566 2.95233 0
M  V30 5674 C 533.837 -2.19121 2.69965 0
M  V30 5675 H 533.16 -1.90204 3.51657 0
M  V30 5676 H 534.6 -2.86465 3.12592 0
M  V30 5677 C 533.059 -2.94195 1.64168 0
M  V30 5678 O 533.589 -3.87468 1.05978 0
M  V30 5679 N 531.795 -2.57089 1.35476 0
M  V30 5680 H 531.342 -1.81314 1.82984 0
M  V30 5681 H 531.3 -3.07624 0.649196 0
M  V30 5682 N 535.072 -1.5615 -0.213296 0
M  V30 5683 C 536.312 -1.81325 -0.943435 0
M  V30 5684 C 536.676 -0.634934 -1.81198 0
M  V30 5685 O 537.877 -0.766166 -2.5765 0
M  V30 5686 C 536.148 -3.11437 -1.75334 0
M  V30 5687 S 537.707 -3.57955 -2.53799 0
M  V30 5688 H 534.525 -0.636538 -0.316766 0
M  V30 5689 H 537.127 -1.94387 -0.208313 0
M  V30 5690 H 535.831 -3.95228 -1.10556 0
M  V30 5691 H 535.362 -3.01204 -2.53061 0
M  V30 5692 H 537.377 -3.21947 -3.77577 0
M  V30 5693 N 536.55 0.480323 -1.50102 0
M  V30 5694 C 537.48 1.58769 -1.71215 0
M  V30 5695 C 538.461 1.60583 -0.560997 0
M  V30 5696 O 539.646 1.76996 -0.799127 0
M  V30 5697 C 536.776 2.97148 -1.79778 0
M  V30 5698 C 535.73 3.10201 -2.94888 0
M  V30 5699 C 535.056 4.50137 -2.88584 0
M  V30 5700 C 536.356 2.88283 -4.35534 0
M  V30 5701 H 538.05 1.41354 -2.6393 0
M  V30 5702 H 535.596 0.678591 -1.27008 0
M  V30 5703 H 537.549 3.74536 -1.93133 0
M  V30 5704 H 536.273 3.15699 -0.836772 0
M  V30 5705 H 534.932 2.35244 -2.81169 0
M  V30 5706 H 534.58 4.65593 -1.90349 0
M  V30 5707 H 534.28 4.59808 -3.65856 0
M  V30 5708 H 535.804 5.29558 -3.03976 0
M  V30 5709 H 537.218 3.55427 -4.49827 0
M  V30 5710 H 535.615 3.09408 -5.14186 0
M  V30 5711 H 536.685 1.84219 -4.48544 0
M  V30 5712 N 538.028 1.39524 0.732853 0
M  V30 5713 C 539.258 1.3994 1.51988 0
M  V30 5714 C 539.666 -0.00727973 1.89199 0
M  V30 5715 O 539.009 -0.989521 1.54771 0
M  V30 5716 C 539.071 2.21026 2.83527 0
M  V30 5717 C 538.735 3.69633 2.68738 0
M  V30 5718 C 539.732 4.62665 2.37143 0
M  V30 5719 C 537.417 4.13244 2.85542 0
M  V30 5720 C 539.411 5.97291 2.22536 0
M  V30 5721 C 537.098 5.47945 2.70554 0
M  V30 5722 C 538.096 6.39783 2.39097 0
M  V30 5723 O 537.784 7.72002 2.24204 0
M  V30 5724 H 537.516 0.479795 0.476206 0
M  V30 5725 H 540.07 1.8399 0.913054 0
M  V30 5726 H 538.3 1.71728 3.46477 0
M  V30 5727 H 539.989 2.13594 3.45156 0
M  V30 5728 H 540.755 4.30272 2.2381 0
M  V30 5729 H 536.634 3.42094 3.09019 0
M  V30 5730 H 540.178 6.68939 1.97905 0
M  V30 5731 H 536.075 5.79928 2.83466 0
M  V30 5732 H 536.843 7.8275 2.39258 0
M  V30 5733 N 539.506 -0.963266 1.24736 0
M  V30 5734 C 540.436 -2.07628 1.06832 0
M  V30 5735 C 541.417 -1.70088 -0.0200566 0
M  V30 5736 O 542.602 -1.93636 0.147854 0
M  V30 5737 C 539.732 -3.40636 0.677069 0
M  V30 5738 C 538.686 -3.9215 1.71471 0
M  V30 5739 C 538.012 -5.21553 1.1784 0
M  V30 5740 C 539.312 -4.19493 3.11164 0
M  V30 5741 H 541.006 -2.22864 1.9993 0
M  V30 5742 H 538.552 -1.07093 0.96266 0
M  V30 5743 H 540.505 -4.17941 0.538792 0
M  V30 5744 H 539.229 -3.25313 -0.289612 0
M  V30 5745 H 537.888 -3.17005 1.84128 0
M  V30 5746 H 537.536 -5.02593 0.202195 0
M  V30 5747 H 537.236 -5.56988 1.87185 0
M  V30 5748 H 538.76 -6.01463 1.05233 0
M  V30 5749 H 540.174 -4.87487 3.01711 0
M  V30 5750 H 538.571 -4.66165 3.77902 0
M  V30 5751 H 539.641 -3.26097 3.58871 0
M  V30 5752 N 540.985 -1.06182 -1.16461 0
M  V30 5753 C 542.232 -0.777863 -1.86964 0
M  V30 5754 C 542.56 0.695602 -1.81636 0
M  V30 5755 O 541.815 1.52532 -1.22607 0
M  V30 5756 C 542.114 -1.21633 -3.36066 0
M  V30 5757 C 541.78 -2.69371 -3.61594 0
M  V30 5758 C 540.442 -3.09727 -3.6827 0
M  V30 5759 C 542.794 -3.64791 -3.7226 0
M  V30 5760 C 540.122 -4.44345 -3.83112 0
M  V30 5761 C 542.474 -4.99155 -3.88623 0
M  V30 5762 C 541.138 -5.39149 -3.93541 0
M  V30 5763 H 540.408 -0.28464 -0.68415 0
M  V30 5764 H 543.055 -1.33071 -1.37711 0
M  V30 5765 H 541.36 -0.582651 -3.87443 0
M  V30 5766 H 543.057 -0.973682 -3.88999 0
M  V30 5767 H 539.647 -2.37124 -3.57029 0
M  V30 5768 H 543.831 -3.34746 -3.66413 0
M  V30 5769 H 539.087 -4.74819 -3.85172 0
M  V30 5770 H 543.261 -5.72976 -3.95817 0
M  V30 5771 H 540.888 -6.43464 -4.04794 0
M  V30 5772 N 542.463 1.3308 -0.844243 0
M  V30 5773 C 543.426 2.27403 -0.286485 0
M  V30 5774 C 544.426 1.51179 0.547872 0
M  V30 5775 O 545.616 1.70421 0.360886 0
M  V30 5776 C 542.748 3.35653 0.595813 0
M  V30 5777 H 543.941 2.78248 -1.11885 0
M  V30 5778 H 541.494 1.43574 -0.617749 0
M  V30 5779 H 542.229 2.90058 1.4504 0
M  V30 5780 H 542.014 3.921 -0.00125994 0
M  V30 5781 H 543.504 4.05958 0.979168 0
M  V30 5782 N 543.941 0.601185 1.45683 0
M  V30 5783 C 544.874 -0.17013 2.27565 0
M  V30 5784 C 545.852 -0.879661 1.36751 0
M  V30 5785 O 547.036 -0.889827 1.66176 0
M  V30 5786 C 544.163 -1.24568 3.14961 0
M  V30 5787 C 543.209 -0.639978 4.21671 0
M  V30 5788 S 544.042 0.547275 5.32696 0
M  V30 5789 C 545.198 -0.529019 6.2366 0
M  V30 5790 H 545.431 0.524583 2.92635 0
M  V30 5791 H 542.964 0.388537 1.49431 0
M  V30 5792 H 544.922 -1.86138 3.65873 0
M  V30 5793 H 543.583 -1.91243 2.49169 0
M  V30 5794 H 542.776 -1.44903 4.8272 0
M  V30 5795 H 542.378 -0.0995558 3.73867 0
M  V30 5796 H 544.67 -1.40981 6.62669 0
M  V30 5797 H 545.613 0.0451599 7.08086 0
M  V30 5798 H 546.021 -0.84147 5.58193 0
M  V30 5799 N 545.419 -1.53889 0.339982 0
M  V30 5800 C 546.349 -2.27843 -0.510856 0
M  V30 5801 C 547.33 -1.29267 -1.10563 0
M  V30 5802 O 548.515 -1.58104 -1.12768 0
M  V30 5803 C 545.645 -3.04857 -1.66372 0
M  V30 5804 C 544.599 -4.10907 -1.19746 0
M  V30 5805 C 543.925 -4.75855 -2.43857 0
M  V30 5806 C 545.225 -5.21435 -0.300501 0
M  V30 5807 H 546.919 -2.99212 0.106067 0
M  V30 5808 H 544.465 -1.43904 0.0524533 0
M  V30 5809 H 546.418 -3.5533 -2.26537 0
M  V30 5810 H 545.142 -2.31133 -2.30749 0
M  V30 5811 H 543.801 -3.61342 -0.618654 0
M  V30 5812 H 543.449 -3.9873 -3.06633 0
M  V30 5813 H 543.149 -5.47502 -2.13343 0
M  V30 5814 H 544.673 -5.2911 -3.04754 0
M  V30 5815 H 546.087 -5.67565 -0.80889 0
M  V30 5816 H 544.484 -6.00036 -0.0874076 0
M  V30 5817 H 545.554 -4.80328 0.664321 0
M  V30 5818 N 546.897 -0.0685191 -1.57451 0
M  V30 5819 C 547.86 0.885173 -2.11417 0
M  V30 5820 C 548.86 1.22853 -1.03748 0
M  V30 5821 O 550.05 1.16235 -1.2975 0
M  V30 5822 C 547.182 2.18964 -2.61281 0
M  V30 5823 H 548.375 0.417034 -2.96986 0
M  V30 5824 H 545.928 0.18014 -1.55258 0
M  V30 5825 H 546.663 2.70321 -1.79156 0
M  V30 5826 H 546.448 1.9534 -3.39977 0
M  V30 5827 H 547.938 2.87242 -3.0312 0
M  V30 5828 N 548.375 1.56261 0.205012 0
M  V30 5829 C 549.305 1.96779 1.257 0
M  V30 5830 C 550.286 0.838309 1.48008 0
M  V30 5831 O 551.471 1.10189 1.59913 0
M  V30 5832 C 548.601 2.29876 2.60335 0
M  V30 5833 C 547.555 3.45469 2.52656 0
M  V30 5834 C 546.881 3.64215 3.91473 0
M  V30 5835 C 548.181 4.79954 2.06014 0
M  V30 5836 H 549.875 2.84904 0.920338 0
M  V30 5837 H 547.421 1.37072 0.441277 0
M  V30 5838 H 549.374 2.56814 3.34102 0
M  V30 5839 H 548.098 1.38622 2.95722 0
M  V30 5840 H 546.757 3.18605 1.81345 0
M  V30 5841 H 546.405 2.70309 4.24196 0
M  V30 5842 H 546.105 4.41973 3.87213 0
M  V30 5843 H 547.629 3.93519 4.66878 0
M  V30 5844 H 549.043 5.05989 2.69533 0
M  V30 5845 H 547.44 5.61111 2.12777 0
M  V30 5846 H 548.51 4.74201 1.01297 0
M  V30 5847 N 549.853 -0.472356 1.50355 0
M  V30 5848 C 551.078 -1.25251 1.65309 0
M  V30 5849 C 551.503 -1.85081 0.335643 0
M  V30 5850 O 550.861 -1.67227 -0.700335 0
M  V30 5851 C 550.909 -2.3379 2.74544 0
M  V30 5852 O 550.013 -3.38401 2.35709 0
M  V30 5853 H 549.354 -0.368539 0.552336 0
M  V30 5854 H 551.884 -0.562271 1.96722 0
M  V30 5855 H 551.894 -2.79121 2.97583 0
M  V30 5856 H 550.569 -1.89614 3.70161 0
M  V30 5857 H 549.146 -2.9879 2.23112 0
M  V30 5858 N 551.331 -1.39911 -0.725443 0
M  V30 5859 C 552.579 -1.37382 -1.48224 0
M  V30 5860 C 552.9 0.0264107 -1.94982 0
M  V30 5861 O 552.17 0.979408 -1.6966 0
M  V30 5862 H 550.75 -0.505596 -0.549892 0
M  V30 5863 H 553.412 -1.7487 -0.860608 0
M  V30 5864 H 552.508 -2.04254 -2.3598 0
M  V30 5865 N 552.809 0.956637 -1.25245 0
M  V30 5866 C 553.757 2.0743 -1.0524 0
M  V30 5867 C 554.751 1.69392 0.0160725 0
M  V30 5868 O 555.957 1.7946 -0.139382 0
M  V30 5869 H 552.332 0.678921 -0.323373 0
M  V30 5870 H 554.303 2.2146 -1.99995 0
M  V30 5871 C 553.052 3.40872 -0.685702 0
M  V30 5872 H 552.375 3.70607 -1.49968 0
M  V30 5873 H 553.815 4.19939 -0.585415 0
M  V30 5874 C 552.274 3.31367 0.608082 0
M  V30 5875 O 552.804 3.66214 1.65076 0
M  V30 5876 N 551.01 2.84486 0.592955 0
M  V30 5877 H 550.557 2.56326 -0.25592 0
M  V30 5878 H 550.515 2.78509 1.45877 0
M  V30 5879 N 554.287 1.06798 1.15896 0
M  V30 5880 C 555.534 0.787767 1.86549 0
M  V30 5881 C 555.862 -0.685959 1.82002 0
M  V30 5882 O 555.117 -1.5188 1.23414 0
M  V30 5883 C 555.416 1.23414 3.35416 0
M  V30 5884 C 555.082 2.71285 3.6016 0
M  V30 5885 C 553.744 3.11676 3.66622 0
M  V30 5886 C 556.096 3.6676 3.7032 0
M  V30 5887 C 553.424 4.4637 3.8075 0
M  V30 5888 C 555.776 5.01209 3.8597 0
M  V30 5889 C 554.44 5.41229 3.90676 0
M  V30 5890 H 553.71 0.288264 0.682631 0
M  V30 5891 H 556.357 1.338 1.37003 0
M  V30 5892 H 554.662 0.60319 3.87129 0
M  V30 5893 H 556.359 0.994298 3.88477 0
M  V30 5894 H 552.949 2.39015 3.55767 0
M  V30 5895 H 557.133 3.36685 3.64633 0
M  V30 5896 H 552.389 4.76855 3.82648 0
M  V30 5897 H 556.563 5.75067 3.92773 0
M  V30 5898 H 554.19 6.45602 4.01375 0
M  V30 5899 N 555.766 -1.3263 0.851289 0
M  V30 5900 C 556.713 -2.28952 0.291469 0
M  V30 5901 C 557.683 -1.54897 -0.599676 0
M  V30 5902 O 558.868 -1.83137 -0.535305 0
M  V30 5903 C 556.008 -3.41206 -0.516992 0
M  V30 5904 C 555.121 -4.30148 0.399566 0
M  V30 5905 C 554.256 -5.29527 -0.4212 0
M  V30 5906 C 553.295 -6.10112 0.492969 0
M  V30 5907 N 552.432 -7.01499 -0.290414 0
M  V30 5908 H 557.272 -2.76228 1.11813 0
M  V30 5909 H 554.809 -1.35907 0.562826 0
M  V30 5910 H 556.767 -4.05005 -1.00132 0
M  V30 5911 H 555.397 -2.9509 -1.30851 0
M  V30 5912 H 554.449 -3.66959 1.00227 0
M  V30 5913 H 555.761 -4.8649 1.1013 0
M  V30 5914 H 554.915 -5.98914 -0.968832 0
M  V30 5915 H 553.654 -4.73794 -1.15632 0
M  V30 5916 H 552.659 -5.39632 1.05251 0
M  V30 5917 H 553.884 -6.6793 1.22664 0
M  V30 5918 H 551.83 -6.48199 -1.00868 0
M  V30 5919 H 551.747 -7.55178 0.352354 0
M  V30 5920 H 553.015 -7.75176 -0.819882 0
M  V30 5921 N 557.244 -0.608902 -1.45362 0
M  V30 5922 C 558.493 -0.10218 -2.01441 0
M  V30 5923 C 558.806 1.27546 -1.48295 0
M  V30 5924 O 560.012 1.87498 -1.96359 0
M  V30 5925 C 558.468 -0.131985 -3.59658 0
M  V30 5926 C 558.076 -1.50956 -4.21801 0
M  V30 5927 C 559.82 0.319427 -4.23296 0
M  V30 5928 C 557.727 -1.49568 -5.72174 0
M  V30 5929 H 556.657 -0.0344314 -0.753213 0
M  V30 5930 H 559.308 -0.764426 -1.6682 0
M  V30 5931 H 557.69 0.596939 -3.91475 0
M  V30 5932 H 558.864 -2.26029 -4.01556 0
M  V30 5933 H 557.179 -1.90318 -3.70362 0
M  V30 5934 H 559.776 0.349013 -5.3356 0
M  V30 5935 H 560.119 1.34237 -3.94064 0
M  V30 5936 H 560.652 -0.356273 -3.96201 0
M  V30 5937 H 557.391 -2.49626 -6.06108 0
M  V30 5938 H 556.911 -0.787542 -5.94607 0
M  V30 5939 H 558.59 -1.21989 -6.35396 0
M  V30 5940 N 558.722 1.53707 -0.348139 0
M  V30 5941 C 559.968 2.01979 0.239986 0
M  V30 5942 C 560.323 1.23141 1.47831 0
M  V30 5943 O 559.616 0.311936 1.89044 0
M  V30 5944 C 559.81 3.52292 0.602061 0
M  V30 5945 C 559.639 4.45684 -0.599625 0
M  V30 5946 C 558.409 4.9304 -1.10635 0
M  V30 5947 C 560.607 4.93156 -1.4595 0
M  V30 5948 N 558.589 5.70394 -2.26988 0
M  V30 5949 C 559.96 5.6868 -2.46988 0
M  V30 5950 C 562.015 4.75257 -1.48441 0
M  V30 5951 C 560.718 6.28208 -3.50353 0
M  V30 5952 C 562.744 5.35639 -2.50689 0
M  V30 5953 C 562.106 6.11034 -3.50453 0
M  V30 5954 H 558.205 0.780335 0.0509992 0
M  V30 5955 H 560.789 1.88466 -0.488742 0
M  V30 5956 H 558.96 3.66002 1.29989 0
M  V30 5957 H 560.692 3.87304 1.17377 0
M  V30 5958 H 557.447 4.68784 -0.67371 0
M  V30 5959 H 557.871 6.13741 -2.85747 0
M  V30 5960 H 562.513 4.16508 -0.726707 0
M  V30 5961 H 560.231 6.86064 -4.27015 0
M  V30 5962 H 563.817 5.23693 -2.53449 0
M  V30 5963 H 562.697 6.56925 -4.28275 0
M  V30 5964 N 560.2 0.0768682 1.57412 0
M  V30 5965 C 561.447 -0.591085 1.93681 0
M  V30 5966 C 561.775 -1.69311 0.957286 0
M  V30 5967 O 561.03 -1.95682 -0.0262428 0
M  V30 5968 C 561.329 -1.20268 3.36557 0
M  V30 5969 C 560.995 -0.226286 4.50332 0
M  V30 5970 C 559.657 0.0423142 4.81181 0
M  V30 5971 C 562.009 0.441415 5.19327 0
M  V30 5972 C 559.337 0.985616 5.78362 0
M  V30 5973 C 561.689 1.37307 6.17519 0
M  V30 5974 C 560.353 1.65009 6.46783 0
M  V30 5975 H 559.623 -0.216293 0.70873 0
M  V30 5976 H 562.27 0.148824 1.90921 0
M  V30 5977 H 560.575 -2.01844 3.35807 0
M  V30 5978 H 562.272 -1.72688 3.61911 0
M  V30 5979 H 558.862 -0.445821 4.26275 0
M  V30 5980 H 563.046 0.247023 4.95685 0
M  V30 5981 H 558.302 1.20743 5.99359 0
M  V30 5982 H 562.476 1.89637 6.70083 0
M  V30 5983 H 560.103 2.38263 7.21897 0
M  V30 5984 N 561.678 -1.56367 -0.196722 0
M  V30 5985 C 563.089 -1.70462 -0.761545 0
M  V30 5986 C 563.44 -0.683161 -1.83922 0
M  V30 5987 O 562.565 0.160753 -2.15802 0
M  V30 5988 C 563.16 -3.09057 -1.38814 0
M  V30 5989 C 561.719 -3.24922 -1.90007 0
M  V30 5990 C 560.866 -2.66412 -0.769399 0
M  V30 5991 H 563.817 -1.58675 0.0283263 0
M  V30 5992 H 563.838 -3.06296 -2.2575 0
M  V30 5993 H 563.35 -3.83378 -0.603559 0
M  V30 5994 H 561.451 -2.55514 -2.71189 0
M  V30 5995 H 561.564 -4.3241 -2.06297 0
M  V30 5996 H 559.928 -2.25546 -1.18326 0
M  V30 5997 H 560.711 -3.433 0.00291773 0
M  V30 5998 N 563.156 0.464375 -1.50603 0
M  V30 5999 C 564.066 1.58723 -1.72754 0
M  V30 6000 C 565.082 1.62925 -0.610844 0
M  V30 6001 O 566.258 1.8067 -0.889963 0
M  V30 6002 C 563.323 2.94897 -1.82309 0
M  V30 6003 C 562.384 3.0103 -3.06071 0
M  V30 6004 C 561.617 4.30708 -3.1516 0
M  V30 6005 O 561.84 5.2159 -2.30868 0
M  V30 6006 O 560.774 4.42571 -4.0794 0
M  V30 6007 H 564.6 1.42954 -2.67951 0
M  V30 6008 H 562.185 0.644579 -1.3478 0
M  V30 6009 H 564.067 3.75764 -1.90735 0
M  V30 6010 H 562.742 3.10851 -0.902967 0
M  V30 6011 H 561.649 2.19217 -3.03142 0
M  V30 6012 H 562.982 2.90014 -3.97684 0
M  V30 6013 N 564.634 1.40294 0.718013 0
M  V30 6014 C 565.882 1.38167 1.47494 0
M  V30 6015 C 566.203 -0.01607 1.94993 0
M  V30 6016 O 565.473 -0.970396 1.70177 0
M  V30 6017 H 564.053 0.508505 0.547203 0
M  V30 6018 H 566.715 1.75324 0.851322 0
M  V30 6019 H 565.811 2.05503 2.34894 0
M  V30 6020 N 566.112 -0.949982 1.2575 0
M  V30 6021 C 567.044 -2.05088 1.02331 0
M  V30 6022 C 568.057 -1.62795 -0.0133247 0
M  V30 6023 O 569.246 -1.77067 0.225759 0
M  V30 6024 C 566.346 -3.34794 0.525924 0
M  V30 6025 C 565.519 -4.05903 1.62978 0
M  V30 6026 C 564.578 -5.1388 1.13196 0
M  V30 6027 O 563.604 -5.39072 1.82729 0
M  V30 6028 N 564.806 -5.80495 -0.0242926 0
M  V30 6029 H 567.571 -2.25747 1.97125 0
M  V30 6030 H 565.132 -1.11886 1.17018 0
M  V30 6031 H 567.124 -4.04312 0.177263 0
M  V30 6032 H 565.694 -3.10872 -0.328202 0
M  V30 6033 H 564.914 -3.3042 2.1498 0
M  V30 6034 H 566.202 -4.50166 2.37124 0
M  V30 6035 H 565.6 -5.62454 -0.605184 0
M  V30 6036 H 564.157 -6.51043 -0.313947 0
M  V30 6037 N 567.59 -1.07411 -1.15328 0
M  V30 6038 C 568.5 -0.706438 -2.23711 0
M  V30 6039 C 569.516 0.282586 -1.7169 0
M  V30 6040 O 570.692 0.129066 -2.00986 0
M  V30 6041 C 567.757 -0.11048 -3.46524 0
M  V30 6042 C 566.818 -1.15282 -4.13532 0
M  V30 6043 C 566.051 -0.585205 -5.30482 0
M  V30 6044 O 566.274 0.598549 -5.67251 0
M  V30 6045 O 565.208 -1.33039 -5.87013 0
M  V30 6046 H 569.034 -1.61031 -2.57493 0
M  V30 6047 H 566.619 -0.847113 -1.23062 0
M  V30 6048 H 568.501 0.21957 -4.20828 0
M  V30 6049 H 567.176 0.766703 -3.14489 0
M  V30 6050 H 566.083 -1.53523 -3.41147 0
M  V30 6051 H 567.416 -2.00192 -4.49649 0
M  V30 6052 N 569.068 1.32177 -0.85831 0
M  V30 6053 C 569.978 2.32561 -0.308606 0
M  V30 6054 C 570.994 1.64209 0.575462 0
M  V30 6055 O 572.17 1.95719 0.474961 0
M  V30 6056 C 569.235 3.43207 0.490909 0
M  V30 6057 C 568.296 4.27243 -0.419733 0
M  V30 6058 C 567.529 5.32605 0.341719 0
M  V30 6059 O 567.752 5.48332 1.57125 0
M  V30 6060 O 566.686 6.0118 -0.294379 0
M  V30 6061 H 570.512 2.81477 -1.14037 0
M  V30 6062 H 568.097 1.35866 -0.621349 0
M  V30 6063 H 569.979 4.10677 0.944574 0
M  V30 6064 H 568.654 2.96474 1.29941 0
M  V30 6065 H 567.561 3.62569 -0.921652 0
M  V30 6066 H 568.894 4.7751 -1.19352 0
M  V30 6067 N 570.547 0.616602 1.45037 0
M  V30 6068 C 571.457 -0.0985401 2.34393 0
M  V30 6069 C 572.473 -0.850971 1.51771 0
M  V30 6070 O 573.649 -0.806521 1.84546 0
M  V30 6071 C 570.714 -1.07748 3.29532 0
M  V30 6072 C 569.775 -0.326022 4.2806 0
M  V30 6073 C 569.008 -1.25833 5.18654 0
M  V30 6074 O 569.231 -2.49652 5.12864 0
M  V30 6075 O 568.165 -0.750512 5.97203 0
M  V30 6076 H 571.991 0.636016 2.96966 0
M  V30 6077 H 569.576 0.376832 1.44569 0
M  V30 6078 H 571.458 -1.64107 3.88133 0
M  V30 6079 H 570.133 -1.79291 2.69512 0
M  V30 6080 H 569.04 0.280253 3.73049 0
M  V30 6081 H 570.373 0.349091 4.9096 0
M  V30 6082 N 572.025 -1.5352 0.356285 0
M  V30 6083 C 572.975 -2.22204 -0.510815 0
M  V30 6084 C 573.959 -1.21393 -1.05605 0
M  V30 6085 O 575.151 -1.46883 -0.987639 0
M  V30 6086 C 572.28 -3.00786 -1.65478 0
M  V30 6087 C 571.366 -4.08965 -1.12287 0
M  V30 6088 N 571.757 -5.04829 -0.313191 0
M  V30 6089 C 570.055 -4.23505 -1.39856 0
M  V30 6090 C 570.756 -5.81695 -0.0230322 0
M  V30 6091 N 569.732 -5.40074 -0.618144 0
M  V30 6092 H 573.534 -2.93676 0.114711 0
M  V30 6093 H 571.048 -1.61572 0.163811 0
M  V30 6094 H 573.045 -3.48502 -2.28806 0
M  V30 6095 H 571.705 -2.30843 -2.28345 0
M  V30 6096 H 572.716 -5.17879 0.0468202 0
M  V30 6097 H 569.393 -3.64786 -2.0307 0
M  V30 6098 H 570.783 -6.68931 0.630927 0
M  V30 6099 O 573.542 -0.225101 -1.59924 0
M  V30 6100 H 574.233 0.354711 -1.90425 0
M  V30 END ATOM
M  V30 BEGIN BOND
M  V30 END BOND
M  V30 END CTAB
M  END
$$$$
