drugbank_target|Q9KEQ1 Acyl-CoA hydrolase (DB01992)
 OpenBabel12092120243D

  0  0  0     0  0            999 V3000
M  V30 BEGIN CTAB
M  V30 COUNTS 2453 2472 0 0 0
M  V30 BEGIN ATOM
M  V30 1 H -0.908 1.98254 -0.117106 0
M  V30 2 N 0 1.576 0 0
M  V30 3 C 0.933 2.03868 1.02534 0
M  V30 4 C 1.911 0.928543 1.3348 0
M  V30 5 O 3.095 1.19667 1.45644 0
M  V30 6 C 0.222 2.43627 2.35294 0
M  V30 7 C -0.732 3.65373 2.2001 0
M  V30 8 S 0.101 5.13292 1.52614 0
M  V30 9 C 1.257 5.56322 2.86805 0
M  V30 10 H 1.49 2.90518 0.631377 0
M  V30 11 H -0.977 1.52953 0.210867 0
M  V30 12 H 0.981 2.67203 3.11629 0
M  V30 13 H -0.358 1.57376 2.7183 0
M  V30 14 H -1.165 3.90944 3.18086 0
M  V30 15 H -1.563 3.418 1.51819 0
M  V30 16 H 0.729 5.58782 3.83104 0
M  V30 17 H 1.672 6.56266 2.65933 0
M  V30 18 H 2.08 4.83886 2.90714 0
M  V30 19 N 1.4781 -0.272755 1.55222 0
M  V30 20 C 2.7271 -1.00211 1.75045 0
M  V30 21 C 3.0401 -1.87441 0.559046 0
M  V30 22 O 4.2461 -2.63856 0.639698 0
M  V30 23 C 2.7021 -1.83165 3.09804 0
M  V30 24 C 2.3101 -1.008 4.36513 0
M  V30 25 C 4.0541 -2.55529 3.38977 0
M  V30 26 C 1.9611 -1.83194 5.62311 0
M  V30 27 H 0.8911 -0.377878 0.652476 0
M  V30 28 H 3.5421 -0.257776 1.8168 0
M  V30 29 H 1.9241 -2.61694 2.97207 0
M  V30 30 H 3.0981 -0.266855 4.60027 0
M  V30 31 H 1.4131 -0.398897 4.14485 0
M  V30 32 H 4.0101 -3.17578 4.30172 0
M  V30 33 H 4.3531 -3.25825 2.59121 0
M  V30 34 H 4.8861 -1.84029 3.52673 0
M  V30 35 H 1.6251 -1.17318 6.44916 0
M  V30 36 H 1.1451 -2.54905 5.4294 0
M  V30 37 H 2.8241 -2.40552 6.00619 0
M  V30 38 N 2.9562 -1.48159 -0.537278 0
M  V30 39 C 3.8882 -1.58218 -1.65831 0
M  V30 40 C 4.9012 -0.466948 -1.5596 0
M  V30 41 O 6.0902 -0.73747 -1.62553 0
M  V30 42 C 3.1902 -1.48906 -3.04434 0
M  V30 43 C 2.3632 -2.75343 -3.3986 0
M  V30 44 C 1.4222 -2.59588 -4.57712 0
M  V30 45 O 0.4482 -3.33457 -4.61297 0
M  V30 46 N 1.6502 -1.68724 -5.55439 0
M  V30 47 H 4.4152 -2.54891 -1.57641 0
M  V30 48 H 1.9762 -1.4479 -0.724386 0
M  V30 49 H 3.9682 -1.36072 -3.81139 0
M  V30 50 H 2.5382 -0.602368 -3.06741 0
M  V30 51 H 1.7582 -3.02795 -2.52406 0
M  V30 52 H 3.0462 -3.5924 -3.60311 0
M  V30 53 H 2.4442 -1.07898 -5.55315 0
M  V30 54 H 1.0012 -1.61832 -6.3139 0
M  V30 55 N 4.4343 0.785586 -1.36625 0
M  V30 56 C 5.6593 1.57963 -1.34397 0
M  V30 57 C 6.0843 1.87964 0.071526 0
M  V30 58 O 5.4423 1.48182 1.0446 0
M  V30 59 C 5.4903 2.87511 -2.17646 0
M  V30 60 O 4.5943 3.81281 -1.57158 0
M  V30 61 H 3.9353 0.479014 -0.459828 0
M  V30 62 H 6.4653 0.973411 -1.79961 0
M  V30 63 H 6.4753 3.36745 -2.30362 0
M  V30 64 H 5.1503 2.65002 -3.20541 0
M  V30 65 H 3.7273 3.39885 -1.53403 0
M  V30 66 N 5.9124 1.20967 1.01018 0
M  V30 67 C 7.1424 1.04803 1.78044 0
M  V30 68 C 7.5504 -0.405462 1.84804 0
M  V30 69 O 6.8934 -1.2932 1.30468 0
M  V30 70 C 6.9554 1.56377 3.23707 0
M  V30 71 C 6.6194 3.04767 3.40538 0
M  V30 72 C 7.6164 4.02366 3.29239 0
M  V30 73 C 5.3014 3.43862 3.66147 0
M  V30 74 C 7.2954 5.37049 3.43304 0
M  V30 75 C 4.9824 4.78699 3.79855 0
M  V30 76 C 5.9804 5.75101 3.68439 0
M  V30 77 O 5.6684 7.07493 3.81719 0
M  V30 78 H 5.4004 0.368778 0.56655 0
M  V30 79 H 7.9544 1.60642 1.27997 0
M  V30 80 H 6.1844 0.949297 3.74867 0
M  V30 81 H 7.8734 1.36136 3.8239 0
M  V30 82 H 8.6394 3.73506 3.09384 0
M  V30 83 H 4.5184 2.69364 3.74118 0
M  V30 84 H 8.0624 6.12277 3.34309 0
M  V30 85 H 3.9594 5.07247 3.99213 0
M  V30 86 H 4.7274 7.1483 3.98697 0
M  V30 87 N 7.3905 -1.2043 1.01659 0
M  V30 88 C 8.8015 -1.71517 0.737482 0
M  V30 89 C 9.1525 -1.81547 -0.743973 0
M  V30 90 O 8.2775 -1.47803 -1.58061 0
M  V30 91 C 8.8725 -3.11515 1.33206 0
M  V30 92 C 7.4315 -3.59912 1.10183 0
M  V30 93 C 6.5785 -2.37116 1.43776 0
M  V30 94 H 9.5295 -1.05444 1.18606 0
M  V30 95 H 9.5505 -3.73575 0.722636 0
M  V30 96 H 9.0625 -3.04182 2.41028 0
M  V30 97 H 7.1635 -3.72577 0.0412756 0
M  V30 98 H 7.2765 -4.44731 1.78188 0
M  V30 99 H 5.6405 -2.39857 0.856778 0
M  V30 100 H 6.4235 -2.32424 2.52654 0
M  V30 101 N 8.8686 -0.792821 -1.36206 0
M  V30 102 C 10.1146 -0.36733 -1.99446 0
M  V30 103 C 10.4476 1.05917 -1.62774 0
M  V30 104 O 9.7226 1.7324 -0.88421 0
M  V30 105 C 10.0056 -0.535044 -3.56103 0
M  V30 106 C 9.8586 -2.00548 -4.02617 0
M  V30 107 C 11.1776 0.0478191 -4.40074 0
M  V30 108 H 8.2966 -0.134941 -0.724541 0
M  V30 109 H 10.9386 -0.999794 -1.61568 0
M  V30 110 H 9.0886 0.00336329 -3.885 0
M  V30 111 H 10.7606 -2.60521 -3.80692 0
M  V30 112 H 9.0036 -2.50686 -3.54032 0
M  V30 113 H 9.6746 -2.07377 -5.11565 0
M  V30 114 H 12.1506 -0.411822 -4.14057 0
M  V30 115 H 11.0266 -0.0995336 -5.4881 0
M  V30 116 H 11.2876 1.14025 -4.27142 0
M  V30 117 N 10.3467 1.47872 -0.545128 0
M  V30 118 C 11.2567 2.33633 0.212746 0
M  V30 119 C 12.2727 1.4744 0.923983 0
M  V30 120 O 13.4487 1.80393 0.895572 0
M  V30 121 C 10.5137 3.23884 1.23693 0
M  V30 122 C 9.5747 4.25961 0.534417 0
M  V30 123 C 8.8077 5.11899 1.5098 0
M  V30 124 O 9.0307 5.00077 2.7437 0
M  V30 125 O 7.9647 5.92831 1.0409 0
M  V30 126 H 11.7907 2.99714 -0.490416 0
M  V30 127 H 9.3757 1.46235 -0.305871 0
M  V30 128 H 11.2577 3.79666 1.82843 0
M  V30 129 H 9.9327 2.60446 1.92222 0
M  V30 130 H 8.8397 3.73972 -0.0979679 0
M  V30 131 H 10.1727 4.92079 -0.109213 0
M  V30 132 N 11.8248 0.280983 1.55075 0
M  V30 133 C 13.2408 -0.0729964 1.59433 0
M  V30 134 C 13.4408 -1.5411 1.29817 0
M  V30 135 O 12.4968 -2.29086 1.06187 0
M  V30 136 C 13.8098 0.306921 2.9913 0
M  V30 137 C 15.3578 0.254023 3.11968 0
M  V30 138 C 15.8328 0.608467 4.5394 0
M  V30 139 N 17.3238 0.560241 4.59799 0
M  V30 140 C 18.0588 0.80722 5.6769 0
M  V30 141 N 17.5548 1.11912 6.83701 0
M  V30 142 N 19.3478 0.735623 5.57266 0
M  V30 143 H 11.4988 1.238 1.7259 0
M  V30 144 H 13.7618 0.500547 0.805082 0
M  V30 145 H 13.4678 1.32816 3.25657 0
M  V30 146 H 13.3418 -0.349363 3.75579 0
M  V30 147 H 15.7288 -0.75794 2.852 0
M  V30 148 H 15.8098 0.944649 2.37718 0
M  V30 149 H 15.4538 1.61814 4.81434 0
M  V30 150 H 15.3838 -0.104013 5.26497 0
M  V30 151 H 17.8748 0.329288 3.76463 0
M  V30 152 H 18.1878 1.29409 7.61888 0
M  V30 153 H 16.5328 1.15695 6.85303 0
M  V30 154 H 19.7238 0.491752 4.6551 0
M  V30 155 H 19.8968 0.931482 6.4127 0
M  V30 156 N 13.3029 -1.57598 0.00835791 0
M  V30 157 C 14.5279 -1.95617 -0.689103 0
M  V30 158 C 14.9529 -0.883753 -1.66046 0
M  V30 159 O 14.3109 0.157352 -1.80616 0
M  V30 160 C 14.3589 -3.32736 -1.38994 0
M  V30 161 O 13.4629 -3.27631 -2.50463 0
M  V30 162 H 12.8039 -0.638379 -0.182668 0
M  V30 163 H 15.3339 -2.045 0.064036 0
M  V30 164 H 15.3439 -3.68494 -1.75147 0
M  V30 165 H 14.0189 -4.1034 -0.677778 0
M  V30 166 H 12.5959 -3.03561 -2.16576 0
M  V30 167 N 14.781 0.264519 -1.55364 0
M  V30 168 C 16.197 0.61215 -1.47394 0
M  V30 169 C 16.397 1.89134 -0.695018 0
M  V30 170 O 15.453 2.51563 -0.217275 0
M  V30 171 C 16.766 0.731235 -2.91674 0
M  V30 172 C 18.314 0.82473 -3.01939 0
M  V30 173 C 18.789 0.975522 -4.4749 0
M  V30 174 N 20.28 1.04083 -4.51354 0
M  V30 175 C 21.015 1.17646 -5.61201 0
M  V30 176 N 20.511 1.27874 -6.80896 0
M  V30 177 N 22.304 1.20823 -5.48961 0
M  V30 178 H 14.455 -0.575456 -2.04456 0
M  V30 179 H 16.718 -0.196099 -0.927496 0
M  V30 180 H 16.424 -0.138392 -3.51428 0
M  V30 181 H 16.298 1.60883 -3.41169 0
M  V30 182 H 18.685 1.68482 -2.42276 0
M  V30 183 H 18.766 -0.0776479 -2.55682 0
M  V30 184 H 18.41 0.120058 -5.07758 0
M  V30 185 H 18.34 1.89268 -4.91412 0
M  V30 186 H 20.831 0.973846 -3.65136 0
M  V30 187 H 21.144 1.38081 -7.60364 0
M  V30 188 H 19.489 1.24863 -6.83692 0
M  V30 189 H 22.68 1.12469 -4.54388 0
M  V30 190 H 22.853 1.31049 -6.3461 0
M  V30 191 N 16.2591 1.48442 0.529413 0
M  V30 192 C 17.4871 1.60151 1.30994 0
M  V30 193 C 17.9021 0.261985 1.86973 0
M  V30 194 O 17.2591 -0.748805 1.66431 0
M  V30 195 C 17.3101 2.64854 2.46038 0
M  V30 196 O 17.0311 3.93608 1.92365 0
M  V30 197 C 18.5321 2.87007 3.37849 0
M  V30 198 H 15.7521 0.539971 0.398338 0
M  V30 199 H 18.2961 1.94273 0.638597 0
M  V30 200 H 16.4511 2.33589 3.09055 0
M  V30 201 H 16.8651 4.51055 2.67675 0
M  V30 202 H 18.3391 3.64068 4.14919 0
M  V30 203 H 18.8161 1.95852 3.93114 0
M  V30 204 H 19.4221 3.19579 2.80623 0
M  V30 205 N 17.7372 -0.778329 1.37039 0
M  V30 206 C 18.9862 -1.53189 1.3121 0
M  V30 207 C 19.2992 -1.95328 -0.103095 0
M  V30 208 O 20.5052 -2.70012 -0.283826 0
M  V30 209 C 18.9612 -2.76591 2.30272 0
M  V30 210 C 18.5692 -2.41577 3.77286 0
M  V30 211 C 20.3132 -3.5455 2.33441 0
M  V30 212 C 18.2202 -3.61441 4.68096 0
M  V30 213 H 17.1502 -0.5751 0.487622 0
M  V30 214 H 19.8012 -0.853101 1.62464 0
M  V30 215 H 18.1832 -3.46326 1.92027 0
M  V30 216 H 19.3572 -1.79668 4.2433 0
M  V30 217 H 17.6722 -1.76806 3.76999 0
M  V30 218 H 20.2692 -4.43628 2.98493 0
M  V30 219 H 20.6122 -3.93936 1.34611 0
M  V30 220 H 21.1452 -2.91805 2.7036 0
M  V30 221 H 17.8842 -3.27142 5.6803 0
M  V30 222 H 17.4042 -4.22478 4.25761 0
M  V30 223 H 19.0832 -4.28335 4.8491 0
M  V30 224 N 19.2153 -1.21501 -1.00376 0
M  V30 225 C 20.1473 -0.933174 -2.09343 0
M  V30 226 C 21.1603 0.0840896 -1.62583 0
M  V30 227 O 22.3493 -0.148563 -1.77881 0
M  V30 228 C 19.4493 -0.379869 -3.36764 0
M  V30 229 C 18.6223 -1.45176 -4.12605 0
M  V30 230 C 17.6813 -0.907476 -5.18316 0
M  V30 231 O 16.7073 -1.5912 -5.46507 0
M  V30 232 N 17.9093 0.276649 -5.7984 0
M  V30 233 H 20.6743 -1.87124 -2.34104 0
M  V30 234 H 18.2353 -1.12043 -1.16867 0
M  V30 235 H 20.2273 -0.00131488 -4.047 0
M  V30 236 H 18.7973 0.463048 -3.09151 0
M  V30 237 H 18.0173 -2.00411 -3.39454 0
M  V30 238 H 19.3053 -2.17328 -4.6005 0
M  V30 239 H 18.7033 0.849147 -5.59291 0
M  V30 240 H 17.2603 0.596702 -6.49063 0
M  V30 241 N 20.6934 1.19889 -1.02296 0
M  V30 242 C 21.9214 1.9339 -0.735399 0
M  V30 243 C 22.3364 1.75148 0.704887 0
M  V30 244 O 21.6934 1.06954 1.47875 0
M  V30 245 C 21.7444 3.45313 -1.06962 0
M  V30 246 O 21.4654 3.62964 -2.45334 0
M  V30 247 C 22.9664 4.35948 -0.804021 0
M  V30 248 H 20.1864 0.61448 -0.269546 0
M  V30 249 H 22.7304 1.522 -1.36585 0
M  V30 250 H 20.8854 3.84359 -0.484455 0
M  V30 251 H 21.2994 4.56886 -2.57595 0
M  V30 252 H 22.7734 5.41174 -1.0879 0
M  V30 253 H 23.2504 4.3842 0.261691 0
M  V30 254 H 23.8564 4.02574 -1.37164 0
M  V30 255 N 22.1715 0.800033 1.35784 0
M  V30 256 C 23.5875 0.482977 1.52117 0
M  V30 257 C 23.7875 -0.996948 1.75109 0
M  V30 258 O 22.8435 -1.78216 1.78872 0
M  V30 259 C 24.1565 1.32264 2.70049 0
M  V30 260 C 25.7045 1.31742 2.83924 0
M  V30 261 C 26.1795 2.14106 4.04874 0
M  V30 262 N 27.6705 2.11607 4.12039 0
M  V30 263 C 28.4055 2.72099 5.04727 0
M  V30 264 N 27.9015 3.41492 6.02789 0
M  V30 265 N 29.6945 2.61776 4.97423 0
M  V30 266 H 21.8455 1.75856 1.19115 0
M  V30 267 H 24.1085 0.748122 0.582252 0
M  V30 268 H 23.8145 2.37261 2.59616 0
M  V30 269 H 23.6885 0.971303 3.6448 0
M  V30 270 H 26.0755 0.275333 2.93813 0
M  V30 271 H 26.1565 1.70859 1.9037 0
M  V30 272 H 25.8005 3.18351 3.95746 0
M  V30 273 H 25.7305 1.72353 4.97596 0
M  V30 274 H 28.2215 1.61112 3.41835 0
M  V30 275 H 28.5345 3.84953 6.70098 0
M  V30 276 H 26.8795 3.45596 6.02983 0
M  V30 277 H 30.0705 2.07157 4.19766 0
M  V30 278 H 30.2435 3.0921 5.69468 0
M  V30 279 N 23.6496 -1.47581 0.552962 0
M  V30 280 C 24.5796 -2.32762 -0.185451 0
M  V30 281 C 25.5606 -1.43527 -0.912905 0
M  V30 282 O 26.7456 -1.72388 -0.894201 0
M  V30 283 C 23.8756 -3.25219 -1.21859 0
M  V30 284 C 22.8296 -4.23661 -0.607864 0
M  V30 285 C 22.1556 -5.05413 -1.74533 0
M  V30 286 C 23.4556 -5.20481 0.435582 0
M  V30 287 H 25.1496 -2.94749 0.525684 0
M  V30 288 H 22.6956 -1.41738 0.254251 0
M  V30 289 H 24.6486 -3.8365 -1.7433 0
M  V30 290 H 23.3726 -2.61279 -1.95961 0
M  V30 291 H 22.0316 -3.66451 -0.104489 0
M  V30 292 H 21.6796 -4.3788 -2.47529 0
M  V30 293 H 21.3796 -5.72059 -1.34249 0
M  V30 294 H 22.9036 -5.66701 -2.27338 0
M  V30 295 H 24.3176 -5.733 -0.00290157 0
M  V30 296 H 22.7146 -5.95305 0.757067 0
M  V30 297 H 23.7846 -4.66217 1.33303 0
M  V30 298 N 25.1277 -0.289203 -1.54924 0
M  V30 299 C 26.3737 0.323998 -2.00195 0
M  V30 300 C 26.7067 1.54441 -1.17735 0
M  V30 301 O 25.9817 1.92875 -0.250878 0
M  V30 302 C 26.2647 0.692276 -3.53383 0
M  V30 303 C 26.1177 -0.536457 -4.46589 0
M  V30 304 C 27.4367 1.52335 -4.12895 0
M  V30 305 H 24.5557 0.116289 -0.727768 0
M  V30 306 H 27.1977 -0.398954 -1.85764 0
M  V30 307 H 25.3477 1.30822 -3.65811 0
M  V30 308 H 27.0197 -1.17499 -4.46085 0
M  V30 309 H 25.2627 -1.17192 -4.1767 0
M  V30 310 H 25.9337 -0.234806 -5.515 0
M  V30 311 H 28.4097 1.00302 -4.0383 0
M  V30 312 H 27.2857 1.74982 -5.20262 0
M  V30 313 H 27.5467 2.50886 -3.64018 0
M  V30 314 N 26.6058 1.57591 -0.0167156 0
M  V30 315 C 27.5358 2.12496 0.967858 0
M  V30 316 C 28.5168 1.03807 1.34752 0
M  V30 317 O 29.7018 1.31577 1.42833 0
M  V30 318 C 26.8318 2.64194 2.25431 0
M  V30 319 C 25.7858 3.77559 2.01576 0
M  V30 320 C 25.1118 4.15636 3.36379 0
M  V30 321 C 26.4118 5.04151 1.36489 0
M  V30 322 H 28.1058 2.95013 0.510643 0
M  V30 323 H 25.6518 1.41915 0.244181 0
M  V30 324 H 27.6048 3.01236 2.94678 0
M  V30 325 H 26.3288 1.78821 2.73296 0
M  V30 326 H 24.9878 3.40937 1.34751 0
M  V30 327 H 24.6358 3.27263 3.81979 0
M  V30 328 H 24.3358 4.92022 3.21229 0
M  V30 329 H 25.8598 4.5525 4.06915 0
M  V30 330 H 27.2738 5.38857 1.95718 0
M  V30 331 H 25.6708 5.85453 1.31776 0
M  V30 332 H 26.7408 4.83733 0.336219 0
M  V30 333 N 28.0839 -0.256276 1.55502 0
M  V30 334 C 29.4949 -0.826068 1.67431 0
M  V30 335 C 29.8459 -1.86396 0.612446 0
M  V30 336 O 28.9709 -2.15031 -0.243025 0
M  V30 337 C 29.5659 -1.50512 3.03532 0
M  V30 338 C 28.1249 -2.02273 3.17431 0
M  V30 339 C 27.2719 -0.870548 2.63281 0
M  V30 340 H 30.2229 -0.0322728 1.58667 0
M  V30 341 H 30.2439 -2.37279 2.97454 0
M  V30 342 H 29.7559 -0.749484 3.80794 0
M  V30 343 H 27.8569 -2.80746 2.44974 0
M  V30 344 H 27.9699 -2.22655 4.24219 0
M  V30 345 H 26.3339 -1.26851 2.20864 0
M  V30 346 H 27.1169 -0.128149 3.43061 0
M  V30 347 N 29.562 -1.4872 -0.521534 0
M  V30 348 C 30.973 -1.50607 -1.10337 0
M  V30 349 C 31.324 -0.280612 -1.94183 0
M  V30 350 O 30.449 0.611507 -2.0758 0
M  V30 351 C 31.044 -2.72903 -2.00772 0
M  V30 352 C 29.603 -2.77634 -2.54158 0
M  V30 353 C 28.75 -2.44241 -1.31307 0
M  V30 354 H 31.701 -1.55714 -0.306388 0
M  V30 355 H 31.722 -2.519 -2.85178 0
M  V30 356 H 31.234 -3.62077 -1.39721 0
M  V30 357 H 29.335 -1.92689 -3.18907 0
M  V30 358 H 29.448 -3.79283 -2.92714 0
M  V30 359 H 27.812 -1.95577 -1.63161 0
M  V30 360 H 28.595 -3.35666 -0.719943 0
M  V30 361 N 31.0401 0.771051 -1.3745 0
M  V30 362 C 32.3171 1.519 -1.23231 0
M  V30 363 C 32.6971 2.10383 0.173809 0
M  V30 364 O 32.0451 1.95583 1.18151 0
M  V30 365 C 32.2551 2.59933 -2.32886 0
M  V30 366 C 33.6031 3.27316 -2.70461 0
M  V30 367 O 34.6271 2.70228 -2.32068 0
M  V30 368 O 33.4861 4.30531 -3.36608 0
M  V30 369 H 30.5801 0.672803 -0.480901 0
M  V30 370 H 33.1261 0.807957 -1.49232 0
M  V30 371 H 31.8981 2.14842 -3.27045 0
M  V30 372 H 31.5211 3.38637 -2.08353 0
M  V30 373 N 32.5182 1.22032 0.997298 0
M  V30 374 C 33.7462 1.06841 1.7718 0
M  V30 375 C 34.1612 -0.381325 1.84909 0
M  V30 376 O 33.5182 -1.26437 1.31605 0
M  V30 377 C 33.5692 1.66814 3.20711 0
M  V30 378 O 33.2902 3.06116 3.13408 0
M  V30 379 C 34.7912 1.56838 4.14628 0
M  V30 380 H 32.0112 0.374782 0.556578 0
M  V30 381 H 34.5552 1.61532 1.2541 0
M  V30 382 H 32.7102 1.16196 3.69564 0
M  V30 383 H 33.1242 3.34926 4.0364 0
M  V30 384 H 34.5982 2.03532 5.13107 0
M  V30 385 H 35.0752 0.524155 4.36061 0
M  V30 386 H 35.6812 2.06741 3.7167 0
M  V30 387 N 33.9963 -1.19345 1.0293 0
M  V30 388 C 34.9443 -2.24621 0.604001 0
M  V30 389 C 35.9383 -1.65452 -0.363587 0
M  V30 390 O 37.1443 -1.78497 -0.23212 0
M  V30 391 H 33.5193 -0.730858 0.177061 0
M  V30 392 H 35.4903 -2.5781 1.50255 0
M  V30 393 C 34.2393 -3.47688 -0.0289127 0
M  V30 394 H 33.5623 -3.93505 0.706651 0
M  V30 395 H 35.0023 -4.23011 -0.289432 0
M  V30 396 C 33.4613 -3.11817 -1.2756 0
M  V30 397 O 33.9913 -3.2451 -2.36762 0
M  V30 398 N 32.1973 -2.66246 -1.16453 0
M  V30 399 H 31.7443 -2.56118 -0.275914 0
M  V30 400 H 31.7023 -2.42617 -1.99961 0
M  V30 401 N 35.4744 -0.807222 -1.35358 0
M  V30 402 C 36.4244 -0.190706 -2.27201 0
M  V30 403 C 37.4084 0.635838 -1.47804 0
M  V30 404 O 38.6004 0.492991 -1.69996 0
M  V30 405 C 35.7294 0.659337 -3.36909 0
M  V30 406 C 34.8154 -0.176971 -4.23731 0
M  V30 407 N 35.2064 -1.24029 -4.90357 0
M  V30 408 C 33.5044 0.0412953 -4.45981 0
M  V30 409 C 34.2054 -1.75092 -5.54723 0
M  V30 410 N 33.1814 -1.05727 -5.33219 0
M  V30 411 H 36.9834 -1.0043 -2.76208 0
M  V30 412 H 34.4974 -0.648445 -1.48892 0
M  V30 413 H 36.4944 1.11706 -4.01656 0
M  V30 414 H 35.1544 1.47127 -2.89454 0
M  V30 415 H 36.1654 -1.62295 -4.91814 0
M  V30 416 H 32.8424 0.82232 -4.09322 0
M  V30 417 H 34.2324 -2.63963 -6.17878 0
M  V30 418 N 36.9525 1.47285 -0.560781 0
M  V30 419 C 37.8825 2.32857 0.173105 0
M  V30 420 C 38.8635 1.44009 0.905281 0
M  V30 421 O 40.0485 1.7286 0.885046 0
M  V30 422 C 37.1785 3.25861 1.20133 0
M  V30 423 C 36.1325 4.23978 0.585388 0
M  V30 424 C 35.4585 5.06332 1.7185 0
M  V30 425 C 36.7585 5.20242 -0.463178 0
M  V30 426 H 38.4525 2.94466 -0.541307 0
M  V30 427 H 35.9985 1.41601 -0.261764 0
M  V30 428 H 37.9515 3.84569 1.72293 0
M  V30 429 H 36.6755 2.62315 1.94573 0
M  V30 430 H 35.3345 3.66501 0.085054 0
M  V30 431 H 34.9825 4.39186 2.45203 0
M  V30 432 H 34.6825 5.72762 1.31213 0
M  V30 433 H 36.2065 5.67899 2.24329 0
M  V30 434 H 37.6205 5.73293 -0.027502 0
M  V30 435 H 36.0175 5.94896 -0.788627 0
M  V30 436 H 37.0875 4.65504 -1.35773 0
M  V30 437 N 38.4306 0.297415 1.54768 0
M  V30 438 C 39.6786 -0.312295 1.99673 0
M  V30 439 C 39.9996 -1.54686 1.18732 0
M  V30 440 O 39.2696 -1.93854 0.282382 0
M  V30 441 H 37.8496 -0.118381 0.73756 0
M  V30 442 H 40.5116 0.407915 1.90583 0
M  V30 443 H 39.6076 -0.586813 3.06534 0
M  V30 444 N 39.9087 -1.5758 0.0250728 0
M  V30 445 C 41.1367 -1.9593 -0.664747 0
M  V30 446 C 41.5517 -0.901352 -1.65895 0
M  V30 447 O 40.9087 0.117255 -1.82123 0
M  V30 448 C 40.9597 -3.34342 -1.37468 0
M  V30 449 O 40.6807 -4.36079 -0.420324 0
M  V30 450 C 42.1817 -3.873 -2.1567 0
M  V30 451 H 39.4017 -0.645405 -0.183557 0
M  V30 452 H 41.9457 -2.04329 0.0836372 0
M  V30 453 H 40.1007 -3.27175 -2.0745 0
M  V30 454 H 40.5147 -5.16297 -0.923991 0
M  V30 455 H 41.9887 -4.86504 -2.60803 0
M  V30 456 H 42.4657 -3.21331 -2.99405 0
M  V30 457 H 43.0717 -3.97723 -1.50654 0
M  V30 458 N 41.3868 0.248026 -1.55636 0
M  V30 459 C 42.6358 0.974134 -1.76617 0
M  V30 460 C 42.9488 1.86528 -0.588796 0
M  V30 461 O 44.1548 2.62805 -0.681594 0
M  V30 462 C 42.6108 1.78213 -3.12679 0
M  V30 463 C 42.2188 0.93843 -4.38061 0
M  V30 464 C 43.9628 2.50104 -3.42999 0
M  V30 465 C 41.8698 1.74225 -5.65155 0
M  V30 466 H 40.7998 0.36745 -0.658405 0
M  V30 467 H 43.4508 0.22884 -1.82067 0
M  V30 468 H 41.8328 2.56933 -3.01333 0
M  V30 469 H 43.0068 0.193635 -4.60393 0
M  V30 470 H 41.3218 0.332905 -4.15067 0
M  V30 471 H 43.9188 3.10694 -4.3517 0
M  V30 472 H 44.2618 3.21662 -2.64271 0
M  V30 473 H 44.7948 1.78395 -3.55556 0
M  V30 474 H 41.5338 1.07043 -6.46701 0
M  V30 475 H 41.0538 2.46235 -5.46926 0
M  V30 476 H 42.7328 2.30967 -6.0437 0
M  V30 477 N 42.8649 1.48995 0.513639 0
M  V30 478 C 44.1119 1.57843 1.26854 0
M  V30 479 C 44.4399 0.259501 1.92761 0
M  V30 480 O 43.6949 -0.75159 1.80692 0
M  V30 481 C 43.9939 2.67756 2.36731 0
M  V30 482 C 43.6599 4.09669 1.88368 0
M  V30 483 C 42.3219 4.48291 1.74896 0
M  V30 484 C 44.6739 4.98537 1.52021 0
M  V30 485 C 42.0019 5.73568 1.23438 0
M  V30 486 C 44.3539 6.24319 1.0202 0
M  V30 487 C 43.0179 6.61783 0.871778 0
M  V30 488 H 42.2879 0.577587 0.464192 0
M  V30 489 H 44.9349 1.82778 0.571366 0
M  V30 490 H 43.2399 2.36743 3.12185 0
M  V30 491 H 44.9369 2.71813 2.9482 0
M  V30 492 H 41.5269 3.79176 1.99808 0
M  V30 493 H 45.7109 4.69363 1.61281 0
M  V30 494 H 40.9669 6.01304 1.10648 0
M  V30 495 H 45.1409 6.92566 0.729722 0
M  V30 496 H 42.7679 7.5874 0.470852 0
M  V30 497 N 44.343 -0.763751 1.37857 0
M  V30 498 C 45.591 -1.51957 1.33243 0
M  V30 499 C 45.912 -1.94835 -0.0801709 0
M  V30 500 O 45.182 -1.66894 -1.02582 0
M  V30 501 H 43.762 -0.563626 0.49024 0
M  V30 502 H 46.424 -0.908504 1.7243 0
M  V30 503 H 45.52 -2.41523 1.97669 0
M  V30 504 N 45.8211 -1.22559 -0.990812 0
M  V30 505 C 47.0691 -1.04933 -1.72724 0
M  V30 506 C 47.3901 0.416158 -1.90508 0
M  V30 507 O 46.6601 1.29918 -1.46622 0
M  V30 508 H 45.2401 -0.385296 -0.639965 0
M  V30 509 H 47.9021 -1.54105 -1.19322 0
M  V30 510 H 46.9981 -1.52886 -2.72089 0
M  V30 511 N 47.2992 1.18797 -1.03562 0
M  V30 512 C 48.2462 2.22253 -0.622259 0
M  V30 513 C 49.2162 1.61987 0.36736 0
M  V30 514 O 50.4012 1.88986 0.262492 0
M  V30 515 C 47.5412 3.45097 0.0138462 0
M  V30 516 C 46.6542 4.19722 -1.02263 0
M  V30 517 C 45.7892 5.30009 -0.355573 0
M  V30 518 C 44.8282 5.96399 -1.37749 0
M  V30 519 N 43.9652 6.98234 -0.735766 0
M  V30 520 H 48.8052 2.56968 -1.50903 0
M  V30 521 H 46.3422 1.26245 -0.755017 0
M  V30 522 H 48.3002 4.15279 0.399948 0
M  V30 523 H 46.9302 3.11018 0.864158 0
M  V30 524 H 45.9822 3.48418 -1.52673 0
M  V30 525 H 47.2942 4.65227 -1.79903 0
M  V30 526 H 46.4482 6.0664 0.0850095 0
M  V30 527 H 45.1872 4.85592 0.452967 0
M  V30 528 H 44.1922 5.18512 -1.82826 0
M  V30 529 H 45.4172 6.42899 -2.18764 0
M  V30 530 H 43.3632 6.55979 0.0525597 0
M  V30 531 H 43.2802 7.41965 -1.44995 0
M  V30 532 H 44.5482 7.78845 -0.31941 0
M  V30 533 N 48.7773 0.814389 1.34928 0
M  V30 534 C 50.0233 0.399013 1.98836 0
M  V30 535 C 50.3563 -1.03314 1.64438 0
M  V30 536 O 49.6313 -1.71811 0.911659 0
M  V30 537 C 49.9143 0.591629 3.55207 0
M  V30 538 C 49.7673 2.06928 3.99376 0
M  V30 539 C 51.0863 0.022199 4.40094 0
M  V30 540 H 48.2053 0.146451 0.722303 0
M  V30 541 H 50.8473 1.02537 1.59957 0
M  V30 542 H 48.9973 0.0584441 3.88456 0
M  V30 543 H 50.6693 2.66544 3.76499 0
M  V30 544 H 48.9123 2.56287 3.49999 0
M  V30 545 H 49.5833 2.1549 5.08201 0
M  V30 546 H 52.0593 0.477643 4.13349 0
M  V30 547 H 50.9353 0.186832 5.48582 0
M  V30 548 H 51.1963 -1.07215 4.28902 0
M  V30 549 N 50.2554 -1.46986 0.568584 0
M  V30 550 C 51.1854 -2.32946 -0.160753 0
M  V30 551 C 52.1664 -1.44487 -0.897631 0
M  V30 552 O 53.3514 -1.73327 -0.875867 0
M  V30 553 C 50.4814 -3.26494 -1.18403 0
M  V30 554 C 49.4354 -4.24282 -0.562895 0
M  V30 555 C 48.7614 -5.07236 -1.69163 0
M  V30 556 C 50.0614 -5.19989 0.490761 0
M  V30 557 H 51.7554 -2.94175 0.556916 0
M  V30 558 H 49.3014 -1.4146 0.26927 0
M  V30 559 H 51.2544 -3.85477 -1.70251 0
M  V30 560 H 49.9784 -2.63343 -1.93179 0
M  V30 561 H 48.6374 -3.66541 -0.0656164 0
M  V30 562 H 48.2854 -4.4048 -2.42871 0
M  V30 563 H 47.9854 -5.7345 -1.28174 0
M  V30 564 H 49.5094 -5.6908 -2.21314 0
M  V30 565 H 50.9234 -5.73271 0.0579047 0
M  V30 566 H 49.3204 -5.94469 0.820165 0
M  V30 567 H 50.3904 -4.64777 1.3824 0
M  V30 568 N 51.7335 -0.305618 -1.54608 0
M  V30 569 C 52.6965 0.555591 -2.22364 0
M  V30 570 C 53.6965 1.05768 -1.21119 0
M  V30 571 O 54.8865 0.952972 -1.45822 0
M  V30 572 C 52.0185 1.76974 -2.91364 0
M  V30 573 H 53.2115 -0.0364572 -2.99878 0
M  V30 574 H 50.7645 -0.0565007 -1.56198 0
M  V30 575 H 51.4995 2.40151 -2.17941 0
M  V30 576 H 51.2845 1.41732 -3.65588 0
M  V30 577 H 52.7745 2.38148 -3.43038 0
M  V30 578 N 53.2116 1.57565 -0.0334293 0
M  V30 579 C 54.4416 1.95996 0.653398 0
M  V30 580 C 54.8496 0.908749 1.65947 0
M  V30 581 O 54.1926 -0.117471 1.83324 0
M  V30 582 C 54.2546 3.30589 1.41249 0
M  V30 583 C 53.9186 4.53503 0.564263 0
M  V30 584 C 54.9156 5.19647 -0.16225 0
M  V30 585 C 52.6006 4.99801 0.500398 0
M  V30 586 C 54.5946 6.30412 -0.941255 0
M  V30 587 C 52.2816 6.10448 -0.282308 0
M  V30 588 C 53.2796 6.75612 -1.00184 0
M  V30 589 O 52.9676 7.84134 -1.77171 0
M  V30 590 H 52.6996 0.65027 0.184728 0
M  V30 591 H 55.2536 2.05199 -0.0907841 0
M  V30 592 H 53.4836 3.17888 2.20191 0
M  V30 593 H 55.1726 3.53892 1.98784 0
M  V30 594 H 55.9386 4.84846 -0.12227 0
M  V30 595 H 51.8176 4.48883 1.05002 0
M  V30 596 H 55.3616 6.81208 -1.50339 0
M  V30 597 H 51.2586 6.44686 -0.323989 0
M  V30 598 H 52.0266 8.00822 -1.69194 0
M  V30 599 N 54.6897 -0.239769 1.55765 0
M  V30 600 C 55.9387 -0.964754 1.77131 0
M  V30 601 C 56.2517 -1.86213 0.59868 0
M  V30 602 O 57.4577 -2.6244 0.695522 0
M  V30 603 C 55.9137 -1.76552 3.1362 0
M  V30 604 C 55.5217 -0.915185 4.38553 0
M  V30 605 C 57.2657 -2.48281 3.44321 0
M  V30 606 C 55.1727 -1.71225 5.66071 0
M  V30 607 H 54.1027 -0.363953 0.660344 0
M  V30 608 H 56.7537 -0.219181 1.82186 0
M  V30 609 H 55.1357 -2.55331 3.02691 0
M  V30 610 H 56.3097 -0.169217 4.60489 0
M  V30 611 H 54.6247 -0.310889 4.15238 0
M  V30 612 H 57.2217 -3.08382 4.36812 0
M  V30 613 H 57.5647 -3.20256 2.65973 0
M  V30 614 H 58.0977 -1.76507 3.56497 0
M  V30 615 H 54.8367 -1.03612 6.4726 0
M  V30 616 H 54.3567 -2.43331 5.48224 0
M  V30 617 H 56.0357 -2.27758 6.05587 0
M  V30 618 N 56.1678 -1.49265 -0.50573 0
M  V30 619 C 57.4448 -1.49012 -1.26707 0
M  V30 620 C 57.8248 -0.215205 -2.1 0
M  V30 621 O 57.1728 0.802547 -2.13943 0
M  V30 622 C 57.3828 -2.7663 -2.12783 0
M  V30 623 C 58.7308 -3.25932 -2.72127 0
M  V30 624 O 59.7548 -2.77715 -2.23054 0
M  V30 625 O 58.6138 -4.09897 -3.61451 0
M  V30 626 H 55.7078 -0.596197 -0.57313 0
M  V30 627 H 58.2538 -1.61524 -0.52039 0
M  V30 628 H 57.0258 -3.60916 -1.5118 0
M  V30 629 H 56.6488 -2.66956 -2.94653 0
M  V30 630 N 57.6459 0.756429 -1.3826 0
M  V30 631 C 58.5559 1.9009 -1.37488 0
M  V30 632 C 59.5719 1.71855 -0.272366 0
M  V30 633 O 60.7479 1.94827 -0.510318 0
M  V30 634 C 57.8129 3.25421 -1.19592 0
M  V30 635 C 56.8739 3.56202 -2.39622 0
M  V30 636 C 56.1069 4.85075 -2.2257 0
M  V30 637 O 56.3299 5.57246 -1.21793 0
M  V30 638 O 55.2639 5.15269 -3.11098 0
M  V30 639 H 59.0899 1.93695 -2.33914 0
M  V30 640 H 56.6749 0.901313 -1.1915 0
M  V30 641 H 58.5569 4.06337 -1.11661 0
M  V30 642 H 57.2319 3.22634 -0.262486 0
M  V30 643 H 56.1389 2.75458 -2.53128 0
M  V30 644 H 57.4719 3.63747 -3.31586 0
M  V30 645 N 59.124 1.23083 0.984299 0
M  V30 646 C 60.373 1.05466 1.71929 0
M  V30 647 C 60.686 -0.409211 1.91272 0
M  V30 648 O 61.892 -0.705226 2.62181 0
M  V30 649 C 60.348 1.83874 3.09384 0
M  V30 650 C 59.956 3.34566 2.97943 0
M  V30 651 C 61.7 1.74734 3.8687 0
M  V30 652 C 59.607 4.05381 4.30605 0
M  V30 653 H 58.537 0.391039 0.644674 0
M  V30 654 H 61.188 1.47013 1.09815 0
M  V30 655 H 59.57 1.35131 3.72231 0
M  V30 656 H 60.744 3.90767 2.44209 0
M  V30 657 H 59.059 3.44476 2.33934 0
M  V30 658 H 61.656 2.24957 4.85076 0
M  V30 659 H 61.999 0.709372 4.10212 0
M  V30 660 H 62.532 2.21067 3.30717 0
M  V30 661 H 59.271 5.09467 4.1246 0
M  V30 662 H 58.791 3.53967 4.84218 0
M  V30 663 H 60.47 4.11458 4.99311 0
M  V30 664 N 60.6021 -1.18246 1.0419 0
M  V30 665 C 61.5651 -2.20128 0.638452 0
M  V30 666 C 62.5651 -1.57885 -0.304805 0
M  V30 667 O 63.7551 -1.73967 -0.0900369 0
M  V30 668 C 60.8871 -3.4084 -0.0637751 0
M  V30 669 H 62.0801 -2.57336 1.54007 0
M  V30 670 H 59.6331 -1.32152 0.834598 0
M  V30 671 H 60.3681 -3.09166 -0.979136 0
M  V30 672 H 60.1531 -3.8726 0.614198 0
M  V30 673 H 61.6431 -4.16274 -0.332512 0
M  V30 674 N 62.0802 -0.821533 -1.34494 0
M  V30 675 C 63.0432 -0.247847 -2.27856 0
M  V30 676 C 64.0432 0.573453 -1.50227 0
M  V30 677 O 65.2332 0.389759 -1.69784 0
M  V30 678 C 62.3652 0.652698 -3.34593 0
M  V30 679 H 63.5582 -1.07146 -2.80107 0
M  V30 680 H 61.1112 -0.593291 -1.44602 0
M  V30 681 H 61.8462 1.49943 -2.87555 0
M  V30 682 H 61.6312 0.065292 -3.92046 0
M  V30 683 H 63.1212 1.04793 -4.04238 0
M  V30 684 N 63.5583 1.46682 -0.576371 0
M  V30 685 C 64.4883 2.33028 0.148397 0
M  V30 686 C 65.4693 1.44961 0.889956 0
M  V30 687 O 66.6543 1.73789 0.866662 0
M  V30 688 C 63.7843 3.27117 1.1667 0
M  V30 689 C 62.7383 4.24575 0.540386 0
M  V30 690 C 62.0643 5.08126 1.6647 0
M  V30 691 C 63.3643 5.19722 -0.518331 0
M  V30 692 H 65.0583 2.93875 -0.572509 0
M  V30 693 H 62.6043 1.41315 -0.276768 0
M  V30 694 H 64.5573 3.86374 1.68204 0
M  V30 695 H 63.2813 2.64364 1.9178 0
M  V30 696 H 61.9403 3.66571 0.0461769 0
M  V30 697 H 61.5883 4.41762 2.40531 0
M  V30 698 H 61.2883 5.74122 1.25131 0
M  V30 699 H 62.8123 5.70246 2.18293 0
M  V30 700 H 64.2263 5.73232 -0.0883058 0
M  V30 701 H 62.6233 5.94026 -0.851679 0
M  V30 702 H 63.6933 4.64037 -1.40703 0
M  V30 703 N 65.0364 0.313813 1.54444 0
M  V30 704 C 66.2644 -0.293918 2.04802 0
M  V30 705 C 66.6794 -1.46537 1.19047 0
M  V30 706 O 66.0364 -1.81182 0.218939 0
M  V30 707 C 66.0874 -0.737806 3.53891 0
M  V30 708 O 65.8084 0.387038 4.36387 0
M  V30 709 C 67.3094 -1.40936 4.203 0
M  V30 710 H 64.5294 -0.0620057 0.668129 0
M  V30 711 H 67.0734 0.457169 1.99324 0
M  V30 712 H 65.2284 -1.43889 3.59687 0
M  V30 713 H 65.6424 0.0391274 5.24485 0
M  V30 714 H 67.1164 -1.67099 5.26101 0
M  V30 715 H 67.5934 -2.35355 3.70816 0
M  V30 716 H 68.1994 -0.751117 4.18615 0
M  V30 717 N 66.5145 -1.57545 0.0417849 0
M  V30 718 C 67.4775 -2.09885 -0.92093 0
M  V30 719 C 68.4775 -1.01648 -1.24596 0
M  V30 720 O 69.6675 -1.27759 -1.1842 0
M  V30 721 C 66.7995 -2.57527 -2.23367 0
M  V30 722 H 67.9925 -2.96236 -0.467382 0
M  V30 723 H 65.5455 -1.5493 -0.206467 0
M  V30 724 H 66.2805 -1.74542 -2.73323 0
M  V30 725 H 66.0655 -3.36613 -2.01083 0
M  V30 726 H 67.5555 -2.98201 -2.92346 0
M  V30 727 N 67.9926 0.231505 -1.5589 0
M  V30 728 C 68.9256 1.31369 -1.86595 0
M  V30 729 C 69.9036 1.45671 -0.722397 0
M  V30 730 O 71.0876 1.61642 -0.969743 0
M  V30 731 C 68.2146 2.68529 -2.06421 0
M  V30 732 C 67.2606 2.71295 -3.29092 0
M  V30 733 S 68.0936 2.26358 -4.85306 0
M  V30 734 C 69.2496 3.65414 -5.08157 0
M  V30 735 H 69.4826 1.05128 -2.78092 0
M  V30 736 H 67.0156 0.433259 -1.48197 0
M  V30 737 H 68.9736 3.47499 -2.18528 0
M  V30 738 H 67.6346 2.91999 -1.15738 0
M  V30 739 H 66.8276 3.72063 -3.39978 0
M  V30 740 H 66.4296 2.0038 -3.15791 0
M  V30 741 H 68.7216 4.6103 -4.96445 0
M  V30 742 H 69.6646 3.5945 -6.10083 0
M  V30 743 H 70.0726 3.5864 -4.35933 0
M  V30 744 N 69.4707 1.49531 0.497807 0
M  V30 745 C 70.4177 1.66436 1.59899 0
M  V30 746 C 71.3877 0.505793 1.58212 0
M  V30 747 O 72.5727 0.733202 1.7615 0
M  V30 748 C 69.7127 1.7399 2.98029 0
M  V30 749 C 68.8257 3.01172 3.09708 0
M  V30 750 C 67.9607 2.99686 4.38591 0
M  V30 751 C 66.9997 4.21434 4.43914 0
M  V30 752 N 66.1367 4.1784 5.64229 0
M  V30 753 H 70.9767 2.60459 1.44793 0
M  V30 754 H 68.5137 1.29137 0.704423 0
M  V30 755 H 70.4717 1.76352 3.78095 0
M  V30 756 H 69.1017 0.834301 3.11832 0
M  V30 757 H 68.1537 3.08408 2.22685 0
M  V30 758 H 69.4657 3.91165 3.09502 0
M  V30 759 H 68.6197 3.00628 5.2698 0
M  V30 760 H 67.3587 2.07477 4.41367 0
M  V30 761 H 66.3637 4.20733 3.53926 0
M  V30 762 H 67.5887 5.14839 4.42851 0
M  V30 763 H 65.5347 3.28469 5.67841 0
M  V30 764 H 65.4517 5.01571 5.65652 0
M  V30 765 H 66.7197 4.22889 6.54817 0
M  V30 766 N 70.9488 -0.749086 1.3866 0
M  V30 767 C 71.8988 -1.85368 1.32751 0
M  V30 768 C 72.8828 -1.59511 0.210945 0
M  V30 769 O 74.0748 -1.71255 0.447299 0
M  V30 770 C 71.2038 -3.23131 1.15935 0
M  V30 771 C 70.2898 -3.54864 2.32233 0
M  V30 772 N 70.6808 -3.57625 3.57684 0
M  V30 773 C 68.9788 -3.85154 2.24883 0
M  V30 774 C 69.6798 -3.86753 4.34508 0
M  V30 775 N 68.6558 -4.03812 3.63918 0
M  V30 776 H 72.4578 -1.85787 2.27729 0
M  V30 777 H 69.9718 -0.946658 1.31955 0
M  V30 778 H 71.9688 -4.02185 1.09786 0
M  V30 779 H 70.6288 -3.23961 0.218947 0
M  V30 780 H 71.6398 -3.39276 3.91295 0
M  V30 781 H 68.3168 -3.93672 1.39027 0
M  V30 782 H 69.7068 -3.95474 5.43185 0
M  V30 783 N 72.4269 -1.23603 -0.977757 0
M  V30 784 C 73.3899 -1.02069 -2.05218 0
M  V30 785 C 74.3899 0.0184305 -1.60789 0
M  V30 786 O 75.5799 -0.221569 -1.72785 0
M  V30 787 C 72.7119 -0.544926 -3.36517 0
M  V30 788 H 73.9049 -1.9742 -2.25755 0
M  V30 789 H 71.4579 -1.05684 -1.15155 0
M  V30 790 H 72.1929 0.412241 -3.21669 0
M  V30 791 H 71.9779 -1.2948 -3.70105 0
M  V30 792 H 73.4679 -0.414985 -4.15533 0
M  V30 793 N 73.905 1.17692 -1.04816 0
M  V30 794 C 74.853 2.23632 -0.63966 0
M  V30 795 C 75.847 1.6601 0.337219 0
M  V30 796 O 77.053 1.78844 0.203693 0
M  V30 797 H 73.428 0.727949 -0.188665 0
M  V30 798 H 75.399 2.55387 -1.54337 0
M  V30 799 C 74.148 3.4769 -0.0264051 0
M  V30 800 H 73.471 3.92331 -0.769164 0
M  V30 801 H 74.911 4.23418 0.222098 0
M  V30 802 C 73.37 3.13807 1.22584 0
M  V30 803 O 73.9 3.28236 2.31569 0
M  V30 804 N 72.106 2.68065 1.12202 0
M  V30 805 H 71.653 2.56525 0.235133 0
M  V30 806 H 71.611 2.45767 1.96076 0
M  V30 807 N 75.3831 0.828654 1.34056 0
M  V30 808 C 76.6081 0.431637 2.02859 0
M  V30 809 C 77.0331 -0.956339 1.61975 0
M  V30 810 O 76.3911 -1.62338 0.807228 0
M  V30 811 C 76.4391 0.548323 3.56407 0
M  V30 812 O 75.5431 -0.429556 4.10157 0
M  V30 813 H 74.8841 0.176886 0.640006 0
M  V30 814 H 77.4141 1.12066 1.71179 0
M  V30 815 H 77.4241 0.426196 4.05768 0
M  V30 816 H 76.0991 1.5606 3.8551 0
M  V30 817 H 74.6761 -0.265836 3.71951 0
M  V30 818 N 76.8612 -1.46375 0.584142 0
M  V30 819 C 77.8242 -2.28784 -0.138108 0
M  V30 820 C 78.8242 -1.38471 -0.817462 0
M  V30 821 O 80.0142 -1.60833 -0.669199 0
M  V30 822 C 77.1462 -3.18892 -1.20503 0
M  V30 823 H 78.3392 -2.94117 0.586127 0
M  V30 824 H 75.8922 -1.52509 0.342171 0
M  V30 825 H 76.6272 -2.58309 -1.96079 0
M  V30 826 H 76.4122 -3.85388 -0.722384 0
M  V30 827 H 77.9022 -3.80914 -1.71155 0
M  V30 828 N 78.3393 -0.321999 -1.54275 0
M  V30 829 C 79.5853 0.281461 -2.00837 0
M  V30 830 C 79.9183 1.51909 -1.20985 0
M  V30 831 O 79.1933 1.923 -0.291733 0
M  V30 832 C 79.4763 0.617162 -3.54772 0
M  V30 833 C 79.3293 -0.631064 -4.45351 0
M  V30 834 C 80.6483 1.43542 -4.16033 0
M  V30 835 H 77.7673 0.100826 -0.730071 0
M  V30 836 H 80.4093 -0.438268 -1.84876 0
M  V30 837 H 78.5593 1.23034 -3.68504 0
M  V30 838 H 80.2313 -1.26934 -4.43492 0
M  V30 839 H 78.4743 -1.26025 -4.15091 0
M  V30 840 H 79.1453 -0.351735 -5.50878 0
M  V30 841 H 81.6213 0.917134 -4.05867 0
M  V30 842 H 80.4973 1.63907 -5.23856 0
M  V30 843 H 80.7583 2.43108 -3.69257 0
M  V30 844 N 79.8174 1.5752 -0.0501392 0
M  V30 845 C 81.0634 1.92936 0.624798 0
M  V30 846 C 81.3964 0.928685 1.70555 0
M  V30 847 O 80.6714 -0.0454779 1.94447 0
M  V30 848 C 80.9544 3.38737 1.22185 0
M  V30 849 C 80.8074 4.49552 0.149218 0
M  V30 850 C 82.1264 3.84913 2.13378 0
M  V30 851 H 79.2454 0.701604 0.225657 0
M  V30 852 H 81.8874 1.89671 -0.111693 0
M  V30 853 H 80.0374 3.4165 1.84953 0
M  V30 854 H 81.7094 4.58768 -0.482648 0
M  V30 855 H 79.9524 4.30638 -0.522841 0
M  V30 856 H 80.6234 5.48653 0.606966 0
M  V30 857 H 83.0994 3.8387 1.60572 0
M  V30 858 H 81.9754 4.87584 2.52097 0
M  V30 859 H 82.2364 3.21611 3.03346 0
M  V30 860 N 81.2955 -0.223234 1.56011 0
M  V30 861 C 82.5235 -0.964812 1.83027 0
M  V30 862 C 82.9385 -1.78013 0.62904 0
M  V30 863 O 82.2955 -1.78008 -0.402414 0
M  V30 864 C 82.3465 -1.88373 3.08542 0
M  V30 865 O 82.0675 -1.10137 4.2403 0
M  V30 866 C 83.5685 -2.73934 3.48533 0
M  V30 867 H 80.7885 -0.282842 0.608475 0
M  V30 868 H 83.3325 -0.238971 2.03099 0
M  V30 869 H 81.4875 -2.56354 2.9045 0
M  V30 870 H 81.9015 -1.72501 4.95322 0
M  V30 871 H 83.3755 -3.34117 4.39397 0
M  V30 872 H 83.8525 -3.46244 2.70207 0
M  V30 873 H 84.4585 -2.11369 3.69057 0
M  V30 874 N 82.7736 -1.49793 -0.48987 0
M  V30 875 C 83.7366 -1.66752 -1.57246 0
M  V30 876 C 84.7366 -0.538867 -1.51502 0
M  V30 877 O 85.9266 -0.805545 -1.54456 0
M  V30 878 C 83.0586 -1.67528 -2.96896 0
M  V30 879 H 84.2516 -2.63321 -1.43534 0
M  V30 880 H 81.8046 -1.38992 -0.714914 0
M  V30 881 H 82.5396 -0.725837 -3.16073 0
M  V30 882 H 82.3246 -2.49504 -3.02473 0
M  V30 883 H 83.8146 -1.82667 -3.7553 0
M  V30 884 N 84.2517 0.741722 -1.39055 0
M  V30 885 C 85.4767 1.53607 -1.39354 0
M  V30 886 C 85.9017 1.88096 0.0116905 0
M  V30 887 O 85.2597 1.5143 0.996924 0
M  V30 888 C 85.3077 2.80441 -2.26682 0
M  V30 889 O 84.4117 3.76088 -1.69208 0
M  V30 890 H 83.7527 0.464142 -0.474835 0
M  V30 891 H 86.2827 0.915665 -1.82967 0
M  V30 892 H 86.2927 3.29246 -2.40959 0
M  V30 893 H 84.9677 2.5467 -3.2881 0
M  V30 894 H 83.5447 3.34833 -1.64138 0
M  V30 895 N 85.7298 1.2412 0.971189 0
M  V30 896 C 86.9788 1.07284 1.70801 0
M  V30 897 C 87.2918 -0.388902 1.91695 0
M  V30 898 O 88.4978 -0.677379 2.62914 0
M  V30 899 C 86.9538 1.87145 3.07416 0
M  V30 900 C 86.5618 3.37707 2.94377 0
M  V30 901 C 88.3058 1.78828 3.84995 0
M  V30 902 C 86.2128 4.09925 4.26281 0
M  V30 903 H 85.1428 0.397854 0.64049 0
M  V30 904 H 87.7938 1.4817 1.0825 0
M  V30 905 H 86.1758 1.39071 3.70777 0
M  V30 906 H 87.3498 3.93335 2.4005 0
M  V30 907 H 85.6648 3.46938 2.30267 0
M  V30 908 H 88.2618 2.30089 4.82662 0
M  V30 909 H 88.6048 0.75284 4.09436 0
M  V30 910 H 89.1378 2.24563 3.28354 0
M  V30 911 H 85.8768 5.13813 4.07033 0
M  V30 912 H 85.3968 3.59083 4.80437 0
M  V30 913 H 87.0758 4.1673 4.94919 0
M  V30 914 N 87.2079 -1.17134 1.05439 0
M  V30 915 C 88.4849 -1.83411 0.679699 0
M  V30 916 C 88.8649 -1.9368 -0.839726 0
M  V30 917 O 88.2129 -1.47325 -1.74664 0
M  V30 918 C 88.4229 -3.20918 1.37159 0
M  V30 919 C 89.7709 -3.96796 1.51123 0
M  V30 920 O 90.7949 -3.30406 1.3308 0
M  V30 921 O 89.6539 -5.15778 1.80651 0
M  V30 922 H 86.7479 -0.79154 0.239569 0
M  V30 923 H 89.2939 -1.24411 1.15413 0
M  V30 924 H 88.0659 -3.08428 2.40807 0
M  V30 925 H 87.6889 -3.87587 0.886674 0
M  V30 926 N 88.686 -0.835752 -1.33615 0
M  V30 927 C 89.911 -0.442389 -2.02627 0
M  V30 928 C 90.336 0.947735 -1.62479 0
M  V30 929 O 89.694 1.61907 -0.815826 0
M  V30 930 C 89.742 -0.567216 -3.56111 0
M  V30 931 O 88.846 0.407799 -4.10379 0
M  V30 932 H 88.187 -0.180278 -0.639059 0
M  V30 933 H 90.717 -1.12972 -1.70583 0
M  V30 934 H 90.727 -0.447708 -4.05536 0
M  V30 935 H 89.402 -1.58103 -3.84677 0
M  V30 936 H 87.979 0.246107 -3.72087 0
M  V30 937 N 90.1641 1.46063 -0.591896 0
M  V30 938 C 91.4101 2.02638 -0.0811191 0
M  V30 939 C 91.7431 1.4613 1.27905 0
M  V30 940 O 91.0181 0.629908 1.84017 0
M  V30 941 C 91.3011 3.60091 -0.0252436 0
M  V30 942 C 91.1541 4.26965 -1.41496 0
M  V30 943 C 92.4731 4.3496 0.670685 0
M  V30 944 H 89.5921 0.73635 -0.0309524 0
M  V30 945 H 92.2341 1.741 -0.760859 0
M  V30 946 H 90.3841 3.84535 0.553624 0
M  V30 947 H 92.0561 4.13756 -2.0397 0
M  V30 948 H 90.2991 3.85971 -1.98011 0
M  V30 949 H 90.9701 5.35781 -1.32825 0
M  V30 950 H 93.4461 4.15716 0.178825 0
M  V30 951 H 92.3221 5.44686 0.678837 0
M  V30 952 H 92.5831 4.06685 1.73379 0
M  V30 953 N 91.6422 0.330177 1.54103 0
M  V30 954 C 92.9192 -0.325007 1.92881 0
M  V30 955 C 93.2992 -1.6934 1.26045 0
M  V30 956 O 92.6472 -2.24855 0.406526 0
M  V30 957 C 92.8572 -0.410634 3.46576 0
M  V30 958 C 94.2052 -0.667801 4.19316 0
M  V30 959 O 95.2292 -0.49329 3.52768 0
M  V30 960 O 94.0882 -1.00491 5.37181 0
M  V30 961 H 91.1822 -0.186873 0.80561 0
M  V30 962 H 93.7282 0.380376 1.65382 0
M  V30 963 H 92.5002 0.550164 3.87413 0
M  V30 964 H 92.1232 -1.16333 3.802 0
M  V30 965 N 93.1203 -1.57491 0.0584922 0
M  V30 966 C 94.3673 -1.92978 -0.613648 0
M  V30 967 C 94.6953 -0.937461 -1.70417 0
M  V30 968 O 93.9503 0.049078 -1.95638 0
M  V30 969 C 94.2493 -3.3513 -1.24188 0
M  V30 970 C 93.9153 -4.50037 -0.278826 0
M  V30 971 C 92.5773 -4.81198 -0.0138447 0
M  V30 972 C 94.9293 -5.19807 0.380777 0
M  V30 973 C 92.2573 -5.79473 0.918052 0
M  V30 974 C 94.6093 -6.19079 1.30091 0
M  V30 975 C 93.2733 -6.48665 1.57449 0
M  V30 976 H 92.5433 -0.706157 -0.22455 0
M  V30 977 H 95.1903 -1.91082 0.126533 0
M  V30 978 H 93.4953 -3.33429 -2.05749 0
M  V30 979 H 95.1923 -3.59871 -1.769 0
M  V30 980 H 91.7823 -4.25726 -0.495539 0
M  V30 981 H 95.9663 -4.95939 0.189158 0
M  V30 982 H 91.2223 -6.00727 1.1374 0
M  V30 983 H 95.3963 -6.7225 1.81804 0
M  V30 984 H 93.0233 -7.24628 2.29822 0
M  V30 985 N 94.5984 0.214957 -1.56127 0
M  V30 986 C 95.5454 1.26642 -1.92952 0
M  V30 987 C 96.5154 1.46244 -0.78753 0
M  V30 988 O 97.7004 1.59704 -1.04399 0
M  V30 989 C 94.8404 2.6104 -2.25726 0
M  V30 990 C 93.9534 2.49183 -3.52891 0
M  V30 991 C 93.0884 3.76149 -3.7508 0
M  V30 992 C 92.1274 3.59041 -4.95738 0
M  V30 993 N 91.2644 4.77972 -5.14283 0
M  V30 994 H 96.1044 0.945384 -2.82607 0
M  V30 995 H 93.6414 0.455489 -1.3987 0
M  V30 996 H 95.5994 3.39313 -2.42739 0
M  V30 997 H 94.2294 2.91227 -1.39236 0
M  V30 998 H 93.2814 1.6231 -3.44034 0
M  V30 999 H 94.5934 2.32466 -4.41318 0
M  V30 1000 H 93.7474 4.62865 -3.92226 0
M  V30 1001 H 92.4864 3.95799 -2.84947 0
M  V30 1002 H 91.4914 2.7071 -4.78535 0
M  V30 1003 H 92.7164 3.40856 -5.87362 0
M  V30 1004 H 90.6624 4.97923 -4.27093 0
M  V30 1005 H 90.5794 4.64006 -5.96853 0
M  V30 1006 H 91.8474 5.66096 -5.35869 0
M  V30 1007 N 96.0765 1.50051 0.48192 0
M  V30 1008 C 97.3015 1.64508 1.26301 0
M  V30 1009 C 97.7265 0.323851 1.85291 0
M  V30 1010 O 97.0845 -0.710969 1.66778 0
M  V30 1011 C 97.1325 2.7305 2.35533 0
M  V30 1012 O 96.2365 2.3355 3.39895 0
M  V30 1013 H 95.5775 0.549978 0.372048 0
M  V30 1014 H 98.1075 1.9636 0.574786 0
M  V30 1015 H 98.1175 2.95799 2.8101 0
M  V30 1016 H 96.7925 3.68946 1.91967 0
M  V30 1017 H 95.3695 2.21205 3.00204 0
M  V30 1018 N 97.5546 -0.734337 1.39446 0
M  V30 1019 C 98.7796 -1.52866 1.40167 0
M  V30 1020 C 99.2046 -1.881 -0.00171513 0
M  V30 1021 O 98.5626 -1.51957 -0.988879 0
M  V30 1022 C 98.6106 -2.79235 2.28167 0
M  V30 1023 O 97.7146 -3.75185 1.71201 0
M  V30 1024 H 97.0556 -0.461618 0.477289 0
M  V30 1025 H 99.5856 -0.905949 1.8345 0
M  V30 1026 H 99.5956 -3.27963 2.42702 0
M  V30 1027 H 98.2706 -2.52923 3.30156 0
M  V30 1028 H 96.8476 -3.33958 1.65912 0
M  V30 1029 N 99.0327 -1.24633 -0.964593 0
M  V30 1030 C 99.9957 -1.0424 -2.04124 0
M  V30 1031 C 100.996 0.00137563 -1.608 0
M  V30 1032 O 102.186 -0.239883 -1.7254 0
M  V30 1033 C 99.3177 -0.580588 -3.3592 0
M  V30 1034 H 100.511 -1.99803 -2.23649 0
M  V30 1035 H 98.0637 -1.06899 -1.14027 0
M  V30 1036 H 98.7987 0.3781 -3.22088 0
M  V30 1037 H 98.5837 -1.33398 -3.6871 0
M  V30 1038 H 100.074 -0.459034 -4.15069 0
M  V30 1039 N 100.511 1.16574 -1.06058 0
M  V30 1040 C 101.739 1.90952 -0.796552 0
M  V30 1041 C 102.154 1.77302 0.648808 0
M  V30 1042 O 101.511 1.11605 1.44397 0
M  V30 1043 C 101.562 3.41736 -1.17894 0
M  V30 1044 O 101.283 3.54975 -2.56758 0
M  V30 1045 C 102.784 4.33169 -0.942308 0
M  V30 1046 H 100.004 0.605594 -0.288959 0
M  V30 1047 H 102.548 1.47777 -1.41358 0
M  V30 1048 H 100.703 3.82623 -0.606491 0
M  V30 1049 H 101.117 4.4846 -2.72 0
M  V30 1050 H 102.591 5.37439 -1.25952 0
M  V30 1051 H 103.068 4.3903 0.122078 0
M  V30 1052 H 103.674 3.98007 -1.49902 0
M  V30 1053 N 101.989 0.842826 1.3317 0
M  V30 1054 C 103.235 0.441099 1.97945 0
M  V30 1055 C 103.568 -0.998024 1.66593 0
M  V30 1056 O 102.843 -1.69839 0.947898 0
M  V30 1057 C 103.126 0.666841 3.53872 0
M  V30 1058 C 102.979 2.15352 3.94897 0
M  V30 1059 C 104.298 0.115544 4.39948 0
M  V30 1060 H 101.417 0.161739 0.719034 0
M  V30 1061 H 104.059 1.05907 1.57746 0
M  V30 1062 H 102.209 0.140828 3.88245 0
M  V30 1063 H 103.881 2.7447 3.70761 0
M  V30 1064 H 102.124 2.63653 3.44484 0
M  V30 1065 H 102.795 2.26221 5.03516 0
M  V30 1066 H 105.271 0.565213 4.12243 0
M  V30 1067 H 104.147 0.303152 5.48062 0
M  V30 1068 H 104.408 -0.980935 4.3108 0
M  V30 1069 N 103.467 -1.45747 0.599634 0
M  V30 1070 C 104.715 -2.01893 0.0915472 0
M  V30 1071 C 105.036 -1.47155 -1.27946 0
M  V30 1072 O 104.306 -0.66273 -1.84349 0
M  V30 1073 H 102.886 -0.746363 0.0308524 0
M  V30 1074 H 105.548 -1.78645 0.779237 0
M  V30 1075 H 104.644 -3.1208 0.0353086 0
M  V30 1076 N 104.945 -0.338344 -1.53925 0
M  V30 1077 C 106.222 0.314774 -1.93051 0
M  V30 1078 C 106.602 1.68669 -1.26941 0
M  V30 1079 O 105.95 2.24636 -0.418445 0
M  V30 1080 C 106.16 0.392249 -3.46789 0
M  V30 1081 C 107.508 0.645554 -4.19664 0
M  V30 1082 O 108.532 0.474575 -3.53024 0
M  V30 1083 O 107.391 0.976408 -5.37707 0
M  V30 1084 H 104.485 0.182598 -0.80659 0
M  V30 1085 H 107.031 -0.389141 -1.65178 0
M  V30 1086 H 105.803 -0.570702 -3.87116 0
M  V30 1087 H 105.426 1.14316 -3.80812 0
M  V30 1088 N 106.423 1.57458 -0.0668435 0
M  V30 1089 C 107.386 2.11323 0.887422 0
M  V30 1090 C 108.386 1.03618 1.22964 0
M  V30 1091 O 109.576 1.29626 1.16373 0
M  V30 1092 C 106.708 2.61048 2.19242 0
M  V30 1093 H 107.901 2.96942 0.420194 0
M  V30 1094 H 105.454 1.55239 0.181793 0
M  V30 1095 H 106.189 1.78868 2.70512 0
M  V30 1096 H 105.974 3.39769 1.95702 0
M  V30 1097 H 107.464 3.02814 2.87565 0
M  V30 1098 N 107.901 -0.206675 1.56239 0
M  V30 1099 C 108.831 -1.25909 1.96645 0
M  V30 1100 C 109.812 -1.48097 0.836734 0
M  V30 1101 O 110.997 -1.6003 1.10019 0
M  V30 1102 C 108.127 -2.6058 2.29599 0
M  V30 1103 C 107.081 -2.53024 3.452 0
M  V30 1104 C 106.407 -3.91861 3.63798 0
M  V30 1105 C 107.707 -2.06524 4.79734 0
M  V30 1106 H 109.401 -0.923369 2.84806 0
M  V30 1107 H 106.947 -0.442735 1.37025 0
M  V30 1108 H 108.9 -3.34375 2.56459 0
M  V30 1109 H 107.624 -2.95869 1.38307 0
M  V30 1110 H 106.283 -1.81684 3.18412 0
M  V30 1111 H 105.931 -4.24483 2.69857 0
M  V30 1112 H 105.631 -3.87683 4.4156 0
M  V30 1113 H 107.155 -4.67296 3.93022 0
M  V30 1114 H 108.569 -2.70072 5.05702 0
M  V30 1115 H 106.966 -2.13374 5.60885 0
M  V30 1116 H 108.036 -1.01802 4.74093 0
M  V30 1117 N 109.379 -1.50304 -0.473955 0
M  V30 1118 C 110.289 -1.7174 -1.5982 0
M  V30 1119 C 111.305 -0.600457 -1.63311 0
M  V30 1120 O 112.481 -0.878441 -1.81233 0
M  V30 1121 C 109.546 -1.80427 -2.96052 0
M  V30 1122 C 108.607 -3.04148 -3.02972 0
M  V30 1123 C 107.84 -3.12411 -4.32706 0
M  V30 1124 O 108.063 -2.27542 -5.23049 0
M  V30 1125 O 106.997 -4.05113 -4.45159 0
M  V30 1126 H 110.823 -2.67035 -1.44657 0
M  V30 1127 H 108.408 -1.34366 -0.653148 0
M  V30 1128 H 110.29 -1.88338 -3.7697 0
M  V30 1129 H 108.965 -0.883156 -3.11419 0
M  V30 1130 H 107.872 -3.0174 -2.21142 0
M  V30 1131 H 109.205 -3.95829 -2.92541 0
M  V30 1132 N 110.857 0.726932 -1.39834 0
M  V30 1133 C 111.787 1.85405 -1.41941 0
M  V30 1134 C 112.768 1.67751 -0.281728 0
M  V30 1135 O 113.953 1.8795 -0.488717 0
M  V30 1136 C 111.083 3.23243 -1.2701 0
M  V30 1137 C 110.037 3.55549 -2.38262 0
M  V30 1138 C 109.363 4.9241 -2.08415 0
M  V30 1139 C 110.663 3.577 -3.80589 0
M  V30 1140 H 112.357 1.83899 -2.36266 0
M  V30 1141 H 109.903 0.883349 -1.13723 0
M  V30 1142 H 111.856 4.01775 -1.27103 0
M  V30 1143 H 110.58 3.25296 -0.291564 0
M  V30 1144 H 109.239 2.79351 -2.37399 0
M  V30 1145 H 108.887 4.91052 -1.0898 0
M  V30 1146 H 108.587 5.14992 -2.82943 0
M  V30 1147 H 110.111 5.73289 -2.10171 0
M  V30 1148 H 111.525 4.26293 -3.83337 0
M  V30 1149 H 109.922 3.91804 -4.54543 0
M  V30 1150 H 110.992 2.57328 -4.10987 0
M  V30 1151 N 112.336 1.25143 0.95797 0
M  V30 1152 C 113.246 1.06968 2.08794 0
M  V30 1153 C 114.262 0.00773911 1.73998 0
M  V30 1154 O 115.438 0.207972 2.00323 0
M  V30 1155 C 112.503 0.68691 3.39827 0
M  V30 1156 C 111.564 1.82641 3.88511 0
M  V30 1157 C 110.797 1.46181 5.1329 0
M  V30 1158 O 111.02 0.355971 5.69288 0
M  V30 1159 O 109.954 2.29085 5.566 0
M  V30 1160 H 113.78 2.01723 2.27027 0
M  V30 1161 H 111.365 1.04051 1.07209 0
M  V30 1162 H 113.247 0.485417 4.18595 0
M  V30 1163 H 111.922 -0.231417 3.22872 0
M  V30 1164 H 110.829 2.08274 3.10762 0
M  V30 1165 H 112.162 2.72386 4.09959 0
M  V30 1166 N 113.814 -1.1601 1.06675 0
M  V30 1167 C 115.062 -1.86264 0.784229 0
M  V30 1168 C 115.383 -1.82328 -0.691488 0
M  V30 1169 O 114.653 -1.25947 -1.50047 0
M  V30 1170 H 113.233 -0.689621 0.28711 0
M  V30 1171 H 115.895 -1.40664 1.34906 0
M  V30 1172 H 114.991 -2.91595 1.11259 0
M  V30 1173 N 115.292 -0.849877 -1.32721 0
M  V30 1174 C 116.539 -0.450923 -1.97416 0
M  V30 1175 C 116.867 0.992376 -1.67279 0
M  V30 1176 O 116.122 1.71048 -0.950845 0
M  V30 1177 C 116.421 -0.631272 -3.51781 0
M  V30 1178 C 116.087 -2.04432 -4.01894 0
M  V30 1179 C 114.749 -2.4308 -4.1529 0
M  V30 1180 C 117.101 -2.96679 -4.28522 0
M  V30 1181 C 114.429 -3.73257 -4.52654 0
M  V30 1182 C 116.781 -4.26349 -4.67343 0
M  V30 1183 C 115.445 -4.64939 -4.78945 0
M  V30 1184 H 114.715 -0.165004 -0.722395 0
M  V30 1185 H 117.362 -1.07901 -1.58207 0
M  V30 1186 H 115.667 0.0800767 -3.91718 0
M  V30 1187 H 117.364 -0.302709 -3.99856 0
M  V30 1188 H 113.954 -1.73419 -3.91949 0
M  V30 1189 H 118.138 -2.68054 -4.17685 0
M  V30 1190 H 113.394 -4.02946 -4.59831 0
M  V30 1191 H 117.568 -4.97895 -4.86902 0
M  V30 1192 H 115.195 -5.65855 -5.07654 0
M  V30 1193 N 116.77 1.45427 -0.607355 0
M  V30 1194 C 118.016 2.0254 -0.102607 0
M  V30 1195 C 118.349 1.47478 1.26348 0
M  V30 1196 O 117.624 0.64939 1.83339 0
M  V30 1197 C 117.907 3.60044 -0.0634347 0
M  V30 1198 C 117.76 4.2544 -1.46017 0
M  V30 1199 C 119.079 4.35646 0.624514 0
M  V30 1200 H 116.198 0.73598 -0.0387607 0
M  V30 1201 H 118.84 1.73284 -0.779282 0
M  V30 1202 H 116.99 3.85101 0.512808 0
M  V30 1203 H 118.662 4.11569 -2.08347 0
M  V30 1204 H 116.905 3.83849 -2.02094 0
M  V30 1205 H 117.576 5.34342 -1.385 0
M  V30 1206 H 120.052 4.15882 0.134723 0
M  V30 1207 H 118.928 5.45376 0.621028 0
M  V30 1208 H 119.189 4.08501 1.69055 0
M  V30 1209 N 118.248 0.346503 1.53744 0
M  V30 1210 C 119.476 -0.25041 2.05379 0
M  V30 1211 C 119.891 -1.43979 1.22129 0
M  V30 1212 O 119.248 -1.80677 0.257321 0
M  V30 1213 C 119.299 -0.662575 3.55376 0
M  V30 1214 O 119.02 0.479515 4.35468 0
M  V30 1215 C 120.521 -1.31989 4.23195 0
M  V30 1216 H 117.741 -0.0478198 0.669294 0
M  V30 1217 H 120.285 0.499346 1.9831 0
M  V30 1218 H 118.44 -1.36227 3.62658 0
M  V30 1219 H 118.854 0.15037 5.24284 0
M  V30 1220 H 120.328 -1.55902 5.29527 0
M  V30 1221 H 120.805 -2.27436 3.75725 0
M  V30 1222 H 121.411 -0.662154 4.20114 0
M  V30 1223 N 119.726 -1.57421 0.075193 0
M  V30 1224 C 120.676 -2.09441 -0.901025 0
M  V30 1225 C 121.66 -1.00486 -1.25663 0
M  V30 1226 O 122.852 -1.2679 -1.23504 0
M  V30 1227 C 119.981 -2.66233 -2.16737 0
M  V30 1228 C 119.067 -3.82198 -1.83808 0
M  V30 1229 N 119.458 -4.91028 -1.21345 0
M  V30 1230 C 117.756 -3.91558 -2.13538 0
M  V30 1231 C 118.457 -5.71852 -1.06585 0
M  V30 1232 N 117.433 -5.20233 -1.57667 0
M  V30 1233 H 121.235 -2.90972 -0.413815 0
M  V30 1234 H 118.749 -1.6189 -0.128601 0
M  V30 1235 H 120.746 -3.01819 -2.87595 0
M  V30 1236 H 119.406 -1.8615 -2.66042 0
M  V30 1237 H 120.417 -5.10323 -0.88268 0
M  V30 1238 H 117.094 -3.22454 -2.65197 0
M  V30 1239 H 118.484 -6.69401 -0.578933 0
M  V30 1240 N 121.204 0.198386 -1.56346 0
M  V30 1241 C 122.432 0.935572 -1.84539 0
M  V30 1242 C 122.847 1.76989 -0.657281 0
M  V30 1243 O 122.204 1.78626 0.374043 0
M  V30 1244 C 122.255 1.8344 -3.11499 0
M  V30 1245 O 121.976 1.03377 -4.25728 0
M  V30 1246 C 123.477 2.68355 -3.52846 0
M  V30 1247 H 120.697 0.273126 -0.612897 0
M  V30 1248 H 123.241 0.20663 -2.03453 0
M  V30 1249 H 121.396 2.51701 -2.94492 0
M  V30 1250 H 121.81 1.64599 -4.98003 0
M  V30 1251 H 123.284 3.27085 -4.44657 0
M  V30 1252 H 123.761 3.41901 -2.75681 0
M  V30 1253 H 124.367 2.05471 -3.72373 0
M  V30 1254 N 122.682 1.50554 0.465978 0
M  V30 1255 C 123.93 1.61479 1.21528 0
M  V30 1256 C 124.251 0.319596 1.92363 0
M  V30 1257 O 123.521 -0.663194 1.84333 0
M  V30 1258 H 122.101 0.595055 0.451573 0
M  V30 1259 H 124.763 1.87355 0.53704 0
M  V30 1260 H 123.859 2.42846 1.96042 0
M  V30 1261 N 124.16 -0.719506 1.40217 0
M  V30 1262 C 125.576 -1.02707 1.22161 0
M  V30 1263 C 125.776 -2.0128 0.0940557 0
M  V30 1264 O 124.832 -2.46452 -0.549318 0
M  V30 1265 C 126.145 -1.57454 2.56181 0
M  V30 1266 C 127.693 -1.69458 2.63159 0
M  V30 1267 C 128.168 -2.27611 3.97438 0
M  V30 1268 N 129.659 -2.35002 3.99159 0
M  V30 1269 C 130.394 -2.80972 4.99842 0
M  V30 1270 N 129.89 -3.26723 6.10921 0
M  V30 1271 N 131.683 -2.80321 4.87213 0
M  V30 1272 H 123.834 -0.0660492 2.12297 0
M  V30 1273 H 126.097 -0.0919077 0.943534 0
M  V30 1274 H 125.803 -0.924873 3.39321 0
M  V30 1275 H 125.677 -2.56036 2.76993 0
M  V30 1276 H 128.064 -2.33543 1.80393 0
M  V30 1277 H 128.145 -0.694867 2.46181 0
M  V30 1278 H 127.789 -1.6415 4.80643 0
M  V30 1279 H 127.719 -3.2829 4.11744 0
M  V30 1280 H 130.21 -2.02685 3.18947 0
M  V30 1281 H 130.523 -3.60355 6.8364 0
M  V30 1282 H 128.868 -3.24692 6.14492 0
M  V30 1283 H 132.059 -2.43912 3.9953 0
M  V30 1284 H 132.232 -3.15831 5.65822 0
M  V30 1285 N 125.638 -1.25649 -0.95132 0
M  V30 1286 C 126.866 -1.13343 -1.73092 0
M  V30 1287 C 127.281 0.312434 -1.86197 0
M  V30 1288 O 126.638 1.21465 -1.36207 0
M  V30 1289 C 126.689 -1.78602 -3.14299 0
M  V30 1290 O 126.41 -3.17537 -3.01831 0
M  V30 1291 C 127.911 -1.72119 -4.08522 0
M  V30 1292 H 125.131 -0.395181 -0.542285 0
M  V30 1293 H 127.675 -1.66076 -1.19328 0
M  V30 1294 H 125.83 -1.29832 -3.64996 0
M  V30 1295 H 126.244 -3.49676 -3.90931 0
M  V30 1296 H 127.718 -2.22435 -5.052 0
M  V30 1297 H 128.195 -0.685635 -4.33815 0
M  V30 1298 H 128.801 -2.20393 -3.63741 0
M  V30 1299 N 127.117 1.15442 -1.07289 0
M  V30 1300 C 128.342 1.90638 -0.816828 0
M  V30 1301 C 128.767 1.77445 0.624083 0
M  V30 1302 O 128.125 1.10671 1.43602 0
M  V30 1303 C 128.173 3.39008 -1.22906 0
M  V30 1304 O 127.277 4.10701 -0.373975 0
M  V30 1305 H 126.618 0.593555 -0.297638 0
M  V30 1306 H 129.148 1.46198 -1.43134 0
M  V30 1307 H 129.158 3.89801 -1.20497 0
M  V30 1308 H 127.833 3.47929 -2.27856 0
M  V30 1309 H 126.41 3.70046 -0.460499 0
M  V30 1310 N 128.595 0.856903 1.32268 0
M  V30 1311 C 129.528 0.247937 2.26849 0
M  V30 1312 C 130.506 -0.615382 1.50505 0
M  V30 1313 O 131.69 -0.571689 1.79622 0
M  V30 1314 C 128.817 -0.650093 3.32403 0
M  V30 1315 C 127.863 0.140138 4.2627 0
M  V30 1316 S 128.696 1.51004 5.13769 0
M  V30 1317 C 129.852 0.61778 6.22844 0
M  V30 1318 H 130.085 1.04971 2.78152 0
M  V30 1319 H 127.618 0.654665 1.39834 0
M  V30 1320 H 129.576 -1.16256 3.93694 0
M  V30 1321 H 128.237 -1.4257 2.7988 0
M  V30 1322 H 127.43 -0.543945 5.01056 0
M  V30 1323 H 127.032 0.584267 3.69408 0
M  V30 1324 H 129.324 -0.177053 6.77269 0
M  V30 1325 H 130.267 1.33636 6.95375 0
M  V30 1326 H 130.675 0.191124 5.64176 0
M  V30 1327 N 130.073 -1.45103 0.615059 0
M  V30 1328 C 130.983 -2.34382 -0.101034 0
M  V30 1329 C 131.999 -1.51681 -0.852585 0
M  V30 1330 O 133.175 -1.8446 -0.808484 0
M  V30 1331 C 130.24 -3.29417 -1.08099 0
M  V30 1332 C 129.301 -4.28025 -0.330577 0
M  V30 1333 C 128.534 -5.1852 -1.26385 0
M  V30 1334 O 128.757 -5.12598 -2.50198 0
M  V30 1335 O 127.691 -5.97122 -0.756866 0
M  V30 1336 H 131.517 -2.97033 0.632855 0
M  V30 1337 H 129.102 -1.4461 0.375293 0
M  V30 1338 H 130.984 -3.87958 -1.6452 0
M  V30 1339 H 129.659 -2.69321 -1.79577 0
M  V30 1340 H 128.566 -3.73078 0.276283 0
M  V30 1341 H 129.899 -4.90997 0.343866 0
M  V30 1342 N 131.551 -0.354651 -1.53558 0
M  V30 1343 C 132.797 0.238797 -2.01389 0
M  V30 1344 C 133.13 1.49309 -1.2418 0
M  V30 1345 O 132.405 1.91638 -0.332457 0
M  V30 1346 C 132.688 0.541771 -3.56001 0
M  V30 1347 C 132.541 -0.725388 -4.43912 0
M  V30 1348 C 133.86 1.34685 -4.18984 0
M  V30 1349 H 130.979 0.0853177 -0.732045 0
M  V30 1350 H 133.621 -0.477384 -1.83905 0
M  V30 1351 H 131.771 1.15189 -3.71031 0
M  V30 1352 H 133.443 -1.36313 -4.407 0
M  V30 1353 H 131.686 -1.34801 -4.12324 0
M  V30 1354 H 132.357 -0.468505 -5.50008 0
M  V30 1355 H 134.833 0.830837 -4.07721 0
M  V30 1356 H 133.709 1.52759 -5.27215 0
M  V30 1357 H 133.97 2.35221 -3.74331 0
M  V30 1358 N 133.029 1.57378 -0.0835403 0
M  V30 1359 C 134.259 1.97975 0.590713 0
M  V30 1360 C 134.667 0.961083 1.62972 0
M  V30 1361 O 134.01 -0.0590879 1.83605 0
M  V30 1362 C 134.072 3.34915 1.3066 0
M  V30 1363 C 133.736 4.55069 0.419698 0
M  V30 1364 C 134.733 5.18868 -0.32749 0
M  V30 1365 C 132.418 5.0114 0.341137 0
M  V30 1366 C 134.412 6.27098 -1.14134 0
M  V30 1367 C 132.099 6.0924 -0.476374 0
M  V30 1368 C 133.097 6.72083 -1.21627 0
M  V30 1369 O 132.785 7.781 -2.02028 0
M  V30 1370 H 132.517 0.655818 0.163947 0
M  V30 1371 H 135.071 2.04807 -0.156021 0
M  V30 1372 H 133.301 3.24733 2.09966 0
M  V30 1373 H 134.99 3.60037 1.87424 0
M  V30 1374 H 135.756 4.84211 -0.276459 0
M  V30 1375 H 131.635 4.51996 0.90668 0
M  V30 1376 H 135.179 6.7608 -1.71935 0
M  V30 1377 H 131.076 6.43329 -0.528927 0
M  V30 1378 H 131.844 7.95034 -1.94586 0
M  V30 1379 N 134.507 -0.190092 1.56449 0
M  V30 1380 C 135.753 -0.911052 1.81184 0
M  V30 1381 C 136.086 -1.82699 0.658396 0
M  V30 1382 O 135.361 -1.91491 -0.340775 0
M  V30 1383 C 135.644 -1.72297 3.16205 0
M  V30 1384 C 135.497 -0.831419 4.42049 0
M  V30 1385 C 136.816 -2.69454 3.47969 0
M  V30 1386 H 133.935 -0.32977 0.659106 0
M  V30 1387 H 136.577 -0.178169 1.89163 0
M  V30 1388 H 134.727 -2.34778 3.09534 0
M  V30 1389 H 136.399 -0.220929 4.60771 0
M  V30 1390 H 134.642 -0.138406 4.33579 0
M  V30 1391 H 135.313 -1.43461 5.33032 0
M  V30 1392 H 137.789 -2.17104 3.54972 0
M  V30 1393 H 136.665 -3.23342 4.43555 0
M  V30 1394 H 136.926 -3.48744 2.71717 0
M  V30 1395 N 135.985 -1.50799 -0.457987 0
M  V30 1396 C 137.401 -1.38515 -0.792819 0
M  V30 1397 C 137.601 -0.451409 -1.96379 0
M  V30 1398 O 136.657 0.10112 -2.52297 0
M  V30 1399 C 137.97 -2.80149 -1.09258 0
M  V30 1400 C 139.518 -2.89156 -1.19825 0
M  V30 1401 C 139.993 -4.31651 -1.53106 0
M  V30 1402 N 141.484 -4.34662 -1.60072 0
M  V30 1403 C 142.219 -5.41928 -1.87354 0
M  V30 1404 N 141.715 -6.59384 -2.12568 0
M  V30 1405 N 143.508 -5.29385 -1.88965 0
M  V30 1406 H 135.659 -2.10073 0.313511 0
M  V30 1407 H 137.922 -0.944803 0.0777862 0
M  V30 1408 H 137.628 -3.50374 -0.305084 0
M  V30 1409 H 137.502 -3.18204 -2.02549 0
M  V30 1410 H 139.889 -2.19141 -1.97639 0
M  V30 1411 H 139.97 -2.54626 -0.244821 0
M  V30 1412 H 139.614 -5.02208 -0.758266 0
M  V30 1413 H 139.544 -4.63678 -2.49621 0
M  V30 1414 H 142.035 -3.49973 -1.42573 0
M  V30 1415 H 142.348 -7.36934 -2.32696 0
M  V30 1416 H 140.693 -6.62535 -2.09933 0
M  V30 1417 H 143.884 -4.36616 -1.68772 0
M  V30 1418 H 144.057 -6.13066 -2.09891 0
M  V30 1419 N 137.463 0.71206 -1.40597 0
M  V30 1420 C 138.709 1.47416 -1.39271 0
M  V30 1421 C 139.042 1.942 0.00388791 0
M  V30 1422 O 138.317 1.68403 0.973179 0
M  V30 1423 C 138.6 2.69774 -2.38525 0
M  V30 1424 C 138.453 2.28861 -3.87224 0
M  V30 1425 C 139.772 3.71939 -2.35264 0
M  V30 1426 H 136.891 0.534713 -0.5072 0
M  V30 1427 H 139.533 0.812375 -1.71757 0
M  V30 1428 H 137.683 3.26238 -2.10953 0
M  V30 1429 H 139.355 1.77852 -4.25636 0
M  V30 1430 H 137.598 1.60824 -4.02887 0
M  V30 1431 H 138.269 3.16584 -4.52193 0
M  V30 1432 H 140.745 3.25113 -2.59694 0
M  V30 1433 H 139.621 4.55186 -3.06753 0
M  V30 1434 H 139.882 4.20484 -1.36549 0
M  V30 1435 N 138.941 1.26152 0.944643 0
M  V30 1436 C 139.891 1.04081 2.02857 0
M  V30 1437 C 140.875 -0.0256555 1.6088 0
M  V30 1438 O 142.067 0.190884 1.75968 0
M  V30 1439 C 139.196 0.672118 3.36656 0
M  V30 1440 C 138.282 1.77586 3.85128 0
M  V30 1441 N 138.673 3.01272 4.06287 0
M  V30 1442 C 136.971 1.65867 4.1401 0
M  V30 1443 C 137.672 3.72983 4.46384 0
M  V30 1444 N 136.648 3.00653 4.52889 0
M  V30 1445 H 140.45 1.97968 2.17223 0
M  V30 1446 H 137.964 1.16618 1.13022 0
M  V30 1447 H 139.961 0.495166 4.13949 0
M  V30 1448 H 138.621 -0.259307 3.23663 0
M  V30 1449 H 139.632 3.37213 3.93075 0
M  V30 1450 H 136.309 0.796907 4.09824 0
M  V30 1451 H 137.699 4.792 4.70975 0
M  V30 1452 N 140.419 -1.14872 1.07899 0
M  V30 1453 C 141.644 -1.90202 0.826926 0
M  V30 1454 C 142.069 -1.77774 -0.614664 0
M  V30 1455 O 141.427 -1.11431 -1.43013 0
M  V30 1456 C 141.475 -3.38352 1.24702 0
M  V30 1457 O 140.579 -4.10497 0.39575 0
M  V30 1458 H 139.92 -0.591968 0.300782 0
M  V30 1459 H 142.45 -1.45437 1.43907 0
M  V30 1460 H 142.46 -3.89156 1.22563 0
M  V30 1461 H 141.135 -3.46715 2.29698 0
M  V30 1462 H 139.712 -3.69796 0.480117 0
M  V30 1463 N 141.898 -0.863906 -1.31812 0
M  V30 1464 C 142.846 -0.30422 -2.30602 0
M  V30 1465 C 143.84 0.577419 -1.59255 0
M  V30 1466 O 145.046 0.464194 -1.73912 0
M  V30 1467 H 141.421 -0.0796877 -0.747766 0
M  V30 1468 H 143.392 -1.15148 -2.75288 0
M  V30 1469 C 142.141 0.484617 -3.44306 0
M  V30 1470 H 141.464 -0.18451 -3.99374 0
M  V30 1471 H 142.904 0.841664 -4.15562 0
M  V30 1472 C 141.363 1.6735 -2.92396 0
M  V30 1473 O 141.893 2.77273 -2.90659 0
M  V30 1474 N 140.099 1.50362 -2.48676 0
M  V30 1475 H 139.646 0.609402 -2.50288 0
M  V30 1476 H 139.604 2.30051 -2.14299 0
M  V30 1477 N 143.376 1.44774 -0.622745 0
M  V30 1478 C 144.324 2.32387 0.0994683 0
M  V30 1479 C 145.318 1.46859 0.844326 0
M  V30 1480 O 146.524 1.63254 0.758174 0
M  V30 1481 H 142.899 0.750273 0.0509291 0
M  V30 1482 H 144.87 2.91062 -0.65767 0
M  V30 1483 C 143.619 3.30723 1.07319 0
M  V30 1484 H 142.942 3.96541 0.509462 0
M  V30 1485 H 144.382 3.94725 1.54817 0
M  V30 1486 C 142.841 2.59021 2.15429 0
M  V30 1487 O 143.371 2.38286 3.23393 0
M  V30 1488 N 141.577 2.189 1.91131 0
M  V30 1489 H 141.124 2.35964 1.03337 0
M  V30 1490 H 141.082 1.71251 2.63668 0
M  V30 1491 N 144.854 0.36279 1.53368 0
M  V30 1492 C 145.784 -0.476976 2.28576 0
M  V30 1493 C 146.765 -1.08631 1.30894 0
M  V30 1494 O 147.95 -1.10409 1.59761 0
M  V30 1495 C 145.08 -1.61828 3.07293 0
M  V30 1496 C 144.034 -1.13633 4.1264 0
M  V30 1497 C 143.36 -2.36766 4.79423 0
M  V30 1498 C 144.66 -0.223061 5.21823 0
M  V30 1499 H 146.354 0.150474 2.99022 0
M  V30 1500 H 143.9 0.0738103 1.43811 0
M  V30 1501 H 145.853 -2.21237 3.58653 0
M  V30 1502 H 144.577 -2.27292 2.34533 0
M  V30 1503 H 143.236 -0.564945 3.62221 0
M  V30 1504 H 142.884 -3.0068 4.03238 0
M  V30 1505 H 142.584 -2.05192 5.50609 0
M  V30 1506 H 144.108 -2.96865 5.33576 0
M  V30 1507 H 145.522 -0.724545 5.68703 0
M  V30 1508 H 143.919 0.001678 6.001 0
M  V30 1509 H 144.989 0.735553 4.79289 0
M  V30 1510 N 146.332 -1.57332 0.0918853 0
M  V30 1511 C 147.262 -2.16872 -0.865371 0
M  V30 1512 C 148.243 -1.10118 -1.29646 0
M  V30 1513 O 149.428 -1.38242 -1.36392 0
M  V30 1514 C 146.558 -2.74649 -2.12569 0
M  V30 1515 C 145.512 -3.86747 -1.83333 0
M  V30 1516 C 144.838 -4.31212 -3.16166 0
M  V30 1517 C 146.138 -5.10089 -1.1228 0
M  V30 1518 H 147.832 -2.97114 -0.369307 0
M  V30 1519 H 145.378 -1.42918 -0.176194 0
M  V30 1520 H 147.331 -3.14952 -2.7997 0
M  V30 1521 H 146.055 -1.91657 -2.64452 0
M  V30 1522 H 144.714 -3.46978 -1.18331 0
M  V30 1523 H 144.362 -3.45115 -3.6593 0
M  V30 1524 H 144.062 -5.06788 -2.97388 0
M  V30 1525 H 145.586 -4.74146 -3.84731 0
M  V30 1526 H 147 -5.47582 -1.69785 0
M  V30 1527 H 145.397 -5.91073 -1.03693 0
M  V30 1528 H 146.467 -4.84786 -0.105041 0
M  V30 1529 N 147.81 0.181792 -1.56548 0
M  V30 1530 C 149.038 0.915947 -1.85521 0
M  V30 1531 C 149.453 1.76282 -0.676016 0
M  V30 1532 O 148.81 1.79012 0.355077 0
M  V30 1533 C 148.861 1.80126 -3.13427 0
M  V30 1534 O 148.582 0.988562 -4.26801 0
M  V30 1535 C 150.083 2.64597 -3.55673 0
M  V30 1536 H 147.303 0.26661 -0.61576 0
M  V30 1537 H 149.847 0.185039 -2.03661 0
M  V30 1538 H 148.002 2.48563 -2.97145 0
M  V30 1539 H 148.416 1.59308 -4.99721 0
M  V30 1540 H 149.89 3.2235 -4.48101 0
M  V30 1541 H 150.367 3.38958 -2.79292 0
M  V30 1542 H 150.973 2.0151 -3.74532 0
M  V30 1543 N 149.288 1.51039 0.449983 0
M  V30 1544 C 150.536 1.62759 1.19808 0
M  V30 1545 C 150.857 0.339981 1.92013 0
M  V30 1546 O 150.127 -0.643606 1.85026 0
M  V30 1547 H 148.707 0.599811 0.445237 0
M  V30 1548 H 151.369 1.87914 0.517138 0
M  V30 1549 H 150.465 2.44911 1.93455 0
M  V30 1550 N 150.766 -0.704594 1.40972 0
M  V30 1551 C 151.676 -1.84856 1.44448 0
M  V30 1552 C 152.692 -1.70726 0.335961 0
M  V30 1553 O 153.868 -1.92799 0.582276 0
M  V30 1554 C 150.933 -3.20758 1.31587 0
M  V30 1555 C 149.994 -3.47063 2.52677 0
M  V30 1556 C 149.227 -4.76481 2.4042 0
M  V30 1557 O 149.45 -5.52341 1.42391 0
M  V30 1558 O 148.384 -5.03367 3.30007 0
M  V30 1559 H 152.21 -1.8488 2.40942 0
M  V30 1560 H 149.795 -0.85647 1.22413 0
M  V30 1561 H 151.677 -4.01913 1.26665 0
M  V30 1562 H 150.352 -3.21438 0.382049 0
M  V30 1563 H 149.259 -2.65873 2.63177 0
M  V30 1564 H 150.592 -3.5119 3.44858 0
M  V30 1565 N 152.244 -1.26651 -0.937939 0
M  V30 1566 C 153.66 -1.03834 -1.21205 0
M  V30 1567 C 153.86 0.234502 -2.00131 0
M  V30 1568 O 152.916 0.942767 -2.3424 0
M  V30 1569 C 154.229 -2.27167 -1.97017 0
M  V30 1570 C 155.777 -2.32101 -2.09996 0
M  V30 1571 C 156.252 -3.55136 -2.8921 0
M  V30 1572 N 157.743 -3.55632 -2.96783 0
M  V30 1573 C 158.478 -4.475 -3.58512 0
M  V30 1574 N 157.974 -5.4966 -4.21717 0
M  V30 1575 N 159.767 -4.35145 -3.55816 0
M  V30 1576 H 151.918 -2.08398 -0.410391 0
M  V30 1577 H 154.181 -0.916031 -0.244114 0
M  V30 1578 H 153.887 -3.19765 -1.46434 0
M  V30 1579 H 153.761 -2.31672 -2.97671 0
M  V30 1580 H 156.148 -1.40015 -2.59769 0
M  V30 1581 H 156.229 -2.31605 -1.08594 0
M  V30 1582 H 155.873 -4.47553 -2.40123 0
M  V30 1583 H 155.803 -3.5288 -3.90875 0
M  V30 1584 H 158.294 -2.81743 -2.51852 0
M  V30 1585 H 158.607 -6.15943 -4.66727 0
M  V30 1586 H 156.952 -5.53514 -4.20294 0
M  V30 1587 H 160.143 -3.5455 -3.05634 0
M  V30 1588 H 160.316 -5.06934 -4.03636 0
M  V30 1589 N 153.722 1.14298 -1.08507 0
M  V30 1590 C 154.95 1.89219 -0.836876 0
M  V30 1591 C 155.365 1.78638 0.611054 0
M  V30 1592 O 154.722 1.14643 1.41998 0
M  V30 1593 C 154.773 3.39158 -1.25116 0
M  V30 1594 O 154.494 3.49449 -2.64229 0
M  V30 1595 C 155.995 4.31073 -1.03398 0
M  V30 1596 H 153.215 0.599328 -0.301739 0
M  V30 1597 H 155.759 1.44746 -1.44461 0
M  V30 1598 H 153.914 3.81251 -0.687514 0
M  V30 1599 H 154.328 4.42589 -2.81452 0
M  V30 1600 H 155.802 5.34646 -1.37323 0
M  V30 1601 H 156.279 4.3919 0.0289259 0
M  V30 1602 H 156.885 3.94738 -1.58311 0
M  V30 1603 N 155.201 0.870884 1.31352 0
M  V30 1604 C 156.131 0.343096 2.30966 0
M  V30 1605 C 157.112 -0.566507 1.60389 0
M  V30 1606 O 158.297 -0.483336 1.88089 0
M  V30 1607 C 155.427 -0.455487 3.443 0
M  V30 1608 C 154.381 0.361103 4.26474 0
M  V30 1609 C 153.707 -0.563221 5.31725 0
M  V30 1610 C 155.007 1.59566 4.97329 0
M  V30 1611 H 156.701 1.17548 2.75359 0
M  V30 1612 H 154.247 0.566686 1.32381 0
M  V30 1613 H 156.2 -0.83525 4.13039 0
M  V30 1614 H 154.924 -1.32139 2.98675 0
M  V30 1615 H 153.583 0.722825 3.59403 0
M  V30 1616 H 153.231 -1.42643 4.82351 0
M  V30 1617 H 152.931 -0.0207409 5.87596 0
M  V30 1618 H 154.455 -0.939808 6.03324 0
M  V30 1619 H 155.869 1.28728 5.58661 0
M  V30 1620 H 154.266 2.07728 5.63 0
M  V30 1621 H 155.336 2.34798 4.24262 0
M  V30 1622 N 156.679 -1.44442 0.630414 0
M  V30 1623 C 157.907 -2.06414 0.141671 0
M  V30 1624 C 158.322 -1.47105 -1.18345 0
M  V30 1625 O 157.679 -0.593662 -1.72574 0
M  V30 1626 C 157.73 -3.61494 0.0199784 0
M  V30 1627 O 157.451 -4.18594 1.29269 0
M  V30 1628 C 158.952 -4.40499 -0.497544 0
M  V30 1629 H 156.172 -0.666292 0.0793452 0
M  V30 1630 H 158.716 -1.85323 0.864614 0
M  V30 1631 H 156.871 -3.8185 -0.653402 0
M  V30 1632 H 157.285 -5.12026 1.13707 0
M  V30 1633 H 158.759 -5.49433 -0.531708 0
M  V30 1634 H 159.236 -4.11895 -1.52445 0
M  V30 1635 H 159.842 -4.25061 0.142562 0
M  V30 1636 N 158.157 -0.370918 -1.53173 0
M  V30 1637 C 159.385 0.217704 -2.05751 0
M  V30 1638 C 159.8 1.42018 -1.24404 0
M  V30 1639 O 159.157 1.80245 -0.286033 0
M  V30 1640 C 159.208 0.605954 -3.56385 0
M  V30 1641 O 158.929 -0.548734 -4.3465 0
M  V30 1642 C 160.43 1.2524 -4.25241 0
M  V30 1643 H 157.65 0.0371659 -0.66997 0
M  V30 1644 H 160.194 -0.530832 -1.9749 0
M  V30 1645 H 158.349 1.3044 -3.6478 0
M  V30 1646 H 158.763 -0.23376 -5.23979 0
M  V30 1647 H 160.237 1.47458 -5.3194 0
M  V30 1648 H 160.714 2.2143 -3.79296 0
M  V30 1649 H 161.32 0.595233 -4.21114 0
M  V30 1650 N 159.635 1.57281 -0.100228 0
M  V30 1651 C 160.545 2.17833 0.870965 0
M  V30 1652 C 161.561 1.14921 1.30649 0
M  V30 1653 O 162.737 1.47313 1.37335 0
M  V30 1654 C 159.802 2.75085 2.1102 0
M  V30 1655 C 158.863 3.9297 1.72838 0
M  V30 1656 C 158.096 4.47482 2.90854 0
M  V30 1657 O 158.319 4.00922 4.05731 0
M  V30 1658 O 157.253 5.38433 2.69023 0
M  V30 1659 H 161.079 3.0124 0.38575 0
M  V30 1660 H 158.664 1.48881 0.124397 0
M  V30 1661 H 160.546 3.11656 2.83634 0
M  V30 1662 H 159.221 1.94721 2.58584 0
M  V30 1663 H 158.128 3.61201 0.973883 0
M  V30 1664 H 159.461 4.74713 1.30033 0
M  V30 1665 N 161.113 -0.173488 1.56642 0
M  V30 1666 C 162.338 -0.910149 1.86363 0
M  V30 1667 C 162.763 -1.75132 0.686318 0
M  V30 1668 O 162.121 -1.77595 -0.364643 0
M  V30 1669 C 162.169 -1.76447 3.14482 0
M  V30 1670 O 161.273 -2.86584 2.96553 0
M  V30 1671 H 160.614 -0.255086 0.613047 0
M  V30 1672 H 163.144 -0.172283 2.03873 0
M  V30 1673 H 163.154 -2.16483 3.45831 0
M  V30 1674 H 161.829 -1.14658 3.99783 0
M  V30 1675 H 160.406 -2.50146 2.76553 0
M  V30 1676 N 162.591 -1.51276 -0.441967 0
M  V30 1677 C 163.838 -1.63715 -1.19179 0
M  V30 1678 C 164.166 -0.351175 -1.91303 0
M  V30 1679 O 163.421 0.664524 -1.84072 0
M  V30 1680 C 163.72 -2.78746 -2.23686 0
M  V30 1681 C 163.386 -4.18189 -1.68607 0
M  V30 1682 C 162.048 -4.56125 -1.53308 0
M  V30 1683 C 164.4 -5.05222 -1.28062 0
M  V30 1684 C 161.728 -5.78804 -0.959317 0
M  V30 1685 C 164.08 -6.28476 -0.721162 0
M  V30 1686 C 162.744 -6.65188 -0.55504 0
M  V30 1687 H 162.014 -0.599076 -0.436106 0
M  V30 1688 H 164.661 -1.85296 -0.48351 0
M  V30 1689 H 162.966 -2.51369 -3.00535 0
M  V30 1690 H 164.663 -2.8557 -2.81515 0
M  V30 1691 H 161.253 -3.88277 -1.8149 0
M  V30 1692 H 165.437 -4.76524 -1.38704 0
M  V30 1693 H 160.693 -6.05899 -0.81833 0
M  V30 1694 H 164.867 -6.95259 -0.398458 0
M  V30 1695 H 162.494 -7.60123 -0.108311 0
M  V30 1696 N 164.069 0.697108 -1.41344 0
M  V30 1697 C 164.999 1.82353 -1.45841 0
M  V30 1698 C 165.98 1.67115 -0.317247 0
M  V30 1699 O 167.165 1.86871 -0.528474 0
M  V30 1700 C 164.295 3.20476 -1.33838 0
M  V30 1701 C 163.249 3.50415 -2.4575 0
M  V30 1702 C 162.575 4.87878 -2.18813 0
M  V30 1703 C 163.875 3.49546 -3.88091 0
M  V30 1704 H 165.569 1.78846 -2.40113 0
M  V30 1705 H 163.115 0.859028 -1.15571 0
M  V30 1706 H 165.068 3.98988 -1.35596 0
M  V30 1707 H 163.792 3.24604 -0.360498 0
M  V30 1708 H 162.451 2.74253 -2.43271 0
M  V30 1709 H 162.099 4.8863 -1.19371 0
M  V30 1710 H 161.799 5.08875 -2.93803 0
M  V30 1711 H 163.323 5.68702 -2.22284 0
M  V30 1712 H 164.737 4.18066 -3.92293 0
M  V30 1713 H 163.134 3.82075 -4.62751 0
M  V30 1714 H 164.204 2.48552 -4.16353 0
M  V30 1715 N 165.547 1.27147 0.931209 0
M  V30 1716 C 166.775 1.16082 1.71267 0
M  V30 1717 C 167.19 -0.282772 1.8667 0
M  V30 1718 O 166.547 -1.19283 1.38122 0
M  V30 1719 C 166.598 1.8358 3.11417 0
M  V30 1720 O 166.319 3.22299 2.96741 0
M  V30 1721 C 167.82 1.78597 4.05732 0
M  V30 1722 H 165.04 0.403758 0.535929 0
M  V30 1723 H 167.584 1.67953 1.16671 0
M  V30 1724 H 165.739 1.35623 3.62885 0
M  V30 1725 H 166.153 3.55851 3.85319 0
M  V30 1726 H 167.627 2.30444 5.01597 0
M  V30 1727 H 168.104 0.754564 4.3267 0
M  V30 1728 H 168.71 2.26152 3.60188 0
M  V30 1729 N 167.025 -1.13721 1.09112 0
M  V30 1730 C 167.958 -2.18094 0.67158 0
M  V30 1731 C 168.936 -1.59414 -0.320299 0
M  V30 1732 O 170.12 -1.87183 -0.222444 0
M  V30 1733 C 167.247 -3.38698 -0.0111189 0
M  V30 1734 C 166.293 -4.15966 0.942055 0
M  V30 1735 S 167.126 -4.7604 2.45246 0
M  V30 1736 C 168.282 -5.99994 1.78208 0
M  V30 1737 H 168.515 -2.53344 1.55577 0
M  V30 1738 H 166.048 -1.24967 0.906789 0
M  V30 1739 H 168.006 -4.08559 -0.398716 0
M  V30 1740 H 166.667 -3.01756 -0.871905 0
M  V30 1741 H 165.86 -5.02318 0.411396 0
M  V30 1742 H 165.462 -3.51745 1.2709 0
M  V30 1743 H 167.754 -6.68441 1.10424 0
M  V30 1744 H 168.697 -6.57662 2.62463 0
M  V30 1745 H 169.105 -5.50432 1.25238 0
M  V30 1746 N 168.503 -0.877838 -1.30888 0
M  V30 1747 C 169.749 -0.493426 -1.96706 0
M  V30 1748 C 170.082 0.953504 -1.6918 0
M  V30 1749 O 169.357 1.67266 -0.992594 0
M  V30 1750 C 169.64 -0.760429 -3.51979 0
M  V30 1751 C 169.493 -2.25747 -3.89048 0
M  V30 1752 C 170.812 -0.232148 -4.39487 0
M  V30 1753 H 167.931 -0.180746 -0.714493 0
M  V30 1754 H 170.573 -1.10052 -1.54882 0
M  V30 1755 H 168.723 -0.243715 -3.87735 0
M  V30 1756 H 170.395 -2.84204 -3.63354 0
M  V30 1757 H 168.638 -2.72694 -3.37373 0
M  V30 1758 H 169.309 -2.39491 -4.97341 0
M  V30 1759 H 171.785 -0.674314 -4.106 0
M  V30 1760 H 170.661 -0.448355 -5.47066 0
M  V30 1761 H 170.922 0.866297 -4.33529 0
M  V30 1762 N 169.982 1.44106 -0.638065 0
M  V30 1763 C 170.945 2.29138 0.0531013 0
M  V30 1764 C 171.945 1.41409 0.765506 0
M  V30 1765 O 173.135 1.63206 0.609046 0
M  V30 1766 C 170.267 3.23144 1.08584 0
M  V30 1767 H 171.46 2.91739 -0.694883 0
M  V30 1768 H 169.013 1.51134 -0.398538 0
M  V30 1769 H 169.748 2.65408 1.86357 0
M  V30 1770 H 169.533 3.87804 0.578852 0
M  V30 1771 H 171.023 3.87004 1.56899 0
M  V30 1772 N 171.46 0.379036 1.52974 0
M  V30 1773 C 172.706 -0.206727 2.01744 0
M  V30 1774 C 173.039 -1.47314 1.26539 0
M  V30 1775 O 172.314 -1.91084 0.362903 0
M  V30 1776 C 172.597 -0.485066 3.56818 0
M  V30 1777 C 172.45 0.795919 4.42702 0
M  V30 1778 C 173.769 -1.28003 4.21074 0
M  V30 1779 H 170.888 -0.0736607 0.73331 0
M  V30 1780 H 173.53 0.506581 1.83122 0
M  V30 1781 H 171.68 -1.09272 3.72816 0
M  V30 1782 H 173.352 1.43307 4.38476 0
M  V30 1783 H 171.595 1.41344 4.10127 0
M  V30 1784 H 172.266 0.555947 5.49193 0
M  V30 1785 H 174.742 -0.765867 4.08991 0
M  V30 1786 H 173.618 -1.44352 5.29579 0
M  V30 1787 H 173.879 -2.29236 3.78026 0
M  V30 1788 N 172.938 -1.57226 0.108567 0
M  V30 1789 C 174.215 -1.86333 -0.594939 0
M  V30 1790 C 174.595 -1.00788 -1.85486 0
M  V30 1791 O 173.943 -0.0839293 -2.28346 0
M  V30 1792 C 174.153 -3.37265 -0.897405 0
M  V30 1793 C 175.501 -4.05629 -1.25501 0
M  V30 1794 O 176.525 -3.42224 -0.987998 0
M  V30 1795 O 175.384 -5.17531 -1.75567 0
M  V30 1796 H 172.478 -0.771018 -0.2991 0
M  V30 1797 H 175.024 -1.69102 0.142283 0
M  V30 1798 H 173.796 -3.913 -0.00413806 0
M  V30 1799 H 173.419 -3.59889 -1.69014 0
M  V30 1800 N 174.416 0.165178 -1.56732 0
M  V30 1801 C 175.326 1.22423 -2.00125 0
M  V30 1802 C 176.342 1.48084 -0.913619 0
M  V30 1803 O 177.518 1.60112 -1.22172 0
M  V30 1804 C 174.583 2.54197 -2.35764 0
M  V30 1805 C 173.644 2.36343 -3.58386 0
M  V30 1806 C 172.877 3.61834 -3.92316 0
M  V30 1807 O 173.1 4.67267 -3.27135 0
M  V30 1808 O 172.034 3.55579 -4.85641 0
M  V30 1809 H 175.86 0.885886 -2.90492 0
M  V30 1810 H 173.445 0.372518 -1.44681 0
M  V30 1811 H 175.327 3.3192 -2.59629 0
M  V30 1812 H 174.002 2.87598 -1.48557 0
M  V30 1813 H 172.909 1.56632 -3.39731 0
M  V30 1814 H 174.242 2.07865 -4.46154 0
M  V30 1815 N 175.894 1.51508 0.433938 0
M  V30 1816 C 177.119 1.68443 1.21003 0
M  V30 1817 C 177.544 0.382636 1.84167 0
M  V30 1818 O 176.902 -0.65755 1.68956 0
M  V30 1819 C 176.95 2.80405 2.26727 0
M  V30 1820 O 176.054 2.44245 3.32292 0
M  V30 1821 H 175.395 0.561536 0.354363 0
M  V30 1822 H 177.925 1.9809 0.512024 0
M  V30 1823 H 177.935 3.0459 2.71457 0
M  V30 1824 H 176.61 3.74867 1.80132 0
M  V30 1825 H 175.187 2.30644 2.93015 0
M  V30 1826 N 177.372 -0.689602 1.41712 0
M  V30 1827 C 178.62 -1.4468 1.4111 0
M  V30 1828 C 178.941 -1.94986 0.0232196 0
M  V30 1829 O 178.211 -1.72097 -0.935913 0
M  V30 1830 H 176.791 -0.536847 0.519427 0
M  V30 1831 H 179.453 -0.815825 1.77004 0
M  V30 1832 H 178.549 -2.30706 2.10193 0
M  V30 1833 N 178.85 -1.27639 -0.924453 0
M  V30 1834 C 179.797 -1.10644 -2.0255 0
M  V30 1835 C 180.767 -0.00658438 -1.66099 0
M  V30 1836 O 181.952 -0.16952 -1.90045 0
M  V30 1837 C 179.092 -0.76309 -3.36557 0
M  V30 1838 C 178.205 -1.94091 -3.85944 0
M  V30 1839 C 177.34 -1.53914 -5.08413 0
M  V30 1840 C 176.379 -2.68425 -5.50104 0
M  V30 1841 N 175.516 -2.28815 -6.63768 0
M  V30 1842 H 180.356 -2.04858 -2.16419 0
M  V30 1843 H 177.893 -1.01974 -1.06017 0
M  V30 1844 H 179.851 -0.544822 -4.13627 0
M  V30 1845 H 178.481 0.142102 -3.22487 0
M  V30 1846 H 177.533 -2.27162 -3.05125 0
M  V30 1847 H 178.845 -2.7998 -4.12811 0
M  V30 1848 H 177.999 -1.28231 -5.92994 0
M  V30 1849 H 176.738 -0.651391 -4.8333 0
M  V30 1850 H 175.743 -2.94819 -4.64071 0
M  V30 1851 H 176.968 -3.57826 -5.7718 0
M  V30 1852 H 174.914 -1.42495 -6.40337 0
M  V30 1853 H 174.831 -3.08242 -6.90306 0
M  V30 1854 H 176.099 -2.06387 -7.51681 0
M  V30 1855 N 180.328 1.1314 -1.09713 0
M  V30 1856 C 181.739 1.66029 -0.853885 0
M  V30 1857 C 182.09 1.86241 0.617142 0
M  V30 1858 O 181.215 1.5834 1.47503 0
M  V30 1859 C 181.81 3.01599 -1.5435 0
M  V30 1860 C 180.369 3.51467 -1.34714 0
M  V30 1861 C 179.516 2.26648 -1.59769 0
M  V30 1862 H 182.467 0.970226 -1.25588 0
M  V30 1863 H 182.488 3.67709 -0.978267 0
M  V30 1864 H 182 2.86856 -2.6141 0
M  V30 1865 H 180.101 3.71408 -0.297838 0
M  V30 1866 H 180.214 4.314 -2.08401 0
M  V30 1867 H 178.578 2.33385 -1.01998 0
M  V30 1868 H 179.361 2.14467 -2.68065 0
M  V30 1869 N 181.806 0.884767 1.30421 0
M  V30 1870 C 182.753 0.349642 2.28136 0
M  V30 1871 C 183.723 -0.560061 1.56373 0
M  V30 1872 O 184.908 -0.488524 1.8444 0
M  V30 1873 C 182.048 -0.42999 3.42411 0
M  V30 1874 C 181.161 0.508907 4.28992 0
M  V30 1875 C 180.296 -0.286301 5.30428 0
M  V30 1876 C 179.335 0.648079 6.08659 0
M  V30 1877 N 178.472 -0.111792 7.02011 0
M  V30 1878 H 183.312 1.18807 2.73293 0
M  V30 1879 H 180.849 0.597231 1.3443 0
M  V30 1880 H 182.807 -0.897923 4.07423 0
M  V30 1881 H 181.437 -1.23299 2.98324 0
M  V30 1882 H 180.489 1.09533 3.64289 0
M  V30 1883 H 181.801 1.22475 4.8353 0
M  V30 1884 H 180.955 -0.816098 6.01186 0
M  V30 1885 H 179.694 -1.03536 4.76583 0
M  V30 1886 H 178.699 1.18951 5.36778 0
M  V30 1887 H 179.924 1.39623 6.64592 0
M  V30 1888 H 177.87 -0.843395 6.50556 0
M  V30 1889 H 177.787 0.544429 7.54037 0
M  V30 1890 H 179.055 -0.622339 7.77012 0
M  V30 1891 N 183.284 -1.43765 0.645699 0
M  V30 1892 C 184.695 -1.85193 0.236719 0
M  V30 1893 C 185.046 -1.54045 -1.21509 0
M  V30 1894 O 184.171 -0.985694 -1.92647 0
M  V30 1895 C 184.766 -3.36151 0.422845 0
M  V30 1896 C 183.325 -3.76338 0.0682492 0
M  V30 1897 C 182.472 -2.67538 0.729306 0
M  V30 1898 H 185.423 -1.34025 0.849883 0
M  V30 1899 H 185.444 -3.79032 -0.333904 0
M  V30 1900 H 184.956 -3.5879 1.47958 0
M  V30 1901 H 183.057 -3.59312 -0.986179 0
M  V30 1902 H 183.17 -4.76603 0.488469 0
M  V30 1903 H 181.534 -2.54176 0.163235 0
M  V30 1904 H 182.317 -2.93006 1.78892 0
M  V30 1905 N 184.763 -0.387143 -1.52771 0
M  V30 1906 C 186.009 0.196025 -2.0185 0
M  V30 1907 C 186.342 1.46641 -1.27319 0
M  V30 1908 O 185.617 1.90889 -0.373032 0
M  V30 1909 C 185.9 0.466136 -3.5707 0
M  V30 1910 C 185.753 -0.819385 -4.42274 0
M  V30 1911 C 187.072 1.25768 -4.21747 0
M  V30 1912 H 184.191 0.0697708 -0.73369 0
M  V30 1913 H 186.833 -0.516286 -1.82851 0
M  V30 1914 H 184.983 1.07293 -3.7339 0
M  V30 1915 H 186.655 -1.4563 -4.37709 0
M  V30 1916 H 184.898 -1.43517 -4.09372 0
M  V30 1917 H 185.569 -0.585065 -5.48891 0
M  V30 1918 H 188.045 0.744167 -4.09391 0
M  V30 1919 H 186.921 1.41541 -5.30337 0
M  V30 1920 H 187.182 2.27228 -3.79236 0
M  V30 1921 N 186.241 1.57166 -0.116904 0
M  V30 1922 C 187.652 1.82169 0.408809 0
M  V30 1923 C 188.003 1.03393 1.66746 0
M  V30 1924 O 187.128 0.269886 2.1471 0
M  V30 1925 C 187.723 3.30429 0.748466 0
M  V30 1926 C 186.282 3.5612 1.21882 0
M  V30 1927 C 185.429 2.76374 0.226452 0
M  V30 1928 H 188.38 1.5497 -0.342063 0
M  V30 1929 H 188.401 3.44943 1.60607 0
M  V30 1930 H 187.913 3.87737 -0.167784 0
M  V30 1931 H 186.014 3.04168 2.15204 0
M  V30 1932 H 186.127 4.64705 1.16559 0
M  V30 1933 H 184.491 2.44515 0.713063 0
M  V30 1934 H 185.274 3.3644 -0.682859 0
M  V30 1935 N 187.719 -0.156864 1.56817 0
M  V30 1936 C 188.651 -1.21883 1.94106 0
M  V30 1937 C 189.664 -1.3971 0.835754 0
M  V30 1938 O 190.853 -1.39457 1.11418 0
M  V30 1939 C 187.953 -2.58527 2.19127 0
M  V30 1940 C 187.126 -2.61809 3.50393 0
M  V30 1941 C 186.185 -3.7992 3.64071 0
M  V30 1942 O 185.211 -3.65249 4.36557 0
M  V30 1943 N 186.413 -4.96973 2.99997 0
M  V30 1944 H 189.178 -0.901974 2.85805 0
M  V30 1945 H 186.739 -0.346513 1.58148 0
M  V30 1946 H 188.731 -3.36034 2.25529 0
M  V30 1947 H 187.301 -2.82545 1.33742 0
M  V30 1948 H 186.521 -1.7029 3.5552 0
M  V30 1949 H 187.809 -2.61024 4.36742 0
M  V30 1950 H 187.207 -5.11794 2.41004 0
M  V30 1951 H 185.764 -5.7229 3.11974 0
M  V30 1952 N 189.197 -1.51736 -0.425897 0
M  V30 1953 C 190.443 -1.65214 -1.1761 0
M  V30 1954 C 190.776 -0.372778 -1.90589 0
M  V30 1955 O 190.051 0.628139 -1.84078 0
M  V30 1956 C 190.334 -2.86312 -2.18398 0
M  V30 1957 C 190.187 -4.24254 -1.49426 0
M  V30 1958 C 191.506 -3.02925 -3.19256 0
M  V30 1959 H 188.625 -0.601263 -0.426206 0
M  V30 1960 H 191.267 -1.8425 -0.463882 0
M  V30 1961 H 189.417 -2.70213 -2.79137 0
M  V30 1962 H 191.089 -4.52046 -0.919362 0
M  V30 1963 H 189.332 -4.26426 -0.796432 0
M  V30 1964 H 190.003 -5.05001 -2.22885 0
M  V30 1965 H 192.479 -3.1781 -2.68581 0
M  V30 1966 H 191.355 -3.89199 -3.8706 0
M  V30 1967 H 191.616 -2.15497 -3.86023 0
M  V30 1968 N 190.675 0.682077 -1.42076 0
M  V30 1969 C 191.585 1.82535 -1.47371 0
M  V30 1970 C 192.601 1.7017 -0.363079 0
M  V30 1971 O 193.777 1.91848 -0.612875 0
M  V30 1972 C 190.842 3.18624 -1.36674 0
M  V30 1973 C 189.903 3.42999 -2.58167 0
M  V30 1974 C 189.136 4.72595 -2.4797 0
M  V30 1975 O 189.359 5.50006 -1.5116 0
M  V30 1976 O 188.293 4.98054 -3.37974 0
M  V30 1977 H 192.119 1.81023 -2.43853 0
M  V30 1978 H 189.704 0.836887 -1.2376 0
M  V30 1979 H 191.586 3.99847 -1.33043 0
M  V30 1980 H 190.261 3.20789 -0.433138 0
M  V30 1981 H 189.168 2.61653 -2.67373 0
M  V30 1982 H 190.501 3.45659 -3.50401 0
M  V30 1983 N 192.153 1.28127 0.917671 0
M  V30 1984 C 193.564 1.13622 1.48145 0
M  V30 1985 C 193.915 -0.275207 1.9426 0
M  V30 1986 O 193.04 -1.1691 1.82102 0
M  V30 1987 C 193.635 2.05648 2.69248 0
M  V30 1988 C 192.194 1.95219 3.21818 0
M  V30 1989 C 191.341 1.97618 1.94532 0
M  V30 1990 H 194.292 1.40874 0.730772 0
M  V30 1991 H 194.313 1.61818 3.44377 0
M  V30 1992 H 193.825 3.08365 2.35653 0
M  V30 1993 H 191.926 0.955244 3.60147 0
M  V30 1994 H 192.039 2.81976 3.87333 0
M  V30 1995 H 190.403 1.41973 2.11461 0
M  V30 1996 H 191.186 3.02007 1.63238 0
M  V30 1997 N 193.631 -1.12557 1.10312 0
M  V30 1998 C 194.563 -2.17971 0.708625 0
M  V30 1999 C 195.576 -1.60806 -0.254027 0
M  V30 2000 O 196.765 -1.78458 -0.0386891 0
M  V30 2001 C 193.865 -3.38891 0.0248198 0
M  V30 2002 C 193.038 -4.25548 1.01132 0
M  V30 2003 C 192.097 -5.24972 0.35924 0
M  V30 2004 O 191.123 -5.60174 1.00965 0
M  V30 2005 N 192.325 -5.73747 -0.882847 0
M  V30 2006 H 195.09 -2.52427 1.61557 0
M  V30 2007 H 192.651 -1.27967 0.991771 0
M  V30 2008 H 194.643 -4.02485 -0.422852 0
M  V30 2009 H 193.213 -3.02596 -0.784514 0
M  V30 2010 H 192.433 -3.58589 1.6373 0
M  V30 2011 H 193.721 -4.80294 1.67914 0
M  V30 2012 H 193.119 -5.4731 -1.43065 0
M  V30 2013 H 191.676 -6.39234 -1.27369 0
M  V30 2014 N 195.109 -0.891671 -1.2995 0
M  V30 2015 C 196.337 -0.52866 -2.00032 0
M  V30 2016 C 196.752 0.884574 -1.66795 0
M  V30 2017 O 196.109 1.5827 -0.908669 0
M  V30 2018 C 196.16 -0.701814 -3.54622 0
M  V30 2019 O 195.881 -2.05942 -3.86678 0
M  V30 2020 C 197.382 -0.342683 -4.41973 0
M  V30 2021 H 194.602 -0.203659 -0.639347 0
M  V30 2022 H 197.146 -1.19881 -1.65677 0
M  V30 2023 H 195.301 -0.0789468 -3.8732 0
M  V30 2024 H 195.715 -2.08291 -4.81368 0
M  V30 2025 H 197.189 -0.514709 -5.49595 0
M  V30 2026 H 197.666 0.71975 -4.33262 0
M  V30 2027 H 198.272 -0.942154 -4.14733 0
M  V30 2028 N 196.587 1.43421 -0.653314 0
M  V30 2029 C 197.497 2.34568 0.0388565 0
M  V30 2030 C 198.513 1.53888 0.81207 0
M  V30 2031 O 199.689 1.86539 0.759294 0
M  V30 2032 C 196.754 3.32167 0.993269 0
M  V30 2033 C 195.815 4.28751 0.216977 0
M  V30 2034 C 195.048 5.21688 1.12593 0
M  V30 2035 O 195.271 5.19052 2.36519 0
M  V30 2036 O 194.205 5.98919 0.598284 0
M  V30 2037 H 198.031 2.95251 -0.711386 0
M  V30 2038 H 195.616 1.43564 -0.413502 0
M  V30 2039 H 197.498 3.92183 1.54176 0
M  V30 2040 H 196.173 2.73987 1.72374 0
M  V30 2041 H 195.08 3.72215 -0.375101 0
M  V30 2042 H 196.413 4.89913 -0.473924 0
M  V30 2043 N 198.065 0.39524 1.52563 0
M  V30 2044 C 198.975 -0.444232 2.30356 0
M  V30 2045 C 199.991 -1.06615 1.37511 0
M  V30 2046 O 201.167 -1.07067 1.70583 0
M  V30 2047 C 198.232 -1.55315 3.09964 0
M  V30 2048 C 197.293 -0.955734 4.18526 0
M  V30 2049 C 196.526 -2.01181 4.9433 0
M  V30 2050 O 196.749 -3.22781 4.70285 0
M  V30 2051 O 195.683 -1.62579 5.79527 0
M  V30 2052 H 199.509 0.189667 3.03107 0
M  V30 2053 H 197.094 0.1588 1.48554 0
M  V30 2054 H 198.976 -2.19724 3.59582 0
M  V30 2055 H 197.651 -2.17191 2.4002 0
M  V30 2056 H 196.558 -0.274743 3.7309 0
M  V30 2057 H 197.891 -0.381109 4.90722 0
M  V30 2058 N 199.544 -1.57102 0.125237 0
M  V30 2059 C 200.454 -2.19191 -0.8362 0
M  V30 2060 C 201.47 -1.16985 -1.28805 0
M  V30 2061 O 202.646 -1.49479 -1.34974 0
M  V30 2062 C 199.711 -2.78407 -2.06617 0
M  V30 2063 C 198.772 -3.9567 -1.66565 0
M  V30 2064 C 198.005 -4.52052 -2.83698 0
M  V30 2065 O 198.228 -4.07326 -3.99302 0
M  V30 2066 O 197.162 -5.42645 -2.60423 0
M  V30 2067 H 200.988 -3.01816 -0.337776 0
M  V30 2068 H 198.573 -1.4906 -0.100695 0
M  V30 2069 H 200.455 -3.16129 -2.7864 0
M  V30 2070 H 199.13 -1.9881 -2.55453 0
M  V30 2071 H 198.037 -3.62705 -0.916296 0
M  V30 2072 H 199.37 -4.76722 -1.22464 0
M  V30 2073 N 201.022 0.148545 -1.56898 0
M  V30 2074 C 201.969 1.18345 -1.98149 0
M  V30 2075 C 202.939 1.42772 -0.848848 0
M  V30 2076 O 204.124 1.55132 -1.11079 0
M  V30 2077 C 201.264 2.51231 -2.36594 0
M  V30 2078 C 200.377 2.33991 -3.63142 0
M  V30 2079 C 199.512 3.59902 -3.90697 0
M  V30 2080 C 198.551 3.37692 -5.1052 0
M  V30 2081 N 197.688 4.5573 -5.34092 0
M  V30 2082 H 202.528 0.82467 -2.86362 0
M  V30 2083 H 200.065 0.395756 -1.41676 0
M  V30 2084 H 202.023 3.28713 -2.56912 0
M  V30 2085 H 200.653 2.85059 -1.51463 0
M  V30 2086 H 199.705 1.47572 -3.50609 0
M  V30 2087 H 201.017 2.13539 -4.5078 0
M  V30 2088 H 200.171 4.45813 -4.11505 0
M  V30 2089 H 198.91 3.83357 -3.01477 0
M  V30 2090 H 197.915 2.5017 -4.89587 0
M  V30 2091 H 199.14 3.15637 -6.0129 0
M  V30 2092 H 197.086 4.79361 -4.47827 0
M  V30 2093 H 197.003 4.38274 -6.15996 0
M  V30 2094 H 198.271 5.42858 -5.59397 0
M  V30 2095 N 202.5 1.5196 0.417844 0
M  V30 2096 C 203.916 1.40569 0.755816 0
M  V30 2097 C 204.116 0.503316 1.95113 0
M  V30 2098 O 203.172 -0.0341925 2.52477 0
M  V30 2099 C 204.485 2.82947 1.01791 0
M  V30 2100 C 206.033 2.92231 1.12116 0
M  V30 2101 C 206.508 4.35559 1.41608 0
M  V30 2102 N 207.999 4.38753 1.48491 0
M  V30 2103 C 208.734 5.46705 1.7292 0
M  V30 2104 N 208.23 6.64788 1.95011 0
M  V30 2105 N 210.023 5.34209 1.74863 0
M  V30 2106 H 202.174 2.09168 -0.369098 0
M  V30 2107 H 204.437 0.942409 -0.102809 0
M  V30 2108 H 204.143 3.5106 0.212081 0
M  V30 2109 H 204.017 3.23462 1.94042 0
M  V30 2110 H 206.404 2.24304 1.9176 0
M  V30 2111 H 206.485 2.55185 0.177225 0
M  V30 2112 H 206.129 5.04042 0.624848 0
M  V30 2113 H 206.059 4.70133 2.37239 0
M  V30 2114 H 208.55 3.5363 1.33244 0
M  V30 2115 H 208.863 7.42845 2.13076 0
M  V30 2116 H 207.208 6.67869 1.92293 0
M  V30 2117 H 210.399 4.40937 1.57137 0
M  V30 2118 H 210.572 6.18415 1.93563 0
M  V30 2119 N 203.978 -0.674533 1.42435 0
M  V30 2120 C 204.908 -1.80009 1.48724 0
M  V30 2121 C 205.889 -1.6659 0.343793 0
M  V30 2122 O 207.074 -1.86007 0.558137 0
M  V30 2123 C 204.204 -3.18306 1.38919 0
M  V30 2124 C 203.158 -3.46461 2.51294 0
M  V30 2125 C 202.484 -4.84335 2.26547 0
M  V30 2126 C 203.784 -3.43328 3.93603 0
M  V30 2127 H 205.478 -1.75004 2.42928 0
M  V30 2128 H 203.024 -0.840533 1.16923 0
M  V30 2129 H 204.977 -3.9678 1.41927 0
M  V30 2130 H 203.701 -3.2399 0.412094 0
M  V30 2131 H 202.36 -2.70348 2.47604 0
M  V30 2132 H 202.008 -4.86669 1.2713 0
M  V30 2133 H 201.708 -5.04136 3.01861 0
M  V30 2134 H 203.232 -5.65094 2.31304 0
M  V30 2135 H 204.646 -4.11772 3.98894 0
M  V30 2136 H 203.043 -3.74664 4.68771 0
M  V30 2137 H 204.113 -2.41897 4.20255 0
M  V30 2138 N 205.456 -1.28612 -0.910864 0
M  V30 2139 C 206.686 -1.1862 -1.69153 0
M  V30 2140 C 207.094 0.257324 -1.87442 0
M  V30 2141 O 206.437 1.18543 -1.40332 0
M  V30 2142 C 206.499 -1.81606 -3.10257 0
M  V30 2143 C 206.163 -3.30864 -3.15243 0
M  V30 2144 C 207.16 -4.27256 -2.96223 0
M  V30 2145 C 204.845 -3.71871 -3.37664 0
M  V30 2146 C 206.839 -5.62631 -2.99541 0
M  V30 2147 C 204.526 -5.07371 -3.40614 0
M  V30 2148 C 205.524 -6.02561 -3.21573 0
M  V30 2149 O 205.212 -7.35589 -3.2429 0
M  V30 2150 H 204.944 -0.412633 -0.535453 0
M  V30 2151 H 207.498 -1.70306 -1.14827 0
M  V30 2152 H 205.728 -1.24418 -3.66138 0
M  V30 2153 H 207.417 -1.66092 -3.70362 0
M  V30 2154 H 208.183 -3.9691 -2.78725 0
M  V30 2155 H 204.062 -2.98241 -3.5153 0
M  V30 2156 H 207.606 -6.36907 -2.84597 0
M  V30 2157 H 203.503 -5.37366 -3.57642 0
M  V30 2158 H 204.271 -7.44252 -3.40633 0
M  V30 2159 N 206.934 1.1197 -1.10907 0
M  V30 2160 C 207.844 2.21433 -0.774896 0
M  V30 2161 C 208.86 1.72478 0.229657 0
M  V30 2162 O 210.036 2.01288 0.0672008 0
M  V30 2163 C 207.101 3.4602 -0.216986 0
M  V30 2164 C 206.162 4.09791 -1.27944 0
M  V30 2165 C 205.395 5.28431 -0.748055 0
M  V30 2166 O 205.618 5.68823 0.423833 0
M  V30 2167 O 204.552 5.82644 -1.51027 0
M  V30 2168 H 208.378 2.5242 -1.68873 0
M  V30 2169 H 205.963 1.20399 -0.884555 0
M  V30 2170 H 207.845 4.21304 0.090059 0
M  V30 2171 H 206.52 3.16698 0.669633 0
M  V30 2172 H 205.427 3.36265 -1.63941 0
M  V30 2173 H 206.76 4.4328 -2.13925 0
M  V30 2174 N 208.412 0.89855 1.29475 0
M  V30 2175 C 209.64 0.539261 1.99749 0
M  V30 2176 C 210.055 -0.875716 1.67262 0
M  V30 2177 O 209.412 -1.57786 0.917049 0
M  V30 2178 C 209.463 0.72061 3.54245 0
M  V30 2179 O 209.184 2.07989 3.8558 0
M  V30 2180 C 210.685 0.366118 4.41786 0
M  V30 2181 H 207.905 0.207047 0.638258 0
M  V30 2182 H 210.449 1.20758 1.65039 0
M  V30 2183 H 208.604 0.0994862 3.87272 0
M  V30 2184 H 209.018 2.10841 4.80257 0
M  V30 2185 H 210.492 0.543848 5.49314 0
M  V30 2186 H 210.969 -0.696763 4.33638 0
M  V30 2187 H 211.575 0.964135 4.14228 0
M  V30 2188 N 209.89 -1.43072 0.660911 0
M  V30 2189 C 210.853 -2.29194 -0.0166406 0
M  V30 2190 C 211.853 -1.42609 -0.742912 0
M  V30 2191 O 213.043 -1.64155 -0.583004 0
M  V30 2192 C 210.175 -3.24831 -1.0343 0
M  V30 2193 H 211.368 -2.90596 0.741208 0
M  V30 2194 H 208.921 -1.5048 0.422532 0
M  V30 2195 H 209.656 -2.68339 -1.82111 0
M  V30 2196 H 209.441 -3.88676 -0.517082 0
M  V30 2197 H 210.931 -3.89451 -1.50723 0
M  V30 2198 N 211.368 -0.403325 -1.52352 0
M  V30 2199 C 212.779 0.0675782 -1.86578 0
M  V30 2200 C 213.13 1.44941 -1.32236 0
M  V30 2201 O 212.255 2.06112 -0.659307 0
M  V30 2202 C 212.85 0.129404 -3.38553 0
M  V30 2203 C 211.409 0.544629 -3.72439 0
M  V30 2204 C 210.556 -0.284551 -2.75836 0
M  V30 2205 H 213.507 -0.620631 -1.46061 0
M  V30 2206 H 213.528 0.94581 -3.68558 0
M  V30 2207 H 213.04 -0.87645 -3.78074 0
M  V30 2208 H 211.141 1.55734 -3.38493 0
M  V30 2209 H 211.254 0.293046 -4.78203 0
M  V30 2210 H 209.618 0.252258 -2.53448 0
M  V30 2211 H 210.401 -1.28865 -3.18196 0
M  V30 2212 N 212.846 1.57033 -0.133567 0
M  V30 2213 C 213.809 2.14897 0.796995 0
M  V30 2214 C 214.809 1.0874 1.18458 0
M  V30 2215 O 215.999 1.34446 1.1077 0
M  V30 2216 C 213.131 2.70112 2.07973 0
M  V30 2217 H 214.324 2.98457 0.293873 0
M  V30 2218 H 211.877 1.55871 0.115787 0
M  V30 2219 H 212.612 1.9018 2.62682 0
M  V30 2220 H 212.397 3.47764 1.81115 0
M  V30 2221 H 213.887 3.14738 2.74462 0
M  V30 2222 N 214.325 -0.140222 1.56975 0
M  V30 2223 C 215.741 -0.493088 1.51792 0
M  V30 2224 C 215.941 -1.83013 0.843116 0
M  V30 2225 O 214.997 -2.49041 0.416493 0
M  V30 2226 C 216.31 -0.497144 2.96562 0
M  V30 2227 C 217.858 -0.582186 3.07538 0
M  V30 2228 C 218.333 -0.616838 4.53827 0
M  V30 2229 N 219.824 -0.678873 4.58198 0
M  V30 2230 C 220.559 -0.726782 5.68775 0
M  V30 2231 N 220.055 -0.733623 6.88905 0
M  V30 2232 N 221.848 -0.768179 5.56826 0
M  V30 2233 H 213.999 0.736108 1.99237 0
M  V30 2234 H 216.262 0.269182 0.90898 0
M  V30 2235 H 215.968 0.417217 3.49217 0
M  V30 2236 H 215.842 -1.33263 3.52875 0
M  V30 2237 H 218.229 -1.48697 2.54899 0
M  V30 2238 H 218.31 0.280581 2.54257 0
M  V30 2239 H 217.954 0.283812 5.07106 0
M  V30 2240 H 217.884 -1.49619 5.04898 0
M  V30 2241 H 220.375 -0.68061 3.7172 0
M  V30 2242 H 220.688 -0.772215 7.68932 0
M  V30 2243 H 219.033 -0.701389 6.91452 0
M  V30 2244 H 222.224 -0.760051 4.61888 0
M  V30 2245 H 222.397 -0.80205 6.43017 0
M  V30 2246 N 215.803 -1.52179 -0.40978 0
M  V30 2247 C 216.75 -1.75475 -1.49924 0
M  V30 2248 C 217.72 -0.597175 -1.54994 0
M  V30 2249 O 218.905 -0.834655 -1.71575 0
M  V30 2250 C 216.045 -1.9107 -2.87378 0
M  V30 2251 C 215.158 -3.18717 -2.91622 0
M  V30 2252 C 214.293 -3.24747 -4.20372 0
M  V30 2253 C 213.332 -4.46598 -4.18588 0
M  V30 2254 N 212.469 -4.50025 -5.38908 0
M  V30 2255 H 217.309 -2.68458 -1.29361 0
M  V30 2256 H 214.846 -1.33024 -0.627934 0
M  V30 2257 H 216.804 -1.98096 -3.6717 0
M  V30 2258 H 215.434 -1.01469 -3.06437 0
M  V30 2259 H 214.486 -3.20866 -2.04326 0
M  V30 2260 H 215.798 -4.08544 -2.86169 0
M  V30 2261 H 214.952 -3.30841 -5.08556 0
M  V30 2262 H 213.691 -2.32857 -4.28519 0
M  V30 2263 H 212.696 -4.40652 -3.28794 0
M  V30 2264 H 213.921 -5.39783 -4.12081 0
M  V30 2265 H 211.867 -3.61017 -5.47725 0
M  V30 2266 H 211.784 -5.33697 -5.35447 0
M  V30 2267 H 213.052 -4.60347 -6.29048 0
M  V30 2268 N 217.281 0.66697 -1.42791 0
M  V30 2269 C 218.191 1.80962 -1.49299 0
M  V30 2270 C 219.207 1.69775 -0.381108 0
M  V30 2271 O 220.383 1.91188 -0.633188 0
M  V30 2272 C 217.448 3.17156 -1.40045 0
M  V30 2273 C 216.509 3.40242 -2.6179 0
M  V30 2274 C 215.742 4.69939 -2.52969 0
M  V30 2275 O 215.965 5.48372 -1.56985 0
M  V30 2276 O 214.899 4.94441 -3.43237 0
M  V30 2277 H 218.725 1.78427 -2.45759 0
M  V30 2278 H 216.31 0.823713 -1.24641 0
M  V30 2279 H 218.192 3.98413 -1.37276 0
M  V30 2280 H 216.867 3.20312 -0.467138 0
M  V30 2281 H 215.774 2.58802 -2.70134 0
M  V30 2282 H 217.107 3.41923 -3.54047 0
M  V30 2283 N 218.759 1.29093 0.90403 0
M  V30 2284 C 219.707 1.13727 2.02901 0
M  V30 2285 C 220.701 0.0539853 1.69314 0
M  V30 2286 O 221.907 0.213469 1.7873 0
M  V30 2287 H 218.282 0.35117 0.664969 0
M  V30 2288 H 220.253 2.08982 2.13001 0
M  V30 2289 C 219.002 0.826066 3.37745 0
M  V30 2290 H 218.325 1.65164 3.64089 0
M  V30 2291 H 219.765 0.758559 4.17159 0
M  V30 2292 C 218.224 -0.470541 3.33598 0
M  V30 2293 O 218.754 -1.49792 3.72727 0
M  V30 2294 N 216.96 -0.474812 2.86695 0
M  V30 2295 H 216.507 0.361692 2.55048 0
M  V30 2296 H 216.465 -1.34236 2.84303 0
M  V30 2297 N 220.237 -1.11381 1.11499 0
M  V30 2298 C 221.653 -1.35143 0.849031 0
M  V30 2299 C 221.853 -1.94515 -0.525938 0
M  V30 2300 O 220.909 -2.1785 -1.27662 0
M  V30 2301 C 222.222 -2.28249 1.95762 0
M  V30 2302 C 223.77 -2.41812 1.98736 0
M  V30 2303 C 224.245 -3.3824 3.088 0
M  V30 2304 N 225.736 -3.45803 3.08179 0
M  V30 2305 C 226.471 -4.20358 3.89982 0
M  V30 2306 N 225.967 -4.97884 4.8175 0
M  V30 2307 N 227.76 -4.15877 3.78157 0
M  V30 2308 H 219.911 -0.712062 2.00109 0
M  V30 2309 H 222.174 -0.376025 0.870235 0
M  V30 2310 H 221.88 -1.91817 2.94787 0
M  V30 2311 H 221.754 -3.28473 1.85433 0
M  V30 2312 H 224.141 -2.77518 1.00338 0
M  V30 2313 H 224.222 -1.41437 2.13141 0
M  V30 2314 H 223.866 -3.03261 4.07425 0
M  V30 2315 H 223.796 -4.38471 2.91635 0
M  V30 2316 H 226.287 -2.90506 2.41691 0
M  V30 2317 H 226.6 -5.52142 5.40702 0
M  V30 2318 H 224.945 -4.97043 4.85771 0
M  V30 2319 H 228.136 -3.544 3.05808 0
M  V30 2320 H 228.309 -4.73723 4.42143 0
M  V30 2321 N 221.715 -0.905404 -1.28997 0
M  V30 2322 C 222.662 -0.385892 -2.27551 0
M  V30 2323 C 223.632 0.535113 -1.57244 0
M  V30 2324 O 224.817 0.459119 -1.85194 0
M  V30 2325 C 221.957 0.375461 -3.43051 0
M  V30 2326 C 221.07 -0.577092 -4.28128 0
M  V30 2327 C 220.205 0.201879 -5.30816 0
M  V30 2328 C 219.244 -0.744829 -6.07551 0
M  V30 2329 N 218.381 9.42587e-05 -7.021 0
M  V30 2330 H 223.221 -1.23139 -2.71368 0
M  V30 2331 H 220.758 -0.618542 -1.33463 0
M  V30 2332 H 222.716 0.832992 -4.088 0
M  V30 2333 H 221.346 1.18537 -3.00248 0
M  V30 2334 H 220.398 -1.15315 -3.62501 0
M  V30 2335 H 221.71 -1.30152 -4.8152 0
M  V30 2336 H 220.864 0.720351 -6.02408 0
M  V30 2337 H 219.603 0.959413 -4.7817 0
M  V30 2338 H 218.608 -1.27475 -5.34818 0
M  V30 2339 H 219.833 -1.50178 -6.62286 0
M  V30 2340 H 217.779 0.739791 -6.51815 0
M  V30 2341 H 217.696 -0.664321 -7.53076 0
M  V30 2342 H 218.964 0.498644 -7.77903 0
M  V30 2343 N 223.193 1.4272 -0.668489 0
M  V30 2344 C 224.14 2.30796 0.0137489 0
M  V30 2345 C 225.11 1.4561 0.799177 0
M  V30 2346 O 226.295 1.74453 0.772702 0
M  V30 2347 C 223.435 3.31377 0.963507 0
M  V30 2348 C 222.548 4.31655 0.172569 0
M  V30 2349 C 221.683 5.19312 1.1175 0
M  V30 2350 C 220.722 6.11274 0.317886 0
M  V30 2351 N 219.859 6.91504 1.2152 0
M  V30 2352 H 224.699 2.88585 -0.743161 0
M  V30 2353 H 222.236 1.42154 -0.378226 0
M  V30 2354 H 224.194 3.88214 1.52792 0
M  V30 2355 H 222.824 2.75202 1.68712 0
M  V30 2356 H 221.876 3.76988 -0.508374 0
M  V30 2357 H 223.188 4.96779 -0.448527 0
M  V30 2358 H 222.342 5.80851 1.75206 0
M  V30 2359 H 221.081 4.5435 1.77249 0
M  V30 2360 H 220.086 5.48809 -0.329918 0
M  V30 2361 H 221.311 6.78283 -0.332917 0
M  V30 2362 H 219.257 6.29176 1.85671 0
M  V30 2363 H 219.174 7.53209 0.649036 0
M  V30 2364 H 220.442 7.57535 1.83742 0
M  V30 2365 N 224.671 0.411399 1.52136 0
M  V30 2366 C 226.087 0.0623865 1.59478 0
M  V30 2367 C 226.287 -1.42554 1.4241 0
M  V30 2368 O 225.343 -2.19263 1.2522 0
M  V30 2369 C 226.656 0.559331 2.95452 0
M  V30 2370 C 228.204 0.517503 3.08692 0
M  V30 2371 C 228.679 0.990994 4.4715 0
M  V30 2372 N 230.17 0.947908 4.53397 0
M  V30 2373 C 230.905 1.28544 5.58806 0
M  V30 2374 N 230.401 1.69454 6.71757 0
M  V30 2375 N 232.194 1.20526 5.49026 0
M  V30 2376 H 224.345 1.37982 1.61477 0
M  V30 2377 H 226.608 0.566977 0.759764 0
M  V30 2378 H 226.314 1.59938 3.1323 0
M  V30 2379 H 226.188 -0.0298014 3.77188 0
M  V30 2380 H 228.575 -0.513505 2.90598 0
M  V30 2381 H 228.656 1.14272 2.28857 0
M  V30 2382 H 228.3 2.02034 4.65988 0
M  V30 2383 H 228.23 0.34257 5.25485 0
M  V30 2384 H 230.721 0.647157 3.72317 0
M  V30 2385 H 231.034 1.93513 7.48179 0
M  V30 2386 H 229.379 1.73359 6.73032 0
M  V30 2387 H 232.57 0.884505 4.59667 0
M  V30 2388 H 232.743 1.47161 6.31069 0
M  V30 2389 N 226.149 -1.5696 0.141893 0
M  V30 2390 C 227.112 -2.15316 -0.785587 0
M  V30 2391 C 228.112 -1.09366 -1.1788 0
M  V30 2392 O 229.302 -1.35031 -1.10056 0
M  V30 2393 C 226.434 -2.71211 -2.06537 0
M  V30 2394 H 227.627 -2.98608 -0.278041 0
M  V30 2395 H 225.18 -1.5593 -0.107519 0
M  V30 2396 H 225.915 -1.91571 -2.6167 0
M  V30 2397 H 225.7 -3.4872 -1.79268 0
M  V30 2398 H 227.19 -3.16189 -2.72789 0
M  V30 2399 N 227.627 0.131896 -1.57047 0
M  V30 2400 C 228.59 1.14638 -1.98471 0
M  V30 2401 C 229.59 1.35029 -0.873148 0
M  V30 2402 O 230.78 1.31764 -1.13946 0
M  V30 2403 C 227.912 2.50358 -2.31373 0
M  V30 2404 H 229.105 0.79064 -2.8929 0
M  V30 2405 H 226.658 0.375761 -1.51716 0
M  V30 2406 H 227.393 2.90876 -1.43393 0
M  V30 2407 H 227.178 2.36915 -3.12432 0
M  V30 2408 H 228.668 3.23395 -2.64207 0
M  V30 2409 N 229.106 1.52395 0.401703 0
M  V30 2410 C 230.036 1.79231 1.49661 0
M  V30 2411 C 231.017 0.643654 1.57452 0
M  V30 2412 O 232.202 0.889989 1.72606 0
M  V30 2413 C 229.332 1.94971 2.87409 0
M  V30 2414 C 228.286 3.10604 2.94465 0
M  V30 2415 C 227.612 3.11577 4.34538 0
M  V30 2416 C 228.912 4.49921 2.6527 0
M  V30 2417 H 230.606 2.70917 1.27454 0
M  V30 2418 H 228.152 1.30362 0.6117 0
M  V30 2419 H 230.105 2.12328 3.63999 0
M  V30 2420 H 228.829 0.999632 3.10926 0
M  V30 2421 H 227.488 2.93009 2.20321 0
M  V30 2422 H 227.136 2.14277 4.55076 0
M  V30 2423 H 226.836 3.89247 4.40183 0
M  V30 2424 H 228.36 3.31073 5.13053 0
M  V30 2425 H 229.774 4.67683 3.31581 0
M  V30 2426 H 228.171 5.29564 2.82281 0
M  V30 2427 H 229.241 4.57507 1.60671 0
M  V30 2428 N 230.584 -0.659388 1.43143 0
M  V30 2429 C 232 -0.974337 1.26407 0
M  V30 2430 C 232.2 -2.007 0.179341 0
M  V30 2431 O 231.256 -2.4856 -0.444295 0
M  V30 2432 C 232.569 -1.46447 2.62628 0
M  V30 2433 C 234.117 -1.58144 2.7011 0
M  V30 2434 C 234.592 -2.1055 4.06734 0
M  V30 2435 N 236.083 -2.17861 4.08767 0
M  V30 2436 C 236.818 -2.59519 5.1131 0
M  V30 2437 N 236.314 -3.00518 6.24228 0
M  V30 2438 N 238.107 -2.59404 4.98664 0
M  V30 2439 H 230.258 0.0240528 2.12386 0
M  V30 2440 H 232.521 -0.0518065 0.946583 0
M  V30 2441 H 232.227 -0.780123 3.42939 0
M  V30 2442 H 232.101 -2.44058 2.87603 0
M  V30 2443 H 234.488 -2.25682 1.90136 0
M  V30 2444 H 234.569 -0.589828 2.48907 0
M  V30 2445 H 234.213 -1.43616 4.87172 0
M  V30 2446 H 234.143 -3.10531 4.25298 0
M  V30 2447 H 236.634 -1.88975 3.27257 0
M  V30 2448 H 236.947 -3.31036 6.98309 0
M  V30 2449 H 235.292 -2.98337 6.2771 0
M  V30 2450 H 238.483 -2.26747 4.09516 0
M  V30 2451 H 238.656 -2.91548 5.78709 0
M  V30 2452 O 232.101 -1.40162 -0.802292 0
M  V30 2453 H 232.792 -1.28727 -1.44738 0
M  V30 END ATOM
M  V30 BEGIN BOND
M  V30 END BOND
M  V30 END CTAB
M  END
$$$$
