drugbank_target|Q9KEI9 Ribonuclease H (DB07652)
 OpenBabel12092120453D

  0  0  0     0  0            999 V3000
M  V30 BEGIN CTAB
M  V30 COUNTS 3152 3191 0 0 0
M  V30 BEGIN ATOM
M  V30 1 H -0.908 1.98254 -0.117106 0
M  V30 2 N 0 1.576 0 0
M  V30 3 C 0.933 2.03868 1.02534 0
M  V30 4 C 1.911 0.928543 1.3348 0
M  V30 5 O 3.095 1.19667 1.45644 0
M  V30 6 C 0.222 2.43627 2.35294 0
M  V30 7 C -0.732 3.65373 2.2001 0
M  V30 8 S 0.101 5.13292 1.52614 0
M  V30 9 C 1.257 5.56322 2.86805 0
M  V30 10 H 1.49 2.90518 0.631377 0
M  V30 11 H -0.977 1.52953 0.210867 0
M  V30 12 H 0.981 2.67203 3.11629 0
M  V30 13 H -0.358 1.57376 2.7183 0
M  V30 14 H -1.165 3.90944 3.18086 0
M  V30 15 H -1.563 3.418 1.51819 0
M  V30 16 H 0.729 5.58782 3.83104 0
M  V30 17 H 1.672 6.56266 2.65933 0
M  V30 18 H 2.08 4.83886 2.90714 0
M  V30 19 N 1.4781 -0.272755 1.55222 0
M  V30 20 C 2.4411 -1.32041 1.87344 0
M  V30 21 C 3.4411 -1.42342 0.74803 0
M  V30 22 O 4.6311 -1.41488 1.0162 0
M  V30 23 C 1.7631 -2.70173 2.07893 0
M  V30 24 H 2.9561 -1.04789 2.80997 0
M  V30 25 H 0.5091 -0.51083 1.47717 0
M  V30 26 H 1.2441 -3.02605 1.16622 0
M  V30 27 H 1.0291 -2.64082 2.89833 0
M  V30 28 H 2.5191 -3.45869 2.34017 0
M  V30 29 N 2.9562 -1.48159 -0.537278 0
M  V30 30 C 3.9032 -1.62138 -1.64256 0
M  V30 31 C 4.8732 -0.463668 -1.59497 0
M  V30 32 O 6.0582 -0.686241 -1.78032 0
M  V30 33 C 3.1982 -1.66028 -3.02537 0
M  V30 34 C 2.3112 -2.92855 -3.17585 0
M  V30 35 C 1.4462 -2.87952 -4.46382 0
M  V30 36 C 0.4852 -4.09516 -4.54932 0
M  V30 37 N -0.3778 -4.02733 -5.75109 0
M  V30 38 H 4.4622 -2.56529 -1.51647 0
M  V30 39 H 1.9992 -1.27224 -0.738414 0
M  V30 40 H 3.9572 -1.66265 -3.82638 0
M  V30 41 H 2.5872 -0.751331 -3.13934 0
M  V30 42 H 1.6392 -3.02395 -2.30784 0
M  V30 43 H 2.9512 -3.82822 -3.19764 0
M  V30 44 H 2.1052 -2.8655 -5.34765 0
M  V30 45 H 0.8442 -1.95702 -4.46712 0
M  V30 46 H -0.1508 -4.11201 -3.64957 0
M  V30 47 H 1.0742 -5.02917 -4.56346 0
M  V30 48 H -0.9798 -3.13299 -5.76351 0
M  V30 49 H -1.0628 -4.86397 -5.78752 0
M  V30 50 H 0.2052 -4.05379 -6.65799 0
M  V30 51 N 4.4343 0.785586 -1.36625 0
M  V30 52 C 5.6593 1.57963 -1.34397 0
M  V30 53 C 6.0843 1.87964 0.071526 0
M  V30 54 O 5.4423 1.48182 1.0446 0
M  V30 55 C 5.4903 2.87511 -2.17646 0
M  V30 56 O 4.5943 3.81281 -1.57158 0
M  V30 57 H 3.9353 0.479014 -0.459828 0
M  V30 58 H 6.4653 0.973411 -1.79961 0
M  V30 59 H 6.4753 3.36745 -2.30362 0
M  V30 60 H 5.1503 2.65002 -3.20541 0
M  V30 61 H 3.7273 3.39885 -1.53403 0
M  V30 62 N 5.9124 1.20967 1.01018 0
M  V30 63 C 6.8594 0.964281 2.09691 0
M  V30 64 C 7.8294 -0.107853 1.65749 0
M  V30 65 O 9.0144 0.0381987 1.90762 0
M  V30 66 C 6.1544 0.52943 3.41015 0
M  V30 67 C 5.2674 1.67043 3.98398 0
M  V30 68 C 4.4024 1.18525 5.17808 0
M  V30 69 C 3.4414 2.29892 5.67288 0
M  V30 70 N 2.5784 1.82546 6.77954 0
M  V30 71 H 7.4184 1.89463 2.30017 0
M  V30 72 H 4.9554 0.944289 1.1279 0
M  V30 73 H 6.9134 0.258588 4.16398 0
M  V30 74 H 5.5434 -0.363919 3.20742 0
M  V30 75 H 4.5954 2.05603 3.20049 0
M  V30 76 H 5.9074 2.50877 4.31117 0
M  V30 77 H 5.0614 0.870762 6.00419 0
M  V30 78 H 3.8004 0.316887 4.86669 0
M  V30 79 H 2.8054 2.6215 4.83278 0
M  V30 80 H 4.0304 3.17216 6.00459 0
M  V30 81 H 1.9764 0.980454 6.48632 0
M  V30 82 H 1.8934 2.59956 7.09901 0
M  V30 83 H 3.1614 1.54115 7.64113 0
M  V30 84 N 7.3905 -1.2043 1.01659 0
M  V30 85 C 8.6205 -1.93496 0.724081 0
M  V30 86 C 9.0285 -1.74998 -0.71918 0
M  V30 87 O 8.3715 -1.06118 -1.49949 0
M  V30 88 C 8.4335 -3.45886 0.97994 0
M  V30 89 C 8.0975 -3.88145 2.41232 0
M  V30 90 C 9.0945 -3.93907 3.39313 0
M  V30 91 C 6.7795 -4.20134 2.75305 0
M  V30 92 C 8.7735 -4.31069 4.6953 0
M  V30 93 C 6.4605 -4.56971 4.05735 0
M  V30 94 C 7.4585 -4.62411 5.02658 0
M  V30 95 O 7.1465 -4.98403 6.30754 0
M  V30 96 H 6.8785 -0.621824 0.265162 0
M  V30 97 H 9.4325 -1.53867 1.36066 0
M  V30 98 H 7.6625 -3.85639 0.286198 0
M  V30 99 H 9.3515 -4.0018 0.679021 0
M  V30 100 H 10.1175 -3.69357 3.14325 0
M  V30 101 H 5.9965 -4.1509 2.00551 0
M  V30 102 H 9.5405 -4.3523 5.45179 0
M  V30 103 H 5.4375 -4.80977 4.30502 0
M  V30 104 H 6.2055 -5.16395 6.35042 0
M  V30 105 N 8.8686 -0.792821 -1.36206 0
M  V30 106 C 10.0986 -0.378275 -2.03107 0
M  V30 107 C 10.5066 1.01119 -1.59911 0
M  V30 108 O 9.8496 1.66052 -0.785658 0
M  V30 109 C 9.9116 -0.366535 -3.57627 0
M  V30 110 C 9.5756 -1.70416 -4.24037 0
M  V30 111 C 10.5726 -2.6602 -4.46687 0
M  V30 112 C 8.2576 -1.98439 -4.6144 0
M  V30 113 C 10.2516 -3.8784 -5.05825 0
M  V30 114 C 7.9386 -3.20525 -5.20295 0
M  V30 115 C 8.9366 -4.15044 -5.42427 0
M  V30 116 O 8.6246 -5.34978 -6.00045 0
M  V30 117 H 8.3566 -0.153543 -0.658332 0
M  V30 118 H 10.9106 -1.07383 -1.75094 0
M  V30 119 H 9.1406 0.385539 -3.84773 0
M  V30 120 H 10.8296 0.0238088 -4.05893 0
M  V30 121 H 11.5956 -2.45658 -4.18183 0
M  V30 122 H 7.4746 -1.25686 -4.43536 0
M  V30 123 H 11.0186 -4.61628 -5.23015 0
M  V30 124 H 6.9156 -3.40764 -5.48225 0
M  V30 125 H 7.6836 -5.36088 -6.18508 0
M  V30 126 N 10.3467 1.47872 -0.545128 0
M  V30 127 C 11.5927 2.02793 -0.0166104 0
M  V30 128 C 11.9257 1.41987 1.32489 0
M  V30 129 O 11.2007 0.571045 1.85928 0
M  V30 130 C 11.4837 3.59989 0.0893294 0
M  V30 131 C 11.3367 4.3125 -1.27841 0
M  V30 132 C 12.6557 4.32606 0.808724 0
M  V30 133 H 9.7747 0.736962 -0.00751035 0
M  V30 134 H 12.4167 1.76433 -0.705085 0
M  V30 135 H 10.5667 3.82579 0.675681 0
M  V30 136 H 12.2387 4.20035 -1.90704 0
M  V30 137 H 10.4817 3.92076 -1.85632 0
M  V30 138 H 11.1527 5.39736 -1.15713 0
M  V30 139 H 13.6287 4.14936 0.310992 0
M  V30 140 H 12.5047 5.42251 0.851782 0
M  V30 141 H 12.7657 4.00963 1.86229 0
M  V30 142 N 11.8248 0.280983 1.55075 0
M  V30 143 C 13.0708 -0.33461 2.00021 0
M  V30 144 C 13.4038 -1.55063 1.16915 0
M  V30 145 O 12.6788 -1.93006 0.240646 0
M  V30 146 C 12.9618 -0.711007 3.53011 0
M  V30 147 C 12.8148 0.512766 4.46868 0
M  V30 148 C 14.1338 -1.54522 4.12081 0
M  V30 149 H 11.2528 -0.120147 0.727141 0
M  V30 150 H 13.8948 0.389097 1.85973 0
M  V30 151 H 12.0448 -1.32761 3.65112 0
M  V30 152 H 13.7168 1.15131 4.46702 0
M  V30 153 H 11.9598 1.14975 4.18286 0
M  V30 154 H 12.6308 0.205556 5.51617 0
M  V30 155 H 15.1068 -1.02442 4.03293 0
M  V30 156 H 13.9828 -1.77739 5.19327 0
M  V30 157 H 14.2438 -2.52813 3.62682 0
M  V30 158 N 13.3029 -1.57598 0.00835791 0
M  V30 159 C 14.5489 -1.92046 -0.670055 0
M  V30 160 C 14.9039 -0.88351 -1.70915 0
M  V30 161 O 14.1969 0.103223 -1.91322 0
M  V30 162 C 14.3909 -3.3101 -1.34787 0
M  V30 163 C 14.2199 -4.48126 -0.375945 0
M  V30 164 C 12.9899 -5.05297 0.0166914 0
M  V30 165 C 15.1879 -5.1303 0.361272 0
M  V30 166 N 13.1699 -6.05931 0.985952 0
M  V30 167 C 14.5409 -6.08571 1.18495 0
M  V30 168 C 16.5959 -4.9609 0.42421 0
M  V30 169 C 15.2989 -6.88996 2.06584 0
M  V30 170 C 17.3249 -5.77107 1.29236 0
M  V30 171 C 16.6869 -6.72248 2.10386 0
M  V30 172 H 12.7859 -0.75096 -0.218136 0
M  V30 173 H 15.3699 -1.94572 0.0706669 0
M  V30 174 H 13.5409 -3.29342 -2.05884 0
M  V30 175 H 15.2729 -3.52864 -1.98164 0
M  V30 176 H 12.0279 -4.72279 -0.353435 0
M  V30 177 H 12.4519 -6.60932 1.4662 0
M  V30 178 H 17.0939 -4.22378 -0.188915 0
M  V30 179 H 14.8119 -7.62028 2.6896 0
M  V30 180 H 18.3979 -5.66038 1.34508 0
M  V30 181 H 17.2779 -7.33846 2.76476 0
M  V30 182 N 14.781 0.264519 -1.55364 0
M  V30 183 C 15.729 1.34702 -1.89626 0
M  V30 184 C 16.723 1.50712 -0.773459 0
M  V30 185 O 17.929 1.52395 -0.957897 0
M  V30 186 H 14.304 0.450682 -0.601988 0
M  V30 187 H 16.275 1.0306 -2.80038 0
M  V30 188 C 15.024 2.6989 -2.19214 0
M  V30 189 H 14.347 2.58365 -3.05103 0
M  V30 190 H 15.787 3.44553 -2.47102 0
M  V30 191 C 14.246 3.21637 -1.00254 0
M  V30 192 O 14.776 4.00973 -0.241501 0
M  V30 193 N 12.982 2.7943 -0.797938 0
M  V30 194 H 12.529 2.15026 -1.4185 0
M  V30 195 H 12.487 3.144 -0.00363422 0
M  V30 196 N 16.2591 1.48442 0.529413 0
M  V30 197 C 17.5071 1.56179 1.28267 0
M  V30 198 C 17.8281 0.237721 1.93546 0
M  V30 199 O 17.0981 -0.740779 1.81354 0
M  V30 200 H 15.6781 0.575367 0.476405 0
M  V30 201 H 18.3401 1.84909 0.61602 0
M  V30 202 H 17.4361 2.34312 2.06165 0
M  V30 203 N 17.7372 -0.778329 1.37039 0
M  V30 204 C 19.1532 -1.07796 1.17695 0
M  V30 205 C 19.3532 -2.01498 0.00860115 0
M  V30 206 O 18.4092 -2.43901 -0.653352 0
M  V30 207 C 19.7222 -1.68178 2.49272 0
M  V30 208 C 21.2702 -1.80467 2.55735 0
M  V30 209 C 21.7452 -2.44263 3.87427 0
M  V30 210 N 23.2362 -2.51721 3.88833 0
M  V30 211 C 23.9712 -3.01919 4.87476 0
M  V30 212 N 23.4672 -3.5234 5.96513 0
M  V30 213 N 25.2602 -3.00733 4.74885 0
M  V30 214 H 17.4112 -0.156032 2.11826 0
M  V30 215 H 19.6742 -0.131844 0.938787 0
M  V30 216 H 19.3802 -1.06796 3.35093 0
M  V30 217 H 19.2542 -2.67554 2.65885 0
M  V30 218 H 21.6412 -2.40984 1.70325 0
M  V30 219 H 21.7222 -0.798656 2.43013 0
M  V30 220 H 21.3662 -1.84388 4.73248 0
M  V30 221 H 21.2962 -3.45458 3.9745 0
M  V30 222 H 23.7872 -2.1603 3.10063 0
M  V30 223 H 24.1002 -3.89027 6.67741 0
M  V30 224 H 22.4452 -3.50462 6.00168 0
M  V30 225 H 25.6362 -2.60638 3.88826 0
M  V30 226 H 25.8092 -3.39545 5.51918 0
M  V30 227 N 19.2153 -1.21501 -1.00376 0
M  V30 228 C 20.1623 -0.975387 -2.09177 0
M  V30 229 C 21.1323 0.0990615 -1.65804 0
M  V30 230 O 22.3173 -0.0483147 -1.90739 0
M  V30 231 C 19.4573 -0.547507 -3.40729 0
M  V30 232 C 18.5703 -1.69153 -3.97506 0
M  V30 233 C 17.7053 -1.2127 -5.17172 0
M  V30 234 C 16.7443 -2.32897 -5.66061 0
M  V30 235 N 15.8813 -1.86138 -6.76976 0
M  V30 236 H 20.7213 -1.9068 -2.29009 0
M  V30 237 H 18.2583 -0.950257 -1.12288 0
M  V30 238 H 20.2163 -0.280667 -4.16255 0
M  V30 239 H 18.8463 0.346904 -3.20931 0
M  V30 240 H 17.8983 -2.07298 -3.18954 0
M  V30 241 H 19.2103 -2.5316 -4.29781 0
M  V30 242 H 18.3643 -0.902591 -5.99948 0
M  V30 243 H 17.1033 -0.342692 -4.86495 0
M  V30 244 H 16.1083 -2.64709 -4.81881 0
M  V30 245 H 17.3333 -3.20396 -5.98768 0
M  V30 246 H 15.2793 -1.01484 -6.48103 0
M  V30 247 H 15.1963 -2.63717 -7.08512 0
M  V30 248 H 16.4643 -1.58165 -7.63285 0
M  V30 249 N 20.6934 1.19889 -1.02296 0
M  V30 250 C 22.1044 1.71124 -0.746568 0
M  V30 251 C 22.4554 1.81939 0.734335 0
M  V30 252 O 21.5804 1.48639 1.57275 0
M  V30 253 C 22.1754 3.10804 -1.34857 0
M  V30 254 C 20.7344 3.59323 -1.1209 0
M  V30 255 C 19.8814 2.3635 -1.45031 0
M  V30 256 H 22.8324 1.04813 -1.19163 0
M  V30 257 H 22.8534 3.73186 -0.742437 0
M  V30 258 H 22.3654 3.029 -2.42638 0
M  V30 259 H 20.4664 3.7255 -0.0610337 0
M  V30 260 H 20.5794 4.4378 -1.80544 0
M  V30 261 H 18.9434 2.39399 -0.869487 0
M  V30 262 H 19.7264 2.31081 -2.53883 0
M  V30 263 N 22.1715 0.800033 1.35784 0
M  V30 264 C 23.4195 0.376597 1.9856 0
M  V30 265 C 23.7405 -1.05812 1.63795 0
M  V30 266 O 23.0105 -1.73103 0.917171 0
M  V30 267 H 21.5905 0.136261 0.734467 0
M  V30 268 H 24.2525 1.02442 1.65806 0
M  V30 269 H 23.3485 0.477002 3.08433 0
M  V30 270 N 23.6496 -1.47581 0.552962 0
M  V30 271 C 24.8986 -2.01684 0.0251995 0
M  V30 272 C 25.2116 -1.43317 -1.33115 0
M  V30 273 O 26.4176 -1.89057 -1.94858 0
M  V30 274 C 24.8736 -3.599 -0.00542052 0
M  V30 275 C 24.4816 -4.27257 1.34742 0
M  V30 276 C 26.2256 -4.21768 -0.4808 0
M  V30 277 C 24.1326 -5.77467 1.27614 0
M  V30 278 H 23.0626 -0.753979 0.00565033 0
M  V30 279 H 25.7136 -1.69616 0.70018 0
M  V30 280 H 24.0956 -3.88911 -0.745961 0
M  V30 281 H 25.2696 -4.09893 2.10534 0
M  V30 282 H 23.5846 -3.77358 1.76039 0
M  V30 283 H 26.1816 -5.31838 -0.55246 0
M  V30 284 H 26.5246 -3.88651 -1.49184 0
M  V30 285 H 27.0576 -3.97273 0.204752 0
M  V30 286 H 23.7966 -6.15196 2.26304 0
M  V30 287 H 23.3166 -5.9718 0.55996 0
M  V30 288 H 24.9956 -6.3959 0.976421 0
M  V30 289 N 25.1277 -0.289203 -1.54924 0
M  V30 290 C 26.3577 0.325989 -2.04012 0
M  V30 291 C 26.7657 1.48961 -1.1665 0
M  V30 292 O 26.1087 1.82794 -0.1822 0
M  V30 293 C 26.1707 0.856112 -3.49158 0
M  V30 294 C 25.8347 -0.180697 -4.56643 0
M  V30 295 C 26.8317 -1.0051 -5.10092 0
M  V30 296 C 24.5167 -0.318998 -5.01286 0
M  V30 297 C 26.5107 -1.95385 -6.06715 0
M  V30 298 C 24.1977 -1.27121 -5.97732 0
M  V30 299 C 25.1957 -2.08713 -6.50329 0
M  V30 300 O 24.8837 -3.02322 -7.44887 0
M  V30 301 H 24.6157 0.0765276 -0.671654 0
M  V30 302 H 27.1697 -0.423254 -2.00992 0
M  V30 303 H 25.3997 1.65567 -3.49463 0
M  V30 304 H 27.0887 1.38591 -3.81507 0
M  V30 305 H 27.8547 -0.90906 -4.76404 0
M  V30 306 H 23.7337 0.306108 -4.59983 0
M  V30 307 H 27.2777 -2.59111 -6.47694 0
M  V30 308 H 23.1747 -1.36801 -6.30837 0
M  V30 309 H 23.9427 -2.97165 -7.6265 0
M  V30 310 N 26.6058 1.57591 -0.0167156 0
M  V30 311 C 27.8338 1.95575 0.675128 0
M  V30 312 C 28.2488 0.892542 1.6637 0
M  V30 313 O 27.6058 -0.126912 1.82058 0
M  V30 314 C 27.6568 3.33608 1.39239 0
M  V30 315 O 27.3778 4.3585 0.443444 0
M  V30 316 C 28.8788 3.86151 2.17721 0
M  V30 317 H 26.0988 0.644423 0.186978 0
M  V30 318 H 28.6428 2.0437 -0.0728 0
M  V30 319 H 26.7978 3.2607 2.09182 0
M  V30 320 H 27.2118 5.158 0.951358 0
M  V30 321 H 28.6858 4.85114 2.63379 0
M  V30 322 H 29.1628 3.19738 3.01105 0
M  V30 323 H 29.7688 3.96918 1.52761 0
M  V30 324 N 28.0839 -0.256276 1.55502 0
M  V30 325 C 29.3089 -1.00766 1.81276 0
M  V30 326 C 29.7339 -1.78524 0.59252 0
M  V30 327 O 29.0919 -1.75413 -0.45827 0
M  V30 328 C 29.1399 -1.92869 3.04687 0
M  V30 329 O 28.2439 -3.019 2.80945 0
M  V30 330 H 27.5849 -0.287224 0.598664 0
M  V30 331 H 30.1149 -0.280109 2.02674 0
M  V30 332 H 30.1249 -2.34511 3.33869 0
M  V30 333 H 28.7999 -1.35689 3.93143 0
M  V30 334 H 27.3769 -2.64454 2.62904 0
M  V30 335 N 29.562 -1.4872 -0.521534 0
M  V30 336 C 30.808 -1.58378 -1.27624 0
M  V30 337 C 31.163 -0.258028 -1.90662 0
M  V30 338 O 30.456 0.739917 -1.76736 0
M  V30 339 C 30.65 -2.66497 -2.38148 0
M  V30 340 C 30.479 -4.09456 -1.85945 0
M  V30 341 C 29.249 -4.76495 -1.68168 0
M  V30 342 C 31.447 -4.95353 -1.3831 0
M  V30 343 N 29.429 -6.0384 -1.1068 0
M  V30 344 C 30.8 -6.13012 -0.928238 0
M  V30 345 C 32.855 -4.81512 -1.26692 0
M  V30 346 C 31.558 -7.18354 -0.368701 0
M  V30 347 C 33.584 -5.86984 -0.721368 0
M  V30 348 C 32.946 -7.03857 -0.276623 0
M  V30 349 H 29.045 -0.634045 -0.457724 0
M  V30 350 H 31.629 -1.85639 -0.587049 0
M  V30 351 H 29.8 -2.41043 -3.04553 0
M  V30 352 H 31.532 -2.65791 -3.05184 0
M  V30 353 H 28.287 -4.32962 -1.91939 0
M  V30 354 H 28.711 -6.71778 -0.839217 0
M  V30 355 H 33.353 -3.91487 -1.5968 0
M  V30 356 H 31.071 -8.08096 -0.0265122 0
M  V30 357 H 34.657 -5.78329 -0.634531 0
M  V30 358 H 33.537 -7.84077 0.138947 0
M  V30 359 N 31.0401 0.771051 -1.3745 0
M  V30 360 C 32.2651 1.56529 -1.36065 0
M  V30 361 C 32.6901 1.88029 0.0515859 0
M  V30 362 O 32.0481 1.49282 1.02882 0
M  V30 363 C 32.0961 2.85187 -2.20683 0
M  V30 364 O 31.2001 3.79593 -1.61193 0
M  V30 365 H 30.5411 0.47411 -0.464883 0
M  V30 366 H 33.0711 0.954269 -1.80983 0
M  V30 367 H 33.0811 3.34283 -2.33921 0
M  V30 368 H 31.7561 2.61588 -3.23334 0
M  V30 369 H 30.3331 3.38239 -1.56999 0
M  V30 370 N 32.5182 1.22032 0.997298 0
M  V30 371 C 33.4812 0.987909 2.06816 0
M  V30 372 C 34.4812 -0.0440084 1.6074 0
M  V30 373 O 35.6712 0.194053 1.73116 0
M  V30 374 C 32.8032 0.49132 3.37341 0
M  V30 375 H 33.9962 1.93803 2.28868 0
M  V30 376 H 31.5492 1.03838 1.16822 0
M  V30 377 H 32.2842 -0.463364 3.20973 0
M  V30 378 H 32.0692 1.23575 3.72118 0
M  V30 379 H 33.5592 0.348824 4.16141 0
M  V30 380 N 33.9963 -1.19345 1.0293 0
M  V30 381 C 35.2363 -1.90738 0.734727 0
M  V30 382 C 35.6003 -1.7785 -0.723414 0
M  V30 383 O 36.8013 -2.43844 -1.13108 0
M  V30 384 C 35.0723 -3.37569 1.17396 0
M  V30 385 S 36.6313 -4.27176 1.00329 0
M  V30 386 H 33.4493 -0.658771 0.267474 0
M  V30 387 H 36.0513 -1.4428 1.31922 0
M  V30 388 H 34.7553 -3.44475 2.23081 0
M  V30 389 H 34.2863 -3.8906 0.582772 0
M  V30 390 H 36.3013 -4.96126 -0.0859152 0
M  V30 391 N 35.4744 -0.807222 -1.35358 0
M  V30 392 C 36.3844 -0.219594 -2.3357 0
M  V30 393 C 37.4004 0.637734 -1.61892 0
M  V30 394 O 38.5764 0.549336 -1.93763 0
M  V30 395 C 35.6414 0.62158 -3.41083 0
M  V30 396 C 34.7024 -0.256315 -4.28534 0
M  V30 397 C 33.9354 0.544807 -5.30912 0
M  V30 398 O 34.1584 1.77944 -5.41934 0
M  V30 399 O 33.0924 -0.0646478 -6.01865 0
M  V30 400 H 36.9184 -1.03208 -2.85625 0
M  V30 401 H 34.5034 -0.569025 -1.38139 0
M  V30 402 H 36.3854 1.10067 -4.06772 0
M  V30 403 H 35.0604 1.41165 -2.91297 0
M  V30 404 H 33.9674 -0.782559 -3.65823 0
M  V30 405 H 35.3004 -1.01034 -4.81719 0
M  V30 406 N 36.9525 1.47285 -0.560781 0
M  V30 407 C 37.9155 2.28535 0.174488 0
M  V30 408 C 38.9155 1.37153 0.839388 0
M  V30 409 O 40.1055 1.59748 0.694702 0
M  V30 410 C 37.2375 3.16934 1.25561 0
M  V30 411 H 38.4305 2.95012 -0.539262 0
M  V30 412 H 35.9835 1.53034 -0.317865 0
M  V30 413 H 36.7185 2.55157 2.00164 0
M  V30 414 H 36.5035 3.8419 0.783604 0
M  V30 415 H 37.9935 3.78143 1.77193 0
M  V30 416 N 38.4306 0.297415 1.54768 0
M  V30 417 C 39.3626 -0.613881 2.20826 0
M  V30 418 C 40.3756 -1.10032 1.19987 0
M  V30 419 O 41.5646 -1.01839 1.46598 0
M  V30 420 C 38.6646 -1.852 2.83821 0
M  V30 421 C 37.8376 -1.50865 4.10559 0
M  V30 422 C 36.8966 -2.60154 4.57391 0
M  V30 423 O 35.9226 -2.25398 5.2267 0
M  V30 424 N 37.1246 -3.90629 4.29406 0
M  V30 425 H 39.8896 -0.048389 2.99661 0
M  V30 426 H 37.4506 0.11946 1.61459 0
M  V30 427 H 39.4426 -2.57652 3.12086 0
M  V30 428 H 38.0126 -2.32597 2.08847 0
M  V30 429 H 37.2326 -0.616925 3.89343 0
M  V30 430 H 38.5206 -1.25458 4.9309 0
M  V30 431 H 37.9186 -4.21677 3.77101 0
M  V30 432 H 36.4756 -4.59391 4.62388 0
M  V30 433 N 39.9087 -1.5758 0.0250728 0
M  V30 434 C 41.1547 -1.91917 -0.655413 0
M  V30 435 C 41.4877 -0.901433 -1.72011 0
M  V30 436 O 40.7627 0.0764069 -1.9435 0
M  V30 437 C 41.0457 -3.36751 -1.27558 0
M  V30 438 C 40.8987 -4.49258 -0.220719 0
M  V30 439 C 42.2177 -3.81469 -2.19475 0
M  V30 440 H 39.3367 -0.697925 -0.23679 0
M  V30 441 H 41.9787 -1.89825 0.0815036 0
M  V30 442 H 40.1287 -3.38664 -1.90365 0
M  V30 443 H 41.8007 -4.59478 0.409601 0
M  V30 444 H 40.0437 -4.31415 0.454264 0
M  V30 445 H 40.7147 -5.47618 -0.694175 0
M  V30 446 H 43.1907 -3.81266 -1.66659 0
M  V30 447 H 42.0667 -4.83512 -2.59822 0
M  V30 448 H 42.3277 -3.16744 -3.08424 0
M  V30 449 N 41.3868 0.248026 -1.55636 0
M  V30 450 C 42.3338 1.30707 -1.90222 0
M  V30 451 C 43.3038 1.47881 -0.756332 0
M  V30 452 O 44.4888 1.61883 -1.00988 0
M  V30 453 C 41.6288 2.65769 -2.20138 0
M  V30 454 C 40.7418 2.56612 -3.47526 0
M  V30 455 C 39.8768 3.8402 -3.67017 0
M  V30 456 C 38.9158 3.69476 -4.8801 0
M  V30 457 N 38.0528 4.88774 -5.04029 0
M  V30 458 H 42.8928 1.00512 -2.80538 0
M  V30 459 H 40.4298 0.485055 -1.38873 0
M  V30 460 H 42.3878 3.44386 -2.35487 0
M  V30 461 H 41.0178 2.94115 -1.33027 0
M  V30 462 H 40.0698 1.69571 -3.40514 0
M  V30 463 H 41.3818 2.41774 -4.36287 0
M  V30 464 H 40.5358 4.7108 -3.8232 0
M  V30 465 H 39.2748 4.01754 -2.76487 0
M  V30 466 H 38.2798 2.80799 -4.72686 0
M  V30 467 H 39.5048 3.53238 -5.8 0
M  V30 468 H 37.4508 5.0687 -4.16435 0
M  V30 469 H 37.3678 4.76562 -5.86877 0
M  V30 470 H 38.6358 5.77335 -5.23741 0
M  V30 471 N 42.8649 1.48995 0.513639 0
M  V30 472 C 44.1129 1.57531 1.26604 0
M  V30 473 C 44.4339 0.258236 1.93283 0
M  V30 474 O 43.7039 -0.721502 1.8213 0
M  V30 475 H 42.2839 0.580387 0.470276 0
M  V30 476 H 44.9459 1.85552 0.596373 0
M  V30 477 H 44.0419 2.36486 2.03669 0
M  V30 478 N 44.343 -0.763751 1.37857 0
M  V30 479 C 45.573 -1.55067 1.3652 0
M  V30 480 C 45.981 -1.89135 -0.0494227 0
M  V30 481 O 45.324 -1.52529 -1.02375 0
M  V30 482 C 45.386 -2.8838 2.14656 0
M  V30 483 C 45.05 -2.76905 3.63555 0
M  V30 484 C 46.047 -2.4739 4.57268 0
M  V30 485 C 43.732 -2.94676 4.06781 0
M  V30 486 C 45.726 -2.35786 5.92186 0
M  V30 487 C 43.413 -2.82692 5.41782 0
M  V30 488 C 44.411 -2.53289 6.34298 0
M  V30 489 O 44.099 -2.41345 7.66817 0
M  V30 490 H 43.831 -0.486776 0.469069 0
M  V30 491 H 46.385 -0.953812 1.81911 0
M  V30 492 H 44.615 -3.50217 1.63967 0
M  V30 493 H 46.304 -3.49828 2.05852 0
M  V30 494 H 47.07 -2.33339 4.2518 0
M  V30 495 H 42.949 -3.16563 3.35126 0
M  V30 496 H 46.493 -2.12757 6.64365 0
M  V30 497 H 42.39 -2.96314 5.7347 0
M  V30 498 H 43.158 -2.56634 7.77226 0
M  V30 499 N 45.8211 -1.22559 -0.990812 0
M  V30 500 C 47.0491 -1.07779 -1.76611 0
M  V30 501 C 47.4641 0.371513 -1.85109 0
M  V30 502 O 46.8211 1.25737 -1.32274 0
M  V30 503 C 46.8721 -1.68512 -3.19822 0
M  V30 504 O 46.5931 -3.07774 -3.1178 0
M  V30 505 C 48.0941 -1.59035 -4.13791 0
M  V30 506 H 45.3141 -0.377729 -0.554583 0
M  V30 507 H 47.8581 -1.62195 -1.24551 0
M  V30 508 H 46.0131 -1.18154 -3.68942 0
M  V30 509 H 46.4271 -3.37062 -4.01858 0
M  V30 510 H 47.9011 -2.0625 -5.1202 0
M  V30 511 H 48.3781 -0.547273 -4.35777 0
M  V30 512 H 48.9841 -2.08709 -3.70568 0
M  V30 513 N 47.2992 1.18797 -1.03562 0
M  V30 514 C 48.5472 1.88278 -0.734569 0
M  V30 515 C 48.8682 1.8043 0.739586 0
M  V30 516 O 48.1382 1.21925 1.53333 0
M  V30 517 H 46.7182 0.696991 -0.268725 0
M  V30 518 H 49.3802 1.44192 -1.31129 0
M  V30 519 H 48.4762 2.94443 -1.03489 0
M  V30 520 N 48.7773 0.814389 1.34928 0
M  V30 521 C 49.7403 0.235759 2.27984 0
M  V30 522 C 50.7403 -0.581412 1.49921 0
M  V30 523 O 51.9303 -0.398758 1.69575 0
M  V30 524 C 49.0623 -0.670433 3.34242 0
M  V30 525 H 50.2553 1.05659 2.80671 0
M  V30 526 H 47.8083 0.585614 1.44915 0
M  V30 527 H 48.5433 -1.51466 2.86755 0
M  V30 528 H 48.3283 -0.0860822 3.92005 0
M  V30 529 H 49.8183 -1.06935 4.03676 0
M  V30 530 N 50.2554 -1.46986 0.568584 0
M  V30 531 C 51.2024 -2.30153 -0.172707 0
M  V30 532 C 52.1724 -1.39759 -0.897586 0
M  V30 533 O 53.3574 -1.68716 -0.891044 0
M  V30 534 C 50.4974 -3.23952 -1.1895 0
M  V30 535 C 49.6104 -4.29441 -0.469517 0
M  V30 536 C 48.7454 -5.1038 -1.47259 0
M  V30 537 C 47.7844 -6.07632 -0.738225 0
M  V30 538 N 46.9214 -6.8149 -1.68868 0
M  V30 539 H 51.7614 -2.93019 0.542596 0
M  V30 540 H 49.2984 -1.44422 0.279401 0
M  V30 541 H 51.2564 -3.76767 -1.79173 0
M  V30 542 H 49.8864 -2.62926 -1.87269 0
M  V30 543 H 48.9384 -3.79594 0.247467 0
M  V30 544 H 50.2504 -4.98689 0.105241 0
M  V30 545 H 49.4044 -5.67402 -2.14803 0
M  V30 546 H 48.1434 -4.4106 -2.08128 0
M  V30 547 H 47.1484 -5.49778 -0.0489293 0
M  V30 548 H 48.3734 -6.78966 -0.135129 0
M  V30 549 H 46.3194 -6.14891 -2.28573 0
M  V30 550 H 46.2364 -7.46948 -1.16636 0
M  V30 551 H 47.5044 -7.43078 -2.3549 0
M  V30 552 N 51.7335 -0.305618 -1.54608 0
M  V30 553 C 52.9805 0.302298 -2.00231 0
M  V30 554 C 53.3085 1.5354 -1.19398 0
M  V30 555 O 52.5635 1.93973 -0.259423 0
M  V30 556 C 52.8625 0.698983 -3.50498 0
M  V30 557 C 52.5285 -0.432903 -4.48817 0
M  V30 558 C 51.1905 -0.743622 -4.75419 0
M  V30 559 C 53.5425 -1.19409 -5.07337 0
M  V30 560 C 50.8705 -1.81857 -5.57804 0
M  V30 561 C 53.2225 -2.25899 -5.90891 0
M  V30 562 C 51.8865 -2.57572 -6.15803 0
M  V30 563 H 51.1565 0.110619 -0.732697 0
M  V30 564 H 53.8035 -0.425674 -1.86709 0
M  V30 565 H 52.1085 1.50711 -3.61654 0
M  V30 566 H 53.8055 1.1806 -3.83227 0
M  V30 567 H 50.3955 -0.18063 -4.28219 0
M  V30 568 H 54.5795 -0.967295 -4.86782 0
M  V30 569 H 49.8355 -2.06864 -5.75341 0
M  V30 570 H 54.0095 -2.85335 -6.35261 0
M  V30 571 H 51.6365 -3.40998 -6.7943 0
M  V30 572 N 53.2116 1.57565 -0.0334293 0
M  V30 573 C 54.1586 2.10478 0.946981 0
M  V30 574 C 55.1286 1.00787 1.32027 0
M  V30 575 O 56.3136 1.28232 1.41284 0
M  V30 576 C 53.4536 2.63994 2.22263 0
M  V30 577 C 52.5666 3.87709 1.90541 0
M  V30 578 C 51.7016 4.29604 3.12433 0
M  V30 579 C 50.7406 5.46065 2.76549 0
M  V30 580 N 49.8776 5.83096 3.9108 0
M  V30 581 H 54.7176 2.93963 0.488846 0
M  V30 582 H 52.2546 1.45296 0.22969 0
M  V30 583 H 54.2126 2.93114 2.96884 0
M  V30 584 H 52.8426 1.83333 2.65685 0
M  V30 585 H 51.8946 3.65291 1.06144 0
M  V30 586 H 53.2066 4.72403 1.60116 0
M  V30 587 H 52.3606 4.60182 3.9537 0
M  V30 588 H 51.0996 3.43685 3.46023 0
M  V30 589 H 50.1046 5.15176 1.92026 0
M  V30 590 H 51.3296 6.33685 2.44171 0
M  V30 591 H 49.2756 5.00132 4.24504 0
M  V30 592 H 49.1926 6.6244 3.64293 0
M  V30 593 H 50.4606 6.18282 4.74708 0
M  V30 594 N 54.6897 -0.239769 1.55765 0
M  V30 595 C 55.9147 -0.988373 1.82335 0
M  V30 596 C 56.3397 -1.77886 0.611421 0
M  V30 597 O 55.6977 -1.75889 -0.439639 0
M  V30 598 C 55.7457 -1.89627 3.06715 0
M  V30 599 O 54.8497 -2.98904 2.84131 0
M  V30 600 H 54.1907 -0.280858 0.601677 0
M  V30 601 H 56.7207 -0.258597 2.02959 0
M  V30 602 H 56.7307 -2.30957 3.36338 0
M  V30 603 H 55.4057 -1.31511 3.9456 0
M  V30 604 H 53.9827 -2.61651 2.65694 0
M  V30 605 N 56.1678 -1.49265 -0.50573 0
M  V30 606 C 57.3978 -1.61979 -1.28243 0
M  V30 607 C 57.8058 -0.288576 -1.86986 0
M  V30 608 O 57.1488 0.735408 -1.68337 0
M  V30 609 C 57.2108 -2.62632 -2.45489 0
M  V30 610 C 56.8748 -4.071 -2.07651 0
M  V30 611 C 57.8718 -4.94049 -1.61901 0
M  V30 612 C 55.5568 -4.52801 -2.17431 0
M  V30 613 C 57.5508 -6.24736 -1.26428 0
M  V30 614 C 55.2378 -5.83503 -1.8157 0
M  V30 615 C 56.2358 -6.69294 -1.36142 0
M  V30 616 O 55.9238 -7.9756 -1.00764 0
M  V30 617 H 55.6558 -0.54834 -0.395347 0
M  V30 618 H 58.2098 -1.96002 -0.614204 0
M  V30 619 H 56.4398 -2.2378 -3.15372 0
M  V30 620 H 58.1288 -2.64925 -3.07522 0
M  V30 621 H 58.8948 -4.5997 -1.53795 0
M  V30 622 H 54.7738 -3.86196 -2.51742 0
M  V30 623 H 58.3178 -6.91652 -0.908992 0
M  V30 624 H 54.2148 -6.17112 -1.89324 0
M  V30 625 H 54.9828 -8.10529 -1.13952 0
M  V30 626 N 57.6459 0.756429 -1.3826 0
M  V30 627 C 59.0569 1.33359 -1.30661 0
M  V30 628 C 59.4079 1.96161 0.0388875 0
M  V30 629 O 58.5329 1.94874 0.940918 0
M  V30 630 C 59.1279 2.42477 -2.36622 0
M  V30 631 C 57.6869 2.95922 -2.3261 0
M  V30 632 C 56.8339 1.69275 -2.19639 0
M  V30 633 H 59.7849 0.55552 -1.4866 0
M  V30 634 H 59.8059 3.22345 -2.02174 0
M  V30 635 H 59.3179 1.96739 -3.34538 0
M  V30 636 H 57.4189 3.45996 -1.38267 0
M  V30 637 H 57.5319 3.50494 -3.26636 0
M  V30 638 H 55.8959 1.92793 -1.66442 0
M  V30 639 H 56.6789 1.25619 -3.19491 0
M  V30 640 N 59.124 1.23083 0.984299 0
M  V30 641 C 60.349 1.088 1.76571 0
M  V30 642 C 60.774 -0.356657 1.84688 0
M  V30 643 O 60.132 -1.25788 1.30565 0
M  V30 644 C 60.18 1.71371 3.17277 0
M  V30 645 O 59.284 0.973213 4.00752 0
M  V30 646 H 58.625 0.381599 0.543395 0
M  V30 647 H 61.155 1.63057 1.23587 0
M  V30 648 H 61.165 1.76449 3.67872 0
M  V30 649 H 59.84 2.76493 3.10684 0
M  V30 650 H 58.417 0.999078 3.59267 0
M  V30 651 N 60.6021 -1.18246 1.0419 0
M  V30 652 C 61.5491 -2.2192 0.634037 0
M  V30 653 C 62.5191 -1.62179 -0.358765 0
M  V30 654 O 63.7041 -1.89122 -0.252466 0
M  V30 655 C 60.8441 -3.451 0.00445535 0
M  V30 656 C 59.9571 -4.19174 1.04487 0
M  V30 657 C 59.0921 -5.29813 0.383676 0
M  V30 658 C 58.1311 -5.9566 1.4091 0
M  V30 659 N 57.2681 -6.97834 0.772784 0
M  V30 660 H 62.1081 -2.56164 1.52263 0
M  V30 661 H 59.6451 -1.25843 0.761701 0
M  V30 662 H 61.6031 -4.15485 -0.377919 0
M  V30 663 H 60.2331 -3.11472 -0.847652 0
M  V30 664 H 59.2851 -3.47604 1.54518 0
M  V30 665 H 60.5971 -4.64267 1.82368 0
M  V30 666 H 59.7511 -6.06677 -0.0528366 0
M  V30 667 H 58.4901 -4.85825 -0.427208 0
M  V30 668 H 57.4951 -5.17535 1.85574 0
M  V30 669 H 58.7201 -6.4173 2.22171 0
M  V30 670 H 56.6661 -6.55998 -0.0177708 0
M  V30 671 H 56.5831 -7.41186 1.48928 0
M  V30 672 H 57.8511 -7.78665 0.36071 0
M  V30 673 N 62.0802 -0.821533 -1.34494 0
M  V30 674 C 62.9902 -0.244355 -2.33324 0
M  V30 675 C 64.0062 0.620527 -1.62559 0
M  V30 676 O 65.1822 0.528754 -1.94335 0
M  V30 677 C 62.2472 0.585368 -3.41723 0
M  V30 678 C 61.3082 -0.301752 -4.28238 0
M  V30 679 C 60.5412 0.488466 -5.3146 0
M  V30 680 O 60.7642 1.72186 -5.4379 0
M  V30 681 O 59.6982 -0.12848 -6.01763 0
M  V30 682 H 63.5242 -1.06231 -2.84515 0
M  V30 683 H 61.1092 -0.583645 -1.37528 0
M  V30 684 H 62.9912 1.05747 -4.07916 0
M  V30 685 H 61.6662 1.38068 -2.92778 0
M  V30 686 H 60.5732 -0.821315 -3.64973 0
M  V30 687 H 61.9062 -1.06138 -4.8062 0
M  V30 688 N 63.5583 1.46682 -0.576371 0
M  V30 689 C 64.4683 2.34032 0.163141 0
M  V30 690 C 65.4843 1.49367 0.892501 0
M  V30 691 O 66.6603 1.82252 0.857106 0
M  V30 692 C 63.7253 3.26435 1.16795 0
M  V30 693 C 62.7863 4.26998 0.443944 0
M  V30 694 C 62.0193 5.14986 1.40088 0
M  V30 695 O 62.2423 5.05785 2.637 0
M  V30 696 O 61.1763 5.94906 0.914917 0
M  V30 697 H 65.0023 2.98607 -0.55388 0
M  V30 698 H 62.5873 1.45554 -0.336821 0
M  V30 699 H 64.4693 3.83459 1.74748 0
M  V30 700 H 63.1443 2.64465 1.86655 0
M  V30 701 H 62.0513 3.7368 -0.177271 0
M  V30 702 H 63.3843 4.91736 -0.213566 0
M  V30 703 N 65.0364 0.313813 1.54444 0
M  V30 704 C 65.9994 -0.54379 2.22656 0
M  V30 705 C 66.9994 -1.05124 1.21678 0
M  V30 706 O 68.1894 -0.945225 1.46325 0
M  V30 707 C 65.3214 -1.75427 2.92298 0
M  V30 708 H 66.5144 0.0523599 2.99854 0
M  V30 709 H 64.0674 0.0647834 1.56166 0
M  V30 710 H 64.8024 -2.38991 2.19211 0
M  V30 711 H 64.5874 -1.39791 3.66334 0
M  V30 712 H 66.0774 -2.36325 3.44297 0
M  V30 713 N 66.5145 -1.57545 0.0417849 0
M  V30 714 C 67.4245 -2.14451 -0.951213 0
M  V30 715 C 68.4405 -1.09992 -1.34825 0
M  V30 716 O 69.6165 -1.42114 -1.42708 0
M  V30 717 C 66.6815 -2.67063 -2.21084 0
M  V30 718 C 65.7425 -3.86284 -1.87304 0
M  V30 719 C 64.9755 -4.36378 -3.07261 0
M  V30 720 O 65.1985 -3.85587 -4.20332 0
M  V30 721 O 64.1325 -5.28077 -2.88822 0
M  V30 722 H 67.9585 -2.99601 -0.497287 0
M  V30 723 H 65.5435 -1.48317 -0.179567 0
M  V30 724 H 67.4255 -3.00914 -2.95006 0
M  V30 725 H 66.1005 -1.84989 -2.65633 0
M  V30 726 H 65.0075 -3.57338 -1.10727 0
M  V30 727 H 66.3405 -4.6956 -1.47562 0
M  V30 728 N 67.9926 0.231505 -1.5589 0
M  V30 729 C 68.9556 1.27028 -1.90779 0
M  V30 730 C 69.9556 1.40308 -0.785507 0
M  V30 731 O 71.1456 1.38744 -1.05336 0
M  V30 732 C 68.2776 2.64566 -2.14983 0
M  V30 733 H 69.4706 0.973017 -2.83677 0
M  V30 734 H 67.0236 0.471486 -1.49019 0
M  V30 735 H 67.7586 2.99406 -1.24604 0
M  V30 736 H 67.5436 2.56305 -2.96732 0
M  V30 737 H 69.0336 3.39543 -2.43105 0
M  V30 738 N 69.4707 1.49531 0.497807 0
M  V30 739 C 70.4337 1.65916 1.58128 0
M  V30 740 C 71.4337 0.530825 1.51786 0
M  V30 741 O 72.6237 0.797342 1.54881 0
M  V30 742 C 69.7557 1.65951 2.9778 0
M  V30 743 H 70.9487 2.62556 1.44929 0
M  V30 744 H 68.5017 1.38611 0.722275 0
M  V30 745 H 69.2367 0.709065 3.16453 0
M  V30 746 H 69.0217 2.47897 3.03792 0
M  V30 747 H 70.5117 1.80673 3.76493 0
M  V30 748 N 70.9488 -0.749086 1.3866 0
M  V30 749 C 72.1958 -1.50833 1.35114 0
M  V30 750 C 72.5238 -1.94415 -0.0574049 0
M  V30 751 O 71.7788 -1.66065 -1.03541 0
M  V30 752 C 72.0778 -2.7712 2.25697 0
M  V30 753 C 71.7438 -2.52477 3.73585 0
M  V30 754 C 70.4058 -2.45466 4.13884 0
M  V30 755 C 72.7578 -2.31066 4.67181 0
M  V30 756 C 70.0858 -2.15064 5.45861 0
M  V30 757 C 72.4378 -2.02183 5.9942 0
M  V30 758 C 71.1018 -1.93631 6.38798 0
M  V30 759 H 70.3718 -0.551936 0.494416 0
M  V30 760 H 73.0188 -0.860979 1.71054 0
M  V30 761 H 71.3238 -3.46528 1.82827 0
M  V30 762 H 73.0208 -3.35096 2.20254 0
M  V30 763 H 69.6108 -2.58807 3.41638 0
M  V30 764 H 73.7948 -2.35459 4.3689 0
M  V30 765 H 69.0508 -2.06954 5.75308 0
M  V30 766 H 73.2248 -1.8462 6.71482 0
M  V30 767 H 70.8518 -1.69839 7.40985 0
M  V30 768 N 72.4269 -1.23603 -0.977757 0
M  V30 769 C 73.8429 -0.999251 -1.24447 0
M  V30 770 C 74.0429 0.298053 -1.99283 0
M  V30 771 O 73.0989 1.01681 -2.31122 0
M  V30 772 C 74.4119 -2.20784 -2.04144 0
M  V30 773 C 75.9599 -2.25303 -2.17273 0
M  V30 774 C 76.4349 -3.45755 -3.00362 0
M  V30 775 N 77.9259 -3.4601 -3.07947 0
M  V30 776 C 78.6609 -4.35868 -3.72568 0
M  V30 777 N 78.1569 -5.35966 -4.38991 0
M  V30 778 N 79.9499 -4.23605 -3.6948 0
M  V30 779 H 72.1009 -2.06986 -0.476483 0
M  V30 780 H 74.3639 -0.907801 -0.273134 0
M  V30 781 H 74.0699 -3.14945 -1.56533 0
M  V30 782 H 73.9439 -2.22085 -3.04891 0
M  V30 783 H 76.3309 -1.3168 -2.64092 0
M  V30 784 H 76.4119 -2.28033 -1.15907 0
M  V30 785 H 76.0559 -4.39687 -2.5424 0
M  V30 786 H 75.9859 -3.40266 -4.01904 0
M  V30 787 H 78.4769 -2.73588 -2.60688 0
M  V30 788 H 78.7899 -6.00783 -4.86086 0
M  V30 789 H 77.1349 -5.39863 -4.37691 0
M  V30 790 H 80.3259 -3.44647 -3.16759 0
M  V30 791 H 80.4989 -4.93836 -4.1956 0
M  V30 792 N 73.905 1.17692 -1.04816 0
M  V30 793 C 75.153 1.87488 -0.754497 0
M  V30 794 C 75.474 1.81205 0.720407 0
M  V30 795 O 74.744 1.23544 1.52032 0
M  V30 796 H 73.324 0.694101 -0.276102 0
M  V30 797 H 75.986 1.42793 -1.32651 0
M  V30 798 H 75.082 2.93328 -1.06606 0
M  V30 799 N 75.3831 0.828654 1.34056 0
M  V30 800 C 76.2931 0.256725 2.33191 0
M  V30 801 C 77.3091 -0.611898 1.62886 0
M  V30 802 O 78.4851 -0.51844 1.94613 0
M  V30 803 C 75.5501 -0.567238 3.42028 0
M  V30 804 C 74.6111 0.324458 4.28072 0
M  V30 805 C 73.8441 -0.460274 5.31712 0
M  V30 806 O 74.0671 -1.693 5.44696 0
M  V30 807 O 73.0011 0.160391 6.01686 0
M  V30 808 H 76.8271 1.07739 2.83947 0
M  V30 809 H 74.4121 0.59093 1.37217 0
M  V30 810 H 76.2941 -1.03582 4.08471 0
M  V30 811 H 74.9691 -1.36513 2.93506 0
M  V30 812 H 73.8761 0.840659 3.64532 0
M  V30 813 H 75.2091 1.08685 4.8005 0
M  V30 814 N 76.8612 -1.46375 0.584142 0
M  V30 815 C 77.7712 -2.34115 -0.150728 0
M  V30 816 C 78.7872 -1.49838 -0.884567 0
M  V30 817 O 79.9632 -1.82704 -0.847429 0
M  V30 818 C 77.0282 -3.2705 -1.15062 0
M  V30 819 C 76.0892 -4.27228 -0.421293 0
M  V30 820 C 75.3222 -5.15722 -1.37355 0
M  V30 821 O 75.5452 -5.07176 -2.61014 0
M  V30 822 O 74.4792 -5.95383 -0.883355 0
M  V30 823 H 78.3052 -2.98309 0.569708 0
M  V30 824 H 75.8902 -1.45373 0.344535 0
M  V30 825 H 77.7722 -3.84381 -1.72712 0
M  V30 826 H 76.4472 -2.65451 -1.8525 0
M  V30 827 H 75.3542 -3.7358 0.197085 0
M  V30 828 H 76.6872 -4.91616 0.239641 0
M  V30 829 N 78.3393 -0.321999 -1.54275 0
M  V30 830 C 79.3023 0.531975 -2.22941 0
M  V30 831 C 80.3023 1.04478 -1.22234 0
M  V30 832 O 81.4923 0.937452 -1.46825 0
M  V30 833 C 78.6243 1.73874 -2.93224 0
M  V30 834 H 79.8173 -0.0682612 -2.99822 0
M  V30 835 H 77.3703 -0.0730644 -1.56129 0
M  V30 836 H 78.1053 2.37825 -2.20476 0
M  V30 837 H 77.8903 1.37847 -3.6707 0
M  V30 838 H 79.3803 2.34496 -3.45545 0
M  V30 839 N 79.8174 1.5752 -0.0501392 0
M  V30 840 C 81.0454 1.96963 0.633492 0
M  V30 841 C 81.4604 0.927631 1.6444 0
M  V30 842 O 80.8174 -0.0882665 1.82286 0
M  V30 843 C 80.8684 3.36487 1.32132 0
M  V30 844 O 80.5894 4.36693 0.350894 0
M  V30 845 C 82.0904 3.90682 2.09481 0
M  V30 846 H 79.3104 0.648244 0.173266 0
M  V30 847 H 81.8544 2.0417 -0.116134 0
M  V30 848 H 80.0094 3.30434 2.02218 0
M  V30 849 H 80.4234 5.17702 0.841735 0
M  V30 850 H 81.8974 4.90591 2.5303 0
M  V30 851 H 82.3744 3.26053 2.94255 0
M  V30 852 H 82.9804 4.00069 1.44307 0
M  V30 853 N 81.2955 -0.223234 1.56011 0
M  V30 854 C 82.7065 -0.790368 1.69145 0
M  V30 855 C 83.0575 -1.85055 0.651845 0
M  V30 856 O 82.1825 -2.15498 -0.197359 0
M  V30 857 C 82.7775 -1.4404 3.06656 0
M  V30 858 C 81.3365 -1.95494 3.2165 0
M  V30 859 C 80.4835 -0.814506 2.65068 0
M  V30 860 H 83.4345 0.00139011 1.587 0
M  V30 861 H 83.4555 -2.30916 3.0242 0
M  V30 862 H 82.9675 -0.668543 3.82298 0
M  V30 863 H 81.0685 -2.75487 2.50874 0
M  V30 864 H 81.1815 -2.13607 4.28846 0
M  V30 865 H 79.5455 -1.22137 2.23505 0
M  V30 866 H 80.3285 -0.0553515 3.43255 0
M  V30 867 N 82.7736 -1.49793 -0.48987 0
M  V30 868 C 83.7206 -1.67281 -1.59014 0
M  V30 869 C 84.6906 -0.514177 -1.57941 0
M  V30 870 O 85.8756 -0.742533 -1.75759 0
M  V30 871 C 83.0156 -1.75569 -2.97102 0
M  V30 872 C 82.1286 -3.0281 -3.08107 0
M  V30 873 C 81.2636 -3.02008 -4.36995 0
M  V30 874 C 80.3026 -4.23782 -4.41673 0
M  V30 875 N 79.4396 -4.20826 -5.62005 0
M  V30 876 H 84.2796 -2.61224 -1.43409 0
M  V30 877 H 81.8166 -1.29508 -0.697565 0
M  V30 878 H 83.7746 -1.78354 -3.77155 0
M  V30 879 H 82.4046 -0.850827 -3.11385 0
M  V30 880 H 81.4566 -3.09584 -2.21047 0
M  V30 881 H 82.7686 -3.92801 -3.07423 0
M  V30 882 H 81.9226 -3.03418 -5.25378 0
M  V30 883 H 80.6616 -2.09815 -4.4026 0
M  V30 884 H 79.6666 -4.22604 -3.5169 0
M  V30 885 H 80.8916 -5.17181 -4.40115 0
M  V30 886 H 78.8376 -3.31476 -5.66091 0
M  V30 887 H 78.7546 -5.04564 -5.62984 0
M  V30 888 H 80.0226 -4.26355 -6.52565 0
M  V30 889 N 84.2517 0.741722 -1.39055 0
M  V30 890 C 85.1817 1.869 -1.39966 0
M  V30 891 C 86.1627 1.6804 -0.26392 0
M  V30 892 O 87.3477 1.88458 -0.468755 0
M  V30 893 C 84.4777 3.24572 -1.23574 0
M  V30 894 C 83.4317 3.58056 -2.34477 0
M  V30 895 C 82.7577 4.94593 -2.0318 0
M  V30 896 C 84.0577 3.61716 -3.76774 0
M  V30 897 H 85.7517 1.86395 -2.34302 0
M  V30 898 H 83.2977 0.895361 -1.1278 0
M  V30 899 H 85.2507 4.031 -1.22834 0
M  V30 900 H 83.9747 3.25587 -0.257045 0
M  V30 901 H 82.6337 2.81854 -2.34423 0
M  V30 902 H 82.2817 4.92181 -1.03765 0
M  V30 903 H 81.9817 5.17964 -2.77465 0
M  V30 904 H 83.5057 5.75486 -2.04079 0
M  V30 905 H 84.9197 4.30335 -3.78794 0
M  V30 906 H 83.3167 3.96603 -4.50362 0
M  V30 907 H 84.3867 2.61672 -4.08235 0
M  V30 908 N 85.7298 1.2412 0.971189 0
M  V30 909 C 86.6928 1.03156 2.04674 0
M  V30 910 C 87.6928 -0.00990322 1.60797 0
M  V30 911 O 88.8828 0.230729 1.72665 0
M  V30 912 C 86.0148 0.562765 3.36223 0
M  V30 913 H 87.2078 1.98614 2.24705 0
M  V30 914 H 84.7608 1.06293 1.14593 0
M  V30 915 H 85.4958 -0.395176 3.21883 0
M  V30 916 H 85.2808 1.31441 3.69413 0
M  V30 917 H 86.7708 0.437015 4.15307 0
M  V30 918 N 87.2079 -1.17134 1.05439 0
M  V30 919 C 88.1549 -2.21235 0.657539 0
M  V30 920 C 89.1249 -1.62551 -0.341543 0
M  V30 921 O 90.3099 -1.89379 -0.232393 0
M  V30 922 C 87.4499 -3.45076 0.0410575 0
M  V30 923 C 86.5629 -4.18042 1.08927 0
M  V30 924 C 85.6979 -5.29376 0.439848 0
M  V30 925 C 84.7369 -5.94132 1.4722 0
M  V30 926 N 83.8739 -6.96975 0.846756 0
M  V30 927 H 88.7139 -2.54534 1.54972 0
M  V30 928 H 86.2509 -1.25028 0.775006 0
M  V30 929 H 88.2089 -4.15862 -0.33383 0
M  V30 930 H 86.8389 -3.12353 -0.814568 0
M  V30 931 H 85.8909 -3.45945 1.58196 0
M  V30 932 H 87.2029 -4.62306 1.87282 0
M  V30 933 H 86.3569 -6.06699 0.0115125 0
M  V30 934 H 85.0959 -4.86251 -0.375656 0
M  V30 935 H 84.1009 -5.15538 1.91052 0
M  V30 936 H 85.3259 -6.39337 2.28965 0
M  V30 937 H 83.2719 -6.5598 0.0518075 0
M  V30 938 H 83.1889 -7.39565 1.5678 0
M  V30 939 H 84.4569 -7.78239 0.443277 0
M  V30 940 N 88.686 -0.835752 -1.33615 0
M  V30 941 C 89.596 -0.269088 -2.33052 0
M  V30 942 C 90.612 0.603251 -1.63208 0
M  V30 943 O 91.788 0.508112 -1.94885 0
M  V30 944 C 88.853 0.549091 -3.42324 0
M  V30 945 C 87.914 -0.347156 -4.27894 0
M  V30 946 C 87.147 0.43207 -5.31948 0
M  V30 947 O 87.37 1.66409 -5.45586 0
M  V30 948 O 86.304 -0.192298 -6.01593 0
M  V30 949 H 90.13 -1.09243 -2.83372 0
M  V30 950 H 87.715 -0.598198 -1.36901 0
M  V30 951 H 89.597 1.01414 -4.09015 0
M  V30 952 H 88.272 1.34955 -2.94226 0
M  V30 953 H 87.179 -0.859979 -3.64081 0
M  V30 954 H 88.512 -1.1123 -4.79467 0
M  V30 955 N 90.1641 1.46063 -0.591896 0
M  V30 956 C 91.0741 2.34192 0.13831 0
M  V30 957 C 92.0901 1.50305 0.876608 0
M  V30 958 O 93.2661 1.8315 0.837728 0
M  V30 959 C 90.3311 3.27656 1.13326 0
M  V30 960 C 89.3921 4.27445 0.39863 0
M  V30 961 C 88.6251 5.16443 1.34618 0
M  V30 962 O 88.8481 5.08553 2.58321 0
M  V30 963 O 87.7821 5.95843 0.851768 0
M  V30 964 H 91.6081 2.98002 -0.58552 0
M  V30 965 H 89.1931 1.45188 -0.352239 0
M  V30 966 H 91.0751 3.85291 1.70671 0
M  V30 967 H 89.7501 2.6643 1.83839 0
M  V30 968 H 88.6571 3.73471 -0.216895 0
M  V30 969 H 89.9901 4.91482 -0.265709 0
M  V30 970 N 91.6422 0.330177 1.54103 0
M  V30 971 C 92.8912 -0.271336 1.99867 0
M  V30 972 C 93.2042 -1.52723 1.22209 0
M  V30 973 O 94.4102 -2.20515 1.58383 0
M  V30 974 C 92.8662 -0.534032 3.55916 0
M  V30 975 C 92.4742 0.705193 4.42415 0
M  V30 976 C 94.2182 -1.09514 4.1013 0
M  V30 977 C 92.1252 0.414035 5.89949 0
M  V30 978 H 91.0552 -0.105166 0.74663 0
M  V30 979 H 93.7062 0.443429 1.78062 0
M  V30 980 H 92.0882 -1.30915 3.73734 0
M  V30 981 H 93.2622 1.4804 4.36372 0
M  V30 982 H 91.5772 1.18698 3.99124 0
M  V30 983 H 94.1742 -1.3277 5.17954 0
M  V30 984 H 94.5172 -2.04656 3.62521 0
M  V30 985 H 95.0502 -0.381038 3.95971 0
M  V30 986 H 91.7892 1.33481 6.41766 0
M  V30 987 H 91.3092 -0.323336 5.98928 0
M  V30 988 H 92.9882 0.0263105 6.46995 0
M  V30 989 N 93.1203 -1.57491 0.0584922 0
M  V30 990 C 94.3693 -1.92155 -0.613146 0
M  V30 991 C 94.6823 -0.939334 -1.71569 0
M  V30 992 O 95.8883 -1.17829 -2.44599 0
M  V30 993 C 94.3443 -3.41303 -1.14195 0
M  V30 994 C 93.9523 -4.47944 -0.0711265 0
M  V30 995 C 95.6963 -3.84988 -1.78841 0
M  V30 996 C 93.6033 -5.88212 -0.613225 0
M  V30 997 H 92.5333 -0.717162 -0.232796 0
M  V30 998 H 95.1843 -1.83049 0.12857 0
M  V30 999 H 93.5663 -3.45437 -1.93621 0
M  V30 1000 H 94.7403 -4.55408 0.702836 0
M  V30 1001 H 93.0553 -4.13644 0.478313 0
M  V30 1002 H 95.6523 -4.87159 -2.20408 0
M  V30 1003 H 95.9953 -3.21632 -2.64308 0
M  V30 1004 H 96.5283 -3.83401 -1.06059 0
M  V30 1005 H 93.2673 -6.55183 0.203978 0
M  V30 1006 H 92.7873 -5.84294 -1.35501 0
M  V30 1007 H 94.4663 -6.37687 -1.09383 0
M  V30 1008 N 94.5984 0.214957 -1.56127 0
M  V30 1009 C 95.8444 0.935325 -1.80619 0
M  V30 1010 C 96.1994 1.81706 -0.632507 0
M  V30 1011 O 95.4924 1.87931 0.373182 0
M  V30 1012 C 95.6864 1.80314 -3.0858 0
M  V30 1013 C 95.5154 1.00691 -4.38282 0
M  V30 1014 C 94.2854 0.699211 -5.00439 0
M  V30 1015 C 96.4834 0.369057 -5.12974 0
M  V30 1016 N 94.4654 -0.117734 -6.13787 0
M  V30 1017 C 95.8364 -0.310981 -6.1922 0
M  V30 1018 C 97.8914 0.282759 -4.97096 0
M  V30 1019 C 96.5944 -1.06907 -7.11311 0
M  V30 1020 C 98.6204 -0.461881 -5.89594 0
M  V30 1021 C 97.9824 -1.13044 -6.9527 0
M  V30 1022 H 94.0814 0.322307 -0.71249 0
M  V30 1023 H 96.6654 0.205649 -1.93611 0
M  V30 1024 H 94.8364 2.50458 -2.96859 0
M  V30 1025 H 96.5684 2.46148 -3.21237 0
M  V30 1026 H 93.3234 1.01884 -4.62511 0
M  V30 1027 H 93.7474 -0.515235 -6.75037 0
M  V30 1028 H 98.3894 0.785292 -4.15443 0
M  V30 1029 H 96.1074 -1.5831 -7.92442 0
M  V30 1030 H 99.6934 -0.529746 -5.79383 0
M  V30 1031 H 98.5734 -1.69742 -7.65609 0
M  V30 1032 N 96.0765 1.50051 0.48192 0
M  V30 1033 C 96.9865 1.7089 1.60728 0
M  V30 1034 C 98.0025 0.591788 1.63627 0
M  V30 1035 O 99.1785 0.868817 1.81696 0
M  V30 1036 C 96.2435 1.78855 2.97005 0
M  V30 1037 C 95.3045 3.02537 3.04581 0
M  V30 1038 C 94.5375 3.10112 4.34357 0
M  V30 1039 O 94.7605 2.24765 5.24249 0
M  V30 1040 O 93.6945 4.02747 4.47301 0
M  V30 1041 H 97.5205 2.66264 1.46072 0
M  V30 1042 H 95.1055 1.34018 0.660264 0
M  V30 1043 H 96.9875 1.86336 3.77964 0
M  V30 1044 H 95.6625 0.866628 3.11883 0
M  V30 1045 H 94.5695 3.00563 2.22739 0
M  V30 1046 H 95.9025 3.94272 2.94636 0
M  V30 1047 N 97.5546 -0.734337 1.39446 0
M  V30 1048 C 98.7796 -1.52866 1.40167 0
M  V30 1049 C 99.2046 -1.881 -0.00171513 0
M  V30 1050 O 98.5626 -1.51957 -0.988879 0
M  V30 1051 C 98.6106 -2.79235 2.28167 0
M  V30 1052 O 97.7146 -3.75185 1.71201 0
M  V30 1053 H 97.0556 -0.461618 0.477289 0
M  V30 1054 H 99.5856 -0.905949 1.8345 0
M  V30 1055 H 99.5956 -3.27963 2.42702 0
M  V30 1056 H 98.2706 -2.52923 3.30156 0
M  V30 1057 H 96.8476 -3.33958 1.65912 0
M  V30 1058 N 99.0327 -1.24633 -0.964593 0
M  V30 1059 C 99.9627 -1.06611 -2.07741 0
M  V30 1060 C 100.944 0.0218666 -1.70086 0
M  V30 1061 O 102.129 -0.145793 -1.93652 0
M  V30 1062 C 99.2587 -0.673444 -3.40708 0
M  V30 1063 C 98.2127 -1.71054 -3.92332 0
M  V30 1064 C 97.5387 -1.17285 -5.21678 0
M  V30 1065 C 98.8387 -3.10718 -4.19824 0
M  V30 1066 H 100.533 -1.99693 -2.23076 0
M  V30 1067 H 98.0787 -0.96152 -1.07195 0
M  V30 1068 H 100.032 -0.534345 -4.17998 0
M  V30 1069 H 98.7557 0.293073 -3.25282 0
M  V30 1070 H 97.4147 -1.83791 -3.17201 0
M  V30 1071 H 97.0627 -0.196847 -5.02615 0
M  V30 1072 H 96.7627 -1.86592 -5.57187 0
M  V30 1073 H 98.2867 -1.04593 -6.01575 0
M  V30 1074 H 99.7007 -3.01192 -4.87808 0
M  V30 1075 H 98.0977 -3.77406 -4.66567 0
M  V30 1076 H 99.1677 -3.58524 -3.26479 0
M  V30 1077 N 100.511 1.16574 -1.06058 0
M  V30 1078 C 101.736 1.91493 -0.796562 0
M  V30 1079 C 102.161 1.76773 0.642868 0
M  V30 1080 O 101.519 1.09142 1.44768 0
M  V30 1081 C 101.567 3.40293 -1.19303 0
M  V30 1082 O 100.671 4.11074 -0.330394 0
M  V30 1083 H 100.012 0.596678 -0.291326 0
M  V30 1084 H 102.542 1.47708 -1.41575 0
M  V30 1085 H 102.552 3.91057 -1.16356 0
M  V30 1086 H 101.227 3.50326 -2.24153 0
M  V30 1087 H 99.8038 3.70513 -0.421225 0
M  V30 1088 N 101.989 0.842826 1.3317 0
M  V30 1089 C 103.235 0.441099 1.97945 0
M  V30 1090 C 103.568 -0.998024 1.66593 0
M  V30 1091 O 102.843 -1.69839 0.947898 0
M  V30 1092 C 103.126 0.666841 3.53872 0
M  V30 1093 C 102.979 2.15352 3.94897 0
M  V30 1094 C 104.298 0.115544 4.39948 0
M  V30 1095 H 101.417 0.161739 0.719034 0
M  V30 1096 H 104.059 1.05907 1.57746 0
M  V30 1097 H 102.209 0.140828 3.88245 0
M  V30 1098 H 103.881 2.7447 3.70761 0
M  V30 1099 H 102.124 2.63653 3.44484 0
M  V30 1100 H 102.795 2.26221 5.03516 0
M  V30 1101 H 105.271 0.565213 4.12243 0
M  V30 1102 H 104.147 0.303152 5.48062 0
M  V30 1103 H 104.408 -0.980935 4.3108 0
M  V30 1104 N 103.467 -1.45747 0.599634 0
M  V30 1105 C 104.744 -1.95585 0.0240846 0
M  V30 1106 C 105.124 -1.54217 -1.44154 0
M  V30 1107 O 104.472 -0.800903 -2.14004 0
M  V30 1108 C 104.682 -3.48344 0.21385 0
M  V30 1109 C 106.03 -4.24504 0.0904902 0
M  V30 1110 O 107.054 -3.55911 0.143558 0
M  V30 1111 O 105.913 -5.46491 -0.0310766 0
M  V30 1112 H 103.007 -0.82602 -0.0402478 0
M  V30 1113 H 105.553 -1.55951 0.669139 0
M  V30 1114 H 104.325 -3.71397 1.23206 0
M  V30 1115 H 103.948 -3.9485 -0.466842 0
M  V30 1116 N 104.945 -0.338344 -1.53925 0
M  V30 1117 C 106.191 0.260143 -2.01125 0
M  V30 1118 C 106.524 1.50617 -1.22589 0
M  V30 1119 O 105.799 1.91979 -0.312113 0
M  V30 1120 C 106.082 0.579499 -3.55407 0
M  V30 1121 C 105.935 -0.678264 -4.44657 0
M  V30 1122 C 107.254 1.39122 -4.17532 0
M  V30 1123 H 104.373 0.0930772 -0.731099 0
M  V30 1124 H 107.015 -0.457852 -1.84401 0
M  V30 1125 H 105.165 1.19118 -3.69788 0
M  V30 1126 H 106.837 -1.31631 -4.42121 0
M  V30 1127 H 105.08 -1.3042 -4.13731 0
M  V30 1128 H 105.751 -0.410143 -5.50474 0
M  V30 1129 H 108.227 0.874035 -4.06817 0
M  V30 1130 H 107.103 1.58342 -5.25565 0
M  V30 1131 H 107.364 2.39178 -3.71815 0
M  V30 1132 N 106.423 1.57458 -0.0668435 0
M  V30 1133 C 107.671 1.92919 0.602214 0
M  V30 1134 C 107.992 0.947215 1.70449 0
M  V30 1135 O 107.262 -0.00544117 1.95899 0
M  V30 1136 H 105.842 0.71217 0.22544 0
M  V30 1137 H 108.504 1.94508 -0.123535 0
M  V30 1138 H 107.6 2.94589 1.03073 0
M  V30 1139 N 107.901 -0.206675 1.56239 0
M  V30 1140 C 109.126 -0.949474 1.8439 0
M  V30 1141 C 109.551 -1.76549 0.649016 0
M  V30 1142 O 108.909 -1.76782 -0.402231 0
M  V30 1143 C 108.957 -1.83078 3.10668 0
M  V30 1144 O 108.061 -2.9281 2.90407 0
M  V30 1145 H 107.402 -0.268033 0.607499 0
M  V30 1146 H 109.932 -0.215488 2.03462 0
M  V30 1147 H 109.942 -2.2377 3.41161 0
M  V30 1148 H 108.617 -1.23112 3.97261 0
M  V30 1149 H 107.194 -2.55956 2.71184 0
M  V30 1150 N 109.379 -1.50304 -0.473955 0
M  V30 1151 C 110.311 -1.65109 -1.58971 0
M  V30 1152 C 111.324 -0.532676 -1.53839 0
M  V30 1153 O 112.513 -0.805751 -1.59279 0
M  V30 1154 C 109.613 -1.61684 -2.97845 0
M  V30 1155 C 108.786 -2.8951 -3.27876 0
M  V30 1156 C 107.845 -2.78768 -4.4629 0
M  V30 1157 O 106.871 -3.52722 -4.46739 0
M  V30 1158 N 108.073 -1.9213 -5.47783 0
M  V30 1159 H 110.838 -2.61347 -1.46689 0
M  V30 1160 H 108.399 -1.47732 -0.662324 0
M  V30 1161 H 110.391 -1.52114 -3.75024 0
M  V30 1162 H 108.961 -0.731925 -3.03911 0
M  V30 1163 H 108.181 -3.13228 -2.39336 0
M  V30 1164 H 109.469 -3.74199 -3.4475 0
M  V30 1165 H 108.867 -1.31353 -5.50239 0
M  V30 1166 H 107.424 -1.88466 -6.23958 0
M  V30 1167 N 110.857 0.726932 -1.39834 0
M  V30 1168 C 112.105 1.4837 -1.37225 0
M  V30 1169 C 112.426 1.94979 0.0284857 0
M  V30 1170 O 111.696 1.69555 0.981213 0
M  V30 1171 H 110.276 0.55043 -0.505011 0
M  V30 1172 H 112.938 0.862468 -1.74778 0
M  V30 1173 H 112.034 2.36198 -2.04003 0
M  V30 1174 N 112.336 1.25143 0.95797 0
M  V30 1175 C 113.284 1.05019 2.07542 0
M  V30 1176 C 114.278 -0.0178751 1.69391 0
M  V30 1177 O 115.484 0.137472 1.79474 0
M  V30 1178 H 111.859 0.32265 0.679265 0
M  V30 1179 H 113.83 1.99759 2.21673 0
M  V30 1180 C 112.579 0.682074 3.40944 0
M  V30 1181 H 111.902 1.49573 3.70767 0
M  V30 1182 H 113.342 0.580945 4.20001 0
M  V30 1183 C 111.801 -0.611608 3.31302 0
M  V30 1184 O 112.331 -1.65465 3.66038 0
M  V30 1185 N 110.537 -0.595982 2.84423 0
M  V30 1186 H 110.084 0.253192 2.56353 0
M  V30 1187 H 110.042 -1.46173 2.78354 0
M  V30 1188 N 113.814 -1.1601 1.06675 0
M  V30 1189 C 115.225 -1.68235 0.809565 0
M  V30 1190 C 115.576 -1.8454 -0.666303 0
M  V30 1191 O 114.701 -1.54374 -1.5165 0
M  V30 1192 C 115.296 -3.05585 1.46299 0
M  V30 1193 C 113.855 -3.54915 1.25349 0
M  V30 1194 C 113.002 -2.30804 1.53703 0
M  V30 1195 H 115.953 -1.00318 1.22971 0
M  V30 1196 H 115.974 -3.70174 0.880431 0
M  V30 1197 H 115.486 -2.93686 2.53713 0
M  V30 1198 H 113.587 -3.72067 0.199261 0
M  V30 1199 H 113.7 -4.36774 1.9689 0
M  V30 1200 H 112.064 -2.36007 0.957739 0
M  V30 1201 H 112.847 -2.21499 2.62284 0
M  V30 1202 N 115.292 -0.849877 -1.32721 0
M  V30 1203 C 116.54 -0.450032 -1.97026 0
M  V30 1204 C 116.861 0.996604 -1.67609 0
M  V30 1205 O 116.131 1.6958 -0.980786 0
M  V30 1206 H 114.711 -0.163426 -0.728904 0
M  V30 1207 H 117.373 -1.08526 -1.6189 0
M  V30 1208 H 116.469 -0.591146 -3.0645 0
M  V30 1209 N 116.77 1.45427 -0.607355 0
M  V30 1210 C 118.019 2.01452 -0.100036 0
M  V30 1211 C 118.332 1.48159 1.27704 0
M  V30 1212 O 119.538 1.96159 1.87707 0
M  V30 1213 C 117.994 3.59672 -0.128158 0
M  V30 1214 C 117.602 4.21962 -1.50507 0
M  V30 1215 C 119.346 4.23262 0.323932 0
M  V30 1216 C 117.253 5.72333 -1.48959 0
M  V30 1217 H 116.183 0.75325 -0.0336299 0
M  V30 1218 H 118.834 1.66901 -0.76265 0
M  V30 1219 H 117.216 3.91411 0.601105 0
M  V30 1220 H 118.39 4.01796 -2.25602 0
M  V30 1221 H 116.705 3.70565 -1.89923 0
M  V30 1222 H 119.302 5.33522 0.354691 0
M  V30 1223 H 119.645 3.93921 1.34656 0
M  V30 1224 H 120.178 3.96239 -0.352056 0
M  V30 1225 H 116.917 6.06373 -2.48981 0
M  V30 1226 H 116.437 5.94691 -0.781214 0
M  V30 1227 H 118.116 6.35525 -1.21313 0
M  V30 1228 N 118.248 0.346503 1.53744 0
M  V30 1229 C 119.494 -0.249473 2.0126 0
M  V30 1230 C 119.827 -1.49965 1.23386 0
M  V30 1231 O 119.102 -1.91811 0.32229 0
M  V30 1232 C 119.385 -0.560643 3.55709 0
M  V30 1233 C 119.238 0.701836 4.44291 0
M  V30 1234 C 120.557 -1.36905 4.18264 0
M  V30 1235 H 117.676 -0.0891987 0.731582 0
M  V30 1236 H 120.318 0.467624 1.84156 0
M  V30 1237 H 118.468 -1.17156 3.70414 0
M  V30 1238 H 120.14 1.33974 4.41417 0
M  V30 1239 H 118.383 1.32612 4.13033 0
M  V30 1240 H 119.054 0.43933 5.50249 0
M  V30 1241 H 121.53 -0.852448 4.07275 0
M  V30 1242 H 120.406 -1.55553 5.26398 0
M  V30 1243 H 120.667 -2.37203 3.73078 0
M  V30 1244 N 119.726 -1.57421 0.075193 0
M  V30 1245 C 120.636 -2.1642 -0.905511 0
M  V30 1246 C 121.652 -1.12828 -1.32461 0
M  V30 1247 O 122.828 -1.45109 -1.39661 0
M  V30 1248 C 119.893 -2.71693 -2.15369 0
M  V30 1249 C 118.954 -3.90171 -1.79068 0
M  V30 1250 C 118.187 -4.42798 -2.97936 0
M  V30 1251 O 118.41 -3.94416 -4.12058 0
M  V30 1252 O 117.344 -5.34085 -2.77555 0
M  V30 1253 H 121.17 -3.00588 -0.433626 0
M  V30 1254 H 118.755 -1.48664 -0.148067 0
M  V30 1255 H 120.637 -3.07104 -2.88557 0
M  V30 1256 H 119.312 -1.90582 -2.61649 0
M  V30 1257 H 118.219 -3.59606 -1.03122 0
M  V30 1258 H 119.552 -4.72584 -1.37569 0
M  V30 1259 N 121.204 0.198386 -1.56346 0
M  V30 1260 C 122.434 0.934215 -1.84271 0
M  V30 1261 C 122.842 1.77496 -0.655125 0
M  V30 1262 O 122.185 1.7961 0.385488 0
M  V30 1263 C 122.247 1.88278 -3.06254 0
M  V30 1264 C 121.911 1.22431 -4.40295 0
M  V30 1265 C 122.908 0.602839 -5.16393 0
M  V30 1266 C 120.593 1.22915 -4.87029 0
M  V30 1267 C 122.587 -0.0050083 -6.374 0
M  V30 1268 C 120.274 0.617465 -6.07973 0
M  V30 1269 C 121.272 0.00146341 -6.83 0
M  V30 1270 O 120.96 -0.600642 -8.01653 0
M  V30 1271 H 120.692 0.278245 -0.616081 0
M  V30 1272 H 123.246 0.211626 -2.04307 0
M  V30 1273 H 121.476 2.64498 -2.82095 0
M  V30 1274 H 123.165 2.48612 -3.20853 0
M  V30 1275 H 123.931 0.591265 -4.81382 0
M  V30 1276 H 119.81 1.69801 -4.28589 0
M  V30 1277 H 123.354 -0.48643 -6.95902 0
M  V30 1278 H 119.251 0.62653 -6.42452 0
M  V30 1279 H 120.019 -0.497225 -8.16988 0
M  V30 1280 N 122.682 1.50554 0.465978 0
M  V30 1281 C 123.629 1.6979 1.56333 0
M  V30 1282 C 124.599 0.539239 1.57103 0
M  V30 1283 O 125.784 0.770401 1.74555 0
M  V30 1284 C 122.924 1.80273 2.94271 0
M  V30 1285 C 122.037 3.07674 3.0325 0
M  V30 1286 C 121.172 3.08922 4.32135 0
M  V30 1287 C 120.211 4.30755 4.34875 0
M  V30 1288 N 119.348 4.29714 5.55239 0
M  V30 1289 H 124.188 2.63472 1.39235 0
M  V30 1290 H 121.725 1.30602 0.676873 0
M  V30 1291 H 123.683 1.84332 3.74269 0
M  V30 1292 H 122.313 0.900258 3.09992 0
M  V30 1293 H 121.365 3.13062 2.16094 0
M  V30 1294 H 122.677 3.97642 3.01135 0
M  V30 1295 H 121.831 3.11738 5.20485 0
M  V30 1296 H 120.57 2.16792 4.36866 0
M  V30 1297 H 119.575 4.28146 3.44922 0
M  V30 1298 H 120.8 5.24117 4.31831 0
M  V30 1299 H 118.746 3.4044 5.60746 0
M  V30 1300 H 118.663 5.13456 5.54886 0
M  V30 1301 H 119.931 4.36683 6.457 0
M  V30 1302 N 124.16 -0.719506 1.40217 0
M  V30 1303 C 125.408 -1.47641 1.3801 0
M  V30 1304 C 125.729 -1.94992 -0.018145 0
M  V30 1305 O 124.999 -1.70073 -0.972207 0
M  V30 1306 H 123.579 -0.547744 0.507923 0
M  V30 1307 H 126.241 -0.853187 1.75233 0
M  V30 1308 H 125.337 -2.35112 2.05253 0
M  V30 1309 N 125.638 -1.25649 -0.95132 0
M  V30 1310 C 126.884 -1.10757 -1.69884 0
M  V30 1311 C 127.217 0.350061 -1.91019 0
M  V30 1312 O 126.492 1.25783 -1.48354 0
M  V30 1313 C 126.775 -1.86606 -3.07978 0
M  V30 1314 C 126.628 -3.40217 -2.94232 0
M  V30 1315 C 127.947 -1.65182 -4.07925 0
M  V30 1316 H 125.066 -0.40374 -0.616574 0
M  V30 1317 H 127.708 -1.54521 -1.10558 0
M  V30 1318 H 125.858 -1.49409 -3.58621 0
M  V30 1319 H 127.53 -3.87108 -2.50889 0
M  V30 1320 H 125.773 -3.67759 -2.30078 0
M  V30 1321 H 126.444 -3.88505 -3.92133 0
M  V30 1322 H 128.92 -1.9757 -3.66204 0
M  V30 1323 H 127.796 -2.20683 -5.02583 0
M  V30 1324 H 128.057 -0.593933 -4.38092 0
M  V30 1325 N 127.117 1.15442 -1.07289 0
M  V30 1326 C 128.394 1.82306 -0.708792 0
M  V30 1327 C 128.774 1.94991 0.808807 0
M  V30 1328 O 128.122 1.50085 1.72298 0
M  V30 1329 C 128.332 3.18695 -1.42247 0
M  V30 1330 C 129.68 3.94341 -1.57417 0
M  V30 1331 O 130.704 3.28247 -1.38319 0
M  V30 1332 O 129.563 5.12839 -1.88834 0
M  V30 1333 H 126.657 0.787628 -0.252132 0
M  V30 1334 H 129.203 1.22559 -1.17377 0
M  V30 1335 H 127.975 3.04557 -2.45684 0
M  V30 1336 H 127.598 3.86128 -0.948223 0
M  V30 1337 N 128.595 0.856903 1.32268 0
M  V30 1338 C 129.823 0.475439 2.01363 0
M  V30 1339 C 130.238 -0.928486 1.64392 0
M  V30 1340 O 129.595 -1.60624 0.866387 0
M  V30 1341 C 129.646 0.607545 3.56358 0
M  V30 1342 O 129.367 1.95617 3.92002 0
M  V30 1343 C 130.868 0.225382 4.42727 0
M  V30 1344 H 128.088 0.186636 0.644521 0
M  V30 1345 H 130.632 1.15446 1.68797 0
M  V30 1346 H 128.787 -0.0237719 3.87393 0
M  V30 1347 H 129.201 1.95455 4.86721 0
M  V30 1348 H 130.675 0.368813 5.50767 0
M  V30 1349 H 131.152 -0.834369 4.31202 0
M  V30 1350 H 131.758 0.831864 4.17085 0
M  V30 1351 N 130.073 -1.45103 0.615059 0
M  V30 1352 C 131.02 -2.30586 -0.0993978 0
M  V30 1353 C 131.99 -1.42544 -0.852669 0
M  V30 1354 O 133.175 -1.71465 -0.836917 0
M  V30 1355 C 130.315 -3.27572 -1.08583 0
M  V30 1356 C 129.428 -4.30717 -0.332656 0
M  V30 1357 C 128.563 -5.14807 -1.30947 0
M  V30 1358 C 127.602 -6.09673 -0.544538 0
M  V30 1359 N 126.739 -6.86517 -1.47101 0
M  V30 1360 H 131.579 -2.91144 0.635542 0
M  V30 1361 H 129.116 -1.4346 0.325206 0
M  V30 1362 H 131.074 -3.82276 -1.67095 0
M  V30 1363 H 129.704 -2.68751 -1.78809 0
M  V30 1364 H 128.756 -3.78615 0.368107 0
M  V30 1365 H 130.068 -4.98102 0.263842 0
M  V30 1366 H 129.222 -5.73948 -1.96643 0
M  V30 1367 H 127.961 -4.47458 -1.9399 0
M  V30 1368 H 126.966 -5.49656 0.126003 0
M  V30 1369 H 128.191 -6.79052 0.080947 0
M  V30 1370 H 126.137 -6.21851 -2.08895 0
M  V30 1371 H 126.054 -7.50281 -0.928137 0
M  V30 1372 H 127.322 -7.50194 -2.11731 0
M  V30 1373 N 131.551 -0.354651 -1.53558 0
M  V30 1374 C 132.779 0.239515 -2.05509 0
M  V30 1375 C 133.194 1.4333 -1.2289 0
M  V30 1376 O 132.551 1.80538 -0.266899 0
M  V30 1377 C 132.602 0.643719 -3.55723 0
M  V30 1378 O 132.323 -0.502602 -4.35207 0
M  V30 1379 C 133.824 1.29743 -4.23889 0
M  V30 1380 H 131.044 0.0442697 -0.669538 0
M  V30 1381 H 133.588 -0.509856 -1.98042 0
M  V30 1382 H 131.743 1.34302 -3.63376 0
M  V30 1383 H 132.157 -0.178172 -5.24197 0
M  V30 1384 H 133.631 1.53091 -5.30346 0
M  V30 1385 H 134.108 2.25441 -3.76926 0
M  V30 1386 H 134.714 0.639865 -4.20459 0
M  V30 1387 N 133.029 1.57378 -0.0835403 0
M  V30 1388 C 134.277 1.93547 0.581718 0
M  V30 1389 C 134.598 0.96524 1.69435 0
M  V30 1390 O 133.868 0.0153369 1.95894 0
M  V30 1391 H 132.448 0.714521 0.217874 0
M  V30 1392 H 135.11 1.94366 -0.144158 0
M  V30 1393 H 134.206 2.95665 0.999423 0
M  V30 1394 N 134.507 -0.190092 1.56449 0
M  V30 1395 C 135.417 -1.25591 1.98152 0
M  V30 1396 C 136.433 -1.49519 0.889944 0
M  V30 1397 O 137.609 -1.62036 1.19609 0
M  V30 1398 C 134.674 -2.57916 2.3169 0
M  V30 1399 C 133.735 -2.42015 3.5458 0
M  V30 1400 C 132.968 -3.6803 3.8651 0
M  V30 1401 O 133.191 -4.72413 3.1966 0
M  V30 1402 O 132.125 -3.6326 4.79923 0
M  V30 1403 H 135.951 -0.931988 2.89046 0
M  V30 1404 H 133.536 -0.395488 1.4407 0
M  V30 1405 H 135.418 -3.36008 2.54316 0
M  V30 1406 H 134.093 -2.89925 1.43963 0
M  V30 1407 H 133 -1.62017 3.37196 0
M  V30 1408 H 134.333 -2.14937 4.4279 0
M  V30 1409 N 135.985 -1.50799 -0.457987 0
M  V30 1410 C 137.231 -1.62683 -1.21088 0
M  V30 1411 C 137.564 -0.332268 -1.91336 0
M  V30 1412 O 136.839 0.667043 -1.82704 0
M  V30 1413 C 137.122 -2.81615 -2.24422 0
M  V30 1414 C 136.975 -4.20989 -1.58392 0
M  V30 1415 C 138.294 -2.96085 -3.2561 0
M  V30 1416 H 135.413 -0.592087 -0.438864 0
M  V30 1417 H 138.055 -1.83225 -0.50286 0
M  V30 1418 H 136.205 -2.64231 -2.84806 0
M  V30 1419 H 137.877 -4.49994 -1.01504 0
M  V30 1420 H 136.12 -4.24641 -0.886704 0
M  V30 1421 H 136.791 -5.0016 -2.33547 0
M  V30 1422 H 139.267 -3.12042 -2.75262 0
M  V30 1423 H 138.143 -3.80902 -3.95228 0
M  V30 1424 H 138.404 -2.0726 -3.90507 0
M  V30 1425 N 137.463 0.71206 -1.40597 0
M  V30 1426 C 138.393 1.83889 -1.43899 0
M  V30 1427 C 139.374 1.67442 -0.299504 0
M  V30 1428 O 140.559 1.87421 -0.508624 0
M  V30 1429 C 137.689 3.21877 -1.30431 0
M  V30 1430 C 136.643 3.53002 -2.42019 0
M  V30 1431 C 135.969 4.90172 -2.13626 0
M  V30 1432 C 137.269 3.53643 -3.84362 0
M  V30 1433 H 138.963 1.81383 -2.38203 0
M  V30 1434 H 136.509 0.871237 -1.14654 0
M  V30 1435 H 138.462 4.00404 -1.31357 0
M  V30 1436 H 137.186 3.24968 -0.326049 0
M  V30 1437 H 135.845 2.76818 -2.40349 0
M  V30 1438 H 135.493 4.89869 -1.14182 0
M  V30 1439 H 135.193 5.11962 -2.88389 0
M  V30 1440 H 136.717 5.71028 -2.1624 0
M  V30 1441 H 138.131 4.22203 -3.87837 0
M  V30 1442 H 136.528 3.86961 -4.58673 0
M  V30 1443 H 137.598 2.52954 -4.13693 0
M  V30 1444 N 138.941 1.26152 0.944643 0
M  V30 1445 C 140.188 1.11492 1.69044 0
M  V30 1446 C 140.516 -0.342366 1.91463 0
M  V30 1447 O 139.771 -1.26812 1.49054 0
M  V30 1448 C 140.07 1.82541 3.07268 0
M  V30 1449 C 139.736 3.32445 3.04616 0
M  V30 1450 C 138.398 3.73337 3.036 0
M  V30 1451 C 140.75 4.28171 2.97185 0
M  V30 1452 C 138.078 5.08348 2.92915 0
M  V30 1453 C 140.43 5.63218 2.88041 0
M  V30 1454 C 139.094 6.03426 2.85366 0
M  V30 1455 H 138.364 0.407977 0.618576 0
M  V30 1456 H 141.011 1.56551 1.10291 0
M  V30 1457 H 139.316 1.29941 3.69625 0
M  V30 1458 H 141.013 1.68642 3.63815 0
M  V30 1459 H 137.603 2.99915 3.06185 0
M  V30 1460 H 141.787 3.97563 2.97081 0
M  V30 1461 H 137.043 5.38667 2.89219 0
M  V30 1462 H 141.217 6.37078 2.81254 0
M  V30 1463 H 138.844 7.07999 2.76842 0
M  V30 1464 N 140.419 -1.14872 1.07899 0
M  V30 1465 C 141.329 -2.2341 0.715915 0
M  V30 1466 C 142.345 -1.71808 -0.275306 0
M  V30 1467 O 143.521 -2.01039 -0.120545 0
M  V30 1468 C 140.586 -3.46474 0.125168 0
M  V30 1469 C 139.647 -4.13039 1.17034 0
M  V30 1470 C 138.88 -5.30229 0.607688 0
M  V30 1471 O 139.103 -5.675 -0.574497 0
M  V30 1472 O 138.037 -5.86444 1.35526 0
M  V30 1473 H 141.863 -2.56808 1.62121 0
M  V30 1474 H 139.448 -1.22702 0.852322 0
M  V30 1475 H 141.33 -4.20917 -0.201729 0
M  V30 1476 H 140.005 -3.14811 -0.753364 0
M  V30 1477 H 138.912 -3.40493 1.54968 0
M  V30 1478 H 140.245 -4.48796 2.02097 0
M  V30 1479 N 141.898 -0.863906 -1.31812 0
M  V30 1480 C 143.314 -0.555004 -1.49639 0
M  V30 1481 C 143.514 0.912266 -1.79666 0
M  V30 1482 O 142.57 1.69479 -1.87171 0
M  V30 1483 C 143.883 -1.44998 -2.63431 0
M  V30 1484 C 145.431 -1.45138 -2.77316 0
M  V30 1485 C 145.906 -2.33179 -3.94197 0
M  V30 1486 N 147.397 -2.31025 -4.01474 0
M  V30 1487 C 148.132 -2.95871 -4.9117 0
M  V30 1488 N 147.628 -3.69863 -5.8581 0
M  V30 1489 N 149.421 -2.85211 -4.84367 0
M  V30 1490 H 141.572 -1.81339 -1.10589 0
M  V30 1491 H 143.835 -0.77505 -0.545895 0
M  V30 1492 H 143.541 -2.49377 -2.48 0
M  V30 1493 H 143.415 -1.14409 -3.59431 0
M  V30 1494 H 145.802 -0.415201 -2.92164 0
M  V30 1495 H 145.883 -1.79747 -1.82001 0
M  V30 1496 H 145.527 -3.3687 -3.80107 0
M  V30 1497 H 145.457 -1.95897 -4.88807 0
M  V30 1498 H 147.948 -1.77238 -3.33759 0
M  V30 1499 H 148.261 -4.16486 -6.50968 0
M  V30 1500 H 146.606 -3.73971 -5.85808 0
M  V30 1501 H 149.797 -2.26948 -4.09405 0
M  V30 1502 H 149.97 -3.36027 -5.54066 0
M  V30 1503 N 143.376 1.44774 -0.622745 0
M  V30 1504 C 144.286 2.34433 0.0886031 0
M  V30 1505 C 145.302 1.52131 0.844529 0
M  V30 1506 O 146.478 1.84886 0.798691 0
M  V30 1507 C 143.543 3.29986 1.0635 0
M  V30 1508 C 142.604 4.28195 0.307873 0
M  V30 1509 C 141.837 5.19183 1.23633 0
M  V30 1510 O 142.06 5.13918 2.47476 0
M  V30 1511 O 140.994 5.97515 0.725189 0
M  V30 1512 H 144.82 2.96693 -0.648599 0
M  V30 1513 H 142.405 1.44408 -0.382957 0
M  V30 1514 H 144.287 3.88825 1.6246 0
M  V30 1515 H 142.962 2.70269 1.78146 0
M  V30 1516 H 141.869 3.72927 -0.296064 0
M  V30 1517 H 143.202 4.90808 -0.3699 0
M  V30 1518 N 144.854 0.36279 1.53368 0
M  V30 1519 C 146.265 -0.117022 1.86333 0
M  V30 1520 C 146.616 -1.48397 1.28347 0
M  V30 1521 O 145.741 -2.07787 0.604428 0
M  V30 1522 C 146.336 -0.21912 3.38091 0
M  V30 1523 C 144.895 -0.643184 3.70864 0
M  V30 1524 C 144.042 0.211318 2.76494 0
M  V30 1525 H 146.993 0.581687 1.47655 0
M  V30 1526 H 147.014 -1.04319 3.6592 0
M  V30 1527 H 146.526 0.775902 3.80265 0
M  V30 1528 H 144.627 -1.64654 3.34245 0
M  V30 1529 H 144.74 -0.41973 4.77258 0
M  V30 1530 H 143.104 -0.319367 2.5269 0
M  V30 1531 H 143.887 1.20383 3.21501 0
M  V30 1532 N 146.332 -1.57332 0.0918853 0
M  V30 1533 C 147.581 -1.93412 -0.572249 0
M  V30 1534 C 147.894 -0.975515 -1.69538 0
M  V30 1535 O 149.1 -1.22991 -2.42045 0
M  V30 1536 C 147.556 -3.43648 -1.0693 0
M  V30 1537 C 147.164 -4.47994 0.0239049 0
M  V30 1538 C 148.908 -3.88695 -1.70635 0
M  V30 1539 C 146.815 -5.89381 -0.488319 0
M  V30 1540 H 145.745 -0.721939 -0.217532 0
M  V30 1541 H 148.396 -1.82735 0.167369 0
M  V30 1542 H 146.778 -3.49466 -1.8625 0
M  V30 1543 H 147.952 -4.53815 0.799277 0
M  V30 1544 H 146.267 -4.12536 0.565946 0
M  V30 1545 H 148.864 -4.91725 -2.10025 0
M  V30 1546 H 149.207 -3.27166 -2.57426 0
M  V30 1547 H 149.74 -3.85564 -0.979023 0
M  V30 1548 H 146.479 -6.54602 0.342906 0
M  V30 1549 H 145.999 -5.87037 -1.23077 0
M  V30 1550 H 147.678 -6.39863 -0.958317 0
M  V30 1551 N 147.81 0.181792 -1.56548 0
M  V30 1552 C 149.221 0.745244 -1.71181 0
M  V30 1553 C 149.572 1.83262 -0.70068 0
M  V30 1554 O 148.697 2.15946 0.140154 0
M  V30 1555 C 149.292 1.35859 -3.10367 0
M  V30 1556 C 147.851 1.86898 -3.2672 0
M  V30 1557 C 146.998 0.743942 -2.67134 0
M  V30 1558 H 149.949 -0.0434661 -1.5864 0
M  V30 1559 H 149.97 2.22817 -3.08436 0
M  V30 1560 H 149.482 0.566948 -3.83937 0
M  V30 1561 H 147.583 2.68738 -2.5809 0
M  V30 1562 H 147.696 2.02162 -4.34359 0
M  V30 1563 H 146.06 1.16169 -2.26665 0
M  V30 1564 H 146.843 -0.035676 -3.43281 0
M  V30 1565 N 149.288 1.51039 0.449983 0
M  V30 1566 C 150.537 1.62317 1.19733 0
M  V30 1567 C 150.85 0.339101 1.92638 0
M  V30 1568 O 152.056 0.331069 2.69474 0
M  V30 1569 C 150.512 2.86608 2.17678 0
M  V30 1570 C 150.12 4.21972 1.50479 0
M  V30 1571 C 151.864 3.07239 2.92924 0
M  V30 1572 C 149.771 5.37426 2.46834 0
M  V30 1573 H 148.701 0.604532 0.450619 0
M  V30 1574 H 151.352 1.77494 0.465625 0
M  V30 1575 H 149.734 2.65037 2.94231 0
M  V30 1576 H 150.908 4.53878 0.795716 0
M  V30 1577 H 149.223 4.07117 0.874344 0
M  V30 1578 H 151.82 3.90668 3.65079 0
M  V30 1579 H 152.163 2.19807 3.5354 0
M  V30 1580 H 152.696 3.29091 2.23481 0
M  V30 1581 H 149.435 6.27079 1.90926 0
M  V30 1582 H 148.955 5.09912 3.15832 0
M  V30 1583 H 150.634 5.68862 3.08228 0
M  V30 1584 N 150.766 -0.704594 1.40972 0
M  V30 1585 C 152.014 -1.46169 1.39568 0
M  V30 1586 C 152.335 -1.95 0.00253745 0
M  V30 1587 O 151.605 -1.71095 -0.954114 0
M  V30 1588 H 150.185 -0.542326 0.513704 0
M  V30 1589 H 152.847 -0.834553 1.76128 0
M  V30 1590 H 151.943 -2.32922 2.07735 0
M  V30 1591 N 152.244 -1.26651 -0.937939 0
M  V30 1592 C 153.472 -1.15173 -1.7188 0
M  V30 1593 C 153.887 0.292668 -1.86518 0
M  V30 1594 O 153.244 1.20014 -1.37488 0
M  V30 1595 C 153.295 -1.81925 -3.12387 0
M  V30 1596 O 153.016 -3.2072 -2.98446 0
M  V30 1597 C 154.517 -1.76442 -4.06673 0
M  V30 1598 H 151.737 -0.400911 -0.538063 0
M  V30 1599 H 154.281 -1.67332 -1.1756 0
M  V30 1600 H 152.436 -1.33696 -3.63599 0
M  V30 1601 H 152.85 -3.53802 -3.872 0
M  V30 1602 H 154.324 -2.27781 -5.02812 0
M  V30 1603 H 154.801 -0.731608 -4.33064 0
M  V30 1604 H 155.407 -2.24238 -3.61382 0
M  V30 1605 N 153.722 1.14298 -1.08507 0
M  V30 1606 C 154.67 2.21483 -0.710483 0
M  V30 1607 C 155.664 1.66998 0.284234 0
M  V30 1608 O 156.87 1.79401 0.146692 0
M  V30 1609 H 153.245 0.721578 -0.211729 0
M  V30 1610 H 155.216 2.50348 -1.62384 0
M  V30 1611 C 153.965 3.4743 -0.137007 0
M  V30 1612 H 153.288 3.89686 -0.893592 0
M  V30 1613 H 154.728 4.2391 0.0872789 0
M  V30 1614 C 153.187 3.17548 1.12538 0
M  V30 1615 O 153.717 3.35437 2.21009 0
M  V30 1616 N 151.923 2.71499 1.03617 0
M  V30 1617 H 151.47 2.57143 0.153403 0
M  V30 1618 H 151.428 2.51881 1.88158 0
M  V30 1619 N 155.201 0.870884 1.31352 0
M  V30 1620 C 156.149 0.316445 2.30437 0
M  V30 1621 C 157.143 -0.568965 1.59559 0
M  V30 1622 O 158.349 -0.454964 1.74155 0
M  V30 1623 H 154.724 0.0836521 0.747333 0
M  V30 1624 H 156.695 1.16606 2.74673 0
M  V30 1625 C 155.444 -0.46635 3.44558 0
M  V30 1626 H 154.767 0.205687 3.99271 0
M  V30 1627 H 156.207 -0.819614 4.16003 0
M  V30 1628 C 154.666 -1.65797 2.9328 0
M  V30 1629 O 155.196 -2.75728 2.92125 0
M  V30 1630 N 153.402 -1.49041 2.4947 0
M  V30 1631 H 152.949 -0.59612 2.50608 0
M  V30 1632 H 152.907 -2.28911 2.15516 0
M  V30 1633 N 156.679 -1.44442 0.630414 0
M  V30 1634 C 157.612 -2.27862 -0.124247 0
M  V30 1635 C 158.59 -1.38495 -0.851931 0
M  V30 1636 O 159.774 -1.67935 -0.856166 0
M  V30 1637 C 156.901 -3.17407 -1.18197 0
M  V30 1638 C 155.947 -4.22875 -0.554892 0
M  V30 1639 S 156.78 -5.31485 0.654489 0
M  V30 1640 C 157.936 -6.246 -0.40326 0
M  V30 1641 H 158.169 -2.91519 0.583435 0
M  V30 1642 H 155.702 -1.48618 0.418565 0
M  V30 1643 H 157.66 -3.69549 -1.78728 0
M  V30 1644 H 156.321 -2.52971 -1.86184 0
M  V30 1645 H 155.514 -4.85542 -1.35148 0
M  V30 1646 H 155.116 -3.73992 -0.0242105 0
M  V30 1647 H 157.408 -6.65375 -1.27602 0
M  V30 1648 H 158.351 -7.07851 0.187813 0
M  V30 1649 H 158.759 -5.59775 -0.728837 0
M  V30 1650 N 158.157 -0.370918 -1.53173 0
M  V30 1651 C 159.405 0.216673 -2.00935 0
M  V30 1652 C 159.726 1.48845 -1.25977 0
M  V30 1653 O 158.996 1.92286 -0.374551 0
M  V30 1654 H 157.576 0.0830565 -0.742368 0
M  V30 1655 H 160.238 -0.49838 -1.8842 0
M  V30 1656 H 159.334 0.439893 -3.08984 0
M  V30 1657 N 159.635 1.57281 -0.100228 0
M  V30 1658 C 160.545 2.17833 0.870965 0
M  V30 1659 C 161.561 1.14921 1.30649 0
M  V30 1660 O 162.737 1.47313 1.37335 0
M  V30 1661 C 159.802 2.75085 2.1102 0
M  V30 1662 C 158.863 3.9297 1.72838 0
M  V30 1663 C 158.096 4.47482 2.90854 0
M  V30 1664 O 158.319 4.00922 4.05731 0
M  V30 1665 O 157.253 5.38433 2.69023 0
M  V30 1666 H 161.079 3.0124 0.38575 0
M  V30 1667 H 158.664 1.48881 0.124397 0
M  V30 1668 H 160.546 3.11656 2.83634 0
M  V30 1669 H 159.221 1.94721 2.58584 0
M  V30 1670 H 158.128 3.61201 0.973883 0
M  V30 1671 H 159.461 4.74713 1.30033 0
M  V30 1672 N 161.113 -0.173488 1.56642 0
M  V30 1673 C 162.36 -0.890465 1.81871 0
M  V30 1674 C 162.688 -1.82339 0.67696 0
M  V30 1675 O 161.943 -1.92795 -0.335926 0
M  V30 1676 C 162.242 -1.72069 3.13252 0
M  V30 1677 C 161.908 -0.936878 4.41059 0
M  V30 1678 C 160.57 -0.720545 4.75775 0
M  V30 1679 C 162.922 -0.386919 5.19762 0
M  V30 1680 C 160.25 0.0568829 5.86672 0
M  V30 1681 C 162.602 0.37741 6.31473 0
M  V30 1682 C 161.266 0.604563 6.64757 0
M  V30 1683 H 160.536 -0.325844 0.665512 0
M  V30 1684 H 163.183 -0.155527 1.90867 0
M  V30 1685 H 161.488 -2.52496 2.99588 0
M  V30 1686 H 163.185 -2.27844 3.29982 0
M  V30 1687 H 159.775 -1.11553 4.13828 0
M  V30 1688 H 163.959 -0.541398 4.93338 0
M  V30 1689 H 159.215 0.242635 6.10918 0
M  V30 1690 H 163.389 0.810825 6.91664 0
M  V30 1691 H 161.016 1.20885 7.50527 0
M  V30 1692 N 162.591 -1.51276 -0.441967 0
M  V30 1693 C 163.521 -1.752 -1.54361 0
M  V30 1694 C 164.502 -0.601682 -1.59103 0
M  V30 1695 O 165.687 -0.843913 -1.74905 0
M  V30 1696 C 162.817 -1.87282 -2.92477 0
M  V30 1697 C 161.771 -3.02687 -3.02596 0
M  V30 1698 C 161.097 -2.99947 -4.42647 0
M  V30 1699 C 162.397 -4.4273 -2.77106 0
M  V30 1700 H 164.091 -2.67442 -1.34592 0
M  V30 1701 H 161.637 -1.28694 -0.646048 0
M  V30 1702 H 163.59 -2.02602 -3.695 0
M  V30 1703 H 162.314 -0.916844 -3.13467 0
M  V30 1704 H 160.973 -2.87065 -2.28012 0
M  V30 1705 H 160.621 -2.02136 -4.60597 0
M  V30 1706 H 160.321 -3.77439 -4.50348 0
M  V30 1707 H 161.845 -3.17354 -5.2165 0
M  V30 1708 H 163.259 -4.58727 -3.43864 0
M  V30 1709 H 161.656 -5.21893 -2.96222 0
M  V30 1710 H 162.726 -4.53087 -1.72744 0
M  V30 1711 N 164.069 0.697108 -1.41344 0
M  V30 1712 C 165.032 1.79281 -1.42797 0
M  V30 1713 C 166.032 1.57607 -0.318837 0
M  V30 1714 O 167.222 1.64309 -0.578642 0
M  V30 1715 C 164.354 3.17632 -1.23785 0
M  V30 1716 H 165.547 1.79385 -2.40335 0
M  V30 1717 H 163.1 0.904582 -1.27464 0
M  V30 1718 H 163.835 3.23167 -0.270814 0
M  V30 1719 H 163.62 3.34765 -2.04144 0
M  V30 1720 H 165.11 3.97617 -1.27633 0
M  V30 1721 N 165.547 1.27147 0.931209 0
M  V30 1722 C 166.796 1.12664 1.67302 0
M  V30 1723 C 167.109 -0.327718 1.92835 0
M  V30 1724 O 168.315 -0.593392 2.64936 0
M  V30 1725 C 166.771 1.9683 3.01307 0
M  V30 1726 C 166.379 3.46901 2.83485 0
M  V30 1727 C 168.123 1.90985 3.79111 0
M  V30 1728 C 166.03 4.23279 4.13024 0
M  V30 1729 H 164.96 0.41803 0.627509 0
M  V30 1730 H 167.611 1.51539 1.03481 0
M  V30 1731 H 165.993 1.50797 3.66164 0
M  V30 1732 H 167.167 4.00773 2.27415 0
M  V30 1733 H 165.482 3.54088 2.19113 0
M  V30 1734 H 168.079 2.45328 4.75098 0
M  V30 1735 H 168.422 0.882718 4.06834 0
M  V30 1736 H 168.955 2.34895 3.21044 0
M  V30 1737 H 165.694 5.26503 3.90481 0
M  V30 1738 H 165.214 3.74186 4.6877 0
M  V30 1739 H 166.893 4.32265 4.81411 0
M  V30 1740 N 167.025 -1.13721 1.09112 0
M  V30 1741 C 168.271 -1.85198 0.826414 0
M  V30 1742 C 168.604 -1.83129 -0.646319 0
M  V30 1743 O 167.879 -1.2671 -1.47563 0
M  V30 1744 C 168.162 -3.33507 1.35812 0
M  V30 1745 C 168.015 -3.44108 2.89672 0
M  V30 1746 C 169.334 -4.28838 0.989256 0
M  V30 1747 H 166.453 -0.67243 0.301675 0
M  V30 1748 H 169.095 -1.33499 1.35197 0
M  V30 1749 H 167.245 -3.77666 0.911082 0
M  V30 1750 H 168.917 -3.08684 3.428 0
M  V30 1751 H 167.16 -2.85087 3.26967 0
M  V30 1752 H 167.831 -4.48388 3.21951 0
M  V30 1753 H 170.307 -3.92734 1.37475 0
M  V30 1754 H 169.183 -5.31051 1.38838 0
M  V30 1755 H 169.444 -4.4198 -0.102924 0
M  V30 1756 N 168.503 -0.877838 -1.30888 0
M  V30 1757 C 169.453 -0.310872 -2.25871 0
M  V30 1758 C 170.437 0.556596 -1.50966 0
M  V30 1759 O 171.629 0.402187 -1.7237 0
M  V30 1760 C 168.758 0.479821 -3.3993 0
M  V30 1761 C 167.844 -0.401333 -4.22197 0
M  V30 1762 N 168.235 -1.49848 -4.83093 0
M  V30 1763 C 166.533 -0.195167 -4.45573 0
M  V30 1764 C 167.234 -2.0425 -5.44662 0
M  V30 1765 N 166.21 -1.33843 -5.26865 0
M  V30 1766 H 170.012 -1.1493 -2.70496 0
M  V30 1767 H 167.526 -0.726458 -1.45246 0
M  V30 1768 H 169.523 0.902582 -4.07012 0
M  V30 1769 H 168.183 1.31577 -2.96846 0
M  V30 1770 H 169.194 -1.88137 -4.82519 0
M  V30 1771 H 165.871 0.604192 -4.13105 0
M  V30 1772 H 167.261 -2.96345 -6.03017 0
M  V30 1773 N 169.982 1.44106 -0.638065 0
M  V30 1774 C 171.23 2.01579 -0.145043 0
M  V30 1775 C 171.551 1.50496 1.24 0
M  V30 1776 O 170.821 0.711374 1.82527 0
M  V30 1777 H 169.401 0.745282 -0.05063 0
M  V30 1778 H 172.063 1.76516 -0.826327 0
M  V30 1779 H 171.159 3.11877 -0.118039 0
M  V30 1780 N 171.46 0.379036 1.52974 0
M  V30 1781 C 172.39 -0.452706 2.29069 0
M  V30 1782 C 173.371 -1.07237 1.32039 0
M  V30 1783 O 174.556 -1.08708 1.60923 0
M  V30 1784 C 171.686 -1.5856 3.08992 0
M  V30 1785 C 170.64 -1.0925 4.13822 0
M  V30 1786 C 169.966 -2.31668 4.81907 0
M  V30 1787 C 171.266 -0.167702 5.22031 0
M  V30 1788 H 172.96 0.182181 2.98845 0
M  V30 1789 H 170.506 0.0890592 1.43724 0
M  V30 1790 H 172.459 -2.1742 3.6098 0
M  V30 1791 H 171.183 -2.24792 2.36931 0
M  V30 1792 H 169.842 -0.526494 3.628 0
M  V30 1793 H 169.49 -2.96386 4.06404 0
M  V30 1794 H 169.19 -1.9934 5.52754 0
M  V30 1795 H 170.714 -2.91189 5.36695 0
M  V30 1796 H 172.128 -0.664186 5.6944 0
M  V30 1797 H 170.525 0.0653265 6.00064 0
M  V30 1798 H 171.595 0.786347 4.78482 0
M  V30 1799 N 172.938 -1.57226 0.108567 0
M  V30 1800 C 174.354 -1.5766 -0.248058 0
M  V30 1801 C 174.554 -1.12063 -1.67464 0
M  V30 1802 O 173.61 -0.803236 -2.39383 0
M  V30 1803 C 174.923 -3.0069 -0.0242287 0
M  V30 1804 C 176.471 -3.12868 -0.0909372 0
M  V30 1805 C 176.946 -4.57879 0.105067 0
M  V30 1806 N 178.437 -4.63172 0.0506846 0
M  V30 1807 C 179.172 -5.73126 0.177396 0
M  V30 1808 N 178.668 -6.91866 0.359696 0
M  V30 1809 N 180.461 -5.61977 0.117709 0
M  V30 1810 H 172.612 -1.85169 1.04049 0
M  V30 1811 H 174.875 -0.85529 0.40888 0
M  V30 1812 H 174.581 -3.38299 0.961604 0
M  V30 1813 H 174.455 -3.6945 -0.76068 0
M  V30 1814 H 176.842 -2.75124 -1.06729 0
M  V30 1815 H 176.923 -2.46672 0.677225 0
M  V30 1816 H 176.567 -4.96321 1.07834 0
M  V30 1817 H 176.497 -5.22153 -0.682954 0
M  V30 1818 H 178.988 -3.778 -0.0871266 0
M  V30 1819 H 179.301 -7.71503 0.447529 0
M  V30 1820 H 177.646 -6.93874 0.395536 0
M  V30 1821 H 180.837 -4.68094 -0.0236741 0
M  V30 1822 H 181.01 -6.47627 0.219905 0
M  V30 1823 N 174.416 0.165178 -1.56732 0
M  V30 1824 C 175.646 0.894919 -1.86212 0
M  V30 1825 C 176.054 1.76066 -0.692627 0
M  V30 1826 O 175.397 1.80387 0.347303 0
M  V30 1827 C 175.459 1.8174 -3.10179 0
M  V30 1828 C 175.123 1.13064 -4.42793 0
M  V30 1829 C 176.12 0.493169 -5.17556 0
M  V30 1830 C 173.805 1.12556 -4.89527 0
M  V30 1831 C 175.799 -0.140209 -6.37246 0
M  V30 1832 C 173.486 0.488366 -6.09145 0
M  V30 1833 C 174.484 -0.143411 -6.82849 0
M  V30 1834 O 174.172 -0.77055 -8.00199 0
M  V30 1835 H 173.904 0.265114 -0.621844 0
M  V30 1836 H 176.458 0.168242 -2.0471 0
M  V30 1837 H 174.688 2.58455 -2.87642 0
M  V30 1838 H 176.377 2.4175 -3.26055 0
M  V30 1839 H 177.143 0.489023 -4.82528 0
M  V30 1840 H 173.022 1.60672 -4.32094 0
M  V30 1841 H 176.566 -0.633932 -6.94714 0
M  V30 1842 H 172.463 0.490116 -6.43637 0
M  V30 1843 H 173.231 -0.670408 -8.1575 0
M  V30 1844 N 175.894 1.51508 0.433938 0
M  V30 1845 C 176.824 1.76016 1.53429 0
M  V30 1846 C 177.805 0.610112 1.58782 0
M  V30 1847 O 178.99 0.853177 1.74455 0
M  V30 1848 C 176.12 1.88831 2.9148 0
M  V30 1849 C 175.074 3.04288 3.00987 0
M  V30 1850 C 174.4 3.0229 4.4105 0
M  V30 1851 C 175.7 4.44193 2.74754 0
M  V30 1852 H 177.394 2.68152 1.33171 0
M  V30 1853 H 174.94 1.29035 0.639214 0
M  V30 1854 H 176.893 2.04559 3.6842 0
M  V30 1855 H 175.617 0.933455 3.12976 0
M  V30 1856 H 174.276 2.8827 2.26486 0
M  V30 1857 H 173.924 2.04576 4.59519 0
M  V30 1858 H 173.624 3.79822 4.4834 0
M  V30 1859 H 175.148 3.20116 5.1996 0
M  V30 1860 H 176.562 4.60544 3.41426 0
M  V30 1861 H 174.959 5.23457 2.9345 0
M  V30 1862 H 176.029 4.53996 1.70339 0
M  V30 1863 N 177.372 -0.689602 1.41712 0
M  V30 1864 C 178.319 -1.80345 1.44029 0
M  V30 1865 C 179.289 -1.63478 0.293948 0
M  V30 1866 O 180.474 -1.84244 0.495869 0
M  V30 1867 C 177.614 -3.18272 1.33405 0
M  V30 1868 C 176.727 -3.46529 2.57956 0
M  V30 1869 C 175.862 -4.74103 2.39582 0
M  V30 1870 C 174.901 -4.95347 3.5958 0
M  V30 1871 N 174.038 -6.14151 3.40239 0
M  V30 1872 H 178.878 -1.77698 2.39222 0
M  V30 1873 H 176.415 -0.867688 1.18784 0
M  V30 1874 H 178.373 -3.97956 1.25246 0
M  V30 1875 H 177.003 -3.2008 0.418164 0
M  V30 1876 H 176.055 -2.61207 2.76542 0
M  V30 1877 H 177.367 -3.58126 3.47199 0
M  V30 1878 H 176.521 -5.61853 2.28924 0
M  V30 1879 H 175.26 -4.64763 1.47805 0
M  V30 1880 H 174.265 -4.06044 3.70686 0
M  V30 1881 H 175.49 -5.06542 4.52318 0
M  V30 1882 H 173.436 -6.06013 2.51167 0
M  V30 1883 H 173.353 -6.26543 4.23061 0
M  V30 1884 H 174.621 -7.04619 3.33365 0
M  V30 1885 N 178.85 -1.27639 -0.924453 0
M  V30 1886 C 179.76 -1.12466 -2.05885 0
M  V30 1887 C 180.776 -0.053869 -1.73917 0
M  V30 1888 O 181.952 -0.261012 -1.99702 0
M  V30 1889 C 179.017 -0.776768 -3.37886 0
M  V30 1890 C 178.078 -1.92878 -3.83532 0
M  V30 1891 C 177.311 -1.59739 -5.09234 0
M  V30 1892 O 177.534 -0.506782 -5.68144 0
M  V30 1893 O 176.468 -2.43761 -5.50331 0
M  V30 1894 H 180.294 -2.07671 -2.21599 0
M  V30 1895 H 177.879 -1.06857 -1.04413 0
M  V30 1896 H 179.761 -0.596229 -4.17161 0
M  V30 1897 H 178.436 0.145732 -3.23372 0
M  V30 1898 H 177.343 -2.1644 -3.0513 0
M  V30 1899 H 178.676 -2.8316 -4.02593 0
M  V30 1900 N 180.328 1.1314 -1.09713 0
M  V30 1901 C 181.744 1.36477 -0.827423 0
M  V30 1902 C 181.944 1.93654 0.556817 0
M  V30 1903 O 181 2.15791 1.31112 0
M  V30 1904 C 182.313 2.31334 -1.92106 0
M  V30 1905 C 183.861 2.44943 -1.94864 0
M  V30 1906 C 184.336 3.4311 -3.0338 0
M  V30 1907 N 185.827 3.50662 -3.02639 0
M  V30 1908 C 186.562 4.2651 -3.83246 0
M  V30 1909 N 186.058 5.05485 -4.73768 0
M  V30 1910 N 187.851 4.2184 -3.71493 0
M  V30 1911 H 180.002 0.743807 -1.9895 0
M  V30 1912 H 182.265 0.389823 -0.864143 0
M  V30 1913 H 181.971 1.96483 -2.91698 0
M  V30 1914 H 181.845 3.31381 -1.80184 0
M  V30 1915 H 184.232 2.79079 -0.959099 0
M  V30 1916 H 184.313 1.4481 -2.10864 0
M  V30 1917 H 183.957 3.09704 -4.02549 0
M  V30 1918 H 183.887 4.43055 -2.84622 0
M  V30 1919 H 186.378 2.94315 -2.37039 0
M  V30 1920 H 186.691 5.60675 -5.3185 0
M  V30 1921 H 185.036 5.04708 -4.77802 0
M  V30 1922 H 188.227 3.5922 -3.00131 0
M  V30 1923 H 188.4 4.80697 -4.3455 0
M  V30 1924 N 181.806 0.884767 1.30421 0
M  V30 1925 C 182.754 0.340869 2.30089 0
M  V30 1926 C 183.748 -0.55201 1.60154 0
M  V30 1927 O 184.954 -0.436467 1.74628 0
M  V30 1928 H 181.329 0.0915739 0.746404 0
M  V30 1929 H 183.3 1.19513 2.73421 0
M  V30 1930 C 182.049 -0.429779 3.45034 0
M  V30 1931 H 181.372 0.248024 3.9903 0
M  V30 1932 H 182.812 -0.775445 4.16849 0
M  V30 1933 C 181.271 -1.62677 2.95022 0
M  V30 1934 O 181.801 -2.72614 2.95033 0
M  V30 1935 N 180.007 -1.46387 2.51036 0
M  V30 1936 H 179.554 -0.569506 2.51226 0
M  V30 1937 H 179.512 -2.26612 2.17932 0
M  V30 1938 N 183.284 -1.43765 0.645699 0
M  V30 1939 C 184.509 -2.06767 0.161883 0
M  V30 1940 C 184.934 -1.48034 -1.16049 0
M  V30 1941 O 184.292 -0.587369 -1.71522 0
M  V30 1942 C 184.34 -3.60519 0.0762003 0
M  V30 1943 O 183.444 -4.00982 -0.963721 0
M  V30 1944 H 182.785 -0.657675 0.091429 0
M  V30 1945 H 185.315 -1.84397 0.886499 0
M  V30 1946 H 185.325 -4.07853 -0.109604 0
M  V30 1947 H 184 -4.02646 1.04157 0
M  V30 1948 H 182.577 -3.65253 -0.751312 0
M  V30 1949 N 184.763 -0.387143 -1.52771 0
M  V30 1950 C 186.179 -0.037007 -1.59557 0
M  V30 1951 C 186.379 1.44801 -1.40124 0
M  V30 1952 O 185.435 2.21227 -1.21716 0
M  V30 1953 C 186.748 -0.512256 -2.96305 0
M  V30 1954 C 188.296 -0.468328 -3.09476 0
M  V30 1955 C 188.771 -0.919731 -4.4867 0
M  V30 1956 N 190.262 -0.875656 -4.54848 0
M  V30 1957 C 190.997 -1.19637 -5.6078 0
M  V30 1958 N 190.493 -1.58745 -6.74368 0
M  V30 1959 N 192.286 -1.11776 -5.50874 0
M  V30 1960 H 184.437 -1.35395 -1.63652 0
M  V30 1961 H 186.7 -0.554818 -0.768688 0
M  V30 1962 H 186.406 -1.54935 -3.15734 0
M  V30 1963 H 186.28 0.089805 -3.77093 0
M  V30 1964 H 188.667 0.559671 -2.89744 0
M  V30 1965 H 188.748 -1.10616 -2.30646 0
M  V30 1966 H 188.392 -1.94595 -4.69143 0
M  V30 1967 H 188.322 -0.258927 -5.25963 0
M  V30 1968 H 190.813 -0.587843 -3.733 0
M  V30 1969 H 191.126 -1.81586 -7.51163 0
M  V30 1970 H 189.471 -1.6263 -6.75705 0
M  V30 1971 H 192.662 -0.811264 -4.61016 0
M  V30 1972 H 192.835 -1.37103 -6.3333 0
M  V30 1973 N 186.241 1.57166 -0.116904 0
M  V30 1974 C 187.188 2.15202 0.83408 0
M  V30 1975 C 188.158 1.07644 1.26499 0
M  V30 1976 O 189.343 1.35541 1.34288 0
M  V30 1977 C 186.483 2.75405 2.07957 0
M  V30 1978 C 185.596 3.97264 1.69721 0
M  V30 1979 C 184.731 4.45561 2.89221 0
M  V30 1980 C 183.77 5.59956 2.47215 0
M  V30 1981 N 182.907 6.03006 3.59622 0
M  V30 1982 H 187.747 2.96141 0.332335 0
M  V30 1983 H 185.284 1.46309 0.152349 0
M  V30 1984 H 187.242 3.08439 2.80929 0
M  V30 1985 H 185.872 1.97159 2.55594 0
M  V30 1986 H 184.924 3.70404 0.866316 0
M  V30 1987 H 186.236 4.80226 1.34849 0
M  V30 1988 H 185.39 4.80493 3.7042 0
M  V30 1989 H 184.129 3.61544 3.27318 0
M  V30 1990 H 183.134 5.2463 1.64448 0
M  V30 1991 H 184.359 6.45738 2.10238 0
M  V30 1992 H 182.305 5.21931 3.97396 0
M  V30 1993 H 182.222 6.80819 3.28667 0
M  V30 1994 H 183.49 6.42576 4.41267 0
M  V30 1995 N 187.719 -0.156864 1.56817 0
M  V30 1996 C 189.13 -0.717916 1.72345 0
M  V30 1997 C 189.481 -1.82124 0.729747 0
M  V30 1998 O 188.606 -2.16141 -0.105781 0
M  V30 1999 C 189.201 -1.30904 3.12489 0
M  V30 2000 C 187.76 -1.81676 3.29653 0
M  V30 2001 C 186.907 -0.701349 2.68284 0
M  V30 2002 H 189.858 0.0686989 1.58551 0
M  V30 2003 H 189.879 -2.17882 3.11942 0
M  V30 2004 H 189.391 -0.505796 3.8479 0
M  V30 2005 H 187.492 -2.64598 2.62333 0
M  V30 2006 H 187.605 -1.95226 4.3752 0
M  V30 2007 H 185.969 -1.12548 2.28484 0
M  V30 2008 H 186.752 0.0902846 3.43181 0
M  V30 2009 N 189.197 -1.51736 -0.425897 0
M  V30 2010 C 190.446 -1.64201 -1.17136 0
M  V30 2011 C 190.759 -0.369705 -1.92074 0
M  V30 2012 O 191.965 -0.373898 -2.68913 0
M  V30 2013 C 190.421 -2.90035 -2.13091 0
M  V30 2014 C 190.029 -4.24312 -1.43747 0
M  V30 2015 C 191.773 -3.1186 -2.87999 0
M  V30 2016 C 189.68 -5.41285 -2.38253 0
M  V30 2017 H 188.61 -0.611624 -0.440944 0
M  V30 2018 H 191.261 -1.78212 -0.437328 0
M  V30 2019 H 189.643 -2.69684 -2.89977 0
M  V30 2020 H 190.817 -4.55086 -0.723408 0
M  V30 2021 H 189.132 -4.08456 -0.809465 0
M  V30 2022 H 191.729 -3.96427 -3.58817 0
M  V30 2023 H 192.072 -2.25403 -3.49999 0
M  V30 2024 H 192.605 -3.32605 -2.18217 0
M  V30 2025 H 189.344 -6.30037 -1.80925 0
M  V30 2026 H 188.864 -5.14872 -3.0768 0
M  V30 2027 H 190.543 -5.73694 -2.99139 0
M  V30 2028 N 190.675 0.682077 -1.42076 0
M  V30 2029 C 191.905 1.46844 -1.45329 0
M  V30 2030 C 192.313 1.89102 -0.0609328 0
M  V30 2031 O 191.656 1.58238 0.933082 0
M  V30 2032 C 191.718 2.75375 -2.31104 0
M  V30 2033 C 191.382 2.55238 -3.79081 0
M  V30 2034 C 192.379 2.20309 -4.70914 0
M  V30 2035 C 190.064 2.70459 -4.2327 0
M  V30 2036 C 192.058 2.00859 -6.04925 0
M  V30 2037 C 189.745 2.50624 -5.57343 0
M  V30 2038 C 190.743 2.15876 -6.47986 0
M  V30 2039 O 190.431 1.96227 -7.79583 0
M  V30 2040 H 190.163 0.4586 -0.496651 0
M  V30 2041 H 192.717 0.846131 -1.87162 0
M  V30 2042 H 190.947 3.40061 -1.84107 0
M  V30 2043 H 192.636 3.37231 -2.25898 0
M  V30 2044 H 193.402 2.08153 -4.38061 0
M  V30 2045 H 189.281 2.96485 -3.53012 0
M  V30 2046 H 192.825 1.7366 -6.75639 0
M  V30 2047 H 188.722 2.62375 -5.89771 0
M  V30 2048 H 189.49 2.10883 -7.90867 0
M  V30 2049 N 192.153 1.28127 0.917671 0
M  V30 2050 C 193.378 1.18007 1.70555 0
M  V30 2051 C 193.803 -0.258257 1.86319 0
M  V30 2052 O 193.161 -1.1869 1.37049 0
M  V30 2053 C 193.209 1.87948 3.07746 0
M  V30 2054 O 192.313 1.18427 3.9503 0
M  V30 2055 H 191.654 0.409867 0.522403 0
M  V30 2056 H 194.184 1.69379 1.1477 0
M  V30 2057 H 194.194 1.95701 3.58001 0
M  V30 2058 H 192.869 2.92573 2.95591 0
M  V30 2059 H 191.446 1.18811 3.53466 0
M  V30 2060 N 193.631 -1.12557 1.10312 0
M  V30 2061 C 194.908 -1.80363 0.756878 0
M  V30 2062 C 195.288 -1.97067 -0.756824 0
M  V30 2063 O 194.636 -1.54601 -1.68259 0
M  V30 2064 C 194.846 -3.14812 1.50647 0
M  V30 2065 C 196.194 -3.90029 1.67817 0
M  V30 2066 O 197.218 -3.24464 1.46974 0
M  V30 2067 O 196.077 -5.07652 2.02365 0
M  V30 2068 H 193.171 -0.780667 0.272926 0
M  V30 2069 H 195.717 -1.19404 1.20586 0
M  V30 2070 H 194.489 -2.97936 2.53672 0
M  V30 2071 H 194.112 -3.83478 1.05026 0
M  V30 2072 N 195.109 -0.891671 -1.2995 0
M  V30 2073 C 196.334 -0.527932 -2.00568 0
M  V30 2074 C 196.759 0.877969 -1.66353 0
M  V30 2075 O 196.117 1.58301 -0.883762 0
M  V30 2076 C 196.165 -0.717745 -3.53385 0
M  V30 2077 O 195.269 0.233376 -4.11739 0
M  V30 2078 H 194.61 -0.20722 -0.630837 0
M  V30 2079 H 197.14 -1.20105 -1.65638 0
M  V30 2080 H 197.15 -0.619307 -4.03272 0
M  V30 2081 H 195.825 -1.74276 -3.77625 0
M  V30 2082 H 194.402 0.0880706 -3.72796 0
M  V30 2083 N 196.587 1.43421 -0.653314 0
M  V30 2084 C 197.519 2.29071 0.0769134 0
M  V30 2085 C 198.532 1.42513 0.787017 0
M  V30 2086 O 199.721 1.66449 0.644757 0
M  V30 2087 C 196.821 3.19436 1.13199 0
M  V30 2088 C 195.994 4.34533 0.500006 0
M  V30 2089 C 195.053 5.05771 1.45198 0
M  V30 2090 O 194.079 5.61037 0.960538 0
M  V30 2091 N 195.281 5.0928 2.78594 0
M  V30 2092 H 198.046 2.92382 -0.658235 0
M  V30 2093 H 195.607 1.54112 -0.496104 0
M  V30 2094 H 197.599 3.63958 1.76964 0
M  V30 2095 H 196.169 2.57724 1.7691 0
M  V30 2096 H 195.389 3.92925 -0.316738 0
M  V30 2097 H 196.677 5.08766 0.0588345 0
M  V30 2098 H 196.075 4.65751 3.2108 0
M  V30 2099 H 194.632 5.57519 3.37662 0
M  V30 2100 N 198.065 0.39524 1.52563 0
M  V30 2101 C 199.293 -0.184943 2.06072 0
M  V30 2102 C 199.708 -1.40021 1.26647 0
M  V30 2103 O 199.065 -1.79767 0.314672 0
M  V30 2104 C 199.116 -0.549179 3.57304 0
M  V30 2105 O 198.837 0.617813 4.33722 0
M  V30 2106 C 200.338 -1.18459 4.2718 0
M  V30 2107 H 197.558 -0.0265025 0.670476 0
M  V30 2108 H 200.102 0.562184 1.96621 0
M  V30 2109 H 198.257 -1.2462 3.66809 0
M  V30 2110 H 198.671 0.317091 5.23541 0
M  V30 2111 H 200.145 -1.38976 5.34219 0
M  V30 2112 H 200.622 -2.15368 3.82771 0
M  V30 2113 H 201.228 -0.528163 4.22008 0
M  V30 2114 N 199.544 -1.57102 0.125237 0
M  V30 2115 C 200.507 -2.14471 -0.80838 0
M  V30 2116 C 201.507 -1.0811 -1.19033 0
M  V30 2117 O 202.697 -1.33856 -1.11482 0
M  V30 2118 C 199.829 -2.69005 -2.09402 0
M  V30 2119 H 201.022 -2.98297 -0.309696 0
M  V30 2120 H 198.575 -1.55807 -0.124051 0
M  V30 2121 H 199.31 -1.88785 -2.63687 0
M  V30 2122 H 199.095 -3.46799 -1.82957 0
M  V30 2123 H 200.585 -3.13278 -2.76128 0
M  V30 2124 N 201.022 0.148545 -1.56898 0
M  V30 2125 C 202.271 0.85984 -1.82454 0
M  V30 2126 C 202.584 1.82406 -0.706229 0
M  V30 2127 O 203.79 2.57938 -0.847349 0
M  V30 2128 C 202.246 1.57967 -3.2338 0
M  V30 2129 C 201.854 0.65794 -4.43142 0
M  V30 2130 C 203.598 2.27784 -3.58211 0
M  V30 2131 C 201.505 1.3793 -5.75091 0
M  V30 2132 H 200.435 0.324834 -0.68044 0
M  V30 2133 H 203.086 0.112588 -1.83154 0
M  V30 2134 H 201.468 2.37249 -3.17063 0
M  V30 2135 H 202.642 -0.0995497 -4.60692 0
M  V30 2136 H 200.957 0.0682643 -4.16344 0
M  V30 2137 H 203.554 2.8239 -4.54048 0
M  V30 2138 H 203.897 3.04204 -2.84193 0
M  V30 2139 H 204.43 1.55421 -3.66182 0
M  V30 2140 H 201.169 0.656982 -6.52199 0
M  V30 2141 H 200.689 2.10954 -5.61479 0
M  V30 2142 H 202.368 1.92063 -6.17835 0
M  V30 2143 N 202.5 1.5196 0.417844 0
M  V30 2144 C 203.447 1.74678 1.50852 0
M  V30 2145 C 204.417 0.588947 1.55308 0
M  V30 2146 O 205.602 0.825544 1.72016 0
M  V30 2147 C 202.742 1.89544 2.88387 0
M  V30 2148 C 201.855 3.17166 2.93309 0
M  V30 2149 C 200.99 3.22513 4.22088 0
M  V30 2150 C 200.029 4.44372 4.20951 0
M  V30 2151 N 199.166 4.47161 5.41287 0
M  V30 2152 H 204.006 2.67768 1.30783 0
M  V30 2153 H 201.543 1.32689 0.63498 0
M  V30 2154 H 203.501 1.96146 3.68216 0
M  V30 2155 H 202.131 0.998424 3.06971 0
M  V30 2156 H 201.183 3.19778 2.06024 0
M  V30 2157 H 202.495 4.07021 2.88332 0
M  V30 2158 H 201.649 3.28139 5.10303 0
M  V30 2159 H 200.388 2.30581 4.29748 0
M  V30 2160 H 199.393 4.38902 3.31127 0
M  V30 2161 H 200.618 5.3759 4.14938 0
M  V30 2162 H 198.564 3.58108 5.49632 0
M  V30 2163 H 198.481 5.3085 5.3827 0
M  V30 2164 H 199.749 4.57005 6.3148 0
M  V30 2165 N 203.978 -0.674533 1.42435 0
M  V30 2166 C 205.224 -1.43521 1.4413 0
M  V30 2167 C 205.579 -1.92316 0.0567773 0
M  V30 2168 O 204.872 -1.68008 -0.921076 0
M  V30 2169 C 205.066 -2.64767 2.40069 0
M  V30 2170 C 204.895 -2.27836 3.87713 0
M  V30 2171 C 203.665 -2.17183 4.56245 0
M  V30 2172 C 205.863 -1.89466 4.78129 0
M  V30 2173 N 203.845 -1.73358 5.88915 0
M  V30 2174 C 205.216 -1.56561 5.99907 0
M  V30 2175 C 207.271 -1.7646 4.65582 0
M  V30 2176 C 205.974 -1.11957 7.10534 0
M  V30 2177 C 208 -1.3326 5.76191 0
M  V30 2178 C 207.362 -1.0128 6.97081 0
M  V30 2179 H 203.461 -0.521656 0.582579 0
M  V30 2180 H 206.045 -0.778381 1.78464 0
M  V30 2181 H 204.216 -3.28139 2.07796 0
M  V30 2182 H 205.948 -3.3136 2.32342 0
M  V30 2183 H 202.703 -2.3626 4.10461 0
M  V30 2184 H 203.127 -1.53867 6.59283 0
M  V30 2185 H 207.769 -1.99831 3.72595 0
M  V30 2186 H 205.487 -0.873318 8.03367 0
M  V30 2187 H 209.073 -1.23717 5.68494 0
M  V30 2188 H 207.953 -0.683597 7.81215 0
M  V30 2189 N 205.456 -1.28612 -0.910864 0
M  V30 2190 C 206.702 -1.16106 -1.66274 0
M  V30 2191 C 207.035 0.289113 -1.92036 0
M  V30 2192 O 206.31 1.21 -1.52281 0
M  V30 2193 C 206.593 -1.96309 -3.01885 0
M  V30 2194 C 206.446 -3.49405 -2.8326 0
M  V30 2195 C 207.765 -1.78076 -4.02463 0
M  V30 2196 H 204.884 -0.423152 -0.603417 0
M  V30 2197 H 207.526 -1.57961 -1.05586 0
M  V30 2198 H 205.676 -1.60742 -3.53687 0
M  V30 2199 H 207.348 -3.94894 -2.38446 0
M  V30 2200 H 205.591 -3.74893 -2.18261 0
M  V30 2201 H 206.262 -4.00784 -3.79574 0
M  V30 2202 H 208.738 -2.0912 -3.59733 0
M  V30 2203 H 207.614 -2.36561 -4.95308 0
M  V30 2204 H 207.875 -0.733008 -4.35981 0
M  V30 2205 N 206.934 1.1197 -1.10907 0
M  V30 2206 C 207.881 2.17846 -0.762345 0
M  V30 2207 C 208.851 1.63995 0.263599 0
M  V30 2208 O 210.036 1.90273 0.141773 0
M  V30 2209 C 207.176 3.44487 -0.205651 0
M  V30 2210 C 206.289 4.12369 -1.28748 0
M  V30 2211 C 205.424 5.26674 -0.691919 0
M  V30 2212 C 204.463 5.86431 -1.75399 0
M  V30 2213 N 203.6 6.92142 -1.17833 0
M  V30 2214 H 208.44 2.46851 -1.6694 0
M  V30 2215 H 205.977 1.21188 -0.833776 0
M  V30 2216 H 207.935 4.16981 0.135037 0
M  V30 2217 H 206.565 3.15884 0.664613 0
M  V30 2218 H 205.617 3.38003 -1.74522 0
M  V30 2219 H 206.929 4.52844 -2.09125 0
M  V30 2220 H 206.083 6.05953 -0.300963 0
M  V30 2221 H 204.822 4.8749 0.143232 0
M  V30 2222 H 203.827 5.05835 -2.15432 0
M  V30 2223 H 205.052 6.27685 -2.59208 0
M  V30 2224 H 202.998 6.54985 -0.364725 0
M  V30 2225 H 202.915 7.31242 -1.91887 0
M  V30 2226 H 204.183 7.75237 -0.81408 0
M  V30 2227 N 208.412 0.89855 1.29475 0
M  V30 2228 C 209.689 0.443416 1.90508 0
M  V30 2229 C 210.069 -1.07685 1.81569 0
M  V30 2230 O 209.417 -1.9182 1.24166 0
M  V30 2231 C 209.627 0.956708 3.35631 0
M  V30 2232 C 210.975 0.999728 4.12663 0
M  V30 2233 O 211.999 0.904299 3.4453 0
M  V30 2234 O 210.858 1.14289 5.34416 0
M  V30 2235 H 207.952 0.138025 0.815401 0
M  V30 2236 H 210.498 0.98834 1.37949 0
M  V30 2237 H 209.27 2.00067 3.36287 0
M  V30 2238 H 208.893 0.391728 3.95666 0
M  V30 2239 N 209.89 -1.43072 0.660911 0
M  V30 2240 C 210.837 -2.30785 -0.0259884 0
M  V30 2241 C 211.807 -1.45184 -0.806888 0
M  V30 2242 O 212.992 -1.74041 -0.781943 0
M  V30 2243 C 210.132 -3.30861 -0.981067 0
M  V30 2244 C 209.245 -4.31558 -0.195458 0
M  V30 2245 C 208.38 -5.18712 -1.14503 0
M  V30 2246 C 207.419 -6.11097 -0.350299 0
M  V30 2247 N 206.556 -6.90849 -1.25186 0
M  V30 2248 H 211.396 -2.88975 0.727846 0
M  V30 2249 H 208.933 -1.42353 0.370682 0
M  V30 2250 H 210.891 -3.87399 -1.54849 0
M  V30 2251 H 209.521 -2.74304 -1.70169 0
M  V30 2252 H 208.573 -3.77252 0.488374 0
M  V30 2253 H 209.885 -4.9701 0.422176 0
M  V30 2254 H 209.039 -5.79914 -1.78284 0
M  V30 2255 H 207.778 -4.53404 -1.79656 0
M  V30 2256 H 206.783 -5.48976 0.300808 0
M  V30 2257 H 208.008 -6.7845 0.296941 0
M  V30 2258 H 205.954 -6.28182 -1.89005 0
M  V30 2259 H 205.871 -7.52854 -0.688971 0
M  V30 2260 H 207.139 -7.5655 -1.87757 0
M  V30 2261 N 211.368 -0.403325 -1.52352 0
M  V30 2262 C 212.315 0.425011 -2.26853 0
M  V30 2263 C 213.285 1.04598 -1.29029 0
M  V30 2264 O 214.47 1.07135 -1.57882 0
M  V30 2265 C 211.61 1.53888 -3.08889 0
M  V30 2266 C 210.723 0.939396 -4.21663 0
M  V30 2267 C 209.858 2.02547 -4.91068 0
M  V30 2268 C 208.897 1.40263 -5.95813 0
M  V30 2269 N 208.034 2.4286 -6.58759 0
M  V30 2270 H 212.874 -0.21674 -2.97211 0
M  V30 2271 H 210.411 -0.118722 -1.4662 0
M  V30 2272 H 212.369 2.19558 -3.54753 0
M  V30 2273 H 210.999 2.15074 -2.40714 0
M  V30 2274 H 210.051 0.171898 -3.80011 0
M  V30 2275 H 211.363 0.44436 -4.96817 0
M  V30 2276 H 210.517 2.75958 -5.40308 0
M  V30 2277 H 209.256 2.55415 -4.15469 0
M  V30 2278 H 208.261 0.653833 -5.45898 0
M  V30 2279 H 209.486 0.881719 -6.73352 0
M  V30 2280 H 207.432 2.94871 -5.85992 0
M  V30 2281 H 207.349 1.98152 -7.2957 0
M  V30 2282 H 208.617 3.15858 -7.12639 0
M  V30 2283 N 212.846 1.57033 -0.133567 0
M  V30 2284 C 213.809 2.14897 0.796995 0
M  V30 2285 C 214.809 1.0874 1.18458 0
M  V30 2286 O 215.999 1.34446 1.1077 0
M  V30 2287 C 213.131 2.70112 2.07973 0
M  V30 2288 H 214.324 2.98457 0.293873 0
M  V30 2289 H 211.877 1.55871 0.115787 0
M  V30 2290 H 212.612 1.9018 2.62682 0
M  V30 2291 H 212.397 3.47764 1.81115 0
M  V30 2292 H 213.887 3.14738 2.74462 0
M  V30 2293 N 214.325 -0.140222 1.56975 0
M  V30 2294 C 215.272 -1.17292 1.98774 0
M  V30 2295 C 216.242 -1.4232 0.856408 0
M  V30 2296 O 217.427 -1.54541 1.119 0
M  V30 2297 C 214.567 -2.49973 2.37923 0
M  V30 2298 C 213.68 -2.32062 3.64378 0
M  V30 2299 C 212.815 -3.57825 3.926 0
M  V30 2300 C 211.854 -3.3498 5.12303 0
M  V30 2301 N 210.991 -4.52891 5.36502 0
M  V30 2302 H 215.831 -0.809472 2.86795 0
M  V30 2303 H 213.368 -0.388237 1.41884 0
M  V30 2304 H 215.326 -3.27346 2.58652 0
M  V30 2305 H 213.956 -2.84252 1.52972 0
M  V30 2306 H 213.008 -1.45711 3.51387 0
M  V30 2307 H 214.32 -2.11145 4.51906 0
M  V30 2308 H 213.474 -4.43624 4.13863 0
M  V30 2309 H 212.213 -3.81753 3.03506 0
M  V30 2310 H 211.218 -2.4757 4.90906 0
M  V30 2311 H 212.443 -3.12444 6.02956 0
M  V30 2312 H 210.389 -4.76979 4.50363 0
M  V30 2313 H 210.306 -4.35001 6.18312 0
M  V30 2314 H 211.574 -5.39884 5.62268 0
M  V30 2315 N 215.803 -1.52179 -0.40978 0
M  V30 2316 C 217.028 -1.70347 -1.18308 0
M  V30 2317 C 217.453 -0.411887 -1.83535 0
M  V30 2318 O 216.811 0.630587 -1.6998 0
M  V30 2319 C 216.859 -2.83977 -2.22238 0
M  V30 2320 O 215.963 -2.495 -3.28365 0
M  V30 2321 H 215.304 -0.567103 -0.345384 0
M  V30 2322 H 217.834 -1.98879 -0.480445 0
M  V30 2323 H 217.844 -3.0887 -2.66577 0
M  V30 2324 H 216.519 -3.77685 -1.74146 0
M  V30 2325 H 215.096 -2.35277 -2.89308 0
M  V30 2326 N 217.281 0.66697 -1.42791 0
M  V30 2327 C 218.509 1.45505 -1.47091 0
M  V30 2328 C 218.924 1.8861 -0.0845873 0
M  V30 2329 O 218.281 1.58632 0.90234 0
M  V30 2330 C 218.332 2.69906 -2.40485 0
M  V30 2331 O 218.053 2.28608 -3.73725 0
M  V30 2332 C 219.554 3.63396 -2.53886 0
M  V30 2333 H 216.774 0.447459 -0.500022 0
M  V30 2334 H 219.318 0.818866 -1.8739 0
M  V30 2335 H 217.473 3.29696 -2.03419 0
M  V30 2336 H 217.887 3.08997 -4.23817 0
M  V30 2337 H 219.361 4.47387 -3.2334 0
M  V30 2338 H 219.838 4.09824 -1.57927 0
M  V30 2339 H 220.444 3.09495 -2.91706 0
M  V30 2340 N 218.759 1.29093 0.90403 0
M  V30 2341 C 219.689 1.16401 2.02418 0
M  V30 2342 C 220.67 0.0593085 1.69997 0
M  V30 2343 O 221.855 0.238021 1.92736 0
M  V30 2344 C 218.985 0.835233 3.37107 0
M  V30 2345 C 217.939 1.89578 3.83724 0
M  V30 2346 C 217.265 1.42041 5.15489 0
M  V30 2347 C 218.565 3.30394 4.04521 0
M  V30 2348 H 220.259 2.10109 2.13295 0
M  V30 2349 H 217.805 1.01157 1.02486 0
M  V30 2350 H 219.758 0.733169 4.14973 0
M  V30 2351 H 218.482 -0.137543 3.2631 0
M  V30 2352 H 217.141 1.98715 3.08071 0
M  V30 2353 H 216.789 0.436426 5.01103 0
M  V30 2354 H 216.489 2.12964 5.4765 0
M  V30 2355 H 218.013 1.33176 5.959 0
M  V30 2356 H 219.427 3.24123 4.72882 0
M  V30 2357 H 217.824 3.99237 4.48029 0
M  V30 2358 H 218.894 3.73692 3.09002 0
M  V30 2359 N 220.237 -1.11381 1.11499 0
M  V30 2360 C 221.483 -1.83403 0.865512 0
M  V30 2361 C 221.816 -1.84459 -0.607329 0
M  V30 2362 O 221.091 -1.29811 -1.44842 0
M  V30 2363 C 221.374 -3.30552 1.42855 0
M  V30 2364 C 221.227 -3.37886 2.96906 0
M  V30 2365 C 222.546 -4.26643 1.08 0
M  V30 2366 H 219.665 -0.665879 0.31587 0
M  V30 2367 H 222.307 -1.30601 1.37998 0
M  V30 2368 H 220.457 -3.75648 0.990985 0
M  V30 2369 H 222.129 -3.01343 3.49271 0
M  V30 2370 H 220.372 -2.78088 3.32941 0
M  V30 2371 H 221.043 -4.41458 3.31389 0
M  V30 2372 H 223.519 -3.89729 1.45775 0
M  V30 2373 H 222.395 -5.27986 1.50072 0
M  V30 2374 H 222.656 -4.42099 -0.00915037 0
M  V30 2375 N 221.715 -0.905404 -1.28997 0
M  V30 2376 C 223.131 -0.60233 -1.47798 0
M  V30 2377 C 223.331 0.854645 -1.82478 0
M  V30 2378 O 222.387 1.63439 -1.92468 0
M  V30 2379 C 223.7 -1.53306 -2.58685 0
M  V30 2380 C 225.248 -1.53887 -2.72558 0
M  V30 2381 C 225.723 -2.45602 -3.86579 0
M  V30 2382 N 227.214 -2.43681 -3.93921 0
M  V30 2383 C 227.949 -3.11347 -4.81509 0
M  V30 2384 N 227.445 -3.88313 -5.73746 0
M  V30 2385 N 229.238 -3.00476 -4.75048 0
M  V30 2386 H 221.389 -1.84765 -1.04764 0
M  V30 2387 H 223.652 -0.792025 -0.520961 0
M  V30 2388 H 223.358 -2.57141 -2.39941 0
M  V30 2389 H 223.232 -1.25787 -3.55609 0
M  V30 2390 H 225.619 -0.507941 -2.90696 0
M  V30 2391 H 225.7 -1.85447 -1.76191 0
M  V30 2392 H 225.344 -3.48792 -3.69197 0
M  V30 2393 H 225.274 -2.11349 -4.82327 0
M  V30 2394 H 227.765 -1.87767 -3.27951 0
M  V30 2395 H 228.078 -4.36985 -6.37389 0
M  V30 2396 H 226.423 -3.92419 -5.73614 0
M  V30 2397 H 229.614 -2.39858 -4.01977 0
M  V30 2398 H 229.787 -3.53485 -5.43095 0
M  V30 2399 N 223.193 1.4272 -0.668489 0
M  V30 2400 C 224.141 2.32586 0.0254857 0
M  V30 2401 C 225.135 1.49471 0.797176 0
M  V30 2402 O 226.341 1.65583 0.705853 0
M  V30 2403 H 222.716 0.751514 0.0270339 0
M  V30 2404 H 224.687 2.88823 -0.749936 0
M  V30 2405 C 223.436 3.3397 0.967427 0
M  V30 2406 H 222.759 3.97961 0.383048 0
M  V30 2407 H 224.199 3.9945 1.42181 0
M  V30 2408 C 222.658 2.65744 2.0708 0
M  V30 2409 O 223.188 2.48454 3.15648 0
M  V30 2410 N 221.394 2.2487 1.8407 0
M  V30 2411 H 220.941 2.39132 0.95778 0
M  V30 2412 H 220.899 1.79552 2.58086 0
M  V30 2413 N 224.671 0.411399 1.52136 0
M  V30 2414 C 225.581 -0.419774 2.30814 0
M  V30 2415 C 226.597 -1.0515 1.38634 0
M  V30 2416 O 227.773 -1.05252 1.71709 0
M  V30 2417 C 224.838 -1.52019 3.11594 0
M  V30 2418 C 223.899 -0.91129 4.19516 0
M  V30 2419 C 223.132 -1.95927 4.96436 0
M  V30 2420 O 223.355 -3.17775 4.73683 0
M  V30 2421 O 222.289 -1.56423 5.81219 0
M  V30 2422 H 226.115 0.221805 3.02889 0
M  V30 2423 H 223.7 0.174547 1.48377 0
M  V30 2424 H 225.582 -2.15898 3.61892 0
M  V30 2425 H 224.257 -2.14633 2.42311 0
M  V30 2426 H 223.164 -0.235157 3.7336 0
M  V30 2427 H 224.497 -0.32904 4.91099 0
M  V30 2428 N 226.149 -1.5696 0.141893 0
M  V30 2429 C 227.059 -2.20066 -0.812905 0
M  V30 2430 C 228.075 -1.18344 -1.27557 0
M  V30 2431 O 229.251 -1.50902 -1.33381 0
M  V30 2432 C 226.316 -2.80583 -2.03652 0
M  V30 2433 C 225.377 -3.97414 -1.62359 0
M  V30 2434 C 224.61 -4.55036 -2.78887 0
M  V30 2435 O 224.833 -4.11538 -3.94959 0
M  V30 2436 O 223.767 -5.45376 -2.54653 0
M  V30 2437 H 227.593 -3.02157 -0.305746 0
M  V30 2438 H 225.178 -1.49159 -0.0848799 0
M  V30 2439 H 227.06 -3.19067 -2.75272 0
M  V30 2440 H 225.735 -2.01508 -2.5333 0
M  V30 2441 H 224.642 -3.63656 -0.877775 0
M  V30 2442 H 225.975 -4.77994 -1.17401 0
M  V30 2443 N 227.627 0.131896 -1.57047 0
M  V30 2444 C 228.855 0.856461 -1.88341 0
M  V30 2445 C 229.27 1.74042 -0.731757 0
M  V30 2446 O 228.627 1.80051 0.297945 0
M  V30 2447 C 228.678 1.70064 -3.18999 0
M  V30 2448 O 228.399 0.852278 -4.2973 0
M  V30 2449 C 229.9 2.53148 -3.63911 0
M  V30 2450 H 227.12 0.246885 -0.62393 0
M  V30 2451 H 229.664 0.120152 -2.04147 0
M  V30 2452 H 227.819 2.38984 -3.04902 0
M  V30 2453 H 228.233 1.43329 -5.04537 0
M  V30 2454 H 229.707 3.07931 -4.58129 0
M  V30 2455 H 230.184 3.29901 -2.89935 0
M  V30 2456 H 230.79 1.89492 -3.80753 0
M  V30 2457 N 229.106 1.52395 0.401703 0
M  V30 2458 C 230.069 1.75636 1.47257 0
M  V30 2459 C 231.069 0.62628 1.48103 0
M  V30 2460 O 232.259 0.894227 1.49497 0
M  V30 2461 C 229.391 1.84553 2.86624 0
M  V30 2462 H 230.584 2.71241 1.27938 0
M  V30 2463 H 228.137 1.42923 0.632662 0
M  V30 2464 H 228.872 0.908882 3.11303 0
M  V30 2465 H 228.657 2.66715 2.87412 0
M  V30 2466 H 230.147 2.04251 3.64241 0
M  V30 2467 N 230.584 -0.659388 1.43143 0
M  V30 2468 C 231.514 -1.78422 1.50625 0
M  V30 2469 C 232.495 -1.66216 0.361443 0
M  V30 2470 O 233.68 -1.85404 0.577834 0
M  V30 2471 C 230.81 -3.16815 1.42287 0
M  V30 2472 C 229.764 -3.43777 2.54954 0
M  V30 2473 C 229.09 -4.81905 2.31671 0
M  V30 2474 C 230.39 -3.39134 3.97222 0
M  V30 2475 H 232.084 -1.72417 2.44771 0
M  V30 2476 H 229.63 -0.828084 1.17808 0
M  V30 2477 H 231.583 -3.95253 1.46127 0
M  V30 2478 H 230.307 -3.23534 0.446435 0
M  V30 2479 H 228.966 -2.67707 2.50457 0
M  V30 2480 H 228.614 -4.85294 1.32284 0
M  V30 2481 H 228.314 -5.00906 3.07192 0
M  V30 2482 H 229.838 -5.62609 2.37284 0
M  V30 2483 H 231.252 -4.07518 4.03239 0
M  V30 2484 H 229.649 -3.69671 4.72719 0
M  V30 2485 H 230.719 -2.37426 4.22797 0
M  V30 2486 N 232.062 -1.29571 -0.897171 0
M  V30 2487 C 233.311 -1.1706 -1.64256 0
M  V30 2488 C 233.624 0.276476 -1.93636 0
M  V30 2489 O 234.83 0.52294 -2.66416 0
M  V30 2490 C 233.286 -2.0475 -2.95982 0
M  V30 2491 C 232.894 -3.54295 -2.74187 0
M  V30 2492 C 234.638 -2.0097 -3.73914 0
M  V30 2493 C 232.545 -4.34081 -4.01656 0
M  V30 2494 H 231.475 -0.43452 -0.616205 0
M  V30 2495 H 234.126 -1.54229 -0.994268 0
M  V30 2496 H 232.508 -1.60452 -3.62038 0
M  V30 2497 H 233.682 -4.06662 -2.1671 0
M  V30 2498 H 231.997 -3.59773 -2.09648 0
M  V30 2499 H 234.594 -2.57838 -4.68427 0
M  V30 2500 H 234.937 -0.990273 -4.0435 0
M  V30 2501 H 235.47 -2.43325 -3.14703 0
M  V30 2502 H 232.209 -5.36671 -3.76384 0
M  V30 2503 H 231.729 -3.86483 -4.58684 0
M  V30 2504 H 233.408 -4.44877 -4.69781 0
M  V30 2505 N 233.54 1.10788 -1.12088 0
M  V30 2506 C 234.786 1.8313 -0.885148 0
M  V30 2507 C 235.141 1.8336 0.582839 0
M  V30 2508 O 234.434 1.28062 1.42516 0
M  V30 2509 C 234.628 3.29294 -1.38926 0
M  V30 2510 C 234.457 3.43302 -2.90472 0
M  V30 2511 C 233.227 3.55928 -3.58669 0
M  V30 2512 C 235.425 3.37014 -3.88492 0
M  V30 2513 N 233.407 3.58475 -4.98366 0
M  V30 2514 C 234.778 3.46263 -5.14298 0
M  V30 2515 C 236.833 3.20589 -3.80955 0
M  V30 2516 C 235.536 3.4078 -6.33452 0
M  V30 2517 C 237.562 3.16427 -4.99628 0
M  V30 2518 C 236.924 3.26253 -6.2429 0
M  V30 2519 H 233.023 0.685054 -0.377128 0
M  V30 2520 H 235.607 1.3251 -1.4265 0
M  V30 2521 H 233.778 3.78416 -0.874999 0
M  V30 2522 H 235.51 3.89578 -1.09596 0
M  V30 2523 H 232.265 3.58779 -3.09151 0
M  V30 2524 H 232.689 3.6337 -5.71219 0
M  V30 2525 H 237.331 3.11873 -2.85474 0
M  V30 2526 H 235.049 3.48263 -7.29204 0
M  V30 2527 H 238.635 3.04874 -4.95523 0
M  V30 2528 H 237.515 3.2303 -7.14578 0
M  V30 2529 N 235.018 0.912232 1.28515 0
M  V30 2530 C 235.965 0.397954 2.27343 0
M  V30 2531 C 236.935 -0.526766 1.57526 0
M  V30 2532 O 238.12 -0.449292 1.85435 0
M  V30 2533 C 235.26 -0.357263 3.43246 0
M  V30 2534 C 234.373 0.599788 4.27816 0
M  V30 2535 C 233.508 -0.173725 5.30916 0
M  V30 2536 C 232.547 0.777039 6.07148 0
M  V30 2537 N 231.684 0.0371398 7.0209 0
M  V30 2538 H 236.524 1.24577 2.70711 0
M  V30 2539 H 234.061 0.625612 1.33133 0
M  V30 2540 H 236.019 -0.8113 4.09236 0
M  V30 2541 H 234.649 -1.16943 3.00872 0
M  V30 2542 H 233.701 1.17235 3.61884 0
M  V30 2543 H 235.013 1.32704 4.80823 0
M  V30 2544 H 234.167 -0.688394 6.02782 0
M  V30 2545 H 232.906 -0.934041 4.78672 0
M  V30 2546 H 231.911 1.3031 5.34134 0
M  V30 2547 H 233.136 1.53689 6.61481 0
M  V30 2548 H 231.082 -0.705213 6.52198 0
M  V30 2549 H 230.999 0.704249 7.52713 0
M  V30 2550 H 232.267 -0.457383 7.78157 0
M  V30 2551 N 236.496 -1.42363 0.676048 0
M  V30 2552 C 237.426 -2.33497 0.0124832 0
M  V30 2553 C 238.407 -1.50748 -0.787981 0
M  V30 2554 O 239.592 -1.79346 -0.744884 0
M  V30 2555 C 236.722 -3.34377 -0.938582 0
M  V30 2556 C 235.676 -4.27289 -0.246622 0
M  V30 2557 C 235.002 -5.18386 -1.31071 0
M  V30 2558 C 236.302 -5.14916 0.875125 0
M  V30 2559 H 237.996 -2.89233 0.773593 0
M  V30 2560 H 235.542 -1.39073 0.37346 0
M  V30 2561 H 237.495 -3.97044 -1.41188 0
M  V30 2562 H 236.219 -2.76947 -1.73113 0
M  V30 2563 H 234.878 -3.66018 0.206456 0
M  V30 2564 H 234.526 -4.57282 -2.09528 0
M  V30 2565 H 234.226 -5.81378 -0.852839 0
M  V30 2566 H 235.75 -5.83929 -1.78492 0
M  V30 2567 H 237.164 -5.71262 0.482983 0
M  V30 2568 H 235.561 -5.86747 1.25887 0
M  V30 2569 H 236.631 -4.53242 1.72335 0
M  V30 2570 N 237.974 -0.419461 -1.51915 0
M  V30 2571 C 239.22 0.153166 -2.02221 0
M  V30 2572 C 239.553 1.43907 -1.30401 0
M  V30 2573 O 238.828 1.90055 -0.413438 0
M  V30 2574 C 239.111 0.390291 -3.57979 0
M  V30 2575 C 238.964 -0.913014 -4.40436 0
M  V30 2576 C 240.283 1.16794 -4.2432 0
M  V30 2577 H 237.402 0.0541924 -0.735005 0
M  V30 2578 H 240.044 -0.554955 -1.81715 0
M  V30 2579 H 238.194 0.993491 -3.75582 0
M  V30 2580 H 239.866 -1.54882 -4.34522 0
M  V30 2581 H 238.109 -1.52168 -4.06236 0
M  V30 2582 H 238.78 -0.701361 -5.47526 0
M  V30 2583 H 241.256 0.657161 -4.10878 0
M  V30 2584 H 240.132 1.3026 -5.3322 0
M  V30 2585 H 240.393 2.19132 -3.83971 0
M  V30 2586 N 239.452 1.56882 -0.150215 0
M  V30 2587 C 240.729 1.87844 0.545327 0
M  V30 2588 C 241.109 1.0567 1.82749 0
M  V30 2589 O 240.457 0.144442 2.28043 0
M  V30 2590 C 240.667 3.39526 0.80767 0
M  V30 2591 C 242.015 4.08814 1.14703 0
M  V30 2592 O 243.039 3.44723 0.896917 0
M  V30 2593 O 241.898 5.22004 1.61784 0
M  V30 2594 H 238.992 0.778677 0.278553 0
M  V30 2595 H 241.538 1.68666 -0.187068 0
M  V30 2596 H 240.31 3.91173 -0.0996096 0
M  V30 2597 H 239.933 3.64243 1.59413 0
M  V30 2598 N 240.93 -0.123565 1.57115 0
M  V30 2599 C 241.84 -1.17074 2.033 0
M  V30 2600 C 242.856 -1.4561 0.952559 0
M  V30 2601 O 244.032 -1.56817 1.26374 0
M  V30 2602 C 241.097 -2.47857 2.42421 0
M  V30 2603 C 240.158 -2.26758 3.64526 0
M  V30 2604 C 239.391 -3.51305 4.01771 0
M  V30 2605 O 239.614 -4.5843 3.39409 0
M  V30 2606 O 238.548 -3.42578 4.94898 0
M  V30 2607 H 242.374 -0.808555 2.92739 0
M  V30 2608 H 239.959 -0.334027 1.45618 0
M  V30 2609 H 241.841 -3.2492 2.68338 0
M  V30 2610 H 240.516 -2.83558 1.5613 0
M  V30 2611 H 239.423 -1.47569 3.43765 0
M  V30 2612 H 240.756 -1.95963 4.51508 0
M  V30 2613 N 242.408 -1.52605 -0.393616 0
M  V30 2614 C 243.371 -1.76415 -1.46323 0
M  V30 2615 C 244.371 -0.634126 -1.47768 0
M  V30 2616 O 245.561 -0.902142 -1.4902 0
M  V30 2617 C 242.693 -1.8607 -2.85641 0
M  V30 2618 H 243.886 -2.71916 -1.26498 0
M  V30 2619 H 241.439 -1.43257 -0.625073 0
M  V30 2620 H 242.174 -0.925378 -3.10817 0
M  V30 2621 H 241.959 -2.68235 -2.85993 0
M  V30 2622 H 243.449 -2.06179 -3.63153 0
M  V30 2623 N 243.887 0.651787 -1.4349 0
M  V30 2624 C 244.797 1.79368 -1.5121 0
M  V30 2625 C 245.813 1.69361 -0.399093 0
M  V30 2626 O 246.989 1.90505 -0.653431 0
M  V30 2627 C 244.054 3.15653 -1.43401 0
M  V30 2628 C 243.115 3.37446 -2.65384 0
M  V30 2629 C 242.348 4.67229 -2.57939 0
M  V30 2630 O 242.571 5.46676 -1.62792 0
M  V30 2631 O 241.505 4.90773 -3.48462 0
M  V30 2632 H 245.331 1.7581 -2.47638 0
M  V30 2633 H 242.916 0.810447 -1.25507 0
M  V30 2634 H 244.798 3.96935 -1.41494 0
M  V30 2635 H 243.473 3.19798 -0.501085 0
M  V30 2636 H 242.38 2.55923 -2.72863 0
M  V30 2637 H 243.713 3.38148 -3.57654 0
M  V30 2638 N 245.365 1.30045 0.890287 0
M  V30 2639 C 246.275 1.17885 2.02831 0
M  V30 2640 C 247.291 0.0999609 1.73713 0
M  V30 2641 O 248.467 0.313867 1.98939 0
M  V30 2642 C 245.532 0.866079 3.35708 0
M  V30 2643 C 244.593 2.02979 3.78283 0
M  V30 2644 C 243.826 1.73184 5.0482 0
M  V30 2645 O 244.049 0.657237 5.66601 0
M  V30 2646 O 242.983 2.58267 5.43674 0
M  V30 2647 H 246.809 2.13474 2.16015 0
M  V30 2648 H 244.394 1.09587 1.01543 0
M  V30 2649 H 246.276 0.706623 4.15433 0
M  V30 2650 H 244.951 -0.0599443 3.23644 0
M  V30 2651 H 243.858 2.24454 2.99285 0
M  V30 2652 H 245.191 2.93734 3.94944 0
M  V30 2653 N 246.843 -1.10192 1.12674 0
M  V30 2654 C 248.089 -1.82658 0.894847 0
M  V30 2655 C 248.444 -1.83666 -0.573107 0
M  V30 2656 O 247.737 -1.28816 -1.41835 0
M  V30 2657 C 247.931 -3.28552 1.4067 0
M  V30 2658 C 247.76 -3.41756 2.92289 0
M  V30 2659 C 246.53 -3.54021 3.60551 0
M  V30 2660 C 248.728 -3.34949 3.90274 0
M  V30 2661 N 246.71 -3.55827 5.0026 0
M  V30 2662 C 248.081 -3.43531 5.16127 0
M  V30 2663 C 250.136 -3.18565 3.8265 0
M  V30 2664 C 248.839 -3.37416 6.3525 0
M  V30 2665 C 250.865 -3.13772 5.01299 0
M  V30 2666 C 250.227 -3.22938 6.26012 0
M  V30 2667 H 246.326 -0.683044 0.380756 0
M  V30 2668 H 248.91 -1.31752 1.43351 0
M  V30 2669 H 247.081 -3.77946 0.895055 0
M  V30 2670 H 248.813 -3.88991 1.11661 0
M  V30 2671 H 245.568 -3.57135 3.1105 0
M  V30 2672 H 245.992 -3.60335 5.73138 0
M  V30 2673 H 250.634 -3.10354 2.87124 0
M  V30 2674 H 248.352 -3.44391 7.3104 0
M  V30 2675 H 251.938 -3.02242 4.97133 0
M  V30 2676 H 250.818 -3.19235 7.16281 0
M  V30 2677 N 248.321 -0.919034 -1.28029 0
M  V30 2678 C 249.251 -0.428581 -2.29533 0
M  V30 2679 C 250.232 0.50659 -1.62381 0
M  V30 2680 O 251.417 0.413195 -1.89753 0
M  V30 2681 C 248.547 0.327388 -3.45753 0
M  V30 2682 C 247.501 -0.519137 -4.2484 0
M  V30 2683 C 246.827 0.365486 -5.33449 0
M  V30 2684 C 248.127 -1.77914 -4.91064 0
M  V30 2685 H 249.821 -1.27687 -2.70807 0
M  V30 2686 H 247.367 -0.615428 -1.30186 0
M  V30 2687 H 249.32 0.681378 -4.15855 0
M  V30 2688 H 248.044 1.20963 -3.03374 0
M  V30 2689 H 246.703 -0.855717 -3.56473 0
M  V30 2690 H 246.351 1.24642 -4.87312 0
M  V30 2691 H 246.051 -0.197356 -5.87268 0
M  V30 2692 H 247.575 0.715241 -6.06396 0
M  V30 2693 H 248.989 -1.49374 -5.53498 0
M  V30 2694 H 247.386 -2.2848 -5.54903 0
M  V30 2695 H 248.456 -2.50382 -4.15255 0
M  V30 2696 N 249.799 1.42003 -0.683588 0
M  V30 2697 C 250.747 2.326 0.000815408 0
M  V30 2698 C 251.741 1.50308 0.781278 0
M  V30 2699 O 252.947 1.66322 0.688251 0
M  V30 2700 H 249.322 0.751758 0.0190616 0
M  V30 2701 H 251.293 2.88011 -0.780528 0
M  V30 2702 C 250.042 3.34978 0.93195 0
M  V30 2703 H 249.365 3.98345 0.340817 0
M  V30 2704 H 250.805 4.00936 1.37936 0
M  V30 2705 C 249.264 2.67925 2.04249 0
M  V30 2706 O 249.794 2.51788 3.12995 0
M  V30 2707 N 248 2.2681 1.81675 0
M  V30 2708 H 247.547 2.40135 0.932363 0
M  V30 2709 H 247.505 1.8228 2.56167 0
M  V30 2710 N 251.277 0.427512 1.51691 0
M  V30 2711 C 252.505 -0.141191 2.06418 0
M  V30 2712 C 252.92 -1.37303 1.29589 0
M  V30 2713 O 252.277 -1.79059 0.352732 0
M  V30 2714 C 252.328 -0.473266 3.58389 0
M  V30 2715 O 252.049 0.709673 4.32314 0
M  V30 2716 C 253.55 -1.09371 4.29596 0
M  V30 2717 H 250.77 -0.0122747 0.670888 0
M  V30 2718 H 253.314 0.603764 1.95384 0
M  V30 2719 H 251.469 -1.16812 3.69369 0
M  V30 2720 H 251.883 0.42807 5.2275 0
M  V30 2721 H 253.357 -1.27613 5.37046 0
M  V30 2722 H 253.834 -2.072 3.87253 0
M  V30 2723 H 254.44 -0.43853 4.23033 0
M  V30 2724 N 252.755 -1.56801 0.158532 0
M  V30 2725 C 253.705 -2.13923 -0.788738 0
M  V30 2726 C 254.689 -1.07006 -1.2016 0
M  V30 2727 O 255.881 -1.33159 -1.1661 0
M  V30 2728 C 253.01 -2.77348 -2.02319 0
M  V30 2729 C 252.096 -3.91404 -1.6329 0
M  V30 2730 N 252.487 -4.9677 -0.951463 0
M  V30 2731 C 250.785 -4.02326 -1.92482 0
M  V30 2732 C 251.486 -5.76698 -0.761221 0
M  V30 2733 N 250.462 -5.27859 -1.29869 0
M  V30 2734 H 254.264 -2.92757 -0.258995 0
M  V30 2735 H 251.778 -1.62344 -0.0426055 0
M  V30 2736 H 253.775 -3.16639 -2.71192 0
M  V30 2737 H 252.435 -1.99991 -2.558 0
M  V30 2738 H 253.446 -5.14284 -0.610928 0
M  V30 2739 H 250.123 -3.36059 -2.47732 0
M  V30 2740 H 251.513 -6.71529 -0.223284 0
M  V30 2741 N 254.233 0.115231 -1.57178 0
M  V30 2742 C 255.461 0.836437 -1.89239 0
M  V30 2743 C 255.876 1.73256 -0.750175 0
M  V30 2744 O 255.233 1.80357 0.278832 0
M  V30 2745 C 255.284 1.66671 -3.20785 0
M  V30 2746 O 255.005 0.806652 -4.3061 0
M  V30 2747 C 256.506 2.49274 -3.66575 0
M  V30 2748 H 253.726 0.240253 -0.626514 0
M  V30 2749 H 256.27 0.0984932 -2.04263 0
M  V30 2750 H 254.425 2.35737 -3.0742 0
M  V30 2751 H 254.839 1.37969 -5.06028 0
M  V30 2752 H 256.313 3.03055 -4.6137 0
M  V30 2753 H 256.79 3.26807 -2.93417 0
M  V30 2754 H 257.396 1.85443 -3.82741 0
M  V30 2755 N 255.711 1.52812 0.385517 0
M  V30 2756 C 256.941 1.71658 1.14966 0
M  V30 2757 C 257.349 0.436253 1.84102 0
M  V30 2758 O 256.692 -0.599313 1.73649 0
M  V30 2759 C 256.754 2.81309 2.23843 0
M  V30 2760 C 256.418 4.22313 1.74644 0
M  V30 2761 C 257.415 5.05352 1.22129 0
M  V30 2762 C 255.1 4.68648 1.80761 0
M  V30 2763 C 257.094 6.32807 0.763838 0
M  V30 2764 C 254.781 5.96086 1.34627 0
M  V30 2765 C 255.779 6.77996 0.825264 0
M  V30 2766 O 255.467 8.03045 0.370669 0
M  V30 2767 H 255.199 0.578022 0.350523 0
M  V30 2768 H 257.753 2.00263 0.456509 0
M  V30 2769 H 255.983 2.48133 2.96592 0
M  V30 2770 H 257.672 2.88524 2.85497 0
M  V30 2771 H 258.438 4.70736 1.16758 0
M  V30 2772 H 254.317 4.04979 2.20256 0
M  V30 2773 H 257.861 6.96689 0.356494 0
M  V30 2774 H 253.758 6.30205 1.39686 0
M  V30 2775 H 254.526 8.17021 0.491829 0
M  V30 2776 N 257.189 -0.644168 1.43834 0
M  V30 2777 C 258.099 -1.78563 1.52159 0
M  V30 2778 C 259.115 -1.69147 0.408069 0
M  V30 2779 O 260.291 -1.90156 0.663524 0
M  V30 2780 C 257.356 -3.14888 1.45073 0
M  V30 2781 C 256.417 -3.36034 2.6717 0
M  V30 2782 C 255.65 -4.65855 2.60413 0
M  V30 2783 O 255.873 -5.45805 1.65689 0
M  V30 2784 O 254.807 -4.88918 3.5106 0
M  V30 2785 H 258.633 -1.74494 2.48567 0
M  V30 2786 H 256.218 -0.80378 1.25935 0
M  V30 2787 H 258.1 -3.96179 1.43597 0
M  V30 2788 H 256.775 -3.19528 0.518037 0
M  V30 2789 H 255.682 -2.54472 2.74217 0
M  V30 2790 H 257.015 -3.36247 3.59442 0
M  V30 2791 N 258.668 -1.30515 -0.883378 0
M  V30 2792 C 259.896 -1.22359 -1.66841 0
M  V30 2793 C 260.311 0.213296 -1.87591 0
M  V30 2794 O 259.668 1.14075 -1.42454 0
M  V30 2795 C 259.719 -1.95011 -3.04389 0
M  V30 2796 O 259.44 -3.3309 -2.84575 0
M  V30 2797 C 260.941 -1.93532 -3.98824 0
M  V30 2798 H 258.161 -0.423371 -0.520575 0
M  V30 2799 H 260.705 -1.72167 -1.10357 0
M  V30 2800 H 258.86 -1.48997 -3.57601 0
M  V30 2801 H 259.274 -3.69907 -3.71846 0
M  V30 2802 H 260.748 -2.48902 -4.92699 0
M  V30 2803 H 261.225 -0.914627 -4.29571 0
M  V30 2804 H 261.831 -2.39364 -3.51547 0
M  V30 2805 N 260.146 1.09593 -1.13257 0
M  V30 2806 C 261.557 1.63229 -0.906274 0
M  V30 2807 C 261.908 1.8811 0.557578 0
M  V30 2808 O 261.033 1.62953 1.42391 0
M  V30 2809 C 261.628 2.96535 -1.63867 0
M  V30 2810 C 260.187 3.47003 -1.45828 0
M  V30 2811 C 259.334 2.2145 -1.66898 0
M  V30 2812 H 262.285 0.92978 -1.28611 0
M  V30 2813 H 262.306 3.64411 -1.09476 0
M  V30 2814 H 261.818 2.78394 -2.70404 0
M  V30 2815 H 259.919 3.70272 -0.415848 0
M  V30 2816 H 260.032 4.24551 -2.2202 0
M  V30 2817 H 258.396 2.30022 -1.09371 0
M  V30 2818 H 259.179 2.0583 -2.74752 0
M  V30 2819 N 261.624 0.925811 1.2754 0
M  V30 2820 C 262.873 0.561084 1.93739 0
M  V30 2821 C 263.186 -0.901685 1.73577 0
M  V30 2822 O 264.392 -1.37511 2.34101 0
M  V30 2823 C 262.848 0.952668 3.47062 0
M  V30 2824 C 262.456 2.43599 3.75983 0
M  V30 2825 C 264.2 0.659103 4.19352 0
M  V30 2826 C 262.107 2.76707 5.22673 0
M  V30 2827 H 261.037 0.206122 0.725279 0
M  V30 2828 H 263.688 1.12637 1.44863 0
M  V30 2829 H 262.07 0.316053 3.94737 0
M  V30 2830 H 263.244 3.12035 3.39073 0
M  V30 2831 H 261.559 2.70125 3.16893 0
M  V30 2832 H 264.156 0.882985 5.27359 0
M  V30 2833 H 264.499 -0.403607 4.14339 0
M  V30 2834 H 265.032 1.25473 3.77494 0
M  V30 2835 H 261.771 3.8188 5.32774 0
M  V30 2836 H 261.291 2.12919 5.60737 0
M  V30 2837 H 262.97 2.6435 5.90532 0
M  V30 2838 N 263.102 -1.41638 0.69111 0
M  V30 2839 C 264.032 -2.3347 0.037248 0
M  V30 2840 C 265.013 -1.51575 -0.771947 0
M  V30 2841 O 266.198 -1.80126 -0.72582 0
M  V30 2842 C 263.328 -3.35354 -0.903064 0
M  V30 2843 C 262.282 -4.27526 -0.201288 0
M  V30 2844 C 261.608 -5.19747 -1.25565 0
M  V30 2845 C 262.908 -5.13959 0.929689 0
M  V30 2846 H 264.602 -2.88397 0.804227 0
M  V30 2847 H 262.148 -1.38669 0.388189 0
M  V30 2848 H 264.101 -3.98519 -1.36969 0
M  V30 2849 H 262.825 -2.78767 -1.70166 0
M  V30 2850 H 261.484 -3.65779 0.245265 0
M  V30 2851 H 261.132 -4.59479 -2.04666 0
M  V30 2852 H 260.832 -5.8225 -0.791128 0
M  V30 2853 H 262.356 -5.85789 -1.72288 0
M  V30 2854 H 263.77 -5.70718 0.543546 0
M  V30 2855 H 262.167 -5.85379 1.32103 0
M  V30 2856 H 263.237 -4.51389 1.77133 0
M  V30 2857 N 264.58 -0.43555 -1.51462 0
M  V30 2858 C 265.527 0.376797 -2.27703 0
M  V30 2859 C 266.497 1.01838 -1.31219 0
M  V30 2860 O 267.682 1.03762 -1.60119 0
M  V30 2861 C 264.822 1.47301 -3.12084 0
M  V30 2862 C 263.935 0.849744 -4.2356 0
M  V30 2863 C 263.07 1.92086 -4.95254 0
M  V30 2864 C 262.109 1.27593 -5.98654 0
M  V30 2865 N 261.246 2.28833 -6.63762 0
M  V30 2866 H 266.086 -0.279734 -2.96684 0
M  V30 2867 H 263.623 -0.149795 -1.46335 0
M  V30 2868 H 265.581 2.11984 -3.59331 0
M  V30 2869 H 264.211 2.0992 -2.45221 0
M  V30 2870 H 263.263 0.0912529 -3.80291 0
M  V30 2871 H 264.575 0.338878 -4.97648 0
M  V30 2872 H 263.729 2.64435 -5.46039 0
M  V30 2873 H 262.468 2.46545 -4.20793 0
M  V30 2874 H 261.473 0.537893 -5.47162 0
M  V30 2875 H 262.698 0.738693 -6.7507 0
M  V30 2876 H 260.644 2.82375 -5.92115 0
M  V30 2877 H 260.561 1.82632 -7.33608 0
M  V30 2878 H 261.829 3.00671 -7.19178 0
M  V30 2879 N 266.058 1.56714 -0.166846 0
M  V30 2880 C 267.304 1.97813 0.473473 0
M  V30 2881 C 267.659 1.05095 1.61161 0
M  V30 2882 O 266.952 0.0897541 1.9139 0
M  V30 2883 C 267.146 3.42889 1.00806 0
M  V30 2884 C 266.975 4.49635 -0.0767392 0
M  V30 2885 C 265.745 5.02566 -0.524894 0
M  V30 2886 C 267.943 5.06793 -0.875504 0
M  V30 2887 N 265.925 5.9294 -1.59047 0
M  V30 2888 C 267.296 5.93565 -1.79111 0
M  V30 2889 C 269.351 4.89306 -0.921083 0
M  V30 2890 C 268.054 6.64721 -2.74843 0
M  V30 2891 C 270.08 5.61179 -1.86633 0
M  V30 2892 C 269.442 6.47675 -2.76942 0
M  V30 2893 H 265.541 0.769093 0.141489 0
M  V30 2894 H 268.125 1.92874 -0.266031 0
M  V30 2895 H 266.296 3.48382 1.7171 0
M  V30 2896 H 268.028 3.71008 1.61664 0
M  V30 2897 H 264.783 4.73439 -0.123432 0
M  V30 2898 H 265.207 6.42831 -2.12361 0
M  V30 2899 H 269.849 4.22136 -0.23692 0
M  V30 2900 H 267.567 7.31107 -3.44249 0
M  V30 2901 H 271.153 5.49636 -1.90764 0
M  V30 2902 H 270.033 7.02313 -3.48893 0
M  V30 2903 N 267.536 -0.106894 1.57237 0
M  V30 2904 C 268.468 -1.15646 1.97885 0
M  V30 2905 C 269.481 -1.36981 0.879779 0
M  V30 2906 O 270.67 -1.35841 1.15799 0
M  V30 2907 C 267.77 -2.51425 2.27241 0
M  V30 2908 C 266.943 -2.50529 3.58545 0
M  V30 2909 C 266.002 -3.68145 3.75973 0
M  V30 2910 O 265.028 -3.51176 4.47956 0
M  V30 2911 N 266.23 -4.87177 3.15656 0
M  V30 2912 H 268.995 -0.81059 2.8853 0
M  V30 2913 H 266.556 -0.296024 1.59171 0
M  V30 2914 H 268.548 -3.28689 2.36105 0
M  V30 2915 H 267.118 -2.78147 1.42663 0
M  V30 2916 H 266.338 -1.58894 3.60758 0
M  V30 2917 H 267.626 -2.46997 4.44826 0
M  V30 2918 H 267.024 -5.03868 2.57165 0
M  V30 2919 H 265.581 -5.62075 3.30023 0
M  V30 2920 N 269.014 -1.53014 -0.377408 0
M  V30 2921 C 270.242 -1.72515 -1.14219 0
M  V30 2922 C 270.657 -0.448735 -1.8339 0
M  V30 2923 O 270.014 0.577592 -1.73119 0
M  V30 2924 C 270.065 -2.8826 -2.18148 0
M  V30 2925 O 269.786 -4.10962 -1.51795 0
M  V30 2926 C 271.287 -3.19536 -3.07264 0
M  V30 2927 H 268.507 -0.577301 -0.342001 0
M  V30 2928 H 271.051 -1.99712 -0.439935 0
M  V30 2929 H 269.206 -2.63492 -2.83991 0
M  V30 2930 H 269.62 -4.75693 -2.20945 0
M  V30 2931 H 271.094 -4.03959 -3.76193 0
M  V30 2932 H 271.571 -2.34403 -3.71419 0
M  V30 2933 H 272.177 -3.46186 -2.47053 0
M  V30 2934 N 270.492 0.636531 -1.44174 0
M  V30 2935 C 271.769 1.39463 -1.37148 0
M  V30 2936 C 272.149 2.11082 -0.027507 0
M  V30 2937 O 271.497 2.05954 0.989716 0
M  V30 2938 C 271.707 2.36552 -2.56601 0
M  V30 2939 C 273.055 3.00048 -3.00427 0
M  V30 2940 O 274.079 2.46878 -2.56767 0
M  V30 2941 O 272.938 3.96488 -3.76111 0
M  V30 2942 H 270.032 0.623903 -0.542839 0
M  V30 2943 H 272.578 0.662039 -1.56253 0
M  V30 2944 H 271.35 1.82692 -3.46034 0
M  V30 2945 H 270.973 3.17236 -2.39681 0
M  V30 2946 N 271.97 1.30982 0.876444 0
M  V30 2947 C 272.917 1.18085 1.98304 0
M  V30 2948 C 273.887 0.0682263 1.6596 0
M  V30 2949 O 275.072 0.239937 1.89285 0
M  V30 2950 C 272.212 0.887475 3.33493 0
M  V30 2951 C 271.325 2.08281 3.78475 0
M  V30 2952 C 270.46 1.72678 5.0235 0
M  V30 2953 C 269.499 2.88657 5.39762 0
M  V30 2954 N 268.636 2.53292 6.54819 0
M  V30 2955 H 273.476 2.1275 2.08666 0
M  V30 2956 H 271.013 1.05839 1.02159 0
M  V30 2957 H 272.971 0.697961 4.1132 0
M  V30 2958 H 271.601 -0.022315 3.22792 0
M  V30 2959 H 270.653 2.3833 2.96484 0
M  V30 2960 H 271.965 2.95108 4.02135 0
M  V30 2961 H 271.119 1.50151 5.87826 0
M  V30 2962 H 269.858 0.830327 4.8058 0
M  V30 2963 H 268.863 3.1184 4.52809 0
M  V30 2964 H 270.088 3.79002 5.63502 0
M  V30 2965 H 268.034 1.66163 6.34607 0
M  V30 2966 H 267.951 3.3365 6.7839 0
M  V30 2967 H 269.219 2.34143 7.43503 0
M  V30 2968 N 273.449 -1.08991 1.13837 0
M  V30 2969 C 274.695 -1.81699 0.91417 0
M  V30 2970 C 275.05 -1.84264 -0.553594 0
M  V30 2971 O 274.343 -1.30313 -1.4046 0
M  V30 2972 C 274.537 -3.27042 1.44147 0
M  V30 2973 C 274.366 -3.38637 2.95897 0
M  V30 2974 C 273.136 -3.50177 3.64286 0
M  V30 2975 C 275.334 -3.30791 3.93804 0
M  V30 2976 N 273.316 -3.50501 5.04006 0
M  V30 2977 C 274.687 -3.38037 5.19741 0
M  V30 2978 C 276.742 -3.14488 3.86007 0
M  V30 2979 C 275.445 -3.30659 6.38793 0
M  V30 2980 C 277.471 -3.08438 5.04599 0
M  V30 2981 C 276.833 -3.1628 6.29402 0
M  V30 2982 H 272.932 -0.678967 0.387979 0
M  V30 2983 H 275.516 -1.30224 1.4474 0
M  V30 2984 H 273.687 -3.76976 0.935091 0
M  V30 2985 H 275.419 -3.87785 1.1578 0
M  V30 2986 H 272.174 -3.53815 3.1482 0
M  V30 2987 H 272.598 -3.54236 5.76928 0
M  V30 2988 H 277.24 -3.07291 2.90399 0
M  V30 2989 H 274.958 -3.36618 7.34652 0
M  V30 2990 H 278.544 -2.96952 5.0031 0
M  V30 2991 H 277.424 -3.1162 7.19627 0
M  V30 2992 N 274.927 -0.932562 -1.27047 0
M  V30 2993 C 276.175 -0.574422 -1.93765 0
M  V30 2994 C 276.496 0.887993 -1.73608 0
M  V30 2995 O 275.766 1.62999 -1.08665 0
M  V30 2996 H 274.346 -0.209451 -0.717035 0
M  V30 2997 H 277.008 -1.18601 -1.5466 0
M  V30 2998 H 276.104 -0.784841 -3.02071 0
M  V30 2999 N 276.405 1.4127 -0.698611 0
M  V30 3000 C 277.315 2.34573 -0.0357891 0
M  V30 3001 C 278.331 1.56393 0.762701 0
M  V30 3002 O 279.507 1.8886 0.699564 0
M  V30 3003 C 276.572 3.35159 0.887089 0
M  V30 3004 C 275.633 4.29225 0.0804634 0
M  V30 3005 C 274.866 5.25006 0.959387 0
M  V30 3006 O 275.089 5.26314 2.19886 0
M  V30 3007 O 274.023 6.00519 0.407439 0
M  V30 3008 H 277.849 2.92838 -0.804957 0
M  V30 3009 H 275.434 1.42175 -0.458966 0
M  V30 3010 H 277.316 3.9689 1.41621 0
M  V30 3011 H 275.991 2.79333 1.6357 0
M  V30 3012 H 274.898 3.70833 -0.493328 0
M  V30 3013 H 276.231 4.88157 -0.629547 0
M  V30 3014 N 277.883 0.443576 1.51229 0
M  V30 3015 C 279.132 -0.122332 2.01329 0
M  V30 3016 C 279.445 -1.43237 1.33201 0
M  V30 3017 O 280.651 -2.0816 1.74304 0
M  V30 3018 C 279.107 -0.268551 3.58897 0
M  V30 3019 C 278.715 1.03142 4.35965 0
M  V30 3020 C 280.459 -0.787894 4.17124 0
M  V30 3021 C 278.366 0.850504 5.85252 0
M  V30 3022 H 277.296 -0.0494929 0.752374 0
M  V30 3023 H 279.947 0.574289 1.74282 0
M  V30 3024 H 278.329 -1.02832 3.82415 0
M  V30 3025 H 279.503 1.80001 4.24189 0
M  V30 3026 H 277.818 1.47977 3.89219 0
M  V30 3027 H 280.415 -0.939841 5.26375 0
M  V30 3028 H 280.758 -1.77201 3.76703 0
M  V30 3029 H 281.291 -0.0862669 3.97706 0
M  V30 3030 H 278.03 1.80718 6.30096 0
M  V30 3031 H 277.55 0.121825 5.99676 0
M  V30 3032 H 279.229 0.506163 6.45017 0
M  V30 3033 N 279.361 -1.56624 0.175154 0
M  V30 3034 C 280.308 -2.18149 -0.753634 0
M  V30 3035 C 281.278 -1.12265 -1.22417 0
M  V30 3036 O 282.463 -1.40432 -1.29165 0
M  V30 3037 C 279.603 -2.82933 -1.97592 0
M  V30 3038 C 278.716 -4.03289 -1.5486 0
M  V30 3039 C 277.851 -4.55988 -2.72485 0
M  V30 3040 C 276.89 -5.68746 -2.26262 0
M  V30 3041 N 276.027 -6.15938 -3.36994 0
M  V30 3042 H 280.867 -2.9717 -0.222195 0
M  V30 3043 H 278.404 -1.46774 -0.0979422 0
M  V30 3044 H 280.362 -3.18653 -2.69288 0
M  V30 3045 H 278.992 -2.06509 -2.481 0
M  V30 3046 H 278.044 -3.73364 -0.728246 0
M  V30 3047 H 279.356 -4.849 -1.16933 0
M  V30 3048 H 278.51 -4.9391 -3.52332 0
M  V30 3049 H 277.249 -3.73443 -3.13674 0
M  V30 3050 H 276.254 -5.30372 -1.44863 0
M  V30 3051 H 277.479 -6.53095 -1.86127 0
M  V30 3052 H 275.425 -5.36321 -3.77751 0
M  V30 3053 H 275.342 -6.92548 -3.03172 0
M  V30 3054 H 276.61 -6.58511 -4.17114 0
M  V30 3055 N 280.839 0.0985539 -1.57292 0
M  V30 3056 C 281.802 1.10402 -2.00858 0
M  V30 3057 C 282.802 1.33146 -0.901593 0
M  V30 3058 O 283.992 1.29318 -1.16716 0
M  V30 3059 C 281.124 2.45394 -2.36632 0
M  V30 3060 H 282.317 0.729099 -2.90902 0
M  V30 3061 H 279.87 0.343495 -1.52479 0
M  V30 3062 H 280.605 2.87769 -1.49531 0
M  V30 3063 H 280.39 2.30235 -3.17387 0
M  V30 3064 H 281.88 3.17718 -2.71007 0
M  V30 3065 N 282.317 1.53212 0.369288 0
M  V30 3066 C 283.594 1.59815 1.12776 0
M  V30 3067 C 283.974 0.403402 2.0721 0
M  V30 3068 O 283.322 -0.606667 2.20299 0
M  V30 3069 C 283.532 2.94664 1.87013 0
M  V30 3070 C 284.88 3.49109 2.41677 0
M  V30 3071 O 285.904 2.96669 1.97144 0
M  V30 3072 O 284.763 4.40775 3.23079 0
M  V30 3073 H 281.857 0.645376 0.517125 0
M  V30 3074 H 284.403 1.65553 0.37285 0
M  V30 3075 H 283.175 3.73061 1.18071 0
M  V30 3076 H 282.798 2.92401 2.69421 0
M  V30 3077 N 283.795 -0.628877 1.44509 0
M  V30 3078 C 285.025 -1.41349 1.50678 0
M  V30 3079 C 285.433 -1.88745 0.131075 0
M  V30 3080 O 284.776 -1.61592 -0.87371 0
M  V30 3081 C 284.838 -2.66608 2.41165 0
M  V30 3082 C 284.502 -2.40993 3.88293 0
M  V30 3083 C 285.499 -2.0268 4.78766 0
M  V30 3084 C 283.184 -2.54563 4.33016 0
M  V30 3085 C 285.178 -1.78269 6.11963 0
M  V30 3086 C 282.865 -2.29766 5.6626 0
M  V30 3087 C 283.863 -1.91678 6.55552 0
M  V30 3088 O 283.551 -1.67158 7.86329 0
M  V30 3089 H 283.283 -0.439851 0.51333 0
M  V30 3090 H 285.837 -0.776084 1.90174 0
M  V30 3091 H 284.067 -3.32994 1.96601 0
M  V30 3092 H 285.756 -3.28615 2.38259 0
M  V30 3093 H 286.522 -1.91751 4.45485 0
M  V30 3094 H 282.401 -2.83179 3.63773 0
M  V30 3095 H 285.945 -1.48465 6.81619 0
M  V30 3096 H 281.842 -2.40306 5.99102 0
M  V30 3097 H 282.61 -1.81386 7.98149 0
M  V30 3098 N 285.273 -1.31445 -0.869486 0
M  V30 3099 C 286.521 -1.20918 -1.61936 0
M  V30 3100 C 286.842 0.232683 -1.93607 0
M  V30 3101 O 286.112 1.15352 -1.58338 0
M  V30 3102 H 284.692 -0.44454 -0.600328 0
M  V30 3103 H 287.354 -1.64776 -1.0409 0
M  V30 3104 H 286.45 -1.78124 -2.56278 0
M  V30 3105 N 286.751 1.08385 -1.14413 0
M  V30 3106 C 288.167 1.32844 -0.884563 0
M  V30 3107 C 288.367 1.95841 0.474181 0
M  V30 3108 O 287.423 2.21158 1.21842 0
M  V30 3109 C 288.736 2.22978 -2.01745 0
M  V30 3110 C 290.284 2.36458 -2.05077 0
M  V30 3111 C 290.759 3.29934 -3.1766 0
M  V30 3112 N 292.25 3.37511 -3.17239 0
M  V30 3113 C 292.985 4.09871 -4.0099 0
M  V30 3114 N 292.481 4.84936 -4.94781 0
M  V30 3115 N 294.274 4.05704 -3.89051 0
M  V30 3116 H 286.425 0.658756 -2.01926 0
M  V30 3117 H 288.688 0.352821 -0.879899 0
M  V30 3118 H 288.394 1.83934 -2.99769 0
M  V30 3119 H 288.268 3.23441 -1.94077 0
M  V30 3120 H 290.655 2.7476 -1.0766 0
M  V30 3121 H 290.736 1.35736 -2.16816 0
M  V30 3122 H 290.38 2.92352 -4.15322 0
M  V30 3123 H 290.31 4.30584 -3.03158 0
M  V30 3124 H 292.801 2.83996 -2.49308 0
M  V30 3125 H 293.114 5.37612 -5.55151 0
M  V30 3126 H 291.459 4.83988 -4.98779 0
M  V30 3127 H 294.65 3.46167 -3.15097 0
M  V30 3128 H 294.823 4.61834 -4.54547 0
M  V30 3129 N 288.23 0.939286 1.26551 0
M  V30 3130 C 289.177 0.446088 2.26448 0
M  V30 3131 C 290.147 -0.493234 1.58608 0
M  V30 3132 O 291.332 -0.409857 1.86346 0
M  V30 3133 C 288.472 -0.284375 3.43926 0
M  V30 3134 C 287.585 0.690399 4.26448 0
M  V30 3135 C 286.72 -0.0610712 5.31165 0
M  V30 3136 C 285.759 0.905649 6.05363 0
M  V30 3137 N 284.896 0.186055 7.01853 0
M  V30 3138 H 289.736 1.30291 2.68008 0
M  V30 3139 H 287.273 0.65371 1.31776 0
M  V30 3140 H 289.231 -0.724313 4.10864 0
M  V30 3141 H 287.861 -1.10535 3.03285 0
M  V30 3142 H 286.913 1.24885 3.59316 0
M  V30 3143 H 288.225 1.42873 4.779 0
M  V30 3144 H 287.379 -0.56038 6.04106 0
M  V30 3145 H 286.118 -0.832297 4.80546 0
M  V30 3146 H 285.123 1.4161 5.3125 0
M  V30 3147 H 286.348 1.67685 6.58072 0
M  V30 3148 H 284.294 -0.566714 6.53548 0
M  V30 3149 H 284.211 0.863752 7.51049 0
M  V30 3150 H 285.479 -0.292221 7.78952 0
M  V30 3151 O 289.747 -1.37657 0.844552 0
M  V30 3152 H 290.438 -1.88761 0.43461 0
M  V30 END ATOM
M  V30 BEGIN BOND
M  V30 END BOND
M  V30 END CTAB
M  END
$$$$
