drugbank_target|Q9KFR4 Alpha-amylase G-6 (DB03374)
 OpenBabel12092120523D

  0  0  0     0  0            999 V3000
M  V30 BEGIN CTAB
M  V30 COUNTS 14556 14788 0 0 0
M  V30 BEGIN ATOM
M  V30 1 H -0.908 1.98254 -0.117106 0
M  V30 2 N 0 1.576 0 0
M  V30 3 C 0.933 2.03868 1.02534 0
M  V30 4 C 1.911 0.928543 1.3348 0
M  V30 5 O 3.095 1.19667 1.45644 0
M  V30 6 C 0.222 2.43627 2.35294 0
M  V30 7 C -0.732 3.65373 2.2001 0
M  V30 8 S 0.101 5.13292 1.52614 0
M  V30 9 C 1.257 5.56322 2.86805 0
M  V30 10 H 1.49 2.90518 0.631377 0
M  V30 11 H -0.977 1.52953 0.210867 0
M  V30 12 H 0.981 2.67203 3.11629 0
M  V30 13 H -0.358 1.57376 2.7183 0
M  V30 14 H -1.165 3.90944 3.18086 0
M  V30 15 H -1.563 3.418 1.51819 0
M  V30 16 H 0.729 5.58782 3.83104 0
M  V30 17 H 1.672 6.56266 2.65933 0
M  V30 18 H 2.08 4.83886 2.90714 0
M  V30 19 N 1.4781 -0.272755 1.55222 0
M  V30 20 C 2.4261 -1.35705 1.88909 0
M  V30 21 C 3.4201 -1.5112 0.765456 0
M  V30 22 O 4.6261 -1.52901 0.949802 0
M  V30 23 H 1.0011 -0.453868 0.59959 0
M  V30 24 H 2.9721 -1.04544 2.79487 0
M  V30 25 C 1.7211 -2.71049 2.17779 0
M  V30 26 H 1.0441 -2.59979 3.03728 0
M  V30 27 H 2.4841 -3.45858 2.45272 0
M  V30 28 C 0.9431 -3.22165 0.985473 0
M  V30 29 O 1.4731 -4.01096 0.220233 0
M  V30 30 N -0.3209 -2.7985 0.783108 0
M  V30 31 H -0.7739 -2.15775 1.40708 0
M  V30 32 H -0.8159 -3.14397 -0.0130392 0
M  V30 33 N 2.9562 -1.48159 -0.537278 0
M  V30 34 C 3.9192 -1.61665 -1.62472 0
M  V30 35 C 4.9192 -0.490395 -1.5314 0
M  V30 36 O 6.1092 -0.755998 -1.5694 0
M  V30 37 C 3.2412 -1.57997 -3.02076 0
M  V30 38 H 4.4342 -2.58621 -1.51839 0
M  V30 39 H 1.9872 -1.36647 -0.758771 0
M  V30 40 H 2.7222 -0.624913 -3.18222 0
M  V30 41 H 2.5072 -2.39755 -3.10258 0
M  V30 42 H 3.9972 -1.70627 -3.81151 0
M  V30 43 N 4.4343 0.785586 -1.36625 0
M  V30 44 C 5.6593 1.57963 -1.34397 0
M  V30 45 C 6.0843 1.87964 0.071526 0
M  V30 46 O 5.4423 1.48182 1.0446 0
M  V30 47 C 5.4903 2.87511 -2.17646 0
M  V30 48 O 4.5943 3.81281 -1.57158 0
M  V30 49 H 3.9353 0.479014 -0.459828 0
M  V30 50 H 6.4653 0.973411 -1.79961 0
M  V30 51 H 6.4753 3.36745 -2.30362 0
M  V30 52 H 5.1503 2.65002 -3.20541 0
M  V30 53 H 3.7273 3.39885 -1.53403 0
M  V30 54 N 5.9124 1.20967 1.01018 0
M  V30 55 C 7.1424 1.04803 1.78044 0
M  V30 56 C 7.5504 -0.405462 1.84804 0
M  V30 57 O 6.8934 -1.2932 1.30468 0
M  V30 58 C 6.9554 1.56377 3.23707 0
M  V30 59 C 6.6194 3.04767 3.40538 0
M  V30 60 C 7.6164 4.02366 3.29239 0
M  V30 61 C 5.3014 3.43862 3.66147 0
M  V30 62 C 7.2954 5.37049 3.43304 0
M  V30 63 C 4.9824 4.78699 3.79855 0
M  V30 64 C 5.9804 5.75101 3.68439 0
M  V30 65 O 5.6684 7.07493 3.81719 0
M  V30 66 H 5.4004 0.368778 0.56655 0
M  V30 67 H 7.9544 1.60642 1.27997 0
M  V30 68 H 6.1844 0.949297 3.74867 0
M  V30 69 H 7.8734 1.36136 3.8239 0
M  V30 70 H 8.6394 3.73506 3.09384 0
M  V30 71 H 4.5184 2.69364 3.74118 0
M  V30 72 H 8.0624 6.12277 3.34309 0
M  V30 73 H 3.9594 5.07247 3.99213 0
M  V30 74 H 4.7274 7.1483 3.98697 0
M  V30 75 N 7.3905 -1.2043 1.01659 0
M  V30 76 C 8.6365 -1.90079 0.706963 0
M  V30 77 C 8.9695 -1.78648 -0.761474 0
M  V30 78 O 8.2445 -1.17069 -1.55323 0
M  V30 79 C 8.5275 -3.41469 1.14327 0
M  V30 80 C 8.3805 -3.61833 2.67201 0
M  V30 81 C 9.6995 -4.34261 0.714529 0
M  V30 82 H 6.8185 -0.690254 0.2583 0
M  V30 83 H 9.4605 -1.41826 1.26433 0
M  V30 84 H 7.6105 -3.82696 0.669056 0
M  V30 85 H 9.2825 -3.2986 3.22475 0
M  V30 86 H 7.5255 -3.05304 3.08175 0
M  V30 87 H 8.1965 -4.67955 2.92783 0
M  V30 88 H 10.6725 -4.00682 1.12221 0
M  V30 89 H 9.5485 -5.38806 1.04784 0
M  V30 90 H 9.8095 -4.40431 -0.383799 0
M  V30 91 N 8.8686 -0.792821 -1.36206 0
M  V30 92 C 9.8156 -0.191653 -2.30003 0
M  V30 93 C 10.7856 0.666453 -1.52143 0
M  V30 94 O 11.9706 0.61442 -1.80636 0
M  V30 95 C 9.1106 0.664848 -3.38635 0
M  V30 96 C 8.2236 -0.212175 -4.31479 0
M  V30 97 C 7.3586 0.651022 -5.27196 0
M  V30 98 C 6.3976 -0.227247 -6.11678 0
M  V30 99 N 5.5346 0.595127 -6.99573 0
M  V30 100 H 10.3746 -0.996978 -2.80828 0
M  V30 101 H 7.9116 -0.503206 -1.38225 0
M  V30 102 H 9.8696 1.17645 -4.00269 0
M  V30 103 H 8.4996 1.43557 -2.89122 0
M  V30 104 H 7.5516 -0.841777 -3.70969 0
M  V30 105 H 8.8636 -0.888751 -4.90818 0
M  V30 106 H 8.0176 1.2283 -5.94136 0
M  V30 107 H 6.7566 1.36121 -4.68319 0
M  V30 108 H 5.7616 -0.816904 -5.43697 0
M  V30 109 H 6.9866 -0.93509 -6.72631 0
M  V30 110 H 4.9326 1.28955 -6.432 0
M  V30 111 H 4.8496 -0.0236952 -7.55996 0
M  V30 112 H 6.1176 1.15613 -7.70879 0
M  V30 113 N 10.3467 1.47872 -0.545128 0
M  V30 114 C 11.2937 2.29849 0.2093 0
M  V30 115 C 12.2637 1.38313 0.919707 0
M  V30 116 O 13.4487 1.67277 0.917772 0
M  V30 117 C 10.5887 3.22019 1.24088 0
M  V30 118 C 9.7017 4.2864 0.537778 0
M  V30 119 C 8.8367 5.07973 1.5536 0
M  V30 120 C 7.8757 6.06381 0.8348 0
M  V30 121 N 7.0127 6.78717 1.79688 0
M  V30 122 H 11.8527 2.93845 -0.49591 0
M  V30 123 H 9.3897 1.44848 -0.256389 0
M  V30 124 H 11.3477 3.73868 1.85144 0
M  V30 125 H 9.9777 2.59914 1.91428 0
M  V30 126 H 9.0297 3.7994 -0.187046 0
M  V30 127 H 10.3417 4.98793 -0.0258907 0
M  V30 128 H 9.4957 5.63912 2.23803 0
M  V30 129 H 8.2347 4.37693 2.15118 0
M  V30 130 H 7.2397 5.49631 0.136388 0
M  V30 131 H 8.4647 6.78665 0.24313 0
M  V30 132 H 6.4107 6.11177 2.38326 0
M  V30 133 H 6.3277 7.44998 1.28505 0
M  V30 134 H 7.5957 7.39237 2.47282 0
M  V30 135 N 11.8248 0.280983 1.55075 0
M  V30 136 C 13.0708 -0.33461 2.00021 0
M  V30 137 C 13.4038 -1.55063 1.16915 0
M  V30 138 O 12.6788 -1.93006 0.240646 0
M  V30 139 C 12.9618 -0.711007 3.53011 0
M  V30 140 C 12.8148 0.512766 4.46868 0
M  V30 141 C 14.1338 -1.54522 4.12081 0
M  V30 142 H 11.2528 -0.120147 0.727141 0
M  V30 143 H 13.8948 0.389097 1.85973 0
M  V30 144 H 12.0448 -1.32761 3.65112 0
M  V30 145 H 13.7168 1.15131 4.46702 0
M  V30 146 H 11.9598 1.14975 4.18286 0
M  V30 147 H 12.6308 0.205556 5.51617 0
M  V30 148 H 15.1068 -1.02442 4.03293 0
M  V30 149 H 13.9828 -1.77739 5.19327 0
M  V30 150 H 14.2438 -2.52813 3.62682 0
M  V30 151 N 13.3029 -1.57598 0.00835791 0
M  V30 152 C 14.5279 -1.95617 -0.689103 0
M  V30 153 C 14.9529 -0.883753 -1.66046 0
M  V30 154 O 14.3109 0.157352 -1.80616 0
M  V30 155 C 14.3589 -3.32736 -1.38994 0
M  V30 156 O 13.4629 -3.27631 -2.50463 0
M  V30 157 H 12.8039 -0.638379 -0.182668 0
M  V30 158 H 15.3339 -2.045 0.064036 0
M  V30 159 H 15.3439 -3.68494 -1.75147 0
M  V30 160 H 14.0189 -4.1034 -0.677778 0
M  V30 161 H 12.5959 -3.03561 -2.16576 0
M  V30 162 N 14.781 0.264519 -1.55364 0
M  V30 163 C 15.711 1.33121 -1.91836 0
M  V30 164 C 16.692 1.51101 -0.781192 0
M  V30 165 O 17.877 1.64003 -1.04003 0
M  V30 166 C 15.007 2.68921 -2.19769 0
M  V30 167 C 13.961 2.65661 -3.35571 0
M  V30 168 C 13.287 4.05093 -3.49004 0
M  V30 169 C 14.587 2.24187 -4.71739 0
M  V30 170 H 16.281 1.02844 -2.81182 0
M  V30 171 H 13.827 0.493286 -1.35287 0
M  V30 172 H 15.78 3.43663 -2.43872 0
M  V30 173 H 14.504 3.00799 -1.27231 0
M  V30 174 H 13.163 1.93377 -3.1145 0
M  V30 175 H 12.811 4.34206 -2.53917 0
M  V30 176 H 12.511 4.03804 -4.26868 0
M  V30 177 H 14.035 4.81561 -3.75408 0
M  V30 178 H 15.449 2.88654 -4.9533 0
M  V30 179 H 13.846 2.34044 -5.52579 0
M  V30 180 H 14.916 1.19327 -4.69988 0
M  V30 181 N 16.2591 1.48442 0.529413 0
M  V30 182 C 17.4891 1.59919 1.30804 0
M  V30 183 C 17.8971 0.258792 1.87422 0
M  V30 184 O 17.2401 -0.762096 1.67146 0
M  V30 185 C 17.3021 2.58693 2.49636 0
M  V30 186 C 16.9661 4.03745 2.14101 0
M  V30 187 C 17.9631 4.9141 1.6974 0
M  V30 188 C 15.6481 4.49285 2.24607 0
M  V30 189 C 17.6421 6.22645 1.36351 0
M  V30 190 C 15.3291 5.8054 1.9083 0
M  V30 191 C 16.3271 6.67043 1.46773 0
M  V30 192 O 16.0151 7.95856 1.1344 0
M  V30 193 H 15.7471 0.541981 0.404021 0
M  V30 194 H 18.3011 1.95 0.645309 0
M  V30 195 H 16.5311 2.18734 3.18892 0
M  V30 196 H 18.2201 2.59999 3.11698 0
M  V30 197 H 18.9861 4.57465 1.61094 0
M  V30 198 H 14.8651 3.82142 2.57854 0
M  V30 199 H 18.4091 6.90119 1.01891 0
M  V30 200 H 14.3061 6.14022 1.99117 0
M  V30 201 H 15.0741 8.08613 1.26832 0
M  V30 202 N 17.7372 -0.778329 1.37039 0
M  V30 203 C 18.6672 -1.90546 1.34962 0
M  V30 204 C 19.6482 -1.68681 0.219274 0
M  V30 205 O 20.8332 -1.89634 0.418624 0
M  V30 206 C 17.9632 -3.27734 1.14925 0
M  V30 207 C 16.9172 -3.64147 2.24902 0
M  V30 208 C 16.2432 -4.99806 1.89996 0
M  V30 209 C 17.5432 -3.71579 3.67051 0
M  V30 210 H 19.2372 -1.92541 2.29277 0
M  V30 211 H 16.7832 -0.924948 1.10366 0
M  V30 212 H 18.7362 -4.06215 1.12104 0
M  V30 213 H 17.4602 -3.26154 0.170631 0
M  V30 214 H 16.1192 -2.8797 2.26868 0
M  V30 215 H 15.7672 -4.94759 0.906796 0
M  V30 216 H 15.4672 -5.25139 2.63634 0
M  V30 217 H 16.9912 -5.80694 1.88749 0
M  V30 218 H 18.4052 -4.40227 3.67251 0
M  V30 219 H 16.8022 -4.08405 4.39688 0
M  V30 220 H 17.8722 -2.72404 4.01154 0
M  V30 221 N 19.2153 -1.21501 -1.00376 0
M  V30 222 C 20.1453 -0.999478 -2.11028 0
M  V30 223 C 21.1263 0.0759671 -1.6993 0
M  V30 224 O 22.3113 -0.0841106 -1.94018 0
M  V30 225 C 19.4413 -0.564709 -3.42678 0
M  V30 226 C 18.3953 -1.58486 -3.97576 0
M  V30 227 C 17.7213 -1.00628 -5.25146 0
M  V30 228 C 19.0213 -2.97204 -4.29496 0
M  V30 229 H 20.7153 -1.92495 -2.29317 0
M  V30 230 H 18.2613 -0.92693 -1.102 0
M  V30 231 H 20.2143 -0.401091 -4.19487 0
M  V30 232 H 18.9383 0.396411 -3.24185 0
M  V30 233 H 17.5973 -1.73606 -3.22888 0
M  V30 234 H 17.2453 -0.0368439 -5.02987 0
M  V30 235 H 16.9453 -1.68771 -5.62841 0
M  V30 236 H 18.4693 -0.854015 -6.04598 0
M  V30 237 H 19.8833 -2.8552 -4.97143 0
M  V30 238 H 18.2803 -3.62372 -4.78338 0
M  V30 239 H 19.3503 -3.47956 -3.3772 0
M  V30 240 N 20.6934 1.19889 -1.02296 0
M  V30 241 C 21.6234 2.25141 -0.619174 0
M  V30 242 C 22.6044 1.66051 0.368915 0
M  V30 243 O 23.7894 1.92546 0.252941 0
M  V30 244 C 20.9194 3.4728 0.0368783 0
M  V30 245 C 19.8734 4.19005 -0.872865 0
M  V30 246 C 19.1994 5.34637 -0.0822402 0
M  V30 247 C 20.4994 4.74452 -2.18387 0
M  V30 248 H 22.1934 2.59171 -1.49903 0
M  V30 249 H 19.7394 1.24579 -0.722222 0
M  V30 250 H 21.6924 4.20098 0.330958 0
M  V30 251 H 20.4164 3.12433 0.95149 0
M  V30 252 H 19.0754 3.48061 -1.15105 0
M  V30 253 H 18.7234 4.96034 0.83422 0
M  V30 254 H 18.4234 5.83557 -0.688149 0
M  V30 255 H 19.9474 6.10255 0.205238 0
M  V30 256 H 21.3614 5.39055 -1.95172 0
M  V30 257 H 19.7584 5.33834 -2.74119 0
M  V30 258 H 20.8284 3.92844 -2.84257 0
M  V30 259 N 22.1715 0.800033 1.35784 0
M  V30 260 C 23.3965 0.388511 2.03729 0
M  V30 261 C 23.8215 -0.990481 1.5991 0
M  V30 262 O 23.1795 -1.64013 0.772612 0
M  V30 263 C 23.2275 0.4726 3.5749 0
M  V30 264 O 22.3315 -0.51646 4.09153 0
M  V30 265 H 21.6725 0.163271 0.643614 0
M  V30 266 H 24.2025 1.0841 1.73518 0
M  V30 267 H 24.2125 0.34003 4.06581 0
M  V30 268 H 22.8875 1.47848 3.88734 0
M  V30 269 H 21.4645 -0.344673 3.71304 0
M  V30 270 N 23.6496 -1.47581 0.552962 0
M  V30 271 C 24.8966 -2.02482 0.0273243 0
M  V30 272 C 25.2246 -1.42776 -1.32081 0
M  V30 273 O 24.4796 -0.571393 -1.87173 0
M  V30 274 C 24.7786 -3.57199 -0.119728 0
M  V30 275 C 24.4446 -4.35804 1.15697 0
M  V30 276 C 23.1066 -4.57 1.50681 0
M  V30 277 C 25.4586 -4.81167 2.00319 0
M  V30 278 C 22.7866 -5.20807 2.70142 0
M  V30 279 C 25.1386 -5.46293 3.18978 0
M  V30 280 C 23.8026 -5.65722 3.54281 0
M  V30 281 H 23.0726 -0.740933 0.00999866 0
M  V30 282 H 25.7196 -1.77302 0.72362 0
M  V30 283 H 24.0246 -3.81348 -0.89896 0
M  V30 284 H 25.7216 -3.97324 -0.541718 0
M  V30 285 H 22.3116 -4.19582 0.874561 0
M  V30 286 H 26.4956 -4.64574 1.74599 0
M  V30 287 H 21.7516 -5.34045 2.97668 0
M  V30 288 H 25.9256 -5.80407 3.84838 0
M  V30 289 H 23.5526 -6.14936 4.46942 0
M  V30 290 N 25.1277 -0.289203 -1.54924 0
M  V30 291 C 26.3737 0.323998 -2.00195 0
M  V30 292 C 26.7067 1.54441 -1.17735 0
M  V30 293 O 25.9817 1.92875 -0.250878 0
M  V30 294 C 26.2647 0.692276 -3.53383 0
M  V30 295 C 26.1177 -0.536457 -4.46589 0
M  V30 296 C 27.4367 1.52335 -4.12895 0
M  V30 297 H 24.5557 0.116289 -0.727768 0
M  V30 298 H 27.1977 -0.398954 -1.85764 0
M  V30 299 H 25.3477 1.30822 -3.65811 0
M  V30 300 H 27.0197 -1.17499 -4.46085 0
M  V30 301 H 25.2627 -1.17192 -4.1767 0
M  V30 302 H 25.9337 -0.234806 -5.515 0
M  V30 303 H 28.4097 1.00302 -4.0383 0
M  V30 304 H 27.2857 1.74982 -5.20262 0
M  V30 305 H 27.5467 2.50886 -3.64018 0
M  V30 306 N 26.6058 1.57591 -0.0167156 0
M  V30 307 C 27.8548 1.90461 0.663877 0
M  V30 308 C 28.1678 0.893515 1.73999 0
M  V30 309 O 29.3738 1.11302 2.47637 0
M  V30 310 C 27.8298 3.38155 1.23204 0
M  V30 311 C 27.4378 4.47597 0.189866 0
M  V30 312 C 29.1818 3.80111 1.88986 0
M  V30 313 C 27.0888 5.86379 0.768964 0
M  V30 314 H 26.0188 0.710738 0.251729 0
M  V30 315 H 28.6698 1.83326 -0.0799926 0
M  V30 316 H 27.0518 3.40182 2.02712 0
M  V30 317 H 28.2258 4.57112 -0.581846 0
M  V30 318 H 26.5408 4.14766 -0.368475 0
M  V30 319 H 29.1378 4.81145 2.33247 0
M  V30 320 H 29.4808 3.14511 2.72743 0
M  V30 321 H 30.0138 3.80454 1.16187 0
M  V30 322 H 26.7528 6.55493 -0.0301957 0
M  V30 323 H 26.2728 5.80496 1.50945 0
M  V30 324 H 27.9518 6.34563 1.26251 0
M  V30 325 N 28.0839 -0.256276 1.55502 0
M  V30 326 C 29.3119 -1.00342 1.8094 0
M  V30 327 C 29.7269 -1.79307 0.59114 0
M  V30 328 O 29.0839 -1.77114 -0.440081 0
M  V30 329 C 29.1349 -1.94875 3.04476 0
M  V30 330 O 28.8559 -1.19107 4.21598 0
M  V30 331 C 30.3569 -2.81266 3.42644 0
M  V30 332 H 27.5769 -0.295685 0.602338 0
M  V30 333 H 30.1209 -0.281998 2.02546 0
M  V30 334 H 28.2759 -2.62457 2.84947 0
M  V30 335 H 28.6899 -1.82969 4.91551 0
M  V30 336 H 30.1639 -3.43362 4.32211 0
M  V30 337 H 30.6409 -3.51897 2.62802 0
M  V30 338 H 31.2469 -2.1915 3.64491 0
M  V30 339 N 29.562 -1.4872 -0.521534 0
M  V30 340 C 30.492 -1.66771 -1.63431 0
M  V30 341 C 31.473 -0.516499 -1.62069 0
M  V30 342 O 32.658 -0.750013 -1.79132 0
M  V30 343 C 29.788 -1.71515 -3.01993 0
M  V30 344 C 28.742 -2.86222 -3.18216 0
M  V30 345 C 28.068 -2.76061 -4.57924 0
M  V30 346 C 29.368 -4.27419 -3.00184 0
M  V30 347 H 31.062 -2.59932 -1.48579 0
M  V30 348 H 28.608 -1.25089 -0.713358 0
M  V30 349 H 30.561 -1.82731 -3.7972 0
M  V30 350 H 29.285 -0.749393 -3.17886 0
M  V30 351 H 27.944 -2.74575 -2.42908 0
M  V30 352 H 27.592 -1.77437 -4.70665 0
M  V30 353 H 27.292 -3.53037 -4.69722 0
M  V30 354 H 28.816 -2.89256 -5.37739 0
M  V30 355 H 30.23 -4.39855 -3.67697 0
M  V30 356 H 28.627 -5.05458 -3.2347 0
M  V30 357 H 29.697 -4.43293 -1.96518 0
M  V30 358 N 31.0401 0.771051 -1.3745 0
M  V30 359 C 32.4511 1.34737 -1.29239 0
M  V30 360 C 32.8021 1.96109 0.0596908 0
M  V30 361 O 31.9271 1.93865 0.961534 0
M  V30 362 C 32.5221 2.44973 -2.34037 0
M  V30 363 C 31.0811 2.98372 -2.29458 0
M  V30 364 C 30.2281 1.71595 -2.17831 0
M  V30 365 H 33.1791 0.571256 -1.48062 0
M  V30 366 H 33.2001 3.24471 -1.98744 0
M  V30 367 H 32.7121 2.00276 -3.32432 0
M  V30 368 H 30.8131 3.47443 -1.34589 0
M  V30 369 H 30.9261 3.53939 -3.229 0
M  V30 370 H 29.2901 1.94547 -1.64388 0
M  V30 371 H 30.0731 1.29001 -3.18141 0
M  V30 372 N 32.5182 1.22032 0.997298 0
M  V30 373 C 33.4482 1.01065 2.10495 0
M  V30 374 C 34.4292 -0.0669542 1.69968 0
M  V30 375 O 35.6142 0.0943987 1.9397 0
M  V30 376 C 32.7442 0.582874 3.42374 0
M  V30 377 C 31.6982 1.60592 3.96729 0
M  V30 378 C 31.0242 1.03412 5.24605 0
M  V30 379 C 32.3242 2.99478 4.27914 0
M  V30 380 H 34.0182 1.93708 2.28292 0
M  V30 381 H 31.5642 0.932761 1.09707 0
M  V30 382 H 33.5172 0.423332 4.19268 0
M  V30 383 H 32.2412 -0.379213 3.24391 0
M  V30 384 H 30.9002 1.75316 3.21963 0
M  V30 385 H 30.5482 0.063518 5.0296 0
M  V30 386 H 30.2482 1.71754 5.61938 0
M  V30 387 H 31.7722 0.886066 6.04137 0
M  V30 388 H 33.1862 2.88153 4.95622 0
M  V30 389 H 31.5832 3.64903 4.76409 0
M  V30 390 H 32.6532 3.49742 3.3587 0
M  V30 391 N 33.9963 -1.19345 1.0293 0
M  V30 392 C 35.2433 -1.89038 0.726008 0
M  V30 393 C 35.5713 -1.79649 -0.745427 0
M  V30 394 O 34.8263 -1.18354 -1.55855 0
M  V30 395 C 35.1253 -3.39292 1.12319 0
M  V30 396 C 34.7913 -3.68885 2.59297 0
M  V30 397 C 33.4533 -3.76671 2.99453 0
M  V30 398 C 35.8053 -3.82178 3.54386 0
M  V30 399 C 33.1333 -3.9522 4.33611 0
M  V30 400 C 35.4853 -4.0224 4.88248 0
M  V30 401 C 34.1493 -4.08259 5.28092 0
M  V30 402 H 33.4193 -0.691739 0.265665 0
M  V30 403 H 36.0663 -1.41328 1.29223 0
M  V30 404 H 34.3713 -3.88903 0.475584 0
M  V30 405 H 36.0683 -3.91536 0.866037 0
M  V30 406 H 32.6583 -3.63433 2.27189 0
M  V30 407 H 36.8423 -3.75505 3.24514 0
M  V30 408 H 32.0983 -3.98119 4.64016 0
M  V30 409 H 36.2723 -4.11468 5.61843 0
M  V30 410 H 33.8993 -4.22384 6.32057 0
M  V30 411 N 35.4744 -0.807222 -1.35358 0
M  V30 412 C 36.6994 -0.399309 -2.0352 0
M  V30 413 C 37.1244 0.981986 -1.60433 0
M  V30 414 O 36.4824 1.63601 -0.781299 0
M  V30 415 C 36.5304 -0.491552 -3.57234 0
M  V30 416 O 35.6344 0.494754 -4.09421 0
M  V30 417 H 34.9754 -0.166682 -0.642739 0
M  V30 418 H 37.5054 -1.09328 -1.72941 0
M  V30 419 H 37.5154 -0.361588 -4.06395 0
M  V30 420 H 36.1904 -1.49907 -3.87944 0
M  V30 421 H 34.7674 0.324977 -3.71481 0
M  V30 422 N 36.9525 1.47285 -0.560781 0
M  V30 423 C 38.3635 1.86258 -0.128343 0
M  V30 424 C 38.7145 1.46699 1.30284 0
M  V30 425 O 37.8395 0.871698 1.98067 0
M  V30 426 C 38.4345 3.38044 -0.22614 0
M  V30 427 C 36.9935 3.76096 0.151283 0
M  V30 428 C 36.1405 2.71335 -0.572084 0
M  V30 429 H 39.0915 1.38752 -0.770297 0
M  V30 430 H 39.1125 3.76441 0.554322 0
M  V30 431 H 38.6245 3.66806 -1.26788 0
M  V30 432 H 36.7255 3.52951 1.19399 0
M  V30 433 H 36.8385 4.78641 -0.209765 0
M  V30 434 H 35.2025 2.54696 -0.0147653 0
M  V30 435 H 35.9855 3.02938 -1.61504 0
M  V30 436 N 38.4306 0.297415 1.54768 0
M  V30 437 C 39.6586 -0.315623 2.04478 0
M  V30 438 C 40.0736 -1.47792 1.17486 0
M  V30 439 O 39.4306 -1.81404 0.19971 0
M  V30 440 C 39.4816 -0.7753 3.53088 0
M  V30 441 O 39.2026 0.340732 4.36773 0
M  V30 442 C 40.7036 -1.45386 4.18781 0
M  V30 443 H 37.9236 -0.0690887 0.667434 0
M  V30 444 H 40.4676 0.436003 1.99798 0
M  V30 445 H 38.6226 -1.47696 3.58141 0
M  V30 446 H 39.0366 -0.0165035 5.24497 0
M  V30 447 H 40.5106 -1.72669 5.24299 0
M  V30 448 H 40.9876 -2.39275 3.68299 0
M  V30 449 H 41.5936 -0.795475 4.17795 0
M  V30 450 N 39.9087 -1.5758 0.0250728 0
M  V30 451 C 41.1557 -1.91633 -0.654444 0
M  V30 452 C 41.4837 -0.901103 -1.72367 0
M  V30 453 O 40.7387 0.0905647 -1.9549 0
M  V30 454 C 41.0377 -3.32421 -1.31268 0
M  V30 455 C 40.7037 -4.49344 -0.374223 0
M  V30 456 C 39.3657 -4.8106 -0.115911 0
M  V30 457 C 41.7177 -5.20498 0.270432 0
M  V30 458 C 39.0457 -5.8129 0.79493 0
M  V30 459 C 41.3977 -6.21699 1.1693 0
M  V30 460 C 40.0617 -6.51859 1.43655 0
M  V30 461 H 39.3317 -0.701236 -0.239478 0
M  V30 462 H 41.9787 -1.91307 0.0859734 0
M  V30 463 H 40.2837 -3.28989 -2.12775 0
M  V30 464 H 41.9807 -3.56038 -1.84494 0
M  V30 465 H 38.5707 -4.24579 -0.58573 0
M  V30 466 H 42.7547 -4.96229 0.0839194 0
M  V30 467 H 38.0107 -6.03005 1.00973 0
M  V30 468 H 42.1847 -6.75955 1.67504 0
M  V30 469 H 39.8117 -7.2934 2.144 0
M  V30 470 N 41.3868 0.248026 -1.55636 0
M  V30 471 C 42.6118 0.998028 -1.81808 0
M  V30 472 C 43.0368 1.78207 -0.601979 0
M  V30 473 O 42.3948 1.75653 0.448961 0
M  V30 474 C 42.4428 1.9125 -3.05705 0
M  V30 475 O 41.5468 3.00406 -2.82542 0
M  V30 476 H 40.8878 0.284045 -0.600179 0
M  V30 477 H 43.4178 0.269357 -2.02819 0
M  V30 478 H 43.4278 2.32737 -3.35108 0
M  V30 479 H 42.1028 1.33602 -3.93857 0
M  V30 480 H 40.6798 2.63056 -2.64303 0
M  V30 481 N 42.8649 1.48995 0.513639 0
M  V30 482 C 44.1139 1.57093 1.2651 0
M  V30 483 C 44.4269 0.257091 1.93903 0
M  V30 484 O 45.6329 0.216478 2.70636 0
M  V30 485 C 44.0889 2.77118 2.29638 0
M  V30 486 C 43.6969 4.15209 1.68241 0
M  V30 487 C 45.4409 2.94538 3.05692 0
M  V30 488 C 43.3479 5.26474 2.69406 0
M  V30 489 H 42.2779 0.584876 0.475854 0
M  V30 490 H 44.9289 1.7536 0.540487 0
M  V30 491 H 43.3109 2.52319 3.05207 0
M  V30 492 H 44.4849 4.50094 0.987505 0
M  V30 493 H 42.7999 4.03042 1.04623 0
M  V30 494 H 45.3969 3.74832 3.8132 0
M  V30 495 H 45.7399 2.04614 3.62545 0
M  V30 496 H 46.2729 3.19316 2.37238 0
M  V30 497 H 43.0119 6.18417 2.17351 0
M  V30 498 H 42.5319 4.96058 3.37175 0
M  V30 499 H 44.2109 5.55277 3.32078 0
M  V30 500 N 44.343 -0.763751 1.37857 0
M  V30 501 C 45.291 -1.89864 1.34367 0
M  V30 502 C 46.285 -1.67816 0.231143 0
M  V30 503 O 47.491 -1.75508 0.399617 0
M  V30 504 H 43.866 -0.624501 0.41893 0
M  V30 505 H 45.837 -1.89925 2.30155 0
M  V30 506 C 44.586 -3.27227 1.1755 0
M  V30 507 H 43.909 -3.44773 2.02414 0
M  V30 508 H 45.349 -4.06911 1.1916 0
M  V30 509 C 43.808 -3.36692 -0.118311 0
M  V30 510 O 44.338 -3.86374 -1.09902 0
M  V30 511 N 42.544 -2.90092 -0.171717 0
M  V30 512 H 42.091 -2.49853 0.627012 0
M  V30 513 H 42.049 -2.96806 -1.03699 0
M  V30 514 N 45.8211 -1.22559 -0.990812 0
M  V30 515 C 47.0461 -1.07862 -1.77145 0
M  V30 516 C 47.4711 0.366447 -1.84496 0
M  V30 517 O 46.8291 1.26478 -1.29896 0
M  V30 518 C 46.8771 -1.69686 -3.18181 0
M  V30 519 O 45.9811 -0.951946 -4.01263 0
M  V30 520 H 45.3221 -0.378712 -0.545411 0
M  V30 521 H 47.8521 -1.62399 -1.2445 0
M  V30 522 H 47.8621 -1.74496 -3.68802 0
M  V30 523 H 46.5371 -2.74841 -3.12146 0
M  V30 524 H 45.1141 -0.980011 -3.59792 0
M  V30 525 N 47.2992 1.18797 -1.03562 0
M  V30 526 C 48.5452 1.8893 -0.737113 0
M  V30 527 C 48.8782 1.79837 0.732956 0
M  V30 528 O 48.1532 1.19525 1.5344 0
M  V30 529 C 48.4362 3.39607 -1.19745 0
M  V30 530 C 48.2892 3.57537 -2.72924 0
M  V30 531 C 49.6082 4.33069 -0.783526 0
M  V30 532 H 46.7272 0.686057 -0.269249 0
M  V30 533 H 49.3692 1.39797 -1.28673 0
M  V30 534 H 47.5192 3.81583 -0.729855 0
M  V30 535 H 49.1912 3.24688 -3.27682 0
M  V30 536 H 47.4342 3.00363 -3.12993 0
M  V30 537 H 48.1052 4.63238 -3.00191 0
M  V30 538 H 50.5812 3.98846 -1.18581 0
M  V30 539 H 49.4572 5.3707 -1.13343 0
M  V30 540 H 49.7182 4.40986 0.313681 0
M  V30 541 N 48.7773 0.814389 1.34928 0
M  V30 542 C 50.0543 0.321363 1.92942 0
M  V30 543 C 50.4343 -1.19014 1.74353 0
M  V30 544 O 49.7823 -1.99328 1.11716 0
M  V30 545 C 49.9923 0.741323 3.41036 0
M  V30 546 C 51.3403 0.735266 4.18185 0
M  V30 547 O 52.3643 0.68336 3.49584 0
M  V30 548 O 51.2233 0.800703 5.40602 0
M  V30 549 H 48.3173 0.0858893 0.822528 0
M  V30 550 H 50.8633 0.898609 1.43955 0
M  V30 551 H 49.6353 1.78276 3.4833 0
M  V30 552 H 49.2583 0.139307 3.97356 0
M  V30 553 N 50.2554 -1.46986 0.568584 0
M  V30 554 C 51.2184 -2.28624 -0.162366 0
M  V30 555 C 52.2184 -1.37596 -0.832103 0
M  V30 556 O 53.4084 -1.60115 -0.68622 0
M  V30 557 C 50.5404 -3.17596 -1.23878 0
M  V30 558 H 51.7334 -2.94722 0.554899 0
M  V30 559 H 49.2864 -1.52863 0.325976 0
M  V30 560 H 50.0214 -2.56214 -1.98808 0
M  V30 561 H 49.8064 -3.846 -0.763219 0
M  V30 562 H 51.2964 -3.79078 -1.75185 0
M  V30 563 N 51.7335 -0.305618 -1.54608 0
M  V30 564 C 52.9585 0.307562 -2.05107 0
M  V30 565 C 53.3835 1.46385 -1.18123 0
M  V30 566 O 52.7415 1.8034 -0.186324 0
M  V30 567 C 52.7895 0.73704 -3.52987 0
M  V30 568 O 51.8935 1.84134 -3.6901 0
M  V30 569 H 51.2345 0.0589143 -0.661381 0
M  V30 570 H 53.7645 -0.448807 -1.99617 0
M  V30 571 H 53.7745 1.02459 -3.94925 0
M  V30 572 H 52.4495 -0.108773 -4.15758 0
M  V30 573 H 51.0265 1.55398 -3.38978 0
M  V30 574 N 53.2116 1.57565 -0.0334293 0
M  V30 575 C 54.1436 2.0739 0.975811 0
M  V30 576 C 55.1566 0.998166 1.2861 0
M  V30 577 O 56.3456 1.27426 1.25 0
M  V30 578 C 53.4456 2.4871 2.30209 0
M  V30 579 C 52.6186 3.79413 2.17634 0
M  V30 580 C 51.6776 4.07237 3.33233 0
M  V30 581 O 50.7036 4.77425 3.09927 0
M  V30 582 N 51.9056 3.5775 4.5716 0
M  V30 583 H 54.6706 2.94598 0.55066 0
M  V30 584 H 52.2316 1.61173 0.15323 0
M  V30 585 H 54.2236 2.64413 3.06378 0
M  V30 586 H 52.7936 1.66845 2.64351 0
M  V30 587 H 52.0136 3.73465 1.26165 0
M  V30 588 H 53.3016 4.65038 2.0644 0
M  V30 589 H 52.6996 3.00976 4.78989 0
M  V30 590 H 51.2566 3.78724 5.30482 0
M  V30 591 N 54.6897 -0.239769 1.55765 0
M  V30 592 C 55.9377 -0.964892 1.77579 0
M  V30 593 C 56.2587 -1.85582 0.598699 0
M  V30 594 O 55.5287 -1.92075 -0.385226 0
M  V30 595 H 54.1087 -0.359265 0.654933 0
M  V30 596 H 56.7707 -0.256001 1.93211 0
M  V30 597 H 55.8667 -1.58243 2.69009 0
M  V30 598 N 56.1678 -1.49265 -0.50573 0
M  V30 599 C 57.4158 -1.582 -1.25766 0
M  V30 600 C 57.7368 -0.268482 -1.93143 0
M  V30 601 O 57.0068 0.711833 -1.8251 0
M  V30 602 H 55.5868 -0.582873 -0.467191 0
M  V30 603 H 58.2488 -1.85865 -0.586525 0
M  V30 604 H 57.3448 -2.37563 -2.02412 0
M  V30 605 N 57.6459 0.756429 -1.3826 0
M  V30 606 C 58.5559 1.9009 -1.37488 0
M  V30 607 C 59.5719 1.71855 -0.272366 0
M  V30 608 O 60.7479 1.94827 -0.510318 0
M  V30 609 C 57.8129 3.25421 -1.19592 0
M  V30 610 C 56.8739 3.56202 -2.39622 0
M  V30 611 C 56.1069 4.85075 -2.2257 0
M  V30 612 O 56.3299 5.57246 -1.21793 0
M  V30 613 O 55.2639 5.15269 -3.11098 0
M  V30 614 H 59.0899 1.93695 -2.33914 0
M  V30 615 H 56.6749 0.901313 -1.1915 0
M  V30 616 H 58.5569 4.06337 -1.11661 0
M  V30 617 H 57.2319 3.22634 -0.262486 0
M  V30 618 H 56.1389 2.75458 -2.53128 0
M  V30 619 H 57.4719 3.63747 -3.31586 0
M  V30 620 N 59.124 1.23083 0.984299 0
M  V30 621 C 60.056 0.96636 2.07832 0
M  V30 622 C 61.069 -0.0582135 1.62696 0
M  V30 623 O 62.258 0.176843 1.77622 0
M  V30 624 C 59.358 0.433397 3.36117 0
M  V30 625 C 58.531 1.51722 4.10243 0
M  V30 626 C 57.59 0.989821 5.16807 0
M  V30 627 O 56.616 1.67794 5.43906 0
M  V30 628 N 57.818 -0.184367 5.80207 0
M  V30 629 H 60.583 1.90824 2.31098 0
M  V30 630 H 58.144 1.13888 1.1507 0
M  V30 631 H 60.136 0.065699 4.04647 0
M  V30 632 H 58.706 -0.413806 3.09849 0
M  V30 633 H 57.926 2.05786 3.36223 0
M  V30 634 H 59.214 2.24619 4.56534 0
M  V30 635 H 58.612 -0.760062 5.60571 0
M  V30 636 H 57.169 -0.493366 6.4993 0
M  V30 637 N 60.6021 -1.18246 1.0419 0
M  V30 638 C 61.5341 -2.2142 0.592088 0
M  V30 639 C 62.5471 -1.59233 -0.338909 0
M  V30 640 O 63.7361 -1.78002 -0.133231 0
M  V30 641 C 60.8361 -3.38546 -0.154854 0
M  V30 642 C 60.0091 -4.3031 0.784328 0
M  V30 643 C 59.0681 -5.26138 0.0804583 0
M  V30 644 O 58.0941 -5.64738 0.711292 0
M  V30 645 N 59.2961 -5.68261 -1.18574 0
M  V30 646 H 62.0611 -2.60636 1.47949 0
M  V30 647 H 59.6221 -1.33044 0.922544 0
M  V30 648 H 61.6141 -3.99678 -0.635606 0
M  V30 649 H 60.1841 -2.98012 -0.943811 0
M  V30 650 H 59.4041 -3.66764 1.44491 0
M  V30 651 H 60.6921 -4.8852 1.42218 0
M  V30 652 H 60.0901 -5.38957 -1.71876 0
M  V30 653 H 58.6471 -6.31584 -1.61074 0
M  V30 654 N 62.0802 -0.821533 -1.34494 0
M  V30 655 C 63.3052 -0.420873 -2.03085 0
M  V30 656 C 63.7302 0.964915 -1.61465 0
M  V30 657 O 63.0882 1.62763 -0.798607 0
M  V30 658 C 63.1362 -0.529414 -3.56693 0
M  V30 659 O 62.2402 0.451302 -4.09923 0
M  V30 660 H 61.5812 -0.173489 -0.640935 0
M  V30 661 H 64.1112 -1.11157 -1.71771 0
M  V30 662 H 64.1212 -0.404671 -4.05988 0
M  V30 663 H 62.7962 -1.54014 -3.86332 0
M  V30 664 H 61.3732 0.285558 -3.71805 0
M  V30 665 N 63.5583 1.46682 -0.576371 0
M  V30 666 C 64.8053 2.02412 -0.0595339 0
M  V30 667 C 65.1333 1.44859 1.29793 0
M  V30 668 O 64.3883 0.601099 1.8624 0
M  V30 669 C 64.6873 3.57345 0.062886 0
M  V30 670 C 64.3533 4.33908 -1.22616 0
M  V30 671 C 63.0153 4.54544 -1.57933 0
M  V30 672 C 65.3673 4.77919 -2.07948 0
M  V30 673 C 62.6953 5.16444 -2.78393 0
M  V30 674 C 65.0473 5.41149 -3.27629 0
M  V30 675 C 63.7113 5.60014 -3.63236 0
M  V30 676 H 62.9813 0.74068 -0.021785 0
M  V30 677 H 65.6283 1.76128 -0.751735 0
M  V30 678 H 63.9333 3.82729 0.838178 0
M  V30 679 H 65.6303 3.98136 0.478439 0
M  V30 680 H 62.2203 4.18138 -0.941202 0
M  V30 681 H 66.4043 4.61738 -1.81967 0
M  V30 682 H 61.6603 5.29242 -3.06126 0
M  V30 683 H 65.8343 5.74211 -3.94023 0
M  V30 684 H 63.4613 6.07748 -4.56669 0
M  V30 685 N 65.0364 0.313813 1.54444 0
M  V30 686 C 66.2614 -0.296681 2.05267 0
M  V30 687 C 66.6864 -1.45757 1.18897 0
M  V30 688 O 66.0444 -1.80239 0.195886 0
M  V30 689 C 66.0924 -0.71831 3.53373 0
M  V30 690 O 65.1964 -1.82175 3.69981 0
M  V30 691 H 64.5374 -0.0554061 0.661684 0
M  V30 692 H 67.0674 0.459387 1.99376 0
M  V30 693 H 67.0774 -1.00364 3.95463 0
M  V30 694 H 65.7524 0.130821 4.15694 0
M  V30 695 H 64.3294 -1.53598 3.39797 0
M  V30 696 N 66.5145 -1.57545 0.0417849 0
M  V30 697 C 67.7605 -1.93424 -0.629168 0
M  V30 698 C 68.1155 -0.919564 -1.69002 0
M  V30 699 O 67.4085 0.0626178 -1.91498 0
M  V30 700 C 67.6025 -3.33794 -1.27735 0
M  V30 701 C 67.4315 -4.48822 -0.280806 0
M  V30 702 C 66.2015 -5.05148 0.123869 0
M  V30 703 C 68.3995 -5.12148 0.470012 0
M  V30 704 N 66.3815 -6.03703 1.11426 0
M  V30 705 C 67.7525 -6.05921 1.31377 0
M  V30 706 C 69.8075 -4.95078 0.529343 0
M  V30 707 C 68.5105 -6.84459 2.21152 0
M  V30 708 C 70.5365 -5.74235 1.41448 0
M  V30 709 C 69.8985 -6.67634 2.24598 0
M  V30 710 H 65.9975 -0.755418 -0.202158 0
M  V30 711 H 68.5815 -1.94378 0.111923 0
M  V30 712 H 66.7525 -3.33635 -1.98852 0
M  V30 713 H 68.4845 -3.56988 -1.90635 0
M  V30 714 H 65.2395 -4.72923 -0.253178 0
M  V30 715 H 65.6635 -6.57674 1.60607 0
M  V30 716 H 70.3055 -4.22683 -0.0992798 0
M  V30 717 H 68.0235 -7.56151 2.85063 0
M  V30 718 H 71.6095 -5.63057 1.46484 0
M  V30 719 H 70.4895 -7.27817 2.9198 0
M  V30 720 N 67.9926 0.231505 -1.5589 0
M  V30 721 C 69.2696 0.981096 -1.69215 0
M  V30 722 C 69.6496 2.02799 -0.586164 0
M  V30 723 O 68.9976 2.24823 0.408253 0
M  V30 724 C 69.2076 1.60054 -3.10135 0
M  V30 725 C 70.5556 2.09658 -3.69227 0
M  V30 726 O 71.5796 1.69967 -3.13033 0
M  V30 727 O 70.4386 2.8258 -4.67772 0
M  V30 728 H 67.5326 0.457653 -0.688827 0
M  V30 729 H 70.0786 0.224073 -1.68214 0
M  V30 730 H 68.8506 0.844105 -3.82087 0
M  V30 731 H 68.4736 2.42336 -3.15212 0
M  V30 732 N 69.4707 1.49531 0.497807 0
M  V30 733 C 70.4187 1.66926 1.61983 0
M  V30 734 C 71.4127 0.535167 1.60724 0
M  V30 735 O 72.6187 0.714896 1.65195 0
M  V30 736 H 68.9937 0.526415 0.537021 0
M  V30 737 H 70.9647 2.61098 1.44465 0
M  V30 738 C 69.7137 1.75602 3.00099 0
M  V30 739 H 69.0367 2.62244 3.01775 0
M  V30 740 H 70.4767 1.91807 3.78135 0
M  V30 741 C 68.9357 0.501543 3.33146 0
M  V30 742 O 69.4657 -0.371342 3.9998 0
M  V30 743 N 67.6717 0.363531 2.88317 0
M  V30 744 H 67.2187 1.07485 2.34104 0
M  V30 745 H 67.1767 -0.474728 3.10795 0
M  V30 746 N 70.9488 -0.749086 1.3866 0
M  V30 747 C 71.9118 -1.84457 1.36045 0
M  V30 748 C 72.9118 -1.58682 0.260122 0
M  V30 749 O 74.1018 -1.66343 0.517261 0
M  V30 750 C 71.2338 -3.22008 1.11911 0
M  V30 751 H 72.4268 -1.88182 2.33512 0
M  V30 752 H 69.9798 -0.951266 1.24019 0
M  V30 753 H 70.7148 -3.2395 0.150686 0
M  V30 754 H 70.4998 -3.42111 1.91579 0
M  V30 755 H 71.9898 -4.0208 1.12788 0
M  V30 756 N 72.4269 -1.23603 -0.977757 0
M  V30 757 C 73.6549 -1.09646 -1.75458 0
M  V30 758 C 74.0699 0.351859 -1.85492 0
M  V30 759 O 73.4269 1.24327 -1.336 0
M  V30 760 C 73.4779 -1.71895 -3.18016 0
M  V30 761 O 73.1989 -3.11063 -3.08498 0
M  V30 762 C 74.6999 -1.63415 -4.12081 0
M  V30 763 H 71.9199 -0.38359 -0.550545 0
M  V30 764 H 74.4639 -1.63507 -1.22824 0
M  V30 765 H 72.6189 -1.22061 -3.67668 0
M  V30 766 H 73.0329 -3.41305 -3.9826 0
M  V30 767 H 74.5069 -2.11669 -5.09804 0
M  V30 768 H 74.9839 -0.593462 -4.35172 0
M  V30 769 H 75.5899 -2.12628 -3.68334 0
M  V30 770 N 73.905 1.17692 -1.04816 0
M  V30 771 C 75.151 1.88137 -0.75711 0
M  V30 772 C 75.484 1.80604 0.713841 0
M  V30 773 O 74.759 1.21146 1.52164 0
M  V30 774 C 75.042 3.38318 -1.2334 0
M  V30 775 C 74.895 3.54622 -2.76701 0
M  V30 776 C 76.214 4.32214 -0.829415 0
M  V30 777 H 73.333 0.683163 -0.27651 0
M  V30 778 H 75.975 1.38424 -1.30149 0
M  V30 779 H 74.125 3.80787 -0.770286 0
M  V30 780 H 75.797 3.21194 -3.31107 0
M  V30 781 H 74.04 2.97026 -3.16161 0
M  V30 782 H 74.711 4.60028 -3.05088 0
M  V30 783 H 77.187 3.97565 -1.22805 0
M  V30 784 H 76.063 5.35838 -1.19033 0
M  V30 785 H 76.324 4.41294 0.266891 0
M  V30 786 N 75.3831 0.828654 1.34056 0
M  V30 787 C 76.6131 0.431993 2.02033 0
M  V30 788 C 77.0211 -0.96844 1.62536 0
M  V30 789 O 76.3641 -1.6391 0.829408 0
M  V30 790 C 76.4261 0.461224 3.56529 0
M  V30 791 C 76.0901 1.81599 4.1937 0
M  V30 792 C 77.0871 2.7777 4.39477 0
M  V30 793 C 74.7721 2.10604 4.56017 0
M  V30 794 C 76.7661 4.01115 4.95364 0
M  V30 795 C 74.4531 3.34207 5.11614 0
M  V30 796 C 75.4511 4.2928 5.31232 0
M  V30 797 O 75.1391 5.50699 5.8565 0
M  V30 798 H 74.8711 0.170943 0.654029 0
M  V30 799 H 77.4251 1.11988 1.72185 0
M  V30 800 H 75.6551 -0.283388 3.8566 0
M  V30 801 H 77.3441 0.0838149 4.05813 0
M  V30 802 H 78.1101 2.56659 4.11523 0
M  V30 803 H 73.9891 1.37402 4.40047 0
M  V30 804 H 77.5331 4.75333 5.10592 0
M  V30 805 H 73.4301 3.55179 5.38997 0
M  V30 806 H 74.1981 5.52298 6.04077 0
M  V30 807 N 76.8612 -1.46375 0.584142 0
M  V30 808 C 78.1082 -2.02378 0.0702675 0
M  V30 809 C 78.4362 -1.45545 -1.29023 0
M  V30 810 O 77.6912 -0.610967 -1.85918 0
M  V30 811 C 77.9902 -3.57373 -0.0439342 0
M  V30 812 C 77.6562 -4.33252 1.24915 0
M  V30 813 C 76.3182 -4.53701 1.60341 0
M  V30 814 C 78.6702 -4.7681 2.1048 0
M  V30 815 C 75.9982 -5.1496 2.81128 0
M  V30 816 C 78.3502 -5.39404 3.30494 0
M  V30 817 C 77.0142 -5.5808 3.66201 0
M  V30 818 H 76.2842 -0.740554 0.0257127 0
M  V30 819 H 78.9312 -1.75727 0.761065 0
M  V30 820 H 77.2362 -3.83169 -0.817869 0
M  V30 821 H 78.9332 -3.98384 -0.457318 0
M  V30 822 H 75.5232 -4.17633 0.963364 0
M  V30 823 H 79.7072 -4.60766 1.84414 0
M  V30 824 H 74.9632 -5.27611 3.08928 0
M  V30 825 H 79.1372 -5.72114 3.97063 0
M  V30 826 H 76.7642 -6.05318 4.59885 0
M  V30 827 N 78.3393 -0.321999 -1.54275 0
M  V30 828 C 79.3023 0.531975 -2.22941 0
M  V30 829 C 80.3023 1.04478 -1.22234 0
M  V30 830 O 81.4923 0.937452 -1.46825 0
M  V30 831 C 78.6243 1.73874 -2.93224 0
M  V30 832 H 79.8173 -0.0682612 -2.99822 0
M  V30 833 H 77.3703 -0.0730644 -1.56129 0
M  V30 834 H 78.1053 2.37825 -2.20476 0
M  V30 835 H 77.8903 1.37847 -3.6707 0
M  V30 836 H 79.3803 2.34496 -3.45545 0
M  V30 837 N 79.8174 1.5752 -0.0501392 0
M  V30 838 C 81.0664 1.91827 0.623328 0
M  V30 839 C 81.3794 0.930222 1.72065 0
M  V30 840 O 82.5854 1.1653 2.4522 0
M  V30 841 C 81.0414 3.40692 1.16003 0
M  V30 842 C 80.6494 4.479 0.0948811 0
M  V30 843 C 82.3934 3.84034 1.80881 0
M  V30 844 C 80.3004 5.87879 0.644411 0
M  V30 845 H 79.2304 0.715918 0.236596 0
M  V30 846 H 81.8814 1.83115 -0.118861 0
M  V30 847 H 80.2634 3.44405 1.9545 0
M  V30 848 H 81.4374 4.55775 -0.678675 0
M  V30 849 H 79.7524 4.13892 -0.45637 0
M  V30 850 H 82.3494 4.85984 2.22988 0
M  V30 851 H 82.6924 3.20225 2.6601 0
M  V30 852 H 83.2254 3.82833 1.0809 0
M  V30 853 H 79.9644 6.55282 -0.169229 0
M  V30 854 H 79.4844 5.83567 1.38598 0
M  V30 855 H 81.1634 6.37098 1.12763 0
M  V30 856 N 81.2955 -0.223234 1.56011 0
M  V30 857 C 82.5235 -0.964812 1.83027 0
M  V30 858 C 82.9385 -1.78013 0.62904 0
M  V30 859 O 82.2955 -1.78008 -0.402414 0
M  V30 860 C 82.3465 -1.88373 3.08542 0
M  V30 861 O 82.0675 -1.10137 4.2403 0
M  V30 862 C 83.5685 -2.73934 3.48533 0
M  V30 863 H 80.7885 -0.282842 0.608475 0
M  V30 864 H 83.3325 -0.238971 2.03099 0
M  V30 865 H 81.4875 -2.56354 2.9045 0
M  V30 866 H 81.9015 -1.72501 4.95322 0
M  V30 867 H 83.3755 -3.34117 4.39397 0
M  V30 868 H 83.8525 -3.46244 2.70207 0
M  V30 869 H 84.4585 -2.11369 3.69057 0
M  V30 870 N 82.7736 -1.49793 -0.48987 0
M  V30 871 C 84.0506 -1.50348 -1.25119 0
M  V30 872 C 84.4306 -0.237466 -2.0976 0
M  V30 873 O 83.7786 0.77981 -2.14782 0
M  V30 874 C 83.9886 -2.78872 -2.09837 0
M  V30 875 C 85.3366 -3.288 -2.68655 0
M  V30 876 O 86.3606 -2.80065 -2.20096 0
M  V30 877 O 85.2196 -4.13707 -3.57083 0
M  V30 878 H 82.3136 -0.602242 -0.566775 0
M  V30 879 H 84.8596 -1.62067 -0.503229 0
M  V30 880 H 83.6316 -3.62499 -1.47343 0
M  V30 881 H 83.2546 -2.70066 -2.91805 0
M  V30 882 N 84.2517 0.741722 -1.39055 0
M  V30 883 C 85.6677 1.04638 -1.20512 0
M  V30 884 C 85.8677 2.01405 -0.0620218 0
M  V30 885 O 84.9237 2.45547 0.588457 0
M  V30 886 C 86.2367 1.6151 -2.53643 0
M  V30 887 C 87.7847 1.73623 -2.6043 0
M  V30 888 C 88.2597 2.33906 -3.93767 0
M  V30 889 N 89.7507 2.41323 -3.9537 0
M  V30 890 C 90.4857 2.88888 -4.95309 0
M  V30 891 N 89.9817 3.36401 -6.05645 0
M  V30 892 N 91.7747 2.88037 -4.82692 0
M  V30 893 H 83.9257 0.0998155 -2.12165 0
M  V30 894 H 86.1887 0.106907 -0.941953 0
M  V30 895 H 85.8947 0.978739 -3.37807 0
M  V30 896 H 85.7687 2.60411 -2.72885 0
M  V30 897 H 88.1557 2.36384 -1.76655 0
M  V30 898 H 88.2367 0.733945 -2.45045 0
M  V30 899 H 87.8807 1.71776 -4.7797 0
M  V30 900 H 87.8107 3.34799 -4.06469 0
M  V30 901 H 90.3017 2.07734 -3.15682 0
M  V30 902 H 90.6147 3.71186 -6.77821 0
M  V30 903 H 88.9597 3.34427 -6.09248 0
M  V30 904 H 92.1507 2.50237 -3.95599 0
M  V30 905 H 92.3237 3.24792 -5.60726 0
M  V30 906 N 85.7298 1.2412 0.971189 0
M  V30 907 C 86.9768 1.07881 1.71371 0
M  V30 908 C 87.3048 -0.382901 1.90694 0
M  V30 909 O 86.5598 -1.29945 1.46331 0
M  V30 910 C 86.8588 1.75983 3.11071 0
M  V30 911 C 86.5248 3.25909 3.11599 0
M  V30 912 C 85.1868 3.66813 3.11451 0
M  V30 913 C 87.5388 4.21771 3.062 0
M  V30 914 C 84.8668 5.02021 3.03631 0
M  V30 915 C 87.2188 5.56982 2.99923 0
M  V30 916 C 85.8828 5.97237 2.98102 0
M  V30 917 H 85.1528 0.394764 0.62709 0
M  V30 918 H 87.7998 1.54176 1.13587 0
M  V30 919 H 86.1048 1.22072 3.72298 0
M  V30 920 H 87.8018 1.60887 3.6731 0
M  V30 921 H 84.3918 2.93353 3.12477 0
M  V30 922 H 88.5758 3.91172 3.05447 0
M  V30 923 H 83.8318 5.32411 3.0058 0
M  V30 924 H 88.0058 6.30969 2.94704 0
M  V30 925 H 85.6328 7.01967 2.91798 0
M  V30 926 N 87.2079 -1.17134 1.05439 0
M  V30 927 C 88.1579 -2.1919 0.627675 0
M  V30 928 C 89.1419 -1.57328 -0.337147 0
M  V30 929 O 90.3339 -1.76329 -0.153976 0
M  V30 930 C 87.4629 -3.43299 0.00651435 0
M  V30 931 C 86.5489 -4.12255 0.995312 0
M  V30 932 N 86.9399 -4.56997 2.16765 0
M  V30 933 C 85.2379 -4.38316 0.824336 0
M  V30 934 C 85.9389 -5.10239 2.7934 0
M  V30 935 N 84.9149 -5.02595 2.07122 0
M  V30 936 H 88.7169 -2.5149 1.52086 0
M  V30 937 H 86.2309 -1.33491 0.924868 0
M  V30 938 H 88.2279 -4.15693 -0.316965 0
M  V30 939 H 86.8879 -3.1249 -0.882033 0
M  V30 940 H 87.8989 -4.51006 2.54587 0
M  V30 941 H 84.5759 -4.17498 -0.0129526 0
M  V30 942 H 85.9659 -5.54961 3.78772 0
M  V30 943 N 88.686 -0.835752 -1.33615 0
M  V30 944 C 89.963 -0.352017 -1.92406 0
M  V30 945 C 90.343 1.16225 -1.76224 0
M  V30 946 O 89.691 1.97526 -1.14873 0
M  V30 947 C 89.901 -0.795485 -3.39813 0
M  V30 948 C 91.249 -0.801703 -4.16963 0
M  V30 949 O 92.273 -0.738889 -3.48452 0
M  V30 950 O 91.132 -0.886607 -5.3926 0
M  V30 951 H 88.226 -0.0989641 -0.821057 0
M  V30 952 H 90.772 -0.921397 -1.42507 0
M  V30 953 H 89.544 -1.83795 -3.45449 0
M  V30 954 H 89.167 -0.202505 -3.97084 0
M  V30 955 N 90.1641 1.46063 -0.591896 0
M  V30 956 C 91.4121 2.01938 -0.0808391 0
M  V30 957 C 91.7331 1.46475 1.28725 0
M  V30 958 O 91.0031 0.652944 1.84698 0
M  V30 959 H 89.5831 0.746516 -0.0268938 0
M  V30 960 H 92.2451 1.79055 -0.769752 0
M  V30 961 H 91.3411 3.12094 -0.0187578 0
M  V30 962 N 91.6422 0.330177 1.54103 0
M  V30 963 C 92.5902 -0.548226 2.26047 0
M  V30 964 C 93.5842 -1.11309 1.27698 0
M  V30 965 O 94.7902 -1.06036 1.45452 0
M  V30 966 H 91.1652 -0.195456 0.726155 0
M  V30 967 H 93.1362 0.0807567 2.98291 0
M  V30 968 C 91.8852 -1.69415 3.03634 0
M  V30 969 H 91.2082 -1.26876 3.79134 0
M  V30 970 H 92.6482 -2.28423 3.5721 0
M  V30 971 C 91.1072 -2.61569 2.12328 0
M  V30 972 O 91.6372 -3.63462 1.7105 0
M  V30 973 N 89.8432 -2.29952 1.77681 0
M  V30 974 H 89.3902 -1.47134 2.11446 0
M  V30 975 H 89.3482 -2.91871 1.16869 0
M  V30 976 N 93.1203 -1.57491 0.0584922 0
M  V30 977 C 94.5313 -1.80526 -0.476138 0
M  V30 978 C 94.8823 -0.971334 -1.70469 0
M  V30 979 O 94.0073 -0.190012 -2.15564 0
M  V30 980 C 94.6023 -3.27424 -0.870587 0
M  V30 981 C 93.1613 -3.51351 -1.35015 0
M  V30 982 C 92.3083 -2.75343 -0.32887 0
M  V30 983 H 95.2593 -1.56133 0.284312 0
M  V30 984 H 95.2803 -3.38745 -1.73299 0
M  V30 985 H 94.7923 -3.88093 0.0237627 0
M  V30 986 H 92.8933 -2.95971 -2.26345 0
M  V30 987 H 93.0063 -4.60059 -1.33726 0
M  V30 988 H 91.3703 -2.417 -0.803321 0
M  V30 989 H 92.1533 -3.38743 0.557521 0
M  V30 990 N 94.5984 0.214957 -1.56127 0
M  V30 991 C 95.8234 0.95924 -1.83884 0
M  V30 992 C 96.2484 1.7689 -0.639644 0
M  V30 993 O 95.6064 1.76566 0.411601 0
M  V30 994 C 95.6544 1.84723 -3.09693 0
M  V30 995 O 94.7584 2.94346 -2.8885 0
M  V30 996 H 94.0994 0.27125 -0.606069 0
M  V30 997 H 96.6294 0.226276 -2.03345 0
M  V30 998 H 96.6394 2.25576 -3.39969 0
M  V30 999 H 95.3144 1.25218 -3.96602 0
M  V30 1000 H 93.8914 2.57391 -2.69823 0
M  V30 1001 N 96.0765 1.50051 0.48192 0
M  V30 1002 C 97.0245 1.68635 1.60203 0
M  V30 1003 C 98.0185 0.552184 1.60148 0
M  V30 1004 O 99.2245 0.732377 1.64427 0
M  V30 1005 H 95.5995 0.532081 0.531407 0
M  V30 1006 H 97.5705 2.62616 1.41688 0
M  V30 1007 C 96.3195 1.78775 2.9822 0
M  V30 1008 H 95.6425 2.6543 2.98976 0
M  V30 1009 H 97.0825 1.95806 3.7608 0
M  V30 1010 C 95.5415 0.536849 3.32595 0
M  V30 1011 O 96.0715 -0.328897 4.00351 0
M  V30 1012 N 94.2775 0.394091 2.87915 0
M  V30 1013 H 93.8245 1.09962 2.32951 0
M  V30 1014 H 93.7825 -0.441737 3.11281 0
M  V30 1015 N 97.5546 -0.734337 1.39446 0
M  V30 1016 C 98.5026 -1.86971 1.38364 0
M  V30 1017 C 99.4966 -1.67288 0.266687 0
M  V30 1018 O 100.703 -1.74621 0.436755 0
M  V30 1019 H 97.0776 -0.615474 0.432082 0
M  V30 1020 H 99.0486 -1.85 2.34132 0
M  V30 1021 C 97.7976 -3.2466 1.24465 0
M  V30 1022 H 97.1206 -3.40402 2.09682 0
M  V30 1023 H 98.5606 -4.04292 1.27764 0
M  V30 1024 C 97.0196 -3.36867 -0.0468674 0
M  V30 1025 O 97.5496 -3.88618 -1.01681 0
M  V30 1026 N 95.7556 -2.90391 -0.110145 0
M  V30 1027 H 95.3026 -2.48466 0.679868 0
M  V30 1028 H 95.2606 -2.98939 -0.973799 0
M  V30 1029 N 99.0327 -1.24633 -0.964593 0
M  V30 1030 C 99.9647 -0.999302 -2.06268 0
M  V30 1031 C 100.978 0.0323226 -1.62768 0
M  V30 1032 O 102.167 -0.205079 -1.77318 0
M  V30 1033 C 99.2667 -0.486816 -3.35385 0
M  V30 1034 C 98.4397 -1.5823 -4.07777 0
M  V30 1035 C 97.4987 -1.07191 -5.15166 0
M  V30 1036 O 96.5247 -1.76426 -5.41168 0
M  V30 1037 N 97.7267 0.0920373 -5.80427 0
M  V30 1038 H 100.492 -1.94477 -2.28033 0
M  V30 1039 H 98.0527 -1.15704 -1.13244 0
M  V30 1040 H 100.045 -0.130066 -4.04491 0
M  V30 1041 H 98.6147 0.364459 -3.10468 0
M  V30 1042 H 97.8347 -2.11109 -3.32906 0
M  V30 1043 H 99.1227 -2.31854 -4.52903 0
M  V30 1044 H 98.5207 0.670784 -5.61709 0
M  V30 1045 H 97.0777 0.389905 -6.50633 0
M  V30 1046 N 100.511 1.16574 -1.06058 0
M  V30 1047 C 101.736 1.91493 -0.796562 0
M  V30 1048 C 102.161 1.76773 0.642868 0
M  V30 1049 O 101.519 1.09142 1.44768 0
M  V30 1050 C 101.567 3.40293 -1.19303 0
M  V30 1051 O 100.671 4.11074 -0.330394 0
M  V30 1052 H 100.012 0.596678 -0.291326 0
M  V30 1053 H 102.542 1.47708 -1.41575 0
M  V30 1054 H 102.552 3.91057 -1.16356 0
M  V30 1055 H 101.227 3.50326 -2.24153 0
M  V30 1056 H 99.8038 3.70513 -0.421225 0
M  V30 1057 N 101.989 0.842826 1.3317 0
M  V30 1058 C 103.219 0.453397 2.01564 0
M  V30 1059 C 103.627 -0.951147 1.63554 0
M  V30 1060 O 102.97 -1.63021 0.846746 0
M  V30 1061 C 103.032 0.499013 3.5602 0
M  V30 1062 C 102.696 1.86037 4.1742 0
M  V30 1063 C 103.693 2.82416 4.36506 0
M  V30 1064 C 101.378 2.15428 4.53757 0
M  V30 1065 C 103.372 4.06346 4.91082 0
M  V30 1066 C 101.059 3.39615 5.0804 0
M  V30 1067 C 102.057 4.3489 5.26649 0
M  V30 1068 O 101.745 5.5688 5.79776 0
M  V30 1069 H 101.477 0.177871 0.652179 0
M  V30 1070 H 104.031 1.13808 1.70988 0
M  V30 1071 H 102.261 -0.242467 3.85939 0
M  V30 1072 H 103.95 0.126852 4.05702 0
M  V30 1073 H 104.716 2.6101 4.08777 0
M  V30 1074 H 100.595 1.42061 4.38565 0
M  V30 1075 H 104.139 4.80722 5.05522 0
M  V30 1076 H 100.036 3.60876 5.352 0
M  V30 1077 H 100.804 5.58674 5.98185 0
M  V30 1078 N 103.467 -1.45747 0.599634 0
M  V30 1079 C 104.715 -2.01893 0.0915472 0
M  V30 1080 C 105.036 -1.47155 -1.27946 0
M  V30 1081 O 104.306 -0.66273 -1.84349 0
M  V30 1082 H 102.886 -0.746363 0.0308524 0
M  V30 1083 H 105.548 -1.78645 0.779237 0
M  V30 1084 H 104.644 -3.1208 0.0353086 0
M  V30 1085 N 104.945 -0.338344 -1.53925 0
M  V30 1086 C 106.361 0.0137736 -1.59594 0
M  V30 1087 C 106.561 1.49186 -1.35447 0
M  V30 1088 O 105.617 2.24987 -1.14616 0
M  V30 1089 C 106.93 -0.41773 -2.97784 0
M  V30 1090 C 108.478 -0.369633 -3.1081 0
M  V30 1091 C 108.953 -0.776524 -4.51369 0
M  V30 1092 N 110.444 -0.730506 -4.57403 0
M  V30 1093 C 111.179 -1.01736 -5.64303 0
M  V30 1094 N 110.675 -1.3721 -6.79077 0
M  V30 1095 N 112.468 -0.941942 -5.54151 0
M  V30 1096 H 104.619 -1.3012 -1.67876 0
M  V30 1097 H 106.882 -0.530082 -0.78595 0
M  V30 1098 H 106.588 -1.44811 -3.20504 0
M  V30 1099 H 106.462 0.209729 -3.76616 0
M  V30 1100 H 108.849 0.651568 -2.87817 0
M  V30 1101 H 108.93 -1.03223 -2.34049 0
M  V30 1102 H 108.574 -1.79571 -4.75096 0
M  V30 1103 H 108.504 -0.0914649 -5.26521 0
M  V30 1104 H 110.995 -0.468783 -3.74981 0
M  V30 1105 H 111.308 -1.57597 -7.5656 0
M  V30 1106 H 109.653 -1.4105 -6.80536 0
M  V30 1107 H 112.844 -0.664184 -4.63364 0
M  V30 1108 H 113.017 -1.16884 -6.37371 0
M  V30 1109 N 106.423 1.57458 -0.0668435 0
M  V30 1110 C 107.834 1.80776 0.466558 0
M  V30 1111 C 108.185 0.980361 1.69951 0
M  V30 1112 O 107.31 0.201441 2.1546 0
M  V30 1113 C 107.905 3.27881 0.85321 0
M  V30 1114 C 106.464 3.52062 1.3315 0
M  V30 1115 C 105.611 2.75513 0.314264 0
M  V30 1116 H 108.562 1.5598 -0.292588 0
M  V30 1117 H 108.583 3.39659 1.715 0
M  V30 1118 H 108.095 3.88075 -0.0443439 0
M  V30 1119 H 106.196 2.97167 2.24772 0
M  V30 1120 H 106.309 4.60762 1.31285 0
M  V30 1121 H 104.673 2.42123 0.790492 0
M  V30 1122 H 105.456 3.38442 -0.575477 0
M  V30 1123 N 107.901 -0.206675 1.56239 0
M  V30 1124 C 108.833 -1.27997 1.9013 0
M  V30 1125 C 109.846 -1.42299 0.790883 0
M  V30 1126 O 111.035 -1.42931 1.06925 0
M  V30 1127 C 108.135 -2.65368 2.10792 0
M  V30 1128 C 107.308 -2.72824 3.41886 0
M  V30 1129 C 106.367 -3.9131 3.51799 0
M  V30 1130 O 105.393 -3.78953 4.24716 0
M  V30 1131 N 106.595 -5.06265 2.84035 0
M  V30 1132 H 109.36 -0.992444 2.82791 0
M  V30 1133 H 106.921 -0.396652 1.56966 0
M  V30 1134 H 108.913 -3.43039 2.14724 0
M  V30 1135 H 107.483 -2.86657 1.24685 0
M  V30 1136 H 106.703 -1.81515 3.49923 0
M  V30 1137 H 107.991 -2.74786 4.28217 0
M  V30 1138 H 107.389 -5.19203 2.246 0
M  V30 1139 H 105.946 -5.81925 2.93609 0
M  V30 1140 N 109.379 -1.50304 -0.473955 0
M  V30 1141 C 110.289 -1.7174 -1.5982 0
M  V30 1142 C 111.305 -0.600457 -1.63311 0
M  V30 1143 O 112.481 -0.878441 -1.81233 0
M  V30 1144 C 109.546 -1.80427 -2.96052 0
M  V30 1145 C 108.607 -3.04148 -3.02972 0
M  V30 1146 C 107.84 -3.12411 -4.32706 0
M  V30 1147 O 108.063 -2.27542 -5.23049 0
M  V30 1148 O 106.997 -4.05113 -4.45159 0
M  V30 1149 H 110.823 -2.67035 -1.44657 0
M  V30 1150 H 108.408 -1.34366 -0.653148 0
M  V30 1151 H 110.29 -1.88338 -3.7697 0
M  V30 1152 H 108.965 -0.883156 -3.11419 0
M  V30 1153 H 107.872 -3.0174 -2.21142 0
M  V30 1154 H 109.205 -3.95829 -2.92541 0
M  V30 1155 N 110.857 0.726932 -1.39834 0
M  V30 1156 C 112.134 1.47902 -1.28001 0
M  V30 1157 C 112.514 2.1083 0.106789 0
M  V30 1158 O 111.862 1.99242 1.11869 0
M  V30 1159 C 112.072 2.52392 -2.41038 0
M  V30 1160 C 113.42 3.18546 -2.80737 0
M  V30 1161 O 114.444 2.62708 -2.40547 0
M  V30 1162 O 113.303 4.19604 -3.50135 0
M  V30 1163 H 110.397 0.657163 -0.502062 0
M  V30 1164 H 112.943 0.760071 -1.51727 0
M  V30 1165 H 111.715 2.04329 -3.33715 0
M  V30 1166 H 111.338 3.31837 -2.19021 0
M  V30 1167 N 112.336 1.25143 0.95797 0
M  V30 1168 C 113.299 1.05321 2.03569 0
M  V30 1169 C 114.299 0.007152 1.60798 0
M  V30 1170 O 115.489 0.24903 1.72411 0
M  V30 1171 C 112.621 0.598394 3.35607 0
M  V30 1172 H 113.814 2.00986 2.22586 0
M  V30 1173 H 111.367 1.07502 1.13459 0
M  V30 1174 H 112.102 -0.361014 3.22284 0
M  V30 1175 H 111.887 1.35351 3.67998 0
M  V30 1176 H 113.377 0.48104 4.1482 0
M  V30 1177 N 113.814 -1.1601 1.06675 0
M  V30 1178 C 115.06 -1.87145 0.796766 0
M  V30 1179 C 115.415 -1.8037 -0.669658 0
M  V30 1180 O 114.708 -1.21116 -1.48463 0
M  V30 1181 C 114.902 -3.35547 1.23057 0
M  V30 1182 C 114.731 -3.56769 2.73762 0
M  V30 1183 C 113.501 -3.72635 3.41279 0
M  V30 1184 C 115.699 -3.55166 3.7197 0
M  V30 1185 N 113.681 -3.81845 4.80695 0
M  V30 1186 C 115.052 -3.70406 4.97191 0
M  V30 1187 C 117.107 -3.384 3.65226 0
M  V30 1188 C 115.81 -3.70615 6.16471 0
M  V30 1189 C 117.836 -3.39904 4.83962 0
M  V30 1190 C 117.198 -3.55667 6.08013 0
M  V30 1191 H 113.297 -0.702267 0.344014 0
M  V30 1192 H 115.881 -1.39165 1.36166 0
M  V30 1193 H 114.052 -3.82159 0.693456 0
M  V30 1194 H 115.784 -3.94363 0.908844 0
M  V30 1195 H 112.539 -3.73121 2.91681 0
M  V30 1196 H 112.963 -3.90209 5.53232 0
M  V30 1197 H 117.605 -3.25138 2.70269 0
M  V30 1198 H 115.323 -3.82658 7.11757 0
M  V30 1199 H 118.909 -3.28169 4.80413 0
M  V30 1200 H 117.789 -3.56755 6.98352 0
M  V30 1201 N 115.292 -0.849877 -1.32721 0
M  V30 1202 C 116.54 -0.450032 -1.97026 0
M  V30 1203 C 116.861 0.996604 -1.67609 0
M  V30 1204 O 116.131 1.6958 -0.980786 0
M  V30 1205 H 114.711 -0.163426 -0.728904 0
M  V30 1206 H 117.373 -1.08526 -1.6189 0
M  V30 1207 H 116.469 -0.591146 -3.0645 0
M  V30 1208 N 116.77 1.45427 -0.607355 0
M  V30 1209 C 117.702 2.2871 0.149752 0
M  V30 1210 C 118.715 1.39937 0.831958 0
M  V30 1211 O 119.904 1.64313 0.697385 0
M  V30 1212 C 117.004 3.15673 1.23304 0
M  V30 1213 C 116.177 4.32722 0.637996 0
M  V30 1214 C 115.236 5.00895 1.61215 0
M  V30 1215 O 114.262 5.57697 1.13854 0
M  V30 1216 N 115.464 5.00159 2.94655 0
M  V30 1217 H 118.229 2.94328 -0.564882 0
M  V30 1218 H 115.79 1.55612 -0.446823 0
M  V30 1219 H 117.782 3.58144 1.88454 0
M  V30 1220 H 116.352 2.51965 1.8502 0
M  V30 1221 H 115.572 3.93734 -0.191572 0
M  V30 1222 H 116.86 5.08321 0.220665 0
M  V30 1223 H 116.258 4.553 3.35735 0
M  V30 1224 H 114.815 5.46495 3.55228 0
M  V30 1225 N 118.248 0.346503 1.53744 0
M  V30 1226 C 119.196 -0.52422 2.26616 0
M  V30 1227 C 120.19 -1.09948 1.28871 0
M  V30 1228 O 121.396 -1.04488 1.46568 0
M  V30 1229 H 117.771 -0.187743 0.728187 0
M  V30 1230 H 119.742 0.11239 2.98188 0
M  V30 1231 C 118.491 -1.66186 3.05414 0
M  V30 1232 H 117.814 -1.22848 3.80458 0
M  V30 1233 H 119.254 -2.24622 3.59612 0
M  V30 1234 C 117.713 -2.59302 2.1509 0
M  V30 1235 O 118.243 -3.61628 1.74895 0
M  V30 1236 N 116.449 -2.28055 1.8011 0
M  V30 1237 H 115.996 -1.44883 2.12994 0
M  V30 1238 H 115.954 -2.90615 1.19958 0
M  V30 1239 N 119.726 -1.57421 0.075193 0
M  V30 1240 C 120.975 -1.92794 -0.592731 0
M  V30 1241 C 121.288 -0.957478 -1.70563 0
M  V30 1242 O 122.494 -1.20417 -2.43335 0
M  V30 1243 C 120.95 -3.42495 -1.10569 0
M  V30 1244 C 120.558 -4.47994 -0.0236121 0
M  V30 1245 C 122.302 -3.86864 -1.74748 0
M  V30 1246 C 120.209 -5.88829 -0.550803 0
M  V30 1247 H 119.139 -0.719591 -0.225177 0
M  V30 1248 H 121.79 -1.82902 0.147978 0
M  V30 1249 H 120.172 -3.47471 -1.89947 0
M  V30 1250 H 121.346 -4.54637 0.751099 0
M  V30 1251 H 119.661 -4.13113 0.522159 0
M  V30 1252 H 122.258 -4.8947 -2.15229 0
M  V30 1253 H 122.601 -3.24417 -2.60882 0
M  V30 1254 H 123.134 -3.84504 -1.01986 0
M  V30 1255 H 119.873 -6.54929 0.273457 0
M  V30 1256 H 119.393 -5.85698 -1.29296 0
M  V30 1257 H 121.072 -6.38811 -1.02613 0
M  V30 1258 N 121.204 0.198386 -1.56346 0
M  V30 1259 C 122.452 0.91747 -1.80075 0
M  V30 1260 C 122.773 1.83929 -0.647692 0
M  V30 1261 O 122.043 1.93029 0.334166 0
M  V30 1262 H 120.623 0.341774 -0.664228 0
M  V30 1263 H 123.285 0.204684 -1.93822 0
M  V30 1264 H 122.381 1.51055 -2.7311 0
M  V30 1265 N 122.682 1.50554 0.465978 0
M  V30 1266 C 123.91 1.65563 1.24083 0
M  V30 1267 C 124.325 0.341051 1.85694 0
M  V30 1268 O 123.682 -0.677543 1.69457 0
M  V30 1269 C 123.733 2.75051 2.34583 0
M  V30 1270 O 123.454 4.01413 1.75497 0
M  V30 1271 C 124.955 3.01078 3.25372 0
M  V30 1272 H 122.175 0.55638 0.375077 0
M  V30 1273 H 124.719 1.96807 0.555624 0
M  V30 1274 H 122.874 2.46486 2.9887 0
M  V30 1275 H 123.288 4.62002 2.48303 0
M  V30 1276 H 124.762 3.81339 3.99105 0
M  V30 1277 H 125.239 2.12349 3.84453 0
M  V30 1278 H 125.845 3.31194 2.66816 0
M  V30 1279 N 124.16 -0.719506 1.40217 0
M  V30 1280 C 125.407 -1.47933 1.38283 0
M  V30 1281 C 125.735 -1.94493 -0.0161536 0
M  V30 1282 O 124.99 -1.68224 -0.999956 0
M  V30 1283 C 125.289 -2.72271 2.31524 0
M  V30 1284 C 124.955 -2.44496 3.78857 0
M  V30 1285 C 123.617 -2.36631 4.18998 0
M  V30 1286 C 125.969 -2.21104 4.71977 0
M  V30 1287 C 123.297 -2.03437 5.503 0
M  V30 1288 C 125.649 -1.89423 6.03574 0
M  V30 1289 C 124.313 -1.80038 6.42762 0
M  V30 1290 H 123.583 -0.541325 0.506012 0
M  V30 1291 H 126.23 -0.824502 1.72842 0
M  V30 1292 H 124.535 -3.42572 1.90137 0
M  V30 1293 H 126.232 -3.30348 2.27313 0
M  V30 1294 H 122.822 -2.51503 3.47051 0
M  V30 1295 H 127.006 -2.26139 4.41786 0
M  V30 1296 H 122.262 -1.94705 5.79569 0
M  V30 1297 H 126.436 -1.70336 6.75247 0
M  V30 1298 H 124.063 -1.54083 7.44421 0
M  V30 1299 N 125.638 -1.25649 -0.95132 0
M  V30 1300 C 126.588 -1.03004 -2.03406 0
M  V30 1301 C 127.572 0.034187 -1.60864 0
M  V30 1302 O 128.764 -0.181549 -1.76066 0
M  V30 1303 C 125.893 -0.654255 -3.37008 0
M  V30 1304 C 124.979 -1.75542 -3.86065 0
M  V30 1305 N 125.37 -2.99113 -4.07879 0
M  V30 1306 C 123.668 -1.63669 -4.14884 0
M  V30 1307 C 124.369 -3.70611 -4.48356 0
M  V30 1308 N 123.345 -2.98247 -4.54477 0
M  V30 1309 H 127.147 -1.96813 -2.1827 0
M  V30 1310 H 124.661 -1.16017 -1.13639 0
M  V30 1311 H 126.658 -0.473206 -4.14206 0
M  V30 1312 H 125.318 0.276468 -3.23521 0
M  V30 1313 H 126.329 -3.35124 -3.94857 0
M  V30 1314 H 123.006 -0.775161 -4.10241 0
M  V30 1315 H 124.396 -4.76695 -4.73509 0
M  V30 1316 N 127.117 1.15442 -1.07289 0
M  V30 1317 C 128.365 1.85845 -0.794096 0
M  V30 1318 C 128.686 1.82692 0.681809 0
M  V30 1319 O 127.956 1.26741 1.49377 0
M  V30 1320 H 126.536 0.688089 -0.290763 0
M  V30 1321 H 129.198 1.39947 -1.3565 0
M  V30 1322 H 128.294 2.91001 -1.12804 0
M  V30 1323 N 128.595 0.856903 1.32268 0
M  V30 1324 C 129.843 0.460474 1.96784 0
M  V30 1325 C 130.164 -0.987701 1.68135 0
M  V30 1326 O 129.434 -1.69058 0.989765 0
M  V30 1327 H 128.014 0.167289 0.728027 0
M  V30 1328 H 130.676 1.09383 1.61312 0
M  V30 1329 H 129.772 0.60739 3.06133 0
M  V30 1330 N 130.073 -1.45103 0.615059 0
M  V30 1331 C 131.35 -1.95549 0.0448276 0
M  V30 1332 C 131.73 -1.55737 -1.4251 0
M  V30 1333 O 131.078 -0.823556 -2.13143 0
M  V30 1334 C 131.288 -3.48098 0.250785 0
M  V30 1335 C 132.636 -4.24384 0.135509 0
M  V30 1336 O 133.66 -3.55738 0.181299 0
M  V30 1337 O 132.519 -5.46493 0.0268878 0
M  V30 1338 H 129.613 -0.8264 -0.0314845 0
M  V30 1339 H 132.159 -1.55232 0.685642 0
M  V30 1340 H 130.931 -3.7007 1.27139 0
M  V30 1341 H 130.554 -3.95323 -0.424937 0
M  V30 1342 N 131.551 -0.354651 -1.53558 0
M  V30 1343 C 132.481 0.489091 -2.2832 0
M  V30 1344 C 133.462 1.09324 -1.30316 0
M  V30 1345 O 134.647 1.11255 -1.59173 0
M  V30 1346 C 131.777 1.63456 -3.0643 0
M  V30 1347 C 130.731 1.1582 -4.12031 0
M  V30 1348 C 130.057 2.39305 -4.7816 0
M  V30 1349 C 131.357 0.250731 -5.21698 0
M  V30 1350 H 133.051 -0.134614 -2.99097 0
M  V30 1351 H 130.597 -0.0661826 -1.43848 0
M  V30 1352 H 132.55 2.23136 -3.57475 0
M  V30 1353 H 131.274 2.28533 -2.33325 0
M  V30 1354 H 129.933 0.584146 -3.61916 0
M  V30 1355 H 129.581 3.02814 -4.01637 0
M  V30 1356 H 129.281 2.08109 -5.49513 0
M  V30 1357 H 130.805 2.99691 -5.31994 0
M  V30 1358 H 132.219 0.754695 -5.68311 0
M  V30 1359 H 130.616 0.0301468 -6.00092 0
M  V30 1360 H 131.686 -0.710125 -4.79672 0
M  V30 1361 N 133.029 1.57378 -0.0835403 0
M  V30 1362 C 133.961 2.10389 0.909338 0
M  V30 1363 C 134.974 1.03858 1.25369 0
M  V30 1364 O 136.163 1.31338 1.20882 0
M  V30 1365 C 133.263 2.55908 2.2218 0
M  V30 1366 C 132.436 3.86145 2.05453 0
M  V30 1367 C 131.495 4.17633 3.20108 0
M  V30 1368 O 130.521 4.87043 2.94581 0
M  V30 1369 N 131.723 3.72113 4.45547 0
M  V30 1370 H 134.488 2.962 0.456657 0
M  V30 1371 H 132.049 1.61579 0.101877 0
M  V30 1372 H 134.041 2.74027 2.97811 0
M  V30 1373 H 132.611 1.75171 2.58909 0
M  V30 1374 H 131.831 3.7729 1.1422 0
M  V30 1375 H 133.119 4.7137 1.91541 0
M  V30 1376 H 132.517 3.16062 4.69171 0
M  V30 1377 H 131.074 3.95409 5.18165 0
M  V30 1378 N 134.507 -0.190092 1.56449 0
M  V30 1379 C 135.755 -0.907908 1.80559 0
M  V30 1380 C 136.076 -1.83583 0.657438 0
M  V30 1381 O 135.346 -1.93203 -0.323924 0
M  V30 1382 H 133.926 -0.338247 0.666032 0
M  V30 1383 H 136.588 -0.194403 1.93928 0
M  V30 1384 H 135.684 -1.49604 2.73907 0
M  V30 1385 N 135.985 -1.50799 -0.457987 0
M  V30 1386 C 136.915 -1.73553 -1.5621 0
M  V30 1387 C 137.896 -0.584774 -1.59732 0
M  V30 1388 O 139.081 -0.825314 -1.7579 0
M  V30 1389 C 136.211 -1.84169 -2.94447 0
M  V30 1390 C 135.165 -2.99461 -3.0579 0
M  V30 1391 C 134.491 -2.95235 -4.45803 0
M  V30 1392 C 135.791 -4.39766 -2.81786 0
M  V30 1393 H 137.485 -2.66 -1.37421 0
M  V30 1394 H 135.031 -1.28002 -0.659662 0
M  V30 1395 H 136.984 -1.98672 -3.71628 0
M  V30 1396 H 135.708 -0.883545 -3.14422 0
M  V30 1397 H 134.367 -2.8463 -2.31044 0
M  V30 1398 H 134.015 -1.97239 -4.62715 0
M  V30 1399 H 133.715 -3.72642 -4.54326 0
M  V30 1400 H 135.239 -3.11803 -5.24987 0
M  V30 1401 H 136.653 -4.55054 -3.4871 0
M  V30 1402 H 135.05 -5.18722 -3.0174 0
M  V30 1403 H 136.12 -4.51229 -1.7754 0
M  V30 1404 N 137.463 0.71206 -1.40597 0
M  V30 1405 C 138.691 1.50111 -1.42388 0
M  V30 1406 C 139.106 1.88784 -0.0245395 0
M  V30 1407 O 138.463 1.55681 0.952351 0
M  V30 1408 C 138.514 2.7742 -2.31776 0
M  V30 1409 O 138.235 2.40382 -3.66262 0
M  V30 1410 C 139.736 3.7129 -2.42196 0
M  V30 1411 H 136.956 0.46314 -0.485533 0
M  V30 1412 H 139.5 0.878068 -1.8469 0
M  V30 1413 H 137.655 3.36001 -1.92827 0
M  V30 1414 H 138.069 3.22324 -4.13772 0
M  V30 1415 H 139.543 4.57448 -3.08943 0
M  V30 1416 H 140.02 4.14641 -1.44809 0
M  V30 1417 H 140.626 3.18619 -2.81712 0
M  V30 1418 N 138.941 1.26152 0.944643 0
M  V30 1419 C 140.218 1.02247 1.66748 0
M  V30 1420 C 140.598 -0.448202 2.06287 0
M  V30 1421 O 139.946 -1.42779 1.78399 0
M  V30 1422 C 140.156 1.96788 2.88228 0
M  V30 1423 C 141.504 2.25201 3.59958 0
M  V30 1424 O 142.528 1.94626 2.98327 0
M  V30 1425 O 141.387 2.77242 4.70956 0
M  V30 1426 H 138.481 0.388517 0.730057 0
M  V30 1427 H 141.027 1.37348 0.99668 0
M  V30 1428 H 139.799 2.96047 2.55875 0
M  V30 1429 H 139.422 1.62145 3.63035 0
M  V30 1430 N 140.419 -1.14872 1.07899 0
M  V30 1431 C 141.366 -2.19791 0.704319 0
M  V30 1432 C 142.336 -1.63238 -0.306987 0
M  V30 1433 O 143.521 -1.8983 -0.192171 0
M  V30 1434 C 140.661 -3.44911 0.114244 0
M  V30 1435 C 139.774 -4.15637 1.1777 0
M  V30 1436 C 138.909 -5.28324 0.552037 0
M  V30 1437 C 137.948 -5.90875 1.59789 0
M  V30 1438 N 137.085 -6.95022 0.994404 0
M  V30 1439 H 141.925 -2.5119 1.60336 0
M  V30 1440 H 139.462 -1.23356 0.801352 0
M  V30 1441 H 141.42 -4.16477 -0.245544 0
M  V30 1442 H 140.05 -3.14011 -0.74813 0
M  V30 1443 H 139.102 -3.42512 1.65499 0
M  V30 1444 H 140.414 -4.5823 1.97046 0
M  V30 1445 H 139.568 -6.06538 0.1402 0
M  V30 1446 H 138.307 -4.86939 -0.272431 0
M  V30 1447 H 137.312 -5.11369 2.01945 0
M  V30 1448 H 138.537 -6.34337 2.42474 0
M  V30 1449 H 136.483 -6.55722 0.190939 0
M  V30 1450 H 136.4 -7.36073 1.72432 0
M  V30 1451 H 137.668 -7.77123 0.608253 0
M  V30 1452 N 141.898 -0.863906 -1.31812 0
M  V30 1453 C 142.828 -0.330843 -2.31144 0
M  V30 1454 C 143.809 0.575005 -1.60087 0
M  V30 1455 O 144.994 0.493304 -1.8783 0
M  V30 1456 C 142.124 0.47374 -3.44054 0
M  V30 1457 C 141.078 -0.338481 -4.26659 0
M  V30 1458 C 140.404 0.591412 -5.31419 0
M  V30 1459 C 141.704 -1.56926 -4.98168 0
M  V30 1460 H 143.398 -1.16086 -2.75979 0
M  V30 1461 H 140.944 -0.559657 -1.32679 0
M  V30 1462 H 142.897 0.857143 -4.12591 0
M  V30 1463 H 141.621 1.33721 -2.9797 0
M  V30 1464 H 140.28 -0.703754 -3.59782 0
M  V30 1465 H 139.928 1.45199 -4.81587 0
M  V30 1466 H 139.628 0.0519022 -5.87577 0
M  V30 1467 H 141.152 0.97179 -6.02817 0
M  V30 1468 H 142.566 -1.25764 -5.59336 0
M  V30 1469 H 140.963 -2.04739 -5.64094 0
M  V30 1470 H 142.033 -2.32544 -4.25501 0
M  V30 1471 N 143.376 1.44774 -0.622745 0
M  V30 1472 C 144.324 2.32387 0.0994683 0
M  V30 1473 C 145.318 1.46859 0.844326 0
M  V30 1474 O 146.524 1.63254 0.758174 0
M  V30 1475 H 142.899 0.750273 0.0509291 0
M  V30 1476 H 144.87 2.91062 -0.65767 0
M  V30 1477 C 143.619 3.30723 1.07319 0
M  V30 1478 H 142.942 3.96541 0.509462 0
M  V30 1479 H 144.382 3.94725 1.54817 0
M  V30 1480 C 142.841 2.59021 2.15429 0
M  V30 1481 O 143.371 2.38286 3.23393 0
M  V30 1482 N 141.577 2.189 1.91131 0
M  V30 1483 H 141.124 2.35964 1.03337 0
M  V30 1484 H 141.082 1.71251 2.63668 0
M  V30 1485 N 144.854 0.36279 1.53368 0
M  V30 1486 C 145.764 -0.492994 2.29362 0
M  V30 1487 C 146.78 -1.09507 1.35219 0
M  V30 1488 O 147.956 -1.10662 1.68273 0
M  V30 1489 C 145.021 -1.61855 3.066 0
M  V30 1490 C 144.082 -1.04429 4.16405 0
M  V30 1491 C 143.315 -2.11621 4.89951 0
M  V30 1492 O 143.538 -3.32684 4.63333 0
M  V30 1493 O 142.472 -1.74835 5.75948 0
M  V30 1494 H 146.298 0.125331 3.03441 0
M  V30 1495 H 143.883 0.127253 1.48857 0
M  V30 1496 H 145.765 -2.27302 3.54841 0
M  V30 1497 H 144.44 -2.22233 2.3536 0
M  V30 1498 H 143.347 -0.353819 3.72423 0
M  V30 1499 H 144.68 -0.485113 4.89804 0
M  V30 1500 N 146.332 -1.57332 0.0918853 0
M  V30 1501 C 147.58 -1.93853 -0.571446 0
M  V30 1502 C 147.901 -0.974212 -1.6892 0
M  V30 1503 O 147.171 -0.0257254 -1.95883 0
M  V30 1504 H 145.751 -0.715666 -0.214082 0
M  V30 1505 H 148.413 -1.94287 0.154464 0
M  V30 1506 H 147.509 -2.96191 -0.983729 0
M  V30 1507 N 147.81 0.181792 -1.56548 0
M  V30 1508 C 149.04 0.914618 -1.85252 0
M  V30 1509 C 149.448 1.76791 -0.673914 0
M  V30 1510 O 148.791 1.80009 0.366416 0
M  V30 1511 C 148.853 1.85019 -3.08234 0
M  V30 1512 C 148.517 1.17754 -4.41569 0
M  V30 1513 C 149.514 0.548035 -5.17003 0
M  V30 1514 C 147.199 1.17742 -4.88305 0
M  V30 1515 C 149.193 -0.0726128 -6.37359 0
M  V30 1516 C 146.88 0.552946 -6.08593 0
M  V30 1517 C 147.878 -0.070978 -6.82963 0
M  V30 1518 O 147.566 -0.685635 -8.00971 0
M  V30 1519 H 147.298 0.271695 -0.618998 0
M  V30 1520 H 149.852 0.189944 -2.0452 0
M  V30 1521 H 148.082 2.61491 -2.84885 0
M  V30 1522 H 149.771 2.45195 -3.23472 0
M  V30 1523 H 150.537 0.540174 -4.81982 0
M  V30 1524 H 146.416 1.65246 -4.30366 0
M  V30 1525 H 149.96 -0.560213 -6.95347 0
M  V30 1526 H 145.857 0.558354 -6.43081 0
M  V30 1527 H 146.625 -0.58385 -8.16415 0
M  V30 1528 N 149.288 1.51039 0.449983 0
M  V30 1529 C 150.535 1.63081 1.20045 0
M  V30 1530 C 150.863 0.341024 1.91487 0
M  V30 1531 O 150.118 -0.674276 1.83717 0
M  V30 1532 C 150.417 2.77556 2.25161 0
M  V30 1533 C 150.083 4.17289 1.70823 0
M  V30 1534 C 148.745 4.55305 1.55725 0
M  V30 1535 C 151.097 5.04536 1.3074 0
M  V30 1536 C 148.425 5.78287 0.989999 0
M  V30 1537 C 150.777 6.28085 0.754482 0
M  V30 1538 C 149.441 6.64885 0.590308 0
M  V30 1539 H 148.711 0.596755 0.439277 0
M  V30 1540 H 151.358 1.85037 0.49333 0
M  V30 1541 H 149.663 2.49771 3.01863 0
M  V30 1542 H 151.36 2.84073 2.83026 0
M  V30 1543 H 147.95 3.8731 1.83546 0
M  V30 1544 H 152.134 4.75782 1.41229 0
M  V30 1545 H 147.39 6.05456 0.850451 0
M  V30 1546 H 151.564 6.95038 0.435324 0
M  V30 1547 H 149.191 7.60055 0.14862 0
M  V30 1548 N 150.766 -0.704594 1.40972 0
M  V30 1549 C 151.994 -1.49354 1.43182 0
M  V30 1550 C 152.409 -1.88768 0.0345508 0
M  V30 1551 O 151.766 -1.56184 -0.944081 0
M  V30 1552 C 151.817 -2.76187 2.33244 0
M  V30 1553 O 151.538 -2.38436 3.67532 0
M  V30 1554 C 153.039 -3.7 2.44162 0
M  V30 1555 H 150.259 -0.460559 0.487982 0
M  V30 1556 H 152.803 -0.868261 1.85153 0
M  V30 1557 H 150.958 -3.34974 1.94606 0
M  V30 1558 H 151.372 -3.20126 4.15475 0
M  V30 1559 H 152.846 -4.55803 3.11364 0
M  V30 1560 H 153.323 -4.13867 1.47006 0
M  V30 1561 H 153.929 -3.17121 2.83398 0
M  V30 1562 N 152.244 -1.26651 -0.937939 0
M  V30 1563 C 153.154 -1.10276 -2.07066 0
M  V30 1564 C 154.17 -0.0354197 -1.73964 0
M  V30 1565 O 155.346 -0.239816 -1.99967 0
M  V30 1566 C 152.411 -0.740887 -3.38691 0
M  V30 1567 C 151.472 -1.88799 -3.85556 0
M  V30 1568 C 150.705 -1.54329 -5.10899 0
M  V30 1569 O 150.928 -0.446494 -5.6865 0
M  V30 1570 O 149.862 -2.37911 -5.52885 0
M  V30 1571 H 153.688 -2.05309 -2.23789 0
M  V30 1572 H 151.273 -1.05743 -1.0554 0
M  V30 1573 H 153.155 -0.55195 -4.1777 0
M  V30 1574 H 151.83 0.180022 -3.23199 0
M  V30 1575 H 150.737 -2.13191 -3.07409 0
M  V30 1576 H 152.07 -2.78874 -4.05574 0
M  V30 1577 N 153.722 1.14298 -1.08507 0
M  V30 1578 C 154.652 2.21542 -0.737646 0
M  V30 1579 C 155.633 1.67773 0.280377 0
M  V30 1580 O 156.818 1.93616 0.150521 0
M  V30 1581 C 153.948 3.46988 -0.147259 0
M  V30 1582 C 152.902 4.13789 -1.09374 0
M  V30 1583 C 152.228 5.33449 -0.365524 0
M  V30 1584 C 153.528 4.62208 -2.4323 0
M  V30 1585 H 155.222 2.5086 -1.6343 0
M  V30 1586 H 152.768 1.20576 -0.787243 0
M  V30 1587 H 154.721 4.21262 0.107808 0
M  V30 1588 H 153.445 3.17037 0.784538 0
M  V30 1589 H 152.104 3.4147 -1.33393 0
M  V30 1590 H 151.752 4.99759 0.57011 0
M  V30 1591 H 151.452 5.79088 -0.996512 0
M  V30 1592 H 152.976 6.10485 -0.118534 0
M  V30 1593 H 154.39 5.27952 -2.23472 0
M  V30 1594 H 152.787 5.18553 -3.02031 0
M  V30 1595 H 153.857 3.77224 -3.04681 0
M  V30 1596 N 155.201 0.870884 1.31352 0
M  V30 1597 C 156.449 0.48132 1.96285 0
M  V30 1598 C 156.77 -0.969813 1.69173 0
M  V30 1599 O 156.04 -1.67998 1.00764 0
M  V30 1600 H 154.62 0.175002 0.726212 0
M  V30 1601 H 157.282 1.11087 1.60143 0
M  V30 1602 H 156.378 0.639825 3.05471 0
M  V30 1603 N 156.679 -1.44442 0.630414 0
M  V30 1604 C 157.928 -2.01267 0.132073 0
M  V30 1605 C 158.241 -1.50172 -1.25331 0
M  V30 1606 O 159.447 -1.9912 -1.84562 0
M  V30 1607 C 157.903 -3.59422 0.185362 0
M  V30 1608 C 157.511 -4.19514 1.57201 0
M  V30 1609 C 159.255 -4.23724 -0.256553 0
M  V30 1610 C 157.162 -5.69891 1.58045 0
M  V30 1611 H 156.092 -0.752619 0.0456092 0
M  V30 1612 H 158.743 -1.65666 0.789106 0
M  V30 1613 H 157.125 -3.92318 -0.538759 0
M  V30 1614 H 158.299 -3.98156 2.31966 0
M  V30 1615 H 156.614 -3.67496 1.95795 0
M  V30 1616 H 159.211 -5.34019 -0.269767 0
M  V30 1617 H 159.554 -3.96013 -1.28372 0
M  V30 1618 H 160.087 -3.95629 0.41505 0
M  V30 1619 H 156.826 -6.02336 2.58597 0
M  V30 1620 H 156.346 -5.93373 0.875725 0
M  V30 1621 H 158.025 -6.33515 1.31408 0
M  V30 1622 N 158.157 -0.370918 -1.53173 0
M  V30 1623 C 159.105 0.488101 -2.27421 0
M  V30 1624 C 160.099 1.07884 -1.30604 0
M  V30 1625 O 161.305 1.02143 -1.48212 0
M  V30 1626 H 157.68 0.176134 -0.731082 0
M  V30 1627 H 159.651 -0.159815 -2.97972 0
M  V30 1628 C 158.4 1.61306 -3.08019 0
M  V30 1629 H 157.723 1.1678 -3.82364 0
M  V30 1630 H 159.163 2.18872 -3.63141 0
M  V30 1631 C 157.622 2.55848 -2.19188 0
M  V30 1632 O 158.152 3.58799 -1.80626 0
M  V30 1633 N 156.358 2.2516 -1.83715 0
M  V30 1634 H 155.905 1.41476 -2.15273 0
M  V30 1635 H 155.863 2.8867 -1.24567 0
M  V30 1636 N 159.635 1.57281 -0.100228 0
M  V30 1637 C 160.598 2.13158 0.842398 0
M  V30 1638 C 161.598 1.06202 1.20738 0
M  V30 1639 O 162.788 1.32066 1.13597 0
M  V30 1640 C 159.92 2.65639 2.13655 0
M  V30 1641 H 161.113 2.97766 0.357114 0
M  V30 1642 H 158.666 1.5559 0.148823 0
M  V30 1643 H 159.401 1.84566 2.66657 0
M  V30 1644 H 159.186 3.43844 1.88451 0
M  V30 1645 H 160.676 3.08846 2.81077 0
M  V30 1646 N 161.113 -0.173488 1.56642 0
M  V30 1647 C 162.362 -0.888758 1.81063 0
M  V30 1648 C 162.675 -1.83506 0.67712 0
M  V30 1649 O 163.881 -2.59254 0.806206 0
M  V30 1650 C 162.337 -1.63091 3.20826 0
M  V30 1651 C 161.945 -0.728357 4.4204 0
M  V30 1652 C 163.689 -2.33454 3.54541 0
M  V30 1653 C 161.596 -1.47062 5.72823 0
M  V30 1654 H 160.526 -0.335618 0.675186 0
M  V30 1655 H 163.177 -0.141712 1.82952 0
M  V30 1656 H 161.559 -2.42263 3.13248 0
M  V30 1657 H 162.733 0.0262449 4.60793 0
M  V30 1658 H 161.048 -0.134492 4.16183 0
M  V30 1659 H 163.645 -2.89578 4.49498 0
M  V30 1660 H 163.988 -3.08687 2.79317 0
M  V30 1661 H 164.521 -1.61227 3.63663 0
M  V30 1662 H 161.26 -0.760658 6.51072 0
M  V30 1663 H 160.78 -2.1986 5.58052 0
M  V30 1664 H 162.459 -2.01868 6.14702 0
M  V30 1665 N 162.591 -1.51276 -0.441967 0
M  V30 1666 C 163.837 -1.6492 -1.1905 0
M  V30 1667 C 164.192 -0.358731 -1.89026 0
M  V30 1668 O 163.485 0.645193 -1.8041 0
M  V30 1669 C 163.679 -2.78746 -2.23686 0
M  V30 1670 C 163.508 -4.18737 -1.63979 0
M  V30 1671 C 162.278 -4.84739 -1.42674 0
M  V30 1672 C 164.476 -5.01988 -1.11858 0
M  V30 1673 N 162.458 -6.08858 -0.785159 0
M  V30 1674 C 163.829 -6.17071 -0.601989 0
M  V30 1675 C 165.884 -4.87551 -1.0099 0
M  V30 1676 C 164.587 -7.19299 0.0126012 0
M  V30 1677 C 166.613 -5.89983 -0.409206 0
M  V30 1678 C 165.975 -7.04333 0.0968651 0
M  V30 1679 H 162.074 -0.657416 -0.423471 0
M  V30 1680 H 164.658 -1.8849 -0.48782 0
M  V30 1681 H 162.829 -2.56848 -2.91348 0
M  V30 1682 H 164.561 -2.81595 -2.90666 0
M  V30 1683 H 161.316 -4.42528 -1.68719 0
M  V30 1684 H 161.74 -6.75282 -0.481942 0
M  V30 1685 H 166.382 -3.99401 -1.38703 0
M  V30 1686 H 164.1 -8.071 0.401879 0
M  V30 1687 H 167.686 -5.8088 -0.327079 0
M  V30 1688 H 166.566 -7.82238 0.554373 0
M  V30 1689 N 164.069 0.697108 -1.41344 0
M  V30 1690 C 165.318 1.45279 -1.39918 0
M  V30 1691 C 165.631 1.95597 -0.0109624 0
M  V30 1692 O 166.837 2.71208 0.125919 0
M  V30 1693 C 165.293 2.62695 -2.46007 0
M  V30 1694 C 164.901 2.19169 -3.90729 0
M  V30 1695 C 166.645 3.40336 -2.53715 0
M  V30 1696 C 164.552 3.33535 -4.88373 0
M  V30 1697 H 163.482 0.545692 -0.520323 0
M  V30 1698 H 166.133 0.756929 -1.67161 0
M  V30 1699 H 164.515 3.34541 -2.11892 0
M  V30 1700 H 165.689 1.54623 -4.34083 0
M  V30 1701 H 164.004 1.54525 -3.86666 0
M  V30 1702 H 166.601 4.2547 -3.2385 0
M  V30 1703 H 166.944 3.85418 -1.5735 0
M  V30 1704 H 167.477 2.75546 -2.86913 0
M  V30 1705 H 164.216 2.93468 -5.86137 0
M  V30 1706 H 163.736 3.96936 -4.49668 0
M  V30 1707 H 165.415 3.99335 -5.09059 0
M  V30 1708 N 165.547 1.27147 0.931209 0
M  V30 1709 C 166.775 1.16082 1.71267 0
M  V30 1710 C 167.19 -0.282772 1.8667 0
M  V30 1711 O 166.547 -1.19283 1.38122 0
M  V30 1712 C 166.598 1.8358 3.11417 0
M  V30 1713 O 166.319 3.22299 2.96741 0
M  V30 1714 C 167.82 1.78597 4.05732 0
M  V30 1715 H 165.04 0.403758 0.535929 0
M  V30 1716 H 167.584 1.67953 1.16671 0
M  V30 1717 H 165.739 1.35623 3.62885 0
M  V30 1718 H 166.153 3.55851 3.85319 0
M  V30 1719 H 167.627 2.30444 5.01597 0
M  V30 1720 H 168.104 0.754564 4.3267 0
M  V30 1721 H 168.71 2.26152 3.60188 0
M  V30 1722 N 167.025 -1.13721 1.09112 0
M  V30 1723 C 167.988 -2.17222 0.731241 0
M  V30 1724 C 168.988 -1.59035 -0.237566 0
M  V30 1725 O 170.178 -1.74192 -0.0161704 0
M  V30 1726 C 167.31 -3.40804 0.0808443 0
M  V30 1727 H 168.503 -2.50573 1.64783 0
M  V30 1728 H 166.056 -1.28493 0.889897 0
M  V30 1729 H 166.791 -3.1304 -0.847127 0
M  V30 1730 H 166.576 -3.84306 0.777896 0
M  V30 1731 H 168.066 -4.1731 -0.155657 0
M  V30 1732 N 168.503 -0.877838 -1.30888 0
M  V30 1733 C 169.914 -0.544193 -1.78593 0
M  V30 1734 C 170.265 0.939301 -1.72254 0
M  V30 1735 O 169.39 1.7337 -1.29505 0
M  V30 1736 C 169.985 -0.98105 -3.24285 0
M  V30 1737 C 168.544 -0.698935 -3.69854 0
M  V30 1738 C 167.691 -1.168 -2.51502 0
M  V30 1739 H 170.642 -1.06278 -1.17859 0
M  V30 1740 H 170.663 -0.307009 -3.79259 0
M  V30 1741 H 170.175 -2.06079 -3.28866 0
M  V30 1742 H 168.276 0.369112 -3.70767 0
M  V30 1743 H 168.389 -1.28148 -4.61644 0
M  V30 1744 H 166.753 -0.587535 -2.47831 0
M  V30 1745 H 167.536 -2.25533 -2.58824 0
M  V30 1746 N 169.982 1.44106 -0.638065 0
M  V30 1747 C 171.212 2.06037 -0.152394 0
M  V30 1748 C 171.62 1.47808 1.18108 0
M  V30 1749 O 170.963 0.598092 1.73691 0
M  V30 1750 C 171.025 3.59488 0.0293714 0
M  V30 1751 C 170.689 4.4022 -1.22702 0
M  V30 1752 C 171.686 4.73256 -2.15232 0
M  V30 1753 C 169.371 4.8048 -1.46437 0
M  V30 1754 C 171.365 5.45444 -3.29802 0
M  V30 1755 C 169.052 5.52417 -2.61303 0
M  V30 1756 C 170.05 5.84819 -3.52811 0
M  V30 1757 O 169.738 6.55289 -4.65673 0
M  V30 1758 H 169.47 0.671233 -0.0801401 0
M  V30 1759 H 172.024 1.85851 -0.874563 0
M  V30 1760 H 170.254 3.78191 0.806758 0
M  V30 1761 H 171.943 4.03164 0.470475 0
M  V30 1762 H 172.709 4.42684 -1.98131 0
M  V30 1763 H 168.588 4.54676 -0.760977 0
M  V30 1764 H 172.132 5.70653 -4.01249 0
M  V30 1765 H 168.029 5.82404 -2.78344 0
M  V30 1766 H 168.797 6.73762 -4.64744 0
M  V30 1767 N 171.46 0.379036 1.52974 0
M  V30 1768 C 172.37 -0.468639 2.29872 0
M  V30 1769 C 173.386 -1.08067 1.36373 0
M  V30 1770 O 174.562 -1.08871 1.69438 0
M  V30 1771 C 171.627 -1.58594 3.083 0
M  V30 1772 C 170.688 -1.00007 4.17489 0
M  V30 1773 C 169.921 -2.06413 4.92168 0
M  V30 1774 O 170.144 -3.27751 4.66835 0
M  V30 1775 O 169.078 -1.68717 5.7777 0
M  V30 1776 H 172.904 0.157508 3.03291 0
M  V30 1777 H 170.489 0.143035 1.48714 0
M  V30 1778 H 172.371 -2.23525 3.57232 0
M  V30 1779 H 171.046 -2.19724 2.37703 0
M  V30 1780 H 169.953 -0.314299 3.72777 0
M  V30 1781 H 171.286 -0.433135 4.90291 0
M  V30 1782 N 172.938 -1.57226 0.108567 0
M  V30 1783 C 173.87 -2.11809 -0.875752 0
M  V30 1784 C 174.883 -1.05839 -1.23701 0
M  V30 1785 O 176.072 -1.33245 -1.18778 0
M  V30 1786 C 173.172 -2.59411 -2.18081 0
M  V30 1787 C 172.345 -3.89364 -1.99284 0
M  V30 1788 C 171.404 -4.22672 -3.13424 0
M  V30 1789 O 170.43 -4.91668 -2.86795 0
M  V30 1790 N 171.632 -3.79154 -4.3957 0
M  V30 1791 H 174.397 -2.9689 -0.409477 0
M  V30 1792 H 171.958 -1.61721 -0.076158 0
M  V30 1793 H 173.95 -2.7873 -2.93414 0
M  V30 1794 H 172.52 -1.79268 -2.5609 0
M  V30 1795 H 171.74 -3.79059 -1.08203 0
M  V30 1796 H 173.028 -4.74358 -1.84017 0
M  V30 1797 H 172.426 -3.23486 -4.64083 0
M  V30 1798 H 170.983 -4.03602 -5.11809 0
M  V30 1799 N 174.416 0.165178 -1.56732 0
M  V30 1800 C 175.662 0.882112 -1.82611 0
M  V30 1801 C 175.995 1.81628 -0.687378 0
M  V30 1802 O 175.27 1.92009 0.310267 0
M  V30 1803 C 175.553 1.67245 -3.18906 0
M  V30 1804 C 175.406 0.760987 -4.43316 0
M  V30 1805 C 176.725 2.63884 -3.52212 0
M  V30 1806 H 173.844 0.319242 -0.664269 0
M  V30 1807 H 176.486 0.148052 -1.89422 0
M  V30 1808 H 174.636 2.29824 -3.1323 0
M  V30 1809 H 176.308 0.147596 -4.61064 0
M  V30 1810 H 174.551 0.0694102 -4.33744 0
M  V30 1811 H 175.222 1.34962 -5.35247 0
M  V30 1812 H 177.698 2.11429 -3.58381 0
M  V30 1813 H 176.574 3.16245 -4.48643 0
M  V30 1814 H 176.835 3.44377 -2.77231 0
M  V30 1815 N 175.894 1.51508 0.433938 0
M  V30 1816 C 176.844 1.69451 1.52546 0
M  V30 1817 C 177.828 0.548474 1.51263 0
M  V30 1818 O 179.02 0.804529 1.57659 0
M  V30 1819 C 176.149 1.82604 2.90707 0
M  V30 1820 C 175.235 3.03002 2.96733 0
M  V30 1821 N 175.626 4.26121 2.72496 0
M  V30 1822 C 173.924 3.02327 3.27894 0
M  V30 1823 C 174.625 5.07407 2.84452 0
M  V30 1824 N 173.601 4.42126 3.16269 0
M  V30 1825 H 177.403 2.62305 1.32564 0
M  V30 1826 H 174.917 1.49202 0.641297 0
M  V30 1827 H 176.914 1.93569 3.69238 0
M  V30 1828 H 175.574 0.909339 3.11707 0
M  V30 1829 H 176.585 4.55009 2.4736 0
M  V30 1830 H 173.262 2.20301 3.54646 0
M  V30 1831 H 174.652 6.15422 2.69639 0
M  V30 1832 N 177.372 -0.689602 1.41712 0
M  V30 1833 C 178.62 -1.4468 1.4111 0
M  V30 1834 C 178.941 -1.94986 0.0232196 0
M  V30 1835 O 178.211 -1.72097 -0.935913 0
M  V30 1836 H 176.791 -0.536847 0.519427 0
M  V30 1837 H 179.453 -0.815825 1.77004 0
M  V30 1838 H 178.549 -2.30706 2.10193 0
M  V30 1839 N 178.85 -1.27639 -0.924453 0
M  V30 1840 C 180.096 -1.15345 -1.67532 0
M  V30 1841 C 180.451 0.297096 -1.90092 0
M  V30 1842 O 179.744 1.21374 -1.48253 0
M  V30 1843 C 179.938 -1.87407 -3.04325 0
M  V30 1844 C 179.767 -3.3932 -2.95114 0
M  V30 1845 C 178.537 -4.08644 -2.97218 0
M  V30 1846 C 180.735 -4.35242 -2.73987 0
M  V30 1847 N 178.717 -5.47102 -2.78482 0
M  V30 1848 C 180.088 -5.6099 -2.63988 0
M  V30 1849 C 182.143 -4.25294 -2.589 0
M  V30 1850 C 180.846 -6.77924 -2.40442 0
M  V30 1851 C 182.872 -5.41952 -2.36731 0
M  V30 1852 C 182.234 -6.66658 -2.27478 0
M  V30 1853 H 178.333 -0.47696 -0.619704 0
M  V30 1854 H 180.917 -1.6115 -1.09265 0
M  V30 1855 H 179.088 -1.44053 -3.60699 0
M  V30 1856 H 180.82 -1.6759 -3.68369 0
M  V30 1857 H 177.575 -3.60136 -3.07569 0
M  V30 1858 H 177.999 -6.19852 -2.72236 0
M  V30 1859 H 182.641 -3.29598 -2.64811 0
M  V30 1860 H 180.359 -7.73699 -2.3327 0
M  V30 1861 H 183.945 -5.36137 -2.25938 0
M  V30 1862 H 182.825 -7.55405 -2.10555 0
M  V30 1863 N 180.328 1.1314 -1.09713 0
M  V30 1864 C 181.574 1.84757 -0.836224 0
M  V30 1865 C 181.907 1.8347 0.636598 0
M  V30 1866 O 181.182 1.27491 1.46889 0
M  V30 1867 C 181.465 3.32782 -1.37578 0
M  V30 1868 C 181.318 3.42567 -2.91493 0
M  V30 1869 C 182.637 4.28307 -1.01198 0
M  V30 1870 H 179.756 0.67082 -0.305236 0
M  V30 1871 H 182.398 1.3278 -1.35903 0
M  V30 1872 H 180.548 3.77177 -0.931097 0
M  V30 1873 H 182.22 3.06862 -3.44432 0
M  V30 1874 H 180.463 2.83349 -3.28475 0
M  V30 1875 H 181.134 4.46674 -3.24324 0
M  V30 1876 H 183.61 3.91999 -1.39556 0
M  V30 1877 H 182.486 5.30307 -1.41653 0
M  V30 1878 H 182.747 4.42029 0.0794833 0
M  V30 1879 N 181.806 0.884767 1.30421 0
M  V30 1880 C 183.054 0.502112 1.95763 0
M  V30 1881 C 183.375 -0.951815 1.70192 0
M  V30 1882 O 182.645 -1.6692 1.0254 0
M  V30 1883 H 181.225 0.182694 0.724315 0
M  V30 1884 H 183.887 1.1278 1.58955 0
M  V30 1885 H 182.983 0.672188 3.04775 0
M  V30 1886 N 183.284 -1.43765 0.645699 0
M  V30 1887 C 184.532 -2.01499 0.155731 0
M  V30 1888 C 184.853 -1.51151 -1.232 0
M  V30 1889 O 184.123 -0.721044 -1.82148 0
M  V30 1890 H 182.703 -0.745003 0.0545817 0
M  V30 1891 H 185.365 -1.76075 0.835677 0
M  V30 1892 H 184.461 -3.1181 0.134577 0
M  V30 1893 N 184.763 -0.387143 -1.52771 0
M  V30 1894 C 186.011 0.195349 -2.01154 0
M  V30 1895 C 186.332 1.475 -1.27549 0
M  V30 1896 O 185.602 1.91878 -0.394924 0
M  V30 1897 H 184.182 0.075178 -0.743207 0
M  V30 1898 H 186.844 -0.518337 -1.87881 0
M  V30 1899 H 185.94 0.407096 -3.09434 0
M  V30 1900 N 186.241 1.57166 -0.116904 0
M  V30 1901 C 187.466 1.999 0.55271 0
M  V30 1902 C 187.891 0.996039 1.59564 0
M  V30 1903 O 187.249 -0.032556 1.81271 0
M  V30 1904 C 187.297 3.4152 1.15742 0
M  V30 1905 O 186.401 3.44106 2.27299 0
M  V30 1906 H 185.742 0.649447 0.138258 0
M  V30 1907 H 188.272 2.03573 -0.204759 0
M  V30 1908 H 188.282 3.79684 1.49346 0
M  V30 1909 H 186.957 4.14034 0.393493 0
M  V30 1910 H 185.534 3.17759 1.9515 0
M  V30 1911 N 187.719 -0.156864 1.56817 0
M  V30 1912 C 188.996 -0.899244 1.73704 0
M  V30 1913 C 189.376 -1.99771 0.682254 0
M  V30 1914 O 188.724 -2.26515 -0.300522 0
M  V30 1915 C 188.934 -1.45075 3.17418 0
M  V30 1916 C 190.282 -1.91802 3.7881 0
M  V30 1917 O 191.306 -1.54838 3.20786 0
M  V30 1918 O 190.165 -2.5994 4.80722 0
M  V30 1919 H 187.259 -0.424267 0.709878 0
M  V30 1920 H 189.805 -0.143561 1.69092 0
M  V30 1921 H 188.577 -0.660846 3.85679 0
M  V30 1922 H 188.2 -2.27021 3.26416 0
M  V30 1923 N 189.197 -1.51736 -0.425897 0
M  V30 1924 C 190.445 -1.64644 -1.17204 0
M  V30 1925 C 190.766 -0.370486 -1.91448 0
M  V30 1926 O 190.036 0.614088 -1.86026 0
M  V30 1927 H 188.616 -0.606819 -0.435638 0
M  V30 1928 H 191.278 -1.88713 -0.487177 0
M  V30 1929 H 190.374 -2.47958 -1.89534 0
M  V30 1930 N 190.675 0.682077 -1.42076 0
M  V30 1931 C 191.952 1.43755 -1.32642 0
M  V30 1932 C 192.332 2.11063 0.0396611 0
M  V30 1933 O 191.68 2.02701 1.05474 0
M  V30 1934 C 191.89 2.44596 -2.48946 0
M  V30 1935 C 193.238 3.09454 -2.9073 0
M  V30 1936 O 194.262 2.54922 -2.48783 0
M  V30 1937 O 193.121 4.08253 -3.63307 0
M  V30 1938 H 190.215 0.640857 -0.522715 0
M  V30 1939 H 192.761 0.711415 -1.54068 0
M  V30 1940 H 191.533 1.93609 -3.40046 0
M  V30 1941 H 191.156 3.24701 -2.29467 0
M  V30 1942 N 192.153 1.28127 0.917671 0
M  V30 1943 C 193.4 1.15052 1.66641 0
M  V30 1944 C 193.728 -0.301677 1.92146 0
M  V30 1945 O 192.983 -1.23622 1.51711 0
M  V30 1946 C 193.282 1.89018 3.03327 0
M  V30 1947 C 192.948 3.38832 2.97496 0
M  V30 1948 C 191.61 3.79693 2.95613 0
M  V30 1949 C 193.962 4.34378 2.88036 0
M  V30 1950 C 191.29 5.14447 2.82066 0
M  V30 1951 C 193.642 5.69201 2.7603 0
M  V30 1952 C 192.306 6.09343 2.72502 0
M  V30 1953 H 191.576 0.421006 0.609783 0
M  V30 1954 H 194.223 1.58855 1.06945 0
M  V30 1955 H 192.528 1.37752 3.66785 0
M  V30 1956 H 194.225 1.76321 3.60156 0
M  V30 1957 H 190.815 3.06342 2.99754 0
M  V30 1958 H 194.999 4.03775 2.88581 0
M  V30 1959 H 190.255 5.44681 2.77728 0
M  V30 1960 H 194.429 6.42901 2.67678 0
M  V30 1961 H 192.056 7.13712 2.61762 0
M  V30 1962 N 193.631 -1.12557 1.10312 0
M  V30 1963 C 194.594 -2.16434 0.75424 0
M  V30 1964 C 195.594 -1.59278 -0.220685 0
M  V30 1965 O 196.784 -1.742 0.00230591 0
M  V30 1966 C 193.916 -3.40699 0.116987 0
M  V30 1967 H 195.109 -2.48811 1.67431 0
M  V30 1968 H 192.662 -1.27542 0.903475 0
M  V30 1969 H 193.397 -3.13921 -0.813877 0
M  V30 1970 H 193.182 -3.83459 0.818613 0
M  V30 1971 H 194.672 -4.17451 -0.111387 0
M  V30 1972 N 195.109 -0.891671 -1.2995 0
M  V30 1973 C 196.059 -0.334811 -2.25528 0
M  V30 1974 C 197.043 0.540553 -1.51548 0
M  V30 1975 O 198.235 0.383882 -1.72787 0
M  V30 1976 C 195.364 0.44374 -3.4042 0
M  V30 1977 C 194.45 -0.44609 -4.21747 0
M  V30 1978 N 194.841 -1.54963 -4.81477 0
M  V30 1979 C 193.139 -0.242415 -4.45341 0
M  V30 1980 C 193.84 -2.10015 -5.42465 0
M  V30 1981 N 192.816 -1.39423 -5.25416 0
M  V30 1982 H 196.618 -1.17792 -2.69262 0
M  V30 1983 H 194.132 -0.741822 -1.44467 0
M  V30 1984 H 196.129 0.859362 -4.07947 0
M  V30 1985 H 194.789 1.28421 -2.98225 0
M  V30 1986 H 195.8 -1.93244 -4.80497 0
M  V30 1987 H 192.477 0.560342 -4.13723 0
M  V30 1988 H 193.867 -3.02724 -5.9984 0
M  V30 1989 N 196.587 1.43421 -0.653314 0
M  V30 1990 C 197.817 2.05864 -0.174238 0
M  V30 1991 C 198.225 1.49052 1.16534 0
M  V30 1992 O 197.568 0.616481 1.73047 0
M  V30 1993 C 197.63 3.59499 -0.00875873 0
M  V30 1994 C 197.294 4.38893 -1.27364 0
M  V30 1995 C 198.291 4.70947 -2.20239 0
M  V30 1996 C 195.976 4.789 -1.51525 0
M  V30 1997 C 197.97 5.41916 -3.35568 0
M  V30 1998 C 195.657 5.49614 -2.67147 0
M  V30 1999 C 196.655 5.81044 -3.58994 0
M  V30 2000 O 196.343 6.50313 -4.72597 0
M  V30 2001 H 196.075 0.670345 -0.0872549 0
M  V30 2002 H 198.629 1.84913 -0.894226 0
M  V30 2003 H 196.859 3.79025 0.7666 0
M  V30 2004 H 198.548 4.0364 0.427687 0
M  V30 2005 H 199.314 4.40558 -2.02815 0
M  V30 2006 H 195.193 4.53843 -0.809158 0
M  V30 2007 H 198.737 5.66365 -4.07279 0
M  V30 2008 H 194.634 5.79419 -2.84505 0
M  V30 2009 H 195.402 6.68795 -4.71864 0
M  V30 2010 N 198.065 0.39524 1.52563 0
M  V30 2011 C 199.028 -0.425001 2.25225 0
M  V30 2012 C 200.028 -0.985266 1.27079 0
M  V30 2013 O 201.218 -0.866332 1.5113 0
M  V30 2014 C 198.35 -1.59686 3.01186 0
M  V30 2015 H 199.543 0.211233 2.99155 0
M  V30 2016 H 197.096 0.147472 1.55603 0
M  V30 2017 H 197.831 -2.27035 2.31572 0
M  V30 2018 H 197.616 -1.20176 3.73229 0
M  V30 2019 H 199.106 -2.17743 3.5634 0
M  V30 2020 N 199.544 -1.57102 0.125237 0
M  V30 2021 C 200.774 -1.99472 -0.538015 0
M  V30 2022 C 201.182 -1.00395 -1.60366 0
M  V30 2023 O 200.525 0.0103875 -1.83697 0
M  V30 2024 C 200.587 -3.38262 -1.21734 0
M  V30 2025 C 200.251 -4.56021 -0.298897 0
M  V30 2026 C 201.248 -5.17817 0.464943 0
M  V30 2027 C 198.933 -5.01869 -0.208149 0
M  V30 2028 C 200.927 -6.23852 1.3072 0
M  V30 2029 C 198.614 -6.07763 0.637736 0
M  V30 2030 C 199.612 -6.68622 1.39403 0
M  V30 2031 O 199.3 -7.7247 2.22586 0
M  V30 2032 H 199.032 -0.659934 -0.146501 0
M  V30 2033 H 201.586 -2.04321 0.210267 0
M  V30 2034 H 199.816 -3.30185 -2.01282 0
M  V30 2035 H 201.505 -3.6488 -1.77813 0
M  V30 2036 H 202.271 -4.83308 0.404741 0
M  V30 2037 H 198.15 -4.54241 -0.786522 0
M  V30 2038 H 201.694 -6.71284 1.898 0
M  V30 2039 H 197.591 -6.41701 0.699309 0
M  V30 2040 H 198.359 -7.89595 2.15596 0
M  V30 2041 N 201.022 0.148545 -1.56898 0
M  V30 2042 C 201.972 1.1886 -1.94567 0
M  V30 2043 C 202.956 1.3863 -0.816735 0
M  V30 2044 O 204.148 1.40218 -1.08018 0
M  V30 2045 C 201.277 2.52262 -2.32849 0
M  V30 2046 C 200.363 2.36092 -3.52309 0
M  V30 2047 N 200.754 1.89674 -4.6889 0
M  V30 2048 C 199.052 2.66848 -3.57363 0
M  V30 2049 C 199.753 1.86511 -5.50989 0
M  V30 2050 N 198.729 2.29766 -4.92655 0
M  V30 2051 H 202.531 0.821793 -2.82177 0
M  V30 2052 H 200.045 0.356615 -1.58436 0
M  V30 2053 H 202.042 3.27447 -2.58039 0
M  V30 2054 H 200.702 2.89727 -1.46589 0
M  V30 2055 H 201.713 1.59663 -4.92674 0
M  V30 2056 H 198.39 3.08198 -2.81639 0
M  V30 2057 H 199.78 1.52128 -6.54452 0
M  V30 2058 N 202.5 1.5196 0.417844 0
M  V30 2059 C 203.748 1.65263 1.16329 0
M  V30 2060 C 204.069 0.380634 1.91249 0
M  V30 2061 O 203.339 -0.604214 1.86349 0
M  V30 2062 H 201.919 0.60912 0.432414 0
M  V30 2063 H 204.581 1.88969 0.477162 0
M  V30 2064 H 203.677 2.4896 1.88217 0
M  V30 2065 N 203.978 -0.674533 1.42435 0
M  V30 2066 C 205.208 -1.46071 1.46105 0
M  V30 2067 C 205.616 -1.89067 0.0709605 0
M  V30 2068 O 204.959 -1.58731 -0.924677 0
M  V30 2069 C 205.021 -2.74145 2.32561 0
M  V30 2070 C 204.685 -2.53224 3.8043 0
M  V30 2071 C 205.682 -2.17809 4.72075 0
M  V30 2072 C 203.367 -2.6821 4.24698 0
M  V30 2073 C 205.361 -1.97648 6.05982 0
M  V30 2074 C 203.048 -2.47665 5.58664 0
M  V30 2075 C 204.046 -2.12437 6.49122 0
M  V30 2076 O 203.734 -1.9209 7.80613 0
M  V30 2077 H 203.466 -0.455959 0.499076 0
M  V30 2078 H 206.02 -0.836193 1.87609 0
M  V30 2079 H 204.25 -3.3908 1.85908 0
M  V30 2080 H 205.939 -3.36028 2.27683 0
M  V30 2081 H 206.705 -2.05826 4.39159 0
M  V30 2082 H 202.584 -2.94609 3.54579 0
M  V30 2083 H 206.128 -1.70075 6.7655 0
M  V30 2084 H 202.025 -2.59244 5.91154 0
M  V30 2085 H 202.793 -2.06686 7.91974 0
M  V30 2086 N 205.456 -1.28612 -0.910864 0
M  V30 2087 C 206.686 -1.1862 -1.69153 0
M  V30 2088 C 207.094 0.257324 -1.87442 0
M  V30 2089 O 206.437 1.18543 -1.40332 0
M  V30 2090 C 206.499 -1.81606 -3.10257 0
M  V30 2091 C 206.163 -3.30864 -3.15243 0
M  V30 2092 C 207.16 -4.27256 -2.96223 0
M  V30 2093 C 204.845 -3.71871 -3.37664 0
M  V30 2094 C 206.839 -5.62631 -2.99541 0
M  V30 2095 C 204.526 -5.07371 -3.40614 0
M  V30 2096 C 205.524 -6.02561 -3.21573 0
M  V30 2097 O 205.212 -7.35589 -3.2429 0
M  V30 2098 H 204.944 -0.412633 -0.535453 0
M  V30 2099 H 207.498 -1.70306 -1.14827 0
M  V30 2100 H 205.728 -1.24418 -3.66138 0
M  V30 2101 H 207.417 -1.66092 -3.70362 0
M  V30 2102 H 208.183 -3.9691 -2.78725 0
M  V30 2103 H 204.062 -2.98241 -3.5153 0
M  V30 2104 H 207.606 -6.36907 -2.84597 0
M  V30 2105 H 203.503 -5.37366 -3.57642 0
M  V30 2106 H 204.271 -7.44252 -3.40633 0
M  V30 2107 N 206.934 1.1197 -1.10907 0
M  V30 2108 C 207.897 2.16031 -0.765707 0
M  V30 2109 C 208.897 1.59393 0.212235 0
M  V30 2110 O 210.087 1.74196 -0.0115441 0
M  V30 2111 C 207.219 3.40632 -0.135053 0
M  V30 2112 H 208.412 2.47919 -1.68748 0
M  V30 2113 H 205.965 1.27061 -0.910226 0
M  V30 2114 H 206.7 3.14348 0.797218 0
M  V30 2115 H 206.485 3.8302 -0.838937 0
M  V30 2116 H 207.975 4.17505 0.0892469 0
M  V30 2117 N 208.412 0.89855 1.29475 0
M  V30 2118 C 209.342 0.39201 2.30186 0
M  V30 2119 C 210.323 -0.532359 1.61555 0
M  V30 2120 O 211.508 -0.443331 1.89072 0
M  V30 2121 C 208.638 -0.382353 3.45189 0
M  V30 2122 C 207.592 0.451483 4.25612 0
M  V30 2123 C 206.918 -0.450307 5.328 0
M  V30 2124 C 208.218 1.70079 4.93832 0
M  V30 2125 H 209.912 1.23362 2.72804 0
M  V30 2126 H 207.458 0.594638 1.31149 0
M  V30 2127 H 209.411 -0.747451 4.14718 0
M  V30 2128 H 208.135 -1.25774 3.01411 0
M  V30 2129 H 206.794 0.798897 3.57789 0
M  V30 2130 H 206.442 -1.32379 4.85268 0
M  V30 2131 H 206.142 0.103902 5.87508 0
M  V30 2132 H 207.666 -0.811623 6.05182 0
M  V30 2133 H 209.08 1.40549 5.55805 0
M  V30 2134 H 207.477 2.19623 5.58467 0
M  V30 2135 H 208.547 2.43744 4.19186 0
M  V30 2136 N 209.89 -1.43072 0.660911 0
M  V30 2137 C 211.167 -1.95307 0.107017 0
M  V30 2138 C 211.547 -1.60192 -1.37484 0
M  V30 2139 O 210.895 -0.890949 -2.10415 0
M  V30 2140 C 211.105 -3.47124 0.361402 0
M  V30 2141 C 212.453 -4.23738 0.270455 0
M  V30 2142 O 213.477 -3.54981 0.294382 0
M  V30 2143 O 212.336 -5.46131 0.200737 0
M  V30 2144 H 209.43 -0.826984 -0.00517729 0
M  V30 2145 H 211.976 -1.52972 0.734681 0
M  V30 2146 H 210.748 -3.65837 1.38848 0
M  V30 2147 H 210.371 -3.96475 -0.298953 0
M  V30 2148 N 211.368 -0.403325 -1.52352 0
M  V30 2149 C 212.598 0.17376 -2.05868 0
M  V30 2150 C 213.006 1.39898 -1.27378 0
M  V30 2151 O 212.349 1.80939 -0.31729 0
M  V30 2152 C 212.411 0.594756 -3.54546 0
M  V30 2153 C 212.075 -0.518926 -4.54044 0
M  V30 2154 C 213.072 -1.3807 -5.01231 0
M  V30 2155 C 210.757 -0.689961 -4.97539 0
M  V30 2156 C 212.751 -2.39852 -5.90551 0
M  V30 2157 C 210.438 -1.71109 -5.86656 0
M  V30 2158 C 211.436 -2.56378 -6.33056 0
M  V30 2159 O 211.124 -3.56743 -7.20409 0
M  V30 2160 H 210.856 0.0264951 -0.675481 0
M  V30 2161 H 213.41 -0.571179 -1.97299 0
M  V30 2162 H 211.64 1.39189 -3.60782 0
M  V30 2163 H 213.329 1.0991 -3.90736 0
M  V30 2164 H 214.095 -1.25994 -4.68349 0
M  V30 2165 H 209.974 -0.035939 -4.60986 0
M  V30 2166 H 213.518 -3.06441 -6.26689 0
M  V30 2167 H 209.415 -1.83218 -6.18952 0
M  V30 2168 H 210.183 -3.52918 -7.38506 0
M  V30 2169 N 212.846 1.57033 -0.133567 0
M  V30 2170 C 214.074 2.00044 0.528195 0
M  V30 2171 C 214.489 1.01349 1.59291 0
M  V30 2172 O 213.846 0.00848369 1.82498 0
M  V30 2173 C 213.897 3.43018 1.1411 0
M  V30 2174 O 213.618 4.37939 0.11892 0
M  V30 2175 C 215.119 4.01237 1.88477 0
M  V30 2176 H 212.339 0.656517 0.138661 0
M  V30 2177 H 214.883 2.03267 -0.224196 0
M  V30 2178 H 213.038 3.40688 1.84418 0
M  V30 2179 H 213.452 5.21436 0.56613 0
M  V30 2180 H 214.926 5.03314 2.26669 0
M  V30 2181 H 215.403 3.41193 2.76558 0
M  V30 2182 H 216.009 4.07156 1.22898 0
M  V30 2183 N 214.325 -0.140222 1.56975 0
M  V30 2184 C 215.258 -1.20266 1.93936 0
M  V30 2185 C 216.236 -1.41212 0.806099 0
M  V30 2186 O 217.42 -1.55713 1.06234 0
M  V30 2187 C 214.547 -2.56037 2.21726 0
M  V30 2188 C 213.593 -2.51646 3.44349 0
M  V30 2189 S 214.426 -1.97678 4.97678 0
M  V30 2190 C 215.582 -3.35165 5.28597 0
M  V30 2191 H 215.815 -0.887358 2.83749 0
M  V30 2192 H 213.348 -0.346119 1.50471 0
M  V30 2193 H 215.306 -3.34167 2.38416 0
M  V30 2194 H 213.967 -2.84755 1.32566 0
M  V30 2195 H 213.16 -3.51608 3.61092 0
M  V30 2196 H 212.762 -1.81628 3.26936 0
M  V30 2197 H 215.054 -4.31302 5.2248 0
M  V30 2198 H 215.997 -3.23269 6.30002 0
M  V30 2199 H 216.405 -3.32614 4.56101 0
M  V30 2200 N 215.803 -1.52179 -0.40978 0
M  V30 2201 C 217.052 -1.65434 -1.15388 0
M  V30 2202 C 217.365 -0.390056 -1.91671 0
M  V30 2203 O 218.571 -0.402399 -2.68501 0
M  V30 2204 C 217.027 -2.92279 -2.10003 0
M  V30 2205 C 216.635 -4.25813 -1.39239 0
M  V30 2206 C 218.379 -3.14897 -2.84675 0
M  V30 2207 C 216.286 -5.43782 -2.32498 0
M  V30 2208 H 215.216 -0.616267 -0.434432 0
M  V30 2209 H 217.867 -1.78666 -0.418401 0
M  V30 2210 H 216.249 -2.72744 -2.871 0
M  V30 2211 H 217.423 -4.55828 -0.675099 0
M  V30 2212 H 215.738 -4.09292 -0.766097 0
M  V30 2213 H 218.335 -4.0021 -3.54593 0
M  V30 2214 H 218.678 -2.29103 -3.47588 0
M  V30 2215 H 219.211 -3.34901 -2.14677 0
M  V30 2216 H 215.95 -6.3192 -1.74233 0
M  V30 2217 H 215.47 -5.18106 -3.02201 0
M  V30 2218 H 217.149 -5.76834 -2.93038 0
M  V30 2219 N 217.281 0.66697 -1.42791 0
M  V30 2220 C 218.558 1.4234 -1.34159 0
M  V30 2221 C 218.938 2.11093 0.0172729 0
M  V30 2222 O 218.286 2.03808 1.03318 0
M  V30 2223 C 218.496 2.41942 -2.51526 0
M  V30 2224 C 219.844 3.06353 -2.93995 0
M  V30 2225 O 220.868 2.52269 -2.51473 0
M  V30 2226 O 219.727 4.04376 -3.67617 0
M  V30 2227 H 216.821 0.635277 -0.529483 0
M  V30 2228 H 219.367 0.695034 -1.54814 0
M  V30 2229 H 218.139 1.89991 -3.42081 0
M  V30 2230 H 217.762 3.22249 -2.32898 0
M  V30 2231 N 218.759 1.29093 0.90403 0
M  V30 2232 C 219.691 1.09658 2.01266 0
M  V30 2233 C 220.704 0.0453729 1.62737 0
M  V30 2234 O 221.893 0.289446 1.76138 0
M  V30 2235 C 218.993 0.646278 3.32681 0
M  V30 2236 C 218.166 1.77505 3.99763 0
M  V30 2237 C 217.225 1.31649 5.09465 0
M  V30 2238 O 216.251 2.02045 5.32134 0
M  V30 2239 N 217.453 0.184997 5.80205 0
M  V30 2240 H 220.218 2.05135 2.18494 0
M  V30 2241 H 217.779 1.20975 1.07594 0
M  V30 2242 H 219.771 0.322906 4.0341 0
M  V30 2243 H 218.341 -0.215916 3.11853 0
M  V30 2244 H 217.561 2.26752 3.22455 0
M  V30 2245 H 218.849 2.53198 4.41325 0
M  V30 2246 H 218.247 -0.402021 5.6427 0
M  V30 2247 H 216.804 -0.0790358 6.51752 0
M  V30 2248 N 220.237 -1.11381 1.11499 0
M  V30 2249 C 221.185 -2.19522 0.768956 0
M  V30 2250 C 222.179 -1.67693 -0.239857 0
M  V30 2251 O 223.385 -1.79727 -0.0990755 0
M  V30 2252 H 219.76 -0.715711 0.230786 0
M  V30 2253 H 221.731 -2.45954 1.68964 0
M  V30 2254 C 220.48 -3.46945 0.229073 0
M  V30 2255 H 219.803 -3.8718 0.996596 0
M  V30 2256 H 221.243 -4.23993 0.0251441 0
M  V30 2257 C 219.702 -3.2042 -1.04079 0
M  V30 2258 O 220.232 -3.41178 -2.12038 0
M  V30 2259 N 218.438 -2.74151 -0.963823 0
M  V30 2260 H 217.985 -2.57459 -0.0851722 0
M  V30 2261 H 217.943 -2.56781 -1.81414 0
M  V30 2262 N 221.715 -0.905404 -1.28997 0
M  V30 2263 C 222.648 -0.331959 -2.25773 0
M  V30 2264 C 223.626 0.559099 -1.52685 0
M  V30 2265 O 224.81 0.50463 -1.8162 0
M  V30 2266 C 221.937 0.526276 -3.34586 0
M  V30 2267 C 220.983 -0.298249 -4.25456 0
M  V30 2268 S 221.816 -1.69968 -5.0781 0
M  V30 2269 C 222.972 -0.848519 -6.20122 0
M  V30 2270 H 223.205 -1.15222 -2.74064 0
M  V30 2271 H 220.738 -0.706112 -1.37308 0
M  V30 2272 H 222.696 1.01565 -3.97737 0
M  V30 2273 H 221.357 1.32084 -2.84978 0
M  V30 2274 H 220.55 0.357607 -5.0273 0
M  V30 2275 H 220.152 -0.720968 -3.66985 0
M  V30 2276 H 222.444 -0.0744325 -6.77459 0
M  V30 2277 H 223.387 -1.59353 -6.89937 0
M  V30 2278 H 223.795 -0.400383 -5.63078 0
M  V30 2279 N 223.193 1.4272 -0.668489 0
M  V30 2280 C 224.441 2.01226 -0.187769 0
M  V30 2281 C 224.762 1.53092 1.2078 0
M  V30 2282 O 224.032 0.74993 1.80977 0
M  V30 2283 H 222.612 0.744041 -0.0664272 0
M  V30 2284 H 225.274 1.74723 -0.863583 0
M  V30 2285 H 224.37 3.11556 -0.184166 0
M  V30 2286 N 224.671 0.411399 1.52136 0
M  V30 2287 C 225.899 -0.163076 2.06256 0
M  V30 2288 C 226.314 -1.3867 1.28125 0
M  V30 2289 O 225.671 -1.79423 0.333721 0
M  V30 2290 C 225.722 -0.511252 3.57867 0
M  V30 2291 O 225.443 0.66378 4.33042 0
M  V30 2292 C 226.944 -1.13921 4.28412 0
M  V30 2293 H 224.164 -0.0193897 0.67072 0
M  V30 2294 H 226.708 0.583007 1.96013 0
M  V30 2295 H 224.863 -1.20723 3.6811 0
M  V30 2296 H 225.277 0.372601 5.23175 0
M  V30 2297 H 226.751 -1.33302 5.35663 0
M  V30 2298 H 227.228 -2.11296 3.85033 0
M  V30 2299 H 227.834 -0.483373 4.22544 0
M  V30 2300 N 226.149 -1.5696 0.141893 0
M  V30 2301 C 227.395 -1.9625 -0.511248 0
M  V30 2302 C 227.728 -1.02654 -1.64851 0
M  V30 2303 O 227.003 -0.0679676 -1.94381 0
M  V30 2304 C 227.286 -3.45285 -1.02227 0
M  V30 2305 C 227.139 -4.49658 0.113138 0
M  V30 2306 C 228.458 -3.96698 -1.90574 0
M  V30 2307 H 225.577 -0.713567 -0.184367 0
M  V30 2308 H 228.219 -1.88698 0.222087 0
M  V30 2309 H 226.369 -3.51852 -1.64719 0
M  V30 2310 H 228.041 -4.55174 0.749302 0
M  V30 2311 H 226.284 -4.26857 0.773026 0
M  V30 2312 H 226.955 -5.51258 -0.286053 0
M  V30 2313 H 229.431 -3.92578 -1.37918 0
M  V30 2314 H 228.307 -5.01453 -2.2324 0
M  V30 2315 H 228.568 -3.3875 -2.84079 0
M  V30 2316 N 227.627 0.131896 -1.57047 0
M  V30 2317 C 228.537 1.1815 -2.02676 0
M  V30 2318 C 229.553 1.46113 -0.944824 0
M  V30 2319 O 230.729 1.57485 -1.25541 0
M  V30 2320 C 227.794 2.49139 -2.41103 0
M  V30 2321 C 226.855 2.28688 -3.63318 0
M  V30 2322 C 226.088 3.53431 -3.99903 0
M  V30 2323 O 226.311 4.60223 -3.36973 0
M  V30 2324 O 225.245 3.45198 -4.93074 0
M  V30 2325 H 229.071 0.824069 -2.92306 0
M  V30 2326 H 226.656 0.341745 -1.45439 0
M  V30 2327 H 228.538 3.26338 -2.66611 0
M  V30 2328 H 227.213 2.84382 -1.54624 0
M  V30 2329 H 226.12 1.4939 -3.42977 0
M  V30 2330 H 227.453 1.98355 -4.50462 0
M  V30 2331 N 229.106 1.52395 0.401703 0
M  V30 2332 C 230.383 1.57387 1.16141 0
M  V30 2333 C 230.763 0.359359 2.08019 0
M  V30 2334 O 230.111 -0.65326 2.18963 0
M  V30 2335 C 230.321 2.90631 1.93221 0
M  V30 2336 C 231.669 3.43904 2.49028 0
M  V30 2337 O 232.693 2.92421 2.03393 0
M  V30 2338 O 231.552 4.33823 3.32356 0
M  V30 2339 H 228.646 0.634262 0.530698 0
M  V30 2340 H 231.192 1.64725 0.407883 0
M  V30 2341 H 229.964 3.70473 1.25958 0
M  V30 2342 H 229.587 2.8662 2.75563 0
M  V30 2343 N 230.584 -0.659388 1.43143 0
M  V30 2344 C 231.517 -1.78425 1.42267 0
M  V30 2345 C 232.495 -1.60085 0.284894 0
M  V30 2346 O 233.679 -1.82351 0.477527 0
M  V30 2347 C 230.806 -3.15642 1.22833 0
M  V30 2348 C 229.852 -3.52698 2.39806 0
M  V30 2349 S 230.685 -3.53372 4.02353 0
M  V30 2350 C 231.841 -4.93256 3.85291 0
M  V30 2351 H 232.074 -1.78897 2.37452 0
M  V30 2352 H 229.607 -0.831469 1.301 0
M  V30 2353 H 231.565 -3.94838 1.12308 0
M  V30 2354 H 230.226 -3.12739 0.29207 0
M  V30 2355 H 229.419 -4.52475 2.21996 0
M  V30 2356 H 229.021 -2.80899 2.46925 0
M  V30 2357 H 231.313 -5.81751 3.47235 0
M  V30 2358 H 232.256 -5.16115 4.84799 0
M  V30 2359 H 232.664 -4.665 3.17865 0
M  V30 2360 N 232.062 -1.29571 -0.897171 0
M  V30 2361 C 233.478 -1.07637 -1.17841 0
M  V30 2362 C 233.678 0.170713 -2.00776 0
M  V30 2363 O 232.734 0.867768 -2.3712 0
M  V30 2364 C 234.047 -2.3332 -1.8969 0
M  V30 2365 C 235.595 -2.38664 -2.02505 0
M  V30 2366 C 236.07 -3.64157 -2.77765 0
M  V30 2367 N 237.561 -3.64894 -2.85318 0
M  V30 2368 C 238.296 -4.58679 -3.44094 0
M  V30 2369 N 237.792 -5.62799 -4.04017 0
M  V30 2370 N 239.585 -4.46245 -3.41793 0
M  V30 2371 H 231.736 -2.09598 -0.343883 0
M  V30 2372 H 233.999 -0.923333 -0.214848 0
M  V30 2373 H 233.705 -3.24262 -1.36187 0
M  V30 2374 H 233.579 -2.41025 -2.9015 0
M  V30 2375 H 235.966 -1.48208 -2.55183 0
M  V30 2376 H 236.047 -2.34943 -1.01171 0
M  V30 2377 H 235.691 -4.54965 -2.25763 0
M  V30 2378 H 235.621 -3.65137 -3.7945 0
M  V30 2379 H 238.112 -2.89613 -2.42761 0
M  V30 2380 H 238.425 -6.3048 -4.46895 0
M  V30 2381 H 236.77 -5.66605 -4.02472 0
M  V30 2382 H 239.961 -3.64094 -2.94199 0
M  V30 2383 H 240.134 -5.19518 -3.87304 0
M  V30 2384 N 233.54 1.10788 -1.12088 0
M  V30 2385 C 234.45 2.20599 -0.798338 0
M  V30 2386 C 235.466 1.72712 0.21135 0
M  V30 2387 O 236.642 2.01348 0.0458477 0
M  V30 2388 C 233.707 3.45771 -0.253674 0
M  V30 2389 C 232.768 4.08411 -1.32283 0
M  V30 2390 C 232.001 5.27608 -0.80406 0
M  V30 2391 O 232.224 5.69241 0.363478 0
M  V30 2392 O 231.158 5.8101 -1.57198 0
M  V30 2393 H 234.984 2.50614 -1.7154 0
M  V30 2394 H 232.569 1.19454 -0.897275 0
M  V30 2395 H 234.451 4.21376 0.0453691 0
M  V30 2396 H 233.126 3.1739 0.636005 0
M  V30 2397 H 232.033 3.34507 -1.67499 0
M  V30 2398 H 233.366 4.40986 -2.18614 0
M  V30 2399 N 235.018 0.912232 1.28515 0
M  V30 2400 C 236.265 0.544599 1.95039 0
M  V30 2401 C 236.593 -0.911435 1.71823 0
M  V30 2402 O 235.848 -1.66317 1.03137 0
M  V30 2403 C 236.147 0.798392 3.48368 0
M  V30 2404 C 235.813 2.23374 3.91682 0
M  V30 2405 C 234.475 2.62617 4.03219 0
M  V30 2406 C 236.827 3.16786 4.13879 0
M  V30 2407 C 234.155 3.94429 4.3433 0
M  V30 2408 C 236.507 4.48161 4.46469 0
M  V30 2409 C 235.171 4.8726 4.56217 0
M  V30 2410 H 234.441 0.199283 0.7137 0
M  V30 2411 H 237.088 1.15327 1.52879 0
M  V30 2412 H 235.393 0.106908 3.91654 0
M  V30 2413 H 237.09 0.493141 3.97956 0
M  V30 2414 H 233.68 1.91922 3.83228 0
M  V30 2415 H 237.864 2.87677 4.0442 0
M  V30 2416 H 233.12 4.24426 4.40082 0
M  V30 2417 H 237.294 5.20559 4.62592 0
M  V30 2418 H 234.921 5.89431 4.80078 0
M  V30 2419 N 236.496 -1.42363 0.676048 0
M  V30 2420 C 237.742 -2.0182 0.199125 0
M  V30 2421 C 238.075 -1.53339 -1.19168 0
M  V30 2422 O 237.35 -0.736124 -1.80032 0
M  V30 2423 C 237.633 -3.59331 0.235144 0
M  V30 2424 C 237.486 -4.17989 1.66149 0
M  V30 2425 C 238.805 -4.3813 -0.41595 0
M  V30 2426 H 235.924 -0.733293 0.0738311 0
M  V30 2427 H 238.566 -1.69368 0.86107 0
M  V30 2428 H 236.716 -3.87109 -0.328487 0
M  V30 2429 H 238.388 -4.0116 2.27747 0
M  V30 2430 H 236.631 -3.7377 2.20178 0
M  V30 2431 H 237.302 -5.27126 1.63837 0
M  V30 2432 H 239.778 -4.16051 0.0638529 0
M  V30 2433 H 238.654 -5.47717 -0.360115 0
M  V30 2434 H 238.915 -4.16101 -1.49373 0
M  V30 2435 N 237.974 -0.419461 -1.51915 0
M  V30 2436 C 238.924 0.418496 -2.24126 0
M  V30 2437 C 239.908 1.00495 -1.25656 0
M  V30 2438 O 241.1 0.926058 -1.50842 0
M  V30 2439 C 238.229 1.52899 -3.07371 0
M  V30 2440 C 237.315 0.952797 -4.13258 0
M  V30 2441 N 237.706 0.104175 -5.05693 0
M  V30 2442 C 236.004 1.22224 -4.28926 0
M  V30 2443 C 236.705 -0.21752 -5.81293 0
M  V30 2444 N 235.681 0.394293 -5.42168 0
M  V30 2445 H 239.483 -0.236048 -2.92951 0
M  V30 2446 H 236.997 -0.230481 -1.60756 0
M  V30 2447 H 238.994 2.14199 -3.57665 0
M  V30 2448 H 237.654 2.18605 -2.40088 0
M  V30 2449 H 238.665 -0.260924 -5.17242 0
M  V30 2450 H 235.342 1.87812 -3.72871 0
M  V30 2451 H 236.732 -0.906992 -6.6575 0
M  V30 2452 N 239.452 1.56882 -0.150215 0
M  V30 2453 C 240.68 2.00593 0.506948 0
M  V30 2454 C 241.095 1.03033 1.58208 0
M  V30 2455 O 240.452 0.0278396 1.82479 0
M  V30 2456 C 240.503 3.44209 1.10465 0
M  V30 2457 O 240.224 4.3804 0.0724636 0
M  V30 2458 C 241.725 4.03214 1.84211 0
M  V30 2459 H 238.945 0.65795 0.13169 0
M  V30 2460 H 241.489 2.03018 -0.245743 0
M  V30 2461 H 239.644 3.42625 1.80795 0
M  V30 2462 H 240.058 5.22007 0.510793 0
M  V30 2463 H 241.532 5.0569 2.21318 0
M  V30 2464 H 242.009 3.44107 2.72923 0
M  V30 2465 H 242.615 4.08437 1.18572 0
M  V30 2466 N 240.93 -0.123565 1.57115 0
M  V30 2467 C 241.893 -1.13583 1.99076 0
M  V30 2468 C 242.893 -1.34564 0.880296 0
M  V30 2469 O 244.083 -1.31158 1.14644 0
M  V30 2470 C 241.215 -2.49128 2.32698 0
M  V30 2471 H 242.408 -0.775287 2.89706 0
M  V30 2472 H 239.961 -0.36771 1.51913 0
M  V30 2473 H 240.696 -2.90111 1.44934 0
M  V30 2474 H 240.481 -2.35255 3.13684 0
M  V30 2475 H 241.971 -3.2199 2.65918 0
M  V30 2476 N 242.408 -1.52605 -0.393616 0
M  V30 2477 C 243.358 -1.73436 -1.48 0
M  V30 2478 C 244.342 -0.588386 -1.49756 0
M  V30 2479 O 245.534 -0.846047 -1.5547 0
M  V30 2480 C 242.663 -1.90247 -2.85764 0
M  V30 2481 C 241.749 -3.10763 -2.88595 0
M  V30 2482 N 242.14 -4.33196 -2.61103 0
M  V30 2483 C 240.438 -3.10914 -3.19763 0
M  V30 2484 C 241.139 -5.1477 -2.70899 0
M  V30 2485 N 240.115 -4.50356 -3.04435 0
M  V30 2486 H 243.917 -2.65727 -1.25563 0
M  V30 2487 H 241.431 -1.5085 -0.601513 0
M  V30 2488 H 243.428 -2.03291 -3.63976 0
M  V30 2489 H 242.088 -0.991663 -3.09186 0
M  V30 2490 H 243.099 -4.61408 -2.35209 0
M  V30 2491 H 239.776 -2.29626 -3.4868 0
M  V30 2492 H 241.166 -6.22355 -2.53227 0
M  V30 2493 N 243.887 0.651787 -1.4349 0
M  V30 2494 C 244.797 1.79368 -1.5121 0
M  V30 2495 C 245.813 1.69361 -0.399093 0
M  V30 2496 O 246.989 1.90505 -0.653431 0
M  V30 2497 C 244.054 3.15653 -1.43401 0
M  V30 2498 C 243.115 3.37446 -2.65384 0
M  V30 2499 C 242.348 4.67229 -2.57939 0
M  V30 2500 O 242.571 5.46676 -1.62792 0
M  V30 2501 O 241.505 4.90773 -3.48462 0
M  V30 2502 H 245.331 1.7581 -2.47638 0
M  V30 2503 H 242.916 0.810447 -1.25507 0
M  V30 2504 H 244.798 3.96935 -1.41494 0
M  V30 2505 H 243.473 3.19798 -0.501085 0
M  V30 2506 H 242.38 2.55923 -2.72863 0
M  V30 2507 H 243.713 3.38148 -3.57654 0
M  V30 2508 N 245.365 1.30045 0.890287 0
M  V30 2509 C 246.297 1.11786 2.00091 0
M  V30 2510 C 247.31 0.0626307 1.62679 0
M  V30 2511 O 248.499 0.308112 1.75821 0
M  V30 2512 C 245.599 0.681527 3.31977 0
M  V30 2513 C 244.772 1.81735 3.97858 0
M  V30 2514 C 243.831 1.37045 5.08041 0
M  V30 2515 O 242.857 2.07677 5.29961 0
M  V30 2516 N 244.059 0.246525 5.79976 0
M  V30 2517 H 246.824 2.07441 2.16306 0
M  V30 2518 H 244.385 1.2211 1.06305 0
M  V30 2519 H 246.377 0.365675 4.03045 0
M  V30 2520 H 244.947 -0.182828 3.12065 0
M  V30 2521 H 244.167 2.30159 3.20032 0
M  V30 2522 H 245.455 2.57865 4.38615 0
M  V30 2523 H 244.853 -0.34215 5.64664 0
M  V30 2524 H 243.41 -0.00990438 6.51799 0
M  V30 2525 N 246.843 -1.10192 1.12674 0
M  V30 2526 C 248.091 -1.81845 0.881861 0
M  V30 2527 C 248.412 -1.85737 -0.593867 0
M  V30 2528 O 247.682 -1.33724 -1.4316 0
M  V30 2529 H 246.262 -0.673432 0.323261 0
M  V30 2530 H 248.924 -1.33316 1.42172 0
M  V30 2531 H 248.02 -2.85288 1.2656 0
M  V30 2532 N 248.321 -0.919034 -1.28029 0
M  V30 2533 C 249.57 -0.550802 -1.94034 0
M  V30 2534 C 249.883 0.910877 -1.73096 0
M  V30 2535 O 251.089 1.3875 -2.33368 0
M  V30 2536 C 249.545 -0.934249 -3.47563 0
M  V30 2537 C 249.153 -2.41602 -3.7727 0
M  V30 2538 C 250.897 -0.636854 -4.19696 0
M  V30 2539 C 248.804 -2.73932 -5.24133 0
M  V30 2540 H 247.734 -0.202273 -0.726362 0
M  V30 2541 H 250.385 -1.11867 -1.45458 0
M  V30 2542 H 248.767 -0.295115 -3.94899 0
M  V30 2543 H 249.941 -3.10233 -3.40723 0
M  V30 2544 H 248.256 -2.68441 -3.18321 0
M  V30 2545 H 250.853 -0.855005 -5.2782 0
M  V30 2546 H 251.196 0.425575 -4.14119 0
M  V30 2547 H 251.729 -1.23469 -3.78154 0
M  V30 2548 H 248.468 -3.79049 -5.34792 0
M  V30 2549 H 247.988 -2.09942 -5.61858 0
M  V30 2550 H 249.667 -2.61215 -5.91925 0
M  V30 2551 N 249.799 1.42003 -0.683588 0
M  V30 2552 C 251.215 1.55625 -0.353976 0
M  V30 2553 C 251.415 1.66151 1.14 0
M  V30 2554 O 250.471 1.63329 1.92561 0
M  V30 2555 C 251.784 2.80171 -1.092 0
M  V30 2556 C 253.332 2.93954 -1.07518 0
M  V30 2557 C 253.807 4.21372 -1.79471 0
M  V30 2558 N 255.298 4.28303 -1.76381 0
M  V30 2559 C 256.033 5.25729 -2.28904 0
M  V30 2560 N 255.529 6.29254 -2.89846 0
M  V30 2561 N 257.322 5.17586 -2.19228 0
M  V30 2562 H 249.473 1.33415 -1.6527 0
M  V30 2563 H 251.736 0.64282 -0.696769 0
M  V30 2564 H 251.442 2.78561 -2.14701 0
M  V30 2565 H 251.316 3.7133 -0.662862 0
M  V30 2566 H 253.703 2.95086 -0.028475 0
M  V30 2567 H 253.784 2.04002 -1.54328 0
M  V30 2568 H 253.428 4.21001 -2.84114 0
M  V30 2569 H 253.358 5.10275 -1.30104 0
M  V30 2570 H 255.849 3.54119 -1.31939 0
M  V30 2571 H 256.162 6.99964 -3.27522 0
M  V30 2572 H 254.507 6.29791 -2.93919 0
M  V30 2573 H 257.698 4.35631 -1.71299 0
M  V30 2574 H 257.871 5.93348 -2.60466 0
M  V30 2575 N 251.277 0.427512 1.51691 0
M  V30 2576 C 252.523 -0.142439 2.02299 0
M  V30 2577 C 252.856 -1.43214 1.31162 0
M  V30 2578 O 252.131 -1.89833 0.423511 0
M  V30 2579 C 252.414 -0.371301 3.58181 0
M  V30 2580 C 252.267 0.936358 4.39946 0
M  V30 2581 C 253.586 -1.14542 4.24933 0
M  V30 2582 H 250.705 -0.0502937 0.735282 0
M  V30 2583 H 253.347 0.564584 1.81418 0
M  V30 2584 H 251.497 -0.973559 3.76104 0
M  V30 2585 H 253.169 1.57184 4.33694 0
M  V30 2586 H 251.412 1.5432 4.05423 0
M  V30 2587 H 252.083 0.730388 5.47147 0
M  V30 2588 H 254.559 -0.635362 4.11221 0
M  V30 2589 H 253.435 -1.27431 5.33903 0
M  V30 2590 H 253.696 -2.17093 3.85127 0
M  V30 2591 N 252.755 -1.56801 0.158532 0
M  V30 2592 C 254.001 -1.96781 -0.490405 0
M  V30 2593 C 254.334 -1.04397 -1.63753 0
M  V30 2594 O 253.609 -0.0885805 -1.94298 0
M  V30 2595 C 253.892 -3.4635 -0.985594 0
M  V30 2596 C 253.745 -4.49512 0.160824 0
M  V30 2597 C 255.064 -3.98697 -1.86355 0
M  V30 2598 H 252.183 -0.715482 -0.176788 0
M  V30 2599 H 254.825 -1.88451 0.242088 0
M  V30 2600 H 252.975 -3.53579 -1.60978 0
M  V30 2601 H 254.647 -4.54353 0.797537 0
M  V30 2602 H 252.89 -4.26013 0.818256 0
M  V30 2603 H 253.561 -5.51531 -0.227569 0
M  V30 2604 H 256.037 -3.94019 -1.33746 0
M  V30 2605 H 254.913 -5.03792 -2.17909 0
M  V30 2606 H 255.174 -3.41744 -2.8047 0
M  V30 2607 N 254.233 0.115231 -1.57178 0
M  V30 2608 C 255.163 1.1423 -2.03651 0
M  V30 2609 C 256.144 1.42967 -0.921655 0
M  V30 2610 O 257.329 1.53343 -1.19162 0
M  V30 2611 C 254.459 2.4675 -2.44401 0
M  V30 2612 C 253.413 2.32467 -3.59365 0
M  V30 2613 C 252.739 3.69984 -3.86026 0
M  V30 2614 C 254.039 1.78203 -4.90959 0
M  V30 2615 H 255.733 0.755749 -2.89705 0
M  V30 2616 H 253.279 0.362093 -1.39373 0
M  V30 2617 H 255.232 3.18854 -2.75517 0
M  V30 2618 H 253.956 2.87302 -1.55322 0
M  V30 2619 H 252.615 1.62811 -3.28463 0
M  V30 2620 H 252.263 4.08028 -2.94147 0
M  V30 2621 H 251.963 3.61279 -4.63412 0
M  V30 2622 H 253.487 4.43587 -4.19599 0
M  V30 2623 H 254.901 2.40128 -5.20587 0
M  V30 2624 H 253.298 1.8031 -5.72371 0
M  V30 2625 H 254.368 0.739876 -4.79222 0
M  V30 2626 N 255.711 1.52812 0.385517 0
M  V30 2627 C 256.988 1.5861 1.14465 0
M  V30 2628 C 257.368 0.381402 2.07626 0
M  V30 2629 O 256.716 -0.629999 2.19643 0
M  V30 2630 C 256.926 2.92664 1.90128 0
M  V30 2631 C 258.274 3.46526 2.45367 0
M  V30 2632 O 259.298 2.94562 2.0028 0
M  V30 2633 O 258.157 4.37323 3.27736 0
M  V30 2634 H 255.251 0.639855 0.523941 0
M  V30 2635 H 257.797 1.65149 0.390389 0
M  V30 2636 H 256.569 3.71788 1.22022 0
M  V30 2637 H 256.192 2.89527 2.72507 0
M  V30 2638 N 257.189 -0.644168 1.43834 0
M  V30 2639 C 258.435 -1.40603 1.46146 0
M  V30 2640 C 258.768 -1.93997 0.0887717 0
M  V30 2641 O 258.043 -1.72854 -0.891724 0
M  V30 2642 C 258.326 -2.58086 2.51124 0
M  V30 2643 C 258.179 -2.10126 3.97702 0
M  V30 2644 C 259.498 -3.60291 2.52742 0
M  V30 2645 H 256.617 -0.509905 0.532134 0
M  V30 2646 H 259.259 -0.729502 1.75437 0
M  V30 2647 H 257.409 -3.15801 2.26278 0
M  V30 2648 H 259.081 -1.57342 4.33637 0
M  V30 2649 H 257.324 -1.41419 4.10101 0
M  V30 2650 H 257.995 -2.94649 4.66783 0
M  V30 2651 H 260.471 -3.12352 2.7491 0
M  V30 2652 H 259.347 -4.40032 3.28121 0
M  V30 2653 H 259.608 -4.1349 1.56455 0
M  V30 2654 N 258.668 -1.30515 -0.883378 0
M  V30 2655 C 259.914 -1.19607 -1.63774 0
M  V30 2656 C 260.247 0.248314 -1.92606 0
M  V30 2657 O 259.522 1.17742 -1.54813 0
M  V30 2658 C 259.805 -2.02669 -2.97653 0
M  V30 2659 C 259.658 -3.55335 -2.75784 0
M  V30 2660 C 260.977 -1.86573 -3.98596 0
M  V30 2661 H 258.096 -0.435856 -0.594305 0
M  V30 2662 H 260.738 -1.60165 -1.02212 0
M  V30 2663 H 258.888 -1.68208 -3.50197 0
M  V30 2664 H 260.56 -3.99863 -2.30016 0
M  V30 2665 H 258.803 -3.79438 -2.1026 0
M  V30 2666 H 259.474 -4.08745 -3.70988 0
M  V30 2667 H 261.95 -2.16703 -3.55217 0
M  V30 2668 H 260.826 -2.47014 -4.90179 0
M  V30 2669 H 261.087 -0.825321 -4.34328 0
M  V30 2670 N 260.146 1.09593 -1.13257 0
M  V30 2671 C 261.079 2.15451 -0.752061 0
M  V30 2672 C 262.057 1.60493 0.260913 0
M  V30 2673 O 263.241 1.8788 0.152819 0
M  V30 2674 C 260.368 3.38506 -0.114594 0
M  V30 2675 C 259.414 4.12183 -1.09579 0
M  V30 2676 S 260.247 4.6661 -2.62745 0
M  V30 2677 C 261.403 5.92966 -2.00354 0
M  V30 2678 H 261.636 2.47395 -1.64872 0
M  V30 2679 H 259.169 1.21515 -0.952545 0
M  V30 2680 H 261.127 4.09757 0.246808 0
M  V30 2681 H 259.788 3.04784 0.759309 0
M  V30 2682 H 258.981 5.00445 -0.597545 0
M  V30 2683 H 258.583 3.46785 -1.40057 0
M  V30 2684 H 260.875 6.63882 -1.35156 0
M  V30 2685 H 261.818 6.47467 -2.86691 0
M  V30 2686 H 262.226 5.45405 -1.4558 0
M  V30 2687 N 261.624 0.925811 1.2754 0
M  V30 2688 C 262.572 0.413897 2.28888 0
M  V30 2689 C 263.566 -0.500779 1.61829 0
M  V30 2690 O 264.772 -0.38069 1.75928 0
M  V30 2691 H 261.147 0.115274 0.743112 0
M  V30 2692 H 263.118 1.28151 2.69481 0
M  V30 2693 C 261.867 -0.319792 3.46226 0
M  V30 2694 H 261.19 0.374846 3.98039 0
M  V30 2695 H 262.63 -0.642435 4.19105 0
M  V30 2696 C 261.089 -1.53209 3.00048 0
M  V30 2697 O 261.619 -2.6309 3.03557 0
M  V30 2698 N 259.825 -1.38326 2.55566 0
M  V30 2699 H 259.372 -0.489292 2.5291 0
M  V30 2700 H 259.33 -2.19564 2.25031 0
M  V30 2701 N 263.102 -1.41638 0.69111 0
M  V30 2702 C 264.052 -2.28 -0.000107832 0
M  V30 2703 C 265.036 -1.41964 -0.757304 0
M  V30 2704 O 266.228 -1.65274 -0.633532 0
M  V30 2705 C 263.357 -3.30209 -0.938983 0
M  V30 2706 C 262.443 -4.23725 -0.17827 0
M  V30 2707 N 262.834 -4.99017 0.825563 0
M  V30 2708 C 261.132 -4.44071 -0.414392 0
M  V30 2709 C 261.833 -5.67431 1.28052 0
M  V30 2710 N 260.809 -5.40197 0.607304 0
M  V30 2711 H 264.611 -2.83644 0.769617 0
M  V30 2712 H 262.125 -1.53797 0.521562 0
M  V30 2713 H 264.122 -3.90898 -1.44929 0
M  V30 2714 H 262.782 -2.76126 -1.70836 0
M  V30 2715 H 263.793 -5.03671 1.20566 0
M  V30 2716 H 260.47 -4.01004 -1.162 0
M  V30 2717 H 261.86 -6.37801 2.11327 0
M  V30 2718 N 264.58 -0.43555 -1.51462 0
M  V30 2719 C 265.991 0.0279871 -1.86679 0
M  V30 2720 C 266.342 1.42104 -1.35281 0
M  V30 2721 O 265.467 2.04667 -0.702878 0
M  V30 2722 C 266.062 0.0575626 -3.38751 0
M  V30 2723 C 264.621 0.465507 -3.7351 0
M  V30 2724 C 263.768 -0.342996 -2.75171 0
M  V30 2725 H 266.719 -0.651473 -1.44712 0
M  V30 2726 H 266.74 0.867421 -3.70481 0
M  V30 2727 H 266.252 -0.956448 -3.7613 0
M  V30 2728 H 264.353 1.48519 -3.41721 0
M  V30 2729 H 264.466 0.191546 -4.78717 0
M  V30 2730 H 262.83 0.198442 -2.53926 0
M  V30 2731 H 263.613 -1.35585 -3.15391 0
M  V30 2732 N 266.058 1.56714 -0.166846 0
M  V30 2733 C 267.306 1.96358 0.478305 0
M  V30 2734 C 267.627 1.0537 1.6408 0
M  V30 2735 O 266.897 0.119154 1.95537 0
M  V30 2736 H 265.477 0.725065 0.179692 0
M  V30 2737 H 268.139 1.93329 -0.246985 0
M  V30 2738 H 267.235 3.00547 0.841292 0
M  V30 2739 N 267.536 -0.106894 1.57237 0
M  V30 2740 C 268.766 -0.825191 1.89405 0
M  V30 2741 C 269.174 -1.73374 0.757496 0
M  V30 2742 O 268.517 -1.81552 -0.280115 0
M  V30 2743 C 268.579 -1.70102 3.1671 0
M  V30 2744 C 268.243 -0.965523 4.46684 0
M  V30 2745 C 269.24 -0.300741 5.19029 0
M  V30 2746 C 266.925 -0.943105 4.93367 0
M  V30 2747 C 268.919 0.376622 6.36286 0
M  V30 2748 C 266.606 -0.261949 6.10538 0
M  V30 2749 C 267.604 0.396748 6.81847 0
M  V30 2750 O 267.292 1.06701 7.96787 0
M  V30 2751 H 267.024 -0.241852 0.631255 0
M  V30 2752 H 269.578 -0.0921491 2.05193 0
M  V30 2753 H 267.808 -2.47601 2.97036 0
M  V30 2754 H 269.497 -2.29483 3.34802 0
M  V30 2755 H 270.263 -0.309599 4.84011 0
M  V30 2756 H 266.142 -1.44524 4.3776 0
M  V30 2757 H 269.686 0.891334 6.91882 0
M  V30 2758 H 265.583 -0.250896 6.45012 0
M  V30 2759 H 266.351 0.972707 8.127 0
M  V30 2760 N 269.014 -1.53014 -0.377408 0
M  V30 2761 C 269.962 -1.7927 -1.48206 0
M  V30 2762 C 270.956 -0.661195 -1.55963 0
M  V30 2763 O 272.162 -0.843908 -1.58991 0
M  V30 2764 H 268.537 -0.567425 -0.493491 0
M  V30 2765 H 270.508 -2.71753 -1.2326 0
M  V30 2766 C 269.257 -1.98894 -2.85196 0
M  V30 2767 H 268.58 -2.85395 -2.79981 0
M  V30 2768 H 270.02 -2.21249 -3.61698 0
M  V30 2769 C 268.479 -0.764691 -3.28107 0
M  V30 2770 O 269.009 0.0523226 -4.01666 0
M  V30 2771 N 267.215 -0.591493 -2.84517 0
M  V30 2772 H 266.762 -1.25749 -2.24822 0
M  V30 2773 H 266.72 0.226253 -3.13585 0
M  V30 2774 N 270.492 0.636531 -1.44174 0
M  V30 2775 C 271.72 1.42353 -1.50144 0
M  V30 2776 C 272.135 1.88389 -0.124575 0
M  V30 2777 O 271.492 1.6051 0.868489 0
M  V30 2778 C 271.543 2.64744 -2.46156 0
M  V30 2779 O 271.264 2.20629 -3.7849 0
M  V30 2780 C 272.765 3.57929 -2.61537 0
M  V30 2781 H 269.985 0.436752 -0.5094 0
M  V30 2782 H 272.529 0.778933 -1.89084 0
M  V30 2783 H 270.684 3.25307 -2.10366 0
M  V30 2784 H 271.098 2.99938 -4.30276 0
M  V30 2785 H 272.572 4.40428 -3.32757 0
M  V30 2786 H 273.049 4.06382 -1.66585 0
M  V30 2787 H 273.655 3.03238 -2.98206 0
M  V30 2788 N 271.97 1.30982 0.876444 0
M  V30 2789 C 273.219 1.19658 1.62373 0
M  V30 2790 C 273.532 -0.245636 1.94052 0
M  V30 2791 O 274.738 -0.48049 2.67214 0
M  V30 2792 C 273.194 2.09433 2.92687 0
M  V30 2793 C 272.802 3.58613 2.68516 0
M  V30 2794 C 274.546 2.06893 3.70669 0
M  V30 2795 C 272.453 4.40416 3.94699 0
M  V30 2796 H 271.383 0.444268 0.609214 0
M  V30 2797 H 274.034 1.55791 0.969605 0
M  V30 2798 H 272.416 1.66191 3.59439 0
M  V30 2799 H 273.59 4.10058 2.10212 0
M  V30 2800 H 271.905 3.63063 2.03898 0
M  V30 2801 H 274.502 2.65258 4.64265 0
M  V30 2802 H 274.845 1.05448 4.02724 0
M  V30 2803 H 275.378 2.48301 3.10792 0
M  V30 2804 H 272.117 5.42591 3.67798 0
M  V30 2805 H 271.637 3.93731 4.52477 0
M  V30 2806 H 273.316 4.52294 4.62644 0
M  V30 2807 N 273.449 -1.08991 1.13837 0
M  V30 2808 C 274.396 -2.15748 0.819835 0
M  V30 2809 C 275.366 -1.64636 -0.220026 0
M  V30 2810 O 276.551 -1.90582 -0.0912757 0
M  V30 2811 C 273.691 -3.4382 0.296913 0
M  V30 2812 C 272.804 -4.0881 1.39636 0
M  V30 2813 C 271.939 -5.24655 0.831314 0
M  V30 2814 C 270.978 -5.81575 1.90886 0
M  V30 2815 N 270.115 -6.88774 1.36142 0
M  V30 2816 H 274.955 -2.42338 1.73426 0
M  V30 2817 H 272.492 -1.18935 0.865613 0
M  V30 2818 H 274.45 -4.17193 -0.0244339 0
M  V30 2819 H 273.08 -3.17535 -0.580628 0
M  V30 2820 H 272.132 -3.33258 1.83422 0
M  V30 2821 H 273.444 -4.47141 2.21058 0
M  V30 2822 H 272.598 -6.04942 0.461515 0
M  V30 2823 H 271.337 -4.87698 -0.013932 0
M  V30 2824 H 270.342 -4.99946 2.28767 0
M  V30 2825 H 271.567 -6.20592 2.75758 0
M  V30 2826 H 269.513 -6.53788 0.538254 0
M  V30 2827 H 269.43 -7.25898 2.11208 0
M  V30 2828 H 270.698 -7.72806 1.01933 0
M  V30 2829 N 274.927 -0.932562 -1.27047 0
M  V30 2830 C 276.204 -0.49377 -1.89265 0
M  V30 2831 C 276.584 1.02833 -1.8436 0
M  V30 2832 O 275.932 1.88461 -1.29209 0
M  V30 2833 C 276.142 -1.04536 -3.32976 0
M  V30 2834 C 277.49 -1.10879 -4.09867 0
M  V30 2835 O 278.514 -0.995327 -3.42011 0
M  V30 2836 O 277.373 -1.28417 -5.31198 0
M  V30 2837 H 274.467 -0.159596 -0.811454 0
M  V30 2838 H 277.013 -1.02457 -1.3528 0
M  V30 2839 H 275.785 -2.08913 -3.30864 0
M  V30 2840 H 275.408 -0.496494 -3.94488 0
M  V30 2841 N 276.405 1.4127 -0.698611 0
M  V30 2842 C 277.338 2.28195 0.0153898 0
M  V30 2843 C 278.316 1.42402 0.784883 0
M  V30 2844 O 279.5 1.71828 0.775067 0
M  V30 2845 C 276.627 3.22685 1.02918 0
M  V30 2846 C 275.673 4.25041 0.352501 0
M  V30 2847 S 276.506 5.27757 -0.907322 0
M  V30 2848 C 277.662 6.25812 0.104796 0
M  V30 2849 H 277.895 2.88403 -0.721858 0
M  V30 2850 H 275.428 1.46452 -0.488996 0
M  V30 2851 H 277.386 3.77655 1.60893 0
M  V30 2852 H 276.047 2.61566 1.73902 0
M  V30 2853 H 275.24 4.91437 1.11828 0
M  V30 2854 H 274.842 3.73682 -0.154254 0
M  V30 2855 H 277.134 6.70705 0.957103 0
M  V30 2856 H 278.077 7.06149 -0.525323 0
M  V30 2857 H 278.485 5.62615 0.460931 0
M  V30 2858 N 277.883 0.443576 1.51229 0
M  V30 2859 C 278.833 -0.382787 2.24764 0
M  V30 2860 C 279.817 -0.984836 1.27239 0
M  V30 2861 O 281.009 -0.901943 1.52296 0
M  V30 2862 C 278.138 -1.47989 3.09765 0
M  V30 2863 C 277.224 -0.886931 4.14722 0
M  V30 2864 N 277.615 -0.0237103 5.05794 0
M  V30 2865 C 275.913 -1.15385 4.30816 0
M  V30 2866 C 276.614 0.309971 5.80874 0
M  V30 2867 N 275.59 -0.307989 5.42727 0
M  V30 2868 H 279.392 0.282624 2.92538 0
M  V30 2869 H 276.906 0.256027 1.60369 0
M  V30 2870 H 278.903 -2.08482 3.61027 0
M  V30 2871 H 277.563 -2.14758 2.43535 0
M  V30 2872 H 278.574 0.34318 5.16762 0
M  V30 2873 H 275.251 -1.81857 3.75812 0
M  V30 2874 H 276.641 1.01279 6.64223 0
M  V30 2875 N 279.361 -1.56624 0.175154 0
M  V30 2876 C 280.271 -2.21741 -0.766042 0
M  V30 2877 C 281.287 -1.21023 -1.25018 0
M  V30 2878 O 282.463 -1.53697 -1.3015 0
M  V30 2879 C 279.528 -2.84839 -1.97655 0
M  V30 2880 C 278.589 -4.00769 -1.53892 0
M  V30 2881 C 277.822 -4.60849 -2.69173 0
M  V30 2882 O 278.045 -4.19823 -3.86141 0
M  V30 2883 O 276.979 -5.50655 -2.43028 0
M  V30 2884 H 280.805 -3.02738 -0.241585 0
M  V30 2885 H 278.39 -1.49305 -0.053222 0
M  V30 2886 H 280.272 -3.24834 -2.68442 0
M  V30 2887 H 278.947 -2.06836 -2.48999 0
M  V30 2888 H 277.854 -3.65436 -0.80044 0
M  V30 2889 H 279.187 -4.80376 -1.07236 0
M  V30 2890 N 280.839 0.0985539 -1.57292 0
M  V30 2891 C 282.069 0.815135 -1.8984 0
M  V30 2892 C 282.477 1.7297 -0.766679 0
M  V30 2893 O 281.82 1.81698 0.270483 0
M  V30 2894 C 281.882 1.6842 -3.17608 0
M  V30 2895 C 281.546 0.94182 -4.4719 0
M  V30 2896 C 282.543 0.273212 -5.19182 0
M  V30 2897 C 280.228 0.916927 -4.9386 0
M  V30 2898 C 282.222 -0.410361 -6.36078 0
M  V30 2899 C 279.909 0.229567 -6.10669 0
M  V30 2900 C 280.907 -0.432902 -6.81627 0
M  V30 2901 O 280.595 -1.10925 -7.9621 0
M  V30 2902 H 280.327 0.238501 -0.632529 0
M  V30 2903 H 282.881 0.0812659 -2.05239 0
M  V30 2904 H 281.111 2.46022 -2.98345 0
M  V30 2905 H 282.8 2.27704 -3.36015 0
M  V30 2906 H 283.566 0.283927 -4.84168 0
M  V30 2907 H 279.445 1.42201 -4.3852 0
M  V30 2908 H 282.989 -0.928013 -6.914 0
M  V30 2909 H 278.886 0.216686 -6.45136 0
M  V30 2910 H 279.654 -1.01579 -8.12172 0
M  V30 2911 N 282.317 1.53212 0.369288 0
M  V30 2912 C 283.565 1.68881 1.11012 0
M  V30 2913 C 283.886 0.441285 1.89941 0
M  V30 2914 O 283.156 -0.544623 1.88177 0
M  V30 2915 H 281.736 0.622569 0.412816 0
M  V30 2916 H 284.398 1.90391 0.416802 0
M  V30 2917 H 283.494 2.54822 1.80201 0
M  V30 2918 N 283.795 -0.628877 1.44509 0
M  V30 2919 C 285.042 -1.38839 1.47411 0
M  V30 2920 C 285.37 -1.94202 0.10757 0
M  V30 2921 O 284.625 -1.74243 -0.890947 0
M  V30 2922 C 284.924 -2.56995 2.48371 0
M  V30 2923 C 284.59 -2.19908 3.93639 0
M  V30 2924 C 283.252 -2.09506 4.33198 0
M  V30 2925 C 285.604 -1.9064 4.85083 0
M  V30 2926 C 282.932 -1.68028 5.62124 0
M  V30 2927 C 285.284 -1.50655 6.14399 0
M  V30 2928 C 283.948 -1.38796 6.5291 0
M  V30 2929 H 283.218 -0.508048 0.539414 0
M  V30 2930 H 285.865 -0.712913 1.77735 0
M  V30 2931 H 284.17 -3.29786 2.11538 0
M  V30 2932 H 285.867 -3.15223 2.47861 0
M  V30 2933 H 282.457 -2.28922 3.62343 0
M  V30 2934 H 286.641 -1.97585 4.55273 0
M  V30 2935 H 281.897 -1.57452 5.90778 0
M  V30 2936 H 286.071 -1.27048 6.84713 0
M  V30 2937 H 283.698 -1.06429 7.52713 0
M  V30 2938 N 285.273 -1.31445 -0.869486 0
M  V30 2939 C 286.521 -1.20918 -1.61936 0
M  V30 2940 C 286.842 0.232683 -1.93607 0
M  V30 2941 O 286.112 1.15352 -1.58338 0
M  V30 2942 H 284.692 -0.44454 -0.600328 0
M  V30 2943 H 287.354 -1.64776 -1.0409 0
M  V30 2944 H 286.45 -1.78124 -2.56278 0
M  V30 2945 N 286.751 1.08385 -1.14413 0
M  V30 2946 C 287.699 2.17406 -0.826888 0
M  V30 2947 C 288.693 1.6827 0.195312 0
M  V30 2948 O 289.899 1.79927 0.0513892 0
M  V30 2949 H 286.274 0.70934 -0.249681 0
M  V30 2950 H 288.245 2.41388 -1.75426 0
M  V30 2951 C 286.994 3.46215 -0.320979 0
M  V30 2952 H 286.317 3.84401 -1.0989 0
M  V30 2953 H 287.757 4.23777 -0.137549 0
M  V30 2954 C 286.216 3.23067 0.955472 0
M  V30 2955 O 286.746 3.4668 2.02918 0
M  V30 2956 N 284.952 2.7661 0.890798 0
M  V30 2957 H 284.499 2.57594 0.0168815 0
M  V30 2958 H 284.457 2.61501 1.74542 0
M  V30 2959 N 288.23 0.939286 1.26551 0
M  V30 2960 C 289.641 0.628782 1.75793 0
M  V30 2961 C 289.992 -0.856046 1.7654 0
M  V30 2962 O 289.117 -1.66994 1.3763 0
M  V30 2963 C 289.712 1.13465 3.19235 0
M  V30 2964 C 288.271 0.874601 3.66098 0
M  V30 2965 C 287.418 1.28667 2.45642 0
M  V30 2966 H 290.369 1.1178 1.12654 0
M  V30 2967 H 290.39 0.487609 3.77363 0
M  V30 2968 H 289.902 2.21535 3.1866 0
M  V30 2969 H 288.003 -0.191793 3.72106 0
M  V30 2970 H 288.116 1.50028 4.55004 0
M  V30 2971 H 286.48 0.705109 2.44745 0
M  V30 2972 H 287.263 2.37625 2.47769 0
M  V30 2973 N 289.708 -1.40897 0.706093 0
M  V30 2974 C 290.956 -2.00657 0.241054 0
M  V30 2975 C 291.277 -1.56241 -1.16678 0
M  V30 2976 O 290.547 -0.79765 -1.78926 0
M  V30 2977 H 289.127 -0.742018 0.0861308 0
M  V30 2978 H 291.789 -1.72372 0.909604 0
M  V30 2979 H 290.885 -3.10958 0.266705 0
M  V30 2980 N 291.186 -0.45159 -1.50991 0
M  V30 2981 C 292.432 0.110237 -2.025 0
M  V30 2982 C 292.765 1.41109 -1.33424 0
M  V30 2983 O 292.04 1.89135 -0.453659 0
M  V30 2984 C 292.323 0.314271 -3.58726 0
M  V30 2985 C 292.176 -1.00623 -4.38401 0
M  V30 2986 C 293.495 1.07767 -4.26702 0
M  V30 2987 H 290.614 0.0385897 -0.735989 0
M  V30 2988 H 293.256 -0.593374 -1.80497 0
M  V30 2989 H 291.406 0.913601 -3.77605 0
M  V30 2990 H 293.078 -1.64064 -4.31139 0
M  V30 2991 H 291.321 -1.6075 -4.02917 0
M  V30 2992 H 291.992 -0.817341 -5.45915 0
M  V30 2993 H 294.468 0.56986 -4.12179 0
M  V30 2994 H 293.344 1.18921 -5.35863 0
M  V30 2995 H 293.605 2.10939 -3.88532 0
M  V30 2996 N 292.664 1.56529 -0.183458 0
M  V30 2997 C 293.889 2.02064 0.467428 0
M  V30 2998 C 294.314 1.06282 1.55196 0
M  V30 2999 O 293.672 0.0443565 1.81246 0
M  V30 3000 C 293.72 3.46122 1.01153 0
M  V30 3001 O 292.824 3.53437 2.12499 0
M  V30 3002 H 292.165 0.654726 0.110588 0
M  V30 3003 H 294.695 2.02521 -0.290917 0
M  V30 3004 H 294.705 3.85676 1.33108 0
M  V30 3005 H 293.38 4.15331 0.217533 0
M  V30 3006 H 291.957 3.2575 1.81497 0
M  V30 3007 N 294.142 -0.090211 1.57342 0
M  V30 3008 C 295.052 -1.12735 2.05738 0
M  V30 3009 C 296.068 -1.43557 0.983231 0
M  V30 3010 O 297.244 -1.54101 1.29672 0
M  V30 3011 C 294.309 -2.42659 2.47624 0
M  V30 3012 C 293.37 -2.18975 3.69254 0
M  V30 3013 C 292.603 -3.42704 4.09133 0
M  V30 3014 O 292.826 -4.51127 3.49057 0
M  V30 3015 O 291.76 -3.32003 5.02053 0
M  V30 3016 H 295.586 -0.746279 2.94388 0
M  V30 3017 H 293.171 -0.303064 1.46294 0
M  V30 3018 H 295.053 -3.19155 2.7517 0
M  V30 3019 H 293.728 -2.80182 1.62109 0
M  V30 3020 H 292.635 -1.40244 3.46818 0
M  V30 3021 H 293.968 -1.86342 4.55563 0
M  V30 3022 N 295.62 -1.53406 -0.361157 0
M  V30 3023 C 296.57 -1.76536 -1.44287 0
M  V30 3024 C 297.554 -0.620019 -1.48474 0
M  V30 3025 O 298.746 -0.878834 -1.53641 0
M  V30 3026 C 295.875 -1.96266 -2.81664 0
M  V30 3027 C 294.961 -3.16815 -2.81938 0
M  V30 3028 N 295.352 -4.38637 -2.51855 0
M  V30 3029 C 293.65 -3.17627 -3.13096 0
M  V30 3030 C 294.351 -5.20401 -2.59919 0
M  V30 3031 N 293.327 -4.56712 -2.94814 0
M  V30 3032 H 297.129 -2.68331 -1.19899 0
M  V30 3033 H 294.643 -1.52091 -0.56938 0
M  V30 3034 H 296.64 -2.10966 -3.59582 0
M  V30 3035 H 295.3 -1.05702 -3.07013 0
M  V30 3036 H 296.311 -4.66293 -2.25369 0
M  V30 3037 H 292.988 -2.36971 -3.43731 0
M  V30 3038 H 294.378 -6.27586 -2.39969 0
M  V30 3039 N 297.098 0.621204 -1.44841 0
M  V30 3040 C 298.344 1.38073 -1.49357 0
M  V30 3041 C 298.699 1.91973 -0.128115 0
M  V30 3042 O 297.992 1.71311 0.858087 0
M  V30 3043 C 298.186 2.55675 -2.4973 0
M  V30 3044 C 298.015 2.13289 -3.95901 0
M  V30 3045 C 296.785 2.001 -4.63991 0
M  V30 3046 C 298.983 1.7159 -4.84831 0
M  V30 3047 N 296.965 1.51381 -5.94943 0
M  V30 3048 C 298.336 1.34188 -6.05304 0
M  V30 3049 C 300.391 1.59059 -4.7181 0
M  V30 3050 C 299.094 0.855085 -7.14199 0
M  V30 3051 C 301.12 1.11784 -5.8074 0
M  V30 3052 C 300.482 0.753385 -7.0036 0
M  V30 3053 H 296.581 0.499675 -0.601539 0
M  V30 3054 H 299.165 0.711609 -1.8123 0
M  V30 3055 H 297.336 3.20201 -2.19832 0
M  V30 3056 H 299.068 3.22509 -2.4448 0
M  V30 3057 H 295.823 2.20863 -4.18947 0
M  V30 3058 H 296.247 1.29293 -6.64539 0
M  V30 3059 H 300.889 1.85865 -3.79755 0
M  V30 3060 H 298.607 0.574552 -8.06055 0
M  V30 3061 H 302.193 1.02533 -5.72694 0
M  V30 3062 H 301.073 0.393183 -7.83214 0
M  V30 3063 N 298.576 1.31904 0.862503 0
M  V30 3064 C 299.804 1.24998 1.64873 0
M  V30 3065 C 300.219 -0.183425 1.87907 0
M  V30 3066 O 299.576 -1.11794 1.44251 0
M  V30 3067 C 299.627 1.99829 3.01248 0
M  V30 3068 O 299.348 3.37575 2.79239 0
M  V30 3069 C 300.849 1.99852 3.95694 0
M  V30 3070 H 298.069 0.431599 0.513773 0
M  V30 3071 H 300.613 1.73901 1.07604 0
M  V30 3072 H 298.768 1.54668 3.55185 0
M  V30 3073 H 299.182 3.75776 3.65914 0
M  V30 3074 H 300.656 2.56709 4.88676 0
M  V30 3075 H 301.133 0.982852 4.28062 0
M  V30 3076 H 301.739 2.44926 3.47694 0
M  V30 3077 N 300.054 -1.07777 1.14986 0
M  V30 3078 C 301.465 -1.61766 0.932127 0
M  V30 3079 C 301.816 -1.88974 -0.527581 0
M  V30 3080 O 300.941 -1.65198 -1.39781 0
M  V30 3081 C 301.536 -2.93891 1.68563 0
M  V30 3082 C 300.095 -3.44639 1.5133 0
M  V30 3083 C 299.242 -2.18767 1.704 0
M  V30 3084 H 302.193 -0.909201 1.30074 0
M  V30 3085 H 302.214 -3.62623 1.15259 0
M  V30 3086 H 301.726 -2.74057 2.74799 0
M  V30 3087 H 299.827 -3.69564 0.474702 0
M  V30 3088 H 299.94 -4.20966 2.28746 0
M  V30 3089 H 298.304 -2.28253 1.13016 0
M  V30 3090 H 299.087 -2.01433 2.77992 0
M  V30 3091 N 301.532 -0.945985 -1.26051 0
M  V30 3092 C 302.78 -0.594941 -1.93145 0
M  V30 3093 C 303.101 0.86953 -1.7454 0
M  V30 3094 O 302.371 1.61838 -1.10387 0
M  V30 3095 H 300.951 -0.217044 -0.714773 0
M  V30 3096 H 303.613 -1.20235 -1.53393 0
M  V30 3097 H 302.709 -0.816835 -3.01221 0
M  V30 3098 N 303.011 1.40521 -0.713556 0
M  V30 3099 C 303.943 2.29191 -0.0203126 0
M  V30 3100 C 304.956 1.45723 0.725864 0
M  V30 3101 O 306.145 1.69033 0.573581 0
M  V30 3102 C 303.245 3.2395 0.995486 0
M  V30 3103 C 302.418 4.36262 0.315256 0
M  V30 3104 C 301.477 5.11474 1.23616 0
M  V30 3105 O 300.503 5.64606 0.721719 0
M  V30 3106 N 301.705 5.20638 2.56743 0
M  V30 3107 H 304.47 2.89327 -0.781652 0
M  V30 3108 H 302.031 1.51869 -0.561022 0
M  V30 3109 H 304.023 3.71137 1.61368 0
M  V30 3110 H 302.593 2.64995 1.6582 0
M  V30 3111 H 301.813 3.91228 -0.483106 0
M  V30 3112 H 303.101 5.08558 -0.157004 0
M  V30 3113 H 302.499 4.7895 3.01037 0
M  V30 3114 H 301.056 5.71339 3.13712 0
M  V30 3115 N 304.489 0.459591 1.5075 0
M  V30 3116 C 305.737 -0.0991532 2.01857 0
M  V30 3117 C 306.058 -1.41247 1.34441 0
M  V30 3118 O 305.328 -1.89775 0.486022 0
M  V30 3119 H 303.908 -0.039633 0.745948 0
M  V30 3120 H 306.57 0.607387 1.85194 0
M  V30 3121 H 305.666 -0.258998 3.11023 0
M  V30 3122 N 305.967 -1.56429 0.191757 0
M  V30 3123 C 306.899 -2.16154 -0.762245 0
M  V30 3124 C 307.912 -1.12247 -1.17917 0
M  V30 3125 O 309.101 -1.39353 -1.11548 0
M  V30 3126 C 306.201 -2.70606 -2.04024 0
M  V30 3127 C 305.374 -3.99381 -1.78364 0
M  V30 3128 C 304.433 -4.38692 -2.90578 0
M  V30 3129 O 303.459 -5.06179 -2.6033 0
M  V30 3130 N 304.661 -4.01922 -4.18854 0
M  V30 3131 H 307.426 -2.98643 -0.251526 0
M  V30 3132 H 304.987 -1.61897 0.00967373 0
M  V30 3133 H 306.979 -2.93891 -2.78227 0
M  V30 3134 H 305.549 -1.9259 -2.46227 0
M  V30 3135 H 304.769 -3.84262 -0.879581 0
M  V30 3136 H 306.057 -4.83445 -1.58614 0
M  V30 3137 H 305.455 -3.47631 -4.46283 0
M  V30 3138 H 304.012 -4.30165 -4.89695 0
M  V30 3139 N 307.445 0.0818655 -1.57387 0
M  V30 3140 C 308.393 1.11712 -2.04018 0
M  V30 3141 C 309.387 1.40683 -0.94364 0
M  V30 3142 O 310.593 1.40209 -1.12878 0
M  V30 3143 H 306.968 0.377542 -0.650358 0
M  V30 3144 H 308.939 0.697614 -2.90131 0
M  V30 3145 C 307.688 2.42537 -2.49141 0
M  V30 3146 H 307.011 2.21092 -3.33104 0
M  V30 3147 H 308.451 3.13446 -2.85531 0
M  V30 3148 C 306.91 3.0778 -1.37014 0
M  V30 3149 O 307.44 3.95436 -0.706621 0
M  V30 3150 N 305.646 2.68242 -1.11779 0
M  V30 3151 H 305.193 1.97052 -1.65917 0
M  V30 3152 H 305.151 3.1222 -0.369594 0
M  V30 3153 N 308.923 1.53595 0.353017 0
M  V30 3154 C 310.169 1.71581 1.09232 0
M  V30 3155 C 310.524 0.468328 1.86613 0
M  V30 3156 O 309.817 -0.538911 1.83865 0
M  V30 3157 C 310.011 2.91313 2.07054 0
M  V30 3158 C 309.84 4.27585 1.39287 0
M  V30 3159 C 308.61 4.92233 1.1417 0
M  V30 3160 C 310.808 5.07656 0.824005 0
M  V30 3161 N 308.79 6.124 0.428841 0
M  V30 3162 C 310.161 6.19531 0.241195 0
M  V30 3163 C 312.216 4.92609 0.723922 0
M  V30 3164 C 310.919 7.18002 -0.431952 0
M  V30 3165 C 312.945 5.91365 0.0645334 0
M  V30 3166 C 312.307 7.02571 -0.507347 0
M  V30 3167 H 308.406 0.680987 0.384422 0
M  V30 3168 H 310.99 1.91013 0.377096 0
M  V30 3169 H 309.161 2.73398 2.75877 0
M  V30 3170 H 310.893 2.98062 2.73753 0
M  V30 3171 H 307.648 4.51612 1.42631 0
M  V30 3172 H 308.072 6.76944 0.0874131 0
M  V30 3173 H 312.714 4.06808 1.15181 0
M  V30 3174 H 310.432 8.03384 -0.871758 0
M  V30 3175 H 314.018 5.81799 -0.0121469 0
M  V30 3176 H 312.898 7.77675 -1.0095 0
M  V30 3177 N 310.401 -0.613514 1.45168 0
M  V30 3178 C 311.351 -1.71871 1.49815 0
M  V30 3179 C 312.335 -1.56774 0.362021 0
M  V30 3180 O 313.527 -1.66212 0.608493 0
M  V30 3181 C 310.656 -3.1061 1.46207 0
M  V30 3182 C 309.742 -3.31114 2.64999 0
M  V30 3183 N 310.133 -3.21904 3.90143 0
M  V30 3184 C 308.431 -3.61966 2.6057 0
M  V30 3185 C 309.132 -3.43577 4.69393 0
M  V30 3186 N 308.108 -3.67287 4.00751 0
M  V30 3187 H 311.91 -1.63235 2.444 0
M  V30 3188 H 309.424 -0.816577 1.40377 0
M  V30 3189 H 311.421 -3.8989 1.4762 0
M  V30 3190 H 310.081 -3.20399 0.52673 0
M  V30 3191 H 311.092 -3.00436 4.21852 0
M  V30 3192 H 307.769 -3.78629 1.75916 0
M  V30 3193 H 309.159 -3.41901 5.78406 0
M  V30 3194 N 311.879 -1.3236 -0.855495 0
M  V30 3195 C 313.156 -1.13491 -1.59309 0
M  V30 3196 C 313.536 0.30503 -2.08885 0
M  V30 3197 O 312.884 1.30151 -1.87811 0
M  V30 3198 C 313.094 -2.16176 -2.73987 0
M  V30 3199 C 314.442 -2.49463 -3.43589 0
M  V30 3200 O 315.466 -2.14715 -2.84211 0
M  V30 3201 O 314.325 -3.09027 -4.50738 0
M  V30 3202 H 311.419 -0.437887 -0.701559 0
M  V30 3203 H 313.965 -1.43887 -0.899696 0
M  V30 3204 H 312.737 -3.1297 -2.34873 0
M  V30 3205 H 312.36 -1.86769 -3.51003 0
M  V30 3206 N 313.357 1.07166 -1.15556 0
M  V30 3207 C 314.603 1.80065 -0.932984 0
M  V30 3208 C 314.936 1.86586 0.53845 0
M  V30 3209 O 314.211 1.35098 1.39924 0
M  V30 3210 C 314.494 3.25022 -1.55025 0
M  V30 3211 C 314.347 3.26634 -3.09242 0
M  V30 3212 C 315.666 4.22341 -1.2376 0
M  V30 3213 H 312.785 0.653697 -0.340366 0
M  V30 3214 H 315.427 1.25389 -1.4275 0
M  V30 3215 H 313.577 3.71712 -1.12972 0
M  V30 3216 H 315.249 2.88173 -3.60214 0
M  V30 3217 H 313.492 2.65539 -3.43033 0
M  V30 3218 H 314.163 4.28854 -3.47546 0
M  V30 3219 H 316.639 3.8405 -1.60139 0
M  V30 3220 H 315.515 5.22053 -1.69564 0
M  V30 3221 H 315.776 4.41828 -0.154938 0
M  V30 3222 N 314.835 0.952656 1.25548 0
M  V30 3223 C 315.785 0.442033 2.23674 0
M  V30 3224 C 316.769 -0.467632 1.53955 0
M  V30 3225 O 317.961 -0.301006 1.74422 0
M  V30 3226 C 315.09 -0.280816 3.4215 0
M  V30 3227 C 314.176 0.646803 4.19139 0
M  V30 3228 N 314.567 1.77759 4.73535 0
M  V30 3229 C 312.865 0.454617 4.43677 0
M  V30 3230 C 313.566 2.35658 5.31827 0
M  V30 3231 N 312.542 1.64333 5.18166 0
M  V30 3232 H 316.344 1.30505 2.63336 0
M  V30 3233 H 313.858 0.809904 1.40763 0
M  V30 3234 H 315.855 -0.663747 4.11582 0
M  V30 3235 H 314.515 -1.14046 3.04012 0
M  V30 3236 H 315.526 2.15949 4.7073 0
M  V30 3237 H 312.203 -0.362312 4.15925 0
M  V30 3238 H 313.593 3.30998 5.84713 0
M  V30 3239 N 316.313 -1.40141 0.720998 0
M  V30 3240 C 317.245 -2.29177 0.0324669 0
M  V30 3241 C 318.258 -1.46105 -0.718126 0
M  V30 3242 O 319.447 -1.69335 -0.564608 0
M  V30 3243 C 316.547 -3.24473 -0.978292 0
M  V30 3244 C 315.72 -4.36423 -0.292115 0
M  V30 3245 C 314.779 -5.12122 -1.20901 0
M  V30 3246 O 313.805 -5.64981 -0.691766 0
M  V30 3247 N 315.007 -5.21992 -2.53978 0
M  V30 3248 H 317.772 -2.88909 0.796984 0
M  V30 3249 H 315.333 -1.51569 0.569068 0
M  V30 3250 H 317.325 -3.71987 -1.59398 0
M  V30 3251 H 315.895 -2.65871 -1.64413 0
M  V30 3252 H 315.115 -3.90967 0.503847 0
M  V30 3253 H 316.403 -5.08467 0.183971 0
M  V30 3254 H 315.801 -4.8054 -2.98493 0
M  V30 3255 H 314.358 -5.72995 -3.10677 0
M  V30 3256 N 317.792 -0.46758 -1.50504 0
M  V30 3257 C 318.724 0.364655 -2.26281 0
M  V30 3258 C 319.737 0.960151 -1.31472 0
M  V30 3259 O 320.926 0.849153 -1.57008 0
M  V30 3260 C 318.026 1.52509 -3.02645 0
M  V30 3261 C 317.199 1.04302 -4.24782 0
M  V30 3262 C 316.258 2.07709 -4.8347 0
M  V30 3263 O 315.284 1.65913 -5.44483 0
M  V30 3264 N 316.486 3.40485 -4.70159 0
M  V30 3265 H 319.251 -0.28495 -2.98342 0
M  V30 3266 H 316.812 -0.298163 -1.59131 0
M  V30 3267 H 318.804 2.21371 -3.38787 0
M  V30 3268 H 317.374 2.07945 -2.33404 0
M  V30 3269 H 316.594 0.180393 -3.93787 0
M  V30 3270 H 317.882 0.698798 -5.03978 0
M  V30 3271 H 317.28 3.77155 -4.21629 0
M  V30 3272 H 315.837 4.05156 -5.1058 0
M  V30 3273 N 319.27 1.56325 -0.20005 0
M  V30 3274 C 320.519 1.96895 0.437652 0
M  V30 3275 C 320.832 1.08999 1.62415 0
M  V30 3276 O 322.038 1.39372 2.32997 0
M  V30 3277 C 320.494 3.50198 0.830025 0
M  V30 3278 C 320.102 4.46765 -0.332461 0
M  V30 3279 C 321.846 3.99526 1.43453 0
M  V30 3280 C 319.753 5.91344 0.0811468 0
M  V30 3281 H 318.683 0.735209 0.167282 0
M  V30 3282 H 321.334 1.81148 -0.292853 0
M  V30 3283 H 319.716 3.61467 1.61734 0
M  V30 3284 H 320.89 4.47231 -1.11 0
M  V30 3285 H 319.205 4.07657 -0.848789 0
M  V30 3286 H 321.802 5.05025 1.75652 0
M  V30 3287 H 322.145 3.44122 2.34277 0
M  V30 3288 H 322.678 3.91393 0.71109 0
M  V30 3289 H 319.417 6.50685 -0.793033 0
M  V30 3290 H 318.937 5.94121 0.823445 0
M  V30 3291 H 320.616 6.44945 0.515252 0
M  V30 3292 N 320.748 -0.0735177 1.57428 0
M  V30 3293 C 321.696 -1.10628 2.04607 0
M  V30 3294 C 322.69 -1.40181 0.951088 0
M  V30 3295 O 323.896 -1.39608 1.1362 0
M  V30 3296 H 320.271 -0.374088 0.652351 0
M  V30 3297 H 322.242 -0.682218 2.90497 0
M  V30 3298 C 320.991 -2.41212 2.50423 0
M  V30 3299 H 320.314 -2.19322 3.34272 0
M  V30 3300 H 321.754 -3.11927 2.87189 0
M  V30 3301 C 320.213 -3.0705 1.38644 0
M  V30 3302 O 320.743 -3.95056 0.727582 0
M  V30 3303 N 318.949 -2.67645 1.132 0
M  V30 3304 H 318.496 -1.96169 1.66959 0
M  V30 3305 H 318.454 -3.1202 0.386147 0
M  V30 3306 N 322.226 -1.5378 -0.344866 0
M  V30 3307 C 323.456 -1.74646 -1.10374 0
M  V30 3308 C 323.864 -0.48491 -1.8288 0
M  V30 3309 O 323.207 0.553062 -1.75177 0
M  V30 3310 C 323.269 -2.87145 -2.16306 0
M  V30 3311 C 322.933 -4.26795 -1.63386 0
M  V30 3312 C 323.93 -5.08412 -1.08688 0
M  V30 3313 C 321.615 -4.73276 -1.68272 0
M  V30 3314 C 323.609 -6.34609 -0.595792 0
M  V30 3315 C 321.296 -5.99446 -1.18776 0
M  V30 3316 C 322.294 -6.79946 -0.645215 0
M  V30 3317 O 321.982 -8.03745 -0.157626 0
M  V30 3318 H 321.714 -0.587112 -0.335075 0
M  V30 3319 H 324.268 -2.01403 -0.403252 0
M  V30 3320 H 322.498 -2.55909 -2.89909 0
M  V30 3321 H 324.187 -2.95992 -2.77747 0
M  V30 3322 H 324.953 -4.73666 -1.04236 0
M  V30 3323 H 320.832 -4.10677 -2.09442 0
M  V30 3324 H 324.376 -6.97389 -0.171654 0
M  V30 3325 H 320.273 -6.33687 -1.22928 0
M  V30 3326 H 321.041 -8.18038 -0.275037 0
M  V30 3327 N 323.704 0.605807 -1.45491 0
M  V30 3328 C 324.614 1.74466 -1.56839 0
M  V30 3329 C 325.63 1.68006 -0.452772 0
M  V30 3330 O 326.806 1.8833 -0.713708 0
M  V30 3331 C 323.871 3.10931 -1.53371 0
M  V30 3332 C 322.932 3.28832 -2.75986 0
M  V30 3333 C 322.165 4.58787 -2.72673 0
M  V30 3334 O 322.388 5.4122 -1.80102 0
M  V30 3335 O 321.322 4.79438 -3.63899 0
M  V30 3336 H 325.148 1.67843 -2.53106 0
M  V30 3337 H 322.733 0.770108 -1.28022 0
M  V30 3338 H 324.615 3.92233 -1.54051 0
M  V30 3339 H 323.29 3.18042 -0.602572 0
M  V30 3340 H 322.197 2.47112 -2.80867 0
M  V30 3341 H 323.53 3.26599 -3.68231 0
M  V30 3342 N 325.182 1.32811 0.848464 0
M  V30 3343 C 326.459 1.14334 1.58704 0
M  V30 3344 C 326.839 -0.293948 2.09043 0
M  V30 3345 O 326.187 -1.29153 1.88499 0
M  V30 3346 C 326.397 2.17626 2.72837 0
M  V30 3347 C 327.745 2.51282 3.42261 0
M  V30 3348 O 328.769 2.16219 2.83068 0
M  V30 3349 O 327.628 3.11413 4.49093 0
M  V30 3350 H 324.722 0.441601 0.699226 0
M  V30 3351 H 327.268 1.44362 0.892053 0
M  V30 3352 H 326.04 3.14211 2.3321 0
M  V30 3353 H 325.663 1.88628 3.50008 0
M  V30 3354 N 326.66 -1.06551 1.16123 0
M  V30 3355 C 327.623 -2.12132 0.867906 0
M  V30 3356 C 328.623 -1.60224 -0.135944 0
M  V30 3357 O 329.813 -1.73943 0.0946422 0
M  V30 3358 C 326.945 -3.396 0.297419 0
M  V30 3359 H 328.138 -2.39586 1.80385 0
M  V30 3360 H 325.691 -1.22574 0.969812 0
M  V30 3361 H 326.426 -3.17794 -0.64633 0
M  V30 3362 H 326.211 -3.78581 1.02073 0
M  V30 3363 H 327.701 -4.17455 0.110052 0
M  V30 3364 N 328.138 -0.959301 -1.25041 0
M  V30 3365 C 329.386 -0.615393 -1.92503 0
M  V30 3366 C 329.707 0.850969 -1.75452 0
M  V30 3367 O 328.977 1.60658 -1.12098 0
M  V30 3368 H 327.557 -0.224613 -0.712431 0
M  V30 3369 H 330.219 -1.21855 -1.5211 0
M  V30 3370 H 329.315 -0.848738 -3.00338 0
M  V30 3371 N 329.616 1.39756 -0.72842 0
M  V30 3372 C 330.579 2.29012 -0.0927297 0
M  V30 3373 C 331.579 1.45992 0.674025 0
M  V30 3374 O 332.769 1.66749 0.50402 0
M  V30 3375 C 329.901 3.29396 0.878137 0
M  V30 3376 H 331.094 2.86729 -0.879011 0
M  V30 3377 H 328.647 1.48293 -0.493847 0
M  V30 3378 H 329.382 2.76722 1.69101 0
M  V30 3379 H 329.167 3.907 0.331051 0
M  V30 3380 H 330.657 3.96199 1.3197 0
M  V30 3381 N 331.094 0.475555 1.50254 0
M  V30 3382 C 332.34 -0.0701075 2.03279 0
M  V30 3383 C 332.695 -1.37007 1.35081 0
M  V30 3384 O 331.988 -1.8577 0.469052 0
M  V30 3385 C 332.182 -0.305114 3.56095 0
M  V30 3386 C 332.011 0.970515 4.39103 0
M  V30 3387 C 330.781 1.51509 4.82051 0
M  V30 3388 C 332.979 1.8671 4.79212 0
M  V30 3389 N 330.961 2.73928 5.49397 0
M  V30 3390 C 332.332 2.93715 5.46014 0
M  V30 3391 C 334.387 1.87695 4.61167 0
M  V30 3392 C 333.09 4.01699 5.96683 0
M  V30 3393 C 335.116 2.94637 5.12779 0
M  V30 3394 C 334.478 4.00361 5.79561 0
M  V30 3395 H 330.577 0.014486 0.781866 0
M  V30 3396 H 333.161 0.644755 1.83714 0
M  V30 3397 H 331.332 -0.989019 3.75597 0
M  V30 3398 H 333.064 -0.845516 3.95769 0
M  V30 3399 H 329.819 1.06367 4.61501 0
M  V30 3400 H 330.243 3.36109 5.87673 0
M  V30 3401 H 334.885 1.07273 4.08965 0
M  V30 3402 H 332.603 4.82934 6.4792 0
M  V30 3403 H 336.189 2.96388 5.00645 0
M  V30 3404 H 335.069 4.81751 6.18778 0
M  V30 3405 N 332.573 -1.56217 0.208337 0
M  V30 3406 C 333.989 -1.58919 -0.14729 0
M  V30 3407 C 334.189 -1.22486 -1.59998 0
M  V30 3408 O 333.245 -0.953849 -2.3379 0
M  V30 3409 C 334.558 -3.00236 0.167048 0
M  V30 3410 C 336.106 -3.12813 0.108219 0
M  V30 3411 C 336.581 -4.56284 0.396049 0
M  V30 3412 N 338.072 -4.61912 0.345142 0
M  V30 3413 C 338.807 -5.70837 0.541523 0
M  V30 3414 N 338.303 -6.88178 0.798968 0
M  V30 3415 N 340.096 -5.60091 0.474867 0
M  V30 3416 H 332.247 -1.78177 1.15614 0
M  V30 3417 H 334.51 -0.827555 0.462446 0
M  V30 3418 H 334.216 -3.31499 1.1748 0
M  V30 3419 H 334.09 -3.7354 -0.524184 0
M  V30 3420 H 336.477 -2.81354 -0.890157 0
M  V30 3421 H 336.558 -2.41866 0.832729 0
M  V30 3422 H 336.202 -4.88458 1.3918 0
M  V30 3423 H 336.132 -5.25439 -0.349502 0
M  V30 3424 H 338.623 -3.77589 0.153316 0
M  V30 3425 H 338.936 -7.67095 0.93727 0
M  V30 3426 H 337.281 -6.89953 0.836013 0
M  V30 3427 H 340.472 -4.67297 0.274064 0
M  V30 3428 H 340.645 -6.44917 0.631326 0
M  V30 3429 N 334.051 0.0651679 -1.57465 0
M  V30 3430 C 335.001 1.0838 -2.00594 0
M  V30 3431 C 335.985 1.34106 -0.889071 0
M  V30 3432 O 337.177 1.34295 -1.15299 0
M  V30 3433 C 334.306 2.39565 -2.45894 0
M  V30 3434 C 333.392 2.17085 -3.64328 0
M  V30 3435 N 333.783 1.64553 -4.78285 0
M  V30 3436 C 332.081 2.4753 -3.71006 0
M  V30 3437 C 332.782 1.57042 -5.60101 0
M  V30 3438 N 331.758 2.03328 -5.04141 0
M  V30 3439 H 335.56 0.671062 -2.86136 0
M  V30 3440 H 333.074 0.27213 -1.60104 0
M  V30 3441 H 335.071 3.13308 -2.75034 0
M  V30 3442 H 333.731 2.81549 -1.61741 0
M  V30 3443 H 334.742 1.33323 -5.00445 0
M  V30 3444 H 331.419 2.92835 -2.9758 0
M  V30 3445 H 332.809 1.17223 -6.61595 0
M  V30 3446 N 335.529 1.53961 0.336706 0
M  V30 3447 C 336.775 1.7273 1.07406 0
M  V30 3448 C 337.13 0.488095 1.86106 0
M  V30 3449 O 336.423 -0.519379 1.84426 0
M  V30 3450 C 336.617 2.93493 2.03953 0
M  V30 3451 C 336.446 4.29039 1.34744 0
M  V30 3452 C 335.216 4.93416 1.08942 0
M  V30 3453 C 337.414 5.08501 0.770115 0
M  V30 3454 N 335.396 6.12821 0.363864 0
M  V30 3455 C 336.767 6.19752 0.175472 0
M  V30 3456 C 338.822 4.93349 0.671633 0
M  V30 3457 C 337.525 7.17503 -0.508081 0
M  V30 3458 C 339.551 5.914 0.0018076 0
M  V30 3459 C 338.913 7.01993 -0.581835 0
M  V30 3460 H 335.012 0.685026 0.377177 0
M  V30 3461 H 337.596 1.91403 0.356815 0
M  V30 3462 H 335.767 2.76308 2.72962 0
M  V30 3463 H 337.499 3.00949 2.70577 0
M  V30 3464 H 334.254 4.53099 1.37833 0
M  V30 3465 H 334.678 6.76998 0.0156092 0
M  V30 3466 H 339.32 4.08007 1.1086 0
M  V30 3467 H 337.038 8.02414 -0.956918 0
M  V30 3468 H 340.624 5.81753 -0.0738538 0
M  V30 3469 H 339.504 7.76561 -1.09192 0
M  V30 3470 N 337.007 -0.598083 1.45811 0
M  V30 3471 C 338.253 -1.35679 1.51535 0
M  V30 3472 C 338.608 -1.91745 0.15864 0
M  V30 3473 O 337.901 -1.72654 -0.830724 0
M  V30 3474 C 338.095 -2.51669 2.53766 0
M  V30 3475 C 337.924 -2.06963 3.99245 0
M  V30 3476 C 336.694 -1.92693 4.67116 0
M  V30 3477 C 338.892 -1.63855 4.875 0
M  V30 3478 N 336.874 -1.41897 5.97276 0
M  V30 3479 C 338.245 -1.24541 6.07363 0
M  V30 3480 C 340.3 -1.51533 4.74281 0
M  V30 3481 C 339.003 -0.741354 7.15469 0
M  V30 3482 C 341.029 -1.0253 5.82444 0
M  V30 3483 C 340.391 -0.641869 7.01469 0
M  V30 3484 H 336.49 -0.490042 0.609412 0
M  V30 3485 H 339.074 -0.682687 1.82339 0
M  V30 3486 H 337.245 -3.16663 2.24898 0
M  V30 3487 H 338.977 -3.18578 2.4958 0
M  V30 3488 H 335.732 -2.1417 4.22408 0
M  V30 3489 H 336.156 -1.18704 6.66512 0
M  V30 3490 H 340.798 -1.798 3.82664 0
M  V30 3491 H 338.516 -0.446243 8.06867 0
M  V30 3492 H 342.102 -0.934088 5.74253 0
M  V30 3493 H 340.982 -0.268531 7.8374 0
M  V30 3494 N 338.485 -1.33259 -0.841409 0
M  V30 3495 C 339.733 -1.24326 -1.59334 0
M  V30 3496 C 340.054 0.191564 -1.94057 0
M  V30 3497 O 339.324 1.11967 -1.60749 0
M  V30 3498 H 337.904 -0.457174 -0.590763 0
M  V30 3499 H 340.566 -1.66947 -1.00571 0
M  V30 3500 H 339.662 -1.8352 -2.52442 0
M  V30 3501 N 339.963 1.05934 -1.16686 0
M  V30 3502 C 341.374 1.60263 -0.957745 0
M  V30 3503 C 341.725 1.89789 0.49745 0
M  V30 3504 O 340.85 1.67401 1.37135 0
M  V30 3505 C 341.445 2.91172 -1.73218 0
M  V30 3506 C 340.004 3.42188 -1.56794 0
M  V30 3507 C 339.151 2.16028 -1.73859 0
M  V30 3508 H 342.102 0.888392 -1.31504 0
M  V30 3509 H 342.123 3.60744 -1.21014 0
M  V30 3510 H 341.635 2.6965 -2.79124 0
M  V30 3511 H 339.736 3.68762 -0.533437 0
M  V30 3512 H 339.849 4.17273 -2.35414 0
M  V30 3513 H 338.213 2.26426 -1.16633 0
M  V30 3514 H 338.996 1.96985 -2.81161 0
M  V30 3515 N 341.441 0.965919 1.2453 0
M  V30 3516 C 342.687 0.637349 1.93156 0
M  V30 3517 C 343.042 -0.818261 1.74133 0
M  V30 3518 O 342.335 -1.58079 1.08266 0
M  V30 3519 C 342.529 0.945428 3.44669 0
M  V30 3520 C 342.358 2.42944 3.78429 0
M  V30 3521 C 341.128 3.08895 3.9989 0
M  V30 3522 C 343.326 3.40941 3.8505 0
M  V30 3523 N 341.308 4.47052 4.20735 0
M  V30 3524 C 342.679 4.64448 4.10717 0
M  V30 3525 C 344.734 3.35624 3.67779 0
M  V30 3526 C 343.437 5.83292 4.20907 0
M  V30 3527 C 345.463 4.53818 3.79214 0
M  V30 3528 C 344.825 5.76114 4.05304 0
M  V30 3529 H 340.924 0.284034 0.728594 0
M  V30 3530 H 343.508 1.24041 1.50073 0
M  V30 3531 H 341.679 0.371193 3.86622 0
M  V30 3532 H 343.411 0.575613 4.00586 0
M  V30 3533 H 340.166 2.59432 3.96222 0
M  V30 3534 H 340.59 5.18634 4.35141 0
M  V30 3535 H 345.232 2.4211 3.46616 0
M  V30 3536 H 342.95 6.77236 4.40883 0
M  V30 3537 H 346.536 4.51263 3.67224 0
M  V30 3538 H 345.416 6.66045 4.13949 0
M  V30 3539 N 342.919 -1.39368 0.735821 0
M  V30 3540 C 344.168 -1.99733 0.281004 0
M  V30 3541 C 344.481 -1.59055 -1.13846 0
M  V30 3542 O 345.687 -2.12262 -1.69284 0
M  V30 3543 C 344.143 -3.57057 0.451462 0
M  V30 3544 C 343.751 -4.06697 1.87886 0
M  V30 3545 C 345.495 -4.2446 0.0584616 0
M  V30 3546 C 343.402 -5.56598 1.99883 0
M  V30 3547 H 342.332 -0.747163 0.101311 0
M  V30 3548 H 344.983 -1.59357 0.909819 0
M  V30 3549 H 343.365 -3.95234 -0.246263 0
M  V30 3550 H 344.539 -3.79853 2.60861 0
M  V30 3551 H 342.854 -3.5196 2.22515 0
M  V30 3552 H 345.451 -5.34549 0.127099 0
M  V30 3553 H 345.794 -4.04444 -0.986433 0
M  V30 3554 H 346.327 -3.9146 0.707374 0
M  V30 3555 H 343.066 -5.81494 3.02564 0
M  V30 3556 H 342.586 -5.85242 1.31346 0
M  V30 3557 H 344.265 -6.22022 1.78039 0
M  V30 3558 N 344.397 -0.483516 -1.5 0
M  V30 3559 C 345.813 -0.138404 -1.58999 0
M  V30 3560 C 346.013 1.35597 -1.4905 0
M  V30 3561 O 345.069 2.13039 -1.35539 0
M  V30 3562 C 346.382 -0.699658 -2.92447 0
M  V30 3563 C 347.93 -0.664195 -3.05872 0
M  V30 3564 C 348.405 -1.20321 -4.41913 0
M  V30 3565 N 349.896 -1.16315 -4.48358 0
M  V30 3566 C 350.631 -1.55058 -5.52037 0
M  V30 3567 N 350.127 -2.01311 -6.62907 0
M  V30 3568 N 351.92 -1.46584 -5.42651 0
M  V30 3569 H 344.071 -1.45529 -1.5471 0
M  V30 3570 H 346.334 -0.60258 -0.731848 0
M  V30 3571 H 346.04 -1.747 -3.05242 0
M  V30 3572 H 345.914 -0.150194 -3.76901 0
M  V30 3573 H 348.301 0.374272 -2.92717 0
M  V30 3574 H 348.382 -1.25061 -2.23144 0
M  V30 3575 H 348.026 -2.24037 -4.55818 0
M  V30 3576 H 347.956 -0.592896 -5.23252 0
M  V30 3577 H 350.447 -0.824058 -3.68806 0
M  V30 3578 H 350.76 -2.2899 -7.38095 0
M  V30 3579 H 349.105 -2.05273 -6.63994 0
M  V30 3580 H 352.296 -1.10281 -4.54924 0
M  V30 3581 H 352.469 -1.77103 -6.23329 0
M  V30 3582 N 345.875 1.56104 -0.216619 0
M  V30 3583 C 346.838 2.18819 0.681962 0
M  V30 3584 C 347.838 1.14866 1.12528 0
M  V30 3585 O 349.028 1.40128 1.03488 0
M  V30 3586 C 346.16 2.80756 1.93362 0
M  V30 3587 H 347.353 2.99595 0.135254 0
M  V30 3588 H 344.906 1.56265 0.0330003 0
M  V30 3589 H 345.641 2.03837 2.52232 0
M  V30 3590 H 345.426 3.56876 1.62426 0
M  V30 3591 H 346.916 3.28844 2.57393 0
M  V30 3592 N 347.353 -0.0568162 1.57498 0
M  V30 3593 C 348.601 -0.751617 1.87604 0
M  V30 3594 C 348.922 -1.77351 0.81066 0
M  V30 3595 O 348.192 -1.95254 -0.159018 0
M  V30 3596 H 346.772 -0.280583 0.692302 0
M  V30 3597 H 349.434 -0.0293483 1.94878 0
M  V30 3598 H 348.53 -1.25852 2.856 0
M  V30 3599 N 348.832 -1.54138 -0.328536 0
M  V30 3600 C 350.081 -1.71318 -1.06456 0
M  V30 3601 C 350.394 -0.491109 -1.89334 0
M  V30 3602 O 351.6 -0.54416 -2.65991 0
M  V30 3603 C 350.056 -3.03 -1.94214 0
M  V30 3604 C 349.664 -4.32595 -1.16471 0
M  V30 3605 C 351.408 -3.29544 -2.67583 0
M  V30 3606 C 349.315 -5.55341 -2.03347 0
M  V30 3607 H 348.245 -0.638429 -0.401155 0
M  V30 3608 H 350.896 -1.80633 -0.323106 0
M  V30 3609 H 349.278 -2.87579 -2.72239 0
M  V30 3610 H 350.452 -4.58766 -0.432525 0
M  V30 3611 H 348.767 -4.12777 -0.548063 0
M  V30 3612 H 351.364 -4.18444 -3.3288 0
M  V30 3613 H 351.707 -2.47206 -3.34955 0
M  V30 3614 H 352.24 -3.45809 -1.96623 0
M  V30 3615 H 348.979 -6.40268 -1.40491 0
M  V30 3616 H 348.499 -5.33397 -2.74313 0
M  V30 3617 H 350.178 -5.91557 -2.62049 0
M  V30 3618 N 350.31 0.590341 -1.46126 0
M  V30 3619 C 351.273 1.68194 -1.55703 0
M  V30 3620 C 352.273 1.54808 -0.434868 0
M  V30 3621 O 353.463 1.59564 -0.698928 0
M  V30 3622 C 350.595 3.07575 -1.47005 0
M  V30 3623 H 351.788 1.61064 -2.52979 0
M  V30 3624 H 349.341 0.807541 -1.33823 0
M  V30 3625 H 350.076 3.20268 -0.509785 0
M  V30 3626 H 349.861 3.187 -2.28414 0
M  V30 3627 H 351.351 3.87055 -1.56776 0
M  V30 3628 N 351.788 1.33704 0.83433 0
M  V30 3629 C 353.036 1.25169 1.58673 0
M  V30 3630 C 353.357 -0.18127 1.94156 0
M  V30 3631 O 352.627 -1.11113 1.6134 0
M  V30 3632 H 351.207 0.4603 0.58833 0
M  V30 3633 H 353.869 1.67478 0.996847 0
M  V30 3634 H 352.965 1.84856 2.51465 0
M  V30 3635 N 353.266 -1.05314 1.17247 0
M  V30 3636 C 354.496 -1.81707 0.983166 0
M  V30 3637 C 354.904 -1.83222 -0.471822 0
M  V30 3638 O 354.247 -1.25721 -1.3394 0
M  V30 3639 C 354.309 -3.29134 1.44606 0
M  V30 3640 C 353.973 -3.51304 2.92292 0
M  V30 3641 C 354.97 -3.4353 3.90235 0
M  V30 3642 C 352.655 -3.78306 3.30439 0
M  V30 3643 C 354.649 -3.62442 5.24323 0
M  V30 3644 C 352.336 -3.96866 4.64694 0
M  V30 3645 C 353.334 -3.88933 5.61445 0
M  V30 3646 O 353.022 -4.06976 6.93272 0
M  V30 3647 H 352.754 -0.579476 0.348114 0
M  V30 3648 H 355.308 -1.33705 1.55924 0
M  V30 3649 H 353.538 -3.78046 0.813537 0
M  V30 3650 H 355.227 -3.87049 1.22262 0
M  V30 3651 H 355.993 -3.22648 3.62109 0
M  V30 3652 H 351.872 -3.83585 2.55702 0
M  V30 3653 H 355.416 -3.56165 5.99827 0
M  V30 3654 H 351.313 -4.1724 4.92525 0
M  V30 3655 H 352.081 -4.24209 6.99992 0
M  V30 3656 N 354.744 -0.972509 -1.24016 0
M  V30 3657 C 355.654 -0.5143 -2.28893 0
M  V30 3658 C 356.67 0.427078 -1.68677 0
M  V30 3659 O 357.846 0.298939 -1.99169 0
M  V30 3660 C 354.911 0.183598 -3.46214 0
M  V30 3661 C 353.972 -0.798202 -4.21814 0
M  V30 3662 C 353.205 -0.133514 -5.33533 0
M  V30 3663 O 353.428 1.07714 -5.60137 0
M  V30 3664 O 352.362 -0.828103 -5.96176 0
M  V30 3665 H 356.188 -1.38629 -2.70214 0
M  V30 3666 H 353.773 -0.739769 -1.29799 0
M  V30 3667 H 355.655 0.575433 -4.17453 0
M  V30 3668 H 354.33 1.03048 -3.0686 0
M  V30 3669 H 353.237 -1.24059 -3.52931 0
M  V30 3670 H 354.57 -1.61364 -4.64997 0
M  V30 3671 N 356.222 1.38976 -0.743202 0
M  V30 3672 C 357.447 2.05161 -0.303936 0
M  V30 3673 C 357.872 1.55677 1.05576 0
M  V30 3674 O 357.23 0.704131 1.67068 0
M  V30 3675 C 357.278 3.59138 -0.324373 0
M  V30 3676 O 356.382 4.06668 0.685204 0
M  V30 3677 H 355.723 0.649815 -0.136518 0
M  V30 3678 H 358.253 1.77852 -1.01142 0
M  V30 3679 H 358.263 4.07639 -0.171618 0
M  V30 3680 H 356.938 3.94515 -1.31647 0
M  V30 3681 H 355.515 3.69561 0.497913 0
M  V30 3682 N 357.7 0.491464 1.49741 0
M  V30 3683 C 358.94 -0.0549118 2.04326 0
M  V30 3684 C 359.304 -1.35148 1.36378 0
M  V30 3685 O 360.505 -1.9815 1.81631 0
M  V30 3686 C 358.776 -0.213841 3.5676 0
M  V30 3687 S 360.335 -0.715839 4.32922 0
M  V30 3688 H 357.153 -0.00630513 0.710972 0
M  V30 3689 H 359.755 0.663257 1.83905 0
M  V30 3690 H 358.459 0.73527 4.0376 0
M  V30 3691 H 357.99 -0.957529 3.81569 0
M  V30 3692 H 360.005 -1.9864 4.54705 0
M  V30 3693 N 359.178 -1.55987 0.224894 0
M  V30 3694 C 360.426 -1.97998 -0.405099 0
M  V30 3695 C 360.747 -1.11387 -1.60056 0
M  V30 3696 O 360.017 -0.191645 -1.9496 0
M  V30 3697 H 358.597 -0.731235 -0.152658 0
M  V30 3698 H 361.259 -1.92279 0.318567 0
M  V30 3699 H 360.355 -3.03463 -0.729167 0
M  V30 3700 N 360.656 0.0484629 -1.57525 0
M  V30 3701 C 361.604 1.07359 -2.06341 0
M  V30 3702 C 362.598 1.3865 -0.973269 0
M  V30 3703 O 363.804 1.37783 -1.15827 0
M  V30 3704 H 360.179 0.363662 -0.65822 0
M  V30 3705 H 362.15 0.635916 -2.91545 0
M  V30 3706 C 360.899 2.37198 -2.54229 0
M  V30 3707 H 360.222 2.13977 -3.37719 0
M  V30 3708 H 361.662 3.07319 -2.92115 0
M  V30 3709 C 360.121 3.04805 -1.43511 0
M  V30 3710 O 360.651 3.93848 -0.79034 0
M  V30 3711 N 358.857 2.65811 -1.17444 0
M  V30 3712 H 358.404 1.93488 -1.70059 0
M  V30 3713 H 358.362 3.11366 -0.435737 0
M  V30 3714 N 362.134 1.5431 0.320358 0
M  V30 3715 C 363.359 1.76954 1.08175 0
M  V30 3716 C 363.784 0.518193 1.80821 0
M  V30 3717 O 363.142 -0.530411 1.73368 0
M  V30 3718 C 363.19 2.96451 2.05303 0
M  V30 3719 O 362.294 2.68221 3.13259 0
M  V30 3720 H 361.635 0.586275 0.311733 0
M  V30 3721 H 364.165 2.01342 0.363676 0
M  V30 3722 H 364.175 3.23887 2.48116 0
M  V30 3723 H 362.85 3.87196 1.51829 0
M  V30 3724 H 361.427 2.51744 2.75099 0
M  V30 3725 N 363.613 -0.582584 1.46437 0
M  V30 3726 C 364.523 -1.71949 1.59595 0
M  V30 3727 C 365.539 -1.67264 0.479443 0
M  V30 3728 O 366.715 -1.87171 0.743579 0
M  V30 3729 C 363.78 -3.08452 1.58298 0
M  V30 3730 C 362.841 -3.244 2.81182 0
M  V30 3731 C 362.074 -4.54391 2.79937 0
M  V30 3732 O 362.297 -5.38287 1.8869 0
M  V30 3733 O 361.231 -4.73588 3.71481 0
M  V30 3734 H 365.057 -1.63795 2.55744 0
M  V30 3735 H 362.642 -0.749643 1.29231 0
M  V30 3736 H 364.524 -3.89732 1.60271 0
M  V30 3737 H 363.199 -3.17043 0.653094 0
M  V30 3738 H 362.106 -2.42613 2.84763 0
M  V30 3739 H 363.439 -3.20699 3.7338 0
M  V30 3740 N 365.091 -1.34144 -0.827227 0
M  V30 3741 C 366.34 -1.25602 -1.5782 0
M  V30 3742 C 366.653 0.173445 -1.94829 0
M  V30 3743 O 367.859 0.380984 -2.68814 0
M  V30 3744 C 366.315 -2.20151 -2.84713 0
M  V30 3745 C 365.923 -3.68331 -2.55021 0
M  V30 3746 C 367.667 -2.20508 -3.62735 0
M  V30 3747 C 365.574 -4.54762 -3.78082 0
M  V30 3748 H 364.504 -0.466573 -0.592306 0
M  V30 3749 H 367.155 -1.59283 -0.911116 0
M  V30 3750 H 365.537 -1.79417 -3.53023 0
M  V30 3751 H 366.711 -4.17577 -1.94849 0
M  V30 3752 H 365.026 -3.7038 -1.90283 0
M  V30 3753 H 367.623 -2.82306 -4.54101 0
M  V30 3754 H 367.966 -1.20322 -3.98533 0
M  V30 3755 H 368.499 -2.59664 -3.01362 0
M  V30 3756 H 365.238 -5.55867 -3.47407 0
M  V30 3757 H 364.758 -4.10254 -4.37552 0
M  V30 3758 H 366.437 -4.69153 -4.45538 0
M  V30 3759 N 366.569 1.04691 -1.17803 0
M  V30 3760 C 367.797 1.81446 -0.99423 0
M  V30 3761 C 368.212 1.83174 0.457459 0
M  V30 3762 O 367.569 1.26265 1.31771 0
M  V30 3763 C 367.62 3.27334 -1.5341 0
M  V30 3764 O 367.341 3.25798 -2.92895 0
M  V30 3765 C 368.842 4.20759 -1.39559 0
M  V30 3766 H 366.062 0.571599 -0.351447 0
M  V30 3767 H 368.606 1.31982 -1.56208 0
M  V30 3768 H 366.761 3.74052 -1.00815 0
M  V30 3769 H 367.175 4.17144 -3.17949 0
M  V30 3770 H 368.649 5.21084 -1.82141 0
M  V30 3771 H 369.126 4.37856 -0.343394 0
M  V30 3772 H 369.732 3.79901 -1.91195 0
M  V30 3773 N 368.047 0.979072 1.23499 0
M  V30 3774 C 368.98 0.463027 2.23453 0
M  V30 3775 C 369.958 -0.469128 1.55685 0
M  V30 3776 O 371.142 -0.397882 1.84253 0
M  V30 3777 C 368.269 -0.330308 3.37086 0
M  V30 3778 C 367.315 0.545795 4.22993 0
M  V30 3779 S 368.148 1.99285 4.97037 0
M  V30 3780 C 369.304 1.20862 6.1412 0
M  V30 3781 H 369.537 1.31005 2.6688 0
M  V30 3782 H 367.07 0.784965 1.32957 0
M  V30 3783 H 369.028 -0.782027 4.02982 0
M  V30 3784 H 367.689 -1.15244 2.92194 0
M  V30 3785 H 366.882 -0.0638928 5.03959 0
M  V30 3786 H 366.484 0.933705 3.62157 0
M  V30 3787 H 368.776 0.469284 6.75873 0
M  V30 3788 H 369.719 1.99307 6.79472 0
M  V30 3789 H 370.127 0.727992 5.59786 0
M  V30 3790 N 369.525 -1.3858 0.750561 0
M  V30 3791 C 370.765 -2.02032 0.310258 0
M  V30 3792 C 371.129 -1.58288 -1.08668 0
M  V30 3793 O 372.33 -2.14049 -1.62593 0
M  V30 3794 C 370.601 -3.54856 0.425647 0
M  V30 3795 S 372.16 -4.38748 0.0674797 0
M  V30 3796 H 368.978 -0.700705 0.120554 0
M  V30 3797 H 371.58 -1.69134 0.980512 0
M  V30 3798 H 370.284 -3.84182 1.44335 0
M  V30 3799 H 369.815 -3.92527 -0.261894 0
M  V30 3800 H 371.83 -4.82835 -1.14388 0
M  V30 3801 N 371.003 -0.499398 -1.49478 0
M  V30 3802 C 371.933 0.269244 -2.31943 0
M  V30 3803 C 372.914 0.964054 -1.40143 0
M  V30 3804 O 374.099 0.955767 -1.69052 0
M  V30 3805 C 371.229 1.33504 -3.20615 0
M  V30 3806 C 370.183 0.760202 -4.21195 0
M  V30 3807 C 369.509 1.9264 -4.98792 0
M  V30 3808 C 370.809 -0.247661 -5.21712 0
M  V30 3809 H 372.503 -0.419082 -2.96452 0
M  V30 3810 H 370.049 -0.202988 -1.42562 0
M  V30 3811 H 372.002 1.88048 -3.77115 0
M  V30 3812 H 370.726 2.05253 -2.54045 0
M  V30 3813 H 369.385 0.23653 -3.65836 0
M  V30 3814 H 369.033 2.63154 -4.28671 0
M  V30 3815 H 368.733 1.54785 -5.66847 0
M  V30 3816 H 370.257 2.4762 -5.58137 0
M  V30 3817 H 371.671 0.209579 -5.72917 0
M  V30 3818 H 370.068 -0.541962 -5.97648 0
M  V30 3819 H 371.138 -1.16409 -4.7072 0
M  V30 3820 N 372.481 1.55866 -0.233164 0
M  V30 3821 C 373.444 2.1953 0.658715 0
M  V30 3822 C 374.444 1.16053 1.11303 0
M  V30 3823 O 375.634 1.41218 1.01996 0
M  V30 3824 C 372.766 2.82791 1.90373 0
M  V30 3825 H 373.959 2.99721 0.10347 0
M  V30 3826 H 371.512 1.56291 0.0164245 0
M  V30 3827 H 372.247 2.06501 2.50056 0
M  V30 3828 H 372.032 3.58578 1.58632 0
M  V30 3829 H 373.522 3.31556 2.53891 0
M  V30 3830 N 373.959 -0.0401083 1.57549 0
M  V30 3831 C 375.207 -0.731677 1.8839 0
M  V30 3832 C 375.528 -1.76481 0.829425 0
M  V30 3833 O 374.798 -1.95411 -0.1383 0
M  V30 3834 H 373.378 -0.273225 0.695239 0
M  V30 3835 H 376.04 -0.00867725 1.94898 0
M  V30 3836 H 375.136 -1.22816 2.86919 0
M  V30 3837 N 375.437 -1.54477 -0.31217 0
M  V30 3838 C 376.367 -1.87652 -1.38957 0
M  V30 3839 C 377.348 -0.734358 -1.53431 0
M  V30 3840 O 378.533 -0.98911 -1.67123 0
M  V30 3841 C 375.663 -2.11396 -2.75552 0
M  V30 3842 C 374.617 -3.27243 -2.75855 0
M  V30 3843 C 373.943 -3.36382 -4.15633 0
M  V30 3844 C 375.243 -4.64622 -2.38587 0
M  V30 3845 H 376.937 -2.77887 -1.11442 0
M  V30 3846 H 374.483 -1.33707 -0.534655 0
M  V30 3847 H 376.436 -2.33189 -3.51 0
M  V30 3848 H 375.16 -1.17921 -3.04569 0
M  V30 3849 H 373.819 -3.05356 -2.02863 0
M  V30 3850 H 373.467 -2.40445 -4.41809 0
M  V30 3851 H 373.167 -4.14249 -4.1674 0
M  V30 3852 H 374.691 -3.60422 -4.92877 0
M  V30 3853 H 376.105 -4.86219 -3.03749 0
M  V30 3854 H 374.502 -5.45121 -2.50925 0
M  V30 3855 H 375.572 -4.66097 -1.33723 0
M  V30 3856 N 376.915 0.57481 -1.46744 0
M  V30 3857 C 378.326 1.15695 -1.46532 0
M  V30 3858 C 378.677 1.95068 -0.210425 0
M  V30 3859 O 377.802 2.05241 0.685944 0
M  V30 3860 C 378.397 2.1048 -2.65487 0
M  V30 3861 C 376.956 2.64002 -2.68291 0
M  V30 3862 C 376.103 1.40026 -2.39349 0
M  V30 3863 H 379.054 0.362325 -1.54509 0
M  V30 3864 H 379.075 2.94074 -2.41455 0
M  V30 3865 H 378.587 1.52683 -3.56805 0
M  V30 3866 H 376.688 3.25646 -1.81067 0
M  V30 3867 H 376.801 3.06197 -3.68483 0
M  V30 3868 H 375.165 1.70106 -1.89568 0
M  V30 3869 H 375.948 0.840485 -3.32852 0
M  V30 3870 N 378.394 1.34581 0.820102 0
M  V30 3871 C 379.671 1.17675 1.56244 0
M  V30 3872 C 380.051 -0.249541 2.0962 0
M  V30 3873 O 379.399 -1.25125 1.91196 0
M  V30 3874 C 379.609 2.23364 2.6816 0
M  V30 3875 C 380.957 2.58485 3.36854 0
M  V30 3876 O 381.981 2.22175 2.78418 0
M  V30 3877 O 380.84 3.20868 4.42386 0
M  V30 3878 H 377.934 0.456333 0.689702 0
M  V30 3879 H 380.48 1.46222 0.861231 0
M  V30 3880 H 379.252 3.19087 2.26493 0
M  V30 3881 H 378.875 1.96009 3.45928 0
M  V30 3882 N 379.872 -1.04064 1.18357 0
M  V30 3883 C 381.119 -1.77265 0.978947 0
M  V30 3884 C 381.447 -1.88189 -0.491428 0
M  V30 3885 O 380.702 -1.38653 -1.38108 0
M  V30 3886 C 381.001 -3.20634 1.57888 0
M  V30 3887 C 380.667 -3.29743 3.07539 0
M  V30 3888 C 379.329 -3.31937 3.48384 0
M  V30 3889 C 381.681 -3.29841 4.03552 0
M  V30 3890 C 379.009 -3.3187 4.83818 0
M  V30 3891 C 381.361 -3.31313 5.38901 0
M  V30 3892 C 380.025 -3.31799 5.79194 0
M  V30 3893 H 379.295 -0.648659 0.358222 0
M  V30 3894 H 381.942 -1.22225 1.47422 0
M  V30 3895 H 380.247 -3.78675 1.00561 0
M  V30 3896 H 381.944 -3.75917 1.39598 0
M  V30 3897 H 378.534 -3.28757 2.74986 0
M  V30 3898 H 382.718 -3.27337 3.73047 0
M  V30 3899 H 377.974 -3.30562 5.14333 0
M  V30 3900 H 382.148 -3.30338 6.13066 0
M  V30 3901 H 379.775 -3.315 6.84114 0
M  V30 3902 N 381.35 -0.985608 -1.22978 0
M  V30 3903 C 382.766 -0.695104 -1.43668 0
M  V30 3904 C 382.966 0.736866 -1.87543 0
M  V30 3905 O 382.022 1.50868 -2.02473 0
M  V30 3906 C 383.335 -1.69447 -2.48412 0
M  V30 3907 C 384.883 -1.70909 -2.62219 0
M  V30 3908 C 385.358 -2.6969 -3.70178 0
M  V30 3909 N 386.849 -2.6824 -3.77626 0
M  V30 3910 C 387.584 -3.41339 -4.60733 0
M  V30 3911 N 387.08 -4.24015 -5.4789 0
M  V30 3912 N 388.873 -3.30079 -4.54977 0
M  V30 3913 H 381.024 -1.91054 -0.928016 0
M  V30 3914 H 383.287 -0.823553 -0.469536 0
M  V30 3915 H 382.993 -2.7188 -2.23102 0
M  V30 3916 H 382.867 -1.48147 -3.46889 0
M  V30 3917 H 385.254 -0.691785 -2.86877 0
M  V30 3918 H 385.335 -1.96276 -1.6404 0
M  V30 3919 H 384.979 -3.71566 -3.46268 0
M  V30 3920 H 384.909 -2.41595 -4.67909 0
M  V30 3921 H 387.4 -2.08243 -3.15346 0
M  V30 3922 H 387.713 -4.76636 -6.08308 0
M  V30 3923 H 386.058 -4.28104 -5.47496 0
M  V30 3924 H 389.249 -2.64937 -3.85909 0
M  V30 3925 H 389.422 -3.87308 -5.19516 0
M  V30 3926 N 382.828 1.3818 -0.7579 0
M  V30 3927 C 384.056 2.04301 -0.326937 0
M  V30 3928 C 384.471 1.57163 1.0462 0
M  V30 3929 O 383.828 0.746626 1.66529 0
M  V30 3930 C 383.879 3.59846 -0.345363 0
M  V30 3931 O 383.6 4.05256 -1.66432 0
M  V30 3932 C 385.101 4.4319 0.098927 0
M  V30 3933 H 382.321 0.656443 -0.139012 0
M  V30 3934 H 384.865 1.76786 -1.02796 0
M  V30 3935 H 383.02 3.86182 0.306955 0
M  V30 3936 H 383.434 4.99709 -1.59345 0
M  V30 3937 H 384.908 5.51989 0.0348745 0
M  V30 3938 H 385.385 4.23947 1.14741 0
M  V30 3939 H 385.991 4.22051 -0.52468 0
M  V30 3940 N 384.306 0.507319 1.49211 0
M  V30 3941 C 385.216 -0.272136 2.33016 0
M  V30 3942 C 386.232 -0.961206 1.45041 0
M  V30 3943 O 387.408 -0.941191 1.78055 0
M  V30 3944 C 384.473 -1.31895 3.20631 0
M  V30 3945 C 383.534 -0.642648 4.24463 0
M  V30 3946 C 382.767 -1.63959 5.07891 0
M  V30 3947 O 382.99 -2.87007 4.92933 0
M  V30 3948 O 381.924 -1.19143 5.8999 0
M  V30 3949 H 385.75 0.413982 3.00865 0
M  V30 3950 H 383.335 0.268556 1.46966 0
M  V30 3951 H 385.217 -1.92446 3.7489 0
M  V30 3952 H 383.892 -1.98788 2.5547 0
M  V30 3953 H 382.799 0.00276252 3.741 0
M  V30 3954 H 384.132 -0.0160534 4.92197 0
M  V30 3955 N 385.784 -1.5574 0.241426 0
M  V30 3956 C 386.714 -2.24133 -0.654722 0
M  V30 3957 C 387.695 -1.21974 -1.1856 0
M  V30 3958 O 388.88 -1.50612 -1.22595 0
M  V30 3959 C 386.01 -2.93659 -1.85423 0
M  V30 3960 C 384.964 -4.0246 -1.45636 0
M  V30 3961 C 384.29 -4.59383 -2.73626 0
M  V30 3962 C 385.59 -5.18468 -0.631506 0
M  V30 3963 H 387.284 -2.99281 -0.0844353 0
M  V30 3964 H 384.83 -1.43947 -0.0391707 0
M  V30 3965 H 386.783 -3.40203 -2.48676 0
M  V30 3966 H 385.507 -2.15991 -2.44981 0
M  V30 3967 H 384.166 -3.56676 -0.847202 0
M  V30 3968 H 383.814 -3.78422 -3.3137 0
M  V30 3969 H 383.514 -5.32826 -2.4773 0
M  V30 3970 H 385.038 -5.08658 -3.37786 0
M  V30 3971 H 386.452 -5.61272 -1.1682 0
M  V30 3972 H 384.849 -5.98266 -0.468831 0
M  V30 3973 H 385.919 -4.8358 0.357506 0
M  V30 3974 N 387.262 0.0317525 -1.57568 0
M  V30 3975 C 388.49 0.734949 -1.93407 0
M  V30 3976 C 388.905 1.69036 -0.84096 0
M  V30 3977 O 388.262 1.81582 0.182836 0
M  V30 3978 C 388.313 1.49432 -3.29169 0
M  V30 3979 O 388.034 0.577261 -4.3428 0
M  V30 3980 C 389.535 2.29492 -3.79273 0
M  V30 3981 H 386.755 0.206706 -0.638368 0
M  V30 3982 H 389.299 -0.00992046 -2.04498 0
M  V30 3983 H 387.454 2.1911 -3.19483 0
M  V30 3984 H 387.868 1.10952 -5.1263 0
M  V30 3985 H 389.342 2.78172 -4.76785 0
M  V30 3986 H 389.819 3.10794 -3.10328 0
M  V30 3987 H 390.425 1.64894 -3.92033 0
M  V30 3988 N 388.74 1.54641 0.303973 0
M  V30 3989 C 389.69 1.8177 1.37636 0
M  V30 3990 C 390.674 0.674697 1.46071 0
M  V30 3991 O 391.866 0.935251 1.50273 0
M  V30 3992 C 388.995 2.06584 2.74186 0
M  V30 3993 C 388.081 3.2706 2.69986 0
M  V30 3994 N 388.472 4.47682 2.35402 0
M  V30 3995 C 386.77 3.29028 3.01092 0
M  V30 3996 C 387.471 5.29689 2.40426 0
M  V30 3997 N 386.447 4.67339 2.7766 0
M  V30 3998 H 390.249 2.72596 1.09857 0
M  V30 3999 H 387.763 1.541 0.51254 0
M  V30 4000 H 389.76 2.24166 3.51504 0
M  V30 4001 H 388.42 1.17024 3.02879 0
M  V30 4002 H 389.431 4.74336 2.07908 0
M  V30 4003 H 386.108 2.49565 3.34699 0
M  V30 4004 H 387.498 6.3606 2.16512 0
M  V30 4005 N 390.218 -0.567019 1.47046 0
M  V30 4006 C 391.443 -1.3551 1.57009 0
M  V30 4007 C 391.868 -1.86841 0.217259 0
M  V30 4008 O 391.226 -1.62435 -0.805268 0
M  V30 4009 C 391.274 -2.50777 2.5912 0
M  V30 4010 O 390.378 -3.52706 2.13711 0
M  V30 4011 H 389.719 -0.402919 0.52778 0
M  V30 4012 H 392.249 -0.686241 1.92748 0
M  V30 4013 H 392.259 -2.97481 2.79229 0
M  V30 4014 H 390.934 -2.12771 3.57353 0
M  V30 4015 H 389.511 -3.12374 2.03659 0
M  V30 4016 N 391.696 -1.35014 -0.812953 0
M  V30 4017 C 392.942 -1.2812 -1.57204 0
M  V30 4018 C 393.275 0.145869 -1.93651 0
M  V30 4019 O 392.55 1.0937 -1.60836 0
M  V30 4020 C 392.833 -2.18162 -2.86492 0
M  V30 4021 C 392.686 -3.69454 -2.56561 0
M  V30 4022 C 394.005 -2.07439 -3.88145 0
M  V30 4023 H 391.124 -0.466746 -0.570366 0
M  V30 4024 H 393.766 -1.65357 -0.935783 0
M  V30 4025 H 391.916 -1.86535 -3.40789 0
M  V30 4026 H 393.588 -4.11493 -2.08497 0
M  V30 4027 H 391.831 -3.9005 -1.89851 0
M  V30 4028 H 392.502 -4.27835 -3.48799 0
M  V30 4029 H 394.978 -2.35228 -3.4323 0
M  V30 4030 H 393.854 -2.7265 -4.76396 0
M  V30 4031 H 394.115 -1.05439 -4.29343 0
M  V30 4032 N 393.175 1.03435 -1.18907 0
M  V30 4033 C 394.423 1.76394 -0.986382 0
M  V30 4034 C 394.744 1.88883 0.484567 0
M  V30 4035 O 394.014 1.41843 1.3512 0
M  V30 4036 H 392.594 0.65344 -0.361975 0
M  V30 4037 H 395.256 1.248 -1.49703 0
M  V30 4038 H 394.352 2.77424 -1.42978 0
M  V30 4039 N 394.653 0.992116 1.22453 0
M  V30 4040 C 395.583 0.561677 2.26644 0
M  V30 4041 C 396.564 -0.411055 1.65059 0
M  V30 4042 O 397.749 -0.301861 1.9184 0
M  V30 4043 C 394.879 -0.125247 3.47074 0
M  V30 4044 C 393.833 0.765948 4.21091 0
M  V30 4045 C 393.159 -0.0538484 5.34673 0
M  V30 4046 C 394.459 2.06242 4.79856 0
M  V30 4047 H 396.153 1.43259 2.62902 0
M  V30 4048 H 393.699 0.690283 1.26377 0
M  V30 4049 H 395.652 -0.437764 4.1912 0
M  V30 4050 H 394.376 -1.03069 3.0991 0
M  V30 4051 H 393.035 1.0621 3.50878 0
M  V30 4052 H 392.683 -0.960188 4.9375 0
M  V30 4053 H 392.383 0.539415 5.85119 0
M  V30 4054 H 393.907 -0.360477 6.09535 0
M  V30 4055 H 395.321 1.8139 5.43848 0
M  V30 4056 H 393.718 2.60444 5.40638 0
M  V30 4057 H 394.788 2.74167 3.99951 0
M  V30 4058 N 396.131 -1.37776 0.765217 0
M  V30 4059 C 397.542 -1.82521 0.392819 0
M  V30 4060 C 397.893 -1.63789 -1.08017 0
M  V30 4061 O 397.018 -1.14542 -1.83601 0
M  V30 4062 C 397.613 -3.31358 0.706214 0
M  V30 4063 C 396.172 -3.74406 0.386952 0
M  V30 4064 C 395.319 -2.60394 0.953422 0
M  V30 4065 H 398.27 -1.2634 0.960412 0
M  V30 4066 H 398.291 -3.80498 -0.0114706 0
M  V30 4067 H 397.803 -3.44959 1.77833 0
M  V30 4068 H 395.904 -3.66377 -0.678112 0
M  V30 4069 H 396.017 -4.70749 0.890636 0
M  V30 4070 H 394.381 -2.51878 0.378064 0
M  V30 4071 H 395.164 -2.76791 2.03081 0
M  V30 4072 N 397.609 -0.515225 -1.4894 0
M  V30 4073 C 399.02 -0.0710067 -1.86565 0
M  V30 4074 C 399.371 1.34733 -1.42623 0
M  V30 4075 O 398.496 2.00653 -0.810379 0
M  V30 4076 C 399.091 -0.122083 -3.3858 0
M  V30 4077 C 397.65 0.266863 -3.75453 0
M  V30 4078 C 396.797 -0.488376 -2.72966 0
M  V30 4079 H 399.748 -0.727266 -1.41055 0
M  V30 4080 H 399.769 0.669818 -3.74558 0
M  V30 4081 H 399.281 -1.15448 -3.70531 0
M  V30 4082 H 397.382 1.30196 -3.49113 0
M  V30 4083 H 397.495 -0.0624811 -4.79059 0
M  V30 4084 H 395.859 0.0635622 -2.54621 0
M  V30 4085 H 396.642 -1.52113 -3.07761 0
M  V30 4086 N 399.087 1.5561 -0.249682 0
M  V30 4087 C 400.017 2.24477 0.642826 0
M  V30 4088 C 400.998 1.22601 1.17911 0
M  V30 4089 O 402.183 1.5126 1.21795 0
M  V30 4090 C 399.313 2.94638 1.83863 0
M  V30 4091 C 398.267 4.03227 1.435 0
M  V30 4092 C 397.593 4.60828 2.71186 0
M  V30 4093 C 398.893 5.18796 0.604002 0
M  V30 4094 H 400.587 2.99321 0.0685625 0
M  V30 4095 H 398.133 1.43965 0.0315363 0
M  V30 4096 H 400.086 3.41517 2.46868 0
M  V30 4097 H 398.81 2.17287 2.43832 0
M  V30 4098 H 397.469 3.57121 0.828275 0
M  V30 4099 H 397.117 3.80174 3.29358 0
M  V30 4100 H 396.817 5.34132 2.44901 0
M  V30 4101 H 398.341 5.10442 3.35084 0
M  V30 4102 H 399.755 5.61883 1.13842 0
M  V30 4103 H 398.152 5.98506 0.437097 0
M  V30 4104 H 399.222 4.83384 -0.383147 0
M  V30 4105 N 400.565 -0.0233959 1.57583 0
M  V30 4106 C 401.495 -1.02162 2.09965 0
M  V30 4107 C 402.476 -1.3735 1.00344 0
M  V30 4108 O 403.661 -1.46135 1.27899 0
M  V30 4109 C 400.791 -2.32081 2.58371 0
M  V30 4110 C 399.745 -2.1112 3.72307 0
M  V30 4111 C 399.071 -3.46848 4.06941 0
M  V30 4112 C 400.371 -1.49276 5.00514 0
M  V30 4113 H 402.065 -0.585557 2.93618 0
M  V30 4114 H 399.611 -0.280218 1.41247 0
M  V30 4115 H 401.564 -3.02249 2.93639 0
M  V30 4116 H 400.288 -2.77758 1.71808 0
M  V30 4117 H 398.947 -1.43384 3.37397 0
M  V30 4118 H 398.595 -3.90184 3.17436 0
M  V30 4119 H 398.295 -3.33646 4.83688 0
M  V30 4120 H 399.819 -4.18369 4.44747 0
M  V30 4121 H 401.233 -2.09368 5.33702 0
M  V30 4122 H 399.63 -1.46632 5.8191 0
M  V30 4123 H 400.7 -0.459217 4.82721 0
M  V30 4124 N 402.043 -1.548 -0.295768 0
M  V30 4125 C 402.953 -1.89177 -1.38742 0
M  V30 4126 C 403.969 -0.786481 -1.55211 0
M  V30 4127 O 405.145 -1.08344 -1.69775 0
M  V30 4128 C 402.21 -2.13663 -2.73036 0
M  V30 4129 C 401.271 -3.37349 -2.65508 0
M  V30 4130 C 400.504 -3.60658 -3.93398 0
M  V30 4131 O 400.727 -2.86882 -4.93006 0
M  V30 4132 O 399.661 -4.54179 -3.94975 0
M  V30 4133 H 403.487 -2.82059 -1.12589 0
M  V30 4134 H 401.072 -1.41056 -0.492295 0
M  V30 4135 H 402.954 -2.3094 -3.52484 0
M  V30 4136 H 401.629 -1.23967 -2.99022 0
M  V30 4137 H 400.536 -3.25431 -1.84514 0
M  V30 4138 H 401.869 -4.27192 -2.44474 0
M  V30 4139 N 403.521 0.559213 -1.47345 0
M  V30 4140 C 404.749 1.34194 -1.57479 0
M  V30 4141 C 405.164 1.87463 -0.224261 0
M  V30 4142 O 404.521 1.64888 0.782185 0
M  V30 4143 C 404.572 2.51324 -2.59843 0
M  V30 4144 O 404.293 2.00256 -3.89653 0
M  V30 4145 C 405.794 3.43563 -2.80142 0
M  V30 4146 H 403.014 0.409136 -0.531835 0
M  V30 4147 H 405.558 0.677609 -1.92947 0
M  V30 4148 H 403.713 3.13699 -2.27314 0
M  V30 4149 H 404.127 2.76708 -4.4557 0
M  V30 4150 H 405.601 4.2217 -3.55635 0
M  V30 4151 H 406.078 3.9698 -1.87892 0
M  V30 4152 H 406.684 2.87005 -3.1386 0
M  V30 4153 N 404.999 1.35443 0.805782 0
M  V30 4154 C 405.946 1.28431 1.91766 0
M  V30 4155 C 406.916 0.156102 1.65365 0
M  V30 4156 O 408.101 0.339936 1.87747 0
M  V30 4157 C 405.241 1.06301 3.2832 0
M  V30 4158 C 404.354 2.2805 3.66902 0
M  V30 4159 C 403.489 1.99064 4.92491 0
M  V30 4160 C 402.528 3.16863 5.23703 0
M  V30 4161 N 401.665 2.87647 6.40471 0
M  V30 4162 H 406.505 2.23511 1.97096 0
M  V30 4163 H 404.042 1.11105 0.964054 0
M  V30 4164 H 406 0.915012 4.07042 0
M  V30 4165 H 404.63 0.148822 3.22457 0
M  V30 4166 H 403.682 2.53711 2.83434 0
M  V30 4167 H 404.994 3.1601 3.85927 0
M  V30 4168 H 404.148 1.81099 5.7904 0
M  V30 4169 H 402.887 1.0839 4.75503 0
M  V30 4170 H 401.892 3.35404 4.35642 0
M  V30 4171 H 403.117 4.08339 5.4262 0
M  V30 4172 H 401.063 1.99568 6.24907 0
M  V30 4173 H 400.98 3.69141 6.59751 0
M  V30 4174 H 402.248 2.73226 7.30047 0
M  V30 4175 N 406.477 -1.02803 1.19454 0
M  V30 4176 C 407.723 -1.76598 1.0092 0
M  V30 4177 C 408.078 -1.86939 -0.455142 0
M  V30 4178 O 407.371 -1.37575 -1.33355 0
M  V30 4179 C 407.565 -3.18941 1.6128 0
M  V30 4180 C 407.394 -3.22476 3.13431 0
M  V30 4181 C 406.164 -3.30375 3.82336 0
M  V30 4182 C 408.362 -3.09451 4.10785 0
M  V30 4183 N 406.344 -3.23292 5.21877 0
M  V30 4184 C 407.715 -3.10012 5.36929 0
M  V30 4185 C 409.77 -2.93585 4.02135 0
M  V30 4186 C 408.473 -2.96334 6.55423 0
M  V30 4187 C 410.499 -2.81256 5.20239 0
M  V30 4188 C 409.861 -2.82472 6.45282 0
M  V30 4189 H 405.96 -0.657447 0.423424 0
M  V30 4190 H 408.544 -1.22369 1.5144 0
M  V30 4191 H 406.715 -3.71489 1.1336 0
M  V30 4192 H 408.447 -3.81102 1.36173 0
M  V30 4193 H 405.202 -3.3663 3.33132 0
M  V30 4194 H 405.626 -3.23156 5.94894 0
M  V30 4195 H 410.268 -2.91466 3.0628 0
M  V30 4196 H 407.986 -2.97203 7.51463 0
M  V30 4197 H 411.572 -2.70014 5.15348 0
M  V30 4198 H 410.452 -2.73036 7.35133 0
M  V30 4199 N 407.956 -0.998596 -1.21925 0
M  V30 4200 C 408.904 -0.546641 -2.26085 0
M  V30 4201 C 409.898 0.405576 -1.64473 0
M  V30 4202 O 411.104 0.277471 -1.77849 0
M  V30 4203 H 407.479 -0.158403 -0.735127 0
M  V30 4204 H 409.45 -1.43645 -2.61551 0
M  V30 4205 C 408.199 0.117388 -3.47502 0
M  V30 4206 H 407.522 -0.606277 -3.95176 0
M  V30 4207 H 408.962 0.396993 -4.22137 0
M  V30 4208 C 407.421 1.35455 -3.0847 0
M  V30 4209 O 407.951 2.44944 -3.18379 0
M  V30 4210 N 406.157 1.23191 -2.63196 0
M  V30 4211 H 405.704 0.341006 -2.55333 0
M  V30 4212 H 405.662 2.06071 -2.37449 0
M  V30 4213 N 409.434 1.37368 -0.772513 0
M  V30 4214 C 410.366 2.28899 -0.117502 0
M  V30 4215 C 411.379 1.4867 0.663405 0
M  V30 4216 O 412.568 1.71314 0.501372 0
M  V30 4217 C 409.668 3.2788 0.857192 0
M  V30 4218 C 408.841 4.37207 0.129938 0
M  V30 4219 C 407.9 5.16257 1.01811 0
M  V30 4220 O 406.926 5.67159 0.481601 0
M  V30 4221 N 408.128 5.31058 2.3443 0
M  V30 4222 H 410.893 2.85752 -0.903662 0
M  V30 4223 H 408.454 1.49353 -0.62493 0
M  V30 4224 H 410.446 3.77647 1.45482 0
M  V30 4225 H 409.016 2.7179 1.54432 0
M  V30 4226 H 408.236 3.88827 -0.648605 0
M  V30 4227 H 409.524 5.07434 -0.372559 0
M  V30 4228 H 408.922 4.91287 2.80452 0
M  V30 4229 H 407.479 5.84131 2.89197 0
M  V30 4230 N 410.912 0.523116 1.48665 0
M  V30 4231 C 411.822 -0.247406 2.33292 0
M  V30 4232 C 412.838 -0.945769 1.46052 0
M  V30 4233 O 414.014 -0.922253 1.79043 0
M  V30 4234 C 411.079 -1.28487 3.22012 0
M  V30 4235 C 410.14 -0.597592 4.2512 0
M  V30 4236 C 409.373 -1.58563 5.09601 0
M  V30 4237 O 409.596 -2.81763 4.95949 0
M  V30 4238 O 408.53 -1.12879 5.91221 0
M  V30 4239 H 412.356 0.445869 3.00409 0
M  V30 4240 H 409.941 0.284128 1.46673 0
M  V30 4241 H 411.823 -1.88459 3.7691 0
M  V30 4242 H 410.498 -1.96068 2.57564 0
M  V30 4243 H 409.405 0.0424407 3.74076 0
M  V30 4244 H 410.738 0.0361517 4.92187 0
M  V30 4245 N 412.39 -1.55475 0.257931 0
M  V30 4246 C 413.806 -1.59307 -0.0966563 0
M  V30 4247 C 414.006 -1.27514 -1.5602 0
M  V30 4248 O 413.062 -1.02774 -2.30637 0
M  V30 4249 C 414.375 -2.99552 0.262481 0
M  V30 4250 C 415.923 -3.1231 0.207683 0
M  V30 4251 C 416.398 -4.54793 0.541012 0
M  V30 4252 N 417.889 -4.6058 0.491921 0
M  V30 4253 C 418.624 -5.68825 0.722857 0
M  V30 4254 N 418.12 -6.85287 1.0175 0
M  V30 4255 N 419.913 -5.58296 0.652815 0
M  V30 4256 H 412.064 -1.74409 1.21224 0
M  V30 4257 H 414.327 -0.812424 0.48854 0
M  V30 4258 H 414.033 -3.27593 1.27967 0
M  V30 4259 H 413.907 -3.75019 -0.40508 0
M  V30 4260 H 416.294 -2.84044 -0.800195 0
M  V30 4261 H 416.375 -2.39095 0.909255 0
M  V30 4262 H 416.019 -4.83783 1.5465 0
M  V30 4263 H 415.949 -5.26285 -0.18216 0
M  V30 4264 H 418.44 -3.7691 0.273366 0
M  V30 4265 H 418.753 -7.63725 1.18084 0
M  V30 4266 H 417.098 -6.86945 1.05509 0
M  V30 4267 H 420.289 -4.66189 0.422592 0
M  V30 4268 H 420.462 -6.42582 0.836182 0
M  V30 4269 N 413.868 0.0150385 -1.57593 0
M  V30 4270 C 414.8 1.03912 -2.04291 0
M  V30 4271 C 415.813 1.31618 -0.958146 0
M  V30 4272 O 417.002 1.28859 -1.23522 0
M  V30 4273 C 414.102 2.37749 -2.41514 0
M  V30 4274 C 413.275 2.29198 -3.72541 0
M  V30 4275 C 412.334 3.45598 -3.96797 0
M  V30 4276 O 411.36 3.24461 -4.67668 0
M  V30 4277 N 412.562 4.67945 -3.43523 0
M  V30 4278 H 415.327 0.64099 -2.92765 0
M  V30 4279 H 412.888 0.20272 -1.60626 0
M  V30 4280 H 414.88 3.14364 -2.54867 0
M  V30 4281 H 413.45 2.69357 -1.58637 0
M  V30 4282 H 412.67 1.3759 -3.69408 0
M  V30 4283 H 413.958 2.20642 -4.5847 0
M  V30 4284 H 413.356 4.88017 -2.86104 0
M  V30 4285 H 411.913 5.41878 -3.62232 0
M  V30 4286 N 415.346 1.54954 0.287554 0
M  V30 4287 C 416.594 1.74528 1.01904 0
M  V30 4288 C 416.915 0.541349 1.87335 0
M  V30 4289 O 416.185 -0.444108 1.908 0
M  V30 4290 H 414.765 0.643576 0.379235 0
M  V30 4291 H 417.427 1.92333 0.315294 0
M  V30 4292 H 416.523 2.64015 1.6644 0
M  V30 4293 N 416.824 -0.551391 1.4764 0
M  V30 4294 C 418.072 -1.30572 1.54258 0
M  V30 4295 C 418.393 -1.93877 0.208963 0
M  V30 4296 O 417.663 -1.80234 -0.767619 0
M  V30 4297 H 416.243 -0.484894 0.568231 0
M  V30 4298 H 418.905 -0.643402 1.83974 0
M  V30 4299 H 418.001 -2.09621 2.31226 0
M  V30 4300 N 418.302 -1.35869 -0.798587 0
M  V30 4301 C 419.532 -1.32529 -1.58491 0
M  V30 4302 C 419.94 0.0975405 -1.88948 0
M  V30 4303 O 419.283 1.06224 -1.49874 0
M  V30 4304 C 419.345 -2.07247 -2.9375 0
M  V30 4305 C 419.009 -3.56391 -2.86068 0
M  V30 4306 C 420.006 -4.50824 -2.58947 0
M  V30 4307 C 417.691 -3.9915 -3.04933 0
M  V30 4308 C 419.685 -5.85993 -2.5078 0
M  V30 4309 C 417.372 -5.34413 -2.96389 0
M  V30 4310 C 418.37 -6.27646 -2.69349 0
M  V30 4311 O 418.058 -7.60426 -2.60782 0
M  V30 4312 H 417.79 -0.456529 -0.498556 0
M  V30 4313 H 420.344 -1.79425 -0.999799 0
M  V30 4314 H 418.574 -1.55001 -3.54276 0
M  V30 4315 H 420.263 -1.96883 -3.54954 0
M  V30 4316 H 421.029 -4.19104 -2.44084 0
M  V30 4317 H 416.908 -3.26961 -3.24989 0
M  V30 4318 H 420.452 -6.58735 -2.29595 0
M  V30 4319 H 416.349 -5.65743 -3.10813 0
M  V30 4320 H 417.117 -7.70444 -2.76331 0
M  V30 4321 N 419.78 1.02168 -1.19998 0
M  V30 4322 C 420.69 2.14069 -0.959774 0
M  V30 4323 C 421.706 1.73804 0.082655 0
M  V30 4324 O 422.882 2.01133 -0.103633 0
M  V30 4325 C 419.947 3.42936 -0.509459 0
M  V30 4326 C 419.008 3.97474 -1.62213 0
M  V30 4327 C 418.241 5.2019 -1.19321 0
M  V30 4328 O 418.464 5.70369 -0.0597726 0
M  V30 4329 O 417.398 5.67749 -1.99863 0
M  V30 4330 H 421.224 2.37199 -1.89658 0
M  V30 4331 H 418.809 1.12469 -0.983411 0
M  V30 4332 H 420.691 4.20551 -0.267322 0
M  V30 4333 H 419.366 3.21234 0.398821 0
M  V30 4334 H 418.273 3.21161 -1.9185 0
M  V30 4335 H 419.606 4.23555 -2.50723 0
M  V30 4336 N 421.258 1.00505 1.21394 0
M  V30 4337 C 422.535 0.603277 1.86064 0
M  V30 4338 C 422.915 -0.919095 1.90042 0
M  V30 4339 O 422.263 -1.80607 1.39977 0
M  V30 4340 C 422.473 1.23772 3.26315 0
M  V30 4341 C 423.821 1.34586 4.02705 0
M  V30 4342 O 424.845 1.19304 3.35626 0
M  V30 4343 O 423.704 1.59169 5.22807 0
M  V30 4344 H 420.798 0.206634 0.800769 0
M  V30 4345 H 423.344 1.1017 1.29076 0
M  V30 4346 H 422.116 2.27848 3.18121 0
M  V30 4347 H 421.739 0.725648 3.90922 0
M  V30 4348 N 422.737 -1.36956 0.779787 0
M  V30 4349 C 423.983 -2.00237 0.357324 0
M  V30 4350 C 424.338 -1.60787 -1.05666 0
M  V30 4351 O 423.631 -0.847836 -1.71821 0
M  V30 4352 C 423.825 -3.54585 0.447686 0
M  V30 4353 C 423.654 -4.09025 1.86891 0
M  V30 4354 C 422.424 -4.39612 2.49138 0
M  V30 4355 C 424.622 -4.29461 2.82963 0
M  V30 4356 N 422.604 -4.79816 3.82949 0
M  V30 4357 C 423.975 -4.72363 4.01588 0
M  V30 4358 C 426.03 -4.1161 2.80145 0
M  V30 4359 C 424.733 -4.99284 5.17791 0
M  V30 4360 C 426.759 -4.39672 3.95528 0
M  V30 4361 C 426.121 -4.82822 5.12896 0
M  V30 4362 H 422.22 -0.76148 0.177968 0
M  V30 4363 H 424.804 -1.6613 1.01533 0
M  V30 4364 H 422.975 -3.87982 -0.180184 0
M  V30 4365 H 424.707 -4.047 0.0023955 0
M  V30 4366 H 421.462 -4.28975 2.00693 0
M  V30 4367 H 421.886 -5.04216 4.51769 0
M  V30 4368 H 426.528 -3.77415 1.90572 0
M  V30 4369 H 424.246 -5.32365 6.07958 0
M  V30 4370 H 427.832 -4.27441 3.94697 0
M  V30 4371 H 426.712 -5.04118 6.00695 0
M  V30 4372 N 424.215 -0.530993 -1.48385 0
M  V30 4373 C 425.464 0.00474348 -2.01699 0
M  V30 4374 C 425.777 1.35227 -1.41325 0
M  V30 4375 O 426.983 1.97643 -1.86144 0
M  V30 4376 C 425.439 0.0588473 -3.59852 0
M  V30 4377 C 425.047 -1.28385 -4.2921 0
M  V30 4378 C 426.791 0.543358 -4.21008 0
M  V30 4379 C 424.698 -1.19028 -5.79298 0
M  V30 4380 H 423.628 0.00554317 -0.75398 0
M  V30 4381 H 426.279 -0.674924 -1.70637 0
M  V30 4382 H 424.661 0.803612 -3.8776 0
M  V30 4383 H 425.835 -2.04426 -4.12973 0
M  V30 4384 H 424.15 -1.70418 -3.7993 0
M  V30 4385 H 426.747 0.631351 -5.3096 0
M  V30 4386 H 427.09 1.54937 -3.86394 0
M  V30 4387 H 427.623 -0.145754 -3.97533 0
M  V30 4388 H 424.362 -2.17147 -6.18488 0
M  V30 4389 H 423.882 -0.471246 -5.97946 0
M  V30 4390 H 425.561 -0.881365 -6.40969 0
M  V30 4391 N 425.693 1.55336 -0.266172 0
M  V30 4392 C 426.939 1.99692 0.353681 0
M  V30 4393 C 427.272 1.1543 1.56172 0
M  V30 4394 O 426.547 0.222218 1.93226 0
M  V30 4395 C 426.83 3.52316 0.74466 0
M  V30 4396 C 426.683 4.47337 -0.470101 0
M  V30 4397 C 428.002 4.10588 1.58447 0
M  V30 4398 H 425.121 0.725961 0.12708 0
M  V30 4399 H 427.763 1.86336 -0.371333 0
M  V30 4400 H 425.913 3.63829 1.36239 0
M  V30 4401 H 427.585 4.4778 -1.10864 0
M  V30 4402 H 425.828 4.19364 -1.10978 0
M  V30 4403 H 426.499 5.51788 -0.15291 0
M  V30 4404 H 428.975 4.02297 1.06286 0
M  V30 4405 H 427.851 5.17607 1.82686 0
M  V30 4406 H 428.112 3.60253 2.56262 0
M  V30 4407 N 427.171 -0.0066808 1.57599 0
M  V30 4408 C 428.582 -0.550379 1.78403 0
M  V30 4409 C 428.933 -1.74339 0.900014 0
M  V30 4410 O 428.058 -2.16166 0.100713 0
M  V30 4411 C 428.653 -1.00523 3.23544 0
M  V30 4412 C 427.212 -1.49428 3.45468 0
M  V30 4413 C 426.359 -0.442444 2.73748 0
M  V30 4414 H 429.31 0.219508 1.57175 0
M  V30 4415 H 429.331 -1.87157 3.31289 0
M  V30 4416 H 428.843 -0.136735 3.87859 0
M  V30 4417 H 426.944 -2.3839 2.86358 0
M  V30 4418 H 427.057 -1.52635 4.54136 0
M  V30 4419 H 425.421 -0.902578 2.38171 0
M  V30 4420 H 426.204 0.416973 3.40758 0
M  V30 4421 N 428.649 -1.55105 -0.279332 0
M  V30 4422 C 429.612 -1.86783 -1.32834 0
M  V30 4423 C 430.612 -0.74199 -1.42657 0
M  V30 4424 O 431.802 -1.0102 -1.41918 0
M  V30 4425 C 428.934 -2.06746 -2.71052 0
M  V30 4426 H 430.127 -2.8055 -1.05979 0
M  V30 4427 H 427.68 -1.47499 -0.517087 0
M  V30 4428 H 428.415 -1.15339 -3.03097 0
M  V30 4429 H 428.2 -2.88711 -2.65309 0
M  V30 4430 H 429.69 -2.32549 -3.46858 0
M  V30 4431 N 430.127 0.543554 -1.4793 0
M  V30 4432 C 431.09 1.63156 -1.60975 0
M  V30 4433 C 432.09 1.53346 -0.483899 0
M  V30 4434 O 433.28 1.5726 -0.749339 0
M  V30 4435 C 430.412 3.02743 -1.56716 0
M  V30 4436 H 431.605 1.52934 -2.57975 0
M  V30 4437 H 429.158 0.764557 -1.36324 0
M  V30 4438 H 429.893 3.18484 -0.611418 0
M  V30 4439 H 429.678 3.11272 -2.38438 0
M  V30 4440 H 431.168 3.81871 -1.6901 0
M  V30 4441 N 431.605 1.3629 0.791371 0
M  V30 4442 C 432.553 1.30514 1.92533 0
M  V30 4443 C 433.547 0.197285 1.68247 0
M  V30 4444 O 434.753 0.364176 1.76278 0
M  V30 4445 H 431.128 0.406263 0.632815 0
M  V30 4446 H 433.099 2.26282 1.94523 0
M  V30 4447 C 431.848 1.10933 3.29529 0
M  V30 4448 H 431.171 1.95427 3.48781 0
M  V30 4449 H 432.611 1.10937 4.0923 0
M  V30 4450 C 431.07 -0.186123 3.36385 0
M  V30 4451 O 431.6 -1.17664 3.84081 0
M  V30 4452 N 429.806 -0.230128 2.89687 0
M  V30 4453 H 429.353 0.576545 2.51065 0
M  V30 4454 H 429.311 -1.09658 2.94657 0
M  V30 4455 N 433.083 -1.0153 1.20538 0
M  V30 4456 C 434.36 -1.72327 0.925343 0
M  V30 4457 C 434.74 -2.03383 -0.565547 0
M  V30 4458 O 434.088 -1.69934 -1.52757 0
M  V30 4459 C 434.298 -2.9902 1.79967 0
M  V30 4460 C 435.646 -3.72258 2.04228 0
M  V30 4461 O 436.67 -3.08979 1.77231 0
M  V30 4462 O 435.529 -4.86053 2.4983 0
M  V30 4463 H 432.623 -0.751099 0.346092 0
M  V30 4464 H 435.169 -1.07366 1.31417 0
M  V30 4465 H 433.941 -2.72402 2.80915 0
M  V30 4466 H 433.564 -3.71721 1.41099 0
M  V30 4467 N 434.561 -1.01147 -1.20859 0
M  V30 4468 C 435.491 -0.597663 -2.25722 0
M  V30 4469 C 436.472 0.384744 -1.65692 0
M  V30 4470 O 437.657 0.271303 -1.92296 0
M  V30 4471 C 434.787 0.0700149 -3.47229 0
M  V30 4472 C 433.741 -0.832843 -4.19819 0
M  V30 4473 C 433.067 -0.0312202 -5.34691 0
M  V30 4474 C 434.367 -2.1385 -4.76514 0
M  V30 4475 H 436.061 -1.47423 -2.60589 0
M  V30 4476 H 433.607 -0.710301 -1.25263 0
M  V30 4477 H 435.56 0.37103 -4.19763 0
M  V30 4478 H 434.284 0.981259 -3.11511 0
M  V30 4479 H 432.943 -1.11778 -3.49144 0
M  V30 4480 H 432.591 0.881515 -4.95215 0
M  V30 4481 H 432.291 -0.632434 -5.84187 0
M  V30 4482 H 433.815 0.26346 -6.10031 0
M  V30 4483 H 435.229 -1.9002 -5.40893 0
M  V30 4484 H 433.626 -2.69012 -5.36426 0
M  V30 4485 H 434.696 -2.80495 -3.95538 0
M  V30 4486 N 436.039 1.36541 -0.78704 0
M  V30 4487 C 437.455 1.52571 -0.46844 0
M  V30 4488 C 437.655 1.7415 1.01361 0
M  V30 4489 O 436.711 1.77163 1.79915 0
M  V30 4490 C 438.024 2.71299 -1.29682 0
M  V30 4491 C 439.572 2.85169 -1.29027 0
M  V30 4492 C 440.047 4.06898 -2.10233 0
M  V30 4493 N 441.538 4.1404 -2.07666 0
M  V30 4494 C 442.273 5.07301 -2.67271 0
M  V30 4495 N 441.769 6.06021 -3.35724 0
M  V30 4496 N 443.562 4.99898 -2.57018 0
M  V30 4497 H 435.713 1.20788 -1.74711 0
M  V30 4498 H 437.976 0.589364 -0.742532 0
M  V30 4499 H 437.682 2.61868 -2.34773 0
M  V30 4500 H 437.556 3.6539 -0.936479 0
M  V30 4501 H 439.943 2.94062 -0.247284 0
M  V30 4502 H 440.024 1.91992 -1.69035 0
M  V30 4503 H 439.668 3.98766 -3.1456 0
M  V30 4504 H 439.598 4.99218 -1.67597 0
M  V30 4505 H 442.089 3.43357 -1.57843 0
M  V30 4506 H 442.402 6.73741 -3.78541 0
M  V30 4507 H 440.747 6.06253 -3.39826 0
M  V30 4508 H 443.938 4.21724 -2.03142 0
M  V30 4509 H 444.111 5.72392 -3.03761 0
M  V30 4510 N 437.518 0.538854 1.48102 0
M  V30 4511 C 438.934 0.19732 1.58376 0
M  V30 4512 C 439.134 -1.29971 1.5398 0
M  V30 4513 O 438.19 -2.07861 1.43352 0
M  V30 4514 C 439.503 0.807716 2.89649 0
M  V30 4515 C 441.051 0.77726 3.03196 0
M  V30 4516 C 441.526 1.36639 4.37143 0
M  V30 4517 N 443.017 1.32875 4.43732 0
M  V30 4518 C 443.752 1.7544 5.45901 0
M  V30 4519 N 443.248 2.25776 6.54979 0
M  V30 4520 N 445.041 1.66623 5.36836 0
M  V30 4521 H 437.192 1.5117 1.49202 0
M  V30 4522 H 439.455 0.629327 0.708979 0
M  V30 4523 H 439.161 1.85909 2.98548 0
M  V30 4524 H 439.035 0.289975 3.76084 0
M  V30 4525 H 441.422 -0.265374 2.93904 0
M  V30 4526 H 441.503 1.33256 2.18349 0
M  V30 4527 H 441.147 2.408 4.47189 0
M  V30 4528 H 441.077 0.786689 5.20691 0
M  V30 4529 H 443.568 0.96037 3.65493 0
M  V30 4530 H 443.881 2.56226 7.29087 0
M  V30 4531 H 442.226 2.29775 6.55918 0
M  V30 4532 H 445.417 1.27089 4.50517 0
M  V30 4533 H 445.59 2.00115 6.16326 0
M  V30 4534 N 438.996 -1.55193 0.274407 0
M  V30 4535 C 440.273 -1.91584 -0.394331 0
M  V30 4536 C 440.653 -1.19858 -1.73774 0
M  V30 4537 O 440.001 -0.3252 -2.26174 0
M  V30 4538 C 440.211 -3.4487 -0.535311 0
M  V30 4539 C 441.559 -4.16636 -0.818534 0
M  V30 4540 O 442.583 -3.5076 -0.620146 0
M  V30 4541 O 441.442 -5.33209 -1.19792 0
M  V30 4542 H 438.536 -0.798349 -0.215794 0
M  V30 4543 H 441.082 -1.66646 0.320507 0
M  V30 4544 H 439.854 -3.89145 0.410141 0
M  V30 4545 H 439.477 -3.75759 -1.29964 0
M  V30 4546 N 440.474 -0.00167713 -1.576 0
M  V30 4547 C 441.404 0.988091 -2.11563 0
M  V30 4548 C 442.385 1.35736 -1.02517 0
M  V30 4549 O 443.57 1.44082 -1.30208 0
M  V30 4550 C 440.7 2.27941 -2.62031 0
M  V30 4551 C 439.654 2.0517 -3.75619 0
M  V30 4552 C 438.98 3.4033 -4.12407 0
M  V30 4553 C 440.28 1.41294 -5.02825 0
M  V30 4554 H 441.974 0.538771 -2.94513 0
M  V30 4555 H 439.52 0.257712 -1.41675 0
M  V30 4556 H 441.473 2.97539 -2.9841 0
M  V30 4557 H 440.197 2.74989 -1.76205 0
M  V30 4558 H 438.856 1.37998 -3.39635 0
M  V30 4559 H 438.504 3.85085 -3.23603 0
M  V30 4560 H 438.204 3.25909 -4.88935 0
M  V30 4561 H 439.728 4.1124 -4.51347 0
M  V30 4562 H 441.142 2.00851 -5.36965 0
M  V30 4563 H 439.539 1.37356 -5.84169 0
M  V30 4564 H 440.609 0.382362 -4.8339 0
M  V30 4565 N 441.952 1.55251 0.271103 0
M  V30 4566 C 443.2 1.75599 1.00047 0
M  V30 4567 C 443.521 0.561188 1.8675 0
M  V30 4568 O 442.791 -0.423846 1.9126 0
M  V30 4569 H 441.371 0.647562 0.372387 0
M  V30 4570 H 444.033 1.92656 0.294876 0
M  V30 4571 H 443.129 2.65766 1.6363 0
M  V30 4572 N 443.43 -0.535701 1.48216 0
M  V30 4573 C 444.676 -1.29375 1.56173 0
M  V30 4574 C 445.009 -1.92804 0.232429 0
M  V30 4575 O 444.284 -1.78992 -0.761048 0
M  V30 4576 C 444.567 -2.38747 2.69577 0
M  V30 4577 C 444.42 -1.80046 4.12193 0
M  V30 4578 C 445.739 -3.40551 2.78771 0
M  V30 4579 H 442.858 -0.469027 0.568491 0
M  V30 4580 H 445.5 -0.597358 1.80365 0
M  V30 4581 H 443.65 -2.98147 2.4908 0
M  V30 4582 H 445.322 -1.24742 4.44114 0
M  V30 4583 H 443.565 -1.10609 4.19462 0
M  V30 4584 H 444.236 -2.59212 4.87353 0
M  V30 4585 H 446.712 -2.91099 2.97322 0
M  V30 4586 H 445.588 -4.1448 3.59857 0
M  V30 4587 H 445.849 -4.00746 1.86696 0
M  V30 4588 N 444.908 -1.36708 -0.784132 0
M  V30 4589 C 445.871 -1.31307 -1.87859 0
M  V30 4590 C 446.871 -0.219654 -1.59293 0
M  V30 4591 O 448.061 -0.47476 -1.67606 0
M  V30 4592 C 445.193 -1.03679 -3.24751 0
M  V30 4593 H 446.386 -2.28647 -1.94064 0
M  V30 4594 H 443.939 -1.21558 -0.98252 0
M  V30 4595 H 444.674 -0.0681936 -3.24228 0
M  V30 4596 H 444.459 -1.82811 -3.46876 0
M  V30 4597 H 445.949 -1.02518 -4.04821 0
M  V30 4598 N 446.386 1.0089 -1.21074 0
M  V30 4599 C 447.797 1.56056 -1.02486 0
M  V30 4600 C 448.148 1.91728 0.416506 0
M  V30 4601 O 447.273 1.73066 1.29912 0
M  V30 4602 C 447.868 2.83563 -1.85411 0
M  V30 4603 C 446.427 3.3523 -1.71166 0
M  V30 4604 C 445.574 2.0846 -1.82865 0
M  V30 4605 H 448.525 0.831818 -1.35154 0
M  V30 4606 H 448.546 3.55286 -1.36205 0
M  V30 4607 H 448.058 2.57569 -2.9031 0
M  V30 4608 H 446.159 3.66167 -0.689361 0
M  V30 4609 H 446.272 4.06913 -2.52901 0
M  V30 4610 H 444.636 2.21275 -1.26132 0
M  V30 4611 H 445.419 1.84883 -2.89263 0
M  V30 4612 N 447.864 1.01787 1.20321 0
M  V30 4613 C 448.827 0.593972 2.2137 0
M  V30 4614 C 449.827 -0.336553 1.57239 0
M  V30 4615 O 451.017 -0.125069 1.7375 0
M  V30 4616 C 448.149 -0.132433 3.40643 0
M  V30 4617 H 449.342 1.48791 2.60387 0
M  V30 4618 H 446.895 0.807803 1.33807 0
M  V30 4619 H 447.63 -1.04123 3.0713 0
M  V30 4620 H 447.415 0.53605 3.88418 0
M  V30 4621 H 448.905 -0.416314 4.1552 0
M  V30 4622 N 449.342 -1.36122 0.79427 0
M  V30 4623 C 450.619 -1.93398 0.292685 0
M  V30 4624 C 450.999 -1.72567 -1.21589 0
M  V30 4625 O 450.347 -1.08745 -2.00965 0
M  V30 4626 C 450.557 -3.42099 0.690614 0
M  V30 4627 C 451.905 -4.19231 0.673105 0
M  V30 4628 O 452.929 -3.50559 0.631389 0
M  V30 4629 O 451.788 -5.41732 0.720362 0
M  V30 4630 H 448.882 -0.823712 0.0736693 0
M  V30 4631 H 451.428 -1.45273 0.87714 0
M  V30 4632 H 450.2 -3.50938 1.73085 0
M  V30 4633 H 449.823 -3.97519 0.0803036 0
M  V30 4634 N 450.82 -0.546701 -1.47814 0
M  V30 4635 C 452.05 -0.0232519 -2.06587 0
M  V30 4636 C 452.458 1.2712 -1.40133 0
M  V30 4637 O 451.801 1.77091 -0.488305 0
M  V30 4638 C 451.863 0.254117 -3.58601 0
M  V30 4639 C 451.527 -0.949331 -4.47031 0
M  V30 4640 C 452.524 -1.85216 -4.85789 0
M  V30 4641 C 450.209 -1.16104 -4.88697 0
M  V30 4642 C 452.203 -2.95047 -5.65001 0
M  V30 4643 C 449.89 -2.26247 -5.67676 0
M  V30 4644 C 450.888 -3.1555 -6.05737 0
M  V30 4645 O 450.576 -4.23784 -6.83127 0
M  V30 4646 H 450.308 -0.0380082 -0.674931 0
M  V30 4647 H 452.862 -0.756631 -1.90956 0
M  V30 4648 H 451.092 1.04168 -3.72406 0
M  V30 4649 H 452.781 0.72167 -3.99433 0
M  V30 4650 H 453.547 -1.70061 -4.54207 0
M  V30 4651 H 449.426 -0.475159 -4.58545 0
M  V30 4652 H 452.97 -3.64778 -5.94628 0
M  V30 4653 H 448.867 -2.41379 -5.98671 0
M  V30 4654 H 449.635 -4.21701 -7.01506 0
M  V30 4655 N 452.299 1.55045 -0.282633 0
M  V30 4656 C 453.548 1.98938 0.332667 0
M  V30 4657 C 453.861 1.17455 1.56409 0
M  V30 4658 O 455.067 1.51527 2.25282 0
M  V30 4659 C 453.523 3.54105 0.643226 0
M  V30 4660 C 453.131 4.44374 -0.568814 0
M  V30 4661 C 454.875 4.06569 1.22074 0
M  V30 4662 C 452.782 5.90943 -0.232426 0
M  V30 4663 H 451.712 0.743043 0.128075 0
M  V30 4664 H 454.363 1.79341 -0.388464 0
M  V30 4665 H 452.745 3.69532 1.42346 0
M  V30 4666 H 453.919 4.40718 -1.34551 0
M  V30 4667 H 452.234 4.02585 -1.06369 0
M  V30 4668 H 454.831 5.13626 1.48635 0
M  V30 4669 H 455.174 3.56057 2.15707 0
M  V30 4670 H 455.707 3.94612 0.502621 0
M  V30 4671 H 452.446 6.45567 -1.13683 0
M  V30 4672 H 451.966 5.9765 0.507357 0
M  V30 4673 H 453.645 6.4677 0.172657 0
M  V30 4674 N 453.777 0.010035 1.57597 0
M  V30 4675 C 455.023 -0.673697 1.91283 0
M  V30 4676 C 455.356 -1.72863 0.884979 0
M  V30 4677 O 454.631 -1.94268 -0.0949487 0
M  V30 4678 C 454.914 -1.30766 3.35518 0
M  V30 4679 C 454.767 -0.263578 4.49027 0
M  V30 4680 C 456.086 -2.23105 3.79358 0
M  V30 4681 H 453.205 -0.243439 0.695634 0
M  V30 4682 H 455.847 0.0633864 1.89894 0
M  V30 4683 H 453.997 -1.93588 3.36832 0
M  V30 4684 H 455.669 0.365738 4.59848 0
M  V30 4685 H 453.912 0.413077 4.31829 0
M  V30 4686 H 454.583 -0.746398 5.4693 0
M  V30 4687 H 457.059 -1.70289 3.79659 0
M  V30 4688 H 455.935 -2.64424 4.81011 0
M  V30 4689 H 456.196 -3.11433 3.13787 0
M  V30 4690 N 455.255 -1.55392 -0.262866 0
M  V30 4691 C 456.202 -1.88966 -1.32516 0
M  V30 4692 C 457.172 -0.742187 -1.48596 0
M  V30 4693 O 458.357 -0.99439 -1.62839 0
M  V30 4694 C 455.497 -2.17592 -2.67858 0
M  V30 4695 C 454.61 -3.45061 -2.59917 0
M  V30 4696 C 453.745 -3.63336 -3.87505 0
M  V30 4697 C 452.784 -4.84462 -3.74116 0
M  V30 4698 N 451.921 -4.99342 -4.93561 0
M  V30 4699 H 456.761 -2.79566 -1.03184 0
M  V30 4700 H 454.298 -1.38404 -0.498285 0
M  V30 4701 H 456.256 -2.3219 -3.46617 0
M  V30 4702 H 454.886 -1.30215 -2.95371 0
M  V30 4703 H 453.938 -3.38881 -1.72812 0
M  V30 4704 H 455.25 -4.3396 -2.45926 0
M  V30 4705 H 454.404 -3.77807 -4.74707 0
M  V30 4706 H 453.143 -2.72641 -4.04374 0
M  V30 4707 H 452.148 -4.69985 -2.85297 0
M  V30 4708 H 453.373 -5.76603 -3.58757 0
M  V30 4709 H 451.319 -4.1158 -5.10821 0
M  V30 4710 H 451.236 -5.82303 -4.82141 0
M  V30 4711 H 452.504 -5.18208 -5.82306 0
M  V30 4712 N 456.733 0.527833 -1.48498 0
M  V30 4713 C 457.979 1.28295 -1.57836 0
M  V30 4714 C 458.334 1.9077 -0.249943 0
M  V30 4715 O 457.627 1.76421 0.747402 0
M  V30 4716 C 457.821 2.39275 -2.65485 0
M  V30 4717 C 457.65 1.87679 -4.08664 0
M  V30 4718 C 456.42 1.70187 -4.75778 0
M  V30 4719 C 458.618 1.40409 -4.94762 0
M  V30 4720 N 456.6 1.13238 -6.03366 0
M  V30 4721 C 457.971 0.954216 -6.12613 0
M  V30 4722 C 460.026 1.28732 -4.8097 0
M  V30 4723 C 458.729 0.39915 -7.18192 0
M  V30 4724 C 460.755 0.746244 -5.86673 0
M  V30 4725 C 460.117 0.306457 -7.03733 0
M  V30 4726 H 456.216 0.460408 -0.632099 0
M  V30 4727 H 458.8 0.594913 -1.85388 0
M  V30 4728 H 456.971 3.05572 -2.3975 0
M  V30 4729 H 458.703 3.06308 -2.64495 0
M  V30 4730 H 455.458 1.93772 -4.32145 0
M  V30 4731 H 455.882 0.867687 -6.71417 0
M  V30 4732 H 460.524 1.61338 -3.90807 0
M  V30 4733 H 458.242 0.0607678 -8.08077 0
M  V30 4734 H 461.828 0.659041 -5.78055 0
M  V30 4735 H 460.708 -0.105708 -7.84129 0
M  V30 4736 N 458.211 1.37122 0.776871 0
M  V30 4737 C 459.141 1.35164 1.90402 0
M  V30 4738 C 460.122 0.221069 1.68657 0
M  V30 4739 O 461.307 0.420642 1.8959 0
M  V30 4740 C 458.437 1.15274 3.27611 0
M  V30 4741 C 457.391 2.25289 3.63908 0
M  V30 4742 C 456.717 1.90527 4.99603 0
M  V30 4743 C 458.017 3.67446 3.71188 0
M  V30 4744 H 459.711 2.29482 1.92297 0
M  V30 4745 H 457.257 1.10465 0.923773 0
M  V30 4746 H 459.21 1.12536 4.06096 0
M  V30 4747 H 457.934 0.174102 3.26136 0
M  V30 4748 H 456.593 2.27174 2.87728 0
M  V30 4749 H 456.241 0.91206 4.94662 0
M  V30 4750 H 455.941 2.64193 5.24858 0
M  V30 4751 H 457.465 1.89367 5.80493 0
M  V30 4752 H 458.879 3.67719 4.39836 0
M  V30 4753 H 457.276 4.40123 4.07936 0
M  V30 4754 H 458.346 4.01443 2.71977 0
M  V30 4755 N 459.689 -1.00246 1.21608 0
M  V30 4756 C 460.914 -1.78167 1.06167 0
M  V30 4757 C 461.339 -1.84138 -0.384035 0
M  V30 4758 O 460.697 -1.28683 -1.27712 0
M  V30 4759 C 460.745 -3.19786 1.66642 0
M  V30 4760 O 459.849 -4.02153 0.913613 0
M  V30 4761 H 459.19 -0.549 0.37349 0
M  V30 4762 H 461.72 -1.25994 1.61204 0
M  V30 4763 H 461.73 -3.70451 1.70969 0
M  V30 4764 H 460.405 -3.14754 2.7185 0
M  V30 4765 H 458.982 -3.60711 0.945635 0
M  V30 4766 N 461.167 -1.02423 -1.1978 0
M  V30 4767 C 462.13 -0.605703 -2.21052 0
M  V30 4768 C 463.13 0.328209 -1.57415 0
M  V30 4769 O 464.32 0.115853 -1.73814 0
M  V30 4770 C 461.452 0.114366 -3.40708 0
M  V30 4771 H 462.645 -1.5017 -2.59594 0
M  V30 4772 H 460.198 -0.814888 -1.33376 0
M  V30 4773 H 460.933 1.02492 -3.07678 0
M  V30 4774 H 460.718 -0.556641 -3.88129 0
M  V30 4775 H 462.208 0.394272 -4.15735 0
M  V30 4776 N 462.645 1.35699 -0.801477 0
M  V30 4777 C 463.891 1.99643 -0.389135 0
M  V30 4778 C 464.246 1.62447 1.03095 0
M  V30 4779 O 463.539 0.875064 1.7045 0
M  V30 4780 C 463.733 3.53828 -0.504041 0
M  V30 4781 C 463.562 4.06 -1.93375 0
M  V30 4782 C 462.332 4.35592 -2.561 0
M  V30 4783 C 464.53 4.24905 -2.89759 0
M  V30 4784 N 462.512 4.73663 -3.90534 0
M  V30 4785 C 463.883 4.65914 -4.09052 0
M  V30 4786 C 465.938 4.07101 -2.86658 0
M  V30 4787 C 464.641 4.90984 -5.25669 0
M  V30 4788 C 466.667 4.33324 -4.02472 0
M  V30 4789 C 466.029 4.74601 -5.20512 0
M  V30 4790 H 462.128 0.758552 -0.19006 0
M  V30 4791 H 464.712 1.64493 -1.04164 0
M  V30 4792 H 462.883 3.88219 0.118437 0
M  V30 4793 H 464.615 4.04645 -0.0667794 0
M  V30 4794 H 461.37 4.25728 -2.07492 0
M  V30 4795 H 461.794 4.96965 -4.59734 0
M  V30 4796 H 466.436 3.74335 -1.96552 0
M  V30 4797 H 464.154 5.22626 -6.1635 0
M  V30 4798 H 467.74 4.21107 -4.01447 0
M  V30 4799 H 466.62 4.94497 -6.08639 0
M  V30 4800 N 464.123 0.554532 1.47522 0
M  V30 4801 C 465.369 0.0295227 2.02779 0
M  V30 4802 C 465.702 -1.31582 1.42828 0
M  V30 4803 O 464.977 -1.85561 0.582872 0
M  V30 4804 C 465.26 -0.0664057 3.60039 0
M  V30 4805 C 465.113 1.30585 4.30427 0
M  V30 4806 C 466.432 -0.781162 4.33112 0
M  V30 4807 H 463.551 0.0122027 0.736899 0
M  V30 4808 H 466.193 0.716305 1.7598 0
M  V30 4809 H 464.343 -0.651307 3.83002 0
M  V30 4810 H 466.015 1.93374 4.18813 0
M  V30 4811 H 464.258 1.88125 3.90886 0
M  V30 4812 H 464.929 1.19147 5.38988 0
M  V30 4813 H 467.405 -0.284565 4.15126 0
M  V30 4814 H 466.281 -0.817237 5.42782 0
M  V30 4815 H 466.542 -1.83672 4.0214 0
M  V30 4816 N 465.601 -1.54893 0.290851 0
M  V30 4817 C 466.511 -2.26812 -0.59945 0
M  V30 4818 C 467.527 -1.29963 -1.15696 0
M  V30 4819 O 468.703 -1.62928 -1.18391 0
M  V30 4820 C 465.768 -2.98716 -1.75982 0
M  V30 4821 C 464.829 -4.1108 -1.2374 0
M  V30 4822 C 464.062 -4.79546 -2.34246 0
M  V30 4823 O 464.285 -4.47309 -3.53936 0
M  V30 4824 O 463.219 -5.67165 -2.01512 0
M  V30 4825 H 467.045 -3.03696 -0.0163561 0
M  V30 4826 H 464.63 -1.49289 0.0576755 0
M  V30 4827 H 466.512 -3.43851 -2.43607 0
M  V30 4828 H 465.187 -2.24737 -2.3297 0
M  V30 4829 H 464.094 -3.70367 -0.527163 0
M  V30 4830 H 465.427 -4.87007 -0.71307 0
M  V30 4831 N 467.08 -0.0183926 -1.57589 0
M  V30 4832 C 467.99 0.982943 -2.13015 0
M  V30 4833 C 469.006 1.36443 -1.07979 0
M  V30 4834 O 470.182 1.44802 -1.3998 0
M  V30 4835 C 467.247 2.25024 -2.63752 0
M  V30 4836 C 466.308 1.93018 -3.83461 0
M  V30 4837 C 465.541 3.13706 -4.31769 0
M  V30 4838 O 465.764 4.2601 -3.79305 0
M  V30 4839 O 464.698 2.96629 -5.23732 0
M  V30 4840 H 468.524 0.541709 -2.9883 0
M  V30 4841 H 466.109 0.201565 -1.48034 0
M  V30 4842 H 467.991 2.99441 -2.96502 0
M  V30 4843 H 466.666 2.68349 -1.81026 0
M  V30 4844 H 465.573 1.16019 -3.55655 0
M  V30 4845 H 466.906 1.54516 -4.67317 0
M  V30 4846 N 468.558 1.5553 0.254621 0
M  V30 4847 C 469.805 1.77 0.983736 0
M  V30 4848 C 470.133 0.58133 1.85609 0
M  V30 4849 O 469.388 -0.435621 1.9079 0
M  V30 4850 C 469.687 3.03891 1.88109 0
M  V30 4851 C 469.353 4.35597 1.16472 0
M  V30 4852 C 468.015 4.7139 0.966714 0
M  V30 4853 C 470.367 5.1705 0.656387 0
M  V30 4854 C 467.695 5.86176 0.247942 0
M  V30 4855 C 470.047 6.32581 -0.0488807 0
M  V30 4856 C 468.711 6.67 -0.258438 0
M  V30 4857 H 467.981 0.647688 0.359974 0
M  V30 4858 H 470.628 1.89802 0.254463 0
M  V30 4859 H 468.933 2.86068 2.67717 0
M  V30 4860 H 470.63 3.17701 2.44677 0
M  V30 4861 H 467.22 4.07475 1.32899 0
M  V30 4862 H 471.404 4.8986 0.796933 0
M  V30 4863 H 466.66 6.11354 0.075035 0
M  V30 4864 H 470.834 6.94942 -0.450444 0
M  V30 4865 H 468.461 7.55793 -0.817358 0
M  V30 4866 N 470.036 -0.519951 1.48776 0
M  V30 4867 C 471.284 -1.2727 1.56993 0
M  V30 4868 C 471.605 -1.9339 0.25004 0
M  V30 4869 O 470.875 -1.81822 -0.729216 0
M  V30 4870 H 469.455 -0.472732 0.578389 0
M  V30 4871 H 472.117 -0.604234 1.85297 0
M  V30 4872 H 471.213 -2.04669 2.3562 0
M  V30 4873 N 471.514 -1.37532 -0.769588 0
M  V30 4874 C 472.763 -1.32183 -1.5235 0
M  V30 4875 C 473.076 0.0906555 -1.9539 0
M  V30 4876 O 474.282 0.266628 -2.70188 0
M  V30 4877 C 472.738 -2.32029 -2.75119 0
M  V30 4878 C 472.346 -3.78816 -2.3917 0
M  V30 4879 C 474.09 -2.35694 -3.53056 0
M  V30 4880 C 471.997 -4.70388 -3.58453 0
M  V30 4881 H 470.927 -0.491275 -0.571984 0
M  V30 4882 H 473.578 -1.63004 -0.842739 0
M  V30 4883 H 471.96 -1.94229 -3.45096 0
M  V30 4884 H 473.134 -4.25466 -1.76962 0
M  V30 4885 H 471.449 -3.78117 -1.74402 0
M  V30 4886 H 474.046 -3.01312 -4.41718 0
M  V30 4887 H 474.389 -1.37117 -3.93071 0
M  V30 4888 H 474.922 -2.72212 -2.90078 0
M  V30 4889 H 471.661 -5.70102 -3.23518 0
M  V30 4890 H 471.181 -4.28442 -4.19758 0
M  V30 4891 H 472.86 -4.87628 -4.25239 0
M  V30 4892 N 472.992 0.995999 -1.22138 0
M  V30 4893 C 474.269 1.70834 -0.952642 0
M  V30 4894 C 474.649 2.04257 0.533119 0
M  V30 4895 O 473.997 1.72343 1.50034 0
M  V30 4896 C 474.207 2.96119 -1.84701 0
M  V30 4897 C 475.555 3.68962 -2.10124 0
M  V30 4898 O 476.579 3.0612 -1.82124 0
M  V30 4899 O 475.438 4.82017 -2.57531 0
M  V30 4900 H 472.532 0.745498 -0.357997 0
M  V30 4901 H 475.078 1.05262 -1.33109 0
M  V30 4902 H 473.85 2.67898 -2.85213 0
M  V30 4903 H 473.473 3.6943 -1.46995 0
M  V30 4904 N 474.47 1.03057 1.19235 0
M  V30 4905 C 475.718 0.726581 1.88587 0
M  V30 4906 C 476.039 -0.747227 1.80115 0
M  V30 4907 O 475.309 -1.53849 1.21274 0
M  V30 4908 H 473.889 0.265768 0.698124 0
M  V30 4909 H 476.551 1.30516 1.44746 0
M  V30 4910 H 475.647 1.0224 2.94879 0
M  V30 4911 N 475.948 -1.35272 0.808662 0
M  V30 4912 C 477.195 -1.98709 0.390003 0
M  V30 4913 C 477.523 -1.64148 -1.04335 0
M  V30 4914 O 476.778 -0.897797 -1.73891 0
M  V30 4915 C 477.077 -3.53556 0.522798 0
M  V30 4916 C 476.743 -4.0799 1.91977 0
M  V30 4917 C 475.405 -4.22568 2.30195 0
M  V30 4918 C 477.757 -4.37442 2.83361 0
M  V30 4919 C 475.085 -4.63918 3.59162 0
M  V30 4920 C 477.437 -4.80232 4.11776 0
M  V30 4921 C 476.101 -4.93016 4.49991 0
M  V30 4922 H 475.371 -0.727127 0.142712 0
M  V30 4923 H 478.018 -1.6145 1.02985 0
M  V30 4924 H 476.323 -3.91287 -0.200494 0
M  V30 4925 H 478.02 -4.00598 0.179608 0
M  V30 4926 H 474.61 -3.97096 1.61284 0
M  V30 4927 H 478.794 -4.25731 2.55083 0
M  V30 4928 H 474.05 -4.72005 3.88615 0
M  V30 4929 H 478.224 -5.01982 4.82687 0
M  V30 4930 H 475.851 -5.24814 5.49976 0
M  V30 4931 N 477.426 -0.562348 -1.47226 0
M  V30 4932 C 478.842 -0.222492 -1.58042 0
M  V30 4933 C 479.042 1.27505 -1.56028 0
M  V30 4934 O 478.098 2.05555 -1.46641 0
M  V30 4935 C 479.411 -0.853694 -2.88327 0
M  V30 4936 C 480.959 -0.825397 -3.01921 0
M  V30 4937 C 481.434 -1.43576 -4.34914 0
M  V30 4938 N 482.925 -1.39918 -4.41562 0
M  V30 4939 C 483.66 -1.84103 -5.43041 0
M  V30 4940 N 483.156 -2.36167 -6.51304 0
M  V30 4941 N 484.949 -1.75142 -5.34118 0
M  V30 4942 H 477.1 -1.53525 -1.46778 0
M  V30 4943 H 479.363 -0.640527 -0.698877 0
M  V30 4944 H 479.069 -1.90635 -2.95552 0
M  V30 4945 H 478.943 -0.34977 -3.75575 0
M  V30 4946 H 481.33 0.218583 -2.94289 0
M  V30 4947 H 481.411 -1.36713 -2.16202 0
M  V30 4948 H 481.055 -2.47884 -4.43301 0
M  V30 4949 H 480.985 -0.869427 -5.19373 0
M  V30 4950 H 483.476 -1.0184 -3.63919 0
M  V30 4951 H 483.789 -2.67793 -7.24919 0
M  V30 4952 H 482.134 -2.40181 -6.52179 0
M  V30 4953 H 485.325 -1.34241 -4.48439 0
M  V30 4954 H 485.498 -2.09895 -6.13065 0
M  V30 4955 N 478.904 1.54736 -0.299062 0
M  V30 4956 C 480.15 2.00397 0.311244 0
M  V30 4957 C 480.483 1.18716 1.53688 0
M  V30 4958 O 479.758 0.263154 1.92712 0
M  V30 4959 C 480.041 3.53817 0.669761 0
M  V30 4960 C 479.894 4.46239 -0.564882 0
M  V30 4961 C 481.213 4.13856 1.49702 0
M  V30 4962 H 478.332 0.728493 0.111653 0
M  V30 4963 H 480.974 1.85506 -0.410774 0
M  V30 4964 H 479.124 3.66637 1.28491 0
M  V30 4965 H 480.796 4.45328 -1.20337 0
M  V30 4966 H 479.039 4.16916 -1.19849 0
M  V30 4967 H 479.71 5.5134 -0.269918 0
M  V30 4968 H 482.186 4.04461 0.977284 0
M  V30 4969 H 481.062 5.21365 1.71666 0
M  V30 4970 H 481.323 3.65608 2.48563 0
M  V30 4971 N 480.382 0.0267497 1.57577 0
M  V30 4972 C 481.659 -0.690926 1.82991 0
M  V30 4973 C 482.039 -1.90471 0.910164 0
M  V30 4974 O 481.387 -2.28474 -0.0347985 0
M  V30 4975 C 481.597 -1.07139 3.32148 0
M  V30 4976 C 482.945 -1.46402 3.98562 0
M  V30 4977 O 483.969 -1.16443 3.36629 0
M  V30 4978 O 482.828 -2.02214 5.07712 0
M  V30 4979 H 479.922 -0.338747 0.75444 0
M  V30 4980 H 482.468 0.0542506 1.69613 0
M  V30 4981 H 481.24 -0.207394 3.9075 0
M  V30 4982 H 480.863 -1.87481 3.50623 0
M  V30 4983 N 481.861 -1.55662 -0.24637 0
M  V30 4984 C 483.089 -1.81575 -0.991876 0
M  V30 4985 C 483.504 -0.602545 -1.78927 0
M  V30 4986 O 482.861 0.428795 -1.77391 0
M  V30 4987 C 482.912 -3.05711 -1.92933 0
M  V30 4988 O 482.633 -4.22348 -1.1642 0
M  V30 4989 C 484.134 -3.44428 -2.79078 0
M  V30 4990 H 481.354 -0.604209 -0.291844 0
M  V30 4991 H 483.898 -2.02722 -0.269095 0
M  V30 4992 H 482.053 -2.86612 -2.60638 0
M  V30 4993 H 482.467 -4.92706 -1.79835 0
M  V30 4994 H 483.941 -4.34388 -3.40603 0
M  V30 4995 H 484.418 -2.65037 -3.50217 0
M  V30 4996 H 485.024 -3.65879 -2.16824 0
M  V30 4997 N 483.339 0.512053 -1.4905 0
M  V30 4998 C 484.302 1.59704 -1.64399 0
M  V30 4999 C 485.302 1.52285 -0.516317 0
M  V30 5000 O 486.492 1.55635 -0.782527 0
M  V30 5001 C 483.624 2.9935 -1.63102 0
M  V30 5002 H 484.817 1.47428 -2.61161 0
M  V30 5003 H 482.37 0.735469 -1.37915 0
M  V30 5004 H 483.105 3.17116 -0.678836 0
M  V30 5005 H 482.89 3.06144 -2.44986 0
M  V30 5006 H 484.38 3.782 -1.77072 0
M  V30 5007 N 484.817 1.37938 0.762283 0
M  V30 5008 C 485.764 1.34467 1.87583 0
M  V30 5009 C 486.734 0.208633 1.64785 0
M  V30 5010 O 487.919 0.399494 1.86571 0
M  V30 5011 C 485.059 1.16692 3.24772 0
M  V30 5012 C 484.172 2.39608 3.59461 0
M  V30 5013 C 483.307 2.14631 4.85908 0
M  V30 5014 C 482.346 3.33364 5.13357 0
M  V30 5015 N 481.483 3.07877 6.30996 0
M  V30 5016 H 486.323 2.29669 1.89885 0
M  V30 5017 H 483.86 1.14116 0.928219 0
M  V30 5018 H 485.818 1.04405 4.03925 0
M  V30 5019 H 484.448 0.251333 3.2182 0
M  V30 5020 H 483.5 2.626 2.75219 0
M  V30 5021 H 484.812 3.28128 3.75678 0
M  V30 5022 H 483.966 1.99429 5.72986 0
M  V30 5023 H 482.705 1.23463 4.71814 0
M  V30 5024 H 481.71 3.49094 4.24751 0
M  V30 5025 H 482.935 4.25395 5.29354 0
M  V30 5026 H 480.881 2.19348 6.18241 0
M  V30 5027 H 480.798 3.89944 6.47673 0
M  V30 5028 H 482.066 2.96313 7.20985 0
M  V30 5029 N 486.295 -0.989507 1.22664 0
M  V30 5030 C 487.245 -2.06478 0.967005 0
M  V30 5031 C 488.229 -1.60682 -0.0836374 0
M  V30 5032 O 489.421 -1.76541 0.127322 0
M  V30 5033 C 486.55 -3.38861 0.550313 0
M  V30 5034 C 485.636 -3.9128 1.63587 0
M  V30 5035 N 486.027 -4.16884 2.86429 0
M  V30 5036 C 484.325 -4.1972 1.50834 0
M  V30 5037 C 485.026 -4.5954 3.56648 0
M  V30 5038 N 484.002 -4.63434 2.84131 0
M  V30 5039 H 487.804 -2.24219 1.90008 0
M  V30 5040 H 485.318 -1.17153 1.12467 0
M  V30 5041 H 487.315 -4.15465 0.345612 0
M  V30 5042 H 485.975 -3.22518 -0.375822 0
M  V30 5043 H 486.986 -4.04976 3.22823 0
M  V30 5044 H 483.663 -4.1243 0.648643 0
M  V30 5045 H 485.053 -4.87944 4.61909 0
M  V30 5046 N 487.773 -1.03688 -1.18687 0
M  V30 5047 C 489.019 -0.739123 -1.88851 0
M  V30 5048 C 489.352 0.731042 -1.79915 0
M  V30 5049 O 488.627 1.53313 -1.19688 0
M  V30 5050 C 488.91 -1.20106 -3.3948 0
M  V30 5051 C 488.763 -2.73304 -3.57246 0
M  V30 5052 C 490.082 -0.788134 -4.32986 0
M  V30 5053 H 487.201 -0.269978 -0.68577 0
M  V30 5054 H 489.843 -1.28822 -1.3966 0
M  V30 5055 H 487.993 -0.733915 -3.81505 0
M  V30 5056 H 489.665 -3.28027 -3.24339 0
M  V30 5057 H 487.908 -3.13313 -3.00029 0
M  V30 5058 H 488.579 -3.00684 -4.62918 0
M  V30 5059 H 491.055 -1.19005 -3.98719 0
M  V30 5060 H 489.931 -1.13915 -5.36949 0
M  V30 5061 H 490.192 0.308988 -4.41019 0
M  V30 5062 N 489.251 1.34841 -0.815825 0
M  V30 5063 C 490.161 2.33425 -0.234462 0
M  V30 5064 C 491.177 1.62295 0.627413 0
M  V30 5065 O 492.353 1.94109 0.536987 0
M  V30 5066 C 489.418 3.41471 0.599849 0
M  V30 5067 C 488.479 4.28362 -0.283596 0
M  V30 5068 C 487.712 5.31248 0.51099 0
M  V30 5069 O 487.935 5.43056 1.7449 0
M  V30 5070 O 486.869 6.01812 -0.10297 0
M  V30 5071 H 490.695 2.84962 -1.05024 0
M  V30 5072 H 488.28 1.37774 -0.577809 0
M  V30 5073 H 490.162 4.07464 1.07475 0
M  V30 5074 H 488.837 2.9219 1.39308 0
M  V30 5075 H 487.744 3.65318 -0.805836 0
M  V30 5076 H 489.077 4.81066 -1.041 0
M  V30 5077 N 490.729 0.570148 1.46925 0
M  V30 5078 C 491.659 -0.158274 2.32963 0
M  V30 5079 C 492.64 -0.896093 1.44583 0
M  V30 5080 O 493.825 -0.874022 1.7342 0
M  V30 5081 C 490.955 -1.18055 3.26619 0
M  V30 5082 C 489.909 -0.558379 4.24342 0
M  V30 5083 C 489.235 -1.68623 5.07415 0
M  V30 5084 C 490.535 0.496295 5.19937 0
M  V30 5085 H 492.229 0.560046 2.94115 0
M  V30 5086 H 489.775 0.270775 1.41431 0
M  V30 5087 H 491.728 -1.69841 3.85658 0
M  V30 5088 H 490.452 -1.92899 2.63548 0
M  V30 5089 H 489.111 -0.0617157 3.66548 0
M  V30 5090 H 488.759 -2.42402 4.40738 0
M  V30 5091 H 488.459 -1.27564 5.73586 0
M  V30 5092 H 489.983 -2.20709 5.69315 0
M  V30 5093 H 491.397 0.0640052 5.73264 0
M  V30 5094 H 489.794 0.82649 5.94381 0
M  V30 5095 H 490.864 1.38735 4.6463 0
M  V30 5096 N 492.207 -1.54576 0.307264 0
M  V30 5097 C 493.432 -2.05139 -0.305379 0
M  V30 5098 C 493.857 -1.18278 -1.46259 0
M  V30 5099 O 493.215 -0.188243 -1.8032 0
M  V30 5100 C 493.263 -3.53066 -0.733283 0
M  V30 5101 O 492.367 -3.69206 -1.83741 0
M  V30 5102 H 491.708 -0.661444 -0.0582105 0
M  V30 5103 H 494.238 -1.99569 0.450931 0
M  V30 5104 H 494.248 -3.95034 -1.02039 0
M  V30 5105 H 492.923 -4.15746 0.113198 0
M  V30 5106 H 491.5 -3.39143 -1.55037 0
M  V30 5107 N 493.685 -0.035106 -1.57561 0
M  V30 5108 C 495.101 0.321334 -1.56332 0
M  V30 5109 C 495.301 1.72509 -1.04129 0
M  V30 5110 O 494.357 2.4287 -0.690694 0
M  V30 5111 C 495.67 0.164469 -3.0025 0
M  V30 5112 C 497.218 0.236786 -3.12103 0
M  V30 5113 C 497.693 0.10864 -4.57871 0
M  V30 5114 N 499.184 0.165433 -4.62904 0
M  V30 5115 C 499.919 0.0901506 -5.73329 0
M  V30 5116 N 499.415 -0.0365606 -6.9279 0
M  V30 5117 N 501.208 0.144572 -5.61914 0
M  V30 5118 H 493.359 -0.952976 -1.89821 0
M  V30 5119 H 495.622 -0.368537 -0.873432 0
M  V30 5120 H 495.328 -0.802746 -3.42416 0
M  V30 5121 H 495.202 0.932194 -3.655 0
M  V30 5122 H 497.589 1.19446 -2.69845 0
M  V30 5123 H 497.67 -0.561419 -2.49563 0
M  V30 5124 H 497.314 -0.845644 -5.00811 0
M  V30 5125 H 497.244 0.925786 -5.18398 0
M  V30 5126 H 499.735 0.263269 -3.76982 0
M  V30 5127 H 500.048 -0.0871487 -7.72751 0
M  V30 5128 H 498.393 -0.0714256 -6.94963 0
M  V30 5129 H 501.584 0.242006 -4.67474 0
M  V30 5130 H 501.757 0.0824413 -6.47948 0
M  V30 5131 N 495.163 1.55791 0.238111 0
M  V30 5132 C 496.409 1.79211 0.962035 0
M  V30 5133 C 496.764 0.605463 1.82625 0
M  V30 5134 O 496.057 -0.40104 1.87356 0
M  V30 5135 C 496.251 3.05869 1.84875 0
M  V30 5136 C 496.08 4.36739 1.07186 0
M  V30 5137 C 494.85 4.99346 0.773424 0
M  V30 5138 C 497.048 5.1237 0.445168 0
M  V30 5139 N 495.03 6.13894 -0.0266037 0
M  V30 5140 C 496.401 6.19613 -0.219023 0
M  V30 5141 C 498.456 4.96622 0.356522 0
M  V30 5142 C 497.159 7.1282 -0.963358 0
M  V30 5143 C 499.185 5.90214 -0.374304 0
M  V30 5144 C 498.547 6.96872 -1.0271 0
M  V30 5145 H 494.646 0.707627 0.332849 0
M  V30 5146 H 497.23 1.93284 0.234368 0
M  V30 5147 H 495.401 2.93108 2.54837 0
M  V30 5148 H 497.133 3.17547 2.5089 0
M  V30 5149 H 493.888 4.60948 1.08738 0
M  V30 5150 H 494.312 6.75727 -0.414968 0
M  V30 5151 H 498.954 4.14232 0.846878 0
M  V30 5152 H 496.672 7.94704 -1.46529 0
M  V30 5153 H 500.258 5.80106 -0.443678 0
M  V30 5154 H 499.138 7.68045 -1.58358 0
M  V30 5155 N 496.642 -0.504142 1.49319 0
M  V30 5156 C 497.574 -1.62265 1.61872 0
M  V30 5157 C 498.587 -1.54881 0.501573 0
M  V30 5158 O 499.776 -1.6087 0.773497 0
M  V30 5159 C 496.876 -3.01042 1.55651 0
M  V30 5160 C 496.049 -3.33642 2.82845 0
M  V30 5161 C 495.108 -4.51816 2.69719 0
M  V30 5162 O 494.134 -4.53755 3.4365 0
M  V30 5163 N 495.336 -5.51543 1.81055 0
M  V30 5164 H 498.101 -1.51924 2.58339 0
M  V30 5165 H 495.662 -0.691954 1.46368 0
M  V30 5166 H 497.654 -3.78013 1.44528 0
M  V30 5167 H 496.224 -3.05323 0.670546 0
M  V30 5168 H 495.444 -2.45598 3.08343 0
M  V30 5169 H 496.732 -3.5222 3.67177 0
M  V30 5170 H 496.13 -5.52774 1.20241 0
M  V30 5171 H 494.687 -6.27629 1.75856 0
M  V30 5172 N 498.12 -1.38341 -0.754957 0
M  V30 5173 C 499.052 -1.31347 -1.87831 0
M  V30 5174 C 500.065 -0.225955 -1.61224 0
M  V30 5175 O 501.254 -0.48341 -1.7183 0
M  V30 5176 C 498.354 -1.01201 -3.23437 0
M  V30 5177 C 497.527 -2.20834 -3.77559 0
M  V30 5178 C 496.586 -1.87454 -4.91678 0
M  V30 5179 O 495.612 -2.59934 -5.06382 0
M  V30 5180 N 496.814 -0.828682 -5.74555 0
M  V30 5181 H 499.579 -2.28147 -1.94342 0
M  V30 5182 H 497.14 -1.32184 -0.934828 0
M  V30 5183 H 499.132 -0.769249 -3.97322 0
M  V30 5184 H 497.702 -0.132011 -3.12321 0
M  V30 5185 H 496.922 -2.61184 -2.95256 0
M  V30 5186 H 498.21 -3.00678 -4.10451 0
M  V30 5187 H 497.608 -0.227591 -5.65242 0
M  V30 5188 H 496.165 -0.645802 -6.48593 0
M  V30 5189 N 499.598 0.982988 -1.23187 0
M  V30 5190 C 500.528 2.09301 -1.03515 0
M  V30 5191 C 501.509 1.70035 0.0471136 0
M  V30 5192 O 502.694 1.93847 -0.117029 0
M  V30 5193 C 499.824 3.4167 -0.622791 0
M  V30 5194 C 498.778 3.94828 -1.65211 0
M  V30 5195 C 498.104 5.23362 -1.09527 0
M  V30 5196 C 499.404 4.2439 -3.04451 0
M  V30 5197 H 501.098 2.26016 -1.96359 0
M  V30 5198 H 498.644 1.08611 -0.945501 0
M  V30 5199 H 500.597 4.18746 -0.472233 0
M  V30 5200 H 499.321 3.24811 0.341329 0
M  V30 5201 H 497.98 3.19895 -1.79061 0
M  V30 5202 H 497.628 5.02852 -0.122211 0
M  V30 5203 H 497.328 5.59895 -1.783 0
M  V30 5204 H 498.852 6.03062 -0.956511 0
M  V30 5205 H 500.266 4.92225 -2.93917 0
M  V30 5206 H 498.663 4.72118 -3.70438 0
M  V30 5207 H 499.733 3.31765 -3.53638 0
M  V30 5208 N 501.076 1.04316 1.18135 0
M  V30 5209 C 502.023 0.636398 2.21853 0
M  V30 5210 C 502.993 -0.357039 1.62217 0
M  V30 5211 O 504.178 -0.250453 1.89149 0
M  V30 5212 C 501.318 0.00812779 3.45099 0
M  V30 5213 C 500.431 1.04933 4.19062 0
M  V30 5214 C 499.566 0.389313 5.29771 0
M  V30 5215 C 498.605 1.41544 5.9551 0
M  V30 5216 N 497.742 0.78021 6.97751 0
M  V30 5217 H 502.582 1.52536 2.56002 0
M  V30 5218 H 500.119 0.76304 1.25762 0
M  V30 5219 H 502.077 -0.373497 4.15525 0
M  V30 5220 H 500.707 -0.844336 3.11562 0
M  V30 5221 H 499.759 1.54888 3.47439 0
M  V30 5222 H 501.071 1.82862 4.64072 0
M  V30 5223 H 500.225 -0.0463805 6.06682 0
M  V30 5224 H 498.964 -0.422038 4.8587 0
M  V30 5225 H 497.969 1.86124 5.17337 0
M  V30 5226 H 499.194 2.22854 6.41493 0
M  V30 5227 H 497.14 -0.0107899 6.55999 0
M  V30 5228 H 497.057 1.49716 7.41027 0
M  V30 5229 H 498.325 0.368996 7.78626 0
M  V30 5230 N 502.554 -1.34406 0.822964 0
M  V30 5231 C 503.831 -1.92733 0.333641 0
M  V30 5232 C 504.211 -1.75107 -1.17901 0
M  V30 5233 O 503.559 -1.12983 -1.98613 0
M  V30 5234 C 503.769 -3.40557 0.763023 0
M  V30 5235 C 505.117 -4.17709 0.761879 0
M  V30 5236 O 506.141 -3.49141 0.705606 0
M  V30 5237 O 505 -5.40082 0.835109 0
M  V30 5238 H 502.094 -0.821964 0.0911249 0
M  V30 5239 H 504.64 -1.4338 0.907757 0
M  V30 5240 H 503.412 -3.47187 1.8049 0
M  V30 5241 H 503.035 -3.97259 0.164605 0
M  V30 5242 N 504.032 -0.577932 -1.46621 0
M  V30 5243 C 504.995 0.147805 -2.28723 0
M  V30 5244 C 505.995 0.823325 -1.38123 0
M  V30 5245 O 507.185 0.676011 -1.60548 0
M  V30 5246 C 504.317 1.21853 -3.18378 0
M  V30 5247 H 505.51 -0.573654 -2.94362 0
M  V30 5248 H 503.063 -0.335703 -1.52652 0
M  V30 5249 H 503.798 1.97173 -2.57475 0
M  V30 5250 H 503.583 0.738714 -3.85078 0
M  V30 5251 H 505.073 1.72768 -3.80186 0
M  V30 5252 N 505.51 1.54411 -0.315457 0
M  V30 5253 C 506.473 2.22713 0.54142 0
M  V30 5254 C 507.473 1.2179 1.04995 0
M  V30 5255 O 508.663 1.46426 0.943667 0
M  V30 5256 C 505.795 2.92485 1.75116 0
M  V30 5257 H 506.988 2.99849 -0.0555508 0
M  V30 5258 H 504.541 1.56159 -0.0664453 0
M  V30 5259 H 505.276 2.19466 2.38758 0
M  V30 5260 H 505.061 3.66483 1.39401 0
M  V30 5261 H 506.551 3.44548 2.35959 0
M  V30 5262 N 506.988 0.0434614 1.5754 0
M  V30 5263 C 507.936 -0.951465 2.1225 0
M  V30 5264 C 508.93 -1.3274 1.05245 0
M  V30 5265 O 510.136 -1.30795 1.23663 0
M  V30 5266 H 506.511 -0.324667 0.678303 0
M  V30 5267 H 508.482 -0.464855 2.94757 0
M  V30 5268 C 507.231 -2.21972 2.67626 0
M  V30 5269 H 506.554 -1.93923 3.4962 0
M  V30 5270 H 507.994 -2.89765 3.09536 0
M  V30 5271 C 506.453 -2.95919 1.61038 0
M  V30 5272 O 506.983 -3.8857 1.01862 0
M  V30 5273 N 505.189 -2.58511 1.32741 0
M  V30 5274 H 504.736 -1.83244 1.81051 0
M  V30 5275 H 504.694 -3.08296 0.616531 0
M  V30 5276 N 508.466 -1.55915 -0.229846 0
M  V30 5277 C 509.376 -1.94891 -1.30593 0
M  V30 5278 C 510.392 -0.851604 -1.51736 0
M  V30 5279 O 511.568 -1.15447 -1.65027 0
M  V30 5280 C 508.633 -2.25052 -2.63728 0
M  V30 5281 C 507.694 -3.48306 -2.5096 0
M  V30 5282 C 506.927 -3.77019 -3.77747 0
M  V30 5283 O 507.15 -3.07534 -4.80395 0
M  V30 5284 O 506.084 -4.70523 -3.75356 0
M  V30 5285 H 509.91 -2.86581 -1.00525 0
M  V30 5286 H 507.495 -1.43017 -0.432025 0
M  V30 5287 H 509.377 -2.45682 -3.42372 0
M  V30 5288 H 508.052 -1.36538 -2.93495 0
M  V30 5289 H 506.959 -3.32964 -1.70546 0
M  V30 5290 H 508.292 -4.37177 -2.26136 0
M  V30 5291 N 509.944 0.496216 -1.49584 0
M  V30 5292 C 510.907 1.57952 -1.66084 0
M  V30 5293 C 511.907 1.51729 -0.53244 0
M  V30 5294 O 513.097 1.54796 -0.79899 0
M  V30 5295 C 510.229 2.97604 -1.66268 0
M  V30 5296 H 511.422 1.44649 -2.6271 0
M  V30 5297 H 508.975 0.7208 -1.38687 0
M  V30 5298 H 509.71 3.16378 -0.712432 0
M  V30 5299 H 509.495 3.03528 -2.4822 0
M  V30 5300 H 510.985 3.76301 -1.81073 0
M  V30 5301 N 511.423 1.38739 0.74761 0
M  V30 5302 C 512.353 1.39173 1.87492 0
M  V30 5303 C 513.334 0.256794 1.6815 0
M  V30 5304 O 514.519 0.460762 1.88655 0
M  V30 5305 C 511.649 1.22197 3.25093 0
M  V30 5306 C 510.603 2.32957 3.59047 0
M  V30 5307 C 509.929 2.01082 4.95449 0
M  V30 5308 C 511.229 3.75237 3.6331 0
M  V30 5309 H 512.923 2.3351 1.87386 0
M  V30 5310 H 510.469 1.12399 0.900134 0
M  V30 5311 H 512.422 1.21124 4.03617 0
M  V30 5312 H 511.146 0.243241 3.25693 0
M  V30 5313 H 509.805 2.33226 2.82845 0
M  V30 5314 H 509.453 1.01678 4.92616 0
M  V30 5315 H 509.153 2.75267 5.19136 0
M  V30 5316 H 510.677 2.01638 5.76346 0
M  V30 5317 H 512.091 3.76966 4.31937 0
M  V30 5318 H 510.488 4.48677 3.98509 0
M  V30 5319 H 511.558 4.07122 2.634 0
M  V30 5320 N 512.901 -0.976442 1.23707 0
M  V30 5321 C 514.147 -1.72158 1.08319 0
M  V30 5322 C 514.502 -1.88701 -0.375445 0
M  V30 5323 O 513.795 -1.43107 -1.274 0
M  V30 5324 C 513.989 -3.11814 1.74662 0
M  V30 5325 C 513.818 -3.08892 3.26827 0
M  V30 5326 C 512.588 -3.13861 3.96004 0
M  V30 5327 C 514.786 -2.9175 4.2354 0
M  V30 5328 N 512.768 -3.00867 5.35119 0
M  V30 5329 C 514.139 -2.8696 5.49595 0
M  V30 5330 C 516.194 -2.76265 4.14225 0
M  V30 5331 C 514.897 -2.68268 6.67401 0
M  V30 5332 C 516.923 -2.58938 5.317 0
M  V30 5333 C 516.285 -2.54849 6.56682 0
M  V30 5334 H 512.384 -0.638896 0.450927 0
M  V30 5335 H 514.968 -1.15835 1.56494 0
M  V30 5336 H 513.139 -3.66347 1.29014 0
M  V30 5337 H 514.871 -3.74984 1.52215 0
M  V30 5338 H 511.626 -3.22198 3.4711 0
M  V30 5339 H 512.05 -2.97634 6.08065 0
M  V30 5340 H 516.692 -2.78213 3.18366 0
M  V30 5341 H 514.41 -2.65063 7.63392 0
M  V30 5342 H 517.996 -2.47914 5.26336 0
M  V30 5343 H 516.876 -2.41611 7.46052 0
M  V30 5344 N 514.379 -1.04941 -1.1758 0
M  V30 5345 C 515.326 -0.648155 -2.21512 0
M  V30 5346 C 516.296 0.348431 -1.62404 0
M  V30 5347 O 517.481 0.240419 -1.89279 0
M  V30 5348 C 514.621 -0.0264291 -3.4509 0
M  V30 5349 C 513.734 -1.07154 -4.185 0
M  V30 5350 C 512.869 -0.417403 -5.29558 0
M  V30 5351 C 511.908 -1.447 -5.94751 0
M  V30 5352 N 511.045 -0.817203 -6.97328 0
M  V30 5353 H 515.885 -1.53891 -2.55189 0
M  V30 5354 H 513.422 -0.769699 -1.25356 0
M  V30 5355 H 515.38 0.351456 -4.15717 0
M  V30 5356 H 514.01 0.827802 -3.12005 0
M  V30 5357 H 513.062 -1.56728 -3.46613 0
M  V30 5358 H 514.374 -1.8532 -4.63096 0
M  V30 5359 H 513.528 0.0142061 -6.06698 0
M  V30 5360 H 512.267 0.396265 -4.86087 0
M  V30 5361 H 511.272 -1.88865 -5.16343 0
M  V30 5362 H 512.497 -2.26252 -6.40302 0
M  V30 5363 H 510.443 -0.0239995 -6.55996 0
M  V30 5364 H 510.36 -1.53644 -7.40223 0
M  V30 5365 H 511.628 -0.410283 -7.7842 0
M  V30 5366 N 515.857 1.33968 -0.830081 0
M  V30 5367 C 517.103 1.98773 -0.431394 0
M  V30 5368 C 517.458 1.64598 0.99626 0
M  V30 5369 O 516.751 0.911022 1.68555 0
M  V30 5370 C 516.945 3.52679 -0.57898 0
M  V30 5371 C 516.774 4.01807 -2.01943 0
M  V30 5372 C 515.544 4.30062 -2.65282 0
M  V30 5373 C 517.742 4.18663 -2.98707 0
M  V30 5374 N 515.724 4.65272 -4.00493 0
M  V30 5375 C 517.095 4.57133 -4.18843 0
M  V30 5376 C 519.15 4.00929 -2.95229 0
M  V30 5377 C 517.853 4.79723 -5.35965 0
M  V30 5378 C 519.879 4.2469 -4.11573 0
M  V30 5379 C 519.241 4.63454 -5.30462 0
M  V30 5380 H 515.34 0.75435 -0.206107 0
M  V30 5381 H 517.924 1.62247 -1.07629 0
M  V30 5382 H 516.095 3.88383 0.0360632 0
M  V30 5383 H 517.827 4.04412 -0.152596 0
M  V30 5384 H 514.582 4.21231 -2.16475 0
M  V30 5385 H 515.006 4.87101 -4.70172 0
M  V30 5386 H 519.648 3.70082 -2.04448 0
M  V30 5387 H 517.366 5.09434 -6.27297 0
M  V30 5388 H 520.952 4.12497 -4.10289 0
M  V30 5389 H 519.832 4.81476 -6.18992 0
M  V30 5390 N 517.335 0.585699 1.46312 0
M  V30 5391 C 518.751 0.247607 1.57668 0
M  V30 5392 C 518.951 -1.25007 1.58037 0
M  V30 5393 O 518.007 -2.03196 1.49893 0
M  V30 5394 C 519.32 0.899456 2.86933 0
M  V30 5395 C 520.868 0.873326 3.00569 0
M  V30 5396 C 521.343 1.50477 4.32574 0
M  V30 5397 N 522.834 1.46925 4.3928 0
M  V30 5398 C 523.569 1.92719 5.40044 0
M  V30 5399 N 523.065 2.46499 6.47464 0
M  V30 5400 N 524.858 1.83617 5.31264 0
M  V30 5401 H 517.009 1.55841 1.44317 0
M  V30 5402 H 519.272 0.651564 0.688599 0
M  V30 5403 H 518.978 1.95313 2.92482 0
M  V30 5404 H 518.852 0.409476 3.74971 0
M  V30 5405 H 521.239 -0.171736 2.946 0
M  V30 5406 H 521.32 1.40136 2.13999 0
M  V30 5407 H 520.964 2.54905 4.39302 0
M  V30 5408 H 520.894 0.951944 5.17924 0
M  V30 5409 H 523.385 1.07616 3.62253 0
M  V30 5410 H 523.698 2.79291 7.20567 0
M  V30 5411 H 522.043 2.50526 6.48276 0
M  V30 5412 H 525.234 1.41358 4.46246 0
M  V30 5413 H 525.407 2.19622 6.09648 0
M  V30 5414 N 518.813 -1.54241 0.323641 0
M  V30 5415 C 519.723 -2.28033 -0.551205 0
M  V30 5416 C 520.739 -1.32388 -1.12913 0
M  V30 5417 O 521.915 -1.65403 -1.14908 0
M  V30 5418 C 518.98 -3.02382 -1.69606 0
M  V30 5419 C 518.041 -4.13612 -1.14993 0
M  V30 5420 C 517.274 -4.84407 -2.24022 0
M  V30 5421 O 517.497 -4.54716 -3.44368 0
M  V30 5422 O 516.431 -5.71312 -1.89436 0
M  V30 5423 H 520.257 -3.03662 0.048066 0
M  V30 5424 H 517.842 -1.49133 0.0893289 0
M  V30 5425 H 519.724 -3.48941 -2.36259 0
M  V30 5426 H 518.399 -2.29628 -2.28151 0
M  V30 5427 H 517.306 -3.71402 -0.448484 0
M  V30 5428 H 518.639 -4.8841 -0.609608 0
M  V30 5429 N 520.291 -0.0518155 -1.57515 0
M  V30 5430 C 521.201 0.937539 -2.15052 0
M  V30 5431 C 522.217 1.34121 -1.10849 0
M  V30 5432 O 523.393 1.418 -1.4302 0
M  V30 5433 C 520.458 2.19379 -2.68466 0
M  V30 5434 C 519.519 1.84841 -3.87469 0
M  V30 5435 C 518.752 3.04477 -4.38326 0
M  V30 5436 O 518.975 4.17868 -3.88256 0
M  V30 5437 O 517.909 2.85453 -5.29906 0
M  V30 5438 H 521.735 0.478201 -2.99912 0
M  V30 5439 H 519.32 0.17012 -1.48428 0
M  V30 5440 H 521.202 2.93084 -3.02787 0
M  V30 5441 H 519.877 2.64449 -1.86677 0
M  V30 5442 H 518.784 1.08449 -3.58036 0
M  V30 5443 H 520.117 1.44569 -4.7049 0
M  V30 5444 N 521.769 1.56035 0.221574 0
M  V30 5445 C 522.717 1.93269 1.29421 0
M  V30 5446 C 523.711 0.814727 1.48521 0
M  V30 5447 O 524.917 0.999559 1.49696 0
M  V30 5448 H 521.292 0.614188 0.43391 0
M  V30 5449 H 523.263 2.82773 0.952987 0
M  V30 5450 C 522.012 2.26573 2.63742 0
M  V30 5451 H 521.335 3.12112 2.49853 0
M  V30 5452 H 522.775 2.5651 3.37607 0
M  V30 5453 C 521.234 1.09086 3.1875 0
M  V30 5454 O 521.764 0.351985 4.00155 0
M  V30 5455 N 519.97 0.874693 2.77124 0
M  V30 5456 H 519.517 1.47726 2.11033 0
M  V30 5457 H 519.475 0.0903349 3.1427 0
M  V30 5458 N 523.247 -0.488276 1.49845 0
M  V30 5459 C 524.658 -1.06955 1.53028 0
M  V30 5460 C 525.009 -1.9351 0.323797 0
M  V30 5461 O 524.134 -2.08891 -0.565116 0
M  V30 5462 C 524.729 -1.94643 2.77307 0
M  V30 5463 C 523.288 -2.4791 2.83227 0
M  V30 5464 C 522.435 -1.25833 2.47106 0
M  V30 5465 H 525.386 -0.271626 1.56358 0
M  V30 5466 H 525.407 -2.79496 2.5819 0
M  V30 5467 H 524.919 -1.31621 3.65099 0
M  V30 5468 H 523.02 -3.14535 1.99745 0
M  V30 5469 H 523.133 -2.84193 3.85709 0
M  V30 5470 H 521.497 -1.58764 1.99163 0
M  V30 5471 H 522.28 -0.644993 3.37186 0
M  V30 5472 N 524.725 -1.39134 -0.740242 0
M  V30 5473 C 525.635 -1.39697 -1.88473 0
M  V30 5474 C 526.651 -0.292403 -1.71526 0
M  V30 5475 O 527.827 -0.533021 -1.94219 0
M  V30 5476 C 524.892 -1.23382 -3.24003 0
M  V30 5477 C 523.953 -2.43763 -3.53381 0
M  V30 5478 C 523.186 -2.28216 -4.82445 0
M  V30 5479 O 523.409 -1.28288 -5.55786 0
M  V30 5480 O 522.343 -3.1709 -5.11603 0
M  V30 5481 H 526.169 -2.36159 -1.90952 0
M  V30 5482 H 523.754 -1.20194 -0.887346 0
M  V30 5483 H 525.636 -1.16395 -4.05006 0
M  V30 5484 H 524.311 -0.300121 -3.22306 0
M  V30 5485 H 523.218 -2.56325 -2.72485 0
M  V30 5486 H 524.551 -3.35808 -3.59852 0
M  V30 5487 N 526.204 0.969867 -1.24223 0
M  V30 5488 C 527.167 2.04564 -1.03373 0
M  V30 5489 C 528.167 1.60798 0.00819206 0
M  V30 5490 O 529.357 1.72641 -0.232567 0
M  V30 5491 C 526.489 3.36163 -0.566343 0
M  V30 5492 H 527.682 2.24494 -1.98853 0
M  V30 5493 H 525.235 1.1448 -1.06415 0
M  V30 5494 H 525.97 3.21925 0.391751 0
M  V30 5495 H 525.755 3.69273 -1.31834 0
M  V30 5496 H 527.245 4.1526 -0.441435 0
M  V30 5497 N 527.682 1.05563 1.17022 0
M  V30 5498 C 529.093 0.793475 1.69 0
M  V30 5499 C 529.444 -0.683882 1.83895 0
M  V30 5500 O 528.569 -1.53116 1.5292 0
M  V30 5501 C 529.164 1.43376 3.06967 0
M  V30 5502 C 527.723 1.21956 3.56095 0
M  V30 5503 C 526.87 1.51494 2.3226 0
M  V30 5504 H 529.821 1.22008 1.01487 0
M  V30 5505 H 529.842 0.845068 3.70997 0
M  V30 5506 H 529.354 2.50899 2.96093 0
M  V30 5507 H 527.455 0.163749 3.7224 0
M  V30 5508 H 527.568 1.92713 4.38633 0
M  V30 5509 H 525.932 0.935175 2.3691 0
M  V30 5510 H 526.715 2.60159 2.23992 0
M  V30 5511 N 529.16 -1.33526 0.837174 0
M  V30 5512 C 530.408 -1.97446 0.431211 0
M  V30 5513 C 530.729 -1.6665 -1.01255 0
M  V30 5514 O 529.999 -0.964559 -1.70508 0
M  V30 5515 H 528.579 -0.73043 0.156463 0
M  V30 5516 H 531.241 -1.62918 1.06976 0
M  V30 5517 H 530.337 -3.07001 0.561877 0
M  V30 5518 N 530.638 -0.59345 -1.46 0
M  V30 5519 C 531.601 0.123538 -2.28867 0
M  V30 5520 C 532.601 0.808628 -1.38989 0
M  V30 5521 O 533.791 0.658945 -1.61256 0
M  V30 5522 C 530.923 1.1847 -3.19653 0
M  V30 5523 H 532.116 -0.604843 -2.93737 0
M  V30 5524 H 529.669 -0.351875 -1.52288 0
M  V30 5525 H 530.404 1.94431 -2.59552 0
M  V30 5526 H 530.189 0.69783 -3.8584 0
M  V30 5527 H 531.679 1.68726 -3.81997 0
M  V30 5528 N 532.116 1.54067 -0.331816 0
M  V30 5529 C 533.064 2.26105 0.54582 0
M  V30 5530 C 534.058 1.27816 1.11173 0
M  V30 5531 O 535.264 1.45565 1.05882 0
M  V30 5532 H 531.639 0.726363 0.194683 0
M  V30 5533 H 533.61 2.98282 -0.083931 0
M  V30 5534 C 532.359 3.03814 1.69092 0
M  V30 5535 H 531.682 3.79269 1.26473 0
M  V30 5536 H 533.122 3.57453 2.28043 0
M  V30 5537 C 531.581 2.12606 2.61343 0
M  V30 5538 O 532.111 1.71437 3.6328 0
M  V30 5539 N 530.317 1.77925 2.29763 0
M  V30 5540 H 529.864 2.11602 1.46909 0
M  V30 5541 H 529.822 1.1718 2.91747 0
M  V30 5542 N 533.594 0.0601682 1.57485 0
M  V30 5543 C 534.84 -0.606552 1.94146 0
M  V30 5544 C 535.195 -1.67918 0.939225 0
M  V30 5545 O 534.488 -1.91558 -0.0402649 0
M  V30 5546 C 534.682 -1.23831 3.35262 0
M  V30 5547 C 534.511 -0.228408 4.4912 0
M  V30 5548 C 533.281 0.182813 5.04969 0
M  V30 5549 C 535.479 0.52975 5.11564 0
M  V30 5550 N 533.461 1.18464 6.02362 0
M  V30 5551 C 534.832 1.38439 6.04346 0
M  V30 5552 C 536.887 0.587084 4.94427 0
M  V30 5553 C 535.59 2.29125 6.81832 0
M  V30 5554 C 537.616 1.4814 5.72546 0
M  V30 5555 C 536.978 2.32375 6.64967 0
M  V30 5556 H 533.077 -0.193328 0.757726 0
M  V30 5557 H 535.661 0.1346 1.94234 0
M  V30 5558 H 533.832 -1.94944 3.35933 0
M  V30 5559 H 535.564 -1.86456 3.59188 0
M  V30 5560 H 532.319 -0.197968 4.73186 0
M  V30 5561 H 532.743 1.68271 6.55754 0
M  V30 5562 H 537.385 -0.049944 4.22771 0
M  V30 5563 H 535.103 2.93868 7.52773 0
M  V30 5564 H 538.689 1.53045 5.6131 0
M  V30 5565 H 537.569 3.00454 7.2436 0
M  V30 5566 N 535.072 -1.5615 -0.213296 0
M  V30 5567 C 536.3 -1.83638 -0.953139 0
M  V30 5568 C 536.715 -0.640362 -1.77609 0
M  V30 5569 O 536.072 0.391071 -1.78261 0
M  V30 5570 C 536.123 -3.09735 -1.86405 0
M  V30 5571 O 535.844 -4.24723 -1.07435 0
M  V30 5572 C 537.345 -3.5027 -2.71709 0
M  V30 5573 H 534.565 -0.610263 -0.278962 0
M  V30 5574 H 537.109 -2.03247 -0.226035 0
M  V30 5575 H 535.264 -2.92077 -2.545 0
M  V30 5576 H 535.678 -4.9641 -1.69343 0
M  V30 5577 H 537.152 -4.41515 -3.31313 0
M  V30 5578 H 537.629 -2.72406 -3.44516 0
M  V30 5579 H 538.235 -3.70396 -2.09015 0
M  V30 5580 N 536.55 0.480323 -1.50102 0
M  V30 5581 C 537.827 1.24159 -1.51142 0
M  V30 5582 C 538.207 2.09605 -0.250818 0
M  V30 5583 O 537.555 2.15274 0.766118 0
M  V30 5584 C 537.765 2.08057 -2.80202 0
M  V30 5585 C 539.113 2.66556 -3.30504 0
M  V30 5586 O 540.137 2.18308 -2.81461 0
M  V30 5587 O 538.996 3.54442 -4.15973 0
M  V30 5588 H 536.09 0.562928 -0.605839 0
M  V30 5589 H 538.636 0.492899 -1.62384 0
M  V30 5590 H 537.408 1.45032 -3.6343 0
M  V30 5591 H 537.031 2.90079 -2.71919 0
M  V30 5592 N 538.028 1.39524 0.732853 0
M  V30 5593 C 539.305 1.27373 1.48444 0
M  V30 5594 C 539.685 -0.115725 2.10783 0
M  V30 5595 O 539.033 -1.12713 1.98766 0
M  V30 5596 C 539.243 2.39966 2.53412 0
M  V30 5597 C 540.591 2.79384 3.19733 0
M  V30 5598 O 541.615 2.39431 2.63725 0
M  V30 5599 O 540.474 3.48353 4.21085 0
M  V30 5600 H 537.568 0.499272 0.659285 0
M  V30 5601 H 540.114 1.51403 0.766496 0
M  V30 5602 H 538.886 3.32845 2.05742 0
M  V30 5603 H 538.509 2.17612 3.32762 0
M  V30 5604 N 539.506 -0.963266 1.24736 0
M  V30 5605 C 540.753 -1.7068 1.0897 0
M  V30 5606 C 541.081 -1.90934 -0.370751 0
M  V30 5607 O 540.336 -1.47155 -1.29011 0
M  V30 5608 C 540.635 -3.09944 1.7796 0
M  V30 5609 C 540.301 -3.09518 3.27887 0
M  V30 5610 C 538.963 -3.09109 3.68789 0
M  V30 5611 C 541.315 -3.03509 4.23712 0
M  V30 5612 C 538.643 -3.00429 5.03944 0
M  V30 5613 C 540.995 -2.96371 5.5888 0
M  V30 5614 C 539.659 -2.94293 5.99123 0
M  V30 5615 H 538.929 -0.624564 0.398749 0
M  V30 5616 H 541.576 -1.12603 1.54896 0
M  V30 5617 H 539.881 -3.71513 1.2444 0
M  V30 5618 H 541.578 -3.66278 1.63222 0
M  V30 5619 H 538.168 -3.10603 2.95337 0
M  V30 5620 H 542.352 -3.0295 3.93109 0
M  V30 5621 H 537.608 -2.97183 5.34314 0
M  V30 5622 H 541.782 -2.90681 6.32833 0
M  V30 5623 H 539.409 -2.87322 7.03811 0
M  V30 5624 N 540.985 -1.06182 -1.16461 0
M  V30 5625 C 542.231 -0.788825 -1.87481 0
M  V30 5626 C 542.586 0.677298 -1.80085 0
M  V30 5627 O 541.879 1.48976 -1.20486 0
M  V30 5628 C 542.073 -1.21633 -3.36066 0
M  V30 5629 C 541.902 -2.72247 -3.57927 0
M  V30 5630 C 540.672 -3.39696 -3.74079 0
M  V30 5631 C 542.87 -3.70461 -3.56739 0
M  V30 5632 N 540.852 -4.79072 -3.83879 0
M  V30 5633 C 542.223 -4.95616 -3.72511 0
M  V30 5634 C 544.278 -3.63788 -3.39945 0
M  V30 5635 C 542.981 -6.14895 -3.73225 0
M  V30 5636 C 545.007 -4.82517 -3.41953 0
M  V30 5637 C 544.369 -6.065 -3.58242 0
M  V30 5638 H 540.468 -0.341034 -0.703719 0
M  V30 5639 H 543.052 -1.35575 -1.39741 0
M  V30 5640 H 541.223 -0.67725 -3.8245 0
M  V30 5641 H 542.955 -0.892119 -3.94745 0
M  V30 5642 H 539.71 -2.90097 -3.74354 0
M  V30 5643 H 540.134 -5.51573 -3.92551 0
M  V30 5644 H 544.776 -2.68888 -3.26281 0
M  V30 5645 H 542.494 -7.10129 -3.85672 0
M  V30 5646 H 546.08 -4.79017 -3.30203 0
M  V30 5647 H 544.96 -6.96833 -3.59712 0
M  V30 5648 N 542.463 1.3308 -0.844243 0
M  V30 5649 C 543.396 2.27075 -0.226279 0
M  V30 5650 C 544.374 1.49911 0.629716 0
M  V30 5651 O 545.558 1.79068 0.588803 0
M  V30 5652 C 542.685 3.31767 0.681782 0
M  V30 5653 C 541.731 4.26384 -0.0994565 0
M  V30 5654 S 542.564 5.15186 -1.46094 0
M  V30 5655 C 543.72 6.23405 -0.558319 0
M  V30 5656 H 543.953 2.79141 -1.02312 0
M  V30 5657 H 541.486 1.40452 -0.641292 0
M  V30 5658 H 543.444 3.92566 1.20008 0
M  V30 5659 H 542.105 2.78507 1.45234 0
M  V30 5660 H 541.298 5.00514 0.591733 0
M  V30 5661 H 540.9 3.69949 -0.548991 0
M  V30 5662 H 543.192 6.77069 0.241672 0
M  V30 5663 H 544.135 6.96619 -1.26995 0
M  V30 5664 H 544.543 5.64333 -0.13728 0
M  V30 5665 N 543.941 0.601185 1.45683 0
M  V30 5666 C 545.187 0.0940202 2.02582 0
M  V30 5667 C 545.52 -1.26972 1.46941 0
M  V30 5668 O 544.795 -1.83613 0.641612 0
M  V30 5669 C 545.078 0.0481715 3.60068 0
M  V30 5670 C 544.931 1.44212 4.26055 0
M  V30 5671 C 546.25 -0.642975 4.35378 0
M  V30 5672 H 543.369 0.0356404 0.736138 0
M  V30 5673 H 546.011 0.771929 1.73612 0
M  V30 5674 H 544.161 -0.529128 3.8488 0
M  V30 5675 H 545.833 2.06601 4.12449 0
M  V30 5676 H 544.076 2.00465 3.84703 0
M  V30 5677 H 544.747 1.36234 5.34925 0
M  V30 5678 H 547.223 -0.152351 4.15821 0
M  V30 5679 H 546.099 -0.644141 5.45107 0
M  V30 5680 H 546.36 -1.70785 4.0778 0
M  V30 5681 N 545.419 -1.53889 0.339982 0
M  V30 5682 C 546.667 -2.00458 -0.257112 0
M  V30 5683 C 546.988 -1.22953 -1.51353 0
M  V30 5684 O 546.258 -0.335734 -1.93002 0
M  V30 5685 H 544.838 -0.740544 -0.0979965 0
M  V30 5686 H 547.5 -1.89386 0.460317 0
M  V30 5687 H 546.596 -3.08035 -0.502057 0
M  V30 5688 N 546.897 -0.0685191 -1.57451 0
M  V30 5689 C 547.807 0.914677 -2.16034 0
M  V30 5690 C 548.823 1.32938 -1.12265 0
M  V30 5691 O 549.999 1.40275 -1.44516 0
M  V30 5692 C 547.064 2.16519 -2.70777 0
M  V30 5693 C 546.125 1.80721 -3.89408 0
M  V30 5694 C 545.358 2.9981 -4.41531 0
M  V30 5695 O 545.581 4.13727 -3.92666 0
M  V30 5696 O 544.515 2.79817 -5.32903 0
M  V30 5697 H 548.341 0.446364 -3.00402 0
M  V30 5698 H 545.926 0.154367 -1.486 0
M  V30 5699 H 547.808 2.89856 -3.05878 0
M  V30 5700 H 546.483 2.62454 -1.89471 0
M  V30 5701 H 545.39 1.04646 -3.59166 0
M  V30 5702 H 546.723 1.39571 -4.71997 0
M  V30 5703 N 548.375 1.56261 0.205012 0
M  V30 5704 C 549.621 1.80306 0.9283 0
M  V30 5705 C 549.954 0.640932 1.83319 0
M  V30 5706 O 549.229 -0.359032 1.91158 0
M  V30 5707 C 549.512 3.14547 1.75306 0
M  V30 5708 C 549.365 4.41236 0.873562 0
M  V30 5709 C 550.684 3.45382 2.72762 0
M  V30 5710 H 547.803 0.655929 0.336044 0
M  V30 5711 H 550.445 1.88984 0.196211 0
M  V30 5712 H 548.595 3.0728 2.37721 0
M  V30 5713 H 550.267 4.60539 0.264887 0
M  V30 5714 H 548.51 4.33427 0.179773 0
M  V30 5715 H 549.181 5.31639 1.48541 0
M  V30 5716 H 551.657 3.52884 2.20481 0
M  V30 5717 H 550.533 4.40449 3.2756 0
M  V30 5718 H 550.794 2.68377 3.51321 0
M  V30 5719 N 549.853 -0.472356 1.50355 0
M  V30 5720 C 551.099 -1.22348 1.62488 0
M  V30 5721 C 551.454 -1.89711 0.320574 0
M  V30 5722 O 550.747 -1.79074 -0.68141 0
M  V30 5723 C 550.941 -2.29257 2.74182 0
M  V30 5724 C 550.77 -1.72383 4.15348 0
M  V30 5725 C 549.54 -1.52411 4.81766 0
M  V30 5726 C 551.738 -1.21949 4.99633 0
M  V30 5727 N 549.72 -0.907669 6.07153 0
M  V30 5728 C 551.091 -0.726191 6.15732 0
M  V30 5729 C 553.146 -1.10792 4.85417 0
M  V30 5730 C 551.849 -0.132322 7.19178 0
M  V30 5731 C 553.875 -0.52799 5.89038 0
M  V30 5732 C 553.237 -0.0450604 7.04386 0
M  V30 5733 H 549.336 -0.436631 0.648751 0
M  V30 5734 H 551.92 -0.525698 1.87469 0
M  V30 5735 H 550.091 -2.96464 2.50926 0
M  V30 5736 H 551.823 -2.9628 2.75681 0
M  V30 5737 H 548.578 -1.776 4.39039 0
M  V30 5738 H 549.002 -0.617897 6.74174 0
M  V30 5739 H 553.644 -1.46722 3.96525 0
M  V30 5740 H 551.362 0.239187 8.07746 0
M  V30 5741 H 554.948 -0.444046 5.80103 0
M  V30 5742 H 553.828 0.396659 7.83196 0
M  V30 5743 N 551.331 -1.39911 -0.725443 0
M  V30 5744 C 552.579 -1.37382 -1.48224 0
M  V30 5745 C 552.9 0.0264107 -1.94982 0
M  V30 5746 O 552.17 0.979408 -1.6966 0
M  V30 5747 H 550.75 -0.505596 -0.549892 0
M  V30 5748 H 553.412 -1.7487 -0.860608 0
M  V30 5749 H 552.508 -2.04254 -2.3598 0
M  V30 5750 N 552.809 0.956637 -1.25245 0
M  V30 5751 C 553.759 2.03841 -1.02141 0
M  V30 5752 C 554.743 1.60848 0.0410058 0
M  V30 5753 O 555.935 1.76142 -0.174084 0
M  V30 5754 C 553.064 3.37282 -0.639963 0
M  V30 5755 C 552.15 3.86805 -1.73903 0
M  V30 5756 N 552.541 4.09143 -2.97381 0
M  V30 5757 C 550.839 4.15574 -1.61909 0
M  V30 5758 C 551.54 4.49923 -3.68707 0
M  V30 5759 N 550.516 4.55737 -2.96318 0
M  V30 5760 H 554.318 2.19102 -1.95886 0
M  V30 5761 H 551.832 1.1413 -1.15534 0
M  V30 5762 H 553.829 4.14403 -0.455643 0
M  V30 5763 H 552.489 3.23401 0.29018 0
M  V30 5764 H 553.5 3.96275 -3.33447 0
M  V30 5765 H 550.177 4.10566 -0.757764 0
M  V30 5766 H 551.567 4.75526 -4.74684 0
M  V30 5767 N 554.287 1.06798 1.15896 0
M  V30 5768 C 555.535 0.786211 1.8618 0
M  V30 5769 C 555.856 -0.689547 1.82401 0
M  V30 5770 O 555.126 -1.49913 1.26107 0
M  V30 5771 H 553.706 0.287843 0.689315 0
M  V30 5772 H 556.368 1.35055 1.40521 0
M  V30 5773 H 555.464 1.1157 2.91477 0
M  V30 5774 N 555.766 -1.3263 0.851289 0
M  V30 5775 C 557.012 -1.9766 0.453694 0
M  V30 5776 C 557.345 -1.67225 -0.987396 0
M  V30 5777 O 556.62 -0.958693 -1.69232 0
M  V30 5778 C 556.903 -3.5344 0.68936 0
M  V30 5779 C 556.756 -3.93517 2.17862 0
M  V30 5780 C 558.075 -4.39866 0.143555 0
M  V30 5781 H 555.194 -0.717989 0.166314 0
M  V30 5782 H 557.836 -1.57068 1.06909 0
M  V30 5783 H 555.986 -3.88147 0.165546 0
M  V30 5784 H 557.658 -3.69006 2.76826 0
M  V30 5785 H 555.901 -3.42798 2.65841 0
M  V30 5786 H 556.572 -5.02065 2.29422 0
M  V30 5787 H 559.048 -4.11875 0.591451 0
M  V30 5788 H 557.924 -5.47858 0.338043 0
M  V30 5789 H 558.185 -4.31696 -0.953466 0
M  V30 5790 N 557.244 -0.608902 -1.45362 0
M  V30 5791 C 558.492 -0.104401 -2.0183 0
M  V30 5792 C 558.813 1.27007 -1.47967 0
M  V30 5793 O 558.083 1.83924 -0.674455 0
M  V30 5794 H 556.663 -0.0356042 -0.746151 0
M  V30 5795 H 559.325 -0.790596 -1.78145 0
M  V30 5796 H 558.421 -0.0551793 -3.12051 0
M  V30 5797 N 558.722 1.53707 -0.348139 0
M  V30 5798 C 560.138 1.596 0.00361134 0
M  V30 5799 C 560.338 1.36394 1.4832 0
M  V30 5800 O 559.394 1.16046 2.24253 0
M  V30 5801 C 560.707 2.97512 -0.436682 0
M  V30 5802 C 562.255 3.10568 -0.389416 0
M  V30 5803 C 562.73 4.50866 -0.805249 0
M  V30 5804 N 564.221 4.56929 -0.759616 0
M  V30 5805 C 564.956 5.63643 -1.05327 0
M  V30 5806 N 564.452 6.78189 -1.41531 0
M  V30 5807 N 566.245 5.5354 -0.977207 0
M  V30 5808 H 558.396 1.67044 -1.31187 0
M  V30 5809 H 560.659 0.782559 -0.535075 0
M  V30 5810 H 560.365 3.19575 -1.46849 0
M  V30 5811 H 560.239 3.76742 0.185744 0
M  V30 5812 H 562.626 2.88226 0.633228 0
M  V30 5813 H 562.707 2.33387 -1.04711 0
M  V30 5814 H 562.351 4.73943 -1.82593 0
M  V30 5815 H 562.281 5.26452 -0.124989 0
M  V30 5816 H 564.772 3.74675 -0.49265 0
M  V30 5817 H 565.085 7.55541 -1.62411 0
M  V30 5818 H 563.43 6.79624 -1.45381 0
M  V30 5819 H 566.621 4.62932 -0.693675 0
M  V30 5820 H 566.794 6.36614 -1.2094 0
M  V30 5821 N 560.2 0.0768682 1.57412 0
M  V30 5822 C 561.425 -0.603404 1.98428 0
M  V30 5823 C 561.85 -1.62047 0.955108 0
M  V30 5824 O 561.208 -1.81129 -0.0786778 0
M  V30 5825 C 561.256 -1.24396 3.38464 0
M  V30 5826 O 560.36 -2.35982 3.3821 0
M  V30 5827 H 559.701 -0.154741 0.645718 0
M  V30 5828 H 562.231 0.152885 2.04028 0
M  V30 5829 H 562.241 -1.5896 3.7576 0
M  V30 5830 H 560.916 -0.498735 4.12899 0
M  V30 5831 H 559.493 -2.03173 3.1269 0
M  V30 5832 N 561.678 -1.56367 -0.196722 0
M  V30 5833 C 562.588 -1.97617 -1.2643 0
M  V30 5834 C 563.604 -0.883598 -1.49895 0
M  V30 5835 O 564.78 -1.18921 -1.62541 0
M  V30 5836 C 561.845 -2.30595 -2.58895 0
M  V30 5837 C 560.906 -3.53551 -2.43516 0
M  V30 5838 C 560.139 -3.84946 -3.69665 0
M  V30 5839 O 560.362 -3.17655 -4.73763 0
M  V30 5840 O 559.296 -4.78379 -3.65291 0
M  V30 5841 H 563.122 -2.88648 -0.944233 0
M  V30 5842 H 560.707 -1.43901 -0.401592 0
M  V30 5843 H 562.589 -2.52889 -3.37083 0
M  V30 5844 H 561.264 -1.42732 -2.90533 0
M  V30 5845 H 560.171 -3.36507 -1.63445 0
M  V30 5846 H 561.504 -4.41875 -2.16812 0
M  V30 5847 N 563.156 0.464375 -1.50603 0
M  V30 5848 C 564.386 1.23727 -1.65454 0
M  V30 5849 C 564.794 1.86119 -0.340032 0
M  V30 5850 O 564.137 1.70301 0.688706 0
M  V30 5851 C 564.199 2.38153 -2.69301 0
M  V30 5852 C 563.863 1.96345 -4.12671 0
M  V30 5853 C 564.86 1.48215 -4.98326 0
M  V30 5854 C 562.545 2.04861 -4.58625 0
M  V30 5855 C 564.539 1.09152 -6.27985 0
M  V30 5856 C 562.226 1.65409 -5.88288 0
M  V30 5857 C 563.224 1.17634 -6.72794 0
M  V30 5858 O 562.912 0.787312 -8.00035 0
M  V30 5859 H 562.644 0.380075 -0.559034 0
M  V30 5860 H 565.198 0.559919 -1.97621 0
M  V30 5861 H 563.428 3.09081 -2.32392 0
M  V30 5862 H 565.117 3.00099 -2.73304 0
M  V30 5863 H 565.883 1.41052 -4.64036 0
M  V30 5864 H 561.762 2.40996 -3.92991 0
M  V30 5865 H 565.306 0.717909 -6.93896 0
M  V30 5866 H 561.203 1.72233 -6.22098 0
M  V30 5867 H 561.971 0.915567 -8.13363 0
M  V30 5868 N 564.634 1.40294 0.718013 0
M  V30 5869 C 565.881 1.3844 1.47786 0
M  V30 5870 C 566.209 -0.0140838 1.94495 0
M  V30 5871 O 565.464 -0.998165 1.68331 0
M  V30 5872 C 565.763 2.31814 2.72024 0
M  V30 5873 C 565.429 3.79117 2.44093 0
M  V30 5874 C 564.091 4.19249 2.36185 0
M  V30 5875 C 566.443 4.72212 2.20602 0
M  V30 5876 C 563.771 5.50516 2.02851 0
M  V30 5877 C 566.123 6.03775 1.88781 0
M  V30 5878 C 564.787 6.42953 1.79354 0
M  V30 5879 H 564.057 0.506588 0.540786 0
M  V30 5880 H 566.704 1.72929 0.822663 0
M  V30 5881 H 565.009 1.90501 3.42369 0
M  V30 5882 H 566.706 2.27664 3.30106 0
M  V30 5883 H 563.296 3.47318 2.51133 0
M  V30 5884 H 567.48 4.42026 2.25669 0
M  V30 5885 H 562.736 5.79776 1.94088 0
M  V30 5886 H 566.91 6.75428 1.69617 0
M  V30 5887 H 564.537 7.44584 1.53291 0
M  V30 5888 N 566.112 -0.949982 1.2575 0
M  V30 5889 C 567.389 -1.6718 1.01539 0
M  V30 5890 C 567.769 -2.06095 -0.456942 0
M  V30 5891 O 567.117 -1.77792 -1.43534 0
M  V30 5892 C 567.327 -2.8906 1.95564 0
M  V30 5893 C 568.675 -3.60909 2.23673 0
M  V30 5894 O 569.699 -2.9915 1.9336 0
M  V30 5895 O 568.558 -4.72127 2.75243 0
M  V30 5896 H 565.652 -0.731697 0.385419 0
M  V30 5897 H 568.198 -1.00249 1.36924 0
M  V30 5898 H 566.97 -2.57128 2.94959 0
M  V30 5899 H 566.593 -3.63719 1.60605 0
M  V30 5900 N 567.59 -1.07411 -1.15328 0
M  V30 5901 C 568.54 -0.664788 -2.18093 0
M  V30 5902 C 569.524 0.310395 -1.57878 0
M  V30 5903 O 570.716 0.124026 -1.76565 0
M  V30 5904 C 567.845 -0.0647822 -3.43239 0
M  V30 5905 C 566.931 -1.06514 -4.10506 0
M  V30 5906 N 567.322 -2.24491 -4.53252 0
M  V30 5907 C 565.62 -0.898613 -4.36853 0
M  V30 5908 C 566.321 -2.8796 -5.05424 0
M  V30 5909 N 565.297 -2.15622 -4.99007 0
M  V30 5910 H 569.099 -1.56333 -2.48872 0
M  V30 5911 H 566.613 -0.947393 -1.31902 0
M  V30 5912 H 568.61 0.246363 -4.16171 0
M  V30 5913 H 567.27 0.828866 -3.13943 0
M  V30 5914 H 568.281 -2.62205 -4.46619 0
M  V30 5915 H 564.958 -0.0579118 -4.1746 0
M  V30 5916 H 566.348 -3.88137 -5.48452 0
M  V30 5917 N 569.068 1.32177 -0.85831 0
M  V30 5918 C 570.316 1.96735 -0.462568 0
M  V30 5919 C 570.637 1.6824 0.985911 0
M  V30 5920 O 569.907 0.991564 1.68952 0
M  V30 5921 H 568.487 0.727849 -0.168064 0
M  V30 5922 H 571.149 1.61195 -1.09554 0
M  V30 5923 H 570.245 3.06068 -0.610647 0
M  V30 5924 N 570.547 0.616602 1.45037 0
M  V30 5925 C 571.794 0.115331 2.02171 0
M  V30 5926 C 572.122 -1.25748 1.48383 0
M  V30 5927 O 571.377 -1.84511 0.652229 0
M  V30 5928 C 571.676 0.0356829 3.57382 0
M  V30 5929 C 571.342 1.34535 4.30362 0
M  V30 5930 C 570.004 1.70408 4.50016 0
M  V30 5931 C 572.356 2.21049 4.72003 0
M  V30 5932 C 569.684 2.92529 5.0857 0
M  V30 5933 C 572.036 3.42427 5.31908 0
M  V30 5934 C 570.7 3.78541 5.49784 0
M  V30 5935 H 569.97 0.0422024 0.739797 0
M  V30 5936 H 572.617 0.80002 1.73988 0
M  V30 5937 H 570.922 -0.732314 3.84895 0
M  V30 5938 H 572.619 -0.368463 3.99304 0
M  V30 5939 H 569.209 1.05615 4.15383 0
M  V30 5940 H 573.393 1.94632 4.56544 0
M  V30 5941 H 568.649 3.20605 5.20598 0
M  V30 5942 H 572.823 4.09709 5.63127 0
M  V30 5943 H 570.45 4.73255 5.94923 0
M  V30 5944 N 572.025 -1.5352 0.356285 0
M  V30 5945 C 573.302 -1.93405 -0.292223 0
M  V30 5946 C 573.682 -1.28901 -1.67176 0
M  V30 5947 O 573.03 -0.444632 -2.24132 0
M  V30 5948 C 573.24 -3.47223 -0.35175 0
M  V30 5949 C 574.588 -4.20389 -0.596534 0
M  V30 5950 O 575.612 -3.53554 -0.433344 0
M  V30 5951 O 574.471 -5.3881 -0.913589 0
M  V30 5952 H 571.565 -0.808666 -0.173172 0
M  V30 5953 H 574.111 -1.64713 0.408391 0
M  V30 5954 H 572.883 -3.86423 0.615841 0
M  V30 5955 H 572.506 -3.8212 -1.09864 0
M  V30 5956 N 573.503 -0.0852151 -1.57369 0
M  V30 5957 C 574.728 0.592872 -1.98746 0
M  V30 5958 C 575.153 1.61538 -0.963689 0
M  V30 5959 O 574.511 1.81168 0.069071 0
M  V30 5960 C 574.559 1.22599 -3.39119 0
M  V30 5961 O 573.663 2.34185 -3.39457 0
M  V30 5962 H 573.004 0.151314 -0.646529 0
M  V30 5963 H 575.534 -0.163703 -2.03944 0
M  V30 5964 H 575.544 1.56965 -3.76598 0
M  V30 5965 H 574.219 0.476831 -4.13158 0
M  V30 5966 H 572.796 2.01512 -3.13763 0
M  V30 5967 N 574.981 1.5647 0.188427 0
M  V30 5968 C 576.227 1.81281 0.909124 0
M  V30 5969 C 576.56 0.66034 1.82628 0
M  V30 5970 O 575.835 -0.338737 1.91528 0
M  V30 5971 C 576.118 3.16388 1.7196 0
M  V30 5972 C 575.971 4.42137 0.826714 0
M  V30 5973 C 577.29 3.48256 2.69083 0
M  V30 5974 H 574.409 0.659457 0.329068 0
M  V30 5975 H 577.051 1.89182 0.176156 0
M  V30 5976 H 575.201 3.09784 2.34448 0
M  V30 5977 H 576.873 4.60794 0.216025 0
M  V30 5978 H 575.116 4.33594 0.133792 0
M  V30 5979 H 575.787 5.33184 1.42893 0
M  V30 5980 H 578.263 3.55203 2.16726 0
M  V30 5981 H 577.139 4.43899 3.2287 0
M  V30 5982 H 577.4 2.72088 3.48455 0
M  V30 5983 N 576.459 -0.456382 1.50847 0
M  V30 5984 C 577.708 -1.2042 1.61808 0
M  V30 5985 C 578.021 -1.9278 0.330932 0
M  V30 5986 O 579.227 -2.69612 0.319643 0
M  V30 5987 C 577.683 -2.18891 2.85683 0
M  V30 5988 C 577.291 -1.52267 4.2133 0
M  V30 5989 C 579.035 -2.94224 3.05994 0
M  V30 5990 C 576.942 -2.4911 5.36375 0
M  V30 5991 H 575.872 -0.453177 0.602616 0
M  V30 5992 H 578.523 -0.473144 1.77295 0
M  V30 5993 H 576.905 -2.95351 2.63787 0
M  V30 5994 H 578.079 -0.814949 4.53536 0
M  V30 5995 H 576.394 -0.891594 4.06743 0
M  V30 5996 H 578.991 -3.66732 3.89117 0
M  V30 5997 H 579.334 -3.54469 2.18306 0
M  V30 5998 H 579.867 -2.24874 3.28141 0
M  V30 5999 H 576.606 -1.93582 6.26264 0
M  V30 6000 H 576.126 -3.17991 5.08569 0
M  V30 6001 H 577.805 -3.10637 5.67551 0
M  V30 6002 N 577.937 -1.40673 -0.710563 0
M  V30 6003 C 578.885 -1.41517 -1.84596 0
M  V30 6004 C 579.879 -0.295043 -1.66811 0
M  V30 6005 O 581.085 -0.466331 -1.73854 0
M  V30 6006 H 577.46 -0.442467 -0.608052 0
M  V30 6007 H 579.431 -2.37238 -1.80999 0
M  V30 6008 C 578.18 -1.29957 -3.225 0
M  V30 6009 H 577.503 -2.15429 -3.36794 0
M  V30 6010 H 578.943 -1.34608 -4.02066 0
M  V30 6011 C 577.402 -0.0103164 -3.36898 0
M  V30 6012 O 577.932 0.950707 -3.90288 0
M  V30 6013 N 576.138 0.0608409 -2.90536 0
M  V30 6014 H 575.685 -0.721943 -2.47277 0
M  V30 6015 H 575.643 0.92292 -3.00549 0
M  V30 6016 N 579.415 0.9433 -1.26252 0
M  V30 6017 C 580.662 1.68925 -1.11672 0
M  V30 6018 C 580.99 1.91499 0.340329 0
M  V30 6019 O 580.245 1.49189 1.26653 0
M  V30 6020 C 580.544 3.07073 -1.82868 0
M  V30 6021 C 580.21 3.04262 -3.32769 0
M  V30 6022 C 578.872 3.03203 -3.7366 0
M  V30 6023 C 581.224 2.96729 -4.28487 0
M  V30 6024 C 578.552 2.92373 -5.0866 0
M  V30 6025 C 580.904 2.87442 -5.63525 0
M  V30 6026 C 579.568 2.84724 -6.03729 0
M  V30 6027 H 578.838 0.618141 -0.408635 0
M  V30 6028 H 581.485 1.10124 -1.56668 0
M  V30 6029 H 579.79 3.69486 -1.30335 0
M  V30 6030 H 581.487 3.63635 -1.69029 0
M  V30 6031 H 578.077 3.05865 -3.00241 0
M  V30 6032 H 582.261 2.96658 -3.97879 0
M  V30 6033 H 577.517 2.88645 -5.38975 0
M  V30 6034 H 581.691 2.80576 -6.37377 0
M  V30 6035 H 579.318 2.76089 -7.08293 0
M  V30 6036 N 580.893 1.08022 1.14757 0
M  V30 6037 C 582.121 0.828847 1.89572 0
M  V30 6038 C 582.536 -0.618621 1.78377 0
M  V30 6039 O 581.893 -1.42482 1.1404 0
M  V30 6040 C 581.944 1.23677 3.39685 0
M  V30 6041 O 581.665 2.62746 3.50566 0
M  V30 6042 C 583.166 1.01569 4.31507 0
M  V30 6043 H 580.386 0.299196 0.600602 0
M  V30 6044 H 582.93 1.43846 1.45357 0
M  V30 6045 H 581.085 0.671347 3.81539 0
M  V30 6046 H 581.499 2.79573 4.43778 0
M  V30 6047 H 582.973 1.35055 5.35223 0
M  V30 6048 H 583.45 -0.0475433 4.39174 0
M  V30 6049 H 584.056 1.56636 3.95405 0
M  V30 6050 N 582.371 -1.3172 0.865308 0
M  V30 6051 C 583.618 -1.96876 0.473931 0
M  V30 6052 C 583.946 -1.68425 -0.972786 0
M  V30 6053 O 583.201 -0.970742 -1.69927 0
M  V30 6054 C 583.5 -3.5102 0.672283 0
M  V30 6055 C 583.166 -3.9948 2.09108 0
M  V30 6056 C 581.828 -4.12425 2.4791 0
M  V30 6057 C 584.18 -4.2503 3.0166 0
M  V30 6058 C 581.508 -4.48267 3.78515 0
M  V30 6059 C 583.86 -4.62335 4.31774 0
M  V30 6060 C 582.524 -4.73486 4.70497 0
M  V30 6061 H 581.794 -0.72042 0.173424 0
M  V30 6062 H 584.441 -1.56937 1.0974 0
M  V30 6063 H 582.746 -3.91785 -0.034356 0
M  V30 6064 H 584.443 -3.99475 0.349353 0
M  V30 6065 H 581.033 -3.89898 1.77981 0
M  V30 6066 H 585.217 -4.14529 2.7291 0
M  V30 6067 H 580.473 -4.55097 4.08285 0
M  V30 6068 H 584.647 -4.81058 5.03543 0
M  V30 6069 H 582.274 -5.01016 5.71741 0
M  V30 6070 N 583.85 -0.624285 -1.44708 0
M  V30 6071 C 584.782 0.12305 -2.28869 0
M  V30 6072 C 585.795 0.81557 -1.40898 0
M  V30 6073 O 586.984 0.678162 -1.65116 0
M  V30 6074 C 584.084 1.19612 -3.1709 0
M  V30 6075 C 583.257 0.587452 -4.33437 0
M  V30 6076 C 582.316 1.55358 -5.02743 0
M  V30 6077 O 581.341 1.07338 -5.58988 0
M  V30 6078 N 582.543 2.88798 -5.03563 0
M  V30 6079 H 585.308 -0.599193 -2.93649 0
M  V30 6080 H 582.87 -0.464954 -1.5508 0
M  V30 6081 H 584.861 1.84261 -3.60319 0
M  V30 6082 H 583.432 1.82067 -2.54107 0
M  V30 6083 H 582.652 -0.237509 -3.93484 0
M  V30 6084 H 583.94 0.161326 -5.08544 0
M  V30 6085 H 583.338 3.30399 -4.59188 0
M  V30 6086 H 581.894 3.48826 -5.50603 0
M  V30 6087 N 585.328 1.53329 -0.364422 0
M  V30 6088 C 586.576 2.00842 0.225189 0
M  V30 6089 C 586.897 1.25345 1.49378 0
M  V30 6090 O 586.167 0.366396 1.92443 0
M  V30 6091 H 584.747 0.742009 0.0862027 0
M  V30 6092 H 587.409 1.8863 -0.490389 0
M  V30 6093 H 586.505 3.08795 0.452987 0
M  V30 6094 N 586.806 0.0935595 1.57322 0
M  V30 6095 C 587.716 -0.880192 2.17462 0
M  V30 6096 C 588.732 -1.31135 1.14366 0
M  V30 6097 O 589.908 -1.37958 1.46729 0
M  V30 6098 C 586.973 -2.12184 2.74188 0
M  V30 6099 C 586.034 -1.74503 3.92234 0
M  V30 6100 C 585.267 -2.92748 4.46245 0
M  V30 6101 O 585.49 -4.07427 3.99198 0
M  V30 6102 O 584.424 -2.71303 5.37288 0
M  V30 6103 H 588.25 -0.398516 3.01074 0
M  V30 6104 H 585.835 -0.130707 1.48827 0
M  V30 6105 H 587.717 -2.84953 3.10451 0
M  V30 6106 H 586.392 -2.59407 1.93623 0
M  V30 6107 H 585.299 -0.989186 3.60785 0
M  V30 6108 H 586.632 -1.32044 4.74157 0
M  V30 6109 N 588.284 -1.56567 -0.180126 0
M  V30 6110 C 589.234 -1.92132 -1.22756 0
M  V30 6111 C 590.218 -0.788639 -1.40247 0
M  V30 6112 O 591.41 -1.05171 -1.42366 0
M  V30 6113 C 588.539 -2.27719 -2.56902 0
M  V30 6114 C 587.625 -3.47481 -2.43142 0
M  V30 6115 N 588.016 -4.64973 -1.99082 0
M  V30 6116 C 586.314 -3.51914 -2.73994 0
M  V30 6117 C 587.015 -5.47119 -1.97574 0
M  V30 6118 N 585.991 -4.87925 -2.39645 0
M  V30 6119 H 589.793 -2.80464 -0.878478 0
M  V30 6120 H 587.307 -1.57686 -0.388463 0
M  V30 6121 H 589.304 -2.51389 -3.32579 0
M  V30 6122 H 587.964 -1.40722 -2.92621 0
M  V30 6123 H 588.975 -4.89358 -1.69557 0
M  V30 6124 H 585.652 -2.75372 -3.13809 0
M  V30 6125 H 587.042 -6.51254 -1.65282 0
M  V30 6126 N 589.762 0.448376 -1.51087 0
M  V30 6127 C 591.01 1.19635 -1.62886 0
M  V30 6128 C 591.331 1.91977 -0.342024 0
M  V30 6129 O 590.601 1.85094 0.641636 0
M  V30 6130 H 589.181 0.444598 -0.600285 0
M  V30 6131 H 591.843 0.515138 -1.87969 0
M  V30 6132 H 590.939 1.93194 -2.45117 0
M  V30 6133 N 591.24 1.41047 0.703093 0
M  V30 6134 C 592.188 1.42494 1.83843 0
M  V30 6135 C 593.182 0.303885 1.66652 0
M  V30 6136 O 594.388 0.475544 1.73605 0
M  V30 6137 H 590.763 0.445685 0.605697 0
M  V30 6138 H 592.734 2.38194 1.79739 0
M  V30 6139 C 591.483 1.31666 3.21807 0
M  V30 6140 H 590.806 2.17212 3.35647 0
M  V30 6141 H 592.246 1.36738 4.01346 0
M  V30 6142 C 590.705 0.0281828 3.36888 0
M  V30 6143 O 591.235 -0.929995 3.90786 0
M  V30 6144 N 589.441 -0.0454322 2.90564 0
M  V30 6145 H 588.988 0.735046 2.4689 0
M  V30 6146 H 588.946 -0.906968 3.01034 0
M  V30 6147 N 592.718 -0.936591 1.26751 0
M  V30 6148 C 593.966 -1.67998 1.12343 0
M  V30 6149 C 594.287 -1.92137 -0.332938 0
M  V30 6150 O 593.557 -1.52132 -1.23421 0
M  V30 6151 H 592.137 -0.622609 0.412756 0
M  V30 6152 H 594.799 -1.12509 1.59147 0
M  V30 6153 H 593.895 -2.65185 1.64571 0
M  V30 6154 N 594.196 -1.08629 -1.14182 0
M  V30 6155 C 595.607 -0.838003 -1.66836 0
M  V30 6156 C 595.958 0.634885 -1.85644 0
M  V30 6157 O 595.083 1.49008 -1.56926 0
M  V30 6158 C 595.678 -1.51465 -3.03058 0
M  V30 6159 C 594.237 -1.31355 -3.52736 0
M  V30 6160 C 593.384 -1.57599 -2.28162 0
M  V30 6161 H 596.335 -1.24656 -0.982165 0
M  V30 6162 H 596.356 -0.943134 -3.68626 0
M  V30 6163 H 595.868 -2.58661 -2.89337 0
M  V30 6164 H 593.969 -0.262384 -3.71675 0
M  V30 6165 H 594.082 -2.04275 -4.33369 0
M  V30 6166 H 592.446 -0.997659 -2.34348 0
M  V30 6167 H 593.229 -2.66006 -2.17015 0
M  V30 6168 N 595.674 1.31259 -0.872281 0
M  V30 6169 C 596.637 2.26744 -0.334656 0
M  V30 6170 C 597.637 1.52307 0.515681 0
M  V30 6171 O 598.827 1.71148 0.324656 0
M  V30 6172 C 595.959 3.36841 0.524482 0
M  V30 6173 H 597.152 2.75812 -1.17762 0
M  V30 6174 H 594.705 1.42232 -0.648064 0
M  V30 6175 H 595.44 2.93069 1.38855 0
M  V30 6176 H 595.225 3.92009 -0.0844299 0
M  V30 6177 H 596.715 4.07944 0.892838 0
M  V30 6178 N 597.152 0.631951 1.44375 0
M  V30 6179 C 598.382 0.143658 2.061 0
M  V30 6180 C 598.79 -1.18733 1.47306 0
M  V30 6181 O 598.133 -1.73943 0.590724 0
M  V30 6182 C 598.195 -0.0446102 3.59472 0
M  V30 6183 C 597.859 1.20835 4.40736 0
M  V30 6184 C 598.856 2.13224 4.74164 0
M  V30 6185 C 596.541 1.44399 4.81097 0
M  V30 6186 C 598.535 3.27487 5.46838 0
M  V30 6187 C 596.222 2.58959 5.53519 0
M  V30 6188 C 597.22 3.50329 5.86309 0
M  V30 6189 O 596.908 4.62891 6.57257 0
M  V30 6190 H 596.64 0.0772939 0.671567 0
M  V30 6191 H 599.194 0.866677 1.8622 0
M  V30 6192 H 597.424 -0.822783 3.77845 0
M  V30 6193 H 599.113 -0.487561 4.02961 0
M  V30 6194 H 599.879 1.96253 4.4352 0
M  V30 6195 H 595.758 0.741696 4.54994 0
M  V30 6196 H 599.302 3.98826 5.72349 0
M  V30 6197 H 595.199 2.75873 5.83579 0
M  V30 6198 H 595.967 4.61883 6.75726 0
M  V30 6199 N 598.631 -1.53133 0.372548 0
M  V30 6200 C 600.047 -1.59585 0.02178 0
M  V30 6201 C 600.247 -1.38736 -1.46132 0
M  V30 6202 O 599.303 -1.19599 -2.22379 0
M  V30 6203 C 600.616 -2.9678 0.483959 0
M  V30 6204 C 602.164 -3.09909 0.438775 0
M  V30 6205 C 602.639 -4.49527 0.876876 0
M  V30 6206 N 604.13 -4.55663 0.832214 0
M  V30 6207 C 604.865 -5.61896 1.14281 0
M  V30 6208 N 604.361 -6.75852 1.52303 0
M  V30 6209 N 606.154 -5.51916 1.06515 0
M  V30 6210 H 598.305 -1.64936 1.33827 0
M  V30 6211 H 600.568 -0.773947 0.547458 0
M  V30 6212 H 600.274 -3.17198 1.51915 0
M  V30 6213 H 600.148 -3.7699 -0.125784 0
M  V30 6214 H 602.535 -2.89197 -0.587294 0
M  V30 6215 H 602.616 -2.31691 1.0841 0
M  V30 6216 H 602.26 -4.70979 1.90109 0
M  V30 6217 H 602.19 -5.26186 0.208727 0
M  V30 6218 H 604.681 -3.73844 0.552195 0
M  V30 6219 H 604.994 -7.52862 1.7441 0
M  V30 6220 H 603.339 -6.77226 1.56175 0
M  V30 6221 H 606.53 -4.6177 0.767235 0
M  V30 6222 H 606.703 -6.34609 1.31053 0
M  V30 6223 N 600.109 -0.101901 -1.5727 0
M  V30 6224 C 601.039 0.851544 -2.17419 0
M  V30 6225 C 602.02 1.28942 -1.10941 0
M  V30 6226 O 603.205 1.35509 -1.39107 0
M  V30 6227 C 600.335 2.10816 -2.75996 0
M  V30 6228 C 599.289 1.80867 -3.87906 0
M  V30 6229 C 598.615 3.13413 -4.33216 0
M  V30 6230 C 599.915 1.0903 -5.10793 0
M  V30 6231 H 601.609 0.350381 -2.97343 0
M  V30 6232 H 599.155 0.16709 -1.43027 0
M  V30 6233 H 601.108 2.77959 -3.16729 0
M  V30 6234 H 599.832 2.63227 -1.93337 0
M  V30 6235 H 598.491 1.16119 -3.47724 0
M  V30 6236 H 598.139 3.63725 -3.47438 0
M  V30 6237 H 597.839 2.94155 -5.08671 0
M  V30 6238 H 599.363 3.81704 -4.76586 0
M  V30 6239 H 600.777 1.66295 -5.48652 0
M  V30 6240 H 599.174 0.99927 -5.91722 0
M  V30 6241 H 600.244 0.0741704 -4.84843 0
M  V30 6242 N 601.587 1.56661 0.17182 0
M  V30 6243 C 602.864 1.72838 0.915778 0
M  V30 6244 C 603.244 0.66316 2.00413 0
M  V30 6245 O 602.592 -0.322123 2.26218 0
M  V30 6246 C 602.802 3.16019 1.48097 0
M  V30 6247 C 604.15 3.76962 1.95408 0
M  V30 6248 O 605.174 3.19294 1.57892 0
M  V30 6249 O 604.033 4.78219 2.64516 0
M  V30 6250 H 601.127 0.705797 0.431021 0
M  V30 6251 H 603.673 1.68947 0.159689 0
M  V30 6252 H 602.445 3.85031 0.697618 0
M  V30 6253 H 602.068 3.24234 2.30126 0
M  V30 6254 N 603.065 -0.440357 1.51323 0
M  V30 6255 C 604.293 -1.21255 1.67645 0
M  V30 6256 C 604.708 -1.85088 0.37252 0
M  V30 6257 O 604.065 -1.70582 -0.648683 0
M  V30 6258 C 604.116 -2.29881 2.78993 0
M  V30 6259 O 603.837 -1.68659 4.04334 0
M  V30 6260 C 605.338 -3.20214 3.06558 0
M  V30 6261 H 602.558 -0.36558 0.562666 0
M  V30 6262 H 605.102 -0.52214 1.97722 0
M  V30 6263 H 603.257 -2.94643 2.51524 0
M  V30 6264 H 603.671 -2.40426 4.6615 0
M  V30 6265 H 605.145 -3.92575 3.88058 0
M  V30 6266 H 605.622 -3.80794 2.18844 0
M  V30 6267 H 606.228 -2.61156 3.35675 0
M  V30 6268 N 604.543 -1.41418 -0.695603 0
M  V30 6269 C 605.476 -1.3768 -1.81988 0
M  V30 6270 C 606.454 -0.244061 -1.60758 0
M  V30 6271 O 607.638 -0.430965 -1.83507 0
M  V30 6272 C 604.765 -1.1476 -3.18666 0
M  V30 6273 C 603.811 -2.30752 -3.58686 0
M  V30 6274 S 604.644 -3.9323 -3.63498 0
M  V30 6275 C 605.8 -3.72613 -5.02902 0
M  V30 6276 H 606.033 -2.32822 -1.84882 0
M  V30 6277 H 603.566 -1.27942 -0.86431 0
M  V30 6278 H 605.524 -1.02223 -3.97569 0
M  V30 6279 H 604.185 -0.212385 -3.13381 0
M  V30 6280 H 603.378 -2.10409 -4.57978 0
M  V30 6281 H 602.98 -2.39696 -2.87092 0
M  V30 6282 H 605.272 -3.32317 -5.904 0
M  V30 6283 H 606.215 -4.71507 -5.28286 0
M  V30 6284 H 606.623 -3.0589 -4.74438 0
M  V30 6285 N 606.021 0.929856 -1.27246 0
M  V30 6286 C 606.931 2.0636 -1.11592 0
M  V30 6287 C 607.947 1.73938 -0.046496 0
M  V30 6288 O 609.123 1.9981 -0.252544 0
M  V30 6289 C 606.188 3.38213 -0.762437 0
M  V30 6290 C 605.249 3.84346 -1.9125 0
M  V30 6291 C 604.482 5.09906 -1.57579 0
M  V30 6292 O 604.705 5.68354 -0.482694 0
M  V30 6293 O 603.639 5.51359 -2.41426 0
M  V30 6294 H 607.465 2.22478 -2.0673 0
M  V30 6295 H 605.05 1.04865 -1.06413 0
M  V30 6296 H 606.932 4.1741 -0.57854 0
M  V30 6297 H 605.607 3.23307 0.159439 0
M  V30 6298 H 604.514 3.06045 -2.15144 0
M  V30 6299 H 605.847 4.0379 -2.81451 0
M  V30 6300 N 607.499 1.09233 1.13605 0
M  V30 6301 C 608.724 0.849067 1.89224 0
M  V30 6302 C 609.149 -0.593875 1.78479 0
M  V30 6303 O 608.507 -1.41703 1.13092 0
M  V30 6304 C 608.555 1.28642 3.36873 0
M  V30 6305 O 607.659 0.44363 4.10007 0
M  V30 6306 H 607 0.30767 0.588417 0
M  V30 6307 H 609.53 1.45595 1.43748 0
M  V30 6308 H 609.54 1.27096 3.87699 0
M  V30 6309 H 608.215 2.33729 3.44011 0
M  V30 6310 H 606.792 0.523241 3.69211 0
M  V30 6311 N 608.977 -1.30795 0.87923 0
M  V30 6312 C 610.205 -2.00527 0.509548 0
M  V30 6313 C 610.62 -1.65944 -0.90045 0
M  V30 6314 O 609.977 -0.893525 -1.5913 0
M  V30 6315 C 610.028 -3.55276 0.667943 0
M  V30 6316 O 609.749 -3.88625 2.02242 0
M  V30 6317 C 611.25 -4.4228 0.300494 0
M  V30 6318 H 608.47 -0.641261 0.197549 0
M  V30 6319 H 611.014 -1.66813 1.18295 0
M  V30 6320 H 609.169 -3.87377 0.0419843 0
M  V30 6321 H 609.583 -4.83334 2.03688 0
M  V30 6322 H 611.057 -5.50061 0.462242 0
M  V30 6323 H 611.534 -4.32556 -0.76106 0
M  V30 6324 H 612.14 -4.15613 0.902536 0
M  V30 6325 N 610.455 -0.639598 -1.44038 0
M  V30 6326 C 611.702 -0.14748 -2.01962 0
M  V30 6327 C 612.03 1.23372 -1.50365 0
M  V30 6328 O 611.285 1.8345 -0.681501 0
M  V30 6329 C 611.584 -0.0925348 -3.5728 0
M  V30 6330 C 611.25 -1.41365 -4.28167 0
M  V30 6331 C 609.912 -1.77545 -4.47248 0
M  V30 6332 C 612.264 -2.2853 -4.68427 0
M  V30 6333 C 609.592 -3.00583 -5.03852 0
M  V30 6334 C 611.944 -3.50846 -5.26393 0
M  V30 6335 C 610.608 -3.8724 -5.43692 0
M  V30 6336 H 609.878 -0.0539666 -0.739032 0
M  V30 6337 H 612.525 -0.827599 -1.72694 0
M  V30 6338 H 610.83 0.670987 -3.86012 0
M  V30 6339 H 612.527 0.304891 -3.99839 0
M  V30 6340 H 609.117 -1.1221 -4.13651 0
M  V30 6341 H 613.301 -2.0187 -4.5339 0
M  V30 6342 H 608.557 -3.28846 -5.15432 0
M  V30 6343 H 612.731 -4.18616 -5.56537 0
M  V30 6344 H 610.358 -4.8266 -5.87319 0
M  V30 6345 N 611.933 1.52934 -0.380664 0
M  V30 6346 C 613.158 2.06363 0.207157 0
M  V30 6347 C 613.583 1.25122 1.4045 0
M  V30 6348 O 612.941 0.274062 1.79217 0
M  V30 6349 C 612.989 3.56162 0.563996 0
M  V30 6350 O 612.093 3.77552 1.65917 0
M  V30 6351 H 611.434 0.663468 0.0265859 0
M  V30 6352 H 613.964 1.9719 -0.545635 0
M  V30 6353 H 613.974 3.99453 0.830752 0
M  V30 6354 H 612.649 4.14732 -0.311427 0
M  V30 6355 H 611.226 3.46154 1.3868 0
M  V30 6356 N 613.412 0.11024 1.57214 0
M  V30 6357 C 614.828 -0.24638 1.57687 0
M  V30 6358 C 615.028 -1.67344 1.12241 0
M  V30 6359 O 614.084 -2.39298 0.805783 0
M  V30 6360 C 615.397 -0.0210288 3.00693 0
M  V30 6361 C 616.945 -0.0876077 3.12877 0
M  V30 6362 C 617.42 0.10994 4.57868 0
M  V30 6363 N 618.911 0.0556135 4.63167 0
M  V30 6364 C 619.646 0.183495 5.73106 0
M  V30 6365 N 619.142 0.367058 6.91827 0
M  V30 6366 N 620.935 0.123689 5.61964 0
M  V30 6367 H 613.086 1.04246 1.85058 0
M  V30 6368 H 615.349 0.40979 0.854854 0
M  V30 6369 H 615.055 0.965203 3.38196 0
M  V30 6370 H 614.929 -0.756748 3.69531 0
M  V30 6371 H 617.316 -1.06436 2.75237 0
M  V30 6372 H 617.397 0.67985 2.466 0
M  V30 6373 H 617.041 1.08362 4.96206 0
M  V30 6374 H 616.971 -0.677397 5.22225 0
M  V30 6375 H 619.462 -0.0831062 3.77809 0
M  V30 6376 H 619.775 0.455739 7.71455 0
M  V30 6377 H 618.12 0.40292 6.93831 0
M  V30 6378 H 621.311 -0.0186928 4.68096 0
M  V30 6379 H 621.484 0.226797 6.47603 0
M  V30 6380 N 614.89 -1.56749 -0.16351 0
M  V30 6381 C 616.12 -1.86307 -0.892936 0
M  V30 6382 C 616.528 -0.6945 -1.75992 0
M  V30 6383 O 615.871 0.345384 -1.80424 0
M  V30 6384 C 615.933 -3.10372 -1.81409 0
M  V30 6385 C 615.597 -4.42913 -1.12593 0
M  V30 6386 C 616.594 -5.17608 -0.487661 0
M  V30 6387 C 614.279 -4.89646 -1.12035 0
M  V30 6388 C 616.273 -6.3723 0.14699 0
M  V30 6389 C 613.96 -6.09197 -0.481883 0
M  V30 6390 C 614.958 -6.82834 0.150678 0
M  V30 6391 O 614.646 -8.00116 0.779065 0
M  V30 6392 H 614.378 -0.622126 -0.264452 0
M  V30 6393 H 616.932 -2.04728 -0.166063 0
M  V30 6394 H 615.162 -2.87917 -2.58148 0
M  V30 6395 H 616.851 -3.26312 -2.41403 0
M  V30 6396 H 617.617 -4.8258 -0.483888 0
M  V30 6397 H 613.496 -4.32265 -1.60212 0
M  V30 6398 H 617.04 -6.94646 0.641325 0
M  V30 6399 H 612.937 -6.43688 -0.483266 0
M  V30 6400 H 613.705 -8.15678 0.679089 0
M  V30 6401 N 616.368 0.432326 -1.51554 0
M  V30 6402 C 617.331 1.50765 -1.72634 0
M  V30 6403 C 618.331 1.49334 -0.596314 0
M  V30 6404 O 619.521 1.51268 -0.863925 0
M  V30 6405 C 616.653 2.90284 -1.7874 0
M  V30 6406 H 617.846 1.33377 -2.68609 0
M  V30 6407 H 615.399 0.661329 -1.4162 0
M  V30 6408 H 616.134 3.13071 -0.845977 0
M  V30 6409 H 615.919 2.92727 -2.6087 0
M  V30 6410 H 617.409 3.68282 -1.96871 0
M  V30 6411 N 617.846 1.41785 0.688094 0
M  V30 6412 C 618.794 1.44436 1.82321 0
M  V30 6413 C 619.788 0.321544 1.6632 0
M  V30 6414 O 620.994 0.493931 1.73091 0
M  V30 6415 H 617.369 0.452084 0.600936 0
M  V30 6416 H 619.34 2.40087 1.77202 0
M  V30 6417 C 618.089 1.35071 3.20392 0
M  V30 6418 H 617.412 2.2076 3.33324 0
M  V30 6419 H 618.852 1.40988 3.99873 0
M  V30 6420 C 617.311 0.0639127 3.36839 0
M  V30 6421 O 617.841 -0.888495 3.91751 0
M  V30 6422 N 616.047 -0.0146114 2.90596 0
M  V30 6423 H 615.594 0.761191 2.46097 0
M  V30 6424 H 615.552 -0.874988 3.01979 0
M  V30 6425 N 619.324 -0.923095 1.27737 0
M  V30 6426 C 620.287 -2.00587 1.10894 0
M  V30 6427 C 621.287 -1.60718 0.0514927 0
M  V30 6428 O 622.477 -1.71658 0.296481 0
M  V30 6429 C 619.609 -3.33829 0.690717 0
M  V30 6430 H 620.802 -2.16959 2.07048 0
M  V30 6431 H 618.355 -1.10451 1.1059 0
M  V30 6432 H 619.09 -3.23157 -0.272 0
M  V30 6433 H 618.875 -3.64125 1.45448 0
M  V30 6434 H 620.365 -4.13336 0.595252 0
M  V30 6435 N 620.802 -1.09834 -1.13024 0
M  V30 6436 C 622.051 -0.831806 -1.83749 0
M  V30 6437 C 622.364 0.644763 -1.84668 0
M  V30 6438 O 623.57 1.02697 -2.51327 0
M  V30 6439 C 622.026 -1.43817 -3.29916 0
M  V30 6440 C 621.634 -2.94759 -3.37374 0
M  V30 6441 C 623.378 -1.25077 -4.05655 0
M  V30 6442 C 621.285 -3.48461 -4.77838 0
M  V30 6443 H 620.215 -0.30751 -0.688443 0
M  V30 6444 H 622.866 -1.32156 -1.27307 0
M  V30 6445 H 621.248 -0.876106 -3.86187 0
M  V30 6446 H 622.422 -3.57228 -2.91076 0
M  V30 6447 H 620.737 -3.12581 -2.75103 0
M  V30 6448 H 623.334 -1.62649 -5.09362 0
M  V30 6449 H 623.677 -0.191782 -4.15858 0
M  V30 6450 H 624.21 -1.78057 -3.55725 0
M  V30 6451 H 620.949 -4.53998 -4.72828 0
M  V30 6452 H 620.469 -2.90757 -5.24615 0
M  V30 6453 H 622.148 -3.45914 -5.46766 0
M  V30 6454 N 622.28 1.30327 -0.886154 0
M  V30 6455 C 623.228 2.30052 -0.343317 0
M  V30 6456 C 624.222 1.60212 0.550305 0
M  V30 6457 O 625.428 1.74674 0.434609 0
M  V30 6458 H 621.803 0.746306 -0.0923681 0
M  V30 6459 H 623.774 2.73294 -1.19804 0
M  V30 6460 C 622.523 3.45079 0.426107 0
M  V30 6461 H 621.846 3.99003 -0.25227 0
M  V30 6462 H 623.286 4.16931 0.771009 0
M  V30 6463 C 621.745 2.95195 1.62363 0
M  V30 6464 O 622.275 2.95323 2.723 0
M  V30 6465 N 620.481 2.51192 1.4612 0
M  V30 6466 H 620.028 2.51286 0.566832 0
M  V30 6467 H 619.986 2.18173 2.2638 0
M  V30 6468 N 623.758 0.647228 1.43697 0
M  V30 6469 C 624.986 0.16575 2.06235 0
M  V30 6470 C 625.401 -1.1662 1.48476 0
M  V30 6471 O 624.758 -1.7187 0.613762 0
M  V30 6472 C 624.809 0.0621651 3.61447 0
M  V30 6473 O 624.53 1.34146 4.17057 0
M  V30 6474 C 626.031 -0.446102 4.4105 0
M  V30 6475 H 623.251 0.0871158 0.665321 0
M  V30 6476 H 625.795 0.886183 1.84301 0
M  V30 6477 H 623.95 -0.608794 3.82587 0
M  V30 6478 H 624.364 1.19675 5.10664 0
M  V30 6479 H 625.838 -0.46755 5.50016 0
M  V30 6480 H 626.315 -1.47627 4.13646 0
M  V30 6481 H 626.921 0.192159 4.24866 0
M  V30 6482 N 625.236 -1.5273 0.388769 0
M  V30 6483 C 626.513 -1.93981 -0.251133 0
M  V30 6484 C 626.893 -1.32418 -1.64404 0
M  V30 6485 O 626.241 -0.492074 -2.23139 0
M  V30 6486 C 626.451 -3.47891 -0.27802 0
M  V30 6487 C 627.799 -4.21559 -0.507229 0
M  V30 6488 O 628.823 -3.54394 -0.358252 0
M  V30 6489 O 627.682 -5.40626 -0.799094 0
M  V30 6490 H 624.776 -0.812157 -0.15598 0
M  V30 6491 H 627.322 -1.63809 0.443237 0
M  V30 6492 H 626.094 -3.8503 0.697669 0
M  V30 6493 H 625.717 -3.84364 -1.01733 0
M  V30 6494 N 626.714 -0.118576 -1.57153 0
M  V30 6495 C 627.939 0.550582 -1.99958 0
M  V30 6496 C 628.364 1.59458 -0.997736 0
M  V30 6497 O 627.722 1.81274 0.0306269 0
M  V30 6498 C 627.77 1.15379 -3.41643 0
M  V30 6499 O 626.874 2.26932 -3.44348 0
M  V30 6500 H 626.215 0.137567 -0.649593 0
M  V30 6501 H 628.745 -0.206926 -2.03551 0
M  V30 6502 H 628.755 1.48942 -3.79843 0
M  V30 6503 H 627.43 0.389087 -4.14076 0
M  V30 6504 H 626.007 1.94812 -3.17967 0
M  V30 6505 N 628.193 1.56834 0.155195 0
M  V30 6506 C 629.421 1.87049 0.884326 0
M  V30 6507 C 629.836 0.705839 1.7511 0
M  V30 6508 O 629.193 -0.324641 1.79589 0
M  V30 6509 C 629.244 3.1644 1.74781 0
M  V30 6510 O 628.965 4.28417 0.915978 0
M  V30 6511 C 630.466 3.60113 2.58522 0
M  V30 6512 H 627.686 0.620196 0.25612 0
M  V30 6513 H 630.23 2.03946 0.150445 0
M  V30 6514 H 628.385 3.01321 2.43484 0
M  V30 6515 H 628.799 5.02353 1.50803 0
M  V30 6516 H 630.273 4.53508 3.14698 0
M  V30 6517 H 630.75 2.85005 3.34169 0
M  V30 6518 H 631.356 3.77898 1.95124 0
M  V30 6519 N 629.671 -0.424282 1.51781 0
M  V30 6520 C 630.918 -1.1726 1.65095 0
M  V30 6521 C 631.246 -1.90881 0.373477 0
M  V30 6522 O 630.501 -1.84835 -0.642997 0
M  V30 6523 C 630.8 -2.20418 2.81337 0
M  V30 6524 C 630.466 -1.63715 4.20129 0
M  V30 6525 C 629.128 -1.47975 4.57883 0
M  V30 6526 C 631.48 -1.22157 5.06682 0
M  V30 6527 C 628.808 -0.891703 5.79884 0
M  V30 6528 C 631.16 -0.647767 6.29275 0
M  V30 6529 C 629.824 -0.477371 6.65791 0
M  V30 6530 H 629.094 -0.429085 0.604125 0
M  V30 6531 H 631.741 -0.461852 1.85847 0
M  V30 6532 H 630.046 -2.97581 2.54859 0
M  V30 6533 H 631.743 -2.78163 2.88836 0
M  V30 6534 H 628.333 -1.76946 3.90369 0
M  V30 6535 H 632.517 -1.33133 4.7811 0
M  V30 6536 H 627.773 -0.747563 6.06813 0
M  V30 6537 H 631.947 -0.317291 6.95677 0
M  V30 6538 H 629.574 -0.0195936 7.60197 0
M  V30 6539 N 631.149 -1.42148 -0.680565 0
M  V30 6540 C 632.097 -1.45401 -1.81552 0
M  V30 6541 C 633.091 -0.33036 -1.66147 0
M  V30 6542 O 634.297 -0.503103 -1.72826 0
M  V30 6543 H 630.672 -0.455265 -0.59853 0
M  V30 6544 H 632.643 -2.41024 -1.75926 0
M  V30 6545 C 631.392 -1.36769 -3.19671 0
M  V30 6546 H 630.715 -2.22525 -3.32149 0
M  V30 6547 H 632.155 -1.43106 -3.9912 0
M  V30 6548 C 630.614 -0.0817752 -3.36801 0
M  V30 6549 O 631.144 0.867707 -3.92216 0
M  V30 6550 N 629.35 -0.000799811 -2.906 0
M  V30 6551 H 628.897 -0.774231 -2.4569 0
M  V30 6552 H 628.855 0.858961 -3.02439 0
M  V30 6553 N 632.627 0.916307 -1.28225 0
M  V30 6554 C 633.873 1.66765 -1.154 0
M  V30 6555 C 634.206 1.91912 0.297251 0
M  V30 6556 O 633.481 1.51766 1.21644 0
M  V30 6557 C 633.764 3.02715 -1.95028 0
M  V30 6558 C 633.617 2.84738 -3.48201 0
M  V30 6559 C 634.936 4.03215 -1.76369 0
M  V30 6560 H 632.055 0.605205 -0.42059 0
M  V30 6561 H 634.697 1.06255 -1.57512 0
M  V30 6562 H 632.847 3.54365 -1.59242 0
M  V30 6563 H 634.519 2.40118 -3.9388 0
M  V30 6564 H 632.762 2.19848 -3.73964 0
M  V30 6565 H 633.433 3.8127 -3.99171 0
M  V30 6566 H 635.909 3.60617 -2.07593 0
M  V30 6567 H 634.785 4.96306 -2.34459 0
M  V30 6568 H 635.046 4.36288 -0.71452 0
M  V30 6569 N 634.105 1.10431 1.1244 0
M  V30 6570 C 635.035 0.775143 2.20258 0
M  V30 6571 C 636.016 -0.25186 1.68225 0
M  V30 6572 O 637.201 -0.117637 1.93843 0
M  V30 6573 C 634.331 0.206133 3.46688 0
M  V30 6574 C 633.285 1.16382 4.11873 0
M  V30 6575 C 632.611 0.456014 5.32752 0
M  V30 6576 C 633.911 2.5104 4.58013 0
M  V30 6577 H 635.605 1.67665 2.4805 0
M  V30 6578 H 633.151 0.807595 1.19222 0
M  V30 6579 H 635.104 -0.036291 4.21384 0
M  V30 6580 H 633.828 -0.730614 3.18323 0
M  V30 6581 H 632.487 1.39169 3.39157 0
M  V30 6582 H 632.135 -0.485203 5.00654 0
M  V30 6583 H 631.835 1.09466 5.77314 0
M  V30 6584 H 633.359 0.222135 6.10196 0
M  V30 6585 H 634.773 2.32401 5.24083 0
M  V30 6586 H 633.17 3.10789 5.13352 0
M  V30 6587 H 634.24 3.11039 3.71998 0
M  V30 6588 N 635.583 -1.29855 0.893053 0
M  V30 6589 C 636.808 -2.00512 0.530066 0
M  V30 6590 C 637.233 -1.66446 -0.876199 0
M  V30 6591 O 636.591 -0.885446 -1.58207 0
M  V30 6592 C 636.639 -3.53308 0.721505 0
M  V30 6593 O 635.743 -4.11764 -0.228994 0
M  V30 6594 H 635.084 -0.630617 0.207891 0
M  V30 6595 H 637.614 -1.6551 1.20282 0
M  V30 6596 H 637.624 -4.03206 0.623599 0
M  V30 6597 H 636.299 -3.77439 1.74678 0
M  V30 6598 H 634.876 -3.72805 -0.0841034 0
M  V30 6599 N 637.061 -0.65484 -1.43351 0
M  V30 6600 C 638.291 -0.176429 -2.05845 0
M  V30 6601 C 638.699 1.16375 -1.49176 0
M  V30 6602 O 638.042 1.72981 -0.618322 0
M  V30 6603 C 638.104 -0.0125844 -3.59498 0
M  V30 6604 C 637.768 -1.27831 -4.38758 0
M  V30 6605 C 638.765 -2.2074 -4.70712 0
M  V30 6606 C 636.45 -1.52035 -4.78739 0
M  V30 6607 C 638.444 -3.36145 -5.41558 0
M  V30 6608 C 636.131 -2.67732 -5.49329 0
M  V30 6609 C 637.129 -3.59612 -5.80662 0
M  V30 6610 O 636.817 -4.73289 -6.4981 0
M  V30 6611 H 636.549 -0.0879682 -0.670252 0
M  V30 6612 H 639.103 -0.896193 -1.84818 0
M  V30 6613 H 637.333 0.762567 -3.79107 0
M  V30 6614 H 639.022 0.423392 -4.03686 0
M  V30 6615 H 639.788 -2.03284 -4.40341 0
M  V30 6616 H 635.667 -0.813987 -4.53757 0
M  V30 6617 H 639.211 -4.07881 -5.65932 0
M  V30 6618 H 635.108 -2.85122 -5.79116 0
M  V30 6619 H 635.876 -4.72575 -6.68293 0
M  V30 6620 N 638.539 1.52521 -0.396863 0
M  V30 6621 C 639.469 2.29582 0.425941 0
M  V30 6622 C 640.45 1.33281 1.05689 0
M  V30 6623 O 641.635 1.62181 1.06823 0
M  V30 6624 C 638.765 3.10821 1.54943 0
M  V30 6625 C 637.719 4.15069 1.04413 0
M  V30 6626 C 637.045 4.84578 2.26028 0
M  V30 6627 C 638.345 5.22191 0.106767 0
M  V30 6628 H 640.039 2.98612 -0.217045 0
M  V30 6629 H 637.585 1.43611 -0.105826 0
M  V30 6630 H 639.538 3.63492 2.13193 0
M  V30 6631 H 638.262 2.39538 2.22011 0
M  V30 6632 H 636.921 3.63389 0.484118 0
M  V30 6633 H 636.569 4.09835 2.91623 0
M  V30 6634 H 636.269 5.55043 1.92876 0
M  V30 6635 H 637.793 5.40056 2.84906 0
M  V30 6636 H 639.207 5.70176 0.597685 0
M  V30 6637 H 637.604 5.99947 -0.135352 0
M  V30 6638 H 638.674 4.77531 -0.842134 0
M  V30 6639 N 640.017 0.126909 1.57088 0
M  V30 6640 C 641.242 -0.53997 2.00248 0
M  V30 6641 C 641.667 -1.58927 1.00618 0
M  V30 6642 O 641.025 -1.81288 -0.0210131 0
M  V30 6643 C 641.073 -1.13565 3.4225 0
M  V30 6644 O 640.177 -2.25103 3.45547 0
M  V30 6645 H 639.518 -0.13412 0.650314 0
M  V30 6646 H 642.048 0.217718 2.03438 0
M  V30 6647 H 642.058 -1.46925 3.80627 0
M  V30 6648 H 640.733 -0.367122 4.14277 0
M  V30 6649 H 639.31 -1.93123 3.18995 0
M  V30 6650 N 641.495 -1.56914 -0.146875 0
M  V30 6651 C 642.427 -1.94878 -1.20645 0
M  V30 6652 C 643.44 -0.844633 -1.39175 0
M  V30 6653 O 644.629 -1.12304 -1.38744 0
M  V30 6654 C 641.729 -2.20769 -2.57127 0
M  V30 6655 C 640.902 -3.52053 -2.59572 0
M  V30 6656 C 639.961 -3.66482 -3.77594 0
M  V30 6657 O 638.987 -4.38873 -3.62462 0
M  V30 6658 N 640.189 -3.03156 -4.95052 0
M  V30 6659 H 642.954 -2.86374 -0.883757 0
M  V30 6660 H 640.515 -1.58366 -0.336436 0
M  V30 6661 H 642.507 -2.27664 -3.34591 0
M  V30 6662 H 641.077 -1.35538 -2.81688 0
M  V30 6663 H 640.297 -3.56598 -1.68023 0
M  V30 6664 H 641.585 -4.38396 -2.58238 0
M  V30 6665 H 640.983 -2.44258 -5.10249 0
M  V30 6666 H 639.54 -3.15611 -5.70292 0
M  V30 6667 N 642.974 0.416227 -1.52004 0
M  V30 6668 C 643.924 1.50558 -1.7122 0
M  V30 6669 C 644.908 1.50613 -0.56609 0
M  V30 6670 O 646.1 1.56709 -0.822874 0
M  V30 6671 C 643.229 2.88556 -1.85984 0
M  V30 6672 C 642.315 2.93177 -3.06445 0
M  V30 6673 N 642.706 2.67505 -4.29272 0
M  V30 6674 C 641.004 3.24343 -3.06133 0
M  V30 6675 C 641.705 2.78511 -5.10692 0
M  V30 6676 N 640.681 3.11087 -4.45787 0
M  V30 6677 H 644.483 1.29494 -2.63834 0
M  V30 6678 H 641.997 0.62384 -1.4994 0
M  V30 6679 H 643.994 3.66954 -1.97865 0
M  V30 6680 H 642.654 3.10624 -0.945654 0
M  V30 6681 H 643.665 2.42033 -4.57865 0
M  V30 6682 H 640.342 3.52051 -2.24425 0
M  V30 6683 H 641.732 2.62438 -6.18527 0
M  V30 6684 N 644.452 1.42507 0.673017 0
M  V30 6685 C 645.729 1.33554 1.42908 0
M  V30 6686 C 646.109 -0.0262211 2.11084 0
M  V30 6687 O 645.457 -1.04181 2.03368 0
M  V30 6688 C 645.667 2.50498 2.43006 0
M  V30 6689 C 647.015 2.92694 3.07596 0
M  V30 6690 O 648.039 2.50401 2.53333 0
M  V30 6691 O 646.898 3.65899 4.05931 0
M  V30 6692 H 643.992 0.526785 0.637516 0
M  V30 6693 H 646.538 1.54518 0.701591 0
M  V30 6694 H 645.31 3.41272 1.9144 0
M  V30 6695 H 644.933 2.3153 3.23233 0
M  V30 6696 N 645.93 -0.909495 1.28709 0
M  V30 6697 C 647.158 -1.69272 1.18973 0
M  V30 6698 C 647.573 -1.87123 -0.251048 0
M  V30 6699 O 646.93 -1.40127 -1.16922 0
M  V30 6700 C 646.981 -3.08257 1.88839 0
M  V30 6701 O 646.702 -2.91228 3.27289 0
M  V30 6702 C 648.203 -4.02642 1.85457 0
M  V30 6703 H 645.423 -0.528999 0.412797 0
M  V30 6704 H 647.967 -1.13803 1.69909 0
M  V30 6705 H 646.122 -3.6053 1.41762 0
M  V30 6706 H 646.536 -3.79223 3.6234 0
M  V30 6707 H 648.01 -4.97613 2.38925 0
M  V30 6708 H 648.487 -4.31327 0.827893 0
M  V30 6709 H 649.093 -3.56298 2.32233 0
M  V30 6710 N 647.408 -1.11026 -1.11852 0
M  V30 6711 C 648.34 -0.72249 -2.17515 0
M  V30 6712 C 649.353 0.243782 -1.60964 0
M  V30 6713 O 650.542 0.0273252 -1.78479 0
M  V30 6714 C 647.642 -0.0463979 -3.38868 0
M  V30 6715 C 646.815 -1.0384 -4.24895 0
M  V30 6716 C 645.874 -0.392659 -5.24733 0
M  V30 6717 O 644.9 -1.0453 -5.5952 0
M  V30 6718 N 646.102 0.846296 -5.74298 0
M  V30 6719 H 648.867 -1.63161 -2.51393 0
M  V30 6720 H 646.428 -0.999899 -1.27333 0
M  V30 6721 H 648.42 0.397215 -4.02746 0
M  V30 6722 H 646.99 0.765231 -3.03089 0
M  V30 6723 H 646.21 -1.6601 -3.57539 0
M  V30 6724 H 647.498 -1.70968 -4.79215 0
M  V30 6725 H 646.896 1.39578 -5.4821 0
M  V30 6726 H 645.453 1.23296 -6.40032 0
M  V30 6727 N 648.886 1.2938 -0.899927 0
M  V30 6728 C 649.816 2.30144 -0.39446 0
M  V30 6729 C 650.797 1.61611 0.530639 0
M  V30 6730 O 651.982 1.89119 0.441319 0
M  V30 6731 C 649.112 3.45229 0.37868 0
M  V30 6732 C 648.066 4.25564 -0.456012 0
M  V30 6733 C 647.392 5.32848 0.444637 0
M  V30 6734 C 648.692 4.93651 -1.70605 0
M  V30 6735 H 650.386 2.72673 -1.23653 0
M  V30 6736 H 647.932 1.31086 -0.596034 0
M  V30 6737 H 649.885 4.14797 0.743037 0
M  V30 6738 H 648.609 3.01545 1.25453 0
M  V30 6739 H 647.268 3.57704 -0.802704 0
M  V30 6740 H 646.916 4.85408 1.31863 0
M  V30 6741 H 646.616 5.87497 -0.110154 0
M  V30 6742 H 648.14 6.05268 0.805182 0
M  V30 6743 H 649.554 5.55655 -1.41141 0
M  V30 6744 H 647.951 5.58233 -2.20217 0
M  V30 6745 H 649.021 4.18926 -2.4419 0
M  V30 6746 N 650.364 0.662433 1.43002 0
M  V30 6747 C 651.594 0.187343 2.05749 0
M  V30 6748 C 652.002 -1.15582 1.49791 0
M  V30 6749 O 651.345 -1.72651 0.627487 0
M  V30 6750 C 651.407 0.0316493 3.59486 0
M  V30 6751 C 651.071 1.30156 4.38073 0
M  V30 6752 C 652.068 2.23234 4.69535 0
M  V30 6753 C 649.753 1.54572 4.77926 0
M  V30 6754 C 651.747 3.39012 5.39768 0
M  V30 6755 C 649.434 2.70641 5.47902 0
M  V30 6756 C 650.432 3.62687 5.78746 0
M  V30 6757 O 650.12 4.76728 6.47291 0
M  V30 6758 H 649.852 0.0915214 0.669776 0
M  V30 6759 H 652.406 0.905982 1.8434 0
M  V30 6760 H 650.636 -0.742451 3.79506 0
M  V30 6761 H 652.325 -0.401977 4.03905 0
M  V30 6762 H 653.091 2.05616 4.39257 0
M  V30 6763 H 648.97 0.83804 4.53319 0
M  V30 6764 H 652.514 4.10877 5.63761 0
M  V30 6765 H 648.411 2.88189 5.77596 0
M  V30 6766 H 649.179 4.76113 6.65777 0
M  V30 6767 N 651.842 -1.52309 0.404946 0
M  V30 6768 C 653.253 -1.86585 -0.0655926 0
M  V30 6769 C 653.604 -1.3239 -1.44801 0
M  V30 6770 O 652.729 -0.6615 -2.06042 0
M  V30 6771 C 653.324 -3.38566 -0.125801 0
M  V30 6772 C 651.883 -3.72497 -0.540666 0
M  V30 6773 C 651.03 -2.75806 0.287487 0
M  V30 6774 H 653.981 -1.45995 0.622185 0
M  V30 6775 H 654.002 -3.68658 -0.941888 0
M  V30 6776 H 653.514 -3.77981 0.880473 0
M  V30 6777 H 651.615 -3.38659 -1.55373 0
M  V30 6778 H 651.728 -4.78234 -0.287956 0
M  V30 6779 H 650.092 -2.53474 -0.249561 0
M  V30 6780 H 650.875 -3.18059 1.29203 0
M  V30 6781 N 653.32 -0.135238 -1.57019 0
M  V30 6782 C 654.736 0.221262 -1.58059 0
M  V30 6783 C 654.936 1.65538 -1.14889 0
M  V30 6784 O 653.992 2.37985 -0.843751 0
M  V30 6785 C 655.305 -0.0268114 -3.00688 0
M  V30 6786 C 656.853 0.0378206 -3.12977 0
M  V30 6787 C 657.328 -0.182769 -4.57635 0
M  V30 6788 N 658.819 -0.129292 -4.6302 0
M  V30 6789 C 659.554 -0.274648 -5.72742 0
M  V30 6790 N 659.05 -0.477075 -6.91155 0
M  V30 6791 N 660.843 -0.213077 -5.61696 0
M  V30 6792 H 652.994 -1.07177 -1.83376 0
M  V30 6793 H 655.257 -0.423338 -0.848227 0
M  V30 6794 H 654.963 -1.01889 -3.36618 0
M  V30 6795 H 654.837 0.697863 -3.70688 0
M  V30 6796 H 657.224 1.02043 -2.76896 0
M  V30 6797 H 657.305 -0.718996 -2.45487 0
M  V30 6798 H 656.949 -1.16243 -4.94419 0
M  V30 6799 H 656.879 0.59423 -5.23237 0
M  V30 6800 H 659.37 0.0229896 -3.77893 0
M  V30 6801 H 659.683 -0.578413 -7.70632 0
M  V30 6802 H 658.028 -0.513252 -6.93102 0
M  V30 6803 H 661.219 -0.0557796 -4.68067 0
M  V30 6804 H 661.392 -0.329796 -6.4716 0
M  V30 6805 N 654.798 1.5699 0.138552 0
M  V30 6806 C 655.708 2.02174 1.19008 0
M  V30 6807 C 656.724 0.938622 1.46512 0
M  V30 6808 O 657.9 1.24872 1.58016 0
M  V30 6809 C 654.965 2.40045 2.50159 0
M  V30 6810 C 654.026 3.62346 2.30226 0
M  V30 6811 C 653.259 3.98401 3.55123 0
M  V30 6812 O 653.482 3.35019 4.61647 0
M  V30 6813 O 652.416 4.91606 3.47285 0
M  V30 6814 H 656.242 2.91954 0.836452 0
M  V30 6815 H 653.827 1.45293 0.347907 0
M  V30 6816 H 655.709 2.65225 3.27465 0
M  V30 6817 H 654.384 1.53417 2.85035 0
M  V30 6818 H 653.291 3.42341 1.50843 0
M  V30 6819 H 654.624 4.49617 2.00262 0
M  V30 6820 N 656.276 -0.40816 1.52223 0
M  V30 6821 C 657.692 -0.74685 1.41047 0
M  V30 6822 C 657.892 -1.94788 0.51573 0
M  V30 6823 O 656.948 -2.52494 -0.0181156 0
M  V30 6824 C 658.261 -0.999878 2.83589 0
M  V30 6825 C 659.809 -1.10253 2.92939 0
M  V30 6826 C 660.284 -1.38832 4.36451 0
M  V30 6827 N 661.775 -1.45694 4.3969 0
M  V30 6828 C 662.51 -1.69435 5.47795 0
M  V30 6829 N 662.006 -1.90774 6.66016 0
M  V30 6830 N 663.799 -1.71458 5.35312 0
M  V30 6831 H 655.95 0.382409 2.08929 0
M  V30 6832 H 658.213 0.108807 0.941735 0
M  V30 6833 H 657.919 -0.189723 3.51188 0
M  V30 6834 H 657.793 -1.91978 3.24691 0
M  V30 6835 H 660.18 -1.90328 2.2552 0
M  V30 6836 H 660.261 -0.160973 2.55293 0
M  V30 6837 H 659.905 -0.592741 5.04429 0
M  V30 6838 H 659.835 -2.34241 4.71634 0
M  V30 6839 H 662.326 -1.3099 3.54472 0
M  V30 6840 H 662.639 -2.08342 7.44186 0
M  V30 6841 H 660.984 -1.88037 6.69079 0
M  V30 6842 H 664.175 -1.54326 4.41929 0
M  V30 6843 H 664.348 -1.89621 6.19635 0
M  V30 6844 N 657.755 -1.42862 -0.66545 0
M  V30 6845 C 658.685 -1.49867 -1.79059 0
M  V30 6846 C 659.666 -0.354394 -1.66367 0
M  V30 6847 O 660.851 -0.569969 -1.85647 0
M  V30 6848 C 657.981 -1.40943 -3.17415 0
M  V30 6849 C 656.935 -2.53495 -3.44854 0
M  V30 6850 C 656.261 -2.29626 -4.82883 0
M  V30 6851 C 657.561 -3.95781 -3.40815 0
M  V30 6852 H 659.255 -2.44037 -1.73453 0
M  V30 6853 H 656.801 -1.17456 -0.833071 0
M  V30 6854 H 658.754 -1.4445 -3.95869 0
M  V30 6855 H 657.478 -0.432716 -3.23721 0
M  V30 6856 H 656.137 -2.4932 -2.68766 0
M  V30 6857 H 655.785 -1.30226 -4.8585 0
M  V30 6858 H 655.485 -3.05065 -5.02204 0
M  V30 6859 H 657.009 -2.34897 -5.63609 0
M  V30 6860 H 658.423 -4.01508 -4.09224 0
M  V30 6861 H 656.82 -4.71148 -3.71672 0
M  V30 6862 H 657.89 -4.21786 -2.39216 0
M  V30 6863 N 659.233 0.902656 -1.29189 0
M  V30 6864 C 660.482 1.6475 -1.16362 0
M  V30 6865 C 660.795 1.93517 0.284682 0
M  V30 6866 O 662.001 2.66192 0.534229 0
M  V30 6867 C 660.457 2.96848 -2.03493 0
M  V30 6868 C 660.065 2.75687 -3.5313 0
M  V30 6869 C 661.809 3.74762 -1.99383 0
M  V30 6870 C 659.716 4.03492 -4.32375 0
M  V30 6871 H 658.646 0.618041 -0.431904 0
M  V30 6872 H 661.297 1.0008 -1.53806 0
M  V30 6873 H 659.679 3.62715 -1.58916 0
M  V30 6874 H 660.853 2.18431 -4.05739 0
M  V30 6875 H 659.168 2.11171 -3.58881 0
M  V30 6876 H 661.765 4.69515 -2.5585 0
M  V30 6877 H 662.108 4.04767 -0.973123 0
M  V30 6878 H 662.641 3.15732 -2.41988 0
M  V30 6879 H 659.38 3.78656 -5.3507 0
M  V30 6880 H 658.9 4.60318 -3.84535 0
M  V30 6881 H 660.579 4.71662 -4.42881 0
M  V30 6882 N 660.711 1.11618 1.11262 0
M  V30 6883 C 661.988 0.777876 1.79467 0
M  V30 6884 C 662.368 -0.733774 1.97937 0
M  V30 6885 O 661.716 -1.66443 1.56554 0
M  V30 6886 C 661.926 1.5431 3.13032 0
M  V30 6887 C 663.274 1.72357 3.88044 0
M  V30 6888 O 664.298 1.5075 3.22727 0
M  V30 6889 O 663.157 2.08276 5.05256 0
M  V30 6890 H 660.251 0.282018 0.777428 0
M  V30 6891 H 662.797 1.21971 1.17988 0
M  V30 6892 H 661.569 2.57132 2.94956 0
M  V30 6893 H 661.192 1.09495 3.82226 0
M  V30 6894 N 662.189 -1.289 0.906776 0
M  V30 6895 C 663.437 -1.94883 0.535266 0
M  V30 6896 C 663.758 -1.71784 -0.922791 0
M  V30 6897 O 663.028 -1.05359 -1.65156 0
M  V30 6898 H 661.608 -0.721109 0.194962 0
M  V30 6899 H 664.27 -1.57018 1.15461 0
M  V30 6900 H 663.366 -3.03591 0.723821 0
M  V30 6901 N 663.667 -0.670007 -1.42649 0
M  V30 6902 C 664.915 -0.18991 -2.01206 0
M  V30 6903 C 665.236 1.20617 -1.53221 0
M  V30 6904 O 664.506 1.80898 -0.751856 0
M  V30 6905 H 663.086 -0.0672189 -0.743969 0
M  V30 6906 H 665.748 -0.865442 -1.74631 0
M  V30 6907 H 664.844 -0.187481 -3.11536 0
M  V30 6908 N 665.145 1.52092 -0.413018 0
M  V30 6909 C 666.373 2.06274 0.160881 0
M  V30 6910 C 666.788 1.28273 1.38533 0
M  V30 6911 O 666.145 0.33563 1.79387 0
M  V30 6912 C 666.196 3.57921 0.507443 0
M  V30 6913 O 665.917 4.32971 -0.668388 0
M  V30 6914 C 667.418 4.28533 1.13465 0
M  V30 6915 H 664.638 0.67074 0.0186759 0
M  V30 6916 H 667.182 1.95951 -0.585092 0
M  V30 6917 H 665.337 3.68238 1.20331 0
M  V30 6918 H 665.751 5.23135 -0.378169 0
M  V30 6919 H 667.225 5.35804 1.32732 0
M  V30 6920 H 667.702 3.85258 2.10886 0
M  V30 6921 H 668.308 4.22595 0.478876 0
M  V30 6922 N 666.623 0.143563 1.56945 0
M  V30 6923 C 667.853 -0.514699 2.00086 0
M  V30 6924 C 668.261 -1.59184 1.0226 0
M  V30 6925 O 667.604 -1.83697 0.0110514 0
M  V30 6926 C 667.666 -1.17778 3.39659 0
M  V30 6927 C 667.33 -0.245657 4.56339 0
M  V30 6928 C 668.327 0.525343 5.17239 0
M  V30 6929 C 666.012 -0.149564 5.02077 0
M  V30 6930 C 668.006 1.37992 6.22284 0
M  V30 6931 C 665.693 0.708621 6.06978 0
M  V30 6932 C 666.691 1.47197 6.6695 0
M  V30 6933 O 666.379 2.31586 7.6982 0
M  V30 6934 H 666.111 -0.138789 0.661599 0
M  V30 6935 H 668.665 0.234098 2.04062 0
M  V30 6936 H 666.895 -1.97415 3.32512 0
M  V30 6937 H 668.584 -1.73542 3.6693 0
M  V30 6938 H 669.35 0.461118 4.82803 0
M  V30 6939 H 665.229 -0.733457 4.55128 0
M  V30 6940 H 668.773 1.97621 6.69023 0
M  V30 6941 H 664.67 0.77415 6.40841 0
M  V30 6942 H 665.438 2.24796 7.87025 0
M  V30 6943 N 668.101 -1.57061 -0.130224 0
M  V30 6944 C 669.031 -2.02552 -1.16168 0
M  V30 6945 C 670.012 -0.907971 -1.4384 0
M  V30 6946 O 671.197 -1.17693 -1.54473 0
M  V30 6947 C 668.327 -2.42035 -2.49071 0
M  V30 6948 C 667.281 -3.5713 -2.35886 0
M  V30 6949 C 666.607 -3.82478 -3.7365 0
M  V30 6950 C 667.907 -4.89236 -1.8288 0
M  V30 6951 H 669.601 -2.8897 -0.783359 0
M  V30 6952 H 667.147 -1.39021 -0.375376 0
M  V30 6953 H 669.1 -2.72462 -3.21469 0
M  V30 6954 H 667.824 -1.52573 -2.88771 0
M  V30 6955 H 666.483 -3.26895 -1.65938 0
M  V30 6956 H 666.131 -2.9024 -4.10816 0
M  V30 6957 H 665.831 -4.59944 -3.65685 0
M  V30 6958 H 667.355 -4.15347 -4.47571 0
M  V30 6959 H 668.769 -5.18272 -2.45085 0
M  V30 6960 H 667.166 -5.70624 -1.85763 0
M  V30 6961 H 668.236 -4.78494 -0.785571 0
M  V30 6962 N 669.579 0.400081 -1.52437 0
M  V30 6963 C 670.512 1.50929 -1.7116 0
M  V30 6964 C 671.49 1.52679 -0.559275 0
M  V30 6965 O 672.674 1.71251 -0.787735 0
M  V30 6966 C 669.801 2.89433 -1.75915 0
M  V30 6967 C 668.847 3.05556 -2.97553 0
M  V30 6968 S 669.68 2.77919 -4.57735 0
M  V30 6969 C 670.836 4.18636 -4.6529 0
M  V30 6970 H 671.069 1.3482 -2.64973 0
M  V30 6971 H 668.602 0.592245 -1.4259 0
M  V30 6972 H 670.56 3.69253 -1.7934 0
M  V30 6973 H 669.221 3.02877 -0.832137 0
M  V30 6974 H 668.414 4.0691 -2.97388 0
M  V30 6975 H 668.016 2.33615 -2.92062 0
M  V30 6976 H 670.308 5.12406 -4.43223 0
M  V30 6977 H 671.251 4.23821 -5.67258 0
M  V30 6978 H 671.659 4.04029 -3.94234 0
M  V30 6979 N 671.057 1.43213 0.657864 0
M  V30 6980 C 671.987 1.50815 1.78262 0
M  V30 6981 C 672.968 0.363211 1.66177 0
M  V30 6982 O 674.153 0.579806 1.85343 0
M  V30 6983 C 671.283 1.42625 3.16663 0
M  V30 6984 C 670.237 2.5532 3.43505 0
M  V30 6985 C 669.563 2.32184 4.81658 0
M  V30 6986 C 670.863 3.97583 3.38711 0
M  V30 6987 H 672.557 2.44954 1.72157 0
M  V30 6988 H 670.103 1.17896 0.82683 0
M  V30 6989 H 672.056 1.46548 3.95097 0
M  V30 6990 H 670.78 0.449877 3.23487 0
M  V30 6991 H 669.439 2.50742 2.6744 0
M  V30 6992 H 669.087 1.32801 4.85153 0
M  V30 6993 H 668.787 3.07724 5.00579 0
M  V30 6994 H 670.311 2.37883 5.62356 0
M  V30 6995 H 671.725 4.03673 4.07089 0
M  V30 6996 H 670.122 4.73112 3.69168 0
M  V30 6997 H 671.192 4.23049 2.36976 0
M  V30 6998 N 672.536 -0.895792 1.29666 0
M  V30 6999 C 673.466 -2.01673 1.17688 0
M  V30 7000 C 674.447 -1.69955 0.0701317 0
M  V30 7001 O 675.632 -1.9258 0.250289 0
M  V30 7002 C 672.762 -3.36568 0.856681 0
M  V30 7003 C 671.716 -3.82509 1.92017 0
M  V30 7004 C 671.042 -5.14574 1.4532 0
M  V30 7005 C 672.342 -4.02409 3.32963 0
M  V30 7006 H 674.036 -2.11953 2.11463 0
M  V30 7007 H 671.582 -1.01839 1.01807 0
M  V30 7008 H 673.535 -4.14498 0.759577 0
M  V30 7009 H 672.259 -3.26391 -0.116763 0
M  V30 7010 H 670.918 -3.068 2.00673 0
M  V30 7011 H 670.566 -5.00815 0.468325 0
M  V30 7012 H 670.266 -5.46283 2.16447 0
M  V30 7013 H 671.79 -5.9504 1.36968 0
M  V30 7014 H 673.204 -4.70808 3.27127 0
M  V30 7015 H 671.601 -4.45478 4.02082 0
M  V30 7016 H 672.671 -3.06616 3.75652 0
M  V30 7017 N 674.014 -1.12206 -1.10668 0
M  V30 7018 C 675.425 -0.890657 -1.64086 0
M  V30 7019 C 675.776 0.575502 -1.8757 0
M  V30 7020 O 674.901 1.4394 -1.61587 0
M  V30 7021 C 675.496 -1.61029 -2.98085 0
M  V30 7022 C 674.055 -1.4251 -3.48379 0
M  V30 7023 C 673.202 -1.64778 -2.23033 0
M  V30 7024 H 676.153 -1.27718 -0.94201 0
M  V30 7025 H 676.174 -1.05993 -3.65439 0
M  V30 7026 H 675.686 -2.67735 -2.80962 0
M  V30 7027 H 673.787 -0.380497 -3.70652 0
M  V30 7028 H 673.9 -2.17959 -4.26651 0
M  V30 7029 H 672.264 -1.07171 -2.31055 0
M  V30 7030 H 673.047 -2.72776 -2.08443 0
M  V30 7031 N 675.492 1.28418 -0.913599 0
M  V30 7032 C 676.74 1.94596 -0.545594 0
M  V30 7033 C 677.061 1.7227 0.913668 0
M  V30 7034 O 676.331 1.06233 1.64595 0
M  V30 7035 H 674.911 0.720065 -0.198783 0
M  V30 7036 H 677.573 1.56404 -1.16292 0
M  V30 7037 H 676.669 3.03202 -0.739911 0
M  V30 7038 N 676.97 0.677563 1.42291 0
M  V30 7039 C 678.218 0.200578 2.01102 0
M  V30 7040 C 678.539 -1.19803 1.53858 0
M  V30 7041 O 677.809 -1.80496 0.761439 0
M  V30 7042 H 676.389 0.0711634 0.743603 0
M  V30 7043 H 679.051 0.874691 1.7417 0
M  V30 7044 H 678.147 0.204 3.11433 0
M  V30 7045 N 678.448 -1.51871 0.421078 0
M  V30 7046 C 679.694 -2.02237 -0.151014 0
M  V30 7047 C 680.027 -1.30554 -1.43768 0
M  V30 7048 O 679.302 -0.41546 -1.90011 0
M  V30 7049 C 679.585 -3.5802 -0.386482 0
M  V30 7050 C 679.438 -4.40339 0.9177 0
M  V30 7051 C 680.757 -4.24444 -1.16342 0
M  V30 7052 H 677.876 -0.735062 -0.0534102 0
M  V30 7053 H 680.518 -1.81656 0.556888 0
M  V30 7054 H 678.668 -3.75688 -0.989494 0
M  V30 7055 H 680.34 -4.34357 1.55344 0
M  V30 7056 H 678.583 -4.06073 1.526 0
M  V30 7057 H 679.254 -5.47451 0.707187 0
M  V30 7058 H 681.73 -4.10948 -0.652788 0
M  V30 7059 H 680.606 -5.33358 -1.29693 0
M  V30 7060 H 680.867 -3.84204 -2.18724 0
M  V30 7061 N 679.926 -0.151884 -1.56866 0
M  V30 7062 C 680.858 0.817008 -2.14144 0
M  V30 7063 C 681.871 1.20735 -1.0921 0
M  V30 7064 O 683.06 1.15058 -1.36469 0
M  V30 7065 C 680.16 2.10844 -2.65326 0
M  V30 7066 C 679.333 1.88471 -3.94712 0
M  V30 7067 C 678.392 3.01649 -4.31155 0
M  V30 7068 O 677.418 2.73127 -4.9939 0
M  V30 7069 N 678.62 4.28947 -3.91132 0
M  V30 7070 H 681.385 0.327448 -2.97906 0
M  V30 7071 H 678.946 0.0315313 -1.61869 0
M  V30 7072 H 680.938 2.85616 -2.86715 0
M  V30 7073 H 679.508 2.51049 -1.86262 0
M  V30 7074 H 678.728 0.977088 -3.81899 0
M  V30 7075 H 680.016 1.70866 -4.79252 0
M  V30 7076 H 679.414 4.54986 -3.36161 0
M  V30 7077 H 677.971 5.00484 -4.17563 0
M  V30 7078 N 681.404 1.57128 0.121893 0
M  V30 7079 C 682.65 1.84974 0.831418 0
M  V30 7080 C 682.983 0.737204 1.79663 0
M  V30 7081 O 682.258 -0.257199 1.92792 0
M  V30 7082 C 682.541 3.23397 1.58386 0
M  V30 7083 C 682.394 4.45246 0.638445 0
M  V30 7084 C 683.713 3.59355 2.54071 0
M  V30 7085 H 680.832 0.67282 0.300803 0
M  V30 7086 H 683.474 1.89759 0.0957587 0
M  V30 7087 H 681.624 3.19449 2.21098 0
M  V30 7088 H 683.296 4.61295 0.0203925 0
M  V30 7089 H 681.539 4.33771 -0.05023 0
M  V30 7090 H 682.21 5.38765 1.20151 0
M  V30 7091 H 684.686 3.64075 2.01465 0
M  V30 7092 H 683.562 4.57193 3.03752 0
M  V30 7093 H 683.823 2.86622 3.36601 0
M  V30 7094 N 682.882 -0.391992 1.52647 0
M  V30 7095 C 684.129 -1.13732 1.67545 0
M  V30 7096 C 684.457 -1.90045 0.413881 0
M  V30 7097 O 683.712 -1.86157 -0.603646 0
M  V30 7098 C 684.011 -2.14401 2.85949 0
M  V30 7099 C 683.677 -1.54767 4.23507 0
M  V30 7100 C 682.339 -1.38229 4.60919 0
M  V30 7101 C 684.691 -1.11382 5.0916 0
M  V30 7102 C 682.019 -0.7685 5.81645 0
M  V30 7103 C 684.371 -0.514143 6.30507 0
M  V30 7104 C 683.035 -0.33604 6.66654 0
M  V30 7105 H 682.305 -0.416174 0.613091 0
M  V30 7106 H 684.952 -0.422327 1.86785 0
M  V30 7107 H 683.257 -2.92108 2.61114 0
M  V30 7108 H 684.954 -2.71974 2.94671 0
M  V30 7109 H 681.544 -1.68626 3.94035 0
M  V30 7110 H 685.728 -1.22962 4.80826 0
M  V30 7111 H 680.984 -0.618681 6.08262 0
M  V30 7112 H 685.158 -0.169657 6.96193 0
M  V30 7113 H 682.785 0.14166 7.60068 0
M  V30 7114 N 684.36 -1.4356 -0.65026 0
M  V30 7115 C 685.59 -1.48563 -1.4357 0
M  V30 7116 C 685.998 -0.103041 -1.88919 0
M  V30 7117 O 685.341 0.897602 -1.60277 0
M  V30 7118 C 685.403 -2.37181 -2.70158 0
M  V30 7119 C 685.067 -3.84673 -2.4673 0
M  V30 7120 C 686.064 -4.75704 -2.09765 0
M  V30 7121 C 683.749 -4.29189 -2.60963 0
M  V30 7122 C 685.743 -6.09249 -1.87334 0
M  V30 7123 C 683.43 -5.62787 -2.38147 0
M  V30 7124 C 684.428 -6.52634 -2.01389 0
M  V30 7125 O 684.116 -7.83761 -1.78813 0
M  V30 7126 H 683.848 -0.506743 -0.447423 0
M  V30 7127 H 686.402 -1.89001 -0.80423 0
M  V30 7128 H 684.632 -1.91636 -3.35876 0
M  V30 7129 H 686.321 -2.33354 -3.32116 0
M  V30 7130 H 687.087 -4.42589 -1.98343 0
M  V30 7131 H 682.966 -3.59529 -2.88548 0
M  V30 7132 H 686.51 -6.7934 -1.58567 0
M  V30 7133 H 682.407 -5.95469 -2.49173 0
M  V30 7134 H 683.175 -7.95368 -1.93214 0
M  V30 7135 N 685.838 0.888903 -1.30139 0
M  V30 7136 C 687.086 1.63713 -1.18501 0
M  V30 7137 C 687.407 1.9324 0.261399 0
M  V30 7138 O 686.677 1.56608 1.17689 0
M  V30 7139 H 685.257 0.606861 -0.435579 0
M  V30 7140 H 687.919 1.06525 -1.63213 0
M  V30 7141 H 687.015 2.58894 -1.743 0
M  V30 7142 N 687.317 1.12792 1.10072 0
M  V30 7143 C 688.594 0.796867 1.78632 0
M  V30 7144 C 688.974 -0.712739 1.98704 0
M  V30 7145 O 688.322 -1.64773 1.5831 0
M  V30 7146 C 688.532 1.57622 3.11378 0
M  V30 7147 C 689.88 1.76463 3.86194 0
M  V30 7148 O 690.904 1.54165 3.2111 0
M  V30 7149 O 689.763 2.13623 5.03018 0
M  V30 7150 H 686.857 0.290248 0.774394 0
M  V30 7151 H 689.403 1.23215 1.16688 0
M  V30 7152 H 688.175 2.60246 2.92212 0
M  V30 7153 H 687.798 1.13543 3.81043 0
M  V30 7154 N 688.795 -1.27931 0.920396 0
M  V30 7155 C 689.705 -2.30824 0.419212 0
M  V30 7156 C 690.721 -1.66767 -0.496461 0
M  V30 7157 O 691.897 -1.97763 -0.38104 0
M  V30 7158 C 688.962 -3.45158 -0.326601 0
M  V30 7159 C 688.023 -4.24754 0.623098 0
M  V30 7160 C 687.256 -5.33629 -0.0872172 0
M  V30 7161 O 687.479 -5.55204 -1.30784 0
M  V30 7162 O 686.413 -5.99091 0.580875 0
M  V30 7163 H 690.239 -2.75716 1.27337 0
M  V30 7164 H 687.824 -1.32747 0.685465 0
M  V30 7165 H 689.706 -4.14716 -0.747559 0
M  V30 7166 H 688.381 -3.02336 -1.15648 0
M  V30 7167 H 687.288 -3.57759 1.09359 0
M  V30 7168 H 688.621 -4.71272 1.41998 0
M  V30 7169 N 690.273 -0.685099 -1.4193 0
M  V30 7170 C 691.501 -0.220372 -2.05723 0
M  V30 7171 C 691.916 1.12642 -1.51516 0
M  V30 7172 O 691.273 1.70182 -0.659114 0
M  V30 7173 C 691.324 -0.157974 -3.61155 0
M  V30 7174 O 691.045 -1.45156 -4.13354 0
M  V30 7175 C 692.546 0.329009 -4.42077 0
M  V30 7176 H 689.766 -0.104725 -0.662777 0
M  V30 7177 H 692.31 -0.934736 -1.81887 0
M  V30 7178 H 690.465 0.507144 -3.84066 0
M  V30 7179 H 690.879 -1.33172 -5.07312 0
M  V30 7180 H 692.353 0.321559 -5.51063 0
M  V30 7181 H 692.83 1.36608 -4.17414 0
M  V30 7182 H 693.436 -0.304737 -4.24207 0
M  V30 7183 N 691.751 1.51645 -0.429126 0
M  V30 7184 C 692.714 2.26116 0.374726 0
M  V30 7185 C 693.714 1.29242 0.956714 0
M  V30 7186 O 694.904 1.53022 0.832452 0
M  V30 7187 C 692.036 3.04669 1.52937 0
M  V30 7188 H 693.229 2.9861 -0.277818 0
M  V30 7189 H 690.782 1.55236 -0.182097 0
M  V30 7190 H 691.517 2.36571 2.21821 0
M  V30 7191 H 691.302 3.75814 1.11833 0
M  V30 7192 H 692.792 3.61102 2.09751 0
M  V30 7193 N 693.229 0.160201 1.56784 0
M  V30 7194 C 694.645 -0.196089 1.58391 0
M  V30 7195 C 694.845 -1.63689 1.17508 0
M  V30 7196 O 693.901 -2.36613 0.881506 0
M  V30 7197 C 695.214 0.0746449 3.00607 0
M  V30 7198 C 696.762 0.0119762 3.12998 0
M  V30 7199 C 697.237 0.255551 4.57286 0
M  V30 7200 N 698.728 0.202938 4.62755 0
M  V30 7201 C 699.463 0.365731 5.72232 0
M  V30 7202 N 698.959 0.586972 6.90309 0
M  V30 7203 N 700.752 0.302411 5.61286 0
M  V30 7204 H 692.903 1.1008 1.81648 0
M  V30 7205 H 695.166 0.436779 0.841384 0
M  V30 7206 H 694.872 1.07231 3.34954 0
M  V30 7207 H 694.746 -0.638802 3.71751 0
M  V30 7208 H 697.133 -0.976254 2.78484 0
M  V30 7209 H 697.214 0.75796 2.44313 0
M  V30 7210 H 696.858 1.24094 4.92507 0
M  V30 7211 H 696.788 -0.510912 5.24116 0
M  V30 7212 H 699.279 0.0371328 3.77882 0
M  V30 7213 H 699.592 0.700941 7.69615 0
M  V30 7214 H 697.937 0.623453 6.92198 0
M  V30 7215 H 701.128 0.130238 4.67919 0
M  V30 7216 H 701.301 0.432712 6.46554 0
M  V30 7217 N 694.707 -1.5719 -0.113559 0
M  V30 7218 C 696.118 -1.74259 -0.670116 0
M  V30 7219 C 696.469 -0.779694 -1.80042 0
M  V30 7220 O 695.594 0.0461353 -2.16351 0
M  V30 7221 C 696.189 -3.15981 -1.22236 0
M  V30 7222 C 694.748 -3.34537 -1.72516 0
M  V30 7223 C 693.895 -2.70116 -0.627098 0
M  V30 7224 H 696.846 -1.58301 0.112396 0
M  V30 7225 H 696.867 -3.17832 -2.09197 0
M  V30 7226 H 696.379 -3.86038 -0.39949 0
M  V30 7227 H 694.48 -2.6953 -2.57263 0
M  V30 7228 H 694.593 -4.42737 -1.83086 0
M  V30 7229 H 692.957 -2.31501 -1.06204 0
M  V30 7230 H 693.74 -3.42802 0.184889 0
M  V30 7231 N 696.185 0.383891 -1.52853 0
M  V30 7232 C 697.432 1.12842 -1.68146 0
M  V30 7233 C 697.76 1.89823 -0.423954 0
M  V30 7234 O 697.015 1.86475 0.593765 0
M  V30 7235 C 697.314 2.12881 -2.87082 0
M  V30 7236 C 696.98 1.52519 -4.24322 0
M  V30 7237 C 695.642 1.35783 -4.61645 0
M  V30 7238 C 697.994 1.0868 -5.09743 0
M  V30 7239 C 695.322 0.737643 -5.82044 0
M  V30 7240 C 697.674 0.480699 -6.30771 0
M  V30 7241 C 696.338 0.300681 -6.66822 0
M  V30 7242 H 695.608 0.412917 -0.615289 0
M  V30 7243 H 698.255 0.412416 -1.87006 0
M  V30 7244 H 696.56 2.90719 -2.62659 0
M  V30 7245 H 698.257 2.70408 -2.96109 0
M  V30 7246 H 694.847 1.66534 -3.94923 0
M  V30 7247 H 699.031 1.2041 -4.81472 0
M  V30 7248 H 694.287 0.586415 -6.08581 0
M  V30 7249 H 698.461 0.132733 -6.96273 0
M  V30 7250 H 696.088 -0.181966 -7.59982 0
M  V30 7251 N 697.663 1.43903 0.642637 0
M  V30 7252 C 698.911 1.45791 1.39962 0
M  V30 7253 C 699.232 0.0873144 1.94804 0
M  V30 7254 O 698.502 -0.878825 1.75081 0
M  V30 7255 H 697.082 0.536797 0.519479 0
M  V30 7256 H 699.744 1.7959 0.757189 0
M  V30 7257 H 698.84 2.17665 2.2367 0
M  V30 7258 N 699.141 -0.881989 1.30609 0
M  V30 7259 C 700.552 -1.44956 1.17664 0
M  V30 7260 C 700.903 -1.94945 -0.221531 0
M  V30 7261 O 700.028 -1.85257 -1.11844 0
M  V30 7262 C 700.623 -2.63474 2.12995 0
M  V30 7263 C 699.182 -3.16312 2.04019 0
M  V30 7264 C 698.329 -1.89008 2.02907 0
M  V30 7265 H 701.28 -0.691645 1.42835 0
M  V30 7266 H 701.301 -3.39783 1.71253 0
M  V30 7267 H 700.813 -2.2706 3.14746 0
M  V30 7268 H 698.914 -3.57376 1.0542 0
M  V30 7269 H 699.027 -3.79409 2.9255 0
M  V30 7270 H 697.391 -2.07465 1.47751 0
M  V30 7271 H 698.174 -1.54848 3.06394 0
M  V30 7272 N 700.619 -1.13374 -1.09472 0
M  V30 7273 C 701.847 -0.918351 -1.85402 0
M  V30 7274 C 702.262 0.53281 -1.81126 0
M  V30 7275 O 701.619 1.36879 -1.20708 0
M  V30 7276 C 701.67 -1.39743 -3.33398 0
M  V30 7277 O 701.391 -2.79172 -3.37631 0
M  V30 7278 C 702.892 -1.22042 -4.2617 0
M  V30 7279 H 700.112 -0.327511 -0.585643 0
M  V30 7280 H 702.656 -1.50617 -1.38328 0
M  V30 7281 H 700.811 -0.852619 -3.77901 0
M  V30 7282 H 701.225 -3.00428 -4.29934 0
M  V30 7283 H 702.699 -1.60438 -5.2817 0
M  V30 7284 H 703.176 -0.162047 -4.38901 0
M  V30 7285 H 703.782 -1.75323 -3.87482 0
M  V30 7286 N 702.098 1.27442 -0.927168 0
M  V30 7287 C 703.346 1.94007 -0.566203 0
M  V30 7288 C 703.667 1.7323 0.895345 0
M  V30 7289 O 702.937 1.07973 1.63459 0
M  V30 7290 H 701.517 0.717917 -0.206409 0
M  V30 7291 H 704.179 1.55161 -1.17945 0
M  V30 7292 H 703.275 3.02401 -0.772028 0
M  V30 7293 N 703.576 0.692616 1.41565 0
M  V30 7294 C 704.801 0.229776 2.06123 0
M  V30 7295 C 705.226 -1.11119 1.5177 0
M  V30 7296 O 704.584 -1.69498 0.643444 0
M  V30 7297 C 704.632 0.19469 3.60074 0
M  V30 7298 O 703.736 -0.831366 4.03933 0
M  V30 7299 H 703.077 0.113002 0.654314 0
M  V30 7300 H 705.607 0.946645 1.81383 0
M  V30 7301 H 705.617 0.0245487 4.07993 0
M  V30 7302 H 704.292 1.17339 3.99004 0
M  V30 7303 H 702.869 -0.630819 3.67526 0
M  V30 7304 N 705.054 -1.51416 0.437162 0
M  V30 7305 C 706.331 -1.94682 -0.189292 0
M  V30 7306 C 706.711 -1.37581 -1.60108 0
M  V30 7307 O 706.059 -0.562815 -2.2146 0
M  V30 7308 C 706.269 -3.48599 -0.167201 0
M  V30 7309 C 707.617 -4.2296 -0.372856 0
M  V30 7310 O 708.641 -3.55354 -0.245323 0
M  V30 7311 O 707.5 -5.42895 -0.626693 0
M  V30 7312 H 704.594 -0.816708 -0.130063 0
M  V30 7313 H 707.14 -1.62316 0.495128 0
M  V30 7314 H 705.912 -3.82616 0.81981 0
M  V30 7315 H 705.535 -3.87406 -0.894537 0
M  V30 7316 N 706.532 -0.168513 -1.56696 0
M  V30 7317 C 707.943 0.348694 -1.83415 0
M  V30 7318 C 708.294 1.63257 -1.0882 0
M  V30 7319 O 707.419 2.13707 -0.340333 0
M  V30 7320 C 708.014 0.639423 -3.32711 0
M  V30 7321 C 706.573 1.10108 -3.59935 0
M  V30 7322 C 705.72 0.135464 -2.76969 0
M  V30 7323 H 708.671 -0.392829 -1.53761 0
M  V30 7324 H 708.692 1.49179 -3.50037 0
M  V30 7325 H 708.204 -0.295173 -3.86976 0
M  V30 7326 H 706.305 2.05088 -3.11079 0
M  V30 7327 H 706.418 1.01218 -4.68286 0
M  V30 7328 H 704.782 0.632286 -2.46727 0
M  V30 7329 H 705.565 -0.793104 -3.34013 0
M  V30 7330 N 708.01 1.57248 0.105221 0
M  V30 7331 C 708.96 1.9777 1.1345 0
M  V30 7332 C 709.944 0.854654 1.36325 0
M  V30 7333 O 711.136 1.11844 1.37186 0
M  V30 7334 C 708.265 2.39717 2.45745 0
M  V30 7335 C 707.351 3.58686 2.26286 0
M  V30 7336 N 707.742 4.73942 1.76671 0
M  V30 7337 C 706.04 3.64586 2.56891 0
M  V30 7338 C 706.741 5.55923 1.71245 0
M  V30 7339 N 705.717 4.98803 2.16093 0
M  V30 7340 H 709.519 2.84336 0.743664 0
M  V30 7341 H 707.033 1.59359 0.312787 0
M  V30 7342 H 709.03 2.66971 3.20206 0
M  V30 7343 H 707.69 1.54523 2.85574 0
M  V30 7344 H 708.701 4.9689 1.46016 0
M  V30 7345 H 705.378 2.90031 3.00314 0
M  V30 7346 H 706.768 6.58398 1.34022 0
M  V30 7347 N 709.488 -0.375779 1.53054 0
M  V30 7348 C 710.42 -1.47963 1.75042 0
M  V30 7349 C 711.433 -1.50073 0.631031 0
M  V30 7350 O 712.622 -1.53736 0.907052 0
M  V30 7351 C 709.722 -2.86767 1.80604 0
M  V30 7352 C 708.895 -3.08471 3.10104 0
M  V30 7353 C 707.954 -4.27332 3.07041 0
M  V30 7354 O 706.98 -4.22998 3.80869 0
M  V30 7355 N 708.182 -5.34214 2.27147 0
M  V30 7356 H 710.947 -1.29484 2.70285 0
M  V30 7357 H 708.508 -0.565416 1.51706 0
M  V30 7358 H 710.5 -3.64404 1.76045 0
M  V30 7359 H 709.07 -2.98542 0.926897 0
M  V30 7360 H 708.29 -2.18583 3.28048 0
M  V30 7361 H 709.578 -3.19834 3.95706 0
M  V30 7362 H 708.976 -5.40594 1.66656 0
M  V30 7363 H 707.533 -6.10467 2.28415 0
M  V30 7364 N 710.966 -1.44241 -0.634997 0
M  V30 7365 C 712.214 -1.46531 -1.39187 0
M  V30 7366 C 712.535 -0.0976441 -1.94755 0
M  V30 7367 O 711.805 0.869528 -1.75545 0
M  V30 7368 H 710.385 -0.539544 -0.516625 0
M  V30 7369 H 713.047 -1.79989 -0.747655 0
M  V30 7370 H 712.143 -2.18848 -2.22513 0
M  V30 7371 N 712.444 0.87505 -1.31075 0
M  V30 7372 C 713.672 1.66058 -1.23419 0
M  V30 7373 C 714.087 1.87723 0.201347 0
M  V30 7374 O 713.444 1.43178 1.13165 0
M  V30 7375 C 713.495 3.03142 -1.96945 0
M  V30 7376 O 713.216 2.82448 -3.34895 0
M  V30 7377 C 714.717 3.97583 -1.96067 0
M  V30 7378 H 711.937 0.517868 -0.426677 0
M  V30 7379 H 714.481 1.09258 -1.72867 0
M  V30 7380 H 712.636 3.56645 -1.51271 0
M  V30 7381 H 713.05 3.69483 -3.72267 0
M  V30 7382 H 714.524 4.91104 -2.52034 0
M  V30 7383 H 715.001 4.2898 -0.941961 0
M  V30 7384 H 715.607 3.50015 -2.41597 0
M  V30 7385 N 713.922 1.13953 1.08869 0
M  V30 7386 C 715.338 0.878924 1.33218 0
M  V30 7387 C 715.538 -0.482478 1.95638 0
M  V30 7388 O 714.594 -1.22778 2.2064 0
M  V30 7389 C 715.907 2.00798 2.23832 0
M  V30 7390 C 717.455 2.04073 2.37325 0
M  V30 7391 C 717.93 3.16258 3.31278 0
M  V30 7392 N 719.421 3.15805 3.38853 0
M  V30 7393 C 720.156 3.99249 4.11567 0
M  V30 7394 N 719.652 4.92721 4.87029 0
M  V30 7395 N 721.445 3.87327 4.0735 0
M  V30 7396 H 713.596 2.01645 0.66731 0
M  V30 7397 H 715.859 0.878395 0.356547 0
M  V30 7398 H 715.565 2.98986 1.85203 0
M  V30 7399 H 715.439 1.92704 3.24261 0
M  V30 7400 H 717.826 1.06495 2.75214 0
M  V30 7401 H 717.907 2.16239 1.36654 0
M  V30 7402 H 717.551 4.14079 2.9411 0
M  V30 7403 H 717.481 3.0133 4.31866 0
M  V30 7404 H 719.972 2.48102 2.8505 0
M  V30 7405 H 720.285 5.52867 5.39961 0
M  V30 7406 H 718.63 4.96723 4.86098 0
M  V30 7407 H 721.821 3.13627 3.475 0
M  V30 7408 H 721.994 4.52585 4.63757 0
M  V30 7409 N 715.4 -1.26948 0.933913 0
M  V30 7410 C 716.625 -1.98724 0.593589 0
M  V30 7411 C 717.05 -1.6915 -0.822801 0
M  V30 7412 O 716.408 -0.93533 -1.5531 0
M  V30 7413 C 716.456 -3.50834 0.833542 0
M  V30 7414 O 715.56 -4.12284 -0.0978788 0
M  V30 7415 H 714.901 -0.623683 0.227849 0
M  V30 7416 H 717.431 -1.61599 1.25486 0
M  V30 7417 H 717.441 -4.01018 0.75156 0
M  V30 7418 H 716.116 -3.71691 1.86597 0
M  V30 7419 H 714.693 -3.72884 0.0345443 0
M  V30 7420 N 716.879 -0.700114 -1.41195 0
M  V30 7421 C 718.104 -0.240704 -2.05998 0
M  V30 7422 C 718.529 1.10313 -1.52357 0
M  V30 7423 O 717.887 1.69154 -0.652424 0
M  V30 7424 C 717.935 -0.213783 -3.59966 0
M  V30 7425 O 717.039 0.809933 -4.04368 0
M  V30 7426 H 716.38 -0.116471 -0.653705 0
M  V30 7427 H 718.91 -0.956251 -1.80878 0
M  V30 7428 H 718.92 -0.0461852 -4.07974 0
M  V30 7429 H 717.595 -1.19454 -3.98376 0
M  V30 7430 H 716.172 0.611319 -3.67855 0
M  V30 7431 N 718.357 1.51182 -0.445186 0
M  V30 7432 C 719.29 2.24528 0.4077 0
M  V30 7433 C 720.268 1.26778 1.01814 0
M  V30 7434 O 721.452 1.55934 1.05909 0
M  V30 7435 C 718.579 3.00171 1.56892 0
M  V30 7436 C 717.625 4.12641 1.0784 0
M  V30 7437 S 718.458 5.35498 0.014049 0
M  V30 7438 C 719.614 6.14681 1.17975 0
M  V30 7439 H 719.847 2.96522 -0.214987 0
M  V30 7440 H 717.38 1.52681 -0.229781 0
M  V30 7441 H 719.338 3.44349 2.23459 0
M  V30 7442 H 717.999 2.27752 2.16304 0
M  V30 7443 H 717.192 4.64875 1.94698 0
M  V30 7444 H 716.794 3.70765 0.490852 0
M  V30 7445 H 719.086 6.44244 2.09658 0
M  V30 7446 H 720.029 7.04659 0.697222 0
M  V30 7447 H 720.437 5.46299 1.42187 0
M  V30 7448 N 719.835 0.176821 1.56605 0
M  V30 7449 C 720.783 -0.768159 2.1955 0
M  V30 7450 C 721.777 -1.23343 1.16116 0
M  V30 7451 O 722.983 -1.19844 1.34303 0
M  V30 7452 H 719.358 -0.266013 0.703378 0
M  V30 7453 H 721.329 -0.213374 2.97636 0
M  V30 7454 C 720.078 -1.98492 2.85475 0
M  V30 7455 H 719.401 -1.63595 3.64797 0
M  V30 7456 H 720.841 -2.62489 3.3298 0
M  V30 7457 C 719.3 -2.81207 1.85538 0
M  V30 7458 O 719.83 -3.7854 1.34427 0
M  V30 7459 N 718.036 -2.46331 1.54173 0
M  V30 7460 H 717.583 -1.67241 1.95929 0
M  V30 7461 H 717.541 -3.01961 0.875595 0
M  V30 7462 N 721.313 -1.57302 -0.09688 0
M  V30 7463 C 722.559 -1.87144 -0.796778 0
M  V30 7464 C 722.914 -0.767428 -1.76432 0
M  V30 7465 O 722.207 0.230728 -1.90206 0
M  V30 7466 C 722.401 -3.21272 -1.56586 0
M  V30 7467 C 722.23 -4.44616 -0.674295 0
M  V30 7468 C 721 -5.04281 -0.320705 0
M  V30 7469 C 723.198 -5.14297 0.0179445 0
M  V30 7470 N 721.18 -6.11162 0.579206 0
M  V30 7471 C 722.551 -6.15125 0.775992 0
M  V30 7472 C 724.606 -4.97815 0.0920521 0
M  V30 7473 C 723.309 -7.01251 1.60122 0
M  V30 7474 C 725.335 -5.84447 0.904175 0
M  V30 7475 C 724.697 -6.84794 1.65035 0
M  V30 7476 H 720.796 -0.734721 -0.267787 0
M  V30 7477 H 723.38 -1.94609 -0.0593955 0
M  V30 7478 H 721.551 -3.14862 -2.27413 0
M  V30 7479 H 723.283 -3.38846 -2.21281 0
M  V30 7480 H 720.038 -4.68866 -0.667961 0
M  V30 7481 H 720.462 -6.69247 1.02166 0
M  V30 7482 H 725.104 -4.20174 -0.470492 0
M  V30 7483 H 722.822 -7.78284 2.17484 0
M  V30 7484 H 726.408 -5.73755 0.964165 0
M  V30 7485 H 725.288 -7.50668 2.26864 0
M  V30 7486 N 722.791 0.367657 -1.53252 0
M  V30 7487 C 724.068 1.12606 -1.59935 0
M  V30 7488 C 724.448 2.07167 -0.405606 0
M  V30 7489 O 723.796 2.20364 0.604323 0
M  V30 7490 C 724.006 1.86699 -2.94863 0
M  V30 7491 C 725.354 2.41306 -3.49366 0
M  V30 7492 O 726.378 1.96828 -2.96879 0
M  V30 7493 O 725.237 3.2261 -4.41118 0
M  V30 7494 H 722.331 0.516438 -0.645926 0
M  V30 7495 H 724.877 0.371088 -1.65593 0
M  V30 7496 H 723.649 1.17674 -3.73187 0
M  V30 7497 H 723.272 2.6911 -2.92687 0
M  V30 7498 N 724.269 1.44576 0.627338 0
M  V30 7499 C 725.494 1.51271 1.41887 0
M  V30 7500 C 725.919 0.139814 1.8758 0
M  V30 7501 O 725.277 -0.871746 1.58966 0
M  V30 7502 C 725.325 2.48529 2.61277 0
M  V30 7503 O 724.429 1.98944 3.61241 0
M  V30 7504 H 723.77 0.510668 0.424399 0
M  V30 7505 H 726.3 1.89746 0.765356 0
M  V30 7506 H 726.31 2.66689 3.08773 0
M  V30 7507 H 724.985 3.48249 2.27366 0
M  V30 7508 H 723.562 1.90568 3.20528 0
M  V30 7509 N 725.747 -0.868086 1.31537 0
M  V30 7510 C 726.993 -1.62367 1.2151 0
M  V30 7511 C 727.326 -1.92883 -0.225819 0
M  V30 7512 O 726.601 -1.56176 -1.15927 0
M  V30 7513 C 726.884 -2.95268 2.06129 0
M  V30 7514 C 726.737 -2.71619 3.58529 0
M  V30 7515 C 728.056 -3.96391 1.91212 0
M  V30 7516 H 725.175 -0.589178 0.442762 0
M  V30 7517 H 727.817 -1.00336 1.61347 0
M  V30 7518 H 725.967 -3.4821 1.72284 0
M  V30 7519 H 727.639 -2.25334 4.0252 0
M  V30 7520 H 725.882 -2.05817 3.81866 0
M  V30 7521 H 726.553 -3.66192 4.13047 0
M  V30 7522 H 729.029 -3.52663 2.20834 0
M  V30 7523 H 727.905 -4.87263 2.52718 0
M  V30 7524 H 728.166 -4.33335 0.875953 0
M  V30 7525 N 727.225 -1.14528 -1.08264 0
M  V30 7526 C 728.173 -0.829201 -2.17318 0
M  V30 7527 C 729.167 0.193521 -1.68291 0
M  V30 7528 O 730.373 0.0494744 -1.79932 0
M  V30 7529 H 726.748 -0.250435 -0.709074 0
M  V30 7530 H 728.719 -1.75683 -2.41201 0
M  V30 7531 C 727.468 -0.324663 -3.46181 0
M  V30 7532 H 726.791 -1.10299 -3.84284 0
M  V30 7533 H 728.231 -0.142059 -4.23762 0
M  V30 7534 C 726.69 0.952033 -3.23169 0
M  V30 7535 O 727.22 2.02549 -3.46896 0
M  V30 7536 N 725.426 0.887854 -2.76705 0
M  V30 7537 H 724.973 0.0141402 -2.57596 0
M  V30 7538 H 724.931 1.74263 -2.61686 0
M  V30 7539 N 728.703 1.26451 -0.940633 0
M  V30 7540 C 729.613 2.30128 -0.455881 0
M  V30 7541 C 730.629 1.67536 0.469867 0
M  V30 7542 O 731.805 1.98344 0.349529 0
M  V30 7543 C 728.87 3.45634 0.271648 0
M  V30 7544 C 727.931 4.23709 -0.690594 0
M  V30 7545 C 727.164 5.337 0.00231047 0
M  V30 7546 O 727.387 5.57215 1.21935 0
M  V30 7547 O 726.321 5.98091 -0.676111 0
M  V30 7548 H 730.147 2.73655 -1.31707 0
M  V30 7549 H 727.732 1.3164 -0.706497 0
M  V30 7550 H 729.614 4.15853 0.681486 0
M  V30 7551 H 728.289 3.04138 1.10824 0
M  V30 7552 H 727.196 3.55974 -1.15037 0
M  V30 7553 H 728.529 4.68953 -1.49478 0
M  V30 7554 N 730.181 0.707592 1.40822 0
M  V30 7555 C 731.091 0.0507246 2.34545 0
M  V30 7556 C 732.107 -0.752727 1.56876 0
M  V30 7557 O 733.283 -0.687524 1.89302 0
M  V30 7558 C 730.348 -0.865731 3.35717 0
M  V30 7559 C 729.409 -0.0531313 4.29267 0
M  V30 7560 C 728.642 -0.925939 5.25606 0
M  V30 7561 O 728.865 -2.16531 5.27703 0
M  V30 7562 O 727.799 -0.369194 6.00767 0
M  V30 7563 H 731.625 0.823587 2.9232 0
M  V30 7564 H 729.21 0.46801 1.4188 0
M  V30 7565 H 731.092 -1.39091 3.97783 0
M  V30 7566 H 729.767 -1.61788 2.80368 0
M  V30 7567 H 728.674 0.516931 3.70511 0
M  V30 7568 H 730.007 0.660617 4.87747 0
M  V30 7569 N 731.66 -1.50943 0.453197 0
M  V30 7570 C 732.906 -2.02512 -0.108082 0
M  V30 7571 C 733.239 -1.33574 -1.40967 0
M  V30 7572 O 732.514 -0.455671 -1.89087 0
M  V30 7573 C 732.797 -3.58759 -0.310453 0
M  V30 7574 C 732.65 -4.38293 1.0109 0
M  V30 7575 C 733.969 -4.26816 -1.07313 0
M  V30 7576 H 731.088 -0.73603 -0.0378064 0
M  V30 7577 H 733.73 -1.80433 0.595295 0
M  V30 7578 H 731.88 -3.77702 -0.909582 0
M  V30 7579 H 733.552 -4.30964 1.64523 0
M  V30 7580 H 731.795 -4.02745 1.61179 0
M  V30 7581 H 732.466 -5.45828 0.82315 0
M  V30 7582 H 734.942 -4.1224 -0.565473 0
M  V30 7583 H 733.818 -5.35989 -1.1835 0
M  V30 7584 H 734.079 -3.88757 -2.10525 0
M  V30 7585 N 733.138 -0.185124 -1.56509 0
M  V30 7586 C 734.068 0.735098 -2.21627 0
M  V30 7587 C 735.049 1.2288 -1.1762 0
M  V30 7588 O 736.234 1.27945 -1.46095 0
M  V30 7589 C 733.364 1.95889 -2.86783 0
M  V30 7590 C 732.318 1.6005 -3.96948 0
M  V30 7591 C 731.644 2.90009 -4.4922 0
M  V30 7592 C 732.944 0.818008 -5.15855 0
M  V30 7593 H 734.638 0.192274 -2.98782 0
M  V30 7594 H 732.184 0.0910393 -1.43712 0
M  V30 7595 H 734.137 2.60779 -3.31017 0
M  V30 7596 H 732.861 2.52608 -2.07018 0
M  V30 7597 H 731.52 0.975237 -3.5339 0
M  V30 7598 H 731.168 3.44797 -3.6623 0
M  V30 7599 H 730.868 2.66778 -5.23549 0
M  V30 7600 H 732.392 3.55904 -4.9615 0
M  V30 7601 H 733.806 1.36979 -5.56695 0
M  V30 7602 H 732.203 0.684207 -5.96187 0
M  V30 7603 H 733.273 -0.182939 -4.84555 0
M  V30 7604 N 734.616 1.57351 0.0885366 0
M  V30 7605 C 735.566 1.98963 1.11346 0
M  V30 7606 C 736.55 0.869065 1.35411 0
M  V30 7607 O 737.742 1.13292 1.35992 0
M  V30 7608 C 734.871 2.4231 2.43189 0
M  V30 7609 C 733.957 3.61065 2.22469 0
M  V30 7610 N 734.348 4.75789 1.71635 0
M  V30 7611 C 732.646 3.6729 2.5301 0
M  V30 7612 C 733.347 5.57708 1.65339 0
M  V30 7613 N 732.323 5.01067 2.1079 0
M  V30 7614 H 736.125 2.85109 0.713465 0
M  V30 7615 H 733.639 1.59682 0.295868 0
M  V30 7616 H 735.636 2.70352 3.17357 0
M  V30 7617 H 734.296 1.57544 2.83919 0
M  V30 7618 H 735.307 4.98411 1.40738 0
M  V30 7619 H 731.984 2.932 2.9722 0
M  V30 7620 H 733.374 6.59782 1.27031 0
M  V30 7621 N 736.094 -0.359525 1.53444 0
M  V30 7622 C 737.044 -1.441 1.7669 0
M  V30 7623 C 738.028 -1.48408 0.621599 0
M  V30 7624 O 739.22 -1.53547 0.880468 0
M  V30 7625 C 736.349 -2.81455 1.96566 0
M  V30 7626 C 735.435 -2.81601 3.17115 0
M  V30 7627 N 735.826 -2.51388 4.38905 0
M  V30 7628 C 734.124 -3.12758 3.1796 0
M  V30 7629 C 734.825 -2.59365 5.20677 0
M  V30 7630 N 733.801 -2.94328 4.57025 0
M  V30 7631 H 737.603 -1.19613 2.68458 0
M  V30 7632 H 735.117 -0.567761 1.52152 0
M  V30 7633 H 737.114 -3.59357 2.11348 0
M  V30 7634 H 735.774 -3.06901 1.06029 0
M  V30 7635 H 736.785 -2.24873 4.66533 0
M  V30 7636 H 733.462 -3.43479 2.37336 0
M  V30 7637 H 734.852 -2.39301 6.27841 0
M  V30 7638 N 737.572 -1.44907 -0.619662 0
M  V30 7639 C 738.818 -1.49504 -1.37914 0
M  V30 7640 C 739.173 -0.130158 -1.91959 0
M  V30 7641 O 738.466 0.856263 -1.71402 0
M  V30 7642 C 738.66 -2.50002 -2.55409 0
M  V30 7643 C 738.489 -3.96128 -2.12867 0
M  V30 7644 C 737.259 -4.64204 -1.99606 0
M  V30 7645 C 739.457 -4.85014 -1.71074 0
M  V30 7646 N 737.439 -5.95104 -1.50748 0
M  V30 7647 C 738.81 -6.05447 -1.33544 0
M  V30 7648 C 740.865 -4.71979 -1.58557 0
M  V30 7649 C 739.568 -7.1429 -0.847484 0
M  V30 7650 C 741.594 -5.80858 -1.11165 0
M  V30 7651 C 740.956 -7.00439 -0.745932 0
M  V30 7652 H 737.055 -0.60207 -0.499034 0
M  V30 7653 H 739.639 -1.81305 -0.70968 0
M  V30 7654 H 737.81 -2.20172 -3.19967 0
M  V30 7655 H 739.542 -2.44823 -3.22248 0
M  V30 7656 H 736.297 -4.19182 -2.20417 0
M  V30 7657 H 736.721 -6.64676 -1.28585 0
M  V30 7658 H 741.363 -3.79953 -1.85461 0
M  V30 7659 H 739.081 -8.06116 -0.565974 0
M  V30 7660 H 742.667 -5.72803 -1.01923 0
M  V30 7661 H 741.547 -7.83255 -0.384848 0
M  V30 7662 N 739.05 0.861098 -1.31996 0
M  V30 7663 C 739.982 1.97551 -1.16216 0
M  V30 7664 C 740.995 1.625 -0.0988527 0
M  V30 7665 O 742.184 1.75091 -0.3472 0
M  V30 7666 C 739.284 3.30376 -0.755307 0
M  V30 7667 C 738.457 3.93711 -1.90552 0
M  V30 7668 C 737.516 5.04862 -1.48328 0
M  V30 7669 O 736.542 5.25204 -2.19431 0
M  V30 7670 N 737.744 5.79283 -0.375656 0
M  V30 7671 H 740.509 2.11632 -2.12208 0
M  V30 7672 H 738.07 1.03559 -1.24448 0
M  V30 7673 H 740.062 4.0213 -0.455364 0
M  V30 7674 H 738.632 3.12395 0.113269 0
M  V30 7675 H 737.852 3.14825 -2.37231 0
M  V30 7676 H 739.14 4.32762 -2.67571 0
M  V30 7677 H 738.538 5.65286 0.216284 0
M  V30 7678 H 737.095 6.5166 -0.135289 0
M  V30 7679 N 740.528 1.15101 1.07655 0
M  V30 7680 C 741.475 0.844958 2.14777 0
M  V30 7681 C 742.445 -0.200798 1.64882 0
M  V30 7682 O 743.63 -0.0690278 1.90675 0
M  V30 7683 C 740.77 0.337018 3.4345 0
M  V30 7684 C 739.883 1.44398 4.07153 0
M  V30 7685 C 739.018 0.892487 5.23649 0
M  V30 7686 C 738.057 1.9766 5.79307 0
M  V30 7687 N 737.194 1.44171 6.87138 0
M  V30 7688 H 742.034 1.76242 2.40297 0
M  V30 7689 H 739.571 0.879435 1.17917 0
M  V30 7690 H 741.529 0.024256 4.17193 0
M  V30 7691 H 740.159 -0.543531 3.18191 0
M  V30 7692 H 739.211 1.87299 3.31094 0
M  V30 7693 H 740.523 2.26262 4.4453 0
M  V30 7694 H 739.677 0.532083 6.04362 0
M  V30 7695 H 738.416 0.0429854 4.87681 0
M  V30 7696 H 737.421 2.34586 4.97242 0
M  V30 7697 H 738.646 2.82982 6.17331 0
M  V30 7698 H 736.592 0.614518 6.53115 0
M  V30 7699 H 736.509 2.19665 7.23383 0
M  V30 7700 H 737.777 1.10945 7.71564 0
M  V30 7701 N 742.006 -1.2595 0.947325 0
M  V30 7702 C 742.939 -2.24559 0.406009 0
M  V30 7703 C 743.917 -1.54441 -0.508598 0
M  V30 7704 O 745.101 -1.83181 -0.444644 0
M  V30 7705 C 742.228 -3.36136 -0.415987 0
M  V30 7706 C 741.274 -4.24245 0.437969 0
M  V30 7707 S 742.107 -5.01948 1.86572 0
M  V30 7708 C 743.263 -6.16997 1.05194 0
M  V30 7709 H 743.496 -2.70128 1.24171 0
M  V30 7710 H 741.029 -1.34912 0.750874 0
M  V30 7711 H 742.987 -4.00861 -0.88433 0
M  V30 7712 H 741.648 -2.89167 -1.22643 0
M  V30 7713 H 740.841 -5.03634 -0.192127 0
M  V30 7714 H 740.443 -3.64416 0.841235 0
M  V30 7715 H 742.735 -6.76848 0.297126 0
M  V30 7716 H 743.678 -6.84324 1.8195 0
M  V30 7717 H 744.086 -5.61458 0.585294 0
M  V30 7718 N 743.484 -0.715051 -1.40445 0
M  V30 7719 C 744.732 -0.253826 -2.005 0
M  V30 7720 C 745.053 1.15681 -1.5698 0
M  V30 7721 O 744.323 1.78414 -0.809027 0
M  V30 7722 H 742.903 -0.0908537 -0.741454 0
M  V30 7723 H 745.565 -0.920561 -1.7179 0
M  V30 7724 H 744.661 -0.286499 -3.10782 0
M  V30 7725 N 744.962 1.50701 -0.461195 0
M  V30 7726 C 745.894 2.26124 0.374244 0
M  V30 7727 C 746.907 1.31064 0.965715 0
M  V30 7728 O 748.096 1.56647 0.855801 0
M  V30 7729 C 745.196 3.01996 1.5379 0
M  V30 7730 C 744.369 4.24336 1.06101 0
M  V30 7731 C 743.428 4.82585 2.09756 0
M  V30 7732 O 742.454 5.43775 1.68219 0
M  V30 7733 N 743.656 4.68712 3.42475 0
M  V30 7734 H 746.421 2.9846 -0.2723 0
M  V30 7735 H 743.982 1.59256 -0.291415 0
M  V30 7736 H 745.974 3.37846 2.22806 0
M  V30 7737 H 744.544 2.32521 2.08933 0
M  V30 7738 H 743.764 3.93707 0.197085 0
M  V30 7739 H 745.052 5.03678 0.720156 0
M  V30 7740 H 744.45 4.20026 3.78938 0
M  V30 7741 H 743.007 5.08858 4.07317 0
M  V30 7742 N 746.441 0.193421 1.56409 0
M  V30 7743 C 747.688 -0.445789 1.97532 0
M  V30 7744 C 748.016 -1.61744 1.08024 0
M  V30 7745 O 747.271 -1.95338 0.118982 0
M  V30 7746 C 747.57 -0.949718 3.44551 0
M  V30 7747 C 747.236 0.108383 4.5077 0
M  V30 7748 C 745.898 0.399126 4.79542 0
M  V30 7749 C 748.25 0.825423 5.14622 0
M  V30 7750 C 745.578 1.41192 5.69457 0
M  V30 7751 C 747.93 1.82735 6.05632 0
M  V30 7752 C 746.594 2.12531 6.32761 0
M  V30 7753 H 745.864 -0.163126 0.722822 0
M  V30 7754 H 748.511 0.290035 1.89291 0
M  V30 7755 H 746.816 -1.76378 3.49854 0
M  V30 7756 H 748.513 -1.45367 3.73724 0
M  V30 7757 H 745.103 -0.128392 4.28408 0
M  V30 7758 H 749.287 0.61403 4.92487 0
M  V30 7759 H 744.543 1.6487 5.88751 0
M  V30 7760 H 748.717 2.3882 6.5417 0
M  V30 7761 H 746.344 2.91155 7.02234 0
M  V30 7762 N 747.919 -1.57396 -0.0801906 0
M  V30 7763 C 749.335 -1.53564 -0.434778 0
M  V30 7764 C 749.535 -0.912372 -1.79661 0
M  V30 7765 O 748.591 -0.511268 -2.4727 0
M  V30 7766 C 749.904 -2.98244 -0.383561 0
M  V30 7767 C 751.452 -3.09536 -0.46435 0
M  V30 7768 C 751.927 -4.55851 -0.443128 0
M  V30 7769 N 753.418 -4.60456 -0.503448 0
M  V30 7770 C 754.153 -5.71135 -0.509106 0
M  V30 7771 N 753.649 -6.91203 -0.47008 0
M  V30 7772 N 755.442 -5.59353 -0.555035 0
M  V30 7773 H 747.593 -1.96281 0.811635 0
M  V30 7774 H 749.856 -0.898041 0.303689 0
M  V30 7775 H 749.562 -3.47369 0.550236 0
M  V30 7776 H 749.436 -3.57705 -1.19694 0
M  V30 7777 H 751.823 -2.6039 -1.38857 0
M  V30 7778 H 751.904 -2.53 0.377445 0
M  V30 7779 H 751.548 -5.05653 0.477207 0
M  V30 7780 H 751.478 -5.10242 -1.30234 0
M  V30 7781 H 753.969 -3.74048 -0.538199 0
M  V30 7782 H 754.282 -7.7132 -0.478091 0
M  V30 7783 H 752.627 -6.93625 -0.436897 0
M  V30 7784 H 755.818 -4.64453 -0.583158 0
M  V30 7785 H 755.991 -6.4561 -0.555976 0
M  V30 7786 N 749.397 0.351382 -1.53633 0
M  V30 7787 C 750.622 1.11718 -1.74739 0
M  V30 7788 C 751.047 1.81829 -0.481657 0
M  V30 7789 O 750.405 1.72264 0.565233 0
M  V30 7790 C 750.453 2.11234 -2.92254 0
M  V30 7791 O 749.557 3.186 -2.61855 0
M  V30 7792 H 748.898 0.323482 -0.579875 0
M  V30 7793 H 751.428 0.404167 -2.00568 0
M  V30 7794 H 751.438 2.54591 -3.18822 0
M  V30 7795 H 750.113 1.59599 -3.84058 0
M  V30 7796 H 748.69 2.80115 -2.4615 0
M  V30 7797 N 750.875 1.45233 0.611969 0
M  V30 7798 C 751.823 1.53898 1.74408 0
M  V30 7799 C 752.817 0.409254 1.64382 0
M  V30 7800 O 754.023 0.584988 1.70229 0
M  V30 7801 H 750.398 0.483303 0.576127 0
M  V30 7802 H 752.369 2.49143 1.64227 0
M  V30 7803 C 751.118 1.51865 3.12782 0
M  V30 7804 H 750.441 2.38118 3.21154 0
M  V30 7805 H 751.881 1.61986 3.91838 0
M  V30 7806 C 750.34 0.242374 3.36027 0
M  V30 7807 O 750.87 -0.679587 3.9591 0
M  V30 7808 N 749.076 0.139448 2.90265 0
M  V30 7809 H 748.623 0.890571 2.41716 0
M  V30 7810 H 748.581 -0.713686 3.06193 0
M  V30 7811 N 752.353 -0.854086 1.3245 0
M  V30 7812 C 753.303 -1.9508 1.18016 0
M  V30 7813 C 754.287 -1.60665 0.0869417 0
M  V30 7814 O 755.479 -1.74201 0.313505 0
M  V30 7815 C 752.608 -3.3113 0.905961 0
M  V30 7816 C 751.694 -3.71763 2.04091 0
M  V30 7817 N 752.085 -3.84218 3.28953 0
M  V30 7818 C 750.383 -4.01393 1.94421 0
M  V30 7819 C 751.084 -4.192 4.03294 0
M  V30 7820 N 750.06 -4.30749 3.31596 0
M  V30 7821 H 753.862 -2.02843 2.12678 0
M  V30 7822 H 751.376 -1.04588 1.24238 0
M  V30 7823 H 753.373 -4.09471 0.783508 0
M  V30 7824 H 752.033 -3.24684 -0.0322715 0
M  V30 7825 H 753.044 -3.68524 3.63883 0
M  V30 7826 H 749.721 -4.03246 1.08162 0
M  V30 7827 H 751.111 -4.36301 5.1097 0
M  V30 7828 N 753.831 -1.1567 -1.07043 0
M  V30 7829 C 754.761 -0.879348 -2.16309 0
M  V30 7830 C 755.742 0.171311 -1.69235 0
M  V30 7831 O 756.927 0.0250175 -1.94184 0
M  V30 7832 C 754.057 -0.371307 -3.45309 0
M  V30 7833 C 753.011 -1.359 -4.05851 0
M  V30 7834 C 752.337 -0.709678 -5.29969 0
M  V30 7835 C 753.637 -2.72606 -4.45514 0
M  V30 7836 H 755.331 -1.79308 -2.39768 0
M  V30 7837 H 752.877 -0.863558 -1.15233 0
M  V30 7838 H 754.83 -0.164798 -4.21078 0
M  V30 7839 H 753.554 0.577906 -3.21446 0
M  V30 7840 H 752.213 -1.55193 -3.32131 0
M  V30 7841 H 751.861 0.245782 -5.02399 0
M  V30 7842 H 751.561 -1.36886 -5.71433 0
M  V30 7843 H 753.085 -0.513015 -6.08441 0
M  V30 7844 H 754.499 -2.57141 -5.12398 0
M  V30 7845 H 752.896 -3.34927 -4.97939 0
M  V30 7846 H 753.966 -3.28434 -3.56734 0
M  V30 7847 N 755.309 1.25446 -0.953992 0
M  V30 7848 C 756.272 2.24156 -0.478179 0
M  V30 7849 C 757.272 1.55278 0.417776 0
M  V30 7850 O 758.462 1.72866 0.215155 0
M  V30 7851 C 755.594 3.39495 0.309202 0
M  V30 7852 H 756.787 2.67764 -1.35064 0
M  V30 7853 H 754.34 1.37822 -0.737206 0
M  V30 7854 H 755.075 3.01307 1.19936 0
M  V30 7855 H 754.86 3.90679 -0.333562 0
M  V30 7856 H 756.35 4.12796 0.631594 0
M  V30 7857 N 756.787 0.722489 1.40064 0
M  V30 7858 C 758.033 0.265371 2.01056 0
M  V30 7859 C 758.366 -1.14062 1.57174 0
M  V30 7860 O 757.641 -1.77514 0.794916 0
M  V30 7861 C 757.924 0.353157 3.58364 0
M  V30 7862 C 757.777 1.79802 4.123 0
M  V30 7863 C 759.096 -0.271677 4.39261 0
M  V30 7864 H 756.215 0.0979002 0.730469 0
M  V30 7865 H 758.857 0.916289 1.66446 0
M  V30 7866 H 757.007 -0.201037 3.87979 0
M  V30 7867 H 758.679 2.40813 3.93455 0
M  V30 7868 H 756.922 2.32348 3.66329 0
M  V30 7869 H 757.593 1.81079 5.21454 0
M  V30 7870 H 760.069 0.200607 4.15616 0
M  V30 7871 H 758.945 -0.179843 5.48605 0
M  V30 7872 H 759.206 -1.35611 4.20787 0
M  V30 7873 N 758.265 -1.50454 0.469181 0
M  V30 7874 C 759.513 -2.01916 -0.0862982 0
M  V30 7875 C 759.834 -1.35337 -1.40388 0
M  V30 7876 O 759.104 -0.498096 -1.89462 0
M  V30 7877 H 757.684 -0.746185 -0.0348825 0
M  V30 7878 H 760.346 -1.84804 0.619167 0
M  V30 7879 H 759.442 -3.11182 -0.239189 0
M  V30 7880 N 759.743 -0.201713 -1.56304 0
M  V30 7881 C 760.706 0.702811 -2.18159 0
M  V30 7882 C 761.706 1.13619 -1.13787 0
M  V30 7883 O 762.896 1.0482 -1.39134 0
M  V30 7884 C 760.028 1.96032 -2.78898 0
M  V30 7885 H 761.221 0.163836 -2.99452 0
M  V30 7886 H 758.774 0.04791 -1.56227 0
M  V30 7887 H 759.509 2.54165 -2.01421 0
M  V30 7888 H 759.294 1.65824 -3.55309 0
M  V30 7889 H 760.784 2.60519 -3.26373 0
M  V30 7890 N 761.222 1.57436 0.0718424 0
M  V30 7891 C 762.47 1.86878 0.769484 0
M  V30 7892 C 762.791 0.7937 1.78116 0
M  V30 7893 O 762.061 -0.177642 1.95093 0
M  V30 7894 H 760.641 0.689593 0.287177 0
M  V30 7895 H 763.303 1.94841 0.0479427 0
M  V30 7896 H 762.399 2.84387 1.28572 0
M  V30 7897 N 762.7 -0.34323 1.53817 0
M  V30 7898 C 763.61 -1.44493 1.84821 0
M  V30 7899 C 764.626 -1.57556 0.738381 0
M  V30 7900 O 765.802 -1.73026 1.03072 0
M  V30 7901 C 762.867 -2.79478 2.05166 0
M  V30 7902 C 761.928 -2.75756 3.29025 0
M  V30 7903 C 761.161 -4.04302 3.4839 0
M  V30 7904 O 761.384 -5.01595 2.71586 0
M  V30 7905 O 760.318 -4.08754 4.41819 0
M  V30 7906 H 764.144 -1.21209 2.78464 0
M  V30 7907 H 761.729 -0.535437 1.39476 0
M  V30 7908 H 763.611 -3.59419 2.19991 0
M  V30 7909 H 762.286 -3.02692 1.14713 0
M  V30 7910 H 761.193 -1.94434 3.19603 0
M  V30 7911 H 762.526 -2.57495 4.19472 0
M  V30 7912 N 764.178 -1.45556 -0.604258 0
M  V30 7913 C 765.128 -1.50906 -1.70913 0
M  V30 7914 C 766.112 -0.371996 -1.56541 0
M  V30 7915 O 767.304 -0.619064 -1.65821 0
M  V30 7916 C 764.433 -1.48181 -3.09673 0
M  V30 7917 C 763.519 -2.67102 -3.2942 0
M  V30 7918 N 763.91 -3.92184 -3.19414 0
M  V30 7919 C 762.208 -2.6287 -3.60299 0
M  V30 7920 C 762.909 -4.71571 -3.40581 0
M  V30 7921 N 761.885 -4.03081 -3.64728 0
M  V30 7922 H 765.687 -2.45435 -1.61675 0
M  V30 7923 H 763.201 -1.40894 -0.807622 0
M  V30 7924 H 765.198 -1.501 -3.88942 0
M  V30 7925 H 763.858 -0.54712 -3.20057 0
M  V30 7926 H 764.869 -4.23756 -2.97743 0
M  V30 7927 H 761.546 -1.78324 -3.77501 0
M  V30 7928 H 762.936 -5.80571 -3.38211 0
M  V30 7929 N 765.656 0.84705 -1.32902 0
M  V30 7930 C 767.072 1.13645 -1.12058 0
M  V30 7931 C 767.272 2.01281 0.093937 0
M  V30 7932 O 766.328 2.4026 0.776608 0
M  V30 7933 C 767.641 1.80644 -2.40392 0
M  V30 7934 C 769.189 1.93246 -2.46221 0
M  V30 7935 C 769.664 2.6366 -3.74496 0
M  V30 7936 N 771.155 2.71179 -3.75521 0
M  V30 7937 C 771.89 3.26332 -4.71482 0
M  V30 7938 N 771.386 3.82236 -5.77813 0
M  V30 7939 N 773.179 3.24507 -4.58968 0
M  V30 7940 H 765.33 0.263612 -2.10758 0
M  V30 7941 H 767.593 0.17944 -0.930863 0
M  V30 7942 H 767.299 1.23708 -3.29225 0
M  V30 7943 H 767.173 2.80736 -2.51926 0
M  V30 7944 H 769.56 2.49338 -1.57843 0
M  V30 7945 H 769.641 0.921272 -2.38634 0
M  V30 7946 H 769.285 2.08229 -4.63253 0
M  V30 7947 H 769.215 3.65234 -3.79357 0
M  V30 7948 H 771.706 2.31527 -2.9867 0
M  V30 7949 H 772.019 4.22499 -6.47082 0
M  V30 7950 H 770.364 3.80546 -5.81558 0
M  V30 7951 H 773.555 2.80085 -3.7506 0
M  V30 7952 H 773.728 3.67188 -5.33926 0
M  V30 7953 N 767.134 1.16236 1.06428 0
M  V30 7954 C 768.066 0.825446 2.1382 0
M  V30 7955 C 769.079 -0.166707 1.61944 0
M  V30 7956 O 770.268 0.0578606 1.78406 0
M  V30 7957 C 767.368 0.208023 3.38261 0
M  V30 7958 C 766.541 1.23994 4.19457 0
M  V30 7959 C 765.6 0.642569 5.22262 0
M  V30 7960 O 764.626 1.31106 5.53895 0
M  V30 7961 N 765.828 -0.571327 5.77682 0
M  V30 7962 H 768.593 1.7497 2.43322 0
M  V30 7963 H 766.154 1.05951 1.22417 0
M  V30 7964 H 768.146 -0.204608 4.04182 0
M  V30 7965 H 766.716 -0.619752 3.06395 0
M  V30 7966 H 765.936 1.82879 3.49212 0
M  V30 7967 H 767.224 1.93638 4.70512 0
M  V30 7968 H 766.622 -1.13263 5.54245 0
M  V30 7969 H 765.179 -0.926187 6.45186 0
M  V30 7970 N 768.612 -1.24939 0.960631 0
M  V30 7971 C 769.861 -1.92118 0.614298 0
M  V30 7972 C 770.174 -1.75998 -0.853474 0
M  V30 7973 O 771.38 -2.37804 -1.31003 0
M  V30 7974 C 769.836 -3.44303 1.04801 0
M  V30 7975 C 769.444 -3.69123 2.53875 0
M  V30 7976 C 771.188 -4.17375 0.774497 0
M  V30 7977 C 769.095 -5.14843 2.91016 0
M  V30 7978 H 768.025 -0.719319 0.226045 0
M  V30 7979 H 770.676 -1.41701 1.16589 0
M  V30 7980 H 769.058 -3.93715 0.42479 0
M  V30 7981 H 770.232 -3.30339 3.21267 0
M  V30 7982 H 768.547 -3.09323 2.78762 0
M  V30 7983 H 771.144 -5.24723 1.02808 0
M  V30 7984 H 771.487 -4.15294 -0.289192 0
M  V30 7985 H 772.02 -3.7389 1.35835 0
M  V30 7986 H 768.759 -5.2204 3.96427 0
M  V30 7987 H 768.279 -5.54652 2.28302 0
M  V30 7988 H 769.958 -5.83017 2.80535 0
M  V30 7989 N 770.09 -0.729906 -1.39679 0
M  V30 7990 C 771.053 -0.0951668 -2.29002 0
M  V30 7991 C 772.053 0.672471 -1.46063 0
M  V30 7992 O 773.243 0.502245 -1.66803 0
M  V30 7993 C 770.375 0.874631 -3.29489 0
M  V30 7994 H 771.568 -0.882062 -2.86635 0
M  V30 7995 H 769.121 -0.495424 -1.4824 0
M  V30 7996 H 769.856 1.68807 -2.76902 0
M  V30 7997 H 769.641 0.326893 -3.90735 0
M  V30 7998 H 771.131 1.31548 -3.96339 0
M  V30 7999 N 771.568 1.50203 -0.477153 0
M  V30 8000 C 772.531 2.27194 0.302599 0
M  V30 8001 C 773.531 1.32221 0.915112 0
M  V30 8002 O 774.721 1.55593 0.783348 0
M  V30 8003 C 771.853 3.0938 1.43167 0
M  V30 8004 H 773.046 2.97575 -0.372678 0
M  V30 8005 H 770.599 1.54578 -0.231392 0
M  V30 8006 H 771.334 2.43509 2.14182 0
M  V30 8007 H 771.119 3.79181 0.998197 0
M  V30 8008 H 772.609 3.67592 1.98157 0
M  V30 8009 N 773.046 0.209999 1.56195 0
M  V30 8010 C 774.271 -0.433064 2.02828 0
M  V30 8011 C 774.696 -1.5337 1.08901 0
M  V30 8012 O 774.054 -1.81144 0.0751132 0
M  V30 8013 C 774.102 -0.952635 3.47789 0
M  V30 8014 O 773.206 -2.0647 3.56993 0
M  V30 8015 H 772.547 -0.0994594 0.656509 0
M  V30 8016 H 775.077 0.32525 2.01998 0
M  V30 8017 H 775.087 -1.26542 3.8788 0
M  V30 8018 H 773.762 -0.147007 4.1564 0
M  V30 8019 H 772.339 -1.75942 3.28784 0
M  V30 8020 N 774.524 -1.57472 -0.0634922 0
M  V30 8021 C 775.935 -1.76303 -0.614337 0
M  V30 8022 C 776.286 -0.836578 -1.77471 0
M  V30 8023 O 775.411 -0.0227184 -2.16388 0
M  V30 8024 C 776.006 -3.19709 -1.12122 0
M  V30 8025 C 774.565 -3.39856 -1.61786 0
M  V30 8026 C 773.712 -2.71975 -0.540845 0
M  V30 8027 H 776.663 -1.57864 0.162702 0
M  V30 8028 H 776.684 -3.24326 -1.98979 0
M  V30 8029 H 776.196 -3.87114 -0.276472 0
M  V30 8030 H 774.297 -2.77578 -2.48558 0
M  V30 8031 H 774.41 -4.48338 -1.68908 0
M  V30 8032 H 772.774 -2.34763 -0.987854 0
M  V30 8033 H 773.557 -3.4204 0.293856 0
M  V30 8034 N 776.003 0.335068 -1.53997 0
M  V30 8035 C 777.233 1.0926 -1.75345 0
M  V30 8036 C 777.641 1.82568 -0.496545 0
M  V30 8037 O 776.984 1.75525 0.541897 0
M  V30 8038 C 777.046 2.14473 -2.88516 0
M  V30 8039 C 776.71 1.60665 -4.27827 0
M  V30 8040 C 777.707 1.05448 -5.09094 0
M  V30 8041 C 775.392 1.65255 -4.74337 0
M  V30 8042 C 777.386 0.555372 -6.34976 0
M  V30 8043 C 775.073 1.14956 -6.0019 0
M  V30 8044 C 776.071 0.601907 -6.80343 0
M  V30 8045 O 775.759 0.106445 -8.0383 0
M  V30 8046 H 775.491 0.331329 -0.589234 0
M  V30 8047 H 778.045 0.39042 -2.01655 0
M  V30 8048 H 776.275 2.88274 -2.5775 0
M  V30 8049 H 777.964 2.75857 -2.97755 0
M  V30 8050 H 778.73 1.01218 -4.74321 0
M  V30 8051 H 774.609 2.06822 -4.12002 0
M  V30 8052 H 778.153 0.127245 -6.97484 0
M  V30 8053 H 774.05 1.18891 -6.34457 0
M  V30 8054 H 774.818 0.222944 -8.18196 0
M  V30 8055 N 777.481 1.45874 0.596531 0
M  V30 8056 C 778.709 1.54013 1.38158 0
M  V30 8057 C 779.124 0.17648 1.87973 0
M  V30 8058 O 778.481 -0.823895 1.62844 0
M  V30 8059 C 778.532 2.53363 2.57855 0
M  V30 8060 O 778.253 3.8443 2.10108 0
M  V30 8061 C 779.754 2.71308 3.50581 0
M  V30 8062 H 776.974 0.521251 0.422538 0
M  V30 8063 H 779.518 1.9116 0.726493 0
M  V30 8064 H 777.673 2.19257 3.19382 0
M  V30 8065 H 778.087 4.38384 2.87958 0
M  V30 8066 H 779.561 3.44776 4.31084 0
M  V30 8067 H 780.038 1.77728 4.01633 0
M  V30 8068 H 780.644 3.06455 2.94899 0
M  V30 8069 N 778.959 -0.83999 1.33349 0
M  V30 8070 C 780.206 -1.59517 1.24742 0
M  V30 8071 C 780.534 -1.93598 -0.187077 0
M  V30 8072 O 779.789 -1.58782 -1.14398 0
M  V30 8073 C 780.088 -2.91571 2.06691 0
M  V30 8074 C 779.754 -2.76856 3.55895 0
M  V30 8075 C 778.416 -2.72551 3.96572 0
M  V30 8076 C 780.768 -2.61741 4.50712 0
M  V30 8077 C 778.096 -2.51028 5.30285 0
M  V30 8078 C 780.448 -2.41752 5.84584 0
M  V30 8079 C 779.112 -2.35848 6.24445 0
M  V30 8080 H 778.382 -0.583714 0.456463 0
M  V30 8081 H 781.029 -0.973261 1.64924 0
M  V30 8082 H 779.334 -3.57961 1.59284 0
M  V30 8083 H 781.031 -3.49053 1.9739 0
M  V30 8084 H 777.621 -2.81039 3.23597 0
M  V30 8085 H 781.805 -2.64102 4.20195 0
M  V30 8086 H 777.061 -2.44903 5.60208 0
M  V30 8087 H 781.235 -2.2904 6.57658 0
M  V30 8088 H 778.862 -2.18931 7.27993 0
M  V30 8089 N 780.437 -1.16799 -1.0581 0
M  V30 8090 C 781.662 -0.977402 -1.82925 0
M  V30 8091 C 782.087 0.469514 -1.82146 0
M  V30 8092 O 781.445 1.33576 -1.22585 0
M  V30 8093 C 781.493 -1.51543 -3.27211 0
M  V30 8094 O 780.597 -0.725021 -4.05977 0
M  V30 8095 H 779.938 -0.347474 -0.565825 0
M  V30 8096 H 782.468 -1.55151 -1.33376 0
M  V30 8097 H 782.478 -1.53502 -3.78023 0
M  V30 8098 H 781.153 -2.56872 -3.27093 0
M  V30 8099 H 779.73 -0.77634 -3.64729 0
M  V30 8100 N 781.915 1.24427 -0.967243 0
M  V30 8101 C 783.331 1.44684 -0.6737 0
M  V30 8102 C 783.531 1.86429 0.764625 0
M  V30 8103 O 782.587 2.00211 1.53857 0
M  V30 8104 C 783.9 2.509 -1.6574 0
M  V30 8105 C 785.448 2.64728 -1.66998 0
M  V30 8106 C 785.923 3.7414 -2.64165 0
M  V30 8107 N 787.414 3.81567 -2.62604 0
M  V30 8108 C 788.149 4.6575 -3.34462 0
M  V30 8109 N 787.645 5.54124 -4.15835 0
M  V30 8110 N 789.438 4.59827 -3.23288 0
M  V30 8111 H 781.589 0.956276 -1.89655 0
M  V30 8112 H 783.852 0.48171 -0.816492 0
M  V30 8113 H 783.558 2.27113 -2.68538 0
M  V30 8114 H 783.432 3.4905 -1.42981 0
M  V30 8115 H 785.819 2.87872 -0.649121 0
M  V30 8116 H 785.9 1.66936 -1.93819 0
M  V30 8117 H 785.544 3.51745 -3.66384 0
M  V30 8118 H 785.474 4.71444 -2.34623 0
M  V30 8119 H 787.965 3.18403 -2.03539 0
M  V30 8120 H 788.278 6.15316 -4.67553 0
M  V30 8121 H 786.623 5.53791 -4.19929 0
M  V30 8122 H 789.814 3.898 -2.59179 0
M  V30 8123 H 789.987 5.25208 -3.79553 0
M  V30 8124 N 783.393 0.737304 1.3929 0
M  V30 8125 C 784.621 0.296573 2.04763 0
M  V30 8126 C 785.036 -1.06941 1.55592 0
M  V30 8127 O 784.393 -1.67619 0.721822 0
M  V30 8128 C 784.444 0.291906 3.6032 0
M  V30 8129 O 784.165 1.60397 4.07682 0
M  V30 8130 C 785.666 -0.164708 4.42994 0
M  V30 8131 H 782.886 0.129251 0.658434 0
M  V30 8132 H 785.43 1.0016 1.78293 0
M  V30 8133 H 783.585 -0.364251 3.85684 0
M  V30 8134 H 783.999 1.51909 5.0202 0
M  V30 8135 H 785.473 -0.116814 5.51876 0
M  V30 8136 H 785.95 -1.21022 4.22197 0
M  V30 8137 H 786.556 0.461968 4.22784 0
M  V30 8138 N 784.871 -1.49948 0.485112 0
M  V30 8139 C 786.101 -2.06506 -0.0621921 0
M  V30 8140 C 786.509 -1.34756 -1.32806 0
M  V30 8141 O 785.852 -0.41466 -1.78959 0
M  V30 8142 C 785.914 -3.57243 -0.402182 0
M  V30 8143 C 785.578 -4.50574 0.763671 0
M  V30 8144 C 786.575 -4.93032 1.6497 0
M  V30 8145 C 784.26 -4.9308 0.957973 0
M  V30 8146 C 786.254 -5.76718 2.71432 0
M  V30 8147 C 783.941 -5.76546 2.0258 0
M  V30 8148 C 784.939 -6.18267 2.90232 0
M  V30 8149 O 784.627 -7.00066 3.95174 0
M  V30 8150 H 784.359 -0.675925 0.0100672 0
M  V30 8151 H 786.913 -1.93922 0.677023 0
M  V30 8152 H 785.143 -3.6778 -1.19478 0
M  V30 8153 H 786.832 -3.96107 -0.886219 0
M  V30 8154 H 787.598 -4.60851 1.51134 0
M  V30 8155 H 783.477 -4.60117 0.285144 0
M  V30 8156 H 787.021 -6.09203 3.39878 0
M  V30 8157 H 782.918 -6.0814 2.16417 0
M  V30 8158 H 783.686 -7.18343 3.92333 0
M  V30 8159 N 786.349 -0.21828 -1.56081 0
M  V30 8160 C 787.595 0.414921 -1.9851 0
M  V30 8161 C 787.928 1.59648 -1.10573 0
M  V30 8162 O 787.203 1.93818 -0.162695 0
M  V30 8163 C 787.486 0.852647 -3.4986 0
M  V30 8164 C 787.339 -0.33232 -4.48571 0
M  V30 8165 C 788.658 1.70998 -4.05521 0
M  V30 8166 H 785.777 0.149344 -0.72171 0
M  V30 8167 H 788.419 -0.313858 -1.8739 0
M  V30 8168 H 786.569 1.47362 -3.59467 0
M  V30 8169 H 788.241 -0.970418 -4.50977 0
M  V30 8170 H 786.484 -0.980302 -4.22578 0
M  V30 8171 H 787.155 0.0168407 -5.51997 0
M  V30 8172 H 789.631 1.18606 -3.98838 0
M  V30 8173 H 788.507 1.98517 -5.11744 0
M  V30 8174 H 788.768 2.67219 -3.52202 0
M  V30 8175 N 787.827 1.57504 0.0551401 0
M  V30 8176 C 788.737 2.08198 1.08124 0
M  V30 8177 C 789.753 1.01496 1.41331 0
M  V30 8178 O 790.929 1.33073 1.51174 0
M  V30 8179 C 787.994 2.52968 2.37083 0
M  V30 8180 C 787.055 3.7404 2.10696 0
M  V30 8181 C 786.288 4.16665 3.33505 0
M  V30 8182 O 786.511 3.59019 4.4324 0
M  V30 8183 O 785.445 5.09324 3.20737 0
M  V30 8184 H 789.271 2.95977 0.680518 0
M  V30 8185 H 786.856 1.46933 0.270401 0
M  V30 8186 H 788.738 2.82211 3.12946 0
M  V30 8187 H 787.413 1.6831 2.76502 0
M  V30 8188 H 786.32 3.49855 1.32484 0
M  V30 8189 H 787.653 4.59601 1.76148 0
M  V30 8190 N 789.305 -0.326896 1.54172 0
M  V30 8191 C 790.553 -1.06313 1.71878 0
M  V30 8192 C 790.874 -1.88652 0.493498 0
M  V30 8193 O 790.144 -1.89608 -0.492522 0
M  V30 8194 H 788.724 -0.39549 0.633716 0
M  V30 8195 H 791.386 -0.364139 1.91468 0
M  V30 8196 H 790.482 -1.73105 2.59694 0
M  V30 8197 N 790.784 -1.46188 -0.588786 0
M  V30 8198 C 792.061 -1.41659 -1.34878 0
M  V30 8199 C 792.441 -0.0968913 -2.10878 0
M  V30 8200 O 791.789 0.921468 -2.09096 0
M  V30 8201 C 791.999 -2.6424 -2.27988 0
M  V30 8202 C 793.347 -3.1013 -2.90008 0
M  V30 8203 O 794.371 -2.64745 -2.38303 0
M  V30 8204 O 793.23 -3.88944 -3.83908 0
M  V30 8205 H 790.324 -0.563058 -0.605718 0
M  V30 8206 H 792.87 -1.58346 -0.610309 0
M  V30 8207 H 791.642 -3.51853 -1.71217 0
M  V30 8208 H 791.265 -2.49982 -3.09184 0
M  V30 8209 N 792.262 0.832906 -1.33792 0
M  V30 8210 C 793.508 1.59089 -1.25772 0
M  V30 8211 C 793.841 1.93414 0.174601 0
M  V30 8212 O 793.116 1.59195 1.11746 0
M  V30 8213 C 793.399 2.89699 -2.13885 0
M  V30 8214 C 793.252 2.62017 -3.65605 0
M  V30 8215 C 794.571 3.91182 -2.01654 0
M  V30 8216 H 791.69 0.577232 -0.458227 0
M  V30 8217 H 794.332 0.960227 -1.6395 0
M  V30 8218 H 792.482 3.4352 -1.81456 0
M  V30 8219 H 794.154 2.14582 -4.08353 0
M  V30 8220 H 792.397 1.95621 -3.87189 0
M  V30 8221 H 793.068 3.55112 -4.2261 0
M  V30 8222 H 795.544 3.46684 -2.30107 0
M  V30 8223 H 794.42 4.80391 -2.65548 0
M  V30 8224 H 794.681 4.30861 -0.990536 0
M  V30 8225 N 793.74 1.17359 1.05189 0
M  V30 8226 C 795.017 0.871914 1.75091 0
M  V30 8227 C 795.397 -0.627821 2.01548 0
M  V30 8228 O 794.745 -1.5791 1.65156 0
M  V30 8229 C 794.955 1.70687 3.04413 0
M  V30 8230 C 796.303 1.92684 3.78362 0
M  V30 8231 O 797.327 1.67645 3.14282 0
M  V30 8232 O 796.186 2.34765 4.93505 0
M  V30 8233 H 793.28 0.322831 0.761386 0
M  V30 8234 H 795.826 1.28054 1.11357 0
M  V30 8235 H 794.598 2.72405 2.80911 0
M  V30 8236 H 794.221 1.29602 3.75884 0
M  V30 8237 N 795.218 -1.23913 0.973828 0
M  V30 8238 C 796.495 -1.87539 0.555729 0
M  V30 8239 C 796.875 -1.87641 -0.967162 0
M  V30 8240 O 796.223 -1.35335 -1.84111 0
M  V30 8241 C 796.433 -3.29359 1.15427 0
M  V30 8242 C 797.781 -4.06 1.24294 0
M  V30 8243 O 798.805 -3.38554 1.10723 0
M  V30 8244 O 797.664 -5.26689 1.45813 0
M  V30 8245 H 794.758 -0.805769 0.186188 0
M  V30 8246 H 797.304 -1.31838 1.06849 0
M  V30 8247 H 796.076 -3.23817 2.19678 0
M  V30 8248 H 795.699 -3.92642 0.625925 0
M  V30 8249 N 796.696 -0.74468 -1.38897 0
M  V30 8250 C 798.112 -0.421302 -1.53939 0
M  V30 8251 C 798.312 1.06668 -1.70951 0
M  V30 8252 O 797.368 1.85278 -1.71547 0
M  V30 8253 C 798.681 -1.21278 -2.75159 0
M  V30 8254 C 800.229 -1.20196 -2.89001 0
M  V30 8255 C 800.704 -1.97621 -4.13171 0
M  V30 8256 N 802.195 -1.94836 -4.2023 0
M  V30 8257 C 802.93 -2.51545 -5.15279 0
M  V30 8258 N 802.426 -3.1693 -6.16058 0
M  V30 8259 N 804.219 -2.41524 -5.07565 0
M  V30 8260 H 796.37 -1.70914 -1.26103 0
M  V30 8261 H 798.633 -0.724058 -0.611919 0
M  V30 8262 H 798.339 -2.26609 -2.68963 0
M  V30 8263 H 798.213 -0.823677 -3.68097 0
M  V30 8264 H 800.6 -0.156742 -2.94683 0
M  V30 8265 H 800.681 -1.63051 -1.97099 0
M  V30 8266 H 800.325 -3.02149 -4.0825 0
M  V30 8267 H 800.255 -1.52166 -5.04136 0
M  V30 8268 H 802.746 -1.4721 -3.48048 0
M  V30 8269 H 803.059 -3.57644 -6.85062 0
M  V30 8270 H 801.404 -3.21023 -6.16417 0
M  V30 8271 H 804.595 -1.90077 -4.27771 0
M  V30 8272 H 804.768 -2.86016 -5.81462 0
M  V30 8273 N 798.174 1.49689 -0.493057 0
M  V30 8274 C 799.42 2.02727 0.0543518 0
M  V30 8275 C 799.753 1.37264 1.37376 0
M  V30 8276 O 799.028 0.505644 1.87812 0
M  V30 8277 C 799.311 3.59456 0.215226 0
M  V30 8278 C 799.164 4.35459 -1.12675 0
M  V30 8279 C 800.483 4.29511 0.959586 0
M  V30 8280 H 797.602 0.736773 0.0182786 0
M  V30 8281 H 800.244 1.78792 -0.642924 0
M  V30 8282 H 798.394 3.79981 0.809122 0
M  V30 8283 H 800.066 4.2645 -1.75891 0
M  V30 8284 H 798.309 3.9833 -1.71801 0
M  V30 8285 H 798.98 5.43454 -0.967578 0
M  V30 8286 H 801.456 4.13594 0.455977 0
M  V30 8287 H 800.332 5.38939 1.04098 0
M  V30 8288 H 800.593 3.94202 2.00144 0
M  V30 8289 N 799.652 0.226554 1.55963 0
M  V30 8290 C 800.898 -0.404387 1.98727 0
M  V30 8291 C 801.231 -1.59059 1.11418 0
M  V30 8292 O 800.506 -1.93729 0.172971 0
M  V30 8293 C 800.789 -0.834081 3.50307 0
M  V30 8294 C 800.642 0.356104 4.48388 0
M  V30 8295 C 801.961 -1.68845 4.06423 0
M  V30 8296 H 799.08 -0.145515 0.722492 0
M  V30 8297 H 801.722 0.323791 1.87221 0
M  V30 8298 H 799.872 -1.45454 3.60244 0
M  V30 8299 H 801.544 0.99432 4.50456 0
M  V30 8300 H 799.787 1.0027 4.22053 0
M  V30 8301 H 800.458 0.0124333 5.51999 0
M  V30 8302 H 802.934 -1.16489 3.99461 0
M  V30 8303 H 801.81 -1.958 5.1279 0
M  V30 8304 H 802.071 -2.65347 3.53615 0
M  V30 8305 N 801.13 -1.57531 -0.0467866 0
M  V30 8306 C 802.376 -1.8873 -0.742218 0
M  V30 8307 C 802.709 -0.822084 -1.75941 0
M  V30 8308 O 801.984 0.164922 -1.938 0
M  V30 8309 C 802.267 -3.30586 -1.42776 0
M  V30 8310 C 802.12 -4.47785 -0.425285 0
M  V30 8311 C 803.439 -3.71068 -2.36636 0
M  V30 8312 H 800.558 -0.686406 -0.268359 0
M  V30 8313 H 803.2 -1.89999 -0.00511341 0
M  V30 8314 H 801.35 -3.29634 -2.05605 0
M  V30 8315 H 803.022 -4.60867 0.199721 0
M  V30 8316 H 801.265 -4.33037 0.25713 0
M  V30 8317 H 801.936 -5.43884 -0.943086 0
M  V30 8318 H 804.412 -3.73273 -1.83866 0
M  V30 8319 H 803.288 -4.71165 -2.81593 0
M  V30 8320 H 803.549 -3.02355 -3.22542 0
M  V30 8321 N 802.608 0.318715 -1.54344 0
M  V30 8322 C 803.854 1.05765 -1.73037 0
M  V30 8323 C 804.187 1.87514 -0.505181 0
M  V30 8324 O 803.462 1.88021 0.497838 0
M  V30 8325 C 803.745 1.97836 -3.00887 0
M  V30 8326 C 803.598 1.19384 -4.33668 0
M  V30 8327 C 804.917 2.97285 -3.24514 0
M  V30 8328 H 802.036 0.383104 -0.629603 0
M  V30 8329 H 804.678 0.333864 -1.87044 0
M  V30 8330 H 802.828 2.59552 -2.89076 0
M  V30 8331 H 804.5 0.600906 -4.57369 0
M  V30 8332 H 802.743 0.496198 -4.30953 0
M  V30 8333 H 803.414 1.87014 -5.19355 0
M  V30 8334 H 805.89 2.45693 -3.35819 0
M  V30 8335 H 804.766 3.58887 -4.15321 0
M  V30 8336 H 805.027 3.70003 -2.41971 0
M  V30 8337 N 804.086 1.46499 0.581025 0
M  V30 8338 C 805.332 1.52121 1.34116 0
M  V30 8339 C 805.665 0.173031 1.93428 0
M  V30 8340 O 804.94 -0.815729 1.76568 0
M  V30 8341 C 805.223 2.62108 2.46924 0
M  V30 8342 C 805.076 4.06462 1.92636 0
M  V30 8343 C 806.395 2.68167 3.48962 0
M  V30 8344 H 803.514 0.5538 0.486287 0
M  V30 8345 H 806.156 1.78443 0.652538 0
M  V30 8346 H 804.306 2.39794 3.05665 0
M  V30 8347 H 805.978 4.40068 1.3834 0
M  V30 8348 H 804.221 4.15862 1.23455 0
M  V30 8349 H 804.892 4.79152 2.74076 0
M  V30 8350 H 807.368 2.8823 3.00104 0
M  V30 8351 H 806.244 3.46942 4.2535 0
M  V30 8352 H 806.505 1.74284 4.06297 0
M  V30 8353 N 805.565 -0.825799 1.34232 0
M  V30 8354 C 806.813 -1.57873 1.26177 0
M  V30 8355 C 807.134 -1.94267 -0.168904 0
M  V30 8356 O 806.404 -1.62045 -1.10084 0
M  V30 8357 H 804.984 -0.585388 0.464037 0
M  V30 8358 H 807.646 -0.986163 1.6811 0
M  V30 8359 H 806.742 -2.50283 1.86453 0
M  V30 8360 N 807.043 -1.17915 -1.04565 0
M  V30 8361 C 808.006 -0.903787 -2.10628 0
M  V30 8362 C 809.006 0.10873 -1.60432 0
M  V30 8363 O 810.196 -0.124152 -1.73757 0
M  V30 8364 C 807.328 -0.355017 -3.39046 0
M  V30 8365 H 808.521 -1.84425 -2.3649 0
M  V30 8366 H 806.074 -0.990477 -1.2091 0
M  V30 8367 H 806.809 0.592297 -3.18845 0
M  V30 8368 H 806.594 -1.08484 -3.76794 0
M  V30 8369 H 808.084 -0.180891 -4.17208 0
M  V30 8370 N 808.521 1.23394 -0.980386 0
M  V30 8371 C 809.746 1.96384 -0.666935 0
M  V30 8372 C 810.171 1.72087 0.759456 0
M  V30 8373 O 809.529 0.992328 1.51732 0
M  V30 8374 C 809.577 3.47499 -0.963177 0
M  V30 8375 O 808.681 4.12363 -0.0552051 0
M  V30 8376 H 808.022 0.614797 -0.250839 0
M  V30 8377 H 810.552 1.56831 -1.31398 0
M  V30 8378 H 810.562 3.97953 -0.899877 0
M  V30 8379 H 809.237 3.6451 -2.00264 0
M  V30 8380 H 807.814 3.72499 -0.172914 0
M  V30 8381 N 809.999 0.752036 1.385 0
M  V30 8382 C 811.247 0.306895 1.99756 0
M  V30 8383 C 811.568 -1.11478 1.59992 0
M  V30 8384 O 810.838 -1.76206 0.856045 0
M  V30 8385 H 809.418 0.11048 0.738785 0
M  V30 8386 H 812.08 0.965785 1.69289 0
M  V30 8387 H 811.176 0.368797 3.09913 0
M  V30 8388 N 811.477 -1.49425 0.500989 0
M  V30 8389 C 812.387 -2.32899 -0.282011 0
M  V30 8390 C 813.403 -1.44632 -0.967346 0
M  V30 8391 O 814.579 -1.77654 -0.94873 0
M  V30 8392 C 811.644 -3.20069 -1.33253 0
M  V30 8393 C 810.705 -4.24186 -0.660636 0
M  V30 8394 C 809.938 -5.07191 -1.6611 0
M  V30 8395 O 810.161 -4.91712 -2.89094 0
M  V30 8396 O 809.095 -5.8948 -1.21643 0
M  V30 8397 H 812.921 -3.01038 0.401224 0
M  V30 8398 H 810.506 -1.47079 0.262323 0
M  V30 8399 H 812.388 -3.74071 -1.94033 0
M  V30 8400 H 811.063 -2.54625 -1.9987 0
M  V30 8401 H 809.97 -3.74098 -0.0130959 0
M  V30 8402 H 811.303 -4.92186 -0.0369179 0
M  V30 8403 N 812.955 -0.234822 -1.55841 0
M  V30 8404 C 814.183 0.397745 -2.03041 0
M  V30 8405 C 814.598 1.52405 -1.11437 0
M  V30 8406 O 813.955 1.82061 -0.126466 0
M  V30 8407 C 814.006 0.916919 -3.49678 0
M  V30 8408 O 813.727 -0.164493 -4.37791 0
M  V30 8409 C 815.228 1.62139 -4.12584 0
M  V30 8410 H 812.448 0.0959214 -0.664108 0
M  V30 8411 H 814.992 -0.355156 -2.01392 0
M  V30 8412 H 813.147 1.62004 -3.519 0
M  V30 8413 H 813.561 0.227794 -5.24005 0
M  V30 8414 H 815.035 1.93651 -5.16917 0
M  V30 8415 H 815.512 2.53918 -3.58361 0
M  V30 8416 H 816.118 0.963145 -4.14251 0
M  V30 8417 N 814.433 1.57553 0.0384317 0
M  V30 8418 C 815.661 1.93093 0.743141 0
M  V30 8419 C 816.076 0.833787 1.69391 0
M  V30 8420 O 815.433 -0.190532 1.81503 0
M  V30 8421 C 815.484 3.28533 1.50826 0
M  V30 8422 O 815.205 4.34032 0.595665 0
M  V30 8423 C 816.706 3.78297 2.31098 0
M  V30 8424 H 813.926 0.637486 0.20941 0
M  V30 8425 H 816.47 2.045 -0.00125154 0
M  V30 8426 H 814.625 3.18552 2.20462 0
M  V30 8427 H 815.039 5.12155 1.13124 0
M  V30 8428 H 816.513 4.75602 2.80191 0
M  V30 8429 H 816.99 3.09008 3.12107 0
M  V30 8430 H 817.596 3.91331 1.66555 0
M  V30 8431 N 815.911 -0.310526 1.54511 0
M  V30 8432 C 817.16 -1.0445 1.72549 0
M  V30 8433 C 817.473 -1.88748 0.513172 0
M  V30 8434 O 818.679 -2.65338 0.575165 0
M  V30 8435 C 817.135 -1.90665 3.05246 0
M  V30 8436 C 816.743 -1.11415 4.33925 0
M  V30 8437 C 818.487 -2.63719 3.32645 0
M  V30 8438 C 816.394 -1.96852 5.57677 0
M  V30 8439 H 815.324 -0.393676 0.643067 0
M  V30 8440 H 817.975 -0.302003 1.80998 0
M  V30 8441 H 816.357 -2.68864 2.90737 0
M  V30 8442 H 817.531 -0.378956 4.59239 0
M  V30 8443 H 815.846 -0.499853 4.13389 0
M  V30 8444 H 818.443 -3.27974 4.223 0
M  V30 8445 H 818.786 -3.32047 2.51098 0
M  V30 8446 H 819.319 -1.92574 3.48081 0
M  V30 8447 H 816.058 -1.33009 6.41864 0
M  V30 8448 H 815.578 -2.68069 5.36562 0
M  V30 8449 H 817.257 -2.55127 5.94575 0
M  V30 8450 N 817.389 -1.46805 -0.573248 0
M  V30 8451 C 818.666 -1.43082 -1.33368 0
M  V30 8452 C 819.046 -0.119252 -2.10763 0
M  V30 8453 O 818.394 0.899239 -2.10062 0
M  V30 8454 C 818.604 -2.66643 -2.25172 0
M  V30 8455 C 819.952 -3.13188 -2.86702 0
M  V30 8456 O 820.976 -2.67258 -2.35482 0
M  V30 8457 O 819.835 -3.92994 -3.79761 0
M  V30 8458 H 816.929 -0.569451 -0.599712 0
M  V30 8459 H 819.475 -1.58984 -0.59348 0
M  V30 8460 H 818.247 -3.53649 -1.67475 0
M  V30 8461 H 817.87 -2.53247 -3.06516 0
M  V30 8462 N 818.867 0.818669 -1.34668 0
M  V30 8463 C 820.113 1.57746 -1.27453 0
M  V30 8464 C 820.446 1.93588 0.154077 0
M  V30 8465 O 819.721 1.60371 1.10051 0
M  V30 8466 C 820.004 2.87414 -2.16945 0
M  V30 8467 C 819.857 2.58125 -3.68363 0
M  V30 8468 C 821.176 3.89021 -2.05792 0
M  V30 8469 H 818.295 0.572339 -0.464324 0
M  V30 8470 H 820.937 0.942784 -1.64959 0
M  V30 8471 H 819.087 3.41576 -1.85089 0
M  V30 8472 H 820.759 2.10239 -4.10606 0
M  V30 8473 H 819.002 1.91503 -3.89242 0
M  V30 8474 H 819.673 3.5061 -4.26353 0
M  V30 8475 H 822.149 3.44224 -2.33771 0
M  V30 8476 H 821.025 4.77548 -2.70628 0
M  V30 8477 H 821.286 4.29786 -1.03618 0
M  V30 8478 N 820.346 1.18468 1.03938 0
M  V30 8479 C 821.571 1.00638 1.81347 0
M  V30 8480 C 821.996 -0.440477 1.8287 0
M  V30 8481 O 821.354 -1.31609 1.24695 0
M  V30 8482 C 821.402 1.5673 3.24759 0
M  V30 8483 O 820.506 0.789517 4.04772 0
M  V30 8484 H 819.847 0.356432 0.560225 0
M  V30 8485 H 822.377 1.57253 1.30891 0
M  V30 8486 H 822.387 1.59496 3.75533 0
M  V30 8487 H 821.062 2.62043 3.22965 0
M  V30 8488 H 819.639 0.834267 3.63448 0
M  V30 8489 N 821.824 -1.22873 0.986916 0
M  V30 8490 C 823.049 -1.96028 0.677341 0
M  V30 8491 C 823.474 -1.72487 -0.750319 0
M  V30 8492 O 822.832 -1.00036 -1.51203 0
M  V30 8493 C 822.88 -3.46983 0.981593 0
M  V30 8494 O 821.984 -4.12328 0.0770729 0
M  V30 8495 H 821.325 -0.613458 0.254096 0
M  V30 8496 H 823.855 -1.56132 1.32227 0
M  V30 8497 H 823.865 -3.9747 0.920969 0
M  V30 8498 H 822.54 -3.63442 2.02194 0
M  V30 8499 H 821.117 -3.72402 0.192666 0
M  V30 8500 N 823.302 -0.75937 -1.38099 0
M  V30 8501 C 824.548 -0.318584 -2.00282 0
M  V30 8502 C 824.881 1.09854 -1.60143 0
M  V30 8503 O 824.156 1.75344 -0.841702 0
M  V30 8504 C 824.439 -0.448047 -3.57302 0
M  V30 8505 C 824.292 -1.9067 -4.07388 0
M  V30 8506 C 825.611 0.155119 -4.39827 0
M  V30 8507 H 822.73 -0.117233 -0.727616 0
M  V30 8508 H 825.372 -0.960097 -1.63958 0
M  V30 8509 H 823.522 0.0981003 -3.88376 0
M  V30 8510 H 825.194 -2.5116 -3.86932 0
M  V30 8511 H 823.437 -2.41979 -3.6004 0
M  V30 8512 H 824.108 -1.94841 -5.1647 0
M  V30 8513 H 826.584 -0.31073 -4.14938 0
M  V30 8514 H 825.46 0.0343264 -5.48889 0
M  V30 8515 H 825.721 1.24407 -4.24235 0
M  V30 8516 N 824.78 1.49157 -0.508906 0
M  V30 8517 C 826.027 2.02473 0.0327983 0
M  V30 8518 C 826.355 1.38792 1.36261 0
M  V30 8519 O 825.61 0.515576 1.88786 0
M  V30 8520 C 825.909 3.56687 0.225717 0
M  V30 8521 C 825.575 4.39046 -1.02708 0
M  V30 8522 C 824.237 4.61271 -1.37048 0
M  V30 8523 C 826.589 4.86902 -1.85946 0
M  V30 8524 C 823.917 5.28598 -2.54562 0
M  V30 8525 C 826.269 5.55521 -3.0262 0
M  V30 8526 C 824.933 5.7599 -3.3733 0
M  V30 8527 H 824.203 0.740903 0.0120017 0
M  V30 8528 H 826.85 1.79372 -0.670665 0
M  V30 8529 H 825.155 3.78511 1.01177 0
M  V30 8530 H 826.852 3.95541 0.659433 0
M  V30 8531 H 823.442 4.21994 -0.749615 0
M  V30 8532 H 827.626 4.69553 -1.6073 0
M  V30 8533 H 822.882 5.42646 -2.81682 0
M  V30 8534 H 827.056 5.91576 -3.67438 0
M  V30 8535 H 824.683 6.27934 -4.2849 0
M  V30 8536 N 826.258 0.243083 1.55714 0
M  V30 8537 C 827.483 -0.389944 2.03701 0
M  V30 8538 C 827.908 -1.51025 1.12129 0
M  V30 8539 O 827.266 -1.80944 0.11352 0
M  V30 8540 C 827.314 -0.878649 3.49731 0
M  V30 8541 O 826.418 -1.98851 3.61292 0
M  V30 8542 H 825.759 -0.0855115 0.658471 0
M  V30 8543 H 828.289 0.368023 2.01263 0
M  V30 8544 H 828.299 -1.18287 3.90477 0
M  V30 8545 H 826.974 -0.0588107 4.15858 0
M  V30 8546 H 825.551 -1.68928 3.32442 0
M  V30 8547 N 827.736 -1.57571 -0.0300757 0
M  V30 8548 C 829.013 -1.80381 -0.756447 0
M  V30 8549 C 829.393 -0.840906 -1.93628 0
M  V30 8550 O 828.741 0.117143 -2.282 0
M  V30 8551 C 828.951 -3.2807 -1.19043 0
M  V30 8552 C 830.299 -3.93025 -1.60676 0
M  V30 8553 O 831.323 -3.32213 -1.28503 0
M  V30 8554 O 830.182 -5.00092 -2.20386 0
M  V30 8555 H 827.276 -0.741737 -0.365725 0
M  V30 8556 H 829.822 -1.69699 -0.00693177 0
M  V30 8557 H 828.594 -3.89748 -0.348128 0
M  V30 8558 H 828.217 -3.43637 -1.99999 0
M  V30 8559 N 829.214 0.302327 -1.54673 0
M  V30 8560 C 830.462 1.03565 -1.73547 0
M  V30 8561 C 830.783 1.87843 -0.523448 0
M  V30 8562 O 830.053 1.90367 0.462295 0
M  V30 8563 H 828.633 0.385358 -0.639928 0
M  V30 8564 H 831.295 0.333632 -1.92023 0
M  V30 8565 H 830.391 1.68952 -2.62415 0
M  V30 8566 N 830.692 1.47107 0.565454 0
M  V30 8567 C 831.624 1.55024 1.6882 0
M  V30 8568 C 832.637 0.4371 1.56822 0
M  V30 8569 O 833.826 0.706315 1.63931 0
M  V30 8570 C 830.926 1.43069 3.0722 0
M  V30 8571 C 830.099 2.68807 3.45053 0
M  V30 8572 C 829.158 2.50806 4.62583 0
M  V30 8573 O 828.184 3.24593 4.67577 0
M  V30 8574 N 829.386 1.58093 5.58558 0
M  V30 8575 H 832.151 2.51836 1.62477 0
M  V30 8576 H 829.712 1.43382 0.751885 0
M  V30 8577 H 831.704 1.28773 3.83666 0
M  V30 8578 H 830.274 0.543721 3.07835 0
M  V30 8579 H 829.494 2.97923 2.58138 0
M  V30 8580 H 830.782 3.52298 3.67101 0
M  V30 8581 H 830.18 0.972807 5.57273 0
M  V30 8582 H 828.737 1.49753 6.34364 0
M  V30 8583 N 832.17 -0.811516 1.35101 0
M  V30 8584 C 833.102 -1.93102 1.23468 0
M  V30 8585 C 834.115 -1.62021 0.159095 0
M  V30 8586 O 835.304 -1.73682 0.411945 0
M  V30 8587 C 832.404 -3.27345 0.877404 0
M  V30 8588 C 831.577 -3.86368 2.05033 0
M  V30 8589 C 830.636 -4.99009 1.66963 0
M  V30 8590 O 829.662 -5.16698 2.38772 0
M  V30 8591 N 830.864 -5.7749 0.590394 0
M  V30 8592 H 833.629 -2.0361 2.19916 0
M  V30 8593 H 831.19 -0.988687 1.28205 0
M  V30 8594 H 833.182 -4.00163 0.604298 0
M  V30 8595 H 831.752 -3.126 0.00275267 0
M  V30 8596 H 830.972 -3.05804 2.48752 0
M  V30 8597 H 832.26 -4.22533 2.83449 0
M  V30 8598 H 831.658 -5.657 -0.00633259 0
M  V30 8599 H 830.215 -6.50708 0.377055 0
M  V30 8600 N 833.648 -1.19017 -1.03309 0
M  V30 8601 C 834.894 -0.991681 -1.769 0
M  V30 8602 C 835.227 0.476813 -1.88255 0
M  V30 8603 O 834.502 1.35407 -1.39625 0
M  V30 8604 C 834.785 -1.65627 -3.19749 0
M  V30 8605 C 834.638 -3.19813 -3.1629 0
M  V30 8606 C 835.957 -1.37579 -4.18043 0
M  V30 8607 H 833.076 -0.361674 -0.642153 0
M  V30 8608 H 835.718 -1.46795 -1.20628 0
M  V30 8609 H 833.868 -1.25132 -3.67796 0
M  V30 8610 H 835.54 -3.69494 -2.76174 0
M  V30 8611 H 833.783 -3.51578 -2.54117 0
M  V30 8612 H 834.454 -3.61457 -4.17196 0
M  V30 8613 H 836.93 -1.72679 -3.78578 0
M  V30 8614 H 835.806 -1.86636 -5.16196 0
M  V30 8615 H 836.067 -0.300118 -4.4108 0
M  V30 8616 N 835.127 1.22348 -0.993418 0
M  V30 8617 C 836.543 1.43222 -0.704238 0
M  V30 8618 C 836.743 1.88009 0.724909 0
M  V30 8619 O 835.799 2.03429 1.49575 0
M  V30 8620 C 837.112 2.47328 -1.71025 0
M  V30 8621 C 838.66 2.61126 -1.72576 0
M  V30 8622 C 839.135 3.68453 -2.72041 0
M  V30 8623 N 840.626 3.75911 -2.70639 0
M  V30 8624 C 841.361 4.58551 -3.44266 0
M  V30 8625 N 840.857 5.45179 -4.27495 0
M  V30 8626 N 842.65 4.52866 -3.32969 0
M  V30 8627 H 834.801 0.915832 -1.91641 0
M  V30 8628 H 837.064 0.464283 -0.826526 0
M  V30 8629 H 836.77 2.21366 -2.73295 0
M  V30 8630 H 836.644 3.45939 -1.50353 0
M  V30 8631 H 839.031 2.86431 -0.710037 0
M  V30 8632 H 839.112 1.62787 -1.97317 0
M  V30 8633 H 838.756 3.43895 -3.73763 0
M  V30 8634 H 838.686 4.66362 -2.4457 0
M  V30 8635 H 841.177 3.14014 -2.10247 0
M  V30 8636 H 841.49 6.0526 -4.80499 0
M  V30 8637 H 839.835 5.44759 -4.31582 0
M  V30 8638 H 843.026 3.84215 -2.67389 0
M  V30 8639 H 843.199 5.17039 -3.90608 0
M  V30 8640 N 836.605 0.766683 1.37694 0
M  V30 8641 C 837.882 0.25366 1.93948 0
M  V30 8642 C 838.262 -1.25041 1.70082 0
M  V30 8643 O 837.61 -2.03115 1.04674 0
M  V30 8644 C 837.82 0.621549 3.43421 0
M  V30 8645 C 839.168 0.588504 4.20502 0
M  V30 8646 O 840.192 0.560632 3.5176 0
M  V30 8647 O 839.051 0.61107 5.43073 0
M  V30 8648 H 836.145 0.0570586 0.825029 0
M  V30 8649 H 838.691 0.847693 1.47011 0
M  V30 8650 H 837.463 1.65979 3.54354 0
M  V30 8651 H 837.086 0.000197027 3.976 0
M  V30 8652 N 838.083 -1.48885 0.516809 0
M  V30 8653 C 839.33 -2.02488 -0.0220602 0
M  V30 8654 C 839.658 -1.39513 -1.35523 0
M  V30 8655 O 838.913 -0.52558 -1.8851 0
M  V30 8656 C 839.212 -3.56801 -0.206798 0
M  V30 8657 C 838.878 -4.38496 1.05035 0
M  V30 8658 C 837.54 -4.60538 1.39492 0
M  V30 8659 C 839.892 -4.85909 1.88525 0
M  V30 8660 C 837.22 -5.2724 2.57361 0
M  V30 8661 C 839.572 -5.53909 3.05561 0
M  V30 8662 C 838.236 -5.74193 3.4038 0
M  V30 8663 H 837.506 -0.740956 -0.00807238 0
M  V30 8664 H 840.153 -1.79014 0.680168 0
M  V30 8665 H 838.458 -3.79042 -0.991687 0
M  V30 8666 H 840.155 -3.95885 -0.638447 0
M  V30 8667 H 836.745 -4.2159 0.771984 0
M  V30 8668 H 840.929 -4.68694 1.63218 0
M  V30 8669 H 836.185 -5.41145 2.84556 0
M  V30 8670 H 840.359 -5.89619 3.7057 0
M  V30 8671 H 837.986 -6.25652 4.31814 0
M  V30 8672 N 839.561 -0.251338 -1.55583 0
M  V30 8673 C 840.791 0.375642 -2.03156 0
M  V30 8674 C 841.199 1.51761 -1.12983 0
M  V30 8675 O 840.542 1.83184 -0.13757 0
M  V30 8676 C 840.604 0.941001 -3.46966 0
M  V30 8677 C 840.268 -0.0692886 -4.56947 0
M  V30 8678 C 841.265 -0.88041 -5.12391 0
M  V30 8679 C 838.95 -0.196661 -5.01915 0
M  V30 8680 C 840.944 -1.80532 -6.11299 0
M  V30 8681 C 838.631 -1.12507 -6.00654 0
M  V30 8682 C 839.629 -1.92792 -6.55225 0
M  V30 8683 O 839.317 -2.84067 -7.52038 0
M  V30 8684 H 839.049 0.0928836 -0.669588 0
M  V30 8685 H 841.603 -0.374115 -2.01964 0
M  V30 8686 H 839.833 1.7404 -3.45322 0
M  V30 8687 H 841.522 1.47853 -3.78014 0
M  V30 8688 H 842.288 -0.792615 -4.78479 0
M  V30 8689 H 838.167 0.418187 -4.59099 0
M  V30 8690 H 841.711 -2.43239 -6.5382 0
M  V30 8691 H 837.608 -1.21377 -6.33986 0
M  V30 8692 H 838.376 -2.78479 -7.6967 0
M  V30 8693 N 841.039 1.57585 0.0217189 0
M  V30 8694 C 842.267 1.93871 0.722619 0
M  V30 8695 C 842.682 0.851706 1.68498 0
M  V30 8696 O 842.039 -0.17127 1.81695 0
M  V30 8697 C 842.09 3.30114 1.47333 0
M  V30 8698 O 841.811 4.34639 0.549597 0
M  V30 8699 C 843.312 3.80727 2.27072 0
M  V30 8700 H 840.532 0.639671 0.202637 0
M  V30 8701 H 843.076 2.04487 -0.0229414 0
M  V30 8702 H 841.231 3.20872 2.17071 0
M  V30 8703 H 841.645 5.13326 1.07686 0
M  V30 8704 H 843.119 4.78547 2.75131 0
M  V30 8705 H 843.596 3.12301 3.08812 0
M  V30 8706 H 844.202 3.93075 1.62395 0
M  V30 8707 N 842.517 -0.29412 1.54831 0
M  V30 8708 C 843.765 -1.02643 1.74094 0
M  V30 8709 C 844.086 -1.87563 0.533402 0
M  V30 8710 O 843.356 -1.9061 -0.452192 0
M  V30 8711 H 841.936 -0.381959 0.641963 0
M  V30 8712 H 844.598 -0.323444 1.92197 0
M  V30 8713 H 843.694 -1.67558 2.63307 0
M  V30 8714 N 843.995 -1.47404 -0.557645 0
M  V30 8715 C 844.943 -1.60265 -1.68576 0
M  V30 8716 C 845.937 -0.469982 -1.6275 0
M  V30 8717 O 847.143 -0.647764 -1.67941 0
M  V30 8718 H 843.518 -0.504353 -0.557792 0
M  V30 8719 H 845.489 -2.55066 -1.54867 0
M  V30 8720 C 844.238 -1.63369 -3.0693 0
M  V30 8721 H 843.561 -2.49874 -3.12095 0
M  V30 8722 H 845.001 -1.76417 -3.85556 0
M  V30 8723 C 843.46 -0.366921 -3.34896 0
M  V30 8724 O 843.99 0.53218 -3.98159 0
M  V30 8725 N 842.196 -0.247082 -2.89548 0
M  V30 8726 H 841.743 -0.979669 -2.38244 0
M  V30 8727 H 841.701 0.599552 -3.0863 0
M  V30 8728 N 845.473 0.80434 -1.35529 0
M  V30 8729 C 846.719 1.56385 -1.29118 0
M  V30 8730 C 847.052 1.9374 0.133536 0
M  V30 8731 O 846.327 1.6153 1.08344 0
M  V30 8732 C 846.61 2.85097 -2.19981 0
M  V30 8733 C 846.463 2.54204 -3.7108 0
M  V30 8734 C 847.782 3.86817 -2.09907 0
M  V30 8735 H 844.901 0.567382 -0.470368 0
M  V30 8736 H 847.543 0.925235 -1.6595 0
M  V30 8737 H 845.693 3.39594 -1.88701 0
M  V30 8738 H 847.365 2.05872 -4.12813 0
M  V30 8739 H 845.608 1.87364 -3.91251 0
M  V30 8740 H 846.279 3.46068 -4.30048 0
M  V30 8741 H 848.755 3.41725 -2.37409 0
M  V30 8742 H 847.631 4.7465 -2.75678 0
M  V30 8743 H 847.892 4.28663 -1.08171 0
M  V30 8744 N 846.951 1.19563 1.02676 0
M  V30 8745 C 848.179 1.02488 1.79732 0
M  V30 8746 C 848.594 -0.426302 1.83924 0
M  V30 8747 O 847.951 -1.29609 1.28483 0
M  V30 8748 C 848.002 1.58944 3.24683 0
M  V30 8749 O 847.723 2.98382 3.2078 0
M  V30 8750 C 849.224 1.46681 4.1833 0
M  V30 8751 H 846.444 0.361098 0.565552 0
M  V30 8752 H 848.988 1.58426 1.29311 0
M  V30 8753 H 847.143 1.0715 3.72287 0
M  V30 8754 H 847.557 3.24983 4.11687 0
M  V30 8755 H 849.031 1.90959 5.17918 0
M  V30 8756 H 849.508 0.417663 4.3721 0
M  V30 8757 H 850.114 1.97616 3.76601 0
M  V30 8758 N 848.429 -1.21819 0.999893 0
M  V30 8759 C 849.675 -1.91035 0.680701 0
M  V30 8760 C 850.008 -1.77582 -0.786021 0
M  V30 8761 O 849.283 -1.14917 -1.56921 0
M  V30 8762 C 849.566 -3.43013 1.0961 0
M  V30 8763 C 849.419 -3.65481 2.6219 0
M  V30 8764 C 850.738 -4.35204 0.654616 0
M  V30 8765 H 847.857 -0.693748 0.248763 0
M  V30 8766 H 850.499 -1.43555 1.24466 0
M  V30 8767 H 848.649 -3.83581 0.616253 0
M  V30 8768 H 850.321 -3.34273 3.17899 0
M  V30 8769 H 848.564 -3.09522 3.03938 0
M  V30 8770 H 849.235 -4.71945 2.86307 0
M  V30 8771 H 851.711 -4.0219 1.06688 0
M  V30 8772 H 850.587 -5.40198 0.973492 0
M  V30 8773 H 850.848 -4.3986 -0.444458 0
M  V30 8774 N 849.908 -0.773975 -1.37286 0
M  V30 8775 C 851.154 -0.339809 -1.99933 0
M  V30 8776 C 851.487 1.0815 -1.61299 0
M  V30 8777 O 850.762 1.74442 -0.860252 0
M  V30 8778 C 851.045 -0.485919 -3.56806 0
M  V30 8779 C 850.898 -1.9498 -4.05343 0
M  V30 8780 C 852.217 0.108461 -4.39966 0
M  V30 8781 H 849.336 -0.124944 -0.726332 0
M  V30 8782 H 851.978 -0.977433 -1.6293 0
M  V30 8783 H 850.128 0.0569023 -3.88458 0
M  V30 8784 H 851.8 -2.5525 -3.84246 0
M  V30 8785 H 850.043 -2.45784 -3.57453 0
M  V30 8786 H 850.714 -2.00308 -5.14374 0
M  V30 8787 H 853.19 -0.354722 -4.14585 0
M  V30 8788 H 852.066 -0.0238926 -5.48895 0
M  V30 8789 H 852.327 1.19901 -4.25531 0
M  V30 8790 N 851.386 1.48609 -0.524698 0
M  V30 8791 C 852.296 2.33318 0.244923 0
M  V30 8792 C 853.312 1.46153 0.944214 0
M  V30 8793 O 854.488 1.79141 0.920347 0
M  V30 8794 C 851.553 3.22149 1.28144 0
M  V30 8795 C 850.614 4.25184 0.593068 0
M  V30 8796 C 849.847 5.0977 1.5802 0
M  V30 8797 O 850.07 4.96249 2.81235 0
M  V30 8798 O 849.004 5.9134 1.1225 0
M  V30 8799 H 852.83 3.00362 -0.449066 0
M  V30 8800 H 850.415 1.46643 -0.285689 0
M  V30 8801 H 852.297 3.77111 1.88057 0
M  V30 8802 H 850.972 2.57772 1.95793 0
M  V30 8803 H 849.879 3.74071 -0.0464214 0
M  V30 8804 H 851.212 4.92183 -0.0413893 0
M  V30 8805 N 852.864 0.259585 1.55447 0
M  V30 8806 C 853.812 -0.6507 2.23313 0
M  V30 8807 C 854.806 -1.17014 1.22491 0
M  V30 8808 O 856.012 -1.12557 1.40467 0
M  V30 8809 H 852.387 -0.228354 0.71649 0
M  V30 8810 H 854.358 -0.0553039 2.98349 0
M  V30 8811 C 853.107 -1.83081 2.95596 0
M  V30 8812 H 852.43 -1.44027 3.72956 0
M  V30 8813 H 853.87 -2.44469 3.46426 0
M  V30 8814 C 852.329 -2.70976 2.00184 0
M  V30 8815 O 852.859 -3.70882 1.54304 0
M  V30 8816 N 851.065 -2.37813 1.67014 0
M  V30 8817 H 850.612 -1.5662 2.04519 0
M  V30 8818 H 850.57 -2.96896 1.03443 0
M  V30 8819 N 854.342 -1.57594 -0.0133615 0
M  V30 8820 C 855.59 -1.89605 -0.699596 0
M  V30 8821 C 855.911 -0.85926 -1.75048 0
M  V30 8822 O 855.181 0.105112 -1.95618 0
M  V30 8823 H 853.761 -0.699776 -0.261385 0
M  V30 8824 H 856.423 -1.94885 0.0244044 0
M  V30 8825 H 855.519 -2.88962 -1.17928 0
M  V30 8826 N 855.82 0.285905 -1.54985 0
M  V30 8827 C 856.77 1.35505 -1.83364 0
M  V30 8828 C 857.754 1.45273 -0.691698 0
M  V30 8829 O 858.946 1.49172 -0.952725 0
M  V30 8830 C 856.075 2.71756 -2.0977 0
M  V30 8831 C 855.161 2.6615 -3.30189 0
M  V30 8832 N 855.552 2.30161 -4.50399 0
M  V30 8833 C 853.85 2.97232 -3.3252 0
M  V30 8834 C 854.551 2.34228 -5.32459 0
M  V30 8835 N 853.527 2.72187 -4.70548 0
M  V30 8836 H 857.329 1.06668 -2.7386 0
M  V30 8837 H 854.843 0.494521 -1.54688 0
M  V30 8838 H 856.84 3.48864 -2.28253 0
M  V30 8839 H 855.5 3.01492 -1.20551 0
M  V30 8840 H 856.511 2.02358 -4.7673 0
M  V30 8841 H 853.188 3.31764 -2.53454 0
M  V30 8842 H 854.578 2.09074 -6.38543 0
M  V30 8843 N 857.298 1.47698 0.54982 0
M  V30 8844 C 858.544 1.54931 1.30859 0
M  V30 8845 C 858.877 0.214021 1.93017 0
M  V30 8846 O 858.152 -0.778093 1.78258 0
M  V30 8847 C 858.435 2.67286 2.41309 0
M  V30 8848 C 858.288 4.10457 1.83971 0
M  V30 8849 C 859.607 2.75509 3.43195 0
M  V30 8850 H 856.726 0.56399 0.474431 0
M  V30 8851 H 859.368 1.79787 0.614541 0
M  V30 8852 H 857.518 2.46224 3.0051 0
M  V30 8853 H 859.19 4.42903 1.28974 0
M  V30 8854 H 857.433 4.18387 1.14606 0
M  V30 8855 H 858.104 4.84857 2.63851 0
M  V30 8856 H 860.58 2.94531 2.93923 0
M  V30 8857 H 859.456 3.55886 4.17895 0
M  V30 8858 H 859.717 1.82863 4.02509 0
M  V30 8859 N 858.776 -0.797141 1.35954 0
M  V30 8860 C 860.004 -1.5858 1.32891 0
M  V30 8861 C 860.419 -1.88578 -0.0915564 0
M  V30 8862 O 859.776 -1.49532 -1.04625 0
M  V30 8863 C 859.827 -2.91143 2.14284 0
M  V30 8864 O 859.548 -2.62442 3.50793 0
M  V30 8865 C 861.049 -3.85476 2.18914 0
M  V30 8866 H 858.269 -0.492111 0.456144 0
M  V30 8867 H 860.813 -0.98994 1.78943 0
M  V30 8868 H 858.968 -3.47219 1.71807 0
M  V30 8869 H 859.382 -3.4715 3.93175 0
M  V30 8870 H 860.856 -4.75574 2.80238 0
M  V30 8871 H 861.333 -4.22758 1.19047 0
M  V30 8872 H 861.939 -3.35334 2.61593 0
M  V30 8873 N 860.254 -1.20106 -1.0204 0
M  V30 8874 C 861.501 -1.00889 -1.75578 0
M  V30 8875 C 861.829 0.459415 -1.88996 0
M  V30 8876 O 861.084 1.35735 -1.40977 0
M  V30 8877 C 861.383 -1.63308 -3.17908 0
M  V30 8878 C 861.049 -3.13091 -3.24476 0
M  V30 8879 C 859.711 -3.53968 -3.25976 0
M  V30 8880 C 862.063 -4.09093 -3.22944 0
M  V30 8881 C 859.391 -4.89381 -3.2361 0
M  V30 8882 C 861.743 -5.44447 -3.22119 0
M  V30 8883 C 860.407 -5.84742 -3.2192 0
M  V30 8884 H 859.677 -0.36918 -0.642485 0
M  V30 8885 H 862.324 -1.49475 -1.19706 0
M  V30 8886 H 860.629 -1.06974 -3.76914 0
M  V30 8887 H 862.326 -1.45958 -3.73493 0
M  V30 8888 H 858.916 -2.80526 -3.24042 0
M  V30 8889 H 863.1 -3.78549 -3.20958 0
M  V30 8890 H 858.356 -5.1987 -3.21785 0
M  V30 8891 H 862.53 -6.18584 -3.19885 0
M  V30 8892 H 860.157 -6.89642 -3.19841 0
M  V30 8893 N 861.732 1.21287 -1.00634 0
M  V30 8894 C 863.143 1.72136 -0.722914 0
M  V30 8895 C 863.494 1.8091 0.759338 0
M  V30 8896 O 862.619 1.46458 1.59308 0
M  V30 8897 C 863.214 3.12633 -1.30561 0
M  V30 8898 C 861.773 3.60833 -1.07127 0
M  V30 8899 C 860.92 2.38326 -1.4176 0
M  V30 8900 H 863.871 1.06445 -1.17708 0
M  V30 8901 H 863.892 3.74174 -0.690937 0
M  V30 8902 H 863.404 3.06215 -2.38441 0
M  V30 8903 H 861.505 3.72599 -0.00968671 0
M  V30 8904 H 861.618 4.46226 -1.74411 0
M  V30 8905 H 859.982 2.40575 -0.836412 0
M  V30 8906 H 860.765 2.34558 -2.50674 0
M  V30 8907 N 863.21 0.781244 1.36873 0
M  V30 8908 C 864.173 0.180094 2.28491 0
M  V30 8909 C 865.173 -0.617798 1.48458 0
M  V30 8910 O 866.363 -0.439991 1.68552 0
M  V30 8911 C 863.495 -0.751741 3.32508 0
M  V30 8912 H 864.688 0.987837 2.83164 0
M  V30 8913 H 862.241 0.550102 1.463 0
M  V30 8914 H 862.976 -1.58413 2.82977 0
M  V30 8915 H 862.761 -0.181649 3.91679 0
M  V30 8916 H 864.251 -1.16748 4.00949 0
M  V30 8917 N 864.689 -1.48329 0.532571 0
M  V30 8918 C 865.639 -2.2664 -0.24868 0
M  V30 8919 C 866.623 -1.32861 -0.907563 0
M  V30 8920 O 867.815 -1.57382 -0.809942 0
M  V30 8921 C 864.944 -3.18004 -1.29339 0
M  V30 8922 C 864.03 -4.19256 -0.639166 0
M  V30 8923 N 864.421 -5.05043 0.276597 0
M  V30 8924 C 862.719 -4.36906 -0.896062 0
M  V30 8925 C 863.42 -5.78009 0.654261 0
M  V30 8926 N 862.396 -5.43598 0.0147447 0
M  V30 8927 H 866.198 -2.90344 0.455792 0
M  V30 8928 H 863.712 -1.58566 0.350778 0
M  V30 8929 H 865.709 -3.72767 -1.86682 0
M  V30 8930 H 864.369 -2.55855 -1.99921 0
M  V30 8931 H 865.38 -5.13813 0.649351 0
M  V30 8932 H 862.057 -3.85945 -1.59226 0
M  V30 8933 H 863.447 -6.57039 1.40532 0
M  V30 8934 N 866.167 -0.267825 -1.55308 0
M  V30 8935 C 867.583 0.0865107 -1.59365 0
M  V30 8936 C 867.783 1.55205 -1.28505 0
M  V30 8937 O 866.839 2.29978 -1.04241 0
M  V30 8938 C 868.152 -0.28155 -2.99379 0
M  V30 8939 C 869.7 -0.227565 -3.12172 0
M  V30 8940 C 870.175 -0.569959 -4.5444 0
M  V30 8941 N 871.666 -0.521238 -4.60258 0
M  V30 8942 C 872.401 -0.759061 -5.68354 0
M  V30 8943 N 871.897 -1.06112 -6.84626 0
M  V30 8944 N 873.69 -0.688351 -5.57869 0
M  V30 8945 H 865.841 -1.22332 -1.73633 0
M  V30 8946 H 868.104 -0.493703 -0.809297 0
M  V30 8947 H 867.81 -1.3005 -3.26772 0
M  V30 8948 H 867.684 0.381192 -3.75269 0
M  V30 8949 H 870.071 0.782093 -2.84548 0
M  V30 8950 H 870.152 -0.924461 -2.38511 0
M  V30 8951 H 869.796 -1.57727 -4.82788 0
M  V30 8952 H 869.726 0.148646 -5.2639 0
M  V30 8953 H 872.217 -0.297359 -3.76728 0
M  V30 8954 H 872.53 -1.22945 -7.62958 0
M  V30 8955 H 870.875 -1.09881 -6.86259 0
M  V30 8956 H 874.066 -0.452268 -4.6591 0
M  V30 8957 H 874.239 -0.877081 -6.42037 0
M  V30 8958 N 867.645 1.57599 0.00500368 0
M  V30 8959 C 868.593 2.09223 1.01628 0
M  V30 8960 C 869.587 1.01113 1.35913 0
M  V30 8961 O 870.793 1.19583 1.34536 0
M  V30 8962 H 867.168 0.667999 0.345372 0
M  V30 8963 H 869.139 2.93188 0.555274 0
M  V30 8964 C 867.888 2.60674 2.30097 0
M  V30 8965 H 867.211 3.43491 2.04582 0
M  V30 8966 H 868.651 3.00479 2.99146 0
M  V30 8967 C 867.11 1.51862 3.00731 0
M  V30 8968 O 867.64 0.898651 3.91519 0
M  V30 8969 N 865.846 1.24729 2.62471 0
M  V30 8970 H 865.393 1.7533 1.88725 0
M  V30 8971 H 865.351 0.521437 3.10046 0
M  V30 8972 N 869.123 -0.277682 1.55134 0
M  V30 8973 C 870.371 -1.00791 1.75173 0
M  V30 8974 C 870.692 -1.86987 0.553266 0
M  V30 8975 O 869.962 -1.91079 -0.43195 0
M  V30 8976 H 868.542 -0.375129 0.645978 0
M  V30 8977 H 871.204 -0.303041 1.9253 0
M  V30 8978 H 870.3 -1.64756 2.6507 0
M  V30 8979 N 870.601 -1.47988 -0.541979 0
M  V30 8980 C 871.847 -1.55623 -1.30036 0
M  V30 8981 C 872.18 -0.224254 -1.92901 0
M  V30 8982 O 871.455 0.768629 -1.78668 0
M  V30 8983 C 871.738 -2.68562 -2.39888 0
M  V30 8984 C 871.591 -4.11426 -1.81792 0
M  V30 8985 C 872.91 -2.77325 -3.41729 0
M  V30 8986 H 870.029 -0.566498 -0.471433 0
M  V30 8987 H 872.671 -1.8011 -0.604998 0
M  V30 8988 H 870.821 -2.47814 -2.992 0
M  V30 8989 H 872.493 -4.43581 -1.26624 0
M  V30 8990 H 870.736 -4.18989 -1.12386 0
M  V30 8991 H 871.407 -4.8625 -2.61276 0
M  V30 8992 H 873.883 -2.96085 -2.92357 0
M  V30 8993 H 872.759 -3.58097 -4.16002 0
M  V30 8994 H 873.02 -1.84995 -4.01534 0
M  V30 8995 N 872.079 0.78992 -1.36375 0
M  V30 8996 C 873.328 1.54296 -1.29906 0
M  V30 8997 C 873.641 1.95234 0.119651 0
M  V30 8998 O 874.847 2.69762 0.306708 0
M  V30 8999 C 873.303 2.78533 -2.27919 0
M  V30 9000 C 872.911 2.44767 -3.75224 0
M  V30 9001 C 874.655 3.56516 -2.30427 0
M  V30 9002 C 872.562 3.65397 -4.65015 0
M  V30 9003 H 871.492 0.579214 -0.482729 0
M  V30 9004 H 874.143 0.866845 -1.61735 0
M  V30 9005 H 872.525 3.47941 -1.89084 0
M  V30 9006 H 873.699 1.83259 -4.22792 0
M  V30 9007 H 872.014 1.79996 -3.75487 0
M  V30 9008 H 874.611 4.46143 -2.94722 0
M  V30 9009 H 874.954 3.95063 -1.31266 0
M  V30 9010 H 875.487 2.94087 -2.67876 0
M  V30 9011 H 872.226 3.31946 -5.65236 0
M  V30 9012 H 871.746 4.26072 -4.22164 0
M  V30 9013 H 873.425 4.32431 -4.81261 0
M  V30 9014 N 873.557 1.20646 1.01402 0
M  V30 9015 C 874.487 0.98155 2.11867 0
M  V30 9016 C 875.468 -0.0903712 1.6986 0
M  V30 9017 O 876.653 0.0676586 1.94082 0
M  V30 9018 C 873.783 0.535636 3.43145 0
M  V30 9019 C 872.737 1.55109 3.98905 0
M  V30 9020 C 872.063 0.961725 5.2598 0
M  V30 9021 C 873.363 2.93552 4.32001 0
M  V30 9022 H 875.057 1.90544 2.3094 0
M  V30 9023 H 872.603 0.917554 1.10982 0
M  V30 9024 H 874.556 0.365512 4.19812 0
M  V30 9025 H 873.28 -0.423882 3.23838 0
M  V30 9026 H 871.939 1.70862 3.24348 0
M  V30 9027 H 871.587 -0.00580108 5.03 0
M  V30 9028 H 871.287 1.63993 5.64252 0
M  V30 9029 H 872.811 0.802726 6.053 0
M  V30 9030 H 874.225 2.81295 4.99546 0
M  V30 9031 H 872.622 3.58303 4.81393 0
M  V30 9032 H 873.692 3.4508 3.40658 0
M  V30 9033 N 875.035 -1.20752 1.01276 0
M  V30 9034 C 876.284 -1.8934 0.695229 0
M  V30 9035 C 876.597 -1.79459 -0.77806 0
M  V30 9036 O 877.803 -2.43146 -1.20799 0
M  V30 9037 C 876.259 -3.39548 1.1931 0
M  V30 9038 C 875.867 -3.58023 2.69302 0
M  V30 9039 C 877.611 -4.13714 0.950823 0
M  V30 9040 C 875.518 -5.02037 3.1259 0
M  V30 9041 H 874.448 -0.709084 0.25635 0
M  V30 9042 H 877.099 -1.36629 1.22494 0
M  V30 9043 H 875.481 -3.91559 0.591395 0
M  V30 9044 H 876.655 -3.16416 3.34989 0
M  V30 9045 H 874.97 -2.97222 2.9163 0
M  V30 9046 H 877.567 -5.19891 1.24971 0
M  V30 9047 H 877.91 -4.16147 -0.112791 0
M  V30 9048 H 878.443 -3.67792 1.51571 0
M  V30 9049 H 875.182 -5.04757 4.18211 0
M  V30 9050 H 874.702 -5.44469 2.51621 0
M  V30 9051 H 876.381 -5.70594 3.0501 0
M  V30 9052 N 876.513 -0.788492 -1.36457 0
M  V30 9053 C 877.423 -0.187385 -2.3385 0
M  V30 9054 C 878.439 0.659984 -1.60998 0
M  V30 9055 O 879.615 0.575986 -1.92988 0
M  V30 9056 C 876.68 0.668525 -3.40194 0
M  V30 9057 C 875.741 -0.197234 -4.28847 0
M  V30 9058 C 874.974 0.61792 -5.30111 0
M  V30 9059 O 875.197 1.85396 -5.3943 0
M  V30 9060 O 874.131 0.0183016 -6.01897 0
M  V30 9061 H 877.957 -0.992617 -2.87021 0
M  V30 9062 H 875.542 -0.549934 -1.3891 0
M  V30 9063 H 877.424 1.15663 -4.05216 0
M  V30 9064 H 876.099 1.45166 -2.89324 0
M  V30 9065 H 875.006 -0.73207 -3.66867 0
M  V30 9066 H 876.339 -0.943863 -4.83065 0
M  V30 9067 N 877.991 1.48044 -0.54043 0
M  V30 9068 C 879.407 1.58354 -0.199006 0
M  V30 9069 C 879.607 1.54118 1.29807 0
M  V30 9070 O 878.663 1.43573 2.07709 0
M  V30 9071 C 879.976 2.89563 -0.810797 0
M  V30 9072 C 881.524 3.03113 -0.780486 0
M  V30 9073 C 881.999 4.36997 -1.37104 0
M  V30 9074 N 883.49 4.43591 -1.33347 0
M  V30 9075 C 884.225 5.45714 -1.76021 0
M  V30 9076 N 883.721 6.54738 -2.26473 0
M  V30 9077 N 885.514 5.36659 -1.67194 0
M  V30 9078 H 877.665 1.49041 -1.51329 0
M  V30 9079 H 879.928 0.708309 -0.630081 0
M  V30 9080 H 879.634 2.9835 -1.86227 0
M  V30 9081 H 879.508 3.76053 -0.293977 0
M  V30 9082 H 881.895 2.93932 0.262246 0
M  V30 9083 H 881.976 2.18207 -1.33489 0
M  V30 9084 H 881.62 4.46932 -2.41276 0
M  V30 9085 H 881.55 5.20607 -0.792229 0
M  V30 9086 H 884.041 3.65391 -0.964259 0
M  V30 9087 H 884.354 7.28814 -2.57002 0
M  V30 9088 H 882.699 6.55673 -2.30473 0
M  V30 9089 H 885.89 4.50382 -1.27569 0
M  V30 9090 H 886.063 6.16113 -2.00771 0
M  V30 9091 N 879.47 0.276058 1.55163 0
M  V30 9092 C 880.433 -0.597924 2.21263 0
M  V30 9093 C 881.433 -1.0806 1.19078 0
M  V30 9094 O 882.623 -0.980626 1.43977 0
M  V30 9095 C 879.755 -1.82503 2.87933 0
M  V30 9096 H 880.948 -0.0207769 2.99893 0
M  V30 9097 H 878.501 0.0266823 1.56277 0
M  V30 9098 H 879.236 -2.44266 2.13318 0
M  V30 9099 H 879.021 -1.48683 3.62816 0
M  V30 9100 H 880.511 -2.44651 3.38431 0
M  V30 9101 N 880.948 -1.576 0.00335426 0
M  V30 9102 C 882.196 -1.90336 -0.679446 0
M  V30 9103 C 882.517 -0.877777 -1.74127 0
M  V30 9104 O 881.787 0.0843585 -1.95718 0
M  V30 9105 H 880.367 -0.702509 -0.253948 0
M  V30 9106 H 883.029 -1.94848 0.0450731 0
M  V30 9107 H 882.125 -2.90197 -1.14857 0
M  V30 9108 N 882.426 0.269451 -1.5528 0
M  V30 9109 C 883.703 1.02207 -1.66773 0
M  V30 9110 C 884.083 2.04168 -0.536536 0
M  V30 9111 O 883.431 2.23761 0.462956 0
M  V30 9112 C 883.641 1.67569 -3.0614 0
M  V30 9113 C 884.989 2.18599 -3.64005 0
M  V30 9114 O 886.013 1.7755 -3.08795 0
M  V30 9115 O 884.872 2.93903 -4.60742 0
M  V30 9116 H 881.966 0.474314 -0.677462 0
M  V30 9117 H 884.512 0.265026 -1.67618 0
M  V30 9118 H 883.284 0.937029 -3.79915 0
M  V30 9119 H 882.907 2.49951 -3.09209 0
M  V30 9120 N 883.904 1.48273 0.534124 0
M  V30 9121 C 884.834 1.6538 1.64839 0
M  V30 9122 C 885.815 0.502741 1.62501 0
M  V30 9123 O 887 0.734799 1.79762 0
M  V30 9124 C 884.13 1.68949 3.03436 0
M  V30 9125 C 883.084 2.83513 3.20631 0
M  V30 9126 C 882.41 2.72169 4.60248 0
M  V30 9127 C 883.71 4.24858 3.03797 0
M  V30 9128 H 885.404 2.58663 1.50777 0
M  V30 9129 H 882.95 1.24479 0.723937 0
M  V30 9130 H 884.903 1.79505 3.81256 0
M  V30 9131 H 883.627 0.722415 3.1851 0
M  V30 9132 H 882.286 2.72505 2.45227 0
M  V30 9133 H 881.934 1.7344 4.72152 0
M  V30 9134 H 881.634 3.49042 4.72698 0
M  V30 9135 H 883.158 2.84687 5.40172 0
M  V30 9136 H 884.572 4.36721 3.71413 0
M  V30 9137 H 882.969 5.02697 3.27743 0
M  V30 9138 H 884.039 4.41611 2.0027 0
M  V30 9139 N 885.382 -0.782676 1.36792 0
M  V30 9140 C 886.312 -1.90973 1.34356 0
M  V30 9141 C 887.293 -1.6875 0.213917 0
M  V30 9142 O 888.478 -1.89766 0.412601 0
M  V30 9143 C 885.608 -3.28097 1.13884 0
M  V30 9144 C 884.562 -3.6486 2.23744 0
M  V30 9145 C 883.888 -5.00406 1.88408 0
M  V30 9146 C 885.188 -3.72742 3.6587 0
M  V30 9147 H 886.882 -1.93268 2.28665 0
M  V30 9148 H 884.428 -0.928447 1.10072 0
M  V30 9149 H 886.381 -4.06569 1.10813 0
M  V30 9150 H 885.105 -3.26206 0.160275 0
M  V30 9151 H 883.764 -2.88689 2.25952 0
M  V30 9152 H 883.412 -4.95044 0.891083 0
M  V30 9153 H 883.112 -5.25973 2.61966 0
M  V30 9154 H 884.636 -5.81291 1.86905 0
M  V30 9155 H 886.05 -4.4139 3.65852 0
M  V30 9156 H 884.447 -4.09798 4.38389 0
M  V30 9157 H 885.517 -2.73676 4.00287 0
M  V30 9158 N 886.86 -1.21182 -1.00761 0
M  V30 9159 C 888.271 -1.02652 -1.55947 0
M  V30 9160 C 888.622 0.414466 -1.91772 0
M  V30 9161 O 887.747 1.29727 -1.73204 0
M  V30 9162 C 888.342 -1.85713 -2.83366 0
M  V30 9163 C 886.901 -1.71523 -3.35048 0
M  V30 9164 C 886.048 -1.83087 -2.08265 0
M  V30 9165 H 888.999 -1.35242 -0.830379 0
M  V30 9166 H 889.02 -1.36583 -3.55141 0
M  V30 9167 H 888.532 -2.90584 -2.5726 0
M  V30 9168 H 886.633 -0.693257 -3.66094 0
M  V30 9169 H 886.746 -2.53333 -4.06644 0
M  V30 9170 H 885.11 -1.26367 -2.21141 0
M  V30 9171 H 885.893 -2.8946 -1.84575 0
M  V30 9172 N 888.338 1.20213 -1.01915 0
M  V30 9173 C 889.563 1.94163 -0.729076 0
M  V30 9174 C 889.988 1.74416 0.704323 0
M  V30 9175 O 889.346 1.0401 1.48498 0
M  V30 9176 C 889.394 3.44258 -1.07324 0
M  V30 9177 O 888.498 4.11979 -0.186367 0
M  V30 9178 H 887.839 0.606506 -0.270272 0
M  V30 9179 H 890.369 1.52571 -1.3632 0
M  V30 9180 H 890.379 3.94888 -1.02603 0
M  V30 9181 H 889.054 3.57954 -2.11759 0
M  V30 9182 H 887.631 3.7176 -0.291334 0
M  V30 9183 N 889.816 0.795718 1.36037 0
M  V30 9184 C 891.062 0.371574 1.99367 0
M  V30 9185 C 891.395 -1.0557 1.62999 0
M  V30 9186 O 890.67 -1.73051 0.887895 0
M  V30 9187 C 890.953 0.542622 3.55988 0
M  V30 9188 C 890.806 2.01404 4.0219 0
M  V30 9189 C 892.125 -0.0384527 4.40083 0
M  V30 9190 H 889.244 0.136483 0.724252 0
M  V30 9191 H 891.886 1.00323 1.61355 0
M  V30 9192 H 890.036 0.0049053 3.885 0
M  V30 9193 H 891.708 2.6133 3.80137 0
M  V30 9194 H 889.951 2.51439 3.53498 0
M  V30 9195 H 890.622 2.08466 5.11122 0
M  V30 9196 H 893.098 0.420634 4.13968 0
M  V30 9197 H 891.974 0.111214 5.48787 0
M  V30 9198 H 892.235 -1.13116 4.27384 0
M  V30 9199 N 891.294 -1.47756 0.548274 0
M  V30 9200 C 892.519 -2.07387 0.023475 0
M  V30 9201 C 892.944 -1.39956 -1.25674 0
M  V30 9202 O 892.302 -0.471543 -1.7506 0
M  V30 9203 C 892.35 -3.60224 -0.164669 0
M  V30 9204 O 891.454 -3.93653 -1.22928 0
M  V30 9205 H 890.795 -0.662312 0.0473156 0
M  V30 9206 H 893.325 -1.89905 0.761409 0
M  V30 9207 H 893.335 -4.06211 -0.38166 0
M  V30 9208 H 892.01 -4.08702 0.770425 0
M  V30 9209 H 890.587 -3.59422 -0.993495 0
M  V30 9210 N 892.772 -0.284283 -1.55015 0
M  V30 9211 C 893.735 0.586182 -2.21577 0
M  V30 9212 C 894.735 1.07427 -1.1965 0
M  V30 9213 O 895.925 0.972977 -1.44495 0
M  V30 9214 C 893.057 1.80973 -2.88897 0
M  V30 9215 H 894.25 0.00487253 -2.999 0
M  V30 9216 H 891.803 -0.0349696 -1.56261 0
M  V30 9217 H 892.538 2.43131 -2.14611 0
M  V30 9218 H 892.323 1.46757 -3.636 0
M  V30 9219 H 893.813 2.42853 -3.39724 0
M  V30 9220 N 894.251 1.57596 -0.0117121 0
M  V30 9221 C 895.476 1.95764 0.684938 0
M  V30 9222 C 895.901 0.887285 1.65858 0
M  V30 9223 O 895.259 -0.153508 1.80649 0
M  V30 9224 C 895.307 3.33031 1.38285 0
M  V30 9225 O 894.411 3.28163 2.49765 0
M  V30 9226 H 893.752 0.638767 0.181309 0
M  V30 9227 H 896.282 2.04486 -0.0683883 0
M  V30 9228 H 896.292 3.68866 1.74362 0
M  V30 9229 H 894.967 4.10483 0.669043 0
M  V30 9230 H 893.544 3.04021 2.15929 0
M  V30 9231 N 895.729 -0.261212 1.5542 0
M  V30 9232 C 897.14 -0.83138 1.67167 0
M  V30 9233 C 897.491 -1.8659 0.606525 0
M  V30 9234 O 896.616 -2.14953 -0.24985 0
M  V30 9235 C 897.211 -1.51475 3.03052 0
M  V30 9236 C 895.77 -2.0328 3.16787 0
M  V30 9237 C 894.917 -0.878903 2.63003 0
M  V30 9238 H 897.868 -0.0373102 1.58656 0
M  V30 9239 H 897.889 -2.38222 2.96699 0
M  V30 9240 H 897.401 -0.76157 3.80554 0
M  V30 9241 H 895.502 -2.81523 2.44082 0
M  V30 9242 H 895.615 -2.24001 4.2351 0
M  V30 9243 H 893.979 -1.27551 2.2046 0
M  V30 9244 H 894.762 -0.13904 3.43018 0
M  V30 9245 N 897.207 -1.48554 -0.526253 0
M  V30 9246 C 898.17 -1.62868 -1.61266 0
M  V30 9247 C 899.17 -0.501762 -1.52771 0
M  V30 9248 O 900.36 -0.76764 -1.56374 0
M  V30 9249 C 897.492 -1.60238 -3.00893 0
M  V30 9250 H 898.685 -2.59742 -1.49913 0
M  V30 9251 H 896.238 -1.37207 -0.748595 0
M  V30 9252 H 896.973 -0.648545 -3.17749 0
M  V30 9253 H 896.758 -2.42054 -3.08468 0
M  V30 9254 H 898.248 -1.73455 -3.79872 0
M  V30 9255 N 898.685 0.775411 -1.37205 0
M  V30 9256 C 899.933 1.53081 -1.3195 0
M  V30 9257 C 900.254 1.9476 0.0966864 0
M  V30 9258 O 899.524 1.66019 1.03993 0
M  V30 9259 H 898.104 0.567762 -0.485444 0
M  V30 9260 H 900.766 0.92309 -1.71654 0
M  V30 9261 H 899.862 2.4319 -1.95614 0
M  V30 9262 N 900.163 1.21714 1.00117 0
M  V30 9263 C 901.411 1.03465 1.73607 0
M  V30 9264 C 901.732 -0.432295 1.90148 0
M  V30 9265 O 901.002 -1.31157 1.45515 0
M  V30 9266 H 899.582 0.379857 0.643209 0
M  V30 9267 H 902.244 1.53088 1.20624 0
M  V30 9268 H 901.34 1.50574 2.73375 0
M  V30 9269 N 901.641 -1.19671 1.02551 0
M  V30 9270 C 902.551 -2.26441 0.613329 0
M  V30 9271 C 903.567 -1.70375 -0.353339 0
M  V30 9272 O 904.743 -2.0028 -0.212064 0
M  V30 9273 C 901.808 -3.46684 -0.0329028 0
M  V30 9274 C 900.869 -4.17945 0.980837 0
M  V30 9275 C 900.102 -5.32448 0.36535 0
M  V30 9276 O 900.325 -5.64291 -0.832596 0
M  V30 9277 O 899.259 -5.92012 1.08652 0
M  V30 9278 H 903.085 -2.63932 1.50246 0
M  V30 9279 H 900.67 -1.2646 0.795502 0
M  V30 9280 H 902.552 -4.1956 -0.393395 0
M  V30 9281 H 901.227 -3.1105 -0.896089 0
M  V30 9282 H 900.134 -3.47204 1.39286 0
M  V30 9283 H 901.467 -4.57542 1.81428 0
M  V30 9284 N 903.119 -0.802921 -1.35613 0
M  V30 9285 C 904.366 -0.381576 -1.98872 0
M  V30 9286 C 904.694 1.0503 -1.63704 0
M  V30 9287 O 903.949 1.7427 -0.890418 0
M  V30 9288 C 904.248 -0.507806 -3.53774 0
M  V30 9289 C 903.914 -1.90245 -4.088 0
M  V30 9290 C 902.576 -2.28401 -4.2354 0
M  V30 9291 C 904.928 -2.81504 -4.3864 0
M  V30 9292 C 902.256 -3.57192 -4.65436 0
M  V30 9293 C 904.608 -4.09737 -4.81973 0
M  V30 9294 C 903.272 -4.47897 -4.94919 0
M  V30 9295 H 902.542 -0.139629 -0.727726 0
M  V30 9296 H 905.189 -1.023 -1.61886 0
M  V30 9297 H 903.494 0.21708 -3.91198 0
M  V30 9298 H 905.191 -0.162625 -4.0067 0
M  V30 9299 H 901.781 -1.596 -3.97776 0
M  V30 9300 H 905.965 -2.53276 -4.26808 0
M  V30 9301 H 901.221 -3.86611 -4.73648 0
M  V30 9302 H 905.395 -4.80555 -5.04024 0
M  V30 9303 H 903.022 -5.47747 -5.27141 0
M  V30 9304 N 904.597 1.47463 -0.556102 0
M  V30 9305 C 905.874 1.9557 0.0339892 0
M  V30 9306 C 906.254 1.49869 1.48669 0
M  V30 9307 O 905.602 0.737019 2.16288 0
M  V30 9308 C 905.812 3.48826 -0.110343 0
M  V30 9309 C 907.16 4.24585 0.0355716 0
M  V30 9310 O 908.184 3.5618 -0.0378356 0
M  V30 9311 O 907.043 5.46158 0.193299 0
M  V30 9312 H 904.137 0.824461 0.0647521 0
M  V30 9313 H 906.683 1.57868 -0.622547 0
M  V30 9314 H 905.455 3.74891 -1.12126 0
M  V30 9315 H 905.078 3.9329 0.583855 0
M  V30 9316 N 906.075 0.2925 1.54862 0
M  V30 9317 C 907.491 -0.0611461 1.59483 0
M  V30 9318 C 907.691 -1.53141 1.30958 0
M  V30 9319 O 906.747 -2.28291 1.07887 0
M  V30 9320 C 908.06 0.329143 2.98893 0
M  V30 9321 C 909.608 0.2772 3.1177 0
M  V30 9322 C 910.083 0.642185 4.53475 0
M  V30 9323 N 911.574 0.594396 4.5937 0
M  V30 9324 C 912.309 0.849385 5.67074 0
M  V30 9325 N 911.805 1.1699 6.82851 0
M  V30 9326 N 913.598 0.777016 5.56704 0
M  V30 9327 H 905.749 1.25079 1.71665 0
M  V30 9328 H 908.012 0.506516 0.80134 0
M  V30 9329 H 907.718 1.35233 3.24661 0
M  V30 9330 H 907.592 -0.321442 3.75828 0
M  V30 9331 H 909.979 -0.736725 2.85756 0
M  V30 9332 H 910.06 0.962289 2.3701 0
M  V30 9333 H 909.704 1.65388 4.80218 0
M  V30 9334 H 909.634 -0.0648831 5.2656 0
M  V30 9335 H 912.125 0.357256 3.76208 0
M  V30 9336 H 912.438 1.35067 7.60905 0
M  V30 9337 H 910.783 1.20785 6.84424 0
M  V30 9338 H 913.974 0.526333 4.65132 0
M  V30 9339 H 914.147 0.979113 6.4056 0
M  V30 9340 N 907.553 -1.57587 0.0200696 0
M  V30 9341 C 908.463 -2.13119 -0.980676 0
M  V30 9342 C 909.479 -1.08124 -1.36328 0
M  V30 9343 O 910.655 -1.40134 -1.44653 0
M  V30 9344 C 907.72 -2.63991 -2.24743 0
M  V30 9345 C 906.781 -3.83667 -1.9261 0
M  V30 9346 C 906.014 -4.32103 -3.13246 0
M  V30 9347 O 906.237 -3.79758 -4.25606 0
M  V30 9348 O 905.171 -5.24047 -2.96072 0
M  V30 9349 H 908.997 -2.98887 -0.538528 0
M  V30 9350 H 906.582 -1.48055 -0.19999 0
M  V30 9351 H 908.464 -2.9682 -2.99125 0
M  V30 9352 H 907.139 -1.81311 -2.68157 0
M  V30 9353 H 906.046 -3.55778 -1.15641 0
M  V30 9354 H 907.379 -4.67482 -1.54019 0
M  V30 9355 N 909.032 0.252966 -1.55557 0
M  V30 9356 C 909.964 1.33585 -1.86246 0
M  V30 9357 C 910.977 1.44584 -0.748291 0
M  V30 9358 O 912.166 1.46042 -1.02635 0
M  V30 9359 C 909.266 2.71509 -2.02821 0
M  V30 9360 C 908.439 2.82853 -3.33636 0
M  V30 9361 C 907.498 4.01581 -3.40028 0
M  V30 9362 O 906.524 3.91394 -4.13278 0
M  V30 9363 N 907.726 5.14474 -2.6888 0
M  V30 9364 H 910.491 1.07596 -2.7972 0
M  V30 9365 H 908.052 0.443075 -1.55719 0
M  V30 9366 H 910.044 3.49262 -2.04445 0
M  V30 9367 H 908.614 2.90232 -1.1612 0
M  V30 9368 H 907.834 1.91823 -3.4438 0
M  V30 9369 H 909.122 2.87378 -4.19871 0
M  V30 9370 H 908.52 5.25641 -2.09087 0
M  V30 9371 H 907.077 5.90385 -2.76204 0
M  V30 9372 N 910.51 1.48831 0.518367 0
M  V30 9373 C 911.442 1.60317 1.63802 0
M  V30 9374 C 912.455 0.486771 1.55352 0
M  V30 9375 O 913.644 0.758111 1.61601 0
M  V30 9376 C 910.744 1.52771 3.02513 0
M  V30 9377 C 909.917 2.79649 3.36326 0
M  V30 9378 C 908.976 2.65396 4.54369 0
M  V30 9379 O 908.002 3.39304 4.57013 0
M  V30 9380 N 909.204 1.75784 5.53245 0
M  V30 9381 H 911.969 2.56878 1.54383 0
M  V30 9382 H 909.53 1.45701 0.705889 0
M  V30 9383 H 911.522 1.40914 3.79375 0
M  V30 9384 H 910.092 0.641381 3.05949 0
M  V30 9385 H 909.312 3.05985 2.48529 0
M  V30 9386 H 910.6 3.63799 3.55707 0
M  V30 9387 H 909.998 1.14961 5.53896 0
M  V30 9388 H 908.555 1.69859 6.29278 0
M  V30 9389 N 911.988 -0.768124 1.37614 0
M  V30 9390 C 912.898 -1.91249 1.35871 0
M  V30 9391 C 913.914 -1.7208 0.257786 0
M  V30 9392 O 915.09 -1.95253 0.493782 0
M  V30 9393 C 912.155 -3.26423 1.16829 0
M  V30 9394 C 911.216 -3.5822 2.36594 0
M  V30 9395 C 910.449 -4.86945 2.1845 0
M  V30 9396 O 910.672 -5.58258 1.17064 0
M  V30 9397 O 909.606 -5.17888 3.06718 0
M  V30 9398 H 913.432 -1.95671 2.32264 0
M  V30 9399 H 911.017 -0.911382 1.18382 0
M  V30 9400 H 912.899 -4.07269 1.08212 0
M  V30 9401 H 911.574 -3.22845 0.235123 0
M  V30 9402 H 910.481 -2.77594 2.50783 0
M  V30 9403 H 911.814 -3.66545 3.2849 0
M  V30 9404 N 913.466 -1.22244 -0.994698 0
M  V30 9405 C 914.712 -1.04746 -1.73655 0
M  V30 9406 C 915.045 0.41668 -1.89677 0
M  V30 9407 O 914.32 1.30897 -1.43862 0
M  V30 9408 C 914.603 -1.75716 -3.14318 0
M  V30 9409 C 914.456 -3.29714 -3.05955 0
M  V30 9410 C 915.775 -1.50809 -4.13455 0
M  V30 9411 H 912.894 -0.381921 -0.630322 0
M  V30 9412 H 915.536 -1.50559 -1.15897 0
M  V30 9413 H 913.686 -1.3677 -3.63629 0
M  V30 9414 H 915.358 -3.78093 -2.64279 0
M  V30 9415 H 913.601 -3.59484 -2.42804 0
M  V30 9416 H 914.272 -3.74547 -4.05485 0
M  V30 9417 H 916.748 -1.84636 -3.72892 0
M  V30 9418 H 915.624 -2.02964 -5.09997 0
M  V30 9419 H 915.885 -0.440292 -4.39902 0
M  V30 9420 N 914.944 1.19125 -1.03184 0
M  V30 9421 C 916.193 1.8821 -0.725264 0
M  V30 9422 C 916.506 1.80674 0.749411 0
M  V30 9423 O 917.712 2.45037 1.16915 0
M  V30 9424 C 916.168 3.37607 -1.24697 0
M  V30 9425 C 915.776 3.53693 -2.74964 0
M  V30 9426 C 917.52 4.12149 -1.01652 0
M  V30 9427 C 915.427 4.97001 -3.20538 0
M  V30 9428 H 914.357 0.704916 -0.267599 0
M  V30 9429 H 917.008 1.34663 -1.24652 0
M  V30 9430 H 915.39 3.90569 -0.653614 0
M  V30 9431 H 916.564 3.11046 -3.39981 0
M  V30 9432 H 914.879 2.92544 -2.96322 0
M  V30 9433 H 917.476 5.17837 -1.33226 0
M  V30 9434 H 917.819 4.16274 0.0465712 0
M  V30 9435 H 918.352 3.65334 -1.57403 0
M  V30 9436 H 915.091 4.9804 -4.26189 0
M  V30 9437 H 914.611 5.40398 -2.60251 0
M  V30 9438 H 916.29 5.65669 -3.14049 0
M  V30 9439 N 916.422 0.810101 1.35185 0
M  V30 9440 C 917.352 0.237453 2.32289 0
M  V30 9441 C 918.333 -0.639032 1.5764 0
M  V30 9442 O 919.518 -0.568575 1.8569 0
M  V30 9443 C 916.648 -0.611964 3.41866 0
M  V30 9444 C 915.602 0.166318 4.27677 0
M  V30 9445 C 914.928 -0.805024 5.28605 0
M  V30 9446 C 916.228 1.36729 5.04086 0
M  V30 9447 H 917.922 1.04874 2.80432 0
M  V30 9448 H 915.468 0.505751 1.34826 0
M  V30 9449 H 917.421 -1.02267 4.08802 0
M  V30 9450 H 916.145 -1.45617 2.92341 0
M  V30 9451 H 914.804 0.558238 3.62325 0
M  V30 9452 H 914.452 -1.64483 4.75347 0
M  V30 9453 H 914.152 -0.288577 5.86891 0
M  V30 9454 H 915.676 -1.21386 5.98413 0
M  V30 9455 H 917.09 1.03128 5.63948 0
M  V30 9456 H 915.487 1.81848 5.71884 0
M  V30 9457 H 916.557 2.15214 4.34524 0
M  V30 9458 N 917.9 -1.47166 0.563914 0
M  V30 9459 C 919.13 -2.06546 0.0473599 0
M  V30 9460 C 919.538 -1.41607 -1.25476 0
M  V30 9461 O 918.881 -0.50894 -1.76509 0
M  V30 9462 C 918.943 -3.58873 -0.212249 0
M  V30 9463 C 918.607 -4.45893 1.00144 0
M  V30 9464 C 919.604 -4.83594 1.90873 0
M  V30 9465 C 917.289 -4.87309 1.218 0
M  V30 9466 C 919.283 -5.61519 3.01621 0
M  V30 9467 C 916.97 -5.64997 2.32856 0
M  V30 9468 C 917.968 -6.02013 3.22597 0
M  V30 9469 O 917.656 -6.78135 4.31727 0
M  V30 9470 H 917.388 -0.674441 0.0458823 0
M  V30 9471 H 919.942 -1.9006 0.778865 0
M  V30 9472 H 918.172 -3.73596 -0.998145 0
M  V30 9473 H 919.861 -4.00248 -0.675005 0
M  V30 9474 H 920.627 -4.52192 1.7535 0
M  V30 9475 H 916.506 -4.57959 0.528641 0
M  V30 9476 H 920.05 -5.90331 3.71693 0
M  V30 9477 H 915.947 -5.95813 2.48349 0
M  V30 9478 H 916.715 -6.96537 4.29859 0
M  V30 9479 N 919.378 -0.300708 -1.54705 0
M  V30 9480 C 920.624 0.309111 -2.0043 0
M  V30 9481 C 920.957 1.53562 -1.1888 0
M  V30 9482 O 920.232 1.92683 -0.265205 0
M  V30 9483 C 920.515 0.665995 -3.53888 0
M  V30 9484 C 920.368 -0.56963 -4.46178 0
M  V30 9485 C 921.687 1.49262 -4.14016 0
M  V30 9486 H 918.806 0.110878 -0.728612 0
M  V30 9487 H 921.448 -0.412748 -1.85463 0
M  V30 9488 H 919.598 1.281 -3.66773 0
M  V30 9489 H 921.27 -1.20811 -4.45199 0
M  V30 9490 H 919.513 -1.20292 -4.16788 0
M  V30 9491 H 920.184 -0.275785 -5.51311 0
M  V30 9492 H 922.66 0.972979 -4.04564 0
M  V30 9493 H 921.536 1.71111 -5.21548 0
M  V30 9494 H 921.797 2.48174 -3.65872 0
M  V30 9495 N 920.856 1.57574 -0.0284266 0
M  V30 9496 C 921.788 2.07079 0.982391 0
M  V30 9497 C 922.801 0.994078 1.28926 0
M  V30 9498 O 923.99 1.27028 1.25404 0
M  V30 9499 C 921.09 2.47978 2.30998 0
M  V30 9500 C 920.263 3.7872 2.18838 0
M  V30 9501 C 919.322 4.06177 3.34524 0
M  V30 9502 O 918.348 4.76438 3.11441 0
M  V30 9503 N 919.55 3.56297 4.58293 0
M  V30 9504 H 922.315 2.94421 0.560011 0
M  V30 9505 H 919.876 1.61124 0.158347 0
M  V30 9506 H 921.868 2.63439 3.07216 0
M  V30 9507 H 920.438 1.66005 2.64879 0
M  V30 9508 H 919.658 3.73062 1.27351 0
M  V30 9509 H 920.946 4.6438 2.07915 0
M  V30 9510 H 920.344 2.99453 4.79942 0
M  V30 9511 H 918.901 3.77038 5.31682 0
M  V30 9512 N 922.334 -0.244713 1.55689 0
M  V30 9513 C 923.284 -1.30596 1.86892 0
M  V30 9514 C 924.268 -1.43388 0.729972 0
M  V30 9515 O 925.46 -1.46593 0.99194 0
M  V30 9516 C 922.589 -2.66099 2.16902 0
M  V30 9517 C 921.675 -2.57302 3.37129 0
M  V30 9518 N 922.066 -2.18139 4.56343 0
M  V30 9519 C 920.364 -2.88311 3.40283 0
M  V30 9520 C 921.065 -2.20028 5.38482 0
M  V30 9521 N 920.041 -2.59616 4.77599 0
M  V30 9522 H 923.843 -0.993699 2.76591 0
M  V30 9523 H 921.357 -0.453334 1.55944 0
M  V30 9524 H 923.354 -3.4269 2.37422 0
M  V30 9525 H 922.014 -2.9819 1.28502 0
M  V30 9526 H 923.025 -1.89647 4.81928 0
M  V30 9527 H 919.702 -3.24928 2.62161 0
M  V30 9528 H 921.092 -1.9207 6.43862 0
M  V30 9529 N 923.813 -1.49104 -0.510467 0
M  V30 9530 C 924.776 -1.64569 -1.59529 0
M  V30 9531 C 925.776 -0.517937 -1.5223 0
M  V30 9532 O 926.966 -0.784183 -1.55551 0
M  V30 9533 C 924.098 -1.6342 -2.99177 0
M  V30 9534 H 925.291 -2.61318 -1.4715 0
M  V30 9535 H 922.844 -1.37993 -0.734001 0
M  V30 9536 H 923.579 -0.68221 -3.17043 0
M  V30 9537 H 923.364 -2.45312 -3.05883 0
M  V30 9538 H 924.854 -1.77474 -3.78011 0
M  V30 9539 N 925.291 0.760815 -1.38019 0
M  V30 9540 C 926.201 1.90526 -1.36884 0
M  V30 9541 C 927.217 1.71941 -0.266908 0
M  V30 9542 O 928.393 1.94988 -0.50413 0
M  V30 9543 C 925.458 3.25799 -1.18558 0
M  V30 9544 C 924.519 3.56961 -2.3849 0
M  V30 9545 C 923.752 4.8578 -2.21029 0
M  V30 9546 O 923.975 5.57629 -1.20023 0
M  V30 9547 O 922.909 5.16254 -3.0946 0
M  V30 9548 H 926.735 1.94437 -2.33298 0
M  V30 9549 H 924.32 0.905091 -1.18863 0
M  V30 9550 H 926.202 4.0669 -1.1037 0
M  V30 9551 H 924.877 3.22716 -0.252241 0
M  V30 9552 H 923.784 2.7626 -2.52252 0
M  V30 9553 H 925.117 3.64798 -3.30429 0
M  V30 9554 N 926.769 1.22769 0.988202 0
M  V30 9555 C 928.015 1.06672 1.73184 0
M  V30 9556 C 928.37 -0.393434 1.88334 0
M  V30 9557 O 927.663 -1.2876 1.41885 0
M  V30 9558 C 927.857 1.71679 3.13466 0
M  V30 9559 C 927.686 3.23864 3.11997 0
M  V30 9560 C 926.456 3.92991 3.17626 0
M  V30 9561 C 928.654 4.20737 2.95778 0
M  V30 9562 N 926.636 5.32224 3.05959 0
M  V30 9563 C 928.007 5.46831 2.92191 0
M  V30 9564 C 930.062 4.1157 2.80205 0
M  V30 9565 C 928.765 6.64811 2.74624 0
M  V30 9566 C 930.791 5.29205 2.64 0
M  V30 9567 C 930.153 6.5422 2.61104 0
M  V30 9568 H 926.252 0.44481 0.64317 0
M  V30 9569 H 928.836 1.55381 1.17323 0
M  V30 9570 H 927.007 1.25513 3.67561 0
M  V30 9571 H 928.739 1.48629 3.76419 0
M  V30 9572 H 925.494 3.4402 3.25495 0
M  V30 9573 H 925.918 6.05197 3.03423 0
M  V30 9574 H 930.56 3.15697 2.81239 0
M  V30 9575 H 928.278 7.60828 2.72336 0
M  V30 9576 H 931.864 5.23947 2.52925 0
M  V30 9577 H 930.744 7.43713 2.48719 0
M  V30 9578 N 928.247 -1.18576 1.03814 0
M  V30 9579 C 929.495 -1.88121 0.738574 0
M  V30 9580 C 929.816 -1.80587 -0.735744 0
M  V30 9581 O 929.086 -1.22251 -1.53074 0
M  V30 9582 H 927.666 -0.696417 0.270208 0
M  V30 9583 H 930.328 -1.43912 1.31435 0
M  V30 9584 H 929.424 -2.94222 1.04115 0
M  V30 9585 N 929.725 -0.817259 -1.34754 0
M  V30 9586 C 930.688 -0.240611 -2.27934 0
M  V30 9587 C 931.688 0.578219 -1.50044 0
M  V30 9588 O 932.878 0.395148 -1.69659 0
M  V30 9589 C 930.01 0.663318 -3.34384 0
M  V30 9590 H 931.203 -1.06257 -2.80445 0
M  V30 9591 H 928.756 -0.588697 -1.4479 0
M  V30 9592 H 929.491 1.50855 -2.87077 0
M  V30 9593 H 929.276 0.0777388 -3.92023 0
M  V30 9594 H 930.766 1.06076 -4.03903 0
M  V30 9595 N 931.203 1.46865 -0.571711 0
M  V30 9596 C 932.433 2.06518 -0.0583129 0
M  V30 9597 C 932.841 1.4227 1.24723 0
M  V30 9598 O 932.184 0.518293 1.76237 0
M  V30 9599 C 932.246 3.5898 0.193214 0
M  V30 9600 C 931.91 4.45355 -1.02507 0
M  V30 9601 C 932.907 4.82575 -1.93435 0
M  V30 9602 C 930.592 4.86656 -1.24382 0
M  V30 9603 C 932.586 5.59912 -3.04595 0
M  V30 9604 C 930.273 5.63754 -2.35849 0
M  V30 9605 C 931.271 6.00294 -3.25785 0
M  V30 9606 O 930.959 6.75836 -4.35318 0
M  V30 9607 H 930.691 0.674188 -0.0494584 0
M  V30 9608 H 933.245 1.89644 -0.788934 0
M  V30 9609 H 931.475 3.7412 0.978319 0
M  V30 9610 H 933.164 4.006 0.653769 0
M  V30 9611 H 933.93 4.51256 -1.77745 0
M  V30 9612 H 929.809 4.57672 -0.55292 0
M  V30 9613 H 933.353 5.88351 -3.74818 0
M  V30 9614 H 929.25 5.94487 -2.51506 0
M  V30 9615 H 930.018 6.94247 -4.33547 0
M  V30 9616 N 932.681 0.308908 1.54543 0
M  V30 9617 C 933.909 -0.300418 2.04707 0
M  V30 9618 C 934.324 -1.46915 1.18581 0
M  V30 9619 O 933.681 -1.81251 0.213186 0
M  V30 9620 C 933.732 -0.749038 3.53655 0
M  V30 9621 O 933.453 0.373181 4.36508 0
M  V30 9622 C 934.954 -1.4227 4.1985 0
M  V30 9623 H 932.174 -0.0641267 0.667929 0
M  V30 9624 H 934.718 0.450839 1.99469 0
M  V30 9625 H 932.873 -1.4503 3.59228 0
M  V30 9626 H 933.287 0.0224752 5.24495 0
M  V30 9627 H 934.761 -1.68768 5.25568 0
M  V30 9628 H 935.238 -2.36531 3.70067 0
M  V30 9629 H 935.844 -0.764404 4.18374 0
M  V30 9630 N 934.159 -1.57557 0.0367827 0
M  V30 9631 C 935.408 -1.91291 -0.639569 0
M  V30 9632 C 935.721 -0.915601 -1.72847 0
M  V30 9633 O 936.927 -1.14447 -2.46199 0
M  V30 9634 C 935.383 -3.39697 -1.18888 0
M  V30 9635 C 934.991 -4.47803 -0.132851 0
M  V30 9636 C 936.735 -3.82487 -1.8413 0
M  V30 9637 C 934.642 -5.87311 -0.694229 0
M  V30 9638 H 933.572 -0.713886 -0.242658 0
M  V30 9639 H 936.223 -1.83209 0.103332 0
M  V30 9640 H 934.605 -3.42736 -1.98363 0
M  V30 9641 H 935.779 -4.56334 0.640009 0
M  V30 9642 H 934.094 -4.14264 0.421264 0
M  V30 9643 H 936.691 -4.84076 -2.27101 0
M  V30 9644 H 937.034 -3.17959 -2.68716 0
M  V30 9645 H 937.567 -3.81903 -1.11332 0
M  V30 9646 H 934.306 -6.55401 0.113667 0
M  V30 9647 H 933.826 -5.82371 -1.4354 0
M  V30 9648 H 935.505 -6.36119 -1.1816 0
M  V30 9649 N 935.637 0.236453 -1.55816 0
M  V30 9650 C 936.914 0.986463 -1.68903 0
M  V30 9651 C 937.294 2.02984 -0.579722 0
M  V30 9652 O 936.642 2.24693 0.415389 0
M  V30 9653 C 936.852 1.61038 -3.09625 0
M  V30 9654 C 938.2 2.10829 -3.6856 0
M  V30 9655 O 939.224 1.7096 -3.12492 0
M  V30 9656 O 938.083 2.84064 -4.66873 0
M  V30 9657 H 935.177 0.459837 -0.687371 0
M  V30 9658 H 937.723 0.229412 -1.68142 0
M  V30 9659 H 936.495 0.856232 -3.81817 0
M  V30 9660 H 936.118 2.43336 -3.14441 0
M  V30 9661 N 937.115 1.49373 0.502552 0
M  V30 9662 C 938.363 1.58467 1.25429 0
M  V30 9663 C 938.684 0.272593 1.93085 0
M  V30 9664 O 937.954 -0.707947 1.82661 0
M  V30 9665 H 936.534 0.583866 0.46595 0
M  V30 9666 H 939.196 1.8599 0.582568 0
M  V30 9667 H 938.292 2.37993 2.01906 0
M  V30 9668 N 938.594 -0.753485 1.38421 0
M  V30 9669 C 939.819 -1.54783 1.38047 0
M  V30 9670 C 940.244 -1.8808 -0.0276371 0
M  V30 9671 O 939.602 -1.5058 -1.00973 0
M  V30 9672 C 939.65 -2.82353 2.24297 0
M  V30 9673 O 938.754 -3.77509 1.66014 0
M  V30 9674 H 938.095 -0.468151 0.470883 0
M  V30 9675 H 940.625 -0.931144 1.82184 0
M  V30 9676 H 940.635 -3.31277 2.38159 0
M  V30 9677 H 939.31 -2.57449 3.26639 0
M  V30 9678 H 937.887 -3.36212 1.61294 0
M  V30 9679 N 940.072 -1.23292 -0.981677 0
M  V30 9680 C 941.349 -0.972514 -1.6971 0
M  V30 9681 C 941.729 0.509244 -2.04866 0
M  V30 9682 O 941.077 1.48013 -1.74082 0
M  V30 9683 C 941.287 -1.88144 -2.93943 0
M  V30 9684 C 942.635 -2.14416 -3.66485 0
M  V30 9685 O 943.659 -1.85684 -3.03974 0
M  V30 9686 O 942.518 -2.63139 -4.78978 0
M  V30 9687 H 939.612 -0.366673 -0.741269 0
M  V30 9688 H 942.158 -1.34328 -1.03701 0
M  V30 9689 H 940.93 -2.8832 -2.64551 0
M  V30 9690 H 940.553 -1.51296 -3.67689 0
M  V30 9691 N 941.55 1.18024 -1.04442 0
M  V30 9692 C 942.961 1.69749 -0.777312 0
M  V30 9693 C 943.312 1.83234 0.701399 0
M  V30 9694 O 942.437 1.51452 1.54568 0
M  V30 9695 C 943.032 3.08321 -1.40441 0
M  V30 9696 C 941.591 3.57243 -1.18553 0
M  V30 9697 C 940.738 2.33695 -1.49271 0
M  V30 9698 H 943.689 1.02647 -1.21035 0
M  V30 9699 H 943.71 3.71787 -0.809628 0
M  V30 9700 H 943.222 2.98474 -2.48062 0
M  V30 9701 H 941.323 3.72379 -0.128221 0
M  V30 9702 H 941.436 4.40451 -1.88519 0
M  V30 9703 H 939.8 2.37792 -0.912526 0
M  V30 9704 H 940.583 2.26464 -2.5801 0
M  V30 9705 N 943.028 0.824394 1.34319 0
M  V30 9706 C 943.975 0.245282 2.29493 0
M  V30 9707 C 944.945 -0.630762 1.53657 0
M  V30 9708 O 946.13 -0.572094 1.82021 0
M  V30 9709 C 943.27 -0.585631 3.40095 0
M  V30 9710 C 942.383 0.312821 4.30866 0
M  V30 9711 C 941.518 -0.527801 5.28571 0
M  V30 9712 C 940.557 0.369946 6.10981 0
M  V30 9713 N 939.694 -0.43169 7.00772 0
M  V30 9714 H 944.534 1.06225 2.78425 0
M  V30 9715 H 942.071 0.53533 1.37013 0
M  V30 9716 H 944.029 -1.08271 4.02906 0
M  V30 9717 H 942.659 -1.3677 2.92393 0
M  V30 9718 H 941.711 0.928129 3.68904 0
M  V30 9719 H 943.023 1.00306 4.8861 0
M  V30 9720 H 942.177 -1.0893 5.96841 0
M  V30 9721 H 940.916 -1.25154 4.71368 0
M  V30 9722 H 939.921 0.943577 5.41643 0
M  V30 9723 H 941.146 1.09182 6.70266 0
M  V30 9724 H 939.092 -1.13908 6.46035 0
M  V30 9725 H 939.009 0.200133 7.55735 0
M  V30 9726 H 940.277 -0.975894 7.73367 0
M  V30 9727 N 944.506 -1.46559 0.579492 0
M  V30 9728 C 945.416 -2.34066 -0.15816 0
M  V30 9729 C 946.432 -1.49556 -0.88932 0
M  V30 9730 O 947.608 -1.82434 -0.853226 0
M  V30 9731 C 944.673 -3.26683 -1.161 0
M  V30 9732 C 943.734 -4.27092 -0.434855 0
M  V30 9733 C 942.967 -5.15283 -1.38992 0
M  V30 9734 O 943.19 -5.06345 -2.62623 0
M  V30 9735 O 942.124 -5.95099 -0.902253 0
M  V30 9736 H 945.95 -2.98488 0.560234 0
M  V30 9737 H 943.535 -1.45482 0.339918 0
M  V30 9738 H 945.417 -3.8383 -1.73932 0
M  V30 9739 H 944.092 -2.64862 -1.86091 0
M  V30 9740 H 942.999 -3.73641 0.185224 0
M  V30 9741 H 944.332 -4.9169 0.224031 0
M  V30 9742 N 945.984 -0.3171 -1.54377 0
M  V30 9743 C 946.894 0.560867 -2.27797 0
M  V30 9744 C 947.91 1.13473 -1.31908 0
M  V30 9745 O 949.086 1.15608 -1.64914 0
M  V30 9746 C 946.151 1.70886 -3.0166 0
M  V30 9747 C 945.212 1.16745 -4.13121 0
M  V30 9748 C 944.445 2.26073 -4.83453 0
M  V30 9749 O 944.668 3.46292 -4.53252 0
M  V30 9750 O 943.602 1.91856 -5.70504 0
M  V30 9751 H 947.428 -0.035193 -3.0368 0
M  V30 9752 H 945.013 -0.0830062 -1.49169 0
M  V30 9753 H 946.895 2.37736 -3.47936 0
M  V30 9754 H 945.57 2.29122 -2.28658 0
M  V30 9755 H 944.477 0.464224 -3.71209 0
M  V30 9756 H 945.81 0.630307 -4.88147 0
M  V30 9757 N 947.462 1.57535 -0.0451378 0
M  V30 9758 C 948.71 1.92071 0.628743 0
M  V30 9759 C 949.031 0.923635 1.71738 0
M  V30 9760 O 948.301 -0.0324376 1.95873 0
M  V30 9761 H 946.881 0.708995 0.235233 0
M  V30 9762 H 949.543 1.9466 -0.0967177 0
M  V30 9763 H 948.639 2.9314 1.07123 0
M  V30 9764 N 948.94 -0.228186 1.55939 0
M  V30 9765 C 950.168 -0.970618 1.8272 0
M  V30 9766 C 950.583 -1.78212 0.623385 0
M  V30 9767 O 949.94 -1.77879 -0.408063 0
M  V30 9768 C 949.991 -1.89352 3.07942 0
M  V30 9769 O 949.712 -1.11483 4.23678 0
M  V30 9770 C 951.213 -2.75039 3.47661 0
M  V30 9771 H 948.433 -0.284772 0.607574 0
M  V30 9772 H 950.977 -0.245419 2.03022 0
M  V30 9773 H 949.132 -2.57275 2.89635 0
M  V30 9774 H 949.546 -1.74073 4.94772 0
M  V30 9775 H 951.02 -3.35511 4.38334 0
M  V30 9776 H 951.497 -3.471 2.69106 0
M  V30 9777 H 952.103 -2.1254 3.68384 0
M  V30 9778 N 950.418 -1.49637 -0.494624 0
M  V30 9779 C 951.381 -1.66252 -1.57775 0
M  V30 9780 C 952.381 -0.534054 -1.51672 0
M  V30 9781 O 953.571 -0.800637 -1.54711 0
M  V30 9782 C 950.703 -1.66584 -2.97426 0
M  V30 9783 H 951.896 -2.62864 -1.4437 0
M  V30 9784 H 949.449 -1.38764 -0.719323 0
M  V30 9785 H 950.184 -0.715798 -3.16302 0
M  V30 9786 H 949.969 -2.48543 -3.03264 0
M  V30 9787 H 951.459 -1.81474 -3.76108 0
M  V30 9788 N 951.896 0.746133 -1.38819 0
M  V30 9789 C 953.143 1.50545 -1.35434 0
M  V30 9790 C 953.471 1.94427 0.0532669 0
M  V30 9791 O 952.726 1.66285 1.03188 0
M  V30 9792 C 953.025 2.76639 -2.26286 0
M  V30 9793 C 952.691 2.51682 -3.74122 0
M  V30 9794 C 951.353 2.44584 -4.14406 0
M  V30 9795 C 953.705 2.30071 -4.67672 0
M  V30 9796 C 951.033 2.13902 -5.46318 0
M  V30 9797 C 953.385 2.00907 -5.99849 0
M  V30 9798 C 952.049 1.92271 -6.39209 0
M  V30 9799 H 951.319 0.550883 -0.49559 0
M  V30 9800 H 953.966 0.857337 -1.71237 0
M  V30 9801 H 952.271 3.46138 -1.83564 0
M  V30 9802 H 953.968 3.34626 -2.20967 0
M  V30 9803 H 950.558 2.5808 -3.42188 0
M  V30 9804 H 954.742 2.34528 -4.3739 0
M  V30 9805 H 949.998 2.0573 -5.75748 0
M  V30 9806 H 954.172 1.83191 -6.71874 0
M  V30 9807 H 951.799 1.68261 -7.41345 0
M  V30 9808 N 953.375 1.23811 0.975125 0
M  V30 9809 C 954.338 1.02505 2.05001 0
M  V30 9810 C 955.338 -0.0150084 1.60793 0
M  V30 9811 O 956.528 0.225246 1.72738 0
M  V30 9812 C 953.66 0.552087 3.364 0
M  V30 9813 H 954.853 1.979 2.25335 0
M  V30 9814 H 952.406 1.05929 1.1493 0
M  V30 9815 H 953.141 -0.405394 3.21756 0
M  V30 9816 H 952.926 1.30267 3.69828 0
M  V30 9817 H 954.416 0.423828 4.15444 0
M  V30 9818 N 954.853 -1.17469 1.05066 0
M  V30 9819 C 955.801 -2.23495 0.644418 0
M  V30 9820 C 956.795 -1.66081 -0.333685 0
M  V30 9821 O 958.001 -1.78887 -0.199886 0
M  V30 9822 H 954.376 -0.727546 0.190214 0
M  V30 9823 H 956.347 -2.55058 1.5488 0
M  V30 9824 C 955.096 -3.47684 0.0338051 0
M  V30 9825 H 954.419 -3.92167 0.777513 0
M  V30 9826 H 955.859 -4.23464 -0.213086 0
M  V30 9827 C 954.318 -3.14067 -1.21915 0
M  V30 9828 O 954.848 -3.28728 -2.3087 0
M  V30 9829 N 953.054 -2.68304 -1.11631 0
M  V30 9830 H 952.601 -2.56574 -0.229673 0
M  V30 9831 H 952.559 -2.46184 -1.95553 0
M  V30 9832 N 956.331 -0.831506 -1.3388 0
M  V30 9833 C 957.579 -0.422837 -1.97627 0
M  V30 9834 C 957.9 1.01961 -1.6622 0
M  V30 9835 O 957.17 1.70916 -0.957323 0
M  V30 9836 H 955.75 -0.153365 -0.731087 0
M  V30 9837 H 958.412 -1.06284 -1.6337 0
M  V30 9838 H 957.508 -0.548858 -3.07236 0
M  V30 9839 N 957.809 1.4625 -0.587256 0
M  V30 9840 C 959.086 1.95599 -0.00750181 0
M  V30 9841 C 959.466 1.52989 1.45457 0
M  V30 9842 O 958.814 0.782731 2.14676 0
M  V30 9843 C 959.024 3.48513 -0.184309 0
M  V30 9844 C 960.372 4.24565 -0.0544972 0
M  V30 9845 O 961.396 3.5602 -0.113378 0
M  V30 9846 O 960.255 5.46445 0.0774075 0
M  V30 9847 H 957.349 0.825649 0.0472495 0
M  V30 9848 H 959.895 1.56512 -0.655893 0
M  V30 9849 H 958.667 3.72428 -1.20053 0
M  V30 9850 H 958.29 3.9444 0.500301 0
M  V30 9851 N 959.287 0.325282 1.54207 0
M  V30 9852 C 960.533 -0.277185 2.00897 0
M  V30 9853 C 960.866 -1.51651 1.21308 0
M  V30 9854 O 960.141 -1.92237 0.295825 0
M  V30 9855 C 960.424 -0.60961 3.54902 0
M  V30 9856 C 960.277 0.640542 4.45216 0
M  V30 9857 C 961.596 -1.42656 4.16338 0
M  V30 9858 H 958.715 -0.0992722 0.730284 0
M  V30 9859 H 961.357 0.442201 1.84783 0
M  V30 9860 H 959.507 -1.22249 3.68765 0
M  V30 9861 H 961.179 1.27878 4.43221 0
M  V30 9862 H 959.422 1.26908 4.14821 0
M  V30 9863 H 960.093 0.363459 5.50802 0
M  V30 9864 H 962.569 -0.908494 4.06061 0
M  V30 9865 H 961.445 -1.62792 5.24204 0
M  V30 9866 H 961.706 -2.42321 3.69774 0
M  V30 9867 N 960.765 -1.57509 0.0534917 0
M  V30 9868 C 962.014 -1.91959 -0.619244 0
M  V30 9869 C 962.327 -0.933882 -1.71866 0
M  V30 9870 O 963.533 -1.17052 -2.44972 0
M  V30 9871 C 961.989 -3.40938 -1.15278 0
M  V30 9872 C 961.597 -4.47919 -0.085348 0
M  V30 9873 C 963.341 -3.84419 -1.80063 0
M  V30 9874 C 961.248 -5.88014 -0.631897 0
M  V30 9875 H 960.178 -0.71642 -0.235072 0
M  V30 9876 H 962.829 -1.83089 0.122758 0
M  V30 9877 H 961.211 -3.44821 -1.94717 0
M  V30 9878 H 962.385 -4.55629 0.688374 0
M  V30 9879 H 960.7 -4.13793 0.465178 0
M  V30 9880 H 963.297 -4.86457 -2.21954 0
M  V30 9881 H 963.64 -3.20791 -2.65328 0
M  V30 9882 H 964.173 -3.83062 -1.07275 0
M  V30 9883 H 960.912 -6.55244 0.183175 0
M  V30 9884 H 960.432 -5.83861 -1.37355 0
M  V30 9885 H 962.111 -6.37336 -1.11407 0
M  V30 9886 N 962.243 0.219913 -1.56058 0
M  V30 9887 C 963.471 0.960915 -1.83232 0
M  V30 9888 C 963.886 1.77878 -0.632828 0
M  V30 9889 O 963.243 1.78093 0.398624 0
M  V30 9890 C 963.294 1.87716 -3.08942 0
M  V30 9891 O 963.015 1.09235 -4.24263 0
M  V30 9892 C 964.516 2.73192 -3.49115 0
M  V30 9893 H 961.736 0.281546 -0.609075 0
M  V30 9894 H 964.28 0.234648 -2.03149 0
M  V30 9895 H 962.435 2.55736 -2.90995 0
M  V30 9896 H 962.849 1.71446 -4.95688 0
M  V30 9897 H 964.323 3.33181 -4.40107 0
M  V30 9898 H 964.8 3.45668 -2.70943 0
M  V30 9899 H 965.406 2.10583 -3.69506 0
M  V30 9900 N 963.721 1.49897 0.486681 0
M  V30 9901 C 964.967 1.60342 1.2417 0
M  V30 9902 C 965.3 0.295694 1.91936 0
M  V30 9903 O 964.575 -0.701788 1.81398 0
M  V30 9904 C 964.858 2.77281 2.29755 0
M  V30 9905 C 964.711 4.1789 1.66397 0
M  V30 9906 C 966.03 2.89817 3.31201 0
M  V30 9907 H 963.149 0.583605 0.450083 0
M  V30 9908 H 965.791 1.82232 0.537734 0
M  V30 9909 H 963.941 2.58748 2.89796 0
M  V30 9910 H 965.613 4.47975 1.10073 0
M  V30 9911 H 963.856 4.22872 0.967579 0
M  V30 9912 H 964.527 4.95612 2.43049 0
M  V30 9913 H 967.003 3.06732 2.81167 0
M  V30 9914 H 965.879 3.7329 4.02425 0
M  V30 9915 H 966.14 1.9977 3.94391 0
M  V30 9916 N 965.199 -0.738761 1.39212 0
M  V30 9917 C 966.447 -1.49529 1.35962 0
M  V30 9918 C 966.768 -1.94948 -0.0450152 0
M  V30 9919 O 966.038 -1.68717 -0.995552 0
M  V30 9920 H 964.618 -0.554692 0.500326 0
M  V30 9921 H 967.28 -0.877255 1.74041 0
M  V30 9922 H 966.376 -2.37919 2.01993 0
M  V30 9923 N 966.677 -1.24326 -0.968545 0
M  V30 9924 C 968.093 -1.00847 -1.23701 0
M  V30 9925 C 968.293 0.283235 -1.99499 0
M  V30 9926 O 967.349 0.999607 -2.31871 0
M  V30 9927 C 968.662 -2.22295 -2.02498 0
M  V30 9928 C 970.21 -2.26911 -2.15593 0
M  V30 9929 C 970.685 -3.47978 -2.97784 0
M  V30 9930 N 972.176 -3.48289 -3.05367 0
M  V30 9931 C 972.911 -4.38625 -3.69318 0
M  V30 9932 N 972.407 -5.39213 -4.34995 0
M  V30 9933 N 974.2 -4.26339 -3.66322 0
M  V30 9934 H 966.351 -2.07335 -0.461087 0
M  V30 9935 H 968.614 -0.909805 -0.26638 0
M  V30 9936 H 968.32 -3.161 -1.54188 0
M  V30 9937 H 968.194 -2.24344 -3.03232 0
M  V30 9938 H 970.581 -1.33639 -2.63106 0
M  V30 9939 H 970.662 -2.28888 -1.14209 0
M  V30 9940 H 970.306 -4.41564 -2.50965 0
M  V30 9941 H 970.236 -3.43244 -3.99364 0
M  V30 9942 H 972.727 -2.75517 -2.58648 0
M  V30 9943 H 973.04 -6.04378 -4.81608 0
M  V30 9944 H 971.385 -5.43101 -4.33667 0
M  V30 9945 H 974.576 -3.46991 -3.14189 0
M  V30 9946 H 974.749 -4.9694 -4.15878 0
M  V30 9947 N 968.156 1.1691 -1.05688 0
M  V30 9948 C 969.066 2.24735 -0.67315 0
M  V30 9949 C 970.082 1.71252 0.308043 0
M  V30 9950 O 971.258 2.00772 0.158889 0
M  V30 9951 C 968.323 3.4665 -0.059026 0
M  V30 9952 C 967.384 4.15198 -1.0913 0
M  V30 9953 C 966.617 5.31292 -0.50639 0
M  V30 9954 O 966.84 5.663 0.682692 0
M  V30 9955 O 965.774 5.88923 -1.2431 0
M  V30 9956 H 969.6 2.59855 -1.57191 0
M  V30 9957 H 967.185 1.24306 -0.828751 0
M  V30 9958 H 969.067 4.20455 0.282018 0
M  V30 9959 H 967.742 3.13316 0.813304 0
M  V30 9960 H 966.649 3.43389 -1.48442 0
M  V30 9961 H 967.982 4.52571 -1.93495 0
M  V30 9962 N 969.634 0.838594 1.33437 0
M  V30 9963 C 970.564 0.286672 2.31734 0
M  V30 9964 C 971.545 -0.605451 1.5896 0
M  V30 9965 O 972.73 -0.529059 1.86854 0
M  V30 9966 C 969.86 -0.539311 3.43087 0
M  V30 9967 C 968.814 0.256997 4.27228 0
M  V30 9968 C 968.14 -0.692718 5.30194 0
M  V30 9969 C 969.44 1.47391 5.01072 0
M  V30 9970 H 971.134 1.10798 2.78144 0
M  V30 9971 H 968.68 0.534235 1.33723 0
M  V30 9972 H 970.633 -0.935724 4.1088 0
M  V30 9973 H 969.357 -1.39383 2.95364 0
M  V30 9974 H 968.016 0.634967 3.61059 0
M  V30 9975 H 967.664 -1.54363 4.78729 0
M  V30 9976 H 967.364 -0.164023 5.87371 0
M  V30 9977 H 968.888 -1.08665 6.00853 0
M  V30 9978 H 970.302 1.15067 5.61634 0
M  V30 9979 H 968.699 1.93937 5.67898 0
M  V30 9980 H 969.769 2.24382 4.29861 0
M  V30 9981 N 971.112 -1.45937 0.595003 0
M  V30 9982 C 972.06 -2.32155 -0.143798 0
M  V30 9983 C 973.054 -1.45221 -0.872198 0
M  V30 9984 O 974.26 -1.61777 -0.789191 0
M  V30 9985 H 970.635 -0.749165 -0.0652377 0
M  V30 9986 H 972.606 -2.92264 0.602005 0
M  V30 9987 C 971.355 -3.28615 -1.13611 0
M  V30 9988 H 970.678 -3.95496 -0.585044 0
M  V30 9989 H 972.118 -3.91699 -1.62321 0
M  V30 9990 C 970.577 -2.54863 -2.20333 0
M  V30 9991 O 971.107 -2.32071 -3.27881 0
M  V30 9992 N 969.313 -2.15213 -1.95274 0
M  V30 9993 H 968.86 -2.33949 -1.07822 0
M  V30 9994 H 968.818 -1.66188 -2.66888 0
M  V30 9995 N 972.59 -0.333456 -1.54032 0
M  V30 9996 C 973.839 0.267081 -1.99924 0
M  V30 9997 C 974.152 1.52463 -1.22534 0
M  V30 9998 O 975.358 2.20178 -1.58852 0
M  V30 9999 C 973.814 0.526456 -3.56029 0
M  V30 10000 C 973.422 -0.714607 -4.42264 0
M  V30 10001 C 975.166 1.0864 -4.10363 0
M  V30 10002 C 973.073 -0.42659 -5.89859 0
M  V30 10003 H 972.003 0.103577 -0.746852 0
M  V30 10004 H 974.654 -0.447218 -1.77967 0
M  V30 10005 H 973.036 1.3012 -3.74012 0
M  V30 10006 H 974.21 -1.48968 -4.36056 0
M  V30 10007 H 972.525 -1.19547 -3.9887 0
M  V30 10008 H 975.122 1.31668 -5.18235 0
M  V30 10009 H 975.465 2.03884 -3.62956 0
M  V30 10010 H 975.998 0.37261 -3.96051 0
M  V30 10011 H 972.737 -1.34847 -6.4148 0
M  V30 10012 H 972.257 0.310588 -5.98995 0
M  V30 10013 H 973.936 -0.0400807 -6.46988 0
M  V30 10014 N 974.068 1.57479 -0.061844 0
M  V30 10015 C 975.345 1.84484 0.649993 0
M  V30 10016 C 975.725 0.952366 1.88396 0
M  V30 10017 O 975.073 0.0161035 2.28494 0
M  V30 10018 C 975.283 3.34452 0.997133 0
M  V30 10019 C 976.631 4.01724 1.37488 0
M  V30 10020 O 977.655 3.3914 1.08916 0
M  V30 10021 O 976.514 5.12091 1.90854 0
M  V30 10022 H 973.608 0.761798 0.321858 0
M  V30 10023 H 976.154 1.6945 -0.0920192 0
M  V30 10024 H 974.926 3.91115 0.120301 0
M  V30 10025 H 974.549 3.54713 1.79624 0
M  V30 10026 N 975.546 -0.211634 1.56173 0
M  V30 10027 C 976.456 -1.2831 1.96402 0
M  V30 10028 C 977.472 -1.50731 0.869254 0
M  V30 10029 O 978.648 -1.63669 1.17365 0
M  V30 10030 C 975.713 -2.61084 2.28114 0
M  V30 10031 C 974.774 -2.46879 3.51211 0
M  V30 10032 C 974.007 -3.73321 3.81401 0
M  V30 10033 O 974.23 -4.76773 3.13119 0
M  V30 10034 O 973.164 -3.69839 4.74871 0
M  V30 10035 H 976.99 -0.971733 2.87734 0
M  V30 10036 H 974.575 -0.415305 1.43512 0
M  V30 10037 H 976.457 -3.39481 2.49661 0
M  V30 10038 H 975.132 -2.91881 1.39954 0
M  V30 10039 H 974.039 -1.66648 3.34932 0
M  V30 10040 H 975.372 -2.21018 4.39786 0
M  V30 10041 N 977.024 -1.50153 -0.478725 0
M  V30 10042 C 978.249 -1.64776 -1.2595 0
M  V30 10043 C 978.674 -0.327794 -1.85222 0
M  V30 10044 O 978.032 0.707418 -1.66929 0
M  V30 10045 C 978.08 -2.73551 -2.34952 0
M  V30 10046 O 977.184 -2.34273 -3.39397 0
M  V30 10047 H 976.525 -0.550769 -0.370877 0
M  V30 10048 H 979.055 -1.96482 -0.570605 0
M  V30 10049 H 979.065 -2.96397 -2.8038 0
M  V30 10050 H 977.74 -3.69354 -1.91181 0
M  V30 10051 H 976.317 -2.21844 -2.99733 0
M  V30 10052 N 978.502 0.731368 -1.39602 0
M  V30 10053 C 979.432 1.85855 -1.41351 0
M  V30 10054 C 980.413 1.67839 -0.2764 0
M  V30 10055 O 981.598 1.88104 -0.482747 0
M  V30 10056 C 978.728 3.23644 -1.25983 0
M  V30 10057 C 977.682 3.56304 -2.37132 0
M  V30 10058 C 977.008 4.93069 -2.0685 0
M  V30 10059 C 978.308 3.58906 -3.79452 0
M  V30 10060 H 980.002 1.84648 -2.3568 0
M  V30 10061 H 977.548 0.886955 -1.13442 0
M  V30 10062 H 979.501 4.02176 -1.25826 0
M  V30 10063 H 978.225 3.25387 -0.281234 0
M  V30 10064 H 976.884 2.80104 -2.36511 0
M  V30 10065 H 976.532 4.91396 -1.0742 0
M  V30 10066 H 976.232 5.15888 -2.81306 0
M  V30 10067 H 977.756 5.73953 -2.0835 0
M  V30 10068 H 979.17 4.27508 -3.81982 0
M  V30 10069 H 977.567 3.93246 -4.53297 0
M  V30 10070 H 978.637 2.58631 -4.10168 0
M  V30 10071 N 979.98 1.24838 0.961938 0
M  V30 10072 C 981.208 1.11871 1.74047 0
M  V30 10073 C 981.623 -0.328209 1.85925 0
M  V30 10074 O 980.98 -1.22616 1.35173 0
M  V30 10075 C 981.031 1.75931 3.15801 0
M  V30 10076 O 980.752 3.14967 3.04512 0
M  V30 10077 C 982.253 1.68649 4.09966 0
M  V30 10078 H 979.473 0.390569 0.545616 0
M  V30 10079 H 982.017 1.65058 1.20732 0
M  V30 10080 H 980.172 1.26733 3.66084 0
M  V30 10081 H 980.586 3.46349 3.93882 0
M  V30 10082 H 982.06 2.18144 5.07067 0
M  V30 10083 H 982.537 0.648831 4.34381 0
M  V30 10084 H 983.143 2.17301 3.65596 0
M  V30 10085 N 981.458 -1.16348 1.06306 0
M  V30 10086 C 982.388 -2.2291 0.695234 0
M  V30 10087 C 983.369 -1.67208 -0.312343 0
M  V30 10088 O 984.554 -1.93293 -0.187442 0
M  V30 10089 C 981.684 -3.47205 0.0810149 0
M  V30 10090 C 980.638 -4.15801 1.01458 0
M  V30 10091 C 979.964 -5.3405 0.263656 0
M  V30 10092 C 981.264 -4.66766 2.34365 0
M  V30 10093 H 982.958 -2.53934 1.58613 0
M  V30 10094 H 980.504 -1.22056 0.76409 0
M  V30 10095 H 982.457 -4.2098 -0.18818 0
M  V30 10096 H 981.181 -3.15482 -0.844897 0
M  V30 10097 H 979.84 -3.43954 1.26852 0
M  V30 10098 H 979.488 -4.9858 -0.665378 0
M  V30 10099 H 979.188 -5.80885 0.88582 0
M  V30 10100 H 980.712 -6.106 0.00200994 0
M  V30 10101 H 982.126 -5.3212 2.13356 0
M  V30 10102 H 980.523 -5.24223 2.9208 0
M  V30 10103 H 981.593 -3.82969 2.97426 0
M  V30 10104 N 982.937 -0.845659 -1.3299 0
M  V30 10105 C 984.353 -0.53433 -1.5039 0
M  V30 10106 C 984.553 0.936939 -1.78392 0
M  V30 10107 O 983.609 1.72043 -1.84818 0
M  V30 10108 C 984.922 -1.41354 -2.65404 0
M  V30 10109 C 986.47 -1.41303 -2.79289 0
M  V30 10110 C 986.945 -2.27724 -3.97373 0
M  V30 10111 N 988.436 -2.25471 -4.0462 0
M  V30 10112 C 989.171 -2.89074 -4.95201 0
M  V30 10113 N 988.667 -3.61755 -5.90851 0
M  V30 10114 N 990.46 -2.78508 -4.88251 0
M  V30 10115 H 982.611 -1.79798 -1.13078 0
M  V30 10116 H 984.874 -0.767454 -0.556524 0
M  V30 10117 H 984.58 -2.45936 -2.51413 0
M  V30 10118 H 984.454 -1.09445 -3.60973 0
M  V30 10119 H 986.841 -0.374899 -2.92709 0
M  V30 10120 H 986.922 -1.77222 -1.84461 0
M  V30 10121 H 986.566 -3.316 -3.84713 0
M  V30 10122 H 986.496 -1.89142 -4.9146 0
M  V30 10123 H 988.987 -1.72622 -3.3617 0
M  V30 10124 H 989.3 -4.07475 -6.56646 0
M  V30 10125 H 987.645 -3.65863 -5.90906 0
M  V30 10126 H 990.836 -2.21285 -4.12493 0
M  V30 10127 H 991.009 -3.2836 -5.58645 0
M  V30 10128 N 984.415 1.45619 -0.602734 0
M  V30 10129 C 985.345 2.33258 0.106342 0
M  V30 10130 C 986.326 1.46543 0.863664 0
M  V30 10131 O 987.511 1.75324 0.835175 0
M  V30 10132 C 984.641 3.29168 1.10751 0
M  V30 10133 C 983.595 4.25481 0.463717 0
M  V30 10134 C 982.921 5.11046 1.57278 0
M  V30 10135 C 984.221 5.18702 -0.61199 0
M  V30 10136 H 985.915 2.92795 -0.625423 0
M  V30 10137 H 983.461 1.40793 -0.302213 0
M  V30 10138 H 985.414 3.89346 1.61208 0
M  V30 10139 H 984.138 2.6778 1.8698 0
M  V30 10140 H 982.797 3.66595 -0.0199496 0
M  V30 10141 H 982.445 4.46029 2.32524 0
M  V30 10142 H 982.145 5.76286 1.14755 0
M  V30 10143 H 983.669 5.74091 2.07972 0
M  V30 10144 H 985.083 5.72979 -0.191686 0
M  V30 10145 H 983.48 5.92393 -0.958686 0
M  V30 10146 H 984.55 4.61424 -1.4905 0
M  V30 10147 N 985.893 0.34162 1.53853 0
M  V30 10148 C 987.123 -0.256557 2.05001 0
M  V30 10149 C 987.531 -1.44916 1.21639 0
M  V30 10150 O 986.874 -1.8207 0.244138 0
M  V30 10151 C 986.936 -0.737109 3.51862 0
M  V30 10152 C 986.6 0.335584 4.55766 0
M  V30 10153 C 987.597 1.17765 5.06387 0
M  V30 10154 C 985.282 0.488958 4.99914 0
M  V30 10155 C 987.276 2.15865 5.99734 0
M  V30 10156 C 984.963 1.47336 5.93073 0
M  V30 10157 C 985.961 2.30666 6.4287 0
M  V30 10158 O 985.649 3.2743 7.34197 0
M  V30 10159 H 985.381 -0.0536867 0.673865 0
M  V30 10160 H 987.935 0.49123 1.99439 0
M  V30 10161 H 986.165 -1.53611 3.54881 0
M  V30 10162 H 987.854 -1.25562 3.85991 0
M  V30 10163 H 988.62 1.07023 4.73044 0
M  V30 10164 H 984.499 -0.149807 4.60757 0
M  V30 10165 H 988.043 2.80945 6.38526 0
M  V30 10166 H 983.94 1.58134 6.25831 0
M  V30 10167 H 984.708 3.22879 7.52125 0
M  V30 10168 N 987.371 -1.57444 0.0701946 0
M  V30 10169 C 988.334 -2.11511 -0.882923 0
M  V30 10170 C 989.334 -1.03879 -1.22743 0
M  V30 10171 O 990.524 -1.29874 -1.16097 0
M  V30 10172 C 987.656 -2.61514 -2.18686 0
M  V30 10173 H 988.849 -2.9703 -0.413873 0
M  V30 10174 H 986.402 -1.55278 -0.178488 0
M  V30 10175 H 987.137 -1.79443 -2.70131 0
M  V30 10176 H 986.922 -3.40185 -1.94978 0
M  V30 10177 H 988.412 -3.03425 -2.86919 0
M  V30 10178 N 988.849 0.203349 -1.56283 0
M  V30 10179 C 989.759 1.27266 -1.9708 0
M  V30 10180 C 990.775 1.50268 -0.877236 0
M  V30 10181 O 991.951 1.63044 -1.18231 0
M  V30 10182 C 989.016 2.59871 -2.29495 0
M  V30 10183 C 988.077 2.45012 -3.52516 0
M  V30 10184 C 987.31 3.71293 -3.83376 0
M  V30 10185 O 987.533 4.75106 -3.15643 0
M  V30 10186 O 986.467 3.67316 -4.76826 0
M  V30 10187 H 990.293 0.956461 -2.88246 0
M  V30 10188 H 987.878 0.407688 -1.4373 0
M  V30 10189 H 989.76 3.38152 -2.51458 0
M  V30 10190 H 988.435 2.91135 -1.415 0
M  V30 10191 H 987.342 1.6487 -3.35811 0
M  V30 10192 H 988.675 2.18683 -4.40952 0
M  V30 10193 N 990.327 1.50405 0.470755 0
M  V30 10194 C 991.275 1.6982 1.58946 0
M  V30 10195 C 992.269 0.56407 1.59733 0
M  V30 10196 O 993.475 0.744576 1.63878 0
M  V30 10197 H 989.85 0.536016 0.527438 0
M  V30 10198 H 991.821 2.63662 1.39732 0
M  V30 10199 C 990.57 1.80986 2.96883 0
M  V30 10200 H 989.893 2.67645 2.96996 0
M  V30 10201 H 991.333 1.98596 3.74614 0
M  V30 10202 C 989.792 0.561551 3.32187 0
M  V30 10203 O 990.322 -0.299136 4.00585 0
M  V30 10204 N 988.528 0.415476 2.87615 0
M  V30 10205 H 988.075 1.11691 2.32127 0
M  V30 10206 H 988.033 -0.418592 3.11601 0
M  V30 10207 N 991.805 -0.723954 1.39988 0
M  V30 10208 C 992.715 -1.86829 1.41887 0
M  V30 10209 C 993.731 -1.71173 0.312401 0
M  V30 10210 O 994.907 -1.93583 0.555651 0
M  V30 10211 C 991.972 -3.22541 1.27154 0
M  V30 10212 C 991.033 -3.50512 2.47871 0
M  V30 10213 C 990.266 -4.79749 2.33831 0
M  V30 10214 O 990.489 -5.54251 1.34765 0
M  V30 10215 O 989.423 -5.07868 3.23039 0
M  V30 10216 H 993.249 -1.88183 2.38371 0
M  V30 10217 H 990.834 -0.873259 1.21221 0
M  V30 10218 H 992.716 -4.0362 1.21114 0
M  V30 10219 H 991.391 -3.21933 0.337715 0
M  V30 10220 H 990.298 -2.69475 2.59488 0
M  V30 10221 H 991.631 -3.55909 3.39985 0
M  V30 10222 N 993.283 -1.25346 -0.955304 0
M  V30 10223 C 994.511 -1.12793 -1.73451 0
M  V30 10224 C 994.926 0.318344 -1.86097 0
M  V30 10225 O 994.283 1.21897 -1.35821 0
M  V30 10226 C 994.334 -1.77603 -3.14864 0
M  V30 10227 O 994.055 -3.16577 -3.02837 0
M  V30 10228 C 995.556 -1.70821 -4.09066 0
M  V30 10229 H 992.776 -0.393457 -0.543537 0
M  V30 10230 H 995.32 -1.65696 -1.19855 0
M  V30 10231 H 993.475 -1.28673 -3.65407 0
M  V30 10232 H 993.889 -3.48433 -3.92039 0
M  V30 10233 H 995.363 -2.2083 -5.05903 0
M  V30 10234 H 995.84 -0.671858 -4.34031 0
M  V30 10235 H 996.446 -2.19237 -3.64438 0
M  V30 10236 N 994.761 1.15782 -1.06922 0
M  V30 10237 C 996.009 1.86097 -0.788192 0
M  V30 10238 C 996.33 1.82475 0.687606 0
M  V30 10239 O 995.6 1.26266 1.49778 0
M  V30 10240 H 994.18 0.689008 -0.288577 0
M  V30 10241 H 996.842 1.40377 -1.35205 0
M  V30 10242 H 995.938 2.91358 -1.1188 0
M  V30 10243 N 996.239 0.8527 1.3254 0
M  V30 10244 C 997.149 0.298744 2.3269 0
M  V30 10245 C 998.165 -0.582418 1.63963 0
M  V30 10246 O 999.341 -0.483253 1.95516 0
M  V30 10247 C 996.406 -0.505453 3.42996 0
M  V30 10248 C 995.467 0.401618 4.27417 0
M  V30 10249 C 994.7 -0.364294 5.32455 0
M  V30 10250 O 994.923 -1.59448 5.47661 0
M  V30 10251 O 993.857 0.268892 6.01299 0
M  V30 10252 H 997.683 1.12843 2.81958 0
M  V30 10253 H 995.268 0.615584 1.36128 0
M  V30 10254 H 997.15 -0.961974 4.10273 0
M  V30 10255 H 995.825 -1.31197 2.95921 0
M  V30 10256 H 994.732 0.906274 3.62957 0
M  V30 10257 H 996.065 1.17327 4.78012 0
M  V30 10258 N 997.718 -1.45297 0.610449 0
M  V30 10259 C 998.681 -2.28995 -0.0968194 0
M  V30 10260 C 999.681 -1.39923 -0.792353 0
M  V30 10261 O 1000.87 -1.62014 -0.64008 0
M  V30 10262 C 998.003 -3.21013 -1.14731 0
M  V30 10263 H 999.196 -2.93012 0.639082 0
M  V30 10264 H 996.749 -1.51867 0.369624 0
M  V30 10265 H 997.484 -2.61803 -1.91388 0
M  V30 10266 H 997.269 -3.86628 -0.652753 0
M  V30 10267 H 998.759 -3.8394 -1.64256 0
M  V30 10268 N 999.196 -0.349774 -1.5367 0
M  V30 10269 C 1000.14 0.504121 -2.25227 0
M  V30 10270 C 1001.11 1.09048 -1.2529 0
M  V30 10271 O 1002.3 1.12594 -1.54037 0
M  V30 10272 C 999.438 1.64601 -3.03316 0
M  V30 10273 C 998.551 1.08635 -4.18118 0
M  V30 10274 C 997.686 2.19605 -4.83681 0
M  V30 10275 C 996.725 1.61023 -5.90541 0
M  V30 10276 N 995.862 2.6576 -6.49858 0
M  V30 10277 H 1000.7 -0.112621 -2.97787 0
M  V30 10278 H 998.239 -0.0673503 -1.46946 0
M  V30 10279 H 1000.2 2.31836 -3.46854 0
M  V30 10280 H 998.827 2.23364 -2.33041 0
M  V30 10281 H 997.879 0.304748 -3.79177 0
M  V30 10282 H 999.191 0.617911 -4.94958 0
M  V30 10283 H 998.345 2.94693 -5.30322 0
M  V30 10284 H 997.084 2.69795 -4.06278 0
M  V30 10285 H 996.089 0.844428 -5.43277 0
M  V30 10286 H 997.314 1.11677 -6.69855 0
M  V30 10287 H 995.26 3.15193 -5.75317 0
M  V30 10288 H 995.177 2.23557 -7.2219 0
M  V30 10289 H 996.445 3.40598 -7.01151 0
M  V30 10290 N 1000.67 1.57404 -0.0785433 0
M  V30 10291 C 1001.64 2.11977 0.871693 0
M  V30 10292 C 1002.64 1.04529 1.2219 0
M  V30 10293 O 1003.83 1.30488 1.15406 0
M  V30 10294 C 1000.96 2.6267 2.17296 0
M  V30 10295 H 1002.15 2.97246 0.398115 0
M  V30 10296 H 999.705 1.5537 0.170251 0
M  V30 10297 H 1000.44 1.80873 2.69175 0
M  V30 10298 H 1000.22 3.41214 1.93171 0
M  V30 10299 H 1001.71 3.04943 2.85306 0
M  V30 10300 N 1002.15 -0.195058 1.56388 0
M  V30 10301 C 1003.06 -1.26219 1.97752 0
M  V30 10302 C 1004.08 -1.49801 0.885192 0
M  V30 10303 O 1005.25 -1.62415 1.19094 0
M  V30 10304 C 1002.32 -2.5865 2.3087 0
M  V30 10305 C 1001.38 -2.4314 3.5381 0
M  V30 10306 C 1000.61 -3.69255 3.85339 0
M  V30 10307 O 1000.84 -4.73425 3.18159 0
M  V30 10308 O 999.77 -3.64782 4.78767 0
M  V30 10309 H 1003.6 -0.941161 2.88749 0
M  V30 10310 H 1001.18 -0.40006 1.43944 0
M  V30 10311 H 1003.06 -3.36814 2.53247 0
M  V30 10312 H 1001.74 -2.9038 1.43042 0
M  V30 10313 H 1000.64 -1.63086 3.3668 0
M  V30 10314 H 1001.98 -2.16341 4.42105 0
M  V30 10315 N 1003.63 -1.50653 -0.462772 0
M  V30 10316 C 1004.88 -1.62057 -1.21424 0
M  V30 10317 C 1005.2 -0.324778 -1.91769 0
M  V30 10318 O 1004.46 0.689828 -1.83139 0
M  V30 10319 C 1004.76 -2.75637 -2.27507 0
M  V30 10320 C 1004.42 -4.15826 -1.74354 0
M  V30 10321 C 1003.09 -4.53969 -1.5958 0
M  V30 10322 C 1005.44 -5.03409 -1.35012 0
M  V30 10323 C 1002.77 -5.77427 -1.03899 0
M  V30 10324 C 1005.12 -6.27422 -0.807704 0
M  V30 10325 C 1003.78 -6.6436 -0.646657 0
M  V30 10326 H 1003.05 -0.59301 -0.44432 0
M  V30 10327 H 1005.7 -1.84612 -0.508999 0
M  V30 10328 H 1004 -2.47203 -3.0397 0
M  V30 10329 H 1005.7 -2.81663 -2.85424 0
M  V30 10330 H 1002.29 -3.85739 -1.86823 0
M  V30 10331 H 1006.48 -4.74567 -1.45258 0
M  V30 10332 H 1001.73 -6.04713 -0.901751 0
M  V30 10333 H 1005.91 -6.94644 -0.494234 0
M  V30 10334 H 1003.53 -7.59901 -0.213053 0
M  V30 10335 N 1005.11 0.71652 -1.4037 0
M  V30 10336 C 1006.34 1.50563 -1.4191 0
M  V30 10337 C 1006.75 1.88791 -0.0185456 0
M  V30 10338 O 1006.11 1.55378 0.957289 0
M  V30 10339 C 1006.16 2.78155 -2.30894 0
M  V30 10340 O 1005.88 2.41543 -3.65497 0
M  V30 10341 C 1007.38 3.72057 -2.41016 0
M  V30 10342 H 1004.6 0.464679 -0.48406 0
M  V30 10343 H 1007.15 0.883927 -1.8441 0
M  V30 10344 H 1005.3 3.36611 -1.91759 0
M  V30 10345 H 1005.71 3.23636 -4.12747 0
M  V30 10346 H 1007.19 4.58426 -3.07489 0
M  V30 10347 H 1007.67 4.15098 -1.43492 0
M  V30 10348 H 1008.27 3.19512 -2.80699 0
M  V30 10349 N 1006.59 1.25851 0.948643 0
M  V30 10350 C 1007.83 1.10954 1.69397 0
M  V30 10351 C 1008.16 -0.348443 1.91353 0
M  V30 10352 O 1007.42 -1.27285 1.48651 0
M  V30 10353 C 1007.72 1.81565 3.07846 0
M  V30 10354 C 1007.38 3.31477 3.0567 0
M  V30 10355 C 1006.04 3.72371 3.04784 0
M  V30 10356 C 1008.4 4.27225 2.98543 0
M  V30 10357 C 1005.72 5.07416 2.94527 0
M  V30 10358 C 1008.08 5.62301 2.89828 0
M  V30 10359 C 1006.74 6.02516 2.87281 0
M  V30 10360 H 1006.01 0.406011 0.619868 0
M  V30 10361 H 1008.66 1.562 1.10787 0
M  V30 10362 H 1006.96 1.28767 3.70035 0
M  V30 10363 H 1008.66 1.67486 3.64348 0
M  V30 10364 H 1005.25 2.98941 3.07135 0
M  V30 10365 H 1009.43 3.96618 2.98342 0
M  V30 10366 H 1004.69 5.37746 2.90928 0
M  V30 10367 H 1008.86 6.36182 2.83276 0
M  V30 10368 H 1006.49 7.07116 2.79089 0
M  V30 10369 N 1008.06 -1.15214 1.07534 0
M  V30 10370 C 1009.29 -1.89922 0.820804 0
M  V30 10371 C 1009.71 -1.78114 -0.626177 0
M  V30 10372 O 1009.06 -1.13435 -1.42964 0
M  V30 10373 C 1009.12 -3.40207 1.22236 0
M  V30 10374 O 1008.84 -3.51676 2.61257 0
M  V30 10375 C 1010.34 -4.31934 0.997393 0
M  V30 10376 H 1007.56 -0.601865 0.296647 0
M  V30 10377 H 1010.1 -1.45965 1.43229 0
M  V30 10378 H 1008.26 -3.8182 0.655167 0
M  V30 10379 H 1008.67 -4.44959 2.77689 0
M  V30 10380 H 1010.14 -5.35791 1.32785 0
M  V30 10381 H 1010.62 -4.3915 -0.0661599 0
M  V30 10382 H 1011.23 -3.96066 1.54958 0
M  V30 10383 N 1009.54 -0.859717 -1.32086 0
M  V30 10384 C 1010.49 -0.306042 -2.28762 0
M  V30 10385 C 1011.46 0.589801 -1.55276 0
M  V30 10386 O 1012.64 0.523633 -1.83474 0
M  V30 10387 C 1009.78 0.495256 -3.41528 0
M  V30 10388 C 1008.9 -0.426947 -4.29885 0
M  V30 10389 C 1008.03 0.387474 -5.29785 0
M  V30 10390 C 1007.07 -0.531807 -6.09785 0
M  V30 10391 N 1006.21 0.245741 -7.0167 0
M  V30 10392 H 1011.05 -1.1357 -2.7551 0
M  V30 10393 H 1008.59 -0.571468 -1.35546 0
M  V30 10394 H 1010.54 0.97551 -4.05635 0
M  V30 10395 H 1009.17 1.28969 -2.95917 0
M  V30 10396 H 1008.23 -1.02561 -3.66313 0
M  V30 10397 H 1009.54 -1.13226 -4.85779 0
M  V30 10398 H 1008.69 0.930677 -5.99519 0
M  V30 10399 H 1007.43 1.12612 -4.74521 0
M  V30 10400 H 1006.44 -1.08685 -5.3895 0
M  V30 10401 H 1007.66 -1.26915 -6.67135 0
M  V30 10402 H 1005.61 0.967391 -6.48828 0
M  V30 10403 H 1005.52 -0.400432 -7.54939 0
M  V30 10404 H 1006.79 0.770507 -7.75683 0
M  V30 10405 N 1011.02 1.44971 -0.618145 0
M  V30 10406 C 1012.27 2.02458 -0.117656 0
M  V30 10407 C 1012.6 1.48413 1.25248 0
M  V30 10408 O 1011.87 0.662997 1.82851 0
M  V30 10409 C 1012.16 3.59987 -0.0901897 0
M  V30 10410 C 1012.01 4.24343 -1.49175 0
M  V30 10411 C 1013.33 4.36099 0.592121 0
M  V30 10412 H 1010.45 0.735672 -0.0442291 0
M  V30 10413 H 1013.09 1.727 -0.792138 0
M  V30 10414 H 1011.24 3.85471 0.484175 0
M  V30 10415 H 1012.91 4.10009 -2.114 0
M  V30 10416 H 1011.16 3.82337 -2.04941 0
M  V30 10417 H 1011.83 5.33298 -1.42468 0
M  V30 10418 H 1014.3 4.1597 0.103813 0
M  V30 10419 H 1013.18 5.45822 0.580481 0
M  V30 10420 H 1013.44 4.09746 1.66015 0
M  V30 10421 N 1012.5 0.357919 1.53482 0
M  V30 10422 C 1013.91 -0.122938 1.86295 0
M  V30 10423 C 1014.26 -1.48803 1.27875 0
M  V30 10424 O 1013.39 -2.07978 0.597828 0
M  V30 10425 C 1013.98 -0.229853 3.38019 0
M  V30 10426 C 1012.54 -0.654955 3.70658 0
M  V30 10427 C 1011.69 0.202539 2.76559 0
M  V30 10428 H 1014.64 0.576997 1.47839 0
M  V30 10429 H 1014.66 -1.05481 3.65587 0
M  V30 10430 H 1014.17 0.763825 3.80509 0
M  V30 10431 H 1012.27 -1.65714 3.33721 0
M  V30 10432 H 1012.38 -0.43488 4.77122 0
M  V30 10433 H 1010.75 -0.327388 2.52587 0
M  V30 10434 H 1011.53 1.19361 3.21882 0
M  V30 10435 N 1013.98 -1.5736 0.0868897 0
M  V30 10436 C 1014.94 -2.12436 -0.860439 0
M  V30 10437 C 1015.94 -1.05175 -1.21634 0
M  V30 10438 O 1017.13 -1.31098 -1.14713 0
M  V30 10439 C 1014.26 -2.63818 -2.159 0
M  V30 10440 H 1015.45 -2.97453 -0.382346 0
M  V30 10441 H 1013.01 -1.55458 -0.162009 0
M  V30 10442 H 1013.74 -1.82298 -2.68212 0
M  V30 10443 H 1013.53 -3.42234 -1.91359 0
M  V30 10444 H 1015.02 -3.06452 -2.83685 0
M  V30 10445 N 1015.45 0.186762 -1.56489 0
M  V30 10446 C 1016.68 0.920495 -1.84961 0
M  V30 10447 C 1017.09 1.77004 -0.668297 0
M  V30 10448 O 1016.44 1.79891 0.37213 0
M  V30 10449 C 1016.5 1.85997 -3.07645 0
M  V30 10450 C 1016.16 1.19156 -4.41193 0
M  V30 10451 C 1017.16 0.564446 -5.16827 0
M  V30 10452 C 1014.84 1.19292 -4.87929 0
M  V30 10453 C 1016.84 -0.0523768 -6.37378 0
M  V30 10454 C 1014.52 0.572266 -6.08415 0
M  V30 10455 C 1015.52 -0.049294 -6.82982 0
M  V30 10456 O 1015.21 -0.660201 -8.01184 0
M  V30 10457 H 1014.94 0.273659 -0.618132 0
M  V30 10458 H 1017.5 0.196437 -2.04459 0
M  V30 10459 H 1015.73 2.62394 -2.84053 0
M  V30 10460 H 1017.42 2.46221 -3.22692 0
M  V30 10461 H 1018.18 0.555474 -4.81809 0
M  V30 10462 H 1014.06 1.66611 -4.29839 0
M  V30 10463 H 1017.6 -0.538133 -6.95521 0
M  V30 10464 H 1013.5 0.578769 -6.429 0
M  V30 10465 H 1014.27 -0.557926 -8.16596 0
M  V30 10466 N 1016.93 1.50896 0.454776 0
M  V30 10467 C 1018.34 1.55372 1.0352 0
M  V30 10468 C 1018.69 0.366822 1.9274 0
M  V30 10469 O 1017.82 -0.518444 2.10098 0
M  V30 10470 C 1018.41 2.81574 1.88418 0
M  V30 10471 C 1016.97 2.88679 2.4154 0
M  V30 10472 C 1016.12 2.49847 1.20298 0
M  V30 10473 H 1019.07 1.56924 0.236729 0
M  V30 10474 H 1019.09 2.64352 2.73676 0
M  V30 10475 H 1018.6 3.67941 1.23455 0
M  V30 10476 H 1016.71 2.06702 3.10008 0
M  V30 10477 H 1016.82 3.91944 2.7553 0
M  V30 10478 H 1015.18 2.02651 1.54288 0
M  V30 10479 H 1015.97 3.3854 0.569723 0
M  V30 10480 N 1018.41 -0.709066 1.40748 0
M  V30 10481 C 1019.34 -1.83412 1.37451 0
M  V30 10482 C 1020.36 -1.60394 0.27884 0
M  V30 10483 O 1021.54 -1.70147 0.539642 0
M  V30 10484 C 1018.64 -3.19935 1.1178 0
M  V30 10485 C 1017.82 -3.70095 2.33128 0
M  V30 10486 C 1016.88 -4.85249 2.03518 0
M  V30 10487 O 1015.9 -4.97563 2.76442 0
M  V30 10488 N 1017.1 -5.7152 1.01714 0
M  V30 10489 H 1019.87 -1.86736 2.34414 0
M  V30 10490 H 1017.43 -0.890863 1.35186 0
M  V30 10491 H 1019.42 -3.94578 0.899464 0
M  V30 10492 H 1017.99 -3.11718 0.234624 0
M  V30 10493 H 1017.21 -2.8651 2.70751 0
M  V30 10494 H 1018.5 -4.00344 3.1401 0
M  V30 10495 H 1017.9 -5.64188 0.413307 0
M  V30 10496 H 1016.46 -6.46119 0.858696 0
M  V30 10497 N 1019.89 -1.26353 -0.941956 0
M  V30 10498 C 1021.14 -1.12017 -1.69056 0
M  V30 10499 C 1021.47 0.335856 -1.91274 0
M  V30 10500 O 1020.74 1.24677 -1.49285 0
M  V30 10501 C 1021.03 -1.88889 -3.06583 0
M  V30 10502 C 1020.88 -3.42394 -2.91696 0
M  V30 10503 C 1022.2 -1.68209 -4.06686 0
M  V30 10504 H 1019.32 -0.408311 -0.613556 0
M  V30 10505 H 1021.96 -1.55339 -1.09407 0
M  V30 10506 H 1020.11 -1.5207 -3.57501 0
M  V30 10507 H 1021.78 -3.88962 -2.48005 0
M  V30 10508 H 1020.02 -3.69459 -2.27338 0
M  V30 10509 H 1020.7 -3.91408 -3.89235 0
M  V30 10510 H 1023.17 -2.00286 -3.64726 0
M  V30 10511 H 1022.05 -2.24412 -5.00929 0
M  V30 10512 H 1022.31 -0.626474 -4.37639 0
M  V30 10513 N 1021.37 1.14642 -1.08144 0
M  V30 10514 C 1022.61 1.85617 -0.809484 0
M  V30 10515 C 1022.94 1.8279 0.664672 0
M  V30 10516 O 1022.2 1.25178 1.50429 0
M  V30 10517 C 1022.5 3.33953 -1.2732 0
M  V30 10518 C 1022.16 3.56969 -2.7547 0
M  V30 10519 C 1020.82 3.6296 -3.15933 0
M  V30 10520 C 1023.18 3.66014 -3.71057 0
M  V30 10521 C 1020.5 3.75515 -4.50783 0
M  V30 10522 C 1022.86 3.80094 -5.05679 0
M  V30 10523 C 1021.52 3.84333 -5.45751 0
M  V30 10524 H 1020.79 0.67922 -0.296211 0
M  V30 10525 H 1023.44 1.35433 -1.35389 0
M  V30 10526 H 1021.74 3.86399 -0.648329 0
M  V30 10527 H 1023.44 3.87291 -1.03957 0
M  V30 10528 H 1020.03 3.52953 -2.4315 0
M  V30 10529 H 1024.21 3.60679 -3.40917 0
M  V30 10530 H 1019.47 3.77057 -4.81288 0
M  V30 10531 H 1023.64 3.86035 -5.79612 0
M  V30 10532 H 1021.27 3.93814 -6.50242 0
M  V30 10533 N 1022.85 0.866709 1.31628 0
M  V30 10534 C 1023.81 0.325041 2.26883 0
M  V30 10535 C 1024.81 -0.522133 1.52087 0
M  V30 10536 O 1026 -0.331908 1.71009 0
M  V30 10537 C 1023.13 -0.538756 3.36616 0
M  V30 10538 H 1024.32 1.16592 2.76308 0
M  V30 10539 H 1021.88 0.642029 1.42505 0
M  V30 10540 H 1022.61 -1.40096 2.92478 0
M  V30 10541 H 1022.4 0.0678115 3.92041 0
M  V30 10542 H 1023.89 -0.910123 4.07562 0
M  V30 10543 N 1024.32 -1.44642 0.625825 0
M  V30 10544 C 1025.6 -1.9551 0.0593587 0
M  V30 10545 C 1025.98 -1.56792 -1.41349 0
M  V30 10546 O 1025.33 -0.839373 -2.12525 0
M  V30 10547 C 1025.54 -3.47902 0.276647 0
M  V30 10548 C 1026.89 -4.24271 0.167044 0
M  V30 10549 O 1027.91 -3.55594 0.207731 0
M  V30 10550 O 1026.77 -5.46458 0.0675 0
M  V30 10551 H 1023.86 -0.826612 -0.0253422 0
M  V30 10552 H 1026.41 -1.54718 0.697159 0
M  V30 10553 H 1025.18 -3.69115 1.29885 0
M  V30 10554 H 1024.8 -3.95628 -0.395547 0
M  V30 10555 N 1025.8 -0.366053 -1.5329 0
M  V30 10556 C 1027.21 0.113056 -1.86357 0
M  V30 10557 C 1027.56 1.48123 -1.28662 0
M  V30 10558 O 1026.69 2.07658 -0.608849 0
M  V30 10559 C 1027.28 0.211923 -3.38137 0
M  V30 10560 C 1025.84 0.635289 -3.71 0
M  V30 10561 C 1024.99 -0.217203 -2.76448 0
M  V30 10562 H 1027.94 -0.584829 -1.47531 0
M  V30 10563 H 1027.96 1.0354 -3.66142 0
M  V30 10564 H 1027.47 -0.783994 -3.80099 0
M  V30 10565 H 1025.57 1.63942 -3.34595 0
M  V30 10566 H 1025.69 0.409571 -4.77346 0
M  V30 10567 H 1024.05 0.313988 -2.52757 0
M  V30 10568 H 1024.83 -1.21067 -3.21244 0
M  V30 10569 N 1027.28 1.57312 -0.0952337 0
M  V30 10570 C 1028.69 1.81589 0.433875 0
M  V30 10571 C 1029.04 1.01086 1.68155 0
M  V30 10572 O 1028.17 0.240272 2.15062 0
M  V30 10573 C 1028.76 3.29366 0.793931 0
M  V30 10574 C 1027.32 3.54407 1.26778 0
M  V30 10575 C 1026.47 2.76035 0.264518 0
M  V30 10576 H 1029.42 1.55426 -0.320675 0
M  V30 10577 H 1029.44 3.42697 1.65345 0
M  V30 10578 H 1028.95 3.87932 -0.114334 0
M  V30 10579 H 1027.05 3.01173 2.19376 0
M  V30 10580 H 1027.17 4.63055 1.22952 0
M  V30 10581 H 1025.53 2.43509 0.746691 0
M  V30 10582 H 1026.31 3.37349 -0.636429 0
M  V30 10583 N 1028.76 -0.17846 1.56586 0
M  V30 10584 C 1030.01 -0.894464 1.81228 0
M  V30 10585 C 1030.33 -1.83089 0.671062 0
M  V30 10586 O 1029.6 -1.93439 -0.309557 0
M  V30 10587 H 1028.18 -0.333288 0.668527 0
M  V30 10588 H 1030.84 -0.179986 1.94067 0
M  V30 10589 H 1029.93 -1.47565 2.75011 0
M  V30 10590 N 1030.24 -1.51135 -0.446768 0
M  V30 10591 C 1031.48 -1.63013 -1.19461 0
M  V30 10592 C 1031.8 -0.344067 -1.91941 0
M  V30 10593 O 1031.07 0.639666 -1.85162 0
M  V30 10594 H 1029.65 -0.600757 -0.443959 0
M  V30 10595 H 1032.32 -1.88024 -0.513137 0
M  V30 10596 H 1031.41 -2.45322 -1.92933 0
M  V30 10597 N 1031.71 0.701592 -1.41122 0
M  V30 10598 C 1032.94 1.49049 -1.43499 0
M  V30 10599 C 1033.36 1.88761 -0.0385684 0
M  V30 10600 O 1032.71 1.56384 0.940755 0
M  V30 10601 C 1032.76 2.7569 -2.33832 0
M  V30 10602 O 1032.49 2.37653 -3.68039 0
M  V30 10603 C 1033.99 3.69479 -2.44949 0
M  V30 10604 H 1031.21 0.459519 -0.488961 0
M  V30 10605 H 1033.75 0.864318 -1.85337 0
M  V30 10606 H 1031.91 3.34559 -1.95318 0
M  V30 10607 H 1032.32 3.19241 -4.16156 0
M  V30 10608 H 1033.79 4.55139 -3.12334 0
M  V30 10609 H 1034.27 4.13553 -1.47887 0
M  V30 10610 H 1034.88 3.16517 -2.84072 0
M  V30 10611 N 1033.19 1.2685 0.935242 0
M  V30 10612 C 1034.44 1.12745 1.68211 0
M  V30 10613 C 1034.77 -0.328128 1.91712 0
M  V30 10614 O 1034.02 -1.25701 1.49993 0
M  V30 10615 C 1034.32 1.8482 3.05903 0
M  V30 10616 C 1033.99 3.347 3.02137 0
M  V30 10617 C 1032.65 3.75583 3.00817 0
M  V30 10618 C 1035 4.30368 2.93995 0
M  V30 10619 C 1032.33 5.10511 2.89129 0
M  V30 10620 C 1034.68 5.65343 2.83848 0
M  V30 10621 C 1033.34 6.0553 2.80874 0
M  V30 10622 H 1032.61 0.412563 0.615527 0
M  V30 10623 H 1035.26 1.57366 1.09124 0
M  V30 10624 H 1033.57 1.32685 3.68649 0
M  V30 10625 H 1035.26 1.71341 3.62551 0
M  V30 10626 H 1031.85 3.02182 3.03947 0
M  V30 10627 H 1036.04 3.9976 2.94118 0
M  V30 10628 H 1031.29 5.40802 2.85208 0
M  V30 10629 H 1035.47 6.39151 2.76512 0
M  V30 10630 H 1033.09 7.10037 2.71573 0
M  V30 10631 N 1034.67 -1.14067 1.0875 0
M  V30 10632 C 1035.63 -2.17453 0.724341 0
M  V30 10633 C 1036.63 -1.58959 -0.242614 0
M  V30 10634 O 1037.82 -1.74186 -0.0217008 0
M  V30 10635 C 1034.96 -3.40828 0.0700236 0
M  V30 10636 H 1036.15 -2.51094 1.63987 0
M  V30 10637 H 1033.7 -1.28775 0.885813 0
M  V30 10638 H 1034.44 -3.1277 -0.857061 0
M  V30 10639 H 1034.22 -3.84551 0.76569 0
M  V30 10640 H 1035.71 -4.17258 -0.168905 0
M  V30 10641 N 1036.15 -0.873678 -1.31166 0
M  V30 10642 C 1037.4 -0.485497 -1.96182 0
M  V30 10643 C 1037.72 0.96621 -1.69379 0
M  V30 10644 O 1036.99 1.67783 -1.01121 0
M  V30 10645 H 1035.57 -0.176547 -0.725838 0
M  V30 10646 H 1038.23 -1.11428 -1.59906 0
M  V30 10647 H 1037.33 -0.646325 -3.05334 0
M  V30 10648 N 1037.63 1.44308 -0.633487 0
M  V30 10649 C 1038.9 1.95476 -0.0697262 0
M  V30 10650 C 1039.28 1.57539 1.40516 0
M  V30 10651 O 1038.63 0.850632 2.12077 0
M  V30 10652 C 1038.84 3.4775 -0.295093 0
M  V30 10653 C 1040.19 4.24177 -0.189542 0
M  V30 10654 O 1041.21 3.55479 -0.226586 0
M  V30 10655 O 1040.07 5.46415 -0.096479 0
M  V30 10656 H 1037.17 0.826734 0.0209582 0
M  V30 10657 H 1039.71 1.54347 -0.705354 0
M  V30 10658 H 1038.48 3.6842 -1.31841 0
M  V30 10659 H 1038.11 3.95832 0.37456 0
M  V30 10660 N 1039.1 0.374177 1.53094 0
M  V30 10661 C 1040.33 -0.213325 2.05797 0
M  V30 10662 C 1040.75 -1.41753 1.24706 0
M  V30 10663 O 1040.1 -1.80183 0.289868 0
M  V30 10664 C 1040.16 -0.598367 3.56513 0
M  V30 10665 O 1039.88 0.557983 4.34532 0
M  V30 10666 C 1041.38 -1.24334 4.25507 0
M  V30 10667 H 1038.6 -0.0357398 0.670048 0
M  V30 10668 H 1041.14 0.535035 1.97377 0
M  V30 10669 H 1039.3 -1.29663 3.65056 0
M  V30 10670 H 1039.71 0.244911 5.23928 0
M  V30 10671 H 1041.18 -1.46325 5.32253 0
M  V30 10672 H 1041.66 -2.20622 3.79766 0
M  V30 10673 H 1042.27 -0.586269 4.2124 0
M  V30 10674 N 1040.58 -1.57259 0.103575 0
M  V30 10675 C 1041.51 -2.17509 -0.84923 0
M  V30 10676 C 1042.49 -1.11079 -1.28824 0
M  V30 10677 O 1043.68 -1.39252 -1.35361 0
M  V30 10678 C 1040.81 -2.76221 -2.10522 0
M  V30 10679 C 1039.76 -3.88098 -1.80454 0
M  V30 10680 C 1039.09 -4.33549 -3.12952 0
M  V30 10681 C 1040.39 -5.10909 -1.08486 0
M  V30 10682 H 1042.08 -2.9738 -0.347217 0
M  V30 10683 H 1039.63 -1.43045 -0.165568 0
M  V30 10684 H 1041.58 -3.17024 -2.77621 0
M  V30 10685 H 1040.31 -1.93617 -2.63021 0
M  V30 10686 H 1038.96 -3.47847 -1.15749 0
M  V30 10687 H 1038.61 -3.47825 -3.63355 0
M  V30 10688 H 1038.31 -5.08984 -2.93614 0
M  V30 10689 H 1039.84 -4.76992 -3.81196 0
M  V30 10690 H 1041.25 -5.48828 -1.65711 0
M  V30 10691 H 1039.65 -5.91828 -0.992973 0
M  V30 10692 H 1040.72 -4.84851 -0.0690108 0
M  V30 10693 N 1042.06 0.170153 -1.56679 0
M  V30 10694 C 1043.01 1.21064 -1.965 0
M  V30 10695 C 1043.98 1.43928 -0.829092 0
M  V30 10696 O 1045.16 1.56649 -1.08931 0
M  V30 10697 C 1042.3 2.54468 -2.33109 0
M  V30 10698 C 1041.42 2.38974 -3.59883 0
M  V30 10699 C 1040.55 3.65252 -3.857 0
M  V30 10700 C 1039.59 3.44696 -5.05817 0
M  V30 10701 N 1038.73 4.63047 -5.27761 0
M  V30 10702 H 1043.57 0.864055 -2.85198 0
M  V30 10703 H 1041.1 0.415243 -1.41117 0
M  V30 10704 H 1043.06 3.32222 -2.52358 0
M  V30 10705 H 1041.69 2.8712 -1.4752 0
M  V30 10706 H 1040.74 1.5239 -3.48542 0
M  V30 10707 H 1042.06 2.19731 -4.47794 0
M  V30 10708 H 1041.21 4.51441 -4.05322 0
M  V30 10709 H 1039.95 3.87475 -2.96166 0
M  V30 10710 H 1038.95 2.56893 -4.86092 0
M  V30 10711 H 1040.18 3.23894 -5.96883 0
M  V30 10712 H 1038.12 4.85487 -4.41179 0
M  V30 10713 H 1038.04 4.46722 -6.09898 0
M  V30 10714 H 1039.31 5.50516 -5.51863 0
M  V30 10715 N 1043.54 1.5137 0.438746 0
M  V30 10716 C 1044.78 1.64211 1.19006 0
M  V30 10717 C 1045.12 0.356607 1.90898 0
M  V30 10718 O 1044.39 -0.643722 1.83539 0
M  V30 10719 C 1044.68 2.8445 2.20817 0
M  V30 10720 C 1044.53 4.22972 1.53018 0
M  V30 10721 C 1045.85 3.00207 3.21813 0
M  V30 10722 H 1042.97 0.597628 0.431288 0
M  V30 10723 H 1045.61 1.8385 0.479487 0
M  V30 10724 H 1043.76 2.67836 2.81418 0
M  V30 10725 H 1045.43 4.5125 0.957654 0
M  V30 10726 H 1043.67 4.25736 0.832556 0
M  V30 10727 H 1044.34 5.03094 2.27158 0
M  V30 10728 H 1046.82 3.15522 2.71266 0
M  V30 10729 H 1045.7 3.85904 3.90345 0
M  V30 10730 H 1045.96 2.12216 3.87836 0
M  V30 10731 N 1045.02 -0.694098 1.41492 0
M  V30 10732 C 1046.24 -1.48286 1.44288 0
M  V30 10733 C 1046.66 -1.88737 0.0485783 0
M  V30 10734 O 1046.02 -1.56881 -0.932449 0
M  V30 10735 C 1046.07 -2.74446 2.3529 0
M  V30 10736 O 1045.79 -2.35698 3.69294 0
M  V30 10737 C 1047.29 -3.68175 2.46905 0
M  V30 10738 H 1044.51 -0.45692 0.491391 0
M  V30 10739 H 1047.05 -0.854477 1.85793 0
M  V30 10740 H 1045.21 -3.33518 1.9709 0
M  V30 10741 H 1045.62 -3.17029 4.17843 0
M  V30 10742 H 1047.1 -4.53476 3.14743 0
M  V30 10743 H 1047.57 -4.12763 1.50078 0
M  V30 10744 H 1048.18 -3.15006 2.85747 0
M  V30 10745 N 1046.49 -1.27344 -0.928501 0
M  V30 10746 C 1047.42 -1.12517 -2.04602 0
M  V30 10747 C 1048.41 -0.0268563 -1.70079 0
M  V30 10748 O 1049.59 -0.201197 -1.93155 0
M  V30 10749 C 1046.72 -0.770749 -3.3864 0
M  V30 10750 C 1045.67 -1.8222 -3.87272 0
M  V30 10751 C 1045 -1.32178 -5.18105 0
M  V30 10752 C 1046.3 -3.22614 -4.10752 0
M  V30 10753 H 1047.99 -2.06 -2.17265 0
M  V30 10754 H 1045.54 -0.991827 -1.04397 0
M  V30 10755 H 1047.49 -0.653843 -4.16297 0
M  V30 10756 H 1046.22 0.19979 -3.25988 0
M  V30 10757 H 1044.88 -1.928 -3.11807 0
M  V30 10758 H 1044.52 -0.340719 -5.01845 0
M  V30 10759 H 1044.22 -2.02474 -5.51614 0
M  V30 10760 H 1045.75 -1.2178 -5.98333 0
M  V30 10761 H 1047.16 -3.1504 -4.78981 0
M  V30 10762 H 1045.56 -3.90614 -4.55566 0
M  V30 10763 H 1046.63 -3.67727 -3.16077 0
M  V30 10764 N 1047.97 1.13488 -1.09353 0
M  V30 10765 C 1048.92 2.16933 -0.701709 0
M  V30 10766 C 1049.91 1.58382 0.283553 0
M  V30 10767 O 1051.1 1.7675 0.0940391 0
M  V30 10768 C 1048.23 3.43079 -0.123031 0
M  V30 10769 C 1047.31 4.08639 -1.13466 0
M  V30 10770 N 1047.7 4.49377 -2.32152 0
M  V30 10771 C 1046 4.35265 -0.972632 0
M  V30 10772 C 1046.7 5.00464 -2.96497 0
M  V30 10773 N 1045.68 4.95275 -2.24061 0
M  V30 10774 H 1049.48 2.46183 -1.60534 0
M  V30 10775 H 1047 1.30275 -0.969644 0
M  V30 10776 H 1048.99 4.1653 0.17569 0
M  V30 10777 H 1047.65 3.15304 0.775461 0
M  V30 10778 H 1048.66 4.42105 -2.69748 0
M  V30 10779 H 1045.34 4.17301 -0.12876 0
M  V30 10780 H 1046.73 5.41785 -3.9739 0
M  V30 10781 N 1049.45 0.880621 1.30701 0
M  V30 10782 C 1050.68 0.511682 2.00473 0
M  V30 10783 C 1051.09 -0.898684 1.6604 0
M  V30 10784 O 1050.45 -1.59035 0.895218 0
M  V30 10785 C 1050.5 0.671723 3.55204 0
M  V30 10786 O 1050.22 2.02656 3.8841 0
M  V30 10787 C 1051.72 0.3052 4.42248 0
M  V30 10788 H 1048.94 0.198231 0.64105 0
M  V30 10789 H 1051.49 1.18472 1.66687 0
M  V30 10790 H 1049.64 0.0461066 3.87373 0
M  V30 10791 H 1050.06 2.04202 4.83117 0
M  V30 10792 H 1051.53 0.468095 5.50012 0
M  V30 10793 H 1052.01 -0.756456 4.32637 0
M  V30 10794 H 1052.61 0.906959 4.15517 0
M  V30 10795 N 1050.93 -1.4397 0.641131 0
M  V30 10796 C 1052.35 -1.56607 0.30762 0
M  V30 10797 C 1052.55 -1.62694 -1.18882 0
M  V30 10798 O 1051.6 -1.57541 -1.97325 0
M  V30 10799 C 1052.91 -2.83289 1.00834 0
M  V30 10800 C 1054.46 -2.97016 0.98744 0
M  V30 10801 C 1054.94 -4.26514 1.66882 0
M  V30 10802 N 1056.43 -4.33351 1.63589 0
M  V30 10803 C 1057.16 -5.32292 2.13196 0
M  V30 10804 N 1056.66 -6.37582 2.71038 0
M  V30 10805 N 1058.45 -5.23866 2.03766 0
M  V30 10806 H 1050.6 -1.38262 1.61237 0
M  V30 10807 H 1052.87 -0.663221 0.677378 0
M  V30 10808 H 1052.57 -2.84812 2.06337 0
M  V30 10809 H 1052.45 -3.73134 0.552333 0
M  V30 10810 H 1054.83 -2.95041 -0.0591395 0
M  V30 10811 H 1054.91 -2.08493 1.48203 0
M  V30 10812 H 1054.56 -4.2925 2.71491 0
M  V30 10813 H 1054.49 -5.13912 1.14898 0
M  V30 10814 H 1056.98 -3.5788 1.21368 0
M  V30 10815 H 1057.29 -7.09378 3.06597 0
M  V30 10816 H 1055.64 -6.38239 2.75093 0
M  V30 10817 H 1058.83 -4.40524 1.58291 0
M  V30 10818 H 1059 -6.00819 2.42737 0
M  V30 10819 N 1052.41 -0.382291 -1.52893 0
M  V30 10820 C 1053.36 0.471187 -2.27778 0
M  V30 10821 C 1054.35 1.0691 -1.31402 0
M  V30 10822 O 1055.56 1.01038 -1.48967 0
M  V30 10823 H 1051.93 0.170696 -0.732371 0
M  V30 10824 H 1053.9 -0.181954 -2.97845 0
M  V30 10825 C 1052.65 1.59012 -3.09209 0
M  V30 10826 H 1051.97 1.13935 -3.83222 0
M  V30 10827 H 1053.41 2.16167 -3.64757 0
M  V30 10828 C 1051.87 2.54212 -2.21084 0
M  V30 10829 O 1052.4 3.57447 -1.83288 0
M  V30 10830 N 1050.61 2.23789 -1.85383 0
M  V30 10831 H 1050.16 1.39872 -2.16318 0
M  V30 10832 H 1050.11 2.87737 -1.26708 0
M  V30 10833 N 1053.89 1.57202 -0.111913 0
M  V30 10834 C 1055.13 1.95239 0.548607 0
M  V30 10835 C 1055.46 0.994897 1.6678 0
M  V30 10836 O 1054.74 0.0308603 1.94476 0
M  V30 10837 C 1055.02 3.43271 1.08798 0
M  V30 10838 C 1054.88 4.49792 -0.0273064 0
M  V30 10839 C 1056.19 3.92989 1.98109 0
M  V30 10840 H 1053.31 0.709919 0.197951 0
M  V30 10841 H 1055.96 1.89087 -0.186036 0
M  V30 10842 H 1054.11 3.48644 1.71404 0
M  V30 10843 H 1055.78 4.56521 -0.662302 0
M  V30 10844 H 1054.02 4.28254 -0.691426 0
M  V30 10845 H 1054.69 5.50612 0.391201 0
M  V30 10846 H 1057.17 3.89875 1.45385 0
M  V30 10847 H 1056.04 4.97101 2.32769 0
M  V30 10848 H 1056.3 3.33267 2.90492 0
M  V30 10849 N 1055.36 -0.161842 1.56767 0
M  V30 10850 C 1056.27 -1.21996 2.00385 0
M  V30 10851 C 1057.29 -1.4789 0.916768 0
M  V30 10852 O 1058.47 -1.59852 1.22513 0
M  V30 10853 C 1055.53 -2.53695 2.36305 0
M  V30 10854 C 1054.59 -2.3558 3.58888 0
M  V30 10855 C 1053.82 -3.60998 3.93085 0
M  V30 10856 O 1054.05 -4.6657 3.28129 0
M  V30 10857 O 1052.98 -3.54544 4.86397 0
M  V30 10858 H 1056.81 -0.879701 2.9068 0
M  V30 10859 H 1054.39 -0.369437 1.4476 0
M  V30 10860 H 1056.27 -3.31366 2.60335 0
M  V30 10861 H 1054.95 -2.87281 1.49169 0
M  V30 10862 H 1053.86 -1.55908 3.40064 0
M  V30 10863 H 1055.19 -2.06915 4.46595 0
M  V30 10864 N 1056.84 -1.516 -0.430713 0
M  V30 10865 C 1058.09 -1.64271 -1.17726 0
M  V30 10866 C 1058.41 -0.364406 -1.91565 0
M  V30 10867 O 1057.68 0.619991 -1.8583 0
M  V30 10868 H 1056.26 -0.605432 -0.437562 0
M  V30 10869 H 1058.92 -1.88557 -0.493166 0
M  V30 10870 H 1058.02 -2.47355 -1.90321 0
M  V30 10871 N 1058.32 0.686584 -1.41858 0
M  V30 10872 C 1059.57 1.44379 -1.41418 0
M  V30 10873 C 1059.89 1.94981 -0.0273696 0
M  V30 10874 O 1059.16 1.72296 0.932248 0
M  V30 10875 H 1057.74 0.53574 -0.520568 0
M  V30 10876 H 1060.4 0.812056 -1.77177 0
M  V30 10877 H 1059.5 2.30258 -2.10684 0
M  V30 10878 N 1059.8 1.27835 0.921735 0
M  V30 10879 C 1061.03 1.17352 1.704 0
M  V30 10880 C 1061.44 -0.268892 1.86875 0
M  V30 10881 O 1060.8 -1.18253 1.39005 0
M  V30 10882 C 1060.85 1.85889 3.10045 0
M  V30 10883 O 1060.57 3.24495 2.94338 0
M  V30 10884 C 1062.07 1.81607 4.04393 0
M  V30 10885 H 1059.29 0.40773 0.532914 0
M  V30 10886 H 1061.83 1.68815 1.15419 0
M  V30 10887 H 1059.99 1.38316 3.61867 0
M  V30 10888 H 1060.4 3.58705 3.82663 0
M  V30 10889 H 1061.88 2.34165 4.99871 0
M  V30 10890 H 1062.35 0.786697 4.32097 0
M  V30 10891 H 1062.96 2.28822 3.58498 0
M  V30 10892 N 1061.28 -1.12907 1.09954 0
M  V30 10893 C 1062.51 -1.87866 0.859656 0
M  V30 10894 C 1062.91 -1.79664 -0.593096 0
M  V30 10895 O 1062.26 -1.16499 -1.42034 0
M  V30 10896 C 1062.32 -3.38055 1.22308 0
M  V30 10897 C 1061.98 -3.70035 2.68185 0
M  V30 10898 C 1062.98 -3.68817 3.66428 0
M  V30 10899 C 1060.66 -3.99523 3.04444 0
M  V30 10900 C 1062.66 -3.96639 4.98955 0
M  V30 10901 C 1060.35 -4.27006 4.37161 0
M  V30 10902 C 1061.34 -4.25549 5.34225 0
M  V30 10903 O 1061.03 -4.52354 6.64553 0
M  V30 10904 H 1060.76 -0.601425 0.308649 0
M  V30 10905 H 1063.32 -1.43817 1.46649 0
M  V30 10906 H 1061.55 -3.82634 0.559322 0
M  V30 10907 H 1063.24 -3.94348 0.961479 0
M  V30 10908 H 1064 -3.46104 3.3976 0
M  V30 10909 H 1059.88 -3.99801 2.29521 0
M  V30 10910 H 1063.43 -3.95418 5.74709 0
M  V30 10911 H 1059.32 -4.49192 4.6357 0
M  V30 10912 H 1060.09 -4.69997 6.70108 0
M  V30 10913 N 1062.75 -0.88754 -1.30232 0
M  V30 10914 C 1063.98 -0.521562 -2.00735 0
M  V30 10915 C 1064.4 0.883247 -1.66073 0
M  V30 10916 O 1063.76 1.58581 -0.878731 0
M  V30 10917 C 1063.81 -0.706521 -3.53611 0
M  V30 10918 O 1062.91 0.246447 -4.11663 0
M  V30 10919 H 1062.25 -0.205216 -0.631492 0
M  V30 10920 H 1064.78 -1.19579 -1.66018 0
M  V30 10921 H 1064.79 -0.606501 -4.03467 0
M  V30 10922 H 1063.47 -1.73076 -3.78177 0
M  V30 10923 H 1062.05 0.0999062 -3.72766 0
M  V30 10924 N 1064.23 1.43628 -0.648757 0
M  V30 10925 C 1065.48 2.01083 -0.157692 0
M  V30 10926 C 1065.79 1.51756 1.23408 0
M  V30 10927 O 1067 2.01455 1.82012 0
M  V30 10928 C 1065.46 3.59157 -0.231118 0
M  V30 10929 C 1065.06 4.17478 -1.6253 0
M  V30 10930 C 1066.81 4.24016 0.202573 0
M  V30 10931 C 1064.72 5.67832 -1.6529 0
M  V30 10932 H 1063.65 0.751977 -0.0551897 0
M  V30 10933 H 1066.3 1.64648 -0.810139 0
M  V30 10934 H 1064.68 3.92972 0.488755 0
M  V30 10935 H 1065.85 3.9517 -2.37017 0
M  V30 10936 H 1064.17 3.64973 -2.00459 0
M  V30 10937 H 1066.76 5.34319 0.20174 0
M  V30 10938 H 1067.11 3.97616 1.23319 0
M  V30 10939 H 1067.64 3.95068 -0.465398 0
M  V30 10940 H 1064.38 5.98994 -2.66246 0
M  V30 10941 H 1063.9 5.92209 -0.951217 0
M  V30 10942 H 1065.58 6.3179 -1.39465 0
M  V30 10943 N 1065.71 0.390394 1.52688 0
M  V30 10944 C 1066.99 -0.249068 1.94008 0
M  V30 10945 C 1067.37 -1.64263 1.32593 0
M  V30 10946 O 1066.72 -2.23086 0.494448 0
M  V30 10947 C 1066.93 -0.274318 3.4792 0
M  V30 10948 C 1068.27 -0.502743 4.21613 0
M  V30 10949 O 1069.3 -0.35448 3.54432 0
M  V30 10950 O 1068.16 -0.79334 5.40711 0
M  V30 10951 H 1065.25 -0.155116 0.812323 0
M  V30 10952 H 1067.8 0.44498 1.63762 0
M  V30 10953 H 1066.57 0.701766 3.84956 0
M  V30 10954 H 1066.19 -1.01324 3.84473 0
M  V30 10955 N 1067.19 -1.57141 0.120249 0
M  V30 10956 C 1068.44 -1.94852 -0.536387 0
M  V30 10957 C 1068.76 -1.00452 -1.67136 0
M  V30 10958 O 1068.03 -0.061053 -1.95805 0
M  V30 10959 H 1066.61 -0.719411 -0.201138 0
M  V30 10960 H 1069.27 -1.93977 0.189482 0
M  V30 10961 H 1068.37 -2.97917 -0.930145 0
M  V30 10962 N 1068.67 0.153526 -1.5685 0
M  V30 10963 C 1069.89 0.886343 -1.87507 0
M  V30 10964 C 1070.32 1.74244 -0.708565 0
M  V30 10965 O 1069.67 1.78045 0.341997 0
M  V30 10966 C 1069.72 1.72428 -3.16703 0
M  V30 10967 O 1068.83 2.82784 -3.00178 0
M  V30 10968 H 1068.17 0.247259 -0.616246 0
M  V30 10969 H 1070.7 0.146306 -2.04076 0
M  V30 10970 H 1070.71 2.12062 -3.4856 0
M  V30 10971 H 1069.38 1.09558 -4.01211 0
M  V30 10972 H 1067.96 2.46604 -2.79716 0
M  V30 10973 N 1070.14 1.51827 0.422667 0
M  V30 10974 C 1071.42 1.55772 1.18299 0
M  V30 10975 C 1071.8 0.330657 2.08494 0
M  V30 10976 O 1071.15 -0.683373 2.18042 0
M  V30 10977 C 1071.36 2.87941 1.97208 0
M  V30 10978 C 1072.71 3.4044 2.53744 0
M  V30 10979 O 1073.73 2.8959 2.07403 0
M  V30 10980 O 1072.59 4.29201 3.38303 0
M  V30 10981 H 1069.68 0.626889 0.539388 0
M  V30 10982 H 1072.23 1.64147 0.430545 0
M  V30 10983 H 1071 3.68702 1.31052 0
M  V30 10984 H 1070.63 2.82795 2.79486 0
M  V30 10985 N 1071.62 -0.679052 1.4222 0
M  V30 10986 C 1072.53 -1.82221 1.47759 0
M  V30 10987 C 1073.55 -1.70092 0.3667 0
M  V30 10988 O 1074.72 -1.91718 0.616957 0
M  V30 10989 C 1071.79 -3.18332 1.37351 0
M  V30 10990 C 1070.85 -3.42449 2.58896 0
M  V30 10991 C 1070.08 -4.72067 2.48976 0
M  V30 10992 O 1070.31 -5.49683 1.5233 0
M  V30 10993 O 1069.24 -4.97333 3.39033 0
M  V30 10994 H 1073.07 -1.80504 2.44238 0
M  V30 10995 H 1070.65 -0.834251 1.23938 0
M  V30 10996 H 1072.53 -3.99563 1.33893 0
M  V30 10997 H 1071.21 -3.20696 0.439965 0
M  V30 10998 H 1070.12 -2.61083 2.6793 0
M  V30 10999 H 1071.45 -3.44912 3.51136 0
M  V30 11000 N 1073.1 -1.28322 -0.914942 0
M  V30 11001 C 1074.03 -1.07947 -2.02188 0
M  V30 11002 C 1075.05 -0.0315743 -1.62769 0
M  V30 11003 O 1076.23 -0.274503 -1.76377 0
M  V30 11004 C 1073.33 -0.61805 -3.33217 0
M  V30 11005 C 1072.51 -1.74109 -4.01254 0
M  V30 11006 C 1071.57 -1.27325 -5.10563 0
M  V30 11007 O 1070.59 -1.97526 -5.33828 0
M  V30 11008 N 1071.79 -0.1358 -5.80341 0
M  V30 11009 H 1074.56 -2.03275 -2.20225 0
M  V30 11010 H 1072.12 -1.20059 -1.08616 0
M  V30 11011 H 1074.11 -0.288693 -4.03669 0
M  V30 11012 H 1072.68 0.242348 -3.11659 0
M  V30 11013 H 1071.9 -2.2401 -3.24366 0
M  V30 11014 H 1073.19 -2.49448 -4.43456 0
M  V30 11015 H 1072.59 0.449846 -5.63909 0
M  V30 11016 H 1071.15 0.134289 -6.51662 0
M  V30 11017 N 1074.58 1.12322 -1.10551 0
M  V30 11018 C 1075.54 2.16273 -0.758844 0
M  V30 11019 C 1076.54 1.59325 0.217294 0
M  V30 11020 O 1077.73 1.74199 -0.00601346 0
M  V30 11021 C 1074.86 3.40674 -0.124238 0
M  V30 11022 H 1076.06 2.48454 -1.6796 0
M  V30 11023 H 1073.61 1.2735 -0.906188 0
M  V30 11024 H 1074.34 3.14094 0.807194 0
M  V30 11025 H 1074.13 3.83284 -0.826772 0
M  V30 11026 H 1075.62 4.17474 0.102502 0
M  V30 11027 N 1076.06 0.894434 1.2976 0
M  V30 11028 C 1077.3 0.517669 1.95771 0
M  V30 11029 C 1077.63 -0.935028 1.70551 0
M  V30 11030 O 1076.89 -1.67722 1.00835 0
M  V30 11031 C 1077.19 0.750307 3.49435 0
M  V30 11032 C 1076.85 2.17955 3.94723 0
M  V30 11033 C 1075.51 2.57036 4.068 0
M  V30 11034 C 1077.87 3.11053 4.18205 0
M  V30 11035 C 1075.19 3.88406 4.39724 0
M  V30 11036 C 1077.55 4.41966 4.52602 0
M  V30 11037 C 1076.21 4.80927 4.62888 0
M  V30 11038 H 1075.48 0.189428 0.716378 0
M  V30 11039 H 1078.13 1.13209 1.54454 0
M  V30 11040 H 1076.43 0.0529242 3.91764 0
M  V30 11041 H 1078.13 0.438251 3.98598 0
M  V30 11042 H 1074.72 1.86622 3.85837 0
M  V30 11043 H 1078.9 2.82076 4.08347 0
M  V30 11044 H 1074.16 4.18321 4.4589 0
M  V30 11045 H 1078.33 5.14134 4.69722 0
M  V30 11046 H 1075.96 5.82759 4.88156 0
M  V30 11047 N 1077.53 -1.43282 0.656365 0
M  V30 11048 C 1078.76 -2.06125 0.178879 0
M  V30 11049 C 1079.18 -1.49216 -1.15672 0
M  V30 11050 O 1078.53 -0.624693 -1.71475 0
M  V30 11051 C 1078.59 -3.614 0.0851785 0
M  V30 11052 O 1078.31 -4.16194 1.36798 0
M  V30 11053 C 1079.81 -4.41325 -0.41801 0
M  V30 11054 H 1077.03 -0.664753 0.0913504 0
M  V30 11055 H 1079.57 -1.83733 0.897901 0
M  V30 11056 H 1077.73 -3.82966 -0.584421 0
M  V30 11057 H 1078.14 -5.09892 1.22924 0
M  V30 11058 H 1079.61 -5.50303 -0.432519 0
M  V30 11059 H 1080.09 -4.14577 -1.44991 0
M  V30 11060 H 1080.7 -4.24735 0.219208 0
M  V30 11061 N 1079.01 -0.398486 -1.52479 0
M  V30 11062 C 1080.29 0.238776 -1.94137 0
M  V30 11063 C 1080.67 1.63558 -1.33462 0
M  V30 11064 O 1080.02 2.22821 -0.506272 0
M  V30 11065 C 1080.23 0.255863 -3.48061 0
M  V30 11066 C 1081.58 0.480376 -4.21874 0
M  V30 11067 O 1082.6 0.335679 -3.54615 0
M  V30 11068 O 1081.46 0.764654 -5.41124 0
M  V30 11069 H 1078.55 0.150806 -0.813134 0
M  V30 11070 H 1081.1 -0.453659 -1.63524 0
M  V30 11071 H 1079.87 -0.722171 -3.84578 0
M  V30 11072 H 1079.49 0.99284 -3.85004 0
M  V30 11073 N 1080.49 1.57075 -0.12858 0
M  V30 11074 C 1081.74 1.95134 0.526046 0
M  V30 11075 C 1082.06 1.01337 1.66601 0
M  V30 11076 O 1081.33 0.0714361 1.9577 0
M  V30 11077 H 1079.91 0.720468 0.19732 0
M  V30 11078 H 1082.57 1.93874 -0.199767 0
M  V30 11079 H 1081.67 2.98406 0.914332 0
M  V30 11080 N 1081.97 -0.145205 1.5693 0
M  V30 11081 C 1083.25 -0.88631 1.74367 0
M  V30 11082 C 1083.63 -1.99259 0.697081 0
M  V30 11083 O 1082.97 -2.26732 -0.28368 0
M  V30 11084 C 1083.18 -1.42712 3.18488 0
M  V30 11085 C 1084.53 -1.88982 3.80225 0
M  V30 11086 O 1085.56 -1.5245 3.21928 0
M  V30 11087 O 1084.42 -2.56361 4.8264 0
M  V30 11088 H 1081.51 -0.418979 0.713011 0
M  V30 11089 H 1084.06 -0.130991 1.69194 0
M  V30 11090 H 1082.83 -0.632165 3.8616 0
M  V30 11091 H 1082.45 -2.24589 3.28094 0
M  V30 11092 N 1083.45 -1.52049 -0.414609 0
M  V30 11093 C 1084.36 -1.7788 -1.52958 0
M  V30 11094 C 1085.37 -0.66408 -1.60829 0
M  V30 11095 O 1086.55 -0.948882 -1.77646 0
M  V30 11096 C 1083.61 -1.91906 -2.88744 0
M  V30 11097 C 1082.68 -3.15803 -2.90804 0
M  V30 11098 C 1081.91 -3.29151 -4.20114 0
M  V30 11099 O 1082.13 -2.47892 -5.13718 0
M  V30 11100 O 1081.07 -4.2227 -4.28919 0
M  V30 11101 H 1084.89 -2.72506 -1.34067 0
M  V30 11102 H 1082.48 -1.36826 -0.599918 0
M  V30 11103 H 1084.36 -2.02986 -3.6929 0
M  V30 11104 H 1083.03 -1.00468 -3.07714 0
M  V30 11105 H 1081.94 -3.10185 -2.09131 0
M  V30 11106 H 1083.27 -4.07004 -2.76783 0
M  V30 11107 N 1084.93 0.6715 -1.42579 0
M  V30 11108 C 1086.17 1.42731 -1.42516 0
M  V30 11109 C 1086.49 1.95545 -0.0462407 0
M  V30 11110 O 1087.69 2.71391 0.0769798 0
M  V30 11111 C 1086.15 2.58215 -2.50705 0
M  V30 11112 C 1085.76 2.12086 -3.94618 0
M  V30 11113 C 1087.5 3.35705 -2.59813 0
M  V30 11114 C 1085.41 3.24672 -4.9431 0
M  V30 11115 H 1084.34 0.536218 -0.530081 0
M  V30 11116 H 1086.99 0.726655 -1.68499 0
M  V30 11117 H 1085.37 3.30665 -2.17892 0
M  V30 11118 H 1086.55 1.46768 -4.36802 0
M  V30 11119 H 1084.86 1.47526 -3.89391 0
M  V30 11120 H 1087.46 4.1956 -3.31472 0
M  V30 11121 H 1087.8 3.82517 -1.64276 0
M  V30 11122 H 1088.33 2.70326 -2.91836 0
M  V30 11123 H 1085.07 2.82848 -5.91335 0
M  V30 11124 H 1084.59 3.88761 -4.56755 0
M  V30 11125 H 1086.27 3.90088 -5.16179 0
M  V30 11126 N 1086.4 1.28806 0.908124 0
M  V30 11127 C 1087.34 1.07538 2.01273 0
M  V30 11128 C 1088.31 -0.0102454 1.62597 0
M  V30 11129 O 1089.5 0.138797 1.87988 0
M  V30 11130 C 1086.63 0.635337 3.32688 0
M  V30 11131 C 1085.67 1.71843 3.90349 0
M  V30 11132 S 1086.5 3.31571 4.20501 0
M  V30 11133 C 1087.66 2.89416 5.54968 0
M  V30 11134 H 1087.89 2.01058 2.19005 0
M  V30 11135 H 1085.43 1.12857 1.05369 0
M  V30 11136 H 1087.38 0.388159 4.08661 0
M  V30 11137 H 1086.05 -0.280122 3.12848 0
M  V30 11138 H 1085.24 1.36228 4.8524 0
M  V30 11139 H 1084.84 1.91869 3.21033 0
M  V30 11140 H 1087.13 2.35936 6.35091 0
M  V30 11141 H 1088.08 3.83126 5.955 0
M  V30 11142 H 1088.48 2.27962 5.16424 0
M  V30 11143 N 1087.88 -1.11734 1.11145 0
M  V30 11144 C 1089.13 -1.82766 0.853194 0
M  V30 11145 C 1089.44 -1.85408 -0.623168 0
M  V30 11146 O 1090.65 -2.52509 -0.997574 0
M  V30 11147 C 1089.11 -3.28215 1.47658 0
M  V30 11148 C 1088.71 -3.33911 2.98676 0
M  V30 11149 C 1090.46 -4.04168 1.29803 0
M  V30 11150 C 1088.36 -4.73739 3.54013 0
M  V30 11151 H 1087.29 -0.684807 0.315523 0
M  V30 11152 H 1089.95 -1.25756 1.33633 0
M  V30 11153 H 1088.33 -3.85138 0.921116 0
M  V30 11154 H 1089.5 -2.86887 3.606 0
M  V30 11155 H 1087.82 -2.71437 3.15771 0
M  V30 11156 H 1090.41 -5.07429 1.68582 0
M  V30 11157 H 1090.76 -4.15606 0.240302 0
M  V30 11158 H 1091.29 -3.53623 1.82196 0
M  V30 11159 H 1088.03 -4.67497 4.59485 0
M  V30 11160 H 1087.55 -5.21186 2.9686 0
M  V30 11161 H 1089.23 -5.42691 3.52271 0
M  V30 11162 N 1089.36 -0.901303 -1.29284 0
M  V30 11163 C 1090.61 -0.527 -1.95108 0
M  V30 11164 C 1090.93 0.930065 -1.71391 0
M  V30 11165 O 1090.2 1.65601 -1.04658 0
M  V30 11166 H 1088.78 -0.191903 -0.721929 0
M  V30 11167 H 1091.44 -1.14795 -1.57506 0
M  V30 11168 H 1090.54 -0.710945 -3.03895 0
M  V30 11169 N 1090.84 1.42931 -0.663954 0
M  V30 11170 C 1091.78 2.3079 0.0210764 0
M  V30 11171 C 1092.75 1.45356 0.803796 0
M  V30 11172 O 1093.94 1.74207 0.778237 0
M  V30 11173 C 1091.08 3.31069 0.974023 0
M  V30 11174 C 1090.19 4.31598 0.186273 0
M  V30 11175 C 1089.33 5.18955 1.13399 0
M  V30 11176 C 1088.37 6.1117 0.337292 0
M  V30 11177 N 1087.5 6.91114 1.23715 0
M  V30 11178 H 1092.34 2.88819 -0.733995 0
M  V30 11179 H 1089.88 1.42274 -0.373711 0
M  V30 11180 H 1091.84 3.87727 1.54024 0
M  V30 11181 H 1090.47 2.74665 1.69585 0
M  V30 11182 H 1089.52 3.77147 -0.496402 0
M  V30 11183 H 1090.83 4.96919 -0.432753 0
M  V30 11184 H 1089.99 5.80292 1.77049 0
M  V30 11185 H 1088.73 4.53785 1.78691 0
M  V30 11186 H 1087.73 5.48911 -0.312492 0
M  V30 11187 H 1088.96 6.78386 -0.31138 0
M  V30 11188 H 1086.9 6.28583 1.87668 0
M  V30 11189 H 1086.82 7.52999 0.672946 0
M  V30 11190 H 1088.09 7.56948 1.86146 0
M  V30 11191 N 1092.32 0.406567 1.52266 0
M  V30 11192 C 1093.56 -0.169717 2.01386 0
M  V30 11193 C 1093.88 -1.45864 1.29417 0
M  V30 11194 O 1093.15 -1.9136 0.419327 0
M  V30 11195 H 1091.73 -0.0657075 0.744105 0
M  V30 11196 H 1094.4 0.542221 1.87206 0
M  V30 11197 H 1093.49 -0.367659 3.09927 0
M  V30 11198 N 1093.79 -1.57004 0.136909 0
M  V30 11199 C 1095.04 -1.94972 -0.51662 0
M  V30 11200 C 1095.36 -1.02367 -1.66674 0
M  V30 11201 O 1096.56 -1.29873 -2.38423 0
M  V30 11202 C 1095.02 -3.4657 -0.970435 0
M  V30 11203 C 1094.63 -4.47741 0.152204 0
M  V30 11204 C 1096.37 -3.93423 -1.59432 0
M  V30 11205 C 1094.28 -5.90537 -0.319315 0
M  V30 11206 H 1093.21 -0.727873 -0.196766 0
M  V30 11207 H 1095.86 -1.82181 0.219637 0
M  V30 11208 H 1094.24 -3.54657 -1.76165 0
M  V30 11209 H 1095.41 -4.5134 0.928925 0
M  V30 11210 H 1093.73 -4.10746 0.683867 0
M  V30 11211 H 1096.33 -4.97539 -1.95856 0
M  V30 11212 H 1096.67 -3.34404 -2.47951 0
M  V30 11213 H 1097.2 -3.8821 -0.868193 0
M  V30 11214 H 1093.94 -6.53352 0.530248 0
M  V30 11215 H 1093.46 -5.90321 -1.06213 0
M  V30 11216 H 1095.14 -6.42346 -0.774662 0
M  V30 11217 N 1095.27 0.136881 -1.57004 0
M  V30 11218 C 1096.18 1.18793 -2.023 0
M  V30 11219 C 1097.2 1.46412 -0.94018 0
M  V30 11220 O 1098.37 1.57883 -1.2504 0
M  V30 11221 C 1095.44 2.49903 -2.40311 0
M  V30 11222 C 1094.5 2.29841 -3.6259 0
M  V30 11223 C 1093.73 3.54699 -3.98779 0
M  V30 11224 O 1093.96 4.61291 -3.3551 0
M  V30 11225 O 1092.89 3.46761 -4.91976 0
M  V30 11226 H 1096.72 0.833345 -2.92043 0
M  V30 11227 H 1094.3 0.346361 -1.4533 0
M  V30 11228 H 1096.18 3.27183 -2.65574 0
M  V30 11229 H 1094.86 2.84872 -1.5372 0
M  V30 11230 H 1093.77 1.50478 -3.42501 0
M  V30 11231 H 1095.1 1.99784 -4.4983 0
M  V30 11232 N 1096.75 1.52266 0.40654 0
M  V30 11233 C 1097.71 1.75168 1.47814 0
M  V30 11234 C 1098.71 0.621575 1.48301 0
M  V30 11235 O 1099.9 0.889476 1.4978 0
M  V30 11236 C 1097.04 1.83642 2.87208 0
M  V30 11237 H 1098.23 2.70834 1.28798 0
M  V30 11238 H 1095.78 1.42722 0.637196 0
M  V30 11239 H 1096.52 0.898994 3.1159 0
M  V30 11240 H 1096.3 2.65801 2.88257 0
M  V30 11241 H 1097.79 2.03093 3.64888 0
M  V30 11242 N 1098.23 -0.663929 1.42933 0
M  V30 11243 C 1099.48 -1.42111 1.43697 0
M  V30 11244 C 1099.8 -1.94913 0.0583858 0
M  V30 11245 O 1099.07 -1.73757 -0.904719 0
M  V30 11246 H 1097.65 -0.527391 0.529026 0
M  V30 11247 H 1100.31 -0.783766 1.78446 0
M  V30 11248 H 1099.41 -2.26877 2.1432 0
M  V30 11249 N 1099.71 -1.29285 -0.901281 0
M  V30 11250 C 1100.93 -1.20169 -1.69039 0
M  V30 11251 C 1101.36 0.234509 -1.86632 0
M  V30 11252 O 1100.71 1.16935 -1.38549 0
M  V30 11253 C 1100.76 -1.91852 -3.05328 0
M  V30 11254 O 1099.87 -1.23448 -3.9349 0
M  V30 11255 H 1099.21 -0.416486 -0.517141 0
M  V30 11256 H 1101.74 -1.70826 -1.12603 0
M  V30 11257 H 1101.75 -2.00244 -3.5548 0
M  V30 11258 H 1100.42 -2.96313 -2.91841 0
M  V30 11259 H 1099 -1.23303 -3.51924 0
M  V30 11260 N 1101.18 1.11143 -1.11736 0
M  V30 11261 C 1102.09 2.20851 -0.791331 0
M  V30 11262 C 1103.11 1.72644 0.216833 0
M  V30 11263 O 1104.29 2.01332 0.0522401 0
M  V30 11264 C 1101.35 3.4585 -0.242694 0
M  V30 11265 C 1100.41 4.08829 -1.30986 0
M  V30 11266 C 1099.65 5.27861 -0.787305 0
M  V30 11267 O 1099.87 5.69122 0.381549 0
M  V30 11268 O 1098.8 5.81506 -1.55352 0
M  V30 11269 H 1102.63 2.51158 -1.70744 0
M  V30 11270 H 1100.21 1.19739 -0.893478 0
M  V30 11271 H 1102.1 4.21359 0.0587472 0
M  V30 11272 H 1100.77 3.17187 0.646079 0
M  V30 11273 H 1099.68 3.35037 -1.66436 0
M  V30 11274 H 1101.01 4.41678 -2.17213 0
M  V30 11275 N 1102.66 0.908147 1.28804 0
M  V30 11276 C 1103.89 0.55409 1.99343 0
M  V30 11277 C 1104.31 -0.863262 1.67908 0
M  V30 11278 O 1103.66 -1.571 0.92875 0
M  V30 11279 C 1103.71 0.746916 3.537 0
M  V30 11280 O 1103.43 2.10849 3.84024 0
M  V30 11281 C 1104.94 0.398939 4.41501 0
M  V30 11282 H 1102.16 0.211784 0.636701 0
M  V30 11283 H 1104.7 1.21981 1.64137 0
M  V30 11284 H 1102.85 0.128264 3.87188 0
M  V30 11285 H 1103.27 2.14404 4.78676 0
M  V30 11286 H 1104.74 0.584656 5.48895 0
M  V30 11287 H 1105.22 -0.664517 4.34144 0
M  V30 11288 H 1105.83 0.994892 4.135 0
M  V30 11289 N 1104.14 -1.42577 0.671525 0
M  V30 11290 C 1105.37 -2.05924 0.200731 0
M  V30 11291 C 1105.78 -1.50434 -1.14083 0
M  V30 11292 O 1105.14 -0.642845 -1.70803 0
M  V30 11293 C 1105.19 -3.61289 0.123505 0
M  V30 11294 O 1104.91 -4.1472 1.41205 0
M  V30 11295 C 1106.41 -4.41743 -0.371178 0
M  V30 11296 H 1103.63 -0.663746 0.0983958 0
M  V30 11297 H 1106.18 -1.82771 0.917338 0
M  V30 11298 H 1104.33 -3.83565 -0.543769 0
M  V30 11299 H 1104.75 -5.0856 1.28325 0
M  V30 11300 H 1106.22 -5.50731 -0.374128 0
M  V30 11301 H 1106.7 -4.16092 -1.40585 0
M  V30 11302 H 1107.3 -4.24478 0.264244 0
M  V30 11303 N 1105.62 -0.414636 -1.52048 0
M  V30 11304 C 1106.55 0.399119 -2.30064 0
M  V30 11305 C 1107.53 1.04126 -1.34506 0
M  V30 11306 O 1108.71 1.04923 -1.63416 0
M  V30 11307 C 1105.84 1.51305 -3.12608 0
M  V30 11308 C 1104.8 0.995621 -4.16259 0
M  V30 11309 C 1104.12 2.20357 -4.87183 0
M  V30 11310 C 1105.42 0.0458178 -5.2228 0
M  V30 11311 H 1107.12 -0.251879 -2.98339 0
M  V30 11312 H 1104.66 -0.122579 -1.43477 0
M  V30 11313 H 1106.62 2.08936 -3.65956 0
M  V30 11314 H 1105.34 2.19201 -2.42113 0
M  V30 11315 H 1104 0.441676 -3.6393 0
M  V30 11316 H 1103.65 2.8682 -4.13211 0
M  V30 11317 H 1103.35 1.86385 -5.57256 0
M  V30 11318 H 1104.87 2.78584 -5.43345 0
M  V30 11319 H 1106.29 0.531102 -5.70835 0
M  V30 11320 H 1104.68 -0.20536 -5.99749 0
M  V30 11321 H 1105.75 -0.897807 -4.76516 0
M  V30 11322 N 1107.1 1.56929 -0.145233 0
M  V30 11323 C 1108.03 2.13796 0.826078 0
M  V30 11324 C 1109.04 1.08697 1.21197 0
M  V30 11325 O 1110.23 1.3598 1.15635 0
M  V30 11326 C 1107.33 2.6443 2.11967 0
M  V30 11327 C 1106.5 3.9391 1.90142 0
M  V30 11328 C 1105.56 4.29872 3.03474 0
M  V30 11329 O 1104.59 4.98227 2.75242 0
M  V30 11330 N 1105.79 3.8931 4.30602 0
M  V30 11331 H 1108.56 2.97764 0.340073 0
M  V30 11332 H 1106.12 1.61854 0.0383928 0
M  V30 11333 H 1108.11 2.85502 2.86829 0
M  V30 11334 H 1106.68 1.85196 2.51836 0
M  V30 11335 H 1105.9 3.81481 0.993268 0
M  V30 11336 H 1107.19 4.78523 1.72896 0
M  V30 11337 H 1106.58 3.34229 4.56407 0
M  V30 11338 H 1105.14 4.15438 5.0225 0
M  V30 11339 N 1108.58 -0.128553 1.57075 0
M  V30 11340 C 1109.51 -1.15953 2.02675 0
M  V30 11341 C 1110.49 -1.43743 0.909501 0
M  V30 11342 O 1111.67 -1.54348 1.17857 0
M  V30 11343 C 1108.8 -2.48813 2.423 0
M  V30 11344 C 1107.76 -2.35506 3.57381 0
M  V30 11345 C 1107.08 -3.73243 3.82875 0
M  V30 11346 C 1108.38 -1.82359 4.89431 0
M  V30 11347 H 1110.08 -0.780283 2.89054 0
M  V30 11348 H 1107.62 -0.373896 1.39061 0
M  V30 11349 H 1109.57 -3.21179 2.72804 0
M  V30 11350 H 1108.3 -2.88609 1.52881 0
M  V30 11351 H 1106.96 -1.6559 3.27071 0
M  V30 11352 H 1106.61 -4.10507 2.90677 0
M  V30 11353 H 1106.31 -3.65195 4.60333 0
M  V30 11354 H 1107.83 -4.47128 4.15823 0
M  V30 11355 H 1109.24 -2.44533 5.18533 0
M  V30 11356 H 1107.64 -1.85156 5.70822 0
M  V30 11357 H 1108.71 -0.780478 4.78578 0
M  V30 11358 N 1110.05 -1.5248 -0.398459 0
M  V30 11359 C 1111 -1.76585 -1.48615 0
M  V30 11360 C 1111.97 -0.608677 -1.54546 0
M  V30 11361 O 1113.16 -0.847383 -1.7095 0
M  V30 11362 C 1110.3 -1.93201 -2.8595 0
M  V30 11363 C 1109.41 -3.20875 -2.89246 0
M  V30 11364 C 1108.54 -3.27862 -4.17947 0
M  V30 11365 C 1107.58 -4.49697 -4.15258 0
M  V30 11366 N 1106.72 -4.54017 -5.35549 0
M  V30 11367 H 1111.56 -2.69412 -1.27362 0
M  V30 11368 H 1109.1 -1.33487 -0.618031 0
M  V30 11369 H 1111.05 -2.00819 -3.65688 0
M  V30 11370 H 1109.68 -1.03743 -3.05675 0
M  V30 11371 H 1108.74 -3.22376 -2.01935 0
M  V30 11372 H 1110.05 -4.1066 -2.83125 0
M  V30 11373 H 1109.2 -3.34611 -5.06083 0
M  V30 11374 H 1107.94 -2.36035 -4.26777 0
M  V30 11375 H 1106.95 -4.43083 -3.25511 0
M  V30 11376 H 1108.17 -5.42831 -4.08059 0
M  V30 11377 H 1106.12 -3.65078 -5.45027 0
M  V30 11378 H 1106.03 -5.37661 -5.31466 0
M  V30 11379 H 1107.3 -4.65009 -6.25609 0
M  V30 11380 N 1111.53 0.65634 -1.43283 0
M  V30 11381 C 1112.49 1.75117 -1.47874 0
M  V30 11382 C 1113.49 1.56629 -0.363846 0
M  V30 11383 O 1114.68 1.62584 -0.625464 0
M  V30 11384 C 1111.82 3.13957 -1.32831 0
M  V30 11385 H 1113.01 1.72429 -2.45374 0
M  V30 11386 H 1110.56 0.867704 -1.30002 0
M  V30 11387 H 1111.3 3.22259 -0.36326 0
M  V30 11388 H 1111.08 3.28781 -2.13649 0
M  V30 11389 H 1112.57 3.93799 -1.38969 0
M  V30 11390 N 1113.01 1.29761 0.894412 0
M  V30 11391 C 1113.92 1.1724 2.03204 0
M  V30 11392 C 1114.94 0.0944452 1.73743 0
M  V30 11393 O 1116.11 0.307549 1.99038 0
M  V30 11394 C 1113.18 0.855416 3.35981 0
M  V30 11395 C 1112.24 2.01777 3.78926 0
M  V30 11396 C 1111.47 1.71581 5.05367 0
M  V30 11397 O 1111.69 0.639245 5.66807 0
M  V30 11398 O 1110.63 2.56539 5.44492 0
M  V30 11399 H 1114.45 2.12787 2.16692 0
M  V30 11400 H 1112.04 1.09264 1.0189 0
M  V30 11401 H 1113.92 0.693429 4.15656 0
M  V30 11402 H 1112.6 -0.0702195 3.23624 0
M  V30 11403 H 1111.5 2.23502 2.99996 0
M  V30 11404 H 1112.84 2.92479 3.95875 0
M  V30 11405 N 1114.49 -1.10549 1.12324 0
M  V30 11406 C 1115.44 -2.18944 0.785248 0
M  V30 11407 C 1116.43 -1.67867 -0.227389 0
M  V30 11408 O 1117.64 -1.79796 -0.0857162 0
M  V30 11409 H 1114.01 -0.713976 0.236098 0
M  V30 11410 H 1115.98 -2.44692 1.70788 0
M  V30 11411 C 1114.73 -3.46765 0.25485 0
M  V30 11412 H 1114.05 -3.86428 1.02534 0
M  V30 11413 H 1115.49 -4.23962 0.0566526 0
M  V30 11414 C 1113.95 -3.21185 -1.01695 0
M  V30 11415 O 1114.48 -3.42745 -2.09497 0
M  V30 11416 N 1112.69 -2.7486 -0.943423 0
M  V30 11417 H 1112.24 -2.57515 -0.0660366 0
M  V30 11418 H 1112.19 -2.58122 -1.795 0
M  V30 11419 N 1115.97 -0.914965 -1.28321 0
M  V30 11420 C 1116.88 -0.409424 -2.31 0
M  V30 11421 C 1117.89 0.503526 -1.66555 0
M  V30 11422 O 1119.07 0.38942 -1.97599 0
M  V30 11423 C 1116.13 0.34123 -3.45017 0
M  V30 11424 C 1115.19 -0.605087 -4.25014 0
M  V30 11425 C 1114.43 0.109837 -5.33587 0
M  V30 11426 O 1114.65 1.33136 -5.54645 0
M  V30 11427 O 1113.58 -0.555474 -5.99331 0
M  V30 11428 H 1117.41 -1.26167 -2.76253 0
M  V30 11429 H 1114.99 -0.679831 -1.33036 0
M  V30 11430 H 1116.88 0.765132 -4.14396 0
M  V30 11431 H 1115.55 1.16929 -3.01843 0
M  V30 11432 H 1114.46 -1.07841 -3.58219 0
M  V30 11433 H 1115.79 -1.39999 -4.7187 0
M  V30 11434 N 1117.44 1.42219 -0.679077 0
M  V30 11435 C 1118.69 2.01479 -0.203119 0
M  V30 11436 C 1119.02 1.5371 1.19178 0
M  V30 11437 O 1118.27 0.731832 1.81501 0
M  V30 11438 C 1118.57 3.56889 -0.191027 0
M  V30 11439 C 1118.24 4.24106 -1.53118 0
M  V30 11440 C 1116.9 4.42182 -1.89812 0
M  V30 11441 C 1119.25 4.61946 -2.41361 0
M  V30 11442 C 1116.58 4.95371 -3.14364 0
M  V30 11443 C 1118.93 5.16518 -3.65229 0
M  V30 11444 C 1117.6 5.32807 -4.02086 0
M  V30 11445 H 1116.87 0.737263 -0.0743264 0
M  V30 11446 H 1119.51 1.70346 -0.874908 0
M  V30 11447 H 1117.82 3.87715 0.564282 0
M  V30 11448 H 1119.52 4.00528 0.194511 0
M  V30 11449 H 1116.11 4.10399 -1.23575 0
M  V30 11450 H 1120.29 4.4765 -2.14297 0
M  V30 11451 H 1115.55 5.06167 -3.42935 0
M  V30 11452 H 1119.72 5.44782 -4.33804 0
M  V30 11453 H 1117.35 5.73785 -4.98673 0
M  V30 11454 N 1118.92 0.422693 1.51826 0
M  V30 11455 C 1120.17 -0.148348 2.01555 0
M  V30 11456 C 1120.49 -1.44483 1.30956 0
M  V30 11457 O 1119.76 -1.90904 0.439599 0
M  V30 11458 H 1118.34 -0.0578116 0.74476 0
M  V30 11459 H 1121 0.562046 1.8662 0
M  V30 11460 H 1120.1 -0.334766 3.10299 0
M  V30 11461 N 1120.4 -1.5685 0.153553 0
M  V30 11462 C 1121.63 -2.00701 -0.502678 0
M  V30 11463 C 1122.04 -1.0337 -1.57988 0
M  V30 11464 O 1121.4 -0.0317233 -1.82472 0
M  V30 11465 C 1121.45 -3.44443 -1.09732 0
M  V30 11466 O 1121.17 -4.38054 -0.0631405 0
M  V30 11467 C 1122.67 -4.03605 -1.83352 0
M  V30 11468 H 1119.89 -0.658229 -0.130289 0
M  V30 11469 H 1122.44 -2.02965 0.250063 0
M  V30 11470 H 1120.59 -3.43009 -1.80065 0
M  V30 11471 H 1121.01 -5.22114 -0.499681 0
M  V30 11472 H 1122.48 -5.0616 -2.20241 0
M  V30 11473 H 1122.96 -3.44687 -2.7219 0
M  V30 11474 H 1123.56 -4.08688 -1.17703 0
M  V30 11475 N 1121.88 0.120221 -1.57141 0
M  V30 11476 C 1123.13 0.826791 -1.83976 0
M  V30 11477 C 1123.44 1.81102 -0.739014 0
M  V30 11478 O 1124.65 2.56368 -0.893736 0
M  V30 11479 C 1123.1 1.52108 -3.26176 0
M  V30 11480 C 1122.71 0.577902 -4.44257 0
M  V30 11481 C 1124.45 2.21286 -3.62261 0
M  V30 11482 C 1122.36 1.27535 -5.77485 0
M  V30 11483 H 1121.29 0.312508 -0.686189 0
M  V30 11484 H 1123.94 0.0795343 -1.83328 0
M  V30 11485 H 1122.32 2.31492 -3.2129 0
M  V30 11486 H 1123.5 -0.182629 -4.60438 0
M  V30 11487 H 1121.81 -0.00684348 -4.16399 0
M  V30 11488 H 1124.41 2.74154 -4.59068 0
M  V30 11489 H 1124.75 2.99029 -2.89634 0
M  V30 11490 H 1125.29 1.48791 -3.68925 0
M  V30 11491 H 1122.02 0.539237 -6.53278 0
M  V30 11492 H 1121.54 2.00792 -5.65192 0
M  V30 11493 H 1123.22 1.80888 -6.21199 0
M  V30 11494 N 1123.36 1.52689 0.390367 0
M  V30 11495 C 1124.27 1.8029 1.50108 0
M  V30 11496 C 1125.28 0.689582 1.59752 0
M  V30 11497 O 1126.46 0.977024 1.76114 0
M  V30 11498 C 1123.52 1.96475 2.85654 0
M  V30 11499 C 1122.58 3.2039 2.85743 0
M  V30 11500 C 1121.82 3.35793 4.14824 0
M  V30 11501 O 1122.04 2.56033 5.09709 0
M  V30 11502 O 1120.97 4.2904 4.22147 0
M  V30 11503 H 1124.8 2.74605 1.29715 0
M  V30 11504 H 1122.39 1.37763 0.578074 0
M  V30 11505 H 1124.27 2.08835 3.66013 0
M  V30 11506 H 1122.94 1.05351 3.06077 0
M  V30 11507 H 1121.85 3.13473 2.0417 0
M  V30 11508 H 1123.18 4.11356 2.70272 0
M  V30 11509 N 1124.83 -0.648732 1.43629 0
M  V30 11510 C 1125.74 -1.79046 1.51591 0
M  V30 11511 C 1126.76 -1.69276 0.402697 0
M  V30 11512 O 1127.94 -1.90366 0.657484 0
M  V30 11513 C 1125 -3.15347 1.44073 0
M  V30 11514 C 1124.06 -3.3688 2.66102 0
M  V30 11515 C 1123.3 -4.66679 2.58933 0
M  V30 11516 O 1123.52 -5.46328 1.63956 0
M  V30 11517 O 1122.45 -4.9003 3.49506 0
M  V30 11518 H 1126.28 -1.75283 2.48011 0
M  V30 11519 H 1123.86 -0.807774 1.2568 0
M  V30 11520 H 1125.75 -3.96633 1.42339 0
M  V30 11521 H 1124.42 -3.19691 0.50789 0
M  V30 11522 H 1123.33 -2.55341 2.73407 0
M  V30 11523 H 1124.66 -3.37386 3.58373 0
M  V30 11524 N 1126.31 -1.30234 -0.887518 0
M  V30 11525 C 1127.54 -1.21829 -1.67229 0
M  V30 11526 C 1127.96 0.219251 -1.87523 0
M  V30 11527 O 1127.31 1.14526 -1.42091 0
M  V30 11528 C 1127.36 -1.94044 -3.05007 0
M  V30 11529 O 1127.08 -3.32185 -2.85631 0
M  V30 11530 C 1128.59 -1.92265 -3.99436 0
M  V30 11531 H 1125.81 -0.421716 -0.521916 0
M  V30 11532 H 1128.35 -1.71816 -1.10903 0
M  V30 11533 H 1126.5 -1.47861 -3.58072 0
M  V30 11534 H 1126.92 -3.68724 -3.73018 0
M  V30 11535 H 1128.39 -2.47336 -4.93486 0
M  V30 11536 H 1128.87 -0.900984 -4.29859 0
M  V30 11537 H 1129.48 -2.38247 -3.52305 0
M  V30 11538 N 1127.79 1.09952 -1.12909 0
M  V30 11539 C 1129.02 1.8552 -0.909163 0
M  V30 11540 C 1129.43 1.81173 0.545253 0
M  V30 11541 O 1128.77 1.20223 1.38896 0
M  V30 11542 C 1128.83 3.34693 -1.31228 0
M  V30 11543 C 1128.5 3.62794 -2.77902 0
M  V30 11544 C 1129.49 3.58973 -3.76078 0
M  V30 11545 C 1127.18 3.91311 -3.1493 0
M  V30 11546 C 1129.17 3.83271 -5.09296 0
M  V30 11547 C 1126.86 4.15265 -4.48328 0
M  V30 11548 C 1127.86 4.11236 -5.4532 0
M  V30 11549 O 1127.55 4.34576 -6.76313 0
M  V30 11550 H 1127.28 0.59303 -0.324486 0
M  V30 11551 H 1129.83 1.39878 -1.5041 0
M  V30 11552 H 1128.06 3.81016 -0.660573 0
M  V30 11553 H 1129.75 3.9166 -1.06569 0
M  V30 11554 H 1130.52 3.36974 -3.48817 0
M  V30 11555 H 1126.4 3.93575 -2.40041 0
M  V30 11556 H 1129.94 3.80041 -5.84991 0
M  V30 11557 H 1125.84 4.36743 -4.75316 0
M  V30 11558 H 1126.61 4.52065 -6.82334 0
M  V30 11559 N 1129.27 0.921757 1.27833 0
M  V30 11560 C 1130.5 0.575202 1.98744 0
M  V30 11561 C 1130.91 -0.845405 1.68815 0
M  V30 11562 O 1130.27 -1.56106 0.94536 0
M  V30 11563 C 1130.32 0.784389 3.52888 0
M  V30 11564 O 1130.04 2.1491 3.81766 0
M  V30 11565 C 1131.54 0.445744 4.41053 0
M  V30 11566 H 1128.76 0.218525 0.634419 0
M  V30 11567 H 1131.31 1.23715 1.62834 0
M  V30 11568 H 1129.46 0.169323 3.8703 0
M  V30 11569 H 1129.87 2.19469 4.76375 0
M  V30 11570 H 1131.35 0.64284 5.48244 0
M  V30 11571 H 1131.83 -0.618433 4.34824 0
M  V30 11572 H 1132.43 1.03869 4.12421 0
M  V30 11573 N 1130.75 -1.41857 0.686609 0
M  V30 11574 C 1131.98 -2.05401 0.222238 0
M  V30 11575 C 1132.38 -1.51731 -1.13023 0
M  V30 11576 O 1131.73 -0.656701 -1.71561 0
M  V30 11577 C 1131.79 -3.59381 0.0926608 0
M  V30 11578 C 1131.45 -4.35801 1.37573 0
M  V30 11579 C 1132.45 -4.65678 2.31171 0
M  V30 11580 C 1130.14 -4.75233 1.62661 0
M  V30 11581 C 1132.13 -5.33936 3.48125 0
M  V30 11582 C 1129.82 -5.43229 2.79902 0
M  V30 11583 C 1130.81 -5.72507 3.72458 0
M  V30 11584 O 1130.5 -6.39106 4.87646 0
M  V30 11585 H 1130.23 -0.668126 0.102876 0
M  V30 11586 H 1132.79 -1.82775 0.93714 0
M  V30 11587 H 1131.02 -3.80711 -0.67793 0
M  V30 11588 H 1132.71 -4.04529 -0.333364 0
M  V30 11589 H 1133.47 -4.35704 2.13042 0
M  V30 11590 H 1129.35 -4.51831 0.914862 0
M  V30 11591 H 1132.9 -5.56706 4.20386 0
M  V30 11592 H 1128.79 -5.72621 2.97951 0
M  V30 11593 H 1129.56 -6.576 4.87344 0
M  V30 11594 N 1132.22 -0.430739 -1.51599 0
M  V30 11595 C 1133.45 0.136797 -2.06447 0
M  V30 11596 C 1133.87 1.37027 -1.29881 0
M  V30 11597 O 1133.22 1.78983 -0.356543 0
M  V30 11598 C 1133.28 0.465637 -3.58489 0
M  V30 11599 O 1133 -0.718873 -4.32162 0
M  V30 11600 C 1134.5 1.08456 -4.29828 0
M  V30 11601 H 1131.72 0.0108468 -0.670912 0
M  V30 11602 H 1134.26 -0.607921 -1.95255 0
M  V30 11603 H 1132.42 1.16025 -3.69617 0
M  V30 11604 H 1132.83 -0.439195 -5.22658 0
M  V30 11605 H 1134.3 1.2647 -5.37317 0
M  V30 11606 H 1134.78 2.06376 -3.87693 0
M  V30 11607 H 1135.39 0.429525 -4.23125 0
M  V30 11608 N 1133.7 1.56767 -0.161869 0
M  V30 11609 C 1134.65 2.17502 0.772102 0
M  V30 11610 C 1135.62 1.11223 1.23364 0
M  V30 11611 O 1136.8 1.39332 1.30351 0
M  V30 11612 C 1133.94 2.81248 1.99984 0
M  V30 11613 C 1133.06 4.01962 1.58274 0
M  V30 11614 C 1132.19 4.53662 2.76341 0
M  V30 11615 C 1131.23 5.66807 2.31076 0
M  V30 11616 N 1130.37 6.13059 3.42203 0
M  V30 11617 H 1135.21 2.96971 0.247382 0
M  V30 11618 H 1132.75 1.46685 0.110382 0
M  V30 11619 H 1134.7 3.16359 2.7198 0
M  V30 11620 H 1133.33 2.04398 2.49842 0
M  V30 11621 H 1132.39 3.72733 0.759874 0
M  V30 11622 H 1133.7 4.83891 1.2104 0
M  V30 11623 H 1132.85 4.90905 3.56507 0
M  V30 11624 H 1131.59 3.7077 3.16829 0
M  V30 11625 H 1130.6 5.29125 1.49354 0
M  V30 11626 H 1131.82 6.51494 1.91657 0
M  V30 11627 H 1129.77 5.33099 3.82285 0
M  V30 11628 H 1129.68 6.89953 3.09033 0
M  V30 11629 H 1130.95 6.54951 4.22682 0
M  V30 11630 N 1135.18 -0.111886 1.57202 0
M  V30 11631 C 1136.41 -0.836317 1.89791 0
M  V30 11632 C 1136.83 -1.72304 0.754513 0
M  V30 11633 O 1136.19 -1.78889 -0.294672 0
M  V30 11634 C 1136.24 -1.63971 3.21164 0
M  V30 11635 O 1135.34 -2.74726 3.0757 0
M  V30 11636 H 1134.68 -0.230833 0.622585 0
M  V30 11637 H 1137.21 -0.0921478 2.04392 0
M  V30 11638 H 1137.22 -2.02746 3.54059 0
M  V30 11639 H 1135.9 -0.98882 4.03974 0
M  V30 11640 H 1134.47 -2.39101 2.86156 0
M  V30 11641 N 1136.66 -1.52894 -0.382264 0
M  V30 11642 C 1137.89 -1.72152 -1.14766 0
M  V30 11643 C 1138.3 -0.442911 -1.83531 0
M  V30 11644 O 1137.66 0.583085 -1.72935 0
M  V30 11645 C 1137.71 -2.87566 -2.19062 0
M  V30 11646 O 1137.43 -4.10478 -1.53099 0
M  V30 11647 C 1138.93 -3.18559 -3.08277 0
M  V30 11648 H 1136.15 -0.576212 -0.343832 0
M  V30 11649 H 1138.7 -1.99571 -0.446273 0
M  V30 11650 H 1136.85 -2.62589 -2.84826 0
M  V30 11651 H 1137.26 -4.74989 -2.22454 0
M  V30 11652 H 1138.74 -4.02763 -3.77473 0
M  V30 11653 H 1139.22 -2.33222 -3.72161 0
M  V30 11654 H 1139.82 -3.454 -2.48151 0
M  V30 11655 N 1138.14 0.641106 -1.43971 0
M  V30 11656 C 1139.39 1.39807 -1.4594 0
M  V30 11657 C 1139.71 1.94795 -0.0893874 0
M  V30 11658 O 1138.98 1.75175 0.876962 0
M  V30 11659 H 1137.56 0.518908 -0.537349 0
M  V30 11660 H 1140.22 0.755278 -1.79671 0
M  V30 11661 H 1139.31 2.23439 -2.17903 0
M  V30 11662 N 1139.62 1.30703 0.880598 0
M  V30 11663 C 1140.55 1.20033 2.00286 0
M  V30 11664 C 1141.53 0.0899614 1.69862 0
M  V30 11665 O 1142.71 0.272747 1.92275 0
M  V30 11666 C 1139.84 0.895902 3.35546 0
M  V30 11667 C 1138.8 1.96468 3.80242 0
M  V30 11668 C 1138.12 1.51316 5.12843 0
M  V30 11669 C 1139.42 3.37637 3.98496 0
M  V30 11670 H 1141.12 2.13922 2.0947 0
M  V30 11671 H 1138.66 1.02989 1.00644 0
M  V30 11672 H 1140.61 0.807899 4.13583 0
M  V30 11673 H 1139.34 -0.0786636 3.26505 0
M  V30 11674 H 1138 2.0424 3.04437 0
M  V30 11675 H 1137.65 0.52674 5.00234 0
M  V30 11676 H 1137.35 2.22807 5.43719 0
M  V30 11677 H 1138.87 1.43903 5.93401 0
M  V30 11678 H 1140.28 3.326 4.66959 0
M  V30 11679 H 1138.68 4.07253 4.40755 0
M  V30 11680 H 1139.75 3.79205 3.02211 0
M  V30 11681 N 1141.09 -1.09351 1.1349 0
M  V30 11682 C 1142.32 -1.85304 0.920324 0
M  V30 11683 C 1142.74 -1.81182 -0.530883 0
M  V30 11684 O 1142.09 -1.20853 -1.36751 0
M  V30 11685 C 1142.14 -3.33249 1.40098 0
M  V30 11686 O 1141.87 -3.37333 2.79531 0
M  V30 11687 C 1143.37 -4.2604 1.22495 0
M  V30 11688 H 1140.59 -0.585294 0.328134 0
M  V30 11689 H 1143.13 -1.38168 1.50765 0
M  V30 11690 H 1141.29 -3.7781 0.85664 0
M  V30 11691 H 1141.7 -4.29614 3.00885 0
M  V30 11692 H 1143.17 -5.27999 1.61 0
M  V30 11693 H 1143.65 -4.38883 0.166717 0
M  V30 11694 H 1144.26 -3.87295 1.75735 0
M  V30 11695 N 1142.57 -0.928524 -1.27343 0
M  V30 11696 C 1143.82 -0.565207 -1.93619 0
M  V30 11697 C 1144.13 0.897988 -1.73769 0
M  V30 11698 O 1145.34 1.37012 -2.34393 0
M  V30 11699 C 1143.8 -0.960052 -3.46859 0
M  V30 11700 C 1143.4 -2.44399 -3.75464 0
M  V30 11701 C 1145.15 -0.668026 -4.19211 0
M  V30 11702 C 1143.05 -2.77819 -5.22083 0
M  V30 11703 H 1141.98 -0.207665 -0.724839 0
M  V30 11704 H 1144.64 -1.12945 -1.44623 0
M  V30 11705 H 1143.02 -0.324454 -3.94669 0
M  V30 11706 H 1144.19 -3.12756 -3.38408 0
M  V30 11707 H 1142.51 -2.70799 -3.16317 0
M  V30 11708 H 1145.1 -0.894207 -5.2717 0
M  V30 11709 H 1145.45 0.394788 -4.14424 0
M  V30 11710 H 1145.98 -1.26276 -3.77226 0
M  V30 11711 H 1142.72 -3.83013 -5.3196 0
M  V30 11712 H 1142.24 -2.14112 -5.60282 0
M  V30 11713 H 1143.92 -2.65607 -5.89968 0
M  V30 11714 N 1144.05 1.41491 -0.694123 0
M  V30 11715 C 1145.28 2.0528 -0.233128 0
M  V30 11716 C 1145.69 1.52329 1.12217 0
M  V30 11717 O 1145.03 0.66579 1.7121 0
M  V30 11718 C 1145.09 3.59326 -0.111718 0
M  V30 11719 C 1144.76 4.35065 -1.39882 0
M  V30 11720 C 1145.75 4.64446 -2.33637 0
M  V30 11721 C 1143.44 4.74364 -1.65179 0
M  V30 11722 C 1145.43 5.32083 -3.50951 0
M  V30 11723 C 1143.12 5.41737 -2.82779 0
M  V30 11724 C 1144.12 5.70524 -3.75488 0
M  V30 11725 O 1143.81 6.36511 -4.91029 0
M  V30 11726 H 1143.54 0.667571 -0.106418 0
M  V30 11727 H 1146.09 1.82276 -0.94682 0
M  V30 11728 H 1144.32 3.81065 0.65773 0
M  V30 11729 H 1146.01 4.047 0.311906 0
M  V30 11730 H 1146.78 4.34568 -2.1535 0
M  V30 11731 H 1142.66 4.5134 -0.93881 0
M  V30 11732 H 1146.2 5.54468 -4.23333 0
M  V30 11733 H 1142.1 5.71033 -3.00984 0
M  V30 11734 H 1142.86 6.55006 -4.90825 0
M  V30 11735 N 1145.53 0.438773 1.51369 0
M  V30 11736 C 1146.77 -0.127213 2.021 0
M  V30 11737 C 1147.1 -1.42587 1.32284 0
M  V30 11738 O 1146.36 -1.90986 0.426949 0
M  V30 11739 C 1146.66 -0.39186 3.55245 0
M  V30 11740 C 1146.32 0.821158 4.4336 0
M  V30 11741 C 1144.98 1.15381 4.67162 0
M  V30 11742 C 1147.34 1.6303 4.95046 0
M  V30 11743 C 1144.66 2.29626 5.39897 0
M  V30 11744 C 1147.02 2.76376 5.69033 0
M  V30 11745 C 1145.68 3.10094 5.91099 0
M  V30 11746 H 1144.95 -0.0465505 0.739536 0
M  V30 11747 H 1147.6 0.586261 1.82305 0
M  V30 11748 H 1145.9 -1.18724 3.73379 0
M  V30 11749 H 1147.6 -0.843228 3.92034 0
M  V30 11750 H 1144.19 0.551946 4.25031 0
M  V30 11751 H 1148.37 1.38651 4.76539 0
M  V30 11752 H 1143.63 2.56062 5.55196 0
M  V30 11753 H 1147.8 3.39442 6.08072 0
M  V30 11754 H 1145.43 3.98731 6.47238 0
M  V30 11755 N 1147.01 -1.56678 0.170181 0
M  V30 11756 C 1147.95 -2.17909 -0.760556 0
M  V30 11757 C 1148.92 -1.11875 -1.22773 0
M  V30 11758 O 1150.11 -1.40021 -1.2961 0
M  V30 11759 C 1147.25 -2.82305 -1.9849 0
M  V30 11760 C 1146.36 -4.02796 -1.5614 0
M  V30 11761 C 1145.5 -4.55121 -2.73932 0
M  V30 11762 C 1144.53 -5.68025 -2.28067 0
M  V30 11763 N 1143.67 -6.14865 -3.38947 0
M  V30 11764 H 1148.51 -2.97098 -0.231629 0
M  V30 11765 H 1146.05 -1.46742 -0.102602 0
M  V30 11766 H 1148.01 -3.17797 -2.70298 0
M  V30 11767 H 1146.64 -2.05721 -2.48755 0
M  V30 11768 H 1145.69 -3.73131 -0.740097 0
M  V30 11769 H 1147 -4.84526 -1.18472 0
M  V30 11770 H 1146.15 -4.92789 -3.53898 0
M  V30 11771 H 1144.89 -3.72445 -3.14858 0
M  V30 11772 H 1143.9 -5.2991 -1.46546 0
M  V30 11773 H 1145.12 -6.52501 -1.88199 0
M  V30 11774 H 1143.07 -5.35119 -3.79452 0
M  V30 11775 H 1142.99 -6.91582 -3.05369 0
M  V30 11776 H 1144.25 -6.57183 -4.19203 0
M  V30 11777 N 1148.48 0.103547 -1.57259 0
M  V30 11778 C 1149.43 1.12621 -2.01458 0
M  V30 11779 C 1150.4 1.40282 -0.889391 0
M  V30 11780 O 1151.59 1.51887 -1.15477 0
M  V30 11781 C 1148.73 2.44352 -2.43692 0
M  V30 11782 C 1147.84 2.23495 -3.69695 0
M  V30 11783 C 1146.97 3.48565 -4.00844 0
M  V30 11784 C 1146.01 3.22932 -5.19982 0
M  V30 11785 N 1145.15 4.40246 -5.46926 0
M  V30 11786 H 1149.99 0.742315 -2.88606 0
M  V30 11787 H 1147.53 0.355016 -1.42752 0
M  V30 11788 H 1149.48 3.2122 -2.66221 0
M  V30 11789 H 1148.11 2.80605 -1.59565 0
M  V30 11790 H 1147.17 1.3747 -3.54692 0
M  V30 11791 H 1148.48 2.0054 -4.56711 0
M  V30 11792 H 1147.63 4.33844 -4.24104 0
M  V30 11793 H 1146.37 3.74565 -3.12333 0
M  V30 11794 H 1145.38 2.36045 -4.96551 0
M  V30 11795 H 1146.6 2.98286 -6.10084 0
M  V30 11796 H 1144.55 4.66338 -4.61373 0
M  V30 11797 H 1144.46 4.20452 -6.28296 0
M  V30 11798 H 1145.73 5.26614 -5.74716 0
M  V30 11799 N 1149.96 1.53094 0.37415 0
M  V30 11800 C 1151.37 1.60641 0.951381 0
M  V30 11801 C 1151.72 0.468474 1.90525 0
M  V30 11802 O 1150.85 -0.406347 2.12551 0
M  V30 11803 C 1151.44 2.91166 1.73228 0
M  V30 11804 C 1150 3.01077 2.25898 0
M  V30 11805 C 1149.15 2.55873 1.06885 0
M  V30 11806 H 1152.1 1.57959 0.153214 0
M  V30 11807 H 1152.12 2.78487 2.59278 0
M  V30 11808 H 1151.63 3.73968 1.03778 0
M  V30 11809 H 1149.73 2.22844 2.98615 0
M  V30 11810 H 1149.85 4.05998 2.54367 0
M  V30 11811 H 1148.21 2.10544 1.43329 0
M  V30 11812 H 1148.99 3.41084 0.38947 0
M  V30 11813 N 1151.44 -0.633461 1.44309 0
M  V30 11814 C 1152.72 -1.3917 1.37444 0
M  V30 11815 C 1153.1 -2.11076 0.0319994 0
M  V30 11816 O 1152.44 -2.06164 -0.98533 0
M  V30 11817 C 1152.65 -2.36005 2.57104 0
M  V30 11818 C 1154 -2.99407 3.01065 0
M  V30 11819 O 1155.03 -2.46331 2.57292 0
M  V30 11820 O 1153.89 -3.95686 3.76954 0
M  V30 11821 H 1150.98 -0.622746 0.544166 0
M  V30 11822 H 1153.53 -0.658712 1.56394 0
M  V30 11823 H 1152.3 -1.81955 3.46422 0
M  V30 11824 H 1151.92 -3.16725 2.40356 0
M  V30 11825 N 1152.92 -1.31168 -0.873655 0
M  V30 11826 C 1154.14 -1.23728 -1.66452 0
M  V30 11827 C 1154.57 0.194869 -1.87088 0
M  V30 11828 O 1153.93 1.1397 -1.40998 0
M  V30 11829 C 1153.97 -1.98285 -3.0119 0
M  V30 11830 O 1153.08 -1.31767 -3.90783 0
M  V30 11831 H 1152.42 -0.427362 -0.508191 0
M  V30 11832 H 1154.95 -1.73176 -1.08955 0
M  V30 11833 H 1154.96 -2.0774 -3.51153 0
M  V30 11834 H 1153.63 -3.02437 -2.8549 0
M  V30 11835 H 1152.21 -1.3074 -3.4923 0
M  V30 11836 N 1154.4 1.08748 -1.14068 0
M  V30 11837 C 1155.64 1.81504 -0.918035 0
M  V30 11838 C 1156 1.84381 0.549671 0
M  V30 11839 O 1155.29 1.30612 1.40183 0
M  V30 11840 C 1155.48 3.26734 -1.44843 0
M  V30 11841 C 1155.31 3.38006 -2.96617 0
M  V30 11842 C 1154.08 3.49401 -3.6503 0
M  V30 11843 C 1156.28 3.29952 -3.94507 0
M  V30 11844 N 1154.26 3.49428 -5.04751 0
M  V30 11845 C 1155.63 3.3693 -5.20459 0
M  V30 11846 C 1157.69 3.13666 -3.86676 0
M  V30 11847 C 1156.39 3.29299 -6.39496 0
M  V30 11848 C 1158.42 3.07363 -5.05254 0
M  V30 11849 C 1157.78 3.1494 -6.30073 0
M  V30 11850 H 1153.88 0.67814 -0.389423 0
M  V30 11851 H 1156.46 1.29916 -1.45017 0
M  V30 11852 H 1154.63 3.76776 -0.943112 0
M  V30 11853 H 1156.37 3.87537 -1.16606 0
M  V30 11854 H 1153.12 3.53145 -3.15572 0
M  V30 11855 H 1153.55 3.53007 -5.77681 0
M  V30 11856 H 1158.19 3.06673 -2.91053 0
M  V30 11857 H 1155.91 3.35054 -7.35367 0
M  V30 11858 H 1159.49 2.95887 -5.00941 0
M  V30 11859 H 1158.37 3.10088 -7.20288 0
M  V30 11860 N 1155.87 0.935264 1.26849 0
M  V30 11861 C 1157.12 0.578545 1.93642 0
M  V30 11862 C 1157.44 -0.884296 1.73796 0
M  V30 11863 O 1156.71 -1.62768 1.09011 0
M  V30 11864 H 1155.29 0.210976 0.716588 0
M  V30 11865 H 1157.96 1.1893 1.54407 0
M  V30 11866 H 1157.05 0.791268 3.01903 0
M  V30 11867 N 1157.35 -1.41121 0.701616 0
M  V30 11868 C 1158.58 -2.05452 0.244365 0
M  V30 11869 C 1159 -1.5282 -1.10866 0
M  V30 11870 O 1158.35 -0.67893 -1.69401 0
M  V30 11871 C 1158.4 -3.60946 0.200112 0
M  V30 11872 O 1158.12 -4.11632 1.4997 0
M  V30 11873 C 1159.63 -4.42431 -0.277394 0
M  V30 11874 H 1156.85 -0.66151 0.112453 0
M  V30 11875 H 1159.39 -1.80784 0.9559 0
M  V30 11876 H 1157.54 -3.84632 -0.462287 0
M  V30 11877 H 1157.96 -5.05723 1.39084 0
M  V30 11878 H 1159.43 -5.514 -0.257225 0
M  V30 11879 H 1159.91 -4.1898 -1.31728 0
M  V30 11880 H 1160.52 -4.23822 0.354223 0
M  V30 11881 N 1158.83 -0.446794 -1.51134 0
M  V30 11882 C 1160.24 0.0141132 -1.86695 0
M  V30 11883 C 1160.59 1.41095 -1.36333 0
M  V30 11884 O 1159.72 2.04139 -0.718068 0
M  V30 11885 C 1160.31 0.0323866 -3.38785 0
M  V30 11886 C 1158.87 0.437737 -3.73846 0
M  V30 11887 C 1158.02 -0.363436 -2.74908 0
M  V30 11888 H 1160.97 -0.66221 -1.44224 0
M  V30 11889 H 1160.99 0.839865 -3.71115 0
M  V30 11890 H 1160.5 -0.984374 -3.75409 0
M  V30 11891 H 1158.6 1.45975 -3.42815 0
M  V30 11892 H 1158.72 0.155964 -4.78846 0
M  V30 11893 H 1157.08 0.179566 -2.54066 0
M  V30 11894 H 1157.86 -1.37925 -3.14375 0
M  V30 11895 N 1160.31 1.56586 -0.178487 0
M  V30 11896 C 1161.26 2.1491 0.761432 0
M  V30 11897 C 1162.24 1.08528 1.18788 0
M  V30 11898 O 1163.43 1.34633 1.14904 0
M  V30 11899 C 1160.56 2.79902 1.98771 0
M  V30 11900 C 1159.65 3.93452 1.58293 0
M  V30 11901 N 1160.04 4.97942 0.888124 0
M  V30 11902 C 1158.34 4.04745 1.87343 0
M  V30 11903 C 1159.04 5.7762 0.68772 0
M  V30 11904 N 1158.02 5.2947 1.23136 0
M  V30 11905 H 1161.82 2.93063 0.221693 0
M  V30 11906 H 1159.33 1.62385 0.0219283 0
M  V30 11907 H 1161.33 3.20067 2.67138 0
M  V30 11908 H 1159.99 2.03232 2.53233 0
M  V30 11909 H 1161 5.1502 0.545387 0
M  V30 11910 H 1157.68 3.39186 2.43432 0
M  V30 11911 H 1159.07 6.71759 0.13775 0
M  V30 11912 N 1161.79 -0.095206 1.57312 0
M  V30 11913 C 1162.72 -1.11627 2.05089 0
M  V30 11914 C 1163.7 -1.41782 0.939787 0
M  V30 11915 O 1164.88 -1.51813 1.21105 0
M  V30 11916 C 1162.01 -2.43618 2.47523 0
M  V30 11917 C 1160.97 -2.27872 3.62296 0
M  V30 11918 C 1160.29 -3.65038 3.90706 0
M  V30 11919 C 1161.59 -1.71936 4.93189 0
M  V30 11920 H 1163.29 -0.718795 2.90644 0
M  V30 11921 H 1160.83 -0.344315 1.39823 0
M  V30 11922 H 1162.79 -3.1532 2.79556 0
M  V30 11923 H 1161.51 -2.85301 1.58968 0
M  V30 11924 H 1160.17 -1.58615 3.3051 0
M  V30 11925 H 1159.82 -4.04249 2.99319 0
M  V30 11926 H 1159.52 -3.55349 4.67976 0
M  V30 11927 H 1161.04 -4.38208 4.25213 0
M  V30 11928 H 1162.45 -2.33479 5.23603 0
M  V30 11929 H 1160.85 -1.73006 5.74621 0
M  V30 11930 H 1161.92 -0.678789 4.80125 0
M  V30 11931 N 1163.26 -1.53291 -0.366026 0
M  V30 11932 C 1164.49 -1.73108 -1.1277 0
M  V30 11933 C 1164.9 -0.459662 -1.83531 0
M  V30 11934 O 1164.25 0.577151 -1.74398 0
M  V30 11935 C 1164.31 -2.84137 -2.20242 0
M  V30 11936 C 1163.97 -4.24503 -1.69252 0
M  V30 11937 C 1164.97 -5.06866 -1.15684 0
M  V30 11938 C 1162.65 -4.70912 -1.74778 0
M  V30 11939 C 1164.65 -6.33728 -0.683191 0
M  V30 11940 C 1162.33 -5.97752 -1.27025 0
M  V30 11941 C 1163.33 -6.78992 -0.738858 0
M  V30 11942 O 1163.02 -8.03452 -0.268375 0
M  V30 11943 H 1162.75 -0.582439 -0.343134 0
M  V30 11944 H 1165.31 -2.00828 -0.430969 0
M  V30 11945 H 1163.54 -2.5189 -2.93408 0
M  V30 11946 H 1165.23 -2.92136 -2.818 0
M  V30 11947 H 1165.99 -4.72185 -1.10753 0
M  V30 11948 H 1161.87 -4.07751 -2.15081 0
M  V30 11949 H 1165.41 -6.97086 -0.267746 0
M  V30 11950 H 1161.31 -6.31933 -1.31649 0
M  V30 11951 H 1162.08 -8.17581 -0.387745 0
M  V30 11952 N 1164.74 0.6258 -1.44643 0
M  V30 11953 C 1165.97 1.41028 -1.50979 0
M  V30 11954 C 1166.38 1.88717 -0.135092 0
M  V30 11955 O 1165.72 1.61778 0.870268 0
M  V30 11956 C 1165.79 2.66094 -2.41732 0
M  V30 11957 C 1165.45 2.40166 -3.88805 0
M  V30 11958 C 1166.45 2.01661 -4.79196 0
M  V30 11959 C 1164.13 2.53641 -4.33557 0
M  V30 11960 C 1166.13 1.76966 -6.12341 0
M  V30 11961 C 1163.81 2.2856 -5.66748 0
M  V30 11962 C 1164.81 1.90282 -6.55959 0
M  V30 11963 O 1164.5 1.65484 -7.86683 0
M  V30 11964 H 1164.23 0.438757 -0.514265 0
M  V30 11965 H 1166.78 0.772034 -1.90339 0
M  V30 11966 H 1165.01 3.32575 -1.97309 0
M  V30 11967 H 1166.7 3.28107 -2.38957 0
M  V30 11968 H 1167.47 1.90802 -4.45892 0
M  V30 11969 H 1163.35 2.82404 -3.64375 0
M  V30 11970 H 1166.89 1.47014 -6.81933 0
M  V30 11971 H 1162.79 2.3903 -5.99612 0
M  V30 11972 H 1163.56 1.79686 -7.98533 0
M  V30 11973 N 1166.22 1.31629 0.866686 0
M  V30 11974 C 1167.45 1.24293 1.6503 0
M  V30 11975 C 1167.86 -0.193556 1.88207 0
M  V30 11976 O 1167.2 -1.13712 1.44275 0
M  V30 11977 C 1167.26 1.92032 3.03914 0
M  V30 11978 C 1166.93 3.41373 3.03831 0
M  V30 11979 C 1167.92 4.37064 2.81551 0
M  V30 11980 C 1165.61 3.83118 3.24848 0
M  V30 11981 C 1167.6 5.72474 2.80272 0
M  V30 11982 C 1165.29 5.18639 3.23197 0
M  V30 11983 C 1166.29 6.13128 3.00936 0
M  V30 11984 O 1165.98 7.46172 2.99137 0
M  V30 11985 H 1165.71 0.430569 0.521139 0
M  V30 11986 H 1168.26 1.74105 1.0898 0
M  V30 11987 H 1166.49 1.36774 3.61704 0
M  V30 11988 H 1168.18 1.78567 3.64512 0
M  V30 11989 H 1168.95 4.06142 2.65093 0
M  V30 11990 H 1164.83 3.10001 3.41204 0
M  V30 11991 H 1168.37 6.46199 2.62816 0
M  V30 11992 H 1164.27 5.49196 3.39197 0
M  V30 11993 H 1165.04 7.55385 3.15175 0
M  V30 11994 N 1167.7 -1.08142 1.14644 0
M  V30 11995 C 1168.98 -1.77254 0.827071 0
M  V30 11996 C 1169.36 -1.99885 -0.67891 0
M  V30 11997 O 1168.7 -1.61084 -1.62062 0
M  V30 11998 C 1168.91 -3.08658 1.62884 0
M  V30 11999 C 1170.26 -3.83143 1.82993 0
M  V30 12000 O 1171.29 -3.18447 1.59593 0
M  V30 12001 O 1170.15 -4.9932 2.2213 0
M  V30 12002 H 1167.24 -0.769356 0.30335 0
M  V30 12003 H 1169.79 -1.1458 1.25178 0
M  V30 12004 H 1168.56 -2.87753 2.65168 0
M  V30 12005 H 1168.18 -3.79061 1.19994 0
M  V30 12006 N 1169.18 -0.941978 -1.26351 0
M  V30 12007 C 1170.41 -0.606748 -1.97803 0
M  V30 12008 C 1170.82 0.818441 -1.70138 0
M  V30 12009 O 1170.18 1.54583 -0.970076 0
M  V30 12010 C 1170.23 -0.840431 -3.51595 0
M  V30 12011 O 1169.95 -2.20957 -3.78299 0
M  V30 12012 C 1171.45 -0.515855 -4.40288 0
M  V30 12013 H 1168.67 -0.228591 -0.630862 0
M  V30 12014 H 1171.21 -1.2629 -1.60845 0
M  V30 12015 H 1169.37 -0.230875 -3.86711 0
M  V30 12016 H 1169.78 -2.2702 -4.72824 0
M  V30 12017 H 1171.26 -0.72998 -5.47152 0
M  V30 12018 H 1171.73 0.549178 -4.35753 0
M  V30 12019 H 1172.34 -1.10417 -4.10717 0
M  V30 12020 N 1170.66 1.40747 -0.709091 0
M  V30 12021 C 1171.6 2.32564 -0.0411392 0
M  V30 12022 C 1172.6 1.51692 0.75404 0
M  V30 12023 O 1173.8 1.67537 0.658139 0
M  V30 12024 H 1170.18 0.75198 0.00549889 0
M  V30 12025 H 1172.15 2.86556 -0.83235 0
M  V30 12026 C 1170.9 3.36604 0.871378 0
M  V30 12027 H 1170.22 3.98895 0.268912 0
M  V30 12028 H 1171.66 4.03359 1.30682 0
M  V30 12029 C 1170.12 2.71566 1.99384 0
M  V30 12030 O 1170.65 2.57392 3.08403 0
M  V30 12031 N 1168.86 2.3005 1.77554 0
M  V30 12032 H 1168.4 2.41778 0.888898 0
M  V30 12033 H 1168.36 1.8687 2.52838 0
M  V30 12034 N 1172.13 0.454803 1.50895 0
M  V30 12035 C 1173.54 -0.00421212 1.867 0
M  V30 12036 C 1173.9 -1.4037 1.3708 0
M  V30 12037 O 1173.02 -2.03755 0.728884 0
M  V30 12038 C 1173.62 -0.0144196 3.38797 0
M  V30 12039 C 1172.17 -0.417905 3.74073 0
M  V30 12040 C 1171.32 0.37801 2.74711 0
M  V30 12041 H 1174.27 0.669849 1.4387 0
M  V30 12042 H 1174.29 -0.820172 3.71555 0
M  V30 12043 H 1173.81 1.00427 3.74881 0
M  V30 12044 H 1171.91 -1.44155 3.43584 0
M  V30 12045 H 1172.02 -0.130568 4.78922 0
M  V30 12046 H 1170.38 -0.166089 2.54158 0
M  V30 12047 H 1171.17 1.3959 3.13639 0
M  V30 12048 N 1173.61 -1.56489 0.186789 0
M  V30 12049 C 1174.56 -2.18703 -0.737402 0
M  V30 12050 C 1175.53 -1.13171 -1.21579 0
M  V30 12051 O 1176.71 -1.41388 -1.28118 0
M  V30 12052 C 1173.85 -2.84394 -1.95484 0
M  V30 12053 C 1172.97 -4.04429 -1.51859 0
M  V30 12054 C 1172.1 -4.58001 -2.69089 0
M  V30 12055 C 1171.14 -5.70412 -2.22029 0
M  V30 12056 N 1170.28 -6.18425 -3.32407 0
M  V30 12057 H 1175.12 -2.97327 -0.200105 0
M  V30 12058 H 1172.65 -1.46842 -0.087032 0
M  V30 12059 H 1174.61 -3.20646 -2.66912 0
M  V30 12060 H 1173.24 -2.08347 -2.46559 0
M  V30 12061 H 1172.29 -3.73895 -0.70048 0
M  V30 12062 H 1173.61 -4.85756 -1.13327 0
M  V30 12063 H 1172.76 -4.96515 -3.48652 0
M  V30 12064 H 1171.5 -3.75764 -3.1089 0
M  V30 12065 H 1170.5 -5.31434 -1.40918 0
M  V30 12066 H 1171.73 -6.54461 -1.81268 0
M  V30 12067 H 1169.68 -5.39113 -3.73755 0
M  V30 12068 H 1169.59 -6.94782 -2.98017 0
M  V30 12069 H 1170.86 -6.61592 -4.12209 0
M  V30 12070 N 1175.09 0.086862 -1.5736 0
M  V30 12071 C 1176.34 0.790008 -1.8678 0
M  V30 12072 C 1176.67 1.77977 -0.777042 0
M  V30 12073 O 1175.94 1.93317 0.21419 0
M  V30 12074 C 1176.23 1.51143 -3.26845 0
M  V30 12075 C 1176.08 0.539106 -4.46558 0
M  V30 12076 C 1177.4 2.46003 -3.64926 0
M  V30 12077 H 1174.52 0.285741 -0.679354 0
M  V30 12078 H 1177.16 0.0534655 -1.89925 0
M  V30 12079 H 1175.31 2.13928 -3.24295 0
M  V30 12080 H 1176.98 -0.0823679 -4.61226 0
M  V30 12081 H 1175.22 -0.146842 -4.33551 0
M  V30 12082 H 1175.9 1.0812 -5.41308 0
M  V30 12083 H 1178.37 1.93306 -3.68473 0
M  V30 12084 H 1177.25 2.93493 -4.63846 0
M  V30 12085 H 1177.51 3.30133 -2.94049 0
M  V30 12086 N 1176.57 1.53483 0.357892 0
M  V30 12087 C 1177.84 1.60649 1.11585 0
M  V30 12088 C 1178.22 0.418789 2.06904 0
M  V30 12089 O 1177.57 -0.590279 2.20744 0
M  V30 12090 C 1177.78 2.96046 1.84818 0
M  V30 12091 C 1179.13 3.50895 2.39076 0
M  V30 12092 O 1180.15 2.98126 1.94934 0
M  V30 12093 O 1179.01 4.43163 3.19794 0
M  V30 12094 H 1176.11 0.649202 0.512315 0
M  V30 12095 H 1178.65 1.65826 0.360537 0
M  V30 12096 H 1177.43 3.73929 1.15296 0
M  V30 12097 H 1177.05 2.94395 2.6724 0
M  V30 12098 N 1178.05 -0.61812 1.44973 0
M  V30 12099 C 1178.96 -1.7579 1.55355 0
M  V30 12100 C 1179.97 -1.68384 0.438512 0
M  V30 12101 O 1181.15 -1.88928 0.697715 0
M  V30 12102 C 1178.21 -3.1222 1.50729 0
M  V30 12103 C 1177.27 -3.3116 2.73188 0
M  V30 12104 C 1176.51 -4.61082 2.68774 0
M  V30 12105 O 1176.73 -5.42728 1.75507 0
M  V30 12106 O 1175.66 -4.82506 3.59821 0
M  V30 12107 H 1179.49 -1.69983 2.51674 0
M  V30 12108 H 1177.07 -0.780934 1.27365 0
M  V30 12109 H 1178.96 -3.93524 1.5072 0
M  V30 12110 H 1177.63 -3.18541 0.575587 0
M  V30 12111 H 1176.54 -2.49485 2.78762 0
M  V30 12112 H 1177.87 -3.29709 3.65449 0
M  V30 12113 N 1179.52 -1.32087 -0.859693 0
M  V30 12114 C 1180.93 -1.20107 -1.42938 0
M  V30 12115 C 1181.29 0.188411 -1.95293 0
M  V30 12116 O 1180.41 1.08683 -1.87128 0
M  V30 12117 C 1181.01 -2.17436 -2.59821 0
M  V30 12118 C 1179.56 -2.09359 -3.12803 0
M  V30 12119 C 1178.71 -2.06086 -1.85537 0
M  V30 12120 H 1181.66 -1.43989 -0.667302 0
M  V30 12121 H 1181.68 -1.76996 -3.36828 0
M  V30 12122 H 1181.2 -3.18555 -2.21685 0
M  V30 12123 H 1179.3 -1.1147 -3.55535 0
M  V30 12124 H 1179.41 -2.98947 -3.74389 0
M  V30 12125 H 1177.77 -1.51251 -2.04928 0
M  V30 12126 H 1178.56 -3.08978 -1.49625 0
M  V30 12127 N 1181 1.07532 -1.15215 0
M  V30 12128 C 1182.23 1.83817 -0.949687 0
M  V30 12129 C 1182.64 1.82004 0.501991 0
M  V30 12130 O 1182 1.23014 1.34811 0
M  V30 12131 C 1182.05 3.30978 -1.45382 0
M  V30 12132 O 1181.77 3.32844 -2.84863 0
M  V30 12133 C 1183.27 4.24037 -1.29257 0
M  V30 12134 H 1180.49 0.58 -0.337404 0
M  V30 12135 H 1183.04 1.35752 -1.52944 0
M  V30 12136 H 1181.19 3.76399 -0.916638 0
M  V30 12137 H 1181.61 4.24773 -3.07682 0
M  V30 12138 H 1183.08 5.25371 -1.69379 0
M  V30 12139 H 1183.56 4.38563 -0.236519 0
M  V30 12140 H 1184.16 3.8445 -1.81874 0
M  V30 12141 N 1182.48 0.948665 1.2585 0
M  V30 12142 C 1183.73 0.610669 1.94016 0
M  V30 12143 C 1184.08 -0.842181 1.72989 0
M  V30 12144 O 1183.37 -1.59556 1.06078 0
M  V30 12145 C 1183.57 0.89784 3.45939 0
M  V30 12146 C 1183.4 2.37705 3.81741 0
M  V30 12147 C 1182.17 3.03355 4.04109 0
M  V30 12148 C 1184.37 3.35602 3.89712 0
M  V30 12149 N 1182.35 4.41211 4.26856 0
M  V30 12150 C 1183.72 4.58743 4.17079 0
M  V30 12151 C 1185.77 3.30523 3.72369 0
M  V30 12152 C 1184.48 5.77436 4.28906 0
M  V30 12153 C 1186.5 4.48548 3.85433 0
M  V30 12154 C 1185.86 5.70474 4.13205 0
M  V30 12155 H 1181.96 0.273966 0.732439 0
M  V30 12156 H 1184.55 1.21961 1.51768 0
M  V30 12157 H 1182.72 0.317878 3.87097 0
M  V30 12158 H 1184.45 0.520353 4.01341 0
M  V30 12159 H 1181.21 2.53947 3.9976 0
M  V30 12160 H 1181.63 5.12589 4.42247 0
M  V30 12161 H 1186.27 2.3731 3.4992 0
M  V30 12162 H 1183.99 6.71095 4.50174 0
M  V30 12163 H 1187.58 4.46159 3.73408 0
M  V30 12164 H 1186.46 6.60277 4.23088 0
M  V30 12165 N 1183.96 -1.40369 0.716545 0
M  V30 12166 C 1185.18 -2.05704 0.264729 0
M  V30 12167 C 1185.61 -1.53634 -1.08527 0
M  V30 12168 O 1184.97 -0.67212 -1.68381 0
M  V30 12169 C 1185.01 -3.59692 0.255778 0
M  V30 12170 O 1184.12 -4.05286 -0.762686 0
M  V30 12171 H 1183.46 -0.652301 0.124092 0
M  V30 12172 H 1185.99 -1.7975 0.977295 0
M  V30 12173 H 1186 -4.07892 0.0937944 0
M  V30 12174 H 1184.67 -3.96955 1.24095 0
M  V30 12175 H 1183.25 -3.68543 -0.568347 0
M  V30 12176 N 1185.44 -0.462799 -1.50652 0
M  V30 12177 C 1186.35 0.341191 -2.32106 0
M  V30 12178 C 1187.36 1.00384 -1.42123 0
M  V30 12179 O 1188.54 0.993635 -1.75182 0
M  V30 12180 C 1185.6 1.41356 -3.16575 0
M  V30 12181 C 1184.66 0.768375 -4.22368 0
M  V30 12182 C 1183.9 1.78964 -5.028 0
M  V30 12183 O 1184.12 3.01515 -4.84195 0
M  V30 12184 O 1183.05 1.36606 -5.86193 0
M  V30 12185 H 1186.88 -0.324482 -3.01962 0
M  V30 12186 H 1184.47 -0.224807 -1.47699 0
M  V30 12187 H 1186.35 2.0349 -3.69012 0
M  V30 12188 H 1185.02 2.06285 -2.49456 0
M  V30 12189 H 1183.93 0.108297 -3.73943 0
M  V30 12190 H 1185.26 0.162164 -4.91933 0
M  V30 12191 N 1186.91 1.56388 -0.195085 0
M  V30 12192 C 1187.88 2.17859 0.712053 0
M  V30 12193 C 1188.88 1.13304 1.141 0
M  V30 12194 O 1190.07 1.38689 1.05409 0
M  V30 12195 C 1187.2 2.78065 1.97213 0
M  V30 12196 H 1188.39 2.9938 0.176529 0
M  V30 12197 H 1185.95 1.56205 0.0545322 0
M  V30 12198 H 1186.68 2.00342 2.55017 0
M  V30 12199 H 1186.47 3.54603 1.67329 0
M  V30 12200 H 1187.96 3.25266 2.619 0
M  V30 12201 N 1188.39 -0.0785156 1.57404 0
M  V30 12202 C 1189.8 -0.631132 1.75709 0
M  V30 12203 C 1190.15 -1.78261 0.819605 0
M  V30 12204 O 1189.28 -2.164 0.00206912 0
M  V30 12205 C 1189.87 -1.15168 3.18625 0
M  V30 12206 C 1188.43 -1.65021 3.38297 0
M  V30 12207 C 1187.58 -0.566773 2.71446 0
M  V30 12208 H 1190.53 0.147631 1.58012 0
M  V30 12209 H 1190.55 -2.02065 3.22413 0
M  V30 12210 H 1190.06 -0.313399 3.86833 0
M  V30 12211 H 1188.17 -2.51196 2.75194 0
M  V30 12212 H 1188.28 -1.73179 4.46706 0
M  V30 12213 H 1186.64 -1.01021 2.33809 0
M  V30 12214 H 1187.43 0.261204 3.42305 0
M  V30 12215 N 1189.87 -1.5367 -0.349747 0
M  V30 12216 C 1190.78 -1.84207 -1.45275 0
M  V30 12217 C 1191.8 -0.731695 -1.57868 0
M  V30 12218 O 1192.97 -1.02337 -1.73462 0
M  V30 12219 C 1190.04 -2.0398 -2.80345 0
M  V30 12220 C 1189.1 -3.27853 -2.77148 0
M  V30 12221 C 1188.33 -3.46673 -4.05775 0
M  V30 12222 O 1188.55 -2.69457 -5.02741 0
M  V30 12223 O 1187.49 -4.40082 -4.10623 0
M  V30 12224 H 1191.31 -2.77947 -1.22389 0
M  V30 12225 H 1188.9 -1.39247 -0.541345 0
M  V30 12226 H 1190.78 -2.18466 -3.60348 0
M  V30 12227 H 1189.46 -1.13429 -3.03176 0
M  V30 12228 H 1188.36 -3.18776 -1.95787 0
M  V30 12229 H 1189.7 -4.18377 -2.59271 0
M  V30 12230 N 1191.35 0.610423 -1.45298 0
M  V30 12231 C 1192.28 1.73493 -1.48241 0
M  V30 12232 C 1193.26 1.59025 -0.339065 0
M  V30 12233 O 1194.44 1.80625 -0.539144 0
M  V30 12234 C 1191.57 3.11291 -1.33476 0
M  V30 12235 C 1190.62 3.44355 -2.51638 0
M  V30 12236 S 1191.45 3.39512 -4.14116 0
M  V30 12237 C 1192.61 4.79895 -4.01811 0
M  V30 12238 H 1192.84 1.70734 -2.43387 0
M  V30 12239 H 1190.37 0.786833 -1.32847 0
M  V30 12240 H 1192.33 3.90799 -1.25644 0
M  V30 12241 H 1190.99 3.11568 -0.39805 0
M  V30 12242 H 1190.18 4.44679 -2.37226 0
M  V30 12243 H 1189.79 2.72356 -2.56317 0
M  V30 12244 H 1192.08 5.6963 -3.6678 0
M  V30 12245 H 1193.02 4.99363 -5.02038 0
M  V30 12246 H 1193.43 4.55443 -3.33515 0
M  V30 12247 N 1192.83 1.32541 0.852676 0
M  V30 12248 C 1193.74 1.23646 1.99371 0
M  V30 12249 C 1194.75 0.149673 1.73355 0
M  V30 12250 O 1195.93 0.370716 1.97959 0
M  V30 12251 C 1192.99 0.961873 3.3309 0
M  V30 12252 C 1192.05 2.1373 3.72315 0
M  V30 12253 C 1191.29 1.87572 4.99652 0
M  V30 12254 O 1191.51 0.819247 5.64486 0
M  V30 12255 O 1190.44 2.73732 5.36054 0
M  V30 12256 H 1194.27 2.19573 2.09813 0
M  V30 12257 H 1191.86 1.12451 0.983627 0
M  V30 12258 H 1193.74 0.825316 4.13239 0
M  V30 12259 H 1192.41 0.0327745 3.23683 0
M  V30 12260 H 1191.32 2.32933 2.92733 0
M  V30 12261 H 1192.65 3.04925 3.86369 0
M  V30 12262 N 1194.3 -1.0692 1.15784 0
M  V30 12263 C 1195.25 -2.12473 0.826994 0
M  V30 12264 C 1196.24 -1.59766 -0.19073 0
M  V30 12265 O 1197.43 -1.76998 0.00917115 0
M  V30 12266 C 1194.56 -3.41779 0.322847 0
M  V30 12267 C 1193.65 -4.01329 1.37098 0
M  V30 12268 N 1194.04 -4.35077 2.57957 0
M  V30 12269 C 1192.33 -4.28854 1.22475 0
M  V30 12270 C 1193.04 -4.82326 3.25171 0
M  V30 12271 N 1192.01 -4.81369 2.52556 0
M  V30 12272 H 1195.81 -2.36404 1.74614 0
M  V30 12273 H 1193.33 -1.244 1.04395 0
M  V30 12274 H 1195.32 -4.16845 0.0674576 0
M  V30 12275 H 1193.98 -3.19289 -0.590311 0
M  V30 12276 H 1195 -4.25626 2.95065 0
M  V30 12277 H 1191.67 -4.15841 0.371839 0
M  V30 12278 H 1193.06 -5.17695 4.28301 0
M  V30 12279 N 1195.78 -0.955326 -1.25345 0
M  V30 12280 C 1197.01 -0.626783 -1.96863 0
M  V30 12281 C 1197.42 0.80547 -1.71198 0
M  V30 12282 O 1196.76 1.55049 -0.985163 0
M  V30 12283 C 1196.83 -0.806404 -3.50339 0
M  V30 12284 C 1196.49 -2.21595 -3.99681 0
M  V30 12285 C 1197.49 -3.19268 -4.10322 0
M  V30 12286 C 1195.17 -2.54032 -4.33328 0
M  V30 12287 C 1197.17 -4.47471 -4.53926 0
M  V30 12288 C 1194.85 -3.82465 -4.76617 0
M  V30 12289 C 1195.85 -4.78997 -4.86879 0
M  V30 12290 O 1195.54 -6.0514 -5.29208 0
M  V30 12291 H 1195.27 -0.233854 -0.634262 0
M  V30 12292 H 1197.82 -1.28232 -1.60455 0
M  V30 12293 H 1196.05 -0.0937184 -3.86586 0
M  V30 12294 H 1197.74 -0.47881 -4.03066 0
M  V30 12295 H 1198.51 -2.95534 -3.84558 0
M  V30 12296 H 1194.39 -1.79623 -4.24566 0
M  V30 12297 H 1197.93 -5.22819 -4.6185 0
M  V30 12298 H 1193.83 -4.06005 -5.01827 0
M  V30 12299 H 1194.6 -6.08527 -5.47392 0
M  V30 12300 N 1197.26 1.39987 -0.723979 0
M  V30 12301 C 1198.17 2.3447 -0.0780936 0
M  V30 12302 C 1199.19 1.57744 0.734368 0
M  V30 12303 O 1200.36 1.90091 0.665385 0
M  V30 12304 C 1197.43 3.36705 0.826492 0
M  V30 12305 C 1196.49 4.293 0.00303036 0
M  V30 12306 C 1195.72 5.26651 0.864535 0
M  V30 12307 O 1195.95 5.30194 2.10357 0
M  V30 12308 O 1194.88 6.01157 0.299057 0
M  V30 12309 H 1198.71 2.91338 -0.857646 0
M  V30 12310 H 1196.29 1.41324 -0.484536 0
M  V30 12311 H 1198.17 3.9938 1.34439 0
M  V30 12312 H 1196.85 2.82237 1.58505 0
M  V30 12313 H 1195.75 3.69883 -0.560136 0
M  V30 12314 H 1197.09 4.86942 -0.717494 0
M  V30 12315 N 1198.74 0.470782 1.50404 0
M  V30 12316 C 1199.99 -0.0841494 2.01925 0
M  V30 12317 C 1200.31 -1.40244 1.35487 0
M  V30 12318 O 1199.58 -1.89409 0.500111 0
M  V30 12319 H 1198.16 -0.0340884 0.746222 0
M  V30 12320 H 1200.82 0.621133 1.84738 0
M  V30 12321 H 1199.92 -0.235877 3.11207 0
M  V30 12322 N 1200.22 -1.56282 0.203376 0
M  V30 12323 C 1201.49 -1.89587 -0.481256 0
M  V30 12324 C 1201.87 -1.11812 -1.79057 0
M  V30 12325 O 1201.22 -0.221759 -2.27421 0
M  V30 12326 C 1201.43 -3.42071 -0.691965 0
M  V30 12327 C 1202.78 -4.12471 -1.00761 0
M  V30 12328 O 1203.8 -3.47568 -0.779396 0
M  V30 12329 O 1202.66 -5.27194 -1.43974 0
M  V30 12330 H 1199.76 -0.787682 -0.251963 0
M  V30 12331 H 1202.3 -1.67934 0.244207 0
M  V30 12332 H 1201.08 -3.9061 0.232322 0
M  V30 12333 H 1200.7 -3.69444 -1.46958 0
M  V30 12334 N 1201.7 0.070167 -1.57444 0
M  V30 12335 C 1202.94 0.764899 -1.8847 0
M  V30 12336 C 1203.3 1.75104 -0.797264 0
M  V30 12337 O 1202.59 1.9057 0.198411 0
M  V30 12338 C 1202.78 1.5111 -3.23883 0
M  V30 12339 C 1202.61 0.598732 -4.45696 0
M  V30 12340 C 1201.38 0.235066 -5.04753 0
M  V30 12341 C 1203.58 -0.105234 -5.14192 0
M  V30 12342 N 1201.56 -0.682856 -6.1009 0
M  V30 12343 C 1202.93 -0.880286 -6.13719 0
M  V30 12344 C 1204.99 -0.176534 -4.97587 0
M  V30 12345 C 1203.69 -1.72002 -6.98432 0
M  V30 12346 C 1205.72 -1.00324 -5.82828 0
M  V30 12347 C 1205.08 -1.76634 -6.81894 0
M  V30 12348 H 1201.18 0.255278 -0.73916 0
M  V30 12349 H 1203.76 0.0263555 -1.94682 0
M  V30 12350 H 1201.93 2.22036 -3.18676 0
M  V30 12351 H 1203.67 2.15498 -3.42553 0
M  V30 12352 H 1200.42 0.588283 -4.69932 0
M  V30 12353 H 1200.84 -1.13511 -6.67416 0
M  V30 12354 H 1205.49 0.399107 -4.20912 0
M  V30 12355 H 1203.2 -2.30662 -7.74481 0
M  V30 12356 H 1206.79 -1.06141 -5.72036 0
M  V30 12357 H 1205.67 -2.39573 -7.46709 0
M  V30 12358 N 1203.17 1.53854 0.341593 0
M  V30 12359 C 1204.4 1.7488 1.10002 0
M  V30 12360 C 1204.81 0.488802 1.82777 0
M  V30 12361 O 1204.15 -0.549333 1.75294 0
M  V30 12362 C 1204.22 2.87604 2.15694 0
M  V30 12363 C 1203.88 4.27142 1.62477 0
M  V30 12364 C 1204.88 5.08642 1.07606 0
M  V30 12365 C 1202.56 4.73633 1.67265 0
M  V30 12366 C 1204.56 6.34735 0.582284 0
M  V30 12367 C 1202.24 5.99697 1.175 0
M  V30 12368 C 1203.24 6.80081 0.630742 0
M  V30 12369 O 1202.93 8.03777 0.140519 0
M  V30 12370 H 1202.66 0.587824 0.333824 0
M  V30 12371 H 1205.22 2.01488 0.398965 0
M  V30 12372 H 1203.45 2.56526 2.89364 0
M  V30 12373 H 1205.13 2.96583 2.77117 0
M  V30 12374 H 1205.9 4.73887 1.03227 0
M  V30 12375 H 1201.78 4.11121 2.08567 0
M  V30 12376 H 1205.32 6.97424 0.156811 0
M  V30 12377 H 1201.22 6.33947 1.21579 0
M  V30 12378 H 1201.99 8.18094 0.257626 0
M  V30 12379 N 1204.65 -0.602709 1.4562 0
M  V30 12380 C 1205.88 -1.3881 1.53426 0
M  V30 12381 C 1206.29 -1.88046 0.16851 0
M  V30 12382 O 1205.65 -1.62493 -0.830791 0
M  V30 12383 C 1205.7 -2.58927 2.52268 0
M  V30 12384 O 1205.42 -2.11735 3.83536 0
M  V30 12385 C 1206.92 -3.51728 2.69819 0
M  V30 12386 H 1204.14 -0.424744 0.519455 0
M  V30 12387 H 1206.69 -0.73459 1.90851 0
M  V30 12388 H 1204.84 -3.20309 2.17902 0
M  V30 12389 H 1205.26 -2.89814 4.37159 0
M  V30 12390 H 1206.73 -4.32542 3.42945 0
M  V30 12391 H 1207.21 -4.02383 1.76024 0
M  V30 12392 H 1207.81 -2.96196 3.05202 0
M  V30 12393 N 1206.13 -1.32992 -0.845635 0
M  V30 12394 C 1207.08 -1.19256 -1.94325 0
M  V30 12395 C 1208.06 -0.0971701 -1.60606 0
M  V30 12396 O 1209.26 -0.324591 -1.73998 0
M  V30 12397 C 1206.38 -0.927027 -3.30547 0
M  V30 12398 C 1205.47 -2.06454 -3.70456 0
M  V30 12399 N 1205.86 -3.31393 -3.82116 0
M  V30 12400 C 1204.16 -1.96972 -4.00147 0
M  V30 12401 C 1204.86 -4.05955 -4.16624 0
M  V30 12402 N 1203.84 -3.34332 -4.28629 0
M  V30 12403 H 1207.64 -2.13965 -2.01485 0
M  V30 12404 H 1205.15 -1.24901 -1.03795 0
M  V30 12405 H 1207.15 -0.809565 -4.08964 0
M  V30 12406 H 1205.81 0.011597 -3.24698 0
M  V30 12407 H 1206.82 -3.66222 -3.662 0
M  V30 12408 H 1203.5 -1.10728 -4.02549 0
M  V30 12409 H 1204.89 -5.13738 -4.33039 0
M  V30 12410 N 1207.61 1.06304 -1.1635 0
M  V30 12411 C 1208.84 1.82799 -0.96913 0
M  V30 12412 C 1209.25 1.82526 0.482659 0
M  V30 12413 O 1208.61 1.24437 1.33498 0
M  V30 12414 C 1208.66 3.29417 -1.48884 0
M  V30 12415 O 1208.38 3.29803 -2.88377 0
M  V30 12416 C 1209.88 4.22642 -1.33748 0
M  V30 12417 H 1207.1 0.576388 -0.343537 0
M  V30 12418 H 1209.64 1.34122 -1.54375 0
M  V30 12419 H 1207.8 3.75406 -0.956509 0
M  V30 12420 H 1208.21 4.21486 -3.1217 0
M  V30 12421 H 1209.69 5.23545 -1.74942 0
M  V30 12422 H 1210.16 4.38287 -0.283021 0
M  V30 12423 H 1210.77 3.82499 -1.85942 0
M  V30 12424 N 1209.09 0.96196 1.24836 0
M  V30 12425 C 1210.33 0.616342 1.92052 0
M  V30 12426 C 1210.65 -0.851601 1.76088 0
M  V30 12427 O 1211.85 -1.3075 2.37943 0
M  V30 12428 C 1210.31 1.05168 3.44191 0
M  V30 12429 C 1209.92 2.54268 3.68852 0
M  V30 12430 C 1211.66 0.778938 4.17292 0
M  V30 12431 C 1209.57 2.91564 5.14533 0
M  V30 12432 H 1208.5 0.22681 0.719078 0
M  V30 12433 H 1211.15 1.1674 1.41577 0
M  V30 12434 H 1209.53 0.428979 3.9367 0
M  V30 12435 H 1210.71 3.21619 3.29997 0
M  V30 12436 H 1209.02 2.79091 3.09026 0
M  V30 12437 H 1211.62 1.03366 5.24614 0
M  V30 12438 H 1211.96 -0.284772 4.15325 0
M  V30 12439 H 1212.49 1.36233 3.73745 0
M  V30 12440 H 1209.23 3.96982 5.21618 0
M  V30 12441 H 1208.75 2.28892 5.54408 0
M  V30 12442 H 1210.43 2.81155 5.82718 0
M  V30 12443 N 1210.56 -1.39601 0.731392 0
M  V30 12444 C 1211.47 -2.34425 0.090527 0
M  V30 12445 C 1212.49 -1.58131 -0.725992 0
M  V30 12446 O 1213.67 -1.90441 -0.655294 0
M  V30 12447 C 1210.73 -3.37138 -0.808624 0
M  V30 12448 C 1209.79 -4.29295 0.0197365 0
M  V30 12449 C 1209.02 -5.27102 -0.836593 0
M  V30 12450 O 1209.25 -5.31302 -2.07543 0
M  V30 12451 O 1208.18 -6.01307 -0.267172 0
M  V30 12452 H 1212.01 -2.9088 0.873084 0
M  V30 12453 H 1209.59 -1.41066 0.492024 0
M  V30 12454 H 1211.47 -4.00087 -1.32319 0
M  V30 12455 H 1210.15 -2.83074 -1.57006 0
M  V30 12456 H 1209.06 -3.69581 0.579744 0
M  V30 12457 H 1210.39 -4.86555 0.743308 0
M  V30 12458 N 1212.04 -0.478751 -1.50152 0
M  V30 12459 C 1213.29 0.0734397 -2.01967 0
M  V30 12460 C 1213.61 1.39523 -1.36229 0
M  V30 12461 O 1212.88 1.89141 -0.510149 0
M  V30 12462 H 1211.46 0.0301305 -0.746392 0
M  V30 12463 H 1214.12 -0.630921 -1.84406 0
M  V30 12464 H 1213.22 0.21937 -3.11328 0
M  V30 12465 N 1213.52 1.56172 -0.211661 0
M  V30 12466 C 1214.77 1.98332 0.423332 0
M  V30 12467 C 1215.1 1.09895 1.60115 0
M  V30 12468 O 1214.37 0.154477 1.93886 0
M  V30 12469 C 1214.66 3.49495 0.86747 0
M  V30 12470 C 1214.51 4.48708 -0.313302 0
M  V30 12471 C 1215.83 4.04793 1.72716 0
M  V30 12472 H 1212.95 0.72107 0.152402 0
M  V30 12473 H 1215.59 1.87521 -0.305912 0
M  V30 12474 H 1213.74 3.58839 1.48885 0
M  V30 12475 H 1215.41 4.51385 -0.951291 0
M  V30 12476 H 1213.66 4.2299 -0.96238 0
M  V30 12477 H 1214.33 5.51985 0.0402402 0
M  V30 12478 H 1216.8 3.98332 1.20296 0
M  V30 12479 H 1215.68 5.10898 2.00684 0
M  V30 12480 H 1215.94 3.51067 2.68709 0
M  V30 12481 N 1215 -0.0618163 1.57479 0
M  V30 12482 C 1215.91 -1.09006 2.07738 0
M  V30 12483 C 1216.92 -1.4176 1.00896 0
M  V30 12484 O 1218.1 -1.51737 1.32431 0
M  V30 12485 C 1215.17 -2.38153 2.5196 0
M  V30 12486 C 1214.23 -2.12279 3.73143 0
M  V30 12487 C 1213.46 -3.35269 4.15248 0
M  V30 12488 O 1213.68 -4.44758 3.57137 0
M  V30 12489 O 1212.62 -3.22894 5.0796 0
M  V30 12490 H 1216.44 -0.693059 2.95686 0
M  V30 12491 H 1214.03 -0.276628 1.46817 0
M  V30 12492 H 1215.91 -3.14139 2.80882 0
M  V30 12493 H 1214.58 -2.77213 1.67137 0
M  V30 12494 H 1213.49 -1.33966 3.49291 0
M  V30 12495 H 1214.82 -1.78094 4.5885 0
M  V30 12496 N 1216.48 -1.54033 -0.333429 0
M  V30 12497 C 1217.7 -1.76031 -1.09672 0
M  V30 12498 C 1218.13 -0.502844 -1.81254 0
M  V30 12499 O 1217.48 0.54509 -1.72912 0
M  V30 12500 C 1217.53 -2.947 -2.07809 0
M  V30 12501 O 1216.64 -2.65555 -3.15522 0
M  V30 12502 H 1215.98 -0.583611 -0.316692 0
M  V30 12503 H 1218.51 -2.01026 -0.380732 0
M  V30 12504 H 1218.52 -3.21771 -2.50853 0
M  V30 12505 H 1217.19 -3.85895 -1.55106 0
M  V30 12506 H 1215.77 -2.49403 -2.77223 0
M  V30 12507 N 1217.95 0.594978 -1.45938 0
M  V30 12508 C 1219.2 1.35561 -1.50834 0
M  V30 12509 C 1219.53 1.93584 -0.154566 0
M  V30 12510 O 1218.81 1.75781 0.832541 0
M  V30 12511 C 1219.09 2.49414 -2.5974 0
M  V30 12512 C 1218.94 1.96506 -4.04605 0
M  V30 12513 C 1220.26 3.51505 -2.64825 0
M  V30 12514 H 1217.38 0.491549 -0.549134 0
M  V30 12515 H 1220.02 0.669536 -1.77812 0
M  V30 12516 H 1218.17 3.07939 -2.36866 0
M  V30 12517 H 1219.85 1.42533 -4.38728 0
M  V30 12518 H 1218.09 1.27418 -4.14665 0
M  V30 12519 H 1218.76 2.78636 -4.76515 0
M  V30 12520 H 1221.24 3.02841 -2.85353 0
M  V30 12521 H 1220.11 4.28641 -3.42867 0
M  V30 12522 H 1220.37 4.07942 -1.70399 0
M  V30 12523 N 1219.43 1.33438 0.838571 0
M  V30 12524 C 1220.85 1.12779 1.12929 0
M  V30 12525 C 1221.05 -0.0811188 2.01337 0
M  V30 12526 O 1220.1 -0.761294 2.4075 0
M  V30 12527 C 1221.42 2.41537 1.7911 0
M  V30 12528 C 1222.97 2.47447 1.91674 0
M  V30 12529 C 1223.44 3.76167 2.6127 0
M  V30 12530 N 1224.93 3.7724 2.68783 0
M  V30 12531 C 1225.67 4.7355 3.23323 0
M  V30 12532 N 1225.16 5.80235 3.78549 0
M  V30 12533 N 1226.96 4.61025 3.21578 0
M  V30 12534 H 1219.11 2.10921 0.250187 0
M  V30 12535 H 1221.37 0.931986 0.17351 0
M  V30 12536 H 1221.08 3.30006 1.21609 0
M  V30 12537 H 1220.95 2.53709 2.79127 0
M  V30 12538 H 1223.34 1.59427 2.48328 0
M  V30 12539 H 1223.42 2.39216 0.906058 0
M  V30 12540 H 1223.06 4.64569 2.05275 0
M  V30 12541 H 1222.99 3.81675 3.62811 0
M  V30 12542 H 1225.48 3.00138 2.29621 0
M  V30 12543 H 1225.8 6.49759 4.1837 0
M  V30 12544 H 1224.14 5.83969 3.76836 0
M  V30 12545 H 1227.33 3.76836 2.77691 0
M  V30 12546 H 1227.5 5.36253 3.63781 0
M  V30 12547 N 1220.91 -1.05686 1.16912 0
M  V30 12548 C 1221.84 -2.15268 0.904532 0
M  V30 12549 C 1222.82 -1.69424 -0.151548 0
M  V30 12550 O 1224.01 -1.942 -0.00235371 0
M  V30 12551 C 1221.14 -3.44853 0.411581 0
M  V30 12552 C 1220.09 -4.04237 1.40628 0
M  V30 12553 C 1219.42 -5.29105 0.771479 0
M  V30 12554 C 1220.72 -4.42303 2.77787 0
M  V30 12555 H 1222.41 -2.37659 1.82094 0
M  V30 12556 H 1219.96 -1.14217 0.876947 0
M  V30 12557 H 1221.91 -4.20857 0.213929 0
M  V30 12558 H 1220.63 -3.22099 -0.540352 0
M  V30 12559 H 1219.29 -3.30297 1.59058 0
M  V30 12560 H 1218.94 -5.02652 -0.187133 0
M  V30 12561 H 1218.64 -5.69797 1.43545 0
M  V30 12562 H 1220.16 -6.07801 0.583988 0
M  V30 12563 H 1221.58 -5.09362 2.63103 0
M  V30 12564 H 1219.98 -4.93997 3.40716 0
M  V30 12565 H 1221.05 -3.52877 3.32575 0
M  V30 12566 N 1222.39 -0.968567 -1.24324 0
M  V30 12567 C 1223.32 -0.518323 -2.27674 0
M  V30 12568 C 1224.3 0.442479 -1.64244 0
M  V30 12569 O 1225.48 0.338416 -1.91229 0
M  V30 12570 C 1222.61 0.191459 -3.46772 0
M  V30 12571 C 1221.57 -0.685449 -4.22476 0
M  V30 12572 C 1220.89 0.155873 -5.34473 0
M  V30 12573 C 1222.19 -1.97047 -4.83704 0
M  V30 12574 H 1223.89 -1.38215 -2.65588 0
M  V30 12575 H 1221.43 -0.66604 -1.27671 0
M  V30 12576 H 1223.39 0.517667 -4.18208 0
M  V30 12577 H 1222.11 1.08965 -3.07887 0
M  V30 12578 H 1220.77 -0.994942 -3.52841 0
M  V30 12579 H 1220.42 1.05424 -4.91828 0
M  V30 12580 H 1220.12 -0.427655 -5.86042 0
M  V30 12581 H 1221.64 0.476733 -6.08736 0
M  V30 12582 H 1223.06 -1.70979 -5.4721 0
M  V30 12583 H 1221.45 -2.50079 -5.45509 0
M  V30 12584 H 1222.52 -2.66484 -4.0511 0
M  V30 12585 N 1223.87 1.39211 -0.738786 0
M  V30 12586 C 1225.11 2.00436 -0.28839 0
M  V30 12587 C 1225.44 1.58626 1.12552 0
M  V30 12588 O 1224.7 0.808154 1.78234 0
M  V30 12589 C 1225 3.55758 -0.342224 0
M  V30 12590 C 1224.66 4.1723 -1.70968 0
M  V30 12591 C 1223.32 4.33734 -2.08395 0
M  V30 12592 C 1225.68 4.51294 -2.60736 0
M  V30 12593 C 1223 4.81592 -3.35091 0
M  V30 12594 C 1225.36 5.00562 -3.86808 0
M  V30 12595 C 1224.02 5.15274 -4.24322 0
M  V30 12596 H 1223.29 0.733447 -0.105529 0
M  V30 12597 H 1225.94 1.66481 -0.94637 0
M  V30 12598 H 1224.24 3.8976 0.399331 0
M  V30 12599 H 1225.94 4.00993 0.0244582 0
M  V30 12600 H 1222.53 4.04788 -1.4087 0
M  V30 12601 H 1226.71 4.38158 -2.3309 0
M  V30 12602 H 1221.97 4.91167 -3.64095 0
M  V30 12603 H 1226.14 5.25892 -4.5652 0
M  V30 12604 H 1223.77 5.52119 -5.2256 0
M  V30 12605 N 1225.34 0.486708 1.49896 0
M  V30 12606 C 1226.29 -0.299294 2.28851 0
M  V30 12607 C 1227.26 -0.973251 1.346 0
M  V30 12608 O 1228.45 -0.982678 1.63548 0
M  V30 12609 C 1225.59 -1.36624 3.16904 0
M  V30 12610 C 1224.7 -0.705492 4.262 0
M  V30 12611 C 1223.83 -1.75165 5.01488 0
M  V30 12612 C 1222.87 -1.072 6.0264 0
M  V30 12613 N 1222.01 -2.06172 6.71147 0
M  V30 12614 H 1226.85 0.380272 2.95564 0
M  V30 12615 H 1224.39 0.199377 1.45743 0
M  V30 12616 H 1226.35 -1.99666 3.66319 0
M  V30 12617 H 1224.98 -2.01476 2.52205 0
M  V30 12618 H 1224.03 0.0378757 3.80381 0
M  V30 12619 H 1225.34 -0.169774 4.98511 0
M  V30 12620 H 1224.49 -2.45749 5.547 0
M  V30 12621 H 1223.23 -2.3212 4.28919 0
M  V30 12622 H 1222.24 -0.351868 5.48673 0
M  V30 12623 H 1223.46 -0.509139 6.77189 0
M  V30 12624 H 1221.41 -2.62115 6.01358 0
M  V30 12625 H 1221.33 -1.57627 7.39385 0
M  V30 12626 H 1222.59 -2.76088 7.28969 0
M  V30 12627 N 1226.82 -1.56058 0.219941 0
M  V30 12628 C 1228.1 -1.90087 -0.46112 0
M  V30 12629 C 1228.48 -1.13705 -1.77861 0
M  V30 12630 O 1227.83 -0.245868 -2.27173 0
M  V30 12631 C 1228.04 -3.42786 -0.655644 0
M  V30 12632 C 1229.39 -4.13517 -0.963803 0
M  V30 12633 O 1230.41 -3.48376 -0.742488 0
M  V30 12634 O 1229.27 -5.28692 -1.38374 0
M  V30 12635 H 1226.36 -0.790311 -0.243595 0
M  V30 12636 H 1228.91 -1.67665 0.262005 0
M  V30 12637 H 1227.68 -3.90341 0.273738 0
M  V30 12638 H 1227.3 -3.70982 -1.43032 0
M  V30 12639 N 1228.3 0.053464 -1.57509 0
M  V30 12640 C 1229.72 0.408651 -1.5428 0
M  V30 12641 C 1229.92 1.78086 -0.942735 0
M  V30 12642 O 1228.97 2.46366 -0.553163 0
M  V30 12643 C 1230.29 0.332884 -2.98852 0
M  V30 12644 C 1231.83 0.411745 -3.1028 0
M  V30 12645 C 1232.31 0.365691 -4.56538 0
M  V30 12646 N 1233.8 0.425222 -4.61244 0
M  V30 12647 C 1234.54 0.412093 -5.71917 0
M  V30 12648 N 1234.03 0.352693 -6.91902 0
M  V30 12649 N 1235.82 0.460016 -5.60214 0
M  V30 12650 H 1227.98 -0.844834 -1.94875 0
M  V30 12651 H 1230.24 -0.318888 -0.892757 0
M  V30 12652 H 1229.94 -0.609116 -3.46385 0
M  V30 12653 H 1229.82 1.13605 -3.59686 0
M  V30 12654 H 1232.21 1.34417 -2.62709 0
M  V30 12655 H 1232.29 -0.420333 -2.52323 0
M  V30 12656 H 1231.93 -0.562963 -5.0477 0
M  V30 12657 H 1231.86 1.21555 -5.12379 0
M  V30 12658 H 1234.35 0.474634 -3.74908 0
M  V30 12659 H 1234.66 0.347105 -7.7202 0
M  V30 12660 H 1233.01 0.319104 -6.94267 0
M  V30 12661 H 1236.2 0.504242 -4.65376 0
M  V30 12662 H 1236.37 0.446315 -6.46461 0
M  V30 12663 N 1229.78 1.54207 0.325255 0
M  V30 12664 C 1231.03 1.71991 1.0613 0
M  V30 12665 C 1231.35 0.495505 1.88599 0
M  V30 12666 O 1230.62 -0.490504 1.8966 0
M  V30 12667 H 1229.2 0.634137 0.394816 0
M  V30 12668 H 1231.86 1.91507 0.362101 0
M  V30 12669 H 1230.96 2.59878 1.72829 0
M  V30 12670 N 1231.26 -0.58723 1.46251 0
M  V30 12671 C 1232.49 -1.37174 1.5489 0
M  V30 12672 C 1232.9 -1.87857 0.188445 0
M  V30 12673 O 1232.26 -1.63365 -0.813509 0
M  V30 12674 C 1232.31 -2.56237 2.55 0
M  V30 12675 O 1232.03 -2.07655 3.8576 0
M  V30 12676 C 1233.53 -3.48846 2.73535 0
M  V30 12677 H 1230.75 -0.419211 0.523931 0
M  V30 12678 H 1233.29 -0.714307 1.91619 0
M  V30 12679 H 1231.45 -3.1798 2.21287 0
M  V30 12680 H 1231.86 -2.85161 4.40208 0
M  V30 12681 H 1233.34 -4.2888 3.47514 0
M  V30 12682 H 1233.81 -4.00493 1.80282 0
M  V30 12683 H 1234.42 -2.92942 3.08326 0
M  V30 12684 N 1232.74 -1.33881 -0.831482 0
M  V30 12685 C 1233.68 -1.24741 -1.96322 0
M  V30 12686 C 1234.68 -0.147251 -1.68759 0
M  V30 12687 O 1235.88 -0.311684 -1.77281 0
M  V30 12688 H 1232.26 -0.387298 -0.644596 0
M  V30 12689 H 1234.23 -2.20407 -2.01155 0
M  V30 12690 C 1232.98 -1.01102 -3.32677 0
M  V30 12691 H 1232.3 -1.84986 -3.54429 0
M  V30 12692 H 1233.74 -0.987398 -4.12343 0
M  V30 12693 C 1232.2 0.285903 -3.35685 0
M  V30 12694 O 1232.73 1.29014 -3.80419 0
M  V30 12695 N 1230.94 0.316026 -2.88877 0
M  V30 12696 H 1230.48 -0.501758 -2.52666 0
M  V30 12697 H 1230.44 1.18357 -2.91271 0
M  V30 12698 N 1234.21 1.05064 -1.1747 0
M  V30 12699 C 1235.15 2.12842 -0.850344 0
M  V30 12700 C 1236.16 1.62128 0.147796 0
M  V30 12701 O 1237.35 1.78327 -0.0786774 0
M  V30 12702 C 1234.45 3.37995 -0.247486 0
M  V30 12703 C 1233.62 4.17981 -1.28881 0
M  V30 12704 C 1232.68 5.21476 -0.703476 0
M  V30 12705 O 1231.71 5.52327 -1.37561 0
M  V30 12706 N 1232.91 5.78309 0.50387 0
M  V30 12707 H 1235.67 2.41264 -1.77797 0
M  V30 12708 H 1233.23 1.21172 -1.07373 0
M  V30 12709 H 1235.23 4.04394 0.157424 0
M  V30 12710 H 1233.8 3.07097 0.583952 0
M  V30 12711 H 1233.02 3.47054 -1.86942 0
M  V30 12712 H 1234.3 4.6822 -1.99116 0
M  V30 12713 H 1233.7 5.5553 1.06787 0
M  V30 12714 H 1232.26 6.46223 0.850828 0
M  V30 12715 N 1235.69 0.975146 1.23809 0
M  V30 12716 C 1236.94 0.651686 1.92677 0
M  V30 12717 C 1237.29 -0.805298 1.74736 0
M  V30 12718 O 1236.59 -1.5727 1.09438 0
M  V30 12719 C 1236.78 0.971016 3.43956 0
M  V30 12720 C 1236.61 2.45749 3.76613 0
M  V30 12721 C 1235.38 3.11859 3.97583 0
M  V30 12722 C 1237.58 3.43793 3.82506 0
M  V30 12723 N 1235.56 4.50166 4.17401 0
M  V30 12724 C 1236.93 4.67487 4.07254 0
M  V30 12725 C 1238.98 3.38347 3.65274 0
M  V30 12726 C 1237.69 5.86404 4.16561 0
M  V30 12727 C 1239.71 4.56623 3.75831 0
M  V30 12728 C 1239.08 5.7911 4.01012 0
M  V30 12729 H 1235.17 0.289441 0.726463 0
M  V30 12730 H 1237.76 1.25153 1.49147 0
M  V30 12731 H 1235.93 0.399915 3.86336 0
M  V30 12732 H 1237.66 0.605367 4.00147 0
M  V30 12733 H 1234.42 2.62369 3.94283 0
M  V30 12734 H 1234.84 5.21854 4.31274 0
M  V30 12735 H 1239.48 2.44679 3.44807 0
M  V30 12736 H 1237.2 6.80493 4.35838 0
M  V30 12737 H 1240.79 4.53979 3.6386 0
M  V30 12738 H 1239.67 6.69103 4.08988 0
M  V30 12739 N 1237.17 -1.38817 0.746158 0
M  V30 12740 C 1238.58 -1.83045 0.367629 0
M  V30 12741 C 1238.93 -1.62285 -1.10263 0
M  V30 12742 O 1238.06 -1.12001 -1.85162 0
M  V30 12743 C 1238.65 -3.323 0.660482 0
M  V30 12744 C 1237.21 -3.74903 0.335318 0
M  V30 12745 C 1236.36 -2.61683 0.917446 0
M  V30 12746 H 1239.31 -1.27651 0.94291 0
M  V30 12747 H 1239.33 -3.80446 -0.0639061 0
M  V30 12748 H 1238.84 -3.47377 1.73062 0
M  V30 12749 H 1236.94 -3.65408 -0.728538 0
M  V30 12750 H 1237.06 -4.71932 0.825677 0
M  V30 12751 H 1235.42 -2.52376 0.343316 0
M  V30 12752 H 1236.2 -2.79563 1.99247 0
M  V30 12753 N 1238.65 -0.49465 -1.49636 0
M  V30 12754 C 1239.9 0.0520143 -2.02033 0
M  V30 12755 C 1240.22 1.38071 -1.37701 0
M  V30 12756 O 1239.49 1.88589 -0.530181 0
M  V30 12757 H 1238.07 0.0222123 -0.74667 0
M  V30 12758 H 1240.73 -0.650445 -1.83726 0
M  V30 12759 H 1239.82 0.186337 -3.11543 0
M  V30 12760 N 1240.13 1.55939 -0.228214 0
M  V30 12761 C 1241.54 1.84612 0.278417 0
M  V30 12762 C 1241.89 1.14973 1.58983 0
M  V30 12763 O 1241.01 0.421673 2.12252 0
M  V30 12764 C 1241.61 3.3491 0.511935 0
M  V30 12765 C 1240.17 3.63876 0.962861 0
M  V30 12766 C 1239.31 2.77284 0.0296246 0
M  V30 12767 H 1242.26 1.52149 -0.451245 0
M  V30 12768 H 1242.29 3.55477 1.35707 0
M  V30 12769 H 1241.8 3.85567 -0.442697 0
M  V30 12770 H 1239.9 3.18682 1.93062 0
M  V30 12771 H 1240.01 4.71809 0.832659 0
M  V30 12772 H 1238.38 2.48961 0.53763 0
M  V30 12773 H 1239.16 3.30742 -0.920044 0
M  V30 12774 N 1241.6 -0.0451101 1.57535 0
M  V30 12775 C 1242.85 -0.737654 1.88157 0
M  V30 12776 C 1243.17 -1.76743 0.823817 0
M  V30 12777 O 1242.44 -1.95366 -0.144503 0
M  V30 12778 H 1241.02 -0.275431 0.694368 0
M  V30 12779 H 1243.69 -0.0148651 1.94894 0
M  V30 12780 H 1242.78 -1.23726 2.86528 0
M  V30 12781 N 1243.08 -1.54377 -0.317073 0
M  V30 12782 C 1243.99 -1.87247 -1.41335 0
M  V30 12783 C 1245.01 -0.765017 -1.5628 0
M  V30 12784 O 1246.18 -1.05994 -1.71252 0
M  V30 12785 C 1243.25 -2.0988 -2.75955 0
M  V30 12786 C 1242.31 -3.33658 -2.70131 0
M  V30 12787 C 1241.54 -3.55202 -3.9833 0
M  V30 12788 O 1241.77 -2.80061 -4.96913 0
M  V30 12789 O 1240.7 -4.48693 -4.01196 0
M  V30 12790 H 1244.53 -2.80481 -1.16465 0
M  V30 12791 H 1242.11 -1.40364 -0.511687 0
M  V30 12792 H 1243.99 -2.2606 -3.55633 0
M  V30 12793 H 1242.67 -1.19834 -3.00702 0
M  V30 12794 H 1241.58 -3.22857 -1.88981 0
M  V30 12795 H 1242.91 -4.23782 -2.50338 0
M  V30 12796 N 1244.56 0.579466 -1.4656 0
M  V30 12797 C 1245.97 1.1616 -1.46164 0
M  V30 12798 C 1246.32 1.95134 -0.20423 0
M  V30 12799 O 1245.45 2.05022 0.692457 0
M  V30 12800 C 1246.04 2.11322 -2.64818 0
M  V30 12801 C 1244.6 2.64852 -2.67452 0
M  V30 12802 C 1243.75 1.40786 -2.38903 0
M  V30 12803 H 1246.7 0.367229 -1.54393 0
M  V30 12804 H 1246.72 2.94839 -2.4052 0
M  V30 12805 H 1246.23 1.53815 -3.56318 0
M  V30 12806 H 1244.33 3.26219 -1.80032 0
M  V30 12807 H 1244.45 3.07366 -3.67509 0
M  V30 12808 H 1242.81 1.70707 -1.89027 0
M  V30 12809 H 1243.59 0.851049 -3.32584 0
M  V30 12810 N 1246.04 1.3432 0.824371 0
M  V30 12811 C 1247.29 1.26345 1.57738 0
M  V30 12812 C 1247.61 -0.166836 1.94285 0
M  V30 12813 O 1246.88 -1.09911 1.62162 0
M  V30 12814 H 1245.46 0.46466 0.584893 0
M  V30 12815 H 1248.12 1.68214 0.984373 0
M  V30 12816 H 1247.22 1.8672 2.50084 0
M  V30 12817 N 1247.52 -1.0444 1.18026 0
M  V30 12818 C 1248.76 -1.77575 0.973314 0
M  V30 12819 C 1249.09 -1.88032 -0.4974 0
M  V30 12820 O 1248.35 -1.38214 -1.38548 0
M  V30 12821 C 1248.65 -3.21134 1.56869 0
M  V30 12822 C 1248.31 -3.30718 3.0649 0
M  V30 12823 C 1246.97 -3.33041 3.47328 0
M  V30 12824 C 1249.33 -3.3112 4.02503 0
M  V30 12825 C 1246.65 -3.33404 4.82762 0
M  V30 12826 C 1249.01 -3.33023 5.37846 0
M  V30 12827 C 1247.67 -3.33636 5.78138 0
M  V30 12828 H 1246.94 -0.649793 0.356161 0
M  V30 12829 H 1249.59 -1.22693 1.47033 0
M  V30 12830 H 1247.89 -3.78992 0.993584 0
M  V30 12831 H 1249.59 -3.76358 1.38404 0
M  V30 12832 H 1246.18 -3.29628 2.7394 0
M  V30 12833 H 1250.36 -3.2852 3.72006 0
M  V30 12834 H 1245.62 -3.32194 5.13281 0
M  V30 12835 H 1249.79 -3.32283 6.12014 0
M  V30 12836 H 1247.42 -3.33671 6.83058 0
M  V30 12837 N 1248.99 -0.981699 -1.2329 0
M  V30 12838 C 1250.24 -0.651302 -1.9174 0
M  V30 12839 C 1250.57 0.815318 -1.76587 0
M  V30 12840 O 1249.82 1.60377 -1.1215 0
M  V30 12841 C 1250.12 -0.989244 -3.43437 0
M  V30 12842 C 1249.79 -2.44629 -3.78771 0
M  V30 12843 C 1248.45 -2.84449 -3.88127 0
M  V30 12844 C 1250.8 -3.39123 -3.95784 0
M  V30 12845 C 1248.13 -4.17775 -4.11923 0
M  V30 12846 C 1250.48 -4.72095 -4.21081 0
M  V30 12847 C 1249.15 -5.11672 -4.28659 0
M  V30 12848 H 1248.42 -0.238328 -0.701627 0
M  V30 12849 H 1251.06 -1.2358 -1.46288 0
M  V30 12850 H 1249.37 -0.322677 -3.90469 0
M  V30 12851 H 1251.07 -0.711796 -3.94632 0
M  V30 12852 H 1247.66 -2.12759 -3.72064 0
M  V30 12853 H 1251.84 -3.09536 -3.87945 0
M  V30 12854 H 1247.1 -4.48043 -4.16013 0
M  V30 12855 H 1251.27 -5.45271 -4.33189 0
M  V30 12856 H 1248.9 -6.15003 -4.46851 0
M  V30 12857 N 1250.47 1.3842 -0.753509 0
M  V30 12858 C 1251.89 1.53668 -0.431095 0
M  V30 12859 C 1252.09 1.71626 1.05578 0
M  V30 12860 O 1251.14 1.72723 1.84182 0
M  V30 12861 C 1252.46 2.74381 -1.23027 0
M  V30 12862 C 1254.01 2.8823 -1.22034 0
M  V30 12863 C 1254.48 4.11904 -2.00248 0
M  V30 12864 N 1255.97 4.18981 -1.97508 0
M  V30 12865 C 1256.71 5.13667 -2.5482 0
M  V30 12866 N 1256.2 6.14027 -3.20846 0
M  V30 12867 N 1258 5.06017 -2.44751 0
M  V30 12868 H 1250.15 1.25012 -1.71714 0
M  V30 12869 H 1252.41 0.607296 -0.727939 0
M  V30 12870 H 1252.12 2.67515 -2.28317 0
M  V30 12871 H 1251.99 3.67565 -0.847098 0
M  V30 12872 H 1254.38 2.94578 -0.175502 0
M  V30 12873 H 1254.46 1.96057 -1.64303 0
M  V30 12874 H 1254.1 4.06318 -3.04742 0
M  V30 12875 H 1254.03 5.03157 -1.55373 0
M  V30 12876 H 1256.52 3.47104 -1.49423 0
M  V30 12877 H 1256.84 6.82771 -3.61999 0
M  V30 12878 H 1255.18 6.1436 -3.24941 0
M  V30 12879 H 1258.37 4.26552 -1.92797 0
M  V30 12880 H 1258.54 5.7963 -2.89713 0
M  V30 12881 N 1251.95 0.502579 1.49372 0
M  V30 12882 C 1253.23 -0.104472 1.95321 0
M  V30 12883 C 1253.61 -1.53975 1.44412 0
M  V30 12884 O 1252.96 -2.18804 0.658566 0
M  V30 12885 C 1253.17 -0.0154833 3.48997 0
M  V30 12886 C 1254.51 -0.188615 4.24181 0
M  V30 12887 O 1255.54 -0.090595 3.56085 0
M  V30 12888 O 1254.4 -0.390068 5.45106 0
M  V30 12889 H 1251.49 -0.0944325 0.821591 0
M  V30 12890 H 1254.04 0.565229 1.6001 0
M  V30 12891 H 1252.81 0.985383 3.7869 0
M  V30 12892 H 1252.43 -0.72526 3.90929 0
M  V30 12893 N 1253.43 -1.55816 0.23648 0
M  V30 12894 C 1254.36 -2.18248 -0.700024 0
M  V30 12895 C 1255.37 -1.15579 -1.14654 0
M  V30 12896 O 1256.56 -1.42491 -1.07511 0
M  V30 12897 C 1253.66 -2.76338 -1.9619 0
M  V30 12898 C 1252.84 -4.04325 -1.66853 0
M  V30 12899 C 1251.89 -4.46834 -2.77895 0
M  V30 12900 O 1250.92 -5.13427 -2.45725 0
M  V30 12901 N 1252.12 -4.13753 -4.07171 0
M  V30 12902 H 1254.89 -2.99241 -0.16589 0
M  V30 12903 H 1252.45 -1.61803 0.0560383 0
M  V30 12904 H 1254.44 -3.01739 -2.69695 0
M  V30 12905 H 1253.01 -1.99563 -2.4061 0
M  V30 12906 H 1252.23 -3.86623 -0.769164 0
M  V30 12907 H 1253.52 -4.8779 -1.44703 0
M  V30 12908 H 1252.92 -3.60271 -4.36144 0
M  V30 12909 H 1251.47 -4.44014 -4.77174 0
M  V30 12910 N 1254.91 0.036755 -1.57557 0
M  V30 12911 C 1256.18 0.764087 -1.80059 0
M  V30 12912 C 1256.56 1.93983 -0.83269 0
M  V30 12913 O 1255.91 2.28148 0.126815 0
M  V30 12914 C 1256.12 1.20433 -3.27562 0
M  V30 12915 C 1257.47 1.6234 -3.9234 0
M  V30 12916 O 1258.49 1.29911 -3.31665 0
M  V30 12917 O 1257.35 2.22504 -4.99154 0
M  V30 12918 H 1254.45 0.368866 -0.74018 0
M  V30 12919 H 1256.99 0.0141254 -1.69694 0
M  V30 12920 H 1255.76 0.364646 -3.89597 0
M  V30 12921 H 1255.39 2.01454 -3.42786 0
M  V30 12922 N 1256.39 1.54543 0.308881 0
M  V30 12923 C 1257.63 1.73107 1.043 0
M  V30 12924 C 1257.95 0.515481 1.88063 0
M  V30 12925 O 1257.22 -0.47036 1.90169 0
M  V30 12926 H 1255.8 0.638289 0.388068 0
M  V30 12927 H 1258.47 1.9188 0.341769 0
M  V30 12928 H 1257.56 2.61697 1.70063 0
M  V30 12929 N 1257.86 -0.571685 1.46866 0
M  V30 12930 C 1259.11 -1.32924 1.53957 0
M  V30 12931 C 1259.46 -1.91428 0.1932 0
M  V30 12932 O 1258.76 -1.74125 -0.799447 0
M  V30 12933 C 1258.95 -2.47051 2.58264 0
M  V30 12934 C 1258.78 -1.99729 4.02913 0
M  V30 12935 C 1257.55 -1.84236 4.70516 0
M  V30 12936 C 1259.75 -1.55035 4.90376 0
M  V30 12937 N 1257.73 -1.31101 5.99738 0
M  V30 12938 C 1259.1 -1.13566 6.0951 0
M  V30 12939 C 1261.16 -1.42953 4.76937 0
M  V30 12940 C 1259.86 -0.612183 7.1669 0
M  V30 12941 C 1261.89 -0.92008 5.84199 0
M  V30 12942 C 1261.25 -0.515239 7.02513 0
M  V30 12943 H 1257.35 -0.47897 0.618152 0
M  V30 12944 H 1259.93 -0.649687 1.83541 0
M  V30 12945 H 1258.1 -3.12555 2.30573 0
M  V30 12946 H 1259.83 -3.14025 2.55285 0
M  V30 12947 H 1256.59 -2.06516 4.26202 0
M  V30 12948 H 1257.01 -1.06663 6.68545 0
M  V30 12949 H 1261.65 -1.72869 3.85845 0
M  V30 12950 H 1259.37 -0.300634 8.07541 0
M  V30 12951 H 1262.96 -0.830357 5.75844 0
M  V30 12952 H 1261.84 -0.127122 7.84097 0
M  V30 12953 N 1259.34 -1.34755 -0.817236 0
M  V30 12954 C 1260.59 -1.27432 -1.57377 0
M  V30 12955 C 1260.92 0.15419 -1.93888 0
M  V30 12956 O 1260.17 1.11686 -1.60701 0
M  V30 12957 C 1260.47 -2.11611 -2.8802 0
M  V30 12958 C 1260.14 -3.60543 -2.70776 0
M  V30 12959 C 1258.8 -4.01141 -2.6578 0
M  V30 12960 C 1261.15 -4.55089 -2.54053 0
M  V30 12961 C 1258.48 -5.34469 -2.41991 0
M  V30 12962 C 1260.83 -5.88603 -2.31795 0
M  V30 12963 C 1259.49 -6.28358 -2.25215 0
M  V30 12964 H 1258.76 -0.466305 -0.575882 0
M  V30 12965 H 1261.41 -1.66552 -0.945128 0
M  V30 12966 H 1259.72 -1.65336 -3.55206 0
M  V30 12967 H 1261.41 -2.03287 -3.45652 0
M  V30 12968 H 1258 -3.2832 -2.75506 0
M  V30 12969 H 1262.19 -4.24617 -2.56932 0
M  V30 12970 H 1257.44 -5.64284 -2.35359 0
M  V30 12971 H 1261.62 -6.61451 -2.17844 0
M  V30 12972 H 1259.24 -7.31604 -2.06543 0
M  V30 12973 N 1260.82 1.03812 -1.18578 0
M  V30 12974 C 1262.1 1.74062 -0.892288 0
M  V30 12975 C 1262.48 2.02267 0.604256 0
M  V30 12976 O 1261.82 1.66988 1.55972 0
M  V30 12977 C 1262.03 3.024 -1.74228 0
M  V30 12978 C 1263.38 3.76088 -1.97087 0
M  V30 12979 O 1264.41 3.12305 -1.71302 0
M  V30 12980 O 1263.27 4.90732 -2.40509 0
M  V30 12981 H 1260.36 0.757567 -0.331695 0
M  V30 12982 H 1262.91 1.09855 -1.29345 0
M  V30 12983 H 1261.68 2.77713 -2.75665 0
M  V30 12984 H 1261.3 3.74346 -1.3398 0
M  V30 12985 N 1262.3 0.988223 1.22768 0
M  V30 12986 C 1263.55 0.660154 1.91014 0
M  V30 12987 C 1263.87 -0.809788 1.77391 0
M  V30 12988 O 1263.14 -1.57998 1.15817 0
M  V30 12989 H 1261.72 0.24118 0.706995 0
M  V30 12990 H 1264.38 1.25372 1.49224 0
M  V30 12991 H 1263.47 0.918603 2.98275 0
M  V30 12992 N 1263.78 -1.38018 0.760839 0
M  V30 12993 C 1264.69 -2.34181 0.140232 0
M  V30 12994 C 1265.7 -1.59635 -0.692287 0
M  V30 12995 O 1266.88 -1.91788 -0.614752 0
M  V30 12996 C 1263.94 -3.38778 -0.73693 0
M  V30 12997 C 1263 -4.29157 0.110792 0
M  V30 12998 C 1262.24 -5.28758 -0.724599 0
M  V30 12999 O 1262.46 -5.35585 -1.96226 0
M  V30 13000 O 1261.39 -6.01738 -0.139565 0
M  V30 13001 H 1265.22 -2.88962 0.934588 0
M  V30 13002 H 1262.8 -1.3999 0.521835 0
M  V30 13003 H 1264.69 -4.02804 -1.23803 0
M  V30 13004 H 1263.36 -2.86341 -1.50966 0
M  V30 13005 H 1262.27 -3.68268 0.658007 0
M  V30 13006 H 1263.6 -4.84869 0.846346 0
M  V30 13007 N 1265.25 -0.510493 -1.49103 0
M  V30 13008 C 1266.5 0.0226445 -2.03387 0
M  V30 13009 C 1266.85 1.33817 -1.38242 0
M  V30 13010 O 1266.15 1.84625 -0.512282 0
M  V30 13011 C 1266.34 0.221921 -3.5671 0
M  V30 13012 C 1266.17 -1.07273 -4.36718 0
M  V30 13013 C 1264.94 -1.62719 -4.78383 0
M  V30 13014 C 1267.14 -1.97844 -4.74723 0
M  V30 13015 N 1265.12 -2.86676 -5.42854 0
M  V30 13016 C 1266.49 -3.06378 -5.3901 0
M  V30 13017 C 1268.55 -1.98407 -4.56661 0
M  V30 13018 C 1267.25 -4.15515 -5.87145 0
M  V30 13019 C 1269.28 -3.06525 -5.05763 0
M  V30 13020 C 1268.64 -4.13778 -5.70059 0
M  V30 13021 H 1264.74 -0.0327303 -0.781315 0
M  V30 13022 H 1267.32 -0.687457 -1.8216 0
M  V30 13023 H 1265.49 0.901088 -3.77803 0
M  V30 13024 H 1267.22 0.752916 -3.97635 0
M  V30 13025 H 1263.98 -1.17109 -4.58893 0
M  V30 13026 H 1264.4 -3.49733 -5.79669 0
M  V30 13027 H 1269.04 -1.16789 -4.0635 0
M  V30 13028 H 1266.76 -4.97925 -6.36472 0
M  V30 13029 H 1270.35 -3.07992 -4.93591 0
M  V30 13030 H 1269.23 -4.96061 -6.07366 0
M  V30 13031 N 1266.73 1.55688 -0.24474 0
M  V30 13032 C 1267.68 2.17946 0.669596 0
M  V30 13033 C 1268.67 1.13468 1.14078 0
M  V30 13034 O 1269.86 1.39385 1.09091 0
M  V30 13035 C 1266.99 2.8808 1.86721 0
M  V30 13036 C 1266.07 3.99811 1.41463 0
M  V30 13037 N 1266.46 5.01261 0.676131 0
M  V30 13038 C 1264.76 4.12327 1.70008 0
M  V30 13039 C 1265.46 5.80017 0.442113 0
M  V30 13040 N 1264.44 5.34216 1.00569 0
M  V30 13041 H 1268.24 2.93739 0.0971953 0
M  V30 13042 H 1265.75 1.62332 -0.0469646 0
M  V30 13043 H 1267.75 3.31109 2.53322 0
M  V30 13044 H 1266.41 2.13789 2.44385 0
M  V30 13045 H 1267.42 5.1687 0.326459 0
M  V30 13046 H 1264.1 3.49206 2.28827 0
M  V30 13047 H 1265.49 6.71739 -0.14729 0
M  V30 13048 N 1268.21 -0.0283989 1.57574 0
M  V30 13049 C 1269.46 -0.720142 1.89583 0
M  V30 13050 C 1269.79 -1.7497 0.842562 0
M  V30 13051 O 1269.06 -1.93979 -0.142294 0
M  V30 13052 C 1269.35 -1.38909 3.32229 0
M  V30 13053 C 1269.2 -0.372998 4.48251 0
M  V30 13054 C 1270.52 -2.32289 3.73804 0
M  V30 13055 H 1267.64 -0.26033 0.689491 0
M  V30 13056 H 1270.28 0.0170607 1.89992 0
M  V30 13057 H 1268.43 -2.01744 3.32011 0
M  V30 13058 H 1270.1 0.253492 4.60603 0
M  V30 13059 H 1268.34 0.30765 4.32708 0
M  V30 13060 H 1269.02 -0.879549 5.44948 0
M  V30 13061 H 1271.49 -1.79497 3.75393 0
M  V30 13062 H 1270.37 -2.76075 4.74419 0
M  V30 13063 H 1270.63 -3.18992 3.06099 0
M  V30 13064 N 1269.69 -1.54705 -0.300681 0
M  V30 13065 C 1270.96 -1.6468 -1.05546 0
M  V30 13066 C 1271.34 -0.495292 -2.05207 0
M  V30 13067 O 1270.69 0.507944 -2.22783 0
M  V30 13068 C 1270.9 -3.02702 -1.73703 0
M  V30 13069 C 1272.25 -3.59527 -2.25888 0
M  V30 13070 O 1273.27 -3.05156 -1.83735 0
M  V30 13071 O 1272.13 -4.54727 -3.03126 0
M  V30 13072 H 1269.23 -0.667769 -0.487867 0
M  V30 13073 H 1271.77 -1.6705 -0.298743 0
M  V30 13074 H 1270.55 -3.7795 -1.01338 0
M  V30 13075 H 1270.17 -3.0411 -2.5613 0
M  V30 13076 N 1271.17 0.563888 -1.47167 0
M  V30 13077 C 1272.58 0.889156 -1.32537 0
M  V30 13078 C 1272.78 1.99088 -0.310854 0
M  V30 13079 O 1271.84 2.50943 0.27998 0
M  V30 13080 C 1273.15 1.28871 -2.71685 0
M  V30 13081 C 1274.7 1.40051 -2.79919 0
M  V30 13082 C 1275.17 1.83364 -4.19692 0
M  V30 13083 N 1276.67 1.90526 -4.22201 0
M  V30 13084 C 1277.4 2.25355 -5.2726 0
M  V30 13085 N 1276.9 2.58844 -6.42629 0
M  V30 13086 N 1278.69 2.26071 -5.14634 0
M  V30 13087 H 1270.84 -0.163581 -2.11769 0
M  V30 13088 H 1273.1 -0.0105151 -0.947942 0
M  V30 13089 H 1272.81 0.553057 -3.47324 0
M  V30 13090 H 1272.68 2.24629 -3.03021 0
M  V30 13091 H 1275.07 2.12698 -2.04557 0
M  V30 13092 H 1275.15 0.424971 -2.52245 0
M  V30 13093 H 1274.8 1.11289 -4.95557 0
M  V30 13094 H 1274.73 2.81909 -4.44786 0
M  V30 13095 H 1277.22 1.67059 -3.38968 0
M  V30 13096 H 1277.53 2.84427 -7.18555 0
M  V30 13097 H 1275.87 2.56439 -6.4596 0
M  V30 13098 H 1279.07 1.99343 -4.23533 0
M  V30 13099 H 1279.24 2.52885 -5.96618 0
M  V30 13100 N 1272.64 1.35187 0.810078 0
M  V30 13101 C 1274.06 1.25329 1.38381 0
M  V30 13102 C 1274.41 -0.115799 1.95858 0
M  V30 13103 O 1273.53 -1.01663 1.91033 0
M  V30 13104 C 1274.13 2.2693 2.51572 0
M  V30 13105 C 1272.69 2.20824 3.04818 0
M  V30 13106 C 1271.83 2.1283 1.7776 0
M  V30 13107 H 1274.78 1.46366 0.613402 0
M  V30 13108 H 1274.8 1.89375 3.30026 0
M  V30 13109 H 1274.32 3.26563 2.09709 0
M  V30 13110 H 1272.42 1.24589 3.51153 0
M  V30 13111 H 1272.53 3.12637 3.63036 0
M  V30 13112 H 1270.89 1.58752 1.99173 0
M  V30 13113 H 1271.68 3.14318 1.38054 0
M  V30 13114 N 1274.12 -1.03182 1.19127 0
M  V30 13115 C 1275.37 -1.76184 0.990134 0
M  V30 13116 C 1275.69 -1.88986 -0.480546 0
M  V30 13117 O 1274.96 -1.4213 -1.34817 0
M  V30 13118 H 1273.54 -0.652668 0.363364 0
M  V30 13119 H 1276.2 -1.24481 1.49968 0
M  V30 13120 H 1275.3 -2.77119 1.43568 0
M  V30 13121 N 1275.6 -0.99472 -1.22242 0
M  V30 13122 C 1276.88 -0.587481 -1.86569 0
M  V30 13123 C 1277.26 0.935174 -1.89256 0
M  V30 13124 O 1276.61 1.81787 -1.3844 0
M  V30 13125 C 1276.82 -1.21001 -3.27353 0
M  V30 13126 C 1278.16 -1.31167 -4.03832 0
M  V30 13127 O 1279.19 -1.16454 -3.36626 0
M  V30 13128 O 1278.05 -1.54731 -5.24138 0
M  V30 13129 H 1275.14 -0.199838 -0.802492 0
M  V30 13130 H 1277.69 -1.09071 -1.30006 0
M  V30 13131 H 1276.46 -2.25143 -3.20041 0
M  V30 13132 H 1276.08 -0.692479 -3.91523 0
M  V30 13133 N 1277.08 1.37613 -0.768148 0
M  V30 13134 C 1278.04 2.28653 -0.158283 0
M  V30 13135 C 1279.04 1.47862 0.631936 0
M  V30 13136 O 1280.23 1.68124 0.456055 0
M  V30 13137 C 1277.36 3.31776 0.783435 0
M  V30 13138 H 1278.56 2.84094 -0.960772 0
M  V30 13139 H 1276.11 1.46818 -0.536116 0
M  V30 13140 H 1276.84 2.81452 1.61106 0
M  V30 13141 H 1276.63 3.91488 0.219016 0
M  V30 13142 H 1278.12 3.99816 1.20568 0
M  V30 13143 N 1278.56 0.518393 1.4883 0
M  V30 13144 C 1279.78 -0.0162 2.06894 0
M  V30 13145 C 1280.2 -1.29222 1.37649 0
M  V30 13146 O 1279.56 -1.766 0.460288 0
M  V30 13147 C 1279.61 -0.255836 3.60594 0
M  V30 13148 O 1279.33 0.969612 4.27235 0
M  V30 13149 C 1280.83 -0.832117 4.3542 0
M  V30 13150 H 1278.05 0.0282877 0.670403 0
M  V30 13151 H 1280.59 0.720726 1.91379 0
M  V30 13152 H 1278.75 -0.942782 3.75753 0
M  V30 13153 H 1279.16 0.743172 5.19208 0
M  V30 13154 H 1280.64 -0.949279 5.43776 0
M  V30 13155 H 1281.11 -1.83421 3.99066 0
M  V30 13156 H 1281.72 -0.1821 4.2491 0
M  V30 13157 N 1280.03 -1.55556 0.252993 0
M  V30 13158 C 1281.31 -1.91022 -0.420696 0
M  V30 13159 C 1281.69 -1.17452 -1.75409 0
M  V30 13160 O 1281.04 -0.294 -2.26601 0
M  V30 13161 C 1281.25 -3.441 -0.582787 0
M  V30 13162 C 1282.6 -4.15468 -0.875873 0
M  V30 13163 O 1283.62 -3.49872 -0.668425 0
M  V30 13164 O 1282.48 -5.31508 -1.27128 0
M  V30 13165 H 1279.57 -0.7953 -0.226776 0
M  V30 13166 H 1282.12 -1.67072 0.297511 0
M  V30 13167 H 1280.89 -3.89673 0.356474 0
M  V30 13168 H 1280.52 -3.73933 -1.3513 0
M  V30 13169 N 1281.51 0.0200419 -1.57587 0
M  V30 13170 C 1282.76 0.708115 -1.88861 0
M  V30 13171 C 1283.07 1.76036 -0.852693 0
M  V30 13172 O 1284.28 2.50165 -1.05497 0
M  V30 13173 C 1282.74 1.31057 -3.3519 0
M  V30 13174 C 1282.34 0.294202 -4.47033 0
M  V30 13175 C 1284.09 1.97799 -3.756 0
M  V30 13176 C 1282 0.905508 -5.84427 0
M  V30 13177 H 1280.93 0.268236 -0.704674 0
M  V30 13178 H 1283.58 -0.0372162 -1.83462 0
M  V30 13179 H 1281.96 2.1059 -3.35362 0
M  V30 13180 H 1283.13 -0.475081 -4.58344 0
M  V30 13181 H 1281.45 -0.271644 -4.15513 0
M  V30 13182 H 1284.04 2.44404 -4.75574 0
M  V30 13183 H 1284.39 2.80004 -3.08064 0
M  V30 13184 H 1284.92 1.25028 -3.77641 0
M  V30 13185 H 1281.66 0.122685 -6.55385 0
M  V30 13186 H 1281.18 1.64442 -5.76818 0
M  V30 13187 H 1282.86 1.41016 -6.31446 0
M  V30 13188 N 1282.99 1.54862 0.292472 0
M  V30 13189 C 1284.22 1.7855 1.04534 0
M  V30 13190 C 1284.63 0.549161 1.80637 0
M  V30 13191 O 1283.99 -0.481268 1.7604 0
M  V30 13192 C 1284.04 2.99849 2.01923 0
M  V30 13193 O 1283.76 4.18706 1.28907 0
M  V30 13194 C 1285.26 3.35991 2.8918 0
M  V30 13195 H 1282.48 0.595279 0.309652 0
M  V30 13196 H 1285.03 2.01834 0.329159 0
M  V30 13197 H 1283.18 2.78749 2.69032 0
M  V30 13198 H 1283.6 4.87151 1.94383 0
M  V30 13199 H 1285.07 4.24085 3.53349 0
M  V30 13200 H 1285.55 2.54524 3.57931 0
M  V30 13201 H 1286.15 3.59281 2.27591 0
M  V30 13202 N 1284.47 -0.556076 1.47464 0
M  V30 13203 C 1285.72 -1.30955 1.53407 0
M  V30 13204 C 1286.03 -1.94559 0.201485 0
M  V30 13205 O 1287.24 -2.71144 0.138925 0
M  V30 13206 C 1285.69 -2.37476 2.70431 0
M  V30 13207 C 1285.3 -1.80057 4.10224 0
M  V30 13208 C 1287.04 -3.13997 2.85668 0
M  V30 13209 C 1284.95 -2.84365 5.18547 0
M  V30 13210 H 1283.88 -0.4924 0.571015 0
M  V30 13211 H 1286.53 -0.590459 1.73741 0
M  V30 13212 H 1284.91 -3.12304 2.43479 0
M  V30 13213 H 1286.09 -1.11593 4.47083 0
M  V30 13214 H 1284.4 -1.16116 3.99882 0
M  V30 13215 H 1287 -3.91892 3.63764 0
M  V30 13216 H 1287.34 -3.68253 1.94153 0
M  V30 13217 H 1287.88 -2.46281 3.12395 0
M  V30 13218 H 1284.62 -2.34963 6.11942 0
M  V30 13219 H 1284.14 -3.51235 4.86203 0
M  V30 13220 H 1285.81 -3.47836 5.45545 0
M  V30 13221 N 1285.95 -1.35615 -0.802897 0
M  V30 13222 C 1287.18 -1.32025 -1.58911 0
M  V30 13223 C 1287.59 0.103539 -1.88916 0
M  V30 13224 O 1286.93 1.06699 -1.49536 0
M  V30 13225 C 1286.99 -2.06313 -2.94406 0
M  V30 13226 C 1286.65 -3.5548 -2.87198 0
M  V30 13227 C 1287.65 -4.5 -2.60377 0
M  V30 13228 C 1285.34 -3.9818 -3.06199 0
M  V30 13229 C 1287.33 -5.85194 -2.5264 0
M  V30 13230 C 1285.02 -5.33469 -2.98084 0
M  V30 13231 C 1286.02 -6.26788 -2.71341 0
M  V30 13232 O 1285.7 -7.59594 -2.63195 0
M  V30 13233 H 1285.44 -0.454943 -0.500003 0
M  V30 13234 H 1287.99 -1.79106 -1.00549 0
M  V30 13235 H 1286.22 -1.53875 -3.54766 0
M  V30 13236 H 1287.91 -1.95755 -3.55577 0
M  V30 13237 H 1288.67 -4.18327 -2.45413 0
M  V30 13238 H 1284.55 -3.25927 -3.26025 0
M  V30 13239 H 1288.1 -6.58003 -2.31686 0
M  V30 13240 H 1283.99 -5.64754 -3.12607 0
M  V30 13241 H 1284.76 -7.69562 -2.78776 0
M  V30 13242 N 1287.43 1.02549 -1.19673 0
M  V30 13243 C 1288.66 1.79363 -1.02531 0
M  V30 13244 C 1289.06 1.84274 0.42893 0
M  V30 13245 O 1288.41 1.28813 1.30969 0
M  V30 13246 C 1288.47 3.2567 -1.52248 0
M  V30 13247 C 1288.13 3.44386 -3.00412 0
M  V30 13248 C 1289.13 3.34329 -3.98146 0
M  V30 13249 C 1286.81 3.70491 -3.39178 0
M  V30 13250 C 1288.81 3.50106 -5.3264 0
M  V30 13251 C 1286.5 3.85912 -4.7383 0
M  V30 13252 C 1287.49 3.75723 -5.70369 0
M  V30 13253 O 1287.18 3.90685 -7.02581 0
M  V30 13254 H 1286.91 0.571194 -0.361544 0
M  V30 13255 H 1289.47 1.30029 -1.59002 0
M  V30 13256 H 1287.7 3.76044 -0.901548 0
M  V30 13257 H 1289.39 3.8409 -1.31262 0
M  V30 13258 H 1290.15 3.14109 -3.69541 0
M  V30 13259 H 1286.03 3.77513 -2.64585 0
M  V30 13260 H 1289.58 3.42069 -6.07976 0
M  V30 13261 H 1285.47 4.05631 -5.02129 0
M  V30 13262 H 1286.24 4.07756 -7.09702 0
M  V30 13263 N 1288.9 1.00119 1.21713 0
M  V30 13264 C 1289.85 0.558388 2.23943 0
M  V30 13265 C 1290.82 -0.413576 1.60869 0
M  V30 13266 O 1292.01 -0.316478 1.88157 0
M  V30 13267 C 1289.15 -0.112618 3.44916 0
M  V30 13268 C 1288.26 0.902071 4.22477 0
M  V30 13269 C 1287.39 0.203722 5.30809 0
M  V30 13270 C 1286.43 1.20622 6.00097 0
M  V30 13271 N 1285.57 0.535607 7.00054 0
M  V30 13272 H 1290.41 1.43486 2.61182 0
M  V30 13273 H 1287.95 0.718572 1.28355 0
M  V30 13274 H 1289.9 -0.51865 4.13964 0
M  V30 13275 H 1288.53 -0.952827 3.08417 0
M  V30 13276 H 1287.59 1.42637 3.52645 0
M  V30 13277 H 1288.9 1.66513 4.70186 0
M  V30 13278 H 1288.05 -0.258614 6.06149 0
M  V30 13279 H 1286.79 -0.591773 4.84096 0
M  V30 13280 H 1285.8 1.6791 5.23532 0
M  V30 13281 H 1287.02 2.00273 6.48897 0
M  V30 13282 H 1284.97 -0.2403 6.5556 0
M  V30 13283 H 1284.88 1.23698 7.45812 0
M  V30 13284 H 1286.15 0.0963489 7.7944 0
M  V30 13285 N 1290.38 -1.37203 0.775435 0
M  V30 13286 C 1291.61 -2.03868 0.352927 0
M  V30 13287 C 1292.02 -1.58482 -1.0261 0
M  V30 13288 O 1291.38 -0.767772 -1.65564 0
M  V30 13289 C 1291.43 -3.59378 0.39116 0
M  V30 13290 O 1291.15 -4.03103 1.71579 0
M  V30 13291 C 1292.65 -4.4328 -0.0424808 0
M  V30 13292 H 1289.87 -0.654619 0.14736 0
M  V30 13293 H 1292.42 -1.75463 1.05039 0
M  V30 13294 H 1290.57 -3.86542 -0.257752 0
M  V30 13295 H 1290.99 -4.9764 1.65695 0
M  V30 13296 H 1292.46 -5.51989 0.0354215 0
M  V30 13297 H 1292.94 -4.25374 -1.09333 0
M  V30 13298 H 1293.54 -4.21349 0.578384 0
M  V30 13299 N 1291.86 -0.526279 -1.48553 0
M  V30 13300 C 1293.11 0.00914839 -2.02098 0
M  V30 13301 C 1293.43 1.35119 -1.40598 0
M  V30 13302 O 1292.7 1.87422 -0.570065 0
M  V30 13303 H 1291.28 0.00636935 -0.746973 0
M  V30 13304 H 1293.94 -0.689269 -1.82305 0
M  V30 13305 H 1293.04 0.120212 -3.11868 0
M  V30 13306 N 1293.34 1.5542 -0.261239 0
M  V30 13307 C 1294.58 2.00312 0.353075 0
M  V30 13308 C 1294.94 1.14642 1.54515 0
M  V30 13309 O 1294.23 0.205242 1.90498 0
M  V30 13310 C 1294.43 3.48354 0.799021 0
M  V30 13311 C 1294.25 4.48349 -0.348302 0
M  V30 13312 C 1293.02 4.98476 -0.827623 0
M  V30 13313 C 1295.22 5.00577 -1.18015 0
M  V30 13314 N 1293.2 5.82245 -1.94586 0
M  V30 13315 C 1294.58 5.81657 -2.14651 0
M  V30 13316 C 1296.63 4.82846 -1.21508 0
M  V30 13317 C 1295.33 6.46898 -3.14508 0
M  V30 13318 C 1297.36 5.48876 -2.20202 0
M  V30 13319 C 1296.72 6.29756 -3.15573 0
M  V30 13320 H 1292.82 0.776238 0.0947564 0
M  V30 13321 H 1295.4 1.90914 -0.382094 0
M  V30 13322 H 1293.58 3.58122 1.50345 0
M  V30 13323 H 1295.31 3.80099 1.3895 0
M  V30 13324 H 1292.06 4.71828 -0.409293 0
M  V30 13325 H 1292.49 6.28824 -2.50817 0
M  V30 13326 H 1297.13 4.19933 -0.491573 0
M  V30 13327 H 1294.85 7.08969 -3.87799 0
M  V30 13328 H 1298.43 5.37105 -2.23629 0
M  V30 13329 H 1297.31 6.79947 -3.90694 0
M  V30 13330 N 1294.82 -0.0116844 1.57596 0
M  V30 13331 C 1296.04 -0.71026 1.94327 0
M  V30 13332 C 1296.46 -1.67952 0.862418 0
M  V30 13333 O 1295.82 -1.818 -0.159698 0
M  V30 13334 C 1295.87 -1.45228 3.31045 0
M  V30 13335 O 1295.59 -0.52191 4.3498 0
M  V30 13336 C 1297.09 -2.24644 3.82165 0
M  V30 13337 H 1294.31 -0.198559 0.640949 0
M  V30 13338 H 1296.85 0.0359615 2.04468 0
M  V30 13339 H 1295.01 -2.15023 3.22248 0
M  V30 13340 H 1295.42 -1.04415 5.14002 0
M  V30 13341 H 1296.9 -2.72078 4.80289 0
M  V30 13342 H 1297.37 -3.06817 3.14261 0
M  V30 13343 H 1297.98 -1.59888 3.94101 0
M  V30 13344 N 1296.29 -1.55015 -0.284256 0
M  V30 13345 C 1297.24 -1.83508 -1.3531 0
M  V30 13346 C 1298.23 -0.693244 -1.452 0
M  V30 13347 O 1299.42 -0.954312 -1.4907 0
M  V30 13348 C 1296.55 -2.10059 -2.71533 0
M  V30 13349 C 1295.63 -3.30472 -2.65799 0
M  V30 13350 N 1296.03 -4.50644 -2.29682 0
M  V30 13351 C 1294.32 -3.32836 -2.96878 0
M  V30 13352 C 1295.02 -5.32708 -2.33661 0
M  V30 13353 N 1294 -4.70837 -2.71687 0
M  V30 13354 H 1297.8 -2.73973 -1.06377 0
M  V30 13355 H 1295.32 -1.5474 -0.492875 0
M  V30 13356 H 1297.31 -2.28624 -3.48621 0
M  V30 13357 H 1295.97 -1.20872 -3.01364 0
M  V30 13358 H 1296.98 -4.76945 -2.0185 0
M  V30 13359 H 1293.66 -2.53807 -3.31494 0
M  V30 13360 H 1295.05 -6.38766 -2.08394 0
M  V30 13361 N 1297.77 0.548248 -1.47757 0
M  V30 13362 C 1299.18 1.13033 -1.48595 0
M  V30 13363 C 1299.53 1.94657 -0.245575 0
M  V30 13364 O 1298.66 2.06445 0.648813 0
M  V30 13365 C 1299.25 2.05657 -2.69241 0
M  V30 13366 C 1297.81 2.59119 -2.73009 0
M  V30 13367 C 1296.96 1.35686 -2.41836 0
M  V30 13368 H 1299.91 0.334397 -1.55137 0
M  V30 13369 H 1299.93 2.89671 -2.4672 0
M  V30 13370 H 1299.44 1.46222 -3.595 0
M  V30 13371 H 1297.54 3.22327 -1.86912 0
M  V30 13372 H 1297.66 2.99501 -3.73946 0
M  V30 13373 H 1296.02 1.66659 -1.92606 0
M  V30 13374 H 1296.8 0.780311 -3.34314 0
M  V30 13375 N 1299.25 1.36039 0.795694 0
M  V30 13376 C 1300.2 1.26386 1.89765 0
M  V30 13377 C 1301.18 0.156711 1.60135 0
M  V30 13378 O 1302.38 0.388946 1.72674 0
M  V30 13379 C 1299.5 1.04907 3.26878 0
M  V30 13380 C 1298.59 2.20061 3.62538 0
M  V30 13381 N 1298.98 3.45347 3.69553 0
M  V30 13382 C 1297.28 2.11688 3.92561 0
M  V30 13383 C 1297.98 4.21138 4.0127 0
M  V30 13384 N 1296.96 3.5001 4.15925 0
M  V30 13385 H 1300.76 2.21295 1.93405 0
M  V30 13386 H 1298.27 1.28668 0.990877 0
M  V30 13387 H 1300.27 0.960791 4.05678 0
M  V30 13388 H 1298.93 0.108921 3.24517 0
M  V30 13389 H 1299.94 3.79561 3.52355 0
M  V30 13390 H 1296.62 1.25592 3.98162 0
M  V30 13391 H 1298.01 5.29456 4.13673 0
M  V30 13392 N 1300.73 -1.01913 1.20215 0
M  V30 13393 C 1301.98 -1.74878 1.00502 0
M  V30 13394 C 1302.29 -1.90022 -0.463792 0
M  V30 13395 O 1303.5 -2.60055 -0.779982 0
M  V30 13396 C 1301.95 -3.1452 1.74943 0
M  V30 13397 C 1301.56 -3.07397 3.259 0
M  V30 13398 C 1303.3 -3.91713 1.63589 0
M  V30 13399 C 1301.21 -4.42032 3.92889 0
M  V30 13400 H 1300.14 -0.655603 0.372426 0
M  V30 13401 H 1302.79 -1.13978 1.4381 0
M  V30 13402 H 1301.17 -3.75946 1.24421 0
M  V30 13403 H 1302.35 -2.55294 3.83617 0
M  V30 13404 H 1300.66 -2.43698 3.37639 0
M  V30 13405 H 1303.26 -4.91316 2.1098 0
M  V30 13406 H 1303.6 -4.12074 0.591665 0
M  V30 13407 H 1304.14 -3.3691 2.11511 0
M  V30 13408 H 1300.88 -4.26874 4.97453 0
M  V30 13409 H 1300.4 -4.94151 3.39962 0
M  V30 13410 H 1302.07 -5.10884 3.96997 0
M  V30 13411 N 1302.21 -1.00763 -1.2118 0
M  V30 13412 C 1303.16 -0.541218 -2.21483 0
M  V30 13413 C 1304.14 0.398597 -1.55885 0
M  V30 13414 O 1305.33 0.22302 -1.75589 0
M  V30 13415 C 1302.46 0.128145 -3.43061 0
M  V30 13416 C 1301.55 -0.832845 -4.15842 0
M  V30 13417 N 1301.94 -1.98673 -4.65148 0
M  V30 13418 C 1300.24 -0.651779 -4.41212 0
M  V30 13419 C 1300.94 -2.59112 -5.20803 0
M  V30 13420 N 1299.91 -1.87249 -5.10332 0
M  V30 13421 H 1303.72 -1.42105 -2.57262 0
M  V30 13422 H 1301.23 -0.871796 -1.37016 0
M  V30 13423 H 1303.23 0.479771 -4.1413 0
M  V30 13424 H 1301.89 1.00392 -3.0879 0
M  V30 13425 H 1302.9 -2.36701 -4.60644 0
M  V30 13426 H 1299.57 0.1767 -4.17126 0
M  V30 13427 H 1300.96 -3.56713 -5.69391 0
M  V30 13428 N 1303.68 1.3679 -0.7827 0
M  V30 13429 C 1304.91 2.03382 -0.363207 0
M  V30 13430 C 1305.32 1.59157 1.02302 0
M  V30 13431 O 1304.67 0.773325 1.66629 0
M  V30 13432 C 1304.73 3.57889 -0.34001 0
M  V30 13433 C 1304.39 4.25289 -1.67268 0
M  V30 13434 C 1305.39 4.48647 -2.62701 0
M  V30 13435 C 1303.07 4.62899 -1.95013 0
M  V30 13436 C 1305.07 5.08686 -3.8408 0
M  V30 13437 C 1302.75 5.22657 -3.16659 0
M  V30 13438 C 1303.75 5.45489 -4.11012 0
M  V30 13439 O 1303.44 6.03995 -5.30515 0
M  V30 13440 H 1303.17 0.659452 -0.148658 0
M  V30 13441 H 1305.73 1.75885 -1.06082 0
M  V30 13442 H 1303.96 3.84477 0.414055 0
M  V30 13443 H 1305.65 4.05864 0.0539009 0
M  V30 13444 H 1306.41 4.19993 -2.42551 0
M  V30 13445 H 1302.29 4.44455 -1.22395 0
M  V30 13446 H 1305.83 5.26423 -4.57738 0
M  V30 13447 H 1301.73 5.50736 -3.3669 0
M  V30 13448 H 1302.5 6.22466 -5.31487 0
M  V30 13449 N 1305.16 0.53415 1.48272 0
M  V30 13450 C 1306.39 0.00368464 2.074 0
M  V30 13451 C 1306.81 -1.27003 1.38751 0
M  V30 13452 O 1306.17 -1.75502 0.454817 0
M  V30 13453 C 1306.22 -0.199034 3.6005 0
M  V30 13454 O 1305.32 -1.26679 3.92462 0
M  V30 13455 H 1304.66 0.0409936 0.662733 0
M  V30 13456 H 1307.19 0.743253 1.90622 0
M  V30 13457 H 1307.2 -0.420404 4.05828 0
M  V30 13458 H 1305.88 0.731391 4.09418 0
M  V30 13459 H 1304.46 -1.02775 3.58457 0
M  V30 13460 N 1306.64 -1.55279 0.269478 0
M  V30 13461 C 1307.57 -2.25278 -0.614188 0
M  V30 13462 C 1308.55 -1.24092 -1.1634 0
M  V30 13463 O 1309.74 -1.52799 -1.19858 0
M  V30 13464 C 1306.87 -2.96956 -1.80096 0
M  V30 13465 C 1305.82 -4.05021 -1.38353 0
M  V30 13466 C 1305.15 -4.64244 -2.65295 0
M  V30 13467 C 1306.45 -5.19523 -0.537886 0
M  V30 13468 H 1308.14 -2.99385 -0.0304397 0
M  V30 13469 H 1305.69 -1.43994 -0.0132004 0
M  V30 13470 H 1307.64 -3.44633 -2.42499 0
M  V30 13471 H 1306.36 -2.20374 -2.41045 0
M  V30 13472 H 1305.02 -3.58146 -0.78273 0
M  V30 13473 H 1304.67 -3.84337 -3.2449 0
M  V30 13474 H 1304.37 -5.37208 -2.38079 0
M  V30 13475 H 1305.89 -5.14668 -3.28557 0
M  V30 13476 H 1307.31 -5.63287 -1.06677 0
M  V30 13477 H 1305.71 -5.99014 -0.360845 0
M  V30 13478 H 1306.78 -4.82857 0.444672 0
M  V30 13479 N 1308.12 0.00332656 -1.576 0
M  V30 13480 C 1309.07 1.01406 -2.09331 0
M  V30 13481 C 1310.06 1.35806 -1.01258 0
M  V30 13482 O 1311.27 1.34409 -1.19726 0
M  V30 13483 H 1307.64 0.344661 -0.668366 0
M  V30 13484 H 1309.61 0.552154 -2.93247 0
M  V30 13485 C 1308.36 2.29819 -2.60918 0
M  V30 13486 H 1307.68 2.04216 -3.43709 0
M  V30 13487 H 1309.12 2.98826 -3.00797 0
M  V30 13488 C 1307.58 3.0057 -1.52182 0
M  V30 13489 O 1308.11 3.91423 -0.902817 0
M  V30 13490 N 1306.32 2.62338 -1.25009 0
M  V30 13491 H 1305.87 1.88538 -1.75531 0
M  V30 13492 H 1305.82 3.0999 -0.524736 0
M  V30 13493 N 1309.6 1.55164 0.276031 0
M  V30 13494 C 1310.53 1.84243 1.36335 0
M  V30 13495 C 1311.54 0.726745 1.45679 0
M  V30 13496 O 1312.73 1.00456 1.4755 0
M  V30 13497 C 1309.83 1.98768 2.7449 0
M  V30 13498 C 1309 3.294 2.87775 0
M  V30 13499 C 1308.06 3.34029 4.06585 0
M  V30 13500 O 1307.09 4.07423 3.97486 0
M  V30 13501 N 1308.29 2.61213 5.18409 0
M  V30 13502 H 1311.06 2.78092 1.11736 0
M  V30 13503 H 1308.62 1.55044 0.466143 0
M  V30 13504 H 1310.61 1.99238 3.52259 0
M  V30 13505 H 1309.18 1.11799 2.91924 0
M  V30 13506 H 1308.4 3.41494 1.96914 0
M  V30 13507 H 1309.69 4.15558 2.93579 0
M  V30 13508 H 1309.08 2.01261 5.28687 0
M  V30 13509 H 1307.64 2.67409 5.9442 0
M  V30 13510 N 1311.07 -0.540404 1.48045 0
M  V30 13511 C 1312.32 -1.29422 1.55224 0
M  V30 13512 C 1312.64 -1.93716 0.223365 0
M  V30 13513 O 1311.91 -1.808 -0.754204 0
M  V30 13514 H 1310.49 -0.480658 0.571819 0
M  V30 13515 H 1313.16 -0.629712 1.84447 0
M  V30 13516 H 1312.25 -2.07897 2.32777 0
M  V30 13517 N 1312.55 -1.36459 -0.788468 0
M  V30 13518 C 1313.52 -1.3071 -1.88275 0
M  V30 13519 C 1314.52 -0.214596 -1.59362 0
M  V30 13520 O 1315.71 -0.469437 -1.67756 0
M  V30 13521 C 1312.84 -1.02648 -3.25079 0
M  V30 13522 H 1314.03 -2.28029 -1.94788 0
M  V30 13523 H 1311.58 -1.21245 -0.986375 0
M  V30 13524 H 1312.32 -0.0578992 -3.24248 0
M  V30 13525 H 1312.1 -1.81708 -3.47454 0
M  V30 13526 H 1313.59 -1.01233 -4.05144 0
M  V30 13527 N 1314.03 1.01274 -1.20754 0
M  V30 13528 C 1315.28 1.75298 -1.03161 0
M  V30 13529 C 1315.63 1.87504 0.431299 0
M  V30 13530 O 1314.92 1.39262 1.31593 0
M  V30 13531 C 1315.12 3.16862 -1.65329 0
M  V30 13532 C 1314.95 3.18459 -3.17513 0
M  V30 13533 C 1313.72 3.25479 -3.86512 0
M  V30 13534 C 1315.92 3.04195 -4.14693 0
M  V30 13535 N 1313.9 3.1662 -5.25951 0
M  V30 13536 C 1315.27 3.03149 -5.40833 0
M  V30 13537 C 1317.32 2.8844 -4.05841 0
M  V30 13538 C 1316.03 2.87963 -6.59143 0
M  V30 13539 C 1318.05 2.74609 -5.23779 0
M  V30 13540 C 1317.41 2.74232 -6.48827 0
M  V30 13541 H 1313.51 0.652001 -0.431762 0
M  V30 13542 H 1316.1 1.2043 -1.52986 0
M  V30 13543 H 1314.27 3.70015 -1.18082 0
M  V30 13544 H 1316 3.79337 -1.41015 0
M  V30 13545 H 1312.76 3.3236 -3.37392 0
M  V30 13546 H 1313.18 3.15554 -5.98961 0
M  V30 13547 H 1317.82 2.87542 -3.09967 0
M  V30 13548 H 1315.54 2.87609 -7.55186 0
M  V30 13549 H 1319.13 2.6343 -5.18745 0
M  V30 13550 H 1318.01 2.63653 -7.38551 0
M  V30 13551 N 1315.51 1.01404 1.20644 0
M  V30 13552 C 1316.74 0.72104 1.93929 0
M  V30 13553 C 1317.15 -0.717853 1.7462 0
M  V30 13554 O 1316.51 -1.48664 1.05855 0
M  V30 13555 C 1316.56 1.04399 3.46097 0
M  V30 13556 O 1316.28 2.42637 3.64773 0
M  V30 13557 C 1317.78 0.771678 4.36532 0
M  V30 13558 H 1315 0.264983 0.616462 0
M  V30 13559 H 1317.55 1.35453 1.53208 0
M  V30 13560 H 1315.7 0.455946 3.84708 0
M  V30 13561 H 1316.12 2.54201 4.58783 0
M  V30 13562 H 1317.59 1.04774 5.41965 0
M  V30 13563 H 1318.07 -0.294188 4.38214 0
M  V30 13564 H 1318.67 1.34176 4.0358 0
M  V30 13565 N 1316.99 -1.36373 0.789944 0
M  V30 13566 C 1318.22 -2.03482 0.37453 0
M  V30 13567 C 1318.63 -1.59562 -1.00923 0
M  V30 13568 O 1317.99 -0.785289 -1.64741 0
M  V30 13569 C 1318.04 -3.58942 0.429255 0
M  V30 13570 O 1317.76 -4.01261 1.75845 0
M  V30 13571 C 1319.26 -4.433 0.00453729 0
M  V30 13572 H 1316.48 -0.653019 0.154295 0
M  V30 13573 H 1319.02 -1.74339 1.06894 0
M  V30 13574 H 1317.18 -3.86793 -0.21674 0
M  V30 13575 H 1317.59 -4.95854 1.70964 0
M  V30 13576 H 1319.07 -5.5192 0.0939653 0
M  V30 13577 H 1319.54 -4.26509 -1.04816 0
M  V30 13578 H 1320.15 -4.20712 0.623041 0
M  V30 13579 N 1318.47 -0.542005 -1.47987 0
M  V30 13580 C 1319.4 0.202703 -2.32618 0
M  V30 13581 C 1320.38 0.923521 -1.42846 0
M  V30 13582 O 1321.56 0.906957 -1.7172 0
M  V30 13583 C 1318.69 1.24267 -3.24307 0
M  V30 13584 C 1317.65 0.639257 -4.23199 0
M  V30 13585 C 1316.97 1.78275 -5.04105 0
M  V30 13586 C 1318.27 -0.396982 -5.20789 0
M  V30 13587 H 1319.97 -0.503817 -2.95131 0
M  V30 13588 H 1317.51 -0.243736 -1.41922 0
M  V30 13589 H 1319.46 1.7717 -3.82347 0
M  V30 13590 H 1318.19 1.97893 -2.59819 0
M  V30 13591 H 1316.85 0.131655 -3.66364 0
M  V30 13592 H 1316.5 2.50768 -4.36032 0
M  V30 13593 H 1316.2 1.38487 -5.71047 0
M  V30 13594 H 1317.72 2.31533 -5.65 0
M  V30 13595 H 1319.13 0.0454057 -5.73282 0
M  V30 13596 H 1317.53 -0.712911 -5.9585 0
M  V30 13597 H 1318.6 -1.29843 -4.67193 0
M  V30 13598 N 1319.94 1.55134 -0.277709 0
M  V30 13599 C 1321.35 1.85405 0.219543 0
M  V30 13600 C 1321.71 1.19973 1.55245 0
M  V30 13601 O 1320.83 0.488986 2.10803 0
M  V30 13602 C 1321.43 3.36369 0.405127 0
M  V30 13603 C 1319.98 3.66755 0.846609 0
M  V30 13604 C 1319.13 2.77238 -0.0586063 0
M  V30 13605 H 1322.08 1.50637 -0.499422 0
M  V30 13606 H 1322.1 3.59615 1.24329 0
M  V30 13607 H 1321.62 3.83963 -0.565138 0
M  V30 13608 H 1319.72 3.24662 1.82825 0
M  V30 13609 H 1319.83 4.74219 0.682135 0
M  V30 13610 H 1318.19 2.50546 0.458153 0
M  V30 13611 H 1318.98 3.27647 -1.0248 0
M  V30 13612 N 1321.42 0.00503138 1.57599 0
M  V30 13613 C 1322.67 -0.67742 1.90409 0
M  V30 13614 C 1322.99 -1.74033 0.87963 0
M  V30 13615 O 1322.26 -1.95727 -0.0822757 0
M  V30 13616 H 1320.84 -0.2532 0.702779 0
M  V30 13617 H 1323.5 0.0471466 1.94843 0
M  V30 13618 H 1322.6 -1.14548 2.90319 0
M  V30 13619 N 1322.9 -1.55308 -0.267798 0
M  V30 13620 C 1324.15 -1.7642 -1.00019 0
M  V30 13621 C 1324.48 -0.566559 -1.85752 0
M  V30 13622 O 1323.75 0.435752 -1.89556 0
M  V30 13623 C 1324.04 -3.07229 -1.87836 0
M  V30 13624 C 1323.89 -4.37358 -1.05061 0
M  V30 13625 C 1325.21 -3.34113 -2.86455 0
M  V30 13626 H 1322.33 -0.641859 -0.362197 0
M  V30 13627 H 1324.97 -1.8804 -0.272188 0
M  V30 13628 H 1323.12 -2.97454 -2.49907 0
M  V30 13629 H 1324.79 -4.59098 -0.450208 0
M  V30 13630 H 1323.03 -4.32351 -0.354242 0
M  V30 13631 H 1323.71 -5.25223 -1.69838 0
M  V30 13632 H 1326.18 -3.43715 -2.34519 0
M  V30 13633 H 1325.06 -4.26896 -3.45038 0
M  V30 13634 H 1325.32 -2.54005 -3.61848 0
M  V30 13635 N 1324.38 0.532545 -1.4833 0
M  V30 13636 C 1325.79 1.11451 -1.49785 0
M  V30 13637 C 1326.14 1.94386 -0.266207 0
M  V30 13638 O 1325.26 2.07121 0.62688 0
M  V30 13639 C 1325.86 2.0279 -2.71407 0
M  V30 13640 C 1324.42 2.56209 -2.75742 0
M  V30 13641 C 1323.57 1.33114 -2.43261 0
M  V30 13642 H 1326.52 0.317924 -1.55483 0
M  V30 13643 H 1326.54 2.87038 -2.49779 0
M  V30 13644 H 1326.05 1.42401 -3.61031 0
M  V30 13645 H 1324.15 3.20327 -1.9032 0
M  V30 13646 H 1324.26 2.95518 -3.77102 0
M  V30 13647 H 1322.63 1.64607 -1.94362 0
M  V30 13648 H 1323.41 0.744809 -3.35123 0
M  V30 13649 N 1325.86 1.36875 0.78122 0
M  V30 13650 C 1326.79 1.34559 1.9083 0
M  V30 13651 C 1327.77 0.215713 1.68727 0
M  V30 13652 O 1328.95 0.41462 1.89722 0
M  V30 13653 C 1326.08 1.14233 3.27976 0
M  V30 13654 C 1325.04 2.24132 3.64621 0
M  V30 13655 C 1324.36 1.8894 5.00206 0
M  V30 13656 C 1325.66 3.66266 3.72353 0
M  V30 13657 H 1327.36 2.28871 1.93025 0
M  V30 13658 H 1324.9 1.10171 0.927275 0
M  V30 13659 H 1326.85 1.11246 4.06451 0
M  V30 13660 H 1325.58 0.163747 3.26189 0
M  V30 13661 H 1324.24 2.26259 2.88448 0
M  V30 13662 H 1323.89 0.896351 4.94949 0
M  V30 13663 H 1323.59 2.62525 5.25694 0
M  V30 13664 H 1325.11 1.87523 5.81092 0
M  V30 13665 H 1326.52 3.66321 4.41001 0
M  V30 13666 H 1324.92 4.38825 4.09332 0
M  V30 13667 H 1325.99 4.00578 2.7325 0
M  V30 13668 N 1327.33 -1.00632 1.21289 0
M  V30 13669 C 1328.56 -1.77967 1.05524 0
M  V30 13670 C 1328.98 -1.84621 -0.395023 0
M  V30 13671 O 1328.33 -1.30664 -1.27409 0
M  V30 13672 C 1328.38 -3.21939 1.64432 0
M  V30 13673 O 1328.11 -3.15669 3.03784 0
M  V30 13674 C 1329.61 -4.1578 1.5376 0
M  V30 13675 H 1326.83 -0.559341 0.370646 0
M  V30 13676 H 1329.37 -1.26604 1.60598 0
M  V30 13677 H 1327.53 -3.70415 1.13453 0
M  V30 13678 H 1327.94 -4.06112 3.31924 0
M  V30 13679 H 1329.41 -5.14602 1.99722 0
M  V30 13680 H 1329.89 -4.36438 0.491811 0
M  V30 13681 H 1330.5 -3.73192 2.0398 0
M  V30 13682 N 1328.81 -1.02043 -1.20104 0
M  V30 13683 C 1329.76 -0.593945 -2.23027 0
M  V30 13684 C 1330.73 0.387931 -1.61506 0
M  V30 13685 O 1331.91 0.286504 -1.88637 0
M  V30 13686 C 1329.05 0.0577309 -3.45052 0
M  V30 13687 C 1328.17 -0.969169 -4.20988 0
M  V30 13688 C 1327.3 -0.288143 -5.30418 0
M  V30 13689 C 1326.34 -1.30154 -5.98102 0
M  V30 13690 N 1325.48 -0.646912 -6.99113 0
M  V30 13691 H 1330.32 -1.47623 -2.58866 0
M  V30 13692 H 1327.85 -0.738901 -1.27195 0
M  V30 13693 H 1329.81 0.452726 -4.14736 0
M  V30 13694 H 1328.44 0.90364 -3.09894 0
M  V30 13695 H 1327.49 -1.48229 -3.50332 0
M  V30 13696 H 1328.81 -1.73972 -4.67477 0
M  V30 13697 H 1327.96 0.162149 -6.06483 0
M  V30 13698 H 1326.7 0.514683 -4.84977 0
M  V30 13699 H 1325.7 -1.76218 -5.20795 0
M  V30 13700 H 1326.93 -2.10571 -6.45629 0
M  V30 13701 H 1324.88 0.135976 -6.55859 0
M  V30 13702 H 1324.79 -1.35548 -7.43749 0
M  V30 13703 H 1326.06 -0.220339 -7.79189 0
M  V30 13704 N 1330.29 1.35952 -0.797165 0
M  V30 13705 C 1331.52 2.0381 -0.38421 0
M  V30 13706 C 1331.94 1.597 0.993854 0
M  V30 13707 O 1331.3 0.769148 1.64176 0
M  V30 13708 C 1331.35 3.57589 -0.465054 0
M  V30 13709 O 1330.45 4.09043 0.525095 0
M  V30 13710 H 1329.79 0.643957 -0.161912 0
M  V30 13711 H 1332.32 1.73746 -1.08043 0
M  V30 13712 H 1332.33 4.06651 -0.331448 0
M  V30 13713 H 1331.01 3.89045 -1.47027 0
M  V30 13714 H 1329.58 3.7123 0.352509 0
M  V30 13715 N 1331.77 0.549846 1.47697 0
M  V30 13716 C 1332.68 -0.205286 2.337 0
M  V30 13717 C 1333.69 -0.919271 1.47734 0
M  V30 13718 O 1334.87 -0.889808 1.80678 0
M  V30 13719 C 1331.94 -1.22658 3.24278 0
M  V30 13720 C 1331 -0.520815 4.26129 0
M  V30 13721 C 1330.23 -1.49345 5.12378 0
M  V30 13722 O 1330.45 -2.72772 5.00951 0
M  V30 13723 O 1329.39 -1.02197 5.93161 0
M  V30 13724 H 1333.21 0.499982 2.99556 0
M  V30 13725 H 1330.8 0.310538 1.46137 0
M  V30 13726 H 1332.68 -1.8163 3.80248 0
M  V30 13727 H 1331.35 -1.9139 2.61059 0
M  V30 13728 H 1330.26 0.109906 3.73939 0
M  V30 13729 H 1331.59 0.124922 4.92041 0
M  V30 13730 N 1333.25 -1.54984 0.285932 0
M  V30 13731 C 1334.48 -2.03943 -0.330295 0
M  V30 13732 C 1334.88 -1.16336 -1.49207 0
M  V30 13733 O 1334.23 -0.178341 -1.82832 0
M  V30 13734 C 1334.29 -3.48976 -0.863479 0
M  V30 13735 C 1333.95 -4.5668 0.171058 0
M  V30 13736 C 1334.95 -5.10303 0.994329 0
M  V30 13737 C 1332.64 -5.01352 0.308416 0
M  V30 13738 C 1334.63 -6.07126 1.94104 0
M  V30 13739 C 1332.32 -5.97999 1.25859 0
M  V30 13740 C 1333.31 -6.50768 2.0734 0
M  V30 13741 O 1333 -7.45524 3.00749 0
M  V30 13742 H 1332.73 -0.671491 -0.0779452 0
M  V30 13743 H 1335.29 -2.01081 0.419011 0
M  V30 13744 H 1333.52 -3.49113 -1.66305 0
M  V30 13745 H 1335.21 -3.81213 -1.39396 0
M  V30 13746 H 1335.97 -4.76595 0.899002 0
M  V30 13747 H 1331.85 -4.59917 -0.315817 0
M  V30 13748 H 1335.4 -6.48239 2.57743 0
M  V30 13749 H 1331.29 -6.31125 1.35469 0
M  V30 13750 H 1332.06 -7.63276 2.95554 0
M  V30 13751 N 1334.72 -0.0133892 -1.57594 0
M  V30 13752 C 1335.63 0.989701 -2.12702 0
M  V30 13753 C 1336.65 1.36785 -1.07545 0
M  V30 13754 O 1337.83 1.45246 -1.39519 0
M  V30 13755 C 1334.89 2.2586 -2.63036 0
M  V30 13756 C 1333.95 1.94234 -3.82847 0
M  V30 13757 C 1333.19 3.15075 -4.30771 0
M  V30 13758 O 1333.41 4.27212 -3.7795 0
M  V30 13759 O 1332.34 2.98291 -5.22787 0
M  V30 13760 H 1336.17 0.551194 -2.98656 0
M  V30 13761 H 1333.75 0.206264 -1.47969 0
M  V30 13762 H 1335.64 3.0038 -2.9555 0
M  V30 13763 H 1334.31 2.68923 -1.80173 0
M  V30 13764 H 1333.22 1.17148 -3.55285 0
M  V30 13765 H 1334.55 1.55999 -4.66824 0
M  V30 13766 N 1336.2 1.55448 0.259558 0
M  V30 13767 C 1337.45 1.76337 0.987396 0
M  V30 13768 C 1337.77 0.57505 1.86328 0
M  V30 13769 O 1337.04 -0.409621 1.9157 0
M  V30 13770 H 1335.62 0.650312 0.367565 0
M  V30 13771 H 1338.28 1.9287 0.280551 0
M  V30 13772 H 1337.38 2.66975 1.61651 0
M  V30 13773 N 1337.68 -0.524672 1.4861 0
M  V30 13774 C 1338.91 -1.30292 1.60335 0
M  V30 13775 C 1339.32 -1.87338 0.264774 0
M  V30 13776 O 1338.66 -1.67388 -0.756756 0
M  V30 13777 C 1338.72 -2.48809 2.59488 0
M  V30 13778 C 1338.39 -2.12811 4.04426 0
M  V30 13779 C 1339.38 -1.68171 4.9195 0
M  V30 13780 C 1337.07 -2.23171 4.5 0
M  V30 13781 C 1339.06 -1.34363 6.23077 0
M  V30 13782 C 1336.75 -1.88975 5.81147 0
M  V30 13783 C 1337.75 -1.44643 6.67508 0
M  V30 13784 O 1337.44 -1.10898 7.96214 0
M  V30 13785 H 1337.17 -0.402288 0.543268 0
M  V30 13786 H 1339.72 -0.63908 1.95205 0
M  V30 13787 H 1337.95 -3.18192 2.19751 0
M  V30 13788 H 1339.64 -3.10866 2.60992 0
M  V30 13789 H 1340.41 -1.59632 4.57977 0
M  V30 13790 H 1336.29 -2.56632 3.82963 0
M  V30 13791 H 1339.83 -0.996875 6.90441 0
M  V30 13792 H 1335.73 -1.97156 6.14654 0
M  V30 13793 H 1336.5 -1.2425 8.09014 0
M  V30 13794 N 1339.16 -1.37287 -0.77395 0
M  V30 13795 C 1340.4 -1.3257 -1.5347 0
M  V30 13796 C 1340.74 0.090346 -1.9399 0
M  V30 13797 O 1340.01 1.04719 -1.63903 0
M  V30 13798 C 1340.3 -2.26277 -2.80126 0
M  V30 13799 C 1340.15 -3.76651 -2.45874 0
M  V30 13800 C 1341.47 -2.18471 -3.82045 0
M  V30 13801 H 1338.59 -0.48289 -0.556764 0
M  V30 13802 H 1341.23 -1.6797 -0.888039 0
M  V30 13803 H 1339.38 -1.96219 -3.35306 0
M  V30 13804 H 1341.05 -4.17296 -1.96626 0
M  V30 13805 H 1339.29 -3.95327 -1.78602 0
M  V30 13806 H 1339.96 -4.3765 -3.36403 0
M  V30 13807 H 1342.44 -2.44962 -3.36352 0
M  V30 13808 H 1341.32 -2.86183 -4.68392 0
M  V30 13809 H 1341.58 -1.17692 -4.26147 0
M  V30 13810 N 1340.64 0.999871 -1.21821 0
M  V30 13811 C 1341.58 2.08864 -0.98206 0
M  V30 13812 C 1342.55 1.65835 0.0937677 0
M  V30 13813 O 1343.74 1.90722 -0.0544038 0
M  V30 13814 C 1340.88 3.40553 -0.558382 0
M  V30 13815 C 1339.99 3.96964 -1.70422 0
M  V30 13816 C 1339.13 5.16782 -1.2292 0
M  V30 13817 C 1338.17 5.65315 -2.34703 0
M  V30 13818 N 1337.3 6.76379 -1.88299 0
M  V30 13819 H 1342.14 2.28399 -1.9141 0
M  V30 13820 H 1339.68 1.11984 -0.953837 0
M  V30 13821 H 1341.64 4.16163 -0.293955 0
M  V30 13822 H 1340.27 3.2104 0.336656 0
M  V30 13823 H 1339.32 3.18291 -2.08315 0
M  V30 13824 H 1340.63 4.2897 -2.54531 0
M  V30 13825 H 1339.79 5.99657 -0.92174 0
M  V30 13826 H 1338.52 4.86383 -0.358222 0
M  V30 13827 H 1337.53 4.81033 -2.66246 0
M  V30 13828 H 1338.75 5.97742 -3.22306 0
M  V30 13829 H 1336.7 6.47775 -1.03552 0
M  V30 13830 H 1336.62 7.07666 -2.65978 0
M  V30 13831 H 1337.89 7.62776 -1.60601 0
M  V30 13832 N 1342.11 1.02678 1.19562 0
M  V30 13833 C 1343.36 0.723086 1.89471 0
M  V30 13834 C 1343.69 -0.746269 1.79289 0
M  V30 13835 O 1342.97 -1.54322 1.18384 0
M  V30 13836 C 1343.25 1.17224 3.40486 0
M  V30 13837 C 1343.1 2.70266 3.5955 0
M  V30 13838 C 1344.42 0.751397 4.33638 0
M  V30 13839 H 1341.54 0.264155 0.688034 0
M  V30 13840 H 1344.18 1.27633 1.40747 0
M  V30 13841 H 1342.33 0.701544 3.82113 0
M  V30 13842 H 1344.01 3.25266 3.27108 0
M  V30 13843 H 1342.25 3.10758 3.02675 0
M  V30 13844 H 1342.92 2.96748 4.65451 0
M  V30 13845 H 1345.4 1.15621 3.99714 0
M  V30 13846 H 1344.27 1.09358 5.37896 0
M  V30 13847 H 1344.53 -0.346367 4.40741 0
M  V30 13848 N 1343.59 -1.35528 0.804364 0
M  V30 13849 C 1344.82 -2.03073 0.396091 0
M  V30 13850 C 1345.24 -1.60623 -0.992252 0
M  V30 13851 O 1344.59 -0.802718 -1.63898 0
M  V30 13852 C 1344.64 -3.58467 0.467301 0
M  V30 13853 O 1344.36 -3.99373 1.80091 0
M  V30 13854 C 1345.87 -4.4327 0.0515549 0
M  V30 13855 H 1343.09 -0.651346 0.161212 0
M  V30 13856 H 1345.63 -1.73195 1.08737 0
M  V30 13857 H 1343.78 -3.87001 -0.175703 0
M  V30 13858 H 1344.2 -4.94013 1.76214 0
M  V30 13859 H 1345.67 -5.51789 0.152499 0
M  V30 13860 H 1346.15 -4.27597 -1.00286 0
M  V30 13861 H 1346.76 -4.20027 0.667628 0
M  V30 13862 N 1345.07 -0.557671 -1.47404 0
M  V30 13863 C 1346.32 -0.0316382 -2.01675 0
M  V30 13864 C 1346.63 1.32656 -1.43742 0
M  V30 13865 O 1347.84 1.94253 -1.89678 0
M  V30 13866 C 1346.3 -0.00606931 -3.59899 0
M  V30 13867 C 1345.9 -1.36106 -4.26825 0
M  V30 13868 C 1347.65 0.467332 -4.2192 0
M  V30 13869 C 1345.55 -1.29457 -5.77057 0
M  V30 13870 H 1344.48 -0.00805738 -0.753957 0
M  V30 13871 H 1347.14 -0.705592 -1.69392 0
M  V30 13872 H 1345.52 0.733541 -3.89147 0
M  V30 13873 H 1346.69 -2.11842 -4.09218 0
M  V30 13874 H 1345.01 -1.77243 -3.76794 0
M  V30 13875 H 1347.6 0.535478 -5.32012 0
M  V30 13876 H 1347.95 1.47942 -3.89126 0
M  V30 13877 H 1348.48 -0.217434 -3.97205 0
M  V30 13878 H 1345.22 -2.28267 -6.14471 0
M  V30 13879 H 1344.74 -0.579022 -5.96999 0
M  V30 13880 H 1346.42 -0.996834 -6.39275 0
M  V30 13881 N 1346.55 1.54831 -0.294147 0
M  V30 13882 C 1347.46 2.26939 0.594621 0
M  V30 13883 C 1348.48 1.30209 1.15419 0
M  V30 13884 O 1349.65 1.6318 1.18044 0
M  V30 13885 C 1346.72 2.9909 1.75345 0
M  V30 13886 C 1345.78 4.11342 1.22865 0
M  V30 13887 C 1345.01 4.80043 2.33225 0
M  V30 13888 O 1345.23 4.48062 3.52983 0
M  V30 13889 O 1344.17 5.67593 2.00304 0
M  V30 13890 H 1347.99 3.03698 0.00989235 0
M  V30 13891 H 1345.58 1.49276 -0.0608528 0
M  V30 13892 H 1347.46 3.44369 2.42875 0
M  V30 13893 H 1346.14 2.25232 2.32492 0
M  V30 13894 H 1345.04 3.70478 0.519279 0
M  V30 13895 H 1346.38 4.87158 0.702703 0
M  V30 13896 N 1348.03 0.0217466 1.57585 0
M  V30 13897 C 1348.99 -0.947546 2.08696 0
M  V30 13898 C 1349.99 -1.25879 1.00055 0
M  V30 13899 O 1351.18 -1.20035 1.26242 0
M  V30 13900 C 1348.31 -2.26624 2.54665 0
M  V30 13901 H 1349.51 -0.505016 2.95617 0
M  V30 13902 H 1347.06 -0.226152 1.54655 0
M  V30 13903 H 1347.79 -2.75521 1.71052 0
M  V30 13904 H 1347.58 -2.05347 3.34028 0
M  V30 13905 H 1349.07 -2.96114 2.94459 0
M  V30 13906 N 1349.51 -1.55583 -0.251311 0
M  V30 13907 C 1350.42 -1.93073 -1.33266 0
M  V30 13908 C 1351.43 -0.830612 -1.52895 0
M  V30 13909 O 1352.61 -1.13162 -1.66602 0
M  V30 13910 C 1349.67 -2.21396 -2.66805 0
M  V30 13911 C 1348.73 -3.44815 -2.55737 0
M  V30 13912 C 1347.97 -3.71777 -3.82907 0
M  V30 13913 O 1348.19 -3.00884 -4.84587 0
M  V30 13914 O 1347.12 -4.65305 -3.81805 0
M  V30 13915 H 1350.95 -2.85168 -1.04465 0
M  V30 13916 H 1348.53 -1.42408 -0.451693 0
M  V30 13917 H 1350.42 -2.4094 -3.45725 0
M  V30 13918 H 1349.09 -1.3248 -2.95348 0
M  V30 13919 H 1348 -3.30582 -1.75118 0
M  V30 13920 H 1349.33 -4.34019 -2.32139 0
M  V30 13921 N 1350.98 0.516783 -1.48886 0
M  V30 13922 C 1351.89 1.6467 -1.67095 0
M  V30 13923 C 1352.91 1.64963 -0.553466 0
M  V30 13924 O 1354.09 1.83673 -0.826206 0
M  V30 13925 C 1351.15 3.01095 -1.71879 0
M  V30 13926 C 1350.21 3.11554 -2.95352 0
M  V30 13927 C 1349.44 4.41471 -2.99898 0
M  V30 13928 O 1349.67 5.29348 -2.12477 0
M  V30 13929 O 1348.6 4.56573 -3.92205 0
M  V30 13930 H 1352.43 1.52242 -2.62785 0
M  V30 13931 H 1350.01 0.69134 -1.32442 0
M  V30 13932 H 1351.89 3.82207 -1.77471 0
M  V30 13933 H 1350.57 3.1382 -0.793656 0
M  V30 13934 H 1349.48 2.29689 -2.95286 0
M  V30 13935 H 1350.81 3.03751 -3.87294 0
M  V30 13936 N 1352.46 1.37696 0.766659 0
M  V30 13937 C 1353.71 1.32922 1.52237 0
M  V30 13938 C 1354.03 -0.0842833 1.94818 0
M  V30 13939 O 1353.3 -1.02934 1.66677 0
M  V30 13940 H 1351.88 0.489049 0.564659 0
M  V30 13941 H 1354.54 1.72238 0.912142 0
M  V30 13942 H 1353.64 1.97158 2.4194 0
M  V30 13943 N 1353.94 -0.993397 1.22349 0
M  V30 13944 C 1355.16 -1.77373 1.07488 0
M  V30 13945 C 1355.59 -1.84418 -0.37034 0
M  V30 13946 O 1354.95 -1.29629 -1.26752 0
M  V30 13947 C 1355 -3.18538 1.69014 0
M  V30 13948 O 1354.1 -4.01463 0.943474 0
M  V30 13949 H 1353.44 -0.546209 0.37756 0
M  V30 13950 H 1355.97 -1.24792 1.62136 0
M  V30 13951 H 1355.98 -3.6917 1.73717 0
M  V30 13952 H 1354.66 -3.12725 2.74182 0
M  V30 13953 H 1353.23 -3.59998 0.972415 0
M  V30 13954 N 1355.42 -1.03311 -1.19015 0
M  V30 13955 C 1356.35 -0.575655 -2.21853 0
M  V30 13956 C 1357.36 0.350705 -1.58978 0
M  V30 13957 O 1358.55 0.146425 -1.77898 0
M  V30 13958 C 1355.65 0.179949 -3.38422 0
M  V30 13959 C 1354.82 -0.752403 -4.3088 0
M  V30 13960 C 1353.88 -0.0414484 -5.26184 0
M  V30 13961 O 1352.91 -0.669403 -5.6525 0
M  V30 13962 N 1354.11 1.22783 -5.67366 0
M  V30 13963 H 1356.88 -1.46013 -2.61726 0
M  V30 13964 H 1354.44 -0.912655 -1.33724 0
M  V30 13965 H 1356.43 0.66522 -3.99195 0
M  V30 13966 H 1355 0.965879 -2.97304 0
M  V30 13967 H 1354.22 -1.41768 -3.67825 0
M  V30 13968 H 1355.51 -1.38592 -4.89561 0
M  V30 13969 H 1354.91 1.75867 -5.37668 0
M  V30 13970 H 1353.46 1.65752 -6.30372 0
M  V30 13971 N 1356.9 1.35099 -0.81154 0
M  V30 13972 C 1357.83 2.32264 -0.239925 0
M  V30 13973 C 1358.81 1.57708 0.637354 0
M  V30 13974 O 1359.99 1.85751 0.566598 0
M  V30 13975 C 1357.12 3.41931 0.608325 0
M  V30 13976 C 1356.08 4.27659 -0.170869 0
M  V30 13977 C 1355.4 5.28691 0.799398 0
M  V30 13978 C 1356.7 5.0394 -1.37266 0
M  V30 13979 H 1358.4 2.8032 -1.05172 0
M  V30 13980 H 1355.94 1.34773 -0.507185 0
M  V30 13981 H 1357.89 4.08911 1.01832 0
M  V30 13982 H 1356.62 2.92496 1.45306 0
M  V30 13983 H 1355.28 3.62265 -0.562094 0
M  V30 13984 H 1354.93 4.75521 1.63977 0
M  V30 13985 H 1354.63 5.86921 0.282331 0
M  V30 13986 H 1356.15 5.98542 1.20749 0
M  V30 13987 H 1357.56 5.63838 -1.03728 0
M  V30 13988 H 1355.96 5.7169 -1.82456 0
M  V30 13989 H 1357.03 4.34295 -2.15676 0
M  V30 13990 N 1358.37 0.56548 1.47106 0
M  V30 13991 C 1359.79 0.225855 1.57994 0
M  V30 13992 C 1359.99 -1.27173 1.56299 0
M  V30 13993 O 1359.05 -2.05242 1.47078 0
M  V30 13994 C 1360.36 0.859829 2.88145 0
M  V30 13995 C 1361.91 0.831821 3.01744 0
M  V30 13996 C 1362.38 1.44502 4.34607 0
M  V30 13997 N 1363.87 1.40857 4.41263 0
M  V30 13998 C 1364.61 1.85258 5.42648 0
M  V30 13999 N 1364.1 2.37553 6.508 0
M  V30 14000 N 1365.9 1.76279 5.33744 0
M  V30 14001 H 1358.05 1.53837 1.46451 0
M  V30 14002 H 1360.31 0.642013 0.697512 0
M  V30 14003 H 1360.02 1.91264 2.95146 0
M  V30 14004 H 1359.89 0.357762 3.755 0
M  V30 14005 H 1362.28 -0.212319 2.94335 0
M  V30 14006 H 1362.36 1.37173 2.1591 0
M  V30 14007 H 1362 2.48827 4.42773 0
M  V30 14008 H 1361.93 0.880479 5.19187 0
M  V30 14009 H 1364.42 1.02614 3.63702 0
M  V30 14010 H 1364.74 2.69335 7.24347 0
M  V30 14011 H 1363.08 2.41569 6.51667 0
M  V30 14012 H 1366.27 1.35195 4.48152 0
M  V30 14013 H 1366.45 2.11199 6.12616 0
M  V30 14014 N 1359.85 -1.54672 0.302354 0
M  V30 14015 C 1360.82 -2.22246 -0.560283 0
M  V30 14016 C 1361.82 -1.20895 -1.06023 0
M  V30 14017 O 1363.01 -1.45621 -0.956047 0
M  V30 14018 C 1360.14 -2.9099 -1.77589 0
M  V30 14019 H 1361.33 -2.99885 0.0301274 0
M  V30 14020 H 1358.88 -1.56209 0.0532036 0
M  V30 14021 H 1359.62 -2.17433 -2.4061 0
M  V30 14022 H 1359.4 -3.65288 -1.42503 0
M  V30 14023 H 1360.89 -3.42535 -2.38871 0
M  V30 14024 N 1361.33 -0.0301034 -1.57571 0
M  V30 14025 C 1362.29 0.936465 -2.09196 0
M  V30 14026 C 1363.29 1.25347 -1.00722 0
M  V30 14027 O 1364.48 1.19364 -1.26877 0
M  V30 14028 C 1361.62 2.2527 -2.55864 0
M  V30 14029 H 1362.81 0.489332 -2.95881 0
M  V30 14030 H 1360.36 0.217948 -1.54773 0
M  V30 14031 H 1361.1 2.7461 -1.72511 0
M  V30 14032 H 1360.88 2.03573 -3.35113 0
M  V30 14033 H 1362.37 2.94549 -2.96025 0
M  V30 14034 N 1362.81 1.55714 0.243056 0
M  V30 14035 C 1364.06 1.77726 0.970555 0
M  V30 14036 C 1364.38 0.595108 1.85172 0
M  V30 14037 O 1363.64 -0.42143 1.91108 0
M  V30 14038 C 1363.94 3.05281 1.85845 0
M  V30 14039 C 1363.6 4.36451 1.13232 0
M  V30 14040 C 1362.27 4.72095 0.931656 0
M  V30 14041 C 1364.62 5.17524 0.617944 0
M  V30 14042 C 1361.95 5.86344 0.204373 0
M  V30 14043 C 1364.3 6.32527 -0.0958899 0
M  V30 14044 C 1362.96 6.66789 -0.308 0
M  V30 14045 H 1362.23 0.650345 0.355151 0
M  V30 14046 H 1364.88 1.89986 0.240351 0
M  V30 14047 H 1363.18 2.8805 2.65584 0
M  V30 14048 H 1364.88 3.19511 2.4231 0
M  V30 14049 H 1361.47 4.08451 1.29867 0
M  V30 14050 H 1365.65 4.90439 0.760507 0
M  V30 14051 H 1360.91 6.11393 0.0296 0
M  V30 14052 H 1365.08 6.94588 -0.502077 0
M  V30 14053 H 1362.71 7.55165 -0.873502 0
M  V30 14054 N 1364.29 -0.50888 1.49158 0
M  V30 14055 C 1365.23 -1.63216 1.6572 0
M  V30 14056 C 1366.23 -1.61117 0.523236 0
M  V30 14057 O 1367.43 -1.6572 0.702629 0
M  V30 14058 H 1363.81 -0.540909 0.522419 0
M  V30 14059 H 1365.78 -1.46397 2.6002 0
M  V30 14060 C 1364.53 -3.01393 1.73372 0
M  V30 14061 H 1363.85 -3.03711 2.6 0
M  V30 14062 H 1365.29 -3.79547 1.88998 0
M  V30 14063 C 1363.75 -3.33509 0.47683 0
M  V30 14064 O 1364.28 -3.99694 -0.400986 0
M  V30 14065 N 1362.49 -2.88579 0.342145 0
M  V30 14066 H 1362.03 -2.34894 1.05747 0
M  V30 14067 H 1361.99 -3.10435 -0.497757 0
M  V30 14068 N 1365.76 -1.381 -0.759346 0
M  V30 14069 C 1366.71 -1.34972 -1.89434 0
M  V30 14070 C 1367.71 -0.236499 -1.67741 0
M  V30 14071 O 1368.91 -0.405218 -1.7538 0
M  V30 14072 H 1365.29 -0.420922 -0.62316 0
M  V30 14073 H 1367.26 -2.3076 -1.89189 0
M  V30 14074 C 1366.01 -1.18594 -3.2685 0
M  V30 14075 H 1365.33 -2.03514 -3.44125 0
M  V30 14076 H 1366.77 -1.20458 -4.06529 0
M  V30 14077 C 1365.23 0.107562 -3.36728 0
M  V30 14078 O 1365.76 1.08668 -3.86722 0
M  V30 14079 N 1363.97 0.162455 -2.90146 0
M  V30 14080 H 1363.51 -0.634985 -2.49651 0
M  V30 14081 H 1363.47 1.02751 -2.97136 0
M  V30 14082 N 1367.24 0.986894 -1.22875 0
M  V30 14083 C 1368.49 1.72388 -1.05484 0
M  V30 14084 C 1368.81 1.90639 0.410074 0
M  V30 14085 O 1368.08 1.47036 1.2945 0
M  V30 14086 H 1366.66 0.638732 -0.387337 0
M  V30 14087 H 1369.32 1.18829 -1.54485 0
M  V30 14088 H 1368.42 2.71599 -1.53754 0
M  V30 14089 N 1368.72 1.0394 1.18466 0
M  V30 14090 C 1369.95 0.761926 1.92897 0
M  V30 14091 C 1370.37 -0.674618 1.75586 0
M  V30 14092 O 1369.73 -1.46711 1.06515 0
M  V30 14093 C 1369.78 1.13152 3.42387 0
M  V30 14094 O 1368.88 0.256266 4.11603 0
M  V30 14095 H 1368.22 0.280527 0.601831 0
M  V30 14096 H 1370.75 1.3889 1.50235 0
M  V30 14097 H 1370.76 1.0929 3.9309 0
M  V30 14098 H 1369.44 2.17804 3.54308 0
M  V30 14099 H 1368.01 0.354392 3.71212 0
M  V30 14100 N 1370.2 -1.34667 0.818693 0
M  V30 14101 C 1371.45 -1.98022 0.40396 0
M  V30 14102 C 1371.77 -1.65239 -1.03542 0
M  V30 14103 O 1371.04 -0.94097 -1.71821 0
M  V30 14104 H 1369.62 -0.732517 0.146382 0
M  V30 14105 H 1372.28 -1.64377 1.0472 0
M  V30 14106 H 1371.38 -3.07746 0.519516 0
M  V30 14107 N 1371.68 -0.573274 -1.46804 0
M  V30 14108 C 1372.61 0.20305 -2.28299 0
M  V30 14109 C 1373.62 0.864367 -1.37958 0
M  V30 14110 O 1374.81 0.735516 -1.62642 0
M  V30 14111 C 1371.91 1.30633 -3.12711 0
M  V30 14112 C 1371.08 0.738741 -4.31116 0
M  V30 14113 C 1370.14 1.72853 -4.96999 0
M  V30 14114 O 1369.17 1.2683 -5.5489 0
M  V30 14115 N 1370.37 3.06239 -4.93151 0
M  V30 14116 H 1373.14 -0.496086 -2.95566 0
M  V30 14117 H 1370.7 -0.410411 -1.56612 0
M  V30 14118 H 1372.69 1.96755 -3.53652 0
M  V30 14119 H 1371.26 1.90846 -2.47581 0
M  V30 14120 H 1370.48 -0.0996941 -3.94074 0
M  V30 14121 H 1371.77 0.339154 -5.07668 0
M  V30 14122 H 1371.16 3.46262 -4.47347 0
M  V30 14123 H 1369.72 3.67876 -5.38062 0
M  V30 14124 N 1373.15 1.5451 -0.310553 0
M  V30 14125 C 1374.4 2.01334 0.289169 0
M  V30 14126 C 1374.76 1.195 1.5079 0
M  V30 14127 O 1374.05 0.265743 1.89748 0
M  V30 14128 C 1374.24 3.5072 0.68779 0
M  V30 14129 C 1374.07 4.47014 -0.490764 0
M  V30 14130 C 1372.84 4.95591 -0.98579 0
M  V30 14131 C 1375.04 4.96569 -1.3388 0
M  V30 14132 N 1373.02 5.7576 -2.13011 0
M  V30 14133 C 1374.39 5.74534 -2.33047 0
M  V30 14134 C 1376.45 4.78736 -1.36807 0
M  V30 14135 C 1375.15 6.36565 -3.3493 0
M  V30 14136 C 1377.18 5.41593 -2.37553 0
M  V30 14137 C 1376.54 6.19398 -3.35448 0
M  V30 14138 H 1372.64 0.77886 0.070013 0
M  V30 14139 H 1375.22 1.89602 -0.442639 0
M  V30 14140 H 1373.39 3.62723 1.38875 0
M  V30 14141 H 1375.12 3.84327 1.26787 0
M  V30 14142 H 1371.88 4.70287 -0.559195 0
M  V30 14143 H 1372.3 6.20526 -2.70696 0
M  V30 14144 H 1376.95 4.18156 -0.624923 0
M  V30 14145 H 1374.66 6.96273 -4.10158 0
M  V30 14146 H 1378.25 5.29718 -2.40603 0
M  V30 14147 H 1377.13 6.67173 -4.12128 0
M  V30 14148 N 1374.63 0.0384594 1.57553 0
M  V30 14149 C 1375.91 -0.677308 1.83499 0
M  V30 14150 C 1376.29 -1.89789 0.924294 0
M  V30 14151 O 1375.64 -2.28493 -0.0178185 0
M  V30 14152 C 1375.85 -1.04667 3.32935 0
M  V30 14153 C 1377.2 -1.43436 3.99639 0
M  V30 14154 O 1378.22 -1.13938 3.37486 0
M  V30 14155 O 1377.08 -1.98435 5.09201 0
M  V30 14156 H 1374.17 -0.333131 0.756936 0
M  V30 14157 H 1376.72 0.066854 1.69568 0
M  V30 14158 H 1375.49 -0.178349 3.90893 0
M  V30 14159 H 1375.11 -1.8487 3.52007 0
M  V30 14160 N 1376.11 -1.55841 -0.234795 0
M  V30 14161 C 1377.06 -1.92165 -1.31055 0
M  V30 14162 C 1378.05 -0.802106 -1.49207 0
M  V30 14163 O 1379.26 -0.986832 -1.50538 0
M  V30 14164 H 1375.63 -0.610487 -0.439101 0
M  V30 14165 H 1377.61 -2.81955 -0.976926 0
M  V30 14166 C 1376.35 -2.24329 -2.65654 0
M  V30 14167 H 1375.68 -3.09982 -2.5249 0
M  V30 14168 H 1377.12 -2.53639 -3.3977 0
M  V30 14169 C 1375.58 -1.0638 -3.19664 0
M  V30 14170 O 1376.11 -0.318047 -4.00439 0
M  V30 14171 N 1374.31 -0.851167 -2.77855 0
M  V30 14172 H 1373.86 -1.45932 -2.12277 0
M  V30 14173 H 1373.82 -0.0636875 -3.14335 0
M  V30 14174 N 1377.59 0.500963 -1.49426 0
M  V30 14175 C 1378.54 1.62335 -1.66584 0
M  V30 14176 C 1379.53 1.60837 -0.531773 0
M  V30 14177 O 1380.74 1.65345 -0.711408 0
M  V30 14178 H 1377.11 0.538131 -0.52528 0
M  V30 14179 H 1379.08 1.45016 -2.60793 0
M  V30 14180 C 1377.83 3.00469 -1.74968 0
M  V30 14181 H 1377.16 3.02328 -2.61607 0
M  V30 14182 H 1378.6 3.78539 -1.91008 0
M  V30 14183 C 1377.05 3.33251 -0.49451 0
M  V30 14184 O 1377.58 3.99901 0.379783 0
M  V30 14185 N 1375.79 2.88393 -0.357445 0
M  V30 14186 H 1375.34 2.3433 -1.06991 0
M  V30 14187 H 1375.3 3.10694 0.481287 0
M  V30 14188 N 1379.07 1.38501 0.752011 0
M  V30 14189 C 1380 1.31746 1.87551 0
M  V30 14190 C 1381.01 0.229386 1.61176 0
M  V30 14191 O 1382.2 0.487066 1.71726 0
M  V30 14192 C 1379.3 1.01889 3.23221 0
M  V30 14193 C 1378.47 2.21637 3.77088 0
M  V30 14194 C 1377.53 1.885 4.91278 0
M  V30 14195 O 1376.56 2.61011 5.05828 0
M  V30 14196 N 1377.76 0.840909 5.74377 0
M  V30 14197 H 1380.53 2.28561 1.93856 0
M  V30 14198 H 1378.09 1.32383 0.932013 0
M  V30 14199 H 1380.08 0.777704 3.97157 0
M  V30 14200 H 1378.65 0.138658 3.12292 0
M  V30 14201 H 1377.87 2.61812 2.947 0
M  V30 14202 H 1379.16 3.01551 4.0981 0
M  V30 14203 H 1378.56 0.23962 5.65192 0
M  V30 14204 H 1377.11 0.659604 6.48454 0
M  V30 14205 N 1380.55 -0.980364 1.23396 0
M  V30 14206 C 1381.79 -1.71826 1.06397 0
M  V30 14207 C 1382.11 -1.90854 -0.399958 0
M  V30 14208 O 1381.38 -1.47721 -1.28668 0
M  V30 14209 H 1379.96 -0.636669 0.390719 0
M  V30 14210 H 1382.63 -1.18008 1.55113 0
M  V30 14211 H 1381.72 -2.7078 1.55192 0
M  V30 14212 N 1382.02 -1.04567 -1.17913 0
M  V30 14213 C 1383.44 -0.76584 -1.40025 0
M  V30 14214 C 1383.64 0.642484 -1.90983 0
M  V30 14215 O 1382.7 1.40589 -2.0974 0
M  V30 14216 C 1384.01 -1.81616 -2.39658 0
M  V30 14217 C 1385.56 -1.83765 -2.53376 0
M  V30 14218 C 1386.03 -2.87803 -3.56277 0
M  V30 14219 N 1387.52 -2.86726 -3.63789 0
M  V30 14220 C 1388.26 -3.63876 -4.4315 0
M  V30 14221 N 1387.75 -4.50793 -5.26077 0
M  V30 14222 N 1389.55 -3.52344 -4.37962 0
M  V30 14223 H 1381.7 -1.95442 -0.831647 0
M  V30 14224 H 1383.96 -0.84593 -0.42791 0
M  V30 14225 H 1383.67 -2.8266 -2.09275 0
M  V30 14226 H 1383.54 -1.65251 -3.39075 0
M  V30 14227 H 1385.93 -0.833896 -2.83073 0
M  V30 14228 H 1386.01 -2.04208 -1.54055 0
M  V30 14229 H 1385.65 -3.88361 -3.2732 0
M  V30 14230 H 1385.58 -2.64614 -4.55288 0
M  V30 14231 H 1388.07 -2.237 -3.04576 0
M  V30 14232 H 1388.39 -5.0636 -5.83798 0
M  V30 14233 H 1386.73 -4.54858 -5.2548 0
M  V30 14234 H 1389.92 -2.8384 -3.72226 0
M  V30 14235 H 1390.1 -4.12718 -4.99568 0
M  V30 14236 N 1383.5 1.34231 -0.825823 0
M  V30 14237 C 1384.78 1.92662 -0.337743 0
M  V30 14238 C 1385.16 1.75358 1.17529 0
M  V30 14239 O 1384.51 1.13405 1.98372 0
M  V30 14240 C 1384.72 3.40394 -0.770269 0
M  V30 14241 C 1386.06 4.17546 -0.770767 0
M  V30 14242 O 1387.09 3.4899 -0.713035 0
M  V30 14243 O 1385.95 5.39903 -0.846602 0
M  V30 14244 H 1383.04 0.821768 -0.0928741 0
M  V30 14245 H 1385.59 1.43187 -0.910807 0
M  V30 14246 H 1384.36 3.46802 -1.81228 0
M  V30 14247 H 1383.98 3.97223 -0.17306 0
M  V30 14248 N 1384.98 0.581051 1.46498 0
M  V30 14249 C 1386.21 0.0714615 2.06476 0
M  V30 14250 C 1386.62 -1.23815 1.43061 0
M  V30 14251 O 1385.96 -1.75903 0.529504 0
M  V30 14252 C 1386.02 -0.170353 3.59096 0
M  V30 14253 C 1385.69 1.05341 4.44694 0
M  V30 14254 C 1386.68 1.96503 4.81334 0
M  V30 14255 C 1384.37 1.27479 4.85854 0
M  V30 14256 C 1386.36 3.08154 5.57961 0
M  V30 14257 C 1384.05 2.39434 5.62241 0
M  V30 14258 C 1385.05 3.29601 5.98207 0
M  V30 14259 O 1384.74 4.39612 6.7305 0
M  V30 14260 H 1384.47 0.0537502 0.67386 0
M  V30 14261 H 1387.02 0.800993 1.89138 0
M  V30 14262 H 1385.25 -0.954477 3.74735 0
M  V30 14263 H 1386.94 -0.628248 4.01009 0
M  V30 14264 H 1387.71 1.80615 4.50115 0
M  V30 14265 H 1383.59 0.582051 4.57311 0
M  V30 14266 H 1387.13 3.78557 5.85953 0
M  V30 14267 H 1383.03 2.55286 5.92874 0
M  V30 14268 H 1383.79 4.37959 6.91473 0
M  V30 14269 N 1386.46 -1.54343 0.318742 0
M  V30 14270 C 1387.73 -1.92635 -0.339299 0
M  V30 14271 C 1388.11 -1.24786 -1.7027 0
M  V30 14272 O 1387.46 -0.389844 -2.2515 0
M  V30 14273 C 1387.67 -3.46262 -0.436318 0
M  V30 14274 C 1389.02 -4.18809 -0.698871 0
M  V30 14275 O 1390.04 -3.52392 -0.519431 0
M  V30 14276 O 1388.9 -5.36422 -1.04471 0
M  V30 14277 H 1386 -0.804202 -0.192841 0
M  V30 14278 H 1388.54 -1.6566 0.368104 0
M  V30 14279 H 1387.32 -3.8781 0.521427 0
M  V30 14280 H 1386.94 -3.79327 -1.19149 0
M  V30 14281 N 1387.94 -0.0468143 -1.5753 0
M  V30 14282 C 1389.18 0.627939 -1.92518 0
M  V30 14283 C 1389.51 1.71107 -0.924801 0
M  V30 14284 O 1388.77 1.95597 0.0635812 0
M  V30 14285 C 1389.06 1.26669 -3.342 0
M  V30 14286 C 1388.73 0.312184 -4.49818 0
M  V30 14287 C 1387.39 0.0495202 -4.81175 0
M  V30 14288 C 1389.74 -0.342228 -5.20075 0
M  V30 14289 C 1387.07 -0.875064 -5.80137 0
M  V30 14290 C 1389.42 -1.25498 -6.20027 0
M  V30 14291 C 1388.09 -1.52636 -6.49814 0
M  V30 14292 H 1387.36 0.229779 -0.704473 0
M  V30 14293 H 1390.01 -0.112363 -1.9117 0
M  V30 14294 H 1388.31 2.08215 -3.31894 0
M  V30 14295 H 1390.01 1.79563 -3.5855 0
M  V30 14296 H 1386.6 0.527088 -4.25347 0
M  V30 14297 H 1390.78 -0.152384 -4.96066 0
M  V30 14298 H 1386.04 -1.09284 -6.01554 0
M  V30 14299 H 1390.21 -1.76815 -6.7358 0
M  V30 14300 H 1387.84 -2.24443 -7.26312 0
M  V30 14301 N 1389.41 1.55964 0.226527 0
M  V30 14302 C 1390.64 1.83168 0.972846 0
M  V30 14303 C 1391.06 0.626512 1.7736 0
M  V30 14304 O 1390.42 -0.42468 1.76256 0
M  V30 14305 C 1390.47 3.08315 1.87014 0
M  V30 14306 O 1389.57 2.8666 2.96479 0
M  V30 14307 H 1388.92 0.604041 0.275736 0
M  V30 14308 H 1391.45 2.03172 0.241345 0
M  V30 14309 H 1391.46 3.38288 2.28091 0
M  V30 14310 H 1390.13 3.95663 1.28154 0
M  V30 14311 H 1388.71 2.67907 2.59384 0
M  V30 14312 N 1390.89 -0.493031 1.4969 0
M  V30 14313 C 1392.12 -1.27517 1.63567 0
M  V30 14314 C 1392.54 -1.85526 0.310105 0
M  V30 14315 O 1391.9 -1.66246 -0.723314 0
M  V30 14316 C 1391.95 -2.37551 2.71296 0
M  V30 14317 O 1391.05 -3.41617 2.31023 0
M  V30 14318 H 1390.39 -0.376116 0.547205 0
M  V30 14319 H 1392.92 -0.589328 1.95929 0
M  V30 14320 H 1392.93 -2.83196 2.93708 0
M  V30 14321 H 1391.61 -1.94697 3.67513 0
M  V30 14322 H 1390.19 -3.01836 2.18974 0
M  V30 14323 N 1392.37 -1.38898 -0.744656 0
M  V30 14324 C 1393.62 -1.35327 -1.50104 0
M  V30 14325 C 1393.94 0.0532788 -1.94927 0
M  V30 14326 O 1393.21 1.0027 -1.68294 0
M  V30 14327 H 1391.79 -0.49797 -0.556808 0
M  V30 14328 H 1394.45 -1.73667 -0.884625 0
M  V30 14329 H 1393.55 -2.00983 -2.38773 0
M  V30 14330 N 1393.85 0.973806 -1.23914 0
M  V30 14331 C 1395.09 1.71852 -1.07678 0
M  V30 14332 C 1395.43 1.90357 0.384425 0
M  V30 14333 O 1394.7 1.46063 1.28436 0
M  V30 14334 C 1394.99 3.1129 -1.81026 0
M  V30 14335 C 1394.84 3.00315 -3.3486 0
M  V30 14336 C 1396.16 4.10835 -1.57805 0
M  V30 14337 H 1393.28 0.623749 -0.392564 0
M  V30 14338 H 1395.92 1.13325 -1.52504 0
M  V30 14339 H 1394.07 3.61255 -1.42922 0
M  V30 14340 H 1395.74 2.57823 -3.82524 0
M  V30 14341 H 1393.98 2.36667 -3.63553 0
M  V30 14342 H 1394.65 3.9907 -3.81376 0
M  V30 14343 H 1397.13 3.69705 -1.90939 0
M  V30 14344 H 1396.01 5.06478 -2.11591 0
M  V30 14345 H 1396.27 4.39091 -0.514894 0
M  V30 14346 N 1395.33 1.05191 1.17357 0
M  V30 14347 C 1396.28 0.623047 2.19322 0
M  V30 14348 C 1397.26 -0.340467 1.57257 0
M  V30 14349 O 1398.45 -0.157698 1.76296 0
M  V30 14350 C 1395.58 -0.000731889 3.433 0
M  V30 14351 C 1394.67 0.986608 4.12464 0
M  V30 14352 N 1395.06 2.158 4.57454 0
M  V30 14353 C 1393.36 0.815082 4.38489 0
M  V30 14354 C 1394.06 2.78262 5.10828 0
M  V30 14355 N 1393.03 2.0606 5.03031 0
M  V30 14356 H 1396.84 1.51555 2.5181 0
M  V30 14357 H 1394.35 0.922048 1.33686 0
M  V30 14358 H 1396.35 -0.325738 4.15625 0
M  V30 14359 H 1395.01 -0.888627 3.12304 0
M  V30 14360 H 1396.02 2.53634 4.51542 0
M  V30 14361 H 1392.69 -0.021765 4.17494 0
M  V30 14362 H 1394.08 3.77599 5.55759 0
M  V30 14363 N 1396.8 -1.33791 0.83293 0
M  V30 14364 C 1398.03 -2.02187 0.439077 0
M  V30 14365 C 1398.45 -1.62692 -0.957958 0
M  V30 14366 O 1397.8 -0.837302 -1.62159 0
M  V30 14367 C 1397.86 -3.57395 0.543232 0
M  V30 14368 O 1397.58 -3.95463 1.88522 0
M  V30 14369 C 1399.08 -4.43061 0.145567 0
M  V30 14370 H 1396.3 -0.64778 0.174992 0
M  V30 14371 H 1398.84 -1.7085 1.12386 0
M  V30 14372 H 1397 -3.87287 -0.0935746 0
M  V30 14373 H 1397.41 -4.90164 1.86653 0
M  V30 14374 H 1398.88 -5.51342 0.269507 0
M  V30 14375 H 1399.36 -4.29628 -0.911934 0
M  V30 14376 H 1399.97 -4.18517 0.756572 0
M  V30 14377 N 1398.28 -0.588812 -1.46187 0
M  V30 14378 C 1399.21 0.128595 -2.33146 0
M  V30 14379 C 1400.19 0.877608 -1.45712 0
M  V30 14380 O 1401.38 0.851866 -1.74519 0
M  V30 14381 C 1398.51 1.13886 -3.28096 0
M  V30 14382 C 1397.46 0.504296 -4.25019 0
M  V30 14383 C 1396.79 1.62147 -5.09522 0
M  V30 14384 C 1398.09 -0.562466 -5.19263 0
M  V30 14385 H 1399.78 -0.597455 -2.93378 0
M  V30 14386 H 1397.33 -0.288764 -1.41075 0
M  V30 14387 H 1399.28 1.64916 -3.8779 0
M  V30 14388 H 1398.01 1.89527 -2.65983 0
M  V30 14389 H 1396.66 0.0150325 -3.66597 0
M  V30 14390 H 1396.31 2.36769 -4.4379 0
M  V30 14391 H 1396.01 1.20249 -5.75164 0
M  V30 14392 H 1397.54 2.13441 -5.7208 0
M  V30 14393 H 1398.95 -0.137003 -5.73136 0
M  V30 14394 H 1397.35 -0.902115 -5.93281 0
M  V30 14395 H 1398.42 -1.4464 -4.62825 0
M  V30 14396 N 1399.76 1.54172 -0.326923 0
M  V30 14397 C 1400.72 2.2311 0.524855 0
M  V30 14398 C 1401.72 1.22567 1.04087 0
M  V30 14399 O 1402.91 1.47123 0.932759 0
M  V30 14400 C 1400.05 2.93778 1.72937 0
M  V30 14401 H 1401.24 2.99799 -0.0778327 0
M  V30 14402 H 1398.79 1.56105 -0.0780484 0
M  V30 14403 H 1399.53 2.21234 2.3712 0
M  V30 14404 H 1399.31 3.67509 1.36674 0
M  V30 14405 H 1400.8 3.46292 2.33392 0
M  V30 14406 N 1401.24 0.0551678 1.57503 0
M  V30 14407 C 1402.52 -0.657808 1.84207 0
M  V30 14408 C 1402.9 -1.88798 0.944372 0
M  V30 14409 O 1402.24 -2.28499 0.00641728 0
M  V30 14410 C 1402.45 -1.0113 3.34026 0
M  V30 14411 C 1403.8 -1.39189 4.01138 0
M  V30 14412 O 1404.83 -1.10353 3.38675 0
M  V30 14413 O 1403.68 -1.93023 5.11277 0
M  V30 14414 H 1400.78 -0.325084 0.760427 0
M  V30 14415 H 1403.32 0.0848352 1.69488 0
M  V30 14416 H 1402.1 -0.13688 3.91061 0
M  V30 14417 H 1401.72 -1.81126 3.53948 0
M  V30 14418 N 1402.72 -1.56081 -0.218252 0
M  V30 14419 C 1403.96 -1.78893 -0.940296 0
M  V30 14420 C 1404.29 -0.62425 -1.84738 0
M  V30 14421 O 1403.56 0.358686 -1.92588 0
M  V30 14422 H 1402.14 -0.659828 -0.350193 0
M  V30 14423 H 1404.8 -1.93546 -0.229316 0
M  V30 14424 H 1403.89 -2.71167 -1.54516 0
M  V30 14425 N 1404.2 0.485086 -1.49949 0
M  V30 14426 C 1405.61 0.817651 -1.37064 0
M  V30 14427 C 1405.81 1.9716 -0.415949 0
M  V30 14428 O 1404.87 2.52074 0.146567 0
M  V30 14429 C 1406.18 1.14288 -2.78134 0
M  V30 14430 C 1407.73 1.25016 -2.8695 0
M  V30 14431 C 1408.2 1.60859 -4.28822 0
M  V30 14432 N 1409.69 1.67878 -4.31707 0
M  V30 14433 C 1410.43 1.97089 -5.38464 0
M  V30 14434 N 1409.93 2.24415 -6.55446 0
M  V30 14435 N 1411.72 1.98474 -5.25894 0
M  V30 14436 H 1403.87 -0.275606 -2.10604 0
M  V30 14437 H 1406.13 -0.0607486 -0.946052 0
M  V30 14438 H 1405.84 0.36817 -3.49768 0
M  V30 14439 H 1405.71 2.0825 -3.14502 0
M  V30 14440 H 1408.1 2.01556 -2.15544 0
M  V30 14441 H 1408.18 0.290664 -2.54143 0
M  V30 14442 H 1407.82 0.848639 -5.0076 0
M  V30 14443 H 1407.75 2.57936 -4.59104 0
M  V30 14444 H 1410.25 1.48856 -3.47347 0
M  V30 14445 H 1410.56 2.45938 -7.32622 0
M  V30 14446 H 1408.9 2.21837 -6.58645 0
M  V30 14447 H 1412.09 1.76612 -4.33504 0
M  V30 14448 H 1412.27 2.20904 -6.09184 0
M  V30 14449 N 1405.67 1.39291 0.737279 0
M  V30 14450 C 1406.92 1.35702 1.49224 0
M  V30 14451 C 1407.24 -0.0450282 1.95548 0
M  V30 14452 O 1408.44 -0.203495 2.70736 0
M  V30 14453 C 1406.9 2.38387 2.69629 0
M  V30 14454 C 1406.51 3.84295 2.30263 0
M  V30 14455 C 1408.25 2.4387 3.47459 0
M  V30 14456 C 1406.16 4.78626 3.47377 0
M  V30 14457 H 1405.09 0.50449 0.560362 0
M  V30 14458 H 1407.74 1.64926 0.804466 0
M  V30 14459 H 1406.12 2.0223 3.40469 0
M  V30 14460 H 1407.29 4.2948 1.66984 0
M  V30 14461 H 1405.61 3.82085 1.6553 0
M  V30 14462 H 1408.21 3.11539 4.34566 0
M  V30 14463 H 1408.55 1.46253 3.89764 0
M  V30 14464 H 1409.08 2.78908 2.83646 0
M  V30 14465 H 1405.82 5.77497 3.10124 0
M  V30 14466 H 1405.34 4.38123 4.09645 0
M  V30 14467 H 1407.02 4.9742 4.13742 0
M  V30 14468 N 1407.15 -0.967221 1.24429 0
M  V30 14469 C 1408.08 -2.07966 1.06172 0
M  V30 14470 C 1409.06 -1.70081 -0.0254566 0
M  V30 14471 O 1410.25 -1.93682 0.141705 0
M  V30 14472 C 1407.38 -3.4085 0.666251 0
M  V30 14473 C 1406.33 -3.92692 1.70225 0
M  V30 14474 C 1405.66 -5.21925 1.16183 0
M  V30 14475 C 1406.96 -4.20478 3.09831 0
M  V30 14476 H 1408.65 -2.23497 1.99222 0
M  V30 14477 H 1406.2 -1.07398 0.959255 0
M  V30 14478 H 1408.15 -4.1811 0.52552 0
M  V30 14479 H 1406.87 -3.2522 -0.299939 0
M  V30 14480 H 1405.53 -3.17588 1.83121 0
M  V30 14481 H 1405.18 -5.02655 0.186237 0
M  V30 14482 H 1404.88 -5.57579 1.85416 0
M  V30 14483 H 1406.41 -6.01795 1.03323 0
M  V30 14484 H 1407.82 -4.88442 3.00162 0
M  V30 14485 H 1406.22 -4.67362 3.7642 0
M  V30 14486 H 1407.29 -3.27235 3.57834 0
M  V30 14487 N 1408.63 -1.05812 -1.16797 0
M  V30 14488 C 1409.85 -0.792518 -1.91661 0
M  V30 14489 C 1410.28 0.646598 -1.76637 0
M  V30 14490 O 1409.64 1.44998 -1.08836 0
M  V30 14491 C 1409.69 -1.18585 -3.40544 0
M  V30 14492 O 1408.79 -0.321716 -4.11143 0
M  V30 14493 H 1408.13 -0.290066 -0.597292 0
M  V30 14494 H 1410.66 -1.41263 -1.48007 0
M  V30 14495 H 1410.67 -1.1553 -3.91301 0
M  V30 14496 H 1409.35 -2.23413 -3.50798 0
M  V30 14497 H 1407.92 -0.413403 -3.70601 0
M  V30 14498 N 1410.11 1.33347 -0.840014 0
M  V30 14499 C 1411.36 1.97354 -0.435412 0
M  V30 14500 C 1411.68 1.66866 1.009 0
M  V30 14501 O 1410.95 0.968186 1.70303 0
M  V30 14502 H 1409.53 0.730096 -0.158017 0
M  V30 14503 H 1412.19 1.6269 -1.07322 0
M  V30 14504 H 1411.28 3.0688 -0.56841 0
M  V30 14505 N 1411.59 0.596556 1.45873 0
M  V30 14506 C 1412.81 0.0934926 2.06689 0
M  V30 14507 C 1413.23 -1.21743 1.44305 0
M  V30 14508 O 1412.59 -1.73912 0.553253 0
M  V30 14509 C 1412.64 -0.0643337 3.61443 0
M  V30 14510 O 1412.36 1.19472 4.21495 0
M  V30 14511 C 1413.86 -0.600141 4.39219 0
M  V30 14512 H 1411.08 0.0637846 0.667961 0
M  V30 14513 H 1413.62 0.821159 1.87289 0
M  V30 14514 H 1411.78 -0.742278 3.80222 0
M  V30 14515 H 1412.19 1.01735 5.14539 0
M  V30 14516 H 1413.67 -0.6597 5.48044 0
M  V30 14517 H 1414.14 -1.62009 4.08227 0
M  V30 14518 H 1414.75 0.0433915 4.25278 0
M  V30 14519 N 1413.06 -1.53996 0.335095 0
M  V30 14520 C 1414.47 -1.86092 -0.15058 0
M  V30 14521 C 1414.83 -1.25652 -1.50685 0
M  V30 14522 O 1413.95 -0.566887 -2.08843 0
M  V30 14523 C 1414.55 -3.37641 -0.280007 0
M  V30 14524 C 1413.1 -3.69645 -0.709907 0
M  V30 14525 C 1412.25 -2.7683 0.161461 0
M  V30 14526 H 1415.2 -1.4868 0.554986 0
M  V30 14527 H 1415.22 -3.63981 -1.10896 0
M  V30 14528 H 1414.74 -3.81601 0.707254 0
M  V30 14529 H 1412.84 -3.31224 -1.7065 0
M  V30 14530 H 1412.95 -4.76424 -0.505661 0
M  V30 14531 H 1411.31 -2.52073 -0.364849 0
M  V30 14532 H 1412.1 -3.23618 1.1457 0
M  V30 14533 N 1414.54 -0.0635198 -1.57472 0
M  V30 14534 C 1415.49 0.906604 -2.12248 0
M  V30 14535 C 1416.46 1.30078 -1.0329 0
M  V30 14536 O 1417.64 1.38809 -1.30907 0
M  V30 14537 C 1414.78 2.1718 -2.68192 0
M  V30 14538 C 1413.9 1.831 -3.91278 0
M  V30 14539 C 1413.03 3.0417 -4.35493 0
M  V30 14540 C 1412.07 2.66069 -5.51248 0
M  V30 14541 N 1411.21 3.79871 -5.9046 0
M  V30 14542 H 1416.05 0.432606 -2.94843 0
M  V30 14543 H 1413.58 0.201895 -1.45708 0
M  V30 14544 H 1415.54 2.91231 -2.98732 0
M  V30 14545 H 1414.17 2.62135 -1.88375 0
M  V30 14546 H 1413.22 0.991473 -3.67252 0
M  V30 14547 H 1414.54 1.51063 -4.75375 0
M  V30 14548 H 1413.69 3.86507 -4.6765 0
M  V30 14549 H 1412.43 3.39395 -3.50232 0
M  V30 14550 H 1411.43 1.82151 -5.1875 0
M  V30 14551 H 1412.66 2.32023 -6.38234 0
M  V30 14552 H 1410.61 4.14873 -5.0815 0
M  V30 14553 H 1410.52 3.51573 -6.69277 0
M  V30 14554 H 1411.79 4.62811 -6.27237 0
M  V30 14555 O 1416.06 1.61315 0.07731 0
M  V30 14556 H 1416.75 1.80459 0.703858 0
M  V30 END ATOM
M  V30 BEGIN BOND
M  V30 END BOND
M  V30 END CTAB
M  END
$$$$
