drugbank_target|Q9KG76 BH0236 protein (DB02379)
 OpenBabel12092120243D

  0  0  0     0  0            999 V3000
M  V30 BEGIN CTAB
M  V30 COUNTS 15675 15919 0 0 0
M  V30 BEGIN ATOM
M  V30 1 H -0.908 1.98254 -0.117106 0
M  V30 2 N 0 1.576 0 0
M  V30 3 C 0.933 2.03868 1.02534 0
M  V30 4 C 1.911 0.928543 1.3348 0
M  V30 5 O 3.095 1.19667 1.45644 0
M  V30 6 C 0.222 2.43627 2.35294 0
M  V30 7 C -0.732 3.65373 2.2001 0
M  V30 8 S 0.101 5.13292 1.52614 0
M  V30 9 C 1.257 5.56322 2.86805 0
M  V30 10 H 1.49 2.90518 0.631377 0
M  V30 11 H -0.977 1.52953 0.210867 0
M  V30 12 H 0.981 2.67203 3.11629 0
M  V30 13 H -0.358 1.57376 2.7183 0
M  V30 14 H -1.165 3.90944 3.18086 0
M  V30 15 H -1.563 3.418 1.51819 0
M  V30 16 H 0.729 5.58782 3.83104 0
M  V30 17 H 1.672 6.56266 2.65933 0
M  V30 18 H 2.08 4.83886 2.90714 0
M  V30 19 N 1.4781 -0.272755 1.55222 0
M  V30 20 C 2.4251 -1.33716 1.88119 0
M  V30 21 C 3.3951 -1.49066 0.73271 0
M  V30 22 O 4.5801 -1.63469 0.984002 0
M  V30 23 C 1.7201 -2.69238 2.15882 0
M  V30 24 C 0.8331 -2.62108 3.43399 0
M  V30 25 C -0.0319 -3.89811 3.60861 0
M  V30 26 C -0.9929 -3.77193 4.8207 0
M  V30 27 N -1.8559 -4.9673 4.96189 0
M  V30 28 H 2.9841 -1.04962 2.78903 0
M  V30 29 H 0.5211 -0.507088 1.38083 0
M  V30 30 H 2.4791 -3.48089 2.29978 0
M  V30 31 H 1.1091 -2.96194 1.28331 0
M  V30 32 H 0.1611 -1.74967 3.37773 0
M  V30 33 H 1.4731 -2.48685 4.32386 0
M  V30 34 H 0.6271 -4.77103 3.74777 0
M  V30 35 H -0.6339 -4.06102 2.7006 0
M  V30 36 H -1.6289 -2.88284 4.68159 0
M  V30 37 H -0.4039 -3.62421 5.74307 0
M  V30 38 H -2.4579 -5.13431 4.08319 0
M  V30 39 H -2.5409 -4.85839 5.79221 0
M  V30 40 H -1.2729 -5.85594 5.1449 0
M  V30 41 N 2.9562 -1.48159 -0.537278 0
M  V30 42 C 4.2042 -1.55497 -1.29094 0
M  V30 43 C 4.5252 -0.227454 -1.93669 0
M  V30 44 O 3.7952 0.750386 -1.80959 0
M  V30 45 H 2.3752 -0.572832 -0.47945 0
M  V30 46 H 5.0372 -1.84579 -0.625818 0
M  V30 47 H 4.1332 -2.33216 -2.07405 0
M  V30 48 N 4.4343 0.785586 -1.36625 0
M  V30 49 C 5.3813 1.89838 -1.31264 0
M  V30 50 C 6.3513 1.65115 -0.180633 0
M  V30 51 O 7.5363 1.87222 -0.36777 0
M  V30 52 C 4.6763 3.26706 -1.11163 0
M  V30 53 C 3.7893 3.63476 -2.33472 0
M  V30 54 C 2.9243 4.89481 -2.06353 0
M  V30 55 C 1.9633 5.18941 -3.24602 0
M  V30 56 N 1.1003 6.36131 -2.97123 0
M  V30 57 H 5.9403 1.93756 -2.26413 0
M  V30 58 H 3.4773 0.947454 -1.12524 0
M  V30 59 H 5.4353 4.05639 -0.975337 0
M  V30 60 H 4.0653 3.222 -0.196674 0
M  V30 61 H 3.1173 2.79636 -2.57891 0
M  V30 62 H 4.4293 3.81193 -3.21704 0
M  V30 63 H 3.5833 5.76288 -1.89675 0
M  V30 64 H 2.3223 4.73841 -1.15437 0
M  V30 65 H 1.3273 4.30615 -3.41834 0
M  V30 66 H 2.5523 5.36498 -4.16349 0
M  V30 67 H 0.4983 6.21875 -2.08823 0
M  V30 68 H 0.4153 6.54198 -3.78894 0
M  V30 69 H 1.6833 7.2591 -2.84033 0
M  V30 70 N 5.9124 1.20967 1.01018 0
M  V30 71 C 6.8604 0.961223 2.1181 0
M  V30 72 C 7.8544 -0.0897034 1.69162 0
M  V30 73 O 9.0604 0.0612271 1.79896 0
M  V30 74 H 5.4354 0.29355 0.692338 0
M  V30 75 H 7.4064 1.90178 2.29946 0
M  V30 76 C 6.1554 0.536854 3.4353 0
M  V30 77 H 5.4784 1.33713 3.76777 0
M  V30 78 H 6.9184 0.402286 4.22087 0
M  V30 79 C 5.3774 -0.751574 3.2841 0
M  V30 80 O 5.9074 -1.80841 3.58691 0
M  V30 81 N 4.1134 -0.716079 2.81639 0
M  V30 82 H 3.6604 0.144236 2.57196 0
M  V30 83 H 3.6184 -1.57847 2.71904 0
M  V30 84 N 7.3905 -1.2043 1.01659 0
M  V30 85 C 8.6365 -1.90079 0.706963 0
M  V30 86 C 8.9695 -1.78648 -0.761474 0
M  V30 87 O 8.2445 -1.17069 -1.55323 0
M  V30 88 C 8.5275 -3.41469 1.14327 0
M  V30 89 C 8.3805 -3.61833 2.67201 0
M  V30 90 C 9.6995 -4.34261 0.714529 0
M  V30 91 H 6.8185 -0.690254 0.2583 0
M  V30 92 H 9.4605 -1.41826 1.26433 0
M  V30 93 H 7.6105 -3.82696 0.669056 0
M  V30 94 H 9.2825 -3.2986 3.22475 0
M  V30 95 H 7.5255 -3.05304 3.08175 0
M  V30 96 H 8.1965 -4.67955 2.92783 0
M  V30 97 H 10.6725 -4.00682 1.12221 0
M  V30 98 H 9.5485 -5.38806 1.04784 0
M  V30 99 H 9.8095 -4.40431 -0.383799 0
M  V30 100 N 8.8686 -0.792821 -1.36206 0
M  V30 101 C 9.8006 -0.151469 -2.28699 0
M  V30 102 C 10.8136 0.641262 -1.49638 0
M  V30 103 O 12.0026 0.475885 -1.72039 0
M  V30 104 C 9.1026 0.808424 -3.29117 0
M  V30 105 C 8.2756 0.0650202 -4.37352 0
M  V30 106 C 7.3346 0.941358 -5.17711 0
M  V30 107 O 6.3606 0.397352 -5.67811 0
M  V30 108 N 7.5626 2.2652 -5.3448 0
M  V30 109 H 10.3276 -0.945982 -2.84379 0
M  V30 110 H 7.8886 -0.647032 -1.48409 0
M  V30 111 H 9.8806 1.3986 -3.79765 0
M  V30 112 H 8.4506 1.5038 -2.74052 0
M  V30 113 H 7.6706 -0.706255 -3.87822 0
M  V30 114 H 8.9586 -0.447847 -5.06825 0
M  V30 115 H 8.3566 2.73128 -4.95396 0
M  V30 116 H 6.9136 2.80493 -5.88359 0
M  V30 117 N 10.3467 1.47872 -0.545128 0
M  V30 118 C 11.2767 2.32661 0.197793 0
M  V30 119 C 12.2577 1.43041 0.920504 0
M  V30 120 O 13.4427 1.71912 0.90333 0
M  V30 121 C 10.5727 3.24569 1.23582 0
M  V30 122 C 9.5267 4.23333 0.630323 0
M  V30 123 C 8.8527 5.0448 1.77211 0
M  V30 124 C 10.1527 5.20704 -0.407974 0
M  V30 125 H 11.8467 2.95024 -0.510045 0
M  V30 126 H 9.3927 1.4187 -0.246731 0
M  V30 127 H 11.3457 3.8272 1.76362 0
M  V30 128 H 10.0697 2.60236 1.97344 0
M  V30 129 H 8.7287 3.6639 0.123922 0
M  V30 130 H 8.3767 4.36561 2.49847 0
M  V30 131 H 8.0767 5.71339 1.37281 0
M  V30 132 H 9.6007 5.65487 2.3034 0
M  V30 133 H 11.0147 5.7329 0.033305 0
M  V30 134 H 9.4117 5.95699 -0.725486 0
M  V30 135 H 10.4817 4.66917 -1.30828 0
M  V30 136 N 11.8248 0.280983 1.55075 0
M  V30 137 C 12.7548 -0.597469 2.25727 0
M  V30 138 C 13.7358 -1.15417 1.24952 0
M  V30 139 O 14.9208 -1.18722 1.53684 0
M  V30 140 C 12.0508 -1.7789 2.98283 0
M  V30 141 C 11.0048 -1.35347 4.06036 0
M  V30 142 C 10.3308 -2.61846 4.66198 0
M  V30 143 C 11.6308 -0.499354 5.19907 0
M  V30 144 H 13.3248 -0.00824265 2.99399 0
M  V30 145 H 10.8708 -0.0025244 1.44 0
M  V30 146 H 12.8238 -2.39937 3.46422 0
M  V30 147 H 11.5478 -2.39405 2.22155 0
M  V30 148 H 10.2068 -0.756156 3.58717 0
M  V30 149 H 9.8548 -3.21632 3.86732 0
M  V30 150 H 9.5548 -2.3409 5.38958 0
M  V30 151 H 11.0788 -3.24732 5.1709 0
M  V30 152 H 12.4928 -1.02498 5.64063 0
M  V30 153 H 10.8898 -0.316424 5.99265 0
M  V30 154 H 11.9598 0.480459 4.82514 0
M  V30 155 N 13.3029 -1.57598 0.00835791 0
M  V30 156 C 14.5499 -1.90928 -0.674732 0
M  V30 157 C 14.8779 -0.88277 -1.73313 0
M  V30 158 O 14.1329 0.111294 -1.95383 0
M  V30 159 C 14.4319 -3.3101 -1.34787 0
M  V30 160 C 14.0979 -4.48922 -0.421861 0
M  V30 161 C 12.7599 -4.8091 -0.166927 0
M  V30 162 C 15.1119 -5.20755 0.215211 0
M  V30 163 C 12.4399 -5.821 0.733232 0
M  V30 164 C 14.7919 -6.22905 1.1033 0
M  V30 165 C 13.4559 -6.53346 1.36733 0
M  V30 166 H 12.7259 -0.698656 -0.246902 0
M  V30 167 H 15.3729 -1.91387 0.0656779 0
M  V30 168 H 13.6779 -3.26714 -2.16253 0
M  V30 169 H 15.3749 -3.54061 -1.8826 0
M  V30 170 H 11.9649 -4.23934 -0.630729 0
M  V30 171 H 16.1489 -4.9629 0.0312829 0
M  V30 172 H 11.4049 -6.04042 0.945712 0
M  V30 173 H 15.5789 -6.77694 1.60325 0
M  V30 174 H 13.2059 -7.31573 2.06652 0
M  V30 175 N 14.781 0.264519 -1.55364 0
M  V30 176 C 15.744 1.31046 -1.88042 0
M  V30 177 C 16.744 1.41943 -0.755569 0
M  V30 178 O 17.934 1.40947 -1.02369 0
M  V30 179 C 15.066 2.69067 -2.09323 0
M  V30 180 H 16.259 1.03297 -2.81549 0
M  V30 181 H 13.812 0.502989 -1.47986 0
M  V30 182 H 14.547 3.01982 -1.18226 0
M  V30 183 H 14.332 2.62542 -2.91229 0
M  V30 184 H 15.822 3.44623 -2.35848 0
M  V30 185 N 16.2591 1.48442 0.529413 0
M  V30 186 C 17.1891 1.65902 1.64313 0
M  V30 187 C 18.1701 0.507897 1.6234 0
M  V30 188 O 19.3551 0.740503 1.79528 0
M  V30 189 C 16.4851 1.69911 3.02898 0
M  V30 190 C 15.4391 2.8453 3.19729 0
M  V30 191 C 14.7651 2.73629 4.59381 0
M  V30 192 C 16.0651 4.25821 3.02447 0
M  V30 193 H 17.7591 2.5914 1.49955 0
M  V30 194 H 15.3051 1.24709 0.719982 0
M  V30 195 H 17.2581 1.80715 3.80684 0
M  V30 196 H 15.9821 0.732524 3.18279 0
M  V30 197 H 14.6411 2.73283 2.44361 0
M  V30 198 H 14.2891 1.74938 4.71599 0
M  V30 199 H 13.9891 3.50541 4.71588 0
M  V30 200 H 15.5131 2.86401 5.39265 0
M  V30 201 H 16.9271 4.37898 3.70024 0
M  V30 202 H 15.3241 5.03735 3.26146 0
M  V30 203 H 16.3941 4.42244 1.98867 0
M  V30 204 N 17.7372 -0.778329 1.37039 0
M  V30 205 C 18.9832 -1.53892 1.32079 0
M  V30 206 C 19.3162 -1.9396 -0.0965386 0
M  V30 207 O 18.5912 -1.63568 -1.05242 0
M  V30 208 C 18.8742 -2.80847 2.25382 0
M  V30 209 C 18.7272 -2.47076 3.75864 0
M  V30 210 C 20.0462 -3.82741 2.1725 0
M  V30 211 H 17.1652 -0.558303 0.48111 0
M  V30 212 H 19.8072 -0.893397 1.67685 0
M  V30 213 H 17.9572 -3.35931 1.95148 0
M  V30 214 H 19.6292 -1.97957 4.16666 0
M  V30 215 H 17.8722 -1.79863 3.94755 0
M  V30 216 H 18.5432 -3.37798 4.36574 0
M  V30 217 H 21.0192 -3.37133 2.43887 0
M  V30 218 H 19.8952 -4.69303 2.84686 0
M  V30 219 H 20.1562 -4.2652 1.16331 0
M  V30 220 N 19.2153 -1.21501 -1.00376 0
M  V30 221 C 20.4613 -1.03452 -1.74429 0
M  V30 222 C 20.7943 0.430764 -1.89362 0
M  V30 223 O 20.0693 1.31962 -1.42886 0
M  V30 224 C 20.3523 -1.73375 -3.15615 0
M  V30 225 C 20.2053 -3.27431 -3.08397 0
M  V30 226 C 21.5243 -1.47732 -4.14564 0
M  V30 227 H 18.6433 -0.377226 -0.633143 0
M  V30 228 H 21.2853 -1.49693 -1.17013 0
M  V30 229 H 19.4353 -1.34064 -3.64636 0
M  V30 230 H 21.1073 -3.76119 -2.67081 0
M  V30 231 H 19.3503 -3.5767 -2.45468 0
M  V30 232 H 20.0213 -3.71524 -4.08258 0
M  V30 233 H 22.4973 -1.8186 -3.74254 0
M  V30 234 H 21.3733 -1.99169 -5.11491 0
M  V30 235 H 21.6343 -0.407589 -4.40217 0
M  V30 236 N 20.6934 1.19889 -1.02296 0
M  V30 237 C 21.9424 1.88743 -0.711257 0
M  V30 238 C 22.2554 1.80112 0.762817 0
M  V30 239 O 23.4614 2.44161 1.18733 0
M  V30 240 C 21.9174 3.38525 -1.22185 0
M  V30 241 C 21.5254 3.55727 -2.72328 0
M  V30 242 C 23.2694 4.12893 -0.985864 0
M  V30 243 C 21.1764 4.99369 -3.16835 0
M  V30 244 H 20.1064 0.706885 -0.262353 0
M  V30 245 H 22.7574 1.35586 -1.23648 0
M  V30 246 H 21.1394 3.91044 -0.624571 0
M  V30 247 H 22.3134 3.13564 -3.3766 0
M  V30 248 H 20.6284 2.94739 -2.9414 0
M  V30 249 H 23.2254 5.18813 -1.29374 0
M  V30 250 H 23.5684 4.16228 0.0775055 0
M  V30 251 H 24.1014 3.66494 -1.54684 0
M  V30 252 H 20.8404 5.01193 -4.22476 0
M  V30 253 H 20.3604 5.42317 -2.56228 0
M  V30 254 H 22.0394 5.67988 -3.09837 0
M  V30 255 N 22.1715 0.800033 1.35784 0
M  V30 256 C 23.4205 0.37387 1.98205 0
M  V30 257 C 23.7335 -1.06302 1.64193 0
M  V30 258 O 24.9395 -1.59198 2.19928 0
M  V30 259 C 23.3955 0.617532 3.54562 0
M  V30 260 C 23.0035 2.06654 3.9749 0
M  V30 261 C 24.7475 0.256401 4.23725 0
M  V30 262 C 22.6545 2.2563 5.46667 0
M  V30 263 H 21.5845 0.136055 0.741623 0
M  V30 264 H 24.2355 0.983166 1.54939 0
M  V30 265 H 22.6175 -0.0616248 3.95952 0
M  V30 266 H 23.7915 2.78296 3.67271 0
M  V30 267 H 22.1065 2.38691 3.41197 0
M  V30 268 H 24.7035 0.376318 5.33374 0
M  V30 269 H 25.0465 -0.796692 4.08606 0
M  V30 270 H 25.5795 0.889214 3.87734 0
M  V30 271 H 22.3185 3.2936 5.66747 0
M  V30 272 H 21.8385 1.58504 5.78478 0
M  V30 273 H 23.5175 2.06861 6.1304 0
M  V30 274 N 23.6496 -1.47581 0.552962 0
M  V30 275 C 24.5796 -2.32762 -0.185451 0
M  V30 276 C 25.5606 -1.43527 -0.912905 0
M  V30 277 O 26.7456 -1.72388 -0.894201 0
M  V30 278 C 23.8756 -3.25219 -1.21859 0
M  V30 279 C 22.8296 -4.23661 -0.607864 0
M  V30 280 C 22.1556 -5.05413 -1.74533 0
M  V30 281 C 23.4556 -5.20481 0.435582 0
M  V30 282 H 25.1496 -2.94749 0.525684 0
M  V30 283 H 22.6956 -1.41738 0.254251 0
M  V30 284 H 24.6486 -3.8365 -1.7433 0
M  V30 285 H 23.3726 -2.61279 -1.95961 0
M  V30 286 H 22.0316 -3.66451 -0.104489 0
M  V30 287 H 21.6796 -4.3788 -2.47529 0
M  V30 288 H 21.3796 -5.72059 -1.34249 0
M  V30 289 H 22.9036 -5.66701 -2.27338 0
M  V30 290 H 24.3176 -5.733 -0.00290157 0
M  V30 291 H 22.7146 -5.95305 0.757067 0
M  V30 292 H 23.7846 -4.66217 1.33303 0
M  V30 293 N 25.1277 -0.289203 -1.54924 0
M  V30 294 C 26.0577 0.58549 -2.2604 0
M  V30 295 C 27.0387 1.14753 -1.25562 0
M  V30 296 O 28.2237 1.17906 -1.54311 0
M  V30 297 C 25.3537 1.76305 -2.99222 0
M  V30 298 C 24.3077 1.33191 -4.06748 0
M  V30 299 C 23.6337 2.5937 -4.6758 0
M  V30 300 C 24.9337 0.471775 -5.20165 0
M  V30 301 H 26.6277 -0.00763532 -2.99399 0
M  V30 302 H 24.1737 -0.00511229 -1.43999 0
M  V30 303 H 26.1267 2.38097 -3.47689 0
M  V30 304 H 24.8507 2.38223 -2.23422 0
M  V30 305 H 23.5097 0.737121 -3.59113 0
M  V30 306 H 23.1577 3.19576 -3.88433 0
M  V30 307 H 22.8577 2.31228 -5.40192 0
M  V30 308 H 24.3817 3.21985 -5.18804 0
M  V30 309 H 25.7957 0.995056 -5.64599 0
M  V30 310 H 24.1927 0.284639 -5.99425 0
M  V30 311 H 25.2627 -0.506041 -4.82252 0
M  V30 312 N 26.6058 1.57591 -0.0167156 0
M  V30 313 C 27.8528 1.91283 0.664597 0
M  V30 314 C 28.1808 0.891949 1.72842 0
M  V30 315 O 27.4358 -0.100931 1.9544 0
M  V30 316 C 27.7348 3.3172 1.33029 0
M  V30 317 C 27.4008 4.4914 0.398047 0
M  V30 318 C 26.0628 4.80992 0.141421 0
M  V30 319 C 28.4148 5.20634 -0.242825 0
M  V30 320 C 25.7428 5.81703 -0.764092 0
M  V30 321 C 28.0948 6.22311 -1.13632 0
M  V30 322 C 26.7588 6.52611 -1.40196 0
M  V30 323 H 26.0288 0.699956 0.243193 0
M  V30 324 H 28.6758 1.9135 -0.0758267 0
M  V30 325 H 26.9808 3.27856 2.14517 0
M  V30 326 H 28.6778 3.55055 1.86379 0
M  V30 327 H 25.2678 4.24262 0.608238 0
M  V30 328 H 29.4518 4.96267 -0.0576019 0
M  V30 329 H 24.7078 6.03532 -0.977732 0
M  V30 330 H 28.8818 6.76834 -1.63917 0
M  V30 331 H 26.5088 7.30467 -2.10529 0
M  V30 332 N 28.0839 -0.256276 1.55502 0
M  V30 333 C 29.4949 -0.826068 1.67431 0
M  V30 334 C 29.8459 -1.86396 0.612446 0
M  V30 335 O 28.9709 -2.15031 -0.243025 0
M  V30 336 C 29.5659 -1.50512 3.03532 0
M  V30 337 C 28.1249 -2.02273 3.17431 0
M  V30 338 C 27.2719 -0.870548 2.63281 0
M  V30 339 H 30.2229 -0.0322728 1.58667 0
M  V30 340 H 30.2439 -2.37279 2.97454 0
M  V30 341 H 29.7559 -0.749484 3.80794 0
M  V30 342 H 27.8569 -2.80746 2.44974 0
M  V30 343 H 27.9699 -2.22655 4.24219 0
M  V30 344 H 26.3339 -1.26851 2.20864 0
M  V30 345 H 27.1169 -0.128149 3.43061 0
M  V30 346 N 29.562 -1.4872 -0.521534 0
M  V30 347 C 30.79 -1.60843 -1.30142 0
M  V30 348 C 31.205 -0.271897 -1.86832 0
M  V30 349 O 30.562 0.739969 -1.66825 0
M  V30 350 C 30.613 -2.66155 -2.4463 0
M  V30 351 O 30.334 -3.94623 -1.90275 0
M  V30 352 C 31.835 -2.88795 -3.36322 0
M  V30 353 H 29.055 -0.542075 -0.395468 0
M  V30 354 H 31.599 -1.94609 -0.628285 0
M  V30 355 H 29.754 -2.35224 -3.07812 0
M  V30 356 H 30.168 -4.52468 -2.65279 0
M  V30 357 H 31.642 -3.66264 -4.12983 0
M  V30 358 H 32.119 -1.97934 -3.9207 0
M  V30 359 H 32.725 -3.21063 -2.78924 0
M  V30 360 N 31.0401 0.771051 -1.3745 0
M  V30 361 C 32.2881 1.52661 -1.32435 0
M  V30 362 C 32.6091 1.9479 0.0905024 0
M  V30 363 O 31.8791 1.66348 1.03466 0
M  V30 364 H 30.4591 0.566218 -0.487244 0
M  V30 365 H 33.1211 0.917636 -1.71946 0
M  V30 366 H 32.2171 2.42568 -1.96385 0
M  V30 367 N 32.5182 1.22032 0.997298 0
M  V30 368 C 33.4812 0.987909 2.06816 0
M  V30 369 C 34.4812 -0.0440084 1.6074 0
M  V30 370 O 35.6712 0.194053 1.73116 0
M  V30 371 C 32.8032 0.49132 3.37341 0
M  V30 372 H 33.9962 1.93803 2.28868 0
M  V30 373 H 31.5492 1.03838 1.16822 0
M  V30 374 H 32.2842 -0.463364 3.20973 0
M  V30 375 H 32.0692 1.23575 3.72118 0
M  V30 376 H 33.5592 0.348824 4.16141 0
M  V30 377 N 33.9963 -1.19345 1.0293 0
M  V30 378 C 35.2213 -1.93538 0.745511 0
M  V30 379 C 35.6463 -1.75007 -0.689511 0
M  V30 380 O 35.0043 -1.05265 -1.47611 0
M  V30 381 C 35.0523 -3.43336 1.10239 0
M  V30 382 O 34.1563 -4.11806 0.221289 0
M  V30 383 H 33.4973 -0.604193 0.275404 0
M  V30 384 H 36.0273 -1.5141 1.37609 0
M  V30 385 H 36.0373 -3.94004 1.05947 0
M  V30 386 H 34.7123 -3.56146 2.14786 0
M  V30 387 H 33.2893 -3.715 0.322842 0
M  V30 388 N 35.4744 -0.807222 -1.35358 0
M  V30 389 C 36.4374 -0.223665 -2.28106 0
M  V30 390 C 37.4374 0.589354 -1.4961 0
M  V30 391 O 38.6274 0.407745 -1.69361 0
M  V30 392 C 35.7594 0.688149 -3.33882 0
M  V30 393 H 36.9524 -1.04169 -2.81227 0
M  V30 394 H 34.5054 -0.577921 -1.45223 0
M  V30 395 H 35.2404 1.52984 -2.85948 0
M  V30 396 H 35.0254 0.10687 -3.91954 0
M  V30 397 H 36.5154 1.09075 -4.03104 0
M  V30 398 N 36.9525 1.47285 -0.560781 0
M  V30 399 C 38.1775 2.07359 -0.0410566 0
M  V30 400 C 38.6025 1.41017 1.24483 0
M  V30 401 O 37.9605 0.486368 1.74654 0
M  V30 402 C 38.0085 3.6035 0.134123 0
M  V30 403 O 37.1125 3.94681 1.19587 0
M  V30 404 H 36.4535 0.661887 -0.0529291 0
M  V30 405 H 38.9835 1.89252 -0.777482 0
M  V30 406 H 38.9935 4.0652 0.347207 0
M  V30 407 H 37.6685 4.08034 -0.805047 0
M  V30 408 H 36.2455 3.60251 0.962987 0
M  V30 409 N 38.4306 0.297415 1.54768 0
M  V30 410 C 39.8416 -0.195947 1.85669 0
M  V30 411 C 40.1926 -1.53707 1.21937 0
M  V30 412 O 39.3176 -2.10164 0.515754 0
M  V30 413 C 39.9126 -0.362318 3.36857 0
M  V30 414 C 38.4716 -0.799901 3.67802 0
M  V30 415 C 37.6186 0.0938578 2.77141 0
M  V30 416 H 40.5696 0.518538 1.4999 0
M  V30 417 H 40.5906 -1.19745 3.61167 0
M  V30 418 H 40.1026 0.613921 3.83214 0
M  V30 419 H 38.2036 -1.78682 3.26961 0
M  V30 420 H 38.3166 -0.621773 4.75048 0
M  V30 421 H 36.6806 -0.426254 2.51108 0
M  V30 422 H 37.4636 1.06639 3.26318 0
M  V30 423 N 39.9087 -1.5758 0.0250728 0
M  V30 424 C 40.8587 -2.06468 -0.967201 0
M  V30 425 C 41.8427 -0.964376 -1.28797 0
M  V30 426 O 43.0347 -1.22797 -1.27475 0
M  V30 427 C 40.1637 -2.59203 -2.25097 0
M  V30 428 C 39.2497 -3.76157 -1.95874 0
M  V30 429 N 39.6407 -4.86919 -1.36905 0
M  V30 430 C 37.9387 -3.84566 -2.25887 0
M  V30 431 C 38.6397 -5.68172 -1.24724 0
M  V30 432 N 37.6157 -5.14953 -1.74138 0
M  V30 433 H 41.4177 -2.89508 -0.506176 0
M  V30 434 H 38.9317 -1.61399 -0.18004 0
M  V30 435 H 40.9287 -2.92517 -2.97052 0
M  V30 436 H 39.5887 -1.77592 -2.71829 0
M  V30 437 H 40.5997 -5.07256 -1.04459 0
M  V30 438 H 37.2767 -3.13854 -2.75321 0
M  V30 439 H 38.6667 -6.67221 -0.791605 0
M  V30 440 N 41.3868 0.248026 -1.55636 0
M  V30 441 C 42.3498 1.29044 -1.89421 0
M  V30 442 C 43.3498 1.41134 -0.770581 0
M  V30 443 O 44.5398 1.39854 -1.03858 0
M  V30 444 C 41.6718 2.66831 -2.12165 0
M  V30 445 H 42.8648 1.00305 -2.82629 0
M  V30 446 H 40.4178 0.487265 -1.48511 0
M  V30 447 H 41.1528 3.00711 -1.21422 0
M  V30 448 H 40.9378 2.59438 -2.93997 0
M  V30 449 H 42.4278 3.42103 -2.3949 0
M  V30 450 N 42.8649 1.48995 0.513639 0
M  V30 451 C 44.1109 1.58076 1.27042 0
M  V30 452 C 44.4439 0.261026 1.92438 0
M  V30 453 O 43.7189 -0.734393 1.80103 0
M  V30 454 C 44.0019 2.73091 2.34719 0
M  V30 455 C 43.8549 4.14821 1.73907 0
M  V30 456 C 45.1739 2.83796 3.36375 0
M  V30 457 H 42.2929 0.575391 0.460536 0
M  V30 458 H 44.9349 1.81232 0.570516 0
M  V30 459 H 43.0849 2.53479 2.94416 0
M  V30 460 H 44.7569 4.45917 1.18135 0
M  V30 461 H 42.9999 4.21058 1.0437 0
M  V30 462 H 43.6709 4.91147 2.51949 0
M  V30 463 H 46.1469 3.01611 2.86653 0
M  V30 464 H 45.0229 3.65971 4.09093 0
M  V30 465 H 45.2839 1.92624 3.9793 0
M  V30 466 N 44.343 -0.763751 1.37857 0
M  V30 467 C 45.568 -1.55805 1.36893 0
M  V30 468 C 45.993 -1.88054 -0.0416135 0
M  V30 469 O 45.351 -1.49825 -1.02089 0
M  V30 470 C 45.399 -2.84012 2.22192 0
M  V30 471 O 44.503 -3.78732 1.63204 0
M  V30 472 H 43.844 -0.471638 0.46739 0
M  V30 473 H 46.374 -0.944657 1.81487 0
M  V30 474 H 46.384 -3.33037 2.35691 0
M  V30 475 H 45.059 -2.59869 3.24716 0
M  V30 476 H 43.636 -3.37402 1.58791 0
M  V30 477 N 45.8211 -1.22559 -0.990812 0
M  V30 478 C 47.0671 -1.05297 -1.73322 0
M  V30 479 C 47.4001 0.410655 -1.89808 0
M  V30 480 O 46.6751 1.30439 -1.44277 0
M  V30 481 C 46.9581 -1.76713 -3.13759 0
M  V30 482 C 46.8111 -3.30684 -3.04907 0
M  V30 483 C 48.1301 -1.52121 -4.12974 0
M  V30 484 H 45.2491 -0.38392 -0.629106 0
M  V30 485 H 47.8911 -1.50926 -1.15418 0
M  V30 486 H 46.0411 -1.37924 -3.63193 0
M  V30 487 H 47.7131 -3.7893 -2.63077 0
M  V30 488 H 45.9561 -3.60253 -2.41661 0
M  V30 489 H 46.6271 -3.75833 -4.04294 0
M  V30 490 H 49.1031 -1.85819 -3.72304 0
M  V30 491 H 47.9791 -2.04582 -5.0935 0
M  V30 492 H 48.2401 -0.454257 -4.3976 0
M  V30 493 N 47.2992 1.18797 -1.03562 0
M  V30 494 C 48.5472 1.88278 -0.734569 0
M  V30 495 C 48.8682 1.8043 0.739586 0
M  V30 496 O 48.1382 1.21925 1.53333 0
M  V30 497 H 46.7182 0.696991 -0.268725 0
M  V30 498 H 49.3802 1.44192 -1.31129 0
M  V30 499 H 48.4762 2.94443 -1.03489 0
M  V30 500 N 48.7773 0.814389 1.34928 0
M  V30 501 C 49.7243 0.22822 2.29669 0
M  V30 502 C 50.6943 -0.642164 1.53184 0
M  V30 503 O 51.8793 -0.585605 1.81591 0
M  V30 504 C 49.0193 -0.61089 3.3965 0
M  V30 505 C 48.1323 0.280792 4.31086 0
M  V30 506 C 47.2673 -0.567067 5.28165 0
M  V30 507 C 46.3063 0.324531 6.11239 0
M  V30 508 N 45.4433 -0.483756 7.00431 0
M  V30 509 H 50.2833 1.04153 2.79206 0
M  V30 510 H 47.8203 0.525133 1.37407 0
M  V30 511 H 49.7783 -1.11263 4.0209 0
M  V30 512 H 48.4083 -1.38939 2.91369 0
M  V30 513 H 47.4603 0.900688 3.69583 0
M  V30 514 H 48.7723 0.966723 4.89342 0
M  V30 515 H 47.9263 -1.13363 5.96015 0
M  V30 516 H 46.6653 -1.28654 4.70425 0
M  V30 517 H 45.6703 0.903298 5.42329 0
M  V30 518 H 46.8953 1.04198 6.71059 0
M  V30 519 H 44.8413 -1.18706 6.45171 0
M  V30 520 H 44.7583 0.143965 7.55863 0
M  V30 521 H 46.0263 -1.03334 7.7262 0
M  V30 522 N 50.2554 -1.46986 0.568584 0
M  V30 523 C 51.5034 -2.02041 0.0487022 0
M  V30 524 C 51.8244 -1.44408 -1.31039 0
M  V30 525 O 51.0944 -0.623477 -1.85714 0
M  V30 526 H 49.6744 -0.746849 0.015014 0
M  V30 527 H 52.3364 -1.80257 0.741168 0
M  V30 528 H 51.4324 -3.12085 -0.0308961 0
M  V30 529 N 51.7335 -0.305618 -1.54608 0
M  V30 530 C 52.9585 0.307562 -2.05107 0
M  V30 531 C 53.3835 1.46385 -1.18123 0
M  V30 532 O 52.7415 1.8034 -0.186324 0
M  V30 533 C 52.7895 0.73704 -3.52987 0
M  V30 534 O 51.8935 1.84134 -3.6901 0
M  V30 535 H 51.2345 0.0589143 -0.661381 0
M  V30 536 H 53.7645 -0.448807 -1.99617 0
M  V30 537 H 53.7745 1.02459 -3.94925 0
M  V30 538 H 52.4495 -0.108773 -4.15758 0
M  V30 539 H 51.0265 1.55398 -3.38978 0
M  V30 540 N 53.2116 1.57565 -0.0334293 0
M  V30 541 C 54.4416 1.95996 0.653398 0
M  V30 542 C 54.8496 0.908749 1.65947 0
M  V30 543 O 54.1926 -0.117471 1.83324 0
M  V30 544 C 54.2546 3.30589 1.41249 0
M  V30 545 C 53.9186 4.53503 0.564263 0
M  V30 546 C 54.9156 5.19647 -0.16225 0
M  V30 547 C 52.6006 4.99801 0.500398 0
M  V30 548 C 54.5946 6.30412 -0.941255 0
M  V30 549 C 52.2816 6.10448 -0.282308 0
M  V30 550 C 53.2796 6.75612 -1.00184 0
M  V30 551 O 52.9676 7.84134 -1.77171 0
M  V30 552 H 52.6996 0.65027 0.184728 0
M  V30 553 H 55.2536 2.05199 -0.0907841 0
M  V30 554 H 53.4836 3.17888 2.20191 0
M  V30 555 H 55.1726 3.53892 1.98784 0
M  V30 556 H 55.9386 4.84846 -0.12227 0
M  V30 557 H 51.8176 4.48883 1.05002 0
M  V30 558 H 55.3616 6.81208 -1.50339 0
M  V30 559 H 51.2586 6.44686 -0.323989 0
M  V30 560 H 52.0266 8.00822 -1.69194 0
M  V30 561 N 54.6897 -0.239769 1.55765 0
M  V30 562 C 55.6527 -1.28038 1.90103 0
M  V30 563 C 56.6527 -1.40723 0.778055 0
M  V30 564 O 57.8427 -1.39301 1.04599 0
M  V30 565 C 54.9747 -2.65702 2.13577 0
M  V30 566 H 56.1677 -0.988048 2.83157 0
M  V30 567 H 53.7207 -0.479382 1.48767 0
M  V30 568 H 54.4557 -3.00063 1.23015 0
M  V30 569 H 54.2407 -2.57875 2.95369 0
M  V30 570 H 55.7307 -3.40828 2.41301 0
M  V30 571 N 56.1678 -1.49265 -0.50573 0
M  V30 572 C 57.3958 -1.62215 -1.28429 0
M  V30 573 C 57.8108 -0.291697 -1.86533 0
M  V30 574 O 57.1678 0.722233 -1.67601 0
M  V30 575 C 57.2188 -2.68735 -2.41793 0
M  V30 576 O 56.9398 -3.96619 -1.86078 0
M  V30 577 C 58.4408 -2.92346 -3.3324 0
M  V30 578 H 55.6608 -0.546239 -0.389697 0
M  V30 579 H 58.2048 -1.95265 -0.607609 0
M  V30 580 H 56.3598 -2.38476 -3.053 0
M  V30 581 H 56.7738 -4.55256 -2.60465 0
M  V30 582 H 58.2478 -3.70623 -4.09075 0
M  V30 583 H 58.7248 -2.02081 -3.89948 0
M  V30 584 H 59.3308 -3.24003 -2.75503 0
M  V30 585 N 57.6459 0.756429 -1.3826 0
M  V30 586 C 58.5559 1.9009 -1.37488 0
M  V30 587 C 59.5719 1.71855 -0.272366 0
M  V30 588 O 60.7479 1.94827 -0.510318 0
M  V30 589 C 57.8129 3.25421 -1.19592 0
M  V30 590 C 56.8739 3.56202 -2.39622 0
M  V30 591 C 56.1069 4.85075 -2.2257 0
M  V30 592 O 56.3299 5.57246 -1.21793 0
M  V30 593 O 55.2639 5.15269 -3.11098 0
M  V30 594 H 59.0899 1.93695 -2.33914 0
M  V30 595 H 56.6749 0.901313 -1.1915 0
M  V30 596 H 58.5569 4.06337 -1.11661 0
M  V30 597 H 57.2319 3.22634 -0.262486 0
M  V30 598 H 56.1389 2.75458 -2.53128 0
M  V30 599 H 57.4719 3.63747 -3.31586 0
M  V30 600 N 59.124 1.23083 0.984299 0
M  V30 601 C 60.371 1.06057 1.72505 0
M  V30 602 C 60.699 -0.403105 1.90277 0
M  V30 603 O 59.954 -1.3149 1.44944 0
M  V30 604 C 60.253 1.72673 3.1292 0
M  V30 605 C 59.919 3.22586 3.15038 0
M  V30 606 C 58.581 3.63489 3.15324 0
M  V30 607 C 60.933 4.185 3.10657 0
M  V30 608 C 58.261 4.98772 3.08939 0
M  V30 609 C 60.613 5.53769 3.05814 0
M  V30 610 C 59.277 5.94041 3.04419 0
M  V30 611 H 58.547 0.388091 0.631242 0
M  V30 612 H 61.194 1.52963 1.15215 0
M  V30 613 H 59.499 1.18116 3.73572 0
M  V30 614 H 61.196 1.56982 3.68996 0
M  V30 615 H 57.786 2.90022 3.15571 0
M  V30 616 H 61.97 3.87911 3.09579 0
M  V30 617 H 57.226 5.29193 3.0621 0
M  V30 618 H 61.4 6.27808 3.0138 0
M  V30 619 H 59.027 6.98833 2.99227 0
M  V30 620 N 60.6021 -1.18246 1.0419 0
M  V30 621 C 62.0131 -1.69914 0.773698 0
M  V30 622 C 62.3641 -1.83085 -0.705297 0
M  V30 623 O 61.4891 -1.51123 -1.5489 0
M  V30 624 C 62.0841 -3.08619 1.39784 0
M  V30 625 C 60.6431 -3.57494 1.17792 0
M  V30 626 C 59.7901 -2.34013 1.48773 0
M  V30 627 H 62.7411 -1.02904 1.20816 0
M  V30 628 H 62.7621 -3.71958 0.801714 0
M  V30 629 H 62.2741 -2.99001 2.47426 0
M  V30 630 H 60.3751 -3.72406 0.120295 0
M  V30 631 H 60.4881 -4.40852 1.87581 0
M  V30 632 H 58.8521 -2.37986 0.907463 0
M  V30 633 H 59.6351 -2.27013 2.57527 0
M  V30 634 N 62.0802 -0.821533 -1.34494 0
M  V30 635 C 62.9902 -0.244355 -2.33324 0
M  V30 636 C 64.0062 0.620527 -1.62559 0
M  V30 637 O 65.1822 0.528754 -1.94335 0
M  V30 638 C 62.2472 0.585368 -3.41723 0
M  V30 639 C 61.3082 -0.301752 -4.28238 0
M  V30 640 C 60.5412 0.488466 -5.3146 0
M  V30 641 O 60.7642 1.72186 -5.4379 0
M  V30 642 O 59.6982 -0.12848 -6.01763 0
M  V30 643 H 63.5242 -1.06231 -2.84515 0
M  V30 644 H 61.1092 -0.583645 -1.37528 0
M  V30 645 H 62.9912 1.05747 -4.07916 0
M  V30 646 H 61.6662 1.38068 -2.92778 0
M  V30 647 H 60.5732 -0.821315 -3.64973 0
M  V30 648 H 61.9062 -1.06138 -4.8062 0
M  V30 649 N 63.5583 1.46682 -0.576371 0
M  V30 650 C 64.8073 2.01619 -0.0572825 0
M  V30 651 C 65.1203 1.45417 1.30818 0
M  V30 652 O 66.3263 1.92133 1.91825 0
M  V30 653 C 64.7823 3.59863 -0.0518371 0
M  V30 654 C 64.3903 4.25059 -1.41523 0
M  V30 655 C 66.1343 4.2248 0.413639 0
M  V30 656 C 64.0413 5.75364 -1.36785 0
M  V30 657 H 62.9713 0.753794 -0.0176448 0
M  V30 658 H 65.6223 1.68481 -0.727076 0
M  V30 659 H 64.0043 3.90048 0.683994 0
M  V30 660 H 65.1783 4.06491 -2.17029 0
M  V30 661 H 63.4933 3.7451 -1.8202 0
M  V30 662 H 66.0903 5.3265 0.467779 0
M  V30 663 H 66.4333 3.90976 1.42982 0
M  V30 664 H 66.9663 3.96897 -0.267929 0
M  V30 665 H 63.7053 6.11518 -2.36063 0
M  V30 666 H 63.2253 5.96214 -0.654895 0
M  V30 667 H 64.9043 6.37955 -1.07805 0
M  V30 668 N 65.0364 0.313813 1.54444 0
M  V30 669 C 66.3134 -0.345447 1.92525 0
M  V30 670 C 66.6934 -1.70667 1.24242 0
M  V30 671 O 66.0414 -2.25273 0.382654 0
M  V30 672 C 66.2514 -0.44737 3.46121 0
M  V30 673 C 67.5994 -0.712238 4.18584 0
M  V30 674 O 68.6234 -0.530678 3.52225 0
M  V30 675 O 67.4824 -1.06183 5.36085 0
M  V30 676 H 64.5764 -0.195407 0.803583 0
M  V30 677 H 67.1224 0.362813 1.65776 0
M  V30 678 H 65.8944 0.509043 3.87975 0
M  V30 679 H 65.5174 -1.20359 3.78945 0
M  V30 680 N 66.5145 -1.57545 0.0417849 0
M  V30 681 C 67.7615 -1.92317 -0.634082 0
M  V30 682 C 68.0895 -0.919334 -1.71402 0
M  V30 683 O 67.3445 0.0698253 -1.95575 0
M  V30 684 C 67.6435 -3.33794 -1.27735 0
M  V30 685 C 67.3095 -4.49716 -0.326543 0
M  V30 686 C 65.9715 -4.81156 -0.0648814 0
M  V30 687 C 68.3235 -5.20182 0.325623 0
M  V30 688 C 65.6515 -5.80414 0.856539 0
M  V30 689 C 68.0035 -6.20424 1.23518 0
M  V30 690 C 66.6675 -6.50298 1.5056 0
M  V30 691 H 65.9375 -0.703736 -0.232027 0
M  V30 692 H 68.5845 -1.91205 0.106259 0
M  V30 693 H 66.8895 -3.31228 -2.09274 0
M  V30 694 H 68.5865 -3.57975 -1.80707 0
M  V30 695 H 65.1765 -4.25176 -0.540665 0
M  V30 696 H 69.3605 -4.96112 0.136546 0
M  V30 697 H 64.6165 -6.019 1.07363 0
M  V30 698 H 68.7905 -6.74141 1.74664 0
M  V30 699 H 66.4175 -7.27025 2.22123 0
M  V30 700 N 67.9926 0.231505 -1.5589 0
M  V30 701 C 69.2406 0.955461 -1.78088 0
M  V30 702 C 69.5616 1.85262 -0.608533 0
M  V30 703 O 68.8316 1.92277 0.375035 0
M  V30 704 H 67.4116 0.355787 -0.656829 0
M  V30 705 H 70.0736 0.245751 -1.93344 0
M  V30 706 H 69.1696 1.56814 -2.69844 0
M  V30 707 N 69.4707 1.49531 0.497807 0
M  V30 708 C 70.7187 1.58865 1.24926 0
M  V30 709 C 71.0397 0.278721 1.92998 0
M  V30 710 O 70.3097 -0.702144 1.82885 0
M  V30 711 H 68.8897 0.585343 0.464094 0
M  V30 712 H 71.5517 1.86174 0.57666 0
M  V30 713 H 70.6477 2.38633 2.01149 0
M  V30 714 N 70.9488 -0.749086 1.3866 0
M  V30 715 C 72.1978 -1.50371 1.3443 0
M  V30 716 C 72.5108 -1.95503 -0.0616397 0
M  V30 717 O 73.7168 -2.70554 -0.226489 0
M  V30 718 C 72.1728 -2.71644 2.36088 0
M  V30 719 C 71.7808 -2.3352 3.82325 0
M  V30 720 C 73.5248 -3.49518 2.40909 0
M  V30 721 C 71.4318 -3.51431 4.75658 0
M  V30 722 H 70.3618 -0.564628 0.499712 0
M  V30 723 H 73.0128 -0.818449 1.64237 0
M  V30 724 H 71.3948 -3.42175 1.9933 0
M  V30 725 H 72.5688 -1.70627 4.28046 0
M  V30 726 H 70.8838 -1.6877 3.80665 0
M  V30 727 H 73.4808 -4.37197 3.07836 0
M  V30 728 H 73.8238 -3.90992 1.42937 0
M  V30 729 H 74.3568 -2.86005 2.76489 0
M  V30 730 H 71.0958 -3.15019 5.74842 0
M  V30 731 H 70.6158 -4.13352 4.34627 0
M  V30 732 H 72.2948 -4.17953 4.93887 0
M  V30 733 N 72.4269 -1.23603 -0.977757 0
M  V30 734 C 73.3749 -1.01704 -2.09187 0
M  V30 735 C 74.3689 0.0448214 -1.69341 0
M  V30 736 O 75.5749 -0.108902 -1.7967 0
M  V30 737 H 71.9499 -0.311803 -0.684312 0
M  V30 738 H 73.9209 -1.96207 -2.24823 0
M  V30 739 C 72.6699 -0.627746 -3.41986 0
M  V30 740 H 71.9929 -1.43656 -3.73099 0
M  V30 741 H 73.4329 -0.514053 -4.20872 0
M  V30 742 C 71.8919 0.664238 -3.30287 0
M  V30 743 O 72.4219 1.71268 -3.6336 0
M  V30 744 N 70.6279 0.641156 -2.83439 0
M  V30 745 H 70.1749 -0.212376 -2.56723 0
M  V30 746 H 70.1329 1.50583 -2.75993 0
M  V30 747 N 73.905 1.17692 -1.04816 0
M  V30 748 C 75.182 1.83768 -0.669963 0
M  V30 749 C 75.562 1.93232 0.849986 0
M  V30 750 O 74.91 1.46397 1.75443 0
M  V30 751 C 75.12 3.21641 -1.35455 0
M  V30 752 C 76.468 3.97592 -1.49017 0
M  V30 753 O 77.492 3.31107 -1.31326 0
M  V30 754 O 76.351 5.16729 -1.77914 0
M  V30 755 H 73.445 0.792799 -0.235368 0
M  V30 756 H 75.991 1.25021 -1.14751 0
M  V30 757 H 74.763 3.097 -2.39168 0
M  V30 758 H 74.386 3.88052 -0.866107 0
M  V30 759 N 75.3831 0.828654 1.34056 0
M  V30 760 C 76.7941 0.477534 1.8049 0
M  V30 761 C 77.1451 -1.00258 1.6865 0
M  V30 762 O 76.2701 -1.78057 1.22982 0
M  V30 763 C 76.8651 0.860018 3.27703 0
M  V30 764 C 75.4241 0.561185 3.72193 0
M  V30 765 C 74.5711 1.07385 2.55663 0
M  V30 766 H 77.5221 1.0183 1.21722 0
M  V30 767 H 77.5431 0.166038 3.80138 0
M  V30 768 H 77.0551 1.93731 3.36288 0
M  V30 769 H 75.1561 -0.506465 3.69142 0
M  V30 770 H 75.2691 1.10926 4.66082 0
M  V30 771 H 73.6331 0.495149 2.49841 0
M  V30 772 H 74.4161 2.15771 2.67016 0
M  V30 773 N 76.8612 -1.46375 0.584142 0
M  V30 774 C 78.1092 -2.01978 0.0701287 0
M  V30 775 C 78.4302 -1.4579 -1.295 0
M  V30 776 O 77.7002 -0.64314 -1.85042 0
M  V30 777 H 76.2802 -0.746648 0.0229345 0
M  V30 778 H 78.9422 -1.79461 0.760245 0
M  V30 779 H 78.0382 -3.121 0.0022064 0
M  V30 780 N 78.3393 -0.321999 -1.54275 0
M  V30 781 C 79.5863 0.281044 -2.0054 0
M  V30 782 C 79.9143 1.52265 -1.21019 0
M  V30 783 O 79.1693 1.93687 -0.279982 0
M  V30 784 C 79.4683 0.661769 -3.5122 0
M  V30 785 C 79.1343 -0.480482 -4.48333 0
M  V30 786 C 77.7963 -0.794005 -4.74604 0
M  V30 787 C 80.1483 -1.24783 -5.06042 0
M  V30 788 C 77.4763 -1.87763 -5.55844 0
M  V30 789 C 79.8283 -2.32153 -5.88462 0
M  V30 790 C 78.4923 -2.64089 -6.13036 0
M  V30 791 H 77.7623 0.102841 -0.733829 0
M  V30 792 H 80.4093 -0.445453 -1.86247 0
M  V30 793 H 78.7143 1.46867 -3.63232 0
M  V30 794 H 80.4113 1.13989 -3.84457 0
M  V30 795 H 77.0013 -0.226039 -4.28004 0
M  V30 796 H 81.1853 -1.01887 -4.85729 0
M  V30 797 H 76.4413 -2.12954 -5.73115 0
M  V30 798 H 80.6153 -2.92057 -6.32199 0
M  V30 799 H 78.2423 -3.48185 -6.75775 0
M  V30 800 N 79.8174 1.5752 -0.0501392 0
M  V30 801 C 81.2334 1.56631 0.306402 0
M  V30 802 C 81.4334 1.0577 1.71508 0
M  V30 803 O 80.4894 0.713837 2.422 0
M  V30 804 C 81.8024 3.00393 0.135811 0
M  V30 805 C 83.3504 3.12315 0.206993 0
M  V30 806 C 83.8254 4.57954 0.064944 0
M  V30 807 N 85.3164 4.63041 0.121254 0
M  V30 808 C 86.0514 5.73389 0.0354381 0
M  V30 809 N 85.5474 6.92724 -0.102666 0
M  V30 810 N 87.3404 5.62026 0.090946 0
M  V30 811 H 79.4914 1.88903 -0.971046 0
M  V30 812 H 81.7544 0.869876 -0.376855 0
M  V30 813 H 81.4604 3.41635 -0.835384 0
M  V30 814 H 81.3344 3.66373 0.897275 0
M  V30 815 H 83.7214 2.70973 1.16866 0
M  V30 816 H 83.8024 2.49016 -0.585208 0
M  V30 817 H 83.4464 4.99981 -0.893394 0
M  V30 818 H 83.3764 5.19258 0.876277 0
M  V30 819 H 85.8674 3.77216 0.227284 0
M  V30 820 H 86.1804 7.72633 -0.160882 0
M  V30 821 H 84.5254 6.94864 -0.137737 0
M  V30 822 H 87.7164 4.67684 0.197388 0
M  V30 823 H 87.8894 6.47997 0.0206089 0
M  V30 824 N 81.2955 -0.223234 1.56011 0
M  V30 825 C 82.5725 -0.972108 1.69733 0
M  V30 826 C 82.9525 -2.02485 0.59691 0
M  V30 827 O 82.3005 -2.25037 -0.396324 0
M  V30 828 C 82.5105 -1.58407 3.10979 0
M  V30 829 C 83.8585 -2.07696 3.70334 0
M  V30 830 O 84.8825 -1.68304 3.1393 0
M  V30 831 O 83.7415 -2.80096 4.69264 0
M  V30 832 H 80.8355 -0.453993 0.691245 0
M  V30 833 H 83.3815 -0.215149 1.68331 0
M  V30 834 H 82.1535 -0.823831 3.82529 0
M  V30 835 H 81.7765 -2.40661 3.16493 0
M  V30 836 N 82.7736 -1.49793 -0.48987 0
M  V30 837 C 83.7056 -1.63413 -1.60713 0
M  V30 838 C 84.7186 -0.516329 -1.54395 0
M  V30 839 O 85.9076 -0.788812 -1.60125 0
M  V30 840 C 83.0076 -1.58516 -2.99543 0
M  V30 841 C 82.1806 -2.86016 -3.30928 0
M  V30 842 C 81.2396 -2.74018 -4.49222 0
M  V30 843 O 80.2656 -3.47964 -4.50455 0
M  V30 844 N 81.4676 -1.86309 -5.4979 0
M  V30 845 H 84.2326 -2.59777 -1.49452 0
M  V30 846 H 81.7936 -1.47022 -0.677955 0
M  V30 847 H 83.7856 -1.48128 -3.76617 0
M  V30 848 H 82.3556 -0.69965 -3.0467 0
M  V30 849 H 81.5756 -3.10672 -2.42645 0
M  V30 850 H 82.8636 -3.70521 -3.487 0
M  V30 851 H 82.2616 -1.2551 -5.51601 0
M  V30 852 H 80.8186 -1.81837 -6.25922 0
M  V30 853 N 84.2517 0.741722 -1.39055 0
M  V30 854 C 85.1837 1.8657 -1.33133 0
M  V30 855 C 86.1967 1.61001 -0.241329 0
M  V30 856 O 87.3857 1.7136 -0.499784 0
M  V30 857 C 84.4857 3.22457 -1.04283 0
M  V30 858 C 83.6587 3.75435 -2.24427 0
M  V30 859 C 82.7177 4.89867 -1.92138 0
M  V30 860 O 81.7437 5.03879 -2.64754 0
M  V30 861 N 82.9457 5.73738 -0.88347 0
M  V30 862 H 85.7107 1.92156 -2.29991 0
M  V30 863 H 83.2717 0.922172 -1.3307 0
M  V30 864 H 85.2637 3.9657 -0.807128 0
M  V30 865 H 83.8337 3.12181 -0.161807 0
M  V30 866 H 83.0537 2.92751 -2.6399 0
M  V30 867 H 84.3417 4.07563 -3.04581 0
M  V30 868 H 83.7397 5.64999 -0.281517 0
M  V30 869 H 82.2967 6.47947 -0.707662 0
M  V30 870 N 85.7298 1.2412 0.971189 0
M  V30 871 C 86.9778 1.07668 1.71032 0
M  V30 872 C 87.2988 -0.385797 1.91146 0
M  V30 873 O 86.5688 -1.27569 1.4867 0
M  V30 874 H 85.1488 0.395429 0.633755 0
M  V30 875 H 87.8108 1.55984 1.16855 0
M  V30 876 H 86.9068 1.57195 2.69622 0
M  V30 877 N 87.2079 -1.17134 1.05439 0
M  V30 878 C 88.1179 -2.24878 0.668365 0
M  V30 879 C 89.1339 -1.71186 -0.311687 0
M  V30 880 O 90.3099 -2.00738 -0.163161 0
M  V30 881 C 87.3749 -3.46662 0.051648 0
M  V30 882 C 86.4359 -4.15429 1.08246 0
M  V30 883 C 85.6689 -5.31399 0.495082 0
M  V30 884 O 85.8919 -5.66153 -0.694743 0
M  V30 885 O 84.8259 -5.89187 1.23056 0
M  V30 886 H 88.6519 -2.60189 1.56637 0
M  V30 887 H 86.2369 -1.24482 0.826104 0
M  V30 888 H 88.1189 -4.20394 -0.290966 0
M  V30 889 H 86.7939 -3.13142 -0.819971 0
M  V30 890 H 85.7009 -3.43704 1.47711 0
M  V30 891 H 87.0339 -4.52982 1.92532 0
M  V30 892 N 88.686 -0.835752 -1.33615 0
M  V30 893 C 90.097 -0.487099 -1.80234 0
M  V30 894 C 90.448 0.993627 -1.69179 0
M  V30 895 O 89.573 1.77403 -1.23924 0
M  V30 896 C 90.168 -0.877385 -3.27242 0
M  V30 897 C 88.727 -0.580915 -3.7189 0
M  V30 898 C 87.874 -1.0874 -2.5509 0
M  V30 899 H 90.825 -1.02474 -1.2118 0
M  V30 900 H 90.846 -0.186195 -3.80044 0
M  V30 901 H 90.358 -1.95512 -3.35256 0
M  V30 902 H 88.459 0.486881 -3.69405 0
M  V30 903 H 88.572 -1.13396 -4.65487 0
M  V30 904 H 86.936 -0.508392 -2.49575 0
M  V30 905 H 87.719 -2.17184 -2.65868 0
M  V30 906 N 90.1641 1.46063 -0.591896 0
M  V30 907 C 91.5751 1.85944 -0.167822 0
M  V30 908 C 91.9261 1.49429 1.27143 0
M  V30 909 O 91.0511 0.913515 1.96173 0
M  V30 910 C 91.6461 3.37489 -0.297794 0
M  V30 911 C 90.2051 3.76332 0.0714732 0
M  V30 912 C 89.3521 2.7006 -0.629509 0
M  V30 913 H 92.3031 1.37087 -0.799555 0
M  V30 914 H 92.3241 3.77532 0.474349 0
M  V30 915 H 91.8361 3.64034 -1.3454 0
M  V30 916 H 89.9371 3.55405 1.11886 0
M  V30 917 H 90.0501 4.78088 -0.311245 0
M  V30 918 H 88.4141 2.54607 -0.0687867 0
M  V30 919 H 89.1971 2.99444 -1.67894 0
M  V30 920 N 91.6422 0.330177 1.54103 0
M  V30 921 C 92.6052 -0.520144 2.2322 0
M  V30 922 C 93.6052 -1.03828 1.22786 0
M  V30 923 O 94.7952 -0.929652 1.4732 0
M  V30 924 C 91.9272 -1.72317 2.94142 0
M  V30 925 H 93.1202 0.0841605 2.99782 0
M  V30 926 H 90.6732 0.0813433 1.56088 0
M  V30 927 H 91.4082 -2.36653 2.21734 0
M  V30 928 H 91.1932 -1.35898 3.67796 0
M  V30 929 H 92.6832 -2.3266 3.46784 0
M  V30 930 N 93.1203 -1.57491 0.0584922 0
M  V30 931 C 94.3483 -1.97296 -0.623037 0
M  V30 932 C 94.7633 -0.936338 -1.63946 0
M  V30 933 O 94.1203 0.0785981 -1.82331 0
M  V30 934 C 94.1713 -3.37183 -1.30345 0
M  V30 935 O 93.8923 -4.36872 -0.32773 0
M  V30 936 C 95.3933 -3.91788 -2.07406 0
M  V30 937 H 92.6133 -0.649153 -0.169826 0
M  V30 938 H 95.1573 -2.04106 0.12696 0
M  V30 939 H 93.3123 -3.31502 -2.00463 0
M  V30 940 H 93.7263 -5.18141 -0.814269 0
M  V30 941 H 95.2003 -4.91926 -2.50425 0
M  V30 942 H 95.6773 -3.27609 -2.92521 0
M  V30 943 H 96.2833 -4.00829 -1.42184 0
M  V30 944 N 94.5984 0.214957 -1.56127 0
M  V30 945 C 95.8474 0.936451 -1.78643 0
M  V30 946 C 96.1604 1.85237 -0.628229 0
M  V30 947 O 97.3664 2.613 -0.737186 0
M  V30 948 C 95.8224 1.7154 -3.16389 0
M  V30 949 C 95.4304 0.845299 -4.39953 0
M  V30 950 C 97.1744 2.42772 -3.48227 0
M  V30 951 C 95.0814 1.62198 -5.68723 0
M  V30 952 H 94.0114 0.353401 -0.666051 0
M  V30 953 H 96.6624 0.190169 -1.82512 0
M  V30 954 H 95.0444 2.50484 -3.06715 0
M  V30 955 H 96.2184 0.0959353 -4.607 0
M  V30 956 H 94.5334 0.244789 -4.1568 0
M  V30 957 H 97.1304 3.01394 -4.41663 0
M  V30 958 H 97.4734 3.15984 -2.71035 0
M  V30 959 H 98.0064 1.70813 -3.5926 0
M  V30 960 H 94.7454 0.933011 -6.48826 0
M  V30 961 H 94.2654 2.34579 -5.52026 0
M  V30 962 H 95.9444 2.18095 -6.09133 0
M  V30 963 N 96.0765 1.50051 0.48192 0
M  V30 964 C 97.3065 1.63999 1.2565 0
M  V30 965 C 97.7145 0.318288 1.86504 0
M  V30 966 O 97.0575 -0.708534 1.69486 0
M  V30 967 C 97.1195 2.66504 2.4128 0
M  V30 968 C 96.7835 4.10352 2.01148 0
M  V30 969 C 97.7805 4.96562 1.54021 0
M  V30 970 C 95.4655 4.56203 2.10199 0
M  V30 971 C 97.4595 6.26668 1.16473 0
M  V30 972 C 95.1465 5.86318 1.72264 0
M  V30 973 C 96.1445 6.71375 1.25477 0
M  V30 974 O 95.8325 7.99062 0.880626 0
M  V30 975 H 95.5645 0.55456 0.386574 0
M  V30 976 H 98.1185 1.96954 0.582944 0
M  V30 977 H 96.3485 2.28769 3.11772 0
M  V30 978 H 98.0375 2.69783 3.03268 0
M  V30 979 H 98.8035 4.62358 1.46458 0
M  V30 980 H 94.6825 3.90152 2.45566 0
M  V30 981 H 98.2265 6.93011 0.798841 0
M  V30 982 H 94.1235 6.20046 1.79482 0
M  V30 983 H 94.8915 8.12239 1.01043 0
M  V30 984 N 97.5546 -0.734337 1.39446 0
M  V30 985 C 98.9706 -1.03997 1.21065 0
M  V30 986 C 99.1706 -2.01369 0.0727019 0
M  V30 987 O 98.2266 -2.45856 -0.575426 0
M  V30 988 C 99.5396 -1.60163 2.54496 0
M  V30 989 C 101.088 -1.7224 2.61347 0
M  V30 990 C 101.563 -2.31814 3.95002 0
M  V30 991 N 103.054 -2.39223 3.96644 0
M  V30 992 C 103.789 -2.86258 4.96834 0
M  V30 993 N 103.285 -3.33184 6.07421 0
M  V30 994 N 105.078 -2.85473 4.84213 0
M  V30 995 H 97.2286 -0.0885624 2.12215 0
M  V30 996 H 99.4916 -0.10191 0.942506 0
M  V30 997 H 99.1976 -0.960811 3.38321 0
M  V30 998 H 99.0716 -2.5896 2.74262 0
M  V30 999 H 101.459 -2.35443 1.77906 0
M  V30 1000 H 101.54 -0.720939 2.4543 0
M  V30 1001 H 101.184 -1.69238 4.78875 0
M  V30 1002 H 101.114 -3.32638 4.08239 0
M  V30 1003 H 103.605 -2.06057 3.16779 0
M  V30 1004 H 103.918 -3.67586 6.7978 0
M  V30 1005 H 102.263 -3.31191 6.11013 0
M  V30 1006 H 105.454 -2.48136 3.96921 0
M  V30 1007 H 105.627 -3.21814 5.62441 0
M  V30 1008 N 99.0327 -1.24633 -0.964593 0
M  V30 1009 C 100.258 -1.11596 -1.74818 0
M  V30 1010 C 100.683 0.32723 -1.85232 0
M  V30 1011 O 100.041 1.23695 -1.32549 0
M  V30 1012 C 100.089 -1.76397 -3.1451 0
M  V30 1013 O 99.1927 -1.03685 -3.99153 0
M  V30 1014 H 98.5337 -0.390196 -0.537255 0
M  V30 1015 H 101.064 -1.65002 -1.20977 0
M  V30 1016 H 101.074 -1.8228 -3.65018 0
M  V30 1017 H 99.7487 -2.81401 -3.06246 0
M  V30 1018 H 98.3257 -1.05611 -3.57632 0
M  V30 1019 N 100.511 1.16574 -1.06058 0
M  V30 1020 C 101.788 1.83048 -0.689416 0
M  V30 1021 C 102.168 1.94122 0.829443 0
M  V30 1022 O 101.516 1.48249 1.7388 0
M  V30 1023 C 101.726 3.20186 -1.38859 0
M  V30 1024 C 103.074 3.95989 -1.53226 0
M  V30 1025 O 104.098 3.29696 -1.3483 0
M  V30 1026 O 102.957 5.14813 -1.83384 0
M  V30 1027 H 100.051 0.790258 -0.243764 0
M  V30 1028 H 102.597 1.23797 -1.16071 0
M  V30 1029 H 101.369 3.07146 -2.4244 0
M  V30 1030 H 100.992 3.87112 -0.907216 0
M  V30 1031 N 101.989 0.842826 1.3317 0
M  V30 1032 C 103.405 0.531128 1.50503 0
M  V30 1033 C 103.605 -0.940734 1.78192 0
M  V30 1034 O 102.661 -1.72436 1.84451 0
M  V30 1035 C 103.974 1.40789 2.65705 0
M  V30 1036 C 105.522 1.40708 2.79589 0
M  V30 1037 C 105.997 2.26878 3.97857 0
M  V30 1038 N 107.488 2.24609 4.05099 0
M  V30 1039 C 108.223 2.88019 4.95815 0
M  V30 1040 N 107.719 3.60496 5.9162 0
M  V30 1041 N 109.512 2.77469 4.88843 0
M  V30 1042 H 101.663 1.79557 1.1346 0
M  V30 1043 H 103.926 0.766267 0.558156 0
M  V30 1044 H 103.632 2.454 2.51936 0
M  V30 1045 H 103.506 1.08677 3.61205 0
M  V30 1046 H 105.893 0.368668 2.92788 0
M  V30 1047 H 105.974 1.76829 1.84838 0
M  V30 1048 H 105.618 3.3078 3.85418 0
M  V30 1049 H 105.548 1.88096 4.91861 0
M  V30 1050 H 108.039 1.71906 3.36536 0
M  V30 1051 H 108.352 4.06076 6.57512 0
M  V30 1052 H 106.697 3.64604 5.91683 0
M  V30 1053 H 109.888 2.20406 4.12963 0
M  V30 1054 H 110.061 3.2717 5.59342 0
M  V30 1055 N 103.467 -1.45747 0.599634 0
M  V30 1056 C 104.713 -2.02592 0.0918643 0
M  V30 1057 C 105.046 -1.46806 -1.27128 0
M  V30 1058 O 104.321 -0.639658 -1.83681 0
M  V30 1059 C 104.604 -3.60073 0.0443398 0
M  V30 1060 C 104.457 -4.26208 1.43759 0
M  V30 1061 C 105.776 -4.35309 -0.647608 0
M  V30 1062 H 102.895 -0.736175 0.034857 0
M  V30 1063 H 105.537 -1.73694 0.770081 0
M  V30 1064 H 103.687 -3.84823 -0.533224 0
M  V30 1065 H 105.359 -4.12668 2.06162 0
M  V30 1066 H 103.602 -3.84916 2.00056 0
M  V30 1067 H 104.273 -5.35069 1.35665 0
M  V30 1068 H 106.749 -4.15805 -0.156776 0
M  V30 1069 H 105.625 -5.45038 -0.649942 0
M  V30 1070 H 105.886 -4.07598 -1.71219 0
M  V30 1071 N 104.945 -0.338344 -1.53925 0
M  V30 1072 C 106.173 0.261298 -2.05243 0
M  V30 1073 C 106.588 1.44625 -1.21363 0
M  V30 1074 O 105.945 1.80811 -0.247736 0
M  V30 1075 C 105.996 0.681412 -3.5502 0
M  V30 1076 O 105.717 -0.456414 -4.35716 0
M  V30 1077 C 107.218 1.34232 -4.22489 0
M  V30 1078 H 104.438 0.0513685 -0.669031 0
M  V30 1079 H 106.982 -0.488822 -1.98572 0
M  V30 1080 H 105.137 1.38148 -3.61931 0
M  V30 1081 H 105.551 -0.122564 -5.24357 0
M  V30 1082 H 107.025 1.58708 -5.28693 0
M  V30 1083 H 107.502 2.29426 -3.74514 0
M  V30 1084 H 108.108 0.684424 -4.19757 0
M  V30 1085 N 106.423 1.57458 -0.0668435 0
M  V30 1086 C 107.671 1.92919 0.602214 0
M  V30 1087 C 107.992 0.947215 1.70449 0
M  V30 1088 O 107.262 -0.00544117 1.95899 0
M  V30 1089 H 105.842 0.71217 0.22544 0
M  V30 1090 H 108.504 1.94508 -0.123535 0
M  V30 1091 H 107.6 2.94589 1.03073 0
M  V30 1092 N 107.901 -0.206675 1.56239 0
M  V30 1093 C 109.312 -0.772383 1.69974 0
M  V30 1094 C 109.663 -1.84353 0.671436 0
M  V30 1095 O 108.788 -2.15695 -0.174491 0
M  V30 1096 C 109.383 -1.40779 3.08167 0
M  V30 1097 C 107.942 -1.92072 3.23706 0
M  V30 1098 C 107.089 -0.786347 2.65917 0
M  V30 1099 H 110.04 0.0182223 1.5869 0
M  V30 1100 H 110.061 -2.27696 3.04852 0
M  V30 1101 H 109.573 -0.627958 3.82986 0
M  V30 1102 H 107.674 -2.7281 2.53782 0
M  V30 1103 H 107.787 -2.09046 4.31087 0
M  V30 1104 H 106.151 -1.1976 2.24788 0
M  V30 1105 H 106.934 -0.0189416 3.43295 0
M  V30 1106 N 109.379 -1.50304 -0.473955 0
M  V30 1107 C 110.312 -1.63595 -1.59097 0
M  V30 1108 C 111.29 -0.484142 -1.55225 0
M  V30 1109 O 112.474 -0.703271 -1.7489 0
M  V30 1110 C 109.601 -1.61589 -2.97669 0
M  V30 1111 C 108.647 -2.82295 -3.19705 0
M  V30 1112 S 109.48 -4.43635 -2.99913 0
M  V30 1113 C 110.636 -4.44317 -4.40832 0
M  V30 1114 H 110.869 -2.58082 -1.47583 0
M  V30 1115 H 108.402 -1.39531 -0.661087 0
M  V30 1116 H 110.36 -1.61116 -3.7756 0
M  V30 1117 H 109.021 -0.683421 -3.06575 0
M  V30 1118 H 108.214 -2.77188 -4.20931 0
M  V30 1119 H 107.816 -2.8032 -2.47582 0
M  V30 1120 H 110.108 -4.17703 -5.33414 0
M  V30 1121 H 111.051 -5.45911 -4.50984 0
M  V30 1122 H 111.459 -3.74059 -4.22777 0
M  V30 1123 N 110.857 0.726932 -1.39834 0
M  V30 1124 C 111.789 1.85147 -1.35104 0
M  V30 1125 C 112.802 1.60736 -0.258392 0
M  V30 1126 O 113.991 1.70821 -0.517931 0
M  V30 1127 C 111.091 3.21332 -1.07697 0
M  V30 1128 C 110.264 3.73033 -2.28396 0
M  V30 1129 C 109.323 4.87802 -1.97322 0
M  V30 1130 O 108.349 5.01043 -2.70083 0
M  V30 1131 N 109.551 5.72768 -0.944273 0
M  V30 1132 H 112.316 1.89706 -2.32017 0
M  V30 1133 H 109.877 0.908006 -1.3404 0
M  V30 1134 H 111.869 3.95691 -0.849144 0
M  V30 1135 H 110.439 3.11992 -0.194909 0
M  V30 1136 H 109.659 2.89934 -2.6708 0
M  V30 1137 H 110.947 4.0431 -3.08887 0
M  V30 1138 H 110.345 5.64669 -0.341427 0
M  V30 1139 H 108.902 6.4716 -0.776346 0
M  V30 1140 N 112.336 1.25143 0.95797 0
M  V30 1141 C 113.564 1.12424 1.73691 0
M  V30 1142 C 113.979 -0.322304 1.86029 0
M  V30 1143 O 113.336 -1.22186 1.35561 0
M  V30 1144 C 113.387 1.76933 3.15241 0
M  V30 1145 O 113.108 3.15932 3.03511 0
M  V30 1146 C 114.609 1.6995 4.09429 0
M  V30 1147 H 111.829 0.3923 0.544373 0
M  V30 1148 H 114.373 1.6544 1.20207 0
M  V30 1149 H 112.528 1.27895 3.6568 0
M  V30 1150 H 112.942 3.47598 3.9278 0
M  V30 1151 H 114.416 2.19753 5.06372 0
M  V30 1152 H 114.893 0.662619 4.34173 0
M  V30 1153 H 115.499 2.18461 3.64904 0
M  V30 1154 N 113.814 -1.1601 1.06675 0
M  V30 1155 C 114.762 -2.22586 0.675157 0
M  V30 1156 C 115.756 -1.66525 -0.310766 0
M  V30 1157 O 116.962 -1.79145 -0.175215 0
M  V30 1158 H 113.337 -0.724855 0.200223 0
M  V30 1159 H 115.308 -2.52899 1.58381 0
M  V30 1160 C 114.057 -3.47604 0.0817162 0
M  V30 1161 H 113.38 -3.91058 0.831484 0
M  V30 1162 H 114.82 -4.23718 -0.154708 0
M  V30 1163 C 113.279 -3.15718 -1.17576 0
M  V30 1164 O 113.809 -3.31878 -2.26318 0
M  V30 1165 N 112.015 -2.69816 -1.07923 0
M  V30 1166 H 111.562 -2.56866 -0.194293 0
M  V30 1167 H 111.52 -2.48855 -1.92141 0
M  V30 1168 N 115.292 -0.849877 -1.32721 0
M  V30 1169 C 116.517 -0.463856 -2.02146 0
M  V30 1170 C 116.942 0.930449 -1.63476 0
M  V30 1171 O 116.3 1.61033 -0.832952 0
M  V30 1172 C 116.348 -0.604955 -3.55489 0
M  V30 1173 O 115.452 0.36425 -4.10788 0
M  V30 1174 H 114.793 -0.187046 -0.637111 0
M  V30 1175 H 117.323 -1.14775 -1.69375 0
M  V30 1176 H 117.333 -0.490696 -4.05038 0
M  V30 1177 H 116.008 -1.62174 -3.82978 0
M  V30 1178 H 114.585 0.206628 -3.72327 0
M  V30 1179 N 116.77 1.45427 -0.607355 0
M  V30 1180 C 118.016 2.03097 -0.111035 0
M  V30 1181 C 118.371 1.46735 1.24445 0
M  V30 1182 O 117.664 0.632478 1.8086 0
M  V30 1183 C 117.858 3.57398 -0.0129263 0
M  V30 1184 C 117.687 4.28726 -1.35735 0
M  V30 1185 C 116.457 4.66659 -1.93798 0
M  V30 1186 C 118.655 4.60699 -2.28607 0
M  V30 1187 N 116.637 5.22845 -3.21723 0
M  V30 1188 C 118.008 5.17716 -3.41131 0
M  V30 1189 C 120.063 4.42638 -2.27982 0
M  V30 1190 C 118.766 5.58576 -4.53194 0
M  V30 1191 C 120.792 4.84531 -3.39093 0
M  V30 1192 C 120.154 5.4164 -4.50339 0
M  V30 1193 H 116.253 0.777476 -0.083994 0
M  V30 1194 H 118.837 1.77249 -0.805655 0
M  V30 1195 H 117.008 3.82907 0.650914 0
M  V30 1196 H 118.74 4.01722 0.490033 0
M  V30 1197 H 115.495 4.50207 -1.47007 0
M  V30 1198 H 115.919 5.55438 -3.87063 0
M  V30 1199 H 120.561 3.97798 -1.43235 0
M  V30 1200 H 118.279 6.02382 -5.38667 0
M  V30 1201 H 121.865 4.72289 -3.39757 0
M  V30 1202 H 120.745 5.73461 -5.34895 0
M  V30 1203 N 118.248 0.346503 1.53744 0
M  V30 1204 C 119.494 -0.242135 2.01954 0
M  V30 1205 C 119.849 -1.47962 1.22984 0
M  V30 1206 O 119.142 -1.89077 0.309924 0
M  V30 1207 C 119.336 -0.605809 3.52228 0
M  V30 1208 C 119.165 0.594882 4.45748 0
M  V30 1209 C 117.935 1.1011 4.93157 0
M  V30 1210 C 120.133 1.45425 4.93311 0
M  V30 1211 N 118.115 2.26381 5.70636 0
M  V30 1212 C 119.486 2.46383 5.68942 0
M  V30 1213 C 121.541 1.47935 4.75415 0
M  V30 1214 C 120.244 3.49684 6.28581 0
M  V30 1215 C 122.27 2.50119 5.35905 0
M  V30 1216 C 121.632 3.49803 6.11406 0
M  V30 1217 H 117.731 -0.0518296 0.780281 0
M  V30 1218 H 120.315 0.486736 1.88518 0
M  V30 1219 H 118.486 -1.30378 3.65864 0
M  V30 1220 H 120.218 -1.17789 3.87179 0
M  V30 1221 H 116.973 0.668721 4.68855 0
M  V30 1222 H 117.397 2.85094 6.14044 0
M  V30 1223 H 122.039 0.722274 4.16585 0
M  V30 1224 H 119.757 4.26285 6.86518 0
M  V30 1225 H 123.343 2.52892 5.23963 0
M  V30 1226 H 122.223 4.27576 6.5738 0
M  V30 1227 N 119.726 -1.57421 0.075193 0
M  V30 1228 C 120.974 -1.93236 -0.591974 0
M  V30 1229 C 121.295 -0.956241 -1.69944 0
M  V30 1230 O 120.565 -0.00494792 -1.95899 0
M  V30 1231 H 119.145 -0.713355 -0.22166 0
M  V30 1232 H 121.807 -1.9444 0.133848 0
M  V30 1233 H 120.903 -2.95131 -1.01509 0
M  V30 1234 N 121.204 0.198386 -1.56346 0
M  V30 1235 C 122.429 0.939682 -1.84891 0
M  V30 1236 C 122.854 1.76202 -0.658369 0
M  V30 1237 O 122.212 1.76993 0.392851 0
M  V30 1238 C 122.26 1.81428 -3.11635 0
M  V30 1239 O 121.364 2.91265 -2.91956 0
M  V30 1240 H 120.705 0.264807 -0.608912 0
M  V30 1241 H 123.235 0.204695 -2.03573 0
M  V30 1242 H 123.245 2.21958 -3.42343 0
M  V30 1243 H 121.92 1.21004 -3.97908 0
M  V30 1244 H 120.497 2.54514 -2.72538 0
M  V30 1245 N 122.682 1.50554 0.465978 0
M  V30 1246 C 123.612 1.72722 1.57128 0
M  V30 1247 C 124.593 0.576294 1.6004 0
M  V30 1248 O 125.778 0.81598 1.76225 0
M  V30 1249 C 122.908 1.82605 2.95419 0
M  V30 1250 C 121.862 2.97835 3.07373 0
M  V30 1251 C 121.188 2.92867 4.47363 0
M  V30 1252 C 122.488 4.38265 2.84114 0
M  V30 1253 H 124.182 2.65267 1.38829 0
M  V30 1254 H 121.728 1.2765 0.666441 0
M  V30 1255 H 123.681 1.96698 3.72677 0
M  V30 1256 H 122.405 0.866858 3.14886 0
M  V30 1257 H 121.064 2.83401 2.3255 0
M  V30 1258 H 120.712 1.94783 4.63755 0
M  V30 1259 H 120.412 3.70227 4.56296 0
M  V30 1260 H 121.936 3.09015 5.26633 0
M  V30 1261 H 123.35 4.53198 3.51118 0
M  V30 1262 H 121.747 5.17115 3.04487 0
M  V30 1263 H 122.817 4.50281 1.7993 0
M  V30 1264 N 124.16 -0.719506 1.40217 0
M  V30 1265 C 125.123 -1.8153 1.39927 0
M  V30 1266 C 126.123 -1.58095 0.293723 0
M  V30 1267 O 127.313 -1.65209 0.552429 0
M  V30 1268 C 124.445 -3.19561 1.18716 0
M  V30 1269 H 125.638 -1.83186 2.37451 0
M  V30 1270 H 123.191 -0.924746 1.26008 0
M  V30 1271 H 123.926 -3.23557 0.219366 0
M  V30 1272 H 123.711 -3.3797 1.98793 0
M  V30 1273 H 125.201 -3.99598 1.21291 0
M  V30 1274 N 125.638 -1.25649 -0.95132 0
M  V30 1275 C 126.884 -1.10757 -1.69884 0
M  V30 1276 C 127.217 0.350061 -1.91019 0
M  V30 1277 O 126.492 1.25783 -1.48354 0
M  V30 1278 C 126.775 -1.86606 -3.07978 0
M  V30 1279 C 126.628 -3.40217 -2.94232 0
M  V30 1280 C 127.947 -1.65182 -4.07925 0
M  V30 1281 H 125.066 -0.40374 -0.616574 0
M  V30 1282 H 127.708 -1.54521 -1.10558 0
M  V30 1283 H 125.858 -1.49409 -3.58621 0
M  V30 1284 H 127.53 -3.87108 -2.50889 0
M  V30 1285 H 125.773 -3.67759 -2.30078 0
M  V30 1286 H 126.444 -3.88505 -3.92133 0
M  V30 1287 H 128.92 -1.9757 -3.66204 0
M  V30 1288 H 127.796 -2.20683 -5.02583 0
M  V30 1289 H 128.057 -0.593933 -4.38092 0
M  V30 1290 N 127.117 1.15442 -1.07289 0
M  V30 1291 C 128.394 1.82306 -0.708792 0
M  V30 1292 C 128.774 1.94991 0.808807 0
M  V30 1293 O 128.122 1.50085 1.72298 0
M  V30 1294 C 128.332 3.18695 -1.42247 0
M  V30 1295 C 129.68 3.94341 -1.57417 0
M  V30 1296 O 130.704 3.28247 -1.38319 0
M  V30 1297 O 129.563 5.12839 -1.88834 0
M  V30 1298 H 126.657 0.787628 -0.252132 0
M  V30 1299 H 129.203 1.22559 -1.17377 0
M  V30 1300 H 127.975 3.04557 -2.45684 0
M  V30 1301 H 127.598 3.86128 -0.948223 0
M  V30 1302 N 128.595 0.856903 1.32268 0
M  V30 1303 C 130.011 0.547061 1.49931 0
M  V30 1304 C 130.211 -0.921781 1.7918 0
M  V30 1305 O 129.267 -1.70469 1.8627 0
M  V30 1306 C 130.58 1.43599 2.64196 0
M  V30 1307 C 132.128 1.43665 2.78081 0
M  V30 1308 C 132.603 2.31085 3.95428 0
M  V30 1309 N 134.094 2.28893 4.02694 0
M  V30 1310 C 134.829 2.93262 4.92732 0
M  V30 1311 N 134.325 3.66751 5.87763 0
M  V30 1312 N 136.118 2.82638 4.85873 0
M  V30 1313 H 128.269 1.8075 1.11549 0
M  V30 1314 H 130.532 0.772144 0.549997 0
M  V30 1315 H 130.238 2.48058 2.49319 0
M  V30 1316 H 130.112 1.12502 3.60032 0
M  V30 1317 H 132.499 0.399701 2.92381 0
M  V30 1318 H 132.58 1.7878 1.82952 0
M  V30 1319 H 132.224 3.34849 3.81888 0
M  V30 1320 H 132.154 1.93302 4.89839 0
M  V30 1321 H 134.645 1.75466 3.34694 0
M  V30 1322 H 134.958 4.13027 6.53168 0
M  V30 1323 H 133.303 3.70859 5.87783 0
M  V30 1324 H 136.494 2.24774 4.10602 0
M  V30 1325 H 136.667 3.33084 5.55841 0
M  V30 1326 N 130.073 -1.45103 0.615059 0
M  V30 1327 C 131.32 -2.02183 0.113179 0
M  V30 1328 C 131.648 -1.48249 -1.25906 0
M  V30 1329 O 130.903 -0.650265 -1.84581 0
M  V30 1330 C 131.202 -3.57386 0.0318797 0
M  V30 1331 C 130.868 -4.30505 1.34077 0
M  V30 1332 C 129.53 -4.50197 1.69929 0
M  V30 1333 C 131.882 -4.72238 2.20546 0
M  V30 1334 C 129.21 -5.08881 2.91988 0
M  V30 1335 C 131.562 -5.32272 3.41861 0
M  V30 1336 C 130.226 -5.50187 3.77956 0
M  V30 1337 H 129.496 -0.739842 0.0414151 0
M  V30 1338 H 132.143 -1.74073 0.798168 0
M  V30 1339 H 130.448 -3.84817 -0.736409 0
M  V30 1340 H 132.145 -3.99264 -0.372712 0
M  V30 1341 H 128.735 -4.15496 1.05173 0
M  V30 1342 H 132.919 -4.56751 1.94146 0
M  V30 1343 H 128.175 -5.20939 3.2005 0
M  V30 1344 H 132.349 -5.63563 4.09109 0
M  V30 1345 H 129.976 -5.95427 4.72622 0
M  V30 1346 N 131.551 -0.354651 -1.53558 0
M  V30 1347 C 132.776 0.242153 -2.05981 0
M  V30 1348 C 133.201 1.42553 -1.2272 0
M  V30 1349 O 132.559 1.79656 -0.243604 0
M  V30 1350 C 132.607 0.624367 -3.55154 0
M  V30 1351 O 131.711 1.72301 -3.74681 0
M  V30 1352 H 131.052 0.0378432 -0.662921 0
M  V30 1353 H 133.582 -0.512087 -1.98088 0
M  V30 1354 H 133.592 0.898433 -3.97985 0
M  V30 1355 H 132.267 -0.240989 -4.15201 0
M  V30 1356 H 130.844 1.44535 -3.4375 0
M  V30 1357 N 133.029 1.57378 -0.0835403 0
M  V30 1358 C 133.962 2.09016 0.915833 0
M  V30 1359 C 134.94 0.997993 1.2837 0
M  V30 1360 O 136.124 1.27219 1.39096 0
M  V30 1361 C 133.251 2.55757 2.22049 0
M  V30 1362 C 132.297 3.76522 2.00333 0
M  V30 1363 S 133.13 5.20661 1.25191 0
M  V30 1364 C 134.286 5.70743 2.56912 0
M  V30 1365 H 134.519 2.93457 0.476492 0
M  V30 1366 H 132.052 1.53856 0.129493 0
M  V30 1367 H 134.01 2.83346 2.97027 0
M  V30 1368 H 132.671 1.71564 2.63106 0
M  V30 1369 H 131.864 4.07256 2.96916 0
M  V30 1370 H 131.466 3.49367 1.33488 0
M  V30 1371 H 133.758 5.78304 3.52946 0
M  V30 1372 H 134.701 6.6944 2.30772 0
M  V30 1373 H 135.109 4.98616 2.64655 0
M  V30 1374 N 134.507 -0.190092 1.56449 0
M  V30 1375 C 135.455 -1.25501 1.95837 0
M  V30 1376 C 136.449 -1.4685 0.844485 0
M  V30 1377 O 137.655 -1.47651 1.02952 0
M  V30 1378 H 134.03 -0.421447 0.622805 0
M  V30 1379 H 136.001 -0.895821 2.84636 0
M  V30 1380 C 134.75 -2.59124 2.31841 0
M  V30 1381 H 134.073 -2.43514 3.17082 0
M  V30 1382 H 135.513 -3.32371 2.6326 0
M  V30 1383 C 133.972 -3.16488 1.15486 0
M  V30 1384 O 134.502 -3.99365 0.432535 0
M  V30 1385 N 132.708 -2.75305 0.930349 0
M  V30 1386 H 132.255 -2.08013 1.51948 0
M  V30 1387 H 132.213 -3.14024 0.153634 0
M  V30 1388 N 135.985 -1.50799 -0.457987 0
M  V30 1389 C 136.917 -1.66786 -1.57211 0
M  V30 1390 C 137.93 -0.548962 -1.53265 0
M  V30 1391 O 139.119 -0.8226 -1.58416 0
M  V30 1392 C 136.219 -1.64834 -2.96113 0
M  V30 1393 C 135.392 -2.92971 -3.24787 0
M  V30 1394 C 134.451 -2.83485 -4.43309 0
M  V30 1395 O 133.477 -3.5744 -4.42973 0
M  V30 1396 N 134.679 -1.97929 -5.45714 0
M  V30 1397 H 137.444 -2.62889 -1.43909 0
M  V30 1398 H 135.005 -1.48427 -0.646617 0
M  V30 1399 H 136.997 -1.56084 -3.7339 0
M  V30 1400 H 135.567 -0.764118 -3.03117 0
M  V30 1401 H 134.787 -3.15749 -2.36 0
M  V30 1402 H 136.075 -3.77834 -3.40762 0
M  V30 1403 H 135.473 -1.37182 -5.48815 0
M  V30 1404 H 134.03 -1.95073 -6.21924 0
M  V30 1405 N 137.463 0.71206 -1.40597 0
M  V30 1406 C 138.693 1.49894 -1.42181 0
M  V30 1407 C 139.101 1.89189 -0.0208078 0
M  V30 1408 O 138.444 1.56223 0.966436 0
M  V30 1409 C 138.506 2.80215 -2.25211 0
M  V30 1410 C 138.17 2.63221 -3.73582 0
M  V30 1411 C 139.167 2.30249 -4.66135 0
M  V30 1412 C 136.852 2.79376 -4.17438 0
M  V30 1413 C 138.846 2.13645 -6.00529 0
M  V30 1414 C 136.533 2.6239 -5.51901 0
M  V30 1415 C 137.531 2.29573 -6.43262 0
M  V30 1416 O 137.219 2.12719 -7.75246 0
M  V30 1417 H 136.951 0.469031 -0.486812 0
M  V30 1418 H 139.505 0.88564 -1.85326 0
M  V30 1419 H 137.735 3.4389 -1.76852 0
M  V30 1420 H 139.424 3.41947 -2.18694 0
M  V30 1421 H 140.19 2.17398 -4.33547 0
M  V30 1422 H 136.069 3.03906 -3.46644 0
M  V30 1423 H 139.613 1.87953 -6.71803 0
M  V30 1424 H 135.51 2.74826 -5.84073 0
M  V30 1425 H 136.278 2.27611 -7.86216 0
M  V30 1426 N 138.941 1.26152 0.944643 0
M  V30 1427 C 140.352 1.10454 1.50522 0
M  V30 1428 C 140.703 -0.31635 1.93633 0
M  V30 1429 O 139.828 -1.20746 1.79581 0
M  V30 1430 C 140.423 1.99891 2.73549 0
M  V30 1431 C 138.982 1.88348 3.25886 0
M  V30 1432 C 138.129 1.93447 1.9868 0
M  V30 1433 H 141.08 1.39292 0.760489 0
M  V30 1434 H 141.101 1.54477 3.47732 0
M  V30 1435 H 140.613 3.03297 2.42141 0
M  V30 1436 H 138.714 0.878636 3.62092 0
M  V30 1437 H 138.827 2.73696 3.93227 0
M  V30 1438 H 137.191 1.37456 2.14425 0
M  V30 1439 H 137.974 2.98476 1.69607 0
M  V30 1440 N 140.419 -1.14872 1.07899 0
M  V30 1441 C 141.369 -2.17809 0.674027 0
M  V30 1442 C 142.353 -1.58008 -0.303699 0
M  V30 1443 O 143.545 -1.76616 -0.11654 0
M  V30 1444 C 140.674 -3.43208 0.0793318 0
M  V30 1445 C 139.76 -4.10051 1.08253 0
M  V30 1446 N 140.151 -4.52296 2.2641 0
M  V30 1447 C 138.449 -4.36469 0.917124 0
M  V30 1448 C 139.15 -5.04199 2.901 0
M  V30 1449 N 138.126 -4.98088 2.17736 0
M  V30 1450 H 141.928 -2.48207 1.57386 0
M  V30 1451 H 139.442 -1.315 0.952976 0
M  V30 1452 H 141.439 -4.16272 -0.228719 0
M  V30 1453 H 140.099 -3.14291 -0.815551 0
M  V30 1454 H 141.11 -4.45504 2.64096 0
M  V30 1455 H 137.787 -4.17432 0.0756078 0
M  V30 1456 H 139.177 -5.46802 3.90458 0
M  V30 1457 N 141.898 -0.863906 -1.31812 0
M  V30 1458 C 143.309 -0.52522 -1.7916 0
M  V30 1459 C 143.66 0.957518 -1.71248 0
M  V30 1460 O 142.785 1.74734 -1.27659 0
M  V30 1461 C 143.38 -0.9466 -3.25307 0
M  V30 1462 C 141.939 -0.659668 -3.70574 0
M  V30 1463 C 141.086 -1.14126 -2.52726 0
M  V30 1464 H 144.037 -1.05022 -1.1898 0
M  V30 1465 H 144.058 -0.266766 -3.79564 0
M  V30 1466 H 143.57 -2.02579 -3.31034 0
M  V30 1467 H 141.671 0.408416 -3.70355 0
M  V30 1468 H 141.784 -1.23245 -4.62977 0
M  V30 1469 H 140.148 -0.561216 -2.4844 0
M  V30 1470 H 140.931 -2.22775 -2.61201 0
M  V30 1471 N 143.376 1.44774 -0.622745 0
M  V30 1472 C 144.623 2.02121 -0.1239 0
M  V30 1473 C 144.951 1.48915 1.25118 0
M  V30 1474 O 144.206 0.660045 1.84233 0
M  V30 1475 C 144.505 3.57364 -0.0508323 0
M  V30 1476 C 144.171 4.29787 -1.36358 0
M  V30 1477 C 142.833 4.4929 -1.72314 0
M  V30 1478 C 145.185 4.71062 -2.23048 0
M  V30 1479 C 142.513 5.07325 -2.94682 0
M  V30 1480 C 144.865 5.30452 -3.44679 0
M  V30 1481 C 143.529 5.48175 -3.80868 0
M  V30 1482 H 142.799 0.739612 -0.0453381 0
M  V30 1483 H 145.446 1.73648 -0.807389 0
M  V30 1484 H 143.751 3.85202 0.715991 0
M  V30 1485 H 145.448 3.99456 0.351533 0
M  V30 1486 H 142.038 4.14932 -1.07375 0
M  V30 1487 H 146.222 4.55715 -1.96565 0
M  V30 1488 H 141.478 5.19235 -3.22809 0
M  V30 1489 H 145.652 5.61385 -4.12092 0
M  V30 1490 H 143.279 5.92912 -4.75773 0
M  V30 1491 N 144.854 0.36279 1.53368 0
M  V30 1492 C 146.079 -0.231226 2.06107 0
M  V30 1493 C 146.504 -1.419 1.23474 0
M  V30 1494 O 145.862 -1.79524 0.253128 0
M  V30 1495 C 145.91 -0.605523 3.5548 0
M  V30 1496 O 145.014 -1.70312 3.7559 0
M  V30 1497 H 144.355 -0.034327 0.663112 0
M  V30 1498 H 146.885 0.522584 1.97814 0
M  V30 1499 H 146.895 -0.877314 3.98456 0
M  V30 1500 H 145.57 0.263004 4.15068 0
M  V30 1501 H 144.147 -1.4271 3.44512 0
M  V30 1502 N 146.332 -1.57332 0.0918853 0
M  V30 1503 C 147.578 -1.94524 -0.573425 0
M  V30 1504 C 147.911 -0.973578 -1.68033 0
M  V30 1505 O 147.186 -0.00609226 -1.94499 0
M  V30 1506 C 147.469 -3.41858 -1.13161 0
M  V30 1507 C 147.322 -4.4979 -0.0299747 0
M  V30 1508 C 148.641 -3.90435 -2.03098 0
M  V30 1509 H 145.76 -0.70734 -0.206975 0
M  V30 1510 H 148.402 -1.89309 0.161942 0
M  V30 1511 H 146.552 -3.46433 -1.7583 0
M  V30 1512 H 148.224 -4.57327 0.604112 0
M  V30 1513 H 146.467 -4.291 0.636833 0
M  V30 1514 H 147.138 -5.50069 -0.461287 0
M  V30 1515 H 149.614 -3.87992 -1.50338 0
M  V30 1516 H 148.49 -4.94097 -2.39081 0
M  V30 1517 H 148.751 -3.29541 -2.94712 0
M  V30 1518 N 147.81 0.181792 -1.56548 0
M  V30 1519 C 149.226 0.53316 -1.50431 0
M  V30 1520 C 149.426 1.85184 -0.794297 0
M  V30 1521 O 148.482 2.50058 -0.350318 0
M  V30 1522 C 149.795 0.575597 -2.9514 0
M  V30 1523 C 151.343 0.663519 -3.05886 0
M  V30 1524 C 151.818 0.736946 -4.52032 0
M  V30 1525 N 153.309 0.800118 -4.56237 0
M  V30 1526 C 154.044 0.877327 -5.66649 0
M  V30 1527 N 153.54 0.916016 -6.86718 0
M  V30 1528 N 155.333 0.915542 -5.54594 0
M  V30 1529 H 147.484 -0.683025 -2.01118 0
M  V30 1530 H 149.747 -0.244988 -0.915797 0
M  V30 1531 H 149.453 -0.324482 -3.502 0
M  V30 1532 H 149.327 1.42572 -3.49218 0
M  V30 1533 H 151.714 1.55403 -2.50867 0
M  V30 1534 H 151.795 -0.21307 -2.54911 0
M  V30 1535 H 151.439 -0.149262 -5.07681 0
M  V30 1536 H 151.369 1.62953 -5.00753 0
M  V30 1537 H 153.86 0.778926 -3.69785 0
M  V30 1538 H 154.173 0.975813 -7.66614 0
M  V30 1539 H 152.518 0.884469 -6.89349 0
M  V30 1540 H 155.709 0.882245 -4.59711 0
M  V30 1541 H 155.882 0.972253 -6.40665 0
M  V30 1542 N 149.288 1.51039 0.449983 0
M  V30 1543 C 150.238 1.67824 1.54335 0
M  V30 1544 C 151.222 0.5324 1.51836 0
M  V30 1545 O 152.414 0.787762 1.58503 0
M  V30 1546 C 149.543 1.7951 2.92628 0
M  V30 1547 C 148.629 2.99838 2.9993 0
M  V30 1548 N 149.02 4.23207 2.77001 0
M  V30 1549 C 147.318 2.98832 3.31082 0
M  V30 1550 C 148.019 5.04361 2.89818 0
M  V30 1551 N 146.995 4.38746 3.2094 0
M  V30 1552 H 150.797 2.60884 1.35339 0
M  V30 1553 H 148.311 1.48513 0.657085 0
M  V30 1554 H 150.308 1.89642 3.7127 0
M  V30 1555 H 148.968 0.876227 3.12654 0
M  V30 1556 H 149.979 4.5236 2.52172 0
M  V30 1557 H 146.656 2.16527 3.56963 0
M  V30 1558 H 148.046 6.12528 2.76151 0
M  V30 1559 N 150.766 -0.704594 1.40972 0
M  V30 1560 C 152.182 -1.01406 1.23244 0
M  V30 1561 C 152.382 -2.01169 0.115399 0
M  V30 1562 O 151.438 -2.47021 -0.523147 0
M  V30 1563 C 152.751 -1.54728 2.57836 0
M  V30 1564 C 154.299 -1.66658 2.64942 0
M  V30 1565 C 154.774 -2.23383 3.9983 0
M  V30 1566 N 156.265 -2.30756 4.01629 0
M  V30 1567 C 157 -2.75655 5.02794 0
M  V30 1568 N 156.496 -3.20225 6.14352 0
M  V30 1569 N 158.289 -2.75138 4.90159 0
M  V30 1570 H 150.44 -0.0435285 2.12355 0
M  V30 1571 H 152.703 -0.0818951 0.944456 0
M  V30 1572 H 152.409 -0.888832 3.40283 0
M  V30 1573 H 152.283 -2.53084 2.79693 0
M  V30 1574 H 154.67 -2.31617 1.8286 0
M  V30 1575 H 154.751 -0.668717 2.46904 0
M  V30 1576 H 154.395 -1.59043 4.82357 0
M  V30 1577 H 154.325 -3.23904 4.15203 0
M  V30 1578 H 156.816 -1.99291 3.21079 0
M  V30 1579 H 157.129 -3.53084 6.87424 0
M  V30 1580 H 155.474 -3.18156 6.17901 0
M  V30 1581 H 158.665 -2.39661 4.02095 0
M  V30 1582 H 158.838 -3.09812 5.6914 0
M  V30 1583 N 152.244 -1.26651 -0.937939 0
M  V30 1584 C 153.207 -1.08546 -2.01867 0
M  V30 1585 C 154.207 -0.0327327 -1.60767 0
M  V30 1586 O 155.397 -0.276427 -1.71993 0
M  V30 1587 C 152.529 -0.651711 -3.34613 0
M  V30 1588 H 153.722 -2.04502 -2.1936 0
M  V30 1589 H 151.275 -1.09294 -1.11734 0
M  V30 1590 H 152.01 0.309696 -3.22818 0
M  V30 1591 H 151.795 -1.41189 -3.65798 0
M  V30 1592 H 153.285 -0.546973 -4.14002 0
M  V30 1593 N 153.722 1.14298 -1.08507 0
M  V30 1594 C 154.632 2.23027 -0.727753 0
M  V30 1595 C 155.648 1.71952 0.26619 0
M  V30 1596 O 156.824 2.011 0.109882 0
M  V30 1597 C 153.889 3.46403 -0.143541 0
M  V30 1598 C 152.95 4.12413 -1.19223 0
M  V30 1599 C 152.183 5.29899 -0.635798 0
M  V30 1600 O 152.406 5.67796 0.544393 0
M  V30 1601 O 151.34 5.85717 -1.38634 0
M  V30 1602 H 155.166 2.55945 -1.63481 0
M  V30 1603 H 152.751 1.22248 -0.858817 0
M  V30 1604 H 154.633 4.21018 0.179404 0
M  V30 1605 H 153.308 3.15206 0.736659 0
M  V30 1606 H 152.215 3.39667 -1.56772 0
M  V30 1607 H 153.548 4.47718 -2.04474 0
M  V30 1608 N 155.201 0.870884 1.31352 0
M  V30 1609 C 156.449 0.48132 1.96285 0
M  V30 1610 C 156.77 -0.969813 1.69173 0
M  V30 1611 O 156.04 -1.67998 1.00764 0
M  V30 1612 H 154.62 0.175002 0.726212 0
M  V30 1613 H 157.282 1.11087 1.60143 0
M  V30 1614 H 156.378 0.639825 3.05471 0
M  V30 1615 N 156.679 -1.44442 0.630414 0
M  V30 1616 C 157.609 -2.33418 -0.0618083 0
M  V30 1617 C 158.59 -1.48165 -0.835541 0
M  V30 1618 O 159.775 -1.76886 -0.801564 0
M  V30 1619 C 156.905 -3.31222 -1.04449 0
M  V30 1620 C 155.859 -4.26288 -0.382436 0
M  V30 1621 C 155.185 -5.13954 -1.47497 0
M  V30 1622 C 156.485 -5.1744 0.710865 0
M  V30 1623 H 158.179 -2.91548 0.681184 0
M  V30 1624 H 155.725 -1.40191 0.329026 0
M  V30 1625 H 157.678 -3.92351 -1.53748 0
M  V30 1626 H 156.402 -2.71299 -1.81836 0
M  V30 1627 H 155.061 -3.6649 0.0899054 0
M  V30 1628 H 154.709 -4.50385 -2.2397 0
M  V30 1629 H 154.409 -5.7837 -1.03737 0
M  V30 1630 H 155.933 -5.77955 -1.96979 0
M  V30 1631 H 157.347 -5.72509 0.300996 0
M  V30 1632 H 155.744 -5.90455 1.07156 0
M  V30 1633 H 156.814 -4.58496 1.57829 0
M  V30 1634 N 158.157 -0.370918 -1.53173 0
M  V30 1635 C 159.107 0.489588 -2.22681 0
M  V30 1636 C 160.091 1.04442 -1.22395 0
M  V30 1637 O 161.283 0.973578 -1.47819 0
M  V30 1638 C 158.412 1.626 -3.02351 0
M  V30 1639 C 157.498 1.08379 -4.10018 0
M  V30 1640 N 157.889 0.265004 -5.05105 0
M  V30 1641 C 156.187 1.35809 -4.2482 0
M  V30 1642 C 156.888 -0.0324755 -5.81691 0
M  V30 1643 N 155.864 0.566581 -5.40639 0
M  V30 1644 H 159.666 -0.142729 -2.93553 0
M  V30 1645 H 157.18 -0.179221 -1.61408 0
M  V30 1646 H 159.177 2.2547 -3.50669 0
M  V30 1647 H 157.837 2.26132 -2.33011 0
M  V30 1648 H 158.848 -0.0962352 -5.17811 0
M  V30 1649 H 155.525 1.9958 -3.66707 0
M  V30 1650 H 156.915 -0.69473 -6.68299 0
M  V30 1651 N 159.635 1.57281 -0.100228 0
M  V30 1652 C 160.881 1.94826 0.563101 0
M  V30 1653 C 161.214 0.982475 1.67514 0
M  V30 1654 O 160.489 0.0164069 1.94493 0
M  V30 1655 C 160.772 3.42453 1.11346 0
M  V30 1656 C 160.625 4.498 0.00612081 0
M  V30 1657 C 161.944 3.91506 2.01024 0
M  V30 1658 H 159.063 0.708428 0.203221 0
M  V30 1659 H 161.705 1.8922 -0.171979 0
M  V30 1660 H 159.855 3.47361 1.7399 0
M  V30 1661 H 161.527 4.57 -0.628357 0
M  V30 1662 H 159.77 4.28756 -0.659581 0
M  V30 1663 H 160.441 5.50306 0.432109 0
M  V30 1664 H 162.917 3.88784 1.48278 0
M  V30 1665 H 161.793 4.95358 2.36457 0
M  V30 1666 H 162.054 3.31099 2.92961 0
M  V30 1667 N 161.113 -0.173488 1.56642 0
M  V30 1668 C 162.36 -0.890465 1.81871 0
M  V30 1669 C 162.688 -1.82339 0.67696 0
M  V30 1670 O 161.943 -1.92795 -0.335926 0
M  V30 1671 C 162.242 -1.72069 3.13252 0
M  V30 1672 C 161.908 -0.936878 4.41059 0
M  V30 1673 C 160.57 -0.720545 4.75775 0
M  V30 1674 C 162.922 -0.386919 5.19762 0
M  V30 1675 C 160.25 0.0568829 5.86672 0
M  V30 1676 C 162.602 0.37741 6.31473 0
M  V30 1677 C 161.266 0.604563 6.64757 0
M  V30 1678 H 160.536 -0.325844 0.665512 0
M  V30 1679 H 163.183 -0.155527 1.90867 0
M  V30 1680 H 161.488 -2.52496 2.99588 0
M  V30 1681 H 163.185 -2.27844 3.29982 0
M  V30 1682 H 159.775 -1.11553 4.13828 0
M  V30 1683 H 163.959 -0.541398 4.93338 0
M  V30 1684 H 159.215 0.242635 6.10918 0
M  V30 1685 H 163.389 0.810825 6.91664 0
M  V30 1686 H 161.016 1.20885 7.50527 0
M  V30 1687 N 162.591 -1.51276 -0.441967 0
M  V30 1688 C 163.821 -1.67273 -1.21257 0
M  V30 1689 C 164.229 -0.367624 -1.85594 0
M  V30 1690 O 163.572 0.663349 -1.71305 0
M  V30 1691 C 163.634 -2.72807 -2.34129 0
M  V30 1692 C 163.298 -4.1554 -1.90198 0
M  V30 1693 C 164.295 -5.00471 -1.40801 0
M  V30 1694 C 161.98 -4.61616 -1.9803 0
M  V30 1695 C 163.974 -6.29536 -0.998174 0
M  V30 1696 C 161.661 -5.90679 -1.56658 0
M  V30 1697 C 162.659 -6.74466 -1.07633 0
M  V30 1698 O 162.347 -8.01116 -0.668459 0
M  V30 1699 H 162.079 -0.564614 -0.371734 0
M  V30 1700 H 164.633 -1.9843 -0.530521 0
M  V30 1701 H 162.863 -2.36954 -3.05597 0
M  V30 1702 H 164.552 -2.77729 -2.96009 0
M  V30 1703 H 165.318 -4.66079 -1.34148 0
M  V30 1704 H 161.197 -3.96526 -2.35135 0
M  V30 1705 H 164.741 -6.94885 -0.61482 0
M  V30 1706 H 160.638 -6.24586 -1.62979 0
M  V30 1707 H 161.406 -8.14633 -0.794722 0
M  V30 1708 N 164.069 0.697108 -1.41344 0
M  V30 1709 C 165.346 1.45154 -1.31109 0
M  V30 1710 C 165.726 2.11009 0.0620449 0
M  V30 1711 O 165.074 2.01571 1.07618 0
M  V30 1712 C 165.284 2.47223 -2.46337 0
M  V30 1713 C 166.632 3.1252 -2.87431 0
M  V30 1714 O 167.656 2.57547 -2.46065 0
M  V30 1715 O 166.515 4.12083 -3.58957 0
M  V30 1716 H 163.609 0.646365 -0.515889 0
M  V30 1717 H 166.155 0.727716 -1.53305 0
M  V30 1718 H 164.927 1.97204 -3.37974 0
M  V30 1719 H 164.55 3.27116 -2.2601 0
M  V30 1720 N 165.547 1.27147 0.931209 0
M  V30 1721 C 166.51 1.09615 2.01289 0
M  V30 1722 C 167.51 0.0412581 1.60747 0
M  V30 1723 O 168.7 0.285545 1.71844 0
M  V30 1724 C 165.832 0.669447 3.34262 0
M  V30 1725 H 167.025 2.05662 2.18273 0
M  V30 1726 H 164.578 1.09885 1.11153 0
M  V30 1727 H 165.313 -0.292572 3.22978 0
M  V30 1728 H 165.098 1.43127 3.65044 0
M  V30 1729 H 166.588 0.568921 4.13706 0
M  V30 1730 N 167.025 -1.13721 1.09112 0
M  V30 1731 C 168.436 -1.6648 0.845068 0
M  V30 1732 C 168.787 -1.85911 -0.62701 0
M  V30 1733 O 167.912 -1.57556 -1.48341 0
M  V30 1734 C 168.507 -3.02413 1.52748 0
M  V30 1735 C 167.066 -3.52176 1.32849 0
M  V30 1736 C 166.213 -2.27492 1.58564 0
M  V30 1737 H 169.164 -0.976872 1.25072 0
M  V30 1738 H 169.185 -3.68223 0.958752 0
M  V30 1739 H 168.697 -2.88238 2.59885 0
M  V30 1740 H 166.798 -3.7156 0.278137 0
M  V30 1741 H 166.911 -4.32499 2.0611 0
M  V30 1742 H 165.275 -2.33923 1.00758 0
M  V30 1743 H 166.058 -2.15886 2.66924 0
M  V30 1744 N 168.503 -0.877838 -1.30888 0
M  V30 1745 C 169.453 -0.310872 -2.25871 0
M  V30 1746 C 170.437 0.556596 -1.50966 0
M  V30 1747 O 171.629 0.402187 -1.7237 0
M  V30 1748 C 168.758 0.479821 -3.3993 0
M  V30 1749 C 167.844 -0.401333 -4.22197 0
M  V30 1750 N 168.235 -1.49848 -4.83093 0
M  V30 1751 C 166.533 -0.195167 -4.45573 0
M  V30 1752 C 167.234 -2.0425 -5.44662 0
M  V30 1753 N 166.21 -1.33843 -5.26865 0
M  V30 1754 H 170.012 -1.1493 -2.70496 0
M  V30 1755 H 167.526 -0.726458 -1.45246 0
M  V30 1756 H 169.523 0.902582 -4.07012 0
M  V30 1757 H 168.183 1.31577 -2.96846 0
M  V30 1758 H 169.194 -1.88137 -4.82519 0
M  V30 1759 H 165.871 0.604192 -4.13105 0
M  V30 1760 H 167.261 -2.96345 -6.03017 0
M  V30 1761 N 169.982 1.44106 -0.638065 0
M  V30 1762 C 170.93 2.3248 0.0748149 0
M  V30 1763 C 171.924 1.47746 0.828702 0
M  V30 1764 O 173.13 1.64049 0.740816 0
M  V30 1765 H 169.505 0.750771 0.0429686 0
M  V30 1766 H 171.476 2.90348 -0.688504 0
M  V30 1767 C 170.225 3.31843 1.03805 0
M  V30 1768 H 169.548 3.97059 0.467375 0
M  V30 1769 H 170.988 3.96345 1.50622 0
M  V30 1770 C 169.447 2.61291 2.1267 0
M  V30 1771 O 169.977 2.41702 3.20847 0
M  V30 1772 N 168.183 2.20915 1.88798 0
M  V30 1773 H 167.73 2.37047 1.00829 0
M  V30 1774 H 167.688 1.74038 2.61836 0
M  V30 1775 N 171.46 0.379036 1.52974 0
M  V30 1776 C 172.393 -0.504932 2.22544 0
M  V30 1777 C 173.371 -1.0723 1.22231 0
M  V30 1778 O 174.555 -1.12589 1.51182 0
M  V30 1779 C 171.682 -1.69794 2.93066 0
M  V30 1780 C 170.728 -1.25678 4.07563 0
M  V30 1781 S 171.561 -0.246852 5.34931 0
M  V30 1782 C 172.717 -1.44588 6.08971 0
M  V30 1783 H 172.95 0.0858666 2.97176 0
M  V30 1784 H 170.483 0.163183 1.53535 0
M  V30 1785 H 172.441 -2.38219 3.34308 0
M  V30 1786 H 171.102 -2.26002 2.18133 0
M  V30 1787 H 170.295 -2.14725 4.5597 0
M  V30 1788 H 169.897 -0.651584 3.6828 0
M  V30 1789 H 172.189 -2.37469 6.34519 0
M  V30 1790 H 173.132 -1.00292 7.00962 0
M  V30 1791 H 173.54 -1.65804 5.39601 0
M  V30 1792 N 172.938 -1.57226 0.108567 0
M  V30 1793 C 174.184 -1.95121 -0.552761 0
M  V30 1794 C 174.517 -0.991345 -1.66991 0
M  V30 1795 O 173.792 -0.0267211 -1.94482 0
M  V30 1796 C 174.075 -3.43039 -1.09528 0
M  V30 1797 C 173.928 -4.49797 0.0177332 0
M  V30 1798 C 175.247 -3.92567 -1.98945 0
M  V30 1799 H 172.366 -0.709496 -0.199461 0
M  V30 1800 H 175.008 -1.89126 0.182011 0
M  V30 1801 H 173.158 -3.48279 -1.72146 0
M  V30 1802 H 174.83 -4.56661 0.652584 0
M  V30 1803 H 173.073 -4.284 0.682309 0
M  V30 1804 H 173.744 -5.50528 -0.402919 0
M  V30 1805 H 176.22 -3.89565 -1.46214 0
M  V30 1806 H 175.096 -4.96605 -2.33827 0
M  V30 1807 H 175.357 -3.32648 -2.91201 0
M  V30 1808 N 174.416 0.165178 -1.56732 0
M  V30 1809 C 175.662 0.882112 -1.82611 0
M  V30 1810 C 175.995 1.81628 -0.687378 0
M  V30 1811 O 175.27 1.92009 0.310267 0
M  V30 1812 C 175.553 1.67245 -3.18906 0
M  V30 1813 C 175.406 0.760987 -4.43316 0
M  V30 1814 C 176.725 2.63884 -3.52212 0
M  V30 1815 H 173.844 0.319242 -0.664269 0
M  V30 1816 H 176.486 0.148052 -1.89422 0
M  V30 1817 H 174.636 2.29824 -3.1323 0
M  V30 1818 H 176.308 0.147596 -4.61064 0
M  V30 1819 H 174.551 0.0694102 -4.33744 0
M  V30 1820 H 175.222 1.34962 -5.35247 0
M  V30 1821 H 177.698 2.11429 -3.58381 0
M  V30 1822 H 176.574 3.16245 -4.48643 0
M  V30 1823 H 176.835 3.44377 -2.77231 0
M  V30 1824 N 175.894 1.51508 0.433938 0
M  V30 1825 C 176.844 1.69451 1.52546 0
M  V30 1826 C 177.828 0.548474 1.51263 0
M  V30 1827 O 179.02 0.804529 1.57659 0
M  V30 1828 C 176.149 1.82604 2.90707 0
M  V30 1829 C 175.235 3.03002 2.96733 0
M  V30 1830 N 175.626 4.26121 2.72496 0
M  V30 1831 C 173.924 3.02327 3.27894 0
M  V30 1832 C 174.625 5.07407 2.84452 0
M  V30 1833 N 173.601 4.42126 3.16269 0
M  V30 1834 H 177.403 2.62305 1.32564 0
M  V30 1835 H 174.917 1.49202 0.641297 0
M  V30 1836 H 176.914 1.93569 3.69238 0
M  V30 1837 H 175.574 0.909339 3.11707 0
M  V30 1838 H 176.585 4.55009 2.4736 0
M  V30 1839 H 173.262 2.20301 3.54646 0
M  V30 1840 H 174.652 6.15422 2.69639 0
M  V30 1841 N 177.372 -0.689602 1.41712 0
M  V30 1842 C 178.282 -1.83314 1.46401 0
M  V30 1843 C 179.298 -1.7036 0.35405 0
M  V30 1844 O 180.474 -1.92171 0.602692 0
M  V30 1845 C 177.539 -3.19344 1.34982 0
M  V30 1846 C 176.6 -3.44363 2.56344 0
M  V30 1847 C 175.833 -4.73904 2.45461 0
M  V30 1848 O 176.056 -5.508 1.48241 0
M  V30 1849 O 174.99 -4.99839 3.35328 0
M  V30 1850 H 178.816 -1.82314 2.42889 0
M  V30 1851 H 176.401 -0.843438 1.23315 0
M  V30 1852 H 178.283 -4.00547 1.3092 0
M  V30 1853 H 176.958 -3.21014 0.41612 0
M  V30 1854 H 175.865 -2.63067 2.65982 0
M  V30 1855 H 177.198 -3.47512 3.48563 0
M  V30 1856 N 178.85 -1.27639 -0.924453 0
M  V30 1857 C 179.798 -1.10485 -2.04685 0
M  V30 1858 C 180.792 -0.0270421 -1.69378 0
M  V30 1859 O 181.998 -0.185008 -1.79047 0
M  V30 1860 H 178.373 -0.340546 -0.670472 0
M  V30 1861 H 180.344 -2.05566 -2.16298 0
M  V30 1862 C 179.093 -0.772229 -3.39016 0
M  V30 1863 H 178.416 -1.59351 -3.66671 0
M  V30 1864 H 179.856 -0.692097 -4.18313 0
M  V30 1865 C 178.315 0.523554 -3.32807 0
M  V30 1866 O 178.845 1.55702 -3.70297 0
M  V30 1867 N 177.051 0.520363 -2.85903 0
M  V30 1868 H 176.598 -0.32107 -2.55591 0
M  V30 1869 H 176.556 1.38742 -2.82131 0
M  V30 1870 N 180.328 1.1314 -1.09713 0
M  V30 1871 C 181.744 1.36477 -0.827423 0
M  V30 1872 C 181.944 1.93654 0.556817 0
M  V30 1873 O 181 2.15791 1.31112 0
M  V30 1874 C 182.313 2.31334 -1.92106 0
M  V30 1875 C 183.861 2.44943 -1.94864 0
M  V30 1876 C 184.336 3.4311 -3.0338 0
M  V30 1877 N 185.827 3.50662 -3.02639 0
M  V30 1878 C 186.562 4.2651 -3.83246 0
M  V30 1879 N 186.058 5.05485 -4.73768 0
M  V30 1880 N 187.851 4.2184 -3.71493 0
M  V30 1881 H 180.002 0.743807 -1.9895 0
M  V30 1882 H 182.265 0.389823 -0.864143 0
M  V30 1883 H 181.971 1.96483 -2.91698 0
M  V30 1884 H 181.845 3.31381 -1.80184 0
M  V30 1885 H 184.232 2.79079 -0.959099 0
M  V30 1886 H 184.313 1.4481 -2.10864 0
M  V30 1887 H 183.957 3.09704 -4.02549 0
M  V30 1888 H 183.887 4.43055 -2.84622 0
M  V30 1889 H 186.378 2.94315 -2.37039 0
M  V30 1890 H 186.691 5.60675 -5.3185 0
M  V30 1891 H 185.036 5.04708 -4.77802 0
M  V30 1892 H 188.227 3.5922 -3.00131 0
M  V30 1893 H 188.4 4.80697 -4.3455 0
M  V30 1894 N 181.806 0.884767 1.30421 0
M  V30 1895 C 182.716 0.355398 2.31892 0
M  V30 1896 C 183.732 -0.542261 1.65335 0
M  V30 1897 O 184.908 -0.435432 1.96637 0
M  V30 1898 C 181.973 -0.421661 3.44126 0
M  V30 1899 C 181.034 0.505727 4.26311 0
M  V30 1900 C 180.267 -0.234343 5.33185 0
M  V30 1901 O 180.49 -1.46045 5.51386 0
M  V30 1902 O 179.424 0.415443 6.00465 0
M  V30 1903 H 183.25 1.19685 2.79122 0
M  V30 1904 H 180.835 0.648596 1.34587 0
M  V30 1905 H 182.717 -0.861641 4.12497 0
M  V30 1906 H 181.392 -1.23942 2.99032 0
M  V30 1907 H 180.299 0.994513 3.60639 0
M  V30 1908 H 181.632 1.28948 4.75009 0
M  V30 1909 N 183.284 -1.43765 0.645699 0
M  V30 1910 C 184.247 -2.29163 -0.0409488 0
M  V30 1911 C 185.247 -1.41813 -0.757996 0
M  V30 1912 O 186.437 -1.63527 -0.600382 0
M  V30 1913 C 183.569 -3.23716 -1.06869 0
M  V30 1914 H 184.762 -2.91366 0.710345 0
M  V30 1915 H 182.315 -1.5092 0.406547 0
M  V30 1916 H 183.05 -2.66393 -1.84947 0
M  V30 1917 H 182.835 -3.88105 -0.558277 0
M  V30 1918 H 184.325 -3.87831 -1.54845 0
M  V30 1919 N 184.763 -0.387143 -1.52771 0
M  V30 1920 C 186.011 0.195349 -2.01154 0
M  V30 1921 C 186.332 1.475 -1.27549 0
M  V30 1922 O 185.602 1.91878 -0.394924 0
M  V30 1923 H 184.182 0.075178 -0.743207 0
M  V30 1924 H 186.844 -0.518337 -1.87881 0
M  V30 1925 H 185.94 0.407096 -3.09434 0
M  V30 1926 N 186.241 1.57166 -0.116904 0
M  V30 1927 C 187.469 1.99473 0.549383 0
M  V30 1928 C 187.884 0.996541 1.60357 0
M  V30 1929 O 187.241 -0.0108731 1.82497 0
M  V30 1930 C 187.292 3.41788 1.17741 0
M  V30 1931 O 187.013 4.37788 0.165362 0
M  V30 1932 C 188.514 3.99216 1.92722 0
M  V30 1933 H 185.734 0.655009 0.145616 0
M  V30 1934 H 188.278 2.03494 -0.202625 0
M  V30 1935 H 186.433 3.38713 1.88021 0
M  V30 1936 H 186.847 5.20806 0.621403 0
M  V30 1937 H 188.321 5.00882 2.31995 0
M  V30 1938 H 188.798 3.3824 2.80161 0
M  V30 1939 H 189.404 4.0583 1.27209 0
M  V30 1940 N 187.719 -0.156864 1.56817 0
M  V30 1941 C 188.965 -0.867645 1.83966 0
M  V30 1942 C 189.32 -1.79233 0.699511 0
M  V30 1943 O 188.613 -1.89186 -0.303176 0
M  V30 1944 C 188.807 -1.68737 3.1506 0
M  V30 1945 C 188.636 -0.843548 4.41718 0
M  V30 1946 C 187.406 -0.512994 5.02689 0
M  V30 1947 C 189.604 -0.178416 5.1399 0
M  V30 1948 N 187.586 0.345456 6.12927 0
M  V30 1949 C 188.957 0.540586 6.17639 0
M  V30 1950 C 191.012 -0.0980696 4.97803 0
M  V30 1951 C 189.715 1.33233 7.06853 0
M  V30 1952 C 191.741 0.680387 5.87473 0
M  V30 1953 C 191.103 1.3877 6.90596 0
M  V30 1954 H 187.202 -0.295642 0.723961 0
M  V30 1955 H 189.786 -0.13365 1.94241 0
M  V30 1956 H 187.957 -2.39268 3.0595 0
M  V30 1957 H 189.689 -2.34056 3.30151 0
M  V30 1958 H 186.444 -0.846476 4.65974 0
M  V30 1959 H 186.868 0.765415 6.72659 0
M  V30 1960 H 191.51 -0.630562 4.18071 0
M  V30 1961 H 189.228 1.87612 7.8602 0
M  V30 1962 H 192.814 0.744415 5.77018 0
M  V30 1963 H 191.694 1.9804 7.58782 0
M  V30 1964 N 189.197 -1.51736 -0.425897 0
M  V30 1965 C 190.147 -1.70258 -1.51645 0
M  V30 1966 C 191.131 -0.556488 -1.5097 0
M  V30 1967 O 192.323 -0.812879 -1.5723 0
M  V30 1968 C 189.452 -1.84143 -2.89735 0
M  V30 1969 C 188.538 -3.04572 -2.95122 0
M  V30 1970 N 188.929 -4.2756 -2.70233 0
M  V30 1971 C 187.227 -3.04061 -3.26286 0
M  V30 1972 C 187.928 -5.08908 -2.81757 0
M  V30 1973 N 186.904 -4.43797 -3.13919 0
M  V30 1974 H 190.706 -2.63004 -1.31172 0
M  V30 1975 H 188.22 -1.4954 -0.633375 0
M  V30 1976 H 190.217 -1.95525 -3.68206 0
M  V30 1977 H 188.877 -0.925857 -3.1122 0
M  V30 1978 H 189.888 -4.56315 -2.44943 0
M  V30 1979 H 186.565 -2.22179 -3.53473 0
M  V30 1980 H 187.955 -6.16843 -2.66372 0
M  V30 1981 N 190.675 0.682077 -1.42076 0
M  V30 1982 C 191.924 1.43786 -1.41451 0
M  V30 1983 C 192.237 1.95574 -0.0317074 0
M  V30 1984 O 193.443 2.71326 0.0971462 0
M  V30 1985 C 191.899 2.60071 -2.48779 0
M  V30 1986 C 191.507 2.15013 -3.93031 0
M  V30 1987 C 193.251 3.37626 -2.57311 0
M  V30 1988 C 191.158 3.28336 -4.91883 0
M  V30 1989 H 190.088 0.540143 -0.526082 0
M  V30 1990 H 192.739 0.739157 -1.67955 0
M  V30 1991 H 191.121 3.32275 -2.15429 0
M  V30 1992 H 192.295 1.5001 -4.35699 0
M  V30 1993 H 190.61 1.50416 -3.88284 0
M  V30 1994 H 193.207 4.22012 -3.28345 0
M  V30 1995 H 193.55 3.83727 -1.61429 0
M  V30 1996 H 194.083 2.72488 -2.89819 0
M  V30 1997 H 190.822 2.87234 -5.89217 0
M  V30 1998 H 190.342 3.92145 -4.53853 0
M  V30 1999 H 192.021 3.93913 -5.13265 0
M  V30 2000 N 192.153 1.28127 0.917671 0
M  V30 2001 C 193.103 1.08361 2.00604 0
M  V30 2002 C 194.087 0.00847518 1.60898 0
M  V30 2003 O 195.279 0.228167 1.75523 0
M  V30 2004 C 192.408 0.743376 3.35155 0
M  V30 2005 C 191.494 1.85716 3.81275 0
M  V30 2006 N 191.885 3.09822 3.99805 0
M  V30 2007 C 190.183 1.74612 4.10398 0
M  V30 2008 C 190.884 3.82368 4.38372 0
M  V30 2009 N 189.86 3.10192 4.4641 0
M  V30 2010 H 193.662 2.02531 2.12975 0
M  V30 2011 H 191.176 1.18989 1.10523 0
M  V30 2012 H 193.173 0.582859 4.12805 0
M  V30 2013 H 191.833 -0.190595 3.2414 0
M  V30 2014 H 192.844 3.45475 3.85833 0
M  V30 2015 H 189.521 0.883657 4.08041 0
M  V30 2016 H 190.911 4.89082 4.60704 0
M  V30 2017 N 193.631 -1.12557 1.10312 0
M  V30 2018 C 194.879 -1.83675 0.843091 0
M  V30 2019 C 195.2 -1.84435 -0.633131 0
M  V30 2020 O 194.47 -1.30657 -1.45964 0
M  V30 2021 H 193.05 -0.680138 0.308904 0
M  V30 2022 H 195.712 -1.36301 1.39313 0
M  V30 2023 H 194.808 -2.87908 1.2048 0
M  V30 2024 N 195.109 -0.891671 -1.2995 0
M  V30 2025 C 196.072 -0.36828 -2.26222 0
M  V30 2026 C 197.072 0.493014 -1.53056 0
M  V30 2027 O 198.262 0.299213 -1.71611 0
M  V30 2028 C 195.394 0.47442 -3.37583 0
M  V30 2029 H 196.587 -1.21844 -2.74033 0
M  V30 2030 H 194.14 -0.669107 -1.41254 0
M  V30 2031 H 194.875 1.34489 -2.95099 0
M  V30 2032 H 194.66 -0.142615 -3.91841 0
M  V30 2033 H 196.15 0.83218 -4.09224 0
M  V30 2034 N 196.587 1.43421 -0.653314 0
M  V30 2035 C 197.836 2.01032 -0.164076 0
M  V30 2036 C 198.149 1.52147 1.22926 0
M  V30 2037 O 199.355 2.02031 1.81371 0
M  V30 2038 C 197.811 3.59082 -0.24252 0
M  V30 2039 C 197.419 4.1696 -1.63855 0
M  V30 2040 C 199.163 4.24079 0.18911 0
M  V30 2041 C 197.07 5.67304 -1.67092 0
M  V30 2042 H 196 0.751798 -0.0575769 0
M  V30 2043 H 198.651 1.6439 -0.815362 0
M  V30 2044 H 197.033 3.93125 0.476276 0
M  V30 2045 H 198.207 3.94416 -2.38271 0
M  V30 2046 H 196.522 3.64335 -2.01616 0
M  V30 2047 H 199.119 5.34381 0.184775 0
M  V30 2048 H 199.462 3.98005 1.22056 0
M  V30 2049 H 199.995 3.94918 -0.477938 0
M  V30 2050 H 196.734 5.98145 -2.68146 0
M  V30 2051 H 196.254 5.91904 -0.970014 0
M  V30 2052 H 197.933 6.31344 -1.4147 0
M  V30 2053 N 198.065 0.39524 1.52563 0
M  V30 2054 C 199.313 -0.184678 2.01254 0
M  V30 2055 C 199.634 -1.46822 1.28329 0
M  V30 2056 O 198.904 -1.91666 0.405094 0
M  V30 2057 H 197.484 -0.0712355 0.743596 0
M  V30 2058 H 200.146 0.528293 1.87603 0
M  V30 2059 H 199.242 -0.390681 3.09645 0
M  V30 2060 N 199.544 -1.57102 0.125237 0
M  V30 2061 C 200.772 -1.99761 -0.538797 0
M  V30 2062 C 201.187 -1.00503 -1.59827 0
M  V30 2063 O 200.544 0.00119474 -1.825 0
M  V30 2064 C 200.595 -3.42408 -1.15927 0
M  V30 2065 O 200.316 -4.37869 -0.142143 0
M  V30 2066 C 201.817 -4.00232 -1.90602 0
M  V30 2067 H 199.037 -0.655772 -0.14214 0
M  V30 2068 H 201.581 -2.03383 0.213413 0
M  V30 2069 H 199.736 -3.39706 -1.86223 0
M  V30 2070 H 200.15 -5.21128 -0.593775 0
M  V30 2071 H 201.624 -5.02105 -2.29335 0
M  V30 2072 H 202.101 -3.39721 -2.78363 0
M  V30 2073 H 202.707 -4.06499 -1.25055 0
M  V30 2074 N 201.022 0.148545 -1.56898 0
M  V30 2075 C 202.299 0.890019 -1.74178 0
M  V30 2076 C 202.679 1.99407 -0.692839 0
M  V30 2077 O 202.027 2.26671 0.288505 0
M  V30 2078 C 202.237 1.43389 -3.18183 0
M  V30 2079 C 203.585 1.89791 -3.79822 0
M  V30 2080 O 204.609 1.53134 -3.21603 0
M  V30 2081 O 203.468 2.57387 -4.82093 0
M  V30 2082 H 200.562 0.420496 -0.712118 0
M  V30 2083 H 203.108 0.134591 -1.69165 0
M  V30 2084 H 201.88 0.640383 -3.86024 0
M  V30 2085 H 201.503 2.25287 -3.27615 0
M  V30 2086 N 202.5 1.5196 0.417844 0
M  V30 2087 C 203.747 1.65591 1.16559 0
M  V30 2088 C 204.075 0.381565 1.90721 0
M  V30 2089 O 203.33 -0.635156 1.85106 0
M  V30 2090 C 203.629 2.82269 2.19223 0
M  V30 2091 C 203.295 4.20819 1.61933 0
M  V30 2092 C 201.957 4.58506 1.46033 0
M  V30 2093 C 204.309 5.07196 1.20008 0
M  V30 2094 C 201.637 5.80257 0.867113 0
M  V30 2095 C 203.989 6.29544 0.621086 0
M  V30 2096 C 202.653 6.65987 0.449144 0
M  V30 2097 H 201.923 0.605939 0.42652 0
M  V30 2098 H 204.57 1.86041 0.45397 0
M  V30 2099 H 202.875 2.56118 2.96498 0
M  V30 2100 H 204.572 2.90012 2.76936 0
M  V30 2101 H 201.162 3.91116 1.7529 0
M  V30 2102 H 205.346 4.7867 1.31105 0
M  V30 2103 H 200.602 6.07124 0.721833 0
M  V30 2104 H 204.776 6.95805 0.287798 0
M  V30 2105 H 202.403 7.60199 -0.012632 0
M  V30 2106 N 203.978 -0.674533 1.42435 0
M  V30 2107 C 205.206 -1.46283 1.46317 0
M  V30 2108 C 205.621 -1.88653 0.0745836 0
M  V30 2109 O 204.978 -1.58151 -0.91074 0
M  V30 2110 C 205.029 -2.71178 2.3905 0
M  V30 2111 O 204.75 -2.30586 3.72507 0
M  V30 2112 C 206.251 -3.64738 2.51955 0
M  V30 2113 H 203.471 -0.450104 0.497642 0
M  V30 2114 H 206.015 -0.828792 1.86953 0
M  V30 2115 H 204.17 -3.3077 2.01667 0
M  V30 2116 H 204.584 -3.11241 4.22172 0
M  V30 2117 H 206.058 -4.49096 3.20962 0
M  V30 2118 H 206.535 -4.10656 1.55752 0
M  V30 2119 H 207.141 -3.11038 2.90061 0
M  V30 2120 N 205.456 -1.28612 -0.910864 0
M  V30 2121 C 206.705 -1.15311 -1.65488 0
M  V30 2122 C 207.018 0.296999 -1.93332 0
M  V30 2123 O 208.224 0.551168 -2.65847 0
M  V30 2124 C 206.68 -2.01599 -2.98137 0
M  V30 2125 C 206.288 -3.51367 -2.7793 0
M  V30 2126 C 208.032 -1.96993 -3.76024 0
M  V30 2127 C 205.939 -4.29797 -4.06237 0
M  V30 2128 H 204.869 -0.42796 -0.620779 0
M  V30 2129 H 207.52 -1.53166 -1.01057 0
M  V30 2130 H 205.902 -1.56603 -3.63719 0
M  V30 2131 H 207.076 -4.0434 -2.21011 0
M  V30 2132 H 205.391 -3.57529 -2.13452 0
M  V30 2133 H 207.988 -2.52856 -4.71135 0
M  V30 2134 H 208.331 -0.94733 -4.05378 0
M  V30 2135 H 208.864 -2.39973 -3.17266 0
M  V30 2136 H 205.603 -5.32648 -3.82055 0
M  V30 2137 H 205.123 -3.81596 -4.62757 0
M  V30 2138 H 206.802 -4.39869 -4.74473 0
M  V30 2139 N 206.934 1.1197 -1.10907 0
M  V30 2140 C 207.881 2.17846 -0.762345 0
M  V30 2141 C 208.851 1.63995 0.263599 0
M  V30 2142 O 210.036 1.90273 0.141773 0
M  V30 2143 C 207.176 3.44487 -0.205651 0
M  V30 2144 C 206.289 4.12369 -1.28748 0
M  V30 2145 C 205.424 5.26674 -0.691919 0
M  V30 2146 C 204.463 5.86431 -1.75399 0
M  V30 2147 N 203.6 6.92142 -1.17833 0
M  V30 2148 H 208.44 2.46851 -1.6694 0
M  V30 2149 H 205.977 1.21188 -0.833776 0
M  V30 2150 H 207.935 4.16981 0.135037 0
M  V30 2151 H 206.565 3.15884 0.664613 0
M  V30 2152 H 205.617 3.38003 -1.74522 0
M  V30 2153 H 206.929 4.52844 -2.09125 0
M  V30 2154 H 206.083 6.05953 -0.300963 0
M  V30 2155 H 204.822 4.8749 0.143232 0
M  V30 2156 H 203.827 5.05835 -2.15432 0
M  V30 2157 H 205.052 6.27685 -2.59208 0
M  V30 2158 H 202.998 6.54985 -0.364725 0
M  V30 2159 H 202.915 7.31242 -1.91887 0
M  V30 2160 H 204.183 7.75237 -0.81408 0
M  V30 2161 N 208.412 0.89855 1.29475 0
M  V30 2162 C 209.362 0.346767 2.25348 0
M  V30 2163 C 210.346 -0.532509 1.51833 0
M  V30 2164 O 211.538 -0.374714 1.72988 0
M  V30 2165 C 208.667 -0.425681 3.40651 0
M  V30 2166 C 207.753 0.46845 4.21505 0
M  V30 2167 N 208.144 1.57514 4.80648 0
M  V30 2168 C 206.442 0.26603 4.45206 0
M  V30 2169 C 207.143 2.12889 5.41344 0
M  V30 2170 N 206.119 1.42208 5.24669 0
M  V30 2171 H 209.921 1.19219 2.68634 0
M  V30 2172 H 207.435 0.749473 1.44072 0
M  V30 2173 H 209.432 -0.837716 4.08397 0
M  V30 2174 H 208.092 -1.26838 2.98902 0
M  V30 2175 H 209.103 1.95789 4.79465 0
M  V30 2176 H 205.78 -0.538394 4.14014 0
M  V30 2177 H 207.17 3.05901 5.98226 0
M  V30 2178 N 209.89 -1.43072 0.660911 0
M  V30 2179 C 211.115 -2.06584 0.183805 0
M  V30 2180 C 211.54 -1.49257 -1.14472 0
M  V30 2181 O 210.898 -0.605528 -1.70889 0
M  V30 2182 C 210.946 -3.60418 0.114434 0
M  V30 2183 O 210.05 -4.01981 -0.921137 0
M  V30 2184 H 209.391 -0.656669 0.0983994 0
M  V30 2185 H 211.921 -1.83447 0.906006 0
M  V30 2186 H 211.931 -4.07946 -0.0663394 0
M  V30 2187 H 210.606 -4.01519 1.08422 0
M  V30 2188 H 209.183 -3.66029 -0.71253 0
M  V30 2189 N 211.368 -0.403325 -1.52352 0
M  V30 2190 C 212.616 0.174003 -2.0135 0
M  V30 2191 C 212.937 1.46139 -1.29106 0
M  V30 2192 O 212.207 1.91448 -0.415253 0
M  V30 2193 H 210.787 0.0672911 -0.743963 0
M  V30 2194 H 213.449 -0.538235 -1.87321 0
M  V30 2195 H 212.545 0.374254 -3.09848 0
M  V30 2196 N 212.846 1.57033 -0.133567 0
M  V30 2197 C 214.074 2.00044 0.528195 0
M  V30 2198 C 214.489 1.01349 1.59291 0
M  V30 2199 O 213.846 0.00848369 1.82498 0
M  V30 2200 C 213.897 3.43018 1.1411 0
M  V30 2201 O 213.618 4.37939 0.11892 0
M  V30 2202 C 215.119 4.01237 1.88477 0
M  V30 2203 H 212.339 0.656517 0.138661 0
M  V30 2204 H 214.883 2.03267 -0.224196 0
M  V30 2205 H 213.038 3.40688 1.84418 0
M  V30 2206 H 213.452 5.21436 0.56613 0
M  V30 2207 H 214.926 5.03314 2.26669 0
M  V30 2208 H 215.403 3.41193 2.76558 0
M  V30 2209 H 216.009 4.07156 1.22898 0
M  V30 2210 N 214.325 -0.140222 1.56975 0
M  V30 2211 C 215.288 -1.15689 1.97861 0
M  V30 2212 C 216.288 -1.3549 0.865974 0
M  V30 2213 O 217.478 -1.32367 1.13246 0
M  V30 2214 C 214.61 -2.51582 2.30042 0
M  V30 2215 H 215.803 -0.805971 2.88867 0
M  V30 2216 H 213.356 -0.383801 1.51515 0
M  V30 2217 H 214.091 -2.91632 1.41849 0
M  V30 2218 H 213.876 -2.38569 3.11171 0
M  V30 2219 H 215.366 -3.24792 2.62488 0
M  V30 2220 N 215.803 -1.52179 -0.40978 0
M  V30 2221 C 216.751 -1.76086 -1.51975 0
M  V30 2222 C 217.745 -0.627964 -1.57331 0
M  V30 2223 O 218.951 -0.809993 -1.60745 0
M  V30 2224 H 215.326 -0.556829 -0.505416 0
M  V30 2225 H 217.297 -2.69077 -1.28996 0
M  V30 2226 C 216.046 -1.92799 -2.8935 0
M  V30 2227 H 215.369 -2.79392 -2.85972 0
M  V30 2228 H 216.809 -2.13527 -3.66309 0
M  V30 2229 C 215.268 -0.694923 -3.29655 0
M  V30 2230 O 215.798 0.13751 -4.01465 0
M  V30 2231 N 214.004 -0.53101 -2.85707 0
M  V30 2232 H 213.551 -1.20952 -2.27439 0
M  V30 2233 H 213.509 0.292718 -3.13034 0
M  V30 2234 N 217.281 0.66697 -1.42791 0
M  V30 2235 C 218.528 1.42699 -1.43678 0
M  V30 2236 C 218.856 1.94419 -0.0560425 0
M  V30 2237 O 218.111 1.7182 0.936831 0
M  V30 2238 C 218.41 2.6349 -2.4147 0
M  V30 2239 C 218.076 2.30267 -3.8767 0
M  V30 2240 C 216.738 2.20918 -4.27491 0
M  V30 2241 C 219.09 2.03435 -4.79858 0
M  V30 2242 C 216.418 1.82873 -5.57471 0
M  V30 2243 C 218.77 1.66892 -6.10188 0
M  V30 2244 C 217.434 1.56058 -6.49001 0
M  V30 2245 H 216.704 0.522171 -0.525755 0
M  V30 2246 H 219.351 0.759785 -1.75783 0
M  V30 2247 H 217.656 3.35279 -2.0272 0
M  V30 2248 H 219.353 3.21684 -2.39417 0
M  V30 2249 H 215.943 2.38449 -3.56146 0
M  V30 2250 H 220.127 2.09586 -4.49875 0
M  V30 2251 H 215.383 1.7306 -5.86396 0
M  V30 2252 H 219.557 1.45157 -6.81104 0
M  V30 2253 H 217.184 1.26348 -7.49627 0
M  V30 2254 N 218.759 1.29093 0.90403 0
M  V30 2255 C 219.669 1.15727 2.0407 0
M  V30 2256 C 220.685 0.0815308 1.73809 0
M  V30 2257 O 221.861 0.292749 1.99261 0
M  V30 2258 C 218.926 0.830424 3.36608 0
M  V30 2259 C 217.987 1.98955 3.80415 0
M  V30 2260 C 217.22 1.6782 5.06628 0
M  V30 2261 O 217.443 0.597105 5.67266 0
M  V30 2262 O 216.377 2.52486 5.46383 0
M  V30 2263 H 220.203 2.11171 2.18267 0
M  V30 2264 H 217.788 1.08504 1.027 0
M  V30 2265 H 219.67 0.662521 4.16159 0
M  V30 2266 H 218.345 -0.0942678 3.23563 0
M  V30 2267 H 217.252 2.21267 3.01648 0
M  V30 2268 H 218.585 2.89529 3.98037 0
M  V30 2269 N 220.237 -1.11381 1.11499 0
M  V30 2270 C 221.169 -2.17207 0.731704 0
M  V30 2271 C 222.182 -1.61066 -0.236957 0
M  V30 2272 O 223.371 -1.78489 -0.0197591 0
M  V30 2273 C 220.471 -3.38846 0.0607624 0
M  V30 2274 C 219.644 -4.24451 1.0564 0
M  V30 2275 C 218.703 -5.24562 0.4149 0
M  V30 2276 O 217.729 -5.59071 1.069 0
M  V30 2277 N 218.931 -5.74651 -0.821943 0
M  V30 2278 H 221.696 -2.50699 1.64225 0
M  V30 2279 H 219.257 -1.26908 1.00529 0
M  V30 2280 H 221.249 -4.02911 -0.380139 0
M  V30 2281 H 219.819 -3.03411 -0.752376 0
M  V30 2282 H 219.039 -3.56833 1.67524 0
M  V30 2283 H 220.327 -4.78486 1.72998 0
M  V30 2284 H 219.725 -5.48797 -1.37252 0
M  V30 2285 H 218.282 -6.40549 -1.20582 0
M  V30 2286 N 221.715 -0.905404 -1.28997 0
M  V30 2287 C 222.678 -0.392253 -2.25819 0
M  V30 2288 C 223.678 0.476753 -1.5357 0
M  V30 2289 O 224.868 0.280994 -1.71919 0
M  V30 2290 C 222 0.438588 -3.38067 0
M  V30 2291 H 223.193 -1.24743 -2.72725 0
M  V30 2292 H 220.746 -0.684051 -1.40536 0
M  V30 2293 H 221.481 1.31352 -2.96508 0
M  V30 2294 H 221.266 -0.184167 -3.91667 0
M  V30 2295 H 222.756 0.78873 -4.10084 0
M  V30 2296 N 223.193 1.4272 -0.668489 0
M  V30 2297 C 224.439 2.01923 -0.188419 0
M  V30 2298 C 224.772 1.52704 1.19979 0
M  V30 2299 O 224.047 0.726566 1.8042 0
M  V30 2300 C 224.33 3.59451 -0.216085 0
M  V30 2301 C 224.183 4.18864 -1.6393 0
M  V30 2302 C 225.502 4.37903 0.439179 0
M  V30 2303 H 222.621 0.733674 -0.0699412 0
M  V30 2304 H 225.263 1.69822 -0.852076 0
M  V30 2305 H 223.413 3.86929 0.349012 0
M  V30 2306 H 225.085 4.02362 -2.25616 0
M  V30 2307 H 223.328 3.74933 -2.18193 0
M  V30 2308 H 223.999 5.27987 -1.61039 0
M  V30 2309 H 226.475 4.16079 -0.0417878 0
M  V30 2310 H 225.351 5.47519 0.389157 0
M  V30 2311 H 225.612 4.15303 1.51577 0
M  V30 2312 N 224.671 0.411399 1.52136 0
M  V30 2313 C 225.917 -0.163888 2.02137 0
M  V30 2314 C 226.25 -1.44597 1.29636 0
M  V30 2315 O 225.525 -1.90272 0.403353 0
M  V30 2316 C 225.808 -0.40927 3.57767 0
M  V30 2317 C 225.661 0.889643 4.40914 0
M  V30 2318 C 226.98 -1.19042 4.23694 0
M  V30 2319 H 224.099 -0.0580896 0.734707 0
M  V30 2320 H 226.741 0.54531 1.82007 0
M  V30 2321 H 224.891 -1.0134 3.7505 0
M  V30 2322 H 226.563 1.52575 4.35337 0
M  V30 2323 H 224.806 1.50011 4.07037 0
M  V30 2324 H 225.477 0.672314 5.4789 0
M  V30 2325 H 227.953 -0.678942 4.10524 0
M  V30 2326 H 226.829 -1.33086 5.32522 0
M  V30 2327 H 227.09 -2.21166 3.82803 0
M  V30 2328 N 226.149 -1.5696 0.141893 0
M  V30 2329 C 227.426 -1.87553 -0.555281 0
M  V30 2330 C 227.806 -1.04699 -1.83306 0
M  V30 2331 O 227.154 -0.132346 -2.28116 0
M  V30 2332 C 227.364 -3.39093 -0.825664 0
M  V30 2333 C 228.712 -4.08199 -1.16869 0
M  V30 2334 O 229.736 -3.44242 -0.915185 0
M  V30 2335 O 228.595 -5.21139 -1.6455 0
M  V30 2336 H 225.689 -0.777188 -0.282679 0
M  V30 2337 H 228.235 -1.68763 0.17812 0
M  V30 2338 H 227.007 -3.91221 0.0788633 0
M  V30 2339 H 226.63 -3.63393 -1.61343 0
M  V30 2340 N 227.627 0.131896 -1.57047 0
M  V30 2341 C 228.904 0.871495 -1.75112 0
M  V30 2342 C 229.284 1.9866 -0.713949 0
M  V30 2343 O 228.632 2.26965 0.264447 0
M  V30 2344 C 228.842 1.40007 -3.19686 0
M  V30 2345 C 230.19 1.85752 -3.81813 0
M  V30 2346 O 231.214 1.49715 -3.23209 0
M  V30 2347 O 230.073 2.5226 -4.84796 0
M  V30 2348 H 227.167 0.412919 -0.716538 0
M  V30 2349 H 229.713 0.116641 -1.69299 0
M  V30 2350 H 228.485 0.599404 -3.86682 0
M  V30 2351 H 228.108 2.218 -3.29986 0
M  V30 2352 N 229.106 1.52395 0.401703 0
M  V30 2353 C 230.336 1.70429 1.1678 0
M  V30 2354 C 230.744 0.416702 1.84554 0
M  V30 2355 O 230.087 -0.617697 1.73003 0
M  V30 2356 C 230.149 2.78919 2.26814 0
M  V30 2357 C 229.813 4.20437 1.79113 0
M  V30 2358 C 230.81 5.04028 1.27482 0
M  V30 2359 C 228.495 4.66704 1.85722 0
M  V30 2360 C 230.489 6.31961 0.830913 0
M  V30 2361 C 228.176 5.94625 1.40942 0
M  V30 2362 C 229.174 6.77082 0.897128 0
M  V30 2363 O 228.862 8.02607 0.455822 0
M  V30 2364 H 228.594 0.574272 0.356634 0
M  V30 2365 H 231.148 1.99767 0.477724 0
M  V30 2366 H 229.378 2.44973 2.99207 0
M  V30 2367 H 231.067 2.8548 2.88541 0
M  V30 2368 H 231.833 4.69471 1.21744 0
M  V30 2369 H 227.712 4.0262 2.24539 0
M  V30 2370 H 231.256 6.96271 0.430368 0
M  V30 2371 H 227.153 6.28688 1.46362 0
M  V30 2372 H 227.921 8.16453 0.578457 0
M  V30 2373 N 230.584 -0.659388 1.43143 0
M  V30 2374 C 231.532 -1.79374 1.4808 0
M  V30 2375 C 232.526 -1.65639 0.354988 0
M  V30 2376 O 233.732 -1.7206 0.528704 0
M  V30 2377 H 230.107 -0.591705 0.4641 0
M  V30 2378 H 232.078 -1.72329 2.43609 0
M  V30 2379 C 230.827 -3.17606 1.41499 0
M  V30 2380 H 230.15 -3.28809 2.27431 0
M  V30 2381 H 231.59 -3.96951 1.49015 0
M  V30 2382 C 230.049 -3.36642 0.131765 0
M  V30 2383 O 230.579 -3.93461 -0.809386 0
M  V30 2384 N 228.785 -2.90567 0.0439396 0
M  V30 2385 H 228.332 -2.44513 0.810619 0
M  V30 2386 H 228.29 -3.03681 -0.813969 0
M  V30 2387 N 232.062 -1.29571 -0.897171 0
M  V30 2388 C 233.339 -1.08365 -1.62839 0
M  V30 2389 C 233.719 0.371331 -2.07808 0
M  V30 2390 O 233.067 1.3606 -1.83576 0
M  V30 2391 C 233.277 -2.0735 -2.80726 0
M  V30 2392 C 234.625 -2.38406 -3.51351 0
M  V30 2393 O 235.649 -2.05564 -2.90898 0
M  V30 2394 O 234.508 -2.9453 -4.60341 0
M  V30 2395 H 231.602 -0.415345 -0.715134 0
M  V30 2396 H 234.148 -1.40952 -0.945018 0
M  V30 2397 H 232.92 -3.05339 -2.44711 0
M  V30 2398 H 232.543 -1.75507 -3.56767 0
M  V30 2399 N 233.54 1.10788 -1.12088 0
M  V30 2400 C 234.786 1.8313 -0.885148 0
M  V30 2401 C 235.141 1.8336 0.582839 0
M  V30 2402 O 234.434 1.28062 1.42516 0
M  V30 2403 C 234.628 3.29294 -1.38926 0
M  V30 2404 C 234.457 3.43302 -2.90472 0
M  V30 2405 C 233.227 3.55928 -3.58669 0
M  V30 2406 C 235.425 3.37014 -3.88492 0
M  V30 2407 N 233.407 3.58475 -4.98366 0
M  V30 2408 C 234.778 3.46263 -5.14298 0
M  V30 2409 C 236.833 3.20589 -3.80955 0
M  V30 2410 C 235.536 3.4078 -6.33452 0
M  V30 2411 C 237.562 3.16427 -4.99628 0
M  V30 2412 C 236.924 3.26253 -6.2429 0
M  V30 2413 H 233.023 0.685054 -0.377128 0
M  V30 2414 H 235.607 1.3251 -1.4265 0
M  V30 2415 H 233.778 3.78416 -0.874999 0
M  V30 2416 H 235.51 3.89578 -1.09596 0
M  V30 2417 H 232.265 3.58779 -3.09151 0
M  V30 2418 H 232.689 3.6337 -5.71219 0
M  V30 2419 H 237.331 3.11873 -2.85474 0
M  V30 2420 H 235.049 3.48263 -7.29204 0
M  V30 2421 H 238.635 3.04874 -4.95523 0
M  V30 2422 H 237.515 3.2303 -7.14578 0
M  V30 2423 N 235.018 0.912232 1.28515 0
M  V30 2424 C 236.248 0.559604 1.98877 0
M  V30 2425 C 236.656 -0.863113 1.68366 0
M  V30 2426 O 235.999 -1.58304 0.931969 0
M  V30 2427 C 236.061 0.68703 3.52874 0
M  V30 2428 C 235.725 2.07901 4.06972 0
M  V30 2429 C 236.722 3.05157 4.20922 0
M  V30 2430 C 234.407 2.39178 4.417 0
M  V30 2431 C 236.401 4.31806 4.68852 0
M  V30 2432 C 234.088 3.66068 4.89324 0
M  V30 2433 C 235.086 4.62195 5.02856 0
M  V30 2434 O 234.774 5.86829 5.49442 0
M  V30 2435 H 234.506 0.212191 0.641834 0
M  V30 2436 H 237.06 1.22712 1.64715 0
M  V30 2437 H 235.29 -0.0375486 3.86682 0
M  V30 2438 H 236.979 0.341727 4.04459 0
M  V30 2439 H 237.745 2.82311 3.94367 0
M  V30 2440 H 233.624 1.65109 4.30418 0
M  V30 2441 H 237.168 5.06842 4.79329 0
M  V30 2442 H 233.065 3.88739 5.15318 0
M  V30 2443 H 233.833 5.89597 5.6773 0
M  V30 2444 N 236.496 -1.42363 0.676048 0
M  V30 2445 C 237.742 -2.0182 0.199125 0
M  V30 2446 C 238.075 -1.53339 -1.19168 0
M  V30 2447 O 237.35 -0.736124 -1.80032 0
M  V30 2448 C 237.633 -3.59331 0.235144 0
M  V30 2449 C 237.486 -4.17989 1.66149 0
M  V30 2450 C 238.805 -4.3813 -0.41595 0
M  V30 2451 H 235.924 -0.733293 0.0738311 0
M  V30 2452 H 238.566 -1.69368 0.86107 0
M  V30 2453 H 236.716 -3.87109 -0.328487 0
M  V30 2454 H 238.388 -4.0116 2.27747 0
M  V30 2455 H 236.631 -3.7377 2.20178 0
M  V30 2456 H 237.302 -5.27126 1.63837 0
M  V30 2457 H 239.778 -4.16051 0.0638529 0
M  V30 2458 H 238.654 -5.47717 -0.360115 0
M  V30 2459 H 238.915 -4.16101 -1.49373 0
M  V30 2460 N 237.974 -0.419461 -1.51915 0
M  V30 2461 C 239.39 -0.0708431 -1.59443 0
M  V30 2462 C 239.59 1.41796 -1.43164 0
M  V30 2463 O 238.646 2.18596 -1.26381 0
M  V30 2464 C 239.959 -0.574991 -2.95151 0
M  V30 2465 C 241.507 -0.533867 -3.08413 0
M  V30 2466 C 241.982 -1.01469 -4.46618 0
M  V30 2467 N 243.473 -0.971939 -4.52888 0
M  V30 2468 C 244.208 -1.31505 -5.58116 0
M  V30 2469 N 243.704 -1.73014 -6.70849 0
M  V30 2470 N 245.497 -1.23436 -5.48379 0
M  V30 2471 H 237.648 -1.38836 -1.60743 0
M  V30 2472 H 239.911 -0.570998 -0.756747 0
M  V30 2473 H 239.617 -1.61597 -3.12377 0
M  V30 2474 H 239.491 0.00979777 -3.77199 0
M  V30 2475 H 241.878 0.498086 -2.90866 0
M  V30 2476 H 241.959 -1.15484 -2.28248 0
M  V30 2477 H 241.603 -2.04502 -4.6491 0
M  V30 2478 H 241.533 -0.370433 -5.25295 0
M  V30 2479 H 244.024 -0.666893 -3.71969 0
M  V30 2480 H 244.337 -1.97479 -7.47143 0
M  V30 2481 H 242.682 -1.76926 -6.72103 0
M  V30 2482 H 245.873 -0.908869 -4.59192 0
M  V30 2483 H 246.046 -1.50506 -6.30279 0
M  V30 2484 N 239.452 1.56882 -0.150215 0
M  V30 2485 C 240.7 1.9584 0.499105 0
M  V30 2486 C 241.021 1.03623 1.65188 0
M  V30 2487 O 240.291 0.0984084 1.95653 0
M  V30 2488 H 238.871 0.723119 0.187373 0
M  V30 2489 H 241.533 1.9358 -0.226466 0
M  V30 2490 H 240.629 2.99638 0.873122 0
M  V30 2491 N 240.93 -0.123565 1.57115 0
M  V30 2492 C 241.86 -1.15309 2.03042 0
M  V30 2493 C 242.841 -1.43454 0.914061 0
M  V30 2494 O 244.026 -1.53973 1.18347 0
M  V30 2495 C 241.156 -2.48043 2.43089 0
M  V30 2496 C 240.11 -2.3437 3.58127 0
M  V30 2497 C 239.436 -3.72026 3.84059 0
M  V30 2498 C 240.736 -1.80804 4.90007 0
M  V30 2499 H 242.43 -0.771102 2.893 0
M  V30 2500 H 239.976 -0.369479 1.39179 0
M  V30 2501 H 241.929 -3.20311 2.73823 0
M  V30 2502 H 240.653 -2.88122 1.53796 0
M  V30 2503 H 239.312 -1.64551 3.27595 0
M  V30 2504 H 238.96 -4.09582 2.91979 0
M  V30 2505 H 238.66 -3.63732 4.6149 0
M  V30 2506 H 240.184 -4.45806 4.1724 0
M  V30 2507 H 241.598 -2.42886 5.19307 0
M  V30 2508 H 239.995 -1.83343 5.71407 0
M  V30 2509 H 241.065 -0.76528 4.78823 0
M  V30 2510 N 242.408 -1.52605 -0.393616 0
M  V30 2511 C 243.338 -1.80022 -1.48709 0
M  V30 2512 C 244.319 -0.651995 -1.57108 0
M  V30 2513 O 245.504 -0.89913 -1.72132 0
M  V30 2514 C 242.634 -1.96492 -2.86371 0
M  V30 2515 C 241.588 -3.12161 -2.92813 0
M  V30 2516 C 240.914 -3.13877 -4.3288 0
M  V30 2517 C 242.214 -4.51322 -2.6288 0
M  V30 2518 H 243.908 -2.71589 -1.26015 0
M  V30 2519 H 241.454 -1.30684 -0.604778 0
M  V30 2520 H 243.407 -2.14255 -3.62867 0
M  V30 2521 H 242.131 -1.01611 -3.10391 0
M  V30 2522 H 240.79 -2.94173 -2.18764 0
M  V30 2523 H 240.438 -2.16687 -4.53933 0
M  V30 2524 H 240.138 -3.91576 -4.38112 0
M  V30 2525 H 241.662 -3.33789 -5.1129 0
M  V30 2526 H 243.076 -4.69435 -3.29096 0
M  V30 2527 H 241.473 -5.31053 -2.79468 0
M  V30 2528 H 242.543 -4.58353 -1.58242 0
M  V30 2529 N 243.887 0.651787 -1.4349 0
M  V30 2530 C 244.797 1.79368 -1.5121 0
M  V30 2531 C 245.813 1.69361 -0.399093 0
M  V30 2532 O 246.989 1.90505 -0.653431 0
M  V30 2533 C 244.054 3.15653 -1.43401 0
M  V30 2534 C 243.115 3.37446 -2.65384 0
M  V30 2535 C 242.348 4.67229 -2.57939 0
M  V30 2536 O 242.571 5.46676 -1.62792 0
M  V30 2537 O 241.505 4.90773 -3.48462 0
M  V30 2538 H 245.331 1.7581 -2.47638 0
M  V30 2539 H 242.916 0.810447 -1.25507 0
M  V30 2540 H 244.798 3.96935 -1.41494 0
M  V30 2541 H 243.473 3.19798 -0.501085 0
M  V30 2542 H 242.38 2.55923 -2.72863 0
M  V30 2543 H 243.713 3.38148 -3.57654 0
M  V30 2544 N 245.365 1.30045 0.890287 0
M  V30 2545 C 246.313 1.15873 2.01683 0
M  V30 2546 C 247.307 0.0719403 1.69247 0
M  V30 2547 O 248.513 0.232414 1.78493 0
M  V30 2548 H 244.888 0.358203 0.661207 0
M  V30 2549 H 246.859 2.11229 2.10772 0
M  V30 2550 C 245.608 0.861842 3.36849 0
M  V30 2551 H 244.931 1.69016 3.62317 0
M  V30 2552 H 246.371 0.802762 4.16331 0
M  V30 2553 C 244.83 -0.435132 3.34078 0
M  V30 2554 O 245.36 -1.4583 3.74295 0
M  V30 2555 N 243.566 -0.444377 2.87182 0
M  V30 2556 H 243.113 0.388723 2.5465 0
M  V30 2557 H 243.071 -1.31213 2.85711 0
M  V30 2558 N 246.843 -1.10192 1.12674 0
M  V30 2559 C 248.091 -1.81845 0.881861 0
M  V30 2560 C 248.412 -1.85737 -0.593867 0
M  V30 2561 O 247.682 -1.33724 -1.4316 0
M  V30 2562 H 246.262 -0.673432 0.323261 0
M  V30 2563 H 248.924 -1.33316 1.42172 0
M  V30 2564 H 248.02 -2.85288 1.2656 0
M  V30 2565 N 248.321 -0.919034 -1.28029 0
M  V30 2566 C 249.284 -0.416182 -2.2539 0
M  V30 2567 C 250.284 0.460438 -1.54067 0
M  V30 2568 O 251.474 0.262744 -1.72207 0
M  V30 2569 C 248.606 0.402707 -3.38513 0
M  V30 2570 H 249.799 -1.27629 -2.71387 0
M  V30 2571 H 247.352 -0.698919 -1.39803 0
M  V30 2572 H 248.087 1.282 -2.97885 0
M  V30 2573 H 247.872 -0.225698 -3.9145 0
M  V30 2574 H 249.362 0.745191 -4.10897 0
M  V30 2575 N 249.799 1.42003 -0.683588 0
M  V30 2576 C 250.749 2.27997 0.0121992 0
M  V30 2577 C 251.733 1.4156 0.764822 0
M  V30 2578 O 252.925 1.64935 0.642287 0
M  V30 2579 C 250.054 3.29706 0.956482 0
M  V30 2580 C 249.14 4.23625 0.200739 0
M  V30 2581 N 249.531 4.99448 -0.799087 0
M  V30 2582 C 247.829 4.43845 0.437937 0
M  V30 2583 C 248.53 5.68102 -1.25041 0
M  V30 2584 N 247.506 5.40511 -0.578648 0
M  V30 2585 H 251.308 2.84048 -0.754564 0
M  V30 2586 H 248.822 1.54071 -0.513398 0
M  V30 2587 H 250.819 3.90124 1.47 0
M  V30 2588 H 249.479 2.75216 1.72297 0
M  V30 2589 H 250.49 5.04303 -1.17893 0
M  V30 2590 H 247.167 4.00382 1.18325 0
M  V30 2591 H 248.557 6.38913 -2.07942 0
M  V30 2592 N 251.277 0.427512 1.51691 0
M  V30 2593 C 252.209 -0.424521 2.25234 0
M  V30 2594 C 253.222 -0.994671 1.2888 0
M  V30 2595 O 254.411 -0.890483 1.54702 0
M  V30 2596 C 251.511 -1.60479 2.98496 0
M  V30 2597 C 250.684 -1.15527 4.21868 0
M  V30 2598 C 249.743 -2.20454 4.77793 0
M  V30 2599 O 248.769 -1.8029 5.39893 0
M  V30 2600 N 249.971 -3.52831 4.60967 0
M  V30 2601 H 252.736 0.205749 2.98993 0
M  V30 2602 H 250.297 0.255867 1.59865 0
M  V30 2603 H 252.289 -2.30276 3.32799 0
M  V30 2604 H 250.859 -2.14061 2.27809 0
M  V30 2605 H 250.079 -0.284736 3.9317 0
M  V30 2606 H 251.367 -0.832173 5.01949 0
M  V30 2607 H 250.765 -3.88201 4.11481 0
M  V30 2608 H 249.322 -4.18551 4.99658 0
M  V30 2609 N 252.755 -1.56801 0.158532 0
M  V30 2610 C 253.688 -2.13148 -0.815065 0
M  V30 2611 C 254.666 -1.0581 -1.23462 0
M  V30 2612 O 255.85 -1.3371 -1.32868 0
M  V30 2613 C 252.977 -2.6606 -2.09594 0
M  V30 2614 C 252.023 -3.85651 -1.82141 0
M  V30 2615 S 252.856 -5.26041 -1.00207 0
M  V30 2616 C 254.012 -5.8235 -2.29389 0
M  V30 2617 H 254.245 -2.95396 -0.335937 0
M  V30 2618 H 251.778 -1.54299 -0.0559391 0
M  V30 2619 H 253.736 -2.97195 -2.8317 0
M  V30 2620 H 252.397 -1.83921 -2.54621 0
M  V30 2621 H 251.59 -4.20958 -2.77147 0
M  V30 2622 H 251.192 -3.55338 -1.16667 0
M  V30 2623 H 253.484 -5.94485 -3.24952 0
M  V30 2624 H 254.427 -6.79688 -1.9857 0
M  V30 2625 H 254.835 -5.10675 -2.40564 0
M  V30 2626 N 254.233 0.115231 -1.57178 0
M  V30 2627 C 255.196 1.12526 -1.99676 0
M  V30 2628 C 256.196 1.34095 -0.88742 0
M  V30 2629 O 257.386 1.30548 -1.15337 0
M  V30 2630 C 254.518 2.4789 -2.34015 0
M  V30 2631 H 255.711 0.759912 -2.90113 0
M  V30 2632 H 253.264 0.359648 -1.52106 0
M  V30 2633 H 253.999 2.89339 -1.4647 0
M  V30 2634 H 253.784 2.33588 -3.14927 0
M  V30 2635 H 255.274 3.20575 -2.67622 0
M  V30 2636 N 255.711 1.52812 0.385517 0
M  V30 2637 C 256.96 1.67249 1.12741 0
M  V30 2638 C 257.273 0.4205 1.91027 0
M  V30 2639 O 258.479 0.445064 2.67827 0
M  V30 2640 C 256.935 2.95583 2.05326 0
M  V30 2641 C 256.543 4.27974 1.32447 0
M  V30 2642 C 258.287 3.19386 2.7963 0
M  V30 2643 C 256.194 5.47412 2.23818 0
M  V30 2644 H 255.124 0.6231 0.424573 0
M  V30 2645 H 257.775 1.79309 0.389924 0
M  V30 2646 H 256.157 2.77277 2.82725 0
M  V30 2647 H 257.331 4.56844 0.602495 0
M  V30 2648 H 255.646 4.10459 0.700885 0
M  V30 2649 H 258.243 4.05801 3.48181 0
M  V30 2650 H 258.586 2.34604 3.43899 0
M  V30 2651 H 259.119 3.38274 2.09322 0
M  V30 2652 H 255.858 6.34612 1.64157 0
M  V30 2653 H 255.378 5.22849 2.93921 0
M  V30 2654 H 257.057 5.81423 2.83824 0
M  V30 2655 N 257.189 -0.644168 1.43834 0
M  V30 2656 C 258.417 -1.43147 1.49387 0
M  V30 2657 C 258.832 -1.88452 0.114583 0
M  V30 2658 O 258.189 -1.60047 -0.876989 0
M  V30 2659 C 258.24 -2.66046 2.44748 0
M  V30 2660 O 257.961 -2.22633 3.77314 0
M  V30 2661 C 259.462 -3.59311 2.59635 0
M  V30 2662 H 256.682 -0.439447 0.507077 0
M  V30 2663 H 259.226 -0.78895 1.88669 0
M  V30 2664 H 257.381 -3.26418 2.08638 0
M  V30 2665 H 257.795 -3.02216 4.28679 0
M  V30 2666 H 259.269 -4.42187 3.30416 0
M  V30 2667 H 259.746 -4.07259 1.64427 0
M  V30 2668 H 260.352 -3.04816 2.96593 0
M  V30 2669 N 258.668 -1.30515 -0.883378 0
M  V30 2670 C 259.898 -1.22182 -1.66599 0
M  V30 2671 C 260.306 0.217507 -1.87946 0
M  V30 2672 O 259.649 1.1554 -1.42815 0
M  V30 2673 C 259.711 -1.88146 -3.06335 0
M  V30 2674 C 259.375 -3.37476 -3.08154 0
M  V30 2675 C 260.372 -4.33443 -2.87094 0
M  V30 2676 C 258.057 -3.7895 -3.29701 0
M  V30 2677 C 260.051 -5.68858 -2.8754 0
M  V30 2678 C 257.738 -5.14482 -3.29776 0
M  V30 2679 C 258.736 -6.09246 -3.0872 0
M  V30 2680 O 258.424 -7.42302 -3.08615 0
M  V30 2681 H 258.156 -0.423898 -0.52658 0
M  V30 2682 H 260.71 -1.72703 -1.11188 0
M  V30 2683 H 258.94 -1.32157 -3.63416 0
M  V30 2684 H 260.629 -1.7391 -3.66756 0
M  V30 2685 H 261.395 -4.02733 -2.70243 0
M  V30 2686 H 257.274 -3.05631 -3.45124 0
M  V30 2687 H 260.818 -6.428 -2.71024 0
M  V30 2688 H 256.715 -5.44832 -3.46163 0
M  V30 2689 H 257.483 -7.5131 -3.24769 0
M  V30 2690 N 260.146 1.09593 -1.13257 0
M  V30 2691 C 261.394 1.81375 -0.891492 0
M  V30 2692 C 261.715 1.86049 0.584009 0
M  V30 2693 O 260.985 1.34481 1.42449 0
M  V30 2694 H 259.565 0.671708 -0.326828 0
M  V30 2695 H 262.227 1.3256 -1.42877 0
M  V30 2696 H 261.323 2.84612 -1.28071 0
M  V30 2697 N 261.624 0.925811 1.2754 0
M  V30 2698 C 262.87 0.566092 1.94739 0
M  V30 2699 C 263.203 -0.890057 1.72603 0
M  V30 2700 O 262.478 -1.63467 1.05399 0
M  V30 2701 C 262.761 0.89054 3.48915 0
M  V30 2702 C 262.614 2.4003 3.80402 0
M  V30 2703 C 263.933 0.395101 4.38323 0
M  V30 2704 H 261.052 0.20714 0.707292 0
M  V30 2705 H 263.694 1.15725 1.50691 0
M  V30 2706 H 261.844 0.387452 3.86563 0
M  V30 2707 H 263.516 2.97494 3.52555 0
M  V30 2708 H 261.759 2.85028 3.2702 0
M  V30 2709 H 262.43 2.57785 4.8811 0
M  V30 2710 H 264.906 0.826241 4.07814 0
M  V30 2711 H 263.782 0.651086 5.45025 0
M  V30 2712 H 264.043 -0.704798 4.36446 0
M  V30 2713 N 263.102 -1.41638 0.69111 0
M  V30 2714 C 264.35 -2.00902 0.219758 0
M  V30 2715 C 264.671 -1.54994 -1.18329 0
M  V30 2716 O 263.941 -0.778628 -1.79762 0
M  V30 2717 H 262.521 -0.74289 0.0782558 0
M  V30 2718 H 265.183 -1.73327 0.891271 0
M  V30 2719 H 264.279 -3.11224 0.233708 0
M  V30 2720 N 264.58 -0.43555 -1.51462 0
M  V30 2721 C 265.805 0.132627 -2.06976 0
M  V30 2722 C 266.23 1.35848 -1.30104 0
M  V30 2723 O 265.588 1.78112 -0.338493 0
M  V30 2724 C 265.636 0.43523 -3.57964 0
M  V30 2725 O 264.74 1.52198 -3.83288 0
M  V30 2726 H 264.081 0.00265 -0.663995 0
M  V30 2727 H 266.611 -0.616369 -1.95095 0
M  V30 2728 H 266.621 0.686206 -4.02188 0
M  V30 2729 H 265.296 -0.460739 -4.1334 0
M  V30 2730 H 263.873 1.2611 -3.50928 0
M  V30 2731 N 266.058 1.56714 -0.166846 0
M  V30 2732 C 267.469 1.83378 0.350646 0
M  V30 2733 C 267.82 1.08646 1.63372 0
M  V30 2734 O 266.945 0.338058 2.13743 0
M  V30 2735 C 267.54 3.32643 0.642963 0
M  V30 2736 C 266.099 3.59818 1.10491 0
M  V30 2737 C 265.246 2.76954 0.138411 0
M  V30 2738 H 268.197 1.53803 -0.391193 0
M  V30 2739 H 268.218 3.49878 1.49551 0
M  V30 2740 H 267.73 3.87007 -0.291055 0
M  V30 2741 H 265.831 3.1086 2.05418 0
M  V30 2742 H 265.944 4.68178 1.01716 0
M  V30 2743 H 264.308 2.4666 0.634911 0
M  V30 2744 H 265.091 3.34097 -0.789549 0
M  V30 2745 N 267.536 -0.106894 1.57237 0
M  V30 2746 C 268.766 -0.825191 1.89405 0
M  V30 2747 C 269.174 -1.73374 0.757496 0
M  V30 2748 O 268.517 -1.81552 -0.280115 0
M  V30 2749 C 268.579 -1.70102 3.1671 0
M  V30 2750 C 268.243 -0.965523 4.46684 0
M  V30 2751 C 269.24 -0.300741 5.19029 0
M  V30 2752 C 266.925 -0.943105 4.93367 0
M  V30 2753 C 268.919 0.376622 6.36286 0
M  V30 2754 C 266.606 -0.261949 6.10538 0
M  V30 2755 C 267.604 0.396748 6.81847 0
M  V30 2756 O 267.292 1.06701 7.96787 0
M  V30 2757 H 267.024 -0.241852 0.631255 0
M  V30 2758 H 269.578 -0.0921491 2.05193 0
M  V30 2759 H 267.808 -2.47601 2.97036 0
M  V30 2760 H 269.497 -2.29483 3.34802 0
M  V30 2761 H 270.263 -0.309599 4.84011 0
M  V30 2762 H 266.142 -1.44524 4.3776 0
M  V30 2763 H 269.686 0.891334 6.91882 0
M  V30 2764 H 265.583 -0.250896 6.45012 0
M  V30 2765 H 266.351 0.972707 8.127 0
M  V30 2766 N 269.014 -1.53014 -0.377408 0
M  V30 2767 C 270.263 -1.67845 -1.11853 0
M  V30 2768 C 270.576 -0.430625 -1.90801 0
M  V30 2769 O 271.782 -0.459261 -2.67587 0
M  V30 2770 C 270.238 -2.96668 -2.03756 0
M  V30 2771 C 269.846 -4.28671 -1.30175 0
M  V30 2772 C 271.59 -3.20865 -2.77932 0
M  V30 2773 C 269.497 -5.48591 -2.20911 0
M  V30 2774 H 268.427 -0.625343 -0.421263 0
M  V30 2775 H 271.078 -1.79514 -0.380409 0
M  V30 2776 H 269.46 -2.78773 -2.8125 0
M  V30 2777 H 270.634 -4.57157 -0.578259 0
M  V30 2778 H 268.949 -4.10825 -0.679108 0
M  V30 2779 H 271.546 -4.07642 -3.46024 0
M  V30 2780 H 271.889 -2.36424 -3.4265 0
M  V30 2781 H 272.422 -3.39379 -2.07525 0
M  V30 2782 H 269.161 -6.35474 -1.6079 0
M  V30 2783 H 268.681 -5.244 -2.91144 0
M  V30 2784 H 270.36 -5.8292 -2.80736 0
M  V30 2785 N 270.492 0.636531 -1.44174 0
M  V30 2786 C 271.739 1.39619 -1.46672 0
M  V30 2787 C 272.067 1.94257 -0.0972691 0
M  V30 2788 O 271.322 1.73768 0.900175 0
M  V30 2789 C 271.621 2.58309 -2.47005 0
M  V30 2790 C 271.287 2.21992 -3.92467 0
M  V30 2791 C 269.949 2.118 -4.32081 0
M  V30 2792 C 272.301 1.9321 -4.84065 0
M  V30 2793 C 269.629 1.71007 -5.61225 0
M  V30 2794 C 271.981 1.53911 -6.13591 0
M  V30 2795 C 270.645 1.42257 -6.52165 0
M  V30 2796 H 269.915 0.510902 -0.536712 0
M  V30 2797 H 272.562 0.722328 -1.77355 0
M  V30 2798 H 270.867 3.30903 -2.09786 0
M  V30 2799 H 272.564 3.16533 -2.46186 0
M  V30 2800 H 269.154 2.30841 -3.61124 0
M  V30 2801 H 273.338 1.99997 -4.54219 0
M  V30 2802 H 268.594 1.60583 -5.89935 0
M  V30 2803 H 272.768 1.30677 -6.8403 0
M  V30 2804 H 270.395 1.10419 -7.52138 0
M  V30 2805 N 271.97 1.30982 0.876444 0
M  V30 2806 C 273.216 1.20474 1.63138 0
M  V30 2807 C 273.549 -0.238096 1.92735 0
M  V30 2808 O 272.824 -1.1692 1.55435 0
M  V30 2809 C 273.107 2.04244 2.96574 0
M  V30 2810 C 272.96 3.56793 2.73896 0
M  V30 2811 C 274.279 1.88684 3.97601 0
M  V30 2812 H 271.398 0.439001 0.591985 0
M  V30 2813 H 274.04 1.60704 1.01361 0
M  V30 2814 H 272.19 1.70063 3.493 0
M  V30 2815 H 273.862 4.01077 2.27892 0
M  V30 2816 H 272.105 3.80548 2.08245 0
M  V30 2817 H 272.776 4.10706 3.68815 0
M  V30 2818 H 275.252 2.18584 3.54062 0
M  V30 2819 H 274.128 2.4961 4.88862 0
M  V30 2820 H 274.389 0.848343 4.33884 0
M  V30 2821 N 273.449 -1.08991 1.13837 0
M  V30 2822 C 274.359 -2.19301 0.833333 0
M  V30 2823 C 275.375 -1.73026 -0.183847 0
M  V30 2824 O 276.551 -2.01395 -0.0138092 0
M  V30 2825 C 273.616 -3.45323 0.308651 0
M  V30 2826 C 272.677 -4.06255 1.38764 0
M  V30 2827 C 271.91 -5.26262 0.887896 0
M  V30 2828 O 272.133 -5.69747 -0.27287 0
M  V30 2829 O 271.067 -5.78435 1.66421 0
M  V30 2830 H 274.893 -2.47854 1.75506 0
M  V30 2831 H 272.478 -1.18012 0.916166 0
M  V30 2832 H 274.36 -4.21394 0.0216739 0
M  V30 2833 H 273.035 -3.18362 -0.585431 0
M  V30 2834 H 271.942 -3.318 1.72799 0
M  V30 2835 H 273.275 -4.37452 2.25602 0
M  V30 2836 N 274.927 -0.932562 -1.27047 0
M  V30 2837 C 276.157 -0.591173 -1.97961 0
M  V30 2838 C 276.565 0.836219 -1.69717 0
M  V30 2839 O 275.908 1.56801 -0.957036 0
M  V30 2840 C 275.97 -0.743082 -3.51736 0
M  V30 2841 C 275.634 -2.1435 -4.03613 0
M  V30 2842 C 276.631 -3.11815 -4.16014 0
M  V30 2843 C 274.316 -2.46175 -4.37839 0
M  V30 2844 C 276.31 -4.39211 -4.61923 0
M  V30 2845 C 273.997 -3.73806 -4.83438 0
M  V30 2846 C 274.995 -4.70137 -4.95439 0
M  V30 2847 O 274.683 -5.95496 -5.40037 0
M  V30 2848 H 274.415 -0.222375 -0.638377 0
M  V30 2849 H 276.969 -1.25317 -1.62742 0
M  V30 2850 H 275.199 -0.0239739 -3.86693 0
M  V30 2851 H 276.888 -0.40603 -4.03864 0
M  V30 2852 H 277.654 -2.88549 -3.89826 0
M  V30 2853 H 273.533 -1.71936 -4.27737 0
M  V30 2854 H 277.077 -5.14404 -4.71205 0
M  V30 2855 H 272.974 -3.96888 -5.09068 0
M  V30 2856 H 273.742 -5.98554 -5.58279 0
M  V30 2857 N 276.405 1.4127 -0.698611 0
M  V30 2858 C 277.315 2.34573 -0.0357891 0
M  V30 2859 C 278.331 1.56393 0.762701 0
M  V30 2860 O 279.507 1.8886 0.699564 0
M  V30 2861 C 276.572 3.35159 0.887089 0
M  V30 2862 C 275.633 4.29225 0.0804634 0
M  V30 2863 C 274.866 5.25006 0.959387 0
M  V30 2864 O 275.089 5.26314 2.19886 0
M  V30 2865 O 274.023 6.00519 0.407439 0
M  V30 2866 H 277.849 2.92838 -0.804957 0
M  V30 2867 H 275.434 1.42175 -0.458966 0
M  V30 2868 H 277.316 3.9689 1.41621 0
M  V30 2869 H 275.991 2.79333 1.6357 0
M  V30 2870 H 274.898 3.70833 -0.493328 0
M  V30 2871 H 276.231 4.88157 -0.629547 0
M  V30 2872 N 277.883 0.443576 1.51229 0
M  V30 2873 C 279.16 -0.181038 1.9476 0
M  V30 2874 C 279.54 -1.59523 1.38259 0
M  V30 2875 O 278.888 -2.2122 0.572198 0
M  V30 2876 C 279.098 -0.152422 3.48667 0
M  V30 2877 C 280.446 -0.354923 4.23114 0
M  V30 2878 O 281.47 -0.230257 3.55455 0
M  V30 2879 O 280.329 -0.603674 5.43156 0
M  V30 2880 H 277.423 -0.1266 0.817252 0
M  V30 2881 H 279.969 0.502004 1.62105 0
M  V30 2882 H 278.741 0.836022 3.82265 0
M  V30 2883 H 278.364 -0.878107 3.87782 0
M  V30 2884 N 279.361 -1.56624 0.175154 0
M  V30 2885 C 280.609 -1.96609 -0.467885 0
M  V30 2886 C 280.93 -1.06238 -1.63519 0
M  V30 2887 O 280.2 -0.129523 -1.95471 0
M  V30 2888 H 278.78 -0.726008 -0.175845 0
M  V30 2889 H 281.442 -1.93195 0.257234 0
M  V30 2890 H 280.538 -3.00989 -0.825342 0
M  V30 2891 N 280.839 0.0985539 -1.57292 0
M  V30 2892 C 282.064 0.820196 -1.90493 0
M  V30 2893 C 282.489 1.71658 -0.769094 0
M  V30 2894 O 281.847 1.79133 0.279495 0
M  V30 2895 C 281.895 1.61242 -3.22542 0
M  V30 2896 O 280.999 2.72108 -3.09888 0
M  V30 2897 H 280.34 0.225547 -0.62452 0
M  V30 2898 H 282.87 0.0748159 -2.04463 0
M  V30 2899 H 282.88 1.99737 -3.55766 0
M  V30 2900 H 281.555 0.954535 -4.04798 0
M  V30 2901 H 280.132 2.36667 -2.88172 0
M  V30 2902 N 282.317 1.53212 0.369288 0
M  V30 2903 C 283.28 1.7872 1.43498 0
M  V30 2904 C 284.28 0.657554 1.46741 0
M  V30 2905 O 285.47 0.925736 1.47566 0
M  V30 2906 C 282.602 1.90591 2.82645 0
M  V30 2907 H 283.795 2.73894 1.22156 0
M  V30 2908 H 281.348 1.44233 0.602203 0
M  V30 2909 H 282.083 0.974709 3.09306 0
M  V30 2910 H 281.868 2.72751 2.8169 0
M  V30 2911 H 283.358 2.11931 3.59826 0
M  V30 2912 N 283.795 -0.628877 1.44509 0
M  V30 2913 C 285.041 -1.39045 1.47629 0
M  V30 2914 C 285.374 -1.93892 0.109343 0
M  V30 2915 O 284.649 -1.7379 -0.87334 0
M  V30 2916 C 284.932 -2.55408 2.53848 0
M  V30 2917 C 284.785 -2.05896 3.99909 0
M  V30 2918 C 286.104 -3.5759 2.56549 0
M  V30 2919 H 283.223 -0.504232 0.537512 0
M  V30 2920 H 285.865 -0.710854 1.76201 0
M  V30 2921 H 284.015 -3.13384 2.29615 0
M  V30 2922 H 285.687 -1.52734 4.35282 0
M  V30 2923 H 283.93 -1.37061 4.11578 0
M  V30 2924 H 284.601 -2.89681 4.69882 0
M  V30 2925 H 287.077 -3.09419 2.78207 0
M  V30 2926 H 285.953 -4.36527 3.32769 0
M  V30 2927 H 286.214 -4.11808 1.60832 0
M  V30 2928 N 285.273 -1.31445 -0.869486 0
M  V30 2929 C 286.203 -1.21727 -1.99261 0
M  V30 2930 C 287.184 -0.104359 -1.6978 0
M  V30 2931 O 288.369 -0.289038 -1.92037 0
M  V30 2932 C 285.499 -0.924317 -3.34774 0
M  V30 2933 C 284.453 -1.99685 -3.78563 0
M  V30 2934 C 283.779 -1.55658 -5.11541 0
M  V30 2935 C 285.079 -3.41003 -3.95619 0
M  V30 2936 H 286.773 -2.1569 -2.07649 0
M  V30 2937 H 284.319 -1.03839 -0.997675 0
M  V30 2938 H 286.272 -0.842934 -4.12883 0
M  V30 2939 H 284.996 0.0509793 -3.2656 0
M  V30 2940 H 283.655 -2.06813 -3.02694 0
M  V30 2941 H 283.303 -0.569132 -4.9977 0
M  V30 2942 H 283.003 -2.27409 -5.41811 0
M  V30 2943 H 284.527 -1.48928 -5.92159 0
M  V30 2944 H 285.941 -3.36547 -4.64122 0
M  V30 2945 H 284.338 -4.10975 -4.37286 0
M  V30 2946 H 285.408 -3.81754 -2.98985 0
M  V30 2947 N 286.751 1.08385 -1.14413 0
M  V30 2948 C 288.028 1.77429 -0.823297 0
M  V30 2949 C 288.408 1.9974 0.683163 0
M  V30 2950 O 287.756 1.60739 1.62405 0
M  V30 2951 C 287.966 3.09004 -1.62227 0
M  V30 2952 C 289.314 3.83532 -1.82177 0
M  V30 2953 O 290.338 3.18786 -1.58915 0
M  V30 2954 O 289.197 4.99792 -2.21067 0
M  V30 2955 H 286.291 0.769999 -0.301712 0
M  V30 2956 H 288.837 1.14846 -1.24934 0
M  V30 2957 H 287.609 2.88316 -2.64555 0
M  V30 2958 H 287.232 3.79316 -1.19187 0
M  V30 2959 N 288.23 0.939286 1.26551 0
M  V30 2960 C 289.477 0.585847 1.9384 0
M  V30 2961 C 289.805 -0.874784 1.73718 0
M  V30 2962 O 289.06 -1.64092 1.06642 0
M  V30 2963 C 289.359 0.872106 3.46596 0
M  V30 2964 C 289.025 2.31632 3.86856 0
M  V30 2965 C 287.687 2.71111 3.97558 0
M  V30 2966 C 290.039 3.25494 4.07066 0
M  V30 2967 C 287.367 4.03553 4.25866 0
M  V30 2968 C 289.719 4.57531 4.36862 0
M  V30 2969 C 288.383 4.96828 4.45778 0
M  V30 2970 H 287.653 0.214377 0.709312 0
M  V30 2971 H 290.3 1.18544 1.50398 0
M  V30 2972 H 288.605 0.18996 3.91339 0
M  V30 2973 H 290.302 0.577442 3.96821 0
M  V30 2974 H 286.892 2.00008 3.79071 0
M  V30 2975 H 291.076 2.9619 3.98227 0
M  V30 2976 H 286.332 4.33665 4.30981 0
M  V30 2977 H 290.506 5.30254 4.51446 0
M  V30 2978 H 288.133 5.99482 4.67468 0
M  V30 2979 N 289.708 -1.40897 0.706093 0
M  V30 2980 C 290.985 -1.94868 0.169099 0
M  V30 2981 C 291.365 -1.64485 -1.32318 0
M  V30 2982 O 290.713 -0.95744 -2.07474 0
M  V30 2983 C 290.923 -3.45798 0.471654 0
M  V30 2984 C 292.271 -4.22663 0.405127 0
M  V30 2985 O 293.295 -3.53865 0.407168 0
M  V30 2986 O 292.154 -5.45216 0.374383 0
M  V30 2987 H 289.248 -0.82673 0.0211352 0
M  V30 2988 H 291.794 -1.50558 0.782976 0
M  V30 2989 H 290.566 -3.61235 1.50416 0
M  V30 2990 H 290.189 -3.97225 -0.172666 0
M  V30 2991 N 291.186 -0.45159 -1.50991 0
M  V30 2992 C 292.435 0.111653 -2.01391 0
M  V30 2993 C 292.748 1.42529 -1.33959 0
M  V30 2994 O 293.954 2.07232 -1.75405 0
M  V30 2995 C 292.41 0.249514 -3.59034 0
M  V30 2996 C 292.018 -1.05453 -4.35412 0
M  V30 2997 C 293.762 0.765762 -4.17536 0
M  V30 2998 C 291.669 -0.881529 -5.84793 0
M  V30 2999 H 290.599 0.0455022 -0.752626 0
M  V30 3000 H 293.25 -0.583524 -1.73975 0
M  V30 3001 H 291.632 1.00803 -3.82955 0
M  V30 3002 H 292.806 -1.82248 -4.23229 0
M  V30 3003 H 291.121 -1.50039 -3.88429 0
M  V30 3004 H 293.718 0.911913 -5.26866 0
M  V30 3005 H 294.061 1.75201 -3.77638 0
M  V30 3006 H 294.594 0.0651744 -3.97747 0
M  V30 3007 H 291.333 -1.84057 -6.29129 0
M  V30 3008 H 290.853 -0.153625 -5.99603 0
M  V30 3009 H 292.532 -0.540363 -6.4474 0
M  V30 3010 N 292.664 1.56529 -0.183458 0
M  V30 3011 C 293.627 2.17324 0.728223 0
M  V30 3012 C 294.627 1.12453 1.14939 0
M  V30 3013 O 295.817 1.37902 1.06437 0
M  V30 3014 C 292.949 2.76591 1.99274 0
M  V30 3015 H 294.142 2.99241 0.198772 0
M  V30 3016 H 291.695 1.5616 0.0661391 0
M  V30 3017 H 292.43 1.98441 2.56499 0
M  V30 3018 H 292.215 3.5335 1.69959 0
M  V30 3019 H 293.705 3.23311 2.6431 0
M  V30 3020 N 294.142 -0.090211 1.57342 0
M  V30 3021 C 295.553 -0.644173 1.75235 0
M  V30 3022 C 295.904 -1.78865 0.806335 0
M  V30 3023 O 295.029 -2.16395 -0.0140128 0
M  V30 3024 C 295.624 -1.17532 3.1776 0
M  V30 3025 C 294.183 -1.67531 3.37061 0
M  V30 3026 C 293.33 -0.58693 2.71017 0
M  V30 3027 H 296.281 0.135884 1.58117 0
M  V30 3028 H 296.302 -2.04455 3.20902 0
M  V30 3029 H 295.814 -0.342138 3.86589 0
M  V30 3030 H 293.915 -2.53234 2.73319 0
M  V30 3031 H 294.028 -1.76493 4.45406 0
M  V30 3032 H 292.392 -1.02756 2.33052 0
M  V30 3033 H 293.175 0.235758 3.4249 0
M  V30 3034 N 295.62 -1.53406 -0.361157 0
M  V30 3035 C 296.897 -1.60411 -1.11927 0
M  V30 3036 C 297.277 -0.414385 -2.06993 0
M  V30 3037 O 296.625 0.594976 -2.20618 0
M  V30 3038 C 296.835 -2.95652 -1.85448 0
M  V30 3039 C 298.183 -3.50386 -2.39823 0
M  V30 3040 O 299.207 -2.97711 -1.95568 0
M  V30 3041 O 298.066 -4.42482 -3.20737 0
M  V30 3042 H 295.16 -0.64811 -0.513695 0
M  V30 3043 H 297.706 -1.65749 -0.364065 0
M  V30 3044 H 296.478 -3.73682 -1.16091 0
M  V30 3045 H 296.101 -2.93825 -2.67866 0
M  V30 3046 N 297.098 0.621204 -1.44841 0
M  V30 3047 C 298.344 1.3826 -1.48365 0
M  V30 3048 C 298.677 1.93831 -0.119624 0
M  V30 3049 O 297.952 1.74251 0.864111 0
M  V30 3050 C 298.235 2.54058 -2.55199 0
M  V30 3051 C 298.088 2.03772 -4.00995 0
M  V30 3052 C 299.407 3.56225 -2.58442 0
M  V30 3053 H 296.526 0.501374 -0.540179 0
M  V30 3054 H 299.168 0.7015 -1.76576 0
M  V30 3055 H 297.318 3.12162 -2.31274 0
M  V30 3056 H 298.99 1.50423 -4.36086 0
M  V30 3057 H 297.233 1.34876 -4.12299 0
M  V30 3058 H 297.904 2.87185 -4.71411 0
M  V30 3059 H 300.38 3.07939 -2.79844 0
M  V30 3060 H 299.256 4.34756 -3.3508 0
M  V30 3061 H 299.517 4.10949 -1.63013 0
M  V30 3062 N 298.576 1.31904 0.862503 0
M  V30 3063 C 299.822 1.23207 1.61838 0
M  V30 3064 C 300.177 -0.206062 1.91293 0
M  V30 3065 O 299.47 -1.14162 1.53875 0
M  V30 3066 C 299.664 2.01713 2.95037 0
M  V30 3067 C 299.493 3.53014 2.78588 0
M  V30 3068 C 298.263 4.22359 2.77382 0
M  V30 3069 C 300.461 4.47819 2.52909 0
M  V30 3070 N 298.443 5.59766 2.52062 0
M  V30 3071 C 299.814 5.72947 2.36922 0
M  V30 3072 C 301.869 4.37162 2.38314 0
M  V30 3073 C 300.572 6.88623 2.07823 0
M  V30 3074 C 302.598 5.5263 2.10604 0
M  V30 3075 C 301.96 6.76752 1.95411 0
M  V30 3076 H 298.059 0.505984 0.596242 0
M  V30 3077 H 300.643 1.66179 1.01452 0
M  V30 3078 H 298.814 1.61098 3.53415 0
M  V30 3079 H 300.546 1.84975 3.59953 0
M  V30 3080 H 297.301 3.74401 2.90036 0
M  V30 3081 H 297.725 6.32135 2.42352 0
M  V30 3082 H 302.367 3.41857 2.48784 0
M  V30 3083 H 300.085 7.83948 1.9609 0
M  V30 3084 H 303.671 5.46307 2.00101 0
M  V30 3085 H 302.551 7.6459 1.74274 0
M  V30 3086 N 300.054 -1.07777 1.14986 0
M  V30 3087 C 300.964 -2.18404 0.856546 0
M  V30 3088 C 301.98 -1.73211 -0.165485 0
M  V30 3089 O 303.156 -2.01399 0.00755219 0
M  V30 3090 C 300.221 -3.44977 0.34526 0
M  V30 3091 C 299.282 -4.0476 1.43065 0
M  V30 3092 C 298.515 -5.25291 0.943663 0
M  V30 3093 O 298.738 -5.70004 -0.212426 0
M  V30 3094 O 297.672 -5.76638 1.72547 0
M  V30 3095 H 301.498 -2.45978 1.78125 0
M  V30 3096 H 299.083 -1.17033 0.928631 0
M  V30 3097 H 300.965 -4.21348 0.0663671 0
M  V30 3098 H 299.64 -3.18965 -0.551631 0
M  V30 3099 H 298.547 -3.29949 1.76309 0
M  V30 3100 H 299.88 -4.35035 2.30229 0
M  V30 3101 N 301.532 -0.945985 -1.26051 0
M  V30 3102 C 302.465 -0.403619 -2.24602 0
M  V30 3103 C 303.443 0.510241 -1.54387 0
M  V30 3104 O 304.627 0.446593 -1.83133 0
M  V30 3105 C 301.754 0.419564 -3.36091 0
M  V30 3106 C 300.8 -0.433454 -4.24292 0
M  V30 3107 S 301.633 -1.86037 -5.02146 0
M  V30 3108 C 302.789 -1.04538 -6.17108 0
M  V30 3109 H 303.022 -1.23883 -2.7026 0
M  V30 3110 H 300.555 -0.749438 -1.34992 0
M  V30 3111 H 302.513 0.888595 -4.00767 0
M  V30 3112 H 301.174 1.22951 -2.89036 0
M  V30 3113 H 300.367 0.197486 -5.03613 0
M  V30 3114 H 299.969 -0.837357 -3.64506 0
M  V30 3115 H 302.261 -0.289923 -6.76879 0
M  V30 3116 H 303.204 -1.81222 -6.84518 0
M  V30 3117 H 303.612 -0.579319 -5.61519 0
M  V30 3118 N 303.011 1.40521 -0.713556 0
M  V30 3119 C 303.959 2.32549 -0.0485227 0
M  V30 3120 C 304.953 1.51931 0.74922 0
M  V30 3121 O 306.159 1.67745 0.652816 0
M  V30 3122 H 302.534 0.751994 0.00311138 0
M  V30 3123 H 304.505 2.86291 -0.841443 0
M  V30 3124 C 303.254 3.36879 0.860687 0
M  V30 3125 H 302.577 3.98978 0.256246 0
M  V30 3126 H 304.017 4.03772 1.294 0
M  V30 3127 C 302.476 2.72197 1.9852 0
M  V30 3128 O 303.006 2.5837 3.07584 0
M  V30 3129 N 301.212 2.30612 1.76823 0
M  V30 3130 H 300.759 2.42059 0.881217 0
M  V30 3131 H 300.717 1.87672 2.52243 0
M  V30 3132 N 304.489 0.459591 1.5075 0
M  V30 3133 C 305.737 -0.0991532 2.01857 0
M  V30 3134 C 306.058 -1.41247 1.34441 0
M  V30 3135 O 305.328 -1.89775 0.486022 0
M  V30 3136 H 303.908 -0.039633 0.745948 0
M  V30 3137 H 306.57 0.607387 1.85194 0
M  V30 3138 H 305.666 -0.258998 3.11023 0
M  V30 3139 N 305.967 -1.56429 0.191757 0
M  V30 3140 C 306.917 -2.15548 -0.743184 0
M  V30 3141 C 307.901 -1.09531 -1.17863 0
M  V30 3142 O 309.093 -1.35602 -1.13759 0
M  V30 3143 C 306.222 -2.81577 -1.96391 0
M  V30 3144 C 305.308 -3.9478 -1.54951 0
M  V30 3145 N 305.699 -4.98677 -0.845876 0
M  V30 3146 C 303.997 -4.06319 -1.83905 0
M  V30 3147 C 304.698 -5.78183 -0.638724 0
M  V30 3148 N 303.674 -5.30495 -1.18643 0
M  V30 3149 H 307.476 -2.9324 -0.196839 0
M  V30 3150 H 304.99 -1.62398 -0.0081603 0
M  V30 3151 H 306.987 -3.22321 -2.64415 0
M  V30 3152 H 305.647 -2.05371 -2.51501 0
M  V30 3153 H 306.658 -5.15464 -0.501704 0
M  V30 3154 H 303.335 -3.41238 -2.40548 0
M  V30 3155 H 304.725 -6.71851 -0.0807929 0
M  V30 3156 N 307.445 0.0818655 -1.57387 0
M  V30 3157 C 308.691 0.784074 -1.8703 0
M  V30 3158 C 309.024 1.77729 -0.782689 0
M  V30 3159 O 308.299 1.93384 0.208051 0
M  V30 3160 C 308.582 1.50105 -3.27323 0
M  V30 3161 C 308.435 0.524925 -4.46727 0
M  V30 3162 C 309.754 2.44843 -3.65705 0
M  V30 3163 H 306.873 0.283582 -0.680257 0
M  V30 3164 H 309.515 0.0474352 -1.89941 0
M  V30 3165 H 307.665 2.12897 -3.24972 0
M  V30 3166 H 309.337 -0.0970111 -4.61198 0
M  V30 3167 H 307.58 -0.160606 -4.33503 0
M  V30 3168 H 308.251 1.064 -5.41648 0
M  V30 3169 H 310.727 1.92135 -3.69085 0
M  V30 3170 H 309.603 2.92018 -4.64776 0
M  V30 3171 H 309.864 3.29197 -2.95096 0
M  V30 3172 N 308.923 1.53595 0.353017 0
M  V30 3173 C 310.172 1.69603 1.09168 0
M  V30 3174 C 310.485 0.460925 1.90092 0
M  V30 3175 O 311.691 0.501774 2.66823 0
M  V30 3176 C 310.147 2.99872 1.9901 0
M  V30 3177 C 309.755 4.30687 1.23339 0
M  V30 3178 C 311.499 3.25246 2.72792 0
M  V30 3179 C 309.406 5.52036 2.12156 0
M  V30 3180 H 308.336 0.631966 0.411261 0
M  V30 3181 H 310.987 1.80096 0.351802 0
M  V30 3182 H 309.369 2.83212 2.7678 0
M  V30 3183 H 310.543 4.58019 0.505456 0
M  V30 3184 H 308.858 4.11853 0.613663 0
M  V30 3185 H 311.455 4.13095 3.39495 0
M  V30 3186 H 311.798 2.41846 3.38846 0
M  V30 3187 H 312.331 3.42638 2.021 0
M  V30 3188 H 309.07 6.37951 1.50659 0
M  V30 3189 H 308.59 5.28966 2.82764 0
M  V30 3190 H 310.269 5.87313 2.71427 0
M  V30 3191 N 310.401 -0.613514 1.45168 0
M  V30 3192 C 311.649 -1.36997 1.48581 0
M  V30 3193 C 311.97 -1.94589 0.126545 0
M  V30 3194 O 311.24 -1.76816 -0.843372 0
M  V30 3195 H 309.82 -0.508558 0.547154 0
M  V30 3196 H 312.482 -0.720853 1.81079 0
M  V30 3197 H 311.578 -2.1924 2.22127 0
M  V30 3198 N 311.879 -1.3236 -0.855495 0
M  V30 3199 C 313.126 -1.22872 -1.60962 0
M  V30 3200 C 313.454 0.209658 -1.93367 0
M  V30 3201 O 312.709 1.16243 -1.57436 0
M  V30 3202 C 313.008 -2.03275 -2.93963 0
M  V30 3203 C 312.674 -3.5264 -2.80991 0
M  V30 3204 C 311.336 -3.93364 -2.7716 0
M  V30 3205 C 313.688 -4.47626 -2.66983 0
M  V30 3206 C 311.016 -5.27319 -2.572 0
M  V30 3207 C 313.368 -5.81723 -2.48558 0
M  V30 3208 C 312.032 -6.2165 -2.4312 0
M  V30 3209 H 311.302 -0.44962 -0.589001 0
M  V30 3210 H 313.949 -1.63777 -0.992442 0
M  V30 3211 H 312.254 -1.55095 -3.59795 0
M  V30 3212 H 313.951 -1.93303 -3.51333 0
M  V30 3213 H 310.541 -3.20295 -2.84797 0
M  V30 3214 H 314.725 -4.17084 -2.68988 0
M  V30 3215 H 309.981 -5.57311 -2.51424 0
M  V30 3216 H 314.155 -6.5494 -2.36699 0
M  V30 3217 H 311.782 -7.25388 -2.27412 0
M  V30 3218 N 313.357 1.07166 -1.15556 0
M  V30 3219 C 314.582 1.84053 -0.955988 0
M  V30 3220 C 315.007 1.81586 0.490739 0
M  V30 3221 O 314.365 1.21018 1.34997 0
M  V30 3222 C 314.413 3.28957 -1.47714 0
M  V30 3223 O 313.517 4.06795 -0.677593 0
M  V30 3224 H 312.858 0.569842 -0.340847 0
M  V30 3225 H 315.388 1.35178 -1.53584 0
M  V30 3226 H 315.398 3.79788 -1.4908 0
M  V30 3227 H 314.073 3.30068 -2.53037 0
M  V30 3228 H 312.65 3.6561 -0.733721 0
M  V30 3229 N 314.835 0.952656 1.25548 0
M  V30 3230 C 316.063 0.623496 1.97282 0
M  V30 3231 C 316.478 -0.803987 1.70826 0
M  V30 3232 O 315.835 -1.53755 0.983147 0
M  V30 3233 C 315.886 0.870209 3.5087 0
M  V30 3234 O 315.607 2.24156 3.76412 0
M  V30 3235 C 317.108 0.553164 4.39835 0
M  V30 3236 H 314.328 0.233931 0.628902 0
M  V30 3237 H 316.872 1.27649 1.59768 0
M  V30 3238 H 315.027 0.263652 3.86502 0
M  V30 3239 H 315.441 2.31021 4.70882 0
M  V30 3240 H 316.915 0.776342 5.46513 0
M  V30 3241 H 317.392 -0.512215 4.36203 0
M  V30 3242 H 317.998 1.13896 4.09766 0
M  V30 3243 N 316.313 -1.40141 0.720998 0
M  V30 3244 C 317.263 -2.27949 0.0482544 0
M  V30 3245 C 318.247 -1.43538 -0.727021 0
M  V30 3246 O 319.439 -1.6658 -0.598332 0
M  V30 3247 C 316.568 -3.32126 -0.868729 0
M  V30 3248 C 315.654 -4.24008 -0.0883515 0
M  V30 3249 N 316.045 -4.97154 0.931226 0
M  V30 3250 C 314.343 -4.4485 -0.320105 0
M  V30 3251 C 315.044 -5.64587 1.4006 0
M  V30 3252 N 314.02 -5.38787 0.721752 0
M  V30 3253 H 317.822 -2.81948 0.829609 0
M  V30 3254 H 315.336 -1.52656 0.554067 0
M  V30 3255 H 317.333 -3.93884 -1.36605 0
M  V30 3256 H 315.993 -2.79687 -1.6494 0
M  V30 3257 H 317.004 -5.01 1.31222 0
M  V30 3258 H 313.681 -4.03378 -1.07668 0
M  V30 3259 H 315.071 -6.33175 2.24808 0
M  V30 3260 N 317.792 -0.46758 -1.50504 0
M  V30 3261 C 319.069 0.15003 -1.95024 0
M  V30 3262 C 319.449 1.57304 -1.40779 0
M  V30 3263 O 318.797 2.20281 -0.607319 0
M  V30 3264 C 319.007 0.0969324 -3.48865 0
M  V30 3265 C 320.355 0.287565 -4.23625 0
M  V30 3266 O 321.379 0.173678 -3.55776 0
M  V30 3267 O 320.238 0.517186 -5.44047 0
M  V30 3268 H 317.332 0.113582 -0.819163 0
M  V30 3269 H 319.878 -0.52773 -1.61286 0
M  V30 3270 H 318.65 -0.896732 -3.80886 0
M  V30 3271 H 318.273 0.816303 -3.8913 0
M  V30 3272 N 319.27 1.56325 -0.20005 0
M  V30 3273 C 320.22 2.15939 0.731743 0
M  V30 3274 C 321.204 1.10154 1.17281 0
M  V30 3275 O 322.396 1.36203 1.13038 0
M  V30 3276 C 319.525 2.82614 1.94895 0
M  V30 3277 C 318.611 3.95596 1.52855 0
M  V30 3278 N 319.002 4.99118 0.819418 0
M  V30 3279 C 317.3 4.07288 1.81748 0
M  V30 3280 C 318.001 5.78513 0.608053 0
M  V30 3281 N 316.977 5.31117 1.15828 0
M  V30 3282 H 320.779 2.9334 0.181285 0
M  V30 3283 H 318.293 1.624 -0.000452172 0
M  V30 3284 H 320.29 3.23718 2.62702 0
M  V30 3285 H 318.95 2.06702 2.50408 0
M  V30 3286 H 319.961 5.15723 0.47436 0
M  V30 3287 H 316.638 3.42509 2.38734 0
M  V30 3288 H 318.028 6.71885 0.0451619 0
M  V30 3289 N 320.748 -0.0735177 1.57428 0
M  V30 3290 C 321.695 -1.08756 2.0357 0
M  V30 3291 C 322.665 -1.38559 0.916 0
M  V30 3292 O 323.85 -1.49656 1.18354 0
M  V30 3293 C 320.99 -2.39657 2.48311 0
M  V30 3294 C 320.103 -2.16399 3.73892 0
M  V30 3295 C 319.238 -3.40852 4.07423 0
M  V30 3296 C 318.277 -3.1295 5.2605 0
M  V30 3297 N 317.414 -4.29729 5.55228 0
M  V30 3298 H 322.254 -0.687104 2.8997 0
M  V30 3299 H 319.791 -0.327709 1.43403 0
M  V30 3300 H 321.749 -3.16081 2.72303 0
M  V30 3301 H 320.379 -2.77508 1.64891 0
M  V30 3302 H 319.431 -1.30676 3.57251 0
M  V30 3303 H 320.743 -1.91788 4.60455 0
M  V30 3304 H 319.897 -4.25671 4.32306 0
M  V30 3305 H 318.636 -3.68537 3.19425 0
M  V30 3306 H 317.641 -2.26526 5.00965 0
M  V30 3307 H 318.866 -2.86589 6.15665 0
M  V30 3308 H 316.812 -4.57448 4.70188 0
M  V30 3309 H 316.729 -4.08385 6.36206 0
M  V30 3310 H 317.997 -5.1555 5.84661 0
M  V30 3311 N 322.226 -1.5378 -0.344866 0
M  V30 3312 C 323.176 -1.78057 -1.42407 0
M  V30 3313 C 324.16 -0.635732 -1.47808 0
M  V30 3314 O 325.352 -0.89508 -1.527 0
M  V30 3315 C 322.481 -1.99242 -2.79566 0
M  V30 3316 C 321.567 -3.19787 -2.78562 0
M  V30 3317 N 321.958 -4.41284 -2.47189 0
M  V30 3318 C 320.256 -3.2093 -3.0971 0
M  V30 3319 C 320.957 -5.23128 -2.54385 0
M  V30 3320 N 319.933 -4.59813 -2.89953 0
M  V30 3321 H 323.735 -2.69588 -1.17046 0
M  V30 3322 H 321.249 -1.52687 -0.553217 0
M  V30 3323 H 323.246 -2.14768 -3.57324 0
M  V30 3324 H 321.906 -1.08953 -3.05875 0
M  V30 3325 H 322.917 -4.68657 -2.20411 0
M  V30 3326 H 319.594 -2.40603 -3.41199 0
M  V30 3327 H 320.984 -6.30096 -2.333 0
M  V30 3328 N 323.704 0.605807 -1.45491 0
M  V30 3329 C 324.934 1.38934 -1.52908 0
M  V30 3330 C 325.342 1.88513 -0.161086 0
M  V30 3331 O 324.685 1.62962 0.847891 0
M  V30 3332 C 324.747 2.62737 -2.45376 0
M  V30 3333 C 324.411 2.34785 -3.92078 0
M  V30 3334 C 325.408 1.95038 -4.8193 0
M  V30 3335 C 323.093 2.47642 -4.37011 0
M  V30 3336 C 325.087 1.68511 -6.14722 0
M  V30 3337 C 322.774 2.20728 -5.69844 0
M  V30 3338 C 323.772 1.81225 -6.58519 0
M  V30 3339 O 323.46 1.54627 -7.88889 0
M  V30 3340 H 323.192 0.431629 -0.520262 0
M  V30 3341 H 325.746 0.74573 -1.91384 0
M  V30 3342 H 323.976 3.29824 -2.01874 0
M  V30 3343 H 325.665 3.24783 -2.43456 0
M  V30 3344 H 326.431 1.84639 -4.48479 0
M  V30 3345 H 322.31 2.77356 -3.68232 0
M  V30 3346 H 325.854 1.37602 -6.83894 0
M  V30 3347 H 321.751 2.30744 -6.02849 0
M  V30 3348 H 322.519 1.68665 -8.00933 0
M  V30 3349 N 325.182 1.32811 0.848464 0
M  V30 3350 C 326.145 1.22194 1.9391 0
M  V30 3351 C 327.145 0.143404 1.60159 0
M  V30 3352 O 328.335 0.394253 1.6968 0
M  V30 3353 C 325.467 0.88067 3.29328 0
M  V30 3354 H 326.66 2.19127 2.04752 0
M  V30 3355 H 324.213 1.16731 1.0394 0
M  V30 3356 H 324.948 -0.0865776 3.24184 0
M  V30 3357 H 324.733 1.66052 3.55203 0
M  V30 3358 H 326.223 0.830871 4.09251 0
M  V30 3359 N 326.66 -1.06551 1.16123 0
M  V30 3360 C 327.623 -2.12132 0.867906 0
M  V30 3361 C 328.623 -1.60224 -0.135944 0
M  V30 3362 O 329.813 -1.73943 0.0946422 0
M  V30 3363 C 326.945 -3.396 0.297419 0
M  V30 3364 H 328.138 -2.39586 1.80385 0
M  V30 3365 H 325.691 -1.22574 0.969812 0
M  V30 3366 H 326.426 -3.17794 -0.64633 0
M  V30 3367 H 326.211 -3.78581 1.02073 0
M  V30 3368 H 327.701 -4.17455 0.110052 0
M  V30 3369 N 328.138 -0.959301 -1.25041 0
M  V30 3370 C 329.385 -0.616611 -1.92884 0
M  V30 3371 C 329.713 0.847036 -1.75087 0
M  V30 3372 O 328.968 1.62374 -1.09239 0
M  V30 3373 C 329.267 -0.927136 -3.45165 0
M  V30 3374 C 328.933 -2.37757 -3.83122 0
M  V30 3375 C 327.595 -2.77402 -3.93194 0
M  V30 3376 C 329.947 -3.31929 -4.01836 0
M  V30 3377 C 327.275 -4.10277 -4.19392 0
M  V30 3378 C 329.627 -4.64423 -4.29528 0
M  V30 3379 C 328.291 -5.03857 -4.37818 0
M  V30 3380 H 327.561 -0.225634 -0.705812 0
M  V30 3381 H 330.208 -1.20921 -1.48493 0
M  V30 3382 H 328.513 -0.252195 -3.90987 0
M  V30 3383 H 330.21 -0.6405 -3.95852 0
M  V30 3384 H 326.8 -2.06013 -3.75841 0
M  V30 3385 H 330.984 -3.02488 -3.93465 0
M  V30 3386 H 326.24 -4.40467 -4.24027 0
M  V30 3387 H 330.414 -5.37369 -4.42953 0
M  V30 3388 H 328.041 -6.06843 -4.57871 0
M  V30 3389 N 329.616 1.39756 -0.72842 0
M  V30 3390 C 330.579 2.29012 -0.0927297 0
M  V30 3391 C 331.579 1.45992 0.674025 0
M  V30 3392 O 332.769 1.66749 0.50402 0
M  V30 3393 C 329.901 3.29396 0.878137 0
M  V30 3394 H 331.094 2.86729 -0.879011 0
M  V30 3395 H 328.647 1.48293 -0.493847 0
M  V30 3396 H 329.382 2.76722 1.69101 0
M  V30 3397 H 329.167 3.907 0.331051 0
M  V30 3398 H 330.657 3.96199 1.3197 0
M  V30 3399 N 331.094 0.475555 1.50254 0
M  V30 3400 C 332.505 0.0215174 1.86688 0
M  V30 3401 C 332.856 -1.38467 1.39001 0
M  V30 3402 O 331.981 -2.02732 0.756894 0
M  V30 3403 C 332.576 0.0322715 3.38785 0
M  V30 3404 C 331.135 -0.366314 3.74613 0
M  V30 3405 C 330.282 0.415832 2.74164 0
M  V30 3406 H 333.233 0.689612 1.42934 0
M  V30 3407 H 333.254 -0.76889 3.7265 0
M  V30 3408 H 332.766 1.05584 3.73462 0
M  V30 3409 H 330.867 -1.39406 3.45538 0
M  V30 3410 H 330.98 -0.064555 4.79057 0
M  V30 3411 H 329.344 -0.131048 2.54363 0
M  V30 3412 H 330.127 1.43899 3.11686 0
M  V30 3413 N 332.573 -1.56217 0.208337 0
M  V30 3414 C 333.984 -1.84243 -0.301904 0
M  V30 3415 C 334.335 -1.12939 -1.60434 0
M  V30 3416 O 333.46 -0.39461 -2.12772 0
M  V30 3417 C 334.055 -3.34231 -0.554543 0
M  V30 3418 C 332.614 -3.62621 -1.00912 0
M  V30 3419 C 331.761 -2.77224 -0.064933 0
M  V30 3420 H 334.712 -1.52712 0.431833 0
M  V30 3421 H 334.733 -3.5372 -1.40223 0
M  V30 3422 H 334.245 -3.86099 0.393561 0
M  V30 3423 H 332.346 -3.16197 -1.97104 0
M  V30 3424 H 332.459 -4.7071 -0.892674 0
M  V30 3425 H 330.823 -2.48256 -0.56929 0
M  V30 3426 H 331.606 -3.31887 0.877851 0
M  V30 3427 N 334.051 0.0651679 -1.57465 0
M  V30 3428 C 335.299 0.761555 -1.87202 0
M  V30 3429 C 335.62 1.77778 -0.801243 0
M  V30 3430 O 334.89 1.95166 0.16937 0
M  V30 3431 H 333.47 0.284251 -0.690804 0
M  V30 3432 H 336.132 0.0396827 -1.9486 0
M  V30 3433 H 335.228 1.27365 -2.84929 0
M  V30 3434 N 335.529 1.53961 0.336706 0
M  V30 3435 C 336.461 1.78751 1.4346 0
M  V30 3436 C 337.474 0.669019 1.48418 0
M  V30 3437 O 338.663 0.945884 1.51378 0
M  V30 3438 C 335.763 1.87844 2.82078 0
M  V30 3439 C 334.936 3.17854 3.00479 0
M  V30 3440 C 333.995 3.17816 4.19379 0
M  V30 3441 O 333.021 3.91511 4.13168 0
M  V30 3442 N 334.223 2.40669 5.2826 0
M  V30 3443 H 336.988 2.73493 1.22563 0
M  V30 3444 H 334.549 1.53096 0.526625 0
M  V30 3445 H 336.541 1.85261 3.59806 0
M  V30 3446 H 335.111 1.00257 2.96086 0
M  V30 3447 H 334.331 3.33504 2.10163 0
M  V30 3448 H 335.619 4.03718 3.0966 0
M  V30 3449 H 335.017 1.8036 5.36178 0
M  V30 3450 H 333.574 2.43877 6.04456 0
M  V30 3451 N 337.007 -0.598083 1.45811 0
M  V30 3452 C 337.955 -1.72932 1.55555 0
M  V30 3453 C 338.949 -1.63984 0.424921 0
M  V30 3454 O 340.155 -1.69663 0.601205 0
M  V30 3455 H 336.53 -0.571489 0.488779 0
M  V30 3456 H 338.501 -1.61842 2.50699 0
M  V30 3457 C 337.25 -3.11318 1.54843 0
M  V30 3458 H 336.573 -3.18867 2.41172 0
M  V30 3459 H 338.013 -3.90274 1.65717 0
M  V30 3460 C 336.472 -3.3578 0.274427 0
M  V30 3461 O 337.002 -3.9654 -0.641778 0
M  V30 3462 N 335.208 -2.90119 0.167139 0
M  V30 3463 H 334.755 -2.40855 0.913596 0
M  V30 3464 H 334.713 -3.0686 -0.684435 0
M  V30 3465 N 338.485 -1.33259 -0.841409 0
M  V30 3466 C 339.731 -1.25766 -1.59857 0
M  V30 3467 C 340.086 0.175602 -1.91597 0
M  V30 3468 O 339.379 1.117 -1.55672 0
M  V30 3469 C 339.573 -2.06381 -2.9179 0
M  V30 3470 C 339.402 -3.57401 -2.72937 0
M  V30 3471 C 338.172 -4.26718 -2.70628 0
M  V30 3472 C 340.37 -4.51786 -2.45753 0
M  V30 3473 N 338.352 -5.63705 -2.43125 0
M  V30 3474 C 339.723 -5.76643 -2.27777 0
M  V30 3475 C 341.778 -4.40898 -2.31329 0
M  V30 3476 C 340.481 -6.91842 -1.96841 0
M  V30 3477 C 342.507 -5.55911 -2.01786 0
M  V30 3478 C 341.869 -6.79776 -1.8462 0
M  V30 3479 H 337.968 -0.515406 -0.588117 0
M  V30 3480 H 340.552 -1.67772 -0.987955 0
M  V30 3481 H 338.723 -1.667 -3.50807 0
M  V30 3482 H 340.455 -1.90678 -3.56965 0
M  V30 3483 H 337.21 -3.78968 -2.84043 0
M  V30 3484 H 337.634 -6.35911 -2.32265 0
M  V30 3485 H 342.276 -3.45772 -2.43314 0
M  V30 3486 H 339.994 -7.86968 -1.83594 0
M  V30 3487 H 343.58 -5.49421 -1.91384 0
M  V30 3488 H 342.46 -7.67266 -1.62088 0
M  V30 3489 N 339.963 1.05934 -1.16686 0
M  V30 3490 C 341.188 1.83029 -0.975455 0
M  V30 3491 C 341.613 1.82096 0.471452 0
M  V30 3492 O 340.971 1.22443 1.33706 0
M  V30 3493 C 341.019 3.27372 -1.51195 0
M  V30 3494 O 340.123 4.06054 -0.720701 0
M  V30 3495 H 339.464 0.566194 -0.346872 0
M  V30 3496 H 341.994 1.33541 -1.55009 0
M  V30 3497 H 342.004 3.78186 -1.53099 0
M  V30 3498 H 340.679 3.27366 -2.56523 0
M  V30 3499 H 339.256 3.64812 -0.772458 0
M  V30 3500 N 341.441 0.965919 1.2453 0
M  V30 3501 C 342.689 0.625593 1.92174 0
M  V30 3502 C 343.01 -0.841652 1.75901 0
M  V30 3503 O 342.28 -1.60061 1.12948 0
M  V30 3504 H 340.86 0.228388 0.71123 0
M  V30 3505 H 343.522 1.2266 1.51461 0
M  V30 3506 H 342.618 0.864653 2.99884 0
M  V30 3507 N 342.919 -1.39368 0.735821 0
M  V30 3508 C 344.168 -1.99733 0.281004 0
M  V30 3509 C 344.481 -1.59055 -1.13846 0
M  V30 3510 O 345.687 -2.12262 -1.69284 0
M  V30 3511 C 344.143 -3.57057 0.451462 0
M  V30 3512 C 343.751 -4.06697 1.87886 0
M  V30 3513 C 345.495 -4.2446 0.0584616 0
M  V30 3514 C 343.402 -5.56598 1.99883 0
M  V30 3515 H 342.332 -0.747163 0.101311 0
M  V30 3516 H 344.983 -1.59357 0.909819 0
M  V30 3517 H 343.365 -3.95234 -0.246263 0
M  V30 3518 H 344.539 -3.79853 2.60861 0
M  V30 3519 H 342.854 -3.5196 2.22515 0
M  V30 3520 H 345.451 -5.34549 0.127099 0
M  V30 3521 H 345.794 -4.04444 -0.986433 0
M  V30 3522 H 346.327 -3.9146 0.707374 0
M  V30 3523 H 343.066 -5.81494 3.02564 0
M  V30 3524 H 342.586 -5.85242 1.31346 0
M  V30 3525 H 344.265 -6.22022 1.78039 0
M  V30 3526 N 344.397 -0.483516 -1.5 0
M  V30 3527 C 345.645 0.067027 -2.01989 0
M  V30 3528 C 345.966 1.3909 -1.36671 0
M  V30 3529 O 345.236 1.88978 -0.516152 0
M  V30 3530 H 343.816 0.0277606 -0.746484 0
M  V30 3531 H 346.478 -0.636773 -1.84204 0
M  V30 3532 H 345.574 0.209484 -3.11396 0
M  V30 3533 N 345.875 1.56104 -0.216619 0
M  V30 3534 C 347.1 2.0301 0.424462 0
M  V30 3535 C 347.525 1.0955 1.52907 0
M  V30 3536 O 346.883 0.0827914 1.81111 0
M  V30 3537 C 346.931 3.4819 0.937883 0
M  V30 3538 O 346.035 3.57865 2.04955 0
M  V30 3539 H 345.376 0.656925 0.0966755 0
M  V30 3540 H 347.906 2.01859 -0.33381 0
M  V30 3541 H 347.916 3.88413 1.24897 0
M  V30 3542 H 346.591 4.15699 0.129387 0
M  V30 3543 H 345.168 3.29527 1.74546 0
M  V30 3544 N 347.353 -0.0568162 1.57498 0
M  V30 3545 C 348.3 -1.06591 2.04712 0
M  V30 3546 C 349.27 -1.3758 0.930644 0
M  V30 3547 O 350.455 -1.48392 1.19935 0
M  V30 3548 C 347.595 -2.3701 2.50839 0
M  V30 3549 C 346.708 -2.12421 3.76167 0
M  V30 3550 C 345.843 -3.36511 4.11015 0
M  V30 3551 C 344.882 -3.07353 5.2934 0
M  V30 3552 N 344.019 -4.23816 5.59754 0
M  V30 3553 H 348.859 -0.65631 2.90683 0
M  V30 3554 H 346.396 -0.312481 1.43743 0
M  V30 3555 H 348.354 -3.13175 2.7564 0
M  V30 3556 H 346.984 -2.75744 1.67825 0
M  V30 3557 H 346.036 -1.2688 3.58616 0
M  V30 3558 H 347.348 -1.86894 4.62463 0
M  V30 3559 H 346.502 -4.21062 4.36797 0
M  V30 3560 H 345.241 -3.65128 3.23315 0
M  V30 3561 H 344.246 -2.212 5.03339 0
M  V30 3562 H 345.471 -2.80043 6.1867 0
M  V30 3563 H 343.417 -4.52436 4.75014 0
M  V30 3564 H 343.334 -4.01614 6.40501 0
M  V30 3565 H 344.602 -5.0932 5.90096 0
M  V30 3566 N 348.832 -1.54138 -0.328536 0
M  V30 3567 C 350.06 -1.76062 -1.08673 0
M  V30 3568 C 350.475 -0.506852 -1.81869 0
M  V30 3569 O 349.832 0.522223 -1.74869 0
M  V30 3570 C 349.883 -2.95054 -2.08866 0
M  V30 3571 O 349.604 -4.15583 -1.38644 0
M  V30 3572 C 351.105 -3.2915 -2.96943 0
M  V30 3573 H 348.325 -0.587889 -0.323461 0
M  V30 3574 H 350.869 -2.0101 -0.376175 0
M  V30 3575 H 349.024 -2.72394 -2.75464 0
M  V30 3576 H 349.438 -4.82481 -2.05699 0
M  V30 3577 H 350.912 -4.15723 -3.63151 0
M  V30 3578 H 351.389 -2.461 -3.63774 0
M  V30 3579 H 351.995 -3.53871 -2.35914 0
M  V30 3580 N 350.31 0.590341 -1.46126 0
M  V30 3581 C 351.24 1.71032 -1.58966 0
M  V30 3582 C 352.221 1.64302 -0.440335 0
M  V30 3583 O 353.406 1.82436 -0.665634 0
M  V30 3584 C 350.536 3.09665 -1.57241 0
M  V30 3585 C 349.49 3.31221 -2.71066 0
M  V30 3586 C 348.816 4.70303 -2.54399 0
M  V30 3587 C 350.116 3.19796 -4.1295 0
M  V30 3588 H 351.81 1.60543 -2.52718 0
M  V30 3589 H 349.356 0.770933 -1.21625 0
M  V30 3590 H 351.309 3.87831 -1.64819 0
M  V30 3591 H 350.033 3.21036 -0.600289 0
M  V30 3592 H 348.692 2.55452 -2.62944 0
M  V30 3593 H 348.34 4.78429 -1.55288 0
M  V30 3594 H 348.04 4.85679 -3.30741 0
M  V30 3595 H 349.564 5.50647 -2.63857 0
M  V30 3596 H 350.978 3.87815 -4.22223 0
M  V30 3597 H 349.375 3.46696 -4.89818 0
M  V30 3598 H 350.445 2.16983 -4.33643 0
M  V30 3599 N 351.788 1.33704 0.83433 0
M  V30 3600 C 353.016 1.28467 1.62185 0
M  V30 3601 C 353.431 -0.143526 1.88254 0
M  V30 3602 O 352.788 -1.08709 1.4659 0
M  V30 3603 C 352.839 2.06174 2.96942 0
M  V30 3604 O 352.56 3.43422 2.72016 0
M  V30 3605 C 354.061 2.08201 3.91366 0
M  V30 3606 H 351.281 0.4424 0.504503 0
M  V30 3607 H 353.825 1.76145 1.03891 0
M  V30 3608 H 351.98 1.62167 3.51825 0
M  V30 3609 H 352.394 3.83453 3.57861 0
M  V30 3610 H 353.868 2.67017 4.83121 0
M  V30 3611 H 354.345 1.07343 4.2588 0
M  V30 3612 H 354.951 2.52246 3.42421 0
M  V30 3613 N 353.266 -1.05314 1.17247 0
M  V30 3614 C 354.214 -2.15137 0.884238 0
M  V30 3615 C 355.208 -1.68729 -0.15063 0
M  V30 3616 O 356.414 -1.8 -0.00366673 0
M  V30 3617 H 352.789 -0.702471 0.2684 0
M  V30 3618 H 354.76 -2.36652 1.81764 0
M  V30 3619 C 353.509 -3.45243 0.412659 0
M  V30 3620 H 352.832 -3.81352 1.20043 0
M  V30 3621 H 354.272 -4.23263 0.249858 0
M  V30 3622 C 352.731 -3.25487 -0.86948 0
M  V30 3623 O 353.261 -3.51938 -1.93655 0
M  V30 3624 N 351.467 -2.78875 -0.817147 0
M  V30 3625 H 351.014 -2.57549 0.0514211 0
M  V30 3626 H 350.972 -2.66036 -1.67547 0
M  V30 3627 N 354.744 -0.972509 -1.24016 0
M  V30 3628 C 355.692 -0.498562 -2.27194 0
M  V30 3629 C 356.686 0.440372 -1.63576 0
M  V30 3630 O 357.892 0.315133 -1.7722 0
M  V30 3631 H 354.267 -0.142775 -0.738322 0
M  V30 3632 H 356.238 -1.38065 -2.64539 0
M  V30 3633 C 354.987 0.191072 -3.47175 0
M  V30 3634 H 354.31 -0.522318 -3.96373 0
M  V30 3635 H 355.75 0.486445 -4.212 0
M  V30 3636 C 354.209 1.41967 -3.05527 0
M  V30 3637 O 354.739 2.51642 -3.13112 0
M  V30 3638 N 352.945 1.28746 -2.60524 0
M  V30 3639 H 352.492 0.395089 -2.54552 0
M  V30 3640 H 352.45 2.11061 -2.33025 0
M  V30 3641 N 356.222 1.38976 -0.743202 0
M  V30 3642 C 357.185 2.28901 -0.117014 0
M  V30 3643 C 358.185 1.46698 0.658503 0
M  V30 3644 O 359.375 1.67274 0.486305 0
M  V30 3645 C 356.507 3.30309 0.84315 0
M  V30 3646 H 357.7 2.8578 -0.909373 0
M  V30 3647 H 355.253 1.47761 -0.509547 0
M  V30 3648 H 355.988 2.785 1.66157 0
M  V30 3649 H 355.773 3.91029 0.289594 0
M  V30 3650 H 357.263 3.97577 1.2776 0
M  V30 3651 N 357.7 0.491464 1.49741 0
M  V30 3652 C 358.977 -0.118984 1.95238 0
M  V30 3653 C 359.357 -1.55044 1.43264 0
M  V30 3654 O 358.705 -2.19287 0.642287 0
M  V30 3655 C 358.915 -0.0414187 3.48975 0
M  V30 3656 C 360.263 -0.220133 4.24029 0
M  V30 3657 O 361.287 -0.117055 3.56008 0
M  V30 3658 O 360.146 -0.430567 5.44801 0
M  V30 3659 H 357.24 -0.100536 0.820866 0
M  V30 3660 H 359.786 0.553322 1.60426 0
M  V30 3661 H 358.558 0.957214 3.79412 0
M  V30 3662 H 358.181 -0.754292 3.9038 0
M  V30 3663 N 359.178 -1.55987 0.224894 0
M  V30 3664 C 360.408 -2.02489 -0.41007 0
M  V30 3665 C 360.816 -1.10391 -1.53657 0
M  V30 3666 O 360.159 -0.106458 -1.83391 0
M  V30 3667 C 360.221 -3.45319 -0.999757 0
M  V30 3668 C 359.885 -4.56999 -0.00827976 0
M  V30 3669 C 360.882 -5.13812 0.793314 0
M  V30 3670 C 358.567 -5.02176 0.111442 0
M  V30 3671 C 360.561 -6.14276 1.7013 0
M  V30 3672 C 358.248 -6.02477 1.02296 0
M  V30 3673 C 359.246 -6.58403 1.81643 0
M  V30 3674 O 358.934 -7.56751 2.71262 0
M  V30 3675 H 358.666 -0.667915 -0.104235 0
M  V30 3676 H 361.22 -2.0257 0.339782 0
M  V30 3677 H 359.45 -3.42318 -1.79876 0
M  V30 3678 H 361.139 -3.7545 -1.54248 0
M  V30 3679 H 361.905 -4.79756 0.711288 0
M  V30 3680 H 357.784 -4.58323 -0.49605 0
M  V30 3681 H 361.328 -6.57854 2.32107 0
M  V30 3682 H 357.225 -6.35954 1.10599 0
M  V30 3683 H 357.993 -7.74286 2.65375 0
M  V30 3684 N 360.656 0.0484629 -1.57525 0
M  V30 3685 C 361.905 0.742065 -1.87553 0
M  V30 3686 C 362.218 1.77545 -0.820802 0
M  V30 3687 O 363.424 2.52027 -1.00967 0
M  V30 3688 C 361.88 1.37081 -3.32771 0
M  V30 3689 C 361.488 0.374786 -4.4643 0
M  V30 3690 C 363.232 2.04542 -3.71972 0
M  V30 3691 C 361.139 1.01077 -5.82698 0
M  V30 3692 H 360.069 0.280903 -0.699721 0
M  V30 3693 H 362.72 -0.00411877 -1.835 0
M  V30 3694 H 361.102 2.16605 -3.31509 0
M  V30 3695 H 362.276 -0.392331 -4.59127 0
M  V30 3696 H 360.591 -0.196653 -4.15935 0
M  V30 3697 H 363.188 2.52943 -4.71088 0
M  V30 3698 H 363.531 2.85515 -3.02964 0
M  V30 3699 H 364.064 1.31819 -3.75325 0
M  V30 3700 H 360.803 0.240878 -6.55057 0
M  V30 3701 H 360.323 1.74819 -5.73758 0
M  V30 3702 H 362.002 1.52383 -6.28799 0
M  V30 3703 N 362.134 1.5431 0.320358 0
M  V30 3704 C 363.097 1.83195 1.3774 0
M  V30 3705 C 364.097 0.703906 1.44575 0
M  V30 3706 O 365.287 0.972214 1.44546 0
M  V30 3707 C 362.419 1.99487 2.76438 0
M  V30 3708 H 363.612 2.77642 1.1338 0
M  V30 3709 H 361.165 1.46076 0.556012 0
M  V30 3710 H 361.9 1.07262 3.06048 0
M  V30 3711 H 361.685 2.81575 2.7287 0
M  V30 3712 H 363.175 2.23271 3.52902 0
M  V30 3713 N 363.613 -0.582584 1.46437 0
M  V30 3714 C 364.862 -1.337 1.5102 0
M  V30 3715 C 365.175 -1.94891 0.166359 0
M  V30 3716 O 366.381 -2.71351 0.0899954 0
M  V30 3717 C 364.837 -2.42315 2.66104 0
M  V30 3718 C 364.445 -1.87427 4.06909 0
M  V30 3719 C 366.189 -3.19099 2.79958 0
M  V30 3720 C 364.096 -2.93672 5.13333 0
M  V30 3721 H 363.026 -0.502619 0.562041 0
M  V30 3722 H 365.677 -0.621701 1.72647 0
M  V30 3723 H 364.059 -3.16645 2.37807 0
M  V30 3724 H 365.233 -1.19639 4.44998 0
M  V30 3725 H 363.548 -1.2331 3.97723 0
M  V30 3726 H 366.145 -3.9839 3.56636 0
M  V30 3727 H 366.488 -3.71695 1.87479 0
M  V30 3728 H 367.021 -2.51875 3.07902 0
M  V30 3729 H 363.76 -2.45962 6.07604 0
M  V30 3730 H 363.28 -3.59948 4.79789 0
M  V30 3731 H 364.959 -3.5762 5.39182 0
M  V30 3732 N 365.091 -1.34144 -0.827227 0
M  V30 3733 C 366.054 -1.25264 -1.91942 0
M  V30 3734 C 367.054 -0.168866 -1.59911 0
M  V30 3735 O 368.244 -0.421198 -1.69031 0
M  V30 3736 C 365.376 -0.932952 -3.27885 0
M  V30 3737 H 366.569 -2.22357 -2.0124 0
M  V30 3738 H 364.122 -1.1837 -1.0207 0
M  V30 3739 H 364.857 0.0349917 -3.24281 0
M  V30 3740 H 364.642 -1.71682 -3.52516 0
M  V30 3741 H 366.132 -0.895874 -4.07877 0
M  V30 3742 N 366.569 1.04691 -1.17803 0
M  V30 3743 C 367.516 2.12557 -0.899343 0
M  V30 3744 C 368.486 1.65339 0.158771 0
M  V30 3745 O 369.671 1.90789 0.0204797 0
M  V30 3746 C 366.811 3.42481 -0.424315 0
M  V30 3747 C 365.924 4.03346 -1.54713 0
M  V30 3748 C 365.059 5.21208 -1.02546 0
M  V30 3749 C 364.098 5.74089 -2.12339 0
M  V30 3750 N 363.235 6.83247 -1.61612 0
M  V30 3751 H 368.075 2.35734 -1.823 0
M  V30 3752 H 365.612 1.1564 -0.909159 0
M  V30 3753 H 367.57 4.16996 -0.130421 0
M  V30 3754 H 366.2 3.19471 0.462377 0
M  V30 3755 H 365.252 3.2622 -1.95664 0
M  V30 3756 H 366.564 4.38628 -2.37501 0
M  V30 3757 H 365.718 6.02812 -0.685718 0
M  V30 3758 H 364.457 4.87414 -0.167084 0
M  V30 3759 H 363.462 4.91111 -2.47165 0
M  V30 3760 H 364.687 6.0993 -2.98601 0
M  V30 3761 H 362.633 6.5134 -0.780533 0
M  V30 3762 H 362.55 7.17559 -2.38003 0
M  V30 3763 H 363.818 7.68491 -1.30545 0
M  V30 3764 N 368.047 0.979072 1.23499 0
M  V30 3765 C 368.977 0.537606 2.27227 0
M  V30 3766 C 369.958 -0.428539 1.64613 0
M  V30 3767 O 371.143 -0.322191 1.91509 0
M  V30 3768 C 368.273 -0.162052 3.46922 0
M  V30 3769 C 367.227 0.721242 4.21879 0
M  V30 3770 C 366.553 -0.110555 5.34586 0
M  V30 3771 C 367.853 2.01141 4.82016 0
M  V30 3772 H 369.547 1.40462 2.64406 0
M  V30 3773 H 367.093 0.67684 1.27102 0
M  V30 3774 H 369.046 -0.482192 4.18632 0
M  V30 3775 H 367.77 -1.06351 3.08799 0
M  V30 3776 H 366.429 1.02482 3.51984 0
M  V30 3777 H 366.077 -1.0125 4.92704 0
M  V30 3778 H 365.777 0.477325 5.85658 0
M  V30 3779 H 367.301 -0.425107 6.09118 0
M  V30 3780 H 368.715 1.75612 5.45741 0
M  V30 3781 H 367.112 2.54695 5.43369 0
M  V30 3782 H 368.182 2.69909 4.02836 0
M  V30 3783 N 369.525 -1.3858 0.750561 0
M  V30 3784 C 370.936 -1.82927 0.373438 0
M  V30 3785 C 371.287 -1.62634 -1.09748 0
M  V30 3786 O 370.412 -1.12588 -1.84805 0
M  V30 3787 C 371.007 -3.32088 0.671029 0
M  V30 3788 C 369.566 -3.74795 0.34722 0
M  V30 3789 C 368.713 -2.61391 0.92575 0
M  V30 3790 H 371.664 -1.27351 0.946958 0
M  V30 3791 H 371.685 -3.80465 -0.0518269 0
M  V30 3792 H 371.197 -3.46826 1.74164 0
M  V30 3793 H 369.298 -3.65638 -0.716933 0
M  V30 3794 H 369.411 -4.71667 0.840656 0
M  V30 3795 H 367.775 -2.52265 0.351327 0
M  V30 3796 H 368.558 -2.78929 2.00133 0
M  V30 3797 N 371.003 -0.499398 -1.49478 0
M  V30 3798 C 371.913 0.284489 -2.32869 0
M  V30 3799 C 372.929 0.968885 -1.44529 0
M  V30 3800 O 374.105 0.95062 -1.77553 0
M  V30 3801 C 371.17 1.33594 -3.19928 0
M  V30 3802 C 370.231 0.665149 -4.24116 0
M  V30 3803 C 369.464 1.6665 -5.07014 0
M  V30 3804 O 369.687 2.89618 -4.91404 0
M  V30 3805 O 368.621 1.22271 -5.8935 0
M  V30 3806 H 372.447 -0.39802 -3.01081 0
M  V30 3807 H 370.032 -0.260758 -1.47107 0
M  V30 3808 H 371.914 1.94431 -3.73864 0
M  V30 3809 H 370.589 2.0014 -2.54412 0
M  V30 3810 H 369.496 0.0170769 -3.74096 0
M  V30 3811 H 370.829 0.0421555 -4.92182 0
M  V30 3812 N 372.481 1.55866 -0.233164 0
M  V30 3813 C 373.428 2.20796 0.67215 0
M  V30 3814 C 374.398 1.16731 1.18166 0
M  V30 3815 O 375.583 1.45129 1.23864 0
M  V30 3816 C 372.723 2.90072 1.86955 0
M  V30 3817 C 371.836 4.08759 1.39786 0
M  V30 3818 C 370.971 4.65787 2.55374 0
M  V30 3819 C 370.01 5.76752 2.04998 0
M  V30 3820 N 369.147 6.28021 3.13901 0
M  V30 3821 H 373.987 2.9779 0.111749 0
M  V30 3822 H 371.524 1.47036 0.0434007 0
M  V30 3823 H 373.482 3.28428 2.57276 0
M  V30 3824 H 372.112 2.15575 2.40265 0
M  V30 3825 H 371.164 3.7581 0.589173 0
M  V30 3826 H 372.476 4.88906 0.98856 0
M  V30 3827 H 371.63 5.06646 3.33758 0
M  V30 3828 H 370.369 3.84828 2.99598 0
M  V30 3829 H 369.374 5.35383 1.25079 0
M  V30 3830 H 370.599 6.59553 1.61759 0
M  V30 3831 H 368.545 5.49971 3.57586 0
M  V30 3832 H 368.462 7.03323 2.7726 0
M  V30 3833 H 369.73 6.73538 3.92386 0
M  V30 3834 N 373.959 -0.0401083 1.57549 0
M  V30 3835 C 375.236 -0.767917 1.79896 0
M  V30 3836 C 375.616 -1.9416 0.82856 0
M  V30 3837 O 374.964 -2.2812 -0.131671 0
M  V30 3838 C 375.174 -1.2113 3.27305 0
M  V30 3839 C 376.522 -1.63175 3.91994 0
M  V30 3840 O 377.546 -1.30616 3.31388 0
M  V30 3841 O 376.405 -2.23565 4.98679 0
M  V30 3842 H 373.499 -0.370441 0.739393 0
M  V30 3843 H 376.045 -0.017737 1.69691 0
M  V30 3844 H 374.817 -0.372937 3.89519 0
M  V30 3845 H 374.44 -2.02183 3.42356 0
M  V30 3846 N 375.437 -1.54477 -0.31217 0
M  V30 3847 C 376.685 -1.72884 -1.04668 0
M  V30 3848 C 377.006 -0.511477 -1.88173 0
M  V30 3849 O 376.276 0.474407 -1.90069 0
M  V30 3850 H 374.856 -0.637461 -0.389425 0
M  V30 3851 H 377.518 -1.91807 -0.345852 0
M  V30 3852 H 376.614 -2.61334 -1.70619 0
M  V30 3853 N 376.915 0.57481 -1.46744 0
M  V30 3854 C 377.863 1.70435 -1.58286 0
M  V30 3855 C 378.857 1.63287 -0.450956 0
M  V30 3856 O 380.063 1.68685 -0.628121 0
M  V30 3857 H 376.438 0.56364 -0.497809 0
M  V30 3858 H 378.409 1.57833 -2.53242 0
M  V30 3859 C 377.158 3.08815 -1.59776 0
M  V30 3860 H 376.481 3.1499 -2.46214 0
M  V30 3861 H 377.921 3.87588 -1.71905 0
M  V30 3862 C 376.38 3.35301 -0.327812 0
M  V30 3863 O 376.91 3.97511 0.57861 0
M  V30 3864 N 375.116 2.89816 -0.213274 0
M  V30 3865 H 374.663 2.39371 -0.951798 0
M  V30 3866 H 374.621 3.0791 0.63553 0
M  V30 3867 N 378.394 1.34581 0.820102 0
M  V30 3868 C 379.327 1.20735 1.93644 0
M  V30 3869 C 380.305 0.0983343 1.62302 0
M  V30 3870 O 381.489 0.263997 1.86642 0
M  V30 3871 C 378.616 0.856037 3.27704 0
M  V30 3872 C 377.662 1.97521 3.78005 0
M  V30 3873 S 378.495 3.58906 3.97425 0
M  V30 3874 C 379.651 3.25822 5.34407 0
M  V30 3875 H 379.884 2.15231 2.05093 0
M  V30 3876 H 377.417 1.1964 0.97599 0
M  V30 3877 H 379.375 0.660133 4.05157 0
M  V30 3878 H 378.036 -0.0706253 3.14021 0
M  V30 3879 H 377.229 1.68321 4.75062 0
M  V30 3880 H 376.831 2.12875 3.07507 0
M  V30 3881 H 379.123 2.77812 6.17922 0
M  V30 3882 H 380.066 4.22029 5.68592 0
M  V30 3883 H 380.474 2.61932 5.00052 0
M  V30 3884 N 379.872 -1.04064 1.18357 0
M  V30 3885 C 380.802 -2.14001 0.934113 0
M  V30 3886 C 381.783 -1.69616 -0.128186 0
M  V30 3887 O 382.968 -1.94185 0.0244093 0
M  V30 3888 C 380.098 -3.44253 0.459066 0
M  V30 3889 C 379.052 -4.02261 1.46185 0
M  V30 3890 C 378.378 -5.27992 0.844322 0
M  V30 3891 C 379.678 -4.38432 2.83856 0
M  V30 3892 H 381.372 -2.35127 1.85352 0
M  V30 3893 H 378.918 -1.12998 0.892604 0
M  V30 3894 H 380.871 -4.20522 0.271907 0
M  V30 3895 H 379.595 -3.22813 -0.495912 0
M  V30 3896 H 378.254 -3.28074 1.63595 0
M  V30 3897 H 377.902 -5.02862 -0.117845 0
M  V30 3898 H 377.602 -5.67765 1.51384 0
M  V30 3899 H 379.126 -6.06938 0.667693 0
M  V30 3900 H 380.54 -5.05688 2.70098 0
M  V30 3901 H 378.937 -4.89254 3.47491 0
M  V30 3902 H 380.007 -3.4826 3.37406 0
M  V30 3903 N 381.35 -0.985608 -1.22978 0
M  V30 3904 C 382.313 -0.535071 -2.22867 0
M  V30 3905 C 383.313 0.378123 -1.56291 0
M  V30 3906 O 384.503 0.171092 -1.73358 0
M  V30 3907 C 381.635 0.222702 -3.40172 0
M  V30 3908 H 382.828 -1.41835 -2.6424 0
M  V30 3909 H 380.381 -0.772042 -1.35901 0
M  V30 3910 H 381.116 1.12229 -3.04262 0
M  V30 3911 H 380.901 -0.43288 -3.89703 0
M  V30 3912 H 382.391 0.526335 -4.1427 0
M  V30 3913 N 382.828 1.3818 -0.7579 0
M  V30 3914 C 383.775 2.30416 -0.133057 0
M  V30 3915 C 384.745 1.50398 0.704957 0
M  V30 3916 O 385.93 1.79014 0.660192 0
M  V30 3917 C 383.07 3.36834 0.750813 0
M  V30 3918 C 382.183 4.31879 -0.102297 0
M  V30 3919 C 381.318 5.25368 0.784979 0
M  V30 3920 C 380.357 6.12058 -0.0715046 0
M  V30 3921 N 379.494 6.97832 0.772972 0
M  V30 3922 H 384.334 2.83274 -0.925186 0
M  V30 3923 H 381.871 1.39461 -0.467866 0
M  V30 3924 H 383.829 3.97145 1.27794 0
M  V30 3925 H 382.459 2.85374 1.50868 0
M  V30 3926 H 381.511 3.72991 -0.747095 0
M  V30 3927 H 382.823 4.92921 -0.763552 0
M  V30 3928 H 381.977 5.90818 1.37911 0
M  V30 3929 H 380.716 4.64703 1.47996 0
M  V30 3930 H 379.721 5.456 -0.678272 0
M  V30 3931 H 380.946 6.74793 -0.763606 0
M  V30 3932 H 378.892 6.3971 1.45282 0
M  V30 3933 H 378.809 7.55812 0.168709 0
M  V30 3934 H 380.077 7.67687 1.35194 0
M  V30 3935 N 384.306 0.507319 1.49211 0
M  V30 3936 C 385.553 -0.0349529 2.0247 0
M  V30 3937 C 385.881 -1.36409 1.38647 0
M  V30 3938 O 385.136 -1.88841 0.513566 0
M  V30 3939 C 385.435 -0.229513 3.56662 0
M  V30 3940 C 385.101 1.02241 4.39156 0
M  V30 3941 C 383.763 1.36557 4.61417 0
M  V30 3942 C 386.115 1.85428 4.871 0
M  V30 3943 C 383.443 2.53999 5.28868 0
M  V30 3944 C 385.795 3.02028 5.55843 0
M  V30 3945 C 384.459 3.36717 5.76349 0
M  V30 3946 H 383.729 -0.0127902 0.74089 0
M  V30 3947 H 386.376 0.668756 1.79443 0
M  V30 3948 H 384.681 -1.0158 3.78403 0
M  V30 3949 H 386.378 -0.663641 3.9547 0
M  V30 3950 H 382.968 0.745124 4.22073 0
M  V30 3951 H 387.152 1.6023 4.69723 0
M  V30 3952 H 382.408 2.81105 5.42946 0
M  V30 3953 H 386.582 3.66808 5.91967 0
M  V30 3954 H 384.209 4.27821 6.28389 0
M  V30 3955 N 385.784 -1.5574 0.241426 0
M  V30 3956 C 386.694 -2.2479 -0.671305 0
M  V30 3957 C 387.71 -1.26217 -1.19772 0
M  V30 3958 O 388.886 -1.59079 -1.23514 0
M  V30 3959 C 385.951 -2.92966 -1.85396 0
M  V30 3960 C 385.012 -4.06935 -1.36756 0
M  V30 3961 C 384.245 -4.71851 -2.49384 0
M  V30 3962 O 384.468 -4.35823 -3.67987 0
M  V30 3963 O 383.402 -5.60467 -2.19454 0
M  V30 3964 H 387.228 -3.0349 -0.112966 0
M  V30 3965 H 384.813 -1.49397 0.0101513 0
M  V30 3966 H 386.695 -3.35927 -2.54423 0
M  V30 3967 H 385.37 -2.17211 -2.40002 0
M  V30 3968 H 384.277 -3.68503 -0.644726 0
M  V30 3969 H 385.61 -4.84492 -0.867647 0
M  V30 3970 N 387.262 0.0317525 -1.57568 0
M  V30 3971 C 388.194 1.06073 -2.03178 0
M  V30 3972 C 389.207 1.32627 -0.944132 0
M  V30 3973 O 390.396 1.30162 -1.22148 0
M  V30 3974 C 387.496 2.40297 -2.38978 0
M  V30 3975 C 386.669 2.33137 -3.70089 0
M  V30 3976 C 385.728 3.49787 -3.9311 0
M  V30 3977 O 384.754 3.29403 -4.64201 0
M  V30 3978 N 385.956 4.71562 -3.38541 0
M  V30 3979 H 388.721 0.672006 -2.92069 0
M  V30 3980 H 386.282 0.219745 -1.60402 0
M  V30 3981 H 388.274 3.1705 -2.51518 0
M  V30 3982 H 386.844 2.71024 -1.55771 0
M  V30 3983 H 386.064 1.415 -3.67928 0
M  V30 3984 H 387.352 2.25493 -4.56104 0
M  V30 3985 H 386.75 4.91024 -2.80912 0
M  V30 3986 H 385.307 5.45689 -3.56464 0
M  V30 3987 N 388.74 1.54641 0.303973 0
M  V30 3988 C 389.97 1.77511 1.05705 0
M  V30 3989 C 390.378 0.533228 1.81531 0
M  V30 3990 O 389.721 -0.506423 1.76582 0
M  V30 3991 C 389.783 2.92779 2.08617 0
M  V30 3992 C 389.447 4.30977 1.52013 0
M  V30 3993 C 390.444 5.11115 0.9517 0
M  V30 3994 C 388.129 4.77571 1.55665 0
M  V30 3995 C 390.123 6.35966 0.427327 0
M  V30 3996 C 387.81 6.02384 1.02841 0
M  V30 3997 C 388.808 6.81417 0.464713 0
M  V30 3998 O 388.496 8.03881 -0.0555283 0
M  V30 3999 H 388.228 0.59579 0.319391 0
M  V30 4000 H 390.782 2.02401 0.349712 0
M  V30 4001 H 389.012 2.63506 2.83022 0
M  V30 4002 H 390.701 3.03252 2.69802 0
M  V30 4003 H 391.467 4.76264 0.916407 0
M  V30 4004 H 387.346 4.16085 1.9848 0
M  V30 4005 H 390.89 6.97599 -0.0133062 0
M  V30 4006 H 386.787 6.36723 1.06084 0
M  V30 4007 H 387.555 8.18479 0.0580522 0
M  V30 4008 N 390.218 -0.567019 1.47046 0
M  V30 4009 C 391.181 -1.65696 1.58359 0
M  V30 4010 C 392.181 -1.54097 0.459441 0
M  V30 4011 O 393.371 -1.58432 0.724225 0
M  V30 4012 C 390.503 -3.05197 1.51879 0
M  V30 4013 H 391.696 -1.57019 2.5551 0
M  V30 4014 H 389.249 -0.786148 1.3509 0
M  V30 4015 H 389.984 -3.19417 0.560673 0
M  V30 4016 H 389.769 -3.15025 2.33455 0
M  V30 4017 H 391.259 -3.84511 1.62913 0
M  V30 4018 N 391.696 -1.35014 -0.812953 0
M  V30 4019 C 392.926 -1.30841 -1.59888 0
M  V30 4020 C 393.334 0.117576 -1.88834 0
M  V30 4021 O 392.677 1.07807 -1.48739 0
M  V30 4022 C 392.739 -2.0412 -2.95931 0
M  V30 4023 C 392.403 -3.53336 -2.89832 0
M  V30 4024 C 393.4 -4.48052 -2.63714 0
M  V30 4025 C 391.085 -3.95894 -3.0915 0
M  V30 4026 C 393.079 -5.833 -2.56982 0
M  V30 4027 C 390.766 -5.31239 -3.0204 0
M  V30 4028 C 391.764 -6.24754 -2.75991 0
M  V30 4029 O 391.452 -7.57617 -2.68833 0
M  V30 4030 H 391.184 -0.451215 -0.50337 0
M  V30 4031 H 393.738 -1.78354 -1.01877 0
M  V30 4032 H 391.968 -1.51235 -3.559 0
M  V30 4033 H 393.657 -1.93107 -3.57022 0
M  V30 4034 H 394.423 -4.16492 -2.48515 0
M  V30 4035 H 390.302 -3.23495 -3.28438 0
M  V30 4036 H 393.846 -6.56263 -2.36569 0
M  V30 4037 H 389.743 -5.62415 -3.16796 0
M  V30 4038 H 390.511 -7.67469 -2.84487 0
M  V30 4039 N 393.175 1.03435 -1.18907 0
M  V30 4040 C 394.4 1.80919 -1.01406 0
M  V30 4041 C 394.825 1.83055 0.432721 0
M  V30 4042 O 394.183 1.25252 1.31079 0
M  V30 4043 C 394.231 3.24091 -1.58105 0
M  V30 4044 O 393.335 4.04434 -0.806669 0
M  V30 4045 H 392.676 0.558709 -0.358803 0
M  V30 4046 H 395.206 1.30223 -1.57807 0
M  V30 4047 H 395.216 3.74853 -1.61087 0
M  V30 4048 H 393.891 3.21851 -2.6341 0
M  V30 4049 H 392.468 3.63091 -0.849666 0
M  V30 4050 N 394.653 0.992116 1.22453 0
M  V30 4051 C 395.899 0.668523 1.91464 0
M  V30 4052 C 396.232 -0.797313 1.77078 0
M  V30 4053 O 395.507 -1.5765 1.13916 0
M  V30 4054 C 395.79 1.07424 3.43703 0
M  V30 4055 C 395.643 2.59857 3.67143 0
M  V30 4056 C 396.962 0.626891 4.35612 0
M  V30 4057 H 394.081 0.244341 0.695318 0
M  V30 4058 H 396.723 1.2355 1.44345 0
M  V30 4059 H 394.873 0.591816 3.83966 0
M  V30 4060 H 396.545 3.15764 3.3629 0
M  V30 4061 H 394.788 3.01961 3.11451 0
M  V30 4062 H 395.459 2.83296 4.73759 0
M  V30 4063 H 397.935 1.04125 4.02861 0
M  V30 4064 H 396.811 0.939076 5.40807 0
M  V30 4065 H 397.072 -0.472457 4.39568 0
M  V30 4066 N 396.131 -1.37776 0.765217 0
M  V30 4067 C 397.377 -2.00145 0.327072 0
M  V30 4068 C 397.71 -1.60607 -1.09175 0
M  V30 4069 O 396.985 -0.849127 -1.74986 0
M  V30 4070 C 397.268 -3.57109 0.46319 0
M  V30 4071 C 397.121 -4.06576 1.92395 0
M  V30 4072 C 398.44 -4.39888 -0.136473 0
M  V30 4073 H 395.559 -0.727113 0.120316 0
M  V30 4074 H 398.201 -1.63549 0.967039 0
M  V30 4075 H 396.351 -3.88414 -0.0816358 0
M  V30 4076 H 398.023 -3.85864 2.52798 0
M  V30 4077 H 396.266 -3.59011 2.43503 0
M  V30 4078 H 396.937 -5.15639 1.97028 0
M  V30 4079 H 399.413 -4.14803 0.328317 0
M  V30 4080 H 398.289 -5.48899 -0.0110582 0
M  V30 4081 H 398.55 -4.24758 -1.22608 0
M  V30 4082 N 397.609 -0.515225 -1.4894 0
M  V30 4083 C 399.025 -0.172099 -1.58669 0
M  V30 4084 C 399.225 1.32405 -1.51892 0
M  V30 4085 O 398.281 2.10116 -1.40027 0
M  V30 4086 C 399.594 -0.761533 -2.90897 0
M  V30 4087 C 401.142 -0.728926 -3.04394 0
M  V30 4088 C 401.617 -1.29667 -4.39261 0
M  V30 4089 N 403.108 -1.25799 -4.4579 0
M  V30 4090 C 403.843 -1.66733 -5.48623 0
M  V30 4091 N 403.339 -2.15327 -6.58488 0
M  V30 4092 N 405.132 -1.58061 -5.39419 0
M  V30 4093 H 397.283 -1.48778 -1.51588 0
M  V30 4094 H 399.546 -0.617968 -0.718901 0
M  V30 4095 H 399.252 -1.81136 -3.01468 0
M  V30 4096 H 399.126 -0.230106 -3.76497 0
M  V30 4097 H 401.513 0.312098 -2.93445 0
M  V30 4098 H 401.594 -1.29766 -2.20442 0
M  V30 4099 H 401.238 -2.33655 -4.50963 0
M  V30 4100 H 401.168 -0.703752 -5.21876 0
M  V30 4101 H 403.659 -0.902102 -3.66975 0
M  V30 4102 H 403.972 -2.44594 -7.33071 0
M  V30 4103 H 402.317 -2.19311 -6.59491 0
M  V30 4104 H 405.508 -1.19906 -4.52482 0
M  V30 4105 H 405.681 -1.90284 -6.19432 0
M  V30 4106 N 399.087 1.5561 -0.249682 0
M  V30 4107 C 400.364 1.90932 0.424761 0
M  V30 4108 C 400.744 1.17078 1.75658 0
M  V30 4109 O 400.092 0.289176 2.26663 0
M  V30 4110 C 400.302 3.43975 0.590109 0
M  V30 4111 C 401.65 4.15281 0.884714 0
M  V30 4112 O 402.674 3.49729 0.67587 0
M  V30 4113 O 401.533 5.31236 1.28259 0
M  V30 4114 H 398.627 0.794815 0.228468 0
M  V30 4115 H 401.173 1.67135 -0.293954 0
M  V30 4116 H 399.945 3.89748 -0.34818 0
M  V30 4117 H 399.568 3.73644 1.35926 0
M  V30 4118 N 400.565 -0.0233959 1.57583 0
M  V30 4119 C 401.528 -1.00693 2.05897 0
M  V30 4120 C 402.528 -1.28693 0.964092 0
M  V30 4121 O 403.718 -1.23602 1.22753 0
M  V30 4122 C 400.85 -2.33825 2.4807 0
M  V30 4123 H 402.043 -0.589476 2.9405 0
M  V30 4124 H 399.596 -0.270354 1.53944 0
M  V30 4125 H 400.331 -2.80307 1.6309 0
M  V30 4126 H 400.116 -2.1483 3.2801 0
M  V30 4127 H 401.606 -3.04426 2.85857 0
M  V30 4128 N 402.043 -1.548 -0.295768 0
M  V30 4129 C 403.289 -1.74588 -1.03184 0
M  V30 4130 C 403.622 -0.532962 -1.86744 0
M  V30 4131 O 402.897 0.469872 -1.88739 0
M  V30 4132 C 403.18 -3.03791 -1.93347 0
M  V30 4133 C 403.033 -4.35392 -1.12933 0
M  V30 4134 C 404.352 -3.28892 -2.92435 0
M  V30 4135 H 401.471 -0.635221 -0.373715 0
M  V30 4136 H 404.113 -1.87519 -0.30606 0
M  V30 4137 H 402.263 -2.92898 -2.55232 0
M  V30 4138 H 403.935 -4.58211 -0.532943 0
M  V30 4139 H 402.178 -4.31642 -0.432168 0
M  V30 4140 H 402.849 -5.22074 -1.79284 0
M  V30 4141 H 405.325 -3.39429 -2.4068 0
M  V30 4142 H 404.201 -4.20603 -3.52682 0
M  V30 4143 H 404.462 -2.47437 -3.6637 0
M  V30 4144 N 403.521 0.559213 -1.47345 0
M  V30 4145 C 404.484 1.64854 -1.59235 0
M  V30 4146 C 405.484 1.53851 -0.467607 0
M  V30 4147 O 406.674 1.58045 -0.732617 0
M  V30 4148 C 403.806 3.04388 -1.53496 0
M  V30 4149 H 404.999 1.55662 -2.56339 0
M  V30 4150 H 402.552 0.778973 -1.35505 0
M  V30 4151 H 403.287 3.19115 -0.577604 0
M  V30 4152 H 403.072 3.13783 -2.35123 0
M  V30 4153 H 404.562 3.83642 -1.6495 0
M  V30 4154 N 404.999 1.35443 0.805782 0
M  V30 4155 C 406.276 1.19325 1.54987 0
M  V30 4156 C 406.656 -0.227294 2.09873 0
M  V30 4157 O 406.004 -1.2309 1.92512 0
M  V30 4158 C 406.214 2.26196 2.65775 0
M  V30 4159 C 407.562 2.62043 3.34094 0
M  V30 4160 O 408.586 2.25115 2.76046 0
M  V30 4161 O 407.445 3.25542 4.38958 0
M  V30 4162 H 404.539 0.463623 0.684823 0
M  V30 4163 H 407.085 1.47127 0.845674 0
M  V30 4164 H 405.857 3.21471 2.23096 0
M  V30 4165 H 405.48 1.99667 3.43829 0
M  V30 4166 N 406.477 -1.02803 1.19454 0
M  V30 4167 C 407.723 -1.76598 1.0092 0
M  V30 4168 C 408.078 -1.86939 -0.455142 0
M  V30 4169 O 407.371 -1.37575 -1.33355 0
M  V30 4170 C 407.565 -3.18941 1.6128 0
M  V30 4171 C 407.394 -3.22476 3.13431 0
M  V30 4172 C 406.164 -3.30375 3.82336 0
M  V30 4173 C 408.362 -3.09451 4.10785 0
M  V30 4174 N 406.344 -3.23292 5.21877 0
M  V30 4175 C 407.715 -3.10012 5.36929 0
M  V30 4176 C 409.77 -2.93585 4.02135 0
M  V30 4177 C 408.473 -2.96334 6.55423 0
M  V30 4178 C 410.499 -2.81256 5.20239 0
M  V30 4179 C 409.861 -2.82472 6.45282 0
M  V30 4180 H 405.96 -0.657447 0.423424 0
M  V30 4181 H 408.544 -1.22369 1.5144 0
M  V30 4182 H 406.715 -3.71489 1.1336 0
M  V30 4183 H 408.447 -3.81102 1.36173 0
M  V30 4184 H 405.202 -3.3663 3.33132 0
M  V30 4185 H 405.626 -3.23156 5.94894 0
M  V30 4186 H 410.268 -2.91466 3.0628 0
M  V30 4187 H 407.986 -2.97203 7.51463 0
M  V30 4188 H 411.572 -2.70014 5.15348 0
M  V30 4189 H 410.452 -2.73036 7.35133 0
M  V30 4190 N 407.956 -0.998596 -1.21925 0
M  V30 4191 C 409.184 -0.696286 -1.94832 0
M  V30 4192 C 409.599 0.740032 -1.73692 0
M  V30 4193 O 408.956 1.5 -1.03953 0
M  V30 4194 C 409.007 -0.999833 -3.47398 0
M  V30 4195 O 408.728 -2.37972 -3.67833 0
M  V30 4196 C 410.229 -0.716025 -4.37479 0
M  V30 4197 H 407.449 -0.257111 -0.619786 0
M  V30 4198 H 409.993 -1.33491 -1.54921 0
M  V30 4199 H 408.148 -0.406918 -3.85257 0
M  V30 4200 H 408.562 -2.48338 -4.61983 0
M  V30 4201 H 410.036 -0.978642 -5.43256 0
M  V30 4202 H 410.513 0.349968 -4.37803 0
M  V30 4203 H 411.119 -1.29025 -4.05256 0
M  V30 4204 N 409.434 1.37368 -0.772513 0
M  V30 4205 C 410.664 2.03647 -0.348082 0
M  V30 4206 C 411.072 1.58392 1.03482 0
M  V30 4207 O 410.415 0.760921 1.672 0
M  V30 4208 C 410.477 3.58131 -0.313404 0
M  V30 4209 C 410.141 4.2652 -1.64102 0
M  V30 4210 C 411.138 4.50587 -2.5936 0
M  V30 4211 C 408.823 4.64335 -1.91567 0
M  V30 4212 C 410.817 5.11526 -3.80289 0
M  V30 4213 C 408.504 5.24996 -3.12766 0
M  V30 4214 C 409.502 5.48529 -4.06946 0
M  V30 4215 O 409.19 6.07921 -5.26011 0
M  V30 4216 H 408.922 0.660538 -0.143753 0
M  V30 4217 H 411.476 1.76669 -1.04772 0
M  V30 4218 H 409.706 3.84159 0.442617 0
M  V30 4219 H 411.395 4.05813 0.0840613 0
M  V30 4220 H 412.161 4.21784 -2.39423 0
M  V30 4221 H 408.04 4.45353 -1.19088 0
M  V30 4222 H 411.584 5.29811 -4.53813 0
M  V30 4223 H 407.481 5.53223 -3.32588 0
M  V30 4224 H 408.249 6.26398 -5.26847 0
M  V30 4225 N 410.912 0.523116 1.48665 0
M  V30 4226 C 412.189 -0.0775449 1.95446 0
M  V30 4227 C 412.569 -1.5197 1.4652 0
M  V30 4228 O 411.917 -2.17876 0.688657 0
M  V30 4229 C 412.127 0.0326135 3.48985 0
M  V30 4230 C 413.475 -0.130141 4.24401 0
M  V30 4231 O 414.499 -0.0415142 3.56176 0
M  V30 4232 O 413.358 -0.31491 5.45592 0
M  V30 4233 H 410.452 -0.0831012 0.822814 0
M  V30 4234 H 412.998 0.587227 1.59216 0
M  V30 4235 H 411.77 1.03748 3.77296 0
M  V30 4236 H 411.393 -0.671317 3.91892 0
M  V30 4237 N 412.39 -1.55475 0.257931 0
M  V30 4238 C 413.3 -2.2549 -0.647425 0
M  V30 4239 C 414.316 -1.2748 -1.18427 0
M  V30 4240 O 415.492 -1.6038 -1.2182 0
M  V30 4241 C 412.557 -2.94916 -1.82278 0
M  V30 4242 C 411.618 -4.08363 -1.32432 0
M  V30 4243 C 410.851 -4.74469 -2.44366 0
M  V30 4244 O 411.074 -4.39701 -3.63344 0
M  V30 4245 O 410.008 -5.62763 -2.13497 0
M  V30 4246 H 413.834 -3.03593 -0.0807707 0
M  V30 4247 H 411.419 -1.49377 0.0259962 0
M  V30 4248 H 413.301 -3.38606 -2.50846 0
M  V30 4249 H 411.976 -2.19744 -2.37685 0
M  V30 4250 H 410.883 -3.69166 -0.605605 0
M  V30 4251 H 412.216 -4.85385 -0.816211 0
M  V30 4252 N 413.868 0.0150385 -1.57593 0
M  V30 4253 C 414.831 0.995996 -2.06428 0
M  V30 4254 C 415.831 1.2818 -0.970903 0
M  V30 4255 O 417.021 1.22949 -1.23406 0
M  V30 4256 C 414.153 2.32506 -2.49307 0
M  V30 4257 H 415.346 0.573873 -2.94358 0
M  V30 4258 H 412.899 0.262186 -1.54085 0
M  V30 4259 H 413.634 2.79438 -1.64575 0
M  V30 4260 H 413.419 2.13087 -3.29145 0
M  V30 4261 H 414.909 3.02906 -2.87468 0
M  V30 4262 N 415.346 1.54954 0.287554 0
M  V30 4263 C 416.574 1.78881 1.03967 0
M  V30 4264 C 416.989 0.554894 1.80462 0
M  V30 4265 O 416.346 -0.475676 1.76192 0
M  V30 4266 C 416.397 3.00488 2.0097 0
M  V30 4267 O 416.118 4.19113 1.27577 0
M  V30 4268 C 417.619 3.36907 2.88112 0
M  V30 4269 H 414.839 0.596259 0.307761 0
M  V30 4270 H 417.383 2.01937 0.322749 0
M  V30 4271 H 415.538 2.79601 2.68145 0
M  V30 4272 H 415.952 4.87765 1.92835 0
M  V30 4273 H 417.426 4.25205 3.52001 0
M  V30 4274 H 417.903 2.55659 3.57121 0
M  V30 4275 H 418.509 3.60001 2.26449 0
M  V30 4276 N 416.824 -0.551391 1.4764 0
M  V30 4277 C 418.072 -1.30572 1.54258 0
M  V30 4278 C 418.393 -1.93877 0.208963 0
M  V30 4279 O 417.663 -1.80234 -0.767619 0
M  V30 4280 H 416.243 -0.484894 0.568231 0
M  V30 4281 H 418.905 -0.643402 1.83974 0
M  V30 4282 H 418.001 -2.09621 2.31226 0
M  V30 4283 N 418.302 -1.35869 -0.798587 0
M  V30 4284 C 419.53 -1.32722 -1.58722 0
M  V30 4285 C 419.945 0.0935631 -1.88568 0
M  V30 4286 O 419.302 1.04784 -1.49421 0
M  V30 4287 C 419.353 -2.13974 -2.91371 0
M  V30 4288 O 419.074 -3.50514 -2.62815 0
M  V30 4289 C 420.575 -2.18504 -3.85708 0
M  V30 4290 H 417.795 -0.45562 -0.492596 0
M  V30 4291 H 420.339 -1.78837 -0.991843 0
M  V30 4292 H 418.494 -1.71438 -3.47402 0
M  V30 4293 H 418.908 -3.92806 -3.47568 0
M  V30 4294 H 420.382 -2.79732 -4.75872 0
M  V30 4295 H 420.859 -1.18597 -4.22885 0
M  V30 4296 H 421.465 -2.61236 -3.35612 0
M  V30 4297 N 419.78 1.02168 -1.19998 0
M  V30 4298 C 421.026 1.75945 -1.00852 0
M  V30 4299 C 421.359 1.88702 0.458828 0
M  V30 4300 O 420.634 1.40911 1.34069 0
M  V30 4301 C 420.917 3.18154 -1.68671 0
M  V30 4302 C 420.77 3.13224 -3.22817 0
M  V30 4303 C 422.089 4.16711 -1.41561 0
M  V30 4304 H 419.208 0.638673 -0.367785 0
M  V30 4305 H 421.85 1.19222 -1.4794 0
M  V30 4306 H 420 3.66586 -1.28636 0
M  V30 4307 H 421.672 2.72635 -3.72112 0
M  V30 4308 H 419.915 2.50751 -3.53986 0
M  V30 4309 H 420.586 4.13728 -3.65422 0
M  V30 4310 H 423.062 3.76913 -1.76284 0
M  V30 4311 H 421.938 5.14391 -1.91553 0
M  V30 4312 H 422.199 4.40774 -0.342193 0
M  V30 4313 N 421.258 1.00505 1.21394 0
M  V30 4314 C 422.486 0.706609 1.9446 0
M  V30 4315 C 422.901 -0.73081 1.74082 0
M  V30 4316 O 422.258 -1.49446 1.04747 0
M  V30 4317 C 422.309 1.01824 3.46863 0
M  V30 4318 O 422.03 2.39919 3.66566 0
M  V30 4319 C 423.531 0.739216 4.37093 0
M  V30 4320 H 420.751 0.260394 0.618414 0
M  V30 4321 H 423.295 1.34311 1.54211 0
M  V30 4322 H 421.45 0.427343 3.85036 0
M  V30 4323 H 421.864 2.50784 4.6066 0
M  V30 4324 H 423.338 1.00744 5.42729 0
M  V30 4325 H 423.815 -0.326746 4.37983 0
M  V30 4326 H 424.421 1.31173 4.04566 0
M  V30 4327 N 422.737 -1.36956 0.779787 0
M  V30 4328 C 423.965 -2.03755 0.359398 0
M  V30 4329 C 424.38 -1.58807 -1.02106 0
M  V30 4330 O 423.737 -0.773024 -1.6532 0
M  V30 4331 C 423.788 -3.59251 0.402568 0
M  V30 4332 O 423.509 -4.02557 1.72858 0
M  V30 4333 C 425.01 -4.43291 -0.0284068 0
M  V30 4334 H 422.23 -0.654148 0.149437 0
M  V30 4335 H 424.774 -1.75128 1.05595 0
M  V30 4336 H 422.929 -3.86621 -0.245478 0
M  V30 4337 H 423.343 -4.97111 1.67275 0
M  V30 4338 H 424.817 -5.51975 0.0529466 0
M  V30 4339 H 425.294 -4.25719 -1.07982 0
M  V30 4340 H 425.9 -4.21163 0.591758 0
M  V30 4341 N 424.215 -0.530993 -1.48385 0
M  V30 4342 C 425.443 -0.00134122 -2.069 0
M  V30 4343 C 425.858 1.2805 -1.3874 0
M  V30 4344 O 425.215 1.76204 -0.475244 0
M  V30 4345 C 425.266 0.225256 -3.60798 0
M  V30 4346 O 424.987 -1.0058 -4.26398 0
M  V30 4347 C 426.488 0.795172 -4.3611 0
M  V30 4348 H 423.708 -0.0339704 -0.67014 0
M  V30 4349 H 426.252 -0.736926 -1.90761 0
M  V30 4350 H 424.407 0.910891 -3.76539 0
M  V30 4351 H 424.821 -0.787165 -5.1856 0
M  V30 4352 H 426.295 0.903143 -5.44562 0
M  V30 4353 H 426.772 1.80031 -4.00606 0
M  V30 4354 H 427.378 0.146069 -4.25049 0
M  V30 4355 N 425.693 1.55336 -0.266172 0
M  V30 4356 C 426.94 1.99397 0.353158 0
M  V30 4357 C 427.268 1.15451 1.56529 0
M  V30 4358 O 426.523 0.209974 1.9457 0
M  V30 4359 C 426.822 3.48606 0.787957 0
M  V30 4360 C 426.488 4.49773 -0.318541 0
M  V30 4361 C 425.15 4.77158 -0.62239 0
M  V30 4362 C 427.502 5.10212 -1.06459 0
M  V30 4363 C 424.83 5.62251 -1.67602 0
M  V30 4364 C 427.182 5.96449 -2.10788 0
M  V30 4365 C 425.846 6.22158 -2.41817 0
M  V30 4366 H 425.116 0.729644 0.12923 0
M  V30 4367 H 427.763 1.87732 -0.37802 0
M  V30 4368 H 426.068 3.57701 1.59866 0
M  V30 4369 H 427.765 3.80098 1.27775 0
M  V30 4370 H 424.355 4.2854 -0.0715925 0
M  V30 4371 H 428.539 4.89086 -0.843098 0
M  V30 4372 H 423.795 5.80419 -1.92155 0
M  V30 4373 H 427.969 6.42317 -2.69076 0
M  V30 4374 H 425.596 6.87888 -3.23596 0
M  V30 4375 N 427.171 -0.0066808 1.57599 0
M  V30 4376 C 428.081 -1.01671 2.11424 0
M  V30 4377 C 429.097 -1.38143 1.05795 0
M  V30 4378 O 430.273 -1.47011 1.37658 0
M  V30 4379 C 427.338 -2.29192 2.60139 0
M  V30 4380 C 426.399 -1.99094 3.80342 0
M  V30 4381 C 425.632 -3.20535 4.26724 0
M  V30 4382 O 425.855 -4.3199 3.72479 0
M  V30 4383 O 424.789 -3.04924 5.18946 0
M  V30 4384 H 428.615 -0.589181 2.9793 0
M  V30 4385 H 426.2 -0.225091 1.47695 0
M  V30 4386 H 428.082 -3.0412 2.917 0
M  V30 4387 H 426.757 -2.71195 1.76733 0
M  V30 4388 H 425.664 -1.21663 3.53764 0
M  V30 4389 H 426.997 -1.61931 4.648 0
M  V30 4390 N 428.649 -1.55105 -0.279332 0
M  V30 4391 C 429.895 -1.75672 -1.01327 0
M  V30 4392 C 430.228 -0.552739 -1.86168 0
M  V30 4393 O 429.503 0.449827 -1.89227 0
M  V30 4394 C 429.786 -3.05825 -1.90114 0
M  V30 4395 C 429.639 -4.36565 -1.08309 0
M  V30 4396 C 430.958 -3.31975 -2.8893 0
M  V30 4397 H 428.077 -0.639149 -0.366957 0
M  V30 4398 H 430.719 -1.87833 -0.286154 0
M  V30 4399 H 428.869 -2.95588 -2.52111 0
M  V30 4400 H 430.541 -4.58751 -0.484314 0
M  V30 4401 H 428.784 -4.32076 -0.386362 0
M  V30 4402 H 429.455 -5.23946 -1.73737 0
M  V30 4403 H 431.931 -3.41963 -2.37067 0
M  V30 4404 H 430.807 -4.2432 -3.48201 0
M  V30 4405 H 431.068 -2.51309 -3.63725 0
M  V30 4406 N 430.127 0.543554 -1.4793 0
M  V30 4407 C 431.355 1.32516 -1.58894 0
M  V30 4408 C 431.77 1.87215 -0.244131 0
M  V30 4409 O 431.127 1.65709 0.764652 0
M  V30 4410 C 431.178 2.48554 -2.62494 0
M  V30 4411 O 430.899 1.96112 -3.91755 0
M  V30 4412 C 432.4 3.40572 -2.8377 0
M  V30 4413 H 429.62 0.403472 -0.536145 0
M  V30 4414 H 432.164 0.657106 -1.93655 0
M  V30 4415 H 430.319 3.1127 -2.30629 0
M  V30 4416 H 430.733 2.71967 -4.4848 0
M  V30 4417 H 432.207 4.18375 -3.60093 0
M  V30 4418 H 432.684 3.94965 -1.92092 0
M  V30 4419 H 433.29 2.8366 -3.16887 0
M  V30 4420 N 431.605 1.3629 0.791371 0
M  V30 4421 C 432.833 1.33562 1.58016 0
M  V30 4422 C 433.248 -0.0835616 1.88615 0
M  V30 4423 O 432.605 -1.0399 1.49974 0
M  V30 4424 C 432.656 2.15517 2.90232 0
M  V30 4425 O 432.377 3.51902 2.60953 0
M  V30 4426 C 433.878 2.20546 3.84544 0
M  V30 4427 H 431.098 0.458226 0.490173 0
M  V30 4428 H 433.642 1.79361 0.982345 0
M  V30 4429 H 431.797 1.73278 3.46487 0
M  V30 4430 H 432.211 3.94644 3.4548 0
M  V30 4431 H 433.685 2.82252 4.74382 0
M  V30 4432 H 434.162 1.20838 4.2225 0
M  V30 4433 H 434.768 2.63013 3.34222 0
M  V30 4434 N 433.083 -1.0153 1.20538 0
M  V30 4435 C 433.993 -2.13557 0.971113 0
M  V30 4436 C 435.009 -1.73845 -0.0734366 0
M  V30 4437 O 436.185 -2.01075 0.114299 0
M  V30 4438 C 433.25 -3.42661 0.527639 0
M  V30 4439 C 432.311 -3.96608 1.64319 0
M  V30 4440 C 431.544 -5.1955 1.22078 0
M  V30 4441 O 431.767 -5.70329 0.0900198 0
M  V30 4442 O 430.701 -5.66681 2.02871 0
M  V30 4443 H 434.527 -2.3619 1.90913 0
M  V30 4444 H 432.112 -1.11946 0.989362 0
M  V30 4445 H 433.994 -4.20404 0.289621 0
M  V30 4446 H 432.669 -3.21441 -0.381779 0
M  V30 4447 H 431.576 -3.20139 1.93551 0
M  V30 4448 H 432.909 -4.22219 2.52966 0
M  V30 4449 N 434.561 -1.01147 -1.20859 0
M  V30 4450 C 435.524 -0.582224 -2.21682 0
M  V30 4451 C 436.524 0.344887 -1.57058 0
M  V30 4452 O 437.714 0.134281 -1.73682 0
M  V30 4453 C 434.846 0.150496 -3.40568 0
M  V30 4454 H 436.039 -1.47408 -2.61172 0
M  V30 4455 H 433.592 -0.800695 -1.34233 0
M  V30 4456 H 434.327 1.0575 -3.06574 0
M  V30 4457 H 434.112 -0.515444 -3.88697 0
M  V30 4458 H 435.602 0.438344 -4.15293 0
M  V30 4459 N 436.039 1.36541 -0.78704 0
M  V30 4460 C 436.986 2.30082 -0.181901 0
M  V30 4461 C 437.956 1.5186 0.672896 0
M  V30 4462 O 439.141 1.80374 0.622072 0
M  V30 4463 C 436.281 3.3835 0.679197 0
M  V30 4464 C 435.394 4.31565 -0.193882 0
M  V30 4465 C 434.529 5.26915 0.673364 0
M  V30 4466 C 433.568 6.11769 -0.201315 0
M  V30 4467 N 432.705 6.99315 0.624777 0
M  V30 4468 H 437.545 2.81248 -0.985064 0
M  V30 4469 H 435.082 1.38437 -0.497342 0
M  V30 4470 H 437.04 3.99767 1.19341 0
M  V30 4471 H 435.67 2.8851 1.44781 0
M  V30 4472 H 434.722 3.71323 -0.826044 0
M  V30 4473 H 436.034 4.91191 -0.867937 0
M  V30 4474 H 435.188 5.9361 1.25348 0
M  V30 4475 H 433.927 4.67737 1.38105 0
M  V30 4476 H 432.932 5.44039 -0.793849 0
M  V30 4477 H 434.157 6.73022 -0.906568 0
M  V30 4478 H 432.103 6.42648 1.3168 0
M  V30 4479 H 432.02 7.56 0.00835237 0
M  V30 4480 H 433.288 7.70382 1.18879 0
M  V30 4481 N 437.518 0.538854 1.48102 0
M  V30 4482 C 438.764 0.00801365 2.02798 0
M  V30 4483 C 439.097 -1.3309 1.41424 0
M  V30 4484 O 438.372 -1.86169 0.563158 0
M  V30 4485 C 438.655 -0.104589 3.59948 0
M  V30 4486 C 438.508 1.26012 4.31788 0
M  V30 4487 C 439.827 -0.827055 4.32259 0
M  V30 4488 H 436.946 0.00438624 0.736987 0
M  V30 4489 H 439.588 0.6976 1.7673 0
M  V30 4490 H 437.738 -0.691893 3.82289 0
M  V30 4491 H 439.41 1.88922 4.2084 0
M  V30 4492 H 437.653 1.83968 3.92859 0
M  V30 4493 H 438.324 1.13424 5.40221 0
M  V30 4494 H 440.8 -0.328578 4.14801 0
M  V30 4495 H 439.676 -0.87476 5.41885 0
M  V30 4496 H 439.937 -1.87927 4.0017 0
M  V30 4497 N 438.996 -1.55193 0.274407 0
M  V30 4498 C 439.928 -2.1989 -0.646595 0
M  V30 4499 C 440.941 -1.1834 -1.11801 0
M  V30 4500 O 442.13 -1.4507 -1.04004 0
M  V30 4501 C 439.23 -2.8104 -1.89393 0
M  V30 4502 C 438.403 -4.08274 -1.56943 0
M  V30 4503 C 437.462 -4.53478 -2.66916 0
M  V30 4504 O 436.488 -5.19267 -2.33132 0
M  V30 4505 N 437.69 -4.2356 -3.9696 0
M  V30 4506 H 440.455 -2.99556 -0.0928686 0
M  V30 4507 H 438.016 -1.61618 0.0954783 0
M  V30 4508 H 440.008 -3.08226 -2.62257 0
M  V30 4509 H 438.578 -2.05372 -2.35672 0
M  V30 4510 H 437.798 -3.88384 -0.674655 0
M  V30 4511 H 439.086 -4.91173 -1.32764 0
M  V30 4512 H 438.484 -3.70799 -4.27229 0
M  V30 4513 H 437.041 -4.55518 -4.66205 0
M  V30 4514 N 440.474 -0.00167713 -1.576 0
M  V30 4515 C 441.722 0.681471 -1.90264 0
M  V30 4516 C 442.043 1.7422 -0.875924 0
M  V30 4517 O 441.313 1.95709 0.0864412 0
M  V30 4518 H 439.893 0.254696 -0.702239 0
M  V30 4519 H 442.555 -0.0429996 -1.94853 0
M  V30 4520 H 441.651 1.15166 -2.90075 0
M  V30 4521 N 441.952 1.55251 0.271103 0
M  V30 4522 C 442.915 1.87484 1.31842 0
M  V30 4523 C 443.915 0.749545 1.42262 0
M  V30 4524 O 445.105 1.01771 1.4138 0
M  V30 4525 C 442.237 2.0818 2.69951 0
M  V30 4526 H 443.43 2.81108 1.0449 0
M  V30 4527 H 440.983 1.47771 0.509258 0
M  V30 4528 H 441.718 1.16944 3.02481 0
M  V30 4529 H 441.503 2.90114 2.63774 0
M  V30 4530 H 442.993 2.34385 3.4562 0
M  V30 4531 N 443.43 -0.535701 1.48216 0
M  V30 4532 C 444.841 -1.11769 1.49548 0
M  V30 4533 C 445.192 -1.94442 0.26207 0
M  V30 4534 O 444.317 -2.06987 -0.631287 0
M  V30 4535 C 444.912 -2.03367 2.70975 0
M  V30 4536 C 443.471 -2.56795 2.75196 0
M  V30 4537 C 442.618 -1.33631 2.42977 0
M  V30 4538 H 445.569 -0.321232 1.55415 0
M  V30 4539 H 445.59 -2.87569 2.49167 0
M  V30 4540 H 445.102 -1.43169 3.60727 0
M  V30 4541 H 443.203 -3.20731 1.89638 0
M  V30 4542 H 443.316 -2.9632 3.76472 0
M  V30 4543 H 441.68 -1.6502 1.94012 0
M  V30 4544 H 442.463 -0.75194 3.34964 0
M  V30 4545 N 444.908 -1.36708 -0.784132 0
M  V30 4546 C 446.185 -1.21776 -1.53069 0
M  V30 4547 C 446.565 0.193876 -2.10208 0
M  V30 4548 O 445.913 1.20012 -1.94446 0
M  V30 4549 C 446.123 -2.30395 -2.62143 0
M  V30 4550 C 447.471 -2.67325 -3.29882 0
M  V30 4551 O 448.495 -2.29478 -2.7243 0
M  V30 4552 O 447.354 -3.32485 -4.33724 0
M  V30 4553 H 444.448 -0.474459 -0.677361 0
M  V30 4554 H 446.994 -1.48454 -0.82216 0
M  V30 4555 H 445.766 -3.2498 -2.17953 0
M  V30 4556 H 445.389 -2.05112 -3.40609 0
M  V30 4557 N 446.386 1.0089 -1.21074 0
M  V30 4558 C 447.634 1.74262 -1.02358 0
M  V30 4559 C 447.955 1.89869 0.444393 0
M  V30 4560 O 447.225 1.44677 1.32081 0
M  V30 4561 H 445.805 0.645615 -0.375754 0
M  V30 4562 H 448.467 1.21596 -1.52317 0
M  V30 4563 H 447.563 2.74328 -1.4883 0
M  V30 4564 N 447.864 1.01787 1.20321 0
M  V30 4565 C 449.092 0.727194 1.937 0
M  V30 4566 C 449.507 -0.712305 1.74848 0
M  V30 4567 O 448.864 -1.48327 1.06327 0
M  V30 4568 C 448.915 1.05497 3.45764 0
M  V30 4569 O 448.636 2.43794 3.64 0
M  V30 4570 C 450.137 0.785534 4.36285 0
M  V30 4571 H 447.357 0.266939 0.615617 0
M  V30 4572 H 449.901 1.35939 1.52777 0
M  V30 4573 H 448.056 0.468158 3.84561 0
M  V30 4574 H 448.47 2.55656 4.57974 0
M  V30 4575 H 449.944 1.06495 5.4163 0
M  V30 4576 H 450.421 -0.280273 4.38305 0
M  V30 4577 H 451.027 1.35456 4.03152 0
M  V30 4578 N 449.342 -1.36122 0.79427 0
M  V30 4579 C 450.591 -1.98361 0.365464 0
M  V30 4580 C 450.904 -1.6374 -1.06997 0
M  V30 4581 O 452.11 -2.19251 -1.60129 0
M  V30 4582 C 450.566 -3.54821 0.602496 0
M  V30 4583 C 450.174 -3.98362 2.04967 0
M  V30 4584 C 451.918 -4.2383 0.238437 0
M  V30 4585 C 449.825 -5.47619 2.2331 0
M  V30 4586 H 448.755 -0.742193 0.13291 0
M  V30 4587 H 451.406 -1.55354 0.976589 0
M  V30 4588 H 449.788 -3.95922 -0.078409 0
M  V30 4589 H 450.962 -3.68447 2.76737 0
M  V30 4590 H 449.277 -3.42206 2.37243 0
M  V30 4591 H 451.874 -5.33529 0.353705 0
M  V30 4592 H 452.217 -4.08264 -0.814006 0
M  V30 4593 H 452.75 -3.88108 0.872769 0
M  V30 4594 H 449.489 -5.68138 3.26955 0
M  V30 4595 H 449.009 -5.79145 1.5605 0
M  V30 4596 H 450.688 -6.13911 2.0426 0
M  V30 4597 N 450.82 -0.546701 -1.47814 0
M  V30 4598 C 452.067 -0.0187407 -2.02491 0
M  V30 4599 C 452.395 1.32685 -1.42215 0
M  V30 4600 O 451.65 1.87413 -0.563454 0
M  V30 4601 C 451.949 0.134869 -3.57145 0
M  V30 4602 C 451.615 -1.13849 -4.3629 0
M  V30 4603 C 450.277 -1.48743 -4.57634 0
M  V30 4604 C 452.629 -1.98277 -4.82012 0
M  V30 4605 C 449.957 -2.67932 -5.21948 0
M  V30 4606 C 452.309 -3.16659 -5.4764 0
M  V30 4607 C 450.973 -3.51879 -5.67219 0
M  V30 4608 H 450.243 -0.0068577 -0.740968 0
M  V30 4609 H 452.89 -0.716097 -1.77607 0
M  V30 4610 H 451.195 0.915118 -3.80963 0
M  V30 4611 H 452.892 0.558556 -3.97091 0
M  V30 4612 H 449.482 -0.856767 -4.19949 0
M  V30 4613 H 453.666 -1.72628 -4.6531 0
M  V30 4614 H 448.922 -2.95401 -5.35302 0
M  V30 4615 H 453.096 -3.82374 -5.82033 0
M  V30 4616 H 450.723 -4.44331 -6.16825 0
M  V30 4617 N 452.299 1.55045 -0.282633 0
M  V30 4618 C 453.262 2.21515 0.588539 0
M  V30 4619 C 454.262 1.19535 1.07554 0
M  V30 4620 O 455.452 1.44391 0.974514 0
M  V30 4621 C 452.584 2.88704 1.8128 0
M  V30 4622 H 453.777 2.99899 0.00806397 0
M  V30 4623 H 451.33 1.56265 -0.0333067 0
M  V30 4624 H 452.065 2.14352 2.43359 0
M  V30 4625 H 451.85 3.63443 1.47144 0
M  V30 4626 H 453.34 3.39465 2.43214 0
M  V30 4627 N 453.777 0.010035 1.57597 0
M  V30 4628 C 454.707 -0.976857 2.12084 0
M  V30 4629 C 455.688 -1.35191 1.03235 0
M  V30 4630 O 456.873 -1.43389 1.3097 0
M  V30 4631 C 454.003 -2.26548 2.63236 0
M  V30 4632 C 452.957 -2.03175 3.76701 0
M  V30 4633 C 452.283 -3.38138 4.14206 0
M  V30 4634 C 453.583 -1.38625 5.03568 0
M  V30 4635 H 455.277 -0.523145 2.94794 0
M  V30 4636 H 452.823 -0.250195 1.4181 0
M  V30 4637 H 454.776 -2.95952 2.99984 0
M  V30 4638 H 453.5 -2.74051 1.77661 0
M  V30 4639 H 452.159 -1.36195 3.40362 0
M  V30 4640 H 451.807 -3.83363 3.25641 0
M  V30 4641 H 451.507 -3.23312 4.90656 0
M  V30 4642 H 453.031 -4.08841 4.53521 0
M  V30 4643 H 454.445 -1.98 5.38023 0
M  V30 4644 H 452.842 -1.34256 5.84889 0
M  V30 4645 H 453.912 -0.356722 4.83586 0
M  V30 4646 N 455.255 -1.55392 -0.262866 0
M  V30 4647 C 456.485 -1.80251 -1.00961 0
M  V30 4648 C 456.893 -0.58117 -1.80053 0
M  V30 4649 O 456.236 0.459427 -1.77862 0
M  V30 4650 C 456.298 -2.98207 -2.00781 0
M  V30 4651 C 455.962 -4.34856 -1.40533 0
M  V30 4652 C 456.959 -5.13459 -0.815853 0
M  V30 4653 C 454.644 -4.8153 -1.42948 0
M  V30 4654 C 456.638 -6.36875 -0.258562 0
M  V30 4655 C 454.325 -6.04899 -0.868334 0
M  V30 4656 C 455.323 -6.8241 -0.283884 0
M  V30 4657 O 455.011 -8.03451 0.268644 0
M  V30 4658 H 454.743 -0.604049 -0.303482 0
M  V30 4659 H 457.297 -2.03257 -0.295926 0
M  V30 4660 H 455.527 -2.70917 -2.75936 0
M  V30 4661 H 457.216 -3.10299 -2.61667 0
M  V30 4662 H 457.982 -4.78526 -0.789812 0
M  V30 4663 H 453.861 -4.21201 -1.87378 0
M  V30 4664 H 457.405 -6.97318 0.198257 0
M  V30 4665 H 453.302 -6.39312 -0.891649 0
M  V30 4666 H 454.07 -8.18346 0.158974 0
M  V30 4667 N 456.733 0.527833 -1.48498 0
M  V30 4668 C 458.144 1.10975 -1.50138 0
M  V30 4669 C 458.495 1.943 -0.272378 0
M  V30 4670 O 457.62 2.07319 0.620301 0
M  V30 4671 C 458.215 2.01927 -2.72049 0
M  V30 4672 C 456.774 2.55332 -2.76554 0
M  V30 4673 C 455.921 1.32341 -2.43683 0
M  V30 4674 H 458.872 0.312986 -1.55583 0
M  V30 4675 H 458.893 2.86244 -2.50689 0
M  V30 4676 H 458.405 1.41254 -3.61481 0
M  V30 4677 H 456.506 3.19721 -1.91336 0
M  V30 4678 H 456.619 2.94319 -3.78038 0
M  V30 4679 H 454.983 1.63989 -1.94884 0
M  V30 4680 H 455.766 0.734165 -3.35358 0
M  V30 4681 N 458.211 1.37122 0.776871 0
M  V30 4682 C 459.161 1.28989 1.88005 0
M  V30 4683 C 460.145 0.178765 1.59904 0
M  V30 4684 O 461.337 0.412705 1.72121 0
M  V30 4685 C 458.466 1.09402 3.25402 0
M  V30 4686 C 457.552 2.25036 3.59471 0
M  V30 4687 N 457.943 3.50407 3.64759 0
M  V30 4688 C 456.241 2.17078 3.89607 0
M  V30 4689 C 456.942 4.26628 3.95428 0
M  V30 4690 N 455.918 3.55709 4.11062 0
M  V30 4691 H 459.72 2.2394 1.90337 0
M  V30 4692 H 457.234 1.30021 0.973052 0
M  V30 4693 H 459.231 1.01661 4.04315 0
M  V30 4694 H 457.891 0.153632 3.24336 0
M  V30 4695 H 458.902 3.8438 3.47091 0
M  V30 4696 H 455.579 1.31067 3.96393 0
M  V30 4697 H 456.969 5.35107 4.06338 0
M  V30 4698 N 459.689 -1.00246 1.21608 0
M  V30 4699 C 460.621 -2.09244 0.935401 0
M  V30 4700 C 461.634 -1.62592 -0.0823594 0
M  V30 4701 O 462.823 -1.77865 0.150456 0
M  V30 4702 C 459.923 -3.36724 0.383453 0
M  V30 4703 C 459.096 -4.1245 1.45615 0
M  V30 4704 C 458.155 -5.18219 0.912991 0
M  V30 4705 O 457.181 -5.46337 1.59701 0
M  V30 4706 N 458.383 -5.7987 -0.270478 0
M  V30 4707 H 461.148 -2.33905 1.87373 0
M  V30 4708 H 458.709 -1.16748 1.12167 0
M  V30 4709 H 460.701 -4.047 0.00562157 0
M  V30 4710 H 459.271 -3.09201 -0.459758 0
M  V30 4711 H 458.491 -3.39241 2.00772 0
M  V30 4712 H 459.779 -4.59819 2.17817 0
M  V30 4713 H 459.177 -5.59381 -0.843195 0
M  V30 4714 H 457.734 -6.49126 -0.589794 0
M  V30 4715 N 461.167 -1.02423 -1.1978 0
M  V30 4716 C 462.397 -0.736387 -1.93031 0
M  V30 4717 C 462.805 0.708023 -1.75453 0
M  V30 4718 O 462.148 1.4927 -1.07071 0
M  V30 4719 C 462.21 -1.00194 -3.45255 0
M  V30 4720 C 461.874 -2.43698 -3.86601 0
M  V30 4721 C 462.871 -3.41814 -3.91738 0
M  V30 4722 C 460.556 -2.77975 -4.18372 0
M  V30 4723 C 462.55 -4.72265 -4.28071 0
M  V30 4724 C 460.237 -4.08636 -4.54378 0
M  V30 4725 C 461.235 -5.05592 -4.59201 0
M  V30 4726 O 460.923 -6.33914 -4.94376 0
M  V30 4727 H 460.655 -0.269116 -0.620123 0
M  V30 4728 H 463.209 -1.37043 -1.52998 0
M  V30 4729 H 461.439 -0.310747 -3.85449 0
M  V30 4730 H 463.128 -0.704488 -3.9974 0
M  V30 4731 H 463.894 -3.16671 -3.67348 0
M  V30 4732 H 459.773 -2.0319 -4.13805 0
M  V30 4733 H 463.317 -5.4794 -4.3175 0
M  V30 4734 H 459.214 -4.33556 -4.78226 0
M  V30 4735 H 459.982 -6.38317 -5.12341 0
M  V30 4736 N 462.645 1.35699 -0.801477 0
M  V30 4737 C 464.061 1.52065 -0.484596 0
M  V30 4738 C 464.261 1.75215 0.995084 0
M  V30 4739 O 463.317 1.79061 1.78026 0
M  V30 4740 C 464.63 2.69908 -1.32552 0
M  V30 4741 C 466.178 2.83784 -1.32044 0
M  V30 4742 C 466.653 4.04646 -2.14536 0
M  V30 4743 N 468.144 4.11814 -2.12046 0
M  V30 4744 C 468.879 5.04437 -2.72636 0
M  V30 4745 N 468.375 6.02426 -3.42133 0
M  V30 4746 N 470.168 4.97144 -2.62305 0
M  V30 4747 H 462.319 1.18928 -1.75983 0
M  V30 4748 H 464.582 0.581455 -0.748741 0
M  V30 4749 H 464.288 2.59363 -2.37537 0
M  V30 4750 H 464.162 3.64376 -0.975181 0
M  V30 4751 H 466.549 2.93783 -0.27846 0
M  V30 4752 H 466.63 1.90188 -1.71062 0
M  V30 4753 H 466.274 3.95407 -3.18772 0
M  V30 4754 H 466.204 4.97413 -1.72882 0
M  V30 4755 H 468.695 3.41664 -1.61476 0
M  V30 4756 H 469.008 6.69688 -3.85666 0
M  V30 4757 H 467.353 6.02615 -3.46237 0
M  V30 4758 H 470.544 4.19546 -2.07603 0
M  V30 4759 H 470.717 5.69138 -3.09815 0
M  V30 4760 N 464.123 0.554532 1.47522 0
M  V30 4761 C 465.073 -0.215008 2.26984 0
M  V30 4762 C 466.057 -0.88774 1.34194 0
M  V30 4763 O 467.249 -0.786489 1.58567 0
M  V30 4764 C 464.378 -1.24604 3.19889 0
M  V30 4765 C 463.464 -0.576857 4.20159 0
M  V30 4766 N 463.855 0.351541 5.04577 0
M  V30 4767 C 462.153 -0.831104 4.38188 0
M  V30 4768 C 462.854 0.739995 5.76974 0
M  V30 4769 N 461.83 0.0954407 5.43516 0
M  V30 4770 H 465.632 0.498843 2.89636 0
M  V30 4771 H 463.146 0.374279 1.58028 0
M  V30 4772 H 465.143 -1.81128 3.75498 0
M  V30 4773 H 463.803 -1.96101 2.58794 0
M  V30 4774 H 464.814 0.725556 5.12792 0
M  V30 4775 H 461.491 -1.53479 3.88266 0
M  V30 4776 H 462.881 1.50271 6.5488 0
M  V30 4777 N 465.601 -1.54893 0.290851 0
M  V30 4778 C 466.531 -2.26103 -0.583084 0
M  V30 4779 C 467.512 -1.25684 -1.14619 0
M  V30 4780 O 468.697 -1.54436 -1.17741 0
M  V30 4781 C 465.827 -2.99409 -1.75987 0
M  V30 4782 C 464.781 -4.0689 -1.32758 0
M  V30 4783 C 464.107 -4.67856 -2.58872 0
M  V30 4784 C 465.407 -5.20215 -0.46624 0
M  V30 4785 H 467.101 -2.99398 0.0108214 0
M  V30 4786 H 464.647 -1.43998 0.00664468 0
M  V30 4787 H 466.6 -3.47943 -2.37727 0
M  V30 4788 H 465.324 -2.23675 -2.37985 0
M  V30 4789 H 463.983 -3.59191 -0.733299 0
M  V30 4790 H 463.631 -3.88772 -3.19163 0
M  V30 4791 H 463.331 -5.40438 -2.30653 0
M  V30 4792 H 464.855 -5.19147 -3.21433 0
M  V30 4793 H 466.269 -5.64704 -0.989047 0
M  V30 4794 H 464.666 -5.99455 -0.27826 0
M  V30 4795 H 465.736 -4.82198 0.511173 0
M  V30 4796 N 467.08 -0.0183926 -1.57589 0
M  V30 4797 C 468.043 0.951986 -2.08494 0
M  V30 4798 C 469.043 1.26092 -0.997874 0
M  V30 4799 O 470.233 1.20304 -1.25987 0
M  V30 4800 C 467.365 2.27165 -2.54182 0
M  V30 4801 H 468.558 0.511307 -2.95509 0
M  V30 4802 H 466.111 0.229444 -1.54607 0
M  V30 4803 H 466.846 2.75884 -1.70465 0
M  V30 4804 H 466.631 2.06057 -3.33591 0
M  V30 4805 H 468.121 2.9674 -2.93828 0
M  V30 4806 N 468.558 1.5553 0.254621 0
M  V30 4807 C 469.783 1.81383 1.00573 0
M  V30 4808 C 470.208 0.594419 1.78461 0
M  V30 4809 O 469.566 -0.456403 1.75461 0
M  V30 4810 C 469.614 3.04892 1.92545 0
M  V30 4811 O 468.718 2.81266 3.01601 0
M  V30 4812 H 468.059 0.598969 0.286587 0
M  V30 4813 H 470.589 2.02703 0.277952 0
M  V30 4814 H 470.599 3.34119 2.34155 0
M  V30 4815 H 469.274 3.93287 1.3527 0
M  V30 4816 H 467.851 2.63185 2.64174 0
M  V30 4817 N 470.036 -0.519951 1.48776 0
M  V30 4818 C 471.261 -1.30447 1.6124 0
M  V30 4819 C 471.686 -1.86055 0.276591 0
M  V30 4820 O 471.044 -1.64915 -0.753183 0
M  V30 4821 C 471.092 -2.42406 2.66967 0
M  V30 4822 O 470.196 -3.45728 2.24824 0
M  V30 4823 H 469.537 -0.385924 0.540332 0
M  V30 4824 H 472.067 -0.624572 1.94834 0
M  V30 4825 H 472.077 -2.88447 2.88552 0
M  V30 4826 H 470.752 -2.01294 3.63941 0
M  V30 4827 H 469.329 -3.05737 2.13494 0
M  V30 4828 N 471.514 -1.37532 -0.769588 0
M  V30 4829 C 472.739 -1.36231 -1.56384 0
M  V30 4830 C 473.164 0.0495849 -1.88035 0
M  V30 4831 O 472.522 1.02723 -1.49391 0
M  V30 4832 C 472.57 -2.20986 -2.84952 0
M  V30 4833 O 471.674 -1.61597 -3.79421 0
M  V30 4834 H 471.015 -0.465387 -0.473615 0
M  V30 4835 H 473.545 -1.81085 -0.952342 0
M  V30 4836 H 473.555 -2.34277 -3.34034 0
M  V30 4837 H 472.23 -3.23612 -2.61243 0
M  V30 4838 H 470.807 -1.57359 -3.38072 0
M  V30 4839 N 472.992 0.995999 -1.22138 0
M  V30 4840 C 473.902 2.11985 -1.00496 0
M  V30 4841 C 474.918 1.7394 0.0457701 0
M  V30 4842 O 476.094 2.00868 -0.146273 0
M  V30 4843 C 473.159 3.41779 -0.582086 0
M  V30 4844 C 472.22 3.93943 -1.70608 0
M  V30 4845 C 471.453 5.17542 -1.30328 0
M  V30 4846 O 471.676 5.70114 -0.180743 0
M  V30 4847 O 470.61 5.63382 -2.11861 0
M  V30 4848 H 474.436 2.33123 -1.94647 0
M  V30 4849 H 472.021 1.10358 -1.00705 0
M  V30 4850 H 473.903 4.1989 -0.356467 0
M  V30 4851 H 472.578 3.22007 0.330592 0
M  V30 4852 H 471.485 3.17019 -1.98619 0
M  V30 4853 H 472.818 4.18141 -2.59651 0
M  V30 4854 N 474.47 1.03057 1.19235 0
M  V30 4855 C 475.418 0.606391 2.24557 0
M  V30 4856 C 476.412 -0.361826 1.65491 0
M  V30 4857 O 477.618 -0.23022 1.78522 0
M  V30 4858 H 473.993 0.177838 0.730669 0
M  V30 4859 H 475.964 1.50529 2.5765 0
M  V30 4860 C 474.713 -0.0252127 3.47691 0
M  V30 4861 H 474.036 0.710838 3.9343 0
M  V30 4862 H 475.476 -0.284931 4.23042 0
M  V30 4863 C 473.935 -1.27229 3.11953 0
M  V30 4864 O 474.465 -2.36416 3.24762 0
M  V30 4865 N 472.671 -1.16169 2.6637 0
M  V30 4866 H 472.218 -0.273189 2.56147 0
M  V30 4867 H 472.176 -1.99703 2.42829 0
M  V30 4868 N 475.948 -1.35272 0.808662 0
M  V30 4869 C 476.88 -2.28507 0.178149 0
M  V30 4870 C 477.893 -1.50377 -0.623754 0
M  V30 4871 O 479.082 -1.72583 -0.455774 0
M  V30 4872 C 476.182 -3.30038 -0.769959 0
M  V30 4873 C 475.355 -4.37398 -0.0139749 0
M  V30 4874 C 474.414 -5.18775 -0.880875 0
M  V30 4875 O 473.44 -5.68236 -0.331059 0
M  V30 4876 N 474.642 -5.37087 -2.20267 0
M  V30 4877 H 477.407 -2.83255 0.979106 0
M  V30 4878 H 474.968 -1.47643 0.664308 0
M  V30 4879 H 476.96 -3.81371 -1.35418 0
M  V30 4880 H 475.53 -2.75789 -1.47171 0
M  V30 4881 H 474.75 -3.86971 0.751468 0
M  V30 4882 H 476.038 -5.06268 0.506965 0
M  V30 4883 H 475.436 -4.9855 -2.67328 0
M  V30 4884 H 473.993 -5.91593 -2.73608 0
M  V30 4885 N 477.426 -0.562348 -1.47226 0
M  V30 4886 C 478.356 0.170627 -2.32876 0
M  V30 4887 C 479.337 0.903748 -1.44106 0
M  V30 4888 O 480.522 0.883206 -1.72954 0
M  V30 4889 C 477.652 1.19786 -3.25989 0
M  V30 4890 C 476.606 0.580875 -4.2404 0
M  V30 4891 C 475.932 1.71311 -5.06514 0
M  V30 4892 C 477.232 -0.468714 -5.20193 0
M  V30 4893 H 478.926 -0.544441 -2.94408 0
M  V30 4894 H 476.472 -0.263271 -1.41573 0
M  V30 4895 H 478.425 1.71884 -3.84752 0
M  V30 4896 H 477.149 1.94294 -2.62521 0
M  V30 4897 H 475.808 0.0811538 -3.6651 0
M  V30 4898 H 475.456 2.44736 -4.39447 0
M  V30 4899 H 475.156 1.30604 -5.72902 0
M  V30 4900 H 476.68 2.23725 -5.68137 0
M  V30 4901 H 478.094 -0.0336028 -5.7329 0
M  V30 4902 H 476.491 -0.794957 -5.94811 0
M  V30 4903 H 477.561 -1.36269 -4.65359 0
M  V30 4904 N 478.904 1.54736 -0.299062 0
M  V30 4905 C 479.834 2.26409 0.571085 0
M  V30 4906 C 480.815 1.2629 1.13951 0
M  V30 4907 O 482 1.55059 1.16921 0
M  V30 4908 C 479.13 3.00338 1.74396 0
M  V30 4909 C 478.084 4.07588 1.30599 0
M  V30 4910 C 477.41 4.69222 2.56387 0
M  V30 4911 C 478.71 5.20455 0.438645 0
M  V30 4912 H 480.404 2.99388 -0.0266991 0
M  V30 4913 H 477.95 1.43993 -0.0142812 0
M  V30 4914 H 479.903 3.49198 2.35878 0
M  V30 4915 H 478.627 2.24934 2.36796 0
M  V30 4916 H 477.286 3.59575 0.71424 0
M  V30 4917 H 476.934 3.9046 3.17097 0
M  V30 4918 H 476.634 5.41653 2.27784 0
M  V30 4919 H 478.158 5.20844 3.18675 0
M  V30 4920 H 479.572 5.65221 0.959085 0
M  V30 4921 H 477.969 5.99594 0.246466 0
M  V30 4922 H 479.039 4.8192 -0.536738 0
M  V30 4923 N 480.382 0.0267497 1.57577 0
M  V30 4924 C 481.314 -0.984594 2.06974 0
M  V30 4925 C 482.327 -1.29032 0.992705 0
M  V30 4926 O 483.516 -1.25539 1.26895 0
M  V30 4927 C 480.616 -2.31262 2.47732 0
M  V30 4928 C 479.789 -2.1924 3.78487 0
M  V30 4929 C 478.848 -3.34956 4.05821 0
M  V30 4930 O 477.874 -3.11948 4.76106 0
M  V30 4931 N 479.076 -4.58672 3.55809 0
M  V30 4932 H 481.841 -0.563143 2.94362 0
M  V30 4933 H 479.402 -0.160061 1.61107 0
M  V30 4934 H 481.394 -3.07496 2.63112 0
M  V30 4935 H 479.964 -2.65056 1.65723 0
M  V30 4936 H 479.184 -1.27747 3.72927 0
M  V30 4937 H 480.472 -2.08409 4.64158 0
M  V30 4938 H 479.87 -4.8026 2.98942 0
M  V30 4939 H 478.427 -5.32083 3.76472 0
M  V30 4940 N 481.861 -1.55662 -0.24637 0
M  V30 4941 C 482.809 -1.91186 -1.3248 0
M  V30 4942 C 483.803 -0.790996 -1.49799 0
M  V30 4943 O 485.009 -0.975617 -1.51267 0
M  V30 4944 H 481.384 -0.607207 -0.443626 0
M  V30 4945 H 483.355 -2.81221 -0.997853 0
M  V30 4946 C 482.104 -2.22349 -2.67313 0
M  V30 4947 H 481.427 -3.08097 -2.54786 0
M  V30 4948 H 482.867 -2.51107 -3.41645 0
M  V30 4949 C 481.326 -1.04001 -3.20446 0
M  V30 4950 O 481.856 -0.28828 -4.00664 0
M  V30 4951 N 480.062 -0.830494 -2.7848 0
M  V30 4952 H 479.609 -1.4435 -2.13356 0
M  V30 4953 H 479.567 -0.0403258 -3.14374 0
M  V30 4954 N 483.339 0.512053 -1.4905 0
M  V30 4955 C 484.569 1.28928 -1.61434 0
M  V30 4956 C 484.977 1.87107 -0.280647 0
M  V30 4957 O 484.32 1.68024 0.742537 0
M  V30 4958 C 484.382 2.466 -2.61588 0
M  V30 4959 C 484.046 2.09375 -4.06216 0
M  V30 4960 C 485.043 1.63994 -4.93358 0
M  V30 4961 C 482.728 2.19348 -4.51876 0
M  V30 4962 C 484.722 1.29076 -6.24194 0
M  V30 4963 C 482.409 1.84041 -5.82728 0
M  V30 4964 C 483.407 1.38978 -6.68711 0
M  V30 4965 O 483.095 1.04144 -7.97126 0
M  V30 4966 H 482.827 0.397668 -0.546659 0
M  V30 4967 H 485.381 0.622507 -1.9574 0
M  V30 4968 H 483.611 3.16318 -2.22441 0
M  V30 4969 H 485.3 3.08642 -2.63619 0
M  V30 4970 H 486.066 1.55744 -4.59313 0
M  V30 4971 H 481.945 2.53376 -3.85125 0
M  V30 4972 H 485.489 0.938303 -6.91261 0
M  V30 4973 H 481.386 1.91938 -6.16304 0
M  V30 4974 H 482.154 1.17387 -8.10039 0
M  V30 4975 N 484.817 1.37938 0.762283 0
M  V30 4976 C 485.749 1.30349 1.88525 0
M  V30 4977 C 486.762 0.217402 1.61342 0
M  V30 4978 O 487.951 0.474291 1.72084 0
M  V30 4979 C 485.051 0.994844 3.23969 0
M  V30 4980 C 484.224 2.18829 3.78725 0
M  V30 4981 C 483.283 1.84844 4.92665 0
M  V30 4982 O 482.309 2.57244 5.07754 0
M  V30 4983 N 483.511 0.798201 5.74986 0
M  V30 4984 H 486.276 2.27114 1.95549 0
M  V30 4985 H 483.837 1.31686 0.941825 0
M  V30 4986 H 485.829 0.748168 3.97724 0
M  V30 4987 H 484.399 0.115446 3.12387 0
M  V30 4988 H 483.619 2.59615 2.96637 0
M  V30 4989 H 484.907 2.98497 4.1204 0
M  V30 4990 H 484.305 0.197611 5.65355 0
M  V30 4991 H 482.862 0.611396 6.48926 0
M  V30 4992 N 486.295 -0.989507 1.22664 0
M  V30 4993 C 487.525 -1.7624 1.0781 0
M  V30 4994 C 487.933 -1.85466 -0.374036 0
M  V30 4995 O 487.276 -1.32645 -1.27087 0
M  V30 4996 C 487.338 -3.21007 1.61849 0
M  V30 4997 C 487.002 -3.35316 3.10503 0
M  V30 4998 C 487.999 -3.22362 4.07896 0
M  V30 4999 C 485.684 -3.60258 3.50028 0
M  V30 5000 C 487.678 -3.34139 5.42798 0
M  V30 5001 C 485.365 -3.71676 4.85078 0
M  V30 5002 C 486.363 -3.58625 5.81272 0
M  V30 5003 O 486.051 -3.69655 7.1387 0
M  V30 5004 H 485.783 -0.560209 0.378341 0
M  V30 5005 H 488.337 -1.25252 1.62792 0
M  V30 5006 H 486.567 -3.73202 1.01279 0
M  V30 5007 H 488.256 -3.80024 1.42606 0
M  V30 5008 H 489.022 -3.03 3.78703 0
M  V30 5009 H 484.901 -3.69492 2.75675 0
M  V30 5010 H 488.445 -3.23869 6.17863 0
M  V30 5011 H 484.342 -3.90545 5.1395 0
M  V30 5012 H 485.11 -3.86507 7.21495 0
M  V30 5013 N 487.773 -1.03688 -1.18687 0
M  V30 5014 C 488.683 -0.634908 -2.25845 0
M  V30 5015 C 489.699 0.337065 -1.70704 0
M  V30 5016 O 490.875 0.192943 -2.00474 0
M  V30 5017 C 487.94 -0.000180054 -3.467 0
M  V30 5018 C 487.001 -1.02067 -4.1699 0
M  V30 5019 C 486.234 -0.41614 -5.32075 0
M  V30 5020 O 486.457 0.778712 -5.65059 0
M  V30 5021 O 485.391 -1.14296 -5.90948 0
M  V30 5022 H 489.217 -1.52757 -2.62486 0
M  V30 5023 H 486.802 -0.807533 -1.25695 0
M  V30 5024 H 488.684 0.353342 -4.19916 0
M  V30 5025 H 487.359 0.866367 -3.11891 0
M  V30 5026 H 486.266 -1.42592 -3.45859 0
M  V30 5027 H 487.599 -1.85786 -4.5579 0
M  V30 5028 N 489.251 1.34841 -0.815825 0
M  V30 5029 C 490.5 1.97755 -0.396976 0
M  V30 5030 C 490.813 1.65422 1.04379 0
M  V30 5031 O 492.019 2.21771 1.5662 0
M  V30 5032 C 490.475 3.53818 -0.658869 0
M  V30 5033 C 490.083 3.95051 -2.11278 0
M  V30 5034 C 491.827 4.23397 -0.305834 0
M  V30 5035 C 489.734 5.43997 -2.31994 0
M  V30 5036 H 488.664 0.739985 -0.1447 0
M  V30 5037 H 491.315 1.53781 -1.00118 0
M  V30 5038 H 489.697 3.95997 0.0154112 0
M  V30 5039 H 490.871 3.63998 -2.82564 0
M  V30 5040 H 489.186 3.38388 -2.42657 0
M  V30 5041 H 491.783 5.32899 -0.43854 0
M  V30 5042 H 492.126 4.09508 0.748952 0
M  V30 5043 H 492.659 3.8667 -0.934403 0
M  V30 5044 H 489.398 5.62865 -3.35952 0
M  V30 5045 H 488.918 5.76589 -1.65244 0
M  V30 5046 H 490.597 6.10584 -2.14001 0
M  V30 5047 N 490.729 0.570148 1.46925 0
M  V30 5048 C 491.978 0.0487352 2.01641 0
M  V30 5049 C 492.291 -1.31433 1.44861 0
M  V30 5050 O 493.497 -1.92638 1.91318 0
M  V30 5051 C 491.953 0.0365817 3.59881 0
M  V30 5052 C 491.561 1.39719 4.25655 0
M  V30 5053 C 493.305 -0.431545 4.22301 0
M  V30 5054 C 491.212 1.34345 5.75939 0
M  V30 5055 H 490.142 0.0144492 0.753862 0
M  V30 5056 H 492.793 0.719928 1.68788 0
M  V30 5057 H 491.175 -0.700522 3.89755 0
M  V30 5058 H 492.349 2.15303 4.07408 0
M  V30 5059 H 490.664 1.80431 3.75278 0
M  V30 5060 H 493.261 -0.490354 5.32447 0
M  V30 5061 H 493.604 -1.44638 3.90366 0
M  V30 5062 H 494.137 0.251102 3.97007 0
M  V30 5063 H 490.876 2.33469 6.12513 0
M  V30 5064 H 490.396 0.629615 5.96486 0
M  V30 5065 H 492.075 1.051 6.38407 0
M  V30 5066 N 492.207 -1.54576 0.307264 0
M  V30 5067 C 493.623 -1.59534 -0.0459251 0
M  V30 5068 C 493.823 -1.32414 -1.51884 0
M  V30 5069 O 492.879 -1.1006 -2.27251 0
M  V30 5070 C 494.192 -2.98566 0.357649 0
M  V30 5071 C 495.74 -3.11491 0.306937 0
M  V30 5072 C 496.215 -4.52842 0.685427 0
M  V30 5073 N 497.706 -4.58782 0.638203 0
M  V30 5074 C 498.441 -5.66238 0.903458 0
M  V30 5075 N 497.937 -6.81703 1.23501 0
M  V30 5076 N 499.73 -5.55937 0.830102 0
M  V30 5077 H 491.881 -1.70464 1.26712 0
M  V30 5078 H 494.144 -0.79647 0.514139 0
M  V30 5079 H 493.85 -3.23356 1.38325 0
M  V30 5080 H 493.724 -3.76117 -0.285565 0
M  V30 5081 H 496.111 -2.86446 -0.709424 0
M  V30 5082 H 496.192 -2.36081 0.984861 0
M  V30 5083 H 495.836 -4.78618 1.69963 0
M  V30 5084 H 495.766 -5.26598 -0.0146346 0
M  V30 5085 H 498.257 -3.75849 0.393138 0
M  V30 5086 H 498.57 -7.59582 1.42322 0
M  V30 5087 H 496.915 -6.8324 1.27311 0
M  V30 5088 H 500.106 -4.64608 0.570693 0
M  V30 5089 H 500.279 -6.39597 1.04019 0
M  V30 5090 N 493.685 -0.035106 -1.57561 0
M  V30 5091 C 494.933 0.64096 -1.91667 0
M  V30 5092 C 495.254 1.72323 -0.912681 0
M  V30 5093 O 494.524 1.95849 0.0449089 0
M  V30 5094 H 493.104 0.239743 -0.707483 0
M  V30 5095 H 495.766 -0.084321 -1.94718 0
M  V30 5096 H 494.862 1.08987 -2.92452 0
M  V30 5097 N 495.163 1.55791 0.238111 0
M  V30 5098 C 496.391 1.82098 0.982233 0
M  V30 5099 C 496.806 0.612025 1.78605 0
M  V30 5100 O 496.163 -0.419381 1.77616 0
M  V30 5101 C 496.214 3.0673 1.91309 0
M  V30 5102 O 495.935 4.2296 1.14179 0
M  V30 5103 C 497.436 3.45903 2.77248 0
M  V30 5104 H 494.656 0.605748 0.288635 0
M  V30 5105 H 497.2 2.02862 0.258341 0
M  V30 5106 H 495.355 2.87991 2.59114 0
M  V30 5107 H 495.769 4.93653 1.7722 0
M  V30 5108 H 497.243 4.36189 3.38295 0
M  V30 5109 H 497.72 2.66891 3.48806 0
M  V30 5110 H 498.326 3.67024 2.14881 0
M  V30 5111 N 496.642 -0.504142 1.49319 0
M  V30 5112 C 497.575 -1.62361 1.60356 0
M  V30 5113 C 498.553 -1.56169 0.45277 0
M  V30 5114 O 499.737 -1.76271 0.667892 0
M  V30 5115 C 496.864 -3.00864 1.55559 0
M  V30 5116 C 495.91 -3.25328 2.75797 0
M  V30 5117 S 496.743 -3.08791 4.37503 0
M  V30 5118 C 497.899 -4.49695 4.35345 0
M  V30 5119 H 498.132 -1.52753 2.55056 0
M  V30 5120 H 495.665 -0.689065 1.38171 0
M  V30 5121 H 497.623 -3.8073 1.53477 0
M  V30 5122 H 496.284 -3.0789 0.621515 0
M  V30 5123 H 495.477 -4.2643 2.68651 0
M  V30 5124 H 495.079 -2.53179 2.75275 0
M  V30 5125 H 497.371 -5.41721 4.06871 0
M  V30 5126 H 498.314 -4.61891 5.36714 0
M  V30 5127 H 498.722 -4.30227 3.65465 0
M  V30 5128 N 498.12 -1.38341 -0.754957 0
M  V30 5129 C 499.369 -1.33791 -1.5094 0
M  V30 5130 C 499.682 0.0699267 -1.95475 0
M  V30 5131 O 500.888 0.237956 -2.70455 0
M  V30 5132 C 499.344 -2.34934 -2.72643 0
M  V30 5133 C 498.952 -3.81332 -2.35138 0
M  V30 5134 C 500.696 -2.39425 -3.50536 0
M  V30 5135 C 498.603 -4.74164 -3.53444 0
M  V30 5136 H 497.533 -0.497314 -0.566741 0
M  V30 5137 H 500.184 -1.63888 -0.825403 0
M  V30 5138 H 498.566 -1.97878 -3.43017 0
M  V30 5139 H 499.74 -4.27319 -1.7244 0
M  V30 5140 H 498.055 -3.79946 -1.70382 0
M  V30 5141 H 500.652 -3.0598 -4.38498 0
M  V30 5142 H 500.995 -1.41278 -3.91594 0
M  V30 5143 H 501.528 -2.75274 -2.87174 0
M  V30 5144 H 498.267 -5.73501 -3.17453 0
M  V30 5145 H 497.787 -4.3287 -4.15191 0
M  V30 5146 H 499.466 -4.92111 -4.20043 0
M  V30 5147 N 499.598 0.982988 -1.23187 0
M  V30 5148 C 500.846 1.72052 -1.06031 0
M  V30 5149 C 501.167 1.90769 0.404019 0
M  V30 5150 O 500.437 1.47446 1.28982 0
M  V30 5151 H 499.017 0.637499 -0.389363 0
M  V30 5152 H 501.679 1.18338 -1.54862 0
M  V30 5153 H 500.775 2.7111 -1.54615 0
M  V30 5154 N 501.076 1.04316 1.18135 0
M  V30 5155 C 502.006 0.657299 2.24058 0
M  V30 5156 C 502.987 -0.340678 1.66654 0
M  V30 5157 O 504.172 -0.220223 1.92947 0
M  V30 5158 C 501.302 0.0220715 3.47293 0
M  V30 5159 C 500.256 0.943857 4.17463 0
M  V30 5160 C 499.582 0.172973 5.3442 0
M  V30 5161 C 500.882 2.26409 4.70677 0
M  V30 5162 H 502.576 1.5428 2.56589 0
M  V30 5163 H 500.122 0.743263 1.23335 0
M  V30 5164 H 502.075 -0.259607 4.206 0
M  V30 5165 H 500.799 -0.898323 3.14003 0
M  V30 5166 H 499.458 1.20996 3.46057 0
M  V30 5167 H 499.106 -0.749907 4.97379 0
M  V30 5168 H 498.806 0.787098 5.82304 0
M  V30 5169 H 500.33 -0.101628 6.10515 0
M  V30 5170 H 501.744 2.04294 5.35665 0
M  V30 5171 H 500.141 2.8314 5.29105 0
M  V30 5172 H 501.211 2.90883 3.87962 0
M  V30 5173 N 502.554 -1.34406 0.822964 0
M  V30 5174 C 503.464 -2.33298 0.246838 0
M  V30 5175 C 504.48 -1.62625 -0.618797 0
M  V30 5176 O 505.656 -1.94391 -0.526685 0
M  V30 5177 C 502.721 -3.41785 -0.581731 0
M  V30 5178 C 501.782 -4.28206 0.306309 0
M  V30 5179 C 501.015 -5.31512 -0.48281 0
M  V30 5180 O 501.238 -5.43973 -1.71607 0
M  V30 5181 O 500.172 -6.01749 0.134884 0
M  V30 5182 H 503.998 -2.84401 1.06534 0
M  V30 5183 H 501.583 -1.37466 0.585108 0
M  V30 5184 H 503.465 -4.08028 -1.05313 0
M  V30 5185 H 502.14 -2.92925 -1.37756 0
M  V30 5186 H 501.047 -3.64885 0.825199 0
M  V30 5187 H 502.38 -4.80507 1.06649 0
M  V30 5188 N 504.032 -0.577932 -1.46621 0
M  V30 5189 C 505.28 -0.061566 -2.02006 0
M  V30 5190 C 505.601 1.30117 -1.4524 0
M  V30 5191 O 504.871 1.85313 -0.63529 0
M  V30 5192 H 503.451 -0.0197692 -0.746738 0
M  V30 5193 H 506.113 -0.752631 -1.79782 0
M  V30 5194 H 505.209 0.0110238 -3.12098 0
M  V30 5195 N 505.51 1.54411 -0.315457 0
M  V30 5196 C 506.457 2.24048 0.554166 0
M  V30 5197 C 507.427 1.2283 1.11812 0
M  V30 5198 O 508.612 1.51491 1.15997 0
M  V30 5199 C 505.752 2.99574 1.71316 0
M  V30 5200 C 504.865 4.15594 1.17922 0
M  V30 5201 C 504 4.78669 2.30324 0
M  V30 5202 C 503.039 5.86807 1.74137 0
M  V30 5203 N 502.176 6.43777 2.8017 0
M  V30 5204 H 507.016 2.97964 -0.0462602 0
M  V30 5205 H 504.553 1.47059 -0.0346009 0
M  V30 5206 H 506.511 3.41604 2.39505 0
M  V30 5207 H 505.141 2.28008 2.285 0
M  V30 5208 H 504.193 3.78404 0.389136 0
M  V30 5209 H 505.505 4.93459 0.728012 0
M  V30 5210 H 504.659 5.23626 3.06433 0
M  V30 5211 H 503.398 4.00168 2.78778 0
M  V30 5212 H 502.403 5.41261 0.965236 0
M  V30 5213 H 503.628 6.67201 1.2657 0
M  V30 5214 H 501.574 5.68153 3.2793 0
M  V30 5215 H 501.491 7.17031 2.39588 0
M  V30 5216 H 502.759 6.9339 3.56132 0
M  V30 5217 N 506.988 0.0434614 1.5754 0
M  V30 5218 C 508.404 -0.313039 1.565 0
M  V30 5219 C 508.604 -1.71954 1.05043 0
M  V30 5220 O 507.66 -2.425 0.703564 0
M  V30 5221 C 508.973 -0.148544 3.00333 0
M  V30 5222 C 510.521 -0.220231 3.12224 0
M  V30 5223 C 510.996 -0.0843565 4.57922 0
M  V30 5224 N 512.487 -0.140881 4.62986 0
M  V30 5225 C 513.222 -0.0597443 5.73369 0
M  V30 5226 N 512.718 0.0733004 6.92761 0
M  V30 5227 N 514.511 -0.11477 5.61983 0
M  V30 5228 H 506.662 0.96303 1.89313 0
M  V30 5229 H 508.925 0.373164 0.871466 0
M  V30 5230 H 508.631 0.820894 3.41986 0
M  V30 5231 H 508.505 -0.912798 3.65989 0
M  V30 5232 H 510.892 -1.18014 2.70475 0
M  V30 5233 H 510.973 0.574646 2.49262 0
M  V30 5234 H 510.617 0.872192 5.00355 0
M  V30 5235 H 510.547 -0.898281 5.18882 0
M  V30 5236 H 513.038 -0.243273 3.77116 0
M  V30 5237 H 513.351 0.128128 7.72694 0
M  V30 5238 H 511.696 0.10828 6.94916 0
M  V30 5239 H 514.887 -0.217212 4.67596 0
M  V30 5240 H 515.06 -0.0480779 6.47982 0
M  V30 5241 N 508.466 -1.55915 -0.229846 0
M  V30 5242 C 509.713 -1.78542 -0.955452 0
M  V30 5243 C 510.041 -0.610785 -1.84661 0
M  V30 5244 O 509.296 0.405213 -1.91459 0
M  V30 5245 C 509.595 -3.06845 -1.8325 0
M  V30 5246 C 509.261 -4.37395 -1.09528 0
M  V30 5247 C 507.923 -4.72868 -0.891598 0
M  V30 5248 C 510.275 -5.18029 -0.574046 0
M  V30 5249 C 507.603 -5.86496 -0.154655 0
M  V30 5250 C 509.955 -6.32423 0.149513 0
M  V30 5251 C 508.619 -6.66504 0.364519 0
M  V30 5252 H 507.889 -0.653333 -0.349625 0
M  V30 5253 H 510.536 -1.90183 -0.224235 0
M  V30 5254 H 508.841 -2.90291 -2.63132 0
M  V30 5255 H 510.538 -3.21553 -2.39592 0
M  V30 5256 H 507.128 -4.09538 -1.26399 0
M  V30 5257 H 511.312 -4.91066 -0.718899 0
M  V30 5258 H 506.568 -6.11396 0.0222356 0
M  V30 5259 H 510.742 -6.94137 0.560947 0
M  V30 5260 H 508.369 -7.54397 0.937495 0
M  V30 5261 N 509.944 0.496216 -1.49584 0
M  V30 5262 C 511.172 1.27394 -1.63029 0
M  V30 5263 C 511.587 1.86344 -0.303569 0
M  V30 5264 O 510.944 1.68057 0.711547 0
M  V30 5265 C 510.995 2.40077 -2.70269 0
M  V30 5266 O 510.716 1.83549 -3.97796 0
M  V30 5267 C 512.217 3.31372 -2.94462 0
M  V30 5268 H 509.437 0.386211 -0.54871 0
M  V30 5269 H 511.981 0.595163 -1.95648 0
M  V30 5270 H 510.136 3.03775 -2.40415 0
M  V30 5271 H 510.55 2.57561 -4.56905 0
M  V30 5272 H 512.024 4.06707 -3.73221 0
M  V30 5273 H 512.501 3.88654 -2.0456 0
M  V30 5274 H 513.107 2.73435 -3.25751 0
M  V30 5275 N 511.423 1.38739 0.74761 0
M  V30 5276 C 512.651 1.38521 1.53686 0
M  V30 5277 C 513.066 -0.0235129 1.88785 0
M  V30 5278 O 512.423 -0.991662 1.53207 0
M  V30 5279 C 512.474 2.24641 2.83229 0
M  V30 5280 O 512.195 3.60026 2.49625 0
M  V30 5281 C 513.696 2.32669 3.77333 0
M  V30 5282 H 510.916 0.473589 0.475347 0
M  V30 5283 H 513.46 1.82395 0.924786 0
M  V30 5284 H 511.615 1.84213 3.40799 0
M  V30 5285 H 512.029 4.05435 3.3275 0
M  V30 5286 H 513.503 2.97201 4.65162 0
M  V30 5287 H 513.98 1.3421 4.18192 0
M  V30 5288 H 514.586 2.73512 3.25685 0
M  V30 5289 N 512.901 -0.976442 1.23707 0
M  V30 5290 C 513.811 -2.10359 1.03856 0
M  V30 5291 C 514.827 -1.73991 -0.0180919 0
M  V30 5292 O 516.003 -2.0061 0.178211 0
M  V30 5293 C 513.068 -3.40809 0.636387 0
M  V30 5294 C 512.129 -3.91179 1.76854 0
M  V30 5295 C 511.362 -5.15404 1.38546 0
M  V30 5296 O 511.585 -5.69754 0.27142 0
M  V30 5297 O 510.519 -5.5994 2.20797 0
M  V30 5298 H 514.345 -2.29997 1.98331 0
M  V30 5299 H 511.93 -1.08742 1.02448 0
M  V30 5300 H 513.812 -4.19269 0.423223 0
M  V30 5301 H 512.487 -3.22493 -0.279322 0
M  V30 5302 H 511.394 -3.13819 2.03638 0
M  V30 5303 H 512.727 -4.13958 2.6627 0
M  V30 5304 N 514.379 -1.04941 -1.1758 0
M  V30 5305 C 515.309 -0.669172 -2.23706 0
M  V30 5306 C 516.29 0.331835 -1.66832 0
M  V30 5307 O 517.475 0.209988 -1.93061 0
M  V30 5308 C 514.605 -0.0404889 -3.47276 0
M  V30 5309 C 513.559 -0.965983 -4.16957 0
M  V30 5310 C 512.885 -0.201312 -5.34321 0
M  V30 5311 C 514.185 -2.28902 -4.69469 0
M  V30 5312 H 515.879 -1.55639 -2.55767 0
M  V30 5313 H 513.425 -0.749793 -1.22939 0
M  V30 5314 H 515.378 0.237298 -4.20731 0
M  V30 5315 H 514.102 0.881658 -3.14475 0
M  V30 5316 H 512.761 -1.22829 -3.45411 0
M  V30 5317 H 512.409 0.723519 -4.97769 0
M  V30 5318 H 512.109 -0.817968 -5.81879 0
M  V30 5319 H 513.633 0.0692499 -6.10561 0
M  V30 5320 H 515.047 -2.07132 -5.34574 0
M  V30 5321 H 513.444 -2.85942 -5.27596 0
M  V30 5322 H 514.514 -2.92937 -3.86414 0
M  V30 5323 N 515.857 1.33968 -0.830081 0
M  V30 5324 C 517.085 2.0228 -0.434773 0
M  V30 5325 C 517.5 1.62487 0.961419 0
M  V30 5326 O 516.857 0.833849 1.62337 0
M  V30 5327 C 516.908 3.5751 -0.535625 0
M  V30 5328 O 516.629 3.95864 -1.87679 0
M  V30 5329 C 518.13 4.43091 -0.136137 0
M  V30 5330 H 515.35 0.648151 -0.173613 0
M  V30 5331 H 517.894 1.71089 -1.12022 0
M  V30 5332 H 516.049 3.87266 0.101817 0
M  V30 5333 H 516.463 4.9056 -1.85609 0
M  V30 5334 H 517.937 5.51398 -0.257772 0
M  V30 5335 H 518.414 4.29433 0.921076 0
M  V30 5336 H 519.02 4.18677 -0.747662 0
M  V30 5337 N 517.335 0.585699 1.46312 0
M  V30 5338 C 518.565 0.0780166 2.06453 0
M  V30 5339 C 518.973 -1.2336 1.43454 0
M  V30 5340 O 518.316 -1.75734 0.535086 0
M  V30 5341 C 518.378 -0.158951 3.59148 0
M  V30 5342 C 518.042 1.06752 4.44357 0
M  V30 5343 C 519.039 1.98031 4.80708 0
M  V30 5344 C 516.724 1.2902 4.85447 0
M  V30 5345 C 518.718 3.09924 5.5698 0
M  V30 5346 C 516.405 2.41218 5.61478 0
M  V30 5347 C 517.403 3.31499 5.97158 0
M  V30 5348 O 517.091 4.41747 6.71651 0
M  V30 5349 H 516.823 0.0558894 0.673686 0
M  V30 5350 H 519.377 0.806994 1.88883 0
M  V30 5351 H 517.607 -0.942575 3.75037 0
M  V30 5352 H 519.296 -0.615513 4.01206 0
M  V30 5353 H 520.062 1.82043 4.49539 0
M  V30 5354 H 515.941 0.596567 4.57124 0
M  V30 5355 H 519.485 3.80415 5.84748 0
M  V30 5356 H 515.382 2.57167 5.9206 0
M  V30 5357 H 516.15 4.40152 6.90079 0
M  V30 5358 N 518.813 -1.54241 0.323641 0
M  V30 5359 C 520.224 -1.85975 -0.164405 0
M  V30 5360 C 520.575 -1.24529 -1.51615 0
M  V30 5361 O 519.7 -0.551351 -2.09258 0
M  V30 5362 C 520.295 -3.37424 -0.305091 0
M  V30 5363 C 518.854 -3.69107 -0.737358 0
M  V30 5364 C 518.001 -2.76942 0.140884 0
M  V30 5365 H 520.952 -1.49088 0.543922 0
M  V30 5366 H 520.973 -3.63147 -1.13598 0
M  V30 5367 H 520.485 -3.82116 0.678876 0
M  V30 5368 H 518.586 -3.29947 -1.73107 0
M  V30 5369 H 518.699 -4.76035 -0.541053 0
M  V30 5370 H 517.063 -2.51795 -0.383572 0
M  V30 5371 H 517.846 -3.24461 1.12162 0
M  V30 5372 N 520.291 -0.0518155 -1.57515 0
M  V30 5373 C 521.539 0.620595 -1.92336 0
M  V30 5374 C 521.86 1.71345 -0.930907 0
M  V30 5375 O 521.13 1.95885 0.0241341 0
M  V30 5376 H 519.71 0.232226 -0.709986 0
M  V30 5377 H 522.372 -0.104969 -1.94617 0
M  V30 5378 H 521.468 1.05879 -2.93592 0
M  V30 5379 N 521.769 1.56035 0.221574 0
M  V30 5380 C 523.015 1.79312 0.947372 0
M  V30 5381 C 523.348 0.621453 1.83988 0
M  V30 5382 O 522.623 -0.379287 1.90766 0
M  V30 5383 C 522.906 3.1267 1.78633 0
M  V30 5384 C 522.759 4.40284 0.920312 0
M  V30 5385 C 524.078 3.4247 2.7641 0
M  V30 5386 H 521.197 0.652328 0.342982 0
M  V30 5387 H 523.839 1.88765 0.216244 0
M  V30 5388 H 521.989 3.04741 2.40967 0
M  V30 5389 H 523.661 4.60232 0.313718 0
M  V30 5390 H 521.904 4.33212 0.225734 0
M  V30 5391 H 522.575 5.30033 1.54171 0
M  V30 5392 H 525.051 3.50526 2.24211 0
M  V30 5393 H 523.927 4.3695 3.32213 0
M  V30 5394 H 524.188 2.64635 3.54148 0
M  V30 5395 N 523.247 -0.488276 1.49845 0
M  V30 5396 C 524.177 -1.59675 1.70371 0
M  V30 5397 C 525.158 -1.60878 0.552473 0
M  V30 5398 O 526.343 -1.77417 0.78973 0
M  V30 5399 C 523.473 -2.98098 1.782 0
M  V30 5400 C 522.427 -3.11761 2.93239 0
M  V30 5401 C 521.753 -4.51661 2.86193 0
M  V30 5402 C 523.053 -2.90589 4.33999 0
M  V30 5403 H 524.747 -1.42752 2.63177 0
M  V30 5404 H 522.293 -0.685317 1.26647 0
M  V30 5405 H 524.246 -3.75555 1.91144 0
M  V30 5406 H 522.97 -3.16138 0.820018 0
M  V30 5407 H 521.629 -2.36732 2.79917 0
M  V30 5408 H 521.277 -4.66595 1.87877 0
M  V30 5409 H 520.977 -4.61742 3.63412 0
M  V30 5410 H 522.501 -5.31162 3.01163 0
M  V30 5411 H 523.915 -3.57807 4.47936 0
M  V30 5412 H 522.312 -3.1213 5.12538 0
M  V30 5413 H 523.382 -1.86595 4.4756 0
M  V30 5414 N 524.725 -1.39134 -0.740242 0
M  V30 5415 C 526.136 -1.32208 -1.31825 0
M  V30 5416 C 526.487 0.0159919 -1.96193 0
M  V30 5417 O 525.612 0.918111 -1.95958 0
M  V30 5418 C 526.207 -2.39436 -2.39699 0
M  V30 5419 C 524.766 -2.36048 -2.93187 0
M  V30 5420 C 523.913 -2.21599 -1.66701 0
M  V30 5421 H 526.864 -1.49298 -0.538133 0
M  V30 5422 H 526.885 -2.05922 -3.19963 0
M  V30 5423 H 526.397 -3.36811 -1.92821 0
M  V30 5424 H 524.498 -1.42295 -3.44359 0
M  V30 5425 H 524.611 -3.30704 -3.46658 0
M  V30 5426 H 522.975 -1.68681 -1.90837 0
M  V30 5427 H 523.758 -3.20936 -1.21882 0
M  V30 5428 N 526.204 0.969867 -1.24223 0
M  V30 5429 C 527.429 1.75289 -1.10853 0
M  V30 5430 C 527.854 1.85091 0.335079 0
M  V30 5431 O 527.212 1.32024 1.24255 0
M  V30 5432 C 527.26 3.15255 -1.75062 0
M  V30 5433 O 526.364 3.99589 -1.01992 0
M  V30 5434 H 525.705 0.538904 -0.387915 0
M  V30 5435 H 528.235 1.21675 -1.64488 0
M  V30 5436 H 528.245 3.65787 -1.80731 0
M  V30 5437 H 526.92 3.07436 -2.801 0
M  V30 5438 H 525.497 3.58077 -1.04094 0
M  V30 5439 N 527.682 1.05563 1.17022 0
M  V30 5440 C 528.612 0.681026 2.23348 0
M  V30 5441 C 529.593 -0.322983 1.67005 0
M  V30 5442 O 530.778 -0.199746 1.9317 0
M  V30 5443 C 527.908 0.0589053 3.4725 0
M  V30 5444 C 526.862 0.988082 4.16438 0
M  V30 5445 C 526.188 0.229646 5.34207 0
M  V30 5446 C 527.488 2.31388 4.68249 0
M  V30 5447 H 529.182 1.56993 2.54938 0
M  V30 5448 H 526.728 0.756302 1.2254 0
M  V30 5449 H 528.681 -0.214982 4.20851 0
M  V30 5450 H 527.405 -0.864968 3.14938 0
M  V30 5451 H 526.064 1.24659 3.44754 0
M  V30 5452 H 525.712 -0.697111 4.98146 0
M  V30 5453 H 525.412 0.848815 5.81437 0
M  V30 5454 H 526.936 -0.0368694 6.10589 0
M  V30 5455 H 528.35 2.09964 5.33468 0
M  V30 5456 H 526.747 2.88736 5.26072 0
M  V30 5457 H 527.817 2.94982 3.84855 0
M  V30 5458 N 529.16 -1.33526 0.837174 0
M  V30 5459 C 530.571 -1.80182 0.489017 0
M  V30 5460 C 530.922 -1.69285 -0.991826 0
M  V30 5461 O 530.047 -1.24113 -1.77271 0
M  V30 5462 C 530.642 -3.27149 0.880866 0
M  V30 5463 C 529.201 -3.71828 0.584872 0
M  V30 5464 C 528.348 -2.54974 1.09011 0
M  V30 5465 H 531.299 -1.21071 1.02603 0
M  V30 5466 H 531.32 -3.80024 0.190239 0
M  V30 5467 H 530.832 -3.35048 1.95869 0
M  V30 5468 H 528.933 -3.69457 -0.48295 0
M  V30 5469 H 529.046 -4.65366 1.13892 0
M  V30 5470 H 527.41 -2.4952 0.511047 0
M  V30 5471 H 528.193 -2.65637 2.17467 0
M  V30 5472 N 530.638 -0.59345 -1.46 0
M  V30 5473 C 531.915 -0.0157933 -1.95594 0
M  V30 5474 C 532.295 1.44807 -1.53604 0
M  V30 5475 O 531.643 2.14342 -0.791824 0
M  V30 5476 C 531.853 -0.199081 -3.48432 0
M  V30 5477 C 533.201 -0.0724943 -4.24538 0
M  V30 5478 O 534.225 -0.128469 -3.55968 0
M  V30 5479 O 533.084 0.0542426 -5.46473 0
M  V30 5480 H 530.178 0.043749 -0.825842 0
M  V30 5481 H 532.724 -0.662522 -1.56233 0
M  V30 5482 H 531.496 -1.21631 -3.71916 0
M  V30 5483 H 531.119 0.483576 -3.94648 0
M  V30 5484 N 532.116 1.54067 -0.331816 0
M  V30 5485 C 533.046 2.27569 0.522932 0
M  V30 5486 C 534.027 1.28679 1.11247 0
M  V30 5487 O 535.212 1.57504 1.13605 0
M  V30 5488 C 532.342 3.0397 1.67987 0
M  V30 5489 C 531.296 4.10267 1.21924 0
M  V30 5490 C 530.622 4.74555 2.46377 0
M  V30 5491 C 531.922 5.21268 0.32815 0
M  V30 5492 H 533.616 2.99264 -0.0901977 0
M  V30 5493 H 531.162 1.4393 -0.044821 0
M  V30 5494 H 533.115 3.54123 2.28418 0
M  V30 5495 H 531.839 2.29906 2.31971 0
M  V30 5496 H 530.498 3.61009 0.637809 0
M  V30 5497 H 530.146 3.97098 3.08743 0
M  V30 5498 H 529.846 5.46363 2.16243 0
M  V30 5499 H 531.37 5.27487 3.07555 0
M  V30 5500 H 532.784 5.67128 0.838978 0
M  V30 5501 H 531.181 5.99982 0.119228 0
M  V30 5502 H 532.251 4.80673 -0.638839 0
M  V30 5503 N 533.594 0.0601682 1.57485 0
M  V30 5504 C 534.842 -0.610386 1.92662 0
M  V30 5505 C 535.163 -1.70849 0.939981 0
M  V30 5506 O 534.433 -1.95895 -0.0137455 0
M  V30 5507 H 533.013 -0.228457 0.711208 0
M  V30 5508 H 535.675 0.115288 1.94559 0
M  V30 5509 H 534.771 -1.0432 2.94149 0
M  V30 5510 N 535.072 -1.5615 -0.213296 0
M  V30 5511 C 536.349 -1.70349 -0.961281 0
M  V30 5512 C 536.729 -0.609791 -2.02101 0
M  V30 5513 O 536.077 0.381987 -2.25285 0
M  V30 5514 C 536.287 -3.11982 -1.56424 0
M  V30 5515 C 537.635 -3.71649 -2.05334 0
M  V30 5516 O 538.659 -3.14995 -1.66302 0
M  V30 5517 O 537.518 -4.71038 -2.77102 0
M  V30 5518 H 534.612 -0.694121 -0.449582 0
M  V30 5519 H 537.158 -1.68464 -0.204426 0
M  V30 5520 H 535.93 -3.83046 -0.799457 0
M  V30 5521 H 535.553 -3.18019 -2.38641 0
M  V30 5522 N 536.55 0.480323 -1.50102 0
M  V30 5523 C 537.78 1.25475 -1.64133 0
M  V30 5524 C 538.188 1.8647 -0.320272 0
M  V30 5525 O 537.531 1.69561 0.70673 0
M  V30 5526 C 537.593 2.40996 -2.6676 0
M  V30 5527 C 537.257 2.00711 -4.10565 0
M  V30 5528 C 538.254 1.53492 -4.96725 0
M  V30 5529 C 535.939 2.09714 -4.56427 0
M  V30 5530 C 537.933 1.15806 -6.26792 0
M  V30 5531 C 535.62 1.7164 -5.86501 0
M  V30 5532 C 536.618 1.24763 -6.71508 0
M  V30 5533 O 536.306 0.872122 -7.99155 0
M  V30 5534 H 536.038 0.385983 -0.554971 0
M  V30 5535 H 538.592 0.580848 -1.97016 0
M  V30 5536 H 536.822 3.11528 -2.291 0
M  V30 5537 H 538.511 3.02981 -2.70106 0
M  V30 5538 H 539.277 1.45966 -4.62514 0
M  V30 5539 H 535.156 2.4515 -3.90413 0
M  V30 5540 H 538.7 0.791465 -6.93096 0
M  V30 5541 H 534.597 1.78822 -6.20236 0
M  V30 5542 H 535.365 1.00178 -8.12346 0
M  V30 5543 N 538.028 1.39524 0.732853 0
M  V30 5544 C 539.305 1.27373 1.48444 0
M  V30 5545 C 539.685 -0.115725 2.10783 0
M  V30 5546 O 539.033 -1.12713 1.98766 0
M  V30 5547 C 539.243 2.39966 2.53412 0
M  V30 5548 C 540.591 2.79384 3.19733 0
M  V30 5549 O 541.615 2.39431 2.63725 0
M  V30 5550 O 540.474 3.48353 4.21085 0
M  V30 5551 H 537.568 0.499272 0.659285 0
M  V30 5552 H 540.114 1.51403 0.766496 0
M  V30 5553 H 538.886 3.32845 2.05742 0
M  V30 5554 H 538.509 2.17612 3.32762 0
M  V30 5555 N 539.506 -0.963266 1.24736 0
M  V30 5556 C 540.922 -1.23273 1.01371 0
M  V30 5557 C 541.122 -1.99618 -0.274776 0
M  V30 5558 O 540.178 -2.32293 -0.989769 0
M  V30 5559 C 541.491 -2.01554 2.23152 0
M  V30 5560 C 543.039 -2.14629 2.27823 0
M  V30 5561 C 543.514 -2.96307 3.49237 0
M  V30 5562 N 545.005 -3.03887 3.49581 0
M  V30 5563 C 545.74 -3.67456 4.40186 0
M  V30 5564 N 545.236 -4.32706 5.41052 0
M  V30 5565 N 547.029 -3.64511 4.27888 0
M  V30 5566 H 539.18 -0.452294 2.07528 0
M  V30 5567 H 541.443 -0.262521 0.910926 0
M  V30 5568 H 541.149 -1.52847 3.1675 0
M  V30 5569 H 541.023 -3.02278 2.25628 0
M  V30 5570 H 543.41 -2.62537 1.34753 0
M  V30 5571 H 543.491 -1.13238 2.2937 0
M  V30 5572 H 543.135 -2.49091 4.42624 0
M  V30 5573 H 543.065 -3.97905 3.44933 0
M  V30 5574 H 545.556 -2.57477 2.76611 0
M  V30 5575 H 545.869 -4.79042 6.06415 0
M  V30 5576 H 544.214 -4.31361 5.44934 0
M  V30 5577 H 547.405 -3.12715 3.4832 0
M  V30 5578 H 547.578 -4.13768 4.98698 0
M  V30 5579 N 540.985 -1.06182 -1.16461 0
M  V30 5580 C 541.895 -0.682671 -2.24448 0
M  V30 5581 C 542.911 0.30078 -1.71381 0
M  V30 5582 O 544.087 0.150376 -2.00838 0
M  V30 5583 C 541.152 -0.0737202 -3.46622 0
M  V30 5584 C 540.213 -1.10889 -4.14731 0
M  V30 5585 C 539.446 -0.528908 -5.31073 0
M  V30 5586 O 539.669 0.65868 -5.66584 0
M  V30 5587 O 538.603 -1.26805 -5.88391 0
M  V30 5588 H 542.429 -1.58291 -2.59187 0
M  V30 5589 H 540.014 -0.834013 -1.23954 0
M  V30 5590 H 541.896 0.264192 -4.20571 0
M  V30 5591 H 540.571 0.800015 -3.13658 0
M  V30 5592 H 539.478 -1.49896 -3.42756 0
M  V30 5593 H 540.811 -1.95412 -4.51747 0
M  V30 5594 N 542.463 1.3308 -0.844243 0
M  V30 5595 C 543.879 1.50447 -0.532729 0
M  V30 5596 C 544.079 1.78292 0.938837 0
M  V30 5597 O 543.135 1.84635 1.72239 0
M  V30 5598 C 544.448 2.65555 -1.41072 0
M  V30 5599 C 545.996 2.7944 -1.41005 0
M  V30 5600 C 546.471 3.97616 -2.27301 0
M  V30 5601 N 547.962 4.0486 -2.2504 0
M  V30 5602 C 548.697 4.95508 -2.88547 0
M  V30 5603 N 548.193 5.91236 -3.61126 0
M  V30 5604 N 549.986 4.88548 -2.77989 0
M  V30 5605 H 542.137 1.13269 -1.79677 0
M  V30 5606 H 544.4 0.55734 -0.766861 0
M  V30 5607 H 544.106 2.51675 -2.45668 0
M  V30 5608 H 543.98 3.61089 -1.09061 0
M  V30 5609 H 546.367 2.92749 -0.371784 0
M  V30 5610 H 546.448 1.8465 -1.77026 0
M  V30 5611 H 546.092 3.85066 -3.3119 0
M  V30 5612 H 546.022 4.91661 -1.88619 0
M  V30 5613 H 548.513 3.36353 -1.72264 0
M  V30 5614 H 548.826 6.57079 -4.06776 0
M  V30 5615 H 547.171 5.91295 -3.65234 0
M  V30 5616 H 550.362 4.12729 -2.20846 0
M  V30 5617 H 550.535 5.58994 -3.27765 0
M  V30 5618 N 543.941 0.601185 1.45683 0
M  V30 5619 C 544.871 -0.108824 2.33246 0
M  V30 5620 C 545.852 -0.865223 1.46451 0
M  V30 5621 O 547.037 -0.83704 1.75235 0
M  V30 5622 C 544.167 -1.11101 3.2905 0
M  V30 5623 C 543.121 -0.468244 4.25431 0
M  V30 5624 C 542.447 -1.57822 5.10878 0
M  V30 5625 C 543.747 0.606469 5.18767 0
M  V30 5626 H 545.441 0.622306 2.92861 0
M  V30 5627 H 542.987 0.300714 1.40825 0
M  V30 5628 H 544.94 -1.61622 3.89174 0
M  V30 5629 H 543.664 -1.87265 2.67581 0
M  V30 5630 H 542.323 0.0160484 3.66596 0
M  V30 5631 H 541.971 -2.32998 4.45781 0
M  V30 5632 H 541.671 -1.15369 5.76163 0
M  V30 5633 H 543.195 -2.08583 5.73869 0
M  V30 5634 H 544.609 0.185589 5.73 0
M  V30 5635 H 543.006 0.952381 5.92494 0
M  V30 5636 H 544.076 1.48559 4.61582 0
M  V30 5637 N 545.419 -1.53889 0.339982 0
M  V30 5638 C 546.668 -2.00035 -0.258604 0
M  V30 5639 C 546.981 -1.23179 -1.51942 0
M  V30 5640 O 548.187 -1.59784 -2.19503 0
M  V30 5641 C 546.643 -3.56249 -0.511359 0
M  V30 5642 C 546.251 -4.41957 0.733349 0
M  V30 5643 C 547.995 -4.1082 -1.069 0
M  V30 5644 C 545.902 -5.89673 0.451591 0
M  V30 5645 H 544.832 -0.747284 -0.10041 0
M  V30 5646 H 547.483 -1.77776 0.454758 0
M  V30 5647 H 545.865 -3.7456 -1.28533 0
M  V30 5648 H 547.039 -4.35421 1.50815 0
M  V30 5649 H 545.354 -3.9836 1.21237 0
M  V30 5650 H 547.951 -5.18789 -1.2947 0
M  V30 5651 H 548.294 -3.63817 -2.02343 0
M  V30 5652 H 548.827 -3.96205 -0.355817 0
M  V30 5653 H 545.566 -6.40903 1.37565 0
M  V30 5654 H 545.086 -5.99122 -0.285193 0
M  V30 5655 H 546.765 -6.46965 0.0675067 0
M  V30 5656 N 546.897 -0.0685191 -1.57451 0
M  V30 5657 C 548.145 0.60016 -1.92983 0
M  V30 5658 C 548.466 1.70348 -0.949028 0
M  V30 5659 O 547.736 1.959 0.00335647 0
M  V30 5660 H 546.316 0.224682 -0.712409 0
M  V30 5661 H 548.978 -0.125605 -1.94495 0
M  V30 5662 H 548.074 1.02759 -2.94698 0
M  V30 5663 N 548.375 1.56261 0.205012 0
M  V30 5664 C 549.605 1.83874 0.942018 0
M  V30 5665 C 550.013 0.647595 1.77772 0
M  V30 5666 O 549.356 -0.393098 1.79445 0
M  V30 5667 C 549.418 3.05453 1.89575 0
M  V30 5668 C 549.082 4.39772 1.24296 0
M  V30 5669 C 550.079 5.16133 0.624724 0
M  V30 5670 C 547.764 4.86504 1.24978 0
M  V30 5671 C 549.758 6.37396 0.0220117 0
M  V30 5672 C 547.445 6.07705 0.643232 0
M  V30 5673 C 548.443 6.82993 0.0304164 0
M  V30 5674 O 548.131 8.019 -0.566654 0
M  V30 5675 H 547.863 0.614896 0.280854 0
M  V30 5676 H 550.417 2.04215 0.220285 0
M  V30 5677 H 548.647 2.80972 2.65691 0
M  V30 5678 H 550.336 3.19797 2.4997 0
M  V30 5679 H 551.102 4.81127 0.611666 0
M  V30 5680 H 546.981 4.27865 1.71616 0
M  V30 5681 H 550.525 6.96102 -0.456926 0
M  V30 5682 H 546.422 6.42181 0.653759 0
M  V30 5683 H 547.19 8.17192 -0.462588 0
M  V30 5684 N 549.853 -0.472356 1.50355 0
M  V30 5685 C 550.783 -1.57859 1.72055 0
M  V30 5686 C 551.764 -1.60283 0.569505 0
M  V30 5687 O 552.949 -1.7657 0.808503 0
M  V30 5688 C 550.079 -2.96191 1.81351 0
M  V30 5689 C 549.033 -3.08633 2.96529 0
M  V30 5690 C 548.359 -4.486 2.90968 0
M  V30 5691 C 549.659 -2.85969 4.37057 0
M  V30 5692 H 551.353 -1.39953 2.64676 0
M  V30 5693 H 548.899 -0.671846 1.27367 0
M  V30 5694 H 550.852 -3.73507 1.95117 0
M  V30 5695 H 549.576 -3.15251 0.853502 0
M  V30 5696 H 548.235 -2.33749 2.82413 0
M  V30 5697 H 547.883 -4.64577 1.92815 0
M  V30 5698 H 547.583 -4.57861 3.68289 0
M  V30 5699 H 549.107 -5.27938 3.0678 0
M  V30 5700 H 550.521 -3.53036 4.51706 0
M  V30 5701 H 548.918 -3.06677 5.15819 0
M  V30 5702 H 549.988 -1.81838 4.49514 0
M  V30 5703 N 551.331 -1.39911 -0.725443 0
M  V30 5704 C 552.281 -1.35878 -1.83088 0
M  V30 5705 C 553.265 -0.237989 -1.5913 0
M  V30 5706 O 554.457 -0.476302 -1.70471 0
M  V30 5707 C 551.586 -1.21403 -3.21117 0
M  V30 5708 C 550.672 -2.38223 -3.50871 0
M  V30 5709 N 551.063 -3.63703 -3.51502 0
M  V30 5710 C 549.361 -2.31388 -3.81281 0
M  V30 5711 C 550.062 -4.4101 -3.79322 0
M  V30 5712 N 549.038 -3.7072 -3.97577 0
M  V30 5713 H 552.84 -2.3085 -1.81895 0
M  V30 5714 H 550.354 -1.33543 -0.924125 0
M  V30 5715 H 552.351 -1.16597 -4.00263 0
M  V30 5716 H 551.011 -0.273902 -3.23543 0
M  V30 5717 H 552.022 -3.96998 -3.32586 0
M  V30 5718 H 548.699 -1.45689 -3.91256 0
M  V30 5719 H 550.089 -5.49819 -3.86198 0
M  V30 5720 N 552.809 0.956637 -1.25245 0
M  V30 5721 C 554.086 1.67716 -1.00651 0
M  V30 5722 C 554.466 2.0585 0.467866 0
M  V30 5723 O 553.814 1.77029 1.44475 0
M  V30 5724 C 554.024 2.90093 -1.94028 0
M  V30 5725 C 555.372 3.6209 -2.21756 0
M  V30 5726 O 556.396 3.00171 -1.9177 0
M  V30 5727 O 555.255 4.7358 -2.72735 0
M  V30 5728 H 552.349 0.733731 -0.381533 0
M  V30 5729 H 554.895 1.00974 -1.3639 0
M  V30 5730 H 553.667 2.58689 -2.93591 0
M  V30 5731 H 553.29 3.64566 -1.58674 0
M  V30 5732 N 554.287 1.06798 1.15896 0
M  V30 5733 C 555.25 0.687328 2.18651 0
M  V30 5734 C 556.25 -0.269559 1.58524 0
M  V30 5735 O 557.44 -0.0512627 1.74125 0
M  V30 5736 C 554.572 0.0121642 3.40898 0
M  V30 5737 H 555.765 1.59701 2.53842 0
M  V30 5738 H 553.318 0.863828 1.3026 0
M  V30 5739 H 554.053 -0.910025 3.1127 0
M  V30 5740 H 553.838 0.700309 3.85795 0
M  V30 5741 H 555.328 -0.239703 4.16911 0
M  V30 5742 N 555.766 -1.3263 0.851289 0
M  V30 5743 C 556.994 -2.01563 0.466899 0
M  V30 5744 C 557.409 -1.63996 -0.935447 0
M  V30 5745 O 556.766 -0.85957 -1.6099 0
M  V30 5746 C 556.817 -3.56613 0.592433 0
M  V30 5747 O 556.538 -3.92828 1.93954 0
M  V30 5748 C 558.039 -4.42818 0.206612 0
M  V30 5749 H 555.259 -0.645307 0.183902 0
M  V30 5750 H 557.803 -1.69285 1.1473 0
M  V30 5751 H 555.958 -3.87379 -0.0401936 0
M  V30 5752 H 556.372 -4.87545 1.9339 0
M  V30 5753 H 557.846 -5.50918 0.345462 0
M  V30 5754 H 558.323 -4.30844 -0.85264 0
M  V30 5755 H 558.929 -4.17434 0.814176 0
M  V30 5756 N 557.244 -0.608902 -1.45362 0
M  V30 5757 C 558.469 -0.10921 -2.07112 0
M  V30 5758 C 558.894 1.19779 -1.45033 0
M  V30 5759 O 558.252 1.72961 -0.543527 0
M  V30 5760 C 558.3 0.0155745 -3.60597 0
M  V30 5761 O 557.404 1.06546 -3.98399 0
M  V30 5762 H 556.745 -0.0746619 -0.659789 0
M  V30 5763 H 559.275 -0.839283 -1.86594 0
M  V30 5764 H 559.285 0.213364 -4.07442 0
M  V30 5765 H 557.96 -0.938765 -4.05167 0
M  V30 5766 H 556.537 0.844024 -3.63223 0
M  V30 5767 N 558.722 1.53707 -0.348139 0
M  V30 5768 C 559.999 1.93247 0.302475 0
M  V30 5769 C 560.379 1.28012 1.67857 0
M  V30 5770 O 559.727 0.43274 2.24365 0
M  V30 5771 C 559.937 3.47031 0.370159 0
M  V30 5772 C 561.285 4.20066 0.61882 0
M  V30 5773 O 562.309 3.53319 0.452087 0
M  V30 5774 O 561.168 5.38318 0.94215 0
M  V30 5775 H 558.262 0.807736 0.177458 0
M  V30 5776 H 560.808 1.64927 -0.399651 0
M  V30 5777 H 559.58 3.86745 -0.59534 0
M  V30 5778 H 559.203 3.81532 1.11888 0
M  V30 5779 N 560.2 0.0768682 1.57412 0
M  V30 5780 C 561.43 -0.5991 1.97723 0
M  V30 5781 C 561.838 -1.63378 0.954166 0
M  V30 5782 O 561.181 -1.83578 -0.0668706 0
M  V30 5783 C 561.243 -1.32078 3.34358 0
M  V30 5784 C 560.907 -0.438985 4.54887 0
M  V30 5785 C 561.904 0.305492 5.19002 0
M  V30 5786 C 559.589 -0.362378 5.00991 0
M  V30 5787 C 561.583 1.11475 6.27576 0
M  V30 5788 C 559.27 0.450543 6.09437 0
M  V30 5789 C 560.268 1.18777 6.72593 0
M  V30 5790 O 559.956 1.98727 7.7895 0
M  V30 5791 H 559.688 -0.166725 0.655117 0
M  V30 5792 H 562.242 0.147337 2.04871 0
M  V30 5793 H 560.472 -2.1134 3.2384 0
M  V30 5794 H 562.161 -1.88949 3.5924 0
M  V30 5795 H 562.927 0.25593 4.84324 0
M  V30 5796 H 558.806 -0.925832 4.51608 0
M  V30 5797 H 562.35 1.69068 6.76803 0
M  V30 5798 H 558.247 0.501651 6.43548 0
M  V30 5799 H 559.015 1.91214 7.95851 0
M  V30 5800 N 561.678 -1.56367 -0.196722 0
M  V30 5801 C 563.089 -1.70462 -0.761545 0
M  V30 5802 C 563.44 -0.683161 -1.83922 0
M  V30 5803 O 562.565 0.160753 -2.15802 0
M  V30 5804 C 563.16 -3.09057 -1.38814 0
M  V30 5805 C 561.719 -3.24922 -1.90007 0
M  V30 5806 C 560.866 -2.66412 -0.769399 0
M  V30 5807 H 563.817 -1.58675 0.0283263 0
M  V30 5808 H 563.838 -3.06296 -2.2575 0
M  V30 5809 H 563.35 -3.83378 -0.603559 0
M  V30 5810 H 561.451 -2.55514 -2.71189 0
M  V30 5811 H 561.564 -4.3241 -2.06297 0
M  V30 5812 H 559.928 -2.25546 -1.18326 0
M  V30 5813 H 560.711 -3.433 0.00291773 0
M  V30 5814 N 563.156 0.464375 -1.50603 0
M  V30 5815 C 564.384 1.23907 -1.65695 0
M  V30 5816 C 564.799 1.85658 -0.343027 0
M  V30 5817 O 564.156 1.69529 0.675739 0
M  V30 5818 C 564.207 2.3429 -2.75301 0
M  V30 5819 O 563.928 1.7507 -4.01599 0
M  V30 5820 C 565.429 3.25051 -3.01424 0
M  V30 5821 H 562.649 0.374485 -0.556778 0
M  V30 5822 H 565.193 0.55353 -1.96866 0
M  V30 5823 H 563.348 2.98607 -2.46804 0
M  V30 5824 H 563.762 2.47812 -4.62266 0
M  V30 5825 H 565.236 3.98699 -3.81763 0
M  V30 5826 H 565.713 3.84227 -2.12758 0
M  V30 5827 H 566.319 2.66463 -3.31477 0
M  V30 5828 N 564.634 1.40294 0.718013 0
M  V30 5829 C 565.882 1.38167 1.47494 0
M  V30 5830 C 566.203 -0.01607 1.94993 0
M  V30 5831 O 565.473 -0.970396 1.70177 0
M  V30 5832 H 564.053 0.508505 0.547203 0
M  V30 5833 H 566.715 1.75324 0.851322 0
M  V30 5834 H 565.811 2.05503 2.34894 0
M  V30 5835 N 566.112 -0.949982 1.2575 0
M  V30 5836 C 567.337 -1.73503 1.13628 0
M  V30 5837 C 567.762 -1.85601 -0.30559 0
M  V30 5838 O 567.12 -1.33984 -1.22139 0
M  V30 5839 C 567.168 -3.1243 1.80055 0
M  V30 5840 O 566.272 -3.97916 1.08336 0
M  V30 5841 H 565.613 -0.532665 0.396439 0
M  V30 5842 H 568.143 -1.19043 1.66403 0
M  V30 5843 H 568.153 -3.62866 1.86527 0
M  V30 5844 H 566.828 -3.02941 2.84956 0
M  V30 5845 H 565.405 -3.56375 1.09777 0
M  V30 5846 N 567.59 -1.07411 -1.15328 0
M  V30 5847 C 568.867 -0.710732 -1.82231 0
M  V30 5848 C 569.247 0.806732 -1.95077 0
M  V30 5849 O 568.595 1.72139 -1.50268 0
M  V30 5850 C 568.805 -1.42586 -3.18544 0
M  V30 5851 C 570.153 -1.57836 -3.94174 0
M  V30 5852 O 571.177 -1.38669 -3.281 0
M  V30 5853 O 570.036 -1.8938 -5.12638 0
M  V30 5854 H 567.13 -0.25297 -0.78736 0
M  V30 5855 H 569.676 -1.17508 -1.22434 0
M  V30 5856 H 568.448 -2.46008 -3.04296 0
M  V30 5857 H 568.071 -0.952332 -3.86026 0
M  V30 5858 N 569.068 1.32177 -0.85831 0
M  V30 5859 C 570.296 2.01313 -0.477582 0
M  V30 5860 C 570.711 1.6449 0.926736 0
M  V30 5861 O 570.068 0.868096 1.60531 0
M  V30 5862 C 570.119 3.56293 -0.611337 0
M  V30 5863 O 569.84 3.91794 -1.96034 0
M  V30 5864 C 571.341 4.42702 -0.230093 0
M  V30 5865 H 568.561 0.644323 -0.187322 0
M  V30 5866 H 571.105 1.68674 -1.15626 0
M  V30 5867 H 569.26 3.87395 0.0196494 0
M  V30 5868 H 569.674 4.86513 -1.95973 0
M  V30 5869 H 571.148 5.50727 -0.374674 0
M  V30 5870 H 571.625 4.3129 0.829779 0
M  V30 5871 H 572.231 4.16997 -0.836302 0
M  V30 5872 N 570.547 0.616602 1.45037 0
M  V30 5873 C 571.777 0.121791 2.06241 0
M  V30 5874 C 572.185 -1.20289 1.46038 0
M  V30 5875 O 571.528 -1.7456 0.572242 0
M  V30 5876 C 571.59 -0.0827345 3.59405 0
M  V30 5877 C 571.254 1.16153 4.41993 0
M  V30 5878 C 572.251 2.08183 4.76399 0
M  V30 5879 C 569.936 1.39288 4.82601 0
M  V30 5880 C 571.93 3.21668 5.5028 0
M  V30 5881 C 569.617 2.53073 5.56235 0
M  V30 5882 C 570.615 3.44091 5.89992 0
M  V30 5883 O 570.303 4.55894 6.6213 0
M  V30 5884 H 570.035 0.0701667 0.672349 0
M  V30 5885 H 572.589 0.846877 1.87129 0
M  V30 5886 H 570.819 -0.862812 3.76952 0
M  V30 5887 H 572.508 -0.530273 4.02421 0
M  V30 5888 H 573.274 1.91538 4.45576 0
M  V30 5889 H 569.153 0.693396 4.55755 0
M  V30 5890 H 572.697 3.92733 5.76547 0
M  V30 5891 H 568.594 2.69667 5.86472 0
M  V30 5892 H 569.362 4.5469 6.80587 0
M  V30 5893 N 572.025 -1.5352 0.356285 0
M  V30 5894 C 572.935 -2.29151 -0.502712 0
M  V30 5895 C 573.951 -1.34753 -1.1008 0
M  V30 5896 O 575.127 -1.67803 -1.11374 0
M  V30 5897 C 572.192 -3.05911 -1.63154 0
M  V30 5898 C 571.253 -4.15958 -1.06194 0
M  V30 5899 C 570.486 -4.8905 -2.13696 0
M  V30 5900 O 570.709 -4.61919 -3.34645 0
M  V30 5901 O 569.643 -5.75202 -1.77275 0
M  V30 5902 H 573.469 -3.03492 0.112466 0
M  V30 5903 H 571.054 -1.4891 0.120942 0
M  V30 5904 H 572.936 -3.53874 -2.28804 0
M  V30 5905 H 571.611 -2.34415 -2.23229 0
M  V30 5906 H 570.518 -3.7227 -0.369603 0
M  V30 5907 H 571.851 -4.89593 -0.505872 0
M  V30 5908 N 573.503 -0.0852151 -1.57369 0
M  V30 5909 C 574.433 0.874556 -2.16503 0
M  V30 5910 C 575.414 1.30111 -1.09568 0
M  V30 5911 O 576.599 1.36977 -1.37662 0
M  V30 5912 C 573.729 2.13731 -2.73745 0
M  V30 5913 C 572.683 1.84971 -3.85966 0
M  V30 5914 C 572.009 3.17991 -4.29867 0
M  V30 5915 C 573.309 1.14442 -5.09608 0
M  V30 5916 H 575.003 0.381899 -2.96954 0
M  V30 5917 H 572.549 0.18225 -1.42842 0
M  V30 5918 H 574.502 2.81302 -3.13763 0
M  V30 5919 H 573.226 2.65263 -1.90534 0
M  V30 5920 H 571.885 1.19801 -3.46473 0
M  V30 5921 H 571.533 3.6739 -3.4356 0
M  V30 5922 H 571.233 2.99534 -5.05523 0
M  V30 5923 H 572.757 3.86737 -4.72511 0
M  V30 5924 H 574.171 1.72105 -5.46857 0
M  V30 5925 H 572.568 1.06197 -5.90629 0
M  V30 5926 H 573.638 0.12559 -4.84737 0
M  V30 5927 N 574.981 1.5647 0.188427 0
M  V30 5928 C 576.229 1.80655 0.905986 0
M  V30 5929 C 576.55 0.659391 1.83513 0
M  V30 5930 O 575.82 -0.321868 1.93238 0
M  V30 5931 H 574.4 0.666391 0.337538 0
M  V30 5932 H 577.062 1.93949 0.192339 0
M  V30 5933 H 576.158 2.74066 1.49313 0
M  V30 5934 N 576.459 -0.456382 1.50847 0
M  V30 5935 C 577.406 -1.55249 1.70782 0
M  V30 5936 C 578.376 -1.56757 0.549231 0
M  V30 5937 O 579.561 -1.74061 0.7815 0
M  V30 5938 C 576.701 -2.93118 1.82143 0
M  V30 5939 C 575.814 -3.01285 3.09598 0
M  V30 5940 C 574.949 -4.30159 3.11667 0
M  V30 5941 C 573.988 -4.32124 4.33515 0
M  V30 5942 N 573.125 -5.52492 4.3324 0
M  V30 5943 H 577.965 -1.37555 2.64353 0
M  V30 5944 H 575.502 -0.668543 1.3103 0
M  V30 5945 H 577.46 -3.73088 1.86711 0
M  V30 5946 H 576.09 -3.09413 0.919978 0
M  V30 5947 H 575.142 -2.14096 3.14431 0
M  V30 5948 H 576.454 -2.98597 3.99551 0
M  V30 5949 H 575.608 -5.18489 3.15046 0
M  V30 5950 H 574.347 -4.35477 2.1957 0
M  V30 5951 H 573.352 -3.42189 4.30333 0
M  V30 5952 H 574.577 -4.28485 5.26856 0
M  V30 5953 H 572.523 -5.58567 3.44004 0
M  V30 5954 H 572.44 -5.51605 5.16979 0
M  V30 5955 H 573.708 -6.42906 4.40786 0
M  V30 5956 N 577.937 -1.40673 -0.710563 0
M  V30 5957 C 579.167 -1.4234 -1.49742 0
M  V30 5958 C 579.575 -0.022821 -1.89186 0
M  V30 5959 O 578.918 0.964773 -1.56326 0
M  V30 5960 C 578.98 -2.25509 -2.79975 0
M  V30 5961 C 578.644 -3.73862 -2.62824 0
M  V30 5962 C 579.641 -4.66379 -2.29752 0
M  V30 5963 C 577.326 -4.17735 -2.78932 0
M  V30 5964 C 579.32 -6.00756 -2.13006 0
M  V30 5965 C 577.007 -5.5218 -2.61802 0
M  V30 5966 C 578.005 -6.43505 -2.28888 0
M  V30 5967 O 577.693 -7.75472 -2.11894 0
M  V30 5968 H 577.425 -0.487311 -0.468513 0
M  V30 5969 H 579.979 -1.8542 -0.883668 0
M  V30 5970 H 578.209 -1.77218 -3.43701 0
M  V30 5971 H 579.898 -2.19058 -3.41714 0
M  V30 5972 H 580.664 -4.33778 -2.16936 0
M  V30 5973 H 576.543 -3.46967 -3.03537 0
M  V30 5974 H 580.087 -6.72003 -1.87237 0
M  V30 5975 H 575.984 -5.84365 -2.74204 0
M  V30 5976 H 576.752 -7.86458 -2.26775 0
M  V30 5977 N 579.415 0.9433 -1.26252 0
M  V30 5978 C 580.664 1.68369 -1.11062 0
M  V30 5979 C 580.977 1.92514 0.346104 0
M  V30 5980 O 582.183 2.64358 0.618646 0
M  V30 5981 C 580.639 3.03171 -1.93946 0
M  V30 5982 C 580.247 2.86782 -3.4418 0
M  V30 5983 C 581.991 3.80916 -1.87359 0
M  V30 5984 C 579.898 4.17044 -4.19319 0
M  V30 5985 H 578.828 0.631469 -0.412023 0
M  V30 5986 H 581.479 1.04922 -1.50544 0
M  V30 5987 H 579.861 3.67587 -1.47296 0
M  V30 5988 H 581.035 2.31229 -3.98585 0
M  V30 5989 H 579.35 2.22482 -3.51981 0
M  V30 5990 H 581.947 4.77417 -2.40784 0
M  V30 5991 H 582.29 4.07658 -0.843857 0
M  V30 5992 H 582.823 3.2327 -2.31821 0
M  V30 5993 H 579.562 3.95487 -5.22753 0
M  V30 5994 H 579.082 4.72319 -3.69696 0
M  V30 5995 H 580.761 4.85513 -4.27651 0
M  V30 5996 N 580.893 1.08022 1.14757 0
M  V30 5997 C 582.141 0.805913 1.85336 0
M  V30 5998 C 582.462 -0.670162 1.83122 0
M  V30 5999 O 581.732 -1.48567 1.2769 0
M  V30 6000 H 580.312 0.295138 0.686223 0
M  V30 6001 H 582.974 1.36538 1.3908 0
M  V30 6002 H 582.07 1.14655 2.90277 0
M  V30 6003 N 582.371 -1.3172 0.865308 0
M  V30 6004 C 583.318 -2.2863 0.315736 0
M  V30 6005 C 584.288 -1.55524 -0.583213 0
M  V30 6006 O 585.473 -1.83694 -0.51585 0
M  V30 6007 C 582.613 -3.41735 -0.480773 0
M  V30 6008 C 581.726 -4.297 0.445167 0
M  V30 6009 C 580.861 -5.29944 -0.365012 0
M  V30 6010 C 579.9 -6.09554 0.557651 0
M  V30 6011 N 579.037 -7.01768 -0.215994 0
M  V30 6012 H 583.877 -2.75026 1.14736 0
M  V30 6013 H 581.414 -1.35302 0.577209 0
M  V30 6014 H 583.372 -4.06045 -0.958306 0
M  V30 6015 H 582.002 -2.96461 -1.27714 0
M  V30 6016 H 581.054 -3.65875 1.04113 0
M  V30 6017 H 582.366 -4.85295 1.15284 0
M  V30 6018 H 581.52 -5.99908 -0.905255 0
M  V30 6019 H 580.259 -4.74994 -1.106 0
M  V30 6020 H 579.264 -5.38485 1.10969 0
M  V30 6021 H 580.489 -6.66591 1.29742 0
M  V30 6022 H 578.435 -6.49232 -0.939878 0
M  V30 6023 H 578.352 -7.54762 0.432431 0
M  V30 6024 H 579.62 -7.76002 -0.737618 0
M  V30 6025 N 583.85 -0.624285 -1.44708 0
M  V30 6026 C 584.779 0.0717025 -2.3339 0
M  V30 6027 C 585.76 0.841814 -1.47809 0
M  V30 6028 O 586.946 0.809056 -1.76544 0
M  V30 6029 C 584.076 1.05852 -3.30776 0
M  V30 6030 C 583.029 0.400503 -4.26122 0
M  V30 6031 C 582.356 1.49674 -5.13324 0
M  V30 6032 C 583.656 -0.688924 -5.17737 0
M  V30 6033 H 585.35 -0.668819 -2.91834 0
M  V30 6034 H 582.896 -0.32308 -1.40329 0
M  V30 6035 H 584.849 1.5541 -3.91696 0
M  V30 6036 H 583.572 1.82984 -2.70526 0
M  V30 6037 H 582.231 -0.0743687 -3.66525 0
M  V30 6038 H 581.88 2.25877 -4.49431 0
M  V30 6039 H 581.58 1.06188 -5.77926 0
M  V30 6040 H 583.104 1.99427 -5.77115 0
M  V30 6041 H 584.518 -0.276724 -5.72632 0
M  V30 6042 H 582.915 -1.04652 -5.90904 0
M  V30 6043 H 583.985 -1.55884 -4.5916 0
M  V30 6044 N 585.328 1.53329 -0.364422 0
M  V30 6045 C 586.291 2.24323 0.470292 0
M  V30 6046 C 587.291 1.25068 1.01067 0
M  V30 6047 O 588.481 1.49354 0.896605 0
M  V30 6048 C 585.613 2.97908 1.65722 0
M  V30 6049 H 586.806 2.9952 -0.150917 0
M  V30 6050 H 584.359 1.55868 -0.116092 0
M  V30 6051 H 585.094 2.2695 2.31655 0
M  V30 6052 H 584.879 3.70732 1.27671 0
M  V30 6053 H 586.369 3.5188 2.24878 0
M  V30 6054 N 586.806 0.0935595 1.57322 0
M  V30 6055 C 588.034 -0.578934 1.98635 0
M  V30 6056 C 588.449 -1.61819 0.972626 0
M  V30 6057 O 587.806 -1.82461 -0.0379638 0
M  V30 6058 C 587.857 -1.22802 3.40003 0
M  V30 6059 O 587.578 -0.230334 4.37494 0
M  V30 6060 C 589.079 -1.98627 3.96311 0
M  V30 6061 H 586.299 -0.155324 0.652775 0
M  V30 6062 H 588.843 0.172393 2.03772 0
M  V30 6063 H 586.998 -1.93029 3.35885 0
M  V30 6064 H 587.412 -0.698649 5.19826 0
M  V30 6065 H 588.886 -2.39405 4.97382 0
M  V30 6066 H 589.363 -2.85151 3.34044 0
M  V30 6067 H 589.969 -1.3322 4.03897 0
M  V30 6068 N 588.284 -1.56567 -0.180126 0
M  V30 6069 C 589.214 -1.98753 -1.22553 0
M  V30 6070 C 590.195 -0.86175 -1.46656 0
M  V30 6071 O 591.38 -1.12719 -1.58139 0
M  V30 6072 C 588.51 -2.33988 -2.56645 0
M  V30 6073 C 587.464 -3.49445 -2.47128 0
M  V30 6074 C 586.79 -3.70397 -3.8563 0
M  V30 6075 C 588.09 -4.83171 -1.98352 0
M  V30 6076 H 589.784 -2.86332 -0.874896 0
M  V30 6077 H 587.33 -1.37757 -0.419414 0
M  V30 6078 H 589.283 -2.62097 -3.29974 0
M  V30 6079 H 588.007 -1.43309 -2.93479 0
M  V30 6080 H 586.666 -3.2145 -1.76254 0
M  V30 6081 H 586.314 -2.77023 -4.19842 0
M  V30 6082 H 586.014 -4.48077 -3.80132 0
M  V30 6083 H 587.538 -4.00897 -4.60558 0
M  V30 6084 H 588.952 -5.10213 -2.61449 0
M  V30 6085 H 587.349 -5.64425 -2.03823 0
M  V30 6086 H 588.419 -4.75753 -0.937402 0
M  V30 6087 N 589.762 0.448376 -1.51087 0
M  V30 6088 C 590.725 1.52588 -1.71025 0
M  V30 6089 C 591.725 1.49958 -0.580442 0
M  V30 6090 O 592.915 1.52176 -0.847833 0
M  V30 6091 C 590.047 2.92163 -1.75652 0
M  V30 6092 H 591.24 1.36218 -2.67179 0
M  V30 6093 H 588.793 0.676313 -1.4091 0
M  V30 6094 H 589.528 3.13951 -0.812724 0
M  V30 6095 H 589.313 2.95478 -2.57751 0
M  V30 6096 H 590.803 3.70349 -1.92953 0
M  V30 6097 N 591.24 1.41047 0.703093 0
M  V30 6098 C 592.651 1.35657 1.28274 0
M  V30 6099 C 593.002 0.0360309 1.96167 0
M  V30 6100 O 592.127 -0.865833 1.98324 0
M  V30 6101 C 592.722 2.45707 2.33267 0
M  V30 6102 C 591.281 2.43738 2.86825 0
M  V30 6103 C 590.428 2.25941 1.60767 0
M  V30 6104 H 593.379 1.50672 0.49836 0
M  V30 6105 H 593.4 2.14333 3.14391 0
M  V30 6106 H 592.912 3.41805 1.83824 0
M  V30 6107 H 591.013 1.51375 3.40465 0
M  V30 6108 H 591.126 3.39779 3.37768 0
M  V30 6109 H 589.49 1.73681 1.86298 0
M  V30 6110 H 590.273 3.24054 1.1333 0
M  V30 6111 N 592.718 -0.936591 1.26751 0
M  V30 6112 C 593.967 -1.67778 1.11953 0
M  V30 6113 C 594.28 -1.92694 -0.33589 0
M  V30 6114 O 595.486 -2.64682 -0.604618 0
M  V30 6115 C 593.942 -3.02138 1.95551 0
M  V30 6116 C 593.55 -2.84953 3.45696 0
M  V30 6117 C 595.294 -3.79917 1.89377 0
M  V30 6118 C 593.201 -4.14814 4.21525 0
M  V30 6119 H 592.131 -0.629275 0.415366 0
M  V30 6120 H 594.782 -1.04122 1.51099 0
M  V30 6121 H 593.164 -3.668 1.49243 0
M  V30 6122 H 594.338 -2.29112 3.99805 0
M  V30 6123 H 592.653 -2.20612 3.53156 0
M  V30 6124 H 595.25 -4.76134 2.43312 0
M  V30 6125 H 595.593 -4.07204 0.865464 0
M  V30 6126 H 596.126 -3.22037 2.33532 0
M  V30 6127 H 592.865 -3.92709 5.24843 0
M  V30 6128 H 592.385 -4.70352 3.72195 0
M  V30 6129 H 594.064 -4.83239 4.3022 0
M  V30 6130 N 594.196 -1.08629 -1.14182 0
M  V30 6131 C 595.159 -0.722027 -2.1753 0
M  V30 6132 C 596.159 0.244305 -1.58933 0
M  V30 6133 O 597.349 0.0235545 -1.74184 0
M  V30 6134 C 594.481 -0.0663966 -3.40835 0
M  V30 6135 H 595.674 -1.63719 -2.51269 0
M  V30 6136 H 593.227 -0.884442 -1.28869 0
M  V30 6137 H 593.962 0.860389 -3.12678 0
M  V30 6138 H 593.747 -0.761598 -3.84632 0
M  V30 6139 H 595.237 0.173346 -4.1724 0
M  V30 6140 N 595.674 1.31259 -0.872281 0
M  V30 6141 C 596.951 1.91362 -0.404943 0
M  V30 6142 C 597.331 1.79362 1.11321 0
M  V30 6143 O 596.679 1.20277 1.94283 0
M  V30 6144 C 596.889 3.3749 -0.888893 0
M  V30 6145 C 598.237 4.14593 -0.916384 0
M  V30 6146 O 599.261 3.46282 -0.834701 0
M  V30 6147 O 598.12 5.3661 -1.03498 0
M  V30 6148 H 595.214 0.818016 -0.121569 0
M  V30 6149 H 597.76 1.39912 -0.960346 0
M  V30 6150 H 596.532 3.40249 -1.93251 0
M  V30 6151 H 596.155 3.96375 -0.311932 0
M  V30 6152 N 597.152 0.631951 1.44375 0
M  V30 6153 C 598.084 -0.110911 2.28931 0
M  V30 6154 C 599.097 -0.808086 1.41329 0
M  V30 6155 O 600.286 -0.669396 1.65473 0
M  V30 6156 C 597.386 -1.17928 3.1772 0
M  V30 6157 C 596.559 -0.564458 4.33743 0
M  V30 6158 C 595.618 -1.5269 5.0356 0
M  V30 6159 O 594.644 -1.04372 5.59549 0
M  V30 6160 N 595.846 -2.86123 5.05088 0
M  V30 6161 H 598.611 0.614758 2.93327 0
M  V30 6162 H 596.172 0.473171 1.54831 0
M  V30 6163 H 598.164 -1.82348 3.61291 0
M  V30 6164 H 596.734 -1.80717 2.55069 0
M  V30 6165 H 595.954 0.258373 3.93352 0
M  V30 6166 H 597.242 -0.134355 5.08623 0
M  V30 6167 H 596.64 -3.27959 4.60933 0
M  V30 6168 H 595.197 -3.45901 5.52445 0
M  V30 6169 N 598.631 -1.53133 0.372548 0
M  V30 6170 C 599.564 -2.22328 -0.514361 0
M  V30 6171 C 600.542 -1.21776 -1.07747 0
M  V30 6172 O 601.726 -1.50704 -1.13228 0
M  V30 6173 C 598.853 -2.92343 -1.71035 0
M  V30 6174 C 597.899 -4.07026 -1.27405 0
M  V30 6175 S 598.732 -5.34821 -0.269526 0
M  V30 6176 C 599.888 -6.08352 -1.47168 0
M  V30 6177 H 600.121 -2.9721 0.0732683 0
M  V30 6178 H 597.654 -1.53603 0.156673 0
M  V30 6179 H 599.612 -3.33296 -2.39634 0
M  V30 6180 H 598.273 -2.17173 -2.26925 0
M  V30 6181 H 597.466 -4.55056 -2.16656 0
M  V30 6182 H 597.068 -3.68001 -0.66719 0
M  V30 6183 H 599.36 -6.33507 -2.40157 0
M  V30 6184 H 600.303 -7.0053 -1.03263 0
M  V30 6185 H 600.711 -5.38893 -1.6809 0
M  V30 6186 N 600.109 -0.101901 -1.5727 0
M  V30 6187 C 601.357 0.559091 -1.94213 0
M  V30 6188 C 601.678 1.68297 -0.984948 0
M  V30 6189 O 600.948 1.95863 -0.0381975 0
M  V30 6190 H 599.528 0.20952 -0.717015 0
M  V30 6191 H 602.19 -0.166831 -1.94185 0
M  V30 6192 H 601.286 0.96485 -2.96811 0
M  V30 6193 N 601.587 1.56661 0.17182 0
M  V30 6194 C 602.497 1.99604 1.2327 0
M  V30 6195 C 603.513 0.907333 1.4847 0
M  V30 6196 O 604.689 1.21492 1.60629 0
M  V30 6197 C 601.754 2.34685 2.55194 0
M  V30 6198 C 600.815 3.57381 2.3786 0
M  V30 6199 C 600.048 3.90779 3.63494 0
M  V30 6200 O 600.271 3.25152 4.6865 0
M  V30 6201 O 599.205 4.84129 3.57634 0
M  V30 6202 H 603.031 2.90114 0.898192 0
M  V30 6203 H 600.616 1.44522 0.378647 0
M  V30 6204 H 602.498 2.5822 3.33017 0
M  V30 6205 H 601.173 1.47336 2.88225 0
M  V30 6206 H 600.08 3.39064 1.5807 0
M  V30 6207 H 601.413 4.45268 2.09754 0
M  V30 6208 N 603.065 -0.440357 1.51323 0
M  V30 6209 C 604.295 -1.21079 1.67402 0
M  V30 6210 C 604.703 -1.85555 0.369599 0
M  V30 6211 O 604.046 -1.71375 -0.661525 0
M  V30 6212 C 604.108 -2.33839 2.73056 0
M  V30 6213 C 603.772 -1.89755 4.15743 0
M  V30 6214 C 604.769 -1.40268 5.0062 0
M  V30 6215 C 602.454 -1.97539 4.61826 0
M  V30 6216 C 604.448 -0.991474 6.29642 0
M  V30 6217 C 602.135 -1.56029 5.90845 0
M  V30 6218 C 603.133 -1.06915 6.7458 0
M  V30 6219 O 602.821 -0.659933 8.01187 0
M  V30 6220 H 602.553 -0.371133 0.56501 0
M  V30 6221 H 605.107 -0.528409 1.98487 0
M  V30 6222 H 603.337 -3.05345 2.37279 0
M  V30 6223 H 605.026 -2.95713 2.78044 0
M  V30 6224 H 605.792 -1.33652 4.66221 0
M  V30 6225 H 601.671 -2.34713 3.96776 0
M  V30 6226 H 605.215 -0.607425 6.9495 0
M  V30 6227 H 601.112 -1.62315 6.24759 0
M  V30 6228 H 601.88 -0.786052 8.14717 0
M  V30 6229 N 604.543 -1.41418 -0.695603 0
M  V30 6230 C 605.453 -1.45622 -1.83933 0
M  V30 6231 C 606.469 -0.346825 -1.70508 0
M  V30 6232 O 607.645 -0.59454 -1.92424 0
M  V30 6233 C 604.71 -1.33627 -3.19914 0
M  V30 6234 C 603.771 -2.54882 -3.45447 0
M  V30 6235 C 603.004 -2.43449 -4.7494 0
M  V30 6236 O 603.227 -1.45905 -5.51424 0
M  V30 6237 O 602.161 -3.33206 -5.01256 0
M  V30 6238 H 605.987 -2.42114 -1.83342 0
M  V30 6239 H 603.572 -1.22956 -0.848658 0
M  V30 6240 H 605.454 -1.29221 -4.01098 0
M  V30 6241 H 604.129 -0.402508 -3.21188 0
M  V30 6242 H 603.036 -2.64865 -2.64192 0
M  V30 6243 H 604.369 -3.47087 -3.48987 0
M  V30 6244 N 606.021 0.929856 -1.27246 0
M  V30 6245 C 606.951 2.04722 -1.12299 0
M  V30 6246 C 607.932 1.70082 -0.0250464 0
M  V30 6247 O 609.117 1.93176 -0.199141 0
M  V30 6248 C 606.247 3.38721 -0.767145 0
M  V30 6249 C 605.201 3.87466 -1.81808 0
M  V30 6250 C 604.527 5.18246 -1.31626 0
M  V30 6251 C 605.827 4.11095 -3.22177 0
M  V30 6252 H 607.521 2.17485 -2.05769 0
M  V30 6253 H 605.067 1.04503 -0.990715 0
M  V30 6254 H 607.02 4.16366 -0.649413 0
M  V30 6255 H 605.744 3.25967 0.203259 0
M  V30 6256 H 604.403 3.12012 -1.92468 0
M  V30 6257 H 604.051 5.01881 -0.335378 0
M  V30 6258 H 603.751 5.51829 -2.01887 0
M  V30 6259 H 605.275 5.98462 -1.21143 0
M  V30 6260 H 606.689 4.79316 -3.1453 0
M  V30 6261 H 605.086 4.55982 -3.90129 0
M  V30 6262 H 606.156 3.16468 -3.67391 0
M  V30 6263 N 607.499 1.09233 1.13605 0
M  V30 6264 C 608.462 0.733553 2.17144 0
M  V30 6265 C 609.462 -0.235873 1.59061 0
M  V30 6266 O 610.652 -0.0143167 1.74194 0
M  V30 6267 C 607.784 0.084471 3.40795 0
M  V30 6268 H 608.977 1.65049 2.50397 0
M  V30 6269 H 606.53 0.891264 1.28399 0
M  V30 6270 H 607.265 -0.843795 3.1313 0
M  V30 6271 H 607.05 0.781985 3.84223 0
M  V30 6272 H 608.54 -0.151216 4.17326 0
M  V30 6273 N 608.977 -1.30795 0.87923 0
M  V30 6274 C 609.887 -2.32041 0.345565 0
M  V30 6275 C 610.903 -1.65103 -0.549265 0
M  V30 6276 O 612.079 -1.9645 -0.443763 0
M  V30 6277 C 609.144 -3.43944 -0.436245 0
M  V30 6278 C 608.205 -4.26521 0.48765 0
M  V30 6279 C 607.438 -5.33081 -0.256943 0
M  V30 6280 O 607.661 -5.50762 -1.48381 0
M  V30 6281 O 606.595 -6.00635 0.389985 0
M  V30 6282 H 610.421 -2.79627 1.18501 0
M  V30 6283 H 608.006 -1.3486 0.642885 0
M  V30 6284 H 609.888 -4.12128 -0.879119 0
M  V30 6285 H 608.563 -2.98504 -1.25208 0
M  V30 6286 H 607.47 -3.61057 0.979216 0
M  V30 6287 H 608.803 -4.75551 1.26933 0
M  V30 6288 N 610.455 -0.639598 -1.44038 0
M  V30 6289 C 611.387 0.0987684 -2.28987 0
M  V30 6290 C 612.4 0.80058 -1.41755 0
M  V30 6291 O 613.589 0.660611 -1.65826 0
M  V30 6292 C 610.689 1.16242 -3.18341 0
M  V30 6293 C 609.862 0.541447 -4.34036 0
M  V30 6294 C 608.921 1.50017 -5.04362 0
M  V30 6295 O 607.947 1.01403 -5.60095 0
M  V30 6296 N 609.149 2.83441 -5.06598 0
M  V30 6297 H 611.914 -0.630305 -2.92997 0
M  V30 6298 H 609.475 -0.481376 -1.54578 0
M  V30 6299 H 611.467 1.80429 -3.62253 0
M  V30 6300 H 610.037 1.79362 -2.56024 0
M  V30 6301 H 609.257 -0.27923 -3.9321 0
M  V30 6302 H 610.545 0.107379 -5.08687 0
M  V30 6303 H 609.943 3.2551 -4.62666 0
M  V30 6304 H 608.5 3.42966 -5.54272 0
M  V30 6305 N 611.933 1.52934 -0.380664 0
M  V30 6306 C 613.18 2.01467 0.204278 0
M  V30 6307 C 613.508 1.26744 1.47533 0
M  V30 6308 O 612.763 0.353723 1.92477 0
M  V30 6309 C 613.062 3.5349 0.527199 0
M  V30 6310 C 612.728 4.46171 -0.651295 0
M  V30 6311 C 611.39 4.71227 -0.974619 0
M  V30 6312 C 613.742 5.00909 -1.44012 0
M  V30 6313 C 611.07 5.4827 -2.08847 0
M  V30 6314 C 613.422 5.7917 -2.5445 0
M  V30 6315 C 612.086 6.02507 -2.87301 0
M  V30 6316 H 611.356 0.73722 0.0747504 0
M  V30 6317 H 614.003 1.84411 -0.516234 0
M  V30 6318 H 612.308 3.68574 1.32892 0
M  V30 6319 H 614.005 3.88529 0.992283 0
M  V30 6320 H 610.595 4.26829 -0.389276 0
M  V30 6321 H 614.779 4.81485 -1.20357 0
M  V30 6322 H 610.035 5.64567 -2.34679 0
M  V30 6323 H 614.209 6.20588 -3.1598 0
M  V30 6324 H 611.836 6.61989 -3.7373 0
M  V30 6325 N 613.412 0.11024 1.57214 0
M  V30 6326 C 614.828 -0.24638 1.57687 0
M  V30 6327 C 615.028 -1.67344 1.12241 0
M  V30 6328 O 614.084 -2.39298 0.805783 0
M  V30 6329 C 615.397 -0.0210288 3.00693 0
M  V30 6330 C 616.945 -0.0876077 3.12877 0
M  V30 6331 C 617.42 0.10994 4.57868 0
M  V30 6332 N 618.911 0.0556135 4.63167 0
M  V30 6333 C 619.646 0.183495 5.73106 0
M  V30 6334 N 619.142 0.367058 6.91827 0
M  V30 6335 N 620.935 0.123689 5.61964 0
M  V30 6336 H 613.086 1.04246 1.85058 0
M  V30 6337 H 615.349 0.40979 0.854854 0
M  V30 6338 H 615.055 0.965203 3.38196 0
M  V30 6339 H 614.929 -0.756748 3.69531 0
M  V30 6340 H 617.316 -1.06436 2.75237 0
M  V30 6341 H 617.397 0.67985 2.466 0
M  V30 6342 H 617.041 1.08362 4.96206 0
M  V30 6343 H 616.971 -0.677397 5.22225 0
M  V30 6344 H 619.462 -0.0831062 3.77809 0
M  V30 6345 H 619.775 0.455739 7.71455 0
M  V30 6346 H 618.12 0.40292 6.93831 0
M  V30 6347 H 621.311 -0.0186928 4.68096 0
M  V30 6348 H 621.484 0.226797 6.47603 0
M  V30 6349 N 614.89 -1.56749 -0.16351 0
M  V30 6350 C 616.138 -1.82074 -0.87713 0
M  V30 6351 C 616.459 -0.688503 -1.82441 0
M  V30 6352 O 615.729 0.291085 -1.93725 0
M  V30 6353 H 614.309 -0.671677 -0.326893 0
M  V30 6354 H 616.971 -1.9423 -0.161459 0
M  V30 6355 H 616.067 -2.76407 -1.44934 0
M  V30 6356 N 616.368 0.432326 -1.51554 0
M  V30 6357 C 617.278 1.55023 -1.76082 0
M  V30 6358 C 618.294 1.61593 -0.645265 0
M  V30 6359 O 619.47 1.78742 -0.928086 0
M  V30 6360 C 616.535 2.90964 -1.88523 0
M  V30 6361 C 615.596 2.9447 -3.12388 0
M  V30 6362 C 614.829 4.23926 -3.24225 0
M  V30 6363 O 615.052 5.16576 -2.4188 0
M  V30 6364 O 613.986 4.33818 -4.17235 0
M  V30 6365 H 617.812 1.37238 -2.70923 0
M  V30 6366 H 615.397 0.615845 -1.36117 0
M  V30 6367 H 617.279 3.71633 -1.98662 0
M  V30 6368 H 615.954 3.08865 -0.9687 0
M  V30 6369 H 614.861 2.12737 -3.07723 0
M  V30 6370 H 616.194 2.81514 -4.03746 0
M  V30 6371 N 617.846 1.41785 0.688094 0
M  V30 6372 C 618.776 1.47 1.8142 0
M  V30 6373 C 619.757 0.327881 1.6691 0
M  V30 6374 O 620.942 0.540362 1.86531 0
M  V30 6375 C 618.072 1.35876 3.19617 0
M  V30 6376 C 617.026 2.47976 3.48844 0
M  V30 6377 C 616.352 2.21915 4.86475 0
M  V30 6378 C 617.652 3.90309 3.47068 0
M  V30 6379 H 619.346 2.41247 1.77314 0
M  V30 6380 H 616.892 1.16116 0.851651 0
M  V30 6381 H 618.845 1.38134 3.98117 0
M  V30 6382 H 617.569 0.38116 3.24368 0
M  V30 6383 H 616.228 2.45013 2.72698 0
M  V30 6384 H 615.876 1.2248 4.8786 0
M  V30 6385 H 615.576 2.97037 5.06994 0
M  V30 6386 H 617.1 2.25901 5.67275 0
M  V30 6387 H 618.514 3.94947 4.1556 0
M  V30 6388 H 616.911 4.65175 3.7912 0
M  V30 6389 H 617.981 4.17927 2.45896 0
M  V30 6390 N 619.324 -0.923095 1.27737 0
M  V30 6391 C 620.271 -2.02432 1.1086 0
M  V30 6392 C 621.241 -1.66098 0.00835195 0
M  V30 6393 O 622.426 -1.90027 0.171542 0
M  V30 6394 C 619.566 -3.36476 0.766671 0
M  V30 6395 C 618.679 -3.85737 1.94501 0
M  V30 6396 C 617.814 -5.08249 1.54455 0
M  V30 6397 C 616.853 -5.49818 2.6901 0
M  V30 6398 N 615.99 -6.63524 2.29521 0
M  V30 6399 H 620.83 -2.16201 2.05089 0
M  V30 6400 H 618.367 -1.05909 1.02087 0
M  V30 6401 H 620.325 -4.13569 0.549223 0
M  V30 6402 H 618.955 -3.22502 -0.13867 0
M  V30 6403 H 618.007 -3.04883 2.27487 0
M  V30 6404 H 619.319 -4.12513 2.80419 0
M  V30 6405 H 618.473 -5.92857 1.28862 0
M  V30 6406 H 617.212 -4.83261 0.656534 0
M  V30 6407 H 616.217 -4.63757 2.95313 0
M  V30 6408 H 617.442 -5.76799 3.5844 0
M  V30 6409 H 615.388 -6.40185 1.43177 0
M  V30 6410 H 615.305 -6.89978 3.08977 0
M  V30 6411 H 616.573 -7.51461 2.07187 0
M  V30 6412 N 620.802 -1.09834 -1.13024 0
M  V30 6413 C 622.079 -0.749225 -1.80682 0
M  V30 6414 C 622.459 0.765171 -1.96744 0
M  V30 6415 O 621.807 1.68912 -1.53886 0
M  V30 6416 C 622.017 -1.49311 -3.15448 0
M  V30 6417 C 623.365 -1.66162 -3.90737 0
M  V30 6418 O 624.389 -1.45597 -3.25085 0
M  V30 6419 O 623.248 -2.00211 -5.08505 0
M  V30 6420 H 620.342 -0.269614 -0.781817 0
M  V30 6421 H 622.888 -1.20078 -1.19914 0
M  V30 6422 H 621.66 -2.52407 -2.99009 0
M  V30 6423 H 621.283 -1.034 -3.8392 0
M  V30 6424 N 622.28 1.30327 -0.886154 0
M  V30 6425 C 623.529 1.95373 -0.501243 0
M  V30 6426 C 623.842 1.70722 0.954634 0
M  V30 6427 O 625.048 2.29761 1.44644 0
M  V30 6428 C 623.504 3.49828 -0.845493 0
M  V30 6429 C 623.112 3.83296 -2.31922 0
M  V30 6430 C 624.856 4.2118 -0.529838 0
M  V30 6431 C 622.763 5.30935 -2.60504 0
M  V30 6432 H 621.693 0.731274 -0.183722 0
M  V30 6433 H 624.344 1.48258 -1.08129 0
M  V30 6434 H 622.726 3.95522 -0.19452 0
M  V30 6435 H 623.9 3.48508 -3.01461 0
M  V30 6436 H 622.215 3.2505 -2.60253 0
M  V30 6437 H 624.812 5.29825 -0.720401 0
M  V30 6438 H 625.155 4.12902 0.530828 0
M  V30 6439 H 625.688 3.81173 -1.13806 0
M  V30 6440 H 622.427 5.44265 -3.65316 0
M  V30 6441 H 621.947 5.67019 -1.95575 0
M  V30 6442 H 623.626 5.98381 -2.46066 0
M  V30 6443 N 623.758 0.647228 1.43697 0
M  V30 6444 C 624.688 -0.0345631 2.33474 0
M  V30 6445 C 625.669 -0.818193 1.4913 0
M  V30 6446 O 626.854 -0.780867 1.77809 0
M  V30 6447 C 623.984 -1.00576 3.32418 0
M  V30 6448 C 622.938 -0.33266 4.26705 0
M  V30 6449 C 622.264 -1.41489 5.1564 0
M  V30 6450 C 623.564 0.771204 5.16575 0
M  V30 6451 H 625.258 0.715163 2.90733 0
M  V30 6452 H 622.804 0.345364 1.39797 0
M  V30 6453 H 624.757 -1.49159 3.94119 0
M  V30 6454 H 623.481 -1.78657 2.73403 0
M  V30 6455 H 622.14 0.13267 3.6636 0
M  V30 6456 H 621.788 -2.18698 4.52968 0
M  V30 6457 H 621.488 -0.969799 5.79542 0
M  V30 6458 H 623.012 -1.9022 5.80214 0
M  V30 6459 H 624.426 0.36779 5.72119 0
M  V30 6460 H 622.823 1.1404 5.89165 0
M  V30 6461 H 623.893 1.63169 4.56622 0
M  V30 6462 N 625.236 -1.5273 0.388769 0
M  V30 6463 C 626.146 -2.30165 -0.453993 0
M  V30 6464 C 627.162 -1.37058 -1.07197 0
M  V30 6465 O 628.338 -1.70127 -1.0779 0
M  V30 6466 C 625.403 -3.09303 -1.56628 0
M  V30 6467 C 624.464 -4.18117 -0.973467 0
M  V30 6468 C 623.697 -4.93472 -2.03275 0
M  V30 6469 O 623.92 -4.68913 -3.24772 0
M  V30 6470 O 622.854 -5.78833 -1.65034 0
M  V30 6471 H 626.68 -3.03185 0.176816 0
M  V30 6472 H 624.265 -1.4862 0.152501 0
M  V30 6473 H 626.147 -3.58648 -2.21246 0
M  V30 6474 H 624.822 -2.39098 -2.18206 0
M  V30 6475 H 623.729 -3.7297 -0.290556 0
M  V30 6476 H 625.062 -4.90556 -0.401908 0
M  V30 6477 N 626.714 -0.118576 -1.57153 0
M  V30 6478 C 627.991 0.583062 -1.86708 0
M  V30 6479 C 628.371 1.84841 -1.01967 0
M  V30 6480 O 627.719 2.28288 -0.0984673 0
M  V30 6481 C 627.929 0.875912 -3.3783 0
M  V30 6482 C 629.277 1.22916 -4.0642 0
M  V30 6483 O 630.301 0.966188 -3.42846 0
M  V30 6484 O 629.16 1.72269 -5.18638 0
M  V30 6485 H 626.254 0.294185 -0.772906 0
M  V30 6486 H 628.8 -0.153048 -1.69008 0
M  V30 6487 H 627.572 -0.0207776 -3.91294 0
M  V30 6488 H 627.195 1.66719 -3.60958 0
M  V30 6489 N 628.193 1.56834 0.155195 0
M  V30 6490 C 629.439 1.84058 0.865687 0
M  V30 6491 C 629.794 0.701418 1.79159 0
M  V30 6492 O 629.087 -0.301162 1.89218 0
M  V30 6493 C 629.281 3.15239 1.68402 0
M  V30 6494 C 629.11 4.41807 0.838847 0
M  V30 6495 C 627.88 5.02744 0.507645 0
M  V30 6496 C 630.078 5.14009 0.172946 0
M  V30 6497 N 628.06 6.1289 -0.351978 0
M  V30 6498 C 629.431 6.17581 -0.547158 0
M  V30 6499 C 631.486 4.97814 0.0927721 0
M  V30 6500 C 630.189 7.06711 -1.33985 0
M  V30 6501 C 632.215 5.874 -0.686638 0
M  V30 6502 C 631.577 6.90447 -1.39505 0
M  V30 6503 H 627.676 0.724276 0.294871 0
M  V30 6504 H 630.26 1.94255 0.131583 0
M  V30 6505 H 628.431 3.06205 2.38942 0
M  V30 6506 H 630.163 3.304 2.33705 0
M  V30 6507 H 626.918 4.66064 0.841517 0
M  V30 6508 H 627.342 6.72577 -0.772573 0
M  V30 6509 H 631.984 4.18138 0.626112 0
M  V30 6510 H 629.702 7.8582 -1.88448 0
M  V30 6511 H 633.288 5.76938 -0.750555 0
M  V30 6512 H 632.168 7.58571 -1.98847 0
M  V30 6513 N 629.671 -0.424282 1.51781 0
M  V30 6514 C 630.601 -1.52305 1.7699 0
M  V30 6515 C 631.582 -1.5839 0.620209 0
M  V30 6516 O 632.767 -1.73908 0.864268 0
M  V30 6517 C 629.897 -2.90271 1.90683 0
M  V30 6518 C 628.851 -2.99043 3.06198 0
M  V30 6519 C 628.177 -4.39116 3.05092 0
M  V30 6520 C 629.477 -2.7192 4.45934 0
M  V30 6521 H 631.171 -1.31461 2.68995 0
M  V30 6522 H 628.717 -0.630985 1.29439 0
M  V30 6523 H 630.67 -3.6711 2.06901 0
M  V30 6524 H 629.394 -3.12376 0.953365 0
M  V30 6525 H 628.053 -2.24646 2.89706 0
M  V30 6526 H 627.701 -4.58207 2.07498 0
M  V30 6527 H 627.401 -4.45912 3.82669 0
M  V30 6528 H 628.925 -5.17911 3.2342 0
M  V30 6529 H 630.339 -3.38487 4.62709 0
M  V30 6530 H 628.736 -2.90111 5.25315 0
M  V30 6531 H 629.806 -1.67445 4.55072 0
M  V30 6532 N 631.149 -1.42148 -0.680565 0
M  V30 6533 C 632.081 -1.41119 -1.80605 0
M  V30 6534 C 633.094 -0.311099 -1.598 0
M  V30 6535 O 634.283 -0.573813 -1.69026 0
M  V30 6536 C 631.383 -1.18204 -3.17618 0
M  V30 6537 C 630.556 -2.40537 -3.65322 0
M  V30 6538 C 629.615 -2.13254 -4.8105 0
M  V30 6539 O 628.641 -2.8641 -4.91892 0
M  V30 6540 N 629.843 -1.13208 -5.69354 0
M  V30 6541 H 632.608 -2.38128 -1.81975 0
M  V30 6542 H 630.169 -1.36953 -0.863446 0
M  V30 6543 H 632.161 -0.97878 -3.92686 0
M  V30 6544 H 630.731 -0.29738 -3.11182 0
M  V30 6545 H 629.951 -2.76468 -2.80996 0
M  V30 6546 H 631.239 -3.22012 -3.93936 0
M  V30 6547 H 630.637 -0.526893 -5.63241 0
M  V30 6548 H 629.194 -0.988699 -6.44258 0
M  V30 6549 N 632.627 0.916307 -1.28225 0
M  V30 6550 C 633.59 1.99996 -1.11957 0
M  V30 6551 C 634.59 1.60688 -0.0600152 0
M  V30 6552 O 635.78 1.71499 -0.30558 0
M  V30 6553 C 632.912 3.33458 -0.708411 0
M  V30 6554 H 634.105 2.15858 -2.08196 0
M  V30 6555 H 631.658 1.09863 -1.11175 0
M  V30 6556 H 632.393 3.23297 0.254859 0
M  V30 6557 H 632.178 3.63349 -1.47377 0
M  V30 6558 H 633.668 4.13014 -0.617164 0
M  V30 6559 N 634.105 1.10431 1.1244 0
M  V30 6560 C 635.333 0.868872 1.87772 0
M  V30 6561 C 635.748 -0.580645 1.7965 0
M  V30 6562 O 635.105 -1.40031 1.17036 0
M  V30 6563 C 635.156 1.30855 3.36986 0
M  V30 6564 O 634.877 2.70123 3.44914 0
M  V30 6565 C 636.378 1.107 4.29256 0
M  V30 6566 H 633.598 0.311868 0.59412 0
M  V30 6567 H 636.142 1.46897 1.42273 0
M  V30 6568 H 634.297 0.752126 3.80029 0
M  V30 6569 H 634.711 2.88923 4.37748 0
M  V30 6570 H 636.185 1.46378 5.32238 0
M  V30 6571 H 636.662 0.0456228 4.39176 0
M  V30 6572 H 637.268 1.64988 3.91994 0
M  V30 6573 N 635.583 -1.29855 0.893053 0
M  V30 6574 C 636.531 -2.29867 0.355512 0
M  V30 6575 C 637.525 -1.60502 -0.541801 0
M  V30 6576 O 638.731 -1.74902 -0.425339 0
M  V30 6577 H 635.106 -0.745805 0.0963247 0
M  V30 6578 H 637.077 -2.72655 1.21252 0
M  V30 6579 C 635.826 -3.453 -0.407801 0
M  V30 6580 H 635.149 -3.98864 0.273426 0
M  V30 6581 H 636.589 -4.17334 -0.748887 0
M  V30 6582 C 635.048 -2.96051 -1.60795 0
M  V30 6583 O 635.578 -2.96763 -2.7073 0
M  V30 6584 N 633.784 -2.51963 -1.44786 0
M  V30 6585 H 633.331 -2.51583 -0.553498 0
M  V30 6586 H 633.289 -2.1937 -2.2522 0
M  V30 6587 N 637.061 -0.65484 -1.43351 0
M  V30 6588 C 638.024 0.0263562 -2.29185 0
M  V30 6589 C 639.024 0.748951 -1.42293 0
M  V30 6590 O 640.214 0.589957 -1.63906 0
M  V30 6591 C 637.346 1.04806 -3.2439 0
M  V30 6592 H 638.539 -0.728883 -2.90908 0
M  V30 6593 H 636.092 -0.416149 -1.50658 0
M  V30 6594 H 636.827 1.83247 -2.67565 0
M  V30 6595 H 636.612 0.533554 -3.88453 0
M  V30 6596 H 638.102 1.52372 -3.88809 0
M  V30 6597 N 638.539 1.52521 -0.396863 0
M  V30 6598 C 639.764 2.06571 0.185258 0
M  V30 6599 C 640.189 1.26605 1.39115 0
M  V30 6600 O 639.547 0.293055 1.78916 0
M  V30 6601 C 639.595 3.5674 0.526189 0
M  V30 6602 O 638.699 3.7929 1.61903 0
M  V30 6603 H 638.04 0.663712 0.0195474 0
M  V30 6604 H 640.57 1.966 -0.566519 0
M  V30 6605 H 640.58 4.00311 0.788338 0
M  V30 6606 H 639.255 4.14379 -0.355397 0
M  V30 6607 H 637.832 3.47605 1.35 0
M  V30 6608 N 640.017 0.126909 1.57088 0
M  V30 6609 C 641.265 -0.528123 1.95078 0
M  V30 6610 C 641.586 -1.66708 1.0116 0
M  V30 6611 O 640.856 -1.95777 0.0693527 0
M  V30 6612 H 639.436 -0.198087 0.720257 0
M  V30 6613 H 642.098 0.197703 1.93895 0
M  V30 6614 H 641.194 -0.917507 2.98309 0
M  V30 6615 N 641.495 -1.56914 -0.146875 0
M  V30 6616 C 642.427 -1.94878 -1.20645 0
M  V30 6617 C 643.44 -0.844633 -1.39175 0
M  V30 6618 O 644.629 -1.12304 -1.38744 0
M  V30 6619 C 641.729 -2.20769 -2.57127 0
M  V30 6620 C 640.902 -3.52053 -2.59572 0
M  V30 6621 C 639.961 -3.66482 -3.77594 0
M  V30 6622 O 638.987 -4.38873 -3.62462 0
M  V30 6623 N 640.189 -3.03156 -4.95052 0
M  V30 6624 H 642.954 -2.86374 -0.883757 0
M  V30 6625 H 640.515 -1.58366 -0.336436 0
M  V30 6626 H 642.507 -2.27664 -3.34591 0
M  V30 6627 H 641.077 -1.35538 -2.81688 0
M  V30 6628 H 640.297 -3.56598 -1.68023 0
M  V30 6629 H 641.585 -4.38396 -2.58238 0
M  V30 6630 H 640.983 -2.44258 -5.10249 0
M  V30 6631 H 639.54 -3.15611 -5.70292 0
M  V30 6632 N 642.974 0.416227 -1.52004 0
M  V30 6633 C 643.904 1.51365 -1.77795 0
M  V30 6634 C 644.885 1.58059 -0.628601 0
M  V30 6635 O 646.07 1.73447 -0.873478 0
M  V30 6636 C 643.2 2.89256 -1.92219 0
M  V30 6637 C 642.154 2.97415 -3.0778 0
M  V30 6638 C 641.48 4.37492 -3.07417 0
M  V30 6639 C 642.78 2.69551 -4.47369 0
M  V30 6640 H 644.474 1.30033 -2.69688 0
M  V30 6641 H 642.02 0.624112 -1.29772 0
M  V30 6642 H 643.973 3.66008 -2.08845 0
M  V30 6643 H 642.697 3.11866 -0.969917 0
M  V30 6644 H 641.356 2.23107 -2.90893 0
M  V30 6645 H 641.004 4.571 -2.09925 0
M  V30 6646 H 640.704 4.43877 -3.85029 0
M  V30 6647 H 642.228 5.16188 -3.26162 0
M  V30 6648 H 643.642 3.36028 -4.64497 0
M  V30 6649 H 642.039 2.87321 -5.26846 0
M  V30 6650 H 643.109 1.65029 -4.55953 0
M  V30 6651 N 644.452 1.42507 0.673017 0
M  V30 6652 C 645.399 1.46124 1.78651 0
M  V30 6653 C 646.369 0.313007 1.63124 0
M  V30 6654 O 647.554 0.517337 1.83653 0
M  V30 6655 C 644.694 1.3711 3.16694 0
M  V30 6656 C 643.807 2.61983 3.43495 0
M  V30 6657 C 642.942 2.45098 4.71275 0
M  V30 6658 C 641.981 3.65336 4.91117 0
M  V30 6659 N 641.118 3.47383 6.10139 0
M  V30 6660 H 645.958 2.4128 1.74895 0
M  V30 6661 H 643.495 1.19788 0.853766 0
M  V30 6662 H 645.453 1.29881 3.96468 0
M  V30 6663 H 644.083 0.45549 3.1957 0
M  V30 6664 H 643.135 2.79571 2.57961 0
M  V30 6665 H 644.447 3.51355 3.5405 0
M  V30 6666 H 643.601 2.35466 5.59143 0
M  V30 6667 H 642.34 1.53219 4.63007 0
M  V30 6668 H 641.345 3.754 4.0169 0
M  V30 6669 H 642.57 4.58199 5.01229 0
M  V30 6670 H 640.516 2.58222 6.0304 0
M  V30 6671 H 640.433 4.30344 6.21563 0
M  V30 6672 H 641.701 3.41565 7.00681 0
M  V30 6673 N 645.93 -0.909495 1.28709 0
M  V30 6674 C 647.178 -1.65577 1.15882 0
M  V30 6675 C 647.499 -1.928 -0.292108 0
M  V30 6676 O 646.769 -1.54716 -1.20166 0
M  V30 6677 H 645.349 -0.613714 0.425869 0
M  V30 6678 H 648.011 -1.09108 1.61498 0
M  V30 6679 H 647.107 -2.61634 1.70159 0
M  V30 6680 N 647.408 -1.11026 -1.11852 0
M  V30 6681 C 648.355 -0.764662 -2.17765 0
M  V30 6682 C 649.325 0.261854 -1.64023 0
M  V30 6683 O 650.51 0.139748 -1.90288 0
M  V30 6684 C 647.65 -0.209317 -3.44465 0
M  V30 6685 C 646.763 -1.29187 -4.12231 0
M  V30 6686 C 645.898 -0.697523 -5.266 0
M  V30 6687 C 644.937 -1.76023 -5.86244 0
M  V30 6688 N 644.074 -1.18569 -6.92016 0
M  V30 6689 H 648.914 -1.67202 -2.46673 0
M  V30 6690 H 646.451 -0.835065 -1.21099 0
M  V30 6691 H 648.409 0.130599 -4.16996 0
M  V30 6692 H 647.039 0.661251 -3.15955 0
M  V30 6693 H 646.091 -1.74881 -3.37818 0
M  V30 6694 H 647.403 -2.09607 -4.52622 0
M  V30 6695 H 646.557 -0.307412 -6.05921 0
M  V30 6696 H 645.296 0.138044 -4.87505 0
M  V30 6697 H 644.301 -2.1597 -5.05606 0
M  V30 6698 H 645.526 -2.59875 -6.27409 0
M  V30 6699 H 643.472 -0.371695 -6.54946 0
M  V30 6700 H 643.389 -1.92666 -7.31038 0
M  V30 6701 H 644.657 -0.82233 -7.7515 0
M  V30 6702 N 648.886 1.2938 -0.899927 0
M  V30 6703 C 649.834 2.29675 -0.367698 0
M  V30 6704 C 650.828 1.60787 0.533282 0
M  V30 6705 O 652.034 1.75126 0.416058 0
M  V30 6706 H 648.409 0.745284 -0.100279 0
M  V30 6707 H 650.38 2.72008 -1.22696 0
M  V30 6708 C 649.129 3.45512 0.389483 0
M  V30 6709 H 648.452 3.98713 -0.294575 0
M  V30 6710 H 649.892 4.17725 0.726744 0
M  V30 6711 C 648.351 2.969 1.59223 0
M  V30 6712 O 648.881 2.98195 2.69152 0
M  V30 6713 N 647.087 2.52728 1.43447 0
M  V30 6714 H 646.634 2.51873 0.540148 0
M  V30 6715 H 646.592 2.20561 2.24054 0
M  V30 6716 N 650.364 0.662433 1.43002 0
M  V30 6717 C 651.294 -0.00979809 2.33498 0
M  V30 6718 C 652.275 -0.802329 1.49989 0
M  V30 6719 O 653.46 -0.761964 1.78627 0
M  V30 6720 C 650.59 -0.970446 3.33466 0
M  V30 6721 C 649.544 -0.287383 4.27034 0
M  V30 6722 C 648.87 -1.36012 5.17112 0
M  V30 6723 C 650.17 0.82595 5.15728 0
M  V30 6724 H 651.864 0.745959 2.89958 0
M  V30 6725 H 649.41 0.360172 1.39423 0
M  V30 6726 H 651.363 -1.44971 3.95679 0
M  V30 6727 H 650.087 -1.75748 2.75282 0
M  V30 6728 H 648.746 0.17152 3.66199 0
M  V30 6729 H 648.394 -2.13882 4.55262 0
M  V30 6730 H 648.094 -0.908276 5.80538 0
M  V30 6731 H 649.618 -1.84056 5.82199 0
M  V30 6732 H 651.032 0.42845 5.71697 0
M  V30 6733 H 649.429 1.20282 5.87922 0
M  V30 6734 H 650.499 1.68003 4.54866 0
M  V30 6735 N 651.842 -1.52309 0.404946 0
M  V30 6736 C 653.089 -2.01767 -0.1722 0
M  V30 6737 C 653.417 -1.29075 -1.45498 0
M  V30 6738 O 652.672 -0.3843 -1.9189 0
M  V30 6739 C 652.971 -3.54284 -0.470895 0
M  V30 6740 C 652.637 -4.45079 0.722194 0
M  V30 6741 C 651.299 -4.69617 1.04946 0
M  V30 6742 C 653.651 -4.98555 1.51962 0
M  V30 6743 C 650.979 -5.44878 2.17543 0
M  V30 6744 C 653.331 -5.75049 2.63632 0
M  V30 6745 C 651.995 -5.9786 2.9685 0
M  V30 6746 H 651.265 -0.738316 -0.0630125 0
M  V30 6747 H 653.912 -1.83566 0.545506 0
M  V30 6748 H 652.217 -3.70642 -1.27012 0
M  V30 6749 H 653.914 -3.90058 -0.930346 0
M  V30 6750 H 650.504 -4.26155 0.457131 0
M  V30 6751 H 654.688 -4.79509 1.28002 0
M  V30 6752 H 649.944 -5.60762 2.43631 0
M  V30 6753 H 654.118 -6.15483 3.25813 0
M  V30 6754 H 651.745 -6.5596 3.84215 0
M  V30 6755 N 653.32 -0.135238 -1.57019 0
M  V30 6756 C 654.55 0.525303 -1.9981 0
M  V30 6757 C 654.958 1.59724 -1.01415 0
M  V30 6758 O 654.301 1.837 -0.00130938 0
M  V30 6759 C 654.363 1.19578 -3.3903 0
M  V30 6760 C 654.027 0.269855 -4.56203 0
M  V30 6761 C 655.024 -0.497905 -5.1751 0
M  V30 6762 C 652.709 0.176188 -5.01991 0
M  V30 6763 C 654.703 -1.3469 -6.23007 0
M  V30 6764 C 652.39 -0.676422 -6.07345 0
M  V30 6765 C 653.388 -1.43658 -6.67721 0
M  V30 6766 O 653.076 -2.27501 -7.71037 0
M  V30 6767 H 652.808 0.142296 -0.660854 0
M  V30 6768 H 655.362 -0.223272 -2.04183 0
M  V30 6769 H 653.592 1.99176 -3.3146 0
M  V30 6770 H 655.281 1.75486 -3.66005 0
M  V30 6771 H 656.047 -0.435507 -4.83041 0
M  V30 6772 H 651.926 0.757583 -4.54733 0
M  V30 6773 H 655.47 -1.9407 -6.70062 0
M  V30 6774 H 651.367 -0.740154 -6.41243 0
M  V30 6775 H 652.135 -2.20619 -7.88206 0
M  V30 6776 N 654.798 1.5699 0.138552 0
M  V30 6777 C 656.028 1.87704 0.863184 0
M  V30 6778 C 656.436 0.722411 1.74865 0
M  V30 6779 O 655.779 -0.316636 1.80951 0
M  V30 6780 C 655.841 3.13219 1.76449 0
M  V30 6781 C 655.505 4.44648 1.05532 0
M  V30 6782 C 656.502 5.18318 0.405252 0
M  V30 6783 C 654.187 4.91367 1.04231 0
M  V30 6784 C 656.181 6.36916 -0.24835 0
M  V30 6785 C 653.868 6.09887 0.384904 0
M  V30 6786 C 654.866 6.82508 -0.259292 0
M  V30 6787 O 654.554 7.98775 -0.906258 0
M  V30 6788 H 654.286 0.626255 0.254521 0
M  V30 6789 H 656.84 2.04966 0.133472 0
M  V30 6790 H 655.07 2.91988 2.53535 0
M  V30 6791 H 656.759 3.30111 2.36181 0
M  V30 6792 H 657.525 4.83289 0.407053 0
M  V30 6793 H 653.404 4.34759 1.53315 0
M  V30 6794 H 656.948 6.93538 -0.751755 0
M  V30 6795 H 652.845 6.44376 0.380799 0
M  V30 6796 H 653.613 8.14494 -0.80877 0
M  V30 6797 N 656.276 -0.40816 1.52223 0
M  V30 6798 C 657.224 -1.51788 1.76248 0
M  V30 6799 C 658.218 -1.57264 0.629638 0
M  V30 6800 O 659.424 -1.60659 0.811704 0
M  V30 6801 H 655.799 -0.504823 0.557367 0
M  V30 6802 H 657.77 -1.2871 2.69214 0
M  V30 6803 C 656.519 -2.89145 1.93107 0
M  V30 6804 H 655.842 -2.85674 2.79697 0
M  V30 6805 H 657.282 -3.66082 2.13916 0
M  V30 6806 C 655.741 -3.29581 0.698431 0
M  V30 6807 O 656.271 -4.01479 -0.133238 0
M  V30 6808 N 654.477 -2.85651 0.53405 0
M  V30 6809 H 654.024 -2.2731 1.21194 0
M  V30 6810 H 653.982 -3.13065 -0.289387 0
M  V30 6811 N 657.755 -1.42862 -0.66545 0
M  V30 6812 C 658.665 -1.49491 -1.80803 0
M  V30 6813 C 659.681 -0.382914 -1.69734 0
M  V30 6814 O 660.857 -0.635223 -1.9112 0
M  V30 6815 C 657.922 -1.40383 -3.17007 0
M  V30 6816 C 656.983 -2.62152 -3.39963 0
M  V30 6817 C 656.216 -2.53469 -4.69669 0
M  V30 6818 O 656.439 -1.57568 -5.48205 0
M  V30 6819 O 655.373 -3.43763 -4.94075 0
M  V30 6820 H 659.199 -2.45949 -1.78165 0
M  V30 6821 H 656.784 -1.24728 -0.822387 0
M  V30 6822 H 658.666 -1.377 -3.98267 0
M  V30 6823 H 657.341 -0.470546 -3.20262 0
M  V30 6824 H 656.248 -2.70409 -2.58515 0
M  V30 6825 H 657.581 -3.54411 -3.41546 0
M  V30 6826 N 659.233 0.902656 -1.29189 0
M  V30 6827 C 660.181 2.0278 -1.13943 0
M  V30 6828 C 661.175 1.69308 -0.055787 0
M  V30 6829 O 662.381 1.78707 -0.215371 0
M  V30 6830 H 658.756 0.664595 -0.351877 0
M  V30 6831 H 660.727 2.12778 -2.09208 0
M  V30 6832 C 659.476 3.37657 -0.82966 0
M  V30 6833 H 658.799 3.63913 -1.65551 0
M  V30 6834 H 660.239 4.17078 -0.762998 0
M  V30 6835 C 658.698 3.33648 0.466991 0
M  V30 6836 O 659.228 3.72886 1.49395 0
M  V30 6837 N 657.434 2.86745 0.471761 0
M  V30 6838 H 656.981 2.55009 -0.364406 0
M  V30 6839 H 656.939 2.84446 1.33933 0
M  V30 6840 N 660.711 1.11618 1.11262 0
M  V30 6841 C 661.957 0.877377 1.83504 0
M  V30 6842 C 662.312 -0.590606 1.83111 0
M  V30 6843 O 661.605 -1.43057 1.27456 0
M  V30 6844 C 661.799 1.37529 3.2988 0
M  V30 6845 C 661.628 2.89014 3.4453 0
M  V30 6846 C 660.398 3.57157 3.57445 0
M  V30 6847 C 662.596 3.8706 3.38658 0
M  V30 6848 N 660.578 4.96842 3.60585 0
M  V30 6849 C 661.949 5.12825 3.4844 0
M  V30 6850 C 664.004 3.79593 3.22201 0
M  V30 6851 C 662.707 6.32002 3.43462 0
M  V30 6852 C 664.733 4.98282 3.18542 0
M  V30 6853 C 664.095 6.22901 3.28897 0
M  V30 6854 H 660.194 0.37422 0.686646 0
M  V30 6855 H 662.778 1.42087 1.33114 0
M  V30 6856 H 660.949 0.85895 3.78783 0
M  V30 6857 H 662.681 1.07944 3.90039 0
M  V30 6858 H 659.436 3.07628 3.60086 0
M  V30 6859 H 659.86 5.69674 3.65788 0
M  V30 6860 H 664.502 2.84149 3.1308 0
M  V30 6861 H 662.22 7.27721 3.51352 0
M  V30 6862 H 665.806 4.94226 3.06972 0
M  V30 6863 H 664.686 7.13202 3.26056 0
M  V30 6864 N 662.189 -1.289 0.906776 0
M  V30 6865 C 663.437 -1.94883 0.535266 0
M  V30 6866 C 663.758 -1.71784 -0.922791 0
M  V30 6867 O 663.028 -1.05359 -1.65156 0
M  V30 6868 H 661.608 -0.721109 0.194962 0
M  V30 6869 H 664.27 -1.57018 1.15461 0
M  V30 6870 H 663.366 -3.03591 0.723821 0
M  V30 6871 N 663.667 -0.670007 -1.42649 0
M  V30 6872 C 664.895 -0.19854 -2.05945 0
M  V30 6873 C 665.31 1.14243 -1.50313 0
M  V30 6874 O 664.667 1.70872 -0.641027 0
M  V30 6875 C 664.718 -0.11966 -3.61302 0
M  V30 6876 O 664.439 -1.40764 -4.1487 0
M  V30 6877 C 665.94 0.375878 -4.41704 0
M  V30 6878 H 663.16 -0.0976894 -0.663851 0
M  V30 6879 H 665.704 -0.915392 -1.82868 0
M  V30 6880 H 663.859 0.547851 -3.83507 0
M  V30 6881 H 664.273 -1.27784 -5.08696 0
M  V30 6882 H 665.747 0.379988 -5.50691 0
M  V30 6883 H 666.224 1.41028 -4.15942 0
M  V30 6884 H 666.83 -0.259727 -4.24506 0
M  V30 6885 N 665.145 1.52092 -0.413018 0
M  V30 6886 C 666.394 2.01041 0.16287 0
M  V30 6887 C 666.707 1.30288 1.45892 0
M  V30 6888 O 667.913 1.70075 2.11629 0
M  V30 6889 C 666.369 3.58283 0.340806 0
M  V30 6890 C 665.977 4.37955 -0.943377 0
M  V30 6891 C 667.721 4.15452 0.871774 0
M  V30 6892 C 665.628 5.86847 -0.732417 0
M  V30 6893 H 664.558 0.751224 0.0646414 0
M  V30 6894 H 667.209 1.75404 -0.539059 0
M  V30 6895 H 665.591 3.80266 1.10516 0
M  V30 6896 H 666.765 4.2773 -1.71418 0
M  V30 6897 H 665.08 3.92122 -1.40105 0
M  V30 6898 H 667.677 5.24375 1.0457 0
M  V30 6899 H 668.02 3.73057 1.84755 0
M  V30 6900 H 668.553 3.97452 0.166377 0
M  V30 6901 H 665.292 6.33609 -1.67986 0
M  V30 6902 H 664.812 5.998 -0.000980058 0
M  V30 6903 H 666.491 6.45906 -0.376105 0
M  V30 6904 N 666.623 0.143563 1.56945 0
M  V30 6905 C 667.553 -0.7936 2.196 0
M  V30 6906 C 668.534 -1.25955 1.14321 0
M  V30 6907 O 669.719 -1.31773 1.42651 0
M  V30 6908 C 666.849 -2.03424 2.81489 0
M  V30 6909 C 665.803 -1.70519 3.92565 0
M  V30 6910 C 665.129 -3.01817 4.41373 0
M  V30 6911 C 666.429 -0.95449 5.13504 0
M  V30 6912 H 668.123 -0.271423 2.98167 0
M  V30 6913 H 665.669 -0.12911 1.4342 0
M  V30 6914 H 667.622 -2.69463 3.23987 0
M  V30 6915 H 666.346 -2.58008 2.00248 0
M  V30 6916 H 665.005 -1.06859 3.5068 0
M  V30 6917 H 664.653 -3.54386 3.56959 0
M  V30 6918 H 664.353 -2.80565 5.16292 0
M  V30 6919 H 665.877 -3.68934 4.86539 0
M  V30 6920 H 667.291 -1.5169 5.52868 0
M  V30 6921 H 665.688 -0.842035 5.94163 0
M  V30 6922 H 666.758 0.0544033 4.84869 0
M  V30 6923 N 668.101 -1.57061 -0.130224 0
M  V30 6924 C 669.349 -1.83893 -0.838313 0
M  V30 6925 C 669.67 -0.727046 -1.80939 0
M  V30 6926 O 668.94 0.249927 -1.94299 0
M  V30 6927 H 667.52 -0.67846 -0.312573 0
M  V30 6928 H 670.182 -1.94529 -0.120224 0
M  V30 6929 H 669.278 -2.79419 -1.39038 0
M  V30 6930 N 669.579 0.400081 -1.52437 0
M  V30 6931 C 670.809 1.16598 -1.70553 0
M  V30 6932 C 671.217 1.8451 -0.418665 0
M  V30 6933 O 670.56 1.73069 0.615855 0
M  V30 6934 C 670.622 2.26517 -2.7916 0
M  V30 6935 C 670.286 1.78666 -4.20628 0
M  V30 6936 C 671.283 1.26946 -5.04163 0
M  V30 6937 C 668.968 1.85225 -4.66902 0
M  V30 6938 C 670.962 0.824187 -6.32049 0
M  V30 6939 C 668.649 1.40309 -5.94774 0
M  V30 6940 C 669.647 0.889922 -6.77178 0
M  V30 6941 O 669.335 0.447281 -8.02655 0
M  V30 6942 H 669.067 0.356023 -0.574651 0
M  V30 6943 H 671.621 0.475598 -1.99818 0
M  V30 6944 H 669.851 2.98946 -2.45292 0
M  V30 6945 H 671.54 2.88237 -2.85787 0
M  V30 6946 H 672.306 1.21244 -4.69601 0
M  V30 6947 H 668.185 2.24111 -4.02859 0
M  V30 6948 H 671.729 0.422958 -6.96317 0
M  V30 6949 H 667.626 1.45693 -6.28843 0
M  V30 6950 H 668.394 0.569768 -8.16514 0
M  V30 6951 N 671.057 1.43213 0.657864 0
M  V30 6952 C 672.007 1.44459 1.76396 0
M  V30 6953 C 672.991 0.313641 1.57814 0
M  V30 6954 O 674.183 0.557094 1.68004 0
M  V30 6955 C 671.312 1.36586 3.14959 0
M  V30 6956 C 670.398 2.54692 3.39106 0
M  V30 6957 N 670.789 3.80059 3.33749 0
M  V30 6958 C 669.087 2.49316 3.69807 0
M  V30 6959 C 669.788 4.58606 3.57849 0
M  V30 6960 N 668.764 3.89267 3.79437 0
M  V30 6961 H 672.566 2.39265 1.70673 0
M  V30 6962 H 670.08 1.378 0.859357 0
M  V30 6963 H 672.077 1.35561 3.94245 0
M  V30 6964 H 670.737 0.427956 3.21867 0
M  V30 6965 H 671.748 4.12414 3.13266 0
M  V30 6966 H 668.425 1.6419 3.83859 0
M  V30 6967 H 669.815 5.67619 3.59525 0
M  V30 6968 N 672.536 -0.895792 1.29666 0
M  V30 6969 C 673.499 -1.98189 1.15124 0
M  V30 6970 C 674.499 -1.60572 0.0855717 0
M  V30 6971 O 675.689 -1.70991 0.332826 0
M  V30 6972 C 672.821 -3.32289 0.761372 0
M  V30 6973 H 674.014 -2.12518 2.11603 0
M  V30 6974 H 671.567 -1.0808 1.12908 0
M  V30 6975 H 672.302 -3.23662 -0.203393 0
M  V30 6976 H 672.087 -3.60958 1.53139 0
M  V30 6977 H 673.577 -4.1198 0.682792 0
M  V30 6978 N 674.014 -1.12206 -1.10668 0
M  V30 6979 C 674.977 -0.790867 -2.15123 0
M  V30 6980 C 675.977 0.193618 -1.5963 0
M  V30 6981 O 677.167 -0.0318728 -1.74171 0
M  V30 6982 C 674.299 -0.174797 -3.40452 0
M  V30 6983 H 675.492 -1.7163 -2.45933 0
M  V30 6984 H 673.045 -0.924993 -1.2599 0
M  V30 6985 H 673.78 0.760478 -3.15257 0
M  V30 6986 H 673.565 -0.88358 -3.82015 0
M  V30 6987 H 675.055 0.0405162 -4.1758 0
M  V30 6988 N 675.492 1.28418 -0.913599 0
M  V30 6989 C 676.442 2.24928 -0.373042 0
M  V30 6990 C 677.426 1.52444 0.514753 0
M  V30 6991 O 678.618 1.73414 0.3545 0
M  V30 6992 C 675.747 3.41124 0.385896 0
M  V30 6993 C 674.833 4.20929 -0.51761 0
M  V30 6994 N 675.224 4.78777 -1.63113 0
M  V30 6995 C 673.522 4.44865 -0.317969 0
M  V30 6996 C 674.223 5.38822 -2.19193 0
M  V30 6997 N 673.199 5.22974 -1.48321 0
M  V30 6998 H 677.001 2.67224 -1.22346 0
M  V30 6999 H 674.515 1.43187 -0.766236 0
M  V30 7000 H 676.512 4.09347 0.789997 0
M  V30 7001 H 675.172 3.00362 1.23341 0
M  V30 7002 H 676.183 4.77148 -2.01372 0
M  V30 7003 H 672.86 4.14614 0.49004 0
M  V30 7004 H 674.25 5.94615 -3.12861 0
M  V30 7005 N 676.97 0.677563 1.42291 0
M  V30 7006 C 678.195 0.207901 2.06355 0
M  V30 7007 C 678.62 -1.12723 1.50583 0
M  V30 7008 O 677.978 -1.70171 0.62543 0
M  V30 7009 C 678.026 0.156489 3.6026 0
M  V30 7010 O 677.13 -0.874162 4.03029 0
M  V30 7011 H 676.471 0.106056 0.655475 0
M  V30 7012 H 679.001 0.927354 1.82377 0
M  V30 7013 H 679.011 -0.0187258 4.07996 0
M  V30 7014 H 677.686 1.13101 4.00226 0
M  V30 7015 H 676.263 -0.669764 3.66836 0
M  V30 7016 N 678.448 -1.51871 0.421078 0
M  V30 7017 C 679.673 -2.0684 -0.152371 0
M  V30 7018 C 680.098 -1.28802 -1.37083 0
M  V30 7019 O 679.456 -0.321482 -1.78427 0
M  V30 7020 C 679.504 -3.57532 -0.469368 0
M  V30 7021 O 678.608 -3.81818 -1.55848 0
M  V30 7022 H 677.949 -0.663939 -0.00898586 0
M  V30 7023 H 680.479 -1.95674 0.597724 0
M  V30 7024 H 680.489 -4.01515 -0.724553 0
M  V30 7025 H 679.164 -4.13761 0.421276 0
M  V30 7026 H 677.741 -3.49709 -1.29453 0
M  V30 7027 N 679.926 -0.151884 -1.56866 0
M  V30 7028 C 680.889 0.771861 -2.15812 0
M  V30 7029 C 681.889 1.17181 -1.10115 0
M  V30 7030 O 683.079 1.09194 -1.35729 0
M  V30 7031 C 680.211 2.04806 -2.7252 0
M  V30 7032 H 681.404 0.259021 -2.98779 0
M  V30 7033 H 678.957 0.097588 -1.55995 0
M  V30 7034 H 679.692 2.60445 -1.93233 0
M  V30 7035 H 679.477 1.77044 -3.49854 0
M  V30 7036 H 680.967 2.70771 -3.1792 0
M  V30 7037 N 681.404 1.57128 0.121893 0
M  V30 7038 C 682.632 1.88883 0.844451 0
M  V30 7039 C 683.047 0.742824 1.73573 0
M  V30 7040 O 682.404 -0.286475 1.80238 0
M  V30 7041 C 682.455 3.20076 1.68029 0
M  V30 7042 O 682.176 4.30264 0.824898 0
M  V30 7043 C 683.677 3.65515 2.50826 0
M  V30 7044 H 680.897 0.62549 0.242907 0
M  V30 7045 H 683.441 2.04219 0.107151 0
M  V30 7046 H 681.596 3.06418 2.37038 0
M  V30 7047 H 682.01 5.05439 1.40113 0
M  V30 7048 H 683.484 4.60081 3.05008 0
M  V30 7049 H 683.961 2.92029 3.28048 0
M  V30 7050 H 684.567 3.81952 1.87064 0
M  V30 7051 N 682.882 -0.391992 1.52647 0
M  V30 7052 C 684.298 -0.731848 1.41831 0
M  V30 7053 C 684.498 -1.9423 0.536361 0
M  V30 7054 O 683.554 -2.52499 0.00866571 0
M  V30 7055 C 684.867 -0.969743 2.84634 0
M  V30 7056 C 686.415 -1.0714 2.94092 0
M  V30 7057 C 686.89 -1.34195 4.37899 0
M  V30 7058 N 688.381 -1.41023 4.41211 0
M  V30 7059 C 689.116 -1.63616 5.49561 0
M  V30 7060 N 688.612 -1.83699 6.68002 0
M  V30 7061 N 690.405 -1.65771 5.371 0
M  V30 7062 H 682.556 0.404547 2.08512 0
M  V30 7063 H 684.819 0.11879 0.940528 0
M  V30 7064 H 684.525 -0.152465 3.51369 0
M  V30 7065 H 684.399 -1.88523 3.26709 0
M  V30 7066 H 686.786 -1.87925 2.27526 0
M  V30 7067 H 686.867 -0.133887 2.55449 0
M  V30 7068 H 686.511 -0.539207 5.0503 0
M  V30 7069 H 686.441 -2.29226 4.74092 0
M  V30 7070 H 688.932 -1.27223 3.55841 0
M  V30 7071 H 689.245 -2.00437 7.46354 0
M  V30 7072 H 687.59 -1.8093 6.71036 0
M  V30 7073 H 690.781 -1.4963 4.43541 0
M  V30 7074 H 690.954 -1.83038 6.21612 0
M  V30 7075 N 684.36 -1.4356 -0.65026 0
M  V30 7076 C 685.609 -1.44619 -1.406 0
M  V30 7077 C 685.922 -0.0752645 -1.95455 0
M  V30 7078 O 687.128 0.0366832 -2.71475 0
M  V30 7079 C 685.584 -2.54511 -2.54465 0
M  V30 7080 C 685.192 -3.97723 -2.06204 0
M  V30 7081 C 686.936 -2.64768 -3.31811 0
M  V30 7082 C 684.843 -4.99075 -3.17298 0
M  V30 7083 H 683.773 -0.537983 -0.52829 0
M  V30 7084 H 686.424 -1.69559 -0.701561 0
M  V30 7085 H 684.806 -2.22777 -3.27393 0
M  V30 7086 H 685.98 -4.38932 -1.40267 0
M  V30 7087 H 684.295 -3.91538 -1.41729 0
M  V30 7088 H 686.892 -3.37664 -4.14593 0
M  V30 7089 H 687.235 -1.69936 -3.80036 0
M  V30 7090 H 687.768 -2.95817 -2.65964 0
M  V30 7091 H 684.507 -5.95469 -2.74038 0
M  V30 7092 H 684.027 -4.62476 -3.81937 0
M  V30 7093 H 685.706 -5.21913 -3.82382 0
M  V30 7094 N 685.838 0.888903 -1.30139 0
M  V30 7095 C 686.786 2.0156 -1.16088 0
M  V30 7096 C 687.78 1.69239 -0.0737413 0
M  V30 7097 O 688.986 1.78468 -0.234313 0
M  V30 7098 H 685.361 0.660825 -0.358907 0
M  V30 7099 H 687.332 2.10547 -2.11453 0
M  V30 7100 C 686.081 3.36758 -0.865426 0
M  V30 7101 H 685.404 3.62137 -1.69402 0
M  V30 7102 H 686.844 4.16246 -0.807192 0
M  V30 7103 C 685.303 3.34124 0.431577 0
M  V30 7104 O 685.833 3.7445 1.45431 0
M  V30 7105 N 684.039 2.87229 0.441321 0
M  V30 7106 H 683.586 2.54609 -0.391433 0
M  V30 7107 H 683.544 2.8585 1.30909 0
M  V30 7108 N 687.317 1.12792 1.10072 0
M  V30 7109 C 688.594 0.796867 1.78632 0
M  V30 7110 C 688.974 -0.712739 1.98704 0
M  V30 7111 O 688.322 -1.64773 1.5831 0
M  V30 7112 C 688.532 1.57622 3.11378 0
M  V30 7113 C 689.88 1.76463 3.86194 0
M  V30 7114 O 690.904 1.54165 3.2111 0
M  V30 7115 O 689.763 2.13623 5.03018 0
M  V30 7116 H 686.857 0.290248 0.774394 0
M  V30 7117 H 689.403 1.23215 1.16688 0
M  V30 7118 H 688.175 2.60246 2.92212 0
M  V30 7119 H 687.798 1.13543 3.81043 0
M  V30 7120 N 688.795 -1.27931 0.920396 0
M  V30 7121 C 689.745 -2.24727 0.384966 0
M  V30 7122 C 690.729 -1.52715 -0.506661 0
M  V30 7123 O 691.921 -1.73599 -0.345298 0
M  V30 7124 C 689.05 -3.41324 -0.3678 0
M  V30 7125 C 688.136 -4.20649 0.539925 0
M  V30 7126 N 688.527 -4.77906 1.6565 0
M  V30 7127 C 686.825 -4.4469 0.341557 0
M  V30 7128 C 687.526 -5.37652 2.22047 0
M  V30 7129 N 686.502 -5.2218 1.51093 0
M  V30 7130 H 690.304 -2.66572 1.23761 0
M  V30 7131 H 687.818 -1.42779 0.773819 0
M  V30 7132 H 689.815 -4.0976 -0.768277 0
M  V30 7133 H 688.475 -3.01012 -1.21746 0
M  V30 7134 H 689.486 -4.76073 2.03899 0
M  V30 7135 H 686.163 -4.14868 -0.468045 0
M  V30 7136 H 687.553 -5.92948 3.1601 0
M  V30 7137 N 690.273 -0.685099 -1.4193 0
M  V30 7138 C 691.223 0.00977295 -2.27998 0
M  V30 7139 C 692.207 0.763315 -1.41641 0
M  V30 7140 O 693.399 0.640532 -1.65004 0
M  V30 7141 C 690.528 0.952972 -3.29808 0
M  V30 7142 C 689.614 0.196231 -4.23646 0
M  V30 7143 N 690.005 -0.804401 -4.99363 0
M  V30 7144 C 688.303 0.433213 -4.43891 0
M  V30 7145 C 689.004 -1.25646 -5.67968 0
M  V30 7146 N 687.98 -0.5844 -5.4045 0
M  V30 7147 H 691.782 -0.757586 -2.83968 0
M  V30 7148 H 689.296 -0.515037 -1.54017 0
M  V30 7149 H 691.293 1.46585 -3.9028 0
M  V30 7150 H 689.953 1.72004 -2.75399 0
M  V30 7151 H 690.964 -1.18429 -5.04177 0
M  V30 7152 H 687.641 1.17899 -4.00507 0
M  V30 7153 H 689.031 -2.08622 -6.38691 0
M  V30 7154 N 691.751 1.51645 -0.429126 0
M  V30 7155 C 692.998 2.02015 0.140079 0
M  V30 7156 C 693.326 1.31374 1.43427 0
M  V30 7157 O 692.581 0.414779 1.91254 0
M  V30 7158 C 692.88 3.54989 0.414472 0
M  V30 7159 C 692.546 4.43874 -0.792911 0
M  V30 7160 C 691.208 4.67887 -1.12404 0
M  V30 7161 C 693.56 4.96074 -1.59875 0
M  V30 7162 C 690.888 5.41348 -2.26184 0
M  V30 7163 C 693.24 5.70782 -2.72747 0
M  V30 7164 C 691.904 5.93062 -3.06324 0
M  V30 7165 H 691.174 0.739225 0.0512585 0
M  V30 7166 H 693.821 1.82675 -0.574641 0
M  V30 7167 H 692.126 3.72615 1.21099 0
M  V30 7168 H 693.823 3.91489 0.868173 0
M  V30 7169 H 690.413 4.25374 -0.524871 0
M  V30 7170 H 694.597 4.77412 -1.35614 0
M  V30 7171 H 689.853 5.56815 -2.52522 0
M  V30 7172 H 694.027 6.10221 -3.35564 0
M  V30 7173 H 691.654 6.49764 -3.94602 0
M  V30 7174 N 693.229 0.160201 1.56784 0
M  V30 7175 C 694.179 -0.786461 2.14007 0
M  V30 7176 C 695.163 -1.20046 1.07134 0
M  V30 7177 O 696.355 -1.16468 1.33283 0
M  V30 7178 C 693.484 -2.02024 2.77563 0
M  V30 7179 C 692.57 -1.62874 3.91578 0
M  V30 7180 N 692.961 -0.946176 4.96871 0
M  V30 7181 C 691.259 -1.92054 4.02531 0
M  V30 7182 C 691.96 -0.755084 5.76778 0
M  V30 7183 N 690.936 -1.29307 5.27997 0
M  V30 7184 H 694.738 -0.255879 2.92784 0
M  V30 7185 H 692.252 -0.0408778 1.62349 0
M  V30 7186 H 694.249 -2.70855 3.16928 0
M  V30 7187 H 692.909 -2.55587 2.00263 0
M  V30 7188 H 693.92 -0.605455 5.14349 0
M  V30 7189 H 690.597 -2.47374 3.36322 0
M  V30 7190 H 691.987 -0.216138 6.71552 0
M  V30 7191 N 694.707 -1.5719 -0.113559 0
M  V30 7192 C 695.937 -1.89053 -0.833212 0
M  V30 7193 C 696.345 -0.750139 -1.73694 0
M  V30 7194 O 695.688 0.287808 -1.81431 0
M  V30 7195 C 695.75 -3.15986 -1.71443 0
M  V30 7196 C 695.414 -4.46271 -0.984449 0
M  V30 7197 C 696.411 -5.18897 -0.322741 0
M  V30 7198 C 694.096 -4.92963 -0.964011 0
M  V30 7199 C 696.09 -6.3644 0.349646 0
M  V30 7200 C 693.777 -6.10422 -0.287828 0
M  V30 7201 C 694.775 -6.82009 0.36784 0
M  V30 7202 O 694.463 -7.97233 1.03322 0
M  V30 7203 H 694.195 -0.630225 -0.244526 0
M  V30 7204 H 696.749 -2.05152 -0.100847 0
M  V30 7205 H 694.979 -2.95984 -2.48858 0
M  V30 7206 H 696.668 -3.33826 -2.309 0
M  V30 7207 H 697.434 -4.83875 -0.330114 0
M  V30 7208 H 693.313 -4.37143 -1.46379 0
M  V30 7209 H 696.857 -6.92254 0.861996 0
M  V30 7210 H 692.754 -6.449 -0.278237 0
M  V30 7211 H 693.522 -8.13105 0.938247 0
M  V30 7212 N 696.185 0.383891 -1.52853 0
M  V30 7213 C 697.433 1.12619 -1.67814 0
M  V30 7214 C 697.754 1.90354 -0.423141 0
M  V30 7215 O 697.024 1.87649 0.562554 0
M  V30 7216 H 695.604 0.418738 -0.618601 0
M  V30 7217 H 698.266 0.43495 -1.89985 0
M  V30 7218 H 697.362 1.82624 -2.5309 0
M  V30 7219 N 697.663 1.43903 0.642637 0
M  V30 7220 C 698.893 1.49323 1.4278 0
M  V30 7221 C 699.301 0.113058 1.88862 0
M  V30 7222 O 698.644 -0.889089 1.60751 0
M  V30 7223 C 698.706 2.3861 2.68897 0
M  V30 7224 C 698.37 3.85976 2.44687 0
M  V30 7225 C 699.367 4.7681 2.07239 0
M  V30 7226 C 697.052 4.30567 2.58683 0
M  V30 7227 C 699.046 6.10234 1.841 0
M  V30 7228 C 696.733 5.64042 2.35159 0
M  V30 7229 C 697.731 6.53693 1.97925 0
M  V30 7230 O 697.419 7.84698 1.74654 0
M  V30 7231 H 697.151 0.509109 0.444729 0
M  V30 7232 H 699.705 1.89425 0.794195 0
M  V30 7233 H 697.935 1.93415 3.34855 0
M  V30 7234 H 699.624 2.35112 3.30873 0
M  V30 7235 H 700.39 4.43635 1.95993 0
M  V30 7236 H 696.269 3.61054 2.86637 0
M  V30 7237 H 699.813 6.80171 1.54962 0
M  V30 7238 H 695.71 5.96782 2.46011 0
M  V30 7239 H 696.478 7.96382 1.88993 0
M  V30 7240 N 699.141 -0.881989 1.30609 0
M  V30 7241 C 700.388 -1.63405 1.19604 0
M  V30 7242 C 700.716 -1.92905 -0.248574 0
M  V30 7243 O 699.971 -1.55062 -1.19391 0
M  V30 7244 C 700.27 -2.97999 1.97311 0
M  V30 7245 C 699.936 -2.88039 3.46907 0
M  V30 7246 C 698.598 -2.85029 3.877 0
M  V30 7247 C 700.95 -2.75948 4.42156 0
M  V30 7248 C 698.278 -2.67772 5.2203 0
M  V30 7249 C 700.63 -2.60228 5.76597 0
M  V30 7250 C 699.294 -2.55595 6.16626 0
M  V30 7251 H 698.564 -0.597941 0.437662 0
M  V30 7252 H 701.211 -1.02524 1.61744 0
M  V30 7253 H 699.516 -3.62847 1.47815 0
M  V30 7254 H 701.213 -3.55156 1.86186 0
M  V30 7255 H 697.803 -2.91192 3.14492 0
M  V30 7256 H 701.987 -2.77337 4.1158 0
M  V30 7257 H 697.243 -2.62601 5.52133 0
M  V30 7258 H 701.417 -2.49847 6.50038 0
M  V30 7259 H 699.044 -2.41981 7.20659 0
M  V30 7260 N 700.619 -1.13374 -1.09472 0
M  V30 7261 C 701.865 -0.896516 -1.81908 0
M  V30 7262 C 702.198 0.575933 -1.85463 0
M  V30 7263 O 701.473 1.42618 -1.32251 0
M  V30 7264 C 701.756 -1.48445 -3.28079 0
M  V30 7265 C 701.609 -3.02598 -3.32798 0
M  V30 7266 C 702.928 -1.15226 -4.24748 0
M  V30 7267 H 700.047 -0.327127 -0.660422 0
M  V30 7268 H 702.689 -1.40195 -1.2824 0
M  V30 7269 H 700.839 -1.0546 -3.73912 0
M  V30 7270 H 702.511 -3.54335 -2.95372 0
M  V30 7271 H 700.754 -3.37613 -2.72397 0
M  V30 7272 H 701.425 -3.38835 -4.3577 0
M  V30 7273 H 703.901 -1.52369 -3.87199 0
M  V30 7274 H 702.777 -1.59012 -5.25363 0
M  V30 7275 H 703.038 -0.0658891 -4.42051 0
M  V30 7276 N 702.098 1.27442 -0.927168 0
M  V30 7277 C 703.045 2.26863 -0.424459 0
M  V30 7278 C 704.015 1.5813 0.508346 0
M  V30 7279 O 705.2 1.85946 0.42762 0
M  V30 7280 C 702.34 3.43639 0.31718 0
M  V30 7281 C 701.453 4.27087 -0.649675 0
M  V30 7282 C 700.588 5.31082 0.111753 0
M  V30 7283 C 699.627 6.062 -0.847843 0
M  V30 7284 N 698.764 7.01999 -0.119074 0
M  V30 7285 H 703.604 2.69239 -1.27728 0
M  V30 7286 H 701.141 1.32394 -0.641106 0
M  V30 7287 H 703.099 4.10155 0.763486 0
M  V30 7288 H 701.729 3.02217 1.13424 0
M  V30 7289 H 700.781 3.60491 -1.21451 0
M  V30 7290 H 702.093 4.79242 -1.38307 0
M  V30 7291 H 701.247 6.03544 0.618 0
M  V30 7292 H 699.986 4.7973 0.878114 0
M  V30 7293 H 698.991 5.32577 -1.36534 0
M  V30 7294 H 700.216 6.59642 -1.61398 0
M  V30 7295 H 698.162 6.52977 0.629051 0
M  V30 7296 H 698.079 7.5184 -0.792046 0
M  V30 7297 H 699.347 7.78638 0.366537 0
M  V30 7298 N 703.576 0.692616 1.41565 0
M  V30 7299 C 704.539 0.0344174 2.29174 0
M  V30 7300 C 705.539 -0.710961 1.44229 0
M  V30 7301 O 706.729 -0.546293 1.65412 0
M  V30 7302 C 703.861 -0.961682 3.27054 0
M  V30 7303 H 705.054 0.805755 2.88873 0
M  V30 7304 H 702.607 0.455947 1.49502 0
M  V30 7305 H 703.342 -1.76089 2.72329 0
M  V30 7306 H 703.127 -0.430375 3.89731 0
M  V30 7307 H 704.617 -1.4201 3.92712 0
M  V30 7308 N 705.054 -1.51416 0.437162 0
M  V30 7309 C 706.017 -2.26312 -0.362729 0
M  V30 7310 C 707.017 -1.29748 -0.949847 0
M  V30 7311 O 708.207 -1.53462 -0.824325 0
M  V30 7312 C 705.339 -3.05475 -1.5132 0
M  V30 7313 H 706.532 -2.98459 0.29365 0
M  V30 7314 H 704.085 -1.55137 0.190327 0
M  V30 7315 H 704.82 -2.37744 -2.20563 0
M  V30 7316 H 704.605 -3.76401 -1.09838 0
M  V30 7317 H 706.095 -3.62209 -2.07833 0
M  V30 7318 N 706.532 -0.168513 -1.56696 0
M  V30 7319 C 707.495 0.748928 -2.16619 0
M  V30 7320 C 708.495 1.16007 -1.11351 0
M  V30 7321 O 709.685 1.07748 -1.3688 0
M  V30 7322 C 706.817 2.01904 -2.74677 0
M  V30 7323 H 708.01 0.227317 -2.99037 0
M  V30 7324 H 705.563 0.0810372 -1.5609 0
M  V30 7325 H 706.298 2.58381 -1.95985 0
M  V30 7326 H 706.083 1.73323 -3.51712 0
M  V30 7327 H 707.573 2.67383 -3.20774 0
M  V30 7328 N 708.01 1.57248 0.105221 0
M  V30 7329 C 708.92 2.04653 1.14693 0
M  V30 7330 C 709.936 0.969488 1.44489 0
M  V30 7331 O 711.112 1.28196 1.55331 0
M  V30 7332 C 708.177 2.45297 2.45011 0
M  V30 7333 C 707.238 3.67148 2.22489 0
M  V30 7334 C 706.471 4.05844 3.46592 0
M  V30 7335 O 706.694 3.44736 4.54437 0
M  V30 7336 O 705.628 4.98862 3.36779 0
M  V30 7337 H 709.454 2.93663 0.774336 0
M  V30 7338 H 707.039 1.45998 0.31701 0
M  V30 7339 H 708.921 2.72112 3.21766 0
M  V30 7340 H 707.596 1.59429 2.81717 0
M  V30 7341 H 706.503 3.45463 1.43547 0
M  V30 7342 H 707.836 4.53764 1.9068 0
M  V30 7343 N 709.488 -0.375779 1.53054 0
M  V30 7344 C 710.737 -1.11674 1.67964 0
M  V30 7345 C 711.05 -1.90755 0.432655 0
M  V30 7346 O 712.256 -2.67538 0.462109 0
M  V30 7347 C 710.712 -2.0344 2.96884 0
M  V30 7348 C 710.32 -1.29719 4.28809 0
M  V30 7349 C 712.064 -2.7759 3.2116 0
M  V30 7350 C 709.971 -2.20327 5.48826 0
M  V30 7351 H 708.901 -0.420597 0.625791 0
M  V30 7352 H 711.552 -0.378499 1.79554 0
M  V30 7353 H 709.934 -2.80953 2.79072 0
M  V30 7354 H 711.108 -0.573394 4.57219 0
M  V30 7355 H 709.423 -0.674735 4.10897 0
M  V30 7356 H 712.02 -3.4559 4.0801 0
M  V30 7357 H 712.363 -3.42399 2.36789 0
M  V30 7358 H 712.896 -2.07164 3.396 0
M  V30 7359 H 709.635 -1.60113 6.35645 0
M  V30 7360 H 709.155 -2.90585 5.2471 0
M  V30 7361 H 710.834 -2.80116 5.83219 0
M  V30 7362 N 710.966 -1.44241 -0.634997 0
M  V30 7363 C 711.929 -1.50457 -1.72903 0
M  V30 7364 C 712.929 -0.387058 -1.56072 0
M  V30 7365 O 714.119 -0.649531 -1.61638 0
M  V30 7366 C 711.251 -1.37477 -3.1195 0
M  V30 7367 H 712.444 -2.47907 -1.68767 0
M  V30 7368 H 709.997 -1.31276 -0.84831 0
M  V30 7369 H 710.732 -0.41106 -3.21684 0
M  V30 7370 H 710.517 -2.18506 -3.25573 0
M  V30 7371 H 712.007 -1.44799 -3.91692 0
M  V30 7372 N 712.444 0.87505 -1.31075 0
M  V30 7373 C 713.86 1.15997 -1.09622 0
M  V30 7374 C 714.06 2.01036 0.136611 0
M  V30 7375 O 713.116 2.38559 0.827397 0
M  V30 7376 C 714.429 1.85702 -2.36506 0
M  V30 7377 C 715.977 1.98425 -2.42067 0
M  V30 7378 C 716.452 2.71544 -3.68819 0
M  V30 7379 N 717.943 2.79084 -3.69684 0
M  V30 7380 C 718.678 3.36259 -4.64454 0
M  V30 7381 N 718.174 3.94406 -5.69575 0
M  V30 7382 N 719.967 3.34169 -4.51982 0
M  V30 7383 H 712.118 0.308258 -2.10151 0
M  V30 7384 H 714.381 0.199145 -0.926847 0
M  V30 7385 H 714.087 1.30663 -3.26527 0
M  V30 7386 H 713.961 2.86017 -2.45915 0
M  V30 7387 H 716.348 2.5263 -1.52518 0
M  V30 7388 H 716.429 0.971682 -2.36626 0
M  V30 7389 H 716.073 2.18008 -4.58732 0
M  V30 7390 H 716.003 3.73198 -3.71525 0
M  V30 7391 H 718.494 2.3781 -2.93691 0
M  V30 7392 H 718.807 4.36129 -6.37974 0
M  V30 7393 H 717.152 3.92797 -5.73355 0
M  V30 7394 H 720.343 2.87977 -3.69035 0
M  V30 7395 H 720.516 3.78431 -5.26017 0
M  V30 7396 N 713.922 1.13953 1.08869 0
M  V30 7397 C 714.885 0.824991 2.13838 0
M  V30 7398 C 715.885 -0.168198 1.59918 0
M  V30 7399 O 717.075 0.0595778 1.74098 0
M  V30 7400 C 714.207 0.228938 3.4013 0
M  V30 7401 H 715.4 1.75521 2.43171 0
M  V30 7402 H 712.953 0.94492 1.24503 0
M  V30 7403 H 713.688 -0.710227 3.16427 0
M  V30 7404 H 713.473 0.944243 3.80561 0
M  V30 7405 H 714.963 0.0259223 4.17592 0
M  V30 7406 N 715.4 -1.26948 0.933913 0
M  V30 7407 C 716.677 -1.89212 0.495784 0
M  V30 7408 C 717.057 -1.84469 -1.02637 0
M  V30 7409 O 716.405 -1.29409 -1.88323 0
M  V30 7410 C 716.615 -3.32865 1.0489 0
M  V30 7411 C 717.963 -4.09749 1.11315 0
M  V30 7412 O 718.987 -3.41905 0.998966 0
M  V30 7413 O 717.846 -5.31061 1.28983 0
M  V30 7414 H 714.94 -0.811284 0.160459 0
M  V30 7415 H 717.486 -1.35171 1.02601 0
M  V30 7416 H 716.258 -3.30642 2.09265 0
M  V30 7417 H 715.881 -3.94435 0.500692 0
M  V30 7418 N 716.879 -0.700114 -1.41195 0
M  V30 7419 C 717.811 0.00155823 -2.292 0
M  V30 7420 C 718.824 0.739736 -1.45023 0
M  V30 7421 O 720.013 0.589684 -1.68478 0
M  V30 7422 C 717.113 1.02635 -3.22985 0
M  V30 7423 C 716.286 0.356871 -4.35942 0
M  V30 7424 C 715.345 1.28491 -5.10271 0
M  V30 7425 O 714.371 0.775562 -5.63892 0
M  V30 7426 N 715.573 2.61699 -5.18164 0
M  V30 7427 H 718.338 -0.754008 -2.9006 0
M  V30 7428 H 715.899 -0.546504 -1.52397 0
M  V30 7429 H 717.891 1.64902 -3.6958 0
M  V30 7430 H 716.461 1.68341 -2.63401 0
M  V30 7431 H 715.681 -0.445753 -3.91672 0
M  V30 7432 H 716.969 -0.108469 -5.08684 0
M  V30 7433 H 716.367 3.05594 -4.76056 0
M  V30 7434 H 714.924 3.19149 -5.6832 0
M  V30 7435 N 718.357 1.51182 -0.445186 0
M  V30 7436 C 719.267 2.31692 0.368255 0
M  V30 7437 C 720.283 1.40942 1.02036 0
M  V30 7438 O 721.459 1.74011 1.01401 0
M  V30 7439 C 718.524 3.14903 1.45041 0
M  V30 7440 C 717.585 4.21442 0.817615 0
M  V30 7441 C 716.818 5.00677 1.8482 0
M  V30 7442 O 717.041 4.80644 3.07145 0
M  V30 7443 O 715.975 5.84559 1.43438 0
M  V30 7444 H 719.801 3.0232 -0.289219 0
M  V30 7445 H 717.386 1.47951 -0.207555 0
M  V30 7446 H 719.268 3.66612 2.07783 0
M  V30 7447 H 717.943 2.47031 2.09182 0
M  V30 7448 H 716.85 3.73791 0.151931 0
M  V30 7449 H 718.183 4.9171 0.219564 0
M  V30 7450 N 719.835 0.176821 1.56605 0
M  V30 7451 C 721.081 -0.460868 1.9811 0
M  V30 7452 C 721.436 -1.60488 1.06119 0
M  V30 7453 O 720.729 -1.91329 0.101939 0
M  V30 7454 C 720.923 -0.986208 3.43524 0
M  V30 7455 C 720.752 0.105368 4.49577 0
M  V30 7456 C 719.522 0.556883 5.02222 0
M  V30 7457 C 721.72 0.907756 5.06226 0
M  V30 7458 N 719.702 1.62819 5.91915 0
M  V30 7459 C 721.073 1.82887 5.92412 0
M  V30 7460 C 723.128 0.952221 4.8871 0
M  V30 7461 C 721.831 2.7907 6.62957 0
M  V30 7462 C 723.857 1.90202 5.5998 0
M  V30 7463 C 723.219 2.8106 6.45898 0
M  V30 7464 H 719.318 -0.136589 0.769979 0
M  V30 7465 H 721.902 0.278307 1.92701 0
M  V30 7466 H 720.073 -1.69489 3.49468 0
M  V30 7467 H 721.805 -1.59298 3.7203 0
M  V30 7468 H 718.56 0.153575 4.73351 0
M  V30 7469 H 718.984 2.1645 6.41466 0
M  V30 7470 H 723.626 0.263794 4.21976 0
M  V30 7471 H 721.344 3.48898 7.28901 0
M  V30 7472 H 724.93 1.9426 5.48411 0
M  V30 7473 H 723.81 3.53357 7.00077 0
M  V30 7474 N 721.313 -1.57302 -0.09688 0
M  V30 7475 C 722.276 -2.00976 -1.10188 0
M  V30 7476 C 723.276 -0.903009 -1.3305 0
M  V30 7477 O 724.466 -1.16853 -1.29194 0
M  V30 7478 C 721.598 -2.36893 -2.45142 0
M  V30 7479 H 722.791 -2.9098 -0.726003 0
M  V30 7480 H 720.344 -1.52515 -0.341872 0
M  V30 7481 H 721.079 -1.49837 -2.8761 0
M  V30 7482 H 720.864 -3.17632 -2.29897 0
M  V30 7483 H 722.354 -2.71345 -3.1743 0
M  V30 7484 N 722.791 0.367657 -1.53252 0
M  V30 7485 C 723.738 1.45028 -1.79543 0
M  V30 7486 C 724.708 1.53288 -0.63969 0
M  V30 7487 O 725.893 1.69209 -0.881653 0
M  V30 7488 C 723.033 2.82 -1.98923 0
M  V30 7489 C 722.146 2.82722 -3.26638 0
M  V30 7490 C 721.281 4.11257 -3.36216 0
M  V30 7491 C 720.32 4.06113 -4.57972 0
M  V30 7492 N 719.457 5.26293 -4.64715 0
M  V30 7493 H 724.297 1.21908 -2.71923 0
M  V30 7494 H 721.834 0.591011 -1.34705 0
M  V30 7495 H 723.792 3.61568 -2.08146 0
M  V30 7496 H 722.422 3.03523 -1.09881 0
M  V30 7497 H 721.474 1.95399 -3.26379 0
M  V30 7498 H 722.786 2.74794 -4.16281 0
M  V30 7499 H 721.94 4.99239 -3.44739 0
M  V30 7500 H 720.679 4.21935 -2.44586 0
M  V30 7501 H 719.684 3.16517 -4.49552 0
M  V30 7502 H 720.909 3.97039 -5.50942 0
M  V30 7503 H 718.855 5.37561 -3.75985 0
M  V30 7504 H 718.772 5.20526 -5.4826 0
M  V30 7505 H 720.04 6.16113 -4.77519 0
M  V30 7506 N 724.269 1.44576 0.627338 0
M  V30 7507 C 725.494 1.51271 1.41887 0
M  V30 7508 C 725.919 0.139814 1.8758 0
M  V30 7509 O 725.277 -0.871746 1.58966 0
M  V30 7510 C 725.325 2.48529 2.61277 0
M  V30 7511 O 724.429 1.98944 3.61241 0
M  V30 7512 H 723.77 0.510668 0.424399 0
M  V30 7513 H 726.3 1.89746 0.765356 0
M  V30 7514 H 726.31 2.66689 3.08773 0
M  V30 7515 H 724.985 3.48249 2.27366 0
M  V30 7516 H 723.562 1.90568 3.20528 0
M  V30 7517 N 725.747 -0.868086 1.31537 0
M  V30 7518 C 726.657 -2.00801 1.21311 0
M  V30 7519 C 727.673 -1.73518 0.129431 0
M  V30 7520 O 728.849 -1.98378 0.347588 0
M  V30 7521 C 725.914 -3.3419 0.922935 0
M  V30 7522 C 724.975 -3.74783 2.0937 0
M  V30 7523 C 724.208 -5.01807 1.81728 0
M  V30 7524 O 724.431 -5.65404 0.753313 0
M  V30 7525 O 723.365 -5.39213 2.67457 0
M  V30 7526 H 727.191 -2.12361 2.17109 0
M  V30 7527 H 724.776 -0.996684 1.11295 0
M  V30 7528 H 726.658 -4.14174 0.777033 0
M  V30 7529 H 725.333 -3.237 -0.00500301 0
M  V30 7530 H 724.24 -2.95432 2.29501 0
M  V30 7531 H 725.573 -3.89902 3.00396 0
M  V30 7532 N 727.225 -1.14528 -1.08264 0
M  V30 7533 C 728.173 -0.829201 -2.17318 0
M  V30 7534 C 729.167 0.193521 -1.68291 0
M  V30 7535 O 730.373 0.0494744 -1.79932 0
M  V30 7536 H 726.748 -0.250435 -0.709074 0
M  V30 7537 H 728.719 -1.75683 -2.41201 0
M  V30 7538 C 727.468 -0.324663 -3.46181 0
M  V30 7539 H 726.791 -1.10299 -3.84284 0
M  V30 7540 H 728.231 -0.142059 -4.23762 0
M  V30 7541 C 726.69 0.952033 -3.23169 0
M  V30 7542 O 727.22 2.02549 -3.46896 0
M  V30 7543 N 725.426 0.887854 -2.76705 0
M  V30 7544 H 724.973 0.0141402 -2.57596 0
M  V30 7545 H 724.931 1.74263 -2.61686 0
M  V30 7546 N 728.703 1.26451 -0.940633 0
M  V30 7547 C 729.949 1.94401 -0.598303 0
M  V30 7548 C 730.304 1.72449 0.853178 0
M  V30 7549 O 729.597 1.0506 1.60228 0
M  V30 7550 C 729.791 3.46503 -0.875794 0
M  V30 7551 C 729.62 3.83247 -2.3527 0
M  V30 7552 C 728.39 4.06032 -3.00776 0
M  V30 7553 C 730.588 3.91841 -3.33114 0
M  V30 7554 N 728.57 4.29656 -4.38485 0
M  V30 7555 C 729.941 4.19991 -4.56078 0
M  V30 7556 C 731.996 3.74466 -3.28146 0
M  V30 7557 C 730.699 4.32574 -5.74693 0
M  V30 7558 C 732.725 3.88281 -4.46085 0
M  V30 7559 C 732.087 4.16829 -5.67831 0
M  V30 7560 H 728.186 0.734168 -0.269297 0
M  V30 7561 H 730.77 1.52541 -1.20992 0
M  V30 7562 H 728.941 3.87292 -0.293223 0
M  V30 7563 H 730.673 4.01664 -0.494788 0
M  V30 7564 H 727.428 4.01369 -2.51396 0
M  V30 7565 H 727.852 4.45501 -5.09762 0
M  V30 7566 H 732.494 3.51424 -2.35077 0
M  V30 7567 H 730.212 4.54438 -6.68215 0
M  V30 7568 H 733.798 3.76241 -4.43773 0
M  V30 7569 H 732.678 4.27284 -6.5757 0
M  V30 7570 N 730.181 0.707592 1.40822 0
M  V30 7571 C 731.429 0.243189 2.00632 0
M  V30 7572 C 731.75 -1.16512 1.56365 0
M  V30 7573 O 731.02 -1.78841 0.799553 0
M  V30 7574 H 729.6 0.0869203 0.741926 0
M  V30 7575 H 732.262 0.911438 1.72275 0
M  V30 7576 H 731.358 0.270014 3.1093 0
M  V30 7577 N 731.66 -1.50943 0.453197 0
M  V30 7578 C 732.908 -2.01813 -0.107709 0
M  V30 7579 C 733.229 -1.33841 -1.41816 0
M  V30 7580 O 732.499 -0.477973 -1.8998 0
M  V30 7581 H 731.079 -0.745773 -0.0427948 0
M  V30 7582 H 733.741 -1.8545 0.599531 0
M  V30 7583 H 732.837 -3.10911 -0.27218 0
M  V30 7584 N 733.138 -0.185124 -1.56509 0
M  V30 7585 C 734.071 0.77877 -2.145 0
M  V30 7586 C 735.049 1.21649 -1.07891 0
M  V30 7587 O 736.233 1.30579 -1.35946 0
M  V30 7588 C 733.36 2.05048 -2.69579 0
M  V30 7589 C 732.406 1.75569 -3.88687 0
M  V30 7590 S 733.239 0.912642 -5.27666 0
M  V30 7591 C 734.395 2.19471 -5.8616 0
M  V30 7592 H 734.628 0.285751 -2.95924 0
M  V30 7593 H 732.161 0.0297417 -1.54371 0
M  V30 7594 H 734.119 2.78085 -3.01958 0
M  V30 7595 H 732.78 2.51462 -1.88216 0
M  V30 7596 H 731.973 2.69962 -4.25601 0
M  V30 7597 H 731.575 1.10619 -3.57267 0
M  V30 7598 H 733.867 3.14815 -5.99915 0
M  V30 7599 H 734.81 1.87005 -6.8296 0
M  V30 7600 H 735.218 2.31862 -5.14685 0
M  V30 7601 N 734.616 1.57351 0.0885366 0
M  V30 7602 C 735.865 1.85604 0.789556 0
M  V30 7603 C 736.178 0.775352 1.79576 0
M  V30 7604 O 737.384 0.945206 2.54515 0
M  V30 7605 C 735.84 3.29175 1.45506 0
M  V30 7606 C 735.448 4.45331 0.488278 0
M  V30 7607 C 737.192 3.66646 2.13942 0
M  V30 7608 C 735.099 5.79937 1.15874 0
M  V30 7609 H 734.029 0.692346 0.298619 0
M  V30 7610 H 736.68 1.83451 0.0425821 0
M  V30 7611 H 735.062 3.25889 2.24972 0
M  V30 7612 H 736.236 4.59977 -0.275359 0
M  V30 7613 H 734.551 4.16301 -0.0907363 0
M  V30 7614 H 737.148 4.64498 2.6485 0
M  V30 7615 H 737.491 2.956 2.93132 0
M  V30 7616 H 738.024 3.71848 1.41328 0
M  V30 7617 H 734.763 6.54232 0.407508 0
M  V30 7618 H 734.283 5.69123 1.89364 0
M  V30 7619 H 735.962 6.24718 1.68336 0
M  V30 7620 N 736.094 -0.359525 1.53444 0
M  V30 7621 C 737.371 -1.11756 1.6053 0
M  V30 7622 C 737.751 -2.06949 0.416587 0
M  V30 7623 O 737.099 -2.20681 -0.592628 0
M  V30 7624 C 737.309 -1.85133 2.95849 0
M  V30 7625 C 738.657 -2.3945 3.50641 0
M  V30 7626 O 739.681 -1.95251 2.97918 0
M  V30 7627 O 738.54 -3.20266 4.42823 0
M  V30 7628 H 735.634 -0.513005 0.648656 0
M  V30 7629 H 738.18 -0.362301 1.65787 0
M  V30 7630 H 736.952 -1.15694 3.73806 0
M  V30 7631 H 736.575 -2.67554 2.9411 0
M  V30 7632 N 737.572 -1.44907 -0.619662 0
M  V30 7633 C 738.502 -1.55488 -1.742 0
M  V30 7634 C 739.483 -0.407143 -1.65156 0
M  V30 7635 O 740.668 -0.628743 -1.8374 0
M  V30 7636 C 737.798 -1.5097 -3.1277 0
M  V30 7637 C 736.752 -2.64337 -3.36615 0
M  V30 7638 C 736.078 -2.44872 -4.75333 0
M  V30 7639 C 737.378 -4.06423 -3.28051 0
M  V30 7640 H 739.072 -2.49432 -1.65602 0
M  V30 7641 H 736.618 -1.20047 -0.795281 0
M  V30 7642 H 738.571 -1.56971 -3.91073 0
M  V30 7643 H 737.295 -0.535486 -3.2218 0
M  V30 7644 H 735.954 -2.57744 -2.60698 0
M  V30 7645 H 735.602 -1.45617 -4.81461 0
M  V30 7646 H 735.302 -3.20888 -4.92244 0
M  V30 7647 H 736.826 -2.52709 -5.55851 0
M  V30 7648 H 738.24 -4.14324 -3.96243 0
M  V30 7649 H 736.637 -4.82733 -3.56495 0
M  V30 7650 H 737.707 -4.29183 -2.25676 0
M  V30 7651 N 739.05 0.861098 -1.31996 0
M  V30 7652 C 739.98 1.98482 -1.22993 0
M  V30 7653 C 740.961 1.6971 -0.115168 0
M  V30 7654 O 742.146 1.91849 -0.30126 0
M  V30 7655 C 739.276 3.34179 -0.945615 0
M  V30 7656 C 738.23 3.77284 -2.02091 0
M  V30 7657 C 737.556 5.1054 -1.58912 0
M  V30 7658 C 738.856 3.93439 -3.43515 0
M  V30 7659 H 740.55 2.06271 -2.17008 0
M  V30 7660 H 738.096 0.991043 -1.04472 0
M  V30 7661 H 740.049 4.12338 -0.869206 0
M  V30 7662 H 738.773 3.26586 0.0301849 0
M  V30 7663 H 737.432 3.01371 -2.08737 0
M  V30 7664 H 737.08 4.99397 -0.600942 0
M  V30 7665 H 736.78 5.40352 -2.30854 0
M  V30 7666 H 738.304 5.91199 -1.52696 0
M  V30 7667 H 739.718 4.6197 -3.39495 0
M  V30 7668 H 738.115 4.34661 -4.13751 0
M  V30 7669 H 739.185 2.96548 -3.8365 0
M  V30 7670 N 740.528 1.15101 1.07655 0
M  V30 7671 C 741.777 0.918528 1.79572 0
M  V30 7672 C 742.09 -0.555922 1.87534 0
M  V30 7673 O 743.296 -0.905893 2.55941 0
M  V30 7674 C 741.752 1.59394 3.22679 0
M  V30 7675 C 741.36 3.1052 3.22927 0
M  V30 7676 C 743.104 1.44289 3.99225 0
M  V30 7677 C 741.011 3.70862 4.60668 0
M  V30 7678 H 739.941 0.340006 0.672987 0
M  V30 7679 H 742.592 1.38079 1.20857 0
M  V30 7680 H 740.974 1.05936 3.81567 0
M  V30 7681 H 742.148 3.70708 2.737 0
M  V30 7682 H 740.463 3.25351 2.59876 0
M  V30 7683 H 743.06 1.86766 5.01022 0
M  V30 7684 H 743.403 0.389975 4.14469 0
M  V30 7685 H 743.936 1.94826 3.46825 0
M  V30 7686 H 740.675 4.7604 4.50628 0
M  V30 7687 H 740.195 3.15456 5.10145 0
M  V30 7688 H 741.874 3.71607 5.29639 0
M  V30 7689 N 742.006 -1.2595 0.947325 0
M  V30 7690 C 743.422 -1.45737 0.650597 0
M  V30 7691 C 743.622 -1.85189 -0.794188 0
M  V30 7692 O 742.678 -1.97738 -1.57022 0
M  V30 7693 C 743.991 -2.53505 1.61728 0
M  V30 7694 C 745.539 -2.67351 1.62765 0
M  V30 7695 C 746.014 -3.78296 2.58179 0
M  V30 7696 N 747.505 -3.85696 2.56501 0
M  V30 7697 C 748.24 -4.71012 3.2701 0
M  V30 7698 N 747.736 -5.60669 4.06966 0
M  V30 7699 N 749.529 -4.64912 3.15932 0
M  V30 7700 H 741.68 -0.986327 1.8811 0
M  V30 7701 H 743.943 -0.494639 0.808725 0
M  V30 7702 H 743.649 -2.31357 2.6489 0
M  V30 7703 H 743.523 -3.51281 1.3741 0
M  V30 7704 H 745.91 -2.88869 0.603241 0
M  V30 7705 H 745.991 -1.69998 1.91139 0
M  V30 7706 H 745.635 -3.5753 3.60742 0
M  V30 7707 H 745.565 -4.75117 2.27093 0
M  V30 7708 H 748.056 -3.21601 1.98447 0
M  V30 7709 H 748.369 -6.22677 4.57704 0
M  V30 7710 H 746.714 -5.60402 4.11066 0
M  V30 7711 H 749.905 -3.93874 2.52945 0
M  V30 7712 H 750.078 -5.3118 3.71149 0
M  V30 7713 N 743.484 -0.715051 -1.40445 0
M  V30 7714 C 744.761 -0.181503 -1.94756 0
M  V30 7715 C 745.141 1.31268 -1.65324 0
M  V30 7716 O 744.489 2.0686 -0.970631 0
M  V30 7717 C 744.699 -0.493663 -3.45491 0
M  V30 7718 C 746.047 -0.432032 -4.22396 0
M  V30 7719 O 747.071 -0.429692 -3.53599 0
M  V30 7720 O 745.93 -0.409091 -5.44967 0
M  V30 7721 H 743.024 -0.0263989 -0.826579 0
M  V30 7722 H 745.57 -0.792546 -1.50056 0
M  V30 7723 H 744.342 -1.52713 -3.6027 0
M  V30 7724 H 743.965 0.14737 -3.97327 0
M  V30 7725 N 744.962 1.50701 -0.461195 0
M  V30 7726 C 746.209 2.02267 0.0971971 0
M  V30 7727 C 746.537 1.34387 1.40608 0
M  V30 7728 O 745.792 0.455254 1.90331 0
M  V30 7729 C 746.091 3.55788 0.33908 0
M  V30 7730 C 745.757 4.42092 -0.886885 0
M  V30 7731 C 744.419 4.65398 -1.22304 0
M  V30 7732 C 746.771 4.92571 -1.70361 0
M  V30 7733 C 744.099 5.36429 -2.37616 0
M  V30 7734 C 746.451 5.64868 -2.84793 0
M  V30 7735 C 745.115 5.86431 -3.18834 0
M  V30 7736 H 744.385 0.740146 0.0355669 0
M  V30 7737 H 747.032 1.81415 -0.61326 0
M  V30 7738 H 745.337 3.751 1.13168 0
M  V30 7739 H 747.034 3.93243 0.784937 0
M  V30 7740 H 743.624 4.24165 -0.614981 0
M  V30 7741 H 747.808 4.74428 -1.4571 0
M  V30 7742 H 743.064 5.51333 -2.64276 0
M  V30 7743 H 747.238 6.02966 -3.48432 0
M  V30 7744 H 744.865 6.41248 -4.08296 0
M  V30 7745 N 746.441 0.193421 1.56409 0
M  V30 7746 C 747.374 -0.767384 2.1491 0
M  V30 7747 C 748.352 -1.21075 1.08534 0
M  V30 7748 O 749.536 -1.29856 1.36637 0
M  V30 7749 C 746.663 -2.03615 2.70663 0
M  V30 7750 C 745.709 -1.73505 3.89613 0
M  V30 7751 S 746.542 -0.884645 5.28142 0
M  V30 7752 C 747.698 -2.1636 5.87315 0
M  V30 7753 H 747.931 -0.270053 2.96071 0
M  V30 7754 H 745.464 -0.0215546 1.54385 0
M  V30 7755 H 747.422 -2.7648 3.03429 0
M  V30 7756 H 746.083 -2.50461 1.89547 0
M  V30 7757 H 745.276 -2.67701 4.27027 0
M  V30 7758 H 744.878 -1.08723 3.57848 0
M  V30 7759 H 747.17 -3.11629 6.01576 0
M  V30 7760 H 748.113 -1.8338 6.83943 0
M  V30 7761 H 748.521 -2.29129 5.15907 0
M  V30 7762 N 747.919 -1.57396 -0.0801906 0
M  V30 7763 C 748.882 -2.02133 -1.0805 0
M  V30 7764 C 749.882 -0.91707 -1.32085 0
M  V30 7765 O 751.072 -1.18217 -1.27947 0
M  V30 7766 C 748.204 -2.39479 -2.42616 0
M  V30 7767 H 749.397 -2.91733 -0.6951 0
M  V30 7768 H 746.95 -1.52869 -0.325677 0
M  V30 7769 H 747.685 -1.52879 -2.86004 0
M  V30 7770 H 747.47 -3.20052 -2.26515 0
M  V30 7771 H 748.96 -2.74697 -3.14534 0
M  V30 7772 N 749.397 0.351382 -1.53633 0
M  V30 7773 C 750.674 1.10903 -1.6112 0
M  V30 7774 C 751.054 2.06725 -0.427556 0
M  V30 7775 O 750.402 2.20992 0.580916 0
M  V30 7776 C 750.612 1.83561 -2.96827 0
M  V30 7777 C 751.96 2.37587 -3.51906 0
M  V30 7778 O 752.984 1.93669 -2.9895 0
M  V30 7779 O 751.843 3.17913 -4.44515 0
M  V30 7780 H 748.937 0.509558 -0.651368 0
M  V30 7781 H 751.483 0.353504 -1.65977 0
M  V30 7782 H 750.255 1.1371 -3.74414 0
M  V30 7783 H 749.878 2.6599 -2.95525 0
M  V30 7784 N 750.875 1.45233 0.611969 0
M  V30 7785 C 752.291 1.29542 0.932251 0
M  V30 7786 C 752.491 0.24523 2.00002 0
M  V30 7787 O 751.547 -0.362333 2.49887 0
M  V30 7788 C 752.86 2.67301 1.37733 0
M  V30 7789 C 754.408 2.75163 1.49178 0
M  V30 7790 C 754.883 4.13437 1.97064 0
M  V30 7791 N 756.374 4.15709 2.04304 0
M  V30 7792 C 757.109 5.19566 2.42568 0
M  V30 7793 N 756.605 6.33771 2.79832 0
M  V30 7794 N 758.398 5.06923 2.42869 0
M  V30 7795 H 750.549 2.12192 -0.0938679 0
M  V30 7796 H 752.812 0.947775 0.0206569 0
M  V30 7797 H 752.518 3.45318 0.666951 0
M  V30 7798 H 752.392 2.95472 2.3447 0
M  V30 7799 H 754.779 1.97453 2.19309 0
M  V30 7800 H 754.86 2.50712 0.507674 0
M  V30 7801 H 754.504 4.91631 1.27521 0
M  V30 7802 H 754.434 4.35277 2.9638 0
M  V30 7803 H 756.925 3.33293 1.78113 0
M  V30 7804 H 757.238 7.08815 3.07898 0
M  V30 7805 H 755.583 6.37179 2.77538 0
M  V30 7806 H 758.774 4.1675 2.1316 0
M  V30 7807 H 758.947 5.87981 2.72364 0
M  V30 7808 N 752.353 -0.854086 1.3245 0
M  V30 7809 C 753.63 -1.59188 1.1366 0
M  V30 7810 C 754.01 -2.08917 -0.302807 0
M  V30 7811 O 753.358 -1.8795 -1.29951 0
M  V30 7812 C 753.568 -2.73757 2.16467 0
M  V30 7813 C 754.916 -3.43323 2.49829 0
M  V30 7814 O 755.94 -2.83983 2.15017 0
M  V30 7815 O 754.799 -4.50409 3.09506 0
M  V30 7816 H 751.893 -0.701092 0.438633 0
M  V30 7817 H 754.439 -0.898165 1.43983 0
M  V30 7818 H 753.211 -2.3454 3.1322 0
M  V30 7819 H 752.834 -3.50804 1.87142 0
M  V30 7820 N 753.831 -1.1567 -1.07043 0
M  V30 7821 C 755.108 -0.843948 -1.76456 0
M  V30 7822 C 755.488 0.659806 -2.00524 0
M  V30 7823 O 754.836 1.60518 -1.62623 0
M  V30 7824 C 755.046 -1.65822 -3.0709 0
M  V30 7825 C 756.394 -1.8664 -3.8138 0
M  V30 7826 O 757.418 -1.62624 -3.1691 0
M  V30 7827 O 756.277 -2.26884 -4.97178 0
M  V30 7828 H 753.371 -0.310677 -0.766426 0
M  V30 7829 H 755.917 -1.26266 -1.1338 0
M  V30 7830 H 754.689 -2.67902 -2.85209 0
M  V30 7831 H 754.312 -1.23605 -3.77899 0
M  V30 7832 N 755.309 1.25446 -0.953992 0
M  V30 7833 C 756.586 1.884 -0.525823 0
M  V30 7834 C 756.966 1.86079 0.996891 0
M  V30 7835 O 756.314 1.32389 1.8624 0
M  V30 7836 C 756.524 3.31154 -1.10172 0
M  V30 7837 C 757.872 4.07926 -1.17819 0
M  V30 7838 O 758.896 3.40273 -1.05323 0
M  V30 7839 O 757.755 5.28942 -1.37415 0
M  V30 7840 H 754.849 0.808629 -0.173345 0
M  V30 7841 H 757.395 1.33522 -1.04738 0
M  V30 7842 H 756.167 3.27271 -2.14499 0
M  V30 7843 H 755.79 3.93588 -0.56338 0
M  V30 7844 N 756.787 0.722489 1.40064 0
M  V30 7845 C 757.717 0.0892452 2.33329 0
M  V30 7846 C 758.698 -0.737992 1.53257 0
M  V30 7847 O 759.883 -0.685516 1.81698 0
M  V30 7848 C 757.013 -0.828139 3.37282 0
M  V30 7849 C 755.967 -0.106005 4.27869 0
M  V30 7850 C 755.293 -1.13957 5.22415 0
M  V30 7851 C 756.593 1.04395 5.11761 0
M  V30 7852 H 758.287 0.868269 2.86534 0
M  V30 7853 H 755.833 0.418982 1.3777 0
M  V30 7854 H 757.786 -1.28058 4.01471 0
M  V30 7855 H 756.51 -1.63914 2.82489 0
M  V30 7856 H 755.169 0.326683 3.65142 0
M  V30 7857 H 754.817 -1.9438 4.63924 0
M  V30 7858 H 754.517 -0.661233 5.83868 0
M  V30 7859 H 756.041 -1.59197 5.89482 0
M  V30 7860 H 757.455 0.670541 5.69365 0
M  V30 7861 H 755.852 1.4511 5.82291 0
M  V30 7862 H 756.922 1.87144 4.47331 0
M  V30 7863 N 758.265 -1.50454 0.469181 0
M  V30 7864 C 759.512 -2.02315 -0.086469 0
M  V30 7865 C 759.84 -1.3513 -1.39893 0
M  V30 7866 O 759.095 -0.465341 -1.90087 0
M  V30 7867 C 759.394 -3.55963 -0.320207 0
M  V30 7868 C 759.06 -4.41615 0.910318 0
M  V30 7869 C 757.722 -4.64743 1.2477 0
M  V30 7870 C 760.074 -4.91661 1.72971 0
M  V30 7871 C 757.402 -5.35161 2.40457 0
M  V30 7872 C 759.754 -5.6335 2.87785 0
M  V30 7873 C 758.418 -5.84732 3.2194 0
M  V30 7874 H 757.688 -0.740324 -0.0316412 0
M  V30 7875 H 760.335 -1.81087 0.622872 0
M  V30 7876 H 758.64 -3.75695 -1.11177 0
M  V30 7877 H 760.337 -3.93653 -0.764071 0
M  V30 7878 H 756.927 -4.23833 0.637467 0
M  V30 7879 H 761.111 -4.73649 1.48224 0
M  V30 7880 H 756.367 -5.49924 2.67196 0
M  V30 7881 H 760.541 -6.0111 3.51624 0
M  V30 7882 H 758.168 -6.39074 4.1169 0
M  V30 7883 N 759.743 -0.201713 -1.56304 0
M  V30 7884 C 761.154 0.309711 -1.84113 0
M  V30 7885 C 761.505 1.60912 -1.12258 0
M  V30 7886 O 760.63 2.12937 -0.385587 0
M  V30 7887 C 761.225 0.568706 -3.33993 0
M  V30 7888 C 759.784 1.02448 -3.6219 0
M  V30 7889 C 758.931 0.0766842 -2.77194 0
M  V30 7890 H 761.882 -0.425356 -1.52893 0
M  V30 7891 H 761.903 1.41721 -3.53122 0
M  V30 7892 H 761.415 -0.37719 -3.86263 0
M  V30 7893 H 759.516 1.98443 -3.15359 0
M  V30 7894 H 759.629 0.912619 -4.70328 0
M  V30 7895 H 757.993 0.579809 -2.48013 0
M  V30 7896 H 758.776 -0.863774 -3.32256 0
M  V30 7897 N 761.222 1.57436 0.0718424 0
M  V30 7898 C 762.452 1.91196 0.782795 0
M  V30 7899 C 762.86 0.795927 1.71644 0
M  V30 7900 O 762.203 -0.239604 1.82131 0
M  V30 7901 C 762.265 3.20421 1.63005 0
M  V30 7902 C 761.929 4.48724 0.865782 0
M  V30 7903 C 762.926 5.19571 0.185051 0
M  V30 7904 C 760.611 4.95345 0.832971 0
M  V30 7905 C 762.605 6.3529 -0.518264 0
M  V30 7906 C 760.292 6.1097 0.125884 0
M  V30 7907 C 761.29 6.80794 -0.548533 0
M  V30 7908 O 760.978 7.94213 -1.24423 0
M  V30 7909 H 760.71 0.636486 0.227731 0
M  V30 7910 H 763.264 2.05348 0.0464187 0
M  V30 7911 H 761.494 3.02478 2.40923 0
M  V30 7912 H 763.183 3.39831 2.21968 0
M  V30 7913 H 763.949 4.8458 0.201707 0
M  V30 7914 H 759.828 4.40871 1.34737 0
M  V30 7915 H 763.372 6.89725 -1.04523 0
M  V30 7916 H 759.269 6.45411 0.107155 0
M  V30 7917 H 760.037 8.10331 -1.1535 0
M  V30 7918 N 762.7 -0.34323 1.53817 0
M  V30 7919 C 763.63 -1.42709 1.84814 0
M  V30 7920 C 764.611 -1.5488 0.703297 0
M  V30 7921 O 765.796 -1.69082 0.955237 0
M  V30 7922 C 762.926 -2.79756 2.05801 0
M  V30 7923 C 761.88 -2.82392 3.21619 0
M  V30 7924 C 761.206 -4.22326 3.2794 0
M  V30 7925 C 762.506 -2.479 4.59721 0
M  V30 7926 H 764.2 -1.17018 2.75585 0
M  V30 7927 H 761.746 -0.561485 1.32602 0
M  V30 7928 H 763.699 -3.55627 2.26069 0
M  V30 7929 H 762.423 -3.06883 1.11761 0
M  V30 7930 H 761.082 -2.08974 3.01207 0
M  V30 7931 H 760.73 -4.46564 2.31494 0
M  V30 7932 H 760.43 -4.25001 4.05768 0
M  V30 7933 H 761.954 -5.00039 3.50419 0
M  V30 7934 H 763.368 -3.13484 4.80001 0
M  V30 7935 H 761.765 -2.61857 5.39954 0
M  V30 7936 H 762.835 -1.43087 4.63308 0
M  V30 7937 N 764.178 -1.45556 -0.604258 0
M  V30 7938 C 765.594 -1.30035 -0.925368 0
M  V30 7939 C 765.794 -0.255833 -1.99869 0
M  V30 7940 O 764.85 0.349076 -2.50075 0
M  V30 7941 C 766.163 -2.68028 -1.36314 0
M  V30 7942 C 767.711 -2.75951 -1.47717 0
M  V30 7943 C 768.186 -4.14476 -1.94868 0
M  V30 7944 N 769.677 -4.16787 -2.02097 0
M  V30 7945 C 770.412 -5.20845 -2.39809 0
M  V30 7946 N 769.908 -6.35246 -2.76467 0
M  V30 7947 N 771.701 -5.08204 -2.40177 0
M  V30 7948 H 763.852 -2.1214 0.10512 0
M  V30 7949 H 766.115 -0.947871 -0.0156303 0
M  V30 7950 H 765.821 -3.45667 -0.648628 0
M  V30 7951 H 765.695 -2.96711 -2.329 0
M  V30 7952 H 768.082 -1.98613 -2.18258 0
M  V30 7953 H 768.163 -2.50977 -0.494371 0
M  V30 7954 H 767.807 -4.923 -1.24912 0
M  V30 7955 H 767.737 -4.36843 -2.94068 0
M  V30 7956 H 770.228 -3.34233 -1.76343 0
M  V30 7957 H 770.541 -7.10438 -3.04134 0
M  V30 7958 H 768.886 -6.38642 -2.74155 0
M  V30 7959 H 772.077 -4.17874 -2.10947 0
M  V30 7960 H 772.25 -5.89417 -2.69242 0
M  V30 7961 N 765.656 0.84705 -1.32902 0
M  V30 7962 C 766.589 1.96038 -1.1681 0
M  V30 7963 C 767.567 1.62468 -0.0656144 0
M  V30 7964 O 768.751 1.87136 -0.226339 0
M  V30 7965 C 765.878 3.29362 -0.789839 0
M  V30 7966 C 764.924 3.81908 -1.89865 0
M  V30 7967 S 765.757 4.04576 -3.50826 0
M  V30 7968 C 766.913 5.40863 -3.14989 0
M  V30 7969 H 767.146 2.09387 -2.11055 0
M  V30 7970 H 764.679 0.999896 -1.1765 0
M  V30 7971 H 766.637 4.06405 -0.578369 0
M  V30 7972 H 765.298 3.13815 0.133878 0
M  V30 7973 H 764.491 4.78357 -1.58716 0
M  V30 7974 H 764.093 3.11733 -2.06636 0
M  V30 7975 H 766.385 6.23393 -2.65306 0
M  V30 7976 H 767.328 5.7698 -4.10488 0
M  V30 7977 H 767.736 5.05228 -2.51804 0
M  V30 7978 N 767.134 1.16236 1.06428 0
M  V30 7979 C 768.381 0.943034 1.79201 0
M  V30 7980 C 768.709 -0.529243 1.87161 0
M  V30 7981 O 767.964 -1.40874 1.35842 0
M  V30 7982 C 768.263 1.51396 3.2375 0
M  V30 7983 C 767.929 3.00833 3.35873 0
M  V30 7984 C 766.591 3.41626 3.38888 0
M  V30 7985 C 768.943 3.96825 3.37904 0
M  V30 7986 C 766.271 4.77033 3.4155 0
M  V30 7987 C 768.623 5.32116 3.42104 0
M  V30 7988 C 767.287 5.72392 3.43401 0
M  V30 7989 H 766.557 0.34508 0.655744 0
M  V30 7990 H 769.204 1.44929 1.25171 0
M  V30 7991 H 767.509 0.929114 3.80624 0
M  V30 7992 H 769.206 1.31996 3.78653 0
M  V30 7993 H 765.796 2.68306 3.3423 0
M  V30 7994 H 769.98 3.66376 3.34787 0
M  V30 7995 H 765.236 5.07569 3.40858 0
M  V30 7996 H 769.41 6.06286 3.42623 0
M  V30 7997 H 767.037 6.77296 3.45216 0
M  V30 7998 N 768.612 -1.24939 0.960631 0
M  V30 7999 C 769.889 -1.88118 0.535807 0
M  V30 8000 C 770.269 -1.86605 -0.987009 0
M  V30 8001 O 769.617 -1.33375 -1.85536 0
M  V30 8002 C 769.827 -3.30565 1.11927 0
M  V30 8003 C 771.175 -4.07296 1.19981 0
M  V30 8004 O 772.199 -3.39709 1.07126 0
M  V30 8005 O 771.058 -5.28206 1.40218 0
M  V30 8006 H 768.152 -0.807698 0.177631 0
M  V30 8007 H 770.698 -1.32964 1.05445 0
M  V30 8008 H 769.47 -3.26128 2.16231 0
M  V30 8009 H 769.093 -3.93284 0.584245 0
M  V30 8010 N 770.09 -0.729906 -1.39679 0
M  V30 8011 C 771.501 -0.346241 -1.83461 0
M  V30 8012 C 771.852 1.1215 -1.60987 0
M  V30 8013 O 770.977 1.86456 -1.09832 0
M  V30 8014 C 771.572 -0.621656 -3.33048 0
M  V30 8015 C 770.131 -0.291543 -3.75269 0
M  V30 8016 C 769.278 -0.886844 -2.62736 0
M  V30 8017 H 772.229 -0.927949 -1.28743 0
M  V30 8018 H 772.25 0.108301 -3.80346 0
M  V30 8019 H 771.762 -1.68996 -3.49373 0
M  V30 8020 H 769.863 0.771133 -3.64533 0
M  V30 8021 H 769.976 -0.770544 -4.72863 0
M  V30 8022 H 768.34 -0.313839 -2.52759 0
M  V30 8023 H 769.123 -1.95971 -2.81869 0
M  V30 8024 N 771.568 1.50203 -0.477153 0
M  V30 8025 C 772.798 2.0647 0.0731427 0
M  V30 8026 C 773.206 1.3405 1.33518 0
M  V30 8027 O 772.549 0.405164 1.79176 0
M  V30 8028 C 772.611 3.57025 0.421121 0
M  V30 8029 C 772.275 4.50973 -0.739765 0
M  V30 8030 C 773.272 4.939 -1.62353 0
M  V30 8031 C 770.957 4.93581 -0.93181 0
M  V30 8032 C 772.951 5.78149 -2.6837 0
M  V30 8033 C 770.638 5.77612 -1.99519 0
M  V30 8034 C 771.636 6.19798 -2.86949 0
M  V30 8035 O 771.324 7.02152 -3.91456 0
M  V30 8036 H 771.056 0.675969 -0.00648243 0
M  V30 8037 H 773.61 1.94278 -0.66673 0
M  V30 8038 H 771.84 3.67141 1.21426 0
M  V30 8039 H 773.529 3.95632 0.907213 0
M  V30 8040 H 774.295 4.61646 -1.48687 0
M  V30 8041 H 770.174 4.60262 -0.260739 0
M  V30 8042 H 773.718 6.10997 -3.36643 0
M  V30 8043 H 769.615 6.09279 -2.13189 0
M  V30 8044 H 770.383 7.20414 -3.88518 0
M  V30 8045 N 773.046 0.209999 1.56195 0
M  V30 8046 C 774.271 -0.433064 2.02828 0
M  V30 8047 C 774.696 -1.5337 1.08901 0
M  V30 8048 O 774.054 -1.81144 0.0751132 0
M  V30 8049 C 774.102 -0.952635 3.47789 0
M  V30 8050 O 773.206 -2.0647 3.56993 0
M  V30 8051 H 772.547 -0.0994594 0.656509 0
M  V30 8052 H 775.077 0.32525 2.01998 0
M  V30 8053 H 775.087 -1.26542 3.8788 0
M  V30 8054 H 773.762 -0.147007 4.1564 0
M  V30 8055 H 772.339 -1.75942 3.28784 0
M  V30 8056 N 774.524 -1.57472 -0.0634922 0
M  V30 8057 C 775.772 -1.87283 -0.759563 0
M  V30 8058 C 776.093 -0.803135 -1.77693 0
M  V30 8059 O 775.363 0.167293 -1.95184 0
M  V30 8060 H 773.943 -0.691106 -0.283516 0
M  V30 8061 H 776.605 -1.94864 -0.0376091 0
M  V30 8062 H 775.701 -2.85064 -1.27062 0
M  V30 8063 N 776.003 0.335068 -1.53997 0
M  V30 8064 C 776.951 1.43206 -1.83289 0
M  V30 8065 C 777.945 1.54081 -0.703953 0
M  V30 8066 O 779.151 1.56603 -0.887432 0
M  V30 8067 H 775.526 0.477655 -0.580818 0
M  V30 8068 H 777.497 1.15719 -2.75049 0
M  V30 8069 C 776.246 2.79602 -2.06683 0
M  V30 8070 H 775.569 2.72004 -2.93008 0
M  V30 8071 H 777.009 3.55459 -2.31139 0
M  V30 8072 C 775.468 3.25873 -0.854883 0
M  V30 8073 O 775.998 4.01657 -0.0584648 0
M  V30 8074 N 774.204 2.82777 -0.669729 0
M  V30 8075 H 773.751 2.21269 -1.31901 0
M  V30 8076 H 773.709 3.1409 0.13969 0
M  V30 8077 N 777.481 1.45874 0.596531 0
M  V30 8078 C 778.706 1.54247 1.38646 0
M  V30 8079 C 779.131 0.179571 1.87241 0
M  V30 8080 O 778.489 -0.837831 1.6078 0
M  V30 8081 C 778.537 2.54015 2.55946 0
M  V30 8082 O 777.641 2.06561 3.5694 0
M  V30 8083 H 776.982 0.519555 0.413471 0
M  V30 8084 H 779.512 1.91327 0.724936 0
M  V30 8085 H 779.522 2.73179 3.03047 0
M  V30 8086 H 778.197 3.52994 2.19928 0
M  V30 8087 H 776.774 1.97324 3.16414 0
M  V30 8088 N 778.959 -0.83999 1.33349 0
M  V30 8089 C 780.205 -1.59724 1.25936 0
M  V30 8090 C 780.56 -1.91616 -0.173563 0
M  V30 8091 O 779.853 -1.55791 -1.11534 0
M  V30 8092 C 780.047 -2.91571 2.06691 0
M  V30 8093 C 779.876 -2.72556 3.57691 0
M  V30 8094 C 778.646 -2.70174 4.27006 0
M  V30 8095 C 780.844 -2.45272 4.52047 0
M  V30 8096 N 778.826 -2.42525 5.63964 0
M  V30 8097 C 780.197 -2.27163 5.76885 0
M  V30 8098 C 782.252 -2.30859 4.41144 0
M  V30 8099 C 780.955 -1.96105 6.92052 0
M  V30 8100 C 782.981 -2.01194 5.56125 0
M  V30 8101 C 782.343 -1.83897 6.79972 0
M  V30 8102 H 778.442 -0.587568 0.516031 0
M  V30 8103 H 781.026 -0.986169 1.67877 0
M  V30 8104 H 779.197 -3.5063 1.67073 0
M  V30 8105 H 780.929 -3.56762 1.91057 0
M  V30 8106 H 777.684 -2.8364 3.7927 0
M  V30 8107 H 778.108 -2.31588 6.36157 0
M  V30 8108 H 782.75 -2.42946 3.46031 0
M  V30 8109 H 780.468 -1.82756 7.87163 0
M  V30 8110 H 784.054 -1.90799 5.49624 0
M  V30 8111 H 782.934 -1.61271 7.67438 0
M  V30 8112 N 780.437 -1.16799 -1.0581 0
M  V30 8113 C 781.4 -0.881396 -2.11575 0
M  V30 8114 C 782.4 0.12574 -1.60308 0
M  V30 8115 O 783.59 -0.105716 -1.73879 0
M  V30 8116 C 780.722 -0.319037 -3.39404 0
M  V30 8117 H 781.915 -1.81907 -2.38432 0
M  V30 8118 H 779.468 -0.977597 -1.21954 0
M  V30 8119 H 780.203 0.626082 -3.18199 0
M  V30 8120 H 779.988 -1.04481 -3.77923 0
M  V30 8121 H 781.478 -0.13663 -4.17376 0
M  V30 8122 N 781.915 1.24427 -0.967243 0
M  V30 8123 C 783.192 1.87831 -0.545776 0
M  V30 8124 C 783.572 1.87126 0.977099 0
M  V30 8125 O 782.92 1.34357 1.84826 0
M  V30 8126 C 783.13 3.29967 -1.13679 0
M  V30 8127 C 784.478 4.06654 -1.22139 0
M  V30 8128 O 785.502 3.39136 -1.08926 0
M  V30 8129 O 784.361 5.27455 -1.43017 0
M  V30 8130 H 781.455 0.806745 -0.181912 0
M  V30 8131 H 784.001 1.32403 -1.06148 0
M  V30 8132 H 782.773 3.24977 -2.17958 0
M  V30 8133 H 782.396 3.92969 -0.605093 0
M  V30 8134 N 783.393 0.737304 1.3929 0
M  V30 8135 C 784.641 0.285691 2.00071 0
M  V30 8136 C 784.962 -1.13169 1.58801 0
M  V30 8137 O 784.232 -1.77104 0.837308 0
M  V30 8138 H 782.812 0.102638 0.739915 0
M  V30 8139 H 785.474 0.947775 1.70303 0
M  V30 8140 H 784.57 0.335906 3.10287 0
M  V30 8141 N 784.871 -1.49948 0.485112 0
M  V30 8142 C 785.801 -2.31675 -0.291364 0
M  V30 8143 C 786.782 -1.39216 -0.977383 0
M  V30 8144 O 787.967 -1.68133 -0.971855 0
M  V30 8145 C 785.097 -3.19326 -1.36558 0
M  V30 8146 C 784.051 -4.2045 -0.800359 0
M  V30 8147 C 783.377 -4.96931 -1.97391 0
M  V30 8148 C 784.677 -5.21925 0.197867 0
M  V30 8149 H 786.371 -2.96839 0.390775 0
M  V30 8150 H 783.917 -1.42749 0.189375 0
M  V30 8151 H 785.87 -3.75304 -1.91638 0
M  V30 8152 H 784.594 -2.52074 -2.07668 0
M  V30 8153 H 783.253 -3.65594 -0.271428 0
M  V30 8154 H 782.901 -4.26141 -2.67232 0
M  V30 8155 H 782.601 -5.65344 -1.60187 0
M  V30 8156 H 784.125 -5.55749 -2.52935 0
M  V30 8157 H 785.539 -5.72691 -0.264239 0
M  V30 8158 H 783.936 -5.98138 0.484908 0
M  V30 8159 H 785.006 -4.71809 1.11912 0
M  V30 8160 N 786.349 -0.21828 -1.56081 0
M  V30 8161 C 787.312 0.679633 -2.18892 0
M  V30 8162 C 788.312 1.12405 -1.14986 0
M  V30 8163 O 789.502 1.03339 -1.40238 0
M  V30 8164 C 786.634 1.93063 -2.80962 0
M  V30 8165 H 787.827 0.132066 -2.99609 0
M  V30 8166 H 785.38 0.0313374 -1.56269 0
M  V30 8167 H 786.115 2.52015 -2.04106 0
M  V30 8168 H 785.9 1.62046 -3.57048 0
M  V30 8169 H 787.39 2.57043 -3.29118 0
M  V30 8170 N 787.827 1.57504 0.0551401 0
M  V30 8171 C 789.055 1.92294 0.76358 0
M  V30 8172 C 789.47 0.815774 1.70266 0
M  V30 8173 O 788.827 -0.209772 1.8129 0
M  V30 8174 C 788.878 3.26914 1.54302 0
M  V30 8175 O 788.599 4.33375 0.641666 0
M  V30 8176 C 790.1 3.75825 2.35097 0
M  V30 8177 H 787.32 0.635229 0.216159 0
M  V30 8178 H 789.864 2.0449 0.0204385 0
M  V30 8179 H 788.019 3.16196 2.23828 0
M  V30 8180 H 788.433 5.10927 1.1855 0
M  V30 8181 H 789.907 4.72603 2.8522 0
M  V30 8182 H 790.384 3.0568 3.15367 0
M  V30 8183 H 790.99 3.89542 1.70696 0
M  V30 8184 N 789.305 -0.326896 1.54172 0
M  V30 8185 C 790.552 -1.06523 1.72218 0
M  V30 8186 C 790.88 -1.88119 0.494114 0
M  V30 8187 O 790.135 -1.8855 -0.524147 0
M  V30 8188 C 790.434 -2.0208 2.94785 0
M  V30 8189 C 790.1 -1.36665 4.2969 0
M  V30 8190 C 788.762 -1.18556 4.66367 0
M  V30 8191 C 791.114 -0.896868 5.13425 0
M  V30 8192 C 788.442 -0.521113 5.84381 0
M  V30 8193 C 790.794 -0.246261 6.3212 0
M  V30 8194 C 789.458 -0.052987 6.67479 0
M  V30 8195 H 788.728 -0.389796 0.63019 0
M  V30 8196 H 791.375 -0.342725 1.88408 0
M  V30 8197 H 789.68 -2.8077 2.73268 0
M  V30 8198 H 791.377 -2.59231 3.05941 0
M  V30 8199 H 787.967 -1.51762 4.00832 0
M  V30 8200 H 792.151 -1.02458 4.85609 0
M  V30 8201 H 787.407 -0.36014 6.10338 0
M  V30 8202 H 791.581 0.125775 6.96286 0
M  V30 8203 H 789.208 0.463903 7.58783 0
M  V30 8204 N 790.784 -1.46188 -0.588786 0
M  V30 8205 C 792.061 -1.41659 -1.34878 0
M  V30 8206 C 792.441 -0.0968913 -2.10878 0
M  V30 8207 O 791.789 0.921468 -2.09096 0
M  V30 8208 C 791.999 -2.6424 -2.27988 0
M  V30 8209 C 793.347 -3.1013 -2.90008 0
M  V30 8210 O 794.371 -2.64745 -2.38303 0
M  V30 8211 O 793.23 -3.88944 -3.83908 0
M  V30 8212 H 790.324 -0.563058 -0.605718 0
M  V30 8213 H 792.87 -1.58346 -0.610309 0
M  V30 8214 H 791.642 -3.51853 -1.71217 0
M  V30 8215 H 791.265 -2.49982 -3.09184 0
M  V30 8216 N 792.262 0.832906 -1.33792 0
M  V30 8217 C 793.225 1.92471 -1.24449 0
M  V30 8218 C 794.225 1.59981 -0.162085 0
M  V30 8219 O 795.415 1.69208 -0.414029 0
M  V30 8220 C 792.547 3.28278 -0.919044 0
M  V30 8221 H 793.74 2.0218 -2.21502 0
M  V30 8222 H 791.293 1.0257 -1.17936 0
M  V30 8223 H 792.028 3.24263 0.048738 0
M  V30 8224 H 791.813 3.53241 -1.70187 0
M  V30 8225 H 793.303 4.08253 -0.878576 0
M  V30 8226 N 793.74 1.17359 1.05189 0
M  V30 8227 C 794.988 0.960087 1.77839 0
M  V30 8228 C 795.309 -0.512554 1.88143 0
M  V30 8229 O 794.579 -1.3721 1.39822 0
M  V30 8230 H 793.159 0.352234 0.658741 0
M  V30 8231 H 795.821 1.47834 1.27008 0
M  V30 8232 H 794.917 1.38843 2.79516 0
M  V30 8233 N 795.218 -1.23913 0.973828 0
M  V30 8234 C 796.166 -2.27141 0.50098 0
M  V30 8235 C 797.16 -1.63623 -0.438631 0
M  V30 8236 O 798.366 -1.77253 -0.313247 0
M  V30 8237 H 794.741 -0.73817 0.14356 0
M  V30 8238 H 796.712 -2.64392 1.38346 0
M  V30 8239 C 795.461 -3.47195 -0.187377 0
M  V30 8240 H 794.784 -3.96318 0.526535 0
M  V30 8241 H 796.224 -4.21252 -0.481962 0
M  V30 8242 C 794.683 -3.05678 -1.41642 0
M  V30 8243 O 795.213 -3.1338 -2.51309 0
M  V30 8244 N 793.419 -2.60661 -1.28469 0
M  V30 8245 H 792.966 -2.54594 -0.39238 0
M  V30 8246 H 792.924 -2.33249 -2.10813 0
M  V30 8247 N 796.696 -0.74468 -1.38897 0
M  V30 8248 C 797.644 -0.100312 -2.32384 0
M  V30 8249 C 798.638 0.715191 -1.53562 0
M  V30 8250 O 799.844 0.615288 -1.69157 0
M  V30 8251 H 796.219 -0.0136403 -0.751876 0
M  V30 8252 H 798.19 -0.905007 -2.84345 0
M  V30 8253 C 796.939 0.785432 -3.38713 0
M  V30 8254 H 796.262 0.167308 -3.9945 0
M  V30 8255 H 797.702 1.20374 -4.06554 0
M  V30 8256 C 796.161 1.92408 -2.76552 0
M  V30 8257 O 796.691 3.01752 -2.65157 0
M  V30 8258 N 794.897 1.71642 -2.34494 0
M  V30 8259 H 794.444 0.827079 -2.43961 0
M  V30 8260 H 794.402 2.48 -1.93244 0
M  V30 8261 N 798.174 1.49689 -0.493057 0
M  V30 8262 C 799.106 2.26867 0.326195 0
M  V30 8263 C 800.119 1.33083 0.937697 0
M  V30 8264 O 801.308 1.58427 0.822382 0
M  V30 8265 C 798.408 3.0519 1.4735 0
M  V30 8266 C 797.581 4.26491 0.970767 0
M  V30 8267 C 796.64 4.86926 1.99473 0
M  V30 8268 O 795.666 5.47221 1.56647 0
M  V30 8269 N 796.868 4.75871 3.32456 0
M  V30 8270 H 799.633 2.97816 -0.335547 0
M  V30 8271 H 797.194 1.58602 -0.325129 0
M  V30 8272 H 799.186 3.42496 2.15589 0
M  V30 8273 H 797.756 2.369 2.03954 0
M  V30 8274 H 796.976 3.94036 0.113529 0
M  V30 8275 H 798.264 5.05092 0.613156 0
M  V30 8276 H 797.662 4.2797 3.69944 0
M  V30 8277 H 796.219 5.17383 3.96431 0
M  V30 8278 N 799.652 0.226554 1.55963 0
M  V30 8279 C 800.562 -0.692725 2.24139 0
M  V30 8280 C 801.578 -1.20971 1.25068 0
M  V30 8281 O 802.754 -1.25027 1.57893 0
M  V30 8282 C 799.819 -1.88183 2.91184 0
M  V30 8283 C 798.88 -1.40633 4.05612 0
M  V30 8284 C 798.113 -2.53875 4.6945 0
M  V30 8285 O 798.336 -3.72129 4.32292 0
M  V30 8286 O 797.27 -2.24792 5.58348 0
M  V30 8287 H 801.096 -0.141921 3.03368 0
M  V30 8288 H 798.681 -0.0041049 1.49399 0
M  V30 8289 H 800.563 -2.57617 3.33484 0
M  V30 8290 H 799.238 -2.42064 2.14911 0
M  V30 8291 H 798.145 -0.67986 3.67871 0
M  V30 8292 H 799.478 -0.913838 4.83642 0
M  V30 8293 N 801.13 -1.57531 -0.0467866 0
M  V30 8294 C 802.355 -1.93087 -0.757123 0
M  V30 8295 C 802.78 -0.825116 -1.69037 0
M  V30 8296 O 802.138 0.220449 -1.79955 0
M  V30 8297 C 802.186 -3.27669 -1.5055 0
M  V30 8298 O 801.29 -3.18667 -2.61773 0
M  V30 8299 H 800.631 -0.631597 -0.204892 0
M  V30 8300 H 803.161 -2.04599 -0.00755232 0
M  V30 8301 H 803.171 -3.6214 -1.87932 0
M  V30 8302 H 801.846 -4.07717 -0.820931 0
M  V30 8303 H 800.423 -2.95798 -2.27064 0
M  V30 8304 N 802.608 0.318715 -1.54344 0
M  V30 8305 C 803.833 1.07987 -1.77069 0
M  V30 8306 C 804.258 1.80766 -0.520117 0
M  V30 8307 O 803.616 1.73424 0.528566 0
M  V30 8308 C 803.664 2.04987 -2.96669 0
M  V30 8309 O 802.768 3.12974 -2.68554 0
M  V30 8310 H 802.109 0.311109 -0.586606 0
M  V30 8311 H 804.639 0.361533 -2.0138 0
M  V30 8312 H 804.649 2.47771 -3.2415 0
M  V30 8313 H 803.324 1.51417 -3.87357 0
M  V30 8314 H 801.901 2.74831 -2.52037 0
M  V30 8315 N 804.086 1.46499 0.581025 0
M  V30 8316 C 805.311 1.55708 1.37002 0
M  V30 8317 C 805.736 0.19942 1.8704 0
M  V30 8318 O 805.094 -0.820731 1.61659 0
M  V30 8319 C 805.142 2.56716 2.53238 0
M  V30 8320 O 804.246 2.10336 3.54729 0
M  V30 8321 H 803.587 0.523912 0.407937 0
M  V30 8322 H 806.117 1.92085 0.704602 0
M  V30 8323 H 806.127 2.76378 3.00132 0
M  V30 8324 H 804.802 3.55307 2.16171 0
M  V30 8325 H 803.379 2.00669 3.14303 0
M  V30 8326 N 805.565 -0.825799 1.34232 0
M  V30 8327 C 806.475 -1.9684 1.27638 0
M  V30 8328 C 807.491 -1.73018 0.184569 0
M  V30 8329 O 808.667 -1.97172 0.410525 0
M  V30 8330 C 805.732 -3.31084 1.02879 0
M  V30 8331 C 804.793 -3.67933 2.21188 0
M  V30 8332 C 804.026 -4.95772 1.976 0
M  V30 8333 O 804.249 -5.62721 0.93281 0
M  V30 8334 O 803.183 -5.30431 2.84477 0
M  V30 8335 H 807.009 -2.05346 2.23756 0
M  V30 8336 H 804.594 -0.960772 1.1441 0
M  V30 8337 H 806.476 -4.11492 0.908406 0
M  V30 8338 H 805.151 -3.23552 0.0979821 0
M  V30 8339 H 804.058 -2.87981 2.38784 0
M  V30 8340 H 805.391 -3.80147 3.12648 0
M  V30 8341 N 807.043 -1.17915 -1.04565 0
M  V30 8342 C 808.006 -0.903787 -2.10628 0
M  V30 8343 C 809.006 0.10873 -1.60432 0
M  V30 8344 O 810.196 -0.124152 -1.73757 0
M  V30 8345 C 807.328 -0.355017 -3.39046 0
M  V30 8346 H 808.521 -1.84425 -2.3649 0
M  V30 8347 H 806.074 -0.990477 -1.2091 0
M  V30 8348 H 806.809 0.592297 -3.18845 0
M  V30 8349 H 806.594 -1.08484 -3.76794 0
M  V30 8350 H 808.084 -0.180891 -4.17208 0
M  V30 8351 N 808.521 1.23394 -0.980386 0
M  V30 8352 C 809.454 2.23404 -0.465404 0
M  V30 8353 C 810.432 1.55735 0.467471 0
M  V30 8354 O 811.616 1.84295 0.395921 0
M  V30 8355 C 808.743 3.3712 0.32672 0
M  V30 8356 C 807.789 4.22935 -0.550296 0
M  V30 8357 S 808.622 4.96824 -1.99814 0
M  V30 8358 C 809.778 6.13991 -1.21516 0
M  V30 8359 H 810.011 2.6674 -1.31289 0
M  V30 8360 H 807.544 1.32874 -0.78638 0
M  V30 8361 H 809.502 4.03065 0.777738 0
M  V30 8362 H 808.163 2.92317 1.14933 0
M  V30 8363 H 807.356 5.03966 0.0585298 0
M  V30 8364 H 806.958 3.62058 -0.937558 0
M  V30 8365 H 809.25 6.75822 -0.476476 0
M  V30 8366 H 810.193 6.7926 -2.0003 0
M  V30 8367 H 810.601 5.59708 -0.733949 0
M  V30 8368 N 809.999 0.752036 1.385 0
M  V30 8369 C 810.949 0.0990189 2.27785 0
M  V30 8370 C 811.933 -0.694867 1.45122 0
M  V30 8371 O 813.125 -0.561077 1.67872 0
M  V30 8372 C 810.254 -0.794531 3.33979 0
M  V30 8373 C 809.34 0.00611984 4.241 0
M  V30 8374 N 809.731 1.04174 4.94956 0
M  V30 8375 C 808.029 -0.220934 4.45452 0
M  V30 8376 C 808.73 1.52601 5.61327 0
M  V30 8377 N 807.706 0.84159 5.37046 0
M  V30 8378 H 811.508 0.892208 2.8003 0
M  V30 8379 H 809.022 0.587934 1.51384 0
M  V30 8380 H 811.019 -1.27797 3.96829 0
M  V30 8381 H 809.679 -1.58669 2.83292 0
M  V30 8382 H 810.69 1.42349 4.97953 0
M  V30 8383 H 807.367 -0.986556 4.05676 0
M  V30 8384 H 808.757 2.38857 6.2801 0
M  V30 8385 N 811.477 -1.49425 0.500989 0
M  V30 8386 C 812.44 -2.27646 -0.266416 0
M  V30 8387 C 813.44 -1.3366 -0.893961 0
M  V30 8388 O 814.63 -1.5682 -0.758495 0
M  V30 8389 C 811.762 -3.11618 -1.38227 0
M  V30 8390 H 812.955 -2.96945 0.419973 0
M  V30 8391 H 810.508 -1.5419 0.255954 0
M  V30 8392 H 811.243 -2.46885 -2.10281 0
M  V30 8393 H 811.028 -3.80721 -0.937746 0
M  V30 8394 H 812.518 -3.70698 -1.92283 0
M  V30 8395 N 812.955 -0.234822 -1.55841 0
M  V30 8396 C 814.201 0.387023 -1.99684 0
M  V30 8397 C 814.556 1.56439 -1.12003 0
M  V30 8398 O 813.849 1.90818 -0.172879 0
M  V30 8399 C 814.043 0.858032 -3.46947 0
M  V30 8400 C 813.872 -0.272152 -4.48876 0
M  V30 8401 C 812.642 -0.742896 -4.99809 0
M  V30 8402 C 814.84 -1.09501 -5.02508 0
M  V30 8403 N 812.822 -1.84675 -5.85464 0
M  V30 8404 C 814.193 -2.04748 -5.85217 0
M  V30 8405 C 816.248 -1.13295 -4.84839 0
M  V30 8406 C 814.951 -3.03483 -6.52143 0
M  V30 8407 C 816.977 -2.10854 -5.52535 0
M  V30 8408 C 816.339 -3.04838 -6.35022 0
M  V30 8409 H 812.438 0.107918 -0.774518 0
M  V30 8410 H 815.022 -0.349635 -1.91535 0
M  V30 8411 H 813.193 1.56401 -3.55518 0
M  V30 8412 H 814.925 1.45381 -3.77686 0
M  V30 8413 H 811.68 -0.32915 -4.72455 0
M  V30 8414 H 812.104 -2.40108 -6.32991 0
M  V30 8415 H 816.746 -0.420226 -4.20706 0
M  V30 8416 H 814.464 -3.7571 -7.15449 0
M  V30 8417 H 818.05 -2.1448 -5.40823 0
M  V30 8418 H 816.93 -3.79097 -6.8648 0
M  V30 8419 N 814.433 1.57553 0.0384317 0
M  V30 8420 C 815.661 1.93093 0.743141 0
M  V30 8421 C 816.076 0.833787 1.69391 0
M  V30 8422 O 815.433 -0.190532 1.81503 0
M  V30 8423 C 815.484 3.28533 1.50826 0
M  V30 8424 O 815.205 4.34032 0.595665 0
M  V30 8425 C 816.706 3.78297 2.31098 0
M  V30 8426 H 813.926 0.637486 0.20941 0
M  V30 8427 H 816.47 2.045 -0.00125154 0
M  V30 8428 H 814.625 3.18552 2.20462 0
M  V30 8429 H 815.039 5.12155 1.13124 0
M  V30 8430 H 816.513 4.75602 2.80191 0
M  V30 8431 H 816.99 3.09008 3.12107 0
M  V30 8432 H 817.596 3.91331 1.66555 0
M  V30 8433 N 815.911 -0.310526 1.54511 0
M  V30 8434 C 816.859 -1.40272 1.85544 0
M  V30 8435 C 817.853 -1.52941 0.728377 0
M  V30 8436 O 819.059 -1.55172 0.912234 0
M  V30 8437 H 815.434 -0.468355 0.588343 0
M  V30 8438 H 817.405 -1.11329 2.76855 0
M  V30 8439 C 816.154 -2.76279 2.11105 0
M  V30 8440 H 815.477 -2.67308 2.97298 0
M  V30 8441 H 816.917 -3.51736 2.36765 0
M  V30 8442 C 815.376 -3.24472 0.906618 0
M  V30 8443 O 815.906 -4.01514 0.122358 0
M  V30 8444 N 814.112 -2.81676 0.714632 0
M  V30 8445 H 813.659 -2.19143 1.35404 0
M  V30 8446 H 813.617 -3.14272 -0.089703 0
M  V30 8447 N 817.389 -1.46805 -0.573248 0
M  V30 8448 C 818.635 -1.5283 -1.33307 0
M  V30 8449 C 818.968 -0.183287 -1.93333 0
M  V30 8450 O 818.243 0.806354 -1.76998 0
M  V30 8451 C 818.526 -2.63414 -2.45531 0
M  V30 8452 C 818.379 -4.07478 -1.90478 0
M  V30 8453 C 819.698 -2.70014 -3.47535 0
M  V30 8454 H 816.817 -0.556371 -0.483343 0
M  V30 8455 H 819.459 -1.78787 -0.643066 0
M  V30 8456 H 817.609 -2.41412 -3.04389 0
M  V30 8457 H 819.281 -4.40795 -1.36004 0
M  V30 8458 H 817.524 -4.16511 -1.21248 0
M  V30 8459 H 818.195 -4.80598 -2.71531 0
M  V30 8460 H 820.671 -2.89817 -2.98572 0
M  V30 8461 H 819.547 -3.49192 -4.23504 0
M  V30 8462 H 819.808 -1.76436 -4.05367 0
M  V30 8463 N 818.867 0.818669 -1.34668 0
M  V30 8464 C 820.116 1.57017 -1.26604 0
M  V30 8465 C 820.429 1.94936 0.161036 0
M  V30 8466 O 821.635 2.69051 0.36386 0
M  V30 8467 C 820.091 2.83305 -2.2196 0
M  V30 8468 C 819.699 2.52671 -3.69948 0
M  V30 8469 C 821.443 3.61324 -2.22813 0
M  V30 8470 C 819.35 3.75178 -4.5716 0
M  V30 8471 H 818.28 0.589323 -0.470335 0
M  V30 8472 H 820.931 0.900956 -1.59859 0
M  V30 8473 H 819.313 3.51874 -1.81661 0
M  V30 8474 H 820.487 1.92186 -4.18809 0
M  V30 8475 H 818.802 1.8792 -3.71584 0
M  V30 8476 H 821.399 4.52294 -2.85192 0
M  V30 8477 H 821.742 3.97759 -1.22857 0
M  V30 8478 H 822.275 2.99703 -2.61578 0
M  V30 8479 H 819.014 3.43861 -5.58068 0
M  V30 8480 H 818.534 4.34931 -4.13031 0
M  V30 8481 H 820.213 4.42542 -4.71981 0
M  V30 8482 N 820.346 1.18468 1.03938 0
M  V30 8483 C 821.276 0.936389 2.13902 0
M  V30 8484 C 822.257 -0.126381 1.6963 0
M  V30 8485 O 823.442 0.0264757 1.94182 0
M  V30 8486 C 820.572 0.462729 3.44204 0
M  V30 8487 C 819.526 1.46613 4.02105 0
M  V30 8488 C 818.852 0.84994 5.27902 0
M  V30 8489 C 820.152 2.84323 4.3813 0
M  V30 8490 H 821.846 1.85602 2.3493 0
M  V30 8491 H 819.392 0.893806 1.12903 0
M  V30 8492 H 821.345 0.276382 4.20493 0
M  V30 8493 H 820.069 -0.492477 3.22866 0
M  V30 8494 H 818.728 1.63944 3.27899 0
M  V30 8495 H 818.376 -0.112493 5.02874 0
M  V30 8496 H 818.076 1.51988 5.67603 0
M  V30 8497 H 819.6 0.674152 6.06867 0
M  V30 8498 H 821.014 2.70636 5.054 0
M  V30 8499 H 819.411 3.48012 4.88884 0
M  V30 8500 H 820.481 3.37776 3.47901 0
M  V30 8501 N 821.824 -1.22873 0.986916 0
M  V30 8502 C 823.07 -1.92047 0.670042 0
M  V30 8503 C 823.425 -1.75497 -0.788587 0
M  V30 8504 O 822.718 -1.10934 -1.56218 0
M  V30 8505 C 822.912 -3.43014 1.00379 0
M  V30 8506 C 822.741 -3.74251 2.49332 0
M  V30 8507 C 821.511 -3.94589 3.15638 0
M  V30 8508 C 823.709 -3.79208 3.47428 0
M  V30 8509 N 821.691 -4.13086 4.54129 0
M  V30 8510 C 823.062 -4.02775 4.71352 0
M  V30 8511 C 825.117 -3.62029 3.41818 0
M  V30 8512 C 823.82 -4.10946 5.90352 0
M  V30 8513 C 825.846 -3.71457 4.60189 0
M  V30 8514 C 825.208 -3.95468 5.82911 0
M  V30 8515 H 821.307 -0.723668 0.29636 0
M  V30 8516 H 823.891 -1.47946 1.26571 0
M  V30 8517 H 822.062 -3.85936 0.436762 0
M  V30 8518 H 823.794 -3.99551 0.643522 0
M  V30 8519 H 820.549 -3.91762 2.66119 0
M  V30 8520 H 820.973 -4.26275 5.25945 0
M  V30 8521 H 825.615 -3.42457 2.47958 0
M  V30 8522 H 823.333 -4.29324 6.84621 0
M  V30 8523 H 826.919 -3.59511 4.57431 0
M  V30 8524 H 825.799 -4.02584 6.72975 0
M  V30 8525 N 823.302 -0.75937 -1.38099 0
M  V30 8526 C 824.265 -0.14372 -2.28749 0
M  V30 8527 C 825.265 0.641338 -1.47457 0
M  V30 8528 O 826.455 0.466751 -1.67831 0
M  V30 8529 C 823.587 0.804545 -3.3127 0
M  V30 8530 H 824.78 -0.942663 -2.847 0
M  V30 8531 H 822.333 -0.526757 -1.47156 0
M  V30 8532 H 823.068 1.62895 -2.80421 0
M  V30 8533 H 822.853 0.243939 -3.9134 0
M  V30 8534 H 824.343 1.23111 -3.99041 0
M  V30 8535 N 824.78 1.49157 -0.508906 0
M  V30 8536 C 825.69 2.33045 0.269656 0
M  V30 8537 C 826.706 1.45143 0.959662 0
M  V30 8538 O 827.882 1.78155 0.939295 0
M  V30 8539 C 824.947 3.20772 1.31554 0
M  V30 8540 C 824.008 4.24531 0.638131 0
M  V30 8541 C 823.241 5.08065 1.63418 0
M  V30 8542 O 823.464 4.93238 2.86483 0
M  V30 8543 O 822.398 5.90117 1.18516 0
M  V30 8544 H 826.224 3.00821 -0.417183 0
M  V30 8545 H 823.809 1.46938 -0.270119 0
M  V30 8546 H 825.691 3.75095 1.92047 0
M  V30 8547 H 824.366 2.55681 1.98516 0
M  V30 8548 H 823.273 3.74099 -0.00674357 0
M  V30 8549 H 824.606 4.92199 0.0108155 0
M  V30 8550 N 826.258 0.243083 1.55714 0
M  V30 8551 C 827.221 -0.644723 2.19945 0
M  V30 8552 C 828.221 -1.10562 1.16759 0
M  V30 8553 O 829.411 -1.01095 1.41865 0
M  V30 8554 C 826.543 -1.88569 2.83997 0
M  V30 8555 H 827.736 -0.0843839 2.99781 0
M  V30 8556 H 825.289 -0.00647246 1.56299 0
M  V30 8557 H 826.024 -2.48736 2.08089 0
M  V30 8558 H 825.809 -1.56345 3.59581 0
M  V30 8559 H 827.299 -2.51774 3.33166 0
M  V30 8560 N 827.736 -1.57571 -0.0300757 0
M  V30 8561 C 828.964 -1.93485 -0.732891 0
M  V30 8562 C 829.379 -0.842758 -1.68947 0
M  V30 8563 O 828.736 0.180904 -1.81601 0
M  V30 8564 C 828.787 -3.29328 -1.49082 0
M  V30 8565 O 828.508 -4.34341 -0.572639 0
M  V30 8566 C 830.009 -3.79517 -2.29088 0
M  V30 8567 H 827.229 -0.638588 -0.206026 0
M  V30 8568 H 829.773 -2.04496 0.0120966 0
M  V30 8569 H 827.928 -3.19716 -2.1877 0
M  V30 8570 H 828.342 -5.12748 -1.10406 0
M  V30 8571 H 829.816 -4.77081 -2.77665 0
M  V30 8572 H 830.293 -3.10659 -3.10464 0
M  V30 8573 H 830.899 -3.92208 -1.64477 0
M  V30 8574 N 829.214 0.302327 -1.54673 0
M  V30 8575 C 830.462 1.03565 -1.73547 0
M  V30 8576 C 830.783 1.87843 -0.523448 0
M  V30 8577 O 830.053 1.90367 0.462295 0
M  V30 8578 H 828.633 0.385358 -0.639928 0
M  V30 8579 H 831.295 0.333632 -1.92023 0
M  V30 8580 H 830.391 1.68952 -2.62415 0
M  V30 8581 N 830.692 1.47107 0.565454 0
M  V30 8582 C 831.64 1.59368 1.69424 0
M  V30 8583 C 832.634 0.461344 1.62997 0
M  V30 8584 O 833.84 0.638849 1.68282 0
M  V30 8585 H 830.215 0.501387 0.560459 0
M  V30 8586 H 832.186 2.54242 1.56217 0
M  V30 8587 C 830.935 1.61739 3.07792 0
M  V30 8588 H 830.258 2.48215 3.13416 0
M  V30 8589 H 831.698 1.7437 3.86486 0
M  V30 8590 C 830.157 0.349156 3.35086 0
M  V30 8591 O 830.687 -0.553287 3.97871 0
M  V30 8592 N 828.893 0.231723 2.89675 0
M  V30 8593 H 828.44 0.967021 2.3876 0
M  V30 8594 H 828.398 -0.615911 3.08308 0
M  V30 8595 N 832.17 -0.811516 1.35101 0
M  V30 8596 C 833.117 -1.92308 1.27617 0
M  V30 8597 C 834.087 -1.6543 0.149091 0
M  V30 8598 O 835.272 -1.8789 0.331974 0
M  V30 8599 C 832.412 -3.28768 1.04908 0
M  V30 8600 C 831.525 -3.67865 2.26493 0
M  V30 8601 C 830.66 -4.9333 1.96974 0
M  V30 8602 C 829.699 -5.25041 3.1464 0
M  V30 8603 N 828.836 -6.41685 2.84929 0
M  V30 8604 H 833.676 -1.98041 2.22674 0
M  V30 8605 H 831.213 -0.968755 1.10696 0
M  V30 8606 H 833.171 -4.07426 0.897749 0
M  V30 8607 H 831.801 -3.22517 0.135151 0
M  V30 8608 H 830.853 -2.84507 2.52507 0
M  V30 8609 H 832.165 -3.87263 3.14371 0
M  V30 8610 H 831.319 -5.79803 1.78643 0
M  V30 8611 H 830.058 -4.75958 1.06374 0
M  V30 8612 H 829.063 -4.3706 3.33554 0
M  V30 8613 H 830.288 -5.44346 4.06035 0
M  V30 8614 H 828.234 -6.25747 1.96918 0
M  V30 8615 H 828.151 -6.6131 3.66341 0
M  V30 8616 H 829.419 -7.31198 2.70128 0
M  V30 8617 N 833.648 -1.19017 -1.03309 0
M  V30 8618 C 834.611 -0.926076 -2.09658 0
M  V30 8619 C 835.611 0.0917077 -1.60538 0
M  V30 8620 O 836.801 -0.142574 -1.73616 0
M  V30 8621 C 833.933 -0.390958 -3.38651 0
M  V30 8622 H 835.126 -1.86923 -2.3452 0
M  V30 8623 H 832.679 -1.00325 -1.19853 0
M  V30 8624 H 833.414 0.558446 -3.19456 0
M  V30 8625 H 833.199 -1.12474 -3.75622 0
M  V30 8626 H 834.689 -0.225131 -4.16993 0
M  V30 8627 N 835.127 1.22348 -0.993418 0
M  V30 8628 C 836.057 2.26584 -0.564088 0
M  V30 8629 C 837.038 1.65102 0.409298 0
M  V30 8630 O 838.223 1.91872 0.299819 0
M  V30 8631 C 835.353 3.47087 0.121554 0
M  V30 8632 C 834.307 4.21009 -0.770429 0
M  V30 8633 C 833.633 5.34678 0.0481586 0
M  V30 8634 C 834.933 4.79636 -2.06752 0
M  V30 8635 H 836.627 2.62749 -1.43538 0
M  V30 8636 H 834.173 1.26303 -0.691628 0
M  V30 8637 H 836.126 4.19166 0.433303 0
M  V30 8638 H 834.85 3.1002 1.0274 0
M  V30 8639 H 833.509 3.50764 -1.06583 0
M  V30 8640 H 833.157 4.93852 0.954933 0
M  V30 8641 H 832.857 5.85061 -0.545641 0
M  V30 8642 H 834.381 6.09573 0.353991 0
M  V30 8643 H 835.795 5.43654 -1.81969 0
M  V30 8644 H 834.192 5.4036 -2.61019 0
M  V30 8645 H 835.262 3.99659 -2.74592 0
M  V30 8646 N 836.605 0.766683 1.37694 0
M  V30 8647 C 838.021 0.445739 1.53249 0
M  V30 8648 C 838.221 -1.03935 1.72626 0
M  V30 8649 O 837.277 -1.82525 1.74473 0
M  V30 8650 C 838.59 1.2564 2.73194 0
M  V30 8651 C 840.138 1.24779 2.87053 0
M  V30 8652 C 840.613 2.04169 4.09974 0
M  V30 8653 N 842.104 2.01497 4.17077 0
M  V30 8654 C 842.839 2.5971 5.11212 0
M  V30 8655 N 842.335 3.26691 6.10938 0
M  V30 8656 N 844.128 2.49568 5.03659 0
M  V30 8657 H 836.279 1.72899 1.23368 0
M  V30 8658 H 838.542 0.733701 0.600322 0
M  V30 8659 H 838.248 2.30859 2.65324 0
M  V30 8660 H 838.122 0.882133 3.6674 0
M  V30 8661 H 840.509 0.203603 2.94397 0
M  V30 8662 H 840.59 1.66166 1.9448 0
M  V30 8663 H 840.234 3.08606 4.03392 0
M  V30 8664 H 840.164 1.60167 5.01651 0
M  V30 8665 H 842.655 1.52728 3.45662 0
M  V30 8666 H 842.968 3.68497 6.79286 0
M  V30 8667 H 841.313 3.30789 6.11231 0
M  V30 8668 H 844.504 1.96859 4.24693 0
M  V30 8669 H 844.677 2.95231 5.76839 0
M  V30 8670 N 838.083 -1.48885 0.516809 0
M  V30 8671 C 839.36 -1.95412 -0.0858293 0
M  V30 8672 C 839.74 -1.45875 -1.5259 0
M  V30 8673 O 839.088 -0.679415 -2.18166 0
M  V30 8674 C 839.298 -3.48995 0.0178194 0
M  V30 8675 C 840.646 -4.24342 -0.14813 0
M  V30 8676 O 841.67 -3.56155 -0.0566125 0
M  V30 8677 O 840.529 -5.45454 -0.338035 0
M  V30 8678 H 837.623 -0.822455 -0.0865884 0
M  V30 8679 H 840.169 -1.59464 0.580472 0
M  V30 8680 H 838.941 -3.77732 1.02147 0
M  V30 8681 H 838.564 -3.91604 -0.687924 0
M  V30 8682 N 839.561 -0.251338 -1.55583 0
M  V30 8683 C 840.977 0.103409 -1.59265 0
M  V30 8684 C 841.177 1.56559 -1.26852 0
M  V30 8685 O 840.233 2.31071 -1.01796 0
M  V30 8686 C 841.546 -0.249781 -2.99661 0
M  V30 8687 C 843.094 -0.194442 -3.12395 0
M  V30 8688 C 843.569 -0.521728 -4.55019 0
M  V30 8689 N 845.06 -0.472393 -4.60785 0
M  V30 8690 C 845.795 -0.698737 -5.69127 0
M  V30 8691 N 845.291 -0.988443 -6.85713 0
M  V30 8692 N 847.084 -0.629143 -5.58568 0
M  V30 8693 H 839.235 -1.20484 -1.74921 0
M  V30 8694 H 841.498 -0.485092 -0.814488 0
M  V30 8695 H 841.204 -1.26577 -3.28133 0
M  V30 8696 H 841.078 0.420973 -3.74844 0
M  V30 8697 H 843.465 0.812229 -2.83702 0
M  V30 8698 H 843.546 -0.899111 -2.39478 0
M  V30 8699 H 843.19 -1.52597 -4.84434 0
M  V30 8700 H 843.12 0.204468 -5.26203 0
M  V30 8701 H 845.611 -0.257386 -3.77022 0
M  V30 8702 H 845.924 -1.14846 -7.64219 0
M  V30 8703 H 844.269 -1.02596 -6.87386 0
M  V30 8704 H 847.46 -0.402826 -4.66364 0
M  V30 8705 H 847.633 -0.808935 -6.42931 0
M  V30 8706 N 841.039 1.57585 0.0217189 0
M  V30 8707 C 842.002 2.06004 1.00474 0
M  V30 8708 C 843.002 0.965461 1.2859 0
M  V30 8709 O 844.192 1.22884 1.23471 0
M  V30 8710 C 841.324 2.48319 2.33561 0
M  V30 8711 H 842.517 2.94112 0.586346 0
M  V30 8712 H 840.07 1.53973 0.268716 0
M  V30 8713 H 840.805 1.63389 2.80133 0
M  V30 8714 H 840.59 3.28239 2.1448 0
M  V30 8715 H 842.08 2.86181 3.04122 0
M  V30 8716 N 842.517 -0.29412 1.54831 0
M  V30 8717 C 843.766 -1.02614 1.73647 0
M  V30 8718 C 844.079 -1.88193 0.533162 0
M  V30 8719 O 845.285 -2.64713 0.603275 0
M  V30 8720 C 843.741 -1.87417 3.07251 0
M  V30 8721 C 843.349 -1.06806 4.35082 0
M  V30 8722 C 845.093 -2.60176 3.35423 0
M  V30 8723 C 843 -1.90926 5.59733 0
M  V30 8724 H 841.93 -0.386834 0.647206 0
M  V30 8725 H 844.581 -0.282789 1.81308 0
M  V30 8726 H 842.963 -2.65765 2.93572 0
M  V30 8727 H 844.137 -0.330226 4.59615 0
M  V30 8728 H 842.452 -0.455979 4.13896 0
M  V30 8729 H 845.049 -3.23476 4.25755 0
M  V30 8730 H 845.392 -3.29365 2.54606 0
M  V30 8731 H 845.925 -1.88871 3.50103 0
M  V30 8732 H 842.664 -1.26194 6.43238 0
M  V30 8733 H 842.184 -2.62363 5.39375 0
M  V30 8734 H 843.863 -2.48807 5.97247 0
M  V30 8735 N 843.995 -1.47404 -0.557645 0
M  V30 8736 C 845.225 -1.57393 -1.33832 0
M  V30 8737 C 845.633 -0.222978 -1.87881 0
M  V30 8738 O 844.976 0.793854 -1.65661 0
M  V30 8739 C 845.038 -2.53882 -2.54528 0
M  V30 8740 C 844.702 -3.99585 -2.21767 0
M  V30 8741 C 845.699 -4.88082 -1.79087 0
M  V30 8742 C 843.384 -4.44917 -2.3314 0
M  V30 8743 C 845.378 -6.1993 -1.48209 0
M  V30 8744 C 843.065 -5.76793 -2.01874 0
M  V30 8745 C 844.063 -6.64121 -1.59476 0
M  V30 8746 O 843.751 -7.93546 -1.28607 0
M  V30 8747 H 843.483 -0.534172 -0.41429 0
M  V30 8748 H 846.037 -1.93733 -0.682404 0
M  V30 8749 H 844.267 -2.12609 -3.23009 0
M  V30 8750 H 845.956 -2.54003 -3.16603 0
M  V30 8751 H 846.722 -4.54307 -1.69794 0
M  V30 8752 H 842.601 -3.77152 -2.65099 0
M  V30 8753 H 846.145 -6.88049 -1.15043 0
M  V30 8754 H 842.042 -6.1011 -2.10799 0
M  V30 8755 H 842.81 -8.06046 -1.42241 0
M  V30 8756 N 845.473 0.80434 -1.35529 0
M  V30 8757 C 846.403 1.93086 -1.31301 0
M  V30 8758 C 847.384 1.69068 -0.187044 0
M  V30 8759 O 848.569 1.90399 -0.382359 0
M  V30 8760 C 845.699 3.29867 -1.0865 0
M  V30 8761 C 844.653 3.68373 -2.17911 0
M  V30 8762 C 843.979 5.0334 -1.80423 0
M  V30 8763 C 845.279 3.78516 -3.59893 0
M  V30 8764 H 846.973 1.96882 -2.25561 0
M  V30 8765 H 844.519 0.945841 -1.08581 0
M  V30 8766 H 846.472 4.08281 -1.04331 0
M  V30 8767 H 845.196 3.2642 -0.108359 0
M  V30 8768 H 843.855 2.92247 -2.21331 0
M  V30 8769 H 843.503 4.96399 -0.812213 0
M  V30 8770 H 843.203 5.30074 -2.53565 0
M  V30 8771 H 844.727 5.84191 -1.77633 0
M  V30 8772 H 846.141 4.47155 -3.58783 0
M  V30 8773 H 844.538 4.16721 -4.31814 0
M  V30 8774 H 845.608 2.8001 -3.95882 0
M  V30 8775 N 846.951 1.19563 1.02676 0
M  V30 8776 C 848.181 1.0234 1.79472 0
M  V30 8777 C 848.589 -0.430891 1.84228 0
M  V30 8778 O 847.932 -1.31106 1.28674 0
M  V30 8779 C 847.994 1.51901 3.25832 0
M  V30 8780 C 847.658 3.00045 3.44706 0
M  V30 8781 C 848.655 3.9779 3.34752 0
M  V30 8782 C 846.34 3.38784 3.70851 0
M  V30 8783 C 848.334 5.32267 3.50672 0
M  V30 8784 C 846.021 4.73419 3.86416 0
M  V30 8785 C 847.019 5.69969 3.7633 0
M  V30 8786 O 846.707 7.02165 3.91432 0
M  V30 8787 H 846.439 0.360936 0.571578 0
M  V30 8788 H 848.993 1.58863 1.30198 0
M  V30 8789 H 847.223 0.897546 3.7614 0
M  V30 8790 H 848.912 1.30853 3.84229 0
M  V30 8791 H 849.678 3.69207 3.14502 0
M  V30 8792 H 845.557 2.64183 3.77794 0
M  V30 8793 H 849.101 6.07612 3.42715 0
M  V30 8794 H 844.998 5.01697 4.06165 0
M  V30 8795 H 845.766 7.09268 4.08511 0
M  V30 8796 N 848.429 -1.21819 0.999893 0
M  V30 8797 C 849.657 -1.94758 0.698359 0
M  V30 8798 C 850.072 -1.73771 -0.738183 0
M  V30 8799 O 849.429 -1.04113 -1.49889 0
M  V30 8800 C 849.48 -3.47292 1.00353 0
M  V30 8801 O 849.201 -3.67579 2.38363 0
M  V30 8802 C 850.702 -4.37403 0.72068 0
M  V30 8803 H 847.922 -0.619512 0.257771 0
M  V30 8804 H 850.466 -1.54778 1.33656 0
M  V30 8805 H 848.621 -3.85213 0.411018 0
M  V30 8806 H 849.035 -4.61719 2.48829 0
M  V30 8807 H 850.509 -5.43151 0.984422 0
M  V30 8808 H 850.986 -4.3784 -0.345309 0
M  V30 8809 H 851.592 -4.05119 1.29456 0
M  V30 8810 N 849.908 -0.773975 -1.37286 0
M  V30 8811 C 851.136 -0.350758 -2.03905 0
M  V30 8812 C 851.551 1.02779 -1.58373 0
M  V30 8813 O 850.908 1.65646 -0.766009 0
M  V30 8814 C 850.959 -0.387335 -3.59419 0
M  V30 8815 O 850.68 -1.7115 -4.03286 0
M  V30 8816 C 852.181 0.047198 -4.43275 0
M  V30 8817 H 849.401 -0.146663 -0.654775 0
M  V30 8818 H 851.945 -1.04852 -1.75574 0
M  V30 8819 H 850.1 0.261865 -3.86514 0
M  V30 8820 H 850.514 -1.65166 -4.97816 0
M  V30 8821 H 851.988 -0.0295474 -5.51992 0
M  V30 8822 H 852.465 1.09786 -4.25257 0
M  V30 8823 H 853.071 -0.573899 -4.2141 0
M  V30 8824 N 851.386 1.48609 -0.524698 0
M  V30 8825 C 852.296 2.33318 0.244923 0
M  V30 8826 C 853.312 1.46153 0.944214 0
M  V30 8827 O 854.488 1.79141 0.920347 0
M  V30 8828 C 851.553 3.22149 1.28144 0
M  V30 8829 C 850.614 4.25184 0.593068 0
M  V30 8830 C 849.847 5.0977 1.5802 0
M  V30 8831 O 850.07 4.96249 2.81235 0
M  V30 8832 O 849.004 5.9134 1.1225 0
M  V30 8833 H 852.83 3.00362 -0.449066 0
M  V30 8834 H 850.415 1.46643 -0.285689 0
M  V30 8835 H 852.297 3.77111 1.88057 0
M  V30 8836 H 850.972 2.57772 1.95793 0
M  V30 8837 H 849.879 3.74071 -0.0464214 0
M  V30 8838 H 851.212 4.92183 -0.0413893 0
M  V30 8839 N 852.864 0.259585 1.55447 0
M  V30 8840 C 853.797 -0.675542 2.17972 0
M  V30 8841 C 854.775 -1.16362 1.13572 0
M  V30 8842 O 855.959 -1.23944 1.42021 0
M  V30 8843 C 853.086 -1.91952 2.79056 0
M  V30 8844 C 852.132 -1.56824 3.96621 0
M  V30 8845 S 852.965 -0.659846 5.31419 0
M  V30 8846 C 854.121 -1.91255 5.95963 0
M  V30 8847 H 854.354 -0.144236 2.9695 0
M  V30 8848 H 851.887 0.0439448 1.54337 0
M  V30 8849 H 853.845 -2.63362 3.14882 0
M  V30 8850 H 852.506 -2.42196 2 0
M  V30 8851 H 851.699 -2.49348 4.37997 0
M  V30 8852 H 851.301 -0.934472 3.62138 0
M  V30 8853 H 853.593 -2.85834 6.14252 0
M  V30 8854 H 854.536 -1.54207 6.91105 0
M  V30 8855 H 854.944 -2.07042 5.25161 0
M  V30 8856 N 854.342 -1.57594 -0.0133615 0
M  V30 8857 C 855.567 -1.94649 -0.715996 0
M  V30 8858 C 855.992 -0.860786 -1.67249 0
M  V30 8859 O 855.35 0.182228 -1.80382 0
M  V30 8860 C 855.398 -3.30789 -1.43566 0
M  V30 8861 O 854.502 -3.24148 -2.54955 0
M  V30 8862 H 853.843 -0.635801 -0.191449 0
M  V30 8863 H 856.373 -2.04569 0.0358478 0
M  V30 8864 H 856.383 -3.66045 -1.80208 0
M  V30 8865 H 855.058 -4.09367 -0.734263 0
M  V30 8866 H 853.635 -3.00548 -2.20739 0
M  V30 8867 N 855.82 0.285905 -1.54985 0
M  V30 8868 C 856.783 1.33625 -1.86218 0
M  V30 8869 C 857.783 1.42971 -0.735936 0
M  V30 8870 O 858.973 1.42345 -1.00417 0
M  V30 8871 C 856.105 2.71926 -2.05595 0
M  V30 8872 H 857.298 1.07167 -2.80099 0
M  V30 8873 H 854.851 0.523335 -1.47278 0
M  V30 8874 H 855.586 3.03583 -1.14053 0
M  V30 8875 H 855.371 2.6653 -2.87583 0
M  V30 8876 H 856.861 3.47841 -2.31077 0
M  V30 8877 N 857.298 1.47698 0.54982 0
M  V30 8878 C 858.547 1.53961 1.30303 0
M  V30 8879 C 858.86 0.209731 1.94472 0
M  V30 8880 O 860.066 0.150418 2.71083 0
M  V30 8881 C 858.522 2.71436 2.36328 0
M  V30 8882 C 858.13 4.10983 1.78316 0
M  V30 8883 C 859.874 2.86996 3.12783 0
M  V30 8884 C 857.781 5.19747 2.82164 0
M  V30 8885 H 856.711 0.573098 0.489975 0
M  V30 8886 H 859.362 1.73989 0.583089 0
M  V30 8887 H 857.744 2.44801 3.11269 0
M  V30 8888 H 858.918 4.47552 1.09697 0
M  V30 8889 H 857.233 4.00371 1.1442 0
M  V30 8890 H 859.83 3.65422 3.90347 0
M  V30 8891 H 860.173 1.95712 3.67427 0
M  V30 8892 H 860.706 3.13436 2.44954 0
M  V30 8893 H 857.445 6.12932 2.32366 0
M  V30 8894 H 856.965 4.87688 3.49171 0
M  V30 8895 H 858.644 5.47014 3.4552 0
M  V30 8896 N 858.776 -0.797141 1.35954 0
M  V30 8897 C 859.724 -1.93084 1.29697 0
M  V30 8898 C 860.718 -1.68329 0.190152 0
M  V30 8899 O 861.924 -1.7643 0.3567 0
M  V30 8900 H 858.299 -0.634531 0.403577 0
M  V30 8901 H 860.27 -1.95481 2.25455 0
M  V30 8902 C 859.019 -3.29996 1.09536 0
M  V30 8903 H 858.342 -3.49607 1.93946 0
M  V30 8904 H 859.782 -4.09696 1.09202 0
M  V30 8905 C 858.241 -3.36304 -0.200381 0
M  V30 8906 O 858.771 -3.83579 -1.19291 0
M  V30 8907 N 856.977 -2.89587 -0.242406 0
M  V30 8908 H 856.524 -2.51307 0.565897 0
M  V30 8909 H 856.482 -2.94189 -1.10906 0
M  V30 8910 N 860.254 -1.20106 -1.0204 0
M  V30 8911 C 861.164 -0.962051 -2.13967 0
M  V30 8912 C 862.18 0.0808053 -1.73812 0
M  V30 8913 O 863.356 -0.105774 -2.01122 0
M  V30 8914 C 860.421 -0.513108 -3.42882 0
M  V30 8915 C 859.482 -1.62636 -3.97301 0
M  V30 8916 C 858.715 -1.19875 -5.20063 0
M  V30 8917 O 858.938 -0.0658423 -5.70362 0
M  V30 8918 O 857.872 -2.00467 -5.67536 0
M  V30 8919 H 861.698 -1.8991 -2.36998 0
M  V30 8920 H 859.283 -0.984608 -1.12365 0
M  V30 8921 H 861.165 -0.271797 -4.20523 0
M  V30 8922 H 859.84 0.395402 -3.21276 0
M  V30 8923 H 858.747 -1.92192 -3.20957 0
M  V30 8924 H 860.08 -2.51174 -4.23288 0
M  V30 8925 N 861.732 1.21287 -1.00634 0
M  V30 8926 C 862.962 1.94103 -0.70765 0
M  V30 8927 C 863.37 1.74382 0.733991 0
M  V30 8928 O 862.713 1.04843 1.50843 0
M  V30 8929 C 862.775 3.46705 -0.950581 0
M  V30 8930 C 862.439 3.90176 -2.37932 0
M  V30 8931 C 863.436 3.96769 -3.35961 0
M  V30 8932 C 861.121 4.22453 -2.71733 0
M  V30 8933 C 863.115 4.35034 -4.65858 0
M  V30 8934 C 860.802 4.60394 -4.01846 0
M  V30 8935 C 861.8 4.66656 -4.9872 0
M  V30 8936 O 861.488 5.03732 -6.26505 0
M  V30 8937 H 861.22 0.62405 -0.259881 0
M  V30 8938 H 863.774 1.55015 -1.34757 0
M  V30 8939 H 862.004 3.85868 -0.253492 0
M  V30 8940 H 863.693 4.00741 -0.645069 0
M  V30 8941 H 864.459 3.72009 -3.11182 0
M  V30 8942 H 860.338 4.16776 -1.97025 0
M  V30 8943 H 863.882 4.39836 -5.4147 0
M  V30 8944 H 859.779 4.84609 -4.26409 0
M  V30 8945 H 860.547 5.21761 -6.30641 0
M  V30 8946 N 863.21 0.781244 1.36873 0
M  V30 8947 C 864.457 0.349889 1.99454 0
M  V30 8948 C 864.785 -1.07621 1.62013 0
M  V30 8949 O 864.04 -1.75665 0.86258 0
M  V30 8950 C 864.339 0.45146 3.54537 0
M  V30 8951 C 864.005 1.83718 4.11775 0
M  V30 8952 C 862.667 2.21634 4.2712 0
M  V30 8953 C 865.019 2.7449 4.43063 0
M  V30 8954 C 862.347 3.49742 4.7106 0
M  V30 8955 C 864.699 4.02017 4.88431 0
M  V30 8956 C 863.363 4.39967 5.01982 0
M  V30 8957 H 862.633 0.128033 0.729855 0
M  V30 8958 H 865.28 0.997117 1.63493 0
M  V30 8959 H 863.585 -0.279288 3.90803 0
M  V30 8960 H 865.282 0.0988609 4.00878 0
M  V30 8961 H 861.872 1.53251 4.00265 0
M  V30 8962 H 866.056 2.46453 4.30783 0
M  V30 8963 H 861.312 3.79026 4.79738 0
M  V30 8964 H 865.486 4.72475 5.11605 0
M  V30 8965 H 863.113 5.39291 5.35788 0
M  V30 8966 N 864.689 -1.48329 0.532571 0
M  V30 8967 C 865.936 -2.025 -0.000582356 0
M  V30 8968 C 866.264 -1.40942 -1.34036 0
M  V30 8969 O 865.519 -0.545545 -1.87942 0
M  V30 8970 C 865.818 -3.57 -0.168943 0
M  V30 8971 C 865.484 -4.37357 1.0968 0
M  V30 8972 C 864.146 -4.59033 1.44369 0
M  V30 8973 C 866.498 -4.83882 1.93669 0
M  V30 8974 C 863.826 -5.24481 2.62939 0
M  V30 8975 C 866.178 -5.50637 3.11419 0
M  V30 8976 C 864.842 -5.70551 3.46451 0
M  V30 8977 H 864.112 -0.741 -0.000213099 0
M  V30 8978 H 866.759 -1.78282 0.699117 0
M  V30 8979 H 865.064 -3.80072 -0.951429 0
M  V30 8980 H 866.761 -3.9654 -0.596422 0
M  V30 8981 H 863.351 -4.20748 0.816655 0
M  V30 8982 H 867.535 -4.66936 1.6818 0
M  V30 8983 H 862.791 -5.38096 2.9028 0
M  V30 8984 H 866.965 -5.85655 3.76803 0
M  V30 8985 H 864.592 -6.21037 4.38425 0
M  V30 8986 N 866.167 -0.267825 -1.55308 0
M  V30 8987 C 867.444 0.402449 -1.91415 0
M  V30 8988 C 867.824 1.7428 -1.1912 0
M  V30 8989 O 867.172 2.2631 -0.315609 0
M  V30 8990 C 867.382 0.549926 -3.4464 0
M  V30 8991 C 868.73 0.836188 -4.16285 0
M  V30 8992 O 869.754 0.635009 -3.50494 0
M  V30 8993 O 868.613 1.22051 -5.32697 0
M  V30 8994 H 865.707 0.219177 -0.797427 0
M  V30 8995 H 868.253 -0.313439 -1.6678 0
M  V30 8996 H 867.025 -0.393641 -3.89315 0
M  V30 8997 H 866.648 1.31556 -3.75205 0
M  V30 8998 N 867.645 1.57599 0.00500368 0
M  V30 8999 C 868.891 1.90631 0.691919 0
M  V30 9000 C 869.224 0.868443 1.737 0
M  V30 9001 O 868.499 -0.113482 1.94169 0
M  V30 9002 C 868.782 3.34255 1.33961 0
M  V30 9003 C 868.635 4.48755 0.306413 0
M  V30 9004 C 869.954 3.77211 2.26715 0
M  V30 9005 H 867.073 0.693279 0.250066 0
M  V30 9006 H 869.715 1.89946 -0.0452634 0
M  V30 9007 H 867.865 3.3497 1.96793 0
M  V30 9008 H 869.537 4.60176 -0.321841 0
M  V30 9009 H 867.78 4.32203 -0.371852 0
M  V30 9010 H 868.451 5.46193 0.798554 0
M  V30 9011 H 870.927 3.78017 1.73904 0
M  V30 9012 H 869.803 4.78466 2.69002 0
M  V30 9013 H 870.064 3.10801 3.14413 0
M  V30 9014 N 869.123 -0.277682 1.55134 0
M  V30 9015 C 870.073 -1.34531 1.8408 0
M  V30 9016 C 871.057 -1.44904 0.699393 0
M  V30 9017 O 872.249 -1.48664 0.960623 0
M  V30 9018 C 869.378 -2.7064 2.11208 0
M  V30 9019 C 868.464 -2.64396 3.31596 0
M  V30 9020 N 868.855 -2.2777 4.51613 0
M  V30 9021 C 867.153 -2.95464 3.34091 0
M  V30 9022 C 867.854 -2.31401 5.33693 0
M  V30 9023 N 866.83 -2.69688 4.71984 0
M  V30 9024 H 870.632 -1.05214 2.74421 0
M  V30 9025 H 868.146 -0.486311 1.54948 0
M  V30 9026 H 870.143 -3.47649 2.301 0
M  V30 9027 H 868.803 -3.00849 1.22148 0
M  V30 9028 H 869.814 -1.99827 4.77797 0
M  V30 9029 H 866.491 -3.30415 2.5521 0
M  V30 9030 H 867.881 -2.05685 6.39643 0
M  V30 9031 N 870.601 -1.47988 -0.541979 0
M  V30 9032 C 871.533 -1.5769 -1.66332 0
M  V30 9033 C 872.546 -0.461994 -1.56107 0
M  V30 9034 O 873.735 -0.732306 -1.62787 0
M  V30 9035 C 870.835 -1.47939 -3.04905 0
M  V30 9036 C 870.008 -2.74263 -3.40733 0
M  V30 9037 C 869.067 -2.58133 -4.58534 0
M  V30 9038 O 868.093 -3.31991 -4.62354 0
M  V30 9039 N 869.295 -1.6696 -5.55972 0
M  V30 9040 H 872.06 -2.54389 -1.5845 0
M  V30 9041 H 869.621 -1.4456 -0.728979 0
M  V30 9042 H 871.613 -1.34861 -3.81569 0
M  V30 9043 H 870.183 -0.592626 -3.06931 0
M  V30 9044 H 869.403 -3.01992 -2.53366 0
M  V30 9045 H 870.691 -3.58094 -3.6145 0
M  V30 9046 H 870.089 -1.06134 -5.55655 0
M  V30 9047 H 868.646 -1.59826 -6.31901 0
M  V30 9048 N 872.079 0.78992 -1.36375 0
M  V30 9049 C 872.989 1.93386 -1.32812 0
M  V30 9050 C 874.005 1.72468 -0.230377 0
M  V30 9051 O 875.181 1.96014 -0.462657 0
M  V30 9052 C 872.246 3.2824 -1.11621 0
M  V30 9053 C 871.307 3.61939 -2.30865 0
M  V30 9054 C 870.54 4.90359 -2.10675 0
M  V30 9055 O 870.763 5.6005 -1.08168 0
M  V30 9056 O 869.697 5.22702 -2.9844 0
M  V30 9057 H 873.523 1.99342 -2.29121 0
M  V30 9058 H 871.108 0.9301 -1.16917 0
M  V30 9059 H 872.99 4.08939 -1.01719 0
M  V30 9060 H 871.665 3.23178 -0.183732 0
M  V30 9061 H 870.572 2.81549 -2.46335 0
M  V30 9062 H 871.905 3.71725 -3.22617 0
M  V30 9063 N 873.557 1.20646 1.01402 0
M  V30 9064 C 874.806 1.01242 1.7445 0
M  V30 9065 C 875.119 -0.455732 1.90217 0
M  V30 9066 O 876.325 -0.768951 2.60383 0
M  V30 9067 C 874.781 1.76275 3.13776 0
M  V30 9068 C 874.389 3.27201 3.06013 0
M  V30 9069 C 876.133 1.65248 3.91016 0
M  V30 9070 C 874.04 3.9476 4.40362 0
M  V30 9071 H 872.97 0.375202 0.654018 0
M  V30 9072 H 875.621 1.44292 1.13367 0
M  V30 9073 H 874.003 1.26013 3.75415 0
M  V30 9074 H 875.177 3.84695 2.53665 0
M  V30 9075 H 873.492 3.38669 2.42265 0
M  V30 9076 H 876.089 2.13061 4.90417 0
M  V30 9077 H 876.432 0.609128 4.1182 0
M  V30 9078 H 876.965 2.12937 3.3601 0
M  V30 9079 H 873.704 4.99258 4.24761 0
M  V30 9080 H 873.224 3.42054 4.92706 0
M  V30 9081 H 874.903 3.99159 5.09196 0
M  V30 9082 N 875.035 -1.20752 1.01276 0
M  V30 9083 C 876.282 -1.90021 0.699887 0
M  V30 9084 C 876.61 -1.78604 -0.770113 0
M  V30 9085 O 875.865 -1.16195 -1.57471 0
M  V30 9086 C 876.164 -3.40808 1.07633 0
M  V30 9087 C 875.83 -3.72423 2.54189 0
M  V30 9088 C 874.492 -3.80762 2.94234 0
M  V30 9089 C 876.844 -3.87025 3.49086 0
M  V30 9090 C 874.172 -4.01158 4.28123 0
M  V30 9091 C 876.524 -4.0893 4.82658 0
M  V30 9092 C 875.188 -4.15498 5.22415 0
M  V30 9093 H 874.458 -0.695335 0.256107 0
M  V30 9094 H 877.105 -1.43096 1.27263 0
M  V30 9095 H 875.41 -3.89521 0.421944 0
M  V30 9096 H 877.107 -3.92693 0.811997 0
M  V30 9097 H 873.697 -3.66529 2.22158 0
M  V30 9098 H 877.881 -3.79942 3.19309 0
M  V30 9099 H 873.137 -4.04476 4.58486 0
M  V30 9100 H 877.311 -4.19172 5.56119 0
M  V30 9101 H 874.938 -4.31055 6.26176 0
M  V30 9102 N 876.513 -0.788492 -1.36457 0
M  V30 9103 C 877.924 -0.423742 -1.81828 0
M  V30 9104 C 878.275 1.05221 -1.65599 0
M  V30 9105 O 877.4 1.8163 -1.17641 0
M  V30 9106 C 877.995 -0.762354 -3.30112 0
M  V30 9107 C 876.554 -0.450445 -3.73695 0
M  V30 9108 C 875.701 -0.997482 -2.58738 0
M  V30 9109 H 878.652 -0.981718 -1.24692 0
M  V30 9110 H 878.673 -0.0531136 -3.80463 0
M  V30 9111 H 878.185 -1.83662 -3.41891 0
M  V30 9112 H 876.286 0.615829 -3.67476 0
M  V30 9113 H 876.399 -0.970408 -4.69169 0
M  V30 9114 H 874.763 -0.420761 -2.51201 0
M  V30 9115 H 875.546 -2.07749 -2.73304 0
M  V30 9116 N 877.991 1.48044 -0.54043 0
M  V30 9117 C 878.901 2.33565 0.220163 0
M  V30 9118 C 879.917 1.47146 0.928659 0
M  V30 9119 O 881.093 1.80107 0.901295 0
M  V30 9120 C 878.158 3.2349 1.2472 0
M  V30 9121 C 877.219 4.25789 0.547938 0
M  V30 9122 C 876.452 5.11417 1.52605 0
M  V30 9123 O 876.675 4.99204 2.75956 0
M  V30 9124 O 875.609 5.92498 1.05972 0
M  V30 9125 H 879.435 2.99868 -0.480898 0
M  V30 9126 H 877.02 1.46332 -0.301226 0
M  V30 9127 H 878.902 3.79084 1.84047 0
M  V30 9128 H 877.577 2.59835 1.93048 0
M  V30 9129 H 876.484 3.74001 -0.0860941 0
M  V30 9130 H 877.817 4.92111 -0.0935896 0
M  V30 9131 N 879.47 0.276058 1.55163 0
M  V30 9132 C 880.38 -0.621066 2.2623 0
M  V30 9133 C 881.396 -1.16931 1.28853 0
M  V30 9134 O 882.572 -1.1994 1.61791 0
M  V30 9135 C 879.637 -1.78824 2.97023 0
M  V30 9136 C 878.698 -1.27657 4.09881 0
M  V30 9137 C 877.931 -2.38812 4.77289 0
M  V30 9138 O 878.154 -3.58188 4.43912 0
M  V30 9139 O 877.088 -2.06915 5.65217 0
M  V30 9140 H 880.914 -0.0453346 3.03666 0
M  V30 9141 H 878.499 0.0434275 1.49337 0
M  V30 9142 H 880.381 -2.46877 3.41511 0
M  V30 9143 H 879.056 -2.35104 2.22503 0
M  V30 9144 H 877.963 -0.56248 3.69847 0
M  V30 9145 H 879.296 -0.759509 4.86305 0
M  V30 9146 N 880.948 -1.576 0.00335426 0
M  V30 9147 C 882.178 -1.94713 -0.690682 0
M  V30 9148 C 882.586 -0.876915 -1.67651 0
M  V30 9149 O 881.929 0.152434 -1.83066 0
M  V30 9150 C 881.991 -3.27833 -1.47532 0
M  V30 9151 C 881.655 -4.52344 -0.650704 0
M  V30 9152 C 882.652 -5.19862 0.0630537 0
M  V30 9153 C 880.337 -4.98755 -0.595687 0
M  V30 9154 C 882.331 -6.32093 0.820779 0
M  V30 9155 C 880.018 -6.10875 0.165761 0
M  V30 9156 C 881.016 -6.77401 0.872724 0
M  V30 9157 O 880.704 -7.87372 1.62174 0
M  V30 9158 H 880.436 -0.646627 -0.197104 0
M  V30 9159 H 882.99 -2.05335 0.0516082 0
M  V30 9160 H 881.22 -3.13628 -2.26217 0
M  V30 9161 H 882.909 -3.50034 -2.05501 0
M  V30 9162 H 883.675 -4.84991 0.0297223 0
M  V30 9163 H 879.554 -4.46797 -1.13549 0
M  V30 9164 H 883.098 -6.83953 1.37312 0
M  V30 9165 H 878.995 -6.45187 0.200901 0
M  V30 9166 H 879.763 -8.03905 1.5388 0
M  V30 9167 N 882.426 0.269451 -1.5528 0
M  V30 9168 C 883.674 0.998604 -1.75705 0
M  V30 9169 C 883.995 1.86691 -0.563175 0
M  V30 9170 O 883.265 1.91305 0.421811 0
M  V30 9171 H 881.845 0.371698 -0.647958 0
M  V30 9172 H 884.507 0.292826 -1.92688 0
M  V30 9173 H 883.603 1.63348 -2.6594 0
M  V30 9174 N 883.904 1.48273 0.534124 0
M  V30 9175 C 885.315 1.49667 1.1161 0
M  V30 9176 C 885.666 0.264139 1.94414 0
M  V30 9177 O 884.791 -0.629084 2.07054 0
M  V30 9178 C 885.386 2.71191 2.03079 0
M  V30 9179 C 883.945 2.7547 2.56502 0
M  V30 9180 C 883.092 2.43119 1.33373 0
M  V30 9181 H 886.043 1.55449 0.319578 0
M  V30 9182 H 886.064 2.49473 2.87304 0
M  V30 9183 H 885.576 3.60879 1.42785 0
M  V30 9184 H 883.677 1.89979 3.20529 0
M  V30 9185 H 883.79 3.76787 2.95919 0
M  V30 9186 H 882.154 1.94187 1.64813 0
M  V30 9187 H 882.937 3.35044 0.748375 0
M  V30 9188 N 885.382 -0.782676 1.36792 0
M  V30 9189 C 886.292 -1.92679 1.33835 0
M  V30 9190 C 887.308 -1.72344 0.23952 0
M  V30 9191 O 888.484 -1.95766 0.473045 0
M  V30 9192 C 885.549 -3.27644 1.1336 0
M  V30 9193 C 884.61 -3.6071 2.32781 0
M  V30 9194 C 883.843 -4.89234 2.13273 0
M  V30 9195 O 884.066 -5.59468 1.11136 0
M  V30 9196 O 883 -5.21112 3.01208 0
M  V30 9197 H 886.826 -1.98124 2.30175 0
M  V30 9198 H 884.411 -0.923887 1.17408 0
M  V30 9199 H 886.293 -4.08394 1.03886 0
M  V30 9200 H 884.968 -3.23076 0.200868 0
M  V30 9201 H 883.875 -2.80238 2.47825 0
M  V30 9202 H 885.208 -3.70008 3.24584 0
M  V30 9203 N 886.86 -1.21182 -1.00761 0
M  V30 9204 C 888.109 -1.02166 -1.73911 0
M  V30 9205 C 888.422 0.445638 -1.90456 0
M  V30 9206 O 889.628 0.755132 -2.60787 0
M  V30 9207 C 888.084 -1.77936 -3.12837 0
M  V30 9208 C 887.692 -3.28819 -3.04273 0
M  V30 9209 C 889.436 -1.67319 -3.90134 0
M  V30 9210 C 887.343 -3.97089 -4.38262 0
M  V30 9211 H 886.273 -0.378665 -0.652019 0
M  V30 9212 H 888.924 -1.44891 -1.12601 0
M  V30 9213 H 887.306 -1.28003 -3.74742 0
M  V30 9214 H 888.48 -3.86035 -2.51622 0
M  V30 9215 H 886.795 -3.39949 -2.40465 0
M  V30 9216 H 889.392 -2.15659 -4.8928 0
M  V30 9217 H 889.735 -0.630959 -4.11491 0
M  V30 9218 H 890.268 -2.14716 -3.34876 0
M  V30 9219 H 887.007 -5.01503 -4.22107 0
M  V30 9220 H 886.527 -3.44662 -4.90885 0
M  V30 9221 H 888.206 -4.01854 -5.07072 0
M  V30 9222 N 888.338 1.20213 -1.01915 0
M  V30 9223 C 889.584 1.89928 -0.711007 0
M  V30 9224 C 889.917 1.7881 0.75767 0
M  V30 9225 O 889.192 1.17399 1.55073 0
M  V30 9226 C 889.475 3.41225 -1.15053 0
M  V30 9227 C 889.328 3.61264 -2.67971 0
M  V30 9228 C 890.647 4.34108 -0.72377 0
M  V30 9229 H 887.766 0.689702 -0.259768 0
M  V30 9230 H 890.408 1.41557 -1.26734 0
M  V30 9231 H 888.558 3.82552 -0.677199 0
M  V30 9232 H 890.23 3.29173 -3.23176 0
M  V30 9233 H 888.473 3.04647 -3.08824 0
M  V30 9234 H 889.144 4.67331 -2.93779 0
M  V30 9235 H 891.62 4.00442 -1.13073 0
M  V30 9236 H 890.496 5.38581 -1.05931 0
M  V30 9237 H 890.757 4.40512 0.374424 0
M  V30 9238 N 889.816 0.795718 1.36037 0
M  V30 9239 C 891.044 0.383153 2.03321 0
M  V30 9240 C 891.459 -1.00246 1.59988 0
M  V30 9241 O 890.816 -1.64406 0.792265 0
M  V30 9242 C 890.867 0.444467 3.58757 0
M  V30 9243 O 890.588 1.77544 4.00512 0
M  V30 9244 C 892.089 0.0233291 4.43294 0
M  V30 9245 H 889.309 0.157061 0.652359 0
M  V30 9246 H 891.853 1.07632 1.73884 0
M  V30 9247 H 890.008 -0.200341 3.86882 0
M  V30 9248 H 890.422 1.73065 4.95125 0
M  V30 9249 H 891.896 0.117361 5.51875 0
M  V30 9250 H 892.373 -1.03007 4.2695 0
M  V30 9251 H 892.979 0.64087 4.20444 0
M  V30 9252 N 891.294 -1.47756 0.548274 0
M  V30 9253 C 892.543 -2.01691 0.0187961 0
M  V30 9254 C 892.856 -1.42894 -1.33569 0
M  V30 9255 O 894.062 -1.88438 -1.95457 0
M  V30 9256 C 892.518 -3.59896 -0.016847 0
M  V30 9257 C 892.126 -4.27683 1.33385 0
M  V30 9258 C 893.87 -4.21614 -0.494188 0
M  V30 9259 C 891.777 -5.7787 1.2578 0
M  V30 9260 H 890.707 -0.753993 0.00325648 0
M  V30 9261 H 893.358 -1.69838 0.694792 0
M  V30 9262 H 891.74 -3.88672 -0.758304 0
M  V30 9263 H 892.914 -4.10559 2.09232 0
M  V30 9264 H 891.229 -3.77915 1.7484 0
M  V30 9265 H 893.826 -5.3166 -0.569342 0
M  V30 9266 H 894.169 -3.88176 -1.50417 0
M  V30 9267 H 894.702 -3.97336 0.192138 0
M  V30 9268 H 891.441 -6.15912 2.2435 0
M  V30 9269 H 890.961 -5.97355 0.540997 0
M  V30 9270 H 892.64 -6.39897 0.956109 0
M  V30 9271 N 892.772 -0.284283 -1.55015 0
M  V30 9272 C 893.72 0.615091 -2.2432 0
M  V30 9273 C 894.714 1.15051 -1.24337 0
M  V30 9274 O 895.92 1.10308 -1.4224 0
M  V30 9275 H 892.295 0.216927 -0.720033 0
M  V30 9276 H 894.266 0.00783216 -2.98399 0
M  V30 9277 C 893.015 1.78355 -2.98471 0
M  V30 9278 H 892.338 1.38076 -3.752 0
M  V30 9279 H 893.778 2.38927 -3.50271 0
M  V30 9280 C 892.237 2.67757 -2.04469 0
M  V30 9281 O 892.767 3.6838 -1.60185 0
M  V30 9282 N 890.973 2.35125 -1.70776 0
M  V30 9283 H 890.52 1.53346 -2.06985 0
M  V30 9284 H 890.478 2.95212 -1.08153 0
M  V30 9285 N 894.251 1.57596 -0.0117121 0
M  V30 9286 C 895.497 1.92189 0.665966 0
M  V30 9287 C 895.852 0.887145 1.70726 0
M  V30 9288 O 895.145 -0.099151 1.91343 0
M  V30 9289 C 895.339 3.31296 1.34082 0
M  V30 9290 C 895.168 4.48205 0.366406 0
M  V30 9291 C 893.938 5.05293 -0.0274458 0
M  V30 9292 C 896.136 5.12951 -0.37219 0
M  V30 9293 N 894.118 6.0572 -0.998846 0
M  V30 9294 C 895.489 6.08318 -1.1979 0
M  V30 9295 C 897.544 4.95998 -0.434768 0
M  V30 9296 C 896.247 6.88555 -2.0805 0
M  V30 9297 C 898.273 5.7683 -1.30464 0
M  V30 9298 C 897.635 6.71798 -2.11816 0
M  V30 9299 H 893.734 0.751422 0.216537 0
M  V30 9300 H 896.318 1.94556 -0.0748079 0
M  V30 9301 H 894.489 3.2978 2.05182 0
M  V30 9302 H 896.221 3.53285 1.97413 0
M  V30 9303 H 892.976 4.72354 0.343382 0
M  V30 9304 H 893.4 6.60619 -1.48027 0
M  V30 9305 H 898.042 4.22417 0.179925 0
M  V30 9306 H 895.76 7.61453 -2.70581 0
M  V30 9307 H 899.346 5.6575 -1.35712 0
M  V30 9308 H 898.226 7.33256 -2.78037 0
M  V30 9309 N 895.729 -0.261212 1.5542 0
M  V30 9310 C 896.977 -0.989272 1.76232 0
M  V30 9311 C 897.298 -1.86389 0.573067 0
M  V30 9312 O 896.568 -1.91526 -0.41166 0
M  V30 9313 H 895.148 -0.368256 0.64992 0
M  V30 9314 H 897.81 -0.282603 1.9284 0
M  V30 9315 H 896.906 -1.61935 2.66802 0
M  V30 9316 N 897.207 -1.48554 -0.526253 0
M  V30 9317 C 898.455 -1.56452 -1.27935 0
M  V30 9318 C 898.776 -0.24184 -1.93495 0
M  V30 9319 O 898.046 0.736917 -1.81511 0
M  V30 9320 H 896.626 -0.576379 -0.47518 0
M  V30 9321 H 899.288 -1.85039 -0.612083 0
M  V30 9322 H 898.384 -2.34751 -2.05666 0
M  V30 9323 N 898.685 0.775411 -1.37205 0
M  V30 9324 C 899.632 1.88857 -1.32671 0
M  V30 9325 C 900.602 1.64976 -0.192899 0
M  V30 9326 O 901.787 1.86944 -0.381673 0
M  V30 9327 C 898.927 3.25871 -1.13588 0
M  V30 9328 C 898.04 3.61731 -2.36167 0
M  V30 9329 C 897.175 4.87934 -2.09985 0
M  V30 9330 C 896.214 5.16514 -3.2845 0
M  V30 9331 N 895.351 6.33905 -3.01842 0
M  V30 9332 H 900.191 1.92068 -2.27846 0
M  V30 9333 H 897.728 0.939066 -1.13225 0
M  V30 9334 H 899.686 4.04903 -1.00546 0
M  V30 9335 H 898.316 3.22045 -0.220613 0
M  V30 9336 H 897.368 2.77712 -2.59962 0
M  V30 9337 H 898.68 3.78792 -3.24528 0
M  V30 9338 H 897.834 5.74863 -1.93953 0
M  V30 9339 H 896.573 4.7297 -1.18956 0
M  V30 9340 H 895.578 4.28063 -3.45025 0
M  V30 9341 H 896.803 5.33389 -4.20325 0
M  V30 9342 H 894.749 6.20306 -2.13439 0
M  V30 9343 H 894.666 6.51364 -3.83746 0
M  V30 9344 H 895.934 7.23779 -2.8942 0
M  V30 9345 N 900.163 1.21714 1.00117 0
M  V30 9346 C 901.096 0.923113 2.08696 0
M  V30 9347 C 902.074 -0.130827 1.62073 0
M  V30 9348 O 903.258 -0.00103064 1.885 0
M  V30 9349 C 900.385 0.386807 3.36484 0
M  V30 9350 C 899.431 1.42414 4.0202 0
M  V30 9351 S 900.264 2.99466 4.43937 0
M  V30 9352 C 901.42 2.47452 5.74907 0
M  V30 9353 H 901.653 1.84258 2.33315 0
M  V30 9354 H 899.186 1.0473 1.1345 0
M  V30 9355 H 901.144 0.0839547 4.10414 0
M  V30 9356 H 899.805 -0.511413 3.09909 0
M  V30 9357 H 898.998 0.998593 4.94008 0
M  V30 9358 H 898.6 1.67527 3.34381 0
M  V30 9359 H 900.892 1.88177 6.50842 0
M  V30 9360 H 901.835 3.37898 6.22279 0
M  V30 9361 H 902.243 1.89027 5.31911 0
M  V30 9362 N 901.641 -1.19671 1.02551 0
M  V30 9363 C 902.918 -1.85014 0.634771 0
M  V30 9364 C 903.298 -1.91574 -0.886706 0
M  V30 9365 O 902.646 -1.43022 -1.78205 0
M  V30 9366 C 902.856 -3.24167 1.29292 0
M  V30 9367 C 904.204 -4.00363 1.41402 0
M  V30 9368 O 905.228 -3.33553 1.24983 0
M  V30 9369 O 904.087 -5.2003 1.6802 0
M  V30 9370 H 901.181 -0.797147 0.220196 0
M  V30 9371 H 903.727 -1.27188 1.12345 0
M  V30 9372 H 902.499 -3.14208 2.33215 0
M  V30 9373 H 902.122 -3.89634 0.791895 0
M  V30 9374 N 903.119 -0.802921 -1.35613 0
M  V30 9375 C 904.069 -0.183492 -2.2726 0
M  V30 9376 C 905.053 0.640527 -1.47601 0
M  V30 9377 O 906.245 0.498386 -1.69838 0
M  V30 9378 C 903.374 0.67003 -3.36698 0
M  V30 9379 C 902.46 -0.163517 -4.23785 0
M  V30 9380 N 902.851 -1.22472 -4.90749 0
M  V30 9381 C 901.149 0.0554547 -4.45966 0
M  V30 9382 C 901.85 -1.73329 -5.55276 0
M  V30 9383 N 900.826 -1.04033 -5.33552 0
M  V30 9384 H 904.628 -0.995525 -2.76526 0
M  V30 9385 H 902.142 -0.643714 -1.49098 0
M  V30 9386 H 904.139 1.12981 -4.01299 0
M  V30 9387 H 902.799 1.48045 -2.88986 0
M  V30 9388 H 903.81 -1.60733 -4.92327 0
M  V30 9389 H 900.487 0.835312 -4.09058 0
M  V30 9390 H 901.877 -2.62 -6.18713 0
M  V30 9391 N 904.597 1.47463 -0.556102 0
M  V30 9392 C 905.56 2.28478 0.181743 0
M  V30 9393 C 906.56 1.36886 0.843738 0
M  V30 9394 O 907.75 1.59527 0.69977 0
M  V30 9395 C 904.882 3.16534 1.26566 0
M  V30 9396 H 906.075 2.95182 -0.529892 0
M  V30 9397 H 903.628 1.53134 -0.313005 0
M  V30 9398 H 904.363 2.5452 2.00973 0
M  V30 9399 H 904.148 3.83939 0.795798 0
M  V30 9400 H 905.638 3.77579 1.78393 0
M  V30 9401 N 906.075 0.2925 1.54862 0
M  V30 9402 C 907.303 -0.322113 2.04377 0
M  V30 9403 C 907.718 -1.48164 1.17016 0
M  V30 9404 O 907.075 -1.81466 0.19395 0
M  V30 9405 C 907.126 -0.786506 3.5284 0
M  V30 9406 O 906.847 0.326863 4.36879 0
M  V30 9407 C 908.348 -1.46715 4.18318 0
M  V30 9408 H 905.568 -0.0712074 0.667211 0
M  V30 9409 H 908.112 0.429657 1.99935 0
M  V30 9410 H 906.267 -1.48832 3.5767 0
M  V30 9411 H 906.681 -0.0331558 5.2449 0
M  V30 9412 H 908.155 -1.74333 5.23748 0
M  V30 9413 H 908.632 -2.40443 3.67538 0
M  V30 9414 H 909.238 -0.808735 4.1754 0
M  V30 9415 N 907.553 -1.57587 0.0200696 0
M  V30 9416 C 908.799 -1.92539 -0.655764 0
M  V30 9417 C 909.154 -0.896187 -1.70253 0
M  V30 9418 O 908.447 0.0890022 -1.91393 0
M  V30 9419 C 908.641 -3.32002 -1.32323 0
M  V30 9420 C 908.47 -4.48393 -0.342632 0
M  V30 9421 C 907.24 -5.05271 0.0542423 0
M  V30 9422 C 909.438 -5.12747 0.399388 0
M  V30 9423 N 907.42 -6.05181 1.03095 0
M  V30 9424 C 908.791 -6.07674 1.23014 0
M  V30 9425 C 910.846 -4.95761 0.461065 0
M  V30 9426 C 909.549 -6.87442 2.11698 0
M  V30 9427 C 911.575 -5.7613 1.33521 0
M  V30 9428 C 910.937 -6.70666 2.15376 0
M  V30 9429 H 907.036 -0.75256 -0.212549 0
M  V30 9430 H 909.62 -1.94514 0.0851247 0
M  V30 9431 H 907.791 -3.30863 -2.0343 0
M  V30 9432 H 909.523 -3.54327 -1.95537 0
M  V30 9433 H 906.278 -4.72529 -0.318327 0
M  V30 9434 H 906.702 -6.59824 1.51528 0
M  V30 9435 H 911.344 -4.22506 -0.15752 0
M  V30 9436 H 909.062 -7.60008 2.74616 0
M  V30 9437 H 912.648 -5.65023 1.38711 0
M  V30 9438 H 911.528 -7.31772 2.81922 0
M  V30 9439 N 909.032 0.252966 -1.55557 0
M  V30 9440 C 910.278 0.979092 -1.78284 0
M  V30 9441 C 910.633 1.83194 -0.588009 0
M  V30 9442 O 909.926 1.86965 0.418899 0
M  V30 9443 C 910.12 1.87785 -3.04091 0
M  V30 9444 C 909.949 1.11349 -4.35697 0
M  V30 9445 C 908.719 0.821038 -4.98585 0
M  V30 9446 C 910.917 0.494039 -5.11922 0
M  V30 9447 N 908.899 0.0319767 -6.13892 0
M  V30 9448 C 910.27 -0.159888 -6.19794 0
M  V30 9449 C 912.325 0.403894 -4.96259 0
M  V30 9450 C 911.028 -0.895295 -7.13706 0
M  V30 9451 C 913.054 -0.317968 -5.90545 0
M  V30 9452 C 912.416 -0.960555 -6.9782 0
M  V30 9453 H 908.515 0.339586 -0.704419 0
M  V30 9454 H 911.099 0.252801 -1.93052 0
M  V30 9455 H 909.27 2.57623 -2.90663 0
M  V30 9456 H 911.002 2.53908 -3.15139 0
M  V30 9457 H 907.757 1.13132 -4.59889 0
M  V30 9458 H 908.181 -0.35047 -6.76092 0
M  V30 9459 H 912.823 0.886366 -4.13405 0
M  V30 9460 H 910.541 -1.38939 -7.96066 0
M  V30 9461 H 914.127 -0.388302 -5.80503 0
M  V30 9462 H 913.007 -1.51022 -7.69521 0
M  V30 9463 N 910.51 1.48831 0.518367 0
M  V30 9464 C 911.458 1.64678 1.64268 0
M  V30 9465 C 912.452 0.512967 1.61447 0
M  V30 9466 O 913.658 0.692063 1.66164 0
M  V30 9467 H 910.033 0.518964 0.544224 0
M  V30 9468 H 912.004 2.59083 1.4805 0
M  V30 9469 C 910.753 1.71449 3.0249 0
M  V30 9470 H 910.076 2.58061 3.0536 0
M  V30 9471 H 911.516 1.86577 3.80743 0
M  V30 9472 C 909.975 0.455584 3.33805 0
M  V30 9473 O 910.505 -0.426428 3.9943 0
M  V30 9474 N 908.711 0.323763 2.88791 0
M  V30 9475 H 908.258 1.04249 2.35563 0
M  V30 9476 H 908.216 -0.517514 3.10112 0
M  V30 9477 N 911.988 -0.768124 1.37614 0
M  V30 9478 C 913.213 -1.56239 1.36397 0
M  V30 9479 C 913.638 -1.8804 -0.0475839 0
M  V30 9480 O 912.996 -1.495 -1.02564 0
M  V30 9481 C 913.044 -2.84716 2.21289 0
M  V30 9482 O 912.148 -3.79249 1.62001 0
M  V30 9483 H 911.489 -0.473119 0.465891 0
M  V30 9484 H 914.019 -0.950415 1.81186 0
M  V30 9485 H 914.029 -3.33784 2.34632 0
M  V30 9486 H 912.704 -2.60899 3.2389 0
M  V30 9487 H 911.281 -3.37904 1.57719 0
M  V30 9488 N 913.466 -1.22244 -0.994698 0
M  V30 9489 C 914.714 -1.04384 -1.73056 0
M  V30 9490 C 915.035 0.422204 -1.90374 0
M  V30 9491 O 914.305 1.30383 -1.46209 0
M  V30 9492 H 912.885 -0.383263 -0.641185 0
M  V30 9493 H 915.547 -1.53725 -1.1981 0
M  V30 9494 H 914.643 -1.52021 -2.72573 0
M  V30 9495 N 914.944 1.19125 -1.03184 0
M  V30 9496 C 915.891 2.2245 -0.6152 0
M  V30 9497 C 916.861 1.61869 0.372502 0
M  V30 9498 O 918.046 1.88901 0.268491 0
M  V30 9499 C 915.186 3.45091 0.0248027 0
M  V30 9500 C 914.299 4.20044 -1.0093 0
M  V30 9501 C 913.434 5.30119 -0.338744 0
M  V30 9502 C 912.473 5.96833 -1.35855 0
M  V30 9503 N 911.61 6.98464 -0.713594 0
M  V30 9504 H 916.45 2.57445 -1.50086 0
M  V30 9505 H 913.987 1.26485 -0.751005 0
M  V30 9506 H 915.945 4.15149 0.413131 0
M  V30 9507 H 914.575 3.10742 0.874028 0
M  V30 9508 H 913.627 3.48901 -1.51566 0
M  V30 9509 H 914.939 4.65796 -1.78425 0
M  V30 9510 H 914.093 6.0661 0.104269 0
M  V30 9511 H 912.832 4.85446 0.468382 0
M  V30 9512 H 911.837 5.1909 -1.81179 0
M  V30 9513 H 913.062 6.4359 -2.16722 0
M  V30 9514 H 911.008 6.55959 0.0733863 0
M  V30 9515 H 910.925 7.42422 -1.42638 0
M  V30 9516 H 912.193 7.78943 -0.294681 0
M  V30 9517 N 916.422 0.810101 1.35185 0
M  V30 9518 C 917.668 0.392698 1.98962 0
M  V30 9519 C 918.001 -1.03835 1.64109 0
M  V30 9520 O 917.276 -1.721 0.9062 0
M  V30 9521 C 917.559 0.580349 3.55393 0
M  V30 9522 C 917.412 2.05658 4.00031 0
M  V30 9523 C 918.731 0.00822618 4.40099 0
M  V30 9524 H 915.85 0.144157 0.722764 0
M  V30 9525 H 918.492 1.02029 1.60281 0
M  V30 9526 H 916.642 0.0461106 3.88473 0
M  V30 9527 H 918.314 2.65348 3.77344 0
M  V30 9528 H 916.557 2.55174 3.50811 0
M  V30 9529 H 917.228 2.13875 5.08883 0
M  V30 9530 H 919.704 0.464517 4.13499 0
M  V30 9531 H 918.58 0.169414 5.48638 0
M  V30 9532 H 918.841 -1.08576 4.2856 0
M  V30 9533 N 917.9 -1.47166 0.563914 0
M  V30 9534 C 918.81 -2.33885 -0.182977 0
M  V30 9535 C 919.826 -1.48605 -0.905132 0
M  V30 9536 O 921.002 -1.81518 -0.872527 0
M  V30 9537 C 918.067 -3.25433 -1.19558 0
M  V30 9538 C 917.128 -4.26607 -0.480129 0
M  V30 9539 C 916.361 -5.1378 -1.44449 0
M  V30 9540 O 916.584 -5.03531 -2.67979 0
M  V30 9541 O 915.518 -5.94109 -0.965321 0
M  V30 9542 H 919.344 -2.99065 0.528544 0
M  V30 9543 H 916.929 -1.45834 0.324468 0
M  V30 9544 H 918.811 -3.81964 -1.77993 0
M  V30 9545 H 917.486 -2.62873 -1.8889 0
M  V30 9546 H 916.393 -3.73817 0.145583 0
M  V30 9547 H 917.726 -4.919 0.171868 0
M  V30 9548 N 919.378 -0.300708 -1.54705 0
M  V30 9549 C 920.325 0.57552 -2.23509 0
M  V30 9550 C 921.295 1.12979 -1.21758 0
M  V30 9551 O 922.48 1.17437 -1.50377 0
M  V30 9552 C 919.62 1.74167 -2.97926 0
M  V30 9553 C 918.733 1.21882 -4.1445 0
M  V30 9554 C 917.868 2.34881 -4.7645 0
M  V30 9555 C 916.907 1.79729 -5.85119 0
M  V30 9556 N 916.044 2.863 -6.41075 0
M  V30 9557 H 920.884 -0.0178257 -2.97995 0
M  V30 9558 H 918.421 -0.0205666 -1.47086 0
M  V30 9559 H 920.379 2.42753 -3.39303 0
M  V30 9560 H 919.009 2.30665 -2.25817 0
M  V30 9561 H 918.061 0.425227 -3.78016 0
M  V30 9562 H 919.373 0.775065 -4.92741 0
M  V30 9563 H 918.527 3.11415 -5.20678 0
M  V30 9564 H 917.266 2.82584 -3.97489 0
M  V30 9565 H 916.271 1.01684 -5.40315 0
M  V30 9566 H 917.496 1.32931 -6.65963 0
M  V30 9567 H 915.442 3.33337 -5.64998 0
M  V30 9568 H 915.359 2.46419 -7.14712 0
M  V30 9569 H 916.627 3.62732 -6.89961 0
M  V30 9570 N 920.856 1.57574 -0.0284266 0
M  V30 9571 C 922.086 1.95787 0.659617 0
M  V30 9572 C 922.494 0.903475 1.66235 0
M  V30 9573 O 921.837 -0.12329 1.83286 0
M  V30 9574 C 921.899 3.30139 1.42298 0
M  V30 9575 C 921.563 4.53322 0.578658 0
M  V30 9576 C 922.56 5.19696 -0.145751 0
M  V30 9577 C 920.245 4.9964 0.516264 0
M  V30 9578 C 922.239 6.30708 -0.921235 0
M  V30 9579 C 919.926 6.10534 -0.262925 0
M  V30 9580 C 920.924 6.75927 -0.980382 0
M  V30 9581 O 920.612 7.84692 -1.7468 0
M  V30 9582 H 920.344 0.649681 0.186792 0
M  V30 9583 H 922.898 2.05227 -0.0842687 0
M  V30 9584 H 921.128 3.17188 2.21199 0
M  V30 9585 H 922.817 3.53259 1.99906 0
M  V30 9586 H 923.583 4.84882 -0.106876 0
M  V30 9587 H 919.462 4.48547 1.06427 0
M  V30 9588 H 923.006 6.81682 -1.48176 0
M  V30 9589 H 918.903 6.44786 -0.303519 0
M  V30 9590 H 919.671 8.01355 -1.6665 0
M  V30 9591 N 922.334 -0.244713 1.55689 0
M  V30 9592 C 923.297 -1.2864 1.89695 0
M  V30 9593 C 924.297 -1.40969 0.773583 0
M  V30 9594 O 925.487 -1.39632 1.04156 0
M  V30 9595 C 922.619 -2.66379 2.12732 0
M  V30 9596 H 923.812 -0.997033 2.82841 0
M  V30 9597 H 921.365 -0.484103 1.48614 0
M  V30 9598 H 922.1 -3.00452 1.22062 0
M  V30 9599 H 921.885 -2.58812 2.94549 0
M  V30 9600 H 923.375 -3.41592 2.40218 0
M  V30 9601 N 923.813 -1.49104 -0.510467 0
M  V30 9602 C 925.062 -1.57362 -1.26175 0
M  V30 9603 C 925.375 -0.261218 -1.93848 0
M  V30 9604 O 926.581 -0.222238 -2.70589 0
M  V30 9605 C 925.037 -2.77606 -2.29048 0
M  V30 9606 C 924.645 -4.15567 -1.67357 0
M  V30 9607 C 926.389 -2.95188 -3.05064 0
M  V30 9608 C 924.296 -5.27046 -2.68285 0
M  V30 9609 H 923.226 -0.585887 -0.474608 0
M  V30 9610 H 925.877 -1.75474 -0.536753 0
M  V30 9611 H 924.259 -2.52968 -3.04669 0
M  V30 9612 H 925.433 -4.50304 -0.977924 0
M  V30 9613 H 923.748 -4.03264 -1.03765 0
M  V30 9614 H 926.345 -3.75643 -3.80521 0
M  V30 9615 H 926.688 -2.05385 -3.62108 0
M  V30 9616 H 927.221 -3.19821 -2.36558 0
M  V30 9617 H 923.96 -6.18878 -2.16034 0
M  V30 9618 H 923.48 -4.96774 -3.36118 0
M  V30 9619 H 925.159 -5.55983 -3.30896 0
M  V30 9620 N 925.291 0.760815 -1.38019 0
M  V30 9621 C 926.239 1.89578 -1.34771 0
M  V30 9622 C 927.233 1.67766 -0.234714 0
M  V30 9623 O 928.439 1.75423 -0.403352 0
M  V30 9624 H 924.814 0.623608 -0.420258 0
M  V30 9625 H 926.785 1.89434 -2.30558 0
M  V30 9626 C 925.534 3.26976 -1.18246 0
M  V30 9627 H 924.857 3.44342 -2.03147 0
M  V30 9628 H 926.297 4.06657 -1.20026 0
M  V30 9629 C 924.756 3.36717 0.111145 0
M  V30 9630 O 925.286 3.86607 1.09079 0
M  V30 9631 N 923.492 2.90128 0.165542 0
M  V30 9632 H 923.039 2.49719 -0.632328 0
M  V30 9633 H 922.997 2.97026 1.03067 0
M  V30 9634 N 926.769 1.22769 0.988202 0
M  V30 9635 C 928.015 1.06672 1.73184 0
M  V30 9636 C 928.37 -0.393434 1.88334 0
M  V30 9637 O 927.663 -1.2876 1.41885 0
M  V30 9638 C 927.857 1.71679 3.13466 0
M  V30 9639 C 927.686 3.23864 3.11997 0
M  V30 9640 C 926.456 3.92991 3.17626 0
M  V30 9641 C 928.654 4.20737 2.95778 0
M  V30 9642 N 926.636 5.32224 3.05959 0
M  V30 9643 C 928.007 5.46831 2.92191 0
M  V30 9644 C 930.062 4.1157 2.80205 0
M  V30 9645 C 928.765 6.64811 2.74624 0
M  V30 9646 C 930.791 5.29205 2.64 0
M  V30 9647 C 930.153 6.5422 2.61104 0
M  V30 9648 H 926.252 0.44481 0.64317 0
M  V30 9649 H 928.836 1.55381 1.17323 0
M  V30 9650 H 927.007 1.25513 3.67561 0
M  V30 9651 H 928.739 1.48629 3.76419 0
M  V30 9652 H 925.494 3.4402 3.25495 0
M  V30 9653 H 925.918 6.05197 3.03423 0
M  V30 9654 H 930.56 3.15697 2.81239 0
M  V30 9655 H 928.278 7.60828 2.72336 0
M  V30 9656 H 931.864 5.23947 2.52925 0
M  V30 9657 H 930.744 7.43713 2.48719 0
M  V30 9658 N 928.247 -1.18576 1.03814 0
M  V30 9659 C 929.177 -2.24334 0.647795 0
M  V30 9660 C 930.158 -1.66508 -0.34774 0
M  V30 9661 O 931.343 -1.92852 -0.228401 0
M  V30 9662 C 928.473 -3.47299 0.00734922 0
M  V30 9663 C 927.427 -4.17859 0.926152 0
M  V30 9664 C 926.753 -5.34489 0.150317 0
M  V30 9665 C 928.053 -4.71632 2.24411 0
M  V30 9666 H 929.747 -2.57241 1.53191 0
M  V30 9667 H 927.293 -1.23649 0.738028 0
M  V30 9668 H 929.246 -4.20486 -0.277434 0
M  V30 9669 H 927.97 -3.13619 -0.911626 0
M  V30 9670 H 926.629 -3.46567 1.19528 0
M  V30 9671 H 926.277 -4.97056 -0.770985 0
M  V30 9672 H 925.977 -5.82633 0.762407 0
M  V30 9673 H 927.501 -6.10467 -0.127508 0
M  V30 9674 H 928.915 -5.36526 2.02021 0
M  V30 9675 H 927.312 -5.303 2.80894 0
M  V30 9676 H 928.382 -3.89192 2.89236 0
M  V30 9677 N 929.725 -0.817259 -1.34754 0
M  V30 9678 C 931.136 -0.462215 -1.80888 0
M  V30 9679 C 931.487 1.01685 -1.67794 0
M  V30 9680 O 930.612 1.79094 -1.21468 0
M  V30 9681 C 931.207 -0.832204 -3.2842 0
M  V30 9682 C 929.766 -0.52961 -3.72655 0
M  V30 9683 C 928.913 -1.05214 -2.56564 0
M  V30 9684 H 931.864 -1.00795 -1.22581 0
M  V30 9685 H 931.885 -0.133804 -3.80265 0
M  V30 9686 H 931.397 -1.90873 -3.37919 0
M  V30 9687 H 929.498 0.537743 -3.68699 0
M  V30 9688 H 929.611 -1.06971 -4.67005 0
M  V30 9689 H 927.975 -0.473949 -2.50251 0
M  V30 9690 H 928.758 -2.135 -2.68836 0
M  V30 9691 N 931.203 1.46865 -0.571711 0
M  V30 9692 C 932.45 2.0243 -0.0531071 0
M  V30 9693 C 932.778 1.44446 1.30252 0
M  V30 9694 O 932.033 0.595182 1.8643 0
M  V30 9695 C 932.332 3.57323 0.0742311 0
M  V30 9696 C 931.998 4.34295 -1.21237 0
M  V30 9697 C 930.66 4.55044 -1.56489 0
M  V30 9698 C 933.012 4.78577 -2.0643 0
M  V30 9699 C 930.34 5.17325 -2.76752 0
M  V30 9700 C 932.692 5.42186 -3.25909 0
M  V30 9701 C 931.356 5.61165 -3.61456 0
M  V30 9702 H 930.626 0.740745 -0.0194333 0
M  V30 9703 H 933.273 1.76366 -0.74614 0
M  V30 9704 H 931.578 3.82461 0.850325 0
M  V30 9705 H 933.275 3.97982 0.491077 0
M  V30 9706 H 929.865 4.18435 -0.927922 0
M  V30 9707 H 934.049 4.62313 -1.80501 0
M  V30 9708 H 929.305 5.30211 -3.04444 0
M  V30 9709 H 933.479 5.75459 -3.92198 0
M  V30 9710 H 931.106 6.09195 -4.54737 0
M  V30 9711 N 932.681 0.308908 1.54543 0
M  V30 9712 C 933.631 -0.578902 2.20528 0
M  V30 9713 C 934.615 -1.09288 1.18088 0
M  V30 9714 O 935.807 -1.03234 1.43777 0
M  V30 9715 C 932.936 -1.74649 2.95555 0
M  V30 9716 C 932.022 -1.24809 4.05319 0
M  V30 9717 N 932.413 -0.46828 5.03628 0
M  V30 9718 C 930.711 -1.52813 4.19004 0
M  V30 9719 C 931.412 -0.201896 5.8135 0
M  V30 9720 N 930.388 -0.783927 5.37918 0
M  V30 9721 H 934.19 0.0243496 2.9389 0
M  V30 9722 H 931.704 0.114049 1.61999 0
M  V30 9723 H 933.701 -2.39414 3.41301 0
M  V30 9724 H 932.361 -2.35336 2.23712 0
M  V30 9725 H 933.372 -0.112453 5.17778 0
M  V30 9726 H 930.049 -2.14191 3.58369 0
M  V30 9727 H 931.439 0.424929 6.70555 0
M  V30 9728 N 934.159 -1.57557 0.0367827 0
M  V30 9729 C 935.407 -1.91735 -0.63892 0
M  V30 9730 C 935.728 -0.914515 -1.72226 0
M  V30 9731 O 934.998 0.0428248 -1.95853 0
M  V30 9732 H 933.578 -0.707738 -0.23899 0
M  V30 9733 H 936.24 -1.94708 0.0863931 0
M  V30 9734 H 935.336 -2.92568 -1.08676 0
M  V30 9735 N 935.637 0.236453 -1.55816 0
M  V30 9736 C 936.885 0.96111 -1.77784 0
M  V30 9737 C 937.206 1.85454 -0.602648 0
M  V30 9738 O 936.476 1.92157 0.381137 0
M  V30 9739 H 935.056 0.35787 -0.655697 0
M  V30 9740 H 937.718 0.251888 -1.93265 0
M  V30 9741 H 936.814 1.5767 -2.69345 0
M  V30 9742 N 937.115 1.49373 0.502552 0
M  V30 9743 C 938.34 1.62752 1.28556 0
M  V30 9744 C 938.765 0.298285 1.8572 0
M  V30 9745 O 938.123 -0.733885 1.65782 0
M  V30 9746 C 938.171 2.69778 2.39274 0
M  V30 9747 O 937.275 2.28843 3.43081 0
M  V30 9748 H 936.616 0.544799 0.379592 0
M  V30 9749 H 939.146 1.9555 0.601792 0
M  V30 9750 H 939.156 2.91899 2.8506 0
M  V30 9751 H 937.831 3.66266 1.97033 0
M  V30 9752 H 936.408 2.17047 3.03224 0
M  V30 9753 N 938.594 -0.753485 1.38421 0
M  V30 9754 C 939.524 -1.8808 1.38377 0
M  V30 9755 C 940.505 -1.68258 0.249664 0
M  V30 9756 O 941.69 -1.88848 0.45276 0
M  V30 9757 C 938.82 -3.25608 1.20818 0
M  V30 9758 C 937.774 -3.60032 2.31433 0
M  V30 9759 C 937.1 -4.96297 1.9898 0
M  V30 9760 C 938.4 -3.64898 3.73694 0
M  V30 9761 H 940.094 -1.88375 2.32713 0
M  V30 9762 H 937.64 -0.90489 1.12017 0
M  V30 9763 H 939.593 -4.04127 1.19412 0
M  V30 9764 H 938.317 -3.25793 0.229433 0
M  V30 9765 H 936.976 -2.83831 2.32025 0
M  V30 9766 H 936.624 -4.93043 0.995889 0
M  V30 9767 H 936.324 -5.20298 2.73063 0
M  V30 9768 H 937.848 -5.77196 1.99193 0
M  V30 9769 H 939.262 -4.33531 3.75132 0
M  V30 9770 H 937.659 -4.00407 4.46983 0
M  V30 9771 H 938.729 -2.65124 4.06002 0
M  V30 9772 N 940.072 -1.23292 -0.981677 0
M  V30 9773 C 941.302 -1.0893 -1.7555 0
M  V30 9774 C 941.71 0.362219 -1.857 0
M  V30 9775 O 941.053 1.2624 -1.33451 0
M  V30 9776 C 941.115 -1.6389 -3.19969 0
M  V30 9777 C 940.779 -3.12632 -3.33332 0
M  V30 9778 C 941.776 -4.0994 -3.19758 0
M  V30 9779 C 939.461 -3.52314 -3.58022 0
M  V30 9780 C 941.455 -5.44915 -3.30676 0
M  V30 9781 C 939.142 -4.87434 -3.6858 0
M  V30 9782 C 940.14 -5.83544 -3.54916 0
M  V30 9783 O 939.828 -7.16209 -3.65102 0
M  V30 9784 H 939.56 -0.381901 -0.557788 0
M  V30 9785 H 942.114 -1.63586 -1.24213 0
M  V30 9786 H 940.344 -1.03653 -3.72549 0
M  V30 9787 H 942.033 -1.45023 -3.79108 0
M  V30 9788 H 942.799 -3.80625 -3.00582 0
M  V30 9789 H 938.678 -2.78022 -3.67729 0
M  V30 9790 H 942.222 -6.19913 -3.19928 0
M  V30 9791 H 938.119 -5.16426 -3.87265 0
M  V30 9792 H 938.887 -7.23941 -3.81905 0
M  V30 9793 N 941.55 1.18024 -1.04442 0
M  V30 9794 C 942.48 2.23988 -0.659683 0
M  V30 9795 C 943.461 1.6669 0.338904 0
M  V30 9796 O 944.646 1.92971 0.21817 0
M  V30 9797 C 941.776 3.4729 -0.0257672 0
M  V30 9798 C 940.73 4.17362 -0.948299 0
M  V30 9799 C 940.056 5.34401 -0.17866 0
M  V30 9800 C 941.356 4.70435 -2.26909 0
M  V30 9801 H 943.05 2.56425 -1.54553 0
M  V30 9802 H 940.596 1.23256 -0.744575 0
M  V30 9803 H 942.549 4.20627 0.255131 0
M  V30 9804 H 941.273 3.14098 0.894981 0
M  V30 9805 H 939.932 3.45928 -1.21364 0
M  V30 9806 H 939.58 4.97458 0.744614 0
M  V30 9807 H 939.28 5.8222 -0.793294 0
M  V30 9808 H 940.804 6.10526 0.0951315 0
M  V30 9809 H 942.218 5.35447 -2.04864 0
M  V30 9810 H 940.615 5.28803 -2.83703 0
M  V30 9811 H 941.685 3.87653 -2.91296 0
M  V30 9812 N 943.028 0.824394 1.34319 0
M  V30 9813 C 944.276 0.41235 1.97849 0
M  V30 9814 C 944.597 -1.02841 1.65677 0
M  V30 9815 O 943.867 -1.71421 0.948245 0
M  V30 9816 H 942.447 0.149486 0.73189 0
M  V30 9817 H 945.109 1.05416 1.63931 0
M  V30 9818 H 944.205 0.532557 3.07523 0
M  V30 9819 N 944.506 -1.46559 0.579492 0
M  V30 9820 C 945.456 -2.27316 -0.17645 0
M  V30 9821 C 946.44 -1.35681 -0.864835 0
M  V30 9822 O 947.632 -1.59879 -0.759462 0
M  V30 9823 C 944.761 -3.21957 -1.19157 0
M  V30 9824 C 943.847 -4.21077 -0.505459 0
M  V30 9825 N 944.238 -5.03908 0.437133 0
M  V30 9826 C 942.536 -4.39535 -0.75661 0
M  V30 9827 C 943.237 -5.75635 0.837819 0
M  V30 9828 N 942.213 -5.43276 0.187679 0
M  V30 9829 H 946.015 -2.88747 0.547932 0
M  V30 9830 H 943.529 -1.5737 0.401048 0
M  V30 9831 H 945.526 -3.78518 -1.74728 0
M  V30 9832 H 944.186 -2.62085 -1.9168 0
M  V30 9833 H 945.197 -5.11487 0.812488 0
M  V30 9834 H 941.874 -3.90815 -1.46867 0
M  V30 9835 H 943.264 -6.52235 1.61364 0
M  V30 9836 N 945.984 -0.3171 -1.54377 0
M  V30 9837 C 946.934 0.567199 -2.20832 0
M  V30 9838 C 947.918 1.08661 -1.18666 0
M  V30 9839 O 949.11 1.0247 -1.44322 0
M  V30 9840 C 946.239 1.73079 -2.96477 0
M  V30 9841 C 945.325 1.22658 -4.05975 0
M  V30 9842 N 945.716 0.441565 -5.03869 0
M  V30 9843 C 944.014 1.50589 -4.19808 0
M  V30 9844 C 944.715 0.171063 -5.81448 0
M  V30 9845 N 943.691 0.755389 -5.38326 0
M  V30 9846 H 947.493 -0.0399349 -2.93873 0
M  V30 9847 H 945.007 -0.122639 -1.61936 0
M  V30 9848 H 947.004 2.37601 -3.42566 0
M  V30 9849 H 945.664 2.34146 -2.24957 0
M  V30 9850 H 946.675 0.0849921 -5.1783 0
M  V30 9851 H 943.352 2.12288 -3.595 0
M  V30 9852 H 944.742 -0.460484 -6.7032 0
M  V30 9853 N 947.462 1.57535 -0.0451378 0
M  V30 9854 C 948.873 1.80116 0.491426 0
M  V30 9855 C 949.224 0.956846 1.71286 0
M  V30 9856 O 948.349 0.17173 2.15718 0
M  V30 9857 C 948.944 3.26674 0.898315 0
M  V30 9858 C 947.503 3.50194 1.37989 0
M  V30 9859 C 946.65 2.75054 0.352202 0
M  V30 9860 H 949.601 1.56368 -0.271065 0
M  V30 9861 H 949.622 3.37263 1.76164 0
M  V30 9862 H 949.134 3.88099 0.009141 0
M  V30 9863 H 947.235 2.94041 2.28846 0
M  V30 9864 H 947.348 4.58909 1.37622 0
M  V30 9865 H 945.712 2.4101 0.823784 0
M  V30 9866 H 946.495 3.39203 -0.528782 0
M  V30 9867 N 948.94 -0.228186 1.55939 0
M  V30 9868 C 950.217 -0.977492 1.69424 0
M  V30 9869 C 950.597 -2.02674 0.590479 0
M  V30 9870 O 949.945 -2.2491 -0.403467 0
M  V30 9871 C 950.155 -1.59394 3.10475 0
M  V30 9872 C 951.503 -2.08871 3.69673 0
M  V30 9873 O 952.527 -1.693 3.13394 0
M  V30 9874 O 951.386 -2.81584 4.68372 0
M  V30 9875 H 948.48 -0.456185 0.6898 0
M  V30 9876 H 951.026 -0.220492 1.68261 0
M  V30 9877 H 949.798 -0.835971 3.82266 0
M  V30 9878 H 949.421 -2.41665 3.15727 0
M  V30 9879 N 950.418 -1.49637 -0.494624 0
M  V30 9880 C 951.648 -1.62928 -1.27036 0
M  V30 9881 C 952.056 -0.302464 -1.86767 0
M  V30 9882 O 951.399 0.722878 -1.68879 0
M  V30 9883 C 951.461 -2.64449 -2.43531 0
M  V30 9884 C 951.125 -4.08632 -2.0462 0
M  V30 9885 C 952.122 -4.95238 -1.58225 0
M  V30 9886 C 949.807 -4.54405 -2.1406 0
M  V30 9887 C 951.801 -6.25658 -1.21782 0
M  V30 9888 C 949.488 -5.84836 -1.77228 0
M  V30 9889 C 950.486 -6.70287 -1.31165 0
M  V30 9890 O 950.174 -7.98287 -0.948339 0
M  V30 9891 H 949.906 -0.551263 -0.391261 0
M  V30 9892 H 952.46 -1.96453 -0.599621 0
M  V30 9893 H 950.69 -2.26117 -3.137 0
M  V30 9894 H 952.379 -2.67203 -3.05545 0
M  V30 9895 H 953.145 -4.611 -1.50373 0
M  V30 9896 H 949.024 -3.88056 -2.48865 0
M  V30 9897 H 952.568 -6.92309 -0.857566 0
M  V30 9898 H 948.465 -6.18502 -1.84732 0
M  V30 9899 H 949.233 -8.11353 -1.07925 0
M  V30 9900 N 951.896 0.746133 -1.38819 0
M  V30 9901 C 953.142 1.50768 -1.35635 0
M  V30 9902 C 953.475 1.94132 0.0512435 0
M  V30 9903 O 952.75 1.65979 1.01396 0
M  V30 9904 C 953.033 2.7551 -2.31875 0
M  V30 9905 C 952.886 2.38236 -3.81528 0
M  V30 9906 C 954.205 3.77566 -2.26124 0
M  V30 9907 H 951.324 0.546922 -0.494009 0
M  V30 9908 H 953.966 0.854017 -1.69725 0
M  V30 9909 H 952.116 3.31285 -2.02935 0
M  V30 9910 H 953.788 1.88178 -4.21173 0
M  V30 9911 H 952.031 1.70601 -3.98846 0
M  V30 9912 H 952.702 3.27517 -4.44339 0
M  V30 9913 H 955.178 3.31349 -2.51689 0
M  V30 9914 H 954.054 4.62531 -2.95561 0
M  V30 9915 H 954.315 4.23689 -1.26254 0
M  V30 9916 N 953.375 1.23811 0.975125 0
M  V30 9917 C 954.652 0.9815 1.69192 0
M  V30 9918 C 955.032 -0.498373 2.05133 0
M  V30 9919 O 954.38 -1.47087 1.74864 0
M  V30 9920 C 954.59 1.89701 2.92941 0
M  V30 9921 C 955.938 2.16357 3.65342 0
M  V30 9922 O 956.962 1.87293 3.02985 0
M  V30 9923 O 955.821 2.65675 4.77576 0
M  V30 9924 H 952.915 0.370599 0.739314 0
M  V30 9925 H 955.461 1.34876 1.02988 0
M  V30 9926 H 954.233 2.89719 2.63018 0
M  V30 9927 H 953.856 1.53244 3.66881 0
M  V30 9928 N 954.853 -1.17469 1.05066 0
M  V30 9929 C 956.269 -1.39699 0.771769 0
M  V30 9930 C 956.469 -1.91253 -0.634382 0
M  V30 9931 O 955.525 -2.10334 -1.39699 0
M  V30 9932 C 956.838 -2.38886 1.82631 0
M  V30 9933 C 958.386 -2.52595 1.84838 0
M  V30 9934 C 958.861 -3.55054 2.89311 0
M  V30 9935 N 960.352 -3.6257 2.88266 0
M  V30 9936 C 961.087 -4.41603 3.65752 0
M  V30 9937 N 960.583 -5.24162 4.53019 0
M  V30 9938 N 962.376 -4.36464 3.54197 0
M  V30 9939 H 954.527 -0.823355 1.95792 0
M  V30 9940 H 956.79 -0.42432 0.847736 0
M  V30 9941 H 956.496 -2.08075 2.83545 0
M  V30 9942 H 956.37 -3.38371 1.66687 0
M  V30 9943 H 958.757 -2.82717 0.845888 0
M  V30 9944 H 958.838 -1.53188 2.04859 0
M  V30 9945 H 958.482 -3.2567 3.89745 0
M  V30 9946 H 958.412 -4.54162 2.66542 0
M  V30 9947 H 960.903 -3.03625 2.24989 0
M  V30 9948 H 961.216 -5.81646 5.0883 0
M  V30 9949 H 959.561 -5.23547 4.57081 0
M  V30 9950 H 962.752 -3.7102 2.85416 0
M  V30 9951 H 962.925 -4.97814 4.14832 0
M  V30 9952 N 956.331 -0.831506 -1.3388 0
M  V30 9953 C 957.294 -0.264773 -2.27666 0
M  V30 9954 C 958.294 0.562273 -1.50649 0
M  V30 9955 O 959.484 0.377131 -1.70069 0
M  V30 9956 C 956.616 0.627814 -3.35069 0
M  V30 9957 H 957.809 -1.09225 -2.79303 0
M  V30 9958 H 955.362 -0.604021 -1.44157 0
M  V30 9959 H 956.097 1.47802 -2.88661 0
M  V30 9960 H 955.882 0.0361552 -3.92083 0
M  V30 9961 H 957.372 1.01786 -4.05005 0
M  V30 9962 N 957.809 1.4625 -0.587256 0
M  V30 9963 C 959.039 2.06444 -0.0802135 0
M  V30 9964 C 959.447 1.43585 1.23207 0
M  V30 9965 O 958.79 0.536956 1.75677 0
M  V30 9966 C 958.852 3.59165 0.155129 0
M  V30 9967 C 958.516 4.44243 -1.07225 0
M  V30 9968 C 959.513 4.80497 -1.98542 0
M  V30 9969 C 957.198 4.8531 -1.29537 0
M  V30 9970 C 959.192 5.56649 -3.10516 0
M  V30 9971 C 956.879 5.61221 -2.41815 0
M  V30 9972 C 957.877 5.96805 -3.32134 0
M  V30 9973 O 957.565 6.71181 -4.42461 0
M  V30 9974 H 957.297 0.673626 -0.0566063 0
M  V30 9975 H 959.851 1.88797 -0.809004 0
M  V30 9976 H 958.081 3.75137 0.938583 0
M  V30 9977 H 959.77 4.01271 0.611243 0
M  V30 9978 H 960.536 4.49345 -1.82522 0
M  V30 9979 H 956.415 4.5706 -0.601431 0
M  V30 9980 H 959.959 5.84343 -3.81037 0
M  V30 9981 H 955.856 5.91786 -2.57797 0
M  V30 9982 H 956.624 6.8961 -4.40886 0
M  V30 9983 N 959.287 0.325282 1.54207 0
M  V30 9984 C 960.197 -0.548778 2.28091 0
M  V30 9985 C 961.213 -1.12772 1.32508 0
M  V30 9986 O 962.389 -1.14732 1.65525 0
M  V30 9987 C 959.454 -1.69284 3.02562 0
M  V30 9988 C 958.515 -1.14553 4.13734 0
M  V30 9989 C 957.748 -2.23506 4.84645 0
M  V30 9990 O 957.971 -3.43884 4.55082 0
M  V30 9991 O 956.905 -1.88828 5.71513 0
M  V30 9992 H 960.731 0.0512974 3.03657 0
M  V30 9993 H 958.316 0.0909159 1.49123 0
M  V30 9994 H 960.198 -2.35887 3.49192 0
M  V30 9995 H 958.873 -2.27906 2.2987 0
M  V30 9996 H 957.78 -0.444532 3.71449 0
M  V30 9997 H 959.113 -0.60441 4.88475 0
M  V30 9998 N 960.765 -1.57509 0.0534917 0
M  V30 9999 C 961.675 -2.15152 -0.935249 0
M  V30 10000 C 962.691 -1.10991 -1.34003 0
M  V30 10001 O 963.867 -1.43171 -1.41648 0
M  V30 10002 C 960.932 -2.68699 -2.19093 0
M  V30 10003 C 959.993 -3.87666 -1.84428 0
M  V30 10004 C 959.226 -4.3865 -3.0401 0
M  V30 10005 O 959.449 -3.887 -4.17455 0
M  V30 10006 O 958.383 -5.30209 -2.84889 0
M  V30 10007 H 962.209 -2.99962 -0.475009 0
M  V30 10008 H 959.794 -1.48446 -0.16854 0
M  V30 10009 H 961.676 -3.03098 -2.92762 0
M  V30 10010 H 960.351 -1.86958 -2.6425 0
M  V30 10011 H 959.258 -3.58151 -1.08068 0
M  V30 10012 H 960.591 -4.70643 -1.44068 0
M  V30 10013 N 962.243 0.219913 -1.56058 0
M  V30 10014 C 963.173 1.27572 -1.9557 0
M  V30 10015 C 964.154 1.48801 -0.824148 0
M  V30 10016 O 965.339 1.60957 -1.08658 0
M  V30 10017 C 962.469 2.62517 -2.27381 0
M  V30 10018 C 961.423 2.55941 -3.43042 0
M  V30 10019 C 960.749 3.94931 -3.60463 0
M  V30 10020 C 962.049 2.10584 -4.77966 0
M  V30 10021 H 963.743 0.947482 -2.84013 0
M  V30 10022 H 961.289 0.454337 -1.36645 0
M  V30 10023 H 963.242 3.36538 -2.53615 0
M  V30 10024 H 961.966 2.97031 -1.35794 0
M  V30 10025 H 960.625 1.84377 -3.1686 0
M  V30 10026 H 960.273 4.26756 -2.66249 0
M  V30 10027 H 959.973 3.91413 -4.38258 0
M  V30 10028 H 961.497 4.70611 -3.89046 0
M  V30 10029 H 962.911 2.74349 -5.03394 0
M  V30 10030 H 961.308 2.18122 -5.59055 0
M  V30 10031 H 962.378 1.05818 -4.73213 0
M  V30 10032 N 963.721 1.49897 0.486681 0
M  V30 10033 C 965.137 1.36977 0.819109 0
M  V30 10034 C 965.337 0.41385 1.97204 0
M  V30 10035 O 964.393 -0.149249 2.52059 0
M  V30 10036 C 965.706 2.78013 1.14584 0
M  V30 10037 C 967.254 2.86816 1.25321 0
M  V30 10038 C 967.729 4.28651 1.61316 0
M  V30 10039 N 969.22 4.31528 1.68337 0
M  V30 10040 C 969.955 5.38254 1.97662 0
M  V30 10041 N 969.451 6.55207 2.25113 0
M  V30 10042 N 971.244 5.25683 1.99033 0
M  V30 10043 H 963.395 2.10634 -0.273364 0
M  V30 10044 H 965.658 0.946116 -0.0597418 0
M  V30 10045 H 965.364 3.49728 0.371892 0
M  V30 10046 H 965.238 3.1428 2.08585 0
M  V30 10047 H 967.625 2.15329 2.01785 0
M  V30 10048 H 967.706 2.54112 0.293368 0
M  V30 10049 H 967.35 5.00669 0.853968 0
M  V30 10050 H 967.28 4.5883 2.58424 0
M  V30 10051 H 969.771 3.47189 1.49226 0
M  V30 10052 H 970.084 7.32359 2.46717 0
M  V30 10053 H 968.429 6.58408 2.22538 0
M  V30 10054 H 971.62 4.33316 1.77074 0
M  V30 10055 H 971.793 6.08949 2.21552 0
M  V30 10056 N 965.199 -0.738761 1.39212 0
M  V30 10057 C 966.615 -1.04381 1.20734 0
M  V30 10058 C 966.815 -2.01391 0.0663082 0
M  V30 10059 O 965.871 -2.45672 -0.583229 0
M  V30 10060 C 967.184 -1.6097 2.53987 0
M  V30 10061 C 968.732 -1.73069 2.60799 0
M  V30 10062 C 969.207 -2.33067 3.94264 0
M  V30 10063 N 970.698 -2.40481 3.95883 0
M  V30 10064 C 971.433 -2.87834 4.95923 0
M  V30 10065 N 970.929 -3.35111 6.0636 0
M  V30 10066 N 972.722 -2.87009 4.83304 0
M  V30 10067 H 964.873 -0.0952996 2.12186 0
M  V30 10068 H 967.136 -0.104902 0.942178 0
M  V30 10069 H 966.842 -0.971548 3.38015 0
M  V30 10070 H 966.716 -2.59829 2.73439 0
M  V30 10071 H 969.103 -2.36007 1.77157 0
M  V30 10072 H 969.184 -0.728728 2.452 0
M  V30 10073 H 968.828 -1.70758 4.78335 0
M  V30 10074 H 968.758 -3.33933 4.07181 0
M  V30 10075 H 971.249 -2.07061 3.16123 0
M  V30 10076 H 971.562 -3.69742 6.78609 0
M  V30 10077 H 969.907 -3.33129 6.09959 0
M  V30 10078 H 973.098 -2.49395 3.96131 0
M  V30 10079 H 973.271 -3.23598 5.61416 0
M  V30 10080 N 966.677 -1.24326 -0.968545 0
M  V30 10081 C 967.954 -0.990459 -1.68669 0
M  V30 10082 C 968.334 0.487487 -2.05394 0
M  V30 10083 O 967.682 1.46158 -1.75642 0
M  V30 10084 C 967.892 -1.91251 -2.91931 0
M  V30 10085 C 969.24 -2.18291 -3.6419 0
M  V30 10086 O 970.264 -1.88897 -3.01987 0
M  V30 10087 O 969.123 -2.68204 -4.76161 0
M  V30 10088 H 966.217 -0.374515 -0.737338 0
M  V30 10089 H 968.763 -1.35421 -1.02271 0
M  V30 10090 H 967.535 -2.9111 -2.61478 0
M  V30 10091 H 967.158 -1.55188 -3.66064 0
M  V30 10092 N 968.156 1.1691 -1.05688 0
M  V30 10093 C 969.405 1.86629 -0.765022 0
M  V30 10094 C 969.718 1.82223 0.710918 0
M  V30 10095 O 970.924 2.47462 1.11691 0
M  V30 10096 C 969.38 3.34886 -1.3183 0
M  V30 10097 C 968.988 3.47781 -2.82404 0
M  V30 10098 C 970.732 4.099 -1.10372 0
M  V30 10099 C 968.639 4.9009 -3.31008 0
M  V30 10100 H 967.569 0.699082 -0.282491 0
M  V30 10101 H 970.22 1.31989 -1.27481 0
M  V30 10102 H 968.602 3.89094 -0.736312 0
M  V30 10103 H 969.776 3.03765 -3.46502 0
M  V30 10104 H 968.091 2.86193 -3.02461 0
M  V30 10105 H 970.688 5.14894 -1.4418 0
M  V30 10106 H 971.031 4.16279 -0.0417372 0
M  V30 10107 H 971.564 3.61913 -1.65117 0
M  V30 10108 H 968.303 4.88887 -4.36657 0
M  V30 10109 H 967.823 5.34756 -2.71655 0
M  V30 10110 H 969.502 5.58881 -3.25977 0
M  V30 10111 N 969.634 0.838594 1.33437 0
M  V30 10112 C 970.882 0.433312 1.974 0
M  V30 10113 C 971.203 -1.01078 1.66758 0
M  V30 10114 O 970.473 -1.70406 0.966373 0
M  V30 10115 H 969.053 0.15724 0.730263 0
M  V30 10116 H 971.715 1.07149 1.62804 0
M  V30 10117 H 970.811 0.565144 3.06941 0
M  V30 10118 N 971.112 -1.45937 0.595003 0
M  V30 10119 C 972.337 -2.07207 0.0894416 0
M  V30 10120 C 972.762 -1.43884 -1.21157 0
M  V30 10121 O 972.12 -0.526998 -1.73472 0
M  V30 10122 C 972.168 -3.60565 -0.0499828 0
M  V30 10123 O 971.272 -3.97364 -1.10342 0
M  V30 10124 H 970.613 -0.660471 0.0683627 0
M  V30 10125 H 973.143 -1.87386 0.82144 0
M  V30 10126 H 973.153 -4.0722 -0.252234 0
M  V30 10127 H 971.828 -4.06044 0.90006 0
M  V30 10128 H 970.405 -3.62401 -0.878645 0
M  V30 10129 N 972.59 -0.333456 -1.54032 0
M  V30 10130 C 973.818 0.267813 -2.05159 0
M  V30 10131 C 974.233 1.4501 -1.20903 0
M  V30 10132 O 973.59 1.80888 -0.241994 0
M  V30 10133 C 973.641 0.69268 -3.54802 0
M  V30 10134 O 973.362 -0.442579 -4.35859 0
M  V30 10135 C 974.863 1.35572 -4.2206 0
M  V30 10136 H 972.083 0.0534924 -0.668864 0
M  V30 10137 H 974.627 -0.482515 -1.98726 0
M  V30 10138 H 972.782 1.39297 -3.6149 0
M  V30 10139 H 973.196 -0.105915 -5.24393 0
M  V30 10140 H 974.67 1.60385 -5.28186 0
M  V30 10141 H 975.147 2.30614 -3.73783 0
M  V30 10142 H 975.753 0.697748 -4.19537 0
M  V30 10143 N 974.068 1.57479 -0.061844 0
M  V30 10144 C 975.345 1.84484 0.649993 0
M  V30 10145 C 975.725 0.952366 1.88396 0
M  V30 10146 O 975.073 0.0161035 2.28494 0
M  V30 10147 C 975.283 3.34452 0.997133 0
M  V30 10148 C 976.631 4.01724 1.37488 0
M  V30 10149 O 977.655 3.3914 1.08916 0
M  V30 10150 O 976.514 5.12091 1.90854 0
M  V30 10151 H 973.608 0.761798 0.321858 0
M  V30 10152 H 976.154 1.6945 -0.0920192 0
M  V30 10153 H 974.926 3.91115 0.120301 0
M  V30 10154 H 974.549 3.54713 1.79624 0
M  V30 10155 N 975.546 -0.211634 1.56173 0
M  V30 10156 C 976.792 -0.931479 1.80818 0
M  V30 10157 C 977.147 -1.81571 0.636373 0
M  V30 10158 O 976.44 -1.8801 -0.369182 0
M  V30 10159 C 976.634 -1.79657 3.08963 0
M  V30 10160 C 976.463 -0.997577 4.38496 0
M  V30 10161 C 975.233 -0.688558 5.00587 0
M  V30 10162 C 977.431 -0.358138 5.13052 0
M  V30 10163 N 975.413 0.130797 6.13761 0
M  V30 10164 C 976.784 0.324159 6.19152 0
M  V30 10165 C 978.839 -0.272178 4.97156 0
M  V30 10166 C 977.542 1.08421 7.11082 0
M  V30 10167 C 979.568 0.474428 5.89494 0
M  V30 10168 C 978.93 1.14523 6.95028 0
M  V30 10169 H 975.029 -0.32079 0.713174 0
M  V30 10170 H 977.613 -0.201528 1.93654 0
M  V30 10171 H 975.784 -2.49826 2.97392 0
M  V30 10172 H 977.516 -2.45464 3.2176 0
M  V30 10173 H 974.271 -1.00899 4.62727 0
M  V30 10174 H 974.695 0.5296 6.74925 0
M  V30 10175 H 979.337 -0.776448 4.15609 0
M  V30 10176 H 977.055 1.59996 7.92103 0
M  V30 10177 H 980.641 0.542076 5.79269 0
M  V30 10178 H 979.521 1.71371 7.65246 0
M  V30 10179 N 977.024 -1.50153 -0.478725 0
M  V30 10180 C 977.972 -1.68975 -1.59844 0
M  V30 10181 C 978.966 -0.555591 -1.6003 0
M  V30 10182 O 980.172 -0.735875 -1.64271 0
M  V30 10183 H 976.547 -0.533211 -0.530274 0
M  V30 10184 H 978.518 -2.62917 -1.41128 0
M  V30 10185 C 977.267 -1.79409 -2.97838 0
M  V30 10186 H 976.59 -2.66066 -2.98411 0
M  V30 10187 H 978.03 -1.96606 -3.75662 0
M  V30 10188 C 976.489 -0.543927 -3.3248 0
M  V30 10189 O 977.019 0.320376 -4.0042 0
M  V30 10190 N 975.225 -0.400217 -2.87831 0
M  V30 10191 H 974.772 -1.10458 -2.32716 0
M  V30 10192 H 974.73 0.435111 -3.11375 0
M  V30 10193 N 978.502 0.731368 -1.39602 0
M  V30 10194 C 979.432 1.85855 -1.41351 0
M  V30 10195 C 980.413 1.67839 -0.2764 0
M  V30 10196 O 981.598 1.88104 -0.482747 0
M  V30 10197 C 978.728 3.23644 -1.25983 0
M  V30 10198 C 977.682 3.56304 -2.37132 0
M  V30 10199 C 977.008 4.93069 -2.0685 0
M  V30 10200 C 978.308 3.58906 -3.79452 0
M  V30 10201 H 980.002 1.84648 -2.3568 0
M  V30 10202 H 977.548 0.886955 -1.13442 0
M  V30 10203 H 979.501 4.02176 -1.25826 0
M  V30 10204 H 978.225 3.25387 -0.281234 0
M  V30 10205 H 976.884 2.80104 -2.36511 0
M  V30 10206 H 976.532 4.91396 -1.0742 0
M  V30 10207 H 976.232 5.15888 -2.81306 0
M  V30 10208 H 977.756 5.73953 -2.0835 0
M  V30 10209 H 979.17 4.27508 -3.81982 0
M  V30 10210 H 977.567 3.93246 -4.53297 0
M  V30 10211 H 978.637 2.58631 -4.10168 0
M  V30 10212 N 979.98 1.24838 0.961938 0
M  V30 10213 C 981.226 1.10321 1.70883 0
M  V30 10214 C 981.581 -0.353397 1.89127 0
M  V30 10215 O 980.874 -1.25721 1.44584 0
M  V30 10216 C 981.068 1.78289 3.09754 0
M  V30 10217 C 980.897 3.30409 3.05057 0
M  V30 10218 C 979.667 3.9964 3.09218 0
M  V30 10219 C 981.865 4.26916 2.86787 0
M  V30 10220 N 979.847 5.38594 2.94601 0
M  V30 10221 C 981.218 5.52906 2.80526 0
M  V30 10222 C 983.273 4.17421 2.71412 0
M  V30 10223 C 981.976 6.70487 2.60461 0
M  V30 10224 C 984.002 5.34686 2.52715 0
M  V30 10225 C 983.364 6.59611 2.47168 0
M  V30 10226 H 979.463 0.458353 0.63359 0
M  V30 10227 H 982.047 1.57835 1.14001 0
M  V30 10228 H 980.218 1.33281 3.64816 0
M  V30 10229 H 981.95 1.5658 3.73182 0
M  V30 10230 H 978.705 3.50847 3.18125 0
M  V30 10231 H 979.129 6.11497 2.90517 0
M  V30 10232 H 983.771 3.21592 2.74479 0
M  V30 10233 H 981.489 7.66433 2.56136 0
M  V30 10234 H 985.075 5.29194 2.41754 0
M  V30 10235 H 983.955 7.48821 2.32888 0
M  V30 10236 N 981.458 -1.16348 1.06306 0
M  V30 10237 C 982.683 -1.91323 0.800636 0
M  V30 10238 C 983.108 -1.7691 -0.639105 0
M  V30 10239 O 982.466 -1.0945 -1.44535 0
M  V30 10240 C 982.514 -3.40038 1.20027 0
M  V30 10241 O 981.618 -4.11003 0.339142 0
M  V30 10242 H 980.959 -0.596057 0.292595 0
M  V30 10243 H 983.489 -1.47406 1.41889 0
M  V30 10244 H 983.499 -3.90808 1.17188 0
M  V30 10245 H 982.174 -3.49848 2.24898 0
M  V30 10246 H 980.751 -3.70423 0.42911 0
M  V30 10247 N 982.937 -0.845659 -1.3299 0
M  V30 10248 C 983.885 -0.272412 -2.30999 0
M  V30 10249 C 984.879 0.599311 -1.58444 0
M  V30 10250 O 986.085 0.488117 -1.73255 0
M  V30 10251 H 982.46 -0.0693751 -0.748793 0
M  V30 10252 H 984.431 -1.11343 -2.76849 0
M  V30 10253 C 983.18 0.532019 -3.43606 0
M  V30 10254 H 982.503 -0.129455 -3.9959 0
M  V30 10255 H 983.943 0.898853 -4.14363 0
M  V30 10256 C 982.402 1.71364 -2.90062 0
M  V30 10257 O 982.932 2.81252 -2.8681 0
M  V30 10258 N 981.138 1.53775 -2.4658 0
M  V30 10259 H 980.685 0.643836 -2.49424 0
M  V30 10260 H 980.643 2.32982 -2.11108 0
M  V30 10261 N 984.415 1.45619 -0.602734 0
M  V30 10262 C 985.345 2.33258 0.106342 0
M  V30 10263 C 986.326 1.46543 0.863664 0
M  V30 10264 O 987.511 1.75324 0.835175 0
M  V30 10265 C 984.641 3.29168 1.10751 0
M  V30 10266 C 983.595 4.25481 0.463717 0
M  V30 10267 C 982.921 5.11046 1.57278 0
M  V30 10268 C 984.221 5.18702 -0.61199 0
M  V30 10269 H 985.915 2.92795 -0.625423 0
M  V30 10270 H 983.461 1.40793 -0.302213 0
M  V30 10271 H 985.414 3.89346 1.61208 0
M  V30 10272 H 984.138 2.6778 1.8698 0
M  V30 10273 H 982.797 3.66595 -0.0199496 0
M  V30 10274 H 982.445 4.46029 2.32524 0
M  V30 10275 H 982.145 5.76286 1.14755 0
M  V30 10276 H 983.669 5.74091 2.07972 0
M  V30 10277 H 985.083 5.72979 -0.191686 0
M  V30 10278 H 983.48 5.92393 -0.958686 0
M  V30 10279 H 984.55 4.61424 -1.4905 0
M  V30 10280 N 985.893 0.34162 1.53853 0
M  V30 10281 C 987.139 -0.255862 2.01179 0
M  V30 10282 C 987.472 -1.50356 1.22909 0
M  V30 10283 O 986.747 -1.91913 0.316198 0
M  V30 10284 C 987.03 -0.571934 3.55529 0
M  V30 10285 C 986.883 0.687727 4.44511 0
M  V30 10286 C 988.202 -1.38233 4.17827 0
M  V30 10287 H 985.321 -0.091521 0.731295 0
M  V30 10288 H 987.963 0.461775 1.84303 0
M  V30 10289 H 986.113 -1.18331 3.70041 0
M  V30 10290 H 987.785 1.32572 4.4184 0
M  V30 10291 H 986.028 1.313 4.13452 0
M  V30 10292 H 986.699 0.421858 5.50386 0
M  V30 10293 H 989.175 -0.865374 4.07002 0
M  V30 10294 H 988.051 -1.57223 5.25901 0
M  V30 10295 H 988.312 -2.38386 3.72323 0
M  V30 10296 N 987.371 -1.57444 0.0701946 0
M  V30 10297 C 988.617 -1.94528 -0.594177 0
M  V30 10298 C 988.972 -0.949898 -1.67316 0
M  V30 10299 O 988.265 0.0280668 -1.91579 0
M  V30 10300 C 988.459 -3.36044 -1.21694 0
M  V30 10301 C 988.288 -4.49256 -0.199806 0
M  V30 10302 C 987.058 -5.04843 0.214963 0
M  V30 10303 C 989.256 -5.11217 0.562312 0
M  V30 10304 N 987.238 -6.01595 1.22297 0
M  V30 10305 C 988.609 -6.03453 1.42284 0
M  V30 10306 C 990.664 -4.94043 0.618555 0
M  V30 10307 C 989.367 -6.80359 2.33461 0
M  V30 10308 C 991.393 -5.71591 1.51783 0
M  V30 10309 C 990.755 -6.63474 2.36604 0
M  V30 10310 H 986.854 -0.758941 -0.1885 0
M  V30 10311 H 989.438 -1.94145 0.146965 0
M  V30 10312 H 987.609 -3.37168 -1.92801 0
M  V30 10313 H 989.341 -3.60368 -1.84165 0
M  V30 10314 H 986.096 -4.73303 -0.167835 0
M  V30 10315 H 986.52 -6.5467 1.72443 0
M  V30 10316 H 991.162 -4.22794 -0.0230235 0
M  V30 10317 H 988.88 -7.50886 2.98656 0
M  V30 10318 H 992.466 -5.60324 1.56616 0
M  V30 10319 H 991.346 -7.22432 3.0506 0
M  V30 10320 N 988.849 0.203349 -1.56283 0
M  V30 10321 C 989.782 1.27982 -1.88934 0
M  V30 10322 C 990.76 1.44345 -0.748555 0
M  V30 10323 O 991.944 1.59867 -0.998741 0
M  V30 10324 C 989.071 2.64762 -2.11231 0
M  V30 10325 C 988.117 2.65315 -3.33932 0
M  V30 10326 S 988.95 2.17568 -4.8931 0
M  V30 10327 C 990.106 3.56189 -5.14665 0
M  V30 10328 H 990.339 1.00095 -2.79943 0
M  V30 10329 H 987.872 0.406458 -1.48954 0
M  V30 10330 H 989.83 3.43501 -2.2476 0
M  V30 10331 H 988.491 2.89864 -1.20986 0
M  V30 10332 H 987.684 3.6587 -3.46634 0
M  V30 10333 H 987.286 1.94652 -3.19353 0
M  V30 10334 H 989.578 4.52001 -5.0468 0
M  V30 10335 H 990.521 3.48387 -6.16467 0
M  V30 10336 H 990.929 3.50719 -4.42331 0
M  V30 10337 N 990.327 1.50405 0.470755 0
M  V30 10338 C 991.557 1.64928 1.24428 0
M  V30 10339 C 991.965 0.332139 1.86262 0
M  V30 10340 O 991.308 -0.695919 1.70008 0
M  V30 10341 C 991.37 2.6829 2.39293 0
M  V30 10342 C 991.034 4.11835 1.98093 0
M  V30 10343 C 992.031 4.97693 1.50326 0
M  V30 10344 C 989.716 4.57753 2.06803 0
M  V30 10345 C 991.71 6.27516 1.11813 0
M  V30 10346 C 989.397 5.87582 1.67902 0
M  V30 10347 C 990.395 6.72289 1.20485 0
M  V30 10348 O 990.083 7.99694 0.821219 0
M  V30 10349 H 989.815 0.557418 0.382442 0
M  V30 10350 H 992.369 1.97382 0.568292 0
M  V30 10351 H 990.599 2.31079 3.10063 0
M  V30 10352 H 992.288 2.7203 3.01255 0
M  V30 10353 H 993.054 4.63434 1.43018 0
M  V30 10354 H 988.933 3.91966 2.42659 0
M  V30 10355 H 992.477 6.93586 0.747317 0
M  V30 10356 H 988.374 6.21362 1.74869 0
M  V30 10357 H 989.142 8.12968 0.950038 0
M  V30 10358 N 991.805 -0.723954 1.39988 0
M  V30 10359 C 993.221 -1.03095 1.21834 0
M  V30 10360 C 993.421 -2.01309 0.0876647 0
M  V30 10361 O 992.477 -2.46277 -0.55714 0
M  V30 10362 C 993.79 -1.58267 2.5568 0
M  V30 10363 C 995.338 -1.70293 2.6262 0
M  V30 10364 C 995.813 -2.28872 3.96713 0
M  V30 10365 N 997.304 -2.36269 3.98411 0
M  V30 10366 C 998.039 -2.82557 4.98948 0
M  V30 10367 N 997.535 -3.28661 6.0988 0
M  V30 10368 N 999.328 -2.81866 4.86321 0
M  V30 10369 H 991.479 -0.0727891 2.12275 0
M  V30 10370 H 993.742 -0.0949029 0.943238 0
M  V30 10371 H 993.448 -0.935642 3.39026 0
M  V30 10372 H 993.322 -2.56914 2.76179 0
M  V30 10373 H 995.709 -2.34115 1.7965 0
M  V30 10374 H 995.79 -0.70268 2.45959 0
M  V30 10375 H 995.434 -1.65675 4.80119 0
M  V30 10376 H 995.364 -3.29595 4.107 0
M  V30 10377 H 997.855 -2.03697 3.18302 0
M  V30 10378 H 998.168 -3.62524 6.82493 0
M  V30 10379 H 996.513 -3.26641 6.13458 0
M  V30 10380 H 999.704 -2.45179 3.98754 0
M  V30 10381 H 999.877 -3.17626 5.64817 0
M  V30 10382 N 993.283 -1.25346 -0.955304 0
M  V30 10383 C 994.246 -1.05754 -2.03344 0
M  V30 10384 C 995.246 -0.0105743 -1.60797 0
M  V30 10385 O 996.436 -0.252699 -1.72357 0
M  V30 10386 C 993.568 -0.605536 -3.35479 0
M  V30 10387 H 994.761 -2.01459 -2.22158 0
M  V30 10388 H 992.314 -1.07744 -1.1323 0
M  V30 10389 H 993.049 0.354154 -3.2236 0
M  V30 10390 H 992.834 -1.36134 -3.67709 0
M  V30 10391 H 994.324 -0.489867 -4.14717 0
M  V30 10392 N 994.761 1.15782 -1.06922 0
M  V30 10393 C 996.008 1.86465 -0.789752 0
M  V30 10394 C 996.336 1.82075 0.684022 0
M  V30 10395 O 995.591 1.23576 1.51748 0
M  V30 10396 C 995.89 3.35284 -1.2377 0
M  V30 10397 C 995.556 3.59871 -2.71668 0
M  V30 10398 C 994.218 3.6629 -3.12066 0
M  V30 10399 C 996.57 3.69929 -3.67154 0
M  V30 10400 C 993.898 3.80275 -4.46775 0
M  V30 10401 C 996.25 3.85436 -5.01619 0
M  V30 10402 C 994.914 3.901 -5.41644 0
M  V30 10403 H 994.184 0.682324 -0.288991 0
M  V30 10404 H 996.831 1.36861 -1.33945 0
M  V30 10405 H 995.136 3.87065 -0.607309 0
M  V30 10406 H 996.833 3.88371 -0.998431 0
M  V30 10407 H 993.423 3.55512 -2.39393 0
M  V30 10408 H 997.607 3.64274 -3.37073 0
M  V30 10409 H 992.863 3.8214 -4.77262 0
M  V30 10410 H 997.037 3.92161 -5.75485 0
M  V30 10411 H 994.664 4.00688 -6.46029 0
M  V30 10412 N 996.239 0.8527 1.3254 0
M  V30 10413 C 997.467 0.469044 2.01513 0
M  V30 10414 C 997.882 -0.933701 1.64096 0
M  V30 10415 O 997.239 -1.60898 0.861283 0
M  V30 10416 C 997.29 0.596228 3.56549 0
M  V30 10417 O 997.011 1.94371 3.92621 0
M  V30 10418 C 998.512 0.211324 4.42796 0
M  V30 10419 H 995.732 0.184589 0.645111 0
M  V30 10420 H 998.276 1.1491 1.69163 0
M  V30 10421 H 996.431 -0.0360712 3.87383 0
M  V30 10422 H 996.845 1.93909 4.87339 0
M  V30 10423 H 998.319 0.351324 5.50881 0
M  V30 10424 H 998.796 -0.848055 4.30935 0
M  V30 10425 H 999.402 0.818617 4.17347 0
M  V30 10426 N 997.718 -1.45297 0.610449 0
M  V30 10427 C 998.666 -2.32295 -0.119167 0
M  V30 10428 C 999.66 -1.46138 -0.856746 0
M  V30 10429 O 1000.87 -1.62605 -0.771988 0
M  V30 10430 H 997.241 -0.749815 -0.0572881 0
M  V30 10431 H 999.212 -2.91609 0.63297 0
M  V30 10432 C 997.961 -3.29802 -1.10119 0
M  V30 10433 H 997.284 -3.96095 -0.543063 0
M  V30 10434 H 998.724 -3.93398 -1.58158 0
M  V30 10435 C 997.183 -2.57185 -2.17617 0
M  V30 10436 O 997.713 -2.35535 -3.25401 0
M  V30 10437 N 995.919 -2.17272 -1.9298 0
M  V30 10438 H 995.466 -2.3508 -1.05334 0
M  V30 10439 H 995.424 -1.69009 -2.6511 0
M  V30 10440 N 999.196 -0.349774 -1.5367 0
M  V30 10441 C 1000.61 0.132815 -1.86227 0
M  V30 10442 C 1000.96 1.49479 -1.27084 0
M  V30 10443 O 1000.08 2.08292 -0.58679 0
M  V30 10444 C 1000.68 0.247775 -3.37893 0
M  V30 10445 C 999.237 0.674603 -3.70305 0
M  V30 10446 C 998.384 -0.187869 -2.76663 0
M  V30 10447 H 1001.33 -0.569148 -1.48143 0
M  V30 10448 H 1001.36 1.07418 -3.65023 0
M  V30 10449 H 1000.87 -0.743635 -3.80909 0
M  V30 10450 H 998.969 1.67481 -3.32837 0
M  V30 10451 H 999.082 0.460177 -4.76885 0
M  V30 10452 H 997.446 0.340779 -2.5241 0
M  V30 10453 H 998.229 -1.17653 -3.2251 0
M  V30 10454 N 1000.67 1.57404 -0.0785433 0
M  V30 10455 C 1001.95 1.85163 0.630389 0
M  V30 10456 C 1002.33 0.972295 1.87376 0
M  V30 10457 O 1001.68 0.0403375 2.28464 0
M  V30 10458 C 1001.89 3.35491 0.961604 0
M  V30 10459 C 1003.24 4.0316 1.33219 0
M  V30 10460 O 1004.26 3.40276 1.05313 0
M  V30 10461 O 1003.12 5.14086 1.85412 0
M  V30 10462 H 1000.21 0.765169 0.31376 0
M  V30 10463 H 1002.76 1.69343 -0.109986 0
M  V30 10464 H 1001.53 3.91221 0.0788113 0
M  V30 10465 H 1001.15 3.56598 1.75852 0
M  V30 10466 N 1002.15 -0.195058 1.56388 0
M  V30 10467 C 1003.43 -0.941335 1.71459 0
M  V30 10468 C 1003.81 -2.01375 0.633336 0
M  V30 10469 O 1003.16 -2.25715 -0.35567 0
M  V30 10470 C 1003.37 -1.52772 3.13786 0
M  V30 10471 C 1004.71 -2.00983 3.7402 0
M  V30 10472 O 1005.74 -1.62614 3.16915 0
M  V30 10473 O 1004.6 -2.71586 4.7424 0
M  V30 10474 H 1001.69 -0.441451 0.699321 0
M  V30 10475 H 1004.24 -0.184752 1.68691 0
M  V30 10476 H 1003.01 -0.754699 3.83953 0
M  V30 10477 H 1002.63 -2.34914 3.20782 0
M  V30 10478 N 1003.63 -1.50653 -0.462772 0
M  V30 10479 C 1004.59 -1.69561 -1.54213 0
M  V30 10480 C 1005.59 -0.566106 -1.50505 0
M  V30 10481 O 1006.78 -0.833273 -1.52978 0
M  V30 10482 C 1003.91 -1.72856 -2.93826 0
M  V30 10483 H 1005.11 -2.65867 -1.38761 0
M  V30 10484 H 1002.66 -1.40259 -0.689728 0
M  V30 10485 H 1003.4 -0.78273 -3.14712 0
M  V30 10486 H 1003.18 -2.54919 -2.97924 0
M  V30 10487 H 1004.67 -1.89411 -3.72174 0
M  V30 10488 N 1005.11 0.71652 -1.4037 0
M  V30 10489 C 1006.04 1.84345 -1.43315 0
M  V30 10490 C 1007.02 1.67537 -0.294186 0
M  V30 10491 O 1008.2 1.87582 -0.502671 0
M  V30 10492 C 1005.33 3.2229 -1.29408 0
M  V30 10493 C 1004.29 3.53769 -2.40897 0
M  V30 10494 C 1003.61 4.90847 -2.12068 0
M  V30 10495 C 1004.91 3.54862 -3.83237 0
M  V30 10496 H 1006.61 1.82138 -2.37626 0
M  V30 10497 H 1004.15 0.874873 -1.14376 0
M  V30 10498 H 1006.11 4.00819 -1.30085 0
M  V30 10499 H 1004.83 3.2507 -0.31573 0
M  V30 10500 H 1003.49 2.77579 -2.39469 0
M  V30 10501 H 1003.14 4.90229 -1.12626 0
M  V30 10502 H 1002.84 5.12875 -2.86762 0
M  V30 10503 H 1004.36 5.71711 -2.14426 0
M  V30 10504 H 1005.78 4.23432 -3.86494 0
M  V30 10505 H 1004.17 3.88416 -4.57442 0
M  V30 10506 H 1005.24 2.54266 -4.12888 0
M  V30 10507 N 1006.59 1.25851 0.948643 0
M  V30 10508 C 1007.52 1.02549 2.04979 0
M  V30 10509 C 1008.53 -0.0115923 1.62796 0
M  V30 10510 O 1009.72 0.227643 1.77042 0
M  V30 10511 C 1006.82 0.529486 3.34738 0
M  V30 10512 C 1005.99 1.6341 4.05729 0
M  V30 10513 C 1005.05 1.13743 5.1376 0
M  V30 10514 O 1004.08 1.83303 5.38877 0
M  V30 10515 N 1005.28 -0.0181151 5.80497 0
M  V30 10516 H 1008.05 1.97365 2.25537 0
M  V30 10517 H 1005.61 1.17137 1.11761 0
M  V30 10518 H 1007.6 0.181566 4.04293 0
M  V30 10519 H 1006.17 -0.324893 3.10907 0
M  V30 10520 H 1005.39 2.15331 3.30191 0
M  V30 10521 H 1006.68 2.37603 4.49914 0
M  V30 10522 H 1006.07 -0.599198 5.62518 0
M  V30 10523 H 1004.63 -0.307019 6.51077 0
M  V30 10524 N 1008.06 -1.15214 1.07534 0
M  V30 10525 C 1009 -2.19634 0.655261 0
M  V30 10526 C 1010.01 -1.60139 -0.293165 0
M  V30 10527 O 1011.2 -1.78311 -0.0821957 0
M  V30 10528 C 1008.3 -3.38851 -0.0578281 0
M  V30 10529 C 1007.47 -4.27888 0.90725 0
M  V30 10530 C 1006.53 -5.25692 0.231115 0
M  V30 10531 O 1005.56 -5.62469 0.872746 0
M  V30 10532 N 1006.76 -5.71424 -1.0225 0
M  V30 10533 H 1009.52 -2.56292 1.55353 0
M  V30 10534 H 1007.08 -1.30347 0.960271 0
M  V30 10535 H 1009.08 -4.01334 -0.520874 0
M  V30 10536 H 1007.65 -3.00593 -0.858071 0
M  V30 10537 H 1006.87 -3.62475 1.54937 0
M  V30 10538 H 1008.15 -4.84246 1.56151 0
M  V30 10539 H 1007.55 -5.43659 -1.56369 0
M  V30 10540 H 1006.11 -6.35938 -1.42919 0
M  V30 10541 N 1009.54 -0.859717 -1.32086 0
M  V30 10542 C 1010.48 -0.252764 -2.26796 0
M  V30 10543 C 1011.45 0.612178 -1.50636 0
M  V30 10544 O 1012.64 0.567865 -1.79743 0
M  V30 10545 C 1009.76 0.643017 -3.3254 0
M  V30 10546 C 1008.81 -0.149211 -4.26239 0
M  V30 10547 S 1009.64 -1.52097 -5.13446 0
M  V30 10548 C 1010.8 -0.631035 -6.22711 0
M  V30 10549 H 1011.03 -1.05563 -2.77928 0
M  V30 10550 H 1008.57 -0.657639 -1.39694 0
M  V30 10551 H 1010.52 1.15418 -3.9394 0
M  V30 10552 H 1009.18 1.41974 -2.80183 0
M  V30 10553 H 1008.38 0.53328 -5.01171 0
M  V30 10554 H 1007.98 -0.592128 -3.69283 0
M  V30 10555 H 1010.27 0.162638 -6.77305 0
M  V30 10556 H 1011.21 -1.35116 -6.95089 0
M  V30 10557 H 1011.62 -0.203131 -5.64134 0
M  V30 10558 N 1011.02 1.44971 -0.618145 0
M  V30 10559 C 1011.93 2.34403 0.0960457 0
M  V30 10560 C 1012.95 1.51862 0.849355 0
M  V30 10561 O 1014.12 1.84632 0.804557 0
M  V30 10562 C 1011.19 3.29646 1.07397 0
M  V30 10563 C 1010.25 4.28095 0.321466 0
M  V30 10564 C 1009.48 5.18787 1.25281 0
M  V30 10565 O 1009.7 5.1313 2.49106 0
M  V30 10566 O 1008.64 5.97282 0.744156 0
M  V30 10567 H 1012.46 2.96898 -0.639176 0
M  V30 10568 H 1010.05 1.44529 -0.37837 0
M  V30 10569 H 1011.93 3.88307 1.63694 0
M  V30 10570 H 1010.61 2.69702 1.79004 0
M  V30 10571 H 1009.51 3.73019 -0.284223 0
M  V30 10572 H 1010.85 4.90923 -0.354315 0
M  V30 10573 N 1012.5 0.357919 1.53482 0
M  V30 10574 C 1013.46 -0.479797 2.24122 0
M  V30 10575 C 1014.46 -1.01596 1.24639 0
M  V30 10576 O 1015.65 -0.902928 1.48973 0
M  V30 10577 C 1012.78 -1.66983 2.97203 0
M  V30 10578 H 1013.98 0.138219 2.99581 0
M  V30 10579 H 1011.53 0.109484 1.55916 0
M  V30 10580 H 1012.26 -2.32615 2.25966 0
M  V30 10581 H 1012.05 -1.29242 3.70188 0
M  V30 10582 H 1013.54 -2.26367 3.50924 0
M  V30 10583 N 1013.98 -1.5736 0.0868897 0
M  V30 10584 C 1015.2 -1.98809 -0.590757 0
M  V30 10585 C 1015.63 -0.965407 -1.61436 0
M  V30 10586 O 1014.98 0.067143 -1.81176 0
M  V30 10587 C 1015.03 -3.39249 -1.22238 0
M  V30 10588 O 1014.14 -3.39706 -2.33824 0
M  V30 10589 H 1013.48 -0.64669 -0.150626 0
M  V30 10590 H 1016.01 -2.03927 0.165873 0
M  V30 10591 H 1016.02 -3.76765 -1.56564 0
M  V30 10592 H 1014.69 -4.13208 -0.472434 0
M  V30 10593 H 1013.27 -3.13977 -2.01178 0
M  V30 10594 N 1015.45 0.186762 -1.56489 0
M  V30 10595 C 1016.7 0.904077 -1.80303 0
M  V30 10596 C 1017.02 1.84073 -0.661538 0
M  V30 10597 O 1018.22 2.59928 -0.784197 0
M  V30 10598 C 1016.68 1.65806 -3.19432 0
M  V30 10599 C 1016.29 0.765807 -4.41406 0
M  V30 10600 C 1018.03 2.36451 -3.52549 0
M  V30 10601 C 1015.94 1.51913 -5.71556 0
M  V30 10602 H 1014.87 0.34133 -0.672317 0
M  V30 10603 H 1017.52 0.157218 -1.82825 0
M  V30 10604 H 1015.9 2.44911 -3.11183 0
M  V30 10605 H 1017.07 0.0128225 -4.60798 0
M  V30 10606 H 1015.39 0.169772 -4.16054 0
M  V30 10607 H 1017.99 2.93378 -4.47027 0
M  V30 10608 H 1018.33 3.11044 -2.7669 0
M  V30 10609 H 1018.86 1.64305 -3.62283 0
M  V30 10610 H 1015.6 0.815829 -6.50403 0
M  V30 10611 H 1015.12 2.24583 -5.56168 0
M  V30 10612 H 1016.8 2.07073 -6.12968 0
M  V30 10613 N 1016.93 1.50896 0.454776 0
M  V30 10614 C 1018.21 1.53227 1.21576 0
M  V30 10615 C 1018.59 0.286358 2.09149 0
M  V30 10616 O 1017.94 -0.729469 2.16543 0
M  V30 10617 C 1018.15 2.83693 2.03271 0
M  V30 10618 C 1019.5 3.34981 2.60908 0
M  V30 10619 O 1020.52 2.85126 2.13499 0
M  V30 10620 O 1019.38 4.21929 3.4733 0
M  V30 10621 H 1016.47 0.615306 0.552564 0
M  V30 10622 H 1019.02 1.63197 0.465266 0
M  V30 10623 H 1017.79 3.65839 1.38843 0
M  V30 10624 H 1017.41 2.76803 2.85422 0
M  V30 10625 N 1018.41 -0.709066 1.40748 0
M  V30 10626 C 1019.69 -1.4626 1.29874 0
M  V30 10627 C 1020.07 -2.10949 -0.0799322 0
M  V30 10628 O 1019.42 -2.00651 -1.09323 0
M  V30 10629 C 1019.63 -2.49302 2.44232 0
M  V30 10630 C 1020.97 -3.14945 2.84771 0
M  V30 10631 O 1022 -2.59623 2.43873 0
M  V30 10632 O 1020.86 -4.15111 3.5545 0
M  V30 10633 H 1017.95 -0.650716 0.51039 0
M  V30 10634 H 1020.5 -0.740687 1.52682 0
M  V30 10635 H 1019.27 -2.00063 3.36289 0
M  V30 10636 H 1018.89 -3.29021 2.23229 0
M  V30 10637 N 1019.89 -1.26353 -0.941956 0
M  V30 10638 C 1021.12 -1.1446 -1.71996 0
M  V30 10639 C 1021.53 0.302957 -1.86759 0
M  V30 10640 O 1020.87 1.2193 -1.374 0
M  V30 10641 C 1020.93 -1.73986 -3.14593 0
M  V30 10642 C 1020.6 -3.23078 -3.23217 0
M  V30 10643 C 1021.59 -4.19905 -3.06554 0
M  V30 10644 C 1019.28 -3.63526 -3.46632 0
M  V30 10645 C 1021.27 -5.55159 -3.13172 0
M  V30 10646 C 1018.96 -4.98914 -3.52886 0
M  V30 10647 C 1019.96 -5.9454 -3.36172 0
M  V30 10648 O 1019.65 -7.27462 -3.42132 0
M  V30 10649 H 1019.38 -0.399453 -0.545356 0
M  V30 10650 H 1021.93 -1.67455 -1.18945 0
M  V30 10651 H 1020.16 -1.15453 -3.69063 0
M  V30 10652 H 1021.85 -1.57011 -3.74302 0
M  V30 10653 H 1022.62 -3.89995 -2.88321 0
M  V30 10654 H 1018.5 -2.8958 -3.58698 0
M  V30 10655 H 1022.04 -6.29777 -3.00044 0
M  V30 10656 H 1017.94 -5.28485 -3.70639 0
M  V30 10657 H 1018.7 -7.35725 -3.5868 0
M  V30 10658 N 1021.37 1.14642 -1.08144 0
M  V30 10659 C 1022.62 1.8525 -0.807885 0
M  V30 10660 C 1022.94 1.83194 0.668213 0
M  V30 10661 O 1022.21 1.27848 1.48431 0
M  V30 10662 H 1020.79 0.685909 -0.295868 0
M  V30 10663 H 1023.45 1.38935 -1.36686 0
M  V30 10664 H 1022.54 2.90155 -1.14964 0
M  V30 10665 N 1022.85 0.866709 1.31628 0
M  V30 10666 C 1023.78 0.335762 2.31073 0
M  V30 10667 C 1024.76 -0.571597 1.60209 0
M  V30 10668 O 1025.94 -0.489306 1.87935 0
M  V30 10669 C 1023.07 -0.466416 3.44154 0
M  V30 10670 C 1022.03 0.347561 4.26586 0
M  V30 10671 C 1021.35 -0.5801 5.31544 0
M  V30 10672 C 1022.65 1.57986 4.97833 0
M  V30 10673 H 1024.35 1.16673 2.75731 0
M  V30 10674 H 1021.89 0.56248 1.3256 0
M  V30 10675 H 1023.84 -0.84836 4.12772 0
M  V30 10676 H 1022.57 -1.33086 2.98254 0
M  V30 10677 H 1021.23 0.71141 3.59631 0
M  V30 10678 H 1020.88 -1.44174 4.81895 0
M  V30 10679 H 1020.58 -0.0393965 5.87587 0
M  V30 10680 H 1022.1 -0.958958 6.03023 0
M  V30 10681 H 1023.51 1.26954 5.59067 0
M  V30 10682 H 1021.91 2.05939 5.63657 0
M  V30 10683 H 1022.98 2.3345 4.25005 0
M  V30 10684 N 1024.32 -1.44642 0.625825 0
M  V30 10685 C 1025.57 -2.02094 0.128201 0
M  V30 10686 C 1025.9 -1.49181 -1.24801 0
M  V30 10687 O 1025.15 -0.663965 -1.84092 0
M  V30 10688 C 1025.45 -3.57352 0.0584381 0
M  V30 10689 C 1025.12 -4.29496 1.37272 0
M  V30 10690 C 1023.78 -4.48922 1.7327 0
M  V30 10691 C 1026.13 -4.70586 2.2405 0
M  V30 10692 C 1023.46 -5.06697 2.95762 0
M  V30 10693 C 1025.81 -5.29717 3.45807 0
M  V30 10694 C 1024.48 -5.47363 3.82034 0
M  V30 10695 H 1023.75 -0.739514 0.0469122 0
M  V30 10696 H 1026.39 -1.73475 0.811083 0
M  V30 10697 H 1024.7 -3.85354 -0.707791 0
M  V30 10698 H 1026.4 -3.9953 -0.34303 0
M  V30 10699 H 1022.99 -4.14702 1.08258 0
M  V30 10700 H 1027.17 -4.55295 1.97535 0
M  V30 10701 H 1022.43 -5.18546 3.23913 0
M  V30 10702 H 1026.6 -5.60507 4.13286 0
M  V30 10703 H 1024.23 -5.91898 4.77033 0
M  V30 10704 N 1025.8 -0.366053 -1.5329 0
M  V30 10705 C 1027.08 0.279902 -1.93587 0
M  V30 10706 C 1027.46 1.66352 -1.29963 0
M  V30 10707 O 1026.81 2.23845 -0.458895 0
M  V30 10708 C 1027.02 0.329634 -3.4744 0
M  V30 10709 C 1028.36 0.569754 -4.2076 0
M  V30 10710 O 1029.39 0.410823 -3.53823 0
M  V30 10711 O 1028.25 0.879262 -5.3938 0
M  V30 10712 H 1025.34 0.16802 -0.809752 0
M  V30 10713 H 1027.89 -0.418871 -1.64449 0
M  V30 10714 H 1026.66 -0.640434 -3.86023 0
M  V30 10715 H 1026.28 1.07428 -3.82812 0
M  V30 10716 N 1027.28 1.57312 -0.0952337 0
M  V30 10717 C 1028.69 1.81589 0.433875 0
M  V30 10718 C 1029.04 1.01086 1.68155 0
M  V30 10719 O 1028.17 0.240272 2.15062 0
M  V30 10720 C 1028.76 3.29366 0.793931 0
M  V30 10721 C 1027.32 3.54407 1.26778 0
M  V30 10722 C 1026.47 2.76035 0.264518 0
M  V30 10723 H 1029.42 1.55426 -0.320675 0
M  V30 10724 H 1029.44 3.42697 1.65345 0
M  V30 10725 H 1028.95 3.87932 -0.114334 0
M  V30 10726 H 1027.05 3.01173 2.19376 0
M  V30 10727 H 1027.17 4.63055 1.22952 0
M  V30 10728 H 1025.53 2.43509 0.746691 0
M  V30 10729 H 1026.31 3.37349 -0.636429 0
M  V30 10730 N 1028.76 -0.17846 1.56586 0
M  V30 10731 C 1030.01 -0.894464 1.81228 0
M  V30 10732 C 1030.33 -1.83089 0.671062 0
M  V30 10733 O 1029.6 -1.93439 -0.309557 0
M  V30 10734 H 1028.18 -0.333288 0.668527 0
M  V30 10735 H 1030.84 -0.179986 1.94067 0
M  V30 10736 H 1029.93 -1.47565 2.75011 0
M  V30 10737 N 1030.24 -1.51135 -0.446768 0
M  V30 10738 C 1031.18 -1.72328 -1.56224 0
M  V30 10739 C 1032.18 -0.589411 -1.58815 0
M  V30 10740 O 1033.38 -0.770554 -1.62673 0
M  V30 10741 H 1029.76 -0.544339 -0.518844 0
M  V30 10742 H 1031.73 -2.65851 -1.3552 0
M  V30 10743 C 1030.48 -1.85686 -2.93966 0
M  V30 10744 H 1029.8 -2.72336 -2.927 0
M  V30 10745 H 1031.24 -2.0453 -3.71407 0
M  V30 10746 C 1029.7 -0.614328 -3.31252 0
M  V30 10747 O 1030.23 0.235369 -4.0101 0
M  V30 10748 N 1028.44 -0.461181 -2.86917 0
M  V30 10749 H 1027.98 -1.15369 -2.30321 0
M  V30 10750 H 1027.94 0.368966 -3.12227 0
M  V30 10751 N 1031.71 0.701592 -1.41122 0
M  V30 10752 C 1032.62 1.84548 -1.44841 0
M  V30 10753 C 1033.64 1.70654 -0.339594 0
M  V30 10754 O 1034.82 1.92675 -0.586378 0
M  V30 10755 C 1031.88 3.20477 -1.3227 0
M  V30 10756 C 1030.94 3.46524 -2.53415 0
M  V30 10757 C 1030.17 4.75968 -2.41434 0
M  V30 10758 O 1030.4 5.52037 -1.43566 0
M  V30 10759 O 1029.33 5.02664 -3.31078 0
M  V30 10760 H 1033.16 1.84367 -2.41335 0
M  V30 10761 H 1030.74 0.853863 -1.22595 0
M  V30 10762 H 1032.62 4.01642 -1.2752 0
M  V30 10763 H 1031.3 3.21355 -0.388889 0
M  V30 10764 H 1030.21 2.65313 -2.63742 0
M  V30 10765 H 1031.54 3.50455 -3.45604 0
M  V30 10766 N 1033.19 1.2685 0.935242 0
M  V30 10767 C 1034.14 1.08923 2.03481 0
M  V30 10768 C 1035.11 -0.00749786 1.66098 0
M  V30 10769 O 1036.29 0.153401 1.90182 0
M  V30 10770 C 1033.43 0.734529 3.37192 0
M  V30 10771 C 1032.55 1.90812 3.87576 0
M  V30 10772 C 1031.68 1.49599 5.097 0
M  V30 10773 C 1030.72 2.63752 5.5236 0
M  V30 10774 N 1029.86 2.23179 6.65684 0
M  V30 10775 H 1034.7 2.03016 2.18148 0
M  V30 10776 H 1032.23 1.01072 1.06878 0
M  V30 10777 H 1034.19 0.509734 4.14074 0
M  V30 10778 H 1032.82 -0.169438 3.22355 0
M  V30 10779 H 1031.87 2.24567 3.0704 0
M  V30 10780 H 1033.19 2.7647 4.1517 0
M  V30 10781 H 1032.34 1.23199 5.9406 0
M  V30 10782 H 1031.08 0.61039 4.83865 0
M  V30 10783 H 1030.08 2.90874 4.66554 0
M  V30 10784 H 1031.31 3.5292 5.80193 0
M  V30 10785 H 1029.26 1.37061 6.41522 0
M  V30 10786 H 1029.17 3.02379 6.92895 0
M  V30 10787 H 1030.44 2.00007 7.53404 0
M  V30 10788 N 1034.67 -1.14067 1.0875 0
M  V30 10789 C 1035.92 -1.84535 0.814235 0
M  V30 10790 C 1036.23 -1.84044 -0.662355 0
M  V30 10791 O 1037.44 -2.50336 -1.05091 0
M  V30 10792 C 1035.89 -3.31273 1.40663 0
M  V30 10793 C 1035.5 -3.40171 2.91526 0
M  V30 10794 C 1037.25 -4.0683 1.21201 0
M  V30 10795 C 1035.15 -4.81141 3.43885 0
M  V30 10796 H 1034.08 -0.691346 0.300926 0
M  V30 10797 H 1036.73 -1.28562 1.30935 0
M  V30 10798 H 1035.12 -3.87005 0.839215 0
M  V30 10799 H 1036.29 -2.94471 3.54434 0
M  V30 10800 H 1034.61 -2.78073 3.09942 0
M  V30 10801 H 1037.2 -5.10891 1.57781 0
M  V30 10802 H 1037.55 -4.16022 0.152092 0
M  V30 10803 H 1038.08 -3.57408 1.74655 0
M  V30 10804 H 1034.82 -4.77138 4.49466 0
M  V30 10805 H 1034.34 -5.27365 2.85738 0
M  V30 10806 H 1036.02 -5.50042 3.40681 0
M  V30 10807 N 1036.15 -0.873678 -1.31166 0
M  V30 10808 C 1037.4 -0.482577 -1.95842 0
M  V30 10809 C 1037.71 0.970881 -1.69804 0
M  V30 10810 O 1038.92 1.4683 -2.28371 0
M  V30 10811 C 1037.37 -0.812074 -3.50619 0
M  V30 10812 C 1036.98 -2.28254 -3.85492 0
M  V30 10813 C 1038.72 -0.489624 -4.21667 0
M  V30 10814 C 1036.63 -2.55426 -5.33396 0
M  V30 10815 H 1035.56 -0.176736 -0.732994 0
M  V30 10816 H 1038.21 -1.06709 -1.49283 0
M  V30 10817 H 1036.59 -0.156769 -3.9569 0
M  V30 10818 H 1037.77 -2.98122 -3.51369 0
M  V30 10819 H 1036.08 -2.5714 -3.27518 0
M  V30 10820 H 1038.68 -0.669811 -5.30488 0
M  V30 10821 H 1039.02 0.570204 -4.12376 0
M  V30 10822 H 1039.56 -1.10163 -3.82242 0
M  V30 10823 H 1036.3 -3.60106 -5.47726 0
M  V30 10824 H 1035.82 -1.90156 -5.68859 0
M  V30 10825 H 1037.49 -2.40345 -6.00702 0
M  V30 10826 N 1037.63 1.44308 -0.633487 0
M  V30 10827 C 1038.54 2.34492 0.0711787 0
M  V30 10828 C 1039.55 1.52754 0.8332 0
M  V30 10829 O 1040.73 1.85475 0.784929 0
M  V30 10830 C 1037.79 3.30767 1.03895 0
M  V30 10831 C 1036.85 4.28412 0.276043 0
M  V30 10832 C 1036.09 5.20087 1.19772 0
M  V30 10833 O 1036.31 5.15743 2.4365 0
M  V30 10834 O 1035.24 5.98038 0.680764 0
M  V30 10835 H 1039.07 2.96203 -0.67063 0
M  V30 10836 H 1036.66 1.4412 -0.393678 0
M  V30 10837 H 1038.54 3.90021 1.59566 0
M  V30 10838 H 1037.21 2.71586 1.76133 0
M  V30 10839 H 1036.12 3.72696 -0.32377 0
M  V30 10840 H 1037.45 4.9052 -0.406364 0
M  V30 10841 N 1039.1 0.374177 1.53094 0
M  V30 10842 C 1040.52 0.0234783 1.59583 0
M  V30 10843 C 1040.72 -1.45984 1.38892 0
M  V30 10844 O 1039.78 -2.22251 1.19836 0
M  V30 10845 C 1041.09 0.487117 2.96728 0
M  V30 10846 C 1042.64 0.442073 3.09862 0
M  V30 10847 C 1043.11 0.881659 4.49434 0
M  V30 10848 N 1044.6 0.837062 4.55574 0
M  V30 10849 C 1045.34 1.14878 5.61774 0
M  V30 10850 N 1044.83 1.53022 6.75689 0
M  V30 10851 N 1046.63 1.07102 5.51802 0
M  V30 10852 H 1038.78 1.34003 1.64794 0
M  V30 10853 H 1041.04 0.548281 0.773364 0
M  V30 10854 H 1040.75 1.52252 3.17037 0
M  V30 10855 H 1040.62 -0.121772 3.77003 0
M  V30 10856 H 1043.01 -0.584216 2.89259 0
M  V30 10857 H 1043.09 1.08657 2.31576 0
M  V30 10858 H 1042.73 1.90611 4.70776 0
M  V30 10859 H 1042.66 0.214326 5.26164 0
M  V30 10860 H 1045.15 0.556173 3.73785 0
M  V30 10861 H 1045.47 1.75211 7.52676 0
M  V30 10862 H 1043.81 1.56895 6.77059 0
M  V30 10863 H 1047 0.772149 4.61688 0
M  V30 10864 H 1047.18 1.31728 6.3447 0
M  V30 10865 N 1040.58 -1.57259 0.103575 0
M  V30 10866 C 1041.83 -1.94272 -0.557024 0
M  V30 10867 C 1042.15 -0.986739 -1.68192 0
M  V30 10868 O 1041.42 -0.0402818 -1.95859 0
M  V30 10869 H 1040 -0.717237 -0.208757 0
M  V30 10870 H 1042.66 -1.94167 0.168898 0
M  V30 10871 H 1041.76 -2.96914 -0.961691 0
M  V30 10872 N 1042.06 0.170153 -1.56679 0
M  V30 10873 C 1043.29 0.90618 -1.86556 0
M  V30 10874 C 1043.71 1.74986 -0.690044 0
M  V30 10875 O 1043.07 1.77672 0.360862 0
M  V30 10876 C 1043.12 1.75777 -3.14857 0
M  V30 10877 O 1042.22 2.85952 -2.97162 0
M  V30 10878 H 1041.56 0.253781 -0.613589 0
M  V30 10879 H 1044.09 0.167943 -2.0391 0
M  V30 10880 H 1044.1 2.15747 -3.46291 0
M  V30 10881 H 1042.78 1.13807 -4.00026 0
M  V30 10882 H 1041.35 2.49557 -2.77084 0
M  V30 10883 N 1043.54 1.5137 0.438746 0
M  V30 10884 C 1044.77 1.67774 1.21077 0
M  V30 10885 C 1045.18 0.374489 1.85049 0
M  V30 10886 O 1044.54 -0.646867 1.70651 0
M  V30 10887 C 1044.59 2.79238 2.29584 0
M  V30 10888 O 1044.31 4.04513 1.68228 0
M  V30 10889 C 1045.81 3.06898 3.19888 0
M  V30 10890 H 1043.03 0.563054 0.364981 0
M  V30 10891 H 1045.58 1.97777 0.520035 0
M  V30 10892 H 1043.73 2.51837 2.94375 0
M  V30 10893 H 1044.14 4.66405 2.3993 0
M  V30 10894 H 1045.62 3.88476 3.92162 0
M  V30 10895 H 1046.1 2.19249 3.80561 0
M  V30 10896 H 1046.7 3.35952 2.60799 0
M  V30 10897 N 1045.02 -0.694098 1.41492 0
M  V30 10898 C 1045.96 -1.80801 1.43456 0
M  V30 10899 C 1046.93 -1.63571 0.288757 0
M  V30 10900 O 1048.12 -1.844 0.490017 0
M  V30 10901 C 1045.26 -3.18694 1.32394 0
M  V30 10902 C 1044.37 -3.47346 2.56855 0
M  V30 10903 C 1043.51 -4.74862 2.38075 0
M  V30 10904 C 1042.55 -4.96486 3.58005 0
M  V30 10905 N 1041.68 -6.15229 3.38287 0
M  V30 10906 H 1046.52 -1.78457 2.38657 0
M  V30 10907 H 1044.06 -0.871455 1.18508 0
M  V30 10908 H 1046.02 -3.98352 1.23982 0
M  V30 10909 H 1044.65 -3.20211 0.407999 0
M  V30 10910 H 1043.7 -2.62083 2.75711 0
M  V30 10911 H 1045.01 -3.59226 3.4606 0
M  V30 10912 H 1044.17 -5.62577 2.27139 0
M  V30 10913 H 1042.9 -4.6523 1.46329 0
M  V30 10914 H 1041.91 -4.07219 3.69395 0
M  V30 10915 H 1043.13 -5.07976 4.50708 0
M  V30 10916 H 1041.08 -6.06807 2.49242 0
M  V30 10917 H 1041 -6.27883 4.21069 0
M  V30 10918 H 1042.27 -7.05674 3.31126 0
M  V30 10919 N 1046.49 -1.27344 -0.928501 0
M  V30 10920 C 1047.46 -1.10043 -2.01055 0
M  V30 10921 C 1048.46 -0.0446793 -1.60738 0
M  V30 10922 O 1049.65 -0.289202 -1.71783 0
M  V30 10923 C 1046.78 -0.676559 -3.34119 0
M  V30 10924 H 1047.97 -2.06126 -2.17835 0
M  V30 10925 H 1045.53 -1.10121 -1.10919 0
M  V30 10926 H 1046.26 0.285697 -3.23039 0
M  V30 10927 H 1046.05 -1.43903 -3.64739 0
M  V30 10928 H 1047.54 -0.577725 -4.13584 0
M  V30 10929 N 1047.97 1.13488 -1.09353 0
M  V30 10930 C 1048.9 2.18563 -0.69012 0
M  V30 10931 C 1049.92 1.60585 0.267651 0
M  V30 10932 O 1051.11 1.78419 0.0538176 0
M  V30 10933 C 1048.21 3.389 0.00391255 0
M  V30 10934 C 1047.38 4.2639 -0.975209 0
M  V30 10935 C 1046.44 5.25258 -0.314719 0
M  V30 10936 O 1045.46 5.6101 -0.962119 0
M  V30 10937 N 1046.67 5.72978 0.931458 0
M  V30 10938 H 1049.43 2.53788 -1.59411 0
M  V30 10939 H 1046.99 1.28803 -0.980886 0
M  V30 10940 H 1048.98 4.02112 0.45696 0
M  V30 10941 H 1047.55 3.0192 0.81014 0
M  V30 10942 H 1046.77 3.59964 -1.60684 0
M  V30 10943 H 1048.06 4.817 -1.63836 0
M  V30 10944 H 1047.46 5.46078 1.477 0
M  V30 10945 H 1046.02 6.38131 1.32784 0
M  V30 10946 N 1049.45 0.880621 1.30701 0
M  V30 10947 C 1050.68 0.511682 2.00473 0
M  V30 10948 C 1051.09 -0.898684 1.6604 0
M  V30 10949 O 1050.45 -1.59035 0.895218 0
M  V30 10950 C 1050.5 0.671723 3.55204 0
M  V30 10951 O 1050.22 2.02656 3.8841 0
M  V30 10952 C 1051.72 0.3052 4.42248 0
M  V30 10953 H 1048.94 0.198231 0.64105 0
M  V30 10954 H 1051.49 1.18472 1.66687 0
M  V30 10955 H 1049.64 0.0461066 3.87373 0
M  V30 10956 H 1050.06 2.04202 4.83117 0
M  V30 10957 H 1051.53 0.468095 5.50012 0
M  V30 10958 H 1052.01 -0.756456 4.32637 0
M  V30 10959 H 1052.61 0.906959 4.15517 0
M  V30 10960 N 1050.93 -1.4397 0.641131 0
M  V30 10961 C 1052.16 -2.06004 0.156779 0
M  V30 10962 C 1052.57 -1.48059 -1.17793 0
M  V30 10963 O 1051.91 -0.601788 -1.73563 0
M  V30 10964 C 1051.97 -3.59493 -0.0217203 0
M  V30 10965 C 1051.64 -4.39957 1.23639 0
M  V30 10966 C 1052.63 -4.72797 2.16239 0
M  V30 10967 C 1050.32 -4.80168 1.4746 0
M  V30 10968 C 1052.31 -5.44741 3.30962 0
M  V30 10969 C 1050 -5.51859 2.62478 0
M  V30 10970 C 1051 -5.84067 3.54055 0
M  V30 10971 O 1050.69 -6.54296 4.67067 0
M  V30 10972 H 1050.42 -0.671061 0.0815685 0
M  V30 10973 H 1052.97 -1.85664 0.878517 0
M  V30 10974 H 1051.2 -3.78362 -0.798707 0
M  V30 10975 H 1052.89 -4.03263 -0.461893 0
M  V30 10976 H 1053.66 -4.42261 1.99073 0
M  V30 10977 H 1049.54 -4.54513 0.770652 0
M  V30 10978 H 1053.08 -5.69798 4.02462 0
M  V30 10979 H 1048.98 -5.81811 2.79583 0
M  V30 10980 H 1049.74 -6.72772 4.66177 0
M  V30 10981 N 1052.41 -0.382291 -1.52893 0
M  V30 10982 C 1053.36 0.473026 -2.23039 0
M  V30 10983 C 1054.34 1.0353 -1.23168 0
M  V30 10984 O 1055.53 0.962566 -1.48538 0
M  V30 10985 C 1052.66 1.60349 -3.03551 0
M  V30 10986 C 1051.75 1.05329 -4.10812 0
M  V30 10987 N 1052.14 0.22746 -5.05288 0
M  V30 10988 C 1050.44 1.32648 -4.25818 0
M  V30 10989 C 1051.14 -0.0757032 -5.81651 0
M  V30 10990 N 1050.11 0.526387 -5.41045 0
M  V30 10991 H 1053.92 -0.164541 -2.93439 0
M  V30 10992 H 1051.43 -0.191211 -1.6127 0
M  V30 10993 H 1053.43 2.22858 -3.52335 0
M  V30 10994 H 1052.09 2.24394 -2.34685 0
M  V30 10995 H 1053.1 -0.134714 -5.17725 0
M  V30 10996 H 1049.78 1.96849 -3.6818 0
M  V30 10997 H 1051.17 -0.744375 -6.67764 0
M  V30 10998 N 1053.89 1.57202 -0.111913 0
M  V30 10999 C 1055.13 1.96035 0.542393 0
M  V30 11000 C 1055.49 0.993925 1.64739 0
M  V30 11001 O 1054.78 0.0227369 1.91587 0
M  V30 11002 C 1054.97 3.39152 1.12741 0
M  V30 11003 C 1054.8 4.49628 0.0806232 0
M  V30 11004 C 1053.57 5.04095 -0.348737 0
M  V30 11005 C 1055.77 5.09546 -0.697655 0
M  V30 11006 N 1053.75 5.98141 -1.38204 0
M  V30 11007 C 1055.12 5.99468 -1.58234 0
M  V30 11008 C 1057.18 4.92229 -0.749324 0
M  V30 11009 C 1055.88 6.7393 -2.51418 0
M  V30 11010 C 1057.91 5.67366 -1.66884 0
M  V30 11011 C 1057.27 6.56968 -2.54112 0
M  V30 11012 H 1053.37 0.763672 0.168311 0
M  V30 11013 H 1055.95 1.93687 -0.198387 0
M  V30 11014 H 1054.12 3.42161 1.83794 0
M  V30 11015 H 1055.86 3.65125 1.74546 0
M  V30 11016 H 1052.61 4.73581 0.042288 0
M  V30 11017 H 1053.03 6.49868 -1.8974 0
M  V30 11018 H 1057.68 4.22706 -0.0890808 0
M  V30 11019 H 1055.39 7.42704 -3.18459 0
M  V30 11020 H 1058.98 5.55974 -1.71417 0
M  V30 11021 H 1057.86 7.1409 -3.24107 0
M  V30 11022 N 1055.36 -0.161842 1.56767 0
M  V30 11023 C 1056.61 -0.875278 1.81719 0
M  V30 11024 C 1056.93 -1.82998 0.690739 0
M  V30 11025 O 1058.13 -2.58648 0.82545 0
M  V30 11026 C 1056.59 -1.60703 3.22029 0
M  V30 11027 C 1056.2 -0.695486 4.42569 0
M  V30 11028 C 1057.94 -2.30813 3.56266 0
M  V30 11029 C 1055.85 -1.42801 5.73901 0
M  V30 11030 H 1054.78 -0.330591 0.677662 0
M  V30 11031 H 1057.43 -0.128112 1.83052 0
M  V30 11032 H 1055.81 -2.39929 3.1504 0
M  V30 11033 H 1056.98 0.0604882 4.6076 0
M  V30 11034 H 1055.3 -0.10356 4.16271 0
M  V30 11035 H 1057.9 -2.86229 4.51638 0
M  V30 11036 H 1058.24 -3.06603 2.81604 0
M  V30 11037 H 1058.77 -1.5852 3.64851 0
M  V30 11038 H 1055.51 -0.712253 6.51619 0
M  V30 11039 H 1055.03 -2.15707 5.5967 0
M  V30 11040 H 1056.71 -1.97295 6.16185 0
M  V30 11041 N 1056.84 -1.516 -0.430713 0
M  V30 11042 C 1057.79 -1.69776 -1.52185 0
M  V30 11043 C 1058.78 -0.551692 -1.51146 0
M  V30 11044 O 1059.97 -0.807883 -1.57487 0
M  V30 11045 C 1057.1 -1.83222 -2.90318 0
M  V30 11046 C 1056.18 -3.03633 -2.96087 0
M  V30 11047 N 1056.57 -4.267 -2.71589 0
M  V30 11048 C 1054.87 -3.03024 -3.2725 0
M  V30 11049 C 1055.57 -5.08011 -2.83372 0
M  V30 11050 N 1054.55 -4.42798 -3.15327 0
M  V30 11051 H 1058.35 -2.62586 -1.32006 0
M  V30 11052 H 1055.86 -1.49338 -0.63812 0
M  V30 11053 H 1057.86 -1.94355 -3.68825 0
M  V30 11054 H 1056.52 -0.915971 -3.11513 0
M  V30 11055 H 1057.53 -4.55535 -2.46391 0
M  V30 11056 H 1054.21 -2.21055 -3.54176 0
M  V30 11057 H 1055.6 -6.15995 -2.68329 0
M  V30 11058 N 1058.32 0.686584 -1.41858 0
M  V30 11059 C 1059.27 1.82167 -1.4463 0
M  V30 11060 C 1060.26 1.66286 -0.323313 0
M  V30 11061 O 1061.47 1.73038 -0.495773 0
M  V30 11062 H 1057.84 0.600454 -0.452724 0
M  V30 11063 H 1059.81 1.76947 -2.40276 0
M  V30 11064 C 1058.56 3.20248 -1.35412 0
M  V30 11065 H 1057.89 3.33089 -2.21115 0
M  V30 11066 H 1059.33 3.99723 -1.41413 0
M  V30 11067 C 1057.78 3.36832 -0.0674972 0
M  V30 11068 O 1058.31 3.91845 0.884325 0
M  V30 11069 N 1056.52 2.90598 0.011519 0
M  V30 11070 H 1056.07 2.46016 -0.76381 0
M  V30 11071 H 1056.03 3.02072 0.871774 0
M  V30 11072 N 1059.8 1.27835 0.921735 0
M  V30 11073 C 1060.73 1.136 2.04003 0
M  V30 11074 C 1061.71 0.0358756 1.70062 0
M  V30 11075 O 1062.89 0.211438 1.93046 0
M  V30 11076 C 1060.02 0.788697 3.38226 0
M  V30 11077 C 1058.98 1.84272 3.863 0
M  V30 11078 C 1058.3 1.34923 5.17397 0
M  V30 11079 C 1059.6 3.24788 4.09035 0
M  V30 11080 H 1061.3 2.07149 2.1617 0
M  V30 11081 H 1058.84 0.997349 1.0387 0
M  V30 11082 H 1060.8 0.675911 4.15944 0
M  V30 11083 H 1059.52 -0.182499 3.2609 0
M  V30 11084 H 1058.18 1.94451 3.1078 0
M  V30 11085 H 1057.83 0.367328 5.01657 0
M  V30 11086 H 1057.53 2.05397 5.50532 0
M  V30 11087 H 1059.05 1.24951 5.97678 0
M  V30 11088 H 1060.47 3.17575 4.77304 0
M  V30 11089 H 1058.86 3.93025 4.53488 0
M  V30 11090 H 1059.93 3.69398 3.14122 0
M  V30 11091 N 1061.28 -1.12907 1.09954 0
M  V30 11092 C 1062.24 -2.16673 0.747364 0
M  V30 11093 C 1063.24 -1.59208 -0.225741 0
M  V30 11094 O 1064.43 -1.742 -0.00322482 0
M  V30 11095 C 1061.56 -3.40735 0.106169 0
M  V30 11096 H 1062.75 -2.49341 1.6664 0
M  V30 11097 H 1060.31 -1.27828 0.899421 0
M  V30 11098 H 1061.04 -3.13661 -0.82384 0
M  V30 11099 H 1060.83 -3.83717 0.806434 0
M  V30 11100 H 1062.32 -4.17414 -0.12464 0
M  V30 11101 N 1062.75 -0.88754 -1.30232 0
M  V30 11102 C 1063.66 -0.360333 -2.31816 0
M  V30 11103 C 1064.68 0.538741 -1.6545 0
M  V30 11104 O 1065.86 0.431246 -1.96729 0
M  V30 11105 C 1062.92 0.414336 -3.44215 0
M  V30 11106 C 1061.98 -0.514799 -4.26202 0
M  V30 11107 C 1061.21 0.222994 -5.33234 0
M  V30 11108 O 1061.44 1.44871 -5.51696 0
M  V30 11109 O 1060.37 -0.428221 -6.00375 0
M  V30 11110 H 1064.2 -1.20279 -2.78867 0
M  V30 11111 H 1061.78 -0.651459 -1.34448 0
M  V30 11112 H 1063.66 0.852859 -4.12679 0
M  V30 11113 H 1062.34 1.23305 -2.99295 0
M  V30 11114 H 1061.25 -1.00219 -3.60426 0
M  V30 11115 H 1062.58 -1.29959 -4.74733 0
M  V30 11116 N 1064.23 1.43628 -0.648757 0
M  V30 11117 C 1065.16 2.33478 0.0320785 0
M  V30 11118 C 1066.14 1.49217 0.816605 0
M  V30 11119 O 1067.33 1.77892 0.778974 0
M  V30 11120 C 1064.46 3.32525 1.00222 0
M  V30 11121 C 1063.41 4.2674 0.328119 0
M  V30 11122 C 1062.74 5.15791 1.4094 0
M  V30 11123 C 1064.04 5.16493 -0.776701 0
M  V30 11124 H 1065.73 2.90657 -0.718257 0
M  V30 11125 H 1063.28 1.3976 -0.346852 0
M  V30 11126 H 1065.23 3.94277 1.4874 0
M  V30 11127 H 1063.96 2.73593 1.78366 0
M  V30 11128 H 1062.61 3.66346 -0.136569 0
M  V30 11129 H 1062.26 4.53201 2.18216 0
M  V30 11130 H 1061.96 5.79645 0.963631 0
M  V30 11131 H 1063.49 5.80416 1.89603 0
M  V30 11132 H 1064.9 5.7208 -0.373878 0
M  V30 11133 H 1063.3 5.89043 -1.14667 0
M  V30 11134 H 1064.37 4.56448 -1.63654 0
M  V30 11135 N 1065.71 0.390394 1.52688 0
M  V30 11136 C 1066.96 -0.191067 2.01195 0
M  V30 11137 C 1067.28 -1.47229 1.27862 0
M  V30 11138 O 1066.55 -1.91793 0.399007 0
M  V30 11139 H 1065.13 -0.073596 0.743366 0
M  V30 11140 H 1067.79 0.522334 1.8777 0
M  V30 11141 H 1066.89 -0.40051 3.0952 0
M  V30 11142 N 1067.19 -1.57141 0.120249 0
M  V30 11143 C 1068.6 -1.5784 -0.236335 0
M  V30 11144 C 1068.8 -1.13304 -1.66626 0
M  V30 11145 O 1067.86 -0.821004 -2.3878 0
M  V30 11146 C 1069.17 -3.007 -0.00188211 0
M  V30 11147 C 1070.72 -3.12927 -0.0676838 0
M  V30 11148 C 1071.2 -4.57789 0.139092 0
M  V30 11149 N 1072.69 -4.63122 0.085104 0
M  V30 11150 C 1073.42 -5.72978 0.219983 0
M  V30 11151 N 1072.92 -6.91579 0.411102 0
M  V30 11152 N 1074.71 -5.61874 0.159469 0
M  V30 11153 H 1066.86 -1.84391 1.05422 0
M  V30 11154 H 1069.13 -0.852228 0.415225 0
M  V30 11155 H 1068.83 -3.37575 0.986718 0
M  V30 11156 H 1068.71 -3.70005 -0.733203 0
M  V30 11157 H 1071.09 -2.75909 -1.04681 0
M  V30 11158 H 1071.17 -2.46162 0.695538 0
M  V30 11159 H 1070.82 -4.95506 1.1152 0
M  V30 11160 H 1070.75 -5.22646 -0.644131 0
M  V30 11161 H 1073.24 -3.77854 -0.0590479 0
M  V30 11162 H 1073.55 -7.71149 0.504851 0
M  V30 11163 H 1071.9 -6.9356 0.447091 0
M  V30 11164 H 1075.09 -4.68099 0.0111131 0
M  V30 11165 H 1075.26 -6.47445 0.268028 0
M  V30 11166 N 1068.67 0.153526 -1.5685 0
M  V30 11167 C 1069.91 0.868517 -1.83261 0
M  V30 11168 C 1070.25 1.81112 -0.700857 0
M  V30 11169 O 1069.52 1.92235 0.295989 0
M  V30 11170 C 1069.8 1.6487 -3.2014 0
M  V30 11171 C 1069.66 0.728021 -4.43869 0
M  V30 11172 C 1070.98 2.61259 -3.54163 0
M  V30 11173 H 1068.09 0.314297 -0.666623 0
M  V30 11174 H 1070.74 0.133971 -1.89527 0
M  V30 11175 H 1068.89 2.2749 -3.1493 0
M  V30 11176 H 1070.56 0.113328 -4.61161 0
M  V30 11177 H 1068.8 0.0371744 -4.33784 0
M  V30 11178 H 1069.47 1.30981 -5.36235 0
M  V30 11179 H 1071.95 2.0876 -3.59942 0
M  V30 11180 H 1070.82 3.12902 -4.50981 0
M  V30 11181 H 1071.09 3.42307 -2.79782 0
M  V30 11182 N 1070.14 1.51827 0.422667 0
M  V30 11183 C 1071.42 1.55772 1.18299 0
M  V30 11184 C 1071.8 0.330657 2.08494 0
M  V30 11185 O 1071.15 -0.683373 2.18042 0
M  V30 11186 C 1071.36 2.87941 1.97208 0
M  V30 11187 C 1072.71 3.4044 2.53744 0
M  V30 11188 O 1073.73 2.8959 2.07403 0
M  V30 11189 O 1072.59 4.29201 3.38303 0
M  V30 11190 H 1069.68 0.626889 0.539388 0
M  V30 11191 H 1072.23 1.64147 0.430545 0
M  V30 11192 H 1071 3.68702 1.31052 0
M  V30 11193 H 1070.63 2.82795 2.79486 0
M  V30 11194 N 1071.62 -0.679052 1.4222 0
M  V30 11195 C 1073.03 -1.25953 1.37815 0
M  V30 11196 C 1073.38 -1.96077 0.0693215 0
M  V30 11197 O 1072.51 -1.99765 -0.832047 0
M  V30 11198 C 1073.1 -2.29063 2.49631 0
M  V30 11199 C 1071.66 -2.82647 2.48571 0
M  V30 11200 C 1070.81 -1.56909 2.28637 0
M  V30 11201 H 1073.76 -0.472714 1.51496 0
M  V30 11202 H 1073.78 -3.10708 2.19638 0
M  V30 11203 H 1073.29 -1.77996 3.44876 0
M  V30 11204 H 1071.4 -3.37846 1.57132 0
M  V30 11205 H 1071.51 -3.31952 3.45463 0
M  V30 11206 H 1069.87 -1.83323 1.76819 0
M  V30 11207 H 1070.66 -1.07814 3.25931 0
M  V30 11208 N 1073.1 -1.28322 -0.914942 0
M  V30 11209 C 1074.33 -1.18254 -1.69775 0
M  V30 11210 C 1074.74 0.258978 -1.87015 0
M  V30 11211 O 1074.1 1.17514 -1.3963 0
M  V30 11212 C 1074.15 -1.8753 -3.09054 0
M  V30 11213 O 1073.87 -3.26051 -2.92613 0
M  V30 11214 C 1075.37 -1.83749 -4.03424 0
M  V30 11215 H 1072.59 -0.41055 -0.530744 0
M  V30 11216 H 1075.14 -1.69425 -1.14523 0
M  V30 11217 H 1073.29 -1.40233 -3.61128 0
M  V30 11218 H 1073.71 -3.60729 -3.80756 0
M  V30 11219 H 1075.18 -2.36813 -4.98622 0
M  V30 11220 H 1075.66 -0.809601 -4.31674 0
M  V30 11221 H 1076.26 -2.3072 -3.57279 0
M  V30 11222 N 1074.58 1.12322 -1.10551 0
M  V30 11223 C 1075.82 1.8413 -0.849932 0
M  V30 11224 C 1076.16 1.83938 0.622946 0
M  V30 11225 O 1075.43 1.28579 1.45937 0
M  V30 11226 C 1075.72 3.31751 -1.40048 0
M  V30 11227 C 1075.57 3.40391 -2.9403 0
M  V30 11228 C 1076.89 4.27543 -1.04379 0
M  V30 11229 H 1074.01 0.668533 -0.310213 0
M  V30 11230 H 1076.65 1.31766 -1.36886 0
M  V30 11231 H 1074.8 3.76475 -0.959102 0
M  V30 11232 H 1076.47 3.04294 -3.46703 0
M  V30 11233 H 1074.71 2.809 -3.30571 0
M  V30 11234 H 1075.38 4.44252 -3.27635 0
M  V30 11235 H 1077.86 3.90951 -1.42466 0
M  V30 11236 H 1076.74 5.2924 -1.4559 0
M  V30 11237 H 1077 4.42075 0.0466316 0
M  V30 11238 N 1076.06 0.894434 1.2976 0
M  V30 11239 C 1077.28 0.532916 1.99919 0
M  V30 11240 C 1077.7 -0.881022 1.66983 0
M  V30 11241 O 1077.06 -1.58076 0.912035 0
M  V30 11242 C 1077.11 0.70936 3.54472 0
M  V30 11243 O 1076.83 2.06764 3.86239 0
M  V30 11244 C 1078.33 0.352089 4.419 0
M  V30 11245 H 1075.55 0.205019 0.638912 0
M  V30 11246 H 1078.09 1.20233 1.65421 0
M  V30 11247 H 1076.25 0.0871901 3.87302 0
M  V30 11248 H 1076.66 2.09315 4.80924 0
M  V30 11249 H 1078.14 0.526405 5.49484 0
M  V30 11250 H 1078.61 -0.710527 4.33415 0
M  V30 11251 H 1079.22 0.950979 4.14532 0
M  V30 11252 N 1077.53 -1.43282 0.656365 0
M  V30 11253 C 1078.5 -2.29188 -0.0239173 0
M  V30 11254 C 1079.5 -1.42373 -0.747436 0
M  V30 11255 O 1080.69 -1.63969 -0.588213 0
M  V30 11256 C 1077.82 -3.24501 -1.0446 0
M  V30 11257 H 1079.01 -2.9083 0.731978 0
M  V30 11258 H 1076.57 -1.50614 0.417752 0
M  V30 11259 H 1077.3 -2.6776 -1.82962 0
M  V30 11260 H 1077.09 -3.88509 -0.52942 0
M  V30 11261 H 1078.58 -3.88971 -1.51958 0
M  V30 11262 N 1079.01 -0.398486 -1.52479 0
M  V30 11263 C 1079.96 0.447001 -2.28264 0
M  V30 11264 C 1080.96 1.05511 -1.32529 0
M  V30 11265 O 1082.16 0.994528 -1.5003 0
M  V30 11266 H 1078.54 0.162919 -0.73414 0
M  V30 11267 H 1080.51 -0.213534 -2.97635 0
M  V30 11268 C 1079.26 1.55724 -3.10879 0
M  V30 11269 H 1078.58 1.09864 -3.84409 0
M  V30 11270 H 1080.02 2.12286 -3.67029 0
M  V30 11271 C 1078.48 2.51853 -2.23768 0
M  V30 11272 O 1079.01 3.55483 -1.87069 0
M  V30 11273 N 1077.21 2.2181 -1.87746 0
M  V30 11274 H 1076.76 1.3757 -2.17789 0
M  V30 11275 H 1076.72 2.86376 -1.29753 0
M  V30 11276 N 1080.49 1.57075 -0.12858 0
M  V30 11277 C 1081.44 2.12379 0.829418 0
M  V30 11278 C 1082.43 1.04694 1.2218 0
M  V30 11279 O 1083.62 1.30909 1.1913 0
M  V30 11280 C 1080.75 2.73436 2.07575 0
M  V30 11281 C 1079.83 3.88217 1.7073 0
M  V30 11282 N 1080.22 4.94864 1.04609 0
M  V30 11283 C 1078.52 3.9858 2.00125 0
M  V30 11284 C 1079.22 5.7514 0.871137 0
M  V30 11285 N 1078.2 5.25284 1.39918 0
M  V30 11286 H 1082 2.92209 0.314816 0
M  V30 11287 H 1079.51 1.62233 0.0735788 0
M  V30 11288 H 1081.51 3.11406 2.77185 0
M  V30 11289 H 1080.17 1.95073 2.5957 0
M  V30 11290 H 1081.18 5.13025 0.708961 0
M  V30 11291 H 1077.86 3.3127 2.541 0
M  V30 11292 H 1079.25 6.7098 0.351395 0
M  V30 11293 N 1081.97 -0.145205 1.5693 0
M  V30 11294 C 1083.38 -0.705089 1.72874 0
M  V30 11295 C 1083.73 -1.81577 0.743261 0
M  V30 11296 O 1082.86 -2.16214 -0.0897153 0
M  V30 11297 C 1083.45 -1.28578 3.13454 0
M  V30 11298 C 1082.01 -1.79221 3.30994 0
M  V30 11299 C 1081.16 -0.681392 2.68798 0
M  V30 11300 H 1084.11 0.0804798 1.58496 0
M  V30 11301 H 1084.13 -2.15558 3.13552 0
M  V30 11302 H 1083.64 -0.477186 3.85155 0
M  V30 11303 H 1081.74 -2.62642 2.64292 0
M  V30 11304 H 1081.86 -1.91969 4.38959 0
M  V30 11305 H 1080.22 -1.10847 2.29314 0
M  V30 11306 H 1081 0.115786 3.43105 0
M  V30 11307 N 1083.45 -1.52049 -0.414609 0
M  V30 11308 C 1084.7 -1.65067 -1.15912 0
M  V30 11309 C 1085.01 -0.383969 -1.91794 0
M  V30 11310 O 1086.22 -0.393872 -2.68628 0
M  V30 11311 C 1084.67 -2.91611 -2.1093 0
M  V30 11312 C 1084.28 -4.25369 -1.4059 0
M  V30 11313 C 1086.02 -3.13992 -2.85674 0
M  V30 11314 C 1083.93 -5.43041 -2.34223 0
M  V30 11315 H 1082.86 -0.614884 -0.436387 0
M  V30 11316 H 1085.51 -1.78533 -0.424072 0
M  V30 11317 H 1083.89 -2.71831 -2.87965 0
M  V30 11318 H 1085.07 -4.55611 -0.689568 0
M  V30 11319 H 1083.38 -4.09047 -0.779088 0
M  V30 11320 H 1085.98 -3.99082 -3.55861 0
M  V30 11321 H 1086.32 -2.27998 -3.48314 0
M  V30 11322 H 1086.86 -3.34217 -2.1574 0
M  V30 11323 H 1083.59 -6.31364 -1.76238 0
M  V30 11324 H 1083.11 -5.17144 -3.03845 0
M  V30 11325 H 1084.79 -5.75901 -2.94868 0
M  V30 11326 N 1084.93 0.6715 -1.42579 0
M  V30 11327 C 1086.16 1.4576 -1.46416 0
M  V30 11328 C 1086.56 1.89051 -0.0749843 0
M  V30 11329 O 1085.91 1.58927 0.921296 0
M  V30 11330 C 1085.97 2.7365 -2.33144 0
M  V30 11331 C 1085.63 2.52414 -3.80968 0
M  V30 11332 C 1086.63 2.16804 -4.72538 0
M  V30 11333 C 1084.31 2.67306 -4.25268 0
M  V30 11334 C 1086.31 1.96358 -6.06401 0
M  V30 11335 C 1084 2.46475 -5.5919 0
M  V30 11336 C 1084.99 2.11055 -6.49573 0
M  V30 11337 O 1084.68 1.90428 -7.8102 0
M  V30 11338 H 1084.41 0.454896 -0.500045 0
M  V30 11339 H 1086.97 0.832198 -1.87786 0
M  V30 11340 H 1085.2 3.38684 -1.86629 0
M  V30 11341 H 1086.89 3.35543 -2.28398 0
M  V30 11342 H 1087.65 2.04891 -4.39596 0
M  V30 11343 H 1083.53 2.93854 -3.55206 0
M  V30 11344 H 1087.08 1.68634 -6.76911 0
M  V30 11345 H 1082.97 2.57985 -5.91704 0
M  V30 11346 H 1083.74 2.05 -7.92412 0
M  V30 11347 N 1086.4 1.28806 0.908124 0
M  V30 11348 C 1087.37 1.13228 1.99279 0
M  V30 11349 C 1088.37 0.0702456 1.60646 0
M  V30 11350 O 1089.56 0.316494 1.71301 0
M  V30 11351 C 1086.69 0.729629 3.33 0
M  V30 11352 H 1087.88 2.09566 2.14528 0
M  V30 11353 H 1085.43 1.11872 1.09153 0
M  V30 11354 H 1086.17 -0.234268 3.23453 0
M  V30 11355 H 1085.95 1.49688 3.62403 0
M  V30 11356 H 1087.44 0.643449 4.12613 0
M  V30 11357 N 1087.88 -1.11734 1.11145 0
M  V30 11358 C 1089.13 -1.83677 0.859684 0
M  V30 11359 C 1089.46 -1.84265 -0.613182 0
M  V30 11360 O 1088.74 -1.29351 -1.45254 0
M  V30 11361 C 1089.02 -3.31003 1.41805 0
M  V30 11362 C 1088.87 -3.38827 2.95831 0
M  V30 11363 C 1090.19 -4.26984 1.06645 0
M  V30 11364 H 1087.31 -0.666879 0.313754 0
M  V30 11365 H 1089.95 -1.31038 1.37583 0
M  V30 11366 H 1088.1 -3.75961 0.979054 0
M  V30 11367 H 1089.77 -3.02451 3.48312 0
M  V30 11368 H 1088.02 -2.79143 3.32056 0
M  V30 11369 H 1088.69 -4.42508 3.29986 0
M  V30 11370 H 1091.16 -3.9019 1.44537 0
M  V30 11371 H 1090.04 -5.2846 1.48394 0
M  V30 11372 H 1090.3 -4.42094 -0.0231866 0
M  V30 11373 N 1089.36 -0.901303 -1.29284 0
M  V30 11374 C 1090.61 -0.528043 -1.95494 0
M  V30 11375 C 1090.93 0.92597 -1.71044 0
M  V30 11376 O 1090.19 1.67185 -1.01723 0
M  V30 11377 C 1090.49 -0.768828 -3.49033 0
M  V30 11378 C 1090.15 -2.20045 -3.93562 0
M  V30 11379 C 1088.82 -2.59189 -4.05431 0
M  V30 11380 C 1091.17 -3.13266 -4.1655 0
M  V30 11381 C 1088.5 -3.90733 -4.37658 0
M  V30 11382 C 1090.85 -4.4436 -4.50252 0
M  V30 11383 C 1089.51 -4.83375 -4.60331 0
M  V30 11384 H 1088.78 -0.193225 -0.715364 0
M  V30 11385 H 1091.43 -1.14027 -1.53851 0
M  V30 11386 H 1089.73 -0.0736997 -3.91731 0
M  V30 11387 H 1091.43 -0.459384 -3.9836 0
M  V30 11388 H 1088.02 -1.88666 -3.84842 0
M  V30 11389 H 1092.21 -2.84237 -4.06845 0
M  V30 11390 H 1087.46 -4.2068 -4.43665 0
M  V30 11391 H 1091.64 -5.16618 -4.66989 0
M  V30 11392 H 1089.26 -5.8534 -4.85058 0
M  V30 11393 N 1090.84 1.42931 -0.663954 0
M  V30 11394 C 1091.79 2.32577 0.03287 0
M  V30 11395 C 1092.78 1.49217 0.801918 0
M  V30 11396 O 1093.99 1.65358 0.711106 0
M  V30 11397 H 1090.36 0.751424 0.0294198 0
M  V30 11398 H 1092.33 2.89059 -0.740763 0
M  V30 11399 C 1091.08 3.33661 0.978025 0
M  V30 11400 H 1090.4 3.97837 0.395681 0
M  V30 11401 H 1091.84 3.98997 1.43448 0
M  V30 11402 C 1090.3 2.65085 2.07922 0
M  V30 11403 O 1090.83 2.4745 3.16435 0
M  V30 11404 N 1089.04 2.24285 1.84783 0
M  V30 11405 H 1088.59 2.38827 0.965368 0
M  V30 11406 H 1088.54 1.78732 2.58655 0
M  V30 11407 N 1092.32 0.406567 1.52266 0
M  V30 11408 C 1093.26 -0.420182 2.26943 0
M  V30 11409 C 1094.23 -1.04323 1.29251 0
M  V30 11410 O 1095.42 -1.06799 1.5811 0
M  V30 11411 C 1092.56 -1.5323 3.09216 0
M  V30 11412 C 1091.67 -0.930419 4.21862 0
M  V30 11413 C 1090.81 -2.01502 4.91498 0
M  V30 11414 C 1089.84 -1.38994 5.9611 0
M  V30 11415 N 1088.98 -2.41458 6.59274 0
M  V30 11416 H 1093.82 0.223066 2.97164 0
M  V30 11417 H 1091.36 0.121842 1.46595 0
M  V30 11418 H 1093.32 -2.18803 3.5522 0
M  V30 11419 H 1091.95 -2.14561 2.41171 0
M  V30 11420 H 1091 -0.163809 3.80047 0
M  V30 11421 H 1092.31 -0.433785 4.9691 0
M  V30 11422 H 1091.46 -2.74807 5.40894 0
M  V30 11423 H 1090.2 -2.5453 4.16012 0
M  V30 11424 H 1089.21 -0.642213 5.46036 0
M  V30 11425 H 1090.43 -0.867386 6.73538 0
M  V30 11426 H 1088.38 -2.93623 5.86619 0
M  V30 11427 H 1088.3 -1.96599 7.2999 0
M  V30 11428 H 1089.56 -3.14341 7.13309 0
M  V30 11429 N 1093.79 -1.57004 0.136909 0
M  V30 11430 C 1094.74 -2.17524 -0.823784 0
M  V30 11431 C 1095.74 -1.1294 -1.26258 0
M  V30 11432 O 1096.94 -1.3121 -1.23223 0
M  V30 11433 H 1093.32 -0.696381 -0.283827 0
M  V30 11434 H 1095.29 -2.96997 -0.289052 0
M  V30 11435 C 1094.04 -2.80331 -2.05693 0
M  V30 11436 H 1093.36 -3.60515 -1.72825 0
M  V30 11437 H 1094.8 -3.26192 -2.70878 0
M  V30 11438 C 1093.26 -1.78322 -2.85837 0
M  V30 11439 O 1093.79 -1.2475 -3.81838 0
M  V30 11440 N 1092 -1.47854 -2.50175 0
M  V30 11441 H 1091.54 -1.9161 -1.72173 0
M  V30 11442 H 1091.5 -0.798464 -3.04092 0
M  V30 11443 N 1095.27 0.136881 -1.57004 0
M  V30 11444 C 1096.52 0.8461 -1.83536 0
M  V30 11445 C 1096.84 1.81246 -0.71937 0
M  V30 11446 O 1096.11 1.94191 0.258161 0
M  V30 11447 H 1094.69 0.315446 -0.677128 0
M  V30 11448 H 1097.35 0.128469 -1.94476 0
M  V30 11449 H 1096.45 1.40221 -2.78827 0
M  V30 11450 N 1096.75 1.52266 0.40654 0
M  V30 11451 C 1097.7 1.76409 1.516 0
M  V30 11452 C 1098.69 0.631311 1.57197 0
M  V30 11453 O 1099.9 0.813413 1.60573 0
M  V30 11454 H 1096.27 0.557904 0.50423 0
M  V30 11455 H 1098.24 2.69351 1.28424 0
M  V30 11456 C 1096.99 1.93415 2.88939 0
M  V30 11457 H 1096.32 2.8 2.85377 0
M  V30 11458 H 1097.76 2.14306 3.65854 0
M  V30 11459 C 1096.22 0.701938 3.29506 0
M  V30 11460 O 1096.75 -0.128965 4.01493 0
M  V30 11461 N 1094.95 0.537089 2.85594 0
M  V30 11462 H 1094.5 1.21435 2.27181 0
M  V30 11463 H 1094.46 -0.286055 3.13096 0
M  V30 11464 N 1098.23 -0.663929 1.42933 0
M  V30 11465 C 1099.64 -0.978346 1.26097 0
M  V30 11466 C 1099.84 -2.00756 0.172968 0
M  V30 11467 O 1098.9 -2.48418 -0.452184 0
M  V30 11468 C 1100.21 -1.4728 2.62162 0
M  V30 11469 C 1101.76 -1.59001 2.69606 0
M  V30 11470 C 1102.24 -2.1184 4.06064 0
M  V30 11471 N 1103.73 -2.19158 4.08074 0
M  V30 11472 C 1104.46 -2.61141 5.10483 0
M  V30 11473 N 1103.96 -3.02498 6.23271 0
M  V30 11474 N 1105.75 -2.60986 4.97838 0
M  V30 11475 H 1097.9 0.0173096 2.12393 0
M  V30 11476 H 1100.17 -0.0548116 0.946414 0
M  V30 11477 H 1099.87 -0.791008 3.42689 0
M  V30 11478 H 1099.75 -2.4497 2.86827 0
M  V30 11479 H 1102.13 -2.26284 1.89418 0
M  V30 11480 H 1102.21 -0.597728 2.48718 0
M  V30 11481 H 1101.86 -1.45162 4.86714 0
M  V30 11482 H 1101.79 -3.1188 4.2431 0
M  V30 11483 H 1104.28 -1.90013 3.26655 0
M  V30 11484 H 1104.59 -3.33251 6.97254 0
M  V30 11485 H 1102.94 -3.00328 6.2676 0
M  V30 11486 H 1106.13 -2.28046 4.08794 0
M  V30 11487 H 1106.3 -2.93384 5.7778 0
M  V30 11488 N 1099.71 -1.29285 -0.901281 0
M  V30 11489 C 1100.93 -1.20048 -1.68511 0
M  V30 11490 C 1101.35 0.239128 -1.8728 0
M  V30 11491 O 1100.71 1.16027 -1.40869 0
M  V30 11492 C 1100.76 -1.90798 -3.07048 0
M  V30 11493 O 1100.48 -3.29137 -2.89138 0
M  V30 11494 C 1101.98 -1.88017 -4.01453 0
M  V30 11495 H 1099.2 -0.416157 -0.52636 0
M  V30 11496 H 1101.74 -1.7063 -1.12719 0
M  V30 11497 H 1099.9 -1.44055 -3.5962 0
M  V30 11498 H 1100.31 -3.64747 -3.76908 0
M  V30 11499 H 1101.79 -2.42088 -4.96082 0
M  V30 11500 H 1102.26 -0.855341 -4.30791 0
M  V30 11501 H 1102.87 -2.34497 -3.54812 0
M  V30 11502 N 1101.18 1.11143 -1.11736 0
M  V30 11503 C 1102.41 1.86474 -0.889435 0
M  V30 11504 C 1102.82 1.80584 0.564438 0
M  V30 11505 O 1102.17 1.18743 1.40163 0
M  V30 11506 C 1102.23 3.36066 -1.27671 0
M  V30 11507 C 1101.89 3.65721 -2.74038 0
M  V30 11508 C 1102.89 3.62941 -3.7225 0
M  V30 11509 C 1100.57 3.94629 -3.10762 0
M  V30 11510 C 1102.57 3.88651 -5.05202 0
M  V30 11511 C 1100.25 4.19997 -4.43899 0
M  V30 11512 C 1101.25 4.16996 -5.40928 0
M  V30 11513 O 1100.94 4.41724 -6.71666 0
M  V30 11514 H 1100.67 0.596438 -0.318178 0
M  V30 11515 H 1103.23 1.41465 -1.48918 0
M  V30 11516 H 1101.46 3.81695 -0.620124 0
M  V30 11517 H 1103.15 3.92769 -1.02409 0
M  V30 11518 H 1103.91 3.40655 -3.45223 0
M  V30 11519 H 1099.79 3.96099 -2.35853 0
M  V30 11520 H 1103.33 3.86224 -5.80927 0
M  V30 11521 H 1099.23 4.4176 -4.70657 0
M  V30 11522 H 1100 4.59276 -6.77501 0
M  V30 11523 N 1102.66 0.908147 1.28804 0
M  V30 11524 C 1103.91 0.534332 1.94494 0
M  V30 11525 C 1104.22 -0.92552 1.72318 0
M  V30 11526 O 1105.43 -1.40724 2.32183 0
M  V30 11527 C 1103.89 0.904748 3.48342 0
M  V30 11528 C 1103.49 2.38394 3.79305 0
M  V30 11529 C 1105.24 0.601249 4.2022 0
M  V30 11530 C 1103.15 2.69478 5.26437 0
M  V30 11531 H 1102.08 0.196107 0.728051 0
M  V30 11532 H 1104.73 1.1063 1.46401 0
M  V30 11533 H 1103.11 0.261624 3.95135 0
M  V30 11534 H 1104.28 3.07333 3.43341 0
M  V30 11535 H 1102.6 2.65733 3.20586 0
M  V30 11536 H 1105.19 0.810225 5.28526 0
M  V30 11537 H 1105.54 -0.460669 4.13743 0
M  V30 11538 H 1106.07 1.20259 3.79187 0
M  V30 11539 H 1102.81 3.74501 5.37986 0
M  V30 11540 H 1102.33 2.05171 5.63618 0
M  V30 11541 H 1104.01 2.56187 5.94119 0
M  V30 11542 N 1104.14 -1.42577 0.671525 0
M  V30 11543 C 1105.39 -2.01882 0.192716 0
M  V30 11544 C 1105.72 -1.52959 -1.19654 0
M  V30 11545 O 1104.99 -0.730404 -1.80265 0
M  V30 11546 C 1105.28 -3.59404 0.223734 0
M  V30 11547 C 1105.13 -4.18514 1.64821 0
M  V30 11548 C 1106.45 -4.37996 -0.429858 0
M  V30 11549 H 1103.57 -0.733523 0.0715026 0
M  V30 11550 H 1106.21 -1.69641 0.855689 0
M  V30 11551 H 1104.36 -3.87003 -0.340776 0
M  V30 11552 H 1106.03 -4.01881 2.26472 0
M  V30 11553 H 1104.28 -3.74467 2.1899 0
M  V30 11554 H 1104.95 -5.27643 1.62162 0
M  V30 11555 H 1107.42 -4.16069 0.0506433 0
M  V30 11556 H 1106.3 -5.476 -0.377503 0
M  V30 11557 H 1106.56 -4.15625 -1.50693 0
M  V30 11558 N 1105.62 -0.414636 -1.52048 0
M  V30 11559 C 1106.85 0.158456 -2.05991 0
M  V30 11560 C 1107.26 1.38947 -1.28415 0
M  V30 11561 O 1106.6 1.80698 -0.330728 0
M  V30 11562 C 1106.66 0.568392 -3.54978 0
M  V30 11563 C 1106.33 -0.552654 -4.53646 0
M  V30 11564 C 1107.32 -1.41791 -5.00191 0
M  V30 11565 C 1105.01 -0.726917 -4.97012 0
M  V30 11566 C 1107 -2.44234 -5.88752 0
M  V30 11567 C 1104.69 -1.75464 -5.85368 0
M  V30 11568 C 1105.69 -2.61075 -6.31133 0
M  V30 11569 O 1105.37 -3.62087 -7.17738 0
M  V30 11570 H 1105.11 0.0214746 -0.675659 0
M  V30 11571 H 1107.66 -0.585825 -1.96869 0
M  V30 11572 H 1105.89 1.36504 -3.61806 0
M  V30 11573 H 1107.58 1.07003 -3.91542 0
M  V30 11574 H 1108.35 -1.29471 -4.67399 0
M  V30 11575 H 1104.22 -0.0701964 -4.60947 0
M  V30 11576 H 1107.77 -3.1109 -6.24395 0
M  V30 11577 H 1103.67 -1.87813 -6.17573 0
M  V30 11578 H 1104.43 -3.58396 -7.35863 0
M  V30 11579 N 1107.1 1.56929 -0.145233 0
M  V30 11580 C 1108.04 2.17958 0.812237 0
M  V30 11581 C 1109.04 1.13608 1.25657 0
M  V30 11582 O 1110.24 1.31861 1.22526 0
M  V30 11583 H 1106.62 0.697876 0.28013 0
M  V30 11584 H 1108.59 2.97146 0.273297 0
M  V30 11585 C 1107.34 2.81418 2.04203 0
M  V30 11586 H 1106.66 3.61427 1.70911 0
M  V30 11587 H 1108.1 3.27624 2.69144 0
M  V30 11588 C 1106.56 1.79835 2.84888 0
M  V30 11589 O 1107.09 1.26773 3.81171 0
M  V30 11590 N 1105.3 1.49179 2.49387 0
M  V30 11591 H 1104.84 1.9252 1.71154 0
M  V30 11592 H 1104.8 0.81458 3.03664 0
M  V30 11593 N 1108.58 -0.128553 1.57075 0
M  V30 11594 C 1109.82 -0.83801 1.84347 0
M  V30 11595 C 1110.15 -1.80325 0.728906 0
M  V30 11596 O 1109.41 -1.93678 -0.280571 0
M  V30 11597 C 1109.7 -1.63027 3.18052 0
M  V30 11598 C 1109.37 -0.810171 4.43562 0
M  V30 11599 C 1108.03 -0.583984 4.77643 0
M  V30 11600 C 1110.38 -0.237896 5.20657 0
M  V30 11601 C 1107.71 0.224887 5.86269 0
M  V30 11602 C 1110.06 0.558114 6.30133 0
M  V30 11603 C 1108.73 0.794706 6.62752 0
M  V30 11604 H 1108 -0.30665 0.674572 0
M  V30 11605 H 1110.65 -0.100797 1.91235 0
M  V30 11606 H 1108.95 -2.43812 3.06697 0
M  V30 11607 H 1110.65 -2.183 3.36372 0
M  V30 11608 H 1107.24 -0.996547 4.16854 0
M  V30 11609 H 1111.42 -0.399881 4.94686 0
M  V30 11610 H 1106.68 0.417507 6.09973 0
M  V30 11611 H 1110.85 1.00859 6.89058 0
M  V30 11612 H 1108.48 1.42331 7.46757 0
M  V30 11613 N 1110.05 -1.5248 -0.398459 0
M  V30 11614 C 1111.28 -1.71221 -1.17039 0
M  V30 11615 C 1111.7 -0.425515 -1.83224 0
M  V30 11616 O 1111.06 0.617938 -1.70444 0
M  V30 11617 C 1111.11 -2.8562 -2.20121 0
M  V30 11618 O 1110.21 -2.51934 -3.26501 0
M  V30 11619 H 1109.55 -0.569654 -0.34116 0
M  V30 11620 H 1112.08 -1.99231 -0.465652 0
M  V30 11621 H 1112.09 -3.10842 -2.64275 0
M  V30 11622 H 1110.77 -3.78969 -1.71334 0
M  V30 11623 H 1109.35 -2.3742 -2.87552 0
M  V30 11624 N 1111.53 0.65634 -1.43283 0
M  V30 11625 C 1112.81 1.41339 -1.35213 0
M  V30 11626 C 1113.19 2.111 0.00158494 0
M  V30 11627 O 1112.54 2.0457 1.018 0
M  V30 11628 C 1112.75 2.40066 -2.53317 0
M  V30 11629 C 1114.09 3.04159 -2.96264 0
M  V30 11630 O 1115.12 2.50393 -2.53341 0
M  V30 11631 O 1113.98 4.01633 -3.70612 0
M  V30 11632 H 1111.07 0.631325 -0.534189 0
M  V30 11633 H 1113.62 0.68351 -1.55326 0
M  V30 11634 H 1112.39 1.87444 -3.43483 0
M  V30 11635 H 1112.01 3.20509 -2.35287 0
M  V30 11636 N 1113.01 1.29761 0.894412 0
M  V30 11637 C 1114.23 1.21064 1.68399 0
M  V30 11638 C 1114.66 -0.224608 1.86754 0
M  V30 11639 O 1114.02 -1.16199 1.39167 0
M  V30 11640 C 1114.07 1.93468 3.04306 0
M  V30 11641 O 1113.17 1.25533 3.9283 0
M  V30 11642 H 1112.51 0.419223 0.514925 0
M  V30 11643 H 1115.04 1.71421 1.11696 0
M  V30 11644 H 1115.05 2.02127 3.54413 0
M  V30 11645 H 1113.73 2.97857 2.90265 0
M  V30 11646 H 1112.3 1.25168 3.51266 0
M  V30 11647 N 1114.49 -1.10549 1.12324 0
M  V30 11648 C 1115.9 -1.63991 0.892402 0
M  V30 11649 C 1116.25 -1.87631 -0.573506 0
M  V30 11650 O 1115.37 -1.6174 -1.43768 0
M  V30 11651 C 1115.97 -2.97914 1.61347 0
M  V30 11652 C 1114.53 -3.48227 1.42881 0
M  V30 11653 C 1113.68 -2.22857 1.65015 0
M  V30 11654 H 1116.63 -0.94065 1.27818 0
M  V30 11655 H 1116.65 -3.65326 1.06382 0
M  V30 11656 H 1116.16 -2.80677 2.68034 0
M  V30 11657 H 1114.26 -3.70611 0.384441 0
M  V30 11658 H 1114.37 -4.26419 2.18413 0
M  V30 11659 H 1112.74 -2.30941 1.07417 0
M  V30 11660 H 1113.52 -2.08152 2.72997 0
M  V30 11661 N 1115.97 -0.914965 -1.28321 0
M  V30 11662 C 1117.21 -0.544639 -1.94208 0
M  V30 11663 C 1117.53 0.916368 -1.72806 0
M  V30 11664 O 1118.73 1.39491 -2.32926 0
M  V30 11665 C 1117.19 -0.923209 -3.47858 0
M  V30 11666 C 1116.8 -2.40403 -3.78035 0
M  V30 11667 C 1118.54 -0.623526 -4.19896 0
M  V30 11668 C 1116.45 -2.72266 -5.25 0
M  V30 11669 H 1115.38 -0.199966 -0.727 0
M  V30 11670 H 1118.03 -1.11405 -1.45812 0
M  V30 11671 H 1116.41 -0.282576 -3.94991 0
M  V30 11672 H 1117.59 -3.09149 -3.41706 0
M  V30 11673 H 1115.9 -2.67429 -3.19172 0
M  V30 11674 H 1118.5 -0.838243 -5.28089 0
M  V30 11675 H 1118.84 0.438721 -4.13982 0
M  V30 11676 H 1119.37 -1.22268 -3.78544 0
M  V30 11677 H 1116.11 -3.77349 -5.35993 0
M  V30 11678 H 1115.63 -2.08157 -5.62522 0
M  V30 11679 H 1117.31 -2.59334 -5.92752 0
M  V30 11680 N 1117.44 1.42219 -0.679077 0
M  V30 11681 C 1118.67 2.05815 -0.211649 0
M  V30 11682 C 1119.09 1.51037 1.13284 0
M  V30 11683 O 1118.44 0.651894 1.7046 0
M  V30 11684 C 1118.49 3.61218 -0.142663 0
M  V30 11685 O 1118.22 4.13965 -1.43402 0
M  V30 11686 C 1119.72 4.41934 0.347746 0
M  V30 11687 H 1116.94 0.663215 -0.101914 0
M  V30 11688 H 1119.48 1.82282 -0.927017 0
M  V30 11689 H 1117.64 3.83848 0.52342 0
M  V30 11690 H 1118.05 5.07872 -1.31021 0
M  V30 11691 H 1119.52 5.50921 0.344916 0
M  V30 11692 H 1120 4.16832 1.38377 0
M  V30 11693 H 1120.61 4.24332 -0.286751 0
M  V30 11694 N 1118.92 0.422693 1.51826 0
M  V30 11695 C 1120.17 -0.148861 2.02253 0
M  V30 11696 C 1120.5 -1.43629 1.30707 0
M  V30 11697 O 1119.78 -1.89967 0.417482 0
M  V30 11698 C 1120.06 -0.382672 3.58061 0
M  V30 11699 C 1119.91 0.922386 4.40241 0
M  V30 11700 C 1121.23 -1.1589 4.24567 0
M  V30 11701 H 1118.35 -0.0526279 0.735119 0
M  V30 11702 H 1120.99 0.558821 1.81596 0
M  V30 11703 H 1119.14 -0.985495 3.75793 0
M  V30 11704 H 1120.81 1.55806 4.34191 0
M  V30 11705 H 1119.06 1.53032 4.05911 0
M  V30 11706 H 1119.73 0.713012 5.47376 0
M  V30 11707 H 1122.2 -0.648415 4.11017 0
M  V30 11708 H 1121.08 -1.29125 5.33496 0
M  V30 11709 H 1121.34 -2.18315 3.84436 0
M  V30 11710 N 1120.4 -1.5685 0.153553 0
M  V30 11711 C 1121.33 -2.14231 -0.814729 0
M  V30 11712 C 1122.34 -1.09339 -1.20619 0
M  V30 11713 O 1123.53 -1.36592 -1.14913 0
M  V30 11714 C 1120.63 -2.6555 -2.10562 0
M  V30 11715 C 1119.81 -3.94912 -1.8805 0
M  V30 11716 C 1118.87 -4.31476 -3.0119 0
M  V30 11717 O 1117.89 -4.9968 -2.72596 0
M  V30 11718 N 1119.09 -3.91588 -4.28531 0
M  V30 11719 H 1121.86 -2.9794 -0.324277 0
M  V30 11720 H 1119.42 -1.61873 -0.0298087 0
M  V30 11721 H 1121.41 -2.87019 -2.85311 0
M  V30 11722 H 1119.98 -1.86529 -2.5085 0
M  V30 11723 H 1119.2 -3.82002 -0.973024 0
M  V30 11724 H 1120.49 -4.79433 -1.70356 0
M  V30 11725 H 1119.89 -3.36645 -4.54628 0
M  V30 11726 H 1118.44 -4.18095 -5.00039 0
M  V30 11727 N 1121.88 0.120221 -1.57141 0
M  V30 11728 C 1123.12 0.828222 -1.84788 0
M  V30 11729 C 1123.45 1.79936 -0.738459 0
M  V30 11730 O 1122.71 1.93824 0.270295 0
M  V30 11731 C 1123.01 1.61338 -3.18912 0
M  V30 11732 C 1122.67 0.786637 -4.43985 0
M  V30 11733 C 1121.33 0.558645 -4.77946 0
M  V30 11734 C 1123.69 0.210281 -5.20776 0
M  V30 11735 C 1121.01 -0.255975 -5.86141 0
M  V30 11736 C 1123.37 -0.591523 -6.29828 0
M  V30 11737 C 1122.03 -0.829843 -6.62322 0
M  V30 11738 H 1121.3 0.303068 -0.676188 0
M  V30 11739 H 1123.95 0.0906538 -1.91285 0
M  V30 11740 H 1122.25 2.42182 -3.07986 0
M  V30 11741 H 1123.95 2.16513 -3.37525 0
M  V30 11742 H 1120.54 0.974426 -4.17376 0
M  V30 11743 H 1124.72 0.373641 -4.94892 0
M  V30 11744 H 1119.98 -0.449849 -6.09743 0
M  V30 11745 H 1124.15 -1.04512 -6.88513 0
M  V30 11746 H 1121.78 -1.4629 -7.45992 0
M  V30 11747 N 1123.36 1.52689 0.390367 0
M  V30 11748 C 1124.58 1.71839 1.16129 0
M  V30 11749 C 1125.01 0.435226 1.82996 0
M  V30 11750 O 1124.36 -0.60889 1.70769 0
M  V30 11751 C 1124.41 2.86784 2.18603 0
M  V30 11752 O 1123.52 2.53662 3.25161 0
M  V30 11753 H 1122.86 0.571455 0.338135 0
M  V30 11754 H 1125.39 1.99475 0.45508 0
M  V30 11755 H 1125.4 3.12239 2.62622 0
M  V30 11756 H 1124.07 3.79872 1.69322 0
M  V30 11757 H 1122.65 2.38942 2.86289 0
M  V30 11758 N 1124.83 -0.648732 1.43629 0
M  V30 11759 C 1126.11 -1.4062 1.35961 0
M  V30 11760 C 1126.49 -2.11098 0.00961023 0
M  V30 11761 O 1125.84 -2.05107 -1.00714 0
M  V30 11762 C 1126.05 -2.38719 2.54586 0
M  V30 11763 C 1127.4 -3.02584 2.97873 0
M  V30 11764 O 1128.42 -2.49046 2.54665 0
M  V30 11765 O 1127.28 -3.99662 3.72736 0
M  V30 11766 H 1124.37 -0.628483 0.53753 0
M  V30 11767 H 1126.92 -0.675263 1.55687 0
M  V30 11768 H 1125.69 -1.85619 3.44472 0
M  V30 11769 H 1125.32 -3.19257 2.36983 0
M  V30 11770 N 1126.31 -1.30234 -0.887518 0
M  V30 11771 C 1127.56 -1.18675 -1.63587 0
M  V30 11772 C 1127.88 0.259342 -1.93268 0
M  V30 11773 O 1127.15 1.17523 -1.56733 0
M  V30 11774 H 1125.73 -0.436224 -0.606397 0
M  V30 11775 H 1128.39 -1.63326 -1.06351 0
M  V30 11776 H 1127.49 -1.74575 -2.58708 0
M  V30 11777 N 1127.79 1.09952 -1.12909 0
M  V30 11778 C 1128.74 2.14591 -0.77037 0
M  V30 11779 C 1129.72 1.59204 0.233021 0
M  V30 11780 O 1130.92 1.7696 0.0377599 0
M  V30 11781 C 1128.05 3.42514 -0.232117 0
M  V30 11782 C 1127.13 4.04823 -1.26409 0
M  V30 11783 N 1127.52 4.41763 -2.46331 0
M  V30 11784 C 1125.82 4.31951 -1.11062 0
M  V30 11785 C 1126.52 4.90778 -3.12269 0
M  V30 11786 N 1125.5 4.87896 -2.39704 0
M  V30 11787 H 1129.3 2.40951 -1.68285 0
M  V30 11788 H 1126.81 1.27125 -1.0106 0
M  V30 11789 H 1128.81 4.16878 0.0430853 0
M  V30 11790 H 1127.47 3.17612 0.674757 0
M  V30 11791 H 1128.48 4.33299 -2.83677 0
M  V30 11792 H 1125.16 4.16681 -0.261456 0
M  V30 11793 H 1126.55 5.28868 -4.14425 0
M  V30 11794 N 1129.27 0.921757 1.27833 0
M  V30 11795 C 1130.49 0.574599 1.99281 0
M  V30 11796 C 1130.92 -0.838905 1.68357 0
M  V30 11797 O 1130.28 -1.56196 0.920468 0
M  V30 11798 C 1130.32 0.800027 3.51613 0
M  V30 11799 O 1129.43 -0.137215 4.12172 0
M  V30 11800 H 1128.77 0.221887 0.625829 0
M  V30 11801 H 1131.3 1.23939 1.62789 0
M  V30 11802 H 1131.31 0.71326 4.01717 0
M  V30 11803 H 1129.98 1.83042 3.73455 0
M  V30 11804 H 1128.56 -0.00103872 3.729 0
M  V30 11805 N 1130.75 -1.41857 0.686609 0
M  V30 11806 C 1132 -2.00594 0.21095 0
M  V30 11807 C 1132.31 -1.54974 -1.19341 0
M  V30 11808 O 1133.51 -2.0621 -1.76607 0
M  V30 11809 C 1131.97 -3.58418 0.326261 0
M  V30 11810 C 1131.58 -4.13022 1.73542 0
M  V30 11811 C 1133.32 -4.24404 -0.0900816 0
M  V30 11812 C 1131.23 -5.6325 1.80287 0
M  V30 11813 H 1130.16 -0.75025 0.0751077 0
M  V30 11814 H 1132.81 -1.62442 0.853508 0
M  V30 11815 H 1131.19 -3.9413 -0.384394 0
M  V30 11816 H 1132.37 -3.88747 2.47411 0
M  V30 11817 H 1130.68 -3.5953 2.10065 0
M  V30 11818 H 1133.28 -5.34666 -0.060004 0
M  V30 11819 H 1133.62 -4.00745 -1.12733 0
M  V30 11820 H 1134.15 -3.93695 0.569979 0
M  V30 11821 H 1130.89 -5.91724 2.82034 0
M  V30 11822 H 1130.41 -5.89479 1.1079 0
M  V30 11823 H 1132.09 -6.2787 1.56167 0
M  V30 11824 N 1132.22 -0.430739 -1.51599 0
M  V30 11825 C 1133.16 0.419726 -2.25324 0
M  V30 11826 C 1134.17 0.991925 -1.29092 0
M  V30 11827 O 1135.36 0.887188 -1.54891 0
M  V30 11828 C 1132.46 1.59844 -2.98836 0
M  V30 11829 C 1131.63 1.14629 -4.22112 0
M  V30 11830 C 1130.69 2.19437 -4.78261 0
M  V30 11831 O 1129.72 1.79141 -5.40275 0
M  V30 11832 N 1130.92 3.51849 -4.61717 0
M  V30 11833 H 1133.68 -0.212112 -2.98948 0
M  V30 11834 H 1131.24 -0.259269 -1.59811 0
M  V30 11835 H 1133.24 2.29567 -3.33288 0
M  V30 11836 H 1131.81 2.13575 -2.28264 0
M  V30 11837 H 1131.03 0.276367 -3.9323 0
M  V30 11838 H 1132.31 0.821488 -5.02124 0
M  V30 11839 H 1131.71 3.87324 -4.12306 0
M  V30 11840 H 1130.27 4.17486 -5.00548 0
M  V30 11841 N 1133.7 1.56767 -0.161869 0
M  V30 11842 C 1134.95 1.96885 0.486215 0
M  V30 11843 C 1135.28 1.04745 1.6353 0
M  V30 11844 O 1134.56 0.0927156 1.94279 0
M  V30 11845 C 1134.84 3.46559 0.97822 0
M  V30 11846 C 1134.69 4.49477 -0.17039 0
M  V30 11847 C 1136.01 3.99093 1.85506 0
M  V30 11848 H 1133.13 0.715857 0.175265 0
M  V30 11849 H 1135.77 1.88399 -0.246098 0
M  V30 11850 H 1133.92 3.53921 1.60225 0
M  V30 11851 H 1135.59 4.54183 -0.807205 0
M  V30 11852 H 1133.84 4.25838 -0.827322 0
M  V30 11853 H 1134.51 5.51578 0.21583 0
M  V30 11854 H 1136.98 3.94303 1.32908 0
M  V30 11855 H 1135.86 5.04255 2.16837 0
M  V30 11856 H 1136.12 3.4234 2.79742 0
M  V30 11857 N 1135.18 -0.111886 1.57202 0
M  V30 11858 C 1136.09 -1.1556 2.04165 0
M  V30 11859 C 1137.11 -1.44898 0.963354 0
M  V30 11860 O 1138.28 -1.55873 1.27536 0
M  V30 11861 C 1135.35 -2.46048 2.44256 0
M  V30 11862 C 1134.41 -2.24043 3.66201 0
M  V30 11863 C 1133.64 -3.4831 4.04371 0
M  V30 11864 O 1133.86 -4.55895 3.42806 0
M  V30 11865 O 1132.8 -3.38891 4.9743 0
M  V30 11866 H 1136.62 -0.786778 2.93332 0
M  V30 11867 H 1134.21 -0.323196 1.45862 0
M  V30 11868 H 1136.09 -3.22916 2.70745 0
M  V30 11869 H 1134.77 -2.8239 1.58233 0
M  V30 11870 H 1133.67 -1.4501 3.44852 0
M  V30 11871 H 1135.01 -1.92602 4.52952 0
M  V30 11872 N 1136.66 -1.52894 -0.382264 0
M  V30 11873 C 1138.07 -1.60135 -0.959887 0
M  V30 11874 C 1138.42 -0.458363 -1.90771 0
M  V30 11875 O 1137.55 0.417614 -2.12332 0
M  V30 11876 C 1138.14 -2.90243 -1.74769 0
M  V30 11877 C 1136.7 -2.99874 -2.27491 0
M  V30 11878 C 1135.85 -2.55302 -1.0824 0
M  V30 11879 H 1138.8 -1.57875 -0.161589 0
M  V30 11880 H 1138.82 -2.77108 -2.60751 0
M  V30 11881 H 1138.33 -3.73412 -1.0576 0
M  V30 11882 H 1136.43 -2.21258 -2.99793 0
M  V30 11883 H 1136.54 -4.04643 -2.56516 0
M  V30 11884 H 1134.91 -2.09781 -1.44444 0
M  V30 11885 H 1135.69 -3.40872 -0.407553 0
M  V30 11886 N 1138.14 0.641106 -1.43971 0
M  V30 11887 C 1139.09 1.74699 -1.46507 0
M  V30 11888 C 1140.07 1.57437 -0.332037 0
M  V30 11889 O 1141.26 1.67343 -0.576663 0
M  V30 11890 C 1138.39 3.13344 -1.40252 0
M  V30 11891 C 1137.48 3.3611 -2.58632 0
M  V30 11892 N 1137.87 3.29291 -3.83929 0
M  V30 11893 C 1136.17 3.66873 -2.53615 0
M  V30 11894 C 1136.87 3.52472 -4.62751 0
M  V30 11895 N 1135.84 3.74868 -3.93668 0
M  V30 11896 H 1139.65 1.67869 -2.41241 0
M  V30 11897 H 1137.16 0.843217 -1.38793 0
M  V30 11898 H 1139.16 3.92636 -1.40153 0
M  V30 11899 H 1137.82 3.21346 -0.46549 0
M  V30 11900 H 1138.83 3.08431 -4.16041 0
M  V30 11901 H 1135.51 3.81917 -1.68659 0
M  V30 11902 H 1136.9 3.52876 -5.71776 0
M  V30 11903 N 1139.62 1.30703 0.880598 0
M  V30 11904 C 1140.84 1.22843 1.67106 0
M  V30 11905 C 1141.27 -0.204788 1.86982 0
M  V30 11906 O 1140.62 -1.14716 1.40392 0
M  V30 11907 C 1140.67 1.96685 3.02237 0
M  V30 11908 O 1139.78 1.29693 3.91476 0
M  V30 11909 H 1139.12 0.424661 0.51045 0
M  V30 11910 H 1141.65 1.72596 1.09871 0
M  V30 11911 H 1141.66 2.05874 3.52249 0
M  V30 11912 H 1140.33 3.00919 2.8709 0
M  V30 11913 H 1138.91 1.28886 3.49918 0
M  V30 11914 N 1141.09 -1.09351 1.1349 0
M  V30 11915 C 1142.34 -1.81543 0.897123 0
M  V30 11916 C 1142.67 -1.85754 -0.576703 0
M  V30 11917 O 1141.92 -1.32213 -1.44285 0
M  V30 11918 C 1142.22 -3.27498 1.43108 0
M  V30 11919 C 1141.89 -3.4342 2.92188 0
M  V30 11920 C 1140.55 -3.47473 3.32891 0
M  V30 11921 C 1142.9 -3.47894 3.88097 0
M  V30 11922 C 1140.23 -3.5358 4.68186 0
M  V30 11923 C 1142.58 -3.55535 5.23238 0
M  V30 11924 C 1141.25 -3.57857 5.63467 0
M  V30 11925 H 1140.52 -0.664314 0.32828 0
M  V30 11926 H 1143.16 -1.28819 1.41697 0
M  V30 11927 H 1141.47 -3.82865 0.831946 0
M  V30 11928 H 1143.17 -3.8189 1.22316 0
M  V30 11929 H 1139.76 -3.4095 2.59713 0
M  V30 11930 H 1143.94 -3.44002 3.57737 0
M  V30 11931 H 1139.2 -3.53665 4.9873 0
M  V30 11932 H 1143.37 -3.57942 5.9737 0
M  V30 11933 H 1141 -3.62341 6.68291 0
M  V30 11934 N 1142.57 -0.928524 -1.27343 0
M  V30 11935 C 1143.52 -0.418768 -2.28799 0
M  V30 11936 C 1144.51 0.497334 -1.61935 0
M  V30 11937 O 1145.72 0.376945 -1.76009 0
M  V30 11938 H 1142.09 -0.116855 -0.742865 0
M  V30 11939 H 1144.07 -1.28725 -2.69207 0
M  V30 11940 C 1142.81 0.312422 -3.46294 0
M  V30 11941 H 1142.14 -0.383317 -3.97958 0
M  V30 11942 H 1143.58 0.633514 -4.19241 0
M  V30 11943 C 1142.04 1.5257 -3.00373 0
M  V30 11944 O 1142.57 2.62443 -3.04116 0
M  V30 11945 N 1140.77 1.37782 -2.5586 0
M  V30 11946 H 1140.32 0.483908 -2.53014 0
M  V30 11947 H 1140.28 2.19085 -2.25498 0
M  V30 11948 N 1144.05 1.41491 -0.694123 0
M  V30 11949 C 1145.3 2.00479 -0.221585 0
M  V30 11950 C 1145.61 1.55605 1.18518 0
M  V30 11951 O 1146.82 2.07143 1.7551 0
M  V30 11952 C 1145.27 3.5824 -0.345264 0
M  V30 11953 C 1144.88 4.12096 -1.7573 0
M  V30 11954 C 1146.63 4.24446 0.0675731 0
M  V30 11955 C 1144.53 5.62286 -1.83271 0
M  V30 11956 H 1143.46 0.749841 -0.0790854 0
M  V30 11957 H 1146.11 1.61987 -0.86211 0
M  V30 11958 H 1144.5 3.94328 0.363487 0
M  V30 11959 H 1145.67 3.8743 -2.49469 0
M  V30 11960 H 1143.98 3.58411 -2.11969 0
M  V30 11961 H 1146.58 5.34691 0.0316485 0
M  V30 11962 H 1146.92 4.01338 1.10606 0
M  V30 11963 H 1147.46 3.93388 -0.59085 0
M  V30 11964 H 1144.2 5.9022 -2.85168 0
M  V30 11965 H 1143.72 5.88883 -1.13914 0
M  V30 11966 H 1145.4 6.27033 -1.59494 0
M  V30 11967 N 1145.53 0.438773 1.51369 0
M  V30 11968 C 1146.78 -0.126962 2.01701 0
M  V30 11969 C 1147.1 -1.43086 1.32481 0
M  V30 11970 O 1146.37 -1.90427 0.459823 0
M  V30 11971 H 1144.95 -0.0499092 0.745331 0
M  V30 11972 H 1147.61 0.581808 1.86013 0
M  V30 11973 H 1146.7 -0.301836 3.10637 0
M  V30 11974 N 1147.01 -1.56678 0.170181 0
M  V30 11975 C 1147.95 -2.19222 -0.777459 0
M  V30 11976 C 1148.95 -1.15592 -1.23834 0
M  V30 11977 O 1150.15 -1.33794 -1.20412 0
M  V30 11978 H 1146.53 -0.702244 -0.268992 0
M  V30 11979 H 1148.5 -2.97543 -0.225989 0
M  V30 11980 C 1147.25 -2.84631 -1.997 0
M  V30 11981 H 1146.57 -3.641 -1.65139 0
M  V30 11982 H 1148.01 -3.31864 -2.63898 0
M  V30 11983 C 1146.47 -1.84345 -2.81991 0
M  V30 11984 O 1147 -1.32821 -3.79106 0
M  V30 11985 N 1145.21 -1.53127 -2.46983 0
M  V30 11986 H 1144.75 -1.95219 -1.6807 0
M  V30 11987 H 1144.71 -0.862787 -3.0233 0
M  V30 11988 N 1148.48 0.103547 -1.57259 0
M  V30 11989 C 1149.73 0.806979 -1.8529 0
M  V30 11990 C 1150.05 1.79679 -0.757653 0
M  V30 11991 O 1149.32 1.94695 0.216913 0
M  V30 11992 H 1147.9 0.301012 -0.683667 0
M  V30 11993 H 1150.56 0.0871886 -1.94705 0
M  V30 11994 H 1149.66 1.34275 -2.81738 0
M  V30 11995 N 1149.96 1.53094 0.37415 0
M  V30 11996 C 1151.24 1.59456 1.13283 0
M  V30 11997 C 1151.62 0.396821 2.07337 0
M  V30 11998 O 1150.97 -0.613659 2.20106 0
M  V30 11999 C 1151.18 2.94069 1.87948 0
M  V30 12000 C 1152.52 3.4834 2.42785 0
M  V30 12001 O 1153.55 2.96042 1.98085 0
M  V30 12002 O 1152.41 4.39747 3.24477 0
M  V30 12003 H 1149.5 0.643731 0.519171 0
M  V30 12004 H 1152.05 1.65434 0.378105 0
M  V30 12005 H 1150.82 3.72685 1.19255 0
M  V30 12006 H 1150.44 2.91544 2.70348 0
M  V30 12007 N 1151.44 -0.633461 1.44309 0
M  V30 12008 C 1152.69 -1.39031 1.46679 0
M  V30 12009 C 1153.01 -1.94745 0.0997165 0
M  V30 12010 O 1152.28 -1.75637 -0.867659 0
M  V30 12011 H 1150.86 -0.516051 0.540093 0
M  V30 12012 H 1153.52 -0.745739 1.80069 0
M  V30 12013 H 1152.62 -2.2228 2.19085 0
M  V30 12014 N 1152.92 -1.31168 -0.873655 0
M  V30 12015 C 1154.33 -1.18584 -1.44203 0
M  V30 12016 C 1154.68 0.209114 -1.95082 0
M  V30 12017 O 1153.81 1.10662 -1.85965 0
M  V30 12018 C 1154.4 -2.14668 -2.62112 0
M  V30 12019 C 1152.96 -2.06029 -3.15006 0
M  V30 12020 C 1152.11 -2.04106 -1.87712 0
M  V30 12021 H 1155.06 -1.43273 -0.682536 0
M  V30 12022 H 1155.08 -1.73413 -3.38686 0
M  V30 12023 H 1154.59 -3.16186 -2.25051 0
M  V30 12024 H 1152.69 -1.07693 -3.56697 0
M  V30 12025 H 1152.8 -2.9496 -3.77539 0
M  V30 12026 H 1151.17 -1.49069 -2.0652 0
M  V30 12027 H 1151.95 -3.07373 -1.52894 0
M  V30 12028 N 1154.4 1.08748 -1.14068 0
M  V30 12029 C 1155.62 1.84814 -0.930138 0
M  V30 12030 C 1156.04 1.81461 0.521267 0
M  V30 12031 O 1155.4 1.21577 1.36108 0
M  V30 12032 C 1155.45 3.32501 -1.41863 0
M  V30 12033 O 1155.17 3.35846 -2.81317 0
M  V30 12034 C 1156.67 4.25384 -1.24753 0
M  V30 12035 H 1153.89 0.583546 -0.331233 0
M  V30 12036 H 1156.43 1.37366 -1.51495 0
M  V30 12037 H 1154.59 3.7735 -0.876664 0
M  V30 12038 H 1155 4.28013 -3.03159 0
M  V30 12039 H 1156.48 5.27138 -1.63798 0
M  V30 12040 H 1156.95 4.38789 -0.18999 0
M  V30 12041 H 1157.56 3.86357 -1.77787 0
M  V30 12042 N 1155.87 0.935264 1.26849 0
M  V30 12043 C 1156.82 0.430895 2.28574 0
M  V30 12044 C 1157.82 -0.488739 1.62196 0
M  V30 12045 O 1159.02 -0.367605 1.76206 0
M  V30 12046 H 1155.4 0.120793 0.742235 0
M  V30 12047 H 1157.37 1.3015 2.68521 0
M  V30 12048 C 1156.12 -0.294053 3.46454 0
M  V30 12049 H 1155.44 0.404416 3.97749 0
M  V30 12050 H 1156.88 -0.611272 4.19571 0
M  V30 12051 C 1155.34 -1.50975 3.01178 0
M  V30 12052 O 1155.87 -2.60826 3.05504 0
M  V30 12053 N 1154.08 -1.36423 2.56587 0
M  V30 12054 H 1153.62 -0.470483 2.53267 0
M  V30 12055 H 1153.58 -2.17886 2.26656 0
M  V30 12056 N 1157.35 -1.41121 0.701616 0
M  V30 12057 C 1158.76 -1.84122 0.309208 0
M  V30 12058 C 1159.11 -1.58695 -1.15371 0
M  V30 12059 O 1158.24 -1.06053 -1.88631 0
M  V30 12060 C 1158.83 -3.34233 0.554429 0
M  V30 12061 C 1157.39 -3.7578 0.215876 0
M  V30 12062 C 1156.54 -2.6447 0.833729 0
M  V30 12063 H 1159.49 -1.30587 0.901822 0
M  V30 12064 H 1159.51 -3.8005 -0.18491 0
M  V30 12065 H 1159.02 -3.52707 1.61923 0
M  V30 12066 H 1157.13 -3.62905 -0.844421 0
M  V30 12067 H 1157.24 -4.74319 0.675118 0
M  V30 12068 H 1155.6 -2.5334 0.262851 0
M  V30 12069 H 1156.39 -2.85761 1.90252 0
M  V30 12070 N 1158.83 -0.446794 -1.51134 0
M  V30 12071 C 1160.11 0.176892 -1.94798 0
M  V30 12072 C 1160.49 1.59229 -1.38598 0
M  V30 12073 O 1159.84 2.21097 -0.576905 0
M  V30 12074 C 1160.05 0.145 -3.48699 0
M  V30 12075 C 1161.39 0.345917 -4.23189 0
M  V30 12076 O 1162.42 0.222691 -3.55503 0
M  V30 12077 O 1161.28 0.592112 -5.43283 0
M  V30 12078 H 1158.37 0.12486 -0.81752 0
M  V30 12079 H 1160.92 -0.505453 -1.61998 0
M  V30 12080 H 1159.69 -0.844156 -3.82086 0
M  V30 12081 H 1159.31 0.869851 -3.87968 0
M  V30 12082 N 1160.31 1.56586 -0.178487 0
M  V30 12083 C 1161.72 1.83633 0.337009 0
M  V30 12084 C 1162.07 1.09857 1.6256 0
M  V30 12085 O 1161.2 0.353933 2.13486 0
M  V30 12086 C 1161.79 3.33112 0.618225 0
M  V30 12087 C 1160.35 3.60629 1.07814 0
M  V30 12088 C 1159.5 2.7705 0.117825 0
M  V30 12089 H 1162.45 1.53508 -0.402612 0
M  V30 12090 H 1162.47 3.5098 1.46947 0
M  V30 12091 H 1161.98 3.8678 -0.319808 0
M  V30 12092 H 1160.08 3.12378 2.03103 0
M  V30 12093 H 1160.19 4.68921 0.982339 0
M  V30 12094 H 1158.56 2.47125 0.616563 0
M  V30 12095 H 1159.34 3.33501 -0.814356 0
M  V30 12096 N 1161.79 -0.095206 1.57312 0
M  V30 12097 C 1163.01 -0.81614 1.90667 0
M  V30 12098 C 1163.44 -1.71494 0.772746 0
M  V30 12099 O 1162.79 -1.79192 -0.275682 0
M  V30 12100 C 1162.84 -1.60555 3.22885 0
M  V30 12101 O 1161.95 -2.71448 3.10467 0
M  V30 12102 H 1161.29 -0.224217 0.624998 0
M  V30 12103 H 1163.82 -0.070464 2.04479 0
M  V30 12104 H 1163.83 -1.98979 3.5619 0
M  V30 12105 H 1162.5 -0.945918 4.05 0
M  V30 12106 H 1161.08 -2.36053 2.88675 0
M  V30 12107 N 1163.26 -1.53291 -0.366026 0
M  V30 12108 C 1164.17 -1.82656 -1.47221 0
M  V30 12109 C 1165.19 -0.71491 -1.58635 0
M  V30 12110 O 1166.37 -1.00492 -1.74538 0
M  V30 12111 C 1163.43 -2.00995 -2.82492 0
M  V30 12112 C 1162.49 -3.24895 -2.8061 0
M  V30 12113 C 1161.73 -3.4235 -4.09429 0
M  V30 12114 O 1161.95 -2.6411 -5.05571 0
M  V30 12115 O 1160.88 -4.35702 -4.15268 0
M  V30 12116 H 1164.71 -2.76634 -1.2533 0
M  V30 12117 H 1162.29 -1.38665 -0.556084 0
M  V30 12118 H 1164.18 -2.14632 -3.62645 0
M  V30 12119 H 1162.85 -1.10207 -3.04362 0
M  V30 12120 H 1161.76 -3.16682 -1.99157 0
M  V30 12121 H 1163.09 -4.15604 -2.63694 0
M  V30 12122 N 1164.74 0.6258 -1.44643 0
M  V30 12123 C 1166.15 1.20751 -1.42394 0
M  V30 12124 C 1166.5 1.95685 -0.142047 0
M  V30 12125 O 1165.63 2.02715 0.757332 0
M  V30 12126 C 1166.22 2.1964 -2.57961 0
M  V30 12127 C 1164.78 2.73227 -2.5889 0
M  V30 12128 C 1163.93 1.48315 -2.34303 0
M  V30 12129 H 1166.88 0.416162 -1.53146 0
M  V30 12130 H 1166.9 3.02342 -2.31019 0
M  V30 12131 H 1166.41 1.65073 -3.51244 0
M  V30 12132 H 1164.52 3.31782 -1.69563 0
M  V30 12133 H 1164.63 3.18902 -3.57545 0
M  V30 12134 H 1162.99 1.76634 -1.83501 0
M  V30 12135 H 1163.78 0.956427 -3.29708 0
M  V30 12136 N 1166.22 1.31629 0.866686 0
M  V30 12137 C 1167.5 1.12136 1.60265 0
M  V30 12138 C 1167.88 -0.322729 2.08618 0
M  V30 12139 O 1167.23 -1.31738 1.86701 0
M  V30 12140 C 1167.44 2.13845 2.7581 0
M  V30 12141 C 1168.78 2.46541 3.45692 0
M  V30 12142 O 1169.81 2.12298 2.86021 0
M  V30 12143 O 1168.67 3.05194 4.53342 0
M  V30 12144 H 1165.76 0.431923 0.705246 0
M  V30 12145 H 1168.31 1.43119 0.911863 0
M  V30 12146 H 1167.08 3.10967 2.37518 0
M  V30 12147 H 1166.7 1.83786 3.52574 0
M  V30 12148 N 1167.7 -1.08142 1.14644 0
M  V30 12149 C 1168.63 -2.17139 0.858667 0
M  V30 12150 C 1169.61 -1.69064 -0.187452 0
M  V30 12151 O 1170.8 -1.94151 -0.0435458 0
M  V30 12152 C 1167.93 -3.45648 0.33834 0
M  V30 12153 C 1166.88 -4.07129 1.32021 0
M  V30 12154 C 1166.21 -5.30623 0.659075 0
M  V30 12155 C 1167.51 -4.48095 2.68343 0
M  V30 12156 H 1169.2 -2.41468 1.77012 0
M  V30 12157 H 1166.75 -1.16052 0.852523 0
M  V30 12158 H 1168.7 -4.21216 0.124611 0
M  V30 12159 H 1167.42 -3.2088 -0.608553 0
M  V30 12160 H 1166.08 -3.33596 1.52016 0
M  V30 12161 H 1165.73 -5.02142 -0.293711 0
M  V30 12162 H 1165.43 -5.72714 1.31427 0
M  V30 12163 H 1166.95 -6.08903 0.454933 0
M  V30 12164 H 1168.37 -5.14828 2.5224 0
M  V30 12165 H 1166.76 -5.01113 3.30161 0
M  V30 12166 H 1167.83 -3.59852 3.25015 0
M  V30 12167 N 1169.18 -0.941978 -1.26351 0
M  V30 12168 C 1170.12 -0.450906 -2.26353 0
M  V30 12169 C 1171.09 0.489857 -1.58712 0
M  V30 12170 O 1172.28 0.40589 -1.86433 0
M  V30 12171 C 1169.42 0.277054 -3.43986 0
M  V30 12172 C 1168.53 -0.699474 -4.263 0
M  V30 12173 C 1167.67 0.0497661 -5.31177 0
M  V30 12174 C 1166.71 -0.918531 -6.05169 0
M  V30 12175 N 1165.84 -0.200993 -7.01812 0
M  V30 12176 H 1170.68 -1.30861 -2.6773 0
M  V30 12177 H 1168.22 -0.656514 -1.31637 0
M  V30 12178 H 1170.18 0.715567 -4.11018 0
M  V30 12179 H 1168.81 1.09889 -3.0352 0
M  V30 12180 H 1167.86 -1.2565 -3.59049 0
M  V30 12181 H 1169.17 -1.4389 -4.77595 0
M  V30 12182 H 1168.33 0.547521 -6.04224 0
M  V30 12183 H 1167.07 0.822068 -4.80722 0
M  V30 12184 H 1166.07 -1.4274 -5.30947 0
M  V30 12185 H 1167.3 -1.69085 -6.57713 0
M  V30 12186 H 1165.24 0.552803 -6.53667 0
M  V30 12187 H 1165.16 -0.879735 -7.50864 0
M  V30 12188 H 1166.43 0.275642 -7.79012 0
M  V30 12189 N 1170.66 1.40747 -0.709091 0
M  V30 12190 C 1171.6 2.32564 -0.0411392 0
M  V30 12191 C 1172.6 1.51692 0.75404 0
M  V30 12192 O 1173.8 1.67537 0.658139 0
M  V30 12193 H 1170.18 0.75198 0.00549889 0
M  V30 12194 H 1172.15 2.86556 -0.83235 0
M  V30 12195 C 1170.9 3.36604 0.871378 0
M  V30 12196 H 1170.22 3.98895 0.268912 0
M  V30 12197 H 1171.66 4.03359 1.30682 0
M  V30 12198 C 1170.12 2.71566 1.99384 0
M  V30 12199 O 1170.65 2.57392 3.08403 0
M  V30 12200 N 1168.86 2.3005 1.77554 0
M  V30 12201 H 1168.4 2.41778 0.888898 0
M  V30 12202 H 1168.36 1.8687 2.52838 0
M  V30 12203 N 1172.13 0.454803 1.50895 0
M  V30 12204 C 1173.54 -0.00421212 1.867 0
M  V30 12205 C 1173.9 -1.4037 1.3708 0
M  V30 12206 O 1173.02 -2.03755 0.728884 0
M  V30 12207 C 1173.62 -0.0144196 3.38797 0
M  V30 12208 C 1172.17 -0.417905 3.74073 0
M  V30 12209 C 1171.32 0.37801 2.74711 0
M  V30 12210 H 1174.27 0.669849 1.4387 0
M  V30 12211 H 1174.29 -0.820172 3.71555 0
M  V30 12212 H 1173.81 1.00427 3.74881 0
M  V30 12213 H 1171.91 -1.44155 3.43584 0
M  V30 12214 H 1172.02 -0.130568 4.78922 0
M  V30 12215 H 1170.38 -0.166089 2.54158 0
M  V30 12216 H 1171.17 1.3959 3.13639 0
M  V30 12217 N 1173.61 -1.56489 0.186789 0
M  V30 12218 C 1174.84 -2.01429 -0.459326 0
M  V30 12219 C 1175.25 -1.06611 -1.56303 0
M  V30 12220 O 1174.59 -0.0617053 -1.83596 0
M  V30 12221 C 1174.65 -3.42778 -1.08367 0
M  V30 12222 C 1174.32 -4.56843 -0.119719 0
M  V30 12223 C 1175.32 -5.15594 0.667782 0
M  V30 12224 C 1173 -5.02299 -0.0110494 0
M  V30 12225 C 1174.99 -6.18242 1.551 0
M  V30 12226 C 1172.68 -6.04793 0.875738 0
M  V30 12227 C 1173.68 -6.62637 1.65534 0
M  V30 12228 O 1173.37 -7.63141 2.52728 0
M  V30 12229 H 1173.1 -0.665175 -0.120492 0
M  V30 12230 H 1175.65 -2.03338 0.290283 0
M  V30 12231 H 1173.88 -3.3783 -1.8817 0
M  V30 12232 H 1175.57 -3.71577 -1.63357 0
M  V30 12233 H 1176.34 -4.81348 0.594085 0
M  V30 12234 H 1172.22 -4.56977 -0.607667 0
M  V30 12235 H 1175.76 -6.63319 2.15995 0
M  V30 12236 H 1171.66 -6.38462 0.950581 0
M  V30 12237 H 1172.43 -7.80527 2.46415 0
M  V30 12238 N 1175.09 0.086862 -1.5736 0
M  V30 12239 C 1176 1.12297 -2.05977 0
M  V30 12240 C 1177.02 1.43347 -0.986284 0
M  V30 12241 O 1178.19 1.53825 -1.3 0
M  V30 12242 C 1175.26 2.42131 -2.4814 0
M  V30 12243 C 1174.32 2.18189 -3.69719 0
M  V30 12244 C 1173.55 3.41833 -4.09861 0
M  V30 12245 O 1173.77 4.50383 -3.50016 0
M  V30 12246 O 1172.71 3.30934 -5.02759 0
M  V30 12247 H 1176.53 0.740012 -2.94546 0
M  V30 12248 H 1174.12 0.29995 -1.46358 0
M  V30 12249 H 1176 3.18568 -2.75848 0
M  V30 12250 H 1174.68 2.79837 -1.62705 0
M  V30 12251 H 1173.58 1.39506 -3.47115 0
M  V30 12252 H 1174.92 1.85372 -4.55959 0
M  V30 12253 N 1176.57 1.53483 0.357892 0
M  V30 12254 C 1177.98 1.43426 0.700073 0
M  V30 12255 C 1178.18 0.579493 1.92987 0
M  V30 12256 O 1177.24 0.0649086 2.52417 0
M  V30 12257 C 1178.55 2.86723 0.906099 0
M  V30 12258 C 1180.1 2.96405 1.00563 0
M  V30 12259 C 1180.58 4.4078 1.24407 0
M  V30 12260 N 1182.07 4.44243 1.3116 0
M  V30 12261 C 1182.8 5.53069 1.51333 0
M  V30 12262 N 1182.3 6.71928 1.68774 0
M  V30 12263 N 1184.09 5.40659 1.53765 0
M  V30 12264 H 1176.24 2.07559 -0.450894 0
M  V30 12265 H 1178.5 0.937649 -0.139711 0
M  V30 12266 H 1178.21 3.51622 0.0741579 0
M  V30 12267 H 1178.08 3.30827 1.81199 0
M  V30 12268 H 1180.47 2.31656 1.8281 0
M  V30 12269 H 1180.55 2.55684 0.0769512 0
M  V30 12270 H 1180.2 5.06105 0.426575 0
M  V30 12271 H 1180.13 4.7908 2.18608 0
M  V30 12272 H 1182.62 3.58587 1.19265 0
M  V30 12273 H 1182.93 7.50634 1.83762 0
M  V30 12274 H 1181.28 6.749 1.65937 0
M  V30 12275 H 1184.47 4.46764 1.39713 0
M  V30 12276 H 1184.64 6.25535 1.69146 0
M  V30 12277 N 1178.05 -0.61812 1.44973 0
M  V30 12278 C 1179.29 -1.37343 1.47715 0
M  V30 12279 C 1179.61 -1.95239 0.118784 0
M  V30 12280 O 1180.81 -2.7149 0.0237981 0
M  V30 12281 C 1179.27 -2.48732 2.60116 0
M  V30 12282 C 1178.88 -1.97294 4.02218 0
M  V30 12283 C 1180.62 -3.25831 2.72093 0
M  V30 12284 C 1178.53 -3.06102 5.06019 0
M  V30 12285 H 1177.46 -0.516175 0.549617 0
M  V30 12286 H 1180.11 -0.663617 1.7108 0
M  V30 12287 H 1178.49 -3.2235 2.30014 0
M  V30 12288 H 1179.67 -1.30455 4.41948 0
M  V30 12289 H 1177.98 -1.32972 3.94598 0
M  V30 12290 H 1180.58 -4.06968 3.46815 0
M  V30 12291 H 1180.92 -3.76156 1.7836 0
M  V30 12292 H 1181.45 -2.59309 3.01668 0
M  V30 12293 H 1178.19 -2.60706 6.01426 0
M  V30 12294 H 1177.71 -3.71541 4.70869 0
M  V30 12295 H 1179.39 -3.70662 5.30301 0
M  V30 12296 N 1179.52 -1.32087 -0.859693 0
M  V30 12297 C 1180.46 -1.16426 -1.97428 0
M  V30 12298 C 1181.47 -0.100582 -1.62489 0
M  V30 12299 O 1182.66 -0.349063 -1.75054 0
M  V30 12300 C 1179.76 -0.758822 -3.30295 0
M  V30 12301 C 1178.93 -1.90971 -3.93508 0
M  V30 12302 C 1177.99 -1.48865 -5.04704 0
M  V30 12303 O 1177.02 -2.1999 -5.2497 0
M  V30 12304 N 1178.22 -0.38182 -5.79243 0
M  V30 12305 H 1180.98 -2.12433 -2.11406 0
M  V30 12306 H 1178.54 -1.24558 -1.03426 0
M  V30 12307 H 1180.54 -0.459643 -4.02081 0
M  V30 12308 H 1179.11 0.109944 -3.12407 0
M  V30 12309 H 1178.33 -2.37566 -3.14573 0
M  V30 12310 H 1179.61 -2.68032 -4.32477 0
M  V30 12311 H 1179.01 0.210268 -5.65309 0
M  V30 12312 H 1177.57 -0.142224 -6.51645 0
M  V30 12313 N 1181 1.07532 -1.15215 0
M  V30 12314 C 1181.96 2.1286 -0.84989 0
M  V30 12315 C 1182.96 1.60103 0.149524 0
M  V30 12316 O 1184.15 1.74017 -0.0798918 0
M  V30 12317 C 1181.29 3.3984 -0.268617 0
M  V30 12318 H 1182.48 2.41106 -1.78347 0
M  V30 12319 H 1180.03 1.23392 -0.959386 0
M  V30 12320 H 1180.77 3.17235 0.67325 0
M  V30 12321 H 1180.55 3.79433 -0.988592 0
M  V30 12322 H 1182.04 4.17533 -0.0746554 0
M  V30 12323 N 1182.48 0.948665 1.2585 0
M  V30 12324 C 1183.39 0.470525 2.29833 0
M  V30 12325 C 1184.41 -0.45919 1.67832 0
M  V30 12326 O 1185.58 -0.336893 1.98562 0
M  V30 12327 C 1182.65 -0.249635 3.458 0
M  V30 12328 C 1181.71 0.717559 4.23261 0
M  V30 12329 C 1180.94 0.0316724 5.33691 0
M  V30 12330 O 1181.16 -1.18384 5.5798 0
M  V30 12331 O 1180.1 0.71418 5.97648 0
M  V30 12332 H 1183.92 1.33447 2.72811 0
M  V30 12333 H 1181.51 0.714864 1.31187 0
M  V30 12334 H 1183.39 -0.654993 4.16279 0
M  V30 12335 H 1182.07 -1.08885 3.04837 0
M  V30 12336 H 1180.97 1.17301 3.55234 0
M  V30 12337 H 1182.31 1.52461 4.67992 0
M  V30 12338 N 1183.96 -1.40369 0.716545 0
M  V30 12339 C 1184.92 -2.29083 0.0733105 0
M  V30 12340 C 1185.92 -1.45415 -0.686378 0
M  V30 12341 O 1187.11 -1.66316 -0.518139 0
M  V30 12342 C 1184.24 -3.28639 -0.906032 0
M  V30 12343 H 1185.44 -2.87464 0.85467 0
M  V30 12344 H 1182.99 -1.48706 0.481256 0
M  V30 12345 H 1183.72 -2.75279 -1.71441 0
M  V30 12346 H 1183.51 -3.90405 -0.364163 0
M  V30 12347 H 1185 -3.95066 -1.35324 0
M  V30 12348 N 1185.44 -0.462799 -1.50652 0
M  V30 12349 C 1186.67 0.0928413 -2.06391 0
M  V30 12350 C 1187.07 1.34791 -1.3277 0
M  V30 12351 O 1186.42 1.79555 -0.388048 0
M  V30 12352 C 1186.48 0.45517 -3.56607 0
M  V30 12353 C 1186.14 -0.696698 -4.51658 0
M  V30 12354 C 1187.14 -1.57633 -4.95427 0
M  V30 12355 C 1184.83 -0.884669 -4.94448 0
M  V30 12356 C 1186.82 -2.62841 -5.80684 0
M  V30 12357 C 1184.51 -1.93998 -5.79489 0
M  V30 12358 C 1185.5 -2.81022 -6.22508 0
M  V30 12359 O 1185.19 -3.84738 -7.05856 0
M  V30 12360 H 1184.92 -3.18898e-05 -0.676 0
M  V30 12361 H 1187.48 -0.648161 -1.94905 0
M  V30 12362 H 1185.71 1.24924 -3.65966 0
M  V30 12363 H 1187.4 0.944923 -3.94748 0
M  V30 12364 H 1188.16 -1.44276 -4.63044 0
M  V30 12365 H 1184.04 -0.216807 -4.6049 0
M  V30 12366 H 1187.59 -3.30797 -6.14182 0
M  V30 12367 H 1183.48 -2.07366 -6.11285 0
M  V30 12368 H 1184.25 -3.81626 -7.24088 0
M  V30 12369 N 1186.91 1.56388 -0.195085 0
M  V30 12370 C 1188.19 1.89329 0.491303 0
M  V30 12371 C 1188.57 1.10861 1.79647 0
M  V30 12372 O 1187.92 0.209696 2.27536 0
M  V30 12373 C 1188.13 3.417 0.710096 0
M  V30 12374 C 1189.48 4.11931 1.02947 0
M  V30 12375 O 1190.5 3.4715 0.797817 0
M  V30 12376 O 1189.36 5.26423 1.46767 0
M  V30 12377 H 1186.45 0.786335 0.256137 0
M  V30 12378 H 1189 1.68061 -0.235298 0
M  V30 12379 H 1187.77 3.90727 -0.211604 0
M  V30 12380 H 1187.4 3.6866 1.48916 0
M  V30 12381 N 1188.39 -0.0785156 1.57404 0
M  V30 12382 C 1189.36 -1.07835 2.02248 0
M  V30 12383 C 1190.36 -1.31987 0.918475 0
M  V30 12384 O 1191.55 -1.27821 1.18353 0
M  V30 12385 C 1188.68 -2.42361 2.39737 0
M  V30 12386 H 1189.87 -0.691995 2.91807 0
M  V30 12387 H 1187.42 -0.32405 1.52904 0
M  V30 12388 H 1188.16 -2.85841 1.53183 0
M  V30 12389 H 1187.94 -2.26174 3.20293 0
M  V30 12390 H 1189.43 -3.14241 2.75031 0
M  V30 12391 N 1189.87 -1.5367 -0.349747 0
M  V30 12392 C 1190.8 -1.7603 -1.4522 0
M  V30 12393 C 1191.78 -0.609171 -1.50758 0
M  V30 12394 O 1192.97 -0.843613 -1.68569 0
M  V30 12395 C 1190.09 -1.85336 -2.83493 0
M  V30 12396 C 1189.14 -3.07438 -2.95608 0
M  V30 12397 S 1189.97 -4.66625 -2.62719 0
M  V30 12398 C 1191.13 -4.78802 -4.03112 0
M  V30 12399 H 1191.36 -2.69263 -1.26035 0
M  V30 12400 H 1188.89 -1.4446 -0.545044 0
M  V30 12401 H 1190.85 -1.91383 -3.63157 0
M  V30 12402 H 1189.51 -0.931267 -2.99977 0
M  V30 12403 H 1188.71 -3.10606 -3.96913 0
M  V30 12404 H 1188.31 -2.99585 -2.23886 0
M  V30 12405 H 1190.6 -4.5983 -4.97557 0
M  V30 12406 H 1191.54 -5.80886 -4.04941 0
M  V30 12407 H 1191.95 -4.07305 -3.90849 0
M  V30 12408 N 1191.35 0.610423 -1.45298 0
M  V30 12409 C 1192.57 1.40112 -1.52917 0
M  V30 12410 C 1193 1.87404 -0.161696 0
M  V30 12411 O 1192.36 1.59973 0.853135 0
M  V30 12412 C 1192.4 2.58359 -2.51561 0
M  V30 12413 O 1191.51 3.58895 -2.03146 0
M  V30 12414 H 1190.85 0.41841 -0.515586 0
M  V30 12415 H 1193.38 0.743159 -1.90626 0
M  V30 12416 H 1193.39 3.0564 -2.70275 0
M  V30 12417 H 1192.06 2.23286 -3.50879 0
M  V30 12418 H 1190.64 3.18282 -1.94296 0
M  V30 12419 N 1192.83 1.32541 0.852676 0
M  V30 12420 C 1194.07 1.22971 1.60383 0
M  V30 12421 C 1194.4 -0.208009 1.93887 0
M  V30 12422 O 1193.67 -1.13326 1.59794 0
M  V30 12423 H 1192.25 0.452149 0.594618 0
M  V30 12424 H 1194.91 1.66089 1.01983 0
M  V30 12425 H 1194 1.81373 2.53989 0
M  V30 12426 N 1194.3 -1.0692 1.15784 0
M  V30 12427 C 1195.55 -1.78983 0.929944 0
M  V30 12428 C 1195.87 -1.87884 -0.543969 0
M  V30 12429 O 1197.07 -2.56513 -0.889578 0
M  V30 12430 C 1195.53 -3.21657 1.61446 0
M  V30 12431 C 1195.14 -3.20943 3.12569 0
M  V30 12432 C 1196.88 -3.98299 1.46828 0
M  V30 12433 C 1194.79 -4.58298 3.73788 0
M  V30 12434 H 1193.72 -0.670809 0.344284 0
M  V30 12435 H 1196.37 -1.19975 1.38846 0
M  V30 12436 H 1194.75 -3.80885 1.08364 0
M  V30 12437 H 1195.92 -2.71334 3.72444 0
M  V30 12438 H 1194.24 -2.57799 3.26999 0
M  V30 12439 H 1196.84 -4.99822 1.89952 0
M  V30 12440 H 1197.18 -4.14213 0.416358 0
M  V30 12441 H 1197.71 -3.45577 1.97031 0
M  V30 12442 H 1194.45 -4.47588 4.789 0
M  V30 12443 H 1193.97 -5.08126 3.18698 0
M  V30 12444 H 1195.65 -5.27262 3.74972 0
M  V30 12445 N 1195.78 -0.955326 -1.25345 0
M  V30 12446 C 1196.71 -0.4334 -2.25065 0
M  V30 12447 C 1197.73 0.451099 -1.56425 0
M  V30 12448 O 1198.92 0.259265 -1.76607 0
M  V30 12449 C 1196.02 0.394809 -3.36592 0
M  V30 12450 C 1195.19 -0.476856 -4.34793 0
M  V30 12451 C 1194.25 0.293269 -5.25382 0
M  V30 12452 O 1193.27 -0.30857 -5.68363 0
M  V30 12453 N 1194.48 1.58617 -5.58409 0
M  V30 12454 H 1197.24 -1.29073 -2.70482 0
M  V30 12455 H 1194.8 -0.825764 -1.39258 0
M  V30 12456 H 1196.79 0.917747 -3.94157 0
M  V30 12457 H 1195.36 1.153 -2.90559 0
M  V30 12458 H 1194.58 -1.18089 -3.76097 0
M  V30 12459 H 1195.87 -1.07178 -4.97384 0
M  V30 12460 H 1195.27 2.09705 -5.25395 0
M  V30 12461 H 1193.83 2.05506 -6.18555 0
M  V30 12462 N 1197.26 1.39987 -0.723979 0
M  V30 12463 C 1198.49 2.05037 -0.27702 0
M  V30 12464 C 1198.9 1.54565 1.08421 0
M  V30 12465 O 1198.26 0.705795 1.683 0
M  V30 12466 C 1198.31 3.60582 -0.25751 0
M  V30 12467 O 1198.03 4.09194 -1.565 0
M  V30 12468 C 1199.53 4.42817 0.206972 0
M  V30 12469 H 1196.75 0.659637 -0.122963 0
M  V30 12470 H 1199.3 1.7924 -0.98454 0
M  V30 12471 H 1197.45 3.85319 0.401037 0
M  V30 12472 H 1197.87 5.03447 -1.47112 0
M  V30 12473 H 1199.34 5.5174 0.16947 0
M  V30 12474 H 1199.82 4.21023 1.25045 0
M  V30 12475 H 1200.42 4.23205 -0.421604 0
M  V30 12476 N 1198.74 0.470782 1.50404 0
M  V30 12477 C 1199.65 -0.328877 2.32283 0
M  V30 12478 C 1200.67 -0.99629 1.42654 0
M  V30 12479 O 1201.84 -0.984331 1.75707 0
M  V30 12480 C 1198.91 -1.39675 3.1732 0
M  V30 12481 C 1197.97 -0.745965 4.22769 0
M  V30 12482 C 1197.2 -1.76295 5.03742 0
M  V30 12483 O 1197.42 -2.98943 4.85788 0
M  V30 12484 O 1196.36 -1.33495 5.86909 0
M  V30 12485 H 1200.18 0.340491 3.01785 0
M  V30 12486 H 1197.77 0.232637 1.47578 0
M  V30 12487 H 1199.65 -2.0153 3.70086 0
M  V30 12488 H 1198.33 -2.04959 2.50546 0
M  V30 12489 H 1197.23 -0.0884647 3.73995 0
M  V30 12490 H 1198.57 -0.136074 4.92012 0
M  V30 12491 N 1200.22 -1.56282 0.203376 0
M  V30 12492 C 1201.47 -1.97421 -0.432346 0
M  V30 12493 C 1201.79 -1.0917 -1.61576 0
M  V30 12494 O 1201.06 -0.164759 -1.95206 0
M  V30 12495 H 1199.64 -0.729062 -0.162721 0
M  V30 12496 H 1202.3 -1.927 0.292039 0
M  V30 12497 H 1201.39 -3.02429 -0.770918 0
M  V30 12498 N 1201.7 0.070167 -1.57444 0
M  V30 12499 C 1202.92 0.781894 -1.91557 0
M  V30 12500 C 1203.34 1.71037 -0.799489 0
M  V30 12501 O 1202.7 1.81082 0.227062 0
M  V30 12502 C 1202.75 1.57415 -3.25427 0
M  V30 12503 O 1202.47 0.682991 -4.32743 0
M  V30 12504 C 1203.97 2.38673 -3.73564 0
M  V30 12505 H 1201.19 0.222211 -0.633138 0
M  V30 12506 H 1203.73 0.0399504 -2.04461 0
M  V30 12507 H 1201.89 2.26835 -3.14045 0
M  V30 12508 H 1202.3 1.2342 -5.09772 0
M  V30 12509 H 1203.78 2.89716 -4.6986 0
M  V30 12510 H 1204.25 3.18269 -3.02657 0
M  V30 12511 H 1204.86 1.74405 -3.87896 0
M  V30 12512 N 1203.17 1.53854 0.341593 0
M  V30 12513 C 1204.45 1.61823 1.09875 0
M  V30 12514 C 1204.83 0.440711 2.06448 0
M  V30 12515 O 1204.18 -0.566833 2.21358 0
M  V30 12516 C 1204.39 2.9799 1.81668 0
M  V30 12517 C 1205.74 3.53411 2.35341 0
M  V30 12518 O 1206.76 3.00177 1.91761 0
M  V30 12519 O 1205.62 4.4653 3.15076 0
M  V30 12520 H 1202.71 0.654599 0.5054 0
M  V30 12521 H 1205.26 1.66199 0.342929 0
M  V30 12522 H 1204.03 3.7513 1.11323 0
M  V30 12523 H 1203.65 2.97213 2.64103 0
M  V30 12524 N 1204.65 -0.602709 1.4562 0
M  V30 12525 C 1205.93 -1.36224 1.40366 0
M  V30 12526 C 1206.31 -2.1096 0.0767645 0
M  V30 12527 O 1205.66 -2.08207 -0.941378 0
M  V30 12528 C 1205.87 -2.30499 2.62052 0
M  V30 12529 C 1207.21 -2.92954 3.07348 0
M  V30 12530 O 1208.24 -2.40818 2.62459 0
M  V30 12531 O 1207.1 -3.87601 3.85263 0
M  V30 12532 H 1204.19 -0.611064 0.557253 0
M  V30 12533 H 1206.74 -0.625391 1.57756 0
M  V30 12534 H 1205.51 -1.74566 3.50203 0
M  V30 12535 H 1205.13 -3.11556 2.4702 0
M  V30 12536 N 1206.13 -1.32992 -0.845635 0
M  V30 12537 C 1207.41 -1.14671 -1.58461 0
M  V30 12538 C 1207.79 0.289498 -2.09106 0
M  V30 12539 O 1207.13 1.28751 -1.88773 0
M  V30 12540 C 1207.34 -2.18206 -2.72373 0
M  V30 12541 C 1208.69 -2.5201 -3.41726 0
M  V30 12542 O 1209.72 -2.16821 -2.82608 0
M  V30 12543 O 1208.58 -3.12368 -4.48429 0
M  V30 12544 H 1205.67 -0.443088 -0.698285 0
M  V30 12545 H 1208.22 -1.44552 -0.888978 0
M  V30 12546 H 1206.99 -3.14707 -2.32541 0
M  V30 12547 H 1206.61 -1.89372 -3.49605 0
M  V30 12548 N 1207.61 1.06304 -1.1635 0
M  V30 12549 C 1208.86 1.78747 -0.943074 0
M  V30 12550 C 1209.18 1.87646 0.530483 0
M  V30 12551 O 1208.45 1.38506 1.38538 0
M  V30 12552 H 1207.03 0.662072 -0.345932 0
M  V30 12553 H 1209.69 1.28413 -1.46615 0
M  V30 12554 H 1208.78 2.80828 -1.3617 0
M  V30 12555 N 1209.09 0.96196 1.24836 0
M  V30 12556 C 1210.33 0.619489 1.92371 0
M  V30 12557 C 1210.65 -0.847233 1.75633 0
M  V30 12558 O 1209.92 -1.60419 1.12439 0
M  V30 12559 H 1208.5 0.226129 0.711951 0
M  V30 12560 H 1211.17 1.22179 1.5185 0
M  V30 12561 H 1210.26 0.855128 3.00157 0
M  V30 12562 N 1210.56 -1.39601 0.731392 0
M  V30 12563 C 1211.81 -2.0019 0.277208 0
M  V30 12564 C 1212.13 -1.5832 -1.13841 0
M  V30 12565 O 1211.4 -0.829793 -1.77458 0
M  V30 12566 H 1209.98 -0.740344 0.0995006 0
M  V30 12567 H 1212.64 -1.70704 0.940547 0
M  V30 12568 H 1211.74 -3.10427 0.322749 0
M  V30 12569 N 1212.04 -0.478751 -1.50152 0
M  V30 12570 C 1213.32 0.135533 -1.9513 0
M  V30 12571 C 1213.7 1.56253 -1.41944 0
M  V30 12572 O 1213.05 2.19824 -0.623673 0
M  V30 12573 C 1213.26 0.0710037 -3.48928 0
M  V30 12574 C 1214.61 0.256075 -4.23827 0
M  V30 12575 O 1215.63 0.147234 -3.55896 0
M  V30 12576 O 1214.49 0.476741 -5.44417 0
M  V30 12577 H 1211.58 0.107491 -0.819985 0
M  V30 12578 H 1214.13 -0.539701 -1.60889 0
M  V30 12579 H 1212.9 -0.925012 -3.80209 0
M  V30 12580 H 1212.52 0.787362 -3.89726 0
M  V30 12581 N 1213.52 1.56172 -0.211661 0
M  V30 12582 C 1214.47 2.21206 0.719063 0
M  V30 12583 C 1215.46 1.18835 1.20725 0
M  V30 12584 O 1216.67 1.36939 1.16823 0
M  V30 12585 H 1213.04 0.709129 0.250279 0
M  V30 12586 H 1215.01 2.98038 0.147022 0
M  V30 12587 C 1213.76 2.89826 1.92084 0
M  V30 12588 H 1213.09 3.68351 1.55428 0
M  V30 12589 H 1214.53 3.38744 2.55006 0
M  V30 12590 C 1212.99 1.91756 2.77004 0
M  V30 12591 O 1213.52 1.42826 3.75451 0
M  V30 12592 N 1211.72 1.59622 2.42836 0
M  V30 12593 H 1211.27 1.99606 1.62835 0
M  V30 12594 H 1211.23 0.942641 2.99936 0
M  V30 12595 N 1215 -0.0618163 1.57479 0
M  V30 12596 C 1216.25 -0.75794 1.86918 0
M  V30 12597 C 1216.56 -1.78234 0.80572 0
M  V30 12598 O 1217.77 -2.52874 0.98827 0
M  V30 12599 C 1216.22 -1.39898 3.31597 0
M  V30 12600 C 1215.83 -0.412621 4.46096 0
M  V30 12601 C 1217.57 -2.07688 3.70224 0
M  V30 12602 C 1215.48 -1.06014 5.8182 0
M  V30 12603 H 1214.41 -0.286825 0.697314 0
M  V30 12604 H 1217.06 -0.0114386 1.83496 0
M  V30 12605 H 1215.44 -2.19408 3.29661 0
M  V30 12606 H 1216.62 0.353392 4.59443 0
M  V30 12607 H 1214.93 0.161383 4.16087 0
M  V30 12608 H 1217.53 -2.56928 4.68927 0
M  V30 12609 H 1217.87 -2.88073 3.00532 0
M  V30 12610 H 1218.41 -1.34996 3.74194 0
M  V30 12611 H 1215.15 -0.296405 6.5483 0
M  V30 12612 H 1214.67 -1.79677 5.72255 0
M  V30 12613 H 1216.34 -1.57708 6.27485 0
M  V30 12614 N 1216.48 -1.54033 -0.333429 0
M  V30 12615 C 1217.72 -1.71426 -1.0704 0
M  V30 12616 C 1218.05 -0.485496 -1.8886 0
M  V30 12617 O 1217.32 0.500555 -1.89397 0
M  V30 12618 H 1215.9 -0.632034 -0.398173 0
M  V30 12619 H 1218.56 -1.91312 -0.372252 0
M  V30 12620 H 1217.65 -2.58958 -1.74205 0
M  V30 12621 N 1217.95 0.594978 -1.45938 0
M  V30 12622 C 1219.2 1.35356 -1.51823 0
M  V30 12623 C 1219.56 1.91711 -0.162721 0
M  V30 12624 O 1218.85 1.72831 0.827047 0
M  V30 12625 C 1219.04 2.51129 -2.54301 0
M  V30 12626 C 1218.87 2.06113 -3.99684 0
M  V30 12627 C 1217.64 1.91698 -4.67525 0
M  V30 12628 C 1219.84 1.62817 -4.87848 0
M  V30 12629 N 1217.82 1.40625 -5.97577 0
M  V30 12630 C 1219.19 1.23248 -6.07626 0
M  V30 12631 C 1221.25 1.50523 -4.74602 0
M  V30 12632 C 1219.95 0.726124 -7.15626 0
M  V30 12633 C 1221.98 1.0129 -5.82661 0
M  V30 12634 C 1221.34 0.626938 -7.01604 0
M  V30 12635 H 1217.44 0.488744 -0.610454 0
M  V30 12636 H 1220.02 0.678804 -1.82484 0
M  V30 12637 H 1218.19 3.16184 -2.25571 0
M  V30 12638 H 1219.92 3.18046 -2.50257 0
M  V30 12639 H 1216.68 2.1327 -4.22863 0
M  V30 12640 H 1217.1 1.17285 -6.66763 0
M  V30 12641 H 1221.75 1.78985 -3.83046 0
M  V30 12642 H 1219.46 0.429069 -8.0696 0
M  V30 12643 H 1223.05 0.921864 -5.7445 0
M  V30 12644 H 1221.93 0.251849 -7.83795 0
M  V30 12645 N 1219.43 1.33438 0.838571 0
M  V30 12646 C 1220.68 1.24259 1.58879 0
M  V30 12647 C 1220.99 -0.189957 1.94675 0
M  V30 12648 O 1222.2 -0.40376 2.68481 0
M  V30 12649 C 1220.66 2.1773 2.86569 0
M  V30 12650 C 1220.26 3.66156 2.58135 0
M  V30 12651 C 1222.01 2.17424 3.64591 0
M  V30 12652 C 1219.92 4.5154 3.81923 0
M  V30 12653 H 1218.85 0.461534 0.59624 0
M  V30 12654 H 1221.5 1.58504 0.924588 0
M  V30 12655 H 1219.88 1.76418 3.54532 0
M  V30 12656 H 1221.05 4.1591 1.98382 0
M  V30 12657 H 1219.37 3.68754 1.93416 0
M  V30 12658 H 1221.96 2.78446 4.56478 0
M  V30 12659 H 1222.31 1.16939 3.99539 0
M  V30 12660 H 1222.84 2.571 3.03553 0
M  V30 12661 H 1219.58 5.52902 3.52107 0
M  V30 12662 H 1219.1 4.06529 4.41015 0
M  V30 12663 H 1220.78 4.65359 4.495 0
M  V30 12664 N 1220.91 -1.05686 1.16912 0
M  V30 12665 C 1221.86 -2.15417 0.877404 0
M  V30 12666 C 1222.85 -1.6868 -0.155986 0
M  V30 12667 O 1224.06 -1.79998 -0.00938156 0
M  V30 12668 H 1220.43 -0.70332 0.266168 0
M  V30 12669 H 1222.4 -2.37228 1.81012 0
M  V30 12670 C 1221.15 -3.45372 0.401696 0
M  V30 12671 H 1220.48 -3.81732 1.18832 0
M  V30 12672 H 1221.92 -4.2334 0.236418 0
M  V30 12673 C 1220.38 -3.25209 -0.87981 0
M  V30 12674 O 1220.91 -3.51322 -1.94771 0
M  V30 12675 N 1219.11 -2.78614 -0.825997 0
M  V30 12676 H 1218.66 -2.57564 0.0432439 0
M  V30 12677 H 1218.62 -2.65503 -1.68391 0
M  V30 12678 N 1222.39 -0.968567 -1.24324 0
M  V30 12679 C 1223.67 -0.547774 -1.87773 0
M  V30 12680 C 1224.05 0.975107 -1.87229 0
M  V30 12681 O 1223.39 1.84683 -1.34553 0
M  V30 12682 C 1223.6 -1.1403 -3.29846 0
M  V30 12683 C 1224.95 -1.22572 -4.06523 0
M  V30 12684 O 1225.98 -1.09287 -3.3902 0
M  V30 12685 O 1224.83 -1.43579 -5.27302 0
M  V30 12686 H 1221.93 -0.182771 -0.806551 0
M  V30 12687 H 1224.47 -1.06289 -1.3229 0
M  V30 12688 H 1223.25 -2.18303 -3.24745 0
M  V30 12689 H 1222.87 -0.609275 -3.92904 0
M  V30 12690 N 1223.87 1.39211 -0.738786 0
M  V30 12691 C 1225.11 2.0004 -0.28782 0
M  V30 12692 C 1225.44 1.58921 1.13 0
M  V30 12693 O 1224.71 0.839193 1.77015 0
M  V30 12694 H 1223.29 0.739805 -0.103425 0
M  V30 12695 H 1225.95 1.70202 -0.949587 0
M  V30 12696 H 1225.04 3.10251 -0.339208 0
M  V30 12697 N 1225.34 0.486708 1.49896 0
M  V30 12698 C 1226.62 -0.125183 1.95199 0
M  V30 12699 C 1227 -1.55498 1.42771 0
M  V30 12700 O 1226.35 -2.1949 0.635322 0
M  V30 12701 C 1226.56 -0.0524982 3.48961 0
M  V30 12702 C 1227.91 -0.233595 4.23957 0
M  V30 12703 O 1228.93 -0.128357 3.55969 0
M  V30 12704 O 1227.79 -0.447862 5.44662 0
M  V30 12705 H 1224.88 -0.103141 0.820543 0
M  V30 12706 H 1227.43 0.548226 1.60601 0
M  V30 12707 H 1226.2 0.945163 3.79714 0
M  V30 12708 H 1225.83 -0.766683 3.90138 0
M  V30 12709 N 1226.82 -1.56058 0.219941 0
M  V30 12710 C 1228.07 -1.99306 -0.40606 0
M  V30 12711 C 1228.42 -1.10505 -1.57501 0
M  V30 12712 O 1227.72 -0.154663 -1.90975 0
M  V30 12713 C 1227.91 -3.46113 -0.8911 0
M  V30 12714 C 1227.74 -4.49115 0.229307 0
M  V30 12715 C 1226.51 -5.00495 0.695169 0
M  V30 12716 C 1228.71 -5.0353 1.04701 0
M  V30 12717 N 1226.69 -5.872 1.7908 0
M  V30 12718 C 1228.06 -5.87144 1.99154 0
M  V30 12719 C 1230.12 -4.85898 1.08663 0
M  V30 12720 C 1228.82 -6.55009 2.97246 0
M  V30 12721 C 1230.85 -5.54521 2.05572 0
M  V30 12722 C 1230.21 -6.37902 2.98765 0
M  V30 12723 H 1226.31 -0.773453 -0.115304 0
M  V30 12724 H 1228.89 -1.9186 0.331342 0
M  V30 12725 H 1227.06 -3.5401 -1.59787 0
M  V30 12726 H 1228.79 -3.76281 -1.48978 0
M  V30 12727 H 1225.55 -4.72747 0.284052 0
M  V30 12728 H 1225.97 -6.35253 2.34057 0
M  V30 12729 H 1230.61 -4.21088 0.380063 0
M  V30 12730 H 1228.33 -7.19002 3.68866 0
M  V30 12731 H 1231.92 -5.42845 2.0931 0
M  V30 12732 H 1230.8 -6.90067 3.72529 0
M  V30 12733 N 1228.3 0.053464 -1.57509 0
M  V30 12734 C 1229.55 0.750212 -1.88414 0
M  V30 12735 C 1229.88 1.76288 -0.814619 0
M  V30 12736 O 1229.16 1.93728 0.173136 0
M  V30 12737 C 1229.44 1.44176 -3.29978 0
M  V30 12738 C 1229.29 0.444263 -4.47601 0
M  V30 12739 C 1230.61 2.38207 -3.70061 0
M  V30 12740 H 1227.73 0.271266 -0.685262 0
M  V30 12741 H 1230.37 0.0131676 -1.89995 0
M  V30 12742 H 1228.52 2.07001 -3.2876 0
M  V30 12743 H 1230.19 -0.180182 -4.60948 0
M  V30 12744 H 1228.44 -0.238771 -4.33142 0
M  V30 12745 H 1229.11 0.966134 -5.43479 0
M  V30 12746 H 1231.58 1.85446 -3.7249 0
M  V30 12747 H 1230.46 2.83588 -4.69967 0
M  V30 12748 H 1230.72 3.23821 -3.00985 0
M  V30 12749 N 1229.78 1.54207 0.325255 0
M  V30 12750 C 1230.73 1.83474 1.40021 0
M  V30 12751 C 1231.7 0.681719 1.51466 0
M  V30 12752 O 1232.88 0.92798 1.66713 0
M  V30 12753 C 1230.02 2.06624 2.76407 0
M  V30 12754 C 1229.13 3.3431 2.73607 0
M  V30 12755 C 1228.27 3.4743 4.01828 0
M  V30 12756 C 1227.31 4.68997 3.93329 0
M  V30 12757 N 1226.45 4.79052 5.13277 0
M  V30 12758 H 1231.29 2.75182 1.14363 0
M  V30 12759 H 1228.82 1.36284 0.553639 0
M  V30 12760 H 1230.78 2.18037 3.5569 0
M  V30 12761 H 1229.41 1.18209 3.00377 0
M  V30 12762 H 1228.46 3.31643 1.86324 0
M  V30 12763 H 1229.77 4.237 2.6321 0
M  V30 12764 H 1228.93 3.58376 4.89542 0
M  V30 12765 H 1227.67 2.56128 4.1503 0
M  V30 12766 H 1226.67 4.58109 3.04 0
M  V30 12767 H 1227.9 5.61681 3.81695 0
M  V30 12768 H 1225.84 3.90666 5.26988 0
M  V30 12769 H 1225.76 5.62406 5.05208 0
M  V30 12770 H 1227.03 4.94328 6.02711 0
M  V30 12771 N 1231.26 -0.58723 1.46251 0
M  V30 12772 C 1232.49 -1.36976 1.54665 0
M  V30 12773 C 1232.9 -1.88293 0.185079 0
M  V30 12774 O 1232.24 -1.64028 -0.82707 0
M  V30 12775 C 1232.3 -2.59591 2.48702 0
M  V30 12776 C 1231.96 -2.29773 3.95036 0
M  V30 12777 C 1232.96 -1.88885 4.84374 0
M  V30 12778 C 1230.65 -2.42057 4.40129 0
M  V30 12779 C 1232.64 -1.60669 6.16818 0
M  V30 12780 C 1230.33 -2.13454 5.72609 0
M  V30 12781 C 1231.33 -1.72824 6.60773 0
M  V30 12782 O 1231.01 -1.44569 7.90794 0
M  V30 12783 H 1230.75 -0.424968 0.525717 0
M  V30 12784 H 1233.3 -0.721298 1.92319 0
M  V30 12785 H 1231.53 -3.27226 2.06058 0
M  V30 12786 H 1233.22 -3.21656 2.47573 0
M  V30 12787 H 1233.98 -1.78913 4.50794 0
M  V30 12788 H 1229.86 -2.72644 3.71734 0
M  V30 12789 H 1233.41 -1.28882 6.85591 0
M  V30 12790 H 1229.3 -2.23048 6.05739 0
M  V30 12791 H 1230.07 -1.58452 8.03016 0
M  V30 12792 N 1232.74 -1.33881 -0.831482 0
M  V30 12793 C 1233.65 -1.26802 -1.97379 0
M  V30 12794 C 1234.66 -0.177233 -1.73095 0
M  V30 12795 O 1235.84 -0.402163 -1.97344 0
M  V30 12796 C 1232.9 -1.01474 -3.31517 0
M  V30 12797 C 1231.96 -2.19626 -3.68867 0
M  V30 12798 C 1231.2 -1.95497 -4.96605 0
M  V30 12799 O 1231.42 -0.908948 -5.63111 0
M  V30 12800 O 1230.35 -2.82226 -5.31632 0
M  V30 12801 H 1234.18 -2.22883 -2.06293 0
M  V30 12802 H 1231.76 -1.14001 -0.965613 0
M  V30 12803 H 1233.65 -0.890954 -4.11874 0
M  V30 12804 H 1232.32 -0.0842656 -3.2359 0
M  V30 12805 H 1231.23 -2.37561 -2.88991 0
M  V30 12806 H 1232.56 -3.11034 -3.81469 0
M  V30 12807 N 1234.21 1.05064 -1.1747 0
M  V30 12808 C 1235.63 1.30256 -0.922248 0
M  V30 12809 C 1235.83 1.97119 0.417896 0
M  V30 12810 O 1234.89 2.24557 1.15457 0
M  V30 12811 C 1236.2 2.17109 -2.08049 0
M  V30 12812 C 1237.75 2.30487 -2.11766 0
M  V30 12813 C 1238.22 3.20701 -3.26979 0
M  V30 12814 N 1239.71 3.28287 -3.26775 0
M  V30 12815 C 1240.45 3.98218 -4.12565 0
M  V30 12816 N 1239.94 4.70567 -5.08467 0
M  V30 12817 N 1241.74 3.94395 -4.00511 0
M  V30 12818 H 1233.89 0.600653 -2.0373 0
M  V30 12819 H 1236.15 0.327475 -0.889643 0
M  V30 12820 H 1235.86 1.75273 -3.04914 0
M  V30 12821 H 1235.73 3.1775 -2.03261 0
M  V30 12822 H 1238.12 2.71564 -1.15486 0
M  V30 12823 H 1238.2 1.29471 -2.20615 0
M  V30 12824 H 1237.84 2.80337 -4.23525 0
M  V30 12825 H 1237.77 4.21725 -3.15366 0
M  V30 12826 H 1240.26 2.76739 -2.5734 0
M  V30 12827 H 1240.58 5.21492 -5.70321 0
M  V30 12828 H 1238.92 4.69505 -5.12436 0
M  V30 12829 H 1242.11 3.37 -3.24882 0
M  V30 12830 H 1242.29 4.48626 -4.67588 0
M  V30 12831 N 1235.69 0.975146 1.23809 0
M  V30 12832 C 1236.94 0.642074 1.92367 0
M  V30 12833 C 1237.27 -0.82164 1.75962 0
M  V30 12834 O 1236.55 -1.59205 1.11732 0
M  V30 12835 C 1236.83 1.02677 3.45151 0
M  V30 12836 C 1236.68 2.54773 3.7069 0
M  V30 12837 C 1238 0.5668 4.36435 0
M  V30 12838 H 1235.12 0.234735 0.698619 0
M  V30 12839 H 1237.76 1.21549 1.46034 0
M  V30 12840 H 1235.91 0.538846 3.84745 0
M  V30 12841 H 1237.58 3.11099 3.4061 0
M  V30 12842 H 1235.83 2.97641 3.15583 0
M  V30 12843 H 1236.5 2.7674 4.77618 0
M  V30 12844 H 1238.97 0.985635 4.04258 0
M  V30 12845 H 1237.85 0.864458 5.4205 0
M  V30 12846 H 1238.11 -0.532989 4.38875 0
M  V30 12847 N 1237.17 -1.38817 0.746158 0
M  V30 12848 C 1238.12 -2.27825 0.089362 0
M  V30 12849 C 1239.1 -1.44826 -0.701013 0
M  V30 12850 O 1240.3 -1.67632 -0.568188 0
M  V30 12851 C 1237.42 -3.33639 -0.808682 0
M  V30 12852 C 1236.51 -4.24098 -0.0118582 0
M  V30 12853 N 1236.9 -4.95393 1.02075 0
M  V30 12854 C 1235.2 -4.45355 -0.239815 0
M  V30 12855 C 1235.9 -5.61969 1.5022 0
M  V30 12856 N 1234.88 -5.37398 0.818816 0
M  V30 12857 H 1238.68 -2.80406 0.88033 0
M  V30 12858 H 1236.19 -1.51632 0.581512 0
M  V30 12859 H 1238.19 -3.96284 -1.29478 0
M  V30 12860 H 1236.85 -2.82617 -1.59868 0
M  V30 12861 H 1237.86 -4.98552 1.40237 0
M  V30 12862 H 1234.54 -4.05255 -1.00374 0
M  V30 12863 H 1235.93 -6.29017 2.36192 0
M  V30 12864 N 1238.65 -0.49465 -1.49636 0
M  V30 12865 C 1239.89 0.0521172 -2.02433 0
M  V30 12866 C 1240.22 1.37579 -1.37485 0
M  V30 12867 O 1239.48 1.8927 -0.497538 0
M  V30 12868 C 1239.78 0.259743 -3.56455 0
M  V30 12869 C 1239.44 -0.985143 -4.40007 0
M  V30 12870 C 1238.1 -1.3264 -4.62558 0
M  V30 12871 C 1240.46 -1.81291 -4.88654 0
M  V30 12872 C 1237.78 -2.49506 -5.31003 0
M  V30 12873 C 1240.14 -2.97305 -5.58384 0
M  V30 12874 C 1238.8 -3.31818 -5.79183 0
M  V30 12875 H 1238.07 0.0190711 -0.740755 0
M  V30 12876 H 1240.72 -0.653519 -1.80004 0
M  V30 12877 H 1239.02 1.04785 -3.77528 0
M  V30 12878 H 1240.72 0.697146 -3.94893 0
M  V30 12879 H 1237.31 -0.709313 -4.2269 0
M  V30 12880 H 1241.49 -1.56242 -4.71065 0
M  V30 12881 H 1236.75 -2.76491 -5.4531 0
M  V30 12882 H 1240.92 -3.61777 -5.95055 0
M  V30 12883 H 1238.55 -4.22478 -6.31994 0
M  V30 12884 N 1240.13 1.55939 -0.228214 0
M  V30 12885 C 1241.04 2.24213 0.690339 0
M  V30 12886 C 1242.05 1.25197 1.20838 0
M  V30 12887 O 1243.23 1.58026 1.24859 0
M  V30 12888 C 1240.29 2.91384 1.87873 0
M  V30 12889 C 1239.35 4.05761 1.40201 0
M  V30 12890 C 1238.59 4.6972 2.53376 0
M  V30 12891 O 1238.81 4.32687 3.71669 0
M  V30 12892 O 1237.74 5.58587 2.24198 0
M  V30 12893 H 1241.57 3.03383 0.138692 0
M  V30 12894 H 1239.15 1.494 0.00251504 0
M  V30 12895 H 1241.04 3.33758 2.57262 0
M  V30 12896 H 1239.71 2.15168 2.41835 0
M  V30 12897 H 1238.62 3.67943 0.675945 0
M  V30 12898 H 1239.95 4.83739 0.908691 0
M  V30 12899 N 1241.6 -0.0451101 1.57535 0
M  V30 12900 C 1243.02 -0.400463 1.54494 0
M  V30 12901 C 1243.22 -1.77584 0.952166 0
M  V30 12902 O 1242.28 -2.46069 0.566221 0
M  V30 12903 C 1243.59 -0.31703 2.99024 0
M  V30 12904 C 1245.14 -0.395284 3.10494 0
M  V30 12905 C 1245.61 -0.341475 4.56725 0
M  V30 12906 N 1247.1 -0.400755 4.61463 0
M  V30 12907 C 1247.84 -0.381757 5.72128 0
M  V30 12908 N 1247.33 -0.315995 6.92079 0
M  V30 12909 N 1249.13 -0.4303 5.60451 0
M  V30 12910 H 1241.28 0.855156 1.94424 0
M  V30 12911 H 1243.54 0.323618 0.891053 0
M  V30 12912 H 1243.25 0.627477 3.46057 0
M  V30 12913 H 1243.12 -1.11696 3.60283 0
M  V30 12914 H 1245.51 -1.33022 2.63418 0
M  V30 12915 H 1245.59 0.433709 2.52096 0
M  V30 12916 H 1245.23 0.589725 5.04465 0
M  V30 12917 H 1245.16 -1.18836 5.13016 0
M  V30 12918 H 1247.65 -0.454745 3.75154 0
M  V30 12919 H 1247.97 -0.306158 7.72193 0
M  V30 12920 H 1246.31 -0.282281 6.94427 0
M  V30 12921 H 1249.5 -0.479555 4.65637 0
M  V30 12922 H 1249.68 -0.412025 6.46689 0
M  V30 12923 N 1243.08 -1.54377 -0.317073 0
M  V30 12924 C 1244.36 -1.63551 -1.07287 0
M  V30 12925 C 1244.74 -0.473499 -2.05721 0
M  V30 12926 O 1244.09 0.531545 -2.22232 0
M  V30 12927 C 1244.3 -3.00842 -1.76904 0
M  V30 12928 C 1245.65 -3.57111 -2.29689 0
M  V30 12929 O 1246.67 -3.0319 -1.86961 0
M  V30 12930 O 1245.53 -4.51486 -3.07932 0
M  V30 12931 H 1242.62 -0.662557 -0.494922 0
M  V30 12932 H 1245.17 -1.66723 -0.316444 0
M  V30 12933 H 1243.94 -3.76854 -1.05341 0
M  V30 12934 H 1243.56 -3.01377 -2.59341 0
M  V30 12935 N 1244.56 0.579466 -1.4656 0
M  V30 12936 C 1245.52 1.67033 -1.56948 0
M  V30 12937 C 1246.52 1.54481 -0.446361 0
M  V30 12938 O 1247.71 1.5904 -0.710767 0
M  V30 12939 C 1244.85 3.06474 -1.49286 0
M  V30 12940 H 1246.04 1.59179 -2.54169 0
M  V30 12941 H 1243.59 0.797573 -1.34419 0
M  V30 12942 H 1244.33 3.1988 -0.533572 0
M  V30 12943 H 1244.11 3.16993 -2.30776 0
M  V30 12944 H 1245.6 3.85879 -1.59648 0
M  V30 12945 N 1246.04 1.3432 0.824371 0
M  V30 12946 C 1247.26 1.2982 1.61745 0
M  V30 12947 C 1247.69 -0.125298 1.87682 0
M  V30 12948 O 1247.05 -1.08658 1.45131 0
M  V30 12949 C 1247.09 2.09327 2.93623 0
M  V30 12950 O 1246.2 1.4618 3.85623 0
M  V30 12951 H 1245.54 0.445929 0.491979 0
M  V30 12952 H 1248.07 1.77101 1.02452 0
M  V30 12953 H 1248.08 2.20629 3.43201 0
M  V30 12954 H 1246.75 3.12825 2.74069 0
M  V30 12955 H 1245.33 1.43611 3.44137 0
M  V30 12956 N 1247.52 -1.0444 1.18026 0
M  V30 12957 C 1248.74 -1.81772 0.998684 0
M  V30 12958 C 1249.17 -1.82682 -0.448225 0
M  V30 12959 O 1248.52 -1.24136 -1.32136 0
M  V30 12960 C 1248.57 -3.2542 1.55352 0
M  V30 12961 O 1247.68 -4.05103 0.772351 0
M  V30 12962 H 1247.02 -0.561731 0.354054 0
M  V30 12963 H 1249.55 -1.31557 1.56697 0
M  V30 12964 H 1249.56 -3.76206 1.57903 0
M  V30 12965 H 1248.23 -3.24073 2.60672 0
M  V30 12966 H 1246.81 -3.63798 0.818852 0
M  V30 12967 N 1248.99 -0.981699 -1.2329 0
M  V30 12968 C 1250.24 -0.646818 -1.91048 0
M  V30 12969 C 1250.56 0.823479 -1.77421 0
M  V30 12970 O 1251.76 1.26948 -2.39993 0
M  V30 12971 C 1250.22 -1.1063 -3.42475 0
M  V30 12972 C 1249.83 -2.60103 -3.6476 0
M  V30 12973 C 1251.57 -0.845227 -4.16 0
M  V30 12974 C 1249.48 -2.99712 -5.0983 0
M  V30 12975 H 1248.41 -0.238221 -0.715379 0
M  V30 12976 H 1251.06 -1.18977 -1.39702 0
M  V30 12977 H 1249.44 -0.491554 -3.92937 0
M  V30 12978 H 1250.61 -3.26828 -3.24839 0
M  V30 12979 H 1248.93 -2.83972 -3.04547 0
M  V30 12980 H 1251.53 -1.11699 -5.22903 0
M  V30 12981 H 1251.87 0.218661 -4.15725 0
M  V30 12982 H 1252.4 -1.42162 -3.7153 0
M  V30 12983 H 1249.14 -4.0523 -5.15237 0
M  V30 12984 H 1248.66 -2.37683 -5.50697 0
M  V30 12985 H 1250.34 -2.9039 -5.78172 0
M  V30 12986 N 1250.47 1.3842 -0.753509 0
M  V30 12987 C 1251.38 2.34252 -0.127811 0
M  V30 12988 C 1252.4 1.59266 0.700743 0
M  V30 12989 O 1253.57 1.9146 0.624914 0
M  V30 12990 C 1250.64 3.38382 0.754886 0
M  V30 12991 C 1249.7 4.2921 -0.0880312 0
M  V30 12992 C 1248.93 5.28367 0.75263 0
M  V30 12993 O 1249.16 5.34537 1.99064 0
M  V30 12994 O 1248.09 6.01656 0.171475 0
M  V30 12995 H 1251.92 2.89454 -0.91925 0
M  V30 12996 H 1249.5 1.40265 -0.514404 0
M  V30 12997 H 1251.38 4.02141 1.25938 0
M  V30 12998 H 1250.06 2.85536 1.52482 0
M  V30 12999 H 1248.97 3.68611 -0.638468 0
M  V30 13000 H 1250.3 4.85311 -0.82062 0
M  V30 13001 N 1251.95 0.502579 1.49372 0
M  V30 13002 C 1253.2 -0.0414423 2.02758 0
M  V30 13003 C 1253.53 -1.36499 1.38136 0
M  V30 13004 O 1252.8 -1.87487 0.517593 0
M  V30 13005 C 1253.09 -0.192333 3.59586 0
M  V30 13006 C 1252.94 1.15445 4.34733 0
M  V30 13007 C 1254.26 -0.932218 4.30114 0
M  V30 13008 H 1251.38 -0.0135869 0.736875 0
M  V30 13009 H 1254.02 0.654296 1.78379 0
M  V30 13010 H 1252.17 -0.78491 3.80488 0
M  V30 13011 H 1253.84 1.78603 4.25322 0
M  V30 13012 H 1252.09 1.74333 3.97228 0
M  V30 13013 H 1252.76 1.00216 5.42827 0
M  V30 13014 H 1255.23 -0.429632 4.13876 0
M  V30 13015 H 1254.11 -1.00664 5.39591 0
M  V30 13016 H 1254.37 -1.9763 3.95468 0
M  V30 13017 N 1253.43 -1.55816 0.23648 0
M  V30 13018 C 1254.84 -1.59159 -0.118601 0
M  V30 13019 C 1255.04 -1.25352 -1.57763 0
M  V30 13020 O 1254.1 -0.995863 -2.32032 0
M  V30 13021 C 1255.41 -2.99885 0.221175 0
M  V30 13022 C 1256.96 -3.12567 0.164624 0
M  V30 13023 C 1257.44 -4.55496 0.478285 0
M  V30 13024 N 1258.93 -4.61215 0.428402 0
M  V30 13025 C 1259.66 -5.69768 0.644398 0
M  V30 13026 N 1259.16 -6.86624 0.922966 0
M  V30 13027 N 1260.95 -5.59143 0.575814 0
M  V30 13028 H 1253.1 -1.76063 1.18809 0
M  V30 13029 H 1255.37 -0.819079 0.477297 0
M  V30 13030 H 1255.07 -3.29326 1.2344 0
M  V30 13031 H 1254.95 -3.74425 -0.456723 0
M  V30 13032 H 1257.33 -2.82914 -0.839263 0
M  V30 13033 H 1257.41 -2.40325 0.876219 0
M  V30 13034 H 1257.06 -4.85868 1.47968 0
M  V30 13035 H 1256.99 -5.25984 -0.254671 0
M  V30 13036 H 1259.48 -3.77251 0.221398 0
M  V30 13037 H 1259.79 -7.6528 1.07548 0
M  V30 13038 H 1258.14 -6.88333 0.960325 0
M  V30 13039 H 1261.33 -4.66727 0.358307 0
M  V30 13040 H 1261.5 -6.43674 0.747548 0
M  V30 13041 N 1254.91 0.036755 -1.57557 0
M  V30 13042 C 1256.15 0.730186 -1.89199 0
M  V30 13043 C 1256.49 1.75414 -0.833271 0
M  V30 13044 O 1255.76 1.93901 0.152579 0
M  V30 13045 C 1256.04 1.40669 -3.31488 0
M  V30 13046 C 1255.9 0.396764 -4.48047 0
M  V30 13047 C 1257.22 2.34268 -3.72567 0
M  V30 13048 H 1254.33 0.263983 -0.6881 0
M  V30 13049 H 1256.98 -0.0069847 -1.89999 0
M  V30 13050 H 1255.13 2.03502 -3.30937 0
M  V30 13051 H 1256.8 -0.229062 -4.60731 0
M  V30 13052 H 1255.04 -0.284698 -4.32865 0
M  V30 13053 H 1255.71 0.908436 -5.44474 0
M  V30 13054 H 1258.19 1.81485 -3.74436 0
M  V30 13055 H 1257.06 2.78587 -4.72949 0
M  V30 13056 H 1257.33 3.20611 -3.04403 0
M  V30 13057 N 1256.39 1.54543 0.308881 0
M  V30 13058 C 1257.35 1.84214 1.36374 0
M  V30 13059 C 1258.35 0.71463 1.44047 0
M  V30 13060 O 1259.54 0.98293 1.4382 0
M  V30 13061 C 1256.67 2.01535 2.74948 0
M  V30 13062 H 1257.86 2.78477 1.11314 0
M  V30 13063 H 1255.42 1.46485 0.545141 0
M  V30 13064 H 1256.15 1.09533 3.05242 0
M  V30 13065 H 1255.94 2.83595 2.7077 0
M  V30 13066 H 1257.43 2.25888 3.51233 0
M  V30 13067 N 1257.86 -0.571685 1.46866 0
M  V30 13068 C 1259.09 -1.36008 1.56578 0
M  V30 13069 C 1259.51 -1.86909 0.211326 0
M  V30 13070 O 1258.87 -1.62179 -0.810421 0
M  V30 13071 C 1258.92 -2.51598 2.58323 0
M  V30 13072 O 1258.02 -3.53383 2.1259 0
M  V30 13073 H 1257.36 -0.404593 0.526498 0
M  V30 13074 H 1259.89 -0.692357 1.92529 0
M  V30 13075 H 1259.9 -2.98366 2.78283 0
M  V30 13076 H 1258.58 -2.13904 3.56676 0
M  V30 13077 H 1257.16 -3.13019 2.02666 0
M  V30 13078 N 1259.34 -1.34755 -0.817236 0
M  V30 13079 C 1260.62 -1.18007 -1.55993 0
M  V30 13080 C 1261 0.245079 -2.09673 0
M  V30 13081 O 1260.35 1.24718 -1.91462 0
M  V30 13082 C 1260.56 -2.23934 -2.67684 0
M  V30 13083 C 1261.9 -2.59201 -3.36303 0
M  V30 13084 O 1262.93 -2.22767 -2.77945 0
M  V30 13085 O 1261.79 -3.21809 -4.41702 0
M  V30 13086 H 1258.88 -0.4578 -0.688729 0
M  V30 13087 H 1261.43 -1.46405 -0.858117 0
M  V30 13088 H 1260.2 -3.19568 -2.25813 0
M  V30 13089 H 1259.82 -1.96745 -3.4551 0
M  V30 13090 N 1260.82 1.03812 -1.18578 0
M  V30 13091 C 1262.05 1.80702 -1.00769 0
M  V30 13092 C 1262.46 1.83509 0.443833 0
M  V30 13093 O 1261.82 1.2724 1.30829 0
M  V30 13094 C 1261.87 3.26185 -1.55838 0
M  V30 13095 O 1261.59 3.23612 -2.95308 0
M  V30 13096 C 1263.09 4.1971 -1.42682 0
M  V30 13097 H 1260.31 0.568972 -0.355685 0
M  V30 13098 H 1262.86 1.30817 -1.57185 0
M  V30 13099 H 1261.01 3.73293 -1.03592 0
M  V30 13100 H 1261.43 4.14769 -3.2104 0
M  V30 13101 H 1262.9 5.19716 -1.86008 0
M  V30 13102 H 1263.38 4.37588 -0.375924 0
M  V30 13103 H 1263.98 3.78469 -1.94013 0
M  V30 13104 N 1262.3 0.988223 1.22768 0
M  V30 13105 C 1263.71 0.697281 1.7319 0
M  V30 13106 C 1264.06 -0.786111 1.79763 0
M  V30 13107 O 1263.18 -1.61465 1.44077 0
M  V30 13108 C 1263.78 1.25905 3.14537 0
M  V30 13109 C 1262.34 1.01759 3.62384 0
M  V30 13110 C 1261.49 1.38207 2.40404 0
M  V30 13111 H 1264.44 1.16114 1.08181 0
M  V30 13112 H 1264.46 0.635315 3.75159 0
M  V30 13113 H 1263.97 2.33869 3.09721 0
M  V30 13114 H 1262.07 -0.045627 3.72572 0
M  V30 13115 H 1262.18 1.67767 4.48766 0
M  V30 13116 H 1260.55 0.800607 2.4179 0
M  V30 13117 H 1261.33 2.47165 2.38253 0
M  V30 13118 N 1263.78 -1.38018 0.760839 0
M  V30 13119 C 1265.02 -1.99557 0.319609 0
M  V30 13120 C 1265.34 -1.60699 -1.10457 0
M  V30 13121 O 1264.61 -0.867248 -1.75658 0
M  V30 13122 H 1263.19 -0.738066 0.115182 0
M  V30 13123 H 1265.86 -1.6867 0.976544 0
M  V30 13124 H 1264.95 -3.09672 0.388523 0
M  V30 13125 N 1265.25 -0.510493 -1.49103 0
M  V30 13126 C 1266.5 0.0305831 -2.02077 0
M  V30 13127 C 1266.82 1.36602 -1.39157 0
M  V30 13128 O 1266.09 1.88016 -0.550154 0
M  V30 13129 H 1264.67 0.0142916 -0.746863 0
M  V30 13130 H 1267.33 -0.669895 -1.83026 0
M  V30 13131 H 1266.43 0.153283 -3.11723 0
M  V30 13132 N 1266.73 1.55688 -0.24474 0
M  V30 13133 C 1268.15 1.59219 0.110159 0
M  V30 13134 C 1268.35 1.26187 1.57096 0
M  V30 13135 O 1267.4 1.00815 2.31501 0
M  V30 13136 C 1268.72 2.99764 -0.237075 0
M  V30 13137 C 1270.26 3.12475 -0.181198 0
M  V30 13138 C 1270.74 4.55236 -0.502435 0
M  V30 13139 N 1272.23 4.60981 -0.452855 0
M  V30 13140 C 1272.97 5.69418 -0.674605 0
M  V30 13141 N 1272.46 6.86125 -0.959366 0
M  V30 13142 N 1274.25 5.5883 -0.605459 0
M  V30 13143 H 1266.41 1.7543 -1.19741 0
M  V30 13144 H 1268.67 0.816537 -0.481634 0
M  V30 13145 H 1268.37 3.28666 -1.25185 0
M  V30 13146 H 1268.25 3.74662 0.436859 0
M  V30 13147 H 1270.64 2.83355 0.824248 0
M  V30 13148 H 1270.72 2.39857 -0.888952 0
M  V30 13149 H 1270.36 4.85077 -1.50543 0
M  V30 13150 H 1270.29 5.26111 0.226773 0
M  V30 13151 H 1272.78 3.77128 -0.241401 0
M  V30 13152 H 1273.09 7.64699 -1.11605 0
M  V30 13153 H 1271.44 6.87814 -0.996816 0
M  V30 13154 H 1274.63 4.6653 -0.383053 0
M  V30 13155 H 1274.8 6.43268 -0.781673 0
M  V30 13156 N 1268.21 -0.0283989 1.57574 0
M  V30 13157 C 1269.46 -0.718121 1.88483 0
M  V30 13158 C 1269.77 -1.76485 0.843345 0
M  V30 13159 O 1270.98 -2.50721 1.04169 0
M  V30 13160 C 1269.43 -1.32832 3.3449 0
M  V30 13161 C 1269.04 -0.317905 4.46871 0
M  V30 13162 C 1270.79 -1.99788 3.74546 0
M  V30 13163 C 1268.69 -0.936489 5.83938 0
M  V30 13164 H 1267.62 -0.271969 0.703242 0
M  V30 13165 H 1270.27 0.0274862 1.83479 0
M  V30 13166 H 1268.66 -2.12366 3.34241 0
M  V30 13167 H 1269.83 0.450767 4.5859 0
M  V30 13168 H 1268.14 0.249605 4.15651 0
M  V30 13169 H 1270.74 -2.46923 4.74271 0
M  V30 13170 H 1271.08 -2.81633 3.06575 0
M  V30 13171 H 1271.62 -1.27029 3.76973 0
M  V30 13172 H 1268.36 -0.15744 6.55311 0
M  V30 13173 H 1267.88 -1.67499 5.75938 0
M  V30 13174 H 1269.56 -1.44363 6.30689 0
M  V30 13175 N 1269.69 -1.54705 -0.300681 0
M  V30 13176 C 1270.6 -1.88736 -1.39341 0
M  V30 13177 C 1271.61 -0.78155 -1.5546 0
M  V30 13178 O 1272.79 -1.07804 -1.70118 0
M  V30 13179 C 1269.85 -2.12795 -2.73713 0
M  V30 13180 C 1268.92 -3.36504 -2.66577 0
M  V30 13181 C 1268.15 -3.59407 -3.94541 0
M  V30 13182 O 1268.37 -2.85315 -4.93914 0
M  V30 13183 O 1267.31 -4.52923 -3.96415 0
M  V30 13184 H 1271.13 -2.817 -1.13484 0
M  V30 13185 H 1268.72 -1.40899 -0.496771 0
M  V30 13186 H 1270.6 -2.29819 -3.53215 0
M  V30 13187 H 1269.27 -1.23017 -2.99414 0
M  V30 13188 H 1268.18 -3.24844 -1.85546 0
M  V30 13189 H 1269.51 -4.26414 -2.45829 0
M  V30 13190 N 1271.17 0.563888 -1.47167 0
M  V30 13191 C 1272.42 1.31766 -1.5271 0
M  V30 13192 C 1272.73 1.94664 -0.191164 0
M  V30 13193 O 1273.93 2.71214 -0.124543 0
M  V30 13194 C 1272.39 2.38907 -2.69168 0
M  V30 13195 C 1272 1.8223 -4.09263 0
M  V30 13196 C 1273.74 3.15508 -2.83999 0
M  V30 13197 C 1271.65 2.87111 -5.17031 0
M  V30 13198 H 1270.58 0.495421 -0.568396 0
M  V30 13199 H 1273.23 0.599665 -1.73425 0
M  V30 13200 H 1271.61 3.13591 -2.4182 0
M  V30 13201 H 1272.79 1.13963 -4.46485 0
M  V30 13202 H 1271.1 1.18235 -3.99261 0
M  V30 13203 H 1273.7 3.93816 -3.61681 0
M  V30 13204 H 1274.04 3.69277 -1.92197 0
M  V30 13205 H 1274.57 2.47934 -3.11085 0
M  V30 13206 H 1271.31 2.38204 -6.10687 0
M  V30 13207 H 1270.83 3.53809 -4.84334 0
M  V30 13208 H 1272.51 3.50724 -5.43692 0
M  V30 13209 N 1272.64 1.35187 0.810078 0
M  V30 13210 C 1274.06 1.15149 1.10512 0
M  V30 13211 C 1274.26 -0.038394 2.01463 0
M  V30 13212 O 1273.32 -0.710056 2.42311 0
M  V30 13213 C 1274.63 2.45282 1.73946 0
M  V30 13214 C 1276.18 2.51457 1.86382 0
M  V30 13215 C 1276.65 3.81625 2.53232 0
M  V30 13216 N 1278.14 3.82856 2.6072 0
M  V30 13217 C 1278.88 4.80302 3.13206 0
M  V30 13218 N 1278.37 5.88134 3.66156 0
M  V30 13219 N 1280.17 4.67743 3.11726 0
M  V30 13220 H 1272.32 2.11405 0.205391 0
M  V30 13221 H 1274.58 0.935457 0.153702 0
M  V30 13222 H 1274.29 3.32512 1.14582 0
M  V30 13223 H 1274.16 2.59573 2.73682 0
M  V30 13224 H 1276.55 1.64659 2.44891 0
M  V30 13225 H 1276.63 2.41084 0.855113 0
M  V30 13226 H 1276.27 4.68819 1.95375 0
M  V30 13227 H 1276.2 3.89285 3.54633 0
M  V30 13228 H 1278.69 3.04941 2.23203 0
M  V30 13229 H 1279.01 6.58487 4.04494 0
M  V30 13230 H 1277.35 5.91831 3.64364 0
M  V30 13231 H 1280.54 3.82642 2.69635 0
M  V30 13232 H 1280.72 5.43849 3.52324 0
M  V30 13233 N 1274.12 -1.03182 1.19127 0
M  V30 13234 C 1275.35 -1.80165 1.01726 0
M  V30 13235 C 1275.77 -1.83742 -0.434095 0
M  V30 13236 O 1275.12 -1.27932 -1.30152 0
M  V30 13237 C 1275.17 -3.25354 1.57566 0
M  V30 13238 O 1274.89 -3.22042 2.9702 0
M  V30 13239 C 1276.4 -4.18948 1.44906 0
M  V30 13240 H 1273.62 -0.567078 0.358698 0
M  V30 13241 H 1276.16 -1.29982 1.57877 0
M  V30 13242 H 1274.31 -3.72738 1.0557 0
M  V30 13243 H 1274.73 -4.13061 3.23235 0
M  V30 13244 H 1276.2 -5.18723 1.88762 0
M  V30 13245 H 1276.68 -4.37383 0.399125 0
M  V30 13246 H 1277.29 -3.77435 1.96018 0
M  V30 13247 N 1275.6 -0.99472 -1.22242 0
M  V30 13248 C 1276.85 -0.670275 -1.90661 0
M  V30 13249 C 1277.17 0.800369 -1.77818 0
M  V30 13250 O 1276.44 1.57381 -1.16653 0
M  V30 13251 H 1275.02 -0.244925 -0.705706 0
M  V30 13252 H 1277.68 -1.26162 -1.48557 0
M  V30 13253 H 1276.78 -0.934408 -2.97784 0
M  V30 13254 N 1277.08 1.37613 -0.768148 0
M  V30 13255 C 1278.3 2.04579 -0.340892 0
M  V30 13256 C 1278.73 1.57556 1.02751 0
M  V30 13257 O 1278.09 0.734151 1.65771 0
M  V30 13258 C 1278.13 3.58495 -0.389099 0
M  V30 13259 O 1277.24 4.07838 0.611741 0
M  V30 13260 H 1276.58 0.647246 -0.148216 0
M  V30 13261 H 1279.11 1.75999 -1.04333 0
M  V30 13262 H 1279.12 4.07263 -0.245116 0
M  V30 13263 H 1277.79 3.92076 -1.38742 0
M  V30 13264 H 1276.37 3.70399 0.431173 0
M  V30 13265 N 1278.56 0.518393 1.4883 0
M  V30 13266 C 1279.97 0.0749773 1.86549 0
M  V30 13267 C 1280.32 -1.34429 1.4291 0
M  V30 13268 O 1279.44 -2.00481 0.814648 0
M  V30 13269 C 1280.04 0.129289 3.38553 0
M  V30 13270 C 1278.6 -0.258871 3.75509 0
M  V30 13271 C 1277.74 0.494185 2.72861 0
M  V30 13272 H 1280.7 0.730266 1.409 0
M  V30 13273 H 1280.72 -0.661844 3.747 0
M  V30 13274 H 1280.23 1.16237 3.70285 0
M  V30 13275 H 1278.33 -1.29453 3.49389 0
M  V30 13276 H 1278.44 0.0726769 4.79045 0
M  V30 13277 H 1276.81 -0.0581428 2.54634 0
M  V30 13278 H 1277.59 1.52767 3.07436 0
M  V30 13279 N 1280.03 -1.55556 0.252993 0
M  V30 13280 C 1281.26 -2.03491 -0.374022 0
M  V30 13281 C 1281.68 -1.13208 -1.51094 0
M  V30 13282 O 1281.03 -0.147705 -1.81901 0
M  V30 13283 C 1281.09 -3.50724 -0.876047 0
M  V30 13284 O 1280.81 -4.37569 0.215574 0
M  V30 13285 C 1282.31 -4.14448 -1.57313 0
M  V30 13286 H 1279.53 -0.665183 -0.0881644 0
M  V30 13287 H 1282.07 -2.00964 0.378636 0
M  V30 13288 H 1280.23 -3.53766 -1.57886 0
M  V30 13289 H 1280.64 -5.24235 -0.166625 0
M  V30 13290 H 1282.11 -5.19142 -1.87606 0
M  V30 13291 H 1282.59 -3.61299 -2.49719 0
M  V30 13292 H 1283.2 -4.15346 -0.914735 0
M  V30 13293 N 1281.51 0.0200419 -1.57587 0
M  V30 13294 C 1282.76 0.707627 -1.89307 0
M  V30 13295 C 1283.08 1.7541 -0.851831 0
M  V30 13296 O 1282.35 1.95571 0.113404 0
M  V30 13297 H 1280.93 0.264349 -0.698662 0
M  V30 13298 H 1283.59 -0.0161428 -1.94893 0
M  V30 13299 H 1282.69 1.19152 -2.8846 0
M  V30 13300 N 1282.99 1.54862 0.292472 0
M  V30 13301 C 1284.22 1.7855 1.04534 0
M  V30 13302 C 1284.63 0.549161 1.80637 0
M  V30 13303 O 1283.99 -0.481268 1.7604 0
M  V30 13304 C 1284.04 2.99849 2.01923 0
M  V30 13305 O 1283.76 4.18706 1.28907 0
M  V30 13306 C 1285.26 3.35991 2.8918 0
M  V30 13307 H 1282.48 0.595279 0.309652 0
M  V30 13308 H 1285.03 2.01834 0.329159 0
M  V30 13309 H 1283.18 2.78749 2.69032 0
M  V30 13310 H 1283.6 4.87151 1.94383 0
M  V30 13311 H 1285.07 4.24085 3.53349 0
M  V30 13312 H 1285.55 2.54524 3.57931 0
M  V30 13313 H 1286.15 3.59281 2.27591 0
M  V30 13314 N 1284.47 -0.556076 1.47464 0
M  V30 13315 C 1285.4 -1.67275 1.62915 0
M  V30 13316 C 1286.38 -1.63229 0.478562 0
M  V30 13317 O 1287.56 -1.80833 0.708032 0
M  V30 13318 C 1284.69 -3.05911 1.64426 0
M  V30 13319 C 1283.65 -3.24804 2.78722 0
M  V30 13320 C 1282.97 -4.64238 2.65307 0
M  V30 13321 C 1284.27 -3.10071 4.20302 0
M  V30 13322 H 1285.97 -1.54601 2.56396 0
M  V30 13323 H 1283.51 -0.742337 1.23391 0
M  V30 13324 H 1285.47 -3.83878 1.73826 0
M  V30 13325 H 1284.19 -3.19547 0.675053 0
M  V30 13326 H 1282.85 -2.49246 2.68835 0
M  V30 13327 H 1282.5 -4.74675 1.66412 0
M  V30 13328 H 1282.2 -4.77828 3.41986 0
M  V30 13329 H 1283.72 -5.44339 2.76637 0
M  V30 13330 H 1285.14 -3.77855 4.3116 0
M  V30 13331 H 1283.53 -3.3517 4.97776 0
M  V30 13332 H 1284.6 -2.06803 4.38589 0
M  V30 13333 N 1285.95 -1.35615 -0.802897 0
M  V30 13334 C 1286.88 -1.31506 -1.92947 0
M  V30 13335 C 1287.86 -0.188843 -1.69048 0
M  V30 13336 O 1289.04 -0.384384 -1.90358 0
M  V30 13337 C 1286.17 -1.09001 -3.29752 0
M  V30 13338 C 1285.13 -2.18303 -3.68141 0
M  V30 13339 C 1284.45 -1.80959 -5.03148 0
M  V30 13340 C 1285.75 -3.60296 -3.78132 0
M  V30 13341 H 1287.45 -2.25771 -1.96642 0
M  V30 13342 H 1284.99 -1.08682 -0.944685 0
M  V30 13343 H 1286.95 -1.04766 -4.08169 0
M  V30 13344 H 1285.67 -0.111832 -3.26408 0
M  V30 13345 H 1284.33 -2.21642 -2.92011 0
M  V30 13346 H 1283.98 -0.817495 -4.96312 0
M  V30 13347 H 1283.68 -2.54129 -5.29804 0
M  V30 13348 H 1285.2 -1.78255 -5.84001 0
M  V30 13349 H 1286.62 -3.59259 -4.46773 0
M  V30 13350 H 1285.01 -4.32258 -4.16261 0
M  V30 13351 H 1286.08 -3.9618 -2.79588 0
M  V30 13352 N 1287.43 1.02549 -1.19673 0
M  V30 13353 C 1288.67 1.75656 -0.999463 0
M  V30 13354 C 1288.99 1.89238 0.470517 0
M  V30 13355 O 1288.26 1.42843 1.34062 0
M  V30 13356 H 1286.84 0.650732 -0.366821 0
M  V30 13357 H 1289.51 1.23684 -1.50627 0
M  V30 13358 H 1288.6 2.76353 -1.45035 0
M  V30 13359 N 1288.9 1.00119 1.21713 0
M  V30 13360 C 1290.18 0.597366 1.86255 0
M  V30 13361 C 1290.56 -0.925124 1.89749 0
M  V30 13362 O 1289.91 -1.8105 1.39402 0
M  V30 13363 C 1290.12 1.22735 3.26707 0
M  V30 13364 C 1291.47 1.33307 4.03131 0
M  V30 13365 O 1292.49 1.18237 3.36003 0
M  V30 13366 O 1291.35 1.57509 5.2331 0
M  V30 13367 H 1288.44 0.204091 0.801421 0
M  V30 13368 H 1290.99 1.09759 1.29426 0
M  V30 13369 H 1289.76 2.26837 3.18843 0
M  V30 13370 H 1289.38 0.713232 3.91151 0
M  V30 13371 N 1290.38 -1.37203 0.775435 0
M  V30 13372 C 1291.63 -1.99897 0.341936 0
M  V30 13373 C 1291.96 -1.61414 -1.07978 0
M  V30 13374 O 1291.24 -0.862108 -1.7435 0
M  V30 13375 C 1291.52 -3.56755 0.489715 0
M  V30 13376 C 1291.37 -4.05135 1.95411 0
M  V30 13377 C 1292.69 -4.39978 -0.103779 0
M  V30 13378 H 1289.81 -0.726199 0.125717 0
M  V30 13379 H 1292.45 -1.62826 0.979167 0
M  V30 13380 H 1290.6 -3.88464 -0.0527684 0
M  V30 13381 H 1292.27 -3.83975 2.55658 0
M  V30 13382 H 1290.52 -3.57192 2.46164 0
M  V30 13383 H 1291.19 -5.14161 2.00855 0
M  V30 13384 H 1293.66 -4.14547 0.359134 0
M  V30 13385 H 1292.54 -5.48892 0.0297337 0
M  V30 13386 H 1292.8 -4.25658 -1.19448 0
M  V30 13387 N 1291.86 -0.526279 -1.48553 0
M  V30 13388 C 1292.79 0.275579 -2.27537 0
M  V30 13389 C 1293.8 0.90782 -1.35139 0
M  V30 13390 O 1294.99 0.786887 -1.6022 0
M  V30 13391 C 1292.09 1.40515 -3.08397 0
M  V30 13392 C 1291.27 0.875523 -4.28548 0
M  V30 13393 C 1290.33 1.88577 -4.91249 0
M  V30 13394 O 1289.35 1.44419 -5.50574 0
M  V30 13395 N 1290.55 3.21774 -4.83158 0
M  V30 13396 H 1293.32 -0.401803 -2.96994 0
M  V30 13397 H 1290.88 -0.360378 -1.57838 0
M  V30 13398 H 1292.87 2.07907 -3.47213 0
M  V30 13399 H 1291.44 1.98626 -2.41384 0
M  V30 13400 H 1290.66 0.025728 -3.94192 0
M  V30 13401 H 1291.95 0.500493 -5.06332 0
M  V30 13402 H 1291.35 3.60319 -4.36104 0
M  V30 13403 H 1289.9 3.84808 -5.26085 0
M  V30 13404 N 1293.34 1.5542 -0.261239 0
M  V30 13405 C 1294.58 1.99579 0.36002 0
M  V30 13406 C 1294.92 1.14933 1.56538 0
M  V30 13407 O 1294.19 0.216082 1.93296 0
M  V30 13408 C 1294.47 3.52078 0.755842 0
M  V30 13409 C 1294.33 4.47484 -0.455896 0
M  V30 13410 C 1295.65 4.10083 1.5975 0
M  V30 13411 H 1292.77 0.725554 0.129385 0
M  V30 13412 H 1295.41 1.86453 -0.365415 0
M  V30 13413 H 1293.56 3.63394 1.37393 0
M  V30 13414 H 1295.23 4.4813 -1.09441 0
M  V30 13415 H 1293.47 4.19714 -1.09646 0
M  V30 13416 H 1294.14 5.51834 -0.13539 0
M  V30 13417 H 1296.62 4.01957 1.07562 0
M  V30 13418 H 1295.5 5.17024 1.84329 0
M  V30 13419 H 1295.76 3.59438 2.57404 0
M  V30 13420 N 1294.82 -0.0116844 1.57596 0
M  V30 13421 C 1296.23 -0.55604 1.78228 0
M  V30 13422 C 1296.58 -1.74624 0.894474 0
M  V30 13423 O 1295.7 -2.16196 0.0938498 0
M  V30 13424 C 1296.3 -1.0155 3.23223 0
M  V30 13425 C 1294.86 -1.50525 3.44992 0
M  V30 13426 C 1294 -0.451133 2.73606 0
M  V30 13427 H 1296.95 0.214516 1.57243 0
M  V30 13428 H 1296.98 -1.88208 3.30693 0
M  V30 13429 H 1296.49 -0.149048 3.87814 0
M  V30 13430 H 1294.59 -2.39298 2.856 0
M  V30 13431 H 1294.7 -1.54076 4.53649 0
M  V30 13432 H 1293.07 -0.910135 2.37884 0
M  V30 13433 H 1293.85 0.406152 3.40889 0
M  V30 13434 N 1296.29 -1.55015 -0.284256 0
M  V30 13435 C 1297.24 -1.87898 -1.37102 0
M  V30 13436 C 1298.24 -0.754231 -1.51683 0
M  V30 13437 O 1299.44 -0.93844 -1.53601 0
M  V30 13438 H 1295.82 -0.596208 -0.458301 0
M  V30 13439 H 1297.79 -2.78704 -1.06613 0
M  V30 13440 C 1296.54 -2.15764 -2.72656 0
M  V30 13441 H 1295.86 -3.01792 -2.62224 0
M  V30 13442 H 1297.3 -2.42701 -3.47667 0
M  V30 13443 C 1295.76 -0.961561 -3.22886 0
M  V30 13444 O 1296.29 -0.190489 -4.01248 0
M  V30 13445 N 1294.49 -0.762338 -2.80422 0
M  V30 13446 H 1294.04 -1.39104 -2.16813 0
M  V30 13447 H 1294 0.0363482 -3.14379 0
M  V30 13448 N 1297.77 0.548248 -1.47757 0
M  V30 13449 C 1299 1.3302 -1.58472 0
M  V30 13450 C 1299.41 1.87292 -0.238186 0
M  V30 13451 O 1298.77 1.65465 0.76991 0
M  V30 13452 C 1298.82 2.49386 -2.61704 0
M  V30 13453 O 1298.54 1.97355 -3.9113 0
M  V30 13454 C 1300.04 3.41471 -2.82688 0
M  V30 13455 H 1297.26 0.405172 -0.534861 0
M  V30 13456 H 1299.81 0.663251 -1.93446 0
M  V30 13457 H 1297.96 3.12001 -2.29639 0
M  V30 13458 H 1298.38 2.7339 -4.47614 0
M  V30 13459 H 1299.85 4.19516 -3.58762 0
M  V30 13460 H 1300.33 3.95573 -1.90837 0
M  V30 13461 H 1300.93 2.84664 -3.15985 0
M  V30 13462 N 1299.25 1.36039 0.795694 0
M  V30 13463 C 1300.5 1.29663 1.55023 0
M  V30 13464 C 1300.82 -0.125588 1.94595 0
M  V30 13465 O 1300.09 -1.06447 1.64456 0
M  V30 13466 H 1298.67 0.476962 0.574906 0
M  V30 13467 H 1301.33 1.70265 0.948471 0
M  V30 13468 H 1300.43 1.91982 2.46068 0
M  V30 13469 N 1300.73 -1.01913 1.20215 0
M  V30 13470 C 1301.98 -1.75124 1.00876 0
M  V30 13471 C 1302.3 -1.89485 -0.460475 0
M  V30 13472 O 1301.57 -1.43552 -1.33302 0
M  V30 13473 H 1300.15 -0.648777 0.370266 0
M  V30 13474 H 1302.81 -1.22883 1.5128 0
M  V30 13475 H 1301.91 -2.7558 1.46499 0
M  V30 13476 N 1302.21 -1.00763 -1.2118 0
M  V30 13477 C 1303.45 -0.702542 -1.90882 0
M  V30 13478 C 1303.81 0.758686 -1.7681 0
M  V30 13479 O 1303.1 1.54313 -1.1357 0
M  V30 13480 C 1303.29 -1.06187 -3.41261 0
M  V30 13481 C 1303.12 -2.55648 -3.69965 0
M  V30 13482 C 1301.89 -3.2229 -3.89175 0
M  V30 13483 C 1304.09 -3.53814 -3.73256 0
M  V30 13484 N 1302.07 -4.61075 -4.05319 0
M  V30 13485 C 1303.44 -4.7812 -3.94716 0
M  V30 13486 C 1305.5 -3.47913 -3.56175 0
M  V30 13487 C 1304.2 -5.97242 -4.00867 0
M  V30 13488 C 1306.23 -4.66427 -3.63593 0
M  V30 13489 C 1305.59 -5.89539 -3.85517 0
M  V30 13490 H 1301.69 -0.3086 -0.718533 0
M  V30 13491 H 1304.27 -1.29063 -1.45776 0
M  V30 13492 H 1302.44 -0.502205 -3.8514 0
M  V30 13493 H 1304.18 -0.711246 -3.98401 0
M  V30 13494 H 1300.93 -2.7273 -3.87189 0
M  V30 13495 H 1301.36 -5.33105 -4.17287 0
M  V30 13496 H 1306 -2.53735 -3.38199 0
M  V30 13497 H 1303.72 -6.9181 -4.17642 0
M  V30 13498 H 1307.3 -4.63467 -3.51695 0
M  V30 13499 H 1306.18 -6.79711 -3.91104 0
M  V30 13500 N 1303.68 1.3679 -0.7827 0
M  V30 13501 C 1304.62 2.28805 -0.13451 0
M  V30 13502 C 1305.63 1.49159 0.652338 0
M  V30 13503 O 1306.82 1.71682 0.488626 0
M  V30 13504 C 1303.92 3.28508 0.832802 0
M  V30 13505 C 1303.09 4.37291 0.0974435 0
M  V30 13506 C 1302.15 5.16999 0.979715 0
M  V30 13507 O 1301.18 5.67501 0.439439 0
M  V30 13508 N 1302.38 5.32786 2.30477 0
M  V30 13509 H 1305.14 2.85072 -0.924873 0
M  V30 13510 H 1302.7 1.48884 -0.636012 0
M  V30 13511 H 1304.7 3.78718 1.42671 0
M  V30 13512 H 1303.27 2.7293 1.52408 0
M  V30 13513 H 1302.49 3.88335 -0.677483 0
M  V30 13514 H 1303.77 5.07143 -0.410259 0
M  V30 13515 H 1303.17 4.93358 2.76793 0
M  V30 13516 H 1301.73 5.86264 2.84848 0
M  V30 13517 N 1305.16 0.53415 1.48272 0
M  V30 13518 C 1306.09 -0.263508 2.2768 0
M  V30 13519 C 1307.11 -0.90064 1.35618 0
M  V30 13520 O 1308.3 -0.778379 1.60635 0
M  V30 13521 C 1305.4 -1.38878 3.09138 0
M  V30 13522 C 1304.57 -0.852784 4.29006 0
M  V30 13523 C 1303.63 -1.85969 4.92242 0
M  V30 13524 O 1302.65 -1.41497 5.51332 0
M  V30 13525 N 1303.86 -3.19207 4.84858 0
M  V30 13526 H 1306.62 0.417548 2.96777 0
M  V30 13527 H 1304.18 0.368743 1.57645 0
M  V30 13528 H 1306.17 -2.06062 3.48311 0
M  V30 13529 H 1304.74 -1.97343 2.42434 0
M  V30 13530 H 1303.96 -0.0048227 3.942 0
M  V30 13531 H 1305.25 -0.473634 5.06591 0
M  V30 13532 H 1304.65 -3.58001 4.38009 0
M  V30 13533 H 1303.21 -3.82013 5.28119 0
M  V30 13534 N 1306.64 -1.55279 0.269478 0
M  V30 13535 C 1307.89 -2.00497 -0.342447 0
M  V30 13536 C 1308.24 -1.1546 -1.53905 0
M  V30 13537 O 1307.53 -0.215342 -1.90386 0
M  V30 13538 C 1307.73 -3.48773 -0.780535 0
M  V30 13539 C 1307.56 -4.48158 0.372074 0
M  V30 13540 C 1306.33 -4.9803 0.854046 0
M  V30 13541 C 1308.53 -4.99944 1.20668 0
M  V30 13542 N 1306.51 -5.81205 1.97671 0
M  V30 13543 C 1307.88 -5.80511 2.17733 0
M  V30 13544 C 1309.93 -4.82195 1.24066 0
M  V30 13545 C 1308.64 -6.45221 3.17934 0
M  V30 13546 C 1310.66 -5.47701 2.2311 0
M  V30 13547 C 1310.02 -6.28074 3.18908 0
M  V30 13548 H 1306.12 -0.776729 -0.0906385 0
M  V30 13549 H 1308.71 -1.90709 0.392213 0
M  V30 13550 H 1306.88 -3.58914 -1.48443 0
M  V30 13551 H 1308.61 -3.8083 -1.36932 0
M  V30 13552 H 1305.37 -4.71604 0.43431 0
M  V30 13553 H 1305.79 -6.27485 2.54149 0
M  V30 13554 H 1310.43 -4.19666 0.513836 0
M  V30 13555 H 1308.15 -7.06903 3.91554 0
M  V30 13556 H 1311.74 -5.35911 2.26474 0
M  V30 13557 H 1310.62 -6.77865 3.94294 0
M  V30 13558 N 1308.12 0.00332656 -1.576 0
M  V30 13559 C 1309.05 1.02391 -2.05058 0
M  V30 13560 C 1310.06 1.30903 -0.967901 0
M  V30 13561 O 1311.25 1.27937 -1.24476 0
M  V30 13562 C 1308.35 2.35947 -2.43274 0
M  V30 13563 C 1307.53 2.26423 -3.74234 0
M  V30 13564 C 1306.58 3.4264 -3.99355 0
M  V30 13565 O 1305.61 3.20977 -4.70067 0
M  V30 13566 N 1306.81 4.65379 -3.46991 0
M  V30 13567 H 1309.58 0.619216 -2.93233 0
M  V30 13568 H 1307.14 0.190777 -1.60772 0
M  V30 13569 H 1309.13 3.12462 -2.57196 0
M  V30 13570 H 1307.7 2.6817 -1.60635 0
M  V30 13571 H 1306.92 1.34841 -3.70421 0
M  V30 13572 H 1308.21 2.17229 -4.60097 0
M  V30 13573 H 1307.61 4.85878 -2.89723 0
M  V30 13574 H 1306.16 5.39171 -3.66249 0
M  V30 13575 N 1309.6 1.55164 0.276031 0
M  V30 13576 C 1310.82 1.79649 1.02635 0
M  V30 13577 C 1311.24 0.568289 1.80044 0
M  V30 13578 O 1310.6 -0.462569 1.7654 0
M  V30 13579 C 1310.65 3.01974 1.98731 0
M  V30 13580 O 1310.37 4.2005 1.24459 0
M  V30 13581 C 1311.87 3.39039 2.856 0
M  V30 13582 H 1309.09 0.598529 0.303321 0
M  V30 13583 H 1311.63 2.02171 0.307733 0
M  V30 13584 H 1309.79 2.81586 2.6606 0
M  V30 13585 H 1310.2 4.89185 1.89205 0
M  V30 13586 H 1311.68 4.27809 3.48831 0
M  V30 13587 H 1312.15 2.58306 3.55211 0
M  V30 13588 H 1312.76 3.61674 2.23767 0
M  V30 13589 N 1311.07 -0.540404 1.48045 0
M  V30 13590 C 1312.32 -1.2987 1.55762 0
M  V30 13591 C 1312.65 -1.92877 0.226307 0
M  V30 13592 O 1311.93 -1.7875 -0.766727 0
M  V30 13593 C 1312.21 -2.39602 2.68817 0
M  V30 13594 C 1312.06 -1.81354 4.1162 0
M  V30 13595 C 1313.38 -3.41434 2.77688 0
M  V30 13596 H 1310.5 -0.47083 0.566999 0
M  V30 13597 H 1313.14 -0.603081 1.80175 0
M  V30 13598 H 1311.29 -2.98936 2.48132 0
M  V30 13599 H 1312.97 -1.26151 4.43716 0
M  V30 13600 H 1311.21 -1.1194 4.19108 0
M  V30 13601 H 1311.88 -2.60758 4.86528 0
M  V30 13602 H 1314.36 -2.92042 2.96396 0
M  V30 13603 H 1313.23 -4.15621 3.5854 0
M  V30 13604 H 1313.49 -4.01336 1.85422 0
M  V30 13605 N 1312.55 -1.36459 -0.788468 0
M  V30 13606 C 1313.78 -1.33898 -1.57731 0
M  V30 13607 C 1314.2 0.0795471 -1.88632 0
M  V30 13608 O 1313.55 1.03671 -1.50195 0
M  V30 13609 C 1313.6 -2.16134 -2.89773 0
M  V30 13610 O 1313.32 -3.52457 -2.60203 0
M  V30 13611 C 1314.83 -2.21364 -3.84074 0
M  V30 13612 H 1312.05 -0.459269 -0.489197 0
M  V30 13613 H 1314.59 -1.79569 -0.978526 0
M  V30 13614 H 1312.74 -1.74015 -3.46118 0
M  V30 13615 H 1313.16 -3.95378 -3.4464 0
M  V30 13616 H 1314.63 -2.83261 -4.7378 0
M  V30 13617 H 1315.11 -1.21736 -4.21992 0
M  V30 13618 H 1315.72 -2.63723 -3.33662 0
M  V30 13619 N 1314.03 1.01274 -1.20754 0
M  V30 13620 C 1315.28 1.74586 -1.01804 0
M  V30 13621 C 1315.6 1.89727 0.450419 0
M  V30 13622 O 1314.87 1.44257 1.32539 0
M  V30 13623 H 1313.45 0.646804 -0.373702 0
M  V30 13624 H 1316.11 1.22079 -1.5193 0
M  V30 13625 H 1315.21 2.748 -1.47958 0
M  V30 13626 N 1315.51 1.01404 1.20644 0
M  V30 13627 C 1316.46 0.575388 2.25371 0
M  V30 13628 C 1317.45 -0.384598 1.64976 0
M  V30 13629 O 1318.66 -0.2548 1.78187 0
M  V30 13630 H 1315.03 0.167752 0.733051 0
M  V30 13631 H 1317 1.46964 2.597 0
M  V30 13632 C 1315.75 -0.0731257 3.47623 0
M  V30 13633 H 1315.08 0.656551 3.94372 0
M  V30 13634 H 1316.52 -0.343203 4.22609 0
M  V30 13635 C 1314.97 -1.31515 3.1017 0
M  V30 13636 O 1315.5 -2.40869 3.21473 0
M  V30 13637 N 1313.71 -1.19829 2.64744 0
M  V30 13638 H 1313.26 -0.308463 2.55746 0
M  V30 13639 H 1313.22 -2.0303 2.40054 0
M  V30 13640 N 1316.99 -1.36373 0.789944 0
M  V30 13641 C 1318.23 -1.99523 0.363119 0
M  V30 13642 C 1318.57 -1.6255 -1.0626 0
M  V30 13643 O 1317.84 -0.880551 -1.73426 0
M  V30 13644 C 1318.12 -3.56215 0.527526 0
M  V30 13645 C 1317.98 -4.0304 1.99697 0
M  V30 13646 C 1319.3 -4.40063 -0.0571079 0
M  V30 13647 H 1316.42 -0.724824 0.133412 0
M  V30 13648 H 1319.06 -1.61778 0.996381 0
M  V30 13649 H 1317.21 -3.88498 -0.0115636 0
M  V30 13650 H 1318.88 -3.81241 2.59717 0
M  V30 13651 H 1317.12 -3.54561 2.49939 0
M  V30 13652 H 1317.79 -5.12001 2.06297 0
M  V30 13653 H 1320.27 -4.14143 0.403082 0
M  V30 13654 H 1319.15 -5.4883 0.0879494 0
M  V30 13655 H 1319.41 -4.26901 -1.14926 0
M  V30 13656 N 1318.47 -0.542005 -1.47987 0
M  V30 13657 C 1319.4 0.25143 -2.27817 0
M  V30 13658 C 1320.41 0.893436 -1.36094 0
M  V30 13659 O 1321.6 0.769849 -1.61045 0
M  V30 13660 C 1318.7 1.37236 -3.0987 0
M  V30 13661 C 1317.87 0.830021 -4.29452 0
M  V30 13662 C 1316.93 1.83356 -4.93221 0
M  V30 13663 O 1315.96 1.38571 -5.52075 0
M  V30 13664 N 1317.16 3.16631 -4.86544 0
M  V30 13665 H 1319.92 -0.433281 -2.96551 0
M  V30 13666 H 1317.49 -0.377099 -1.57447 0
M  V30 13667 H 1319.48 2.04212 -3.49399 0
M  V30 13668 H 1318.05 1.96055 -2.43478 0
M  V30 13669 H 1317.27 -0.0160827 -3.94197 0
M  V30 13670 H 1318.56 0.446762 -5.06835 0
M  V30 13671 H 1317.95 3.55673 -4.39901 0
M  V30 13672 H 1316.51 3.79207 -5.30137 0
M  V30 13673 N 1319.94 1.55134 -0.277709 0
M  V30 13674 C 1321.19 1.98831 0.338982 0
M  V30 13675 C 1321.51 1.16958 1.56781 0
M  V30 13676 O 1322.71 1.50811 2.25762 0
M  V30 13677 C 1321.17 3.53899 0.654465 0
M  V30 13678 C 1320.78 4.44553 -0.554703 0
M  V30 13679 C 1322.52 4.06179 1.23364 0
M  V30 13680 C 1320.43 5.91014 -0.213663 0
M  V30 13681 H 1319.36 0.742632 0.130434 0
M  V30 13682 H 1322.01 1.79463 -0.382768 0
M  V30 13683 H 1320.39 3.69078 1.43519 0
M  V30 13684 H 1321.56 4.41143 -1.33151 0
M  V30 13685 H 1319.88 4.02921 -1.0509 0
M  V30 13686 H 1322.48 5.13152 1.50265 0
M  V30 13687 H 1322.82 3.5537 2.16836 0
M  V30 13688 H 1323.35 3.9445 0.515147 0
M  V30 13689 H 1320.09 6.45924 -1.11633 0
M  V30 13690 H 1319.61 5.97486 0.526329 0
M  V30 13691 H 1321.29 6.46712 0.19319 0
M  V30 13692 N 1321.42 0.00503138 1.57599 0
M  V30 13693 C 1322.35 -1.01302 2.05598 0
M  V30 13694 C 1323.37 -1.30388 0.974829 0
M  V30 13695 O 1324.56 -1.27275 1.25153 0
M  V30 13696 C 1321.66 -2.34654 2.44522 0
M  V30 13697 C 1320.83 -2.24436 3.7543 0
M  V30 13698 C 1319.89 -3.40517 4.01166 0
M  V30 13699 O 1318.91 -3.18479 4.71762 0
M  V30 13700 N 1320.12 -4.63532 3.49454 0
M  V30 13701 H 1322.88 -0.603656 2.93558 0
M  V30 13702 H 1320.44 -0.182248 1.60871 0
M  V30 13703 H 1322.43 -3.11093 2.5885 0
M  V30 13704 H 1321 -2.67315 1.62055 0
M  V30 13705 H 1320.22 -1.32875 3.71131 0
M  V30 13706 H 1321.51 -2.14786 4.61242 0
M  V30 13707 H 1320.91 -4.84334 2.92296 0
M  V30 13708 H 1319.47 -5.37221 3.69103 0
M  V30 13709 N 1322.9 -1.55308 -0.267798 0
M  V30 13710 C 1324.31 -1.66814 -0.838459 0
M  V30 13711 C 1324.66 -0.598609 -1.86845 0
M  V30 13712 O 1323.79 0.25896 -2.14845 0
M  V30 13713 C 1324.38 -3.02408 -1.52758 0
M  V30 13714 C 1322.94 -3.15923 -2.04621 0
M  V30 13715 C 1322.09 -2.62628 -0.890044 0
M  V30 13716 H 1325.04 -1.58639 -0.0440354 0
M  V30 13717 H 1325.06 -2.95687 -2.39478 0
M  V30 13718 H 1324.57 -3.80228 -0.777695 0
M  V30 13719 H 1322.67 -2.42886 -2.82555 0
M  V30 13720 H 1322.79 -4.22556 -2.25794 0
M  V30 13721 H 1321.15 -2.19918 -1.28485 0
M  V30 13722 H 1321.93 -3.42956 -0.153579 0
M  V30 13723 N 1324.38 0.532545 -1.4833 0
M  V30 13724 C 1325.63 1.28597 -1.55908 0
M  V30 13725 C 1325.95 1.93595 -0.233635 0
M  V30 13726 O 1325.22 1.81197 0.744605 0
M  V30 13727 H 1323.8 0.477619 -0.57436 0
M  V30 13728 H 1326.46 0.619922 -1.84778 0
M  V30 13729 H 1325.55 2.0666 -2.33877 0
M  V30 13730 N 1325.86 1.36875 0.78122 0
M  V30 13731 C 1327.08 1.34732 1.57019 0
M  V30 13732 C 1327.5 -0.0695423 1.88672 0
M  V30 13733 O 1326.86 -1.02873 1.50743 0
M  V30 13734 C 1326.91 2.17668 2.88623 0
M  V30 13735 O 1326.63 3.53832 2.5833 0
M  V30 13736 C 1328.13 2.23398 3.82895 0
M  V30 13737 H 1325.35 0.461857 0.486754 0
M  V30 13738 H 1327.89 1.80086 0.968989 0
M  V30 13739 H 1326.05 1.75848 3.4519 0
M  V30 13740 H 1326.46 3.972 3.42538 0
M  V30 13741 H 1327.94 2.85769 4.72271 0
M  V30 13742 H 1328.41 1.23972 4.2134 0
M  V30 13743 H 1329.02 2.65489 3.32258 0
M  V30 13744 N 1327.33 -1.00632 1.21289 0
M  V30 13745 C 1328.56 -1.77709 1.05371 0
M  V30 13746 C 1328.97 -1.84933 -0.39956 0
M  V30 13747 O 1328.31 -1.30881 -1.28903 0
M  V30 13748 C 1328.38 -3.23206 1.5741 0
M  V30 13749 C 1328.04 -3.39563 3.05852 0
M  V30 13750 C 1329.04 -3.27952 4.03415 0
M  V30 13751 C 1326.72 -3.65048 3.4503 0
M  V30 13752 C 1328.72 -3.41587 5.38142 0
M  V30 13753 C 1326.4 -3.78325 4.7991 0
M  V30 13754 C 1327.4 -3.66601 5.76275 0
M  V30 13755 O 1327.09 -3.79458 7.08708 0
M  V30 13756 H 1326.82 -0.565369 0.370585 0
M  V30 13757 H 1329.38 -1.27483 1.6105 0
M  V30 13758 H 1327.61 -3.74562 0.96126 0
M  V30 13759 H 1329.29 -3.81953 1.37356 0
M  V30 13760 H 1330.06 -3.0819 3.74492 0
M  V30 13761 H 1325.94 -3.73256 2.70557 0
M  V30 13762 H 1329.48 -3.32353 6.13341 0
M  V30 13763 H 1325.38 -3.97591 5.08519 0
M  V30 13764 H 1326.15 -3.96413 7.161 0
M  V30 13765 N 1328.81 -1.02043 -1.20104 0
M  V30 13766 C 1330.09 -0.626922 -1.85281 0
M  V30 13767 C 1330.47 0.894819 -1.91197 0
M  V30 13768 O 1329.82 1.7881 -1.42265 0
M  V30 13769 C 1330.03 -1.27917 -3.24713 0
M  V30 13770 C 1331.37 -1.39704 -4.00959 0
M  V30 13771 O 1332.4 -1.23568 -3.3408 0
M  V30 13772 O 1331.26 -1.65814 -5.20738 0
M  V30 13773 H 1328.35 -0.216815 -0.798073 0
M  V30 13774 H 1330.9 -1.11804 -1.27663 0
M  V30 13775 H 1329.67 -2.3188 -3.15194 0
M  V30 13776 H 1329.29 -0.775371 -3.89966 0
M  V30 13777 N 1330.29 1.35952 -0.797165 0
M  V30 13778 C 1331.54 1.99327 -0.373695 0
M  V30 13779 C 1331.87 1.63111 1.05396 0
M  V30 13780 O 1331.14 0.889736 1.72956 0
M  V30 13781 C 1331.43 3.5593 -0.54641 0
M  V30 13782 C 1331.28 4.01975 -2.01832 0
M  V30 13783 C 1332.6 4.40087 0.0337694 0
M  V30 13784 H 1329.72 0.724107 -0.137254 0
M  V30 13785 H 1332.36 1.61248 -1.00495 0
M  V30 13786 H 1330.51 3.88499 -0.00903959 0
M  V30 13787 H 1332.18 3.79859 -2.61735 0
M  V30 13788 H 1330.43 3.5323 -2.51815 0
M  V30 13789 H 1331.1 5.109 -2.09009 0
M  V30 13790 H 1333.57 4.13923 -0.425039 0
M  V30 13791 H 1332.45 5.48775 -0.117054 0
M  V30 13792 H 1332.71 4.27504 1.12661 0
M  V30 13793 N 1331.77 0.549846 1.47697 0
M  V30 13794 C 1333 0.0276487 2.06581 0
M  V30 13795 C 1333.41 -1.26821 1.40403 0
M  V30 13796 O 1332.75 -1.76987 0.492073 0
M  V30 13797 C 1332.81 -0.246484 3.58654 0
M  V30 13798 C 1332.48 0.958843 4.46828 0
M  V30 13799 C 1333.47 1.86249 4.85394 0
M  V30 13800 C 1331.16 1.17144 4.88449 0
M  V30 13801 C 1333.15 2.96249 5.64372 0
M  V30 13802 C 1330.84 2.27454 5.67193 0
M  V30 13803 C 1331.84 3.16838 6.05064 0
M  V30 13804 O 1331.52 4.25237 6.82224 0
M  V30 13805 H 1331.26 0.0394446 0.674848 0
M  V30 13806 H 1333.81 0.760694 1.90795 0
M  V30 13807 H 1332.04 -1.03375 3.72627 0
M  V30 13808 H 1333.73 -0.713167 3.99586 0
M  V30 13809 H 1334.5 1.71027 4.53844 0
M  V30 13810 H 1330.37 0.484917 4.58443 0
M  V30 13811 H 1333.92 3.66043 5.9385 0
M  V30 13812 H 1329.82 2.42653 5.98155 0
M  V30 13813 H 1330.58 4.23193 7.00607 0
M  V30 13814 N 1333.25 -1.54984 0.285932 0
M  V30 13815 C 1334.18 -2.25916 -0.590259 0
M  V30 13816 C 1335.16 -1.25319 -1.15018 0
M  V30 13817 O 1336.34 -1.54062 -1.18231 0
M  V30 13818 C 1333.47 -2.98849 -1.76936 0
M  V30 13819 C 1332.43 -4.06466 -1.3405 0
M  V30 13820 C 1331.75 -4.67032 -2.60356 0
M  V30 13821 C 1333.05 -5.20064 -0.482754 0
M  V30 13822 H 1334.75 -2.994 0.00131571 0
M  V30 13823 H 1332.29 -1.44 0.00207281 0
M  V30 13824 H 1334.25 -3.47186 -2.3883 0
M  V30 13825 H 1332.97 -2.22918 -2.38694 0
M  V30 13826 H 1331.63 -3.58957 -0.7447 0
M  V30 13827 H 1331.28 -3.87757 -3.20396 0
M  V30 13828 H 1330.98 -5.39703 -2.32368 0
M  V30 13829 H 1332.5 -5.18124 -3.23079 0
M  V30 13830 H 1333.91 -5.64387 -1.00697 0
M  V30 13831 H 1332.31 -5.99363 -0.297291 0
M  V30 13832 H 1333.38 -4.82358 0.495861 0
M  V30 13833 N 1334.72 -0.0133892 -1.57594 0
M  V30 13834 C 1335.97 0.669624 -1.91426 0
M  V30 13835 C 1336.3 1.72675 -0.888656 0
M  V30 13836 O 1335.58 1.94288 0.0908138 0
M  V30 13837 C 1335.86 1.30051 -3.35796 0
M  V30 13838 C 1335.71 0.254021 -4.49082 0
M  V30 13839 C 1337.03 2.22297 -3.79832 0
M  V30 13840 H 1334.15 0.241958 -0.69615 0
M  V30 13841 H 1336.79 -0.0674278 -1.8988 0
M  V30 13842 H 1334.94 1.92871 -3.37243 0
M  V30 13843 H 1336.62 -0.375524 -4.59769 0
M  V30 13844 H 1334.86 -0.422267 -4.3174 0
M  V30 13845 H 1335.53 0.734756 -5.47088 0
M  V30 13846 H 1338.01 1.69481 -3.8002 0
M  V30 13847 H 1336.88 2.634 -4.81572 0
M  V30 13848 H 1337.14 3.10764 -3.14449 0
M  V30 13849 N 1336.2 1.55448 0.259558 0
M  V30 13850 C 1337.45 1.76686 0.98935 0
M  V30 13851 C 1337.78 0.575434 1.85793 0
M  V30 13852 O 1337.03 -0.441676 1.90651 0
M  V30 13853 C 1337.33 3.03292 1.89073 0
M  V30 13854 C 1337 4.35225 1.17855 0
M  V30 13855 C 1335.66 4.7108 0.981675 0
M  V30 13856 C 1338.01 5.16839 0.6728 0
M  V30 13857 C 1335.34 5.86094 0.266551 0
M  V30 13858 C 1337.69 6.32593 -0.0287965 0
M  V30 13859 C 1336.36 6.67078 -0.23726 0
M  V30 13860 H 1335.63 0.646542 0.362029 0
M  V30 13861 H 1338.27 1.8972 0.260488 0
M  V30 13862 H 1336.58 2.85217 2.68624 0
M  V30 13863 H 1338.27 3.16923 2.45685 0
M  V30 13864 H 1334.86 4.07051 1.34192 0
M  V30 13865 H 1339.05 4.89604 0.812481 0
M  V30 13866 H 1334.3 6.11327 0.0944447 0
M  V30 13867 H 1338.48 6.95081 -0.428378 0
M  V30 13868 H 1336.11 7.56049 -0.793358 0
M  V30 13869 N 1337.68 -0.524672 1.4861 0
M  V30 13870 C 1338.63 -1.62872 1.63527 0
M  V30 13871 C 1339.6 -1.59097 0.477202 0
M  V30 13872 O 1340.78 -1.77443 0.701341 0
M  V30 13873 C 1337.92 -3.01116 1.68592 0
M  V30 13874 C 1337.04 -3.15085 2.95542 0
M  V30 13875 C 1336.17 -4.4392 2.91734 0
M  V30 13876 C 1335.21 -4.51436 4.13366 0
M  V30 13877 N 1334.35 -5.71667 4.07605 0
M  V30 13878 H 1339.19 -1.49462 2.57808 0
M  V30 13879 H 1336.72 -0.727578 1.27846 0
M  V30 13880 H 1338.68 -3.81212 1.6951 0
M  V30 13881 H 1337.31 -3.13285 0.777975 0
M  V30 13882 H 1336.36 -2.28207 3.04345 0
M  V30 13883 H 1337.68 -3.165 3.85524 0
M  V30 13884 H 1336.83 -5.32312 2.91083 0
M  V30 13885 H 1335.57 -4.45034 1.9949 0
M  V30 13886 H 1334.57 -3.6145 4.14287 0
M  V30 13887 H 1335.8 -4.52057 5.06776 0
M  V30 13888 H 1333.74 -5.73668 3.18184 0
M  V30 13889 H 1333.66 -5.74599 4.91297 0
M  V30 13890 H 1334.93 -6.62331 4.1102 0
M  V30 13891 N 1339.16 -1.37287 -0.77395 0
M  V30 13892 C 1340.41 -1.32112 -1.5294 0
M  V30 13893 C 1340.73 0.0946137 -1.9477 0
M  V30 13894 O 1340 1.03817 -1.66129 0
M  V30 13895 H 1338.58 -0.486047 -0.567245 0
M  V30 13896 H 1341.24 -1.71752 -0.921263 0
M  V30 13897 H 1340.34 -1.95873 -2.42982 0
M  V30 13898 N 1340.64 0.999871 -1.21821 0
M  V30 13899 C 1341.86 1.7794 -1.06546 0
M  V30 13900 C 1342.29 1.84219 0.380115 0
M  V30 13901 O 1341.64 1.28955 1.27438 0
M  V30 13902 C 1341.69 3.1943 -1.67322 0
M  V30 13903 O 1340.8 4.01957 -0.922171 0
M  V30 13904 H 1340.14 0.548204 -0.374658 0
M  V30 13905 H 1342.67 1.2565 -1.61472 0
M  V30 13906 H 1342.68 3.70086 -1.71757 0
M  V30 13907 H 1341.35 3.14175 -2.7252 0
M  V30 13908 H 1339.93 3.60509 -0.95331 0
M  V30 13909 N 1342.11 1.02678 1.19562 0
M  V30 13910 C 1343.53 0.752027 1.70884 0
M  V30 13911 C 1343.88 -0.728523 1.82173 0
M  V30 13912 O 1343 -1.56799 1.49141 0
M  V30 13913 C 1343.6 1.35848 3.10372 0
M  V30 13914 C 1342.16 1.13236 3.58963 0
M  V30 13915 C 1341.3 1.45785 2.35886 0
M  V30 13916 H 1344.25 1.19497 1.04432 0
M  V30 13917 H 1344.27 0.754347 3.72948 0
M  V30 13918 H 1343.79 2.43604 3.02124 0
M  V30 13919 H 1341.89 0.0729271 3.72529 0
M  V30 13920 H 1342 1.81959 4.43202 0
M  V30 13921 H 1340.36 0.877125 2.3912 0
M  V30 13922 H 1341.15 2.54619 2.30269 0
M  V30 13923 N 1343.59 -1.35528 0.804364 0
M  V30 13924 C 1344.5 -2.33616 0.214663 0
M  V30 13925 C 1345.52 -1.61757 -0.64115 0
M  V30 13926 O 1346.69 -1.93647 -0.553424 0
M  V30 13927 C 1343.76 -3.40951 -0.628778 0
M  V30 13928 C 1342.82 -4.28587 0.247269 0
M  V30 13929 C 1342.05 -5.30796 -0.556012 0
M  V30 13930 O 1342.28 -5.41557 -1.79088 0
M  V30 13931 O 1341.21 -6.01878 0.0519437 0
M  V30 13932 H 1345.04 -2.85843 1.02605 0
M  V30 13933 H 1342.62 -1.38259 0.566108 0
M  V30 13934 H 1344.5 -4.06538 -1.10926 0
M  V30 13935 H 1343.18 -2.90999 -1.4178 0
M  V30 13936 H 1342.09 -3.65988 0.774835 0
M  V30 13937 H 1343.42 -4.81931 1.00017 0
M  V30 13938 N 1345.07 -0.557671 -1.47404 0
M  V30 13939 C 1346.3 -0.0386038 -2.06564 0
M  V30 13940 C 1346.71 1.26075 -1.41074 0
M  V30 13941 O 1346.05 1.76723 -0.501453 0
M  V30 13942 C 1346.11 0.22746 -3.5878 0
M  V30 13943 C 1345.78 -0.982526 -4.46313 0
M  V30 13944 C 1346.78 -1.88821 -4.84399 0
M  V30 13945 C 1344.46 -1.19733 -4.87821 0
M  V30 13946 C 1346.45 -2.99238 -5.62793 0
M  V30 13947 C 1344.14 -2.30459 -5.65979 0
M  V30 13948 C 1345.14 -3.20042 -6.03375 0
M  V30 13949 O 1344.83 -4.28849 -6.79959 0
M  V30 13950 H 1344.56 -0.0430229 -0.67463 0
M  V30 13951 H 1347.11 -0.770801 -1.90389 0
M  V30 13952 H 1345.34 1.01397 -3.73169 0
M  V30 13953 H 1347.03 0.691966 -3.99958 0
M  V30 13954 H 1347.8 -1.73431 -4.52931 0
M  V30 13955 H 1343.68 -0.509223 -4.58179 0
M  V30 13956 H 1347.22 -3.69187 -5.91901 0
M  V30 13957 H 1343.12 -2.45821 -5.9686 0
M  V30 13958 H 1343.89 -4.26903 -6.98353 0
M  V30 13959 N 1346.55 1.54831 -0.294147 0
M  V30 13960 C 1347.83 1.92071 0.369902 0
M  V30 13961 C 1348.21 1.22061 1.72233 0
M  V30 13962 O 1347.55 0.353975 2.25742 0
M  V30 13963 C 1347.76 3.45524 0.49135 0
M  V30 13964 C 1349.11 4.17644 0.765411 0
M  V30 13965 O 1350.14 3.51521 0.575428 0
M  V30 13966 O 1349 5.34692 1.12992 0
M  V30 13967 H 1346.09 0.801033 0.20561 0
M  V30 13968 H 1348.64 1.66224 -0.341702 0
M  V30 13969 H 1347.41 3.88591 -0.459663 0
M  V30 13970 H 1347.03 3.77384 1.25169 0
M  V30 13971 N 1348.03 0.0217466 1.57585 0
M  V30 13972 C 1348.96 -0.961069 2.12804 0
M  V30 13973 C 1349.94 -1.3442 1.04237 0
M  V30 13974 O 1351.12 -1.42412 1.32032 0
M  V30 13975 C 1348.25 -2.24586 2.64912 0
M  V30 13976 C 1347.21 -2.0037 3.78201 0
M  V30 13977 C 1346.53 -3.35051 4.16708 0
M  V30 13978 C 1347.83 -1.34879 5.04584 0
M  V30 13979 H 1349.53 -0.501222 2.95175 0
M  V30 13980 H 1347.07 -0.239649 1.41992 0
M  V30 13981 H 1349.03 -2.93715 3.02175 0
M  V30 13982 H 1347.75 -2.72723 1.79693 0
M  V30 13983 H 1346.41 -1.33662 3.41365 0
M  V30 13984 H 1346.06 -3.80932 3.28481 0
M  V30 13985 H 1345.76 -3.19656 4.93045 0
M  V30 13986 H 1347.28 -4.05459 4.56547 0
M  V30 13987 H 1348.7 -1.93997 5.3948 0
M  V30 13988 H 1347.09 -1.29906 5.85871 0
M  V30 13989 H 1348.16 -0.320774 4.83838 0
M  V30 13990 N 1349.51 -1.55583 -0.251311 0
M  V30 13991 C 1350.44 -1.84909 -1.33731 0
M  V30 13992 C 1351.42 -0.703814 -1.46578 0
M  V30 13993 O 1352.6 -0.949108 -1.62862 0
M  V30 13994 C 1349.73 -2.0299 -2.71133 0
M  V30 13995 C 1348.77 -3.25615 -2.75458 0
M  V30 13996 S 1349.61 -4.82388 -2.32512 0
M  V30 13997 C 1350.76 -5.03469 -3.71846 0
M  V30 13998 H 1351 -2.76733 -1.08656 0
M  V30 13999 H 1348.53 -1.47634 -0.45207 0
M  V30 14000 H 1350.49 -2.14091 -3.5025 0
M  V30 14001 H 1349.15 -1.12016 -2.93447 0
M  V30 14002 H 1348.34 -3.35219 -3.76356 0
M  V30 14003 H 1347.94 -3.13217 -2.0438 0
M  V30 14004 H 1350.23 -4.90542 -4.67306 0
M  V30 14005 H 1351.18 -6.05463 -3.67179 0
M  V30 14006 H 1351.59 -4.31337 -3.64155 0
M  V30 14007 N 1350.98 0.516783 -1.48886 0
M  V30 14008 C 1351.93 1.64093 -1.64853 0
M  V30 14009 C 1352.93 1.61392 -0.514685 0
M  V30 14010 O 1354.13 1.6609 -0.693831 0
M  V30 14011 H 1350.51 0.543672 -0.519543 0
M  V30 14012 H 1352.48 1.47774 -2.5924 0
M  V30 14013 C 1351.23 3.02308 -1.71771 0
M  V30 14014 H 1350.55 3.05085 -2.58385 0
M  V30 14015 H 1351.99 3.80544 -1.86982 0
M  V30 14016 C 1350.45 3.33757 -0.459136 0
M  V30 14017 O 1350.98 3.99475 0.422177 0
M  V30 14018 N 1349.18 2.88756 -0.326837 0
M  V30 14019 H 1348.73 2.35452 -1.045 0
M  V30 14020 H 1348.69 3.10166 0.514213 0
M  V30 14021 N 1352.46 1.37696 0.766659 0
M  V30 14022 C 1353.71 1.33382 1.52765 0
M  V30 14023 C 1354.04 -0.0800569 1.94035 0
M  V30 14024 O 1353.32 -1.03848 1.64456 0
M  V30 14025 C 1353.6 2.2776 2.78922 0
M  V30 14026 C 1353.45 3.77949 2.43874 0
M  V30 14027 C 1354.77 2.20494 3.80881 0
M  V30 14028 H 1351.89 0.485836 0.554195 0
M  V30 14029 H 1354.53 1.68438 0.879119 0
M  V30 14030 H 1352.68 1.97994 3.34261 0
M  V30 14031 H 1354.35 4.18333 1.9441 0
M  V30 14032 H 1352.6 3.96269 1.76503 0
M  V30 14033 H 1353.27 4.39428 3.34077 0
M  V30 14034 H 1355.74 2.46742 3.35048 0
M  V30 14035 H 1354.62 2.88663 4.66867 0
M  V30 14036 H 1354.88 1.19951 4.25516 0
M  V30 14037 N 1353.94 -0.993397 1.22349 0
M  V30 14038 C 1354.89 -2.10463 0.990358 0
M  V30 14039 C 1355.88 -1.6927 -0.0663528 0
M  V30 14040 O 1357.09 -1.79794 0.0860444 0
M  V30 14041 H 1353.46 -0.688222 0.303075 0
M  V30 14042 H 1355.43 -2.273 1.93333 0
M  V30 14043 C 1354.18 -3.42757 0.584205 0
M  V30 14044 H 1353.51 -3.74896 1.38899 0
M  V30 14045 H 1354.95 -4.21492 0.46049 0
M  V30 14046 C 1353.4 -3.29416 -0.706187 0
M  V30 14047 O 1353.93 -3.61152 -1.75875 0
M  V30 14048 N 1352.14 -2.82601 -0.677148 0
M  V30 14049 H 1351.69 -2.56972 0.179712 0
M  V30 14050 H 1351.65 -2.74056 -1.54081 0
M  V30 14051 N 1355.42 -1.03311 -1.19015 0
M  V30 14052 C 1356.66 -0.742872 -1.89349 0
M  V30 14053 C 1357.02 0.721012 -1.78379 0
M  V30 14054 O 1356.31 1.51869 -1.16817 0
M  V30 14055 C 1356.51 -1.13402 -3.38932 0
M  V30 14056 C 1356.33 -2.63438 -3.64459 0
M  V30 14057 C 1355.1 -3.30473 -3.82251 0
M  V30 14058 C 1357.3 -3.61652 -3.65667 0
M  V30 14059 N 1355.28 -4.69569 -3.95447 0
M  V30 14060 C 1356.66 -4.86385 -3.84486 0
M  V30 14061 C 1358.71 -3.5539 -3.48715 0
M  V30 14062 C 1357.41 -6.05611 -3.88108 0
M  V30 14063 C 1359.44 -4.74035 -3.53617 0
M  V30 14064 C 1358.8 -5.97584 -3.72925 0
M  V30 14065 H 1354.9 -0.323772 -0.711826 0
M  V30 14066 H 1357.48 -1.32127 -1.43006 0
M  V30 14067 H 1355.66 -0.583786 -3.83988 0
M  V30 14068 H 1357.39 -0.795592 -3.96803 0
M  V30 14069 H 1354.14 -2.80882 -3.81317 0
M  V30 14070 H 1354.57 -5.41836 -4.05885 0
M  V30 14071 H 1359.21 -2.60852 -3.32741 0
M  V30 14072 H 1356.93 -7.00513 -4.02874 0
M  V30 14073 H 1360.51 -4.70823 -3.41786 0
M  V30 14074 H 1359.39 -6.87854 -3.76598 0
M  V30 14075 N 1356.9 1.35099 -0.81154 0
M  V30 14076 C 1358.14 1.98625 -0.394231 0
M  V30 14077 C 1358.47 1.6437 1.03985 0
M  V30 14078 O 1357.73 0.901496 1.737 0
M  V30 14079 C 1358.02 3.53444 -0.530322 0
M  V30 14080 C 1357.69 4.0758 -1.92844 0
M  V30 14081 C 1356.35 4.22077 -2.31094 0
M  V30 14082 C 1358.7 4.36838 -2.84292 0
M  V30 14083 C 1356.03 4.63153 -3.60148 0
M  V30 14084 C 1358.38 4.79355 -4.12798 0
M  V30 14085 C 1357.05 4.92057 -4.51039 0
M  V30 14086 H 1356.32 0.726822 -0.144259 0
M  V30 14087 H 1358.97 1.61231 -1.03329 0
M  V30 14088 H 1357.27 3.91328 0.192166 0
M  V30 14089 H 1358.97 4.00558 -0.188134 0
M  V30 14090 H 1355.56 3.96752 -1.62129 0
M  V30 14091 H 1359.74 4.25187 -2.55988 0
M  V30 14092 H 1355 4.71176 -3.89619 0
M  V30 14093 H 1359.17 5.00954 -4.83754 0
M  V30 14094 H 1356.8 5.23643 -5.51092 0
M  V30 14095 N 1358.37 0.56548 1.47106 0
M  V30 14096 C 1359.62 0.0445914 2.02751 0
M  V30 14097 C 1359.95 -1.30517 1.43801 0
M  V30 14098 O 1359.23 -1.85123 0.596646 0
M  V30 14099 C 1359.51 -0.0396474 3.60078 0
M  V30 14100 C 1359.36 1.3378 4.29445 0
M  V30 14101 C 1360.68 -0.748954 4.3368 0
M  V30 14102 H 1357.8 0.0176787 0.736788 0
M  V30 14103 H 1360.44 0.729363 1.75443 0
M  V30 14104 H 1358.59 -0.622826 3.83475 0
M  V30 14105 H 1360.27 1.96482 4.17364 0
M  V30 14106 H 1358.51 1.91024 3.89477 0
M  V30 14107 H 1359.18 1.23149 5.38088 0
M  V30 14108 H 1361.66 -0.253707 4.15326 0
M  V30 14109 H 1360.53 -0.776877 5.43374 0
M  V30 14110 H 1360.79 -1.80679 4.03494 0
M  V30 14111 N 1359.85 -1.54672 0.302354 0
M  V30 14112 C 1361.1 -2.00167 -0.306524 0
M  V30 14113 C 1361.43 -1.19073 -1.53791 0
M  V30 14114 O 1360.68 -0.255328 -1.94027 0
M  V30 14115 C 1360.98 -3.5035 -0.70638 0
M  V30 14116 C 1360.65 -4.48907 0.423429 0
M  V30 14117 C 1359.31 -4.75575 0.733586 0
M  V30 14118 C 1361.66 -5.07588 1.18338 0
M  V30 14119 C 1358.99 -5.58186 1.80679 0
M  V30 14120 C 1361.34 -5.91367 2.24651 0
M  V30 14121 C 1360.01 -6.16345 2.56272 0
M  V30 14122 H 1359.28 -0.732462 -0.112165 0
M  V30 14123 H 1361.92 -1.86798 0.421732 0
M  V30 14124 H 1360.23 -3.61335 -1.51474 0
M  V30 14125 H 1361.92 -3.82977 -1.18869 0
M  V30 14126 H 1358.51 -4.28256 0.171591 0
M  V30 14127 H 1362.7 -4.86985 0.957018 0
M  V30 14128 H 1357.95 -5.75776 2.05649 0
M  V30 14129 H 1362.13 -6.35862 2.83994 0
M  V30 14130 H 1359.76 -6.80148 3.39563 0
M  V30 14131 N 1361.33 -0.0301034 -1.57571 0
M  V30 14132 C 1362.75 0.326296 -1.56229 0
M  V30 14133 C 1362.95 1.72839 -1.03581 0
M  V30 14134 O 1362 2.43088 -0.682979 0
M  V30 14135 C 1363.32 0.174001 -3.00196 0
M  V30 14136 C 1364.86 0.246694 -3.12026 0
M  V30 14137 C 1365.34 0.123177 -4.57834 0
M  V30 14138 N 1366.83 0.180129 -4.6285 0
M  V30 14139 C 1367.56 0.108353 -5.73298 0
M  V30 14140 N 1367.06 -0.0145648 -6.92798 0
M  V30 14141 N 1368.85 0.162411 -5.61865 0
M  V30 14142 H 1361 -0.946945 -1.90123 0
M  V30 14143 H 1363.27 -0.365762 -0.874598 0
M  V30 14144 H 1362.97 -0.791871 -3.42669 0
M  V30 14145 H 1362.85 0.943794 -3.65202 0
M  V30 14146 H 1365.23 1.20303 -2.69465 0
M  V30 14147 H 1365.32 -0.553493 -2.4974 0
M  V30 14148 H 1364.96 -0.82974 -5.01077 0
M  V30 14149 H 1364.89 0.94224 -5.18102 0
M  V30 14150 H 1367.38 0.275236 -3.76896 0
M  V30 14151 H 1367.69 -0.062614 -7.72775 0
M  V30 14152 H 1366.04 -0.0493606 -6.94982 0
M  V30 14153 H 1369.23 0.256847 -4.67395 0
M  V30 14154 H 1369.4 0.103013 -6.47918 0
M  V30 14155 N 1362.81 1.55714 0.243056 0
M  V30 14156 C 1363.77 1.89832 1.28438 0
M  V30 14157 C 1364.77 0.775083 1.40887 0
M  V30 14158 O 1365.96 1.04304 1.39521 0
M  V30 14159 C 1363.09 2.13016 2.66153 0
M  V30 14160 H 1364.29 2.82947 0.994022 0
M  V30 14161 H 1361.84 1.48665 0.482521 0
M  V30 14162 H 1362.57 1.22381 3.00322 0
M  V30 14163 H 1362.36 2.94824 2.58498 0
M  V30 14164 H 1363.85 2.40581 3.41336 0
M  V30 14165 N 1364.29 -0.50888 1.49158 0
M  V30 14166 C 1365.23 -1.63216 1.6572 0
M  V30 14167 C 1366.23 -1.61117 0.523236 0
M  V30 14168 O 1367.43 -1.6572 0.702629 0
M  V30 14169 H 1363.81 -0.540909 0.522419 0
M  V30 14170 H 1365.78 -1.46397 2.6002 0
M  V30 14171 C 1364.53 -3.01393 1.73372 0
M  V30 14172 H 1363.85 -3.03711 2.6 0
M  V30 14173 H 1365.29 -3.79547 1.88998 0
M  V30 14174 C 1363.75 -3.33509 0.47683 0
M  V30 14175 O 1364.28 -3.99694 -0.400986 0
M  V30 14176 N 1362.49 -2.88579 0.342145 0
M  V30 14177 H 1362.03 -2.34894 1.05747 0
M  V30 14178 H 1361.99 -3.10435 -0.497757 0
M  V30 14179 N 1365.76 -1.381 -0.759346 0
M  V30 14180 C 1367.01 -1.33727 -1.5153 0
M  V30 14181 C 1367.33 0.0739504 -1.9486 0
M  V30 14182 O 1366.6 1.02049 -1.67221 0
M  V30 14183 H 1365.18 -0.492037 -0.562058 0
M  V30 14184 H 1367.85 -1.72719 -0.902995 0
M  V30 14185 H 1366.94 -1.98439 -2.40891 0
M  V30 14186 N 1367.24 0.986894 -1.22875 0
M  V30 14187 C 1368.17 2.08035 -0.961971 0
M  V30 14188 C 1369.19 1.62683 0.0616475 0
M  V30 14189 O 1370.38 1.77659 -0.173094 0
M  V30 14190 C 1367.48 3.36208 -0.426302 0
M  V30 14191 C 1366.65 4.10562 -1.50856 0
M  V30 14192 C 1365.71 5.17014 -0.97891 0
M  V30 14193 O 1364.73 5.44259 -1.66645 0
M  V30 14194 N 1365.94 5.80167 0.196613 0
M  V30 14195 H 1368.7 2.315 -1.90336 0
M  V30 14196 H 1366.26 1.1531 -1.13645 0
M  V30 14197 H 1368.25 4.0466 -0.0571577 0
M  V30 14198 H 1366.82 3.09761 0.420345 0
M  V30 14199 H 1366.04 3.36656 -2.05076 0
M  V30 14200 H 1367.33 4.57007 -2.23655 0
M  V30 14201 H 1366.73 5.60409 0.771892 0
M  V30 14202 H 1365.29 6.49825 0.507083 0
M  V30 14203 N 1368.72 1.0394 1.18466 0
M  V30 14204 C 1369.97 0.740576 1.88042 0
M  V30 14205 C 1370.29 -0.733822 1.80666 0
M  V30 14206 O 1369.56 -1.52943 1.22414 0
M  V30 14207 H 1368.14 0.270949 0.696129 0
M  V30 14208 H 1370.8 1.31588 1.43772 0
M  V30 14209 H 1369.9 1.04429 2.94111 0
M  V30 14210 N 1370.2 -1.34667 0.818693 0
M  V30 14211 C 1371.15 -2.31501 0.225816 0
M  V30 14212 C 1372.14 -1.57205 -0.631112 0
M  V30 14213 O 1373.35 -1.72237 -0.522924 0
M  V30 14214 H 1369.72 -0.750039 0.0542747 0
M  V30 14215 H 1371.69 -2.79036 1.05743 0
M  V30 14216 C 1370.44 -3.42464 -0.60114 0
M  V30 14217 H 1369.76 -3.9977 0.0489207 0
M  V30 14218 H 1371.2 -4.12468 -0.982154 0
M  V30 14219 C 1369.66 -2.86551 -1.77173 0
M  V30 14220 O 1370.19 -2.81085 -2.86974 0
M  V30 14221 N 1368.4 -2.43432 -1.58712 0
M  V30 14222 H 1367.95 -2.48077 -0.693958 0
M  V30 14223 H 1367.9 -2.06371 -2.37188 0
M  V30 14224 N 1371.68 -0.573274 -1.46804 0
M  V30 14225 C 1372.92 -0.0551522 -2.02025 0
M  V30 14226 C 1373.25 1.30577 -1.44826 0
M  V30 14227 O 1372.52 1.85514 -0.629403 0
M  V30 14228 H 1371.1 -0.0173982 -0.746797 0
M  V30 14229 H 1373.76 -0.746919 -1.8002 0
M  V30 14230 H 1372.85 0.0209326 -3.12093 0
M  V30 14231 N 1373.15 1.5451 -0.310553 0
M  V30 14232 C 1374.43 1.92452 0.34951 0
M  V30 14233 C 1374.81 1.23881 1.70929 0
M  V30 14234 O 1374.16 0.377898 2.25353 0
M  V30 14235 C 1374.37 3.46026 0.454675 0
M  V30 14236 C 1375.72 4.18432 0.721071 0
M  V30 14237 O 1376.74 3.52112 0.538112 0
M  V30 14238 O 1375.6 5.3586 1.07314 0
M  V30 14239 H 1372.69 0.803168 0.197103 0
M  V30 14240 H 1375.24 1.65852 -0.359313 0
M  V30 14241 H 1374.01 3.88081 -0.500853 0
M  V30 14242 H 1373.64 3.7869 1.21159 0
M  V30 14243 N 1374.63 0.0384594 1.57553 0
M  V30 14244 C 1375.86 -0.651613 1.96898 0
M  V30 14245 C 1376.28 -1.64328 0.915308 0
M  V30 14246 O 1375.64 -1.80883 -0.122824 0
M  V30 14247 C 1375.69 -1.32613 3.3533 0
M  V30 14248 O 1374.79 -2.44159 3.32355 0
M  V30 14249 H 1374.13 -0.170441 0.641752 0
M  V30 14250 H 1376.66 0.103086 2.0434 0
M  V30 14251 H 1376.67 -1.68076 3.71772 0
M  V30 14252 H 1375.35 -0.599275 4.1156 0
M  V30 14253 H 1373.93 -2.10738 3.07642 0
M  V30 14254 N 1376.11 -1.55841 -0.234795 0
M  V30 14255 C 1377.06 -1.8772 -1.29403 0
M  V30 14256 C 1378.05 -0.739087 -1.42921 0
M  V30 14257 O 1379.24 -1.00125 -1.45959 0
M  V30 14258 C 1376.37 -2.18592 -2.64712 0
M  V30 14259 C 1375.45 -3.38761 -2.55151 0
M  V30 14260 N 1375.84 -4.57723 -2.15229 0
M  V30 14261 C 1374.14 -3.42112 -2.86138 0
M  V30 14262 C 1374.84 -5.39872 -2.16595 0
M  V30 14263 N 1373.82 -4.79242 -2.5657 0
M  V30 14264 H 1377.62 -2.77219 -0.976067 0
M  V30 14265 H 1375.13 -1.5623 -0.443396 0
M  V30 14266 H 1377.13 -2.39599 -3.41171 0
M  V30 14267 H 1375.79 -1.30398 -2.97366 0
M  V30 14268 H 1376.8 -4.83126 -1.86575 0
M  V30 14269 H 1373.48 -2.64224 -3.23252 0
M  V30 14270 H 1374.87 -6.45072 -1.87967 0
M  V30 14271 N 1377.59 0.500963 -1.49426 0
M  V30 14272 C 1378.82 1.27911 -1.62624 0
M  V30 14273 C 1379.23 1.86439 -0.297651 0
M  V30 14274 O 1378.59 1.67831 0.716879 0
M  V30 14275 C 1378.64 2.40934 -2.69505 0
M  V30 14276 O 1378.36 1.84811 -3.97211 0
M  V30 14277 C 1379.86 3.32305 -2.93408 0
M  V30 14278 H 1377.08 0.387951 -0.547481 0
M  V30 14279 H 1379.63 0.601372 -1.95458 0
M  V30 14280 H 1377.78 3.04537 -2.39449 0
M  V30 14281 H 1378.2 2.59011 -4.56085 0
M  V30 14282 H 1379.67 4.0789 -3.71927 0
M  V30 14283 H 1380.15 3.89301 -2.03325 0
M  V30 14284 H 1380.75 2.74467 -3.24881 0
M  V30 14285 N 1379.07 1.38501 0.752011 0
M  V30 14286 C 1380.02 1.32359 1.85648 0
M  V30 14287 C 1381 0.207578 1.59555 0
M  V30 14288 O 1382.19 0.443683 1.71349 0
M  V30 14289 C 1379.32 1.15253 3.23375 0
M  V30 14290 C 1378.41 2.31483 3.55354 0
M  V30 14291 N 1378.8 3.56929 3.58379 0
M  V30 14292 C 1377.1 2.2407 3.85628 0
M  V30 14293 C 1377.8 4.33691 3.87669 0
M  V30 14294 N 1376.77 3.63065 4.04579 0
M  V30 14295 H 1380.58 2.27336 1.86267 0
M  V30 14296 H 1378.09 1.31755 0.949441 0
M  V30 14297 H 1380.09 1.08937 4.02416 0
M  V30 14298 H 1378.75 0.212108 3.24006 0
M  V30 14299 H 1379.76 3.90578 3.40101 0
M  V30 14300 H 1376.44 1.38196 3.93965 0
M  V30 14301 H 1377.83 5.42349 3.9662 0
M  V30 14302 N 1380.55 -0.980364 1.23396 0
M  V30 14303 C 1381.96 -1.53622 1.061 0
M  V30 14304 C 1382.31 -1.92648 -0.371645 0
M  V30 14305 O 1381.43 -1.76051 -1.25837 0
M  V30 14306 C 1382.03 -2.79159 1.91979 0
M  V30 14307 C 1380.59 -3.31144 1.78943 0
M  V30 14308 C 1379.73 -2.04135 1.87681 0
M  V30 14309 H 1382.68 -0.800047 1.37058 0
M  V30 14310 H 1382.71 -3.52011 1.4446 0
M  V30 14311 H 1382.22 -2.50723 2.96242 0
M  V30 14312 H 1380.32 -3.64459 0.774634 0
M  V30 14313 H 1380.43 -4.009 2.62329 0
M  V30 14314 H 1378.8 -2.18271 1.31262 0
M  V30 14315 H 1379.58 -1.78081 2.93499 0
M  V30 14316 N 1382.02 -1.04567 -1.17913 0
M  V30 14317 C 1383.3 -0.666082 -1.8391 0
M  V30 14318 C 1383.68 0.854062 -1.93052 0
M  V30 14319 O 1383.03 1.75752 -1.46026 0
M  V30 14320 C 1383.24 -1.34776 -3.21926 0
M  V30 14321 C 1384.59 -1.48177 -3.97905 0
M  V30 14322 O 1385.61 -1.30627 -3.31384 0
M  V30 14323 O 1384.47 -1.76822 -5.17104 0
M  V30 14324 H 1381.56 -0.233694 -0.793294 0
M  V30 14325 H 1384.11 -1.14487 -1.25263 0
M  V30 14326 H 1382.88 -2.38514 -3.10204 0
M  V30 14327 H 1382.5 -0.857914 -3.88234 0
M  V30 14328 N 1383.5 1.34231 -0.825823 0
M  V30 14329 C 1384.73 2.02124 -0.427727 0
M  V30 14330 C 1385.14 1.62331 0.971869 0
M  V30 14331 O 1384.48 0.825946 1.64085 0
M  V30 14332 C 1384.54 3.56626 -0.453698 0
M  V30 14333 C 1384.21 4.19752 -1.80713 0
M  V30 14334 C 1385.21 4.40062 -2.76842 0
M  V30 14335 C 1382.89 4.5646 -2.09641 0
M  V30 14336 C 1384.88 4.9621 -4.00069 0
M  V30 14337 C 1382.57 5.12318 -3.33127 0
M  V30 14338 C 1383.57 5.32137 -4.28158 0
M  V30 14339 O 1383.26 5.86811 -5.49462 0
M  V30 14340 H 1382.99 0.654389 -0.169563 0
M  V30 14341 H 1385.54 1.72421 -1.11624 0
M  V30 14342 H 1383.77 3.856 0.291527 0
M  V30 14343 H 1385.46 4.0583 -0.075249 0
M  V30 14344 H 1386.23 4.12064 -2.5579 0
M  V30 14345 H 1382.11 4.40337 -1.36473 0
M  V30 14346 H 1385.65 5.11594 -4.74254 0
M  V30 14347 H 1381.55 5.39746 -3.54041 0
M  V30 14348 H 1382.32 6.05242 -5.51022 0
M  V30 14349 N 1384.98 0.581051 1.46498 0
M  V30 14350 C 1386.21 0.0715652 2.06776 0
M  V30 14351 C 1386.62 -1.23267 1.43006 0
M  V30 14352 O 1385.98 -1.74489 0.534776 0
M  V30 14353 C 1386.03 -0.102666 3.61354 0
M  V30 14354 O 1385.75 1.14995 4.22739 0
M  V30 14355 C 1387.25 -0.646692 4.38558 0
M  V30 14356 H 1384.47 0.0566964 0.6686 0
M  V30 14357 H 1387.02 0.801248 1.8815 0
M  V30 14358 H 1385.17 -0.782564 3.79414 0
M  V30 14359 H 1385.59 0.962718 5.15589 0
M  V30 14360 H 1387.06 -0.717791 5.47313 0
M  V30 14361 H 1387.54 -1.6633 4.06486 0
M  V30 14362 H 1388.14 -0.00171739 4.253 0
M  V30 14363 N 1386.46 -1.54343 0.318742 0
M  V30 14364 C 1387.42 -2.22828 -0.536679 0
M  V30 14365 C 1388.42 -1.22013 -1.04735 0
M  V30 14366 O 1389.61 -1.46626 -0.940549 0
M  V30 14367 C 1386.74 -2.92857 -1.74493 0
M  V30 14368 H 1387.94 -2.99836 0.0619325 0
M  V30 14369 H 1385.49 -1.56144 0.0697687 0
M  V30 14370 H 1386.22 -2.19973 -2.3829 0
M  V30 14371 H 1386.01 -3.66779 -1.38621 0
M  V30 14372 H 1387.5 -3.45049 -2.35225 0
M  V30 14373 N 1387.94 -0.0468143 -1.5753 0
M  V30 14374 C 1389.18 0.626699 -1.92138 0
M  V30 14375 C 1389.5 1.7164 -0.925463 0
M  V30 14376 O 1388.77 1.95876 0.0303531 0
M  V30 14377 H 1387.35 0.234479 -0.709245 0
M  V30 14378 H 1390.02 -0.0987892 -1.94649 0
M  V30 14379 H 1389.11 1.06811 -2.93254 0
M  V30 14380 N 1389.41 1.55964 0.226527 0
M  V30 14381 C 1390.66 1.77944 0.94967 0
M  V30 14382 C 1390.98 0.614478 1.85697 0
M  V30 14383 O 1392.18 0.717793 2.6184 0
M  V30 14384 C 1390.64 3.15108 1.73881 0
M  V30 14385 C 1390.25 4.39314 0.877894 0
M  V30 14386 C 1391.99 3.46418 2.45347 0
M  V30 14387 C 1389.9 5.67505 1.6641 0
M  V30 14388 H 1388.83 0.663412 0.35833 0
M  V30 14389 H 1391.48 1.82366 0.203695 0
M  V30 14390 H 1389.86 3.04849 2.52751 0
M  V30 14391 H 1391.03 4.60616 0.130089 0
M  V30 14392 H 1389.35 4.15487 0.2756 0
M  V30 14393 H 1391.95 4.39416 3.0466 0
M  V30 14394 H 1392.29 2.68685 3.17985 0
M  V30 14395 H 1392.82 3.57984 1.73471 0
M  V30 14396 H 1389.56 6.48116 0.981089 0
M  V30 14397 H 1389.08 5.50272 2.38665 0
M  V30 14398 H 1390.76 6.075 2.22605 0
M  V30 14399 N 1390.89 -0.493031 1.4969 0
M  V30 14400 C 1392.31 -0.824908 1.36629 0
M  V30 14401 C 1392.51 -1.97378 0.405487 0
M  V30 14402 O 1391.56 -2.51993 -0.159933 0
M  V30 14403 C 1392.88 -1.15761 2.77524 0
M  V30 14404 C 1394.43 -1.26536 2.86282 0
M  V30 14405 C 1394.9 -1.63131 4.27963 0
M  V30 14406 N 1396.39 -1.70165 4.30811 0
M  V30 14407 C 1397.13 -1.99942 5.37411 0
M  V30 14408 N 1396.62 -2.27888 6.54247 0
M  V30 14409 N 1398.42 -2.0126 5.24834 0
M  V30 14410 H 1390.57 0.264433 2.10748 0
M  V30 14411 H 1392.83 0.0557306 0.94636 0
M  V30 14412 H 1392.54 -0.386714 3.49567 0
M  V30 14413 H 1392.41 -2.09915 3.13393 0
M  V30 14414 H 1394.8 -2.02696 2.14472 0
M  V30 14415 H 1394.88 -0.304137 2.53986 0
M  V30 14416 H 1394.52 -0.875184 5.00303 0
M  V30 14417 H 1394.45 -2.60367 4.5773 0
M  V30 14418 H 1396.94 -1.50696 3.46553 0
M  V30 14419 H 1397.26 -2.4982 7.31307 0
M  V30 14420 H 1395.6 -2.25327 6.57459 0
M  V30 14421 H 1398.79 -1.78909 4.32561 0
M  V30 14422 H 1398.96 -2.24131 6.08004 0
M  V30 14423 N 1392.37 -1.38898 -0.744656 0
M  V30 14424 C 1393.62 -1.35327 -1.50104 0
M  V30 14425 C 1393.94 0.0532788 -1.94927 0
M  V30 14426 O 1393.21 1.0027 -1.68294 0
M  V30 14427 H 1391.79 -0.49797 -0.556808 0
M  V30 14428 H 1394.45 -1.73667 -0.884625 0
M  V30 14429 H 1393.55 -2.00983 -2.38773 0
M  V30 14430 N 1393.85 0.973806 -1.23914 0
M  V30 14431 C 1395.1 1.71027 -1.06923 0
M  V30 14432 C 1395.41 1.91612 0.392947 0
M  V30 14433 O 1396.62 2.62771 0.682927 0
M  V30 14434 C 1395.07 3.07811 -1.86496 0
M  V30 14435 C 1394.68 2.9509 -3.37085 0
M  V30 14436 C 1396.42 3.85371 -1.78015 0
M  V30 14437 C 1394.33 4.27145 -4.09024 0
M  V30 14438 H 1393.26 0.641329 -0.396501 0
M  V30 14439 H 1395.91 1.08562 -1.47941 0
M  V30 14440 H 1394.29 3.71069 -1.38288 0
M  V30 14441 H 1395.47 2.4088 -3.92827 0
M  V30 14442 H 1393.78 2.30999 -3.46451 0
M  V30 14443 H 1396.38 4.83147 -2.2907 0
M  V30 14444 H 1396.72 4.09594 -0.744196 0
M  V30 14445 H 1397.26 3.28827 -2.23869 0
M  V30 14446 H 1394 4.08117 -5.12953 0
M  V30 14447 H 1393.52 4.81194 -3.58068 0
M  V30 14448 H 1395.19 4.95798 -4.15685 0
M  V30 14449 N 1395.33 1.05191 1.17357 0
M  V30 14450 C 1396.55 0.782373 1.91537 0
M  V30 14451 C 1396.97 -0.661935 1.76816 0
M  V30 14452 O 1396.33 -1.45221 1.10531 0
M  V30 14453 C 1396.38 1.15357 3.426 0
M  V30 14454 O 1396.1 2.54119 3.56869 0
M  V30 14455 C 1397.6 0.910167 4.33856 0
M  V30 14456 H 1394.82 0.284461 0.607719 0
M  V30 14457 H 1397.36 1.40259 1.48821 0
M  V30 14458 H 1395.52 0.578107 3.83062 0
M  V30 14459 H 1395.93 2.68668 4.50464 0
M  V30 14460 H 1397.41 1.21964 5.38358 0
M  V30 14461 H 1397.88 -0.154624 4.38928 0
M  V30 14462 H 1398.49 1.46947 3.99107 0
M  V30 14463 N 1396.8 -1.33791 0.83293 0
M  V30 14464 C 1398.05 -1.97582 0.42494 0
M  V30 14465 C 1398.37 -1.66328 -1.01784 0
M  V30 14466 O 1397.64 -0.959141 -1.70814 0
M  V30 14467 H 1396.22 -0.730923 0.154143 0
M  V30 14468 H 1398.89 -1.63257 1.06458 0
M  V30 14469 H 1397.98 -3.07177 0.552127 0
M  V30 14470 N 1398.28 -0.588812 -1.46187 0
M  V30 14471 C 1399.23 0.153638 -2.32092 0
M  V30 14472 C 1400.22 0.878346 -1.4485 0
M  V30 14473 O 1401.43 0.796042 -1.61441 0
M  V30 14474 H 1397.81 0.0684129 -0.748882 0
M  V30 14475 H 1399.78 -0.58961 -2.92517 0
M  V30 14476 C 1398.53 1.15003 -3.28131 0
M  V30 14477 H 1397.85 0.601804 -3.95245 0
M  V30 14478 H 1399.29 1.6398 -3.91007 0
M  V30 14479 C 1397.75 2.21411 -2.53926 0
M  V30 14480 O 1398.28 3.28862 -2.30679 0
M  V30 14481 N 1396.48 1.96184 -2.14383 0
M  V30 14482 H 1396.03 1.08812 -2.3349 0
M  V30 14483 H 1395.99 2.6759 -1.65055 0
M  V30 14484 N 1399.76 1.54172 -0.326923 0
M  V30 14485 C 1400.67 2.28149 0.546351 0
M  V30 14486 C 1401.69 1.32628 1.12631 0
M  V30 14487 O 1402.86 1.65647 1.14556 0
M  V30 14488 C 1399.93 3.02742 1.68962 0
M  V30 14489 C 1398.99 4.13856 1.14112 0
M  V30 14490 C 1398.22 4.84882 2.2299 0
M  V30 14491 O 1398.44 4.55448 3.43399 0
M  V30 14492 O 1397.38 5.71714 1.8822 0
M  V30 14493 H 1401.2 3.03651 -0.0545288 0
M  V30 14494 H 1398.79 1.49113 -0.0925027 0
M  V30 14495 H 1400.67 3.49443 2.35515 0
M  V30 14496 H 1399.35 2.30113 2.27662 0
M  V30 14497 H 1398.25 3.71497 0.440579 0
M  V30 14498 H 1399.59 4.88539 0.599211 0
M  V30 14499 N 1401.24 0.0551678 1.57503 0
M  V30 14500 C 1402.48 -0.618636 1.93134 0
M  V30 14501 C 1402.82 -1.70258 0.934125 0
M  V30 14502 O 1402.09 -1.9446 -0.0392699 0
M  V30 14503 C 1402.38 -1.21103 3.39126 0
M  V30 14504 C 1402.23 -0.134865 4.49598 0
M  V30 14505 C 1403.55 -2.12148 3.85592 0
M  V30 14506 H 1400.67 -0.223416 0.702321 0
M  V30 14507 H 1403.31 0.117748 1.89635 0
M  V30 14508 H 1401.46 -1.83862 3.42238 0
M  V30 14509 H 1403.13 0.497292 4.58612 0
M  V30 14510 H 1401.37 0.536587 4.30469 0
M  V30 14511 H 1402.04 -0.589447 5.48844 0
M  V30 14512 H 1404.52 -1.59346 3.8438 0
M  V30 14513 H 1403.4 -2.50539 4.88387 0
M  V30 14514 H 1403.66 -3.02318 3.22578 0
M  V30 14515 N 1402.72 -1.56081 -0.218252 0
M  V30 14516 C 1403.94 -1.83334 -0.958964 0
M  V30 14517 C 1404.36 -0.63472 -1.77811 0
M  V30 14518 O 1403.72 0.396729 -1.78136 0
M  V30 14519 C 1403.77 -3.09141 -1.87387 0
M  V30 14520 O 1403.49 -4.24379 -1.08783 0
M  V30 14521 C 1404.99 -3.49405 -2.7282 0
M  V30 14522 H 1402.21 -0.609375 -0.280898 0
M  V30 14523 H 1404.75 -2.03174 -0.232486 0
M  V30 14524 H 1402.91 -2.91267 -2.55426 0
M  V30 14525 H 1403.32 -4.9587 -1.70919 0
M  V30 14526 H 1404.8 -4.40461 -3.32713 0
M  V30 14527 H 1405.27 -2.71311 -3.45379 0
M  V30 14528 H 1405.88 -3.6973 -2.1019 0
M  V30 14529 N 1404.2 0.485086 -1.49949 0
M  V30 14530 C 1405.44 1.23486 -1.5948 0
M  V30 14531 C 1405.76 1.93377 -0.294082 0
M  V30 14532 O 1406.96 2.70173 -0.268133 0
M  V30 14533 C 1405.42 2.24303 -2.81454 0
M  V30 14534 C 1405.03 1.60279 -4.18347 0
M  V30 14535 C 1406.77 3.0001 -3.00324 0
M  V30 14536 C 1404.68 2.593 -5.31524 0
M  V30 14537 H 1403.61 0.464595 -0.593858 0
M  V30 14538 H 1406.26 0.506893 -1.7636 0
M  V30 14539 H 1404.64 3.00332 -2.58102 0
M  V30 14540 H 1405.82 0.901352 -4.51899 0
M  V30 14541 H 1404.13 0.969053 -4.04967 0
M  V30 14542 H 1406.73 3.74091 -3.82048 0
M  V30 14543 H 1407.07 3.5857 -2.11502 0
M  V30 14544 H 1407.6 2.31095 -3.2379 0
M  V30 14545 H 1404.34 2.05498 -6.22455 0
M  V30 14546 H 1403.86 3.27638 -5.02408 0
M  V30 14547 H 1405.54 3.21411 -5.61519 0
M  V30 14548 N 1405.67 1.39291 0.737279 0
M  V30 14549 C 1406.92 1.3639 1.49679 0
M  V30 14550 C 1407.25 -0.0408859 1.94457 0
M  V30 14551 O 1406.5 -1.02127 1.66939 0
M  V30 14552 C 1406.8 2.28043 2.75193 0
M  V30 14553 C 1406.47 3.75717 2.49294 0
M  V30 14554 C 1405.13 4.15955 2.41941 0
M  V30 14555 C 1407.48 4.69127 2.27088 0
M  V30 14556 C 1404.81 5.47669 2.10419 0
M  V30 14557 C 1407.16 6.01116 1.97084 0
M  V30 14558 C 1405.83 6.4042 1.88197 0
M  V30 14559 H 1405.1 0.499088 0.547716 0
M  V30 14560 H 1407.74 1.71779 0.846416 0
M  V30 14561 H 1406.05 1.85765 3.44962 0
M  V30 14562 H 1407.75 2.23093 3.33212 0
M  V30 14563 H 1404.34 3.43825 2.55896 0
M  V30 14564 H 1408.52 4.38875 2.31739 0
M  V30 14565 H 1403.78 5.77046 2.02059 0
M  V30 14566 H 1407.95 6.73026 1.78909 0
M  V30 14567 H 1405.58 7.42401 1.63537 0
M  V30 14568 N 1407.15 -0.967221 1.24429 0
M  V30 14569 C 1408.4 -1.71026 1.08427 0
M  V30 14570 C 1408.73 -1.90815 -0.376812 0
M  V30 14571 O 1407.98 -1.46745 -1.29477 0
M  V30 14572 C 1408.28 -3.10507 1.76975 0
M  V30 14573 C 1407.95 -3.10557 3.26902 0
M  V30 14574 C 1406.61 -3.10278 3.67806 0
M  V30 14575 C 1408.96 -3.04852 4.22746 0
M  V30 14576 C 1406.29 -3.02027 5.02988 0
M  V30 14577 C 1408.64 -2.98143 5.57937 0
M  V30 14578 C 1407.3 -2.96193 5.98185 0
M  V30 14579 H 1406.57 -0.625827 0.396764 0
M  V30 14580 H 1409.22 -1.13094 1.54538 0
M  V30 14581 H 1407.53 -3.71906 1.2326 0
M  V30 14582 H 1409.22 -3.66794 1.62058 0
M  V30 14583 H 1405.81 -3.11539 2.94349 0
M  V30 14584 H 1410 -3.04197 3.92145 0
M  V30 14585 H 1405.25 -2.98878 5.33368 0
M  V30 14586 H 1409.43 -2.92688 6.31907 0
M  V30 14587 H 1407.05 -2.89555 7.02895 0
M  V30 14588 N 1408.63 -1.05812 -1.16797 0
M  V30 14589 C 1409.59 -0.668766 -2.19226 0
M  V30 14590 C 1410.59 0.28299 -1.5829 0
M  V30 14591 O 1411.78 0.0660233 -1.74075 0
M  V30 14592 C 1408.91 0.0167379 -3.40896 0
M  V30 14593 H 1410.11 -1.57543 -2.55187 0
M  V30 14594 H 1407.66 -0.852753 -1.30988 0
M  V30 14595 H 1408.4 0.936382 -3.10487 0
M  V30 14596 H 1408.18 -0.667576 -3.86375 0
M  V30 14597 H 1409.67 0.275041 -4.16693 0
M  V30 14598 N 1410.11 1.33347 -0.840014 0
M  V30 14599 C 1411.52 1.80077 -0.492851 0
M  V30 14600 C 1411.87 1.69495 0.988221 0
M  V30 14601 O 1410.99 1.2449 1.77006 0
M  V30 14602 C 1411.59 3.2696 -0.887827 0
M  V30 14603 C 1410.15 3.71703 -0.592785 0
M  V30 14604 C 1409.3 2.54742 -1.09554 0
M  V30 14605 H 1412.25 1.20853 -1.02861 0
M  V30 14606 H 1412.27 3.79983 -0.198327 0
M  V30 14607 H 1411.78 3.3463 -1.96581 0
M  V30 14608 H 1409.88 3.69559 0.475086 0
M  V30 14609 H 1409.99 4.65123 -1.14882 0
M  V30 14610 H 1408.36 2.49411 -0.516357 0
M  V30 14611 H 1409.14 2.65173 -2.18032 0
M  V30 14612 N 1411.59 0.596556 1.45873 0
M  V30 14613 C 1412.81 0.0934926 2.06689 0
M  V30 14614 C 1413.23 -1.21743 1.44305 0
M  V30 14615 O 1412.59 -1.73912 0.553253 0
M  V30 14616 C 1412.64 -0.0643337 3.61443 0
M  V30 14617 O 1412.36 1.19472 4.21495 0
M  V30 14618 C 1413.86 -0.600141 4.39219 0
M  V30 14619 H 1411.08 0.0637846 0.667961 0
M  V30 14620 H 1413.62 0.821159 1.87289 0
M  V30 14621 H 1411.78 -0.742278 3.80222 0
M  V30 14622 H 1412.19 1.01735 5.14539 0
M  V30 14623 H 1413.67 -0.6597 5.48044 0
M  V30 14624 H 1414.14 -1.62009 4.08227 0
M  V30 14625 H 1414.75 0.0433915 4.25278 0
M  V30 14626 N 1413.06 -1.53996 0.335095 0
M  V30 14627 C 1414.29 -2.05188 -0.26563 0
M  V30 14628 C 1414.71 -1.21058 -1.44881 0
M  V30 14629 O 1414.06 -0.243919 -1.80863 0
M  V30 14630 C 1414.11 -3.54875 -0.688904 0
M  V30 14631 O 1413.84 -4.35811 0.447217 0
M  V30 14632 C 1415.34 -4.22204 -1.35123 0
M  V30 14633 H 1412.56 -0.668921 -0.0527806 0
M  V30 14634 H 1415.1 -1.98675 0.48463 0
M  V30 14635 H 1413.26 -3.61638 -1.38912 0
M  V30 14636 H 1413.67 -5.24381 0.111495 0
M  V30 14637 H 1415.14 -5.28356 -1.59823 0
M  V30 14638 H 1415.62 -3.74029 -2.30216 0
M  V30 14639 H 1416.23 -4.19611 -0.693283 0
M  V30 14640 N 1414.54 -0.0635198 -1.57472 0
M  V30 14641 C 1415.45 0.921531 -2.15743 0
M  V30 14642 C 1416.47 1.33294 -1.11842 0
M  V30 14643 O 1417.64 1.40733 -1.4407 0
M  V30 14644 C 1414.71 2.17378 -2.70088 0
M  V30 14645 C 1413.77 1.81956 -3.88832 0
M  V30 14646 C 1413 3.01211 -4.40577 0
M  V30 14647 O 1413.23 4.14971 -3.9135 0
M  V30 14648 O 1412.16 2.81507 -5.32012 0
M  V30 14649 H 1415.99 0.455899 -3.00259 0
M  V30 14650 H 1413.57 0.159085 -1.48551 0
M  V30 14651 H 1415.45 2.90826 -3.04956 0
M  V30 14652 H 1414.13 2.63055 -1.88637 0
M  V30 14653 H 1413.03 1.05786 -3.58832 0
M  V30 14654 H 1414.37 1.41069 -4.71551 0
M  V30 14655 N 1416.02 1.56195 0.209972 0
M  V30 14656 C 1416.98 1.92514 1.24383 0
M  V30 14657 C 1417.98 0.804793 1.39211 0
M  V30 14658 O 1419.17 1.0724 1.37278 0
M  V30 14659 C 1416.3 2.18613 2.61574 0
M  V30 14660 H 1417.5 2.84992 0.933781 0
M  V30 14661 H 1415.05 1.49656 0.450878 0
M  V30 14662 H 1415.79 1.28724 2.97659 0
M  V30 14663 H 1415.57 3.00241 2.52186 0
M  V30 14664 H 1417.06 2.47767 3.36156 0
M  V30 14665 N 1417.5 -0.477127 1.50204 0
M  V30 14666 C 1418.91 -0.81037 1.37496 0
M  V30 14667 C 1419.11 -1.96937 0.426399 0
M  V30 14668 O 1418.17 -2.52148 -0.133197 0
M  V30 14669 C 1419.48 -1.12811 2.78737 0
M  V30 14670 C 1421.03 -1.23492 2.87608 0
M  V30 14671 C 1421.51 -1.58583 4.29669 0
M  V30 14672 N 1423 -1.65586 4.32591 0
M  V30 14673 C 1423.73 -1.94231 5.39502 0
M  V30 14674 N 1423.23 -2.20936 6.56627 0
M  V30 14675 N 1425.02 -1.95682 5.26939 0
M  V30 14676 H 1417.17 0.286771 2.10455 0
M  V30 14677 H 1419.43 0.0657649 0.945716 0
M  V30 14678 H 1419.14 -0.349616 3.49958 0
M  V30 14679 H 1419.01 -2.0658 3.15602 0
M  V30 14680 H 1421.4 -2.0041 2.1661 0
M  V30 14681 H 1421.48 -0.277182 2.54294 0
M  V30 14682 H 1421.13 -0.822071 5.01203 0
M  V30 14683 H 1421.06 -2.55497 4.60466 0
M  V30 14684 H 1423.55 -1.47012 3.48132 0
M  V30 14685 H 1423.86 -2.42049 7.33916 0
M  V30 14686 H 1422.21 -2.18341 6.59812 0
M  V30 14687 H 1425.4 -1.74311 4.34434 0
M  V30 14688 H 1425.57 -2.1767 6.10347 0
M  V30 14689 N 1418.98 -1.3968 -0.729882 0
M  V30 14690 C 1420.21 -1.40263 -1.5169 0
M  V30 14691 C 1420.61 0.00325293 -1.892 0
M  V30 14692 O 1419.96 0.986225 -1.54982 0
M  V30 14693 C 1420.02 -2.21629 -2.83056 0
M  V30 14694 C 1419.68 -3.70204 -2.67951 0
M  V30 14695 C 1420.68 -4.63169 -2.36158 0
M  V30 14696 C 1418.37 -4.13851 -2.84662 0
M  V30 14697 C 1420.36 -5.97763 -2.21265 0
M  V30 14698 C 1418.05 -5.4852 -2.69387 0
M  V30 14699 C 1419.04 -6.4029 -2.37734 0
M  V30 14700 O 1418.73 -7.72478 -2.22561 0
M  V30 14701 H 1418.46 -0.480808 -0.475184 0
M  V30 14702 H 1421.02 -1.84184 -0.909136 0
M  V30 14703 H 1419.25 -1.72465 -3.46111 0
M  V30 14704 H 1420.94 -2.14328 -3.447 0
M  V30 14705 H 1421.7 -4.30748 -2.22893 0
M  V30 14706 H 1417.58 -3.42751 -3.0829 0
M  V30 14707 H 1421.13 -6.69359 -1.96481 0
M  V30 14708 H 1417.02 -5.8053 -2.82232 0
M  V30 14709 H 1417.79 -7.83258 -2.37591 0
M  V30 14710 N 1420.45 0.960609 -1.2494 0
M  V30 14711 C 1421.7 1.70701 -1.09495 0
M  V30 14712 C 1422.03 1.90754 0.364214 0
M  V30 14713 O 1421.31 1.47417 1.26879 0
M  V30 14714 C 1421.59 3.09353 -1.84317 0
M  V30 14715 C 1421.44 2.96747 -3.38026 0
M  V30 14716 C 1422.76 4.09139 -1.62153 0
M  V30 14717 H 1419.88 0.61955 -0.399158 0
M  V30 14718 H 1422.52 1.11701 -1.53698 0
M  V30 14719 H 1420.67 3.59719 -1.46746 0
M  V30 14720 H 1422.35 2.53752 -3.85237 0
M  V30 14721 H 1420.59 2.32798 -3.66043 0
M  V30 14722 H 1421.26 3.95002 -3.85587 0
M  V30 14723 H 1423.74 3.67659 -1.94849 0
M  V30 14724 H 1422.61 5.04206 -2.16951 0
M  V30 14725 H 1422.87 4.38521 -0.561437 0
M  V30 14726 N 1421.93 1.0643 1.16234 0
M  V30 14727 C 1423.21 0.695256 1.82827 0
M  V30 14728 C 1423.59 -0.823242 1.94386 0
M  V30 14729 O 1422.94 -1.73406 1.48804 0
M  V30 14730 C 1423.15 1.3988 3.19741 0
M  V30 14731 C 1424.5 1.54489 3.95498 0
M  V30 14732 O 1425.52 1.35882 3.29264 0
M  V30 14733 O 1424.38 1.85027 5.14225 0
M  V30 14734 H 1421.47 0.246285 0.789476 0
M  V30 14735 H 1424.02 1.16466 1.23426 0
M  V30 14736 H 1422.79 2.43419 3.06371 0
M  V30 14737 H 1422.41 0.91957 3.8682 0
M  V30 14738 N 1423.41 -1.329 0.847073 0
M  V30 14739 C 1424.66 -1.97803 0.447417 0
M  V30 14740 C 1424.99 -1.6691 -0.9927 0
M  V30 14741 O 1424.26 -0.953315 -1.69535 0
M  V30 14742 C 1424.55 -3.53657 0.678135 0
M  V30 14743 C 1424.4 -3.94207 2.16612 0
M  V30 14744 C 1425.72 -4.39909 0.129589 0
M  V30 14745 H 1422.84 -0.718514 0.164034 0
M  V30 14746 H 1425.48 -1.57407 1.0641 0
M  V30 14747 H 1423.63 -3.88198 0.153222 0
M  V30 14748 H 1425.3 -3.69883 2.75653 0
M  V30 14749 H 1423.55 -3.43641 2.64752 0
M  V30 14750 H 1424.22 -5.02791 2.27827 0
M  V30 14751 H 1426.69 -4.12061 0.578371 0
M  V30 14752 H 1425.57 -5.47963 0.320648 0
M  V30 14753 H 1425.83 -4.31391 -0.967167 0
M  V30 14754 N 1424.89 -0.604284 -1.45555 0
M  V30 14755 C 1425.84 0.137842 -2.27583 0
M  V30 14756 C 1426.82 0.841681 -1.3713 0
M  V30 14757 O 1428.01 0.732216 -1.61145 0
M  V30 14758 C 1425.14 1.13675 -3.23934 0
M  V30 14759 C 1424.23 0.433916 -4.21874 0
M  V30 14760 N 1424.62 -0.522599 -5.03093 0
M  V30 14761 C 1422.92 0.681898 -4.40756 0
M  V30 14762 C 1423.62 -0.935401 -5.7413 0
M  V30 14763 N 1422.6 -0.279863 -5.42879 0
M  V30 14764 H 1426.4 -0.596862 -2.87776 0
M  V30 14765 H 1423.91 -0.427701 -1.56667 0
M  V30 14766 H 1425.91 1.68278 -3.81429 0
M  V30 14767 H 1424.57 1.87204 -2.65301 0
M  V30 14768 H 1425.58 -0.899187 -5.10034 0
M  V30 14769 H 1422.26 1.40212 -3.93252 0
M  V30 14770 H 1423.65 -1.72412 -6.49403 0
M  V30 14771 N 1426.37 1.53816 -0.343257 0
M  V30 14772 C 1427.3 2.27951 0.506005 0
M  V30 14773 C 1428.28 1.29502 1.10287 0
M  V30 14774 O 1429.46 1.58344 1.12432 0
M  V30 14775 C 1426.59 3.0521 1.65723 0
M  V30 14776 C 1425.55 4.11161 1.18871 0
M  V30 14777 C 1424.87 4.76373 2.42843 0
M  V30 14778 C 1426.17 5.21498 0.289403 0
M  V30 14779 H 1427.87 2.99189 -0.112435 0
M  V30 14780 H 1425.41 1.43893 -0.055516 0
M  V30 14781 H 1427.37 3.55811 2.2578 0
M  V30 14782 H 1426.09 2.31624 2.30256 0
M  V30 14783 H 1424.75 3.61473 0.610962 0
M  V30 14784 H 1424.4 3.99381 3.05784 0
M  V30 14785 H 1424.1 5.47955 2.12177 0
M  V30 14786 H 1425.62 5.29758 3.03627 0
M  V30 14787 H 1427.03 5.67736 0.796808 0
M  V30 14788 H 1425.43 6.00054 0.0746366 0
M  V30 14789 H 1426.5 4.80185 -0.674543 0
M  V30 14790 N 1427.84 0.0718701 1.57436 0
M  V30 14791 C 1428.79 -0.895335 2.12726 0
M  V30 14792 C 1429.76 -1.29528 1.03979 0
M  V30 14793 O 1430.95 -1.38113 1.31642 0
M  V30 14794 C 1428.09 -2.15755 2.6934 0
M  V30 14795 C 1427.2 -1.81023 3.92243 0
M  V30 14796 C 1426.33 -3.01856 4.371 0
M  V30 14797 C 1425.37 -2.63141 5.52651 0
M  V30 14798 N 1424.51 -3.76734 5.92466 0
M  V30 14799 H 1429.35 -0.416964 2.95068 0
M  V30 14800 H 1426.89 -0.194165 1.45813 0
M  V30 14801 H 1428.85 -2.89642 3.00272 0
M  V30 14802 H 1427.48 -2.61132 1.89762 0
M  V30 14803 H 1426.53 -0.971983 3.67773 0
M  V30 14804 H 1427.84 -1.4854 4.76169 0
M  V30 14805 H 1426.99 -3.84022 4.69694 0
M  V30 14806 H 1425.73 -3.37533 3.52027 0
M  V30 14807 H 1424.74 -1.79397 5.19708 0
M  V30 14808 H 1425.96 -2.28635 6.39455 0
M  V30 14809 H 1423.91 -4.12173 5.10343 0
M  V30 14810 H 1423.83 -3.48019 6.71132 0
M  V30 14811 H 1425.09 -4.59479 6.29682 0
M  V30 14812 N 1429.32 -1.56304 -0.201686 0
M  V30 14813 C 1430.57 -1.80504 -0.92446 0
M  V30 14814 C 1430.9 -0.644832 -1.83182 0
M  V30 14815 O 1430.18 0.354963 -1.91234 0
M  V30 14816 C 1430.46 -3.14919 -1.74636 0
M  V30 14817 C 1430.31 -4.41421 -0.864169 0
M  V30 14818 C 1431.63 -3.45962 -2.72026 0
M  V30 14819 H 1428.75 -0.656643 -0.334648 0
M  V30 14820 H 1431.39 -1.89025 -0.192188 0
M  V30 14821 H 1429.54 -3.07785 -2.37066 0
M  V30 14822 H 1431.21 -4.60594 -0.255084 0
M  V30 14823 H 1429.46 -4.33465 -0.170548 0
M  V30 14824 H 1430.13 -5.31954 -1.47409 0
M  V30 14825 H 1432.6 -3.53353 -2.1973 0
M  V30 14826 H 1431.48 -4.41146 -3.26622 0
M  V30 14827 H 1431.74 -2.69124 -3.50749 0
M  V30 14828 N 1430.8 0.469154 -1.50455 0
M  V30 14829 C 1431.75 1.58765 -1.6999 0
M  V30 14830 C 1432.74 1.59673 -0.56577 0
M  V30 14831 O 1433.95 1.63799 -0.74632 0
M  V30 14832 H 1430.32 0.526868 -0.536577 0
M  V30 14833 H 1432.29 1.39451 -2.6381 0
M  V30 14834 C 1431.04 2.9669 -1.81302 0
M  V30 14835 H 1430.37 2.96711 -2.67961 0
M  V30 14836 H 1431.81 3.74403 -1.98994 0
M  V30 14837 C 1430.27 3.32127 -0.565086 0
M  V30 14838 O 1430.8 4.00616 0.294873 0
M  V30 14839 N 1429 2.8757 -0.418537 0
M  V30 14840 H 1428.55 2.32008 -1.11938 0
M  V30 14841 H 1428.51 3.11645 0.415276 0
M  V30 14842 N 1432.28 1.40065 0.722464 0
M  V30 14843 C 1433.23 1.39947 1.85789 0
M  V30 14844 C 1434.22 0.28089 1.67055 0
M  V30 14845 O 1435.43 0.451575 1.74244 0
M  V30 14846 H 1431.8 0.437296 0.611781 0
M  V30 14847 H 1433.77 2.35695 1.83004 0
M  V30 14848 C 1432.52 1.27218 3.2359 0
M  V30 14849 H 1431.84 2.12566 3.38609 0
M  V30 14850 H 1433.28 1.31194 4.03192 0
M  V30 14851 C 1431.74 -0.0182466 3.36895 0
M  V30 14852 O 1432.27 -0.983761 3.89468 0
M  V30 14853 N 1430.48 -0.0854707 2.90474 0
M  V30 14854 H 1430.03 0.700953 2.4788 0
M  V30 14855 H 1429.98 -0.948367 2.99755 0
M  V30 14856 N 1433.76 -0.95397 1.25448 0
M  V30 14857 C 1435.01 -1.6953 1.10018 0
M  V30 14858 C 1435.33 -1.9166 -0.359385 0
M  V30 14859 O 1434.6 -1.50417 -1.25506 0
M  V30 14860 H 1433.18 -0.628238 0.404136 0
M  V30 14861 H 1435.84 -1.14691 1.57581 0
M  V30 14862 H 1434.93 -2.67427 1.60901 0
M  V30 14863 N 1435.24 -1.07045 -1.15668 0
M  V30 14864 C 1436.17 -0.645945 -2.1991 0
M  V30 14865 C 1437.18 0.29995 -1.60013 0
M  V30 14866 O 1438.37 0.0897537 -1.78274 0
M  V30 14867 C 1435.47 0.0721917 -3.38823 0
M  V30 14868 C 1434.64 -0.889103 -4.28268 0
M  V30 14869 C 1433.7 -0.208829 -5.25785 0
M  V30 14870 O 1432.73 -0.848894 -5.62834 0
M  V30 14871 N 1433.93 1.04671 -5.70985 0
M  V30 14872 H 1436.69 -1.54266 -2.56948 0
M  V30 14873 H 1434.26 -0.954736 -1.30753 0
M  V30 14874 H 1436.25 0.537882 -4.0111 0
M  V30 14875 H 1434.82 0.870805 -3.00226 0
M  V30 14876 H 1434.04 -1.53399 -3.63129 0
M  V30 14877 H 1435.33 -1.54097 -4.84904 0
M  V30 14878 H 1434.72 1.58673 -5.42991 0
M  V30 14879 H 1433.28 1.45613 -6.35327 0
M  V30 14880 N 1436.71 1.32449 -0.85411 0
M  V30 14881 C 1437.65 2.2777 -0.255605 0
M  V30 14882 C 1438.66 1.52407 0.572355 0
M  V30 14883 O 1439.85 1.74031 0.396935 0
M  V30 14884 C 1436.95 3.32461 0.657496 0
M  V30 14885 C 1436.12 4.37193 -0.134492 0
M  V30 14886 C 1435.18 5.21465 0.704288 0
M  V30 14887 O 1434.21 5.69033 0.138001 0
M  V30 14888 N 1435.41 5.44254 2.01911 0
M  V30 14889 H 1438.17 2.79769 -1.07468 0
M  V30 14890 H 1435.73 1.45304 -0.714038 0
M  V30 14891 H 1437.73 3.85748 1.22396 0
M  V30 14892 H 1436.3 2.80625 1.37726 0
M  V30 14893 H 1435.52 3.84198 -0.882378 0
M  V30 14894 H 1436.8 5.04256 -0.678508 0
M  V30 14895 H 1436.2 5.07336 2.50252 0
M  V30 14896 H 1434.76 6.00538 2.53371 0
M  V30 14897 N 1438.19 0.611994 1.45232 0
M  V30 14898 C 1439.12 -0.0914869 2.33321 0
M  V30 14899 C 1440.1 -0.854315 1.4709 0
M  V30 14900 O 1441.29 -0.823994 1.75852 0
M  V30 14901 C 1438.42 -1.08652 3.29867 0
M  V30 14902 C 1437.37 -0.436615 4.25767 0
M  V30 14903 C 1436.7 -1.54021 5.12037 0
M  V30 14904 C 1438 0.645005 5.18302 0
M  V30 14905 H 1439.69 0.644053 2.92391 0
M  V30 14906 H 1437.24 0.311171 1.40598 0
M  V30 14907 H 1439.19 -1.58726 3.90364 0
M  V30 14908 H 1437.91 -1.85271 2.68965 0
M  V30 14909 H 1436.57 0.0432918 3.66574 0
M  V30 14910 H 1436.22 -2.29679 4.475 0
M  V30 14911 H 1435.92 -1.11084 5.77005 0
M  V30 14912 H 1437.45 -2.04313 5.75403 0
M  V30 14913 H 1438.86 0.228166 5.72846 0
M  V30 14914 H 1437.26 0.996387 5.9177 0
M  V30 14915 H 1438.33 1.51985 4.60466 0
M  V30 14916 N 1439.67 -1.53632 0.351409 0
M  V30 14917 C 1440.62 -2.26782 -0.516983 0
M  V30 14918 C 1441.61 -1.29222 -1.09536 0
M  V30 14919 O 1442.82 -1.46901 -1.04019 0
M  V30 14920 H 1439.19 -0.728783 -0.185417 0
M  V30 14921 H 1441.16 -2.98151 0.121909 0
M  V30 14922 C 1439.91 -3.05943 -1.6521 0
M  V30 14923 H 1439.24 -3.80848 -1.21633 0
M  V30 14924 H 1440.68 -3.60328 -2.23472 0
M  V30 14925 C 1439.13 -2.15917 -2.58614 0
M  V30 14926 O 1439.66 -1.76049 -3.61067 0
M  V30 14927 N 1437.87 -1.80837 -2.27478 0
M  V30 14928 H 1437.42 -2.13456 -1.44202 0
M  V30 14929 H 1437.38 -1.20886 -2.90231 0
M  V30 14930 N 1441.15 -0.0802183 -1.57396 0
M  V30 14931 C 1442.38 0.59489 -1.9785 0
M  V30 14932 C 1442.79 1.63174 -0.957641 0
M  V30 14933 O 1442.13 1.83592 0.0629632 0
M  V30 14934 C 1442.19 1.31367 -3.34639 0
M  V30 14935 C 1441.85 0.429303 -4.54979 0
M  V30 14936 C 1442.85 -0.316537 -5.18935 0
M  V30 14937 C 1440.54 0.351714 -5.01067 0
M  V30 14938 C 1442.53 -1.1281 -6.27338 0
M  V30 14939 C 1440.22 -0.463513 -6.0934 0
M  V30 14940 C 1441.22 -1.20208 -6.72338 0
M  V30 14941 O 1440.9 -2.00385 -7.78525 0
M  V30 14942 H 1440.64 0.165331 -0.655471 0
M  V30 14943 H 1443.19 -0.151697 -2.04839 0
M  V30 14944 H 1441.42 2.10651 -3.24289 0
M  V30 14945 H 1443.11 1.88184 -3.59641 0
M  V30 14946 H 1443.87 -0.266237 -4.84269 0
M  V30 14947 H 1439.75 0.916218 -4.51804 0
M  V30 14948 H 1443.3 -1.70508 -6.76441 0
M  V30 14949 H 1439.19 -0.515347 -6.4344 0
M  V30 14950 H 1439.96 -1.92907 -7.95443 0
M  V30 14951 N 1442.63 1.56409 0.193394 0
M  V30 14952 C 1444.04 1.50032 0.544298 0
M  V30 14953 C 1444.24 0.780546 1.85768 0
M  V30 14954 O 1443.3 0.331769 2.50311 0
M  V30 14955 C 1444.61 2.94705 0.597463 0
M  V30 14956 C 1446.16 3.05386 0.686179 0
M  V30 14957 C 1446.63 4.51473 0.770439 0
M  V30 14958 N 1448.12 4.55631 0.833921 0
M  V30 14959 C 1448.86 5.65982 0.919314 0
M  V30 14960 N 1448.36 6.8602 0.966904 0
M  V30 14961 N 1450.15 5.539 0.956634 0
M  V30 14962 H 1442.3 2.01619 -0.668096 0
M  V30 14963 H 1444.56 0.917589 -0.238191 0
M  V30 14964 H 1444.27 3.50431 -0.298509 0
M  V30 14965 H 1444.14 3.48151 1.45157 0
M  V30 14966 H 1446.53 2.49708 1.57258 0
M  V30 14967 H 1446.61 2.55062 -0.194165 0
M  V30 14968 H 1446.25 5.07777 -0.111619 0
M  V30 14969 H 1446.18 4.99531 1.66661 0
M  V30 14970 H 1448.68 3.69198 0.80632 0
M  V30 14971 H 1448.99 7.6587 1.03262 0
M  V30 14972 H 1447.33 6.88674 0.935552 0
M  V30 14973 H 1450.52 4.59044 0.916304 0
M  V30 14974 H 1450.7 6.39926 1.01972 0
M  V30 14975 N 1444.1 -0.461169 1.50702 0
M  V30 14976 C 1445.04 -1.57702 1.64941 0
M  V30 14977 C 1446.01 -1.54808 0.497312 0
M  V30 14978 O 1447.2 -1.74286 0.718104 0
M  V30 14979 C 1444.33 -2.96285 1.64112 0
M  V30 14980 C 1443.37 -3.17296 2.85001 0
M  V30 14981 S 1444.2 -2.96134 4.46167 0
M  V30 14982 C 1445.36 -4.37042 4.48046 0
M  V30 14983 H 1445.59 -1.45386 2.59327 0
M  V30 14984 H 1443.13 -0.649209 1.40088 0
M  V30 14985 H 1445.08 -3.76178 1.64318 0
M  V30 14986 H 1443.75 -3.05983 0.709442 0
M  V30 14987 H 1442.94 -4.18561 2.80754 0
M  V30 14988 H 1442.54 -2.45191 2.82413 0
M  V30 14989 H 1444.83 -5.29846 4.2222 0
M  V30 14990 H 1445.78 -4.4633 5.49723 0
M  V30 14991 H 1446.18 -4.19584 3.77637 0
M  V30 14992 N 1445.58 -1.40446 -0.715026 0
M  V30 14993 C 1446.81 -1.4207 -1.50412 0
M  V30 14994 C 1447.22 -0.0205547 -1.88789 0
M  V30 14995 O 1446.58 0.955635 -1.55479 0
M  V30 14996 C 1446.63 -2.3119 -2.77909 0
M  V30 14997 O 1446.35 -3.65754 -2.41154 0
M  V30 14998 C 1447.85 -2.41412 -3.718 0
M  V30 14999 H 1445.07 -0.484554 -0.464164 0
M  V30 15000 H 1447.62 -1.84504 -0.881964 0
M  V30 15001 H 1445.77 -1.92117 -3.36407 0
M  V30 15002 H 1446.19 -4.13091 -3.23197 0
M  V30 15003 H 1447.66 -3.07976 -4.58099 0
M  V30 15004 H 1448.14 -1.43934 -4.14945 0
M  V30 15005 H 1448.74 -2.81039 -3.19213 0
M  V30 15006 N 1447.06 0.947303 -1.25952 0
M  V30 15007 C 1447.97 2.07878 -1.08738 0
M  V30 15008 C 1448.99 1.73985 -0.0225212 0
M  V30 15009 O 1450.16 2.00139 -0.224984 0
M  V30 15010 C 1447.23 3.39231 -0.715756 0
M  V30 15011 C 1446.29 3.86945 -1.85935 0
M  V30 15012 C 1445.52 5.1203 -1.50537 0
M  V30 15013 O 1445.74 5.68965 -0.404323 0
M  V30 15014 O 1444.68 5.54634 -2.33805 0
M  V30 15015 H 1448.5 2.25305 -2.03645 0
M  V30 15016 H 1446.09 1.06321 -1.04958 0
M  V30 15017 H 1447.97 4.18167 -0.520962 0
M  V30 15018 H 1446.65 3.23057 0.203978 0
M  V30 15019 H 1445.55 3.08981 -2.10906 0
M  V30 15020 H 1446.89 4.0763 -2.75859 0
M  V30 15021 N 1448.54 1.07657 1.15099 0
M  V30 15022 C 1449.95 0.802696 1.37945 0
M  V30 15023 C 1450.15 -0.591622 1.92619 0
M  V30 15024 O 1449.21 -1.34979 2.13394 0
M  V30 15025 C 1450.52 1.87907 2.34759 0
M  V30 15026 C 1452.07 1.90418 2.48415 0
M  V30 15027 C 1452.55 2.97148 3.48521 0
M  V30 15028 N 1454.04 2.96271 3.56059 0
M  V30 15029 C 1454.77 3.75498 4.33346 0
M  V30 15030 N 1454.27 4.64583 5.1394 0
M  V30 15031 N 1456.06 3.63831 4.28466 0
M  V30 15032 H 1448.21 1.97578 0.779537 0
M  V30 15033 H 1450.48 0.856978 0.405331 0
M  V30 15034 H 1450.18 2.8811 2.01707 0
M  V30 15035 H 1450.06 1.74183 3.34575 0
M  V30 15036 H 1452.44 0.908655 2.80762 0
M  V30 15037 H 1452.52 2.0822 1.48586 0
M  V30 15038 H 1452.17 3.96903 3.16908 0
M  V30 15039 H 1452.1 2.76593 4.48112 0
M  V30 15040 H 1454.59 2.31697 2.98538 0
M  V30 15041 H 1454.9 5.2166 5.70167 0
M  V30 15042 H 1453.25 4.6863 5.13236 0
M  V30 15043 H 1456.44 2.93609 3.6457 0
M  V30 15044 H 1456.61 4.25818 4.8845 0
M  V30 15045 N 1450.02 -1.31994 0.861122 0
M  V30 15046 C 1450.96 -2.30666 0.299352 0
M  V30 15047 C 1451.96 -1.59133 -0.580779 0
M  V30 15048 O 1453.16 -1.73813 -0.467864 0
M  V30 15049 H 1449.54 -0.747932 0.0781091 0
M  V30 15050 H 1451.51 -2.7553 1.14567 0
M  V30 15051 C 1450.26 -3.44203 -0.491883 0
M  V30 15052 H 1449.58 -3.99412 0.17608 0
M  V30 15053 H 1451.02 -4.15384 -0.850434 0
M  V30 15054 C 1449.48 -2.92042 -1.67967 0
M  V30 15055 O 1450.01 -2.90073 -2.77886 0
M  V30 15056 N 1448.22 -2.48358 -1.50887 0
M  V30 15057 H 1447.76 -2.50159 -0.614683 0
M  V30 15058 H 1447.72 -2.13813 -2.30503 0
M  V30 15059 N 1451.49 -0.619688 -1.44906 0
M  V30 15060 C 1452.74 -0.119397 -2.01747 0
M  V30 15061 C 1453.06 1.25904 -1.48907 0
M  V30 15062 O 1452.33 1.83417 -0.688104 0
M  V30 15063 H 1450.91 -0.0411482 -0.745866 0
M  V30 15064 H 1453.58 -0.803813 -1.77552 0
M  V30 15065 H 1452.67 -0.078368 -3.12002 0
M  V30 15066 N 1452.97 1.53444 -0.359552 0
M  V30 15067 C 1453.88 2.29257 0.497834 0
M  V30 15068 C 1454.9 1.34987 1.09793 0
M  V30 15069 O 1456.07 1.68039 1.11017 0
M  V30 15070 C 1453.14 3.06258 1.62502 0
M  V30 15071 C 1452.2 4.16183 1.05308 0
M  V30 15072 C 1451.43 4.89503 2.12655 0
M  V30 15073 O 1451.66 4.6263 3.33661 0
M  V30 15074 O 1450.59 5.75578 1.76051 0
M  V30 15075 H 1454.42 3.03467 -0.118925 0
M  V30 15076 H 1452 1.48884 -0.124111 0
M  V30 15077 H 1453.88 3.5436 2.2805 0
M  V30 15078 H 1452.56 2.3489 2.22729 0
M  V30 15079 H 1451.47 3.72348 0.361679 0
M  V30 15080 H 1452.8 4.897 0.49545 0
M  V30 15081 N 1454.45 0.0885642 1.57351 0
M  V30 15082 C 1455.7 -0.571435 1.95208 0
M  V30 15083 C 1456.05 -1.66196 0.96936 0
M  V30 15084 O 1455.34 -1.91599 -0.00570677 0
M  V30 15085 C 1455.54 -1.17764 3.37441 0
M  V30 15086 C 1455.37 -0.147362 4.49458 0
M  V30 15087 C 1454.14 0.273866 5.04557 0
M  V30 15088 C 1456.34 0.621935 5.10526 0
M  V30 15089 N 1454.32 1.29309 6.00127 0
M  V30 15090 C 1455.69 1.49317 6.01751 0
M  V30 15091 C 1457.74 0.676169 4.93287 0
M  V30 15092 C 1456.45 2.41386 6.77588 0
M  V30 15093 C 1458.47 1.58443 5.6978 0
M  V30 15094 C 1457.83 2.44331 6.60668 0
M  V30 15095 H 1453.93 -0.179629 0.76109 0
M  V30 15096 H 1456.52 0.169612 1.9396 0
M  V30 15097 H 1454.69 -1.88853 3.39395 0
M  V30 15098 H 1456.42 -1.79947 3.62493 0
M  V30 15099 H 1453.18 -0.112587 4.73466 0
M  V30 15100 H 1453.6 1.80072 6.52613 0
M  V30 15101 H 1458.24 0.0263199 4.22792 0
M  V30 15102 H 1455.96 3.07399 7.4735 0
M  V30 15103 H 1459.55 1.63145 5.58458 0
M  V30 15104 H 1458.43 3.1347 7.18823 0
M  V30 15105 N 1455.93 -1.56509 -0.185096 0
M  V30 15106 C 1456.84 -1.98552 -1.24958 0
M  V30 15107 C 1457.85 -0.894713 -1.49234 0
M  V30 15108 O 1459.03 -1.20126 -1.61653 0
M  V30 15109 C 1456.1 -2.32513 -2.57175 0
M  V30 15110 C 1455.16 -3.55351 -2.40882 0
M  V30 15111 C 1454.39 -3.87683 -3.66794 0
M  V30 15112 O 1454.61 -3.21167 -4.7139 0
M  V30 15113 O 1453.55 -4.8108 -3.61726 0
M  V30 15114 H 1457.37 -2.89342 -0.922756 0
M  V30 15115 H 1454.96 -1.44196 -0.390887 0
M  V30 15116 H 1456.84 -2.55387 -3.35195 0
M  V30 15117 H 1455.51 -1.44888 -2.89464 0
M  V30 15118 H 1454.42 -3.37712 -1.60939 0
M  V30 15119 H 1455.75 -4.43474 -2.13522 0
M  V30 15120 N 1457.41 0.45317 -1.50944 0
M  V30 15121 C 1458.82 0.788393 -1.38768 0
M  V30 15122 C 1459.02 1.96233 -0.457676 0
M  V30 15123 O 1458.08 2.52328 0.0930651 0
M  V30 15124 C 1459.39 1.08363 -2.80496 0
M  V30 15125 C 1460.94 1.18901 -2.89537 0
M  V30 15126 C 1461.41 1.51727 -4.32138 0
M  V30 15127 N 1462.91 1.58683 -4.35171 0
M  V30 15128 C 1463.64 1.85623 -5.42523 0
M  V30 15129 N 1463.14 2.10462 -6.60059 0
M  V30 15130 N 1464.93 1.87274 -5.29986 0
M  V30 15131 H 1457.08 -0.320216 -2.09972 0
M  V30 15132 H 1459.34 -0.0808021 -0.94455 0
M  V30 15133 H 1459.05 0.293897 -3.5047 0
M  V30 15134 H 1458.92 2.01532 -3.18849 0
M  V30 15135 H 1461.31 1.96939 -2.19771 0
M  V30 15136 H 1461.39 0.236691 -2.54703 0
M  V30 15137 H 1461.04 0.74223 -5.02447 0
M  V30 15138 H 1460.97 2.48139 -4.64472 0
M  V30 15139 H 1463.46 1.41455 -3.50427 0
M  V30 15140 H 1463.77 2.30343 -7.37673 0
M  V30 15141 H 1462.11 2.07817 -6.63202 0
M  V30 15142 H 1465.31 1.67377 -4.37153 0
M  V30 15143 H 1465.48 2.07933 -6.13733 0
M  V30 15144 N 1458.88 1.40823 0.707568 0
M  V30 15145 C 1460.13 1.39741 1.4697 0
M  V30 15146 C 1460.46 0.00231194 1.942 0
M  V30 15147 O 1459.74 -0.967798 1.68713 0
M  V30 15148 C 1460.02 2.39385 2.69011 0
M  V30 15149 C 1459.87 3.87953 2.27624 0
M  V30 15150 C 1461.19 2.3645 3.71186 0
M  V30 15151 H 1458.31 0.508904 0.533091 0
M  V30 15152 H 1460.95 1.72015 0.806888 0
M  V30 15153 H 1459.1 2.11993 3.25563 0
M  V30 15154 H 1460.78 4.26202 1.76492 0
M  V30 15155 H 1459.02 4.03399 1.59537 0
M  V30 15156 H 1459.69 4.53201 3.15139 0
M  V30 15157 H 1462.17 2.60731 3.24282 0
M  V30 15158 H 1461.04 3.08204 4.54204 0
M  V30 15159 H 1461.3 1.3789 4.20046 0
M  V30 15160 N 1460.36 -0.94061 1.26453 0
M  V30 15161 C 1461.61 -1.68937 1.12197 0
M  V30 15162 C 1461.94 -1.91309 -0.33382 0
M  V30 15163 O 1461.22 -1.49417 -1.24518 0
M  V30 15164 C 1461.5 -3.06381 1.89215 0
M  V30 15165 C 1461.35 -2.91331 3.42704 0
M  V30 15166 C 1462.67 -4.06507 1.68642 0
M  V30 15167 H 1459.79 -0.613121 0.408964 0
M  V30 15168 H 1462.43 -1.09242 1.55455 0
M  V30 15169 H 1460.58 -3.57339 1.5245 0
M  V30 15170 H 1462.25 -2.47591 3.89226 0
M  V30 15171 H 1460.5 -2.26945 3.697 0
M  V30 15172 H 1461.17 -3.88818 3.91822 0
M  V30 15173 H 1463.64 -3.64512 2.00674 0
M  V30 15174 H 1462.52 -5.0069 2.24945 0
M  V30 15175 H 1462.78 -4.37572 0.631131 0
M  V30 15176 N 1461.84 -1.08266 -1.14527 0
M  V30 15177 C 1462.75 -0.723043 -2.2318 0
M  V30 15178 C 1463.77 0.269819 -1.71895 0
M  V30 15179 O 1464.94 0.114126 -2.01076 0
M  V30 15180 C 1462.01 -0.136229 -3.46432 0
M  V30 15181 C 1461.07 -1.18352 -4.12664 0
M  V30 15182 C 1460.3 -0.624612 -5.30032 0
M  V30 15183 O 1460.52 0.556377 -5.6768 0
M  V30 15184 O 1459.46 -1.37397 -5.86008 0
M  V30 15185 H 1463.28 -1.6294 -2.56289 0
M  V30 15186 H 1460.87 -0.856235 -1.22429 0
M  V30 15187 H 1462.75 0.18829 -4.20979 0
M  V30 15188 H 1461.43 0.74331 -3.1505 0
M  V30 15189 H 1460.33 -1.56054 -3.39997 0
M  V30 15190 H 1461.67 -2.03528 -4.48148 0
M  V30 15191 N 1463.32 1.31536 -0.86811 0
M  V30 15192 C 1464.27 2.30504 -0.311581 0
M  V30 15193 C 1465.26 1.59439 0.572332 0
M  V30 15194 O 1466.47 1.74059 0.458639 0
M  V30 15195 H 1462.84 0.747508 -0.0820745 0
M  V30 15196 H 1464.81 2.74919 -1.16026 0
M  V30 15197 C 1463.56 3.44459 0.473622 0
M  V30 15198 H 1462.89 3.99313 -0.197259 0
M  V30 15199 H 1464.33 4.15829 0.828393 0
M  V30 15200 C 1462.78 2.92929 1.66416 0
M  V30 15201 O 1463.31 2.91543 2.76344 0
M  V30 15202 N 1461.52 2.49154 1.49568 0
M  V30 15203 H 1461.07 2.50481 0.601408 0
M  V30 15204 H 1461.03 2.15032 2.29366 0
M  V30 15205 N 1464.8 0.627364 1.44575 0
M  V30 15206 C 1465.73 -0.066735 2.33405 0
M  V30 15207 C 1466.71 -0.838666 1.47988 0
M  V30 15208 O 1467.89 -0.805296 1.76716 0
M  V30 15209 C 1465.02 -1.05148 3.31 0
M  V30 15210 C 1463.98 -0.391433 4.26206 0
M  V30 15211 C 1463.3 -1.48581 5.13642 0
M  V30 15212 C 1464.6 0.699942 5.17589 0
M  V30 15213 H 1466.3 0.675029 2.91691 0
M  V30 15214 H 1463.84 0.326066 1.4026 0
M  V30 15215 H 1465.8 -1.54576 3.92026 0
M  V30 15216 H 1464.52 -1.82408 2.70915 0
M  V30 15217 H 1463.18 0.0821694 3.66508 0
M  V30 15218 H 1462.83 -2.2492 4.49911 0
M  V30 15219 H 1462.53 -1.04957 5.7815 0
M  V30 15220 H 1464.05 -1.98198 5.77538 0
M  V30 15221 H 1465.47 0.288911 5.72572 0
M  V30 15222 H 1463.86 1.0591 5.9068 0
M  V30 15223 H 1464.93 1.5686 4.58828 0
M  V30 15224 N 1466.28 -1.53251 0.367684 0
M  V30 15225 C 1467.5 -2.0618 -0.224645 0
M  V30 15226 C 1467.93 -1.23927 -1.41505 0
M  V30 15227 O 1467.28 -0.258858 -1.79443 0
M  V30 15228 C 1467.33 -3.55671 -0.594171 0
M  V30 15229 O 1466.44 -3.76132 -1.69112 0
M  V30 15230 H 1465.78 -0.663218 -0.0322099 0
M  V30 15231 H 1468.31 -1.97646 0.528897 0
M  V30 15232 H 1468.32 -3.98734 -0.864589 0
M  V30 15233 H 1466.99 -4.14982 0.276254 0
M  V30 15234 H 1465.57 -3.44965 -1.41609 0
M  V30 15235 N 1467.75 -0.0969077 -1.57302 0
M  V30 15236 C 1468.98 0.578086 -1.99181 0
M  V30 15237 C 1469.4 1.60818 -0.975667 0
M  V30 15238 O 1468.76 1.81215 0.0556054 0
M  V30 15239 C 1468.81 1.20076 -3.40021 0
M  V30 15240 O 1467.91 2.31656 -3.41188 0
M  V30 15241 H 1467.25 0.146506 -0.647636 0
M  V30 15242 H 1469.78 -0.178855 -2.03817 0
M  V30 15243 H 1469.79 1.54162 -3.77754 0
M  V30 15244 H 1468.47 0.446114 -4.135 0
M  V30 15245 H 1467.05 1.99175 -3.15252 0
M  V30 15246 N 1469.23 1.56605 0.176793 0
M  V30 15247 C 1470.48 1.81324 0.892535 0
M  V30 15248 C 1470.8 0.67301 1.83018 0
M  V30 15249 O 1470.07 -0.307498 1.93472 0
M  V30 15250 H 1468.65 0.668881 0.332576 0
M  V30 15251 H 1471.31 1.94086 0.17792 0
M  V30 15252 H 1470.41 2.75168 1.47272 0
M  V30 15253 N 1470.71 -0.445159 1.51182 0
M  V30 15254 C 1471.99 -1.20598 1.53998 0
M  V30 15255 C 1472.37 -2.08962 0.29967 0
M  V30 15256 O 1471.71 -2.17003 -0.715666 0
M  V30 15257 C 1471.92 -2.01461 2.84982 0
M  V30 15258 C 1473.27 -2.5877 3.36635 0
M  V30 15259 O 1474.3 -2.11679 2.86479 0
M  V30 15260 O 1473.16 -3.44637 4.24132 0
M  V30 15261 H 1470.25 -0.548635 0.618812 0
M  V30 15262 H 1472.8 -0.454865 1.6349 0
M  V30 15263 H 1471.57 -1.36511 3.66716 0
M  V30 15264 H 1471.19 -2.83654 2.78615 0
M  V30 15265 N 1472.19 -1.41197 -0.700089 0
M  V30 15266 C 1473.43 -1.40519 -1.46227 0
M  V30 15267 C 1473.77 -0.0126108 -1.94196 0
M  V30 15268 O 1473.04 0.958837 -1.69223 0
M  V30 15269 C 1473.32 -2.40808 -2.67738 0
M  V30 15270 C 1473.18 -3.89154 -2.25563 0
M  V30 15271 C 1474.5 -2.38415 -3.69927 0
M  V30 15272 H 1471.62 -0.511724 -0.530384 0
M  V30 15273 H 1474.26 -1.72441 -0.797754 0
M  V30 15274 H 1472.41 -2.13717 -3.24434 0
M  V30 15275 H 1474.08 -4.27132 -1.74229 0
M  V30 15276 H 1472.32 -4.04239 -1.57395 0
M  V30 15277 H 1472.99 -4.54866 -3.12731 0
M  V30 15278 H 1475.47 -2.62447 -3.22895 0
M  V30 15279 H 1474.35 -3.10609 -4.52563 0
M  V30 15280 H 1474.61 -1.40116 -4.19309 0
M  V30 15281 N 1473.67 0.933891 -1.2695 0
M  V30 15282 C 1474.6 2.05078 -1.11649 0
M  V30 15283 C 1475.58 1.70089 -0.0196463 0
M  V30 15284 O 1476.76 1.93239 -0.193007 0
M  V30 15285 C 1473.89 3.38963 -0.756387 0
M  V30 15286 C 1472.85 3.88041 -1.80577 0
M  V30 15287 C 1472.17 5.18661 -1.2998 0
M  V30 15288 C 1473.47 4.12116 -3.2087 0
M  V30 15289 H 1475.17 2.18137 -2.05077 0
M  V30 15290 H 1472.71 1.04817 -0.987392 0
M  V30 15291 H 1474.66 4.1657 -0.63619 0
M  V30 15292 H 1473.39 3.25901 0.213607 0
M  V30 15293 H 1472.05 3.12622 -1.91477 0
M  V30 15294 H 1471.7 5.01985 -0.319442 0
M  V30 15295 H 1471.4 5.52467 -2.00134 0
M  V30 15296 H 1472.92 5.98844 -1.19242 0
M  V30 15297 H 1474.33 4.80312 -3.13006 0
M  V30 15298 H 1472.73 4.57218 -3.88679 0
M  V30 15299 H 1473.8 3.17633 -3.66384 0
M  V30 15300 N 1475.14 1.08871 1.13951 0
M  V30 15301 C 1476.05 0.734869 2.22793 0
M  V30 15302 C 1477.07 -0.260699 1.72036 0
M  V30 15303 O 1478.25 -0.103461 2.01134 0
M  V30 15304 C 1475.31 0.154599 3.46355 0
M  V30 15305 C 1474.37 1.20539 4.1203 0
M  V30 15306 C 1473.6 0.652712 5.29694 0
M  V30 15307 O 1473.83 -0.526264 5.67967 0
M  V30 15308 O 1472.76 1.40503 5.85271 0
M  V30 15309 H 1476.59 1.64297 2.55422 0
M  V30 15310 H 1474.17 0.862716 1.21974 0
M  V30 15311 H 1476.05 -0.165962 4.21073 0
M  V30 15312 H 1474.73 -0.726592 3.1544 0
M  V30 15313 H 1473.64 1.57855 3.39164 0
M  V30 15314 H 1474.97 2.05902 4.47063 0
M  V30 15315 N 1476.62 -1.31073 0.875073 0
M  V30 15316 C 1477.85 -2.00397 0.50245 0
M  V30 15317 C 1478.26 -1.65826 -0.910951 0
M  V30 15318 O 1477.6 -0.886276 -1.60906 0
M  V30 15319 C 1477.66 -3.54696 0.585744 0
M  V30 15320 C 1477.33 -4.12756 1.96167 0
M  V30 15321 C 1478.33 -4.29484 2.92984 0
M  V30 15322 C 1476.01 -4.48365 2.26437 0
M  V30 15323 C 1478 -4.81019 4.18209 0
M  V30 15324 C 1475.69 -4.99601 3.51912 0
M  V30 15325 C 1476.69 -5.1588 4.47613 0
M  V30 15326 O 1476.38 -5.66014 5.70862 0
M  V30 15327 H 1476.11 -0.647645 0.193733 0
M  V30 15328 H 1478.66 -1.6816 1.17947 0
M  V30 15329 H 1476.89 -3.86416 -0.148214 0
M  V30 15330 H 1478.58 -4.05271 0.225818 0
M  V30 15331 H 1479.35 -4.02286 2.70907 0
M  V30 15332 H 1475.23 -4.34968 1.52721 0
M  V30 15333 H 1478.77 -4.9364 4.92915 0
M  V30 15334 H 1474.67 -5.26234 3.73829 0
M  V30 15335 H 1475.44 -5.84374 5.73105 0
M  V30 15336 N 1478.1 -0.635022 -1.4424 0
M  V30 15337 C 1479.33 -0.146549 -2.06882 0
M  V30 15338 C 1479.75 1.17143 -1.4717 0
M  V30 15339 O 1479.11 1.71952 -0.574636 0
M  V30 15340 C 1479.16 -0.0494694 -3.60566 0
M  V30 15341 O 1478.26 0.993423 -4.00256 0
M  V30 15342 H 1477.6 -0.0865505 -0.658335 0
M  V30 15343 H 1480.13 -0.872803 -1.85049 0
M  V30 15344 H 1480.14 0.139839 -4.0776 0
M  V30 15345 H 1478.82 -1.01169 -4.03407 0
M  V30 15346 H 1477.39 0.778372 -3.64686 0
M  V30 15347 N 1479.58 1.53054 -0.375806 0
M  V30 15348 C 1480.83 2.01401 0.210673 0
M  V30 15349 C 1481.15 1.26275 1.47935 0
M  V30 15350 O 1480.41 0.347611 1.92588 0
M  V30 15351 C 1480.71 3.53321 0.538419 0
M  V30 15352 C 1480.37 4.46376 -0.637126 0
M  V30 15353 C 1479.04 4.71534 -0.959653 0
M  V30 15354 C 1481.39 5.01364 -1.42421 0
M  V30 15355 C 1478.72 5.4893 -2.07105 0
M  V30 15356 C 1481.07 5.79975 -2.5261 0
M  V30 15357 C 1479.73 6.03416 -2.85386 0
M  V30 15358 H 1479 0.736979 0.0770907 0
M  V30 15359 H 1481.65 1.84574 -0.510376 0
M  V30 15360 H 1479.95 3.6815 1.34062 0
M  V30 15361 H 1481.65 3.88212 1.00461 0
M  V30 15362 H 1478.24 4.2695 -0.375722 0
M  V30 15363 H 1482.42 4.81865 -1.18828 0
M  V30 15364 H 1477.68 5.65309 -2.32886 0
M  V30 15365 H 1481.85 6.21588 -3.14008 0
M  V30 15366 H 1479.48 6.63172 -3.71627 0
M  V30 15367 N 1481.06 0.105248 1.57248 0
M  V30 15368 C 1482.28 -0.564157 1.9906 0
M  V30 15369 C 1482.7 -1.61092 0.984624 0
M  V30 15370 O 1482.06 -1.82484 -0.0244031 0
M  V30 15371 C 1482.11 -1.20272 3.40906 0
M  V30 15372 O 1481.83 -0.197815 4.37653 0
M  V30 15373 C 1483.33 -1.95677 3.97776 0
M  V30 15374 H 1480.55 -0.150468 0.653912 0
M  V30 15375 H 1483.09 0.187532 2.03638 0
M  V30 15376 H 1481.25 -1.90528 3.3731 0
M  V30 15377 H 1481.66 -0.659998 5.20331 0
M  V30 15378 H 1483.14 -2.35702 4.99148 0
M  V30 15379 H 1483.61 -2.82661 3.36154 0
M  V30 15380 H 1484.22 -1.30215 4.04876 0
M  V30 15381 N 1482.53 -1.56697 -0.168486 0
M  V30 15382 C 1483.76 -1.86022 -0.898847 0
M  V30 15383 C 1484.17 -0.688909 -1.76212 0
M  V30 15384 O 1483.52 0.35111 -1.80313 0
M  V30 15385 C 1483.58 -3.09795 -1.82394 0
M  V30 15386 C 1483.24 -4.42553 -1.13999 0
M  V30 15387 C 1484.24 -5.1745 -0.504092 0
M  V30 15388 C 1481.92 -4.89288 -1.1359 0
M  V30 15389 C 1483.92 -6.37274 0.126758 0
M  V30 15390 C 1481.6 -6.09041 -0.501222 0
M  V30 15391 C 1482.6 -6.82878 0.128998 0
M  V30 15392 O 1482.29 -8.00359 0.753658 0
M  V30 15393 H 1482.02 -0.621283 -0.266426 0
M  V30 15394 H 1484.58 -2.04674 -0.172562 0
M  V30 15395 H 1482.81 -2.87096 -2.59061 0
M  V30 15396 H 1484.5 -3.25544 -2.42438 0
M  V30 15397 H 1485.26 -4.82424 -0.499207 0
M  V30 15398 H 1481.14 -4.31754 -1.61584 0
M  V30 15399 H 1484.68 -6.94846 0.619267 0
M  V30 15400 H 1480.58 -6.43532 -0.5037 0
M  V30 15401 H 1481.35 -8.1589 0.653188 0
M  V30 15402 N 1484.01 0.437135 -1.51416 0
M  V30 15403 C 1484.92 1.55581 -1.75589 0
M  V30 15404 C 1485.94 1.61797 -0.640132 0
M  V30 15405 O 1487.11 1.79035 -0.922406 0
M  V30 15406 C 1484.18 2.91561 -1.87598 0
M  V30 15407 C 1483.24 2.9546 -3.11451 0
M  V30 15408 C 1482.47 4.24954 -3.22878 0
M  V30 15409 O 1482.7 5.17341 -2.40238 0
M  V30 15410 O 1481.63 4.35141 -4.15856 0
M  V30 15411 H 1485.46 1.38098 -2.70486 0
M  V30 15412 H 1483.04 0.620163 -1.3592 0
M  V30 15413 H 1484.92 3.72262 -1.97481 0
M  V30 15414 H 1483.6 3.09171 -0.958889 0
M  V30 15415 H 1482.51 2.13713 -3.07046 0
M  V30 15416 H 1483.84 2.82794 -4.0285 0
M  V30 15417 N 1485.49 1.41566 0.692592 0
M  V30 15418 C 1486.44 1.43648 1.80648 0
M  V30 15419 C 1487.41 0.290497 1.6354 0
M  V30 15420 O 1488.59 0.491979 1.84348 0
M  V30 15421 C 1485.73 1.32733 3.18553 0
M  V30 15422 C 1484.85 2.57224 3.47073 0
M  V30 15423 C 1483.98 2.38581 4.74608 0
M  V30 15424 C 1483.02 3.58534 4.96105 0
M  V30 15425 N 1482.16 3.38942 6.14868 0
M  V30 15426 H 1487 2.38847 1.78203 0
M  V30 15427 H 1484.53 1.186 0.870193 0
M  V30 15428 H 1486.49 1.24405 3.9822 0
M  V30 15429 H 1485.12 0.411407 3.20168 0
M  V30 15430 H 1484.17 2.7599 2.6179 0
M  V30 15431 H 1485.49 3.46443 3.58858 0
M  V30 15432 H 1484.64 2.27738 5.62335 0
M  V30 15433 H 1483.38 1.46824 4.65074 0
M  V30 15434 H 1482.38 3.69828 4.06826 0
M  V30 15435 H 1483.61 4.51248 5.07496 0
M  V30 15436 H 1481.55 2.49887 6.06541 0
M  V30 15437 H 1481.47 4.21737 6.27434 0
M  V30 15438 H 1482.74 3.31877 7.05321 0
M  V30 15439 N 1486.97 -0.927146 1.27443 0
M  V30 15440 C 1487.9 -2.04483 1.12735 0
M  V30 15441 C 1488.88 -1.70076 0.0286662 0
M  V30 15442 O 1490.06 -1.93133 0.203252 0
M  V30 15443 C 1487.19 -3.38557 0.774352 0
M  V30 15444 C 1486.15 -3.87078 1.82632 0
M  V30 15445 C 1485.47 -5.17964 1.32729 0
M  V30 15446 C 1486.77 -4.10409 3.23051 0
M  V30 15447 H 1488.47 -2.17046 2.06231 0
M  V30 15448 H 1486.01 -1.04292 0.992937 0
M  V30 15449 H 1487.97 -4.16227 0.658273 0
M  V30 15450 H 1486.69 -3.26009 -0.196321 0
M  V30 15451 H 1485.35 -3.11602 1.93132 0
M  V30 15452 H 1485 -5.01808 0.346059 0
M  V30 15453 H 1484.7 -5.51398 2.03061 0
M  V30 15454 H 1486.22 -5.98203 1.22416 0
M  V30 15455 H 1487.64 -4.78646 3.15549 0
M  V30 15456 H 1486.03 -4.5515 3.91099 0
M  V30 15457 H 1487.1 -3.15685 3.68064 0
M  V30 15458 N 1488.45 -1.09474 -1.13372 0
M  V30 15459 C 1489.69 -0.82945 -1.84295 0
M  V30 15460 C 1490.02 0.646788 -1.83961 0
M  V30 15461 O 1489.29 1.46929 -1.29572 0
M  V30 15462 H 1487.87 -0.303853 -0.682409 0
M  V30 15463 H 1490.53 -1.38298 -1.3733 0
M  V30 15464 H 1489.62 -1.18342 -2.88793 0
M  V30 15465 N 1489.92 1.30607 -0.882012 0
M  V30 15466 C 1491.34 1.78418 -0.549892 0
M  V30 15467 C 1491.69 1.72553 0.933797 0
M  V30 15468 O 1490.81 1.30058 1.72956 0
M  V30 15469 C 1491.41 3.2397 -0.991398 0
M  V30 15470 C 1489.97 3.69629 -0.710739 0
M  V30 15471 C 1489.11 2.51127 -1.17602 0
M  V30 15472 H 1492.06 1.17519 -1.06653 0
M  V30 15473 H 1492.08 3.79159 -0.319115 0
M  V30 15474 H 1491.6 3.28207 -2.07128 0
M  V30 15475 H 1489.7 3.70883 0.357273 0
M  V30 15476 H 1489.81 4.61232 -1.29621 0
M  V30 15477 H 1488.17 2.47642 -0.595444 0
M  V30 15478 H 1488.96 2.58103 -2.26358 0
M  V30 15479 N 1491.4 0.642663 1.43901 0
M  V30 15480 C 1492.33 -0.0938945 2.29008 0
M  V30 15481 C 1493.35 -0.797561 1.41925 0
M  V30 15482 O 1494.54 -0.65708 1.65966 0
M  V30 15483 C 1491.64 -1.15564 3.18588 0
M  V30 15484 C 1490.81 -0.532208 4.3415 0
M  V30 15485 C 1489.87 -1.48943 5.0468 0
M  V30 15486 O 1488.89 -1.00211 5.60309 0
M  V30 15487 N 1490.1 -2.82362 5.072 0
M  V30 15488 H 1492.86 0.636539 2.92862 0
M  V30 15489 H 1490.42 0.484665 1.54475 0
M  V30 15490 H 1492.41 -1.79658 3.62636 0
M  V30 15491 H 1490.98 -1.78816 2.56405 0
M  V30 15492 H 1490.2 0.287598 3.93149 0
M  V30 15493 H 1491.49 -0.0965526 5.08708 0
M  V30 15494 H 1490.89 -3.24524 4.63358 0
M  V30 15495 H 1489.45 -3.41786 5.55001 0
M  V30 15496 N 1492.88 -1.52852 0.383918 0
M  V30 15497 C 1494.11 -2.0563 -0.199926 0
M  V30 15498 C 1494.52 -1.25589 -1.41506 0
M  V30 15499 O 1493.86 -0.294254 -1.81328 0
M  V30 15500 C 1493.92 -3.53761 -0.639796 0
M  V30 15501 C 1493.59 -4.54667 0.461143 0
M  V30 15502 C 1494.59 -5.02946 1.31685 0
M  V30 15503 C 1492.27 -4.98376 0.626633 0
M  V30 15504 C 1494.26 -5.93553 2.32322 0
M  V30 15505 C 1491.95 -5.88784 1.63635 0
M  V30 15506 C 1492.95 -6.36265 2.48306 0
M  V30 15507 O 1492.64 -7.24888 3.47553 0
M  V30 15508 H 1492.37 -0.675089 -0.0350831 0
M  V30 15509 H 1494.92 -1.98009 0.546042 0
M  V30 15510 H 1493.15 -3.58982 -1.43766 0
M  V30 15511 H 1494.84 -3.89307 -1.1487 0
M  V30 15512 H 1495.61 -4.69913 1.20028 0
M  V30 15513 H 1491.49 -4.60994 -0.0226873 0
M  V30 15514 H 1495.03 -6.30536 2.98447 0
M  V30 15515 H 1490.93 -6.21232 1.75332 0
M  V30 15516 H 1491.7 -7.42934 3.43498 0
M  V30 15517 N 1494.36 -0.113586 -1.5719 0
M  V30 15518 C 1495.59 0.553592 -1.99356 0
M  V30 15519 C 1496 1.60567 -0.993154 0
M  V30 15520 O 1495.36 1.82494 0.0147252 0
M  V30 15521 C 1495.41 1.18462 -3.41539 0
M  V30 15522 O 1495.13 0.174602 -4.37752 0
M  V30 15523 C 1496.63 1.93564 -3.98808 0
M  V30 15524 H 1493.85 0.146998 -0.6547 0
M  V30 15525 H 1496.4 -0.198329 -2.03536 0
M  V30 15526 H 1494.55 1.88736 -3.38316 0
M  V30 15527 H 1494.97 0.632395 -5.20674 0
M  V30 15528 H 1496.44 2.33051 -5.00391 0
M  V30 15529 H 1496.92 2.80874 -3.37648 0
M  V30 15530 H 1497.52 1.28066 -4.0556 0
M  V30 15531 N 1495.84 1.56784 0.160173 0
M  V30 15532 C 1497.07 1.86767 0.89026 0
M  V30 15533 C 1497.48 0.700276 1.75333 0
M  V30 15534 O 1496.84 -0.330342 1.79485 0
M  V30 15535 C 1496.89 3.15883 1.75784 0
M  V30 15536 O 1496.61 4.28124 0.929575 0
M  V30 15537 C 1498.11 3.5929 2.59664 0
M  V30 15538 H 1495.33 0.61938 0.258088 0
M  V30 15539 H 1497.87 2.03897 0.156919 0
M  V30 15540 H 1496.03 3.00546 2.4444 0
M  V30 15541 H 1496.44 5.01872 1.52397 0
M  V30 15542 H 1497.92 4.52506 3.16136 0
M  V30 15543 H 1498.39 2.83943 3.35072 0
M  V30 15544 H 1499 3.77277 1.96323 0
M  V30 15545 N 1497.32 -0.429099 1.51646 0
M  V30 15546 C 1498.23 -1.54648 1.76412 0
M  V30 15547 C 1499.24 -1.61455 0.648703 0
M  V30 15548 O 1500.42 -1.78544 0.931888 0
M  V30 15549 C 1497.48 -2.90562 1.89142 0
M  V30 15550 C 1496.54 -2.93804 3.13014 0
M  V30 15551 C 1495.78 -4.23235 3.25127 0
M  V30 15552 O 1496 -5.1606 2.42979 0
M  V30 15553 O 1494.93 -4.32929 4.18158 0
M  V30 15554 H 1498.76 -1.36661 2.71215 0
M  V30 15555 H 1496.34 -0.612946 1.36247 0
M  V30 15556 H 1498.23 -3.7121 1.99453 0
M  V30 15557 H 1496.9 -3.08659 0.975272 0
M  V30 15558 H 1495.81 -2.12082 3.08175 0
M  V30 15559 H 1497.14 -2.80654 4.04344 0
M  V30 15560 N 1498.79 -1.41931 -0.685074 0
M  V30 15561 C 1500.04 -1.43062 -1.44585 0
M  V30 15562 C 1500.39 -0.0425175 -1.92353 0
M  V30 15563 O 1499.69 0.933507 -1.67321 0
M  V30 15564 C 1499.88 -2.38099 -2.6654 0
M  V30 15565 C 1499.71 -3.86013 -2.30704 0
M  V30 15566 C 1498.48 -4.54622 -2.20559 0
M  V30 15567 C 1500.68 -4.76711 -1.93005 0
M  V30 15568 N 1498.66 -5.87613 -1.77719 0
M  V30 15569 C 1500.03 -5.9873 -1.61005 0
M  V30 15570 C 1502.09 -4.6426 -1.79907 0
M  V30 15571 C 1500.79 -7.09684 -1.17221 0
M  V30 15572 C 1502.82 -5.75187 -1.37529 0
M  V30 15573 C 1502.18 -6.96311 -1.06445 0
M  V30 15574 H 1498.28 -0.578696 -0.525961 0
M  V30 15575 H 1500.86 -1.77882 -0.791591 0
M  V30 15576 H 1499.03 -2.05358 -3.29671 0
M  V30 15577 H 1500.76 -2.29878 -3.33074 0
M  V30 15578 H 1497.52 -4.08698 -2.39296 0
M  V30 15579 H 1497.94 -6.58124 -1.58751 0
M  V30 15580 H 1502.58 -3.71104 -2.02588 0
M  V30 15581 H 1500.3 -8.02698 -0.932855 0
M  V30 15582 H 1503.89 -5.67561 -1.27929 0
M  V30 15583 H 1502.77 -7.80687 -0.741497 0
M  V30 15584 N 1500.27 0.920374 -1.27933 0
M  V30 15585 C 1501.52 1.66883 -1.147 0
M  V30 15586 C 1501.85 1.92082 0.305732 0
M  V30 15587 O 1501.1 1.51449 1.23942 0
M  V30 15588 C 1501.4 3.03725 -1.88377 0
M  V30 15589 C 1501.07 2.9821 -3.38203 0
M  V30 15590 C 1499.73 2.96413 -3.79068 0
M  V30 15591 C 1502.08 2.88952 -4.3377 0
M  V30 15592 C 1499.41 2.83151 -5.13851 0
M  V30 15593 C 1501.76 2.77231 -5.68618 0
M  V30 15594 C 1500.42 2.73788 -6.08766 0
M  V30 15595 H 1499.69 0.61067 -0.419718 0
M  V30 15596 H 1502.34 1.0728 -1.58629 0
M  V30 15597 H 1500.65 3.67075 -1.36978 0
M  V30 15598 H 1502.34 3.60527 -1.7556 0
M  V30 15599 H 1498.93 3.004 -3.05709 0
M  V30 15600 H 1503.12 2.89433 -4.03165 0
M  V30 15601 H 1498.37 2.78877 -5.44093 0
M  V30 15602 H 1502.55 2.69034 -6.42335 0
M  V30 15603 H 1500.17 2.63268 -7.13158 0
M  V30 15604 N 1501.75 1.10074 1.1279 0
M  V30 15605 C 1502.98 0.862906 1.88047 0
M  V30 15606 C 1503.39 -0.586346 1.79464 0
M  V30 15607 O 1502.75 -1.40402 1.16591 0
M  V30 15608 C 1502.8 1.29784 3.37399 0
M  V30 15609 O 1502.52 2.69026 3.4577 0
M  V30 15610 C 1504.02 1.09336 4.29605 0
M  V30 15611 H 1501.24 0.309981 0.595108 0
M  V30 15612 H 1503.79 1.46444 1.42738 0
M  V30 15613 H 1501.94 0.740056 3.80266 0
M  V30 15614 H 1502.36 2.87532 4.38663 0
M  V30 15615 H 1503.83 1.44687 5.327 0
M  V30 15616 H 1504.31 0.031679 4.39189 0
M  V30 15617 H 1504.91 1.63743 3.92516 0
M  V30 15618 N 1503.23 -1.30138 0.888926 0
M  V30 15619 C 1504.46 -1.99853 0.523676 0
M  V30 15620 C 1504.87 -1.66783 -0.893312 0
M  V30 15621 O 1504.21 -0.903292 -1.59957 0
M  V30 15622 C 1504.27 -3.54055 0.623332 0
M  V30 15623 C 1503.93 -4.10652 2.00534 0
M  V30 15624 C 1504.93 -4.26353 2.97522 0
M  V30 15625 C 1502.62 -4.45938 2.3118 0
M  V30 15626 C 1504.61 -4.76557 4.23288 0
M  V30 15627 C 1502.3 -4.95841 3.57191 0
M  V30 15628 C 1503.3 -5.11103 4.53059 0
M  V30 15629 O 1502.98 -5.59927 5.76833 0
M  V30 15630 H 1502.72 -0.645553 0.200591 0
M  V30 15631 H 1505.27 -1.66899 1.19724 0
M  V30 15632 H 1503.5 -3.86551 -0.107221 0
M  V30 15633 H 1505.19 -4.05009 0.26879 0
M  V30 15634 H 1505.95 -3.9939 2.75159 0
M  V30 15635 H 1501.83 -4.33324 1.57326 0
M  V30 15636 H 1505.38 -4.88385 4.98123 0
M  V30 15637 H 1501.27 -5.22239 3.7939 0
M  V30 15638 H 1502.04 -5.78263 5.79271 0
M  V30 15639 N 1504.71 -0.650285 -1.43559 0
M  V30 15640 C 1505.93 -0.168483 -2.06715 0
M  V30 15641 C 1506.36 1.15576 -1.48404 0
M  V30 15642 O 1505.71 1.71333 -0.592842 0
M  V30 15643 C 1505.76 -0.0877095 -3.60493 0
M  V30 15644 O 1504.87 0.950915 -4.01287 0
M  V30 15645 H 1504.21 -0.0935281 -0.65738 0
M  V30 15646 H 1506.74 -0.892381 -1.84113 0
M  V30 15647 H 1506.75 0.0965825 -4.07886 0
M  V30 15648 H 1505.42 -1.05442 -4.02312 0
M  V30 15649 H 1504 0.739648 -3.65491 0
M  V30 15650 N 1506.18 1.52647 -0.392018 0
M  V30 15651 C 1507.6 1.59544 -0.0421007 0
M  V30 15652 C 1507.8 1.40586 1.44353 0
M  V30 15653 O 1506.86 1.22422 2.20837 0
M  V30 15654 C 1508.17 2.9614 -0.521713 0
M  V30 15655 C 1509.72 3.09325 -0.478205 0
M  V30 15656 C 1510.19 4.48374 -0.93405 0
M  V30 15657 N 1511.68 4.54566 -0.890173 0
M  V30 15658 C 1512.42 5.60395 -1.21427 0
M  V30 15659 N 1511.91 6.73858 -1.60897 0
M  V30 15660 N 1513.71 5.50515 -1.13534 0
M  V30 15661 H 1505.86 1.63219 -1.35917 0
M  V30 15662 H 1508.12 0.766913 -0.557269 0
M  V30 15663 H 1507.83 3.15238 -1.55942 0
M  V30 15664 H 1507.7 3.7712 0.0777658 0
M  V30 15665 H 1510.09 2.89921 0.550418 0
M  V30 15666 H 1510.17 2.30292 -1.11352 0
M  V30 15667 H 1509.81 4.68519 -1.96092 0
M  V30 15668 H 1509.74 5.25878 -0.275717 0
M  V30 15669 H 1512.23 3.7311 -0.599758 0
M  V30 15670 H 1512.55 7.5058 -1.83983 0
M  V30 15671 H 1510.89 6.75182 -1.64786 0
M  V30 15672 H 1514.08 4.60755 -0.825977 0
M  V30 15673 H 1514.26 6.32889 -1.39124 0
M  V30 15674 O 1507.7 0.262365 1.59355 0
M  V30 15675 H 1508.39 -0.310171 1.91201 0
M  V30 END ATOM
M  V30 BEGIN BOND
M  V30 END BOND
M  V30 END CTAB
M  END
$$$$
