drugbank_target|Q9KIE5 FkbI (DB03147)
 OpenBabel12092120263D

  0  0  0     0  0            999 V3000
M  V30 BEGIN CTAB
M  V30 COUNTS 5332 5377 0 0 0
M  V30 BEGIN ATOM
M  V30 1 H -0.908 1.98254 -0.117106 0
M  V30 2 N 0 1.576 0 0
M  V30 3 C 0.933 2.03868 1.02534 0
M  V30 4 C 1.911 0.928543 1.3348 0
M  V30 5 O 3.095 1.19667 1.45644 0
M  V30 6 C 0.222 2.43627 2.35294 0
M  V30 7 C -0.732 3.65373 2.2001 0
M  V30 8 S 0.101 5.13292 1.52614 0
M  V30 9 C 1.257 5.56322 2.86805 0
M  V30 10 H 1.49 2.90518 0.631377 0
M  V30 11 H -0.977 1.52953 0.210867 0
M  V30 12 H 0.981 2.67203 3.11629 0
M  V30 13 H -0.358 1.57376 2.7183 0
M  V30 14 H -1.165 3.90944 3.18086 0
M  V30 15 H -1.563 3.418 1.51819 0
M  V30 16 H 0.729 5.58782 3.83104 0
M  V30 17 H 1.672 6.56266 2.65933 0
M  V30 18 H 2.08 4.83886 2.90714 0
M  V30 19 N 1.4781 -0.272755 1.55222 0
M  V30 20 C 2.8891 -0.84378 1.66545 0
M  V30 21 C 3.2401 -1.87035 0.592641 0
M  V30 22 O 2.3651 -2.14761 -0.265818 0
M  V30 23 C 2.9601 -1.53723 3.01918 0
M  V30 24 C 1.5191 -2.05628 3.15268 0
M  V30 25 C 0.6661 -0.898424 2.62343 0
M  V30 26 H 3.6171 -0.0490998 1.58624 0
M  V30 27 H 3.6381 -2.40421 2.94921 0
M  V30 28 H 3.1501 -0.78983 3.79978 0
M  V30 29 H 1.2511 -2.83329 2.41983 0
M  V30 30 H 1.3641 -2.27142 4.21833 0
M  V30 31 H -0.2719 -1.29186 2.19506 0
M  V30 32 H 0.5111 -0.164528 3.42906 0
M  V30 33 N 2.9562 -1.48159 -0.537278 0
M  V30 34 C 3.8662 -1.64807 -1.6696 0
M  V30 35 C 4.8822 -0.530651 -1.65711 0
M  V30 36 O 6.0582 -0.800784 -1.84796 0
M  V30 37 C 3.1232 -1.67708 -3.03438 0
M  V30 38 C 2.1842 -2.91025 -3.156 0
M  V30 39 C 1.4172 -2.93778 -4.45567 0
M  V30 40 O 1.6402 -2.05153 -5.3223 0
M  V30 41 O 0.5742 -3.85868 -4.61941 0
M  V30 42 H 4.4002 -2.6066 -1.55853 0
M  V30 43 H 1.9852 -1.31475 -0.709549 0
M  V30 44 H 3.8672 -1.7218 -3.84619 0
M  V30 45 H 2.5422 -0.750278 -3.14885 0
M  V30 46 H 1.4492 -2.92089 -2.33741 0
M  V30 47 H 2.7822 -3.83065 -3.09066 0
M  V30 48 N 4.4343 0.785586 -1.36625 0
M  V30 49 C 5.8503 1.08419 -1.17122 0
M  V30 50 C 6.0503 2.015 0.00208491 0
M  V30 51 O 5.1063 2.43551 0.666278 0
M  V30 52 C 6.4193 1.69498 -2.48377 0
M  V30 53 C 7.9673 1.81821 -2.54775 0
M  V30 54 C 8.4423 2.46315 -3.86126 0
M  V30 55 N 9.9333 2.53779 -3.87492 0
M  V30 56 C 10.6683 3.045 -4.85868 0
M  V30 57 N 10.1643 3.55499 -5.94637 0
M  V30 58 N 11.9573 3.03247 -4.73284 0
M  V30 59 H 4.1083 0.167264 -2.1174 0
M  V30 60 H 6.3713 0.13682 -0.938075 0
M  V30 61 H 6.0773 1.08571 -3.34522 0
M  V30 62 H 5.9513 2.6896 -2.64462 0
M  V30 63 H 8.3383 2.41884 -1.69045 0
M  V30 64 H 8.4193 0.811532 -2.42586 0
M  V30 65 H 8.0633 1.86895 -4.72263 0
M  V30 66 H 7.9933 3.47561 -3.95612 0
M  V30 67 H 10.4843 2.17672 -3.08913 0
M  V30 68 H 10.7973 3.92562 -6.65669 0
M  V30 69 H 9.1423 3.5364 -5.98301 0
M  V30 70 H 12.3333 2.62696 -3.87438 0
M  V30 71 H 12.5063 3.42467 -5.50109 0
M  V30 72 N 5.9124 1.20967 1.01018 0
M  V30 73 C 7.1894 0.93264 1.71934 0
M  V30 74 C 7.5694 -0.55692 2.03621 0
M  V30 75 O 6.9174 -1.52035 1.7058 0
M  V30 76 C 7.1274 1.81233 2.98254 0
M  V30 77 C 8.4754 2.05804 3.71389 0
M  V30 78 O 9.4994 1.78539 3.08225 0
M  V30 79 O 8.3584 2.51888 4.84989 0
M  V30 80 H 5.4524 0.349272 0.749625 0
M  V30 81 H 7.9984 1.31871 1.06808 0
M  V30 82 H 6.7704 2.82067 2.71208 0
M  V30 83 H 6.3934 1.42674 3.7112 0
M  V30 84 N 7.3905 -1.2043 1.01659 0
M  V30 85 C 8.3535 -2.21433 0.591616 0
M  V30 86 C 9.3535 -1.57203 -0.338226 0
M  V30 87 O 10.5435 -1.73737 -0.126918 0
M  V30 88 C 7.6755 -3.40628 -0.136058 0
M  V30 89 H 8.8685 -2.60545 1.48514 0
M  V30 90 H 6.4215 -1.33893 0.806379 0
M  V30 91 H 7.1565 -3.07019 -1.04449 0
M  V30 92 H 6.9415 -3.88475 0.531917 0
M  V30 93 H 8.4315 -4.15475 -0.420735 0
M  V30 94 N 8.8686 -0.792821 -1.36206 0
M  V30 95 C 9.7986 -0.207853 -2.32573 0
M  V30 96 C 10.7796 0.659055 -1.56813 0
M  V30 97 O 11.9646 0.592176 -1.84951 0
M  V30 98 C 9.0946 0.655449 -3.41059 0
M  V30 99 C 8.0486 -0.111842 -4.27854 0
M  V30 100 C 7.3746 0.872274 -5.27537 0
M  V30 101 C 8.6746 -1.30299 -5.05786 0
M  V30 102 H 10.3686 -1.01294 -2.81744 0
M  V30 103 H 7.9146 -0.48854 -1.3546 0
M  V30 104 H 9.8676 1.07464 -4.07467 0
M  V30 105 H 8.5916 1.49328 -2.90463 0
M  V30 106 H 7.2506 -0.512053 -3.63006 0
M  V30 107 H 6.8986 1.70523 -4.73214 0
M  V30 108 H 6.5986 0.363291 -5.86476 0
M  V30 109 H 8.1226 1.28996 -5.96818 0
M  V30 110 H 9.5366 -0.959379 -5.65216 0
M  V30 111 H 7.9336 -1.7455 -5.74154 0
M  V30 112 H 9.0036 -2.09663 -4.37229 0
M  V30 113 N 10.3467 1.47872 -0.545128 0
M  V30 114 C 11.2767 2.32661 0.197793 0
M  V30 115 C 12.2577 1.43041 0.920504 0
M  V30 116 O 13.4427 1.71912 0.90333 0
M  V30 117 C 10.5727 3.24569 1.23582 0
M  V30 118 C 9.5267 4.23333 0.630323 0
M  V30 119 C 8.8527 5.0448 1.77211 0
M  V30 120 C 10.1527 5.20704 -0.407974 0
M  V30 121 H 11.8467 2.95024 -0.510045 0
M  V30 122 H 9.3927 1.4187 -0.246731 0
M  V30 123 H 11.3457 3.8272 1.76362 0
M  V30 124 H 10.0697 2.60236 1.97344 0
M  V30 125 H 8.7287 3.6639 0.123922 0
M  V30 126 H 8.3767 4.36561 2.49847 0
M  V30 127 H 8.0767 5.71339 1.37281 0
M  V30 128 H 9.6007 5.65487 2.3034 0
M  V30 129 H 11.0147 5.7329 0.033305 0
M  V30 130 H 9.4117 5.95699 -0.725486 0
M  V30 131 H 10.4817 4.66917 -1.30828 0
M  V30 132 N 11.8248 0.280983 1.55075 0
M  V30 133 C 13.0528 -0.337293 2.04132 0
M  V30 134 C 13.4678 -1.4903 1.15912 0
M  V30 135 O 12.8248 -1.81606 0.180459 0
M  V30 136 C 12.8758 -0.812706 3.52246 0
M  V30 137 O 12.5968 0.294387 4.3711 0
M  V30 138 C 14.0978 -1.4982 4.17216 0
M  V30 139 H 11.3178 -0.0761638 0.666663 0
M  V30 140 H 13.8618 0.414787 2.00249 0
M  V30 141 H 12.0168 -1.51486 3.56554 0
M  V30 142 H 12.4308 -0.0721325 5.2445 0
M  V30 143 H 13.9048 -1.7822 5.22438 0
M  V30 144 H 14.3818 -2.43168 3.65741 0
M  V30 145 H 14.9878 -0.839742 4.16927 0
M  V30 146 N 13.3029 -1.57598 0.00835791 0
M  V30 147 C 14.5799 -1.82172 -0.712235 0
M  V30 148 C 14.9599 -0.887873 -1.9152 0
M  V30 149 O 14.3079 0.06146 -2.28417 0
M  V30 150 C 14.5179 -3.30875 -1.11008 0
M  V30 151 C 15.8659 -3.96826 -1.51044 0
M  V30 152 O 16.8899 -3.35248 -1.20364 0
M  V30 153 O 15.7489 -5.05318 -2.08125 0
M  V30 154 H 12.8429 -0.750435 -0.347529 0
M  V30 155 H 15.3889 -1.69665 0.0344523 0
M  V30 156 H 14.1609 -3.90481 -0.252982 0
M  V30 157 H 13.7839 -3.48412 -1.9156 0
M  V30 158 N 14.781 0.264519 -1.55364 0
M  V30 159 C 15.711 1.33121 -1.91836 0
M  V30 160 C 16.692 1.51101 -0.781192 0
M  V30 161 O 17.877 1.64003 -1.04003 0
M  V30 162 C 15.007 2.68921 -2.19769 0
M  V30 163 C 13.961 2.65661 -3.35571 0
M  V30 164 C 13.287 4.05093 -3.49004 0
M  V30 165 C 14.587 2.24187 -4.71739 0
M  V30 166 H 16.281 1.02844 -2.81182 0
M  V30 167 H 13.827 0.493286 -1.35287 0
M  V30 168 H 15.78 3.43663 -2.43872 0
M  V30 169 H 14.504 3.00799 -1.27231 0
M  V30 170 H 13.163 1.93377 -3.1145 0
M  V30 171 H 12.811 4.34206 -2.53917 0
M  V30 172 H 12.511 4.03804 -4.26868 0
M  V30 173 H 14.035 4.81561 -3.75408 0
M  V30 174 H 15.449 2.88654 -4.9533 0
M  V30 175 H 13.846 2.34044 -5.52579 0
M  V30 176 H 14.916 1.19327 -4.69988 0
M  V30 177 N 16.2591 1.48442 0.529413 0
M  V30 178 C 17.5051 1.5672 1.28711 0
M  V30 179 C 17.8381 0.2406 1.92704 0
M  V30 180 O 17.1131 -0.753454 1.79313 0
M  V30 181 C 17.3961 2.70587 2.37603 0
M  V30 182 C 17.2491 4.12953 1.78297 0
M  V30 183 C 18.5681 2.80212 3.39366 0
M  V30 184 H 15.6871 0.570474 0.466613 0
M  V30 185 H 18.3291 1.80617 0.589706 0
M  V30 186 H 16.4791 2.50342 2.97088 0
M  V30 187 H 18.1511 4.44639 1.22858 0
M  V30 188 H 16.3941 4.19927 1.0883 0
M  V30 189 H 17.0651 4.88448 2.57144 0
M  V30 190 H 19.5411 2.98553 2.89836 0
M  V30 191 H 18.4171 3.61611 4.12951 0
M  V30 192 H 18.6781 1.88393 3.99951 0
M  V30 193 N 17.7372 -0.778329 1.37039 0
M  V30 194 C 18.9852 -1.53361 1.31623 0
M  V30 195 C 19.3062 -1.94739 -0.100831 0
M  V30 196 O 18.5762 -1.65797 -1.04347 0
M  V30 197 H 17.1562 -0.568794 0.484234 0
M  V30 198 H 19.8182 -0.926742 1.71457 0
M  V30 199 H 18.9142 -2.43606 1.95096 0
M  V30 200 N 19.2153 -1.21501 -1.00376 0
M  V30 201 C 20.4923 -0.941745 -1.71437 0
M  V30 202 C 20.8723 0.546114 -2.03914 0
M  V30 203 O 20.2203 1.51128 -1.71384 0
M  V30 204 C 20.4303 -1.82812 -2.97289 0
M  V30 205 C 21.7783 -2.07771 -3.70292 0
M  V30 206 O 22.8023 -1.80171 -3.07273 0
M  V30 207 O 21.6613 -2.54456 -4.83647 0
M  V30 208 H 18.7553 -0.353243 -0.747762 0
M  V30 209 H 21.3013 -1.32436 -1.06108 0
M  V30 210 H 20.0733 -2.83501 -2.69709 0
M  V30 211 H 19.6963 -1.4464 -3.70358 0
M  V30 212 N 20.6934 1.19889 -1.02296 0
M  V30 213 C 22.1094 1.41462 -0.738954 0
M  V30 214 C 22.3094 1.89721 0.678846 0
M  V30 215 O 21.3654 2.07016 1.4457 0
M  V30 216 C 22.6784 2.43083 -1.77005 0
M  V30 217 C 24.2264 2.5684 -1.78892 0
M  V30 218 C 24.7014 3.61709 -2.80945 0
M  V30 219 N 26.1924 3.69199 -2.79725 0
M  V30 220 C 26.9274 4.50019 -3.55345 0
M  V30 221 N 26.4234 5.34592 -4.40662 0
M  V30 222 N 28.2164 4.44612 -3.43914 0
M  V30 223 H 20.3674 0.868827 -1.93817 0
M  V30 224 H 22.6304 0.44399 -0.837602 0
M  V30 225 H 22.3364 2.14636 -2.78612 0
M  V30 226 H 22.2104 3.4217 -1.58744 0
M  V30 227 H 24.5974 2.84614 -0.779674 0
M  V30 228 H 24.6784 1.57927 -2.01228 0
M  V30 229 H 24.3224 3.34678 -3.82038 0
M  V30 230 H 24.2524 4.60259 -2.5587 0
M  V30 231 H 26.7434 3.08794 -2.17842 0
M  V30 232 H 27.0564 5.93363 -4.95116 0
M  V30 233 H 25.4014 5.34073 -4.44737 0
M  V30 234 H 28.5924 3.7758 -2.76679 0
M  V30 235 H 28.7654 5.0736 -4.031 0
M  V30 236 N 22.1715 0.800033 1.35784 0
M  V30 237 C 23.1345 0.211565 2.28221 0
M  V30 238 C 24.1345 -0.59728 1.49296 0
M  V30 239 O 25.3245 -0.416721 1.69142 0
M  V30 240 C 22.4565 -0.705846 3.33513 0
M  V30 241 H 23.6495 1.02677 2.81776 0
M  V30 242 H 21.2025 0.570211 1.45528 0
M  V30 243 H 21.9375 -1.54498 2.85133 0
M  V30 244 H 21.7225 -0.127655 3.91892 0
M  V30 245 H 23.2125 -1.11211 4.02519 0
M  V30 246 N 23.6496 -1.47581 0.552962 0
M  V30 247 C 24.6126 -2.28439 -0.186605 0
M  V30 248 C 25.6126 -1.36706 -0.84665 0
M  V30 249 O 26.8026 -1.59378 -0.703164 0
M  V30 250 C 23.9346 -3.16264 -1.2724 0
M  V30 251 H 25.1276 -2.95294 0.523609 0
M  V30 252 H 22.6806 -1.532 0.309745 0
M  V30 253 H 23.4156 -2.54091 -2.01514 0
M  V30 254 H 23.2006 -3.83769 -0.803968 0
M  V30 255 H 24.6906 -3.77198 -1.79196 0
M  V30 256 N 25.1277 -0.289203 -1.54924 0
M  V30 257 C 26.0377 0.601863 -2.26748 0
M  V30 258 C 27.0537 1.15834 -1.2984 0
M  V30 259 O 28.2297 1.18564 -1.62802 0
M  V30 260 C 25.2947 1.76299 -2.98529 0
M  V30 261 C 24.3557 1.24178 -4.10948 0
M  V30 262 C 23.5887 2.34757 -4.79296 0
M  V30 263 O 23.8117 3.54411 -4.46933 0
M  V30 264 O 22.7457 2.02115 -5.66951 0
M  V30 265 H 26.5717 0.0195879 -3.03694 0
M  V30 266 H 24.1567 -0.0560868 -1.49295 0
M  V30 267 H 26.0387 2.43973 -3.43592 0
M  V30 268 H 24.7137 2.33209 -2.24488 0
M  V30 269 H 23.6207 0.531104 -3.70311 0
M  V30 270 H 24.9537 0.718252 -4.86931 0
M  V30 271 N 26.6058 1.57591 -0.0167156 0
M  V30 272 C 27.8518 1.92399 0.659861 0
M  V30 273 C 28.2068 0.892561 1.70444 0
M  V30 274 O 27.4998 -0.0930755 1.91374 0
M  V30 275 C 27.6938 3.3172 1.33029 0
M  V30 276 C 27.5228 4.48319 0.352174 0
M  V30 277 C 26.2928 5.05281 -0.0434883 0
M  V30 278 C 28.4908 5.12831 -0.388474 0
M  V30 279 N 26.4728 6.05399 -1.01807 0
M  V30 280 C 27.8438 6.07934 -1.2172 0
M  V30 281 C 29.8988 4.95858 -0.450513 0
M  V30 282 C 28.6018 6.87891 -2.10235 0
M  V30 283 C 30.6278 5.76413 -1.32295 0
M  V30 284 C 29.9898 6.71123 -2.13948 0
M  V30 285 H 26.0888 0.752106 0.21415 0
M  V30 286 H 28.6728 1.94532 -0.0809846 0
M  V30 287 H 26.8438 3.3043 2.04134 0
M  V30 288 H 28.5758 3.5391 1.9629 0
M  V30 289 H 25.3308 4.7246 0.328384 0
M  V30 290 H 25.7548 6.60145 -1.50123 0
M  V30 291 H 30.3968 4.22472 0.166512 0
M  V30 292 H 28.1148 7.60591 -2.72997 0
M  V30 293 H 31.7008 5.65317 -1.37508 0
M  V30 294 H 30.5808 7.3237 -2.80364 0
M  V30 295 N 28.0839 -0.256276 1.55502 0
M  V30 296 C 29.3609 -1.00789 1.67633 0
M  V30 297 C 29.7409 -2.03706 0.553826 0
M  V30 298 O 29.0889 -2.24145 -0.443969 0
M  V30 299 C 29.2989 -1.64968 3.07549 0
M  V30 300 C 30.6469 -2.15505 3.65845 0
M  V30 301 O 31.6709 -1.74925 3.1029 0
M  V30 302 O 30.5299 -2.89986 4.63217 0
M  V30 303 H 27.6239 -0.468553 0.681459 0
M  V30 304 H 30.1699 -0.250806 1.67836 0
M  V30 305 H 28.9419 -0.904785 3.80696 0
M  V30 306 H 28.5649 -2.47321 3.11317 0
M  V30 307 N 29.562 -1.4872 -0.521534 0
M  V30 308 C 30.79 -1.60843 -1.30142 0
M  V30 309 C 31.205 -0.271897 -1.86832 0
M  V30 310 O 30.562 0.739969 -1.66825 0
M  V30 311 C 30.613 -2.66155 -2.4463 0
M  V30 312 O 30.334 -3.94623 -1.90275 0
M  V30 313 C 31.835 -2.88795 -3.36322 0
M  V30 314 H 29.055 -0.542075 -0.395468 0
M  V30 315 H 31.599 -1.94609 -0.628285 0
M  V30 316 H 29.754 -2.35224 -3.07812 0
M  V30 317 H 30.168 -4.52468 -2.65279 0
M  V30 318 H 31.642 -3.66264 -4.12983 0
M  V30 319 H 32.119 -1.97934 -3.9207 0
M  V30 320 H 32.725 -3.21063 -2.78924 0
M  V30 321 N 31.0401 0.771051 -1.3745 0
M  V30 322 C 32.2651 1.56529 -1.36065 0
M  V30 323 C 32.6901 1.88029 0.0515859 0
M  V30 324 O 32.0481 1.49282 1.02882 0
M  V30 325 C 32.0961 2.85187 -2.20683 0
M  V30 326 O 31.2001 3.79593 -1.61193 0
M  V30 327 H 30.5411 0.47411 -0.464883 0
M  V30 328 H 33.0711 0.954269 -1.80983 0
M  V30 329 H 33.0811 3.34283 -2.33921 0
M  V30 330 H 31.7561 2.61588 -3.23334 0
M  V30 331 H 30.3331 3.38239 -1.56999 0
M  V30 332 N 32.5182 1.22032 0.997298 0
M  V30 333 C 33.7662 1.04016 1.73278 0
M  V30 334 C 34.0872 -0.426255 1.90284 0
M  V30 335 O 33.3572 -1.30694 1.45931 0
M  V30 336 H 31.9372 0.381897 0.642 0
M  V30 337 H 34.5992 1.5347 1.20137 0
M  V30 338 H 33.6952 1.51441 2.72896 0
M  V30 339 N 33.9963 -1.19345 1.0293 0
M  V30 340 C 34.9063 -2.26245 0.620515 0
M  V30 341 C 35.9223 -1.70486 -0.347928 0
M  V30 342 O 37.0983 -2.00347 -0.205704 0
M  V30 343 C 34.1633 -3.46693 -0.0218957 0
M  V30 344 C 33.2243 -4.17632 0.994102 0
M  V30 345 C 32.4573 -5.32329 0.382253 0
M  V30 346 O 32.6803 -5.64552 -0.814676 0
M  V30 347 O 31.6143 -5.91664 1.10531 0
M  V30 348 H 35.4403 -2.63453 1.51083 0
M  V30 349 H 33.0253 -1.26207 0.799513 0
M  V30 350 H 34.9073 -4.19683 -0.380072 0
M  V30 351 H 33.5823 -3.11333 -0.886209 0
M  V30 352 H 32.4893 -3.4676 1.40387 0
M  V30 353 H 33.8223 -4.56964 1.8288 0
M  V30 354 N 35.4744 -0.807222 -1.35358 0
M  V30 355 C 36.4044 -0.232509 -2.3234 0
M  V30 356 C 37.3854 0.642386 -1.57504 0
M  V30 357 O 38.5704 0.572526 -1.85569 0
M  V30 358 C 35.7004 0.619238 -3.41735 0
M  V30 359 C 34.6544 -0.157215 -4.27711 0
M  V30 360 C 33.9804 0.816273 -5.28433 0
M  V30 361 C 35.2804 -1.35656 -5.04376 0
M  V30 362 H 36.9744 -1.04276 -2.80654 0
M  V30 363 H 34.5204 -0.50288 -1.34934 0
M  V30 364 H 36.4734 1.03137 -4.08584 0
M  V30 365 H 35.1974 1.46239 -2.92031 0
M  V30 366 H 33.8564 -0.550525 -3.62443 0
M  V30 367 H 33.5044 1.65494 -4.74996 0
M  V30 368 H 33.2044 0.301067 -5.86828 0
M  V30 369 H 34.7284 1.22659 -5.98153 0
M  V30 370 H 36.1424 -1.01927 -5.64166 0
M  V30 371 H 34.5394 -1.8063 -5.7227 0
M  V30 372 H 35.6094 -2.14288 -4.34981 0
M  V30 373 N 36.9525 1.47285 -0.560781 0
M  V30 374 C 38.3635 1.86258 -0.128343 0
M  V30 375 C 38.7145 1.46699 1.30284 0
M  V30 376 O 37.8395 0.871698 1.98067 0
M  V30 377 C 38.4345 3.38044 -0.22614 0
M  V30 378 C 36.9935 3.76096 0.151283 0
M  V30 379 C 36.1405 2.71335 -0.572084 0
M  V30 380 H 39.0915 1.38752 -0.770297 0
M  V30 381 H 39.1125 3.76441 0.554322 0
M  V30 382 H 38.6245 3.66806 -1.26788 0
M  V30 383 H 36.7255 3.52951 1.19399 0
M  V30 384 H 36.8385 4.78641 -0.209765 0
M  V30 385 H 35.2025 2.54696 -0.0147653 0
M  V30 386 H 35.9855 3.02938 -1.61504 0
M  V30 387 N 38.4306 0.297415 1.54768 0
M  V30 388 C 39.8466 -0.0560823 1.59501 0
M  V30 389 C 40.0466 -1.52725 1.31444 0
M  V30 390 O 39.1026 -2.27947 1.08611 0
M  V30 391 C 40.4156 0.338631 2.98787 0
M  V30 392 C 41.9636 0.287097 3.11681 0
M  V30 393 C 42.4386 0.656579 4.53269 0
M  V30 394 N 43.9296 0.608977 4.59179 0
M  V30 395 C 44.6646 0.867385 5.66802 0
M  V30 396 N 44.1606 1.19157 6.82476 0
M  V30 397 N 45.9536 0.794687 5.56454 0
M  V30 398 H 38.1046 1.25624 1.71267 0
M  V30 399 H 40.3676 0.509057 0.799728 0
M  V30 400 H 40.0736 1.36263 3.2423 0
M  V30 401 H 39.9476 -0.309508 3.75928 0
M  V30 402 H 42.3346 -0.727649 2.85988 0
M  V30 403 H 42.4156 0.969809 2.36703 0
M  V30 404 H 42.0596 1.66912 4.7969 0
M  V30 405 H 41.9896 -0.0481649 5.26578 0
M  V30 406 H 44.4806 0.369198 3.76092 0
M  V30 407 H 44.7936 1.37482 7.60473 0
M  V30 408 H 43.1386 1.22958 6.84037 0
M  V30 409 H 46.3296 0.541098 4.64962 0
M  V30 410 H 46.5026 0.999445 6.40246 0
M  V30 411 N 39.9087 -1.5758 0.0250728 0
M  V30 412 C 41.1857 -1.82917 -0.692873 0
M  V30 413 C 41.5657 -0.908137 -1.90568 0
M  V30 414 O 40.9137 0.0372298 -2.2847 0
M  V30 415 C 41.1237 -3.32034 -1.07492 0
M  V30 416 C 42.4717 -3.98406 -1.46826 0
M  V30 417 O 43.4957 -3.36505 -1.16801 0
M  V30 418 O 42.3547 -5.07497 -2.02754 0
M  V30 419 H 39.4487 -0.754079 -0.33955 0
M  V30 420 H 41.9947 -1.69619 0.0524456 0
M  V30 421 H 40.7667 -3.90728 -0.211552 0
M  V30 422 H 40.3897 -3.50424 -1.87854 0
M  V30 423 N 41.3868 0.248026 -1.55636 0
M  V30 424 C 42.3168 1.31079 -1.93237 0
M  V30 425 C 43.2978 1.50264 -0.797174 0
M  V30 426 O 44.4828 1.62891 -1.05737 0
M  V30 427 C 41.6128 2.66575 -2.22609 0
M  V30 428 C 40.5668 2.62087 -3.3837 0
M  V30 429 C 39.8928 4.01369 -3.53281 0
M  V30 430 C 41.1928 2.19171 -4.7409 0
M  V30 431 H 42.8868 0.998556 -2.82257 0
M  V30 432 H 40.4328 0.47891 -1.35803 0
M  V30 433 H 42.3858 3.41057 -2.47503 0
M  V30 434 H 41.1098 2.99432 -1.30414 0
M  V30 435 H 39.7688 1.90063 -3.13483 0
M  V30 436 H 39.4168 4.31489 -2.58508 0
M  V30 437 H 39.1168 3.99254 -4.31127 0
M  V30 438 H 40.6408 4.77552 -3.80495 0
M  V30 439 H 42.0548 2.83384 -4.98363 0
M  V30 440 H 40.4518 2.2817 -5.5503 0
M  V30 441 H 41.5218 1.14336 -4.71227 0
M  V30 442 N 42.8649 1.48995 0.513639 0
M  V30 443 C 43.7949 1.67636 1.62544 0
M  V30 444 C 44.7759 0.525087 1.61793 0
M  V30 445 O 45.9609 0.759502 1.78732 0
M  V30 446 C 43.0909 1.73114 3.01079 0
M  V30 447 C 42.0449 2.87905 3.16693 0
M  V30 448 C 41.3709 2.78486 4.56453 0
M  V30 449 C 42.6709 4.29005 2.97913 0
M  V30 450 H 44.3649 2.60716 1.47198 0
M  V30 451 H 41.9109 1.25465 0.706714 0
M  V30 452 H 43.8639 1.84742 3.78746 0
M  V30 453 H 42.5879 0.766241 3.17484 0
M  V30 454 H 41.2469 2.75859 2.41448 0
M  V30 455 H 40.8949 1.7993 4.69717 0
M  V30 456 H 40.5949 3.55523 4.67843 0
M  V30 457 H 42.1189 2.92104 5.36197 0
M  V30 458 H 43.5329 4.41798 3.65359 0
M  V30 459 H 41.9299 5.07166 3.20785 0
M  V30 460 H 42.9999 4.44329 1.94165 0
M  V30 461 N 44.343 -0.763751 1.37857 0
M  V30 462 C 45.589 -1.52483 1.33704 0
M  V30 463 C 45.922 -1.94051 -0.0759612 0
M  V30 464 O 45.197 -1.64675 -1.03501 0
M  V30 465 C 45.48 -2.78441 2.28348 0
M  V30 466 C 45.333 -2.43075 3.78463 0
M  V30 467 C 46.652 -3.80415 2.21298 0
M  V30 468 H 43.771 -0.553169 0.487005 0
M  V30 469 H 46.413 -0.875562 1.68624 0
M  V30 470 H 44.563 -3.33842 1.987 0
M  V30 471 H 46.235 -1.93527 4.18742 0
M  V30 472 H 44.478 -1.75666 3.96641 0
M  V30 473 H 45.149 -3.33149 4.40132 0
M  V30 474 H 47.625 -3.34527 2.47449 0
M  V30 475 H 46.501 -4.66257 2.89647 0
M  V30 476 H 46.762 -4.25262 1.20849 0
M  V30 477 N 45.8211 -1.22559 -0.990812 0
M  V30 478 C 47.2371 -0.985996 -1.255 0
M  V30 479 C 47.4371 0.319173 -1.98956 0
M  V30 480 O 46.4931 1.04127 -2.3003 0
M  V30 481 C 47.8061 -2.18607 -2.06474 0
M  V30 482 C 49.3541 -2.22985 -2.19651 0
M  V30 483 C 49.8291 -3.4255 -3.04012 0
M  V30 484 N 51.3201 -3.42725 -3.11599 0
M  V30 485 C 52.0551 -4.31892 -3.7717 0
M  V30 486 N 51.5511 -5.31279 -4.44651 0
M  V30 487 N 53.3441 -4.19662 -3.73952 0
M  V30 488 H 45.4951 -2.06469 -0.49841 0
M  V30 489 H 47.7581 -0.904853 -0.282747 0
M  V30 490 H 47.4641 -3.13267 -1.59865 0
M  V30 491 H 47.3381 -2.18838 -3.07229 0
M  V30 492 H 49.7251 -1.28871 -2.65474 0
M  V30 493 H 49.8061 -2.26791 -1.18319 0
M  V30 494 H 49.4501 -4.36965 -2.58889 0
M  V30 495 H 49.3801 -3.35984 -4.0549 0
M  V30 496 H 51.8711 -2.70807 -2.63575 0
M  V30 497 H 52.1841 -5.95593 -4.92431 0
M  V30 498 H 50.5291 -5.3519 -4.43392 0
M  V30 499 H 53.7201 -3.41268 -3.20396 0
M  V30 500 H 53.8931 -4.89358 -4.24774 0
M  V30 501 N 47.2992 1.18797 -1.03562 0
M  V30 502 C 48.2292 2.24472 -0.643019 0
M  V30 503 C 49.2102 1.66433 0.351283 0
M  V30 504 O 50.3952 1.92803 0.232505 0
M  V30 505 C 47.5252 3.473 4.24935e-05 0
M  V30 506 C 46.4792 4.18055 -0.917257 0
M  V30 507 C 45.8052 5.34519 -0.138941 0
M  V30 508 C 47.1052 4.72109 -2.23407 0
M  V30 509 H 48.7992 2.57566 -1.52643 0
M  V30 510 H 46.3452 1.23806 -0.735394 0
M  V30 511 H 48.2982 4.20426 0.286383 0
M  V30 512 H 47.0222 3.13424 0.918299 0
M  V30 513 H 45.6812 3.46821 -1.1879 0
M  V30 514 H 45.3292 4.96891 0.781562 0
M  V30 515 H 45.0292 5.82794 -0.750005 0
M  V30 516 H 46.5532 6.10438 0.1405 0
M  V30 517 H 47.9672 5.36955 -2.00879 0
M  V30 518 H 46.3642 5.30897 -2.79765 0
M  V30 519 H 47.4342 3.89807 -2.88407 0
M  V30 520 N 48.7773 0.814389 1.34928 0
M  V30 521 C 50.0253 0.397636 1.9815 0
M  V30 522 C 50.3463 -1.04069 1.64908 0
M  V30 523 O 49.6163 -1.72121 0.93548 0
M  V30 524 H 48.1963 0.144043 0.732981 0
M  V30 525 H 50.8583 1.04195 1.6471 0
M  V30 526 H 49.9543 0.509688 3.0791 0
M  V30 527 N 50.2554 -1.46986 0.568584 0
M  V30 528 C 51.2184 -2.28624 -0.162366 0
M  V30 529 C 52.2184 -1.37596 -0.832103 0
M  V30 530 O 53.4084 -1.60115 -0.68622 0
M  V30 531 C 50.5404 -3.17596 -1.23878 0
M  V30 532 H 51.7334 -2.94722 0.554899 0
M  V30 533 H 49.2864 -1.52863 0.325976 0
M  V30 534 H 50.0214 -2.56214 -1.98808 0
M  V30 535 H 49.8064 -3.846 -0.763219 0
M  V30 536 H 51.2964 -3.79078 -1.75185 0
M  V30 537 N 51.7335 -0.305618 -1.54608 0
M  V30 538 C 53.0105 0.355652 -1.92339 0
M  V30 539 C 53.3905 1.71324 -1.23335 0
M  V30 540 O 52.7385 2.25473 -0.370702 0
M  V30 541 C 52.9485 0.46572 -3.45879 0
M  V30 542 C 54.2965 0.734426 -4.182 0
M  V30 543 O 55.3205 0.54935 -3.51938 0
M  V30 544 O 54.1795 1.09024 -5.35515 0
M  V30 545 H 51.2735 0.199666 -0.802535 0
M  V30 546 H 53.8195 -0.354017 -1.65966 0
M  V30 547 H 52.5915 -0.488461 -3.88239 0
M  V30 548 H 52.2145 1.22367 -3.78301 0
M  V30 549 N 53.2116 1.57565 -0.0334293 0
M  V30 550 C 54.4596 1.91598 0.642999 0
M  V30 551 C 54.7806 0.910847 1.7242 0
M  V30 552 O 54.0506 -0.0469931 1.95844 0
M  V30 553 H 52.6306 0.707228 0.240496 0
M  V30 554 H 55.2926 1.94726 -0.0822488 0
M  V30 555 H 54.3886 2.92336 1.09298 0
M  V30 556 N 54.6897 -0.239769 1.55765 0
M  V30 557 C 55.6197 -1.30052 1.9393 0
M  V30 558 C 56.6007 -1.49839 0.805132 0
M  V30 559 O 57.7857 -1.62328 1.06599 0
M  V30 560 C 54.9157 -2.65391 2.2402 0
M  V30 561 C 53.8697 -2.60289 3.39755 0
M  V30 562 C 53.1957 -3.99489 3.55405 0
M  V30 563 C 54.4957 -2.16654 4.75246 0
M  V30 564 H 56.1897 -0.983573 2.82783 0
M  V30 565 H 53.7357 -0.471701 1.36055 0
M  V30 566 H 55.6887 -3.3974 2.49308 0
M  V30 567 H 54.4127 -2.98736 1.32 0
M  V30 568 H 53.0717 -1.88398 3.14487 0
M  V30 569 H 52.7197 -4.30112 2.60793 0
M  V30 570 H 52.4197 -3.96962 4.33238 0
M  V30 571 H 53.9437 -4.75528 3.83022 0
M  V30 572 H 55.3577 -2.80737 4.99859 0
M  V30 573 H 53.7547 -2.25223 5.56232 0
M  V30 574 H 54.8247 -1.11835 4.71827 0
M  V30 575 N 56.1678 -1.49265 -0.50573 0
M  V30 576 C 57.0978 -1.68495 -1.61653 0
M  V30 577 C 58.0788 -0.53366 -1.61512 0
M  V30 578 O 59.2638 -0.76897 -1.78327 0
M  V30 579 C 56.3938 -1.74709 -3.00157 0
M  V30 580 C 55.3478 -2.89581 -3.15162 0
M  V30 581 C 54.6738 -2.80903 -4.5497 0
M  V30 582 C 55.9738 -4.30578 -2.95634 0
M  V30 583 H 57.6678 -2.61493 -1.45814 0
M  V30 584 H 55.2138 -1.25838 -0.70005 0
M  V30 585 H 57.1668 -1.86748 -3.77761 0
M  V30 586 H 55.8908 -0.783067 -3.17074 0
M  V30 587 H 54.5498 -2.77136 -2.39982 0
M  V30 588 H 54.1978 -1.82419 -4.68756 0
M  V30 589 H 53.8978 -3.57999 -4.65951 0
M  V30 590 H 55.4218 -2.94944 -5.34641 0
M  V30 591 H 56.8358 -4.4373 -3.63011 0
M  V30 592 H 55.2328 -5.0886 -3.18091 0
M  V30 593 H 56.3028 -4.45352 -1.91806 0
M  V30 594 N 57.6459 0.756429 -1.3826 0
M  V30 595 C 58.8859 1.52833 -1.35725 0
M  V30 596 C 59.2499 1.91926 0.0534106 0
M  V30 597 O 60.4509 2.68028 0.203613 0
M  V30 598 C 58.7219 2.74919 -2.28373 0
M  V30 599 S 60.2809 3.64817 -2.43832 0
M  V30 600 H 57.0989 0.523043 -0.481608 0
M  V30 601 H 59.7009 0.888212 -1.74158 0
M  V30 602 H 58.4049 2.44304 -3.29763 0
M  V30 603 H 57.9359 3.43878 -1.91079 0
M  V30 604 H 59.9509 4.676 -1.66027 0
M  V30 605 N 59.124 1.23083 0.984299 0
M  V30 606 C 60.087 1.00979 2.05757 0
M  V30 607 C 61.087 -0.0269573 1.60777 0
M  V30 608 O 62.277 0.212403 1.729 0
M  V30 609 C 59.409 0.527072 3.36801 0
M  V30 610 H 60.602 1.9622 2.26799 0
M  V30 611 H 58.155 1.05072 1.15714 0
M  V30 612 H 58.89 -0.429294 3.21446 0
M  V30 613 H 58.675 1.27515 3.70786 0
M  V30 614 H 60.165 0.392942 4.15747 0
M  V30 615 N 60.6021 -1.18246 1.0419 0
M  V30 616 C 61.5121 -2.25574 0.644476 0
M  V30 617 C 62.5281 -1.70845 -0.329826 0
M  V30 618 O 63.7041 -2.00554 -0.184443 0
M  V30 619 C 60.7691 -3.46697 0.014877 0
M  V30 620 C 59.8301 -4.16554 1.03834 0
M  V30 621 C 59.0631 -5.31894 0.438692 0
M  V30 622 O 59.2861 -5.65385 -0.754752 0
M  V30 623 O 58.2201 -5.90459 1.168 0
M  V30 624 H 62.0461 -2.61836 1.53869 0
M  V30 625 H 59.6311 -1.25352 0.812854 0
M  V30 626 H 61.5131 -4.20062 -0.335538 0
M  V30 627 H 60.1881 -3.12255 -0.853138 0
M  V30 628 H 59.0951 -3.45251 1.44057 0
M  V30 629 H 60.4281 -4.54998 1.87716 0
M  V30 630 N 62.0802 -0.821533 -1.34494 0
M  V30 631 C 63.3262 -0.409552 -1.98622 0
M  V30 632 C 63.6592 1.0244 -1.64984 0
M  V30 633 O 62.9342 1.71325 -0.920758 0
M  V30 634 C 63.2172 -0.610458 -3.54888 0
M  V30 635 C 63.0702 -2.09043 -3.98273 0
M  V30 636 C 64.3892 -0.0455379 -4.40076 0
M  V30 637 H 61.5082 -0.15028 -0.721516 0
M  V30 638 H 64.1502 -1.03384 -1.59411 0
M  V30 639 H 62.3002 -0.079044 -3.8842 0
M  V30 640 H 63.9722 -2.68537 -3.75081 0
M  V30 641 H 62.2152 -2.58139 -3.48635 0
M  V30 642 H 62.8862 -2.18182 -5.07051 0
M  V30 643 H 65.3622 -0.499557 -4.1309 0
M  V30 644 H 64.2382 -0.215922 -5.48475 0
M  V30 645 H 64.4992 1.04939 -4.29465 0
M  V30 646 N 63.5583 1.46682 -0.576371 0
M  V30 647 C 64.5213 2.28707 0.150239 0
M  V30 648 C 65.5213 1.38035 0.824794 0
M  V30 649 O 66.7113 1.60476 0.677719 0
M  V30 650 C 63.8433 3.18248 1.22192 0
M  V30 651 H 65.0363 2.94423 -0.570521 0
M  V30 652 H 62.5893 1.52688 -0.334078 0
M  V30 653 H 63.3243 2.57265 1.97447 0
M  V30 654 H 63.1093 3.85 0.742812 0
M  V30 655 H 64.5993 3.80001 1.73172 0
M  V30 656 N 65.0364 0.313813 1.54444 0
M  V30 657 C 65.9994 -0.54379 2.22656 0
M  V30 658 C 66.9994 -1.05124 1.21678 0
M  V30 659 O 68.1894 -0.945225 1.46325 0
M  V30 660 C 65.3214 -1.75427 2.92298 0
M  V30 661 H 66.5144 0.0523599 2.99854 0
M  V30 662 H 64.0674 0.0647834 1.56166 0
M  V30 663 H 64.8024 -2.38991 2.19211 0
M  V30 664 H 64.5874 -1.39791 3.66334 0
M  V30 665 H 66.0774 -2.36325 3.44297 0
M  V30 666 N 66.5145 -1.57545 0.0417849 0
M  V30 667 C 67.4245 -2.14451 -0.951213 0
M  V30 668 C 68.4405 -1.09992 -1.34825 0
M  V30 669 O 69.6165 -1.42114 -1.42708 0
M  V30 670 C 66.6815 -2.67063 -2.21084 0
M  V30 671 C 65.7425 -3.86284 -1.87304 0
M  V30 672 C 64.9755 -4.36378 -3.07261 0
M  V30 673 O 65.1985 -3.85587 -4.20332 0
M  V30 674 O 64.1325 -5.28077 -2.88822 0
M  V30 675 H 67.9585 -2.99601 -0.497287 0
M  V30 676 H 65.5435 -1.48317 -0.179567 0
M  V30 677 H 67.4255 -3.00914 -2.95006 0
M  V30 678 H 66.1005 -1.84989 -2.65633 0
M  V30 679 H 65.0075 -3.57338 -1.10727 0
M  V30 680 H 66.3405 -4.6956 -1.47562 0
M  V30 681 N 67.9926 0.231505 -1.5589 0
M  V30 682 C 68.9426 1.29007 -1.87993 0
M  V30 683 C 69.9266 1.42764 -0.742102 0
M  V30 684 O 71.1186 1.45747 -1.00433 0
M  V30 685 C 68.2476 2.6425 -2.1915 0
M  V30 686 C 67.3336 2.54435 -3.39299 0
M  V30 687 N 67.7246 2.14262 -4.58176 0
M  V30 688 C 66.0226 2.85416 -3.42715 0
M  V30 689 C 66.7236 2.15455 -5.40328 0
M  V30 690 N 65.6996 2.55558 -4.79783 0
M  V30 691 H 69.5016 0.970213 -2.77424 0
M  V30 692 H 67.0156 0.440097 -1.56323 0
M  V30 693 H 69.0126 3.40665 -2.40319 0
M  V30 694 H 67.6726 2.9709 -1.31025 0
M  V30 695 H 68.6836 1.85554 -4.83518 0
M  V30 696 H 65.3606 3.22693 -2.64906 0
M  V30 697 H 66.7506 1.86605 -6.45467 0
M  V30 698 N 69.4707 1.49531 0.497807 0
M  V30 699 C 70.7187 1.58865 1.24926 0
M  V30 700 C 71.0397 0.278721 1.92998 0
M  V30 701 O 70.3097 -0.702144 1.82885 0
M  V30 702 H 68.8897 0.585343 0.464094 0
M  V30 703 H 71.5517 1.86174 0.57666 0
M  V30 704 H 70.6477 2.38633 2.01149 0
M  V30 705 N 70.9488 -0.749086 1.3866 0
M  V30 706 C 72.1968 -1.50535 1.34847 0
M  V30 707 C 72.5178 -1.94909 -0.0595016 0
M  V30 708 O 71.7878 -1.67973 -1.00806 0
M  V30 709 H 70.3678 -0.558395 0.49619 0
M  V30 710 H 73.0298 -0.890165 1.73384 0
M  V30 711 H 72.1258 -2.39413 2.00219 0
M  V30 712 N 72.4269 -1.23603 -0.977757 0
M  V30 713 C 73.3569 -1.04401 -2.0886 0
M  V30 714 C 74.3379 0.0399052 -1.70053 0
M  V30 715 O 75.5229 -0.125246 -1.93796 0
M  V30 716 C 72.6529 -0.637269 -3.41403 0
M  V30 717 C 71.6069 -1.66883 -3.94124 0
M  V30 718 C 70.9329 -1.11745 -5.22893 0
M  V30 719 C 72.2329 -3.06247 -4.23096 0
M  V30 720 H 73.9269 -1.97316 -2.25182 0
M  V30 721 H 71.4729 -0.950096 -1.08209 0
M  V30 722 H 73.4259 -0.48998 -4.18542 0
M  V30 723 H 72.1499 0.327557 -3.24953 0
M  V30 724 H 70.8089 -1.80416 -3.19133 0
M  V30 725 H 70.4569 -0.143527 -5.02795 0
M  V30 726 H 70.1569 -1.80672 -5.59134 0
M  V30 727 H 71.6809 -0.982067 -6.02651 0
M  V30 728 H 73.0949 -2.96001 -4.90975 0
M  V30 729 H 71.4919 -3.72436 -4.70544 0
M  V30 730 H 72.5619 -3.55041 -3.30263 0
M  V30 731 N 73.905 1.17692 -1.04816 0
M  V30 732 C 75.153 1.87488 -0.754497 0
M  V30 733 C 75.474 1.81205 0.720407 0
M  V30 734 O 74.744 1.23544 1.52032 0
M  V30 735 H 73.324 0.694101 -0.276102 0
M  V30 736 H 75.986 1.42793 -1.32651 0
M  V30 737 H 75.082 2.93328 -1.06606 0
M  V30 738 N 75.3831 0.828654 1.34056 0
M  V30 739 C 76.3131 0.269443 2.3194 0
M  V30 740 C 77.2941 -0.617247 1.58506 0
M  V30 741 O 78.4791 -0.542931 1.86456 0
M  V30 742 C 75.6091 -0.564793 3.42677 0
M  V30 743 C 74.5631 0.225241 4.27407 0
M  V30 744 C 73.8891 -0.7321 5.29664 0
M  V30 745 C 75.1891 1.43663 5.02154 0
M  V30 746 H 76.8831 1.08728 2.7896 0
M  V30 747 H 74.4291 0.524283 1.34117 0
M  V30 748 H 76.3821 -0.966233 4.10173 0
M  V30 749 H 75.1061 -1.41574 2.9432 0
M  V30 750 H 73.7651 0.608117 3.61521 0
M  V30 751 H 73.4131 -1.57916 4.77568 0
M  V30 752 H 73.1131 -0.20767 5.87233 0
M  V30 753 H 74.6371 -1.13128 6.00029 0
M  V30 754 H 76.0511 1.1089 5.62473 0
M  V30 755 H 74.4481 1.89711 5.69324 0
M  V30 756 H 75.5181 2.21181 4.31517 0
M  V30 757 N 76.8612 -1.46375 0.584142 0
M  V30 758 C 78.1092 -2.01978 0.0701287 0
M  V30 759 C 78.4302 -1.4579 -1.295 0
M  V30 760 O 77.7002 -0.64314 -1.85042 0
M  V30 761 H 76.2802 -0.746648 0.0229345 0
M  V30 762 H 78.9422 -1.79461 0.760245 0
M  V30 763 H 78.0382 -3.121 0.0022064 0
M  V30 764 N 78.3393 -0.321999 -1.54275 0
M  V30 765 C 79.5643 0.285791 -2.05422 0
M  V30 766 C 79.9893 1.45124 -1.19669 0
M  V30 767 O 79.3473 1.80132 -0.205441 0
M  V30 768 C 79.3953 0.69956 -3.53749 0
M  V30 769 O 78.4993 1.8021 -3.70942 0
M  V30 770 H 77.8403 0.0518962 -0.661969 0
M  V30 771 H 80.3703 -0.469954 -1.9913 0
M  V30 772 H 80.3803 0.982649 -3.9599 0
M  V30 773 H 79.0553 -0.152864 -4.15619 0
M  V30 774 H 77.6323 1.51794 -3.40607 0
M  V30 775 N 79.8174 1.5752 -0.0501392 0
M  V30 776 C 81.2334 1.56631 0.306402 0
M  V30 777 C 81.4334 1.0577 1.71508 0
M  V30 778 O 80.4894 0.713837 2.422 0
M  V30 779 C 81.8024 3.00393 0.135811 0
M  V30 780 C 83.3504 3.12315 0.206993 0
M  V30 781 C 83.8254 4.57954 0.064944 0
M  V30 782 N 85.3164 4.63041 0.121254 0
M  V30 783 C 86.0514 5.73389 0.0354381 0
M  V30 784 N 85.5474 6.92724 -0.102666 0
M  V30 785 N 87.3404 5.62026 0.090946 0
M  V30 786 H 79.4914 1.88903 -0.971046 0
M  V30 787 H 81.7544 0.869876 -0.376855 0
M  V30 788 H 81.4604 3.41635 -0.835384 0
M  V30 789 H 81.3344 3.66373 0.897275 0
M  V30 790 H 83.7214 2.70973 1.16866 0
M  V30 791 H 83.8024 2.49016 -0.585208 0
M  V30 792 H 83.4464 4.99981 -0.893394 0
M  V30 793 H 83.3764 5.19258 0.876277 0
M  V30 794 H 85.8674 3.77216 0.227284 0
M  V30 795 H 86.1804 7.72633 -0.160882 0
M  V30 796 H 84.5254 6.94864 -0.137737 0
M  V30 797 H 87.7164 4.67684 0.197388 0
M  V30 798 H 87.8894 6.47997 0.0206089 0
M  V30 799 N 81.2955 -0.223234 1.56011 0
M  V30 800 C 82.2055 -1.29766 1.95443 0
M  V30 801 C 83.2215 -1.51373 0.858028 0
M  V30 802 O 84.3975 -1.64536 1.16146 0
M  V30 803 C 81.4625 -2.62772 2.26167 0
M  V30 804 C 80.5235 -2.49482 3.49367 0
M  V30 805 C 79.7565 -3.76145 3.78616 0
M  V30 806 O 79.9795 -4.79087 3.09568 0
M  V30 807 O 78.9135 -3.73358 4.72109 0
M  V30 808 H 82.7395 -0.99309 2.87004 0
M  V30 809 H 80.3245 -0.425958 1.43199 0
M  V30 810 H 82.2065 -3.41327 2.47131 0
M  V30 811 H 80.8815 -2.92913 1.37781 0
M  V30 812 H 79.7885 -1.69133 3.33684 0
M  V30 813 H 81.1215 -2.2428 4.38131 0
M  V30 814 N 82.7736 -1.49793 -0.48987 0
M  V30 815 C 83.7216 -1.67783 -1.61095 0
M  V30 816 C 84.7156 -0.543683 -1.60438 0
M  V30 817 O 85.9216 -0.723647 -1.64813 0
M  V30 818 H 82.2966 -0.529255 -0.534222 0
M  V30 819 H 84.2676 -2.61861 -1.43078 0
M  V30 820 C 83.0166 -1.77191 -2.99164 0
M  V30 821 H 82.3396 -2.63841 -3.0038 0
M  V30 822 H 83.7796 -1.93809 -3.77113 0
M  V30 823 C 82.2386 -0.519203 -3.32875 0
M  V30 824 O 82.7686 0.350124 -4.00171 0
M  V30 825 N 80.9746 -0.378816 -2.8812 0
M  V30 826 H 80.5216 -1.08725 -2.33531 0
M  V30 827 H 80.4796 0.458239 -3.11043 0
M  V30 828 N 84.2517 0.741722 -1.39055 0
M  V30 829 C 85.4997 1.49818 -1.35643 0
M  V30 830 C 85.8207 1.94938 0.0491642 0
M  V30 831 O 85.0907 1.68505 0.999141 0
M  V30 832 H 83.6707 0.555755 -0.499144 0
M  V30 833 H 86.3327 0.880957 -1.73854 0
M  V30 834 H 85.4287 2.38348 -2.01486 0
M  V30 835 N 85.7298 1.2412 0.971189 0
M  V30 836 C 86.6398 1.04747 2.09917 0
M  V30 837 C 87.6558 -0.0107162 1.73997 0
M  V30 838 O 88.8318 0.186714 2.00533 0
M  V30 839 C 85.8968 0.650828 3.40537 0
M  V30 840 C 84.9578 1.7851 3.90426 0
M  V30 841 C 84.1908 1.40729 5.14812 0
M  V30 842 O 84.4138 0.29557 5.69634 0
M  V30 843 O 83.3478 2.23168 5.58999 0
M  V30 844 H 87.1738 1.99304 2.29154 0
M  V30 845 H 84.7588 1.02908 1.08307 0
M  V30 846 H 86.6408 0.440992 4.19086 0
M  V30 847 H 85.3158 -0.265649 3.22608 0
M  V30 848 H 84.2228 2.04966 3.12953 0
M  V30 849 H 85.5558 2.68023 4.12825 0
M  V30 850 N 87.2079 -1.17134 1.05439 0
M  V30 851 C 88.4549 -1.87456 0.765942 0
M  V30 852 C 88.7829 -1.81189 -0.707153 0
M  V30 853 O 88.0379 -1.21633 -1.5331 0
M  V30 854 C 88.3369 -3.36833 1.19491 0
M  V30 855 C 88.0029 -3.63301 2.67063 0
M  V30 856 C 86.6649 -3.70234 3.07376 0
M  V30 857 C 89.0169 -3.74575 3.62413 0
M  V30 858 C 86.3449 -3.85933 4.41896 0
M  V30 859 C 88.6969 -3.91793 4.9667 0
M  V30 860 C 87.3609 -3.96966 5.36633 0
M  V30 861 H 86.6309 -0.685948 0.280278 0
M  V30 862 H 89.2779 -1.38556 1.32192 0
M  V30 863 H 87.5829 -3.87807 0.557969 0
M  V30 864 H 89.2799 -3.89611 0.948893 0
M  V30 865 H 85.8699 -3.58532 2.34846 0
M  V30 866 H 90.0539 -3.68537 3.32406 0
M  V30 867 H 85.3099 -3.88187 4.72357 0
M  V30 868 H 89.4839 -3.99458 5.70444 0
M  V30 869 H 87.1109 -4.08883 6.40874 0
M  V30 870 N 88.686 -0.835752 -1.33615 0
M  V30 871 C 89.914 -0.443344 -2.02094 0
M  V30 872 C 90.329 0.954522 -1.62894 0
M  V30 873 O 89.686 1.61982 -0.840723 0
M  V30 874 C 89.737 -0.550775 -3.5728 0
M  V30 875 O 89.458 -1.89356 -3.95065 0
M  V30 876 C 90.959 -0.154919 -4.43029 0
M  V30 877 H 88.179 -0.176359 -0.647409 0
M  V30 878 H 90.723 -1.12746 -1.70612 0
M  V30 879 H 88.878 0.0853997 -3.87306 0
M  V30 880 H 89.292 -1.87687 -4.89769 0
M  V30 881 H 90.766 -0.281144 -5.51284 0
M  V30 882 H 91.243 0.902863 -4.2982 0
M  V30 883 H 91.849 -0.765404 -4.18356 0
M  V30 884 N 90.1641 1.46063 -0.591896 0
M  V30 885 C 91.1271 2.28854 0.125973 0
M  V30 886 C 92.1271 1.38903 0.810107 0
M  V30 887 O 93.3171 1.61186 0.66066 0
M  V30 888 C 90.4491 3.19526 1.1881 0
M  V30 889 H 91.6421 2.93802 -0.601717 0
M  V30 890 H 89.1951 1.52325 -0.350254 0
M  V30 891 H 89.9301 2.59345 1.94707 0
M  V30 892 H 89.7151 3.85766 0.701936 0
M  V30 893 H 91.2051 3.81817 1.69132 0
M  V30 894 N 91.6422 0.330177 1.54103 0
M  V30 895 C 92.5922 -0.548456 2.21305 0
M  V30 896 C 93.5762 -1.07651 1.19583 0
M  V30 897 O 94.7682 -1.01243 1.45186 0
M  V30 898 C 91.8972 -1.70559 2.97934 0
M  V30 899 C 90.9832 -1.19212 4.07 0
M  V30 900 N 91.3742 -0.398831 5.04225 0
M  V30 901 C 89.6722 -1.47024 4.2107 0
M  V30 902 C 90.3732 -0.121761 5.81573 0
M  V30 903 N 89.3492 -0.709722 5.38947 0
M  V30 904 H 93.1512 0.0648483 2.93828 0
M  V30 905 H 90.6652 0.136363 1.61826 0
M  V30 906 H 92.6622 -2.34688 3.44568 0
M  V30 907 H 91.3222 -2.32231 2.26934 0
M  V30 908 H 92.3332 -0.0410869 5.17884 0
M  V30 909 H 89.0102 -2.09232 3.61287 0
M  V30 910 H 90.4002 0.517298 6.69906 0
M  V30 911 N 93.1203 -1.57491 0.0584922 0
M  V30 912 C 94.3663 -1.93264 -0.614558 0
M  V30 913 C 94.6993 -0.937717 -1.7006 0
M  V30 914 O 93.9743 0.0351652 -1.94468 0
M  V30 915 C 94.2573 -3.3938 -1.20386 0
M  V30 916 C 94.1103 -4.49625 -0.125375 0
M  V30 917 C 95.4293 -3.86039 -2.11334 0
M  V30 918 H 92.5483 -0.702791 -0.221933 0
M  V30 919 H 95.1903 -1.8961 0.12175 0
M  V30 920 H 93.3403 -3.42626 -1.83139 0
M  V30 921 H 95.0123 -4.58506 0.506971 0
M  V30 922 H 93.2553 -4.30354 0.545672 0
M  V30 923 H 93.9263 -5.48967 -0.577861 0
M  V30 924 H 96.4023 -3.84716 -1.58534 0
M  V30 925 H 95.2783 -4.88914 -2.49507 0
M  V30 926 H 95.5393 -3.23215 -3.01636 0
M  V30 927 N 94.5984 0.214957 -1.56127 0
M  V30 928 C 95.8464 0.936518 -1.79091 0
M  V30 929 C 96.1674 1.84606 -0.628148 0
M  V30 930 O 95.4374 1.92664 0.35462 0
M  V30 931 H 94.0174 0.3488 -0.660566 0
M  V30 932 H 96.6794 0.22523 -1.93594 0
M  V30 933 H 95.7754 1.53943 -2.71492 0
M  V30 934 N 96.0765 1.50051 0.48192 0
M  V30 935 C 97.3015 1.64508 1.26301 0
M  V30 936 C 97.7265 0.323851 1.85291 0
M  V30 937 O 97.0845 -0.710969 1.66778 0
M  V30 938 C 97.1325 2.7305 2.35533 0
M  V30 939 O 96.2365 2.3355 3.39895 0
M  V30 940 H 95.5775 0.549978 0.372048 0
M  V30 941 H 98.1075 1.9636 0.574786 0
M  V30 942 H 98.1175 2.95799 2.8101 0
M  V30 943 H 96.7925 3.68946 1.91967 0
M  V30 944 H 95.3695 2.21205 3.00204 0
M  V30 945 N 97.5546 -0.734337 1.39446 0
M  V30 946 C 98.4846 -1.86155 1.40955 0
M  V30 947 C 99.4656 -1.67898 0.272827 0
M  V30 948 O 100.651 -1.88207 0.478743 0
M  V30 949 C 97.7806 -3.23912 1.25294 0
M  V30 950 C 96.7346 -3.56808 2.36373 0
M  V30 951 C 96.0606 -4.93508 2.058 0
M  V30 952 C 97.3606 -3.59713 3.78687 0
M  V30 953 H 99.0546 -1.8515 2.35287 0
M  V30 954 H 96.6006 -0.889367 1.13253 0
M  V30 955 H 98.5536 -4.02443 1.2497 0
M  V30 956 H 97.2776 -3.25446 0.274308 0
M  V30 957 H 95.9366 -2.80606 2.35914 0
M  V30 958 H 95.5846 -4.91623 1.06374 0
M  V30 959 H 95.2846 -5.16486 2.80208 0
M  V30 960 H 96.8086 -5.74396 2.07128 0
M  V30 961 H 98.2226 -4.2832 3.81071 0
M  V30 962 H 96.6196 -3.94209 4.52459 0
M  V30 963 H 97.6896 -2.59504 4.09617 0
M  V30 964 N 99.0327 -1.24633 -0.964593 0
M  V30 965 C 100.273 -1.09981 -1.72289 0
M  V30 966 C 100.637 0.354792 -1.88693 0
M  V30 967 O 101.838 0.62289 -2.61483 0
M  V30 968 C 100.109 -1.82262 -3.07434 0
M  V30 969 S 101.668 -1.83379 -3.98645 0
M  V30 970 H 98.4857 -0.393292 -0.59232 0
M  V30 971 H 101.088 -1.58009 -1.15123 0
M  V30 972 H 99.7917 -2.87206 -2.93157 0
M  V30 973 H 99.3227 -1.3458 -3.69664 0
M  V30 974 H 101.338 -0.903691 -4.87901 0
M  V30 975 N 100.511 1.16574 -1.06058 0
M  V30 976 C 101.736 1.91493 -0.796562 0
M  V30 977 C 102.161 1.76773 0.642868 0
M  V30 978 O 101.519 1.09142 1.44768 0
M  V30 979 C 101.567 3.40293 -1.19303 0
M  V30 980 O 100.671 4.11074 -0.330394 0
M  V30 981 H 100.012 0.596678 -0.291326 0
M  V30 982 H 102.542 1.47708 -1.41575 0
M  V30 983 H 102.552 3.91057 -1.16356 0
M  V30 984 H 101.227 3.50326 -2.24153 0
M  V30 985 H 99.8038 3.70513 -0.421225 0
M  V30 986 N 101.989 0.842826 1.3317 0
M  V30 987 C 103.214 0.453129 2.02389 0
M  V30 988 C 103.639 -0.939105 1.6298 0
M  V30 989 O 102.997 -1.61472 0.8244 0
M  V30 990 C 103.045 0.586094 3.55805 0
M  V30 991 O 102.149 -0.386029 4.10589 0
M  V30 992 H 101.49 0.183664 0.638094 0
M  V30 993 H 104.02 1.13875 1.69981 0
M  V30 994 H 104.03 0.469209 4.05293 0
M  V30 995 H 102.705 1.6014 3.83833 0
M  V30 996 H 101.282 -0.226371 3.72212 0
M  V30 997 N 103.467 -1.45747 0.599634 0
M  V30 998 C 104.397 -2.33235 -0.111306 0
M  V30 999 C 105.378 -1.46359 -0.866781 0
M  V30 1000 O 106.563 -1.75146 -0.838904 0
M  V30 1001 C 103.693 -3.28932 -1.11451 0
M  V30 1002 C 102.647 -4.25381 -0.472772 0
M  V30 1003 C 101.973 -5.1071 -1.58365 0
M  V30 1004 C 103.273 -5.18831 0.600948 0
M  V30 1005 H 104.967 -2.92927 0.61919 0
M  V30 1006 H 102.513 -1.40857 0.299215 0
M  V30 1007 H 104.466 -3.89002 -1.62036 0
M  V30 1008 H 103.19 -2.67381 -1.8755 0
M  V30 1009 H 101.849 -3.66598 0.0121472 0
M  V30 1010 H 101.497 -4.45533 -2.33473 0
M  V30 1011 H 101.197 -5.7604 -1.15982 0
M  V30 1012 H 102.721 -5.73647 -2.09194 0
M  V30 1013 H 104.135 -5.73019 0.179491 0
M  V30 1014 H 102.532 -5.92595 0.946076 0
M  V30 1015 H 103.602 -4.6174 1.48068 0
M  V30 1016 N 104.945 -0.338344 -1.53925 0
M  V30 1017 C 106.361 0.0137736 -1.59594 0
M  V30 1018 C 106.561 1.49186 -1.35447 0
M  V30 1019 O 105.617 2.24987 -1.14616 0
M  V30 1020 C 106.93 -0.41773 -2.97784 0
M  V30 1021 C 108.478 -0.369633 -3.1081 0
M  V30 1022 C 108.953 -0.776524 -4.51369 0
M  V30 1023 N 110.444 -0.730506 -4.57403 0
M  V30 1024 C 111.179 -1.01736 -5.64303 0
M  V30 1025 N 110.675 -1.3721 -6.79077 0
M  V30 1026 N 112.468 -0.941942 -5.54151 0
M  V30 1027 H 104.619 -1.3012 -1.67876 0
M  V30 1028 H 106.882 -0.530082 -0.78595 0
M  V30 1029 H 106.588 -1.44811 -3.20504 0
M  V30 1030 H 106.462 0.209729 -3.76616 0
M  V30 1031 H 108.849 0.651568 -2.87817 0
M  V30 1032 H 108.93 -1.03223 -2.34049 0
M  V30 1033 H 108.574 -1.79571 -4.75096 0
M  V30 1034 H 108.504 -0.0914649 -5.26521 0
M  V30 1035 H 110.995 -0.468783 -3.74981 0
M  V30 1036 H 111.308 -1.57597 -7.5656 0
M  V30 1037 H 109.653 -1.4105 -6.80536 0
M  V30 1038 H 112.844 -0.664184 -4.63364 0
M  V30 1039 H 113.017 -1.16884 -6.37371 0
M  V30 1040 N 106.423 1.57458 -0.0668435 0
M  V30 1041 C 107.648 1.9804 0.616027 0
M  V30 1042 C 108.073 0.944771 1.62652 0
M  V30 1043 O 107.431 -0.0902094 1.81075 0
M  V30 1044 C 107.479 3.37665 1.26549 0
M  V30 1045 O 106.583 3.36701 2.38131 0
M  V30 1046 H 105.924 0.644719 0.158849 0
M  V30 1047 H 108.454 2.04121 -0.139891 0
M  V30 1048 H 108.464 3.7474 1.6135 0
M  V30 1049 H 107.139 4.12573 0.525016 0
M  V30 1050 H 105.716 3.1139 2.0516 0
M  V30 1051 N 107.901 -0.206675 1.56239 0
M  V30 1052 C 109.147 -0.930218 1.80208 0
M  V30 1053 C 109.48 -1.83387 0.638981 0
M  V30 1054 O 108.755 -1.91119 -0.361066 0
M  V30 1055 C 109.038 -1.75641 3.1436 0
M  V30 1056 C 108.891 -0.878257 4.41142 0
M  V30 1057 C 110.21 -2.73129 3.45092 0
M  V30 1058 H 107.329 -0.336742 0.655571 0
M  V30 1059 H 109.971 -0.198222 1.88963 0
M  V30 1060 H 108.121 -2.38048 3.07027 0
M  V30 1061 H 109.793 -0.269787 4.6051 0
M  V30 1062 H 108.036 -0.184385 4.33408 0
M  V30 1063 H 108.707 -1.49106 5.3148 0
M  V30 1064 H 111.183 -2.20856 3.52649 0
M  V30 1065 H 110.059 -3.28028 4.40101 0
M  V30 1066 H 110.32 -3.51606 2.68003 0
M  V30 1067 N 109.379 -1.50304 -0.473955 0
M  V30 1068 C 110.312 -1.63595 -1.59097 0
M  V30 1069 C 111.29 -0.484142 -1.55225 0
M  V30 1070 O 112.474 -0.703271 -1.7489 0
M  V30 1071 C 109.601 -1.61589 -2.97669 0
M  V30 1072 C 108.647 -2.82295 -3.19705 0
M  V30 1073 S 109.48 -4.43635 -2.99913 0
M  V30 1074 C 110.636 -4.44317 -4.40832 0
M  V30 1075 H 110.869 -2.58082 -1.47583 0
M  V30 1076 H 108.402 -1.39531 -0.661087 0
M  V30 1077 H 110.36 -1.61116 -3.7756 0
M  V30 1078 H 109.021 -0.683421 -3.06575 0
M  V30 1079 H 108.214 -2.77188 -4.20931 0
M  V30 1080 H 107.816 -2.8032 -2.47582 0
M  V30 1081 H 110.108 -4.17703 -5.33414 0
M  V30 1082 H 111.051 -5.45911 -4.50984 0
M  V30 1083 H 111.459 -3.74059 -4.22777 0
M  V30 1084 N 110.857 0.726932 -1.39834 0
M  V30 1085 C 112.085 1.51613 -1.40787 0
M  V30 1086 C 112.5 1.88799 -0.00451505 0
M  V30 1087 O 111.857 1.54662 0.968809 0
M  V30 1088 C 111.908 2.79863 -2.28821 0
M  V30 1089 O 111.629 2.44253 -3.63692 0
M  V30 1090 C 113.13 3.73837 -2.38245 0
M  V30 1091 H 110.35 0.468264 -0.480593 0
M  V30 1092 H 112.894 0.897607 -1.83748 0
M  V30 1093 H 111.049 3.38027 -1.89252 0
M  V30 1094 H 111.463 3.26695 -4.1033 0
M  V30 1095 H 112.937 4.60699 -3.04073 0
M  V30 1096 H 113.414 4.16153 -1.40403 0
M  V30 1097 H 114.02 3.21589 -2.78317 0
M  V30 1098 N 112.336 1.25143 0.95797 0
M  V30 1099 C 113.561 1.12521 1.74223 0
M  V30 1100 C 113.986 -0.317402 1.85403 0
M  V30 1101 O 113.344 -1.2299 1.33204 0
M  V30 1102 C 113.392 1.78062 3.1357 0
M  V30 1103 O 112.496 1.058 3.98598 0
M  V30 1104 H 111.837 0.39304 0.535178 0
M  V30 1105 H 114.367 1.65641 1.201 0
M  V30 1106 H 114.377 1.84213 3.64046 0
M  V30 1107 H 113.052 2.83021 3.04749 0
M  V30 1108 H 111.629 1.07506 3.57067 0
M  V30 1109 N 113.814 -1.1601 1.06675 0
M  V30 1110 C 114.746 -2.20115 0.638921 0
M  V30 1111 C 115.759 -1.59916 -0.305057 0
M  V30 1112 O 116.948 -1.78245 -0.0954446 0
M  V30 1113 C 114.048 -3.38798 -0.0830083 0
M  V30 1114 C 113.221 -4.2855 0.875426 0
M  V30 1115 C 112.28 -5.25849 0.192042 0
M  V30 1116 O 111.306 -5.63102 0.830921 0
M  V30 1117 N 112.508 -5.70648 -1.06493 0
M  V30 1118 H 115.273 -2.57439 1.53444 0
M  V30 1119 H 112.834 -1.31057 0.950557 0
M  V30 1120 H 114.826 -4.00936 -0.550685 0
M  V30 1121 H 113.396 -2.99947 -0.880386 0
M  V30 1122 H 112.616 -3.63617 1.52238 0
M  V30 1123 H 113.904 -4.85393 1.52548 0
M  V30 1124 H 113.302 -5.42482 -1.60405 0
M  V30 1125 H 111.859 -6.34859 -1.47641 0
M  V30 1126 N 115.292 -0.849877 -1.32721 0
M  V30 1127 C 116.54 -0.450032 -1.97026 0
M  V30 1128 C 116.861 0.996604 -1.67609 0
M  V30 1129 O 116.131 1.6958 -0.980786 0
M  V30 1130 H 114.711 -0.163426 -0.728904 0
M  V30 1131 H 117.373 -1.08526 -1.6189 0
M  V30 1132 H 116.469 -0.591146 -3.0645 0
M  V30 1133 N 116.77 1.45427 -0.607355 0
M  V30 1134 C 117.703 2.27635 0.160482 0
M  V30 1135 C 118.681 1.37122 0.873857 0
M  V30 1136 O 119.865 1.66551 0.882775 0
M  V30 1137 C 116.992 3.15486 1.23231 0
M  V30 1138 C 116.038 4.21939 0.622097 0
M  V30 1139 S 116.871 5.32459 -0.569852 0
M  V30 1140 C 118.027 6.23879 0.502577 0
M  V30 1141 H 118.26 2.9241 -0.536983 0
M  V30 1142 H 115.793 1.49265 -0.394868 0
M  V30 1143 H 117.751 3.66659 1.84585 0
M  V30 1144 H 116.412 2.49977 1.90185 0
M  V30 1145 H 115.605 4.8333 1.42856 0
M  V30 1146 H 115.207 3.73906 0.0837063 0
M  V30 1147 H 117.499 6.63261 1.38171 0
M  V30 1148 H 118.442 7.0806 -0.0751759 0
M  V30 1149 H 118.85 5.58545 0.8178 0
M  V30 1150 N 118.248 0.346503 1.53744 0
M  V30 1151 C 119.211 -0.496439 2.23759 0
M  V30 1152 C 120.211 -1.0252 1.2388 0
M  V30 1153 O 121.401 -0.913974 1.48297 0
M  V30 1154 C 118.533 -1.69187 2.95954 0
M  V30 1155 H 119.726 0.115952 2.99676 0
M  V30 1156 H 117.279 0.0978939 1.55993 0
M  V30 1157 H 118.014 -2.34288 2.24231 0
M  V30 1158 H 117.799 -1.31989 3.69217 0
M  V30 1159 H 119.289 -2.28969 3.49232 0
M  V30 1160 N 119.726 -1.57421 0.075193 0
M  V30 1161 C 120.689 -2.11791 -0.876203 0
M  V30 1162 C 121.689 -1.04268 -1.22412 0
M  V30 1163 O 122.879 -1.30242 -1.15684 0
M  V30 1164 C 120.011 -2.62207 -2.17854 0
M  V30 1165 H 121.204 -2.9716 -0.40444 0
M  V30 1166 H 118.757 -1.55333 -0.173557 0
M  V30 1167 H 119.492 -1.803 -2.6956 0
M  V30 1168 H 119.277 -3.40802 -1.93897 0
M  V30 1169 H 120.767 -3.04335 -2.85955 0
M  V30 1170 N 121.204 0.198386 -1.56346 0
M  V30 1171 C 122.45 0.916115 -1.81601 0
M  V30 1172 C 122.805 1.81025 -0.651744 0
M  V30 1173 O 122.098 1.88316 0.353229 0
M  V30 1174 C 122.292 1.77031 -3.10475 0
M  V30 1175 C 122.121 0.960365 -4.39326 0
M  V30 1176 C 120.891 0.646093 -5.01152 0
M  V30 1177 C 123.089 0.314628 -5.13337 0
M  V30 1178 N 121.071 -0.182828 -6.13628 0
M  V30 1179 C 122.442 -0.37664 -6.18855 0
M  V30 1180 C 124.497 0.230019 -4.97368 0
M  V30 1181 C 123.2 -1.14445 -7.10137 0
M  V30 1182 C 125.226 -0.524389 -5.89071 0
M  V30 1183 C 124.588 -1.20412 -6.94032 0
M  V30 1184 H 120.687 0.314732 -0.715868 0
M  V30 1185 H 123.271 0.185102 -1.93818 0
M  V30 1186 H 121.442 2.47295 -2.99499 0
M  V30 1187 H 123.174 2.42727 -3.2383 0
M  V30 1188 H 119.929 0.969724 -4.63566 0
M  V30 1189 H 120.353 -0.586802 -6.74452 0
M  V30 1190 H 124.995 0.741184 -4.16253 0
M  V30 1191 H 122.713 -1.66706 -7.90718 0
M  V30 1192 H 126.299 -0.591167 -5.78789 0
M  V30 1193 H 125.179 -1.77853 -7.63766 0
M  V30 1194 N 122.682 1.50554 0.465978 0
M  V30 1195 C 123.91 1.65563 1.24083 0
M  V30 1196 C 124.325 0.341051 1.85694 0
M  V30 1197 O 123.682 -0.677543 1.69457 0
M  V30 1198 C 123.733 2.75051 2.34583 0
M  V30 1199 O 123.454 4.01413 1.75497 0
M  V30 1200 C 124.955 3.01078 3.25372 0
M  V30 1201 H 122.175 0.55638 0.375077 0
M  V30 1202 H 124.719 1.96807 0.555624 0
M  V30 1203 H 122.874 2.46486 2.9887 0
M  V30 1204 H 123.288 4.62002 2.48303 0
M  V30 1205 H 124.762 3.81339 3.99105 0
M  V30 1206 H 125.239 2.12349 3.84453 0
M  V30 1207 H 125.845 3.31194 2.66816 0
M  V30 1208 N 124.16 -0.719506 1.40217 0
M  V30 1209 C 125.406 -1.48152 1.38488 0
M  V30 1210 C 125.739 -1.94195 -0.0141867 0
M  V30 1211 O 125.014 -1.67884 -0.982096 0
M  V30 1212 C 125.297 -2.71035 2.37091 0
M  V30 1213 C 125.15 -2.30912 3.86005 0
M  V30 1214 C 126.469 -3.73182 2.33288 0
M  V30 1215 H 123.588 -0.537395 0.504357 0
M  V30 1216 H 126.23 -0.821472 1.71324 0
M  V30 1217 H 124.38 -3.27352 2.0922 0
M  V30 1218 H 126.052 -1.80107 4.24687 0
M  V30 1219 H 124.295 -1.62958 4.02029 0
M  V30 1220 H 124.966 -3.18978 4.50508 0
M  V30 1221 H 127.442 -3.26485 2.57966 0
M  V30 1222 H 126.318 -4.56806 3.04334 0
M  V30 1223 H 126.579 -4.21202 1.34317 0
M  V30 1224 N 125.638 -1.25649 -0.95132 0
M  V30 1225 C 126.57 -1.02112 -2.05197 0
M  V30 1226 C 127.583 0.0150571 -1.62793 0
M  V30 1227 O 128.772 -0.223874 -1.77091 0
M  V30 1228 C 125.872 -0.522361 -3.3485 0
M  V30 1229 C 125.045 -1.62546 -4.06076 0
M  V30 1230 C 124.104 -1.12649 -5.14001 0
M  V30 1231 O 123.13 -1.82156 -5.39266 0
M  V30 1232 N 124.332 0.03047 -5.80492 0
M  V30 1233 H 127.097 -1.96885 -2.25957 0
M  V30 1234 H 124.658 -1.16899 -1.1201 0
M  V30 1235 H 126.65 -0.172961 -4.0433 0
M  V30 1236 H 125.22 0.33151 -3.10837 0
M  V30 1237 H 124.44 -2.14628 -3.30649 0
M  V30 1238 H 125.728 -2.36644 -4.50419 0
M  V30 1239 H 125.126 0.611169 -5.62389 0
M  V30 1240 H 123.683 0.320875 -6.5101 0
M  V30 1241 N 127.117 1.15442 -1.07289 0
M  V30 1242 C 128.533 1.38201 -0.798288 0
M  V30 1243 C 128.733 1.92429 0.597769 0
M  V30 1244 O 127.789 2.12962 1.3566 0
M  V30 1245 C 129.102 2.35357 -1.87156 0
M  V30 1246 C 130.65 2.49021 -1.89624 0
M  V30 1247 C 131.125 3.49468 -2.96034 0
M  V30 1248 N 132.616 3.57003 -2.95132 0
M  V30 1249 C 133.351 4.34543 -3.74112 0
M  V30 1250 N 132.847 5.15421 -4.6294 0
M  V30 1251 N 134.64 4.29625 -3.62462 0
M  V30 1252 H 126.791 0.78584 -1.97328 0
M  V30 1253 H 129.054 0.408065 -0.855679 0
M  V30 1254 H 128.76 2.02626 -2.87464 0
M  V30 1255 H 128.634 3.35129 -1.73114 0
M  V30 1256 H 131.021 2.81051 -0.899687 0
M  V30 1257 H 131.102 1.4925 -2.07745 0
M  V30 1258 H 130.746 3.18173 -3.95889 0
M  V30 1259 H 130.676 4.48992 -2.75161 0
M  V30 1260 H 133.167 2.99276 -2.30743 0
M  V30 1261 H 133.48 5.7183 -5.19837 0
M  V30 1262 H 131.825 5.14729 -4.66989 0
M  V30 1263 H 135.016 3.65505 -2.92444 0
M  V30 1264 H 135.189 4.89807 -4.24256 0
M  V30 1265 N 128.595 0.856903 1.32268 0
M  V30 1266 C 129.525 0.31858 2.31316 0
M  V30 1267 C 130.506 -0.583487 1.59779 0
M  V30 1268 O 131.691 -0.503259 1.87566 0
M  V30 1269 C 128.821 -0.491979 3.43798 0
M  V30 1270 C 127.775 0.315849 4.26833 0
M  V30 1271 C 127.101 -0.619586 5.31098 0
M  V30 1272 C 128.401 1.54282 4.98993 0
M  V30 1273 H 130.095 1.14621 2.76591 0
M  V30 1274 H 127.641 0.552613 1.32974 0
M  V30 1275 H 129.594 -0.879012 4.1213 0
M  V30 1276 H 128.318 -1.35299 2.97257 0
M  V30 1277 H 126.977 0.684664 3.6015 0
M  V30 1278 H 126.625 -1.47751 4.8081 0
M  V30 1279 H 126.325 -0.0830621 5.87541 0
M  V30 1280 H 127.849 -1.00375 6.02293 0
M  V30 1281 H 129.263 1.22796 5.59995 0
M  V30 1282 H 127.66 2.01745 5.65172 0
M  V30 1283 H 128.73 2.30285 4.26728 0
M  V30 1284 N 130.073 -1.45103 0.615059 0
M  V30 1285 C 131.321 -2.01784 0.112955 0
M  V30 1286 C 131.642 -1.48504 -1.26378 0
M  V30 1287 O 130.912 -0.682245 -1.83636 0
M  V30 1288 H 129.492 -0.745993 0.0387668 0
M  V30 1289 H 132.154 -1.77808 0.798141 0
M  V30 1290 H 131.25 -3.12025 0.0684069 0
M  V30 1291 N 131.551 -0.354651 -1.53558 0
M  V30 1292 C 132.828 0.294281 -1.93374 0
M  V30 1293 C 133.208 1.67313 -1.28723 0
M  V30 1294 O 132.556 2.24179 -0.442247 0
M  V30 1295 C 132.766 0.355445 -3.47185 0
M  V30 1296 C 134.114 0.601007 -4.20325 0
M  V30 1297 O 135.138 0.437106 -3.53508 0
M  V30 1298 O 133.997 0.919322 -5.38712 0
M  V30 1299 H 131.091 0.174033 -0.808481 0
M  V30 1300 H 133.637 -0.406638 -1.64756 0
M  V30 1301 H 132.409 -0.611729 -3.86489 0
M  V30 1302 H 132.032 1.1027 -3.82003 0
M  V30 1303 N 133.029 1.57378 -0.0835403 0
M  V30 1304 C 133.992 2.12252 0.864959 0
M  V30 1305 C 134.992 1.04916 1.21858 0
M  V30 1306 O 136.182 1.30853 1.14991 0
M  V30 1307 C 133.314 2.63358 2.16461 0
M  V30 1308 H 134.507 2.97371 0.388676 0
M  V30 1309 H 132.06 1.55423 0.165317 0
M  V30 1310 H 132.795 1.81727 2.686 0
M  V30 1311 H 132.58 3.41826 1.92087 0
M  V30 1312 H 134.07 3.05847 2.84337 0
M  V30 1313 N 134.507 -0.190092 1.56449 0
M  V30 1314 C 135.755 -0.907908 1.80559 0
M  V30 1315 C 136.076 -1.83583 0.657438 0
M  V30 1316 O 135.346 -1.93203 -0.323924 0
M  V30 1317 H 133.926 -0.338247 0.666032 0
M  V30 1318 H 136.588 -0.194403 1.93928 0
M  V30 1319 H 135.684 -1.49604 2.73907 0
M  V30 1320 N 135.985 -1.50799 -0.457987 0
M  V30 1321 C 136.917 -1.66786 -1.57211 0
M  V30 1322 C 137.93 -0.548962 -1.53265 0
M  V30 1323 O 139.119 -0.8226 -1.58416 0
M  V30 1324 C 136.219 -1.64834 -2.96113 0
M  V30 1325 C 135.392 -2.92971 -3.24787 0
M  V30 1326 C 134.451 -2.83485 -4.43309 0
M  V30 1327 O 133.477 -3.5744 -4.42973 0
M  V30 1328 N 134.679 -1.97929 -5.45714 0
M  V30 1329 H 137.444 -2.62889 -1.43909 0
M  V30 1330 H 135.005 -1.48427 -0.646617 0
M  V30 1331 H 136.997 -1.56084 -3.7339 0
M  V30 1332 H 135.567 -0.764118 -3.03117 0
M  V30 1333 H 134.787 -3.15749 -2.36 0
M  V30 1334 H 136.075 -3.77834 -3.40762 0
M  V30 1335 H 135.473 -1.37182 -5.48815 0
M  V30 1336 H 134.03 -1.95073 -6.21924 0
M  V30 1337 N 137.463 0.71206 -1.40597 0
M  V30 1338 C 138.879 1.02058 -1.22704 0
M  V30 1339 C 139.079 2.01228 -0.104729 0
M  V30 1340 O 138.135 2.4674 0.53624 0
M  V30 1341 C 139.448 1.56094 -2.57012 0
M  V30 1342 C 140.996 1.6806 -2.64054 0
M  V30 1343 C 141.471 2.25501 -3.9864 0
M  V30 1344 N 142.962 2.32882 -4.004 0
M  V30 1345 C 143.697 2.78317 -5.01325 0
M  V30 1346 N 143.193 3.23478 -6.12645 0
M  V30 1347 N 144.986 2.77733 -4.88693 0
M  V30 1348 H 137.137 0.0547896 -2.12329 0
M  V30 1349 H 139.4 0.0869027 -0.944008 0
M  V30 1350 H 139.106 0.906865 -3.39807 0
M  V30 1351 H 138.98 2.54564 -2.78347 0
M  V30 1352 H 141.367 2.32583 -1.81629 0
M  V30 1353 H 141.448 0.681802 -2.46546 0
M  V30 1354 H 141.092 1.61598 -4.81506 0
M  V30 1355 H 141.022 3.26102 -4.13479 0
M  V30 1356 H 143.513 2.00991 -3.20017 0
M  V30 1357 H 143.826 3.56725 -6.85542 0
M  V30 1358 H 142.171 3.21429 -6.16205 0
M  V30 1359 H 145.362 2.4179 -4.00818 0
M  V30 1360 H 145.535 3.12826 -5.67489 0
M  V30 1361 N 138.941 1.26152 0.944643 0
M  V30 1362 C 139.904 1.07474 2.0244 0
M  V30 1363 C 140.904 0.0242064 1.60782 0
M  V30 1364 O 142.094 0.267302 1.72137 0
M  V30 1365 C 139.226 0.633956 3.34953 0
M  V30 1366 H 140.419 2.03336 2.20442 0
M  V30 1367 H 137.972 1.087 1.12312 0
M  V30 1368 H 138.707 -0.326811 3.22649 0
M  V30 1369 H 138.492 1.39247 3.66542 0
M  V30 1370 H 139.982 0.52501 4.14287 0
M  V30 1371 N 140.419 -1.14872 1.07899 0
M  V30 1372 C 141.647 -1.89661 0.82683 0
M  V30 1373 C 142.062 -1.78312 -0.620519 0
M  V30 1374 O 141.419 -1.13888 -1.42604 0
M  V30 1375 C 141.47 -3.39817 1.23316 0
M  V30 1376 O 141.191 -3.50845 2.62372 0
M  V30 1377 C 142.692 -4.31615 1.0111 0
M  V30 1378 H 139.912 -0.60092 0.298557 0
M  V30 1379 H 142.456 -1.4551 1.43691 0
M  V30 1380 H 140.611 -3.8161 0.667286 0
M  V30 1381 H 141.025 -4.44076 2.79101 0
M  V30 1382 H 142.499 -5.35367 1.34486 0
M  V30 1383 H 142.976 -4.39169 -0.0522168 0
M  V30 1384 H 143.582 -3.95572 1.56215 0
M  V30 1385 N 141.898 -0.863906 -1.31812 0
M  V30 1386 C 143.145 -0.471836 -1.96926 0
M  V30 1387 C 143.473 0.974578 -1.68322 0
M  V30 1388 O 142.728 1.7003 -0.968933 0
M  V30 1389 C 143.027 -0.668547 -3.51091 0
M  V30 1390 C 142.693 -2.08683 -3.99703 0
M  V30 1391 C 141.355 -2.47471 -4.12688 0
M  V30 1392 C 143.707 -3.01207 -4.25351 0
M  V30 1393 C 141.035 -3.78037 -4.4867 0
M  V30 1394 C 143.387 -4.31282 -4.62794 0
M  V30 1395 C 142.051 -4.69992 -4.73987 0
M  V30 1396 H 141.321 -0.172657 -0.720604 0
M  V30 1397 H 143.968 -1.09573 -1.57054 0
M  V30 1398 H 142.273 0.0385252 -3.91781 0
M  V30 1399 H 143.97 -0.345102 -3.99512 0
M  V30 1400 H 140.56 -1.77566 -3.90087 0
M  V30 1401 H 144.744 -2.72469 -4.14819 0
M  V30 1402 H 140 -4.078 -4.55532 0
M  V30 1403 H 144.174 -5.03031 -4.81594 0
M  V30 1404 H 141.801 -5.71207 -5.01624 0
M  V30 1405 N 143.376 1.44774 -0.622745 0
M  V30 1406 C 144.306 2.33382 0.0741861 0
M  V30 1407 C 145.287 1.47719 0.843387 0
M  V30 1408 O 146.472 1.76458 0.810934 0
M  V30 1409 C 143.602 3.30663 1.06204 0
M  V30 1410 C 142.556 4.26079 0.405037 0
M  V30 1411 C 141.882 5.13165 1.5022 0
M  V30 1412 C 143.182 5.1781 -0.683414 0
M  V30 1413 H 144.876 2.91905 -0.665713 0
M  V30 1414 H 142.422 1.40363 -0.321587 0
M  V30 1415 H 144.375 3.9153 1.55827 0
M  V30 1416 H 143.099 2.70331 1.83272 0
M  V30 1417 H 141.758 3.66532 -0.0704683 0
M  V30 1418 H 141.406 4.49191 2.26355 0
M  V30 1419 H 141.106 5.77812 1.06803 0
M  V30 1420 H 142.63 5.76902 2.00041 0
M  V30 1421 H 144.044 5.72661 -0.270631 0
M  V30 1422 H 142.441 5.91015 -1.04023 0
M  V30 1423 H 143.511 4.59326 -1.55395 0
M  V30 1424 N 144.854 0.36279 1.53368 0
M  V30 1425 C 145.801 -0.485008 2.25646 0
M  V30 1426 C 146.771 -1.07982 1.2621 0
M  V30 1427 O 147.956 -1.11284 1.54986 0
M  V30 1428 C 145.096 -1.62023 3.04701 0
M  V30 1429 C 144.209 -1.05086 4.19024 0
M  V30 1430 C 143.344 -2.15496 4.85525 0
M  V30 1431 C 142.383 -1.5601 5.91884 0
M  V30 1432 N 141.52 -2.60241 6.52088 0
M  V30 1433 H 146.36 0.137864 2.97681 0
M  V30 1434 H 143.897 0.0798061 1.46883 0
M  V30 1435 H 145.855 -2.28887 3.48807 0
M  V30 1436 H 144.485 -2.2138 2.34927 0
M  V30 1437 H 143.537 -0.27259 3.79422 0
M  V30 1438 H 144.849 -0.575926 4.95464 0
M  V30 1439 H 144.003 -2.90186 5.32801 0
M  V30 1440 H 142.742 -2.66341 4.08551 0
M  V30 1441 H 141.747 -0.798338 5.43973 0
M  V30 1442 H 142.972 -1.05994 6.70777 0
M  V30 1443 H 140.918 -3.10304 5.77968 0
M  V30 1444 H 140.835 -2.17426 7.24059 0
M  V30 1445 H 142.103 -3.34641 7.04014 0
M  V30 1446 N 146.332 -1.57332 0.0918853 0
M  V30 1447 C 147.242 -2.17368 -0.882505 0
M  V30 1448 C 148.258 -1.14226 -1.31257 0
M  V30 1449 O 149.434 -1.46582 -1.38115 0
M  V30 1450 C 146.499 -2.73962 -2.12476 0
M  V30 1451 C 145.56 -3.92048 -1.7492 0
M  V30 1452 C 144.793 -4.45933 -2.93223 0
M  V30 1453 O 145.016 -3.98764 -4.07852 0
M  V30 1454 O 143.95 -5.36999 -2.71875 0
M  V30 1455 H 147.776 -3.01031 -0.40172 0
M  V30 1456 H 145.361 -1.48813 -0.132291 0
M  V30 1457 H 147.243 -3.10147 -2.85283 0
M  V30 1458 H 145.918 -1.93347 -2.59613 0
M  V30 1459 H 144.825 -3.6068 -0.993025 0
M  V30 1460 H 146.158 -4.74017 -1.32548 0
M  V30 1461 N 147.81 0.181792 -1.56548 0
M  V30 1462 C 148.74 1.22765 -1.98623 0
M  V30 1463 C 149.721 1.46747 -0.860189 0
M  V30 1464 O 150.906 1.58259 -1.12551 0
M  V30 1465 C 148.036 2.56894 -2.33715 0
M  V30 1466 C 146.99 2.475 -3.49182 0
M  V30 1467 C 146.316 3.86023 -3.69986 0
M  V30 1468 C 147.616 1.98866 -4.82959 0
M  V30 1469 H 149.31 0.877942 -2.86239 0
M  V30 1470 H 146.856 0.42088 -1.37712 0
M  V30 1471 H 148.809 3.30253 -2.61746 0
M  V30 1472 H 147.533 2.93632 -1.42997 0
M  V30 1473 H 146.192 1.76596 -3.21262 0
M  V30 1474 H 145.84 4.20136 -2.76576 0
M  V30 1475 H 145.54 3.80609 -4.47672 0
M  V30 1476 H 147.064 4.60984 -4.00407 0
M  V30 1477 H 148.478 2.61992 -5.09934 0
M  V30 1478 H 146.875 2.04424 -5.64208 0
M  V30 1479 H 147.945 0.942465 -4.75653 0
M  V30 1480 N 149.288 1.51039 0.449983 0
M  V30 1481 C 150.516 1.66869 1.2232 0
M  V30 1482 C 150.931 0.360727 1.85322 0
M  V30 1483 O 150.288 -0.659531 1.70166 0
M  V30 1484 C 150.339 2.77524 2.31652 0
M  V30 1485 O 150.06 4.03252 1.7123 0
M  V30 1486 C 151.561 3.04512 3.2216 0
M  V30 1487 H 148.781 0.560326 0.369155 0
M  V30 1488 H 151.325 1.97385 0.534719 0
M  V30 1489 H 149.48 2.49642 2.96239 0
M  V30 1490 H 149.894 4.64609 2.43389 0
M  V30 1491 H 151.368 3.85551 3.95038 0
M  V30 1492 H 151.845 2.16415 3.8218 0
M  V30 1493 H 152.451 3.34005 2.63288 0
M  V30 1494 N 150.766 -0.704594 1.40972 0
M  V30 1495 C 151.991 -1.49858 1.43378 0
M  V30 1496 C 152.416 -1.88061 0.038184 0
M  V30 1497 O 151.774 -1.5402 -0.956425 0
M  V30 1498 C 151.822 -2.74333 2.34038 0
M  V30 1499 O 150.926 -3.7147 1.7912 0
M  V30 1500 H 150.267 -0.45139 0.486974 0
M  V30 1501 H 152.797 -0.866832 1.8533 0
M  V30 1502 H 152.807 -3.22741 2.49604 0
M  V30 1503 H 151.482 -2.45863 3.35446 0
M  V30 1504 H 150.059 -3.30363 1.72958 0
M  V30 1505 N 152.244 -1.26651 -0.937939 0
M  V30 1506 C 153.492 -1.12165 -1.68118 0
M  V30 1507 C 153.813 0.334983 -1.92101 0
M  V30 1508 O 153.083 1.23583 -1.52 0
M  V30 1509 H 151.663 -0.412093 -0.623048 0
M  V30 1510 H 154.325 -1.59027 -1.12678 0
M  V30 1511 H 153.421 -1.64289 -2.6536 0
M  V30 1512 N 153.722 1.14298 -1.08507 0
M  V30 1513 C 154.669 2.19414 -0.715965 0
M  V30 1514 C 155.639 1.63399 0.298326 0
M  V30 1515 O 156.824 1.89929 0.182101 0
M  V30 1516 C 153.964 3.44845 -0.132534 0
M  V30 1517 C 153.077 4.15007 -1.19973 0
M  V30 1518 C 152.212 5.28024 -0.580048 0
M  V30 1519 C 151.251 5.9002 -1.62921 0
M  V30 1520 N 150.388 6.94485 -1.03125 0
M  V30 1521 H 155.228 2.50336 -1.61666 0
M  V30 1522 H 152.765 1.2293 -0.807882 0
M  V30 1523 H 154.723 4.16601 0.223454 0
M  V30 1524 H 153.353 3.14403 0.731467 0
M  V30 1525 H 152.405 3.41629 -1.67313 0
M  V30 1526 H 153.717 4.57178 -1.99473 0
M  V30 1527 H 152.871 6.06455 -0.172364 0
M  V30 1528 H 151.61 4.87076 0.246603 0
M  V30 1529 H 150.615 5.10291 -2.04654 0
M  V30 1530 H 151.84 6.33042 -2.45835 0
M  V30 1531 H 149.786 6.55612 -0.225711 0
M  V30 1532 H 149.703 7.35148 -1.76334 0
M  V30 1533 H 150.971 7.7679 -0.649458 0
M  V30 1534 N 155.201 0.870884 1.31352 0
M  V30 1535 C 156.131 0.343096 2.30966 0
M  V30 1536 C 157.112 -0.566507 1.60389 0
M  V30 1537 O 158.297 -0.483336 1.88089 0
M  V30 1538 C 155.427 -0.455487 3.443 0
M  V30 1539 C 154.381 0.361103 4.26474 0
M  V30 1540 C 153.707 -0.563221 5.31725 0
M  V30 1541 C 155.007 1.59566 4.97329 0
M  V30 1542 H 156.701 1.17548 2.75359 0
M  V30 1543 H 154.247 0.566686 1.32381 0
M  V30 1544 H 156.2 -0.83525 4.13039 0
M  V30 1545 H 154.924 -1.32139 2.98675 0
M  V30 1546 H 153.583 0.722825 3.59403 0
M  V30 1547 H 153.231 -1.42643 4.82351 0
M  V30 1548 H 152.931 -0.0207409 5.87596 0
M  V30 1549 H 154.455 -0.939808 6.03324 0
M  V30 1550 H 155.869 1.28728 5.58661 0
M  V30 1551 H 154.266 2.07728 5.63 0
M  V30 1552 H 155.336 2.34798 4.24262 0
M  V30 1553 N 156.679 -1.44442 0.630414 0
M  V30 1554 C 157.642 -2.29107 -0.0652523 0
M  V30 1555 C 158.642 -1.41002 -0.772995 0
M  V30 1556 O 159.832 -1.62881 -0.617692 0
M  V30 1557 C 156.964 -3.22564 -1.10296 0
M  V30 1558 H 158.157 -2.92103 0.679401 0
M  V30 1559 H 155.71 -1.51343 0.390517 0
M  V30 1560 H 156.445 -2.64416 -1.87762 0
M  V30 1561 H 156.23 -3.87491 -0.59941 0
M  V30 1562 H 157.72 -3.86167 -1.5895 0
M  V30 1563 N 158.157 -0.370918 -1.53173 0
M  V30 1564 C 159.12 0.460778 -2.24521 0
M  V30 1565 C 160.12 1.00536 -1.25496 0
M  V30 1566 O 161.31 0.890266 -1.49733 0
M  V30 1567 C 158.442 1.64457 -2.98608 0
M  V30 1568 H 159.635 -0.163613 -2.99453 0
M  V30 1569 H 157.188 -0.122699 -1.55818 0
M  V30 1570 H 157.923 2.30691 -2.2793 0
M  V30 1571 H 157.708 1.26099 -3.7127 0
M  V30 1572 H 159.198 2.23384 -3.5283 0
M  V30 1573 N 159.635 1.57281 -0.100228 0
M  V30 1574 C 160.881 1.94826 0.563101 0
M  V30 1575 C 161.214 0.982475 1.67514 0
M  V30 1576 O 160.489 0.0164069 1.94493 0
M  V30 1577 C 160.772 3.42453 1.11346 0
M  V30 1578 C 160.625 4.498 0.00612081 0
M  V30 1579 C 161.944 3.91506 2.01024 0
M  V30 1580 H 159.063 0.708428 0.203221 0
M  V30 1581 H 161.705 1.8922 -0.171979 0
M  V30 1582 H 159.855 3.47361 1.7399 0
M  V30 1583 H 161.527 4.57 -0.628357 0
M  V30 1584 H 159.77 4.28756 -0.659581 0
M  V30 1585 H 160.441 5.50306 0.432109 0
M  V30 1586 H 162.917 3.88784 1.48278 0
M  V30 1587 H 161.793 4.95358 2.36457 0
M  V30 1588 H 162.054 3.31099 2.92961 0
M  V30 1589 N 161.113 -0.173488 1.56642 0
M  V30 1590 C 162.361 -0.888706 1.81512 0
M  V30 1591 C 162.682 -1.82875 0.676872 0
M  V30 1592 O 161.952 -1.93536 -0.303414 0
M  V30 1593 H 160.532 -0.331164 0.669582 0
M  V30 1594 H 163.194 -0.173823 1.94123 0
M  V30 1595 H 162.29 -1.46691 2.75478 0
M  V30 1596 N 162.591 -1.51276 -0.441967 0
M  V30 1597 C 163.838 -1.63715 -1.19179 0
M  V30 1598 C 164.166 -0.351175 -1.91303 0
M  V30 1599 O 163.421 0.664524 -1.84072 0
M  V30 1600 C 163.72 -2.78746 -2.23686 0
M  V30 1601 C 163.386 -4.18189 -1.68607 0
M  V30 1602 C 162.048 -4.56125 -1.53308 0
M  V30 1603 C 164.4 -5.05222 -1.28062 0
M  V30 1604 C 161.728 -5.78804 -0.959317 0
M  V30 1605 C 164.08 -6.28476 -0.721162 0
M  V30 1606 C 162.744 -6.65188 -0.55504 0
M  V30 1607 H 162.014 -0.599076 -0.436106 0
M  V30 1608 H 164.661 -1.85296 -0.48351 0
M  V30 1609 H 162.966 -2.51369 -3.00535 0
M  V30 1610 H 164.663 -2.8557 -2.81515 0
M  V30 1611 H 161.253 -3.88277 -1.8149 0
M  V30 1612 H 165.437 -4.76524 -1.38704 0
M  V30 1613 H 160.693 -6.05899 -0.81833 0
M  V30 1614 H 164.867 -6.95259 -0.398458 0
M  V30 1615 H 162.494 -7.60123 -0.108311 0
M  V30 1616 N 164.069 0.697108 -1.41344 0
M  V30 1617 C 165.294 1.49096 -1.44171 0
M  V30 1618 C 165.719 1.88038 -0.0481568 0
M  V30 1619 O 165.077 1.54525 0.948243 0
M  V30 1620 C 165.125 2.73088 -2.3549 0
M  V30 1621 O 164.229 3.70514 -1.81088 0
M  V30 1622 H 163.57 0.448801 -0.489361 0
M  V30 1623 H 166.1 0.856992 -1.85787 0
M  V30 1624 H 166.11 3.21413 -2.51312 0
M  V30 1625 H 164.785 2.44081 -3.36745 0
M  V30 1626 H 163.362 3.29441 -1.74708 0
M  V30 1627 N 165.547 1.27147 0.931209 0
M  V30 1628 C 166.457 1.11372 2.06478 0
M  V30 1629 C 167.473 0.044645 1.73943 0
M  V30 1630 O 168.649 0.250417 1.99837 0
M  V30 1631 C 165.714 0.758838 3.38294 0
M  V30 1632 C 164.775 1.90841 3.84549 0
M  V30 1633 C 164.008 1.57036 5.10074 0
M  V30 1634 O 164.231 0.476645 5.68405 0
M  V30 1635 O 163.165 2.40839 5.51616 0
M  V30 1636 H 166.991 2.06493 2.22698 0
M  V30 1637 H 164.576 1.06301 1.04978 0
M  V30 1638 H 166.458 0.574098 4.17471 0
M  V30 1639 H 165.133 -0.162879 3.2329 0
M  V30 1640 H 164.04 2.14819 3.06274 0
M  V30 1641 H 165.373 2.81021 4.04089 0
M  V30 1642 N 167.025 -1.13721 1.09112 0
M  V30 1643 C 168.441 -1.36914 0.820174 0
M  V30 1644 C 168.641 -1.93356 -0.567079 0
M  V30 1645 O 167.697 -2.15093 -1.32255 0
M  V30 1646 C 169.01 -2.3235 1.90877 0
M  V30 1647 C 170.558 -2.45973 1.93562 0
M  V30 1648 C 171.033 -3.44714 3.01556 0
M  V30 1649 N 172.524 -3.52263 3.00775 0
M  V30 1650 C 173.259 -4.28536 3.80978 0
M  V30 1651 N 172.755 -5.07991 4.71081 0
M  V30 1652 N 174.548 -4.23804 3.69251 0
M  V30 1653 H 166.699 -0.754348 1.98553 0
M  V30 1654 H 168.962 -0.3944 0.862063 0
M  V30 1655 H 168.668 -1.98027 2.90651 0
M  V30 1656 H 168.542 -3.32332 1.78424 0
M  V30 1657 H 170.929 -2.79584 0.944286 0
M  V30 1658 H 171.01 -1.45926 2.10093 0
M  V30 1659 H 170.654 -3.11835 4.00901 0
M  V30 1660 H 170.584 -4.44558 2.82269 0
M  V30 1661 H 173.075 -2.95567 2.35475 0
M  V30 1662 H 173.388 -5.63487 5.28869 0
M  V30 1663 H 171.733 -5.07235 4.75119 0
M  V30 1664 H 174.924 -3.60806 2.98222 0
M  V30 1665 H 175.097 -4.82995 4.31995 0
M  V30 1666 N 168.503 -0.877838 -1.30888 0
M  V30 1667 C 169.435 -0.296607 -2.27273 0
M  V30 1668 C 170.448 0.544799 -1.53414 0
M  V30 1669 O 171.637 0.365511 -1.74718 0
M  V30 1670 C 168.737 0.597481 -3.33592 0
M  V30 1671 C 167.91 -0.213251 -4.3688 0
M  V30 1672 C 166.969 0.610208 -5.2265 0
M  V30 1673 O 165.995 0.035441 -5.69189 0
M  V30 1674 N 167.197 1.92071 -5.47804 0
M  V30 1675 H 169.962 -1.12492 -2.77787 0
M  V30 1676 H 167.523 -0.740105 -1.43993 0
M  V30 1677 H 169.515 1.15425 -3.87891 0
M  V30 1678 H 168.085 1.32647 -2.83061 0
M  V30 1679 H 167.305 -0.951466 -3.82545 0
M  V30 1680 H 168.593 -0.769262 -5.02951 0
M  V30 1681 H 167.991 2.4107 -5.11763 0
M  V30 1682 H 166.548 2.42508 -6.05007 0
M  V30 1683 N 169.982 1.44106 -0.638065 0
M  V30 1684 C 170.945 2.29138 0.0531013 0
M  V30 1685 C 171.945 1.41409 0.765506 0
M  V30 1686 O 173.135 1.63206 0.609046 0
M  V30 1687 C 170.267 3.23144 1.08584 0
M  V30 1688 H 171.46 2.91739 -0.694883 0
M  V30 1689 H 169.013 1.51134 -0.398538 0
M  V30 1690 H 169.748 2.65408 1.86357 0
M  V30 1691 H 169.533 3.87804 0.578852 0
M  V30 1692 H 171.023 3.87004 1.56899 0
M  V30 1693 N 171.46 0.379036 1.52974 0
M  V30 1694 C 172.708 -0.206014 2.01047 0
M  V30 1695 C 173.029 -1.48175 1.26765 0
M  V30 1696 O 172.299 -1.92085 0.384743 0
M  V30 1697 H 170.879 -0.0791184 0.742798 0
M  V30 1698 H 173.541 0.508366 1.88153 0
M  V30 1699 H 172.637 -0.423501 3.09213 0
M  V30 1700 N 172.938 -1.57226 0.108567 0
M  V30 1701 C 174.163 -1.99604 -0.563303 0
M  V30 1702 C 174.588 -0.987563 -1.6009 0
M  V30 1703 O 173.946 0.0421687 -1.81251 0
M  V30 1704 C 173.994 -3.40902 -1.17552 0
M  V30 1705 O 173.098 -3.42896 -2.2912 0
M  V30 1706 H 172.439 -0.648704 -0.1417 0
M  V30 1707 H 174.969 -2.03679 0.193961 0
M  V30 1708 H 174.979 -3.78886 -1.51357 0
M  V30 1709 H 173.654 -4.1382 -0.415445 0
M  V30 1710 H 172.231 -3.1672 -1.96832 0
M  V30 1711 N 174.416 0.165178 -1.56732 0
M  V30 1712 C 175.693 0.908443 -1.73224 0
M  V30 1713 C 176.073 2.0013 -0.67165 0
M  V30 1714 O 175.421 2.26353 0.31253 0
M  V30 1715 C 175.631 1.46756 -3.16644 0
M  V30 1716 C 176.979 1.93809 -3.77787 0
M  V30 1717 O 178.003 1.56537 -3.1996 0
M  V30 1718 O 176.862 2.62486 -4.79336 0
M  V30 1719 H 173.956 0.428025 -0.707618 0
M  V30 1720 H 176.502 0.152526 -1.69013 0
M  V30 1721 H 175.274 0.68129 -3.85323 0
M  V30 1722 H 174.897 2.28749 -3.25207 0
M  V30 1723 N 175.894 1.51508 0.433938 0
M  V30 1724 C 176.824 1.76016 1.53429 0
M  V30 1725 C 177.805 0.610112 1.58782 0
M  V30 1726 O 178.99 0.853177 1.74455 0
M  V30 1727 C 176.12 1.88831 2.9148 0
M  V30 1728 C 175.074 3.04288 3.00987 0
M  V30 1729 C 174.4 3.0229 4.4105 0
M  V30 1730 C 175.7 4.44193 2.74754 0
M  V30 1731 H 177.394 2.68152 1.33171 0
M  V30 1732 H 174.94 1.29035 0.639214 0
M  V30 1733 H 176.893 2.04559 3.6842 0
M  V30 1734 H 175.617 0.933455 3.12976 0
M  V30 1735 H 174.276 2.8827 2.26486 0
M  V30 1736 H 173.924 2.04576 4.59519 0
M  V30 1737 H 173.624 3.79822 4.4834 0
M  V30 1738 H 175.148 3.20116 5.1996 0
M  V30 1739 H 176.562 4.60544 3.41426 0
M  V30 1740 H 174.959 5.23457 2.9345 0
M  V30 1741 H 176.029 4.53996 1.70339 0
M  V30 1742 N 177.372 -0.689602 1.41712 0
M  V30 1743 C 178.597 -1.48329 1.44959 0
M  V30 1744 C 179.022 -1.8801 0.0581283 0
M  V30 1745 O 178.38 -1.55026 -0.940035 0
M  V30 1746 C 178.428 -2.71835 2.36935 0
M  V30 1747 O 177.532 -3.69549 1.8305 0
M  V30 1748 H 176.873 -0.446199 0.491734 0
M  V30 1749 H 179.403 -0.847127 1.86239 0
M  V30 1750 H 179.413 -3.20076 2.53013 0
M  V30 1751 H 178.088 -2.42291 3.38035 0
M  V30 1752 H 176.665 -3.2851 1.76452 0
M  V30 1753 N 178.85 -1.27639 -0.924453 0
M  V30 1754 C 179.813 -1.10681 -2.00705 0
M  V30 1755 C 180.813 -0.0497823 -1.60723 0
M  V30 1756 O 182.003 -0.294654 -1.7169 0
M  V30 1757 C 179.135 -0.687164 -3.33902 0
M  V30 1758 H 180.328 -2.06817 -2.17179 0
M  V30 1759 H 177.881 -1.10473 -1.10569 0
M  V30 1760 H 178.616 0.275439 -3.23128 0
M  V30 1761 H 178.401 -1.45061 -3.6428 0
M  V30 1762 H 179.891 -0.590853 -4.13399 0
M  V30 1763 N 180.328 1.1314 -1.09713 0
M  V30 1764 C 181.261 2.17735 -0.683137 0
M  V30 1765 C 182.239 1.59582 0.311841 0
M  V30 1766 O 183.423 1.87298 0.212514 0
M  V30 1767 C 180.55 3.38699 -0.00684324 0
M  V30 1768 C 179.596 4.1546 -0.964102 0
M  V30 1769 S 180.429 4.74733 -2.47767 0
M  V30 1770 C 181.585 5.9904 -1.81387 0
M  V30 1771 H 181.818 2.52515 -1.56918 0
M  V30 1772 H 179.351 1.24484 -0.913404 0
M  V30 1773 H 181.309 4.08765 0.377044 0
M  V30 1774 H 179.97 3.02214 0.85589 0
M  V30 1775 H 179.163 5.02093 -0.43803 0
M  V30 1776 H 178.765 3.51066 -1.28953 0
M  V30 1777 H 181.057 6.67846 -1.13967 0
M  V30 1778 H 182 6.56261 -2.65947 0
M  V30 1779 H 182.408 5.4976 -1.28155 0
M  V30 1780 N 181.806 0.884767 1.30421 0
M  V30 1781 C 183.222 0.57874 1.48737 0
M  V30 1782 C 183.422 -0.883567 1.81095 0
M  V30 1783 O 182.478 -1.6648 1.89844 0
M  V30 1784 C 183.791 1.49171 2.61091 0
M  V30 1785 C 185.339 1.49532 2.74971 0
M  V30 1786 C 185.814 2.39421 3.90438 0
M  V30 1787 N 187.305 2.37383 3.97748 0
M  V30 1788 C 188.04 3.03647 4.86401 0
M  V30 1789 N 187.536 3.79136 5.79852 0
M  V30 1790 N 189.329 2.9288 4.79768 0
M  V30 1791 H 181.48 1.83075 1.0769 0
M  V30 1792 H 183.743 0.783637 0.533495 0
M  V30 1793 H 183.449 2.53291 2.44001 0
M  V30 1794 H 183.323 1.20113 3.57565 0
M  V30 1795 H 185.71 0.46163 2.91467 0
M  V30 1796 H 185.791 1.8262 1.79119 0
M  V30 1797 H 185.435 3.42874 3.74699 0
M  V30 1798 H 185.365 2.03649 4.85628 0
M  V30 1799 H 187.856 1.82525 3.30897 0
M  V30 1800 H 188.169 4.26789 6.4426 0
M  V30 1801 H 186.514 3.83243 5.79784 0
M  V30 1802 H 189.705 2.33433 4.05742 0
M  V30 1803 H 189.878 3.448 5.4865 0
M  V30 1804 N 183.284 -1.43765 0.645699 0
M  V30 1805 C 184.512 -2.06253 0.163556 0
M  V30 1806 C 184.927 -1.48352 -1.16778 0
M  V30 1807 O 184.284 -0.611932 -1.71935 0
M  V30 1808 C 184.335 -3.61453 0.0583186 0
M  V30 1809 O 184.056 -4.172 1.33702 0
M  V30 1810 C 185.557 -4.41002 -0.450795 0
M  V30 1811 H 182.777 -0.665413 0.0864077 0
M  V30 1812 H 185.321 -1.84396 0.884222 0
M  V30 1813 H 183.476 -3.82522 -0.612865 0
M  V30 1814 H 183.89 -5.10791 1.19131 0
M  V30 1815 H 185.364 -5.49966 -0.473403 0
M  V30 1816 H 185.841 -4.13488 -1.48068 0
M  V30 1817 H 186.447 -4.24886 0.187637 0
M  V30 1818 N 184.763 -0.387143 -1.52771 0
M  V30 1819 C 186.179 -0.037007 -1.59557 0
M  V30 1820 C 186.379 1.44801 -1.40124 0
M  V30 1821 O 185.435 2.21227 -1.21716 0
M  V30 1822 C 186.748 -0.512256 -2.96305 0
M  V30 1823 C 188.296 -0.468328 -3.09476 0
M  V30 1824 C 188.771 -0.919731 -4.4867 0
M  V30 1825 N 190.262 -0.875656 -4.54848 0
M  V30 1826 C 190.997 -1.19637 -5.6078 0
M  V30 1827 N 190.493 -1.58745 -6.74368 0
M  V30 1828 N 192.286 -1.11776 -5.50874 0
M  V30 1829 H 184.437 -1.35395 -1.63652 0
M  V30 1830 H 186.7 -0.554818 -0.768688 0
M  V30 1831 H 186.406 -1.54935 -3.15734 0
M  V30 1832 H 186.28 0.089805 -3.77093 0
M  V30 1833 H 188.667 0.559671 -2.89744 0
M  V30 1834 H 188.748 -1.10616 -2.30646 0
M  V30 1835 H 188.392 -1.94595 -4.69143 0
M  V30 1836 H 188.322 -0.258927 -5.25963 0
M  V30 1837 H 190.813 -0.587843 -3.733 0
M  V30 1838 H 191.126 -1.81586 -7.51163 0
M  V30 1839 H 189.471 -1.6263 -6.75705 0
M  V30 1840 H 192.662 -0.811264 -4.61016 0
M  V30 1841 H 192.835 -1.37103 -6.3333 0
M  V30 1842 N 186.241 1.57166 -0.116904 0
M  V30 1843 C 187.487 1.95412 0.542405 0
M  V30 1844 C 187.82 1.00019 1.66463 0
M  V30 1845 O 187.095 0.0370346 1.94465 0
M  V30 1846 C 187.378 3.43615 1.07708 0
M  V30 1847 C 187.231 4.49781 -0.0415868 0
M  V30 1848 C 188.55 3.93616 1.96861 0
M  V30 1849 H 185.669 0.710543 0.195696 0
M  V30 1850 H 188.311 1.89027 -0.192038 0
M  V30 1851 H 186.461 3.49187 1.70296 0
M  V30 1852 H 188.133 4.56308 -0.676793 0
M  V30 1853 H 186.376 4.28033 -0.705019 0
M  V30 1854 H 187.047 5.50733 0.373717 0
M  V30 1855 H 189.523 3.90335 1.44146 0
M  V30 1856 H 188.399 4.97838 2.3119 0
M  V30 1857 H 188.66 3.34188 2.89432 0
M  V30 1858 N 187.719 -0.156864 1.56817 0
M  V30 1859 C 189.135 -0.50916 1.5126 0
M  V30 1860 C 189.335 -1.83897 0.823658 0
M  V30 1861 O 188.391 -2.49469 0.390055 0
M  V30 1862 C 189.704 -0.52857 2.96018 0
M  V30 1863 C 191.252 -0.614771 3.06903 0
M  V30 1864 C 191.727 -0.664938 4.53147 0
M  V30 1865 N 193.218 -0.727433 4.57452 0
M  V30 1866 C 193.953 -0.787067 5.67973 0
M  V30 1867 N 193.449 -0.806649 6.88088 0
M  V30 1868 N 195.242 -0.827195 5.5598 0
M  V30 1869 H 187.393 0.714935 2.00006 0
M  V30 1870 H 189.656 0.259526 0.911784 0
M  V30 1871 H 189.362 0.380154 3.49639 0
M  V30 1872 H 189.236 -1.36998 3.51442 0
M  V30 1873 H 191.623 -1.51392 2.53307 0
M  V30 1874 H 191.704 0.253597 2.5454 0
M  V30 1875 H 191.348 0.230011 5.07379 0
M  V30 1876 H 191.278 -1.54966 5.03282 0
M  V30 1877 H 193.769 -0.719998 3.70978 0
M  V30 1878 H 194.082 -0.853727 7.6807 0
M  V30 1879 H 192.427 -0.774687 6.90669 0
M  V30 1880 H 195.618 -0.808998 4.61056 0
M  V30 1881 H 195.791 -0.870206 6.4213 0
M  V30 1882 N 189.197 -1.51736 -0.425897 0
M  V30 1883 C 190.127 -1.76827 -1.52494 0
M  V30 1884 C 191.108 -0.618524 -1.58456 0
M  V30 1885 O 192.293 -0.862416 -1.74 0
M  V30 1886 C 189.423 -1.90374 -2.90474 0
M  V30 1887 C 188.377 -3.0588 -2.99369 0
M  V30 1888 C 187.703 -3.04625 -4.3944 0
M  V30 1889 C 189.003 -4.45644 -2.72394 0
M  V30 1890 H 190.697 -2.68855 -1.31748 0
M  V30 1891 H 188.243 -1.29372 -0.632362 0
M  V30 1892 H 190.196 -2.0651 -3.6733 0
M  V30 1893 H 188.92 -0.95004 -3.12477 0
M  V30 1894 H 187.579 -2.89467 -2.24954 0
M  V30 1895 H 187.227 -2.0701 -4.58428 0
M  V30 1896 H 186.927 -3.82195 -4.46319 0
M  V30 1897 H 188.451 -3.22869 -5.18255 0
M  V30 1898 H 189.865 -4.62348 -3.38979 0
M  V30 1899 H 188.262 -5.25006 -2.9067 0
M  V30 1900 H 189.332 -4.54893 -1.67929 0
M  V30 1901 N 190.675 0.682077 -1.42076 0
M  V30 1902 C 191.952 1.43755 -1.32642 0
M  V30 1903 C 192.332 2.11063 0.0396611 0
M  V30 1904 O 191.68 2.02701 1.05474 0
M  V30 1905 C 191.89 2.44596 -2.48946 0
M  V30 1906 C 193.238 3.09454 -2.9073 0
M  V30 1907 O 194.262 2.54922 -2.48783 0
M  V30 1908 O 193.121 4.08253 -3.63307 0
M  V30 1909 H 190.215 0.640857 -0.522715 0
M  V30 1910 H 192.761 0.711415 -1.54068 0
M  V30 1911 H 191.533 1.93609 -3.40046 0
M  V30 1912 H 191.156 3.24701 -2.29467 0
M  V30 1913 N 192.153 1.28127 0.917671 0
M  V30 1914 C 193.401 1.14825 1.66312 0
M  V30 1915 C 193.722 -0.304379 1.9261 0
M  V30 1916 O 192.992 -1.21149 1.53947 0
M  V30 1917 H 191.572 0.421953 0.616413 0
M  V30 1918 H 194.234 1.608 1.10134 0
M  V30 1919 H 193.33 1.68489 2.62712 0
M  V30 1920 N 193.631 -1.12557 1.10312 0
M  V30 1921 C 194.908 -1.80363 0.756878 0
M  V30 1922 C 195.288 -1.97067 -0.756824 0
M  V30 1923 O 194.636 -1.54601 -1.68259 0
M  V30 1924 C 194.846 -3.14812 1.50647 0
M  V30 1925 C 196.194 -3.90029 1.67817 0
M  V30 1926 O 197.218 -3.24464 1.46974 0
M  V30 1927 O 196.077 -5.07652 2.02365 0
M  V30 1928 H 193.171 -0.780667 0.272926 0
M  V30 1929 H 195.717 -1.19404 1.20586 0
M  V30 1930 H 194.489 -2.97936 2.53672 0
M  V30 1931 H 194.112 -3.83478 1.05026 0
M  V30 1932 N 195.109 -0.891671 -1.2995 0
M  V30 1933 C 196.337 -0.52866 -2.00032 0
M  V30 1934 C 196.752 0.884574 -1.66795 0
M  V30 1935 O 196.109 1.5827 -0.908669 0
M  V30 1936 C 196.16 -0.701814 -3.54622 0
M  V30 1937 O 195.881 -2.05942 -3.86678 0
M  V30 1938 C 197.382 -0.342683 -4.41973 0
M  V30 1939 H 194.602 -0.203659 -0.639347 0
M  V30 1940 H 197.146 -1.19881 -1.65677 0
M  V30 1941 H 195.301 -0.0789468 -3.8732 0
M  V30 1942 H 195.715 -2.08291 -4.81368 0
M  V30 1943 H 197.189 -0.514709 -5.49595 0
M  V30 1944 H 197.666 0.71975 -4.33262 0
M  V30 1945 H 198.272 -0.942154 -4.14733 0
M  V30 1946 N 196.587 1.43421 -0.653314 0
M  V30 1947 C 197.55 2.29182 0.0287951 0
M  V30 1948 C 198.55 1.42213 0.750465 0
M  V30 1949 O 199.74 1.63843 0.591701 0
M  V30 1950 C 196.872 3.24278 1.05151 0
M  V30 1951 H 198.065 2.90985 -0.725786 0
M  V30 1952 H 195.618 1.50702 -0.414545 0
M  V30 1953 H 196.353 2.6737 1.83532 0
M  V30 1954 H 196.138 3.88396 0.537687 0
M  V30 1955 H 197.628 3.88647 1.52786 0
M  V30 1956 N 198.065 0.39524 1.52563 0
M  V30 1957 C 199.311 -0.185318 2.01952 0
M  V30 1958 C 199.644 -1.45964 1.28095 0
M  V30 1959 O 198.919 -1.90689 0.38315 0
M  V30 1960 C 199.202 -0.447193 3.57312 0
M  V30 1961 C 199.055 0.842828 4.41833 0
M  V30 1962 C 200.374 -1.23529 4.22408 0
M  V30 1963 H 197.493 -0.0658788 0.73405 0
M  V30 1964 H 200.135 0.525975 1.82575 0
M  V30 1965 H 198.285 -1.05312 3.73954 0
M  V30 1966 H 199.957 1.4795 4.36931 0
M  V30 1967 H 198.2 1.45686 4.08605 0
M  V30 1968 H 198.871 0.614165 5.48573 0
M  V30 1969 H 201.347 -0.722445 4.0978 0
M  V30 1970 H 200.223 -1.38727 5.3108 0
M  V30 1971 H 200.484 -2.25213 3.80436 0
M  V30 1972 N 199.544 -1.57102 0.125237 0
M  V30 1973 C 200.79 -1.95697 -0.532035 0
M  V30 1974 C 201.123 -1.009 -1.6593 0
M  V30 1975 O 200.398 -0.047347 -1.94442 0
M  V30 1976 C 200.681 -3.44181 -1.05884 0
M  V30 1977 C 200.534 -4.49752 0.0654392 0
M  V30 1978 C 201.853 -3.94655 -1.9477 0
M  V30 1979 H 198.972 -0.711571 -0.191925 0
M  V30 1980 H 201.614 -1.88923 0.20206 0
M  V30 1981 H 199.764 -3.50085 -1.68442 0
M  V30 1982 H 201.436 -4.55943 0.700982 0
M  V30 1983 H 199.679 -4.27653 0.727709 0
M  V30 1984 H 200.35 -5.50924 -0.344505 0
M  V30 1985 H 202.826 -3.91094 -1.42074 0
M  V30 1986 H 201.702 -4.99057 -2.28546 0
M  V30 1987 H 201.963 -3.35718 -2.87656 0
M  V30 1988 N 201.022 0.148545 -1.56898 0
M  V30 1989 C 202.299 0.890019 -1.74178 0
M  V30 1990 C 202.679 1.99407 -0.692839 0
M  V30 1991 O 202.027 2.26671 0.288505 0
M  V30 1992 C 202.237 1.43389 -3.18183 0
M  V30 1993 C 203.585 1.89791 -3.79822 0
M  V30 1994 O 204.609 1.53134 -3.21603 0
M  V30 1995 O 203.468 2.57387 -4.82093 0
M  V30 1996 H 200.562 0.420496 -0.712118 0
M  V30 1997 H 203.108 0.134591 -1.69165 0
M  V30 1998 H 201.88 0.640383 -3.86024 0
M  V30 1999 H 201.503 2.25287 -3.27615 0
M  V30 2000 N 202.5 1.5196 0.417844 0
M  V30 2001 C 203.748 1.65263 1.16329 0
M  V30 2002 C 204.069 0.380634 1.91249 0
M  V30 2003 O 203.339 -0.604214 1.86349 0
M  V30 2004 H 201.919 0.60912 0.432414 0
M  V30 2005 H 204.581 1.88969 0.477162 0
M  V30 2006 H 203.677 2.4896 1.88217 0
M  V30 2007 N 203.978 -0.674533 1.42435 0
M  V30 2008 C 204.928 -1.7807 1.4239 0
M  V30 2009 C 205.912 -1.58169 0.295202 0
M  V30 2010 O 207.104 -1.68643 0.537449 0
M  V30 2011 C 204.233 -3.16532 1.32901 0
M  V30 2012 C 203.319 -3.42055 2.50717 0
M  V30 2013 N 203.71 -3.38162 3.76139 0
M  V30 2014 C 202.008 -3.72692 2.44983 0
M  V30 2015 C 202.709 -3.63177 4.54398 0
M  V30 2016 N 201.685 -3.83954 3.84812 0
M  V30 2017 H 205.487 -1.73454 2.37257 0
M  V30 2018 H 203.001 -0.875381 1.36788 0
M  V30 2019 H 204.998 -3.958 1.30951 0
M  V30 2020 H 203.658 -3.22345 0.390363 0
M  V30 2021 H 204.669 -3.18057 4.0873 0
M  V30 2022 H 201.346 -3.85749 1.59699 0
M  V30 2023 H 202.736 -3.66125 5.63384 0
M  V30 2024 N 205.456 -1.28612 -0.910864 0
M  V30 2025 C 206.403 -1.12786 -2.01365 0
M  V30 2026 C 207.373 -0.024201 -1.66082 0
M  V30 2027 O 208.558 -0.189667 -1.89855 0
M  V30 2028 C 205.698 -0.798743 -3.35729 0
M  V30 2029 C 204.811 -1.98173 -3.83864 0
M  V30 2030 C 203.946 -1.59298 -5.06752 0
M  V30 2031 C 202.985 -2.74245 -5.47226 0
M  V30 2032 N 202.122 -2.35842 -6.61304 0
M  V30 2033 H 206.962 -2.07142 -2.14234 0
M  V30 2034 H 204.499 -1.03093 -1.0493 0
M  V30 2035 H 206.457 -0.588662 -4.13026 0
M  V30 2036 H 205.087 0.10789 -3.2262 0
M  V30 2037 H 204.139 -2.30386 -3.02699 0
M  V30 2038 H 205.451 -2.84343 -4.09818 0
M  V30 2039 H 204.605 -1.34513 -5.916 0
M  V30 2040 H 203.344 -0.702618 -4.82612 0
M  V30 2041 H 202.349 -2.99725 -4.60918 0
M  V30 2042 H 203.574 -3.63928 -5.73353 0
M  V30 2043 H 201.52 -1.49279 -6.38789 0
M  V30 2044 H 201.437 -3.15546 -6.86998 0
M  V30 2045 H 202.705 -2.14348 -7.4945 0
M  V30 2046 N 206.934 1.1197 -1.10907 0
M  V30 2047 C 208.18 1.8386 -0.855773 0
M  V30 2048 C 208.513 1.84134 0.617103 0
M  V30 2049 O 207.788 1.29041 1.45529 0
M  V30 2050 C 208.071 3.31305 -1.411 0
M  V30 2051 C 207.924 3.39456 -2.9511 0
M  V30 2052 C 209.243 4.2721 -1.05736 0
M  V30 2053 H 206.362 0.667545 -0.312334 0
M  V30 2054 H 209.004 1.31331 -1.37303 0
M  V30 2055 H 207.154 3.76169 -0.97105 0
M  V30 2056 H 208.826 3.03191 -3.47668 0
M  V30 2057 H 207.069 2.79849 -3.31462 0
M  V30 2058 H 207.74 4.43209 -3.29044 0
M  V30 2059 H 210.216 3.90497 -1.43706 0
M  V30 2060 H 209.092 5.28775 -1.47269 0
M  V30 2061 H 209.353 4.42088 0.0325958 0
M  V30 2062 N 208.412 0.89855 1.29475 0
M  V30 2063 C 209.658 0.534065 1.96263 0
M  V30 2064 C 210.013 -0.909415 1.69551 0
M  V30 2065 O 209.306 -1.63596 0.997349 0
M  V30 2066 C 209.5 0.761398 3.49195 0
M  V30 2067 C 209.329 2.22542 3.90775 0
M  V30 2068 C 208.099 2.87264 4.15701 0
M  V30 2069 C 210.297 3.20051 4.02581 0
M  V30 2070 N 208.279 4.24121 4.4384 0
M  V30 2071 C 209.65 4.42023 4.34759 0
M  V30 2072 C 211.705 3.15657 3.85052 0
M  V30 2073 C 210.408 5.60161 4.51235 0
M  V30 2074 C 212.434 4.33078 4.02737 0
M  V30 2075 C 211.796 5.5382 4.35273 0
M  V30 2076 H 207.895 0.245013 0.742625 0
M  V30 2077 H 210.479 1.15912 1.56437 0
M  V30 2078 H 208.65 0.165732 3.88046 0
M  V30 2079 H 210.382 0.362462 4.03074 0
M  V30 2080 H 207.137 2.38064 4.09417 0
M  V30 2081 H 207.561 4.94839 4.6202 0
M  V30 2082 H 212.203 2.23396 3.58962 0
M  V30 2083 H 209.921 6.52913 4.76162 0
M  V30 2084 H 213.507 4.31163 3.90628 0
M  V30 2085 H 212.387 6.43166 4.48672 0
M  V30 2086 N 209.89 -1.43072 0.660911 0
M  V30 2087 C 211.118 -2.06067 0.185422 0
M  V30 2088 C 211.533 -1.49582 -1.15198 0
M  V30 2089 O 210.89 -0.630134 -1.71276 0
M  V30 2090 C 210.941 -3.61371 0.0966523 0
M  V30 2091 O 210.662 -4.15758 1.38119 0
M  V30 2092 C 212.163 -4.41455 -0.403996 0
M  V30 2093 H 209.383 -0.664459 0.0934604 0
M  V30 2094 H 211.927 -1.83447 0.90373 0
M  V30 2095 H 210.082 -3.8315 -0.572259 0
M  V30 2096 H 210.496 -5.09499 1.24542 0
M  V30 2097 H 211.97 -5.50437 -0.415045 0
M  V30 2098 H 212.447 -4.15036 -1.43674 0
M  V30 2099 H 213.053 -4.24663 0.232691 0
M  V30 2100 N 211.368 -0.403325 -1.52352 0
M  V30 2101 C 212.596 0.174012 -2.06167 0
M  V30 2102 C 213.011 1.39347 -1.27388 0
M  V30 2103 O 212.368 1.79597 -0.324201 0
M  V30 2104 C 212.419 0.530223 -3.5759 0
M  V30 2105 O 212.14 -0.640806 -4.33388 0
M  V30 2106 C 213.641 1.16192 -4.27802 0
M  V30 2107 H 210.861 0.0229464 -0.670608 0
M  V30 2108 H 213.405 -0.572604 -1.9632 0
M  V30 2109 H 211.56 1.22673 -3.67464 0
M  V30 2110 H 211.974 -0.344851 -5.23365 0
M  V30 2111 H 213.448 1.36141 -5.34948 0
M  V30 2112 H 213.925 2.13335 -3.83907 0
M  V30 2113 H 214.531 0.505775 -4.22282 0
M  V30 2114 N 212.846 1.57033 -0.133567 0
M  V30 2115 C 213.809 2.14897 0.796995 0
M  V30 2116 C 214.809 1.0874 1.18458 0
M  V30 2117 O 215.999 1.34446 1.1077 0
M  V30 2118 C 213.131 2.70112 2.07973 0
M  V30 2119 H 214.324 2.98457 0.293873 0
M  V30 2120 H 211.877 1.55871 0.115787 0
M  V30 2121 H 212.612 1.9018 2.62682 0
M  V30 2122 H 212.397 3.47764 1.81115 0
M  V30 2123 H 213.887 3.14738 2.74462 0
M  V30 2124 N 214.325 -0.140222 1.56975 0
M  V30 2125 C 215.288 -1.15689 1.97861 0
M  V30 2126 C 216.288 -1.3549 0.865974 0
M  V30 2127 O 217.478 -1.32367 1.13246 0
M  V30 2128 C 214.61 -2.51582 2.30042 0
M  V30 2129 H 215.803 -0.805971 2.88867 0
M  V30 2130 H 213.356 -0.383801 1.51515 0
M  V30 2131 H 214.091 -2.91632 1.41849 0
M  V30 2132 H 213.876 -2.38569 3.11171 0
M  V30 2133 H 215.366 -3.24792 2.62488 0
M  V30 2134 N 215.803 -1.52179 -0.40978 0
M  V30 2135 C 216.766 -1.74853 -1.48186 0
M  V30 2136 C 217.766 -0.618417 -1.48433 0
M  V30 2137 O 218.956 -0.886286 -1.49969 0
M  V30 2138 C 216.088 -1.8303 -2.87598 0
M  V30 2139 H 217.281 -2.70559 -1.29374 0
M  V30 2140 H 214.834 -1.42586 -0.640233 0
M  V30 2141 H 215.569 -0.89236 -3.11781 0
M  V30 2142 H 215.354 -2.65187 -2.88822 0
M  V30 2143 H 216.844 -2.02316 -3.65319 0
M  V30 2144 N 217.281 0.66697 -1.42791 0
M  V30 2145 C 218.511 1.45294 -1.46878 0
M  V30 2146 C 218.919 1.89027 -0.0809861 0
M  V30 2147 O 218.262 1.59219 0.916246 0
M  V30 2148 C 218.324 2.72908 -2.34012 0
M  V30 2149 C 217.988 2.51203 -3.81767 0
M  V30 2150 C 218.985 2.15302 -4.73224 0
M  V30 2151 C 216.67 2.65954 -4.26115 0
M  V30 2152 C 218.664 1.94431 -6.07022 0
M  V30 2153 C 216.351 2.44699 -5.59969 0
M  V30 2154 C 217.349 2.08992 -6.5024 0
M  V30 2155 O 217.037 1.87948 -7.81621 0
M  V30 2156 H 216.769 0.453306 -0.501487 0
M  V30 2157 H 219.323 0.826232 -1.88049 0
M  V30 2158 H 217.553 3.38089 -1.87703 0
M  V30 2159 H 219.242 3.34816 -2.29462 0
M  V30 2160 H 220.008 2.03495 -4.40244 0
M  V30 2161 H 215.887 2.92724 -3.56137 0
M  V30 2162 H 219.431 1.66484 -6.77443 0
M  V30 2163 H 215.328 2.56105 -5.9252 0
M  V30 2164 H 216.096 2.02483 -7.93059 0
M  V30 2165 N 218.759 1.29093 0.90403 0
M  V30 2166 C 219.722 1.1386 1.98919 0
M  V30 2167 C 220.722 0.0753457 1.60623 0
M  V30 2168 O 221.912 0.321931 1.71199 0
M  V30 2169 C 219.044 0.740198 3.32767 0
M  V30 2170 H 220.237 2.10246 2.13861 0
M  V30 2171 H 217.79 1.12218 1.08797 0
M  V30 2172 H 218.525 -0.223997 3.23525 0
M  V30 2173 H 218.31 1.50838 3.61926 0
M  V30 2174 H 219.8 0.656546 4.12407 0
M  V30 2175 N 220.237 -1.11381 1.11499 0
M  V30 2176 C 221.514 -1.7955 0.775965 0
M  V30 2177 C 221.894 -1.97859 -0.73588 0
M  V30 2178 O 221.242 -1.56376 -1.66609 0
M  V30 2179 C 221.452 -3.13196 1.53977 0
M  V30 2180 C 222.8 -3.88227 1.71944 0
M  V30 2181 O 223.824 -3.22887 1.50407 0
M  V30 2182 O 222.683 -5.05477 2.07738 0
M  V30 2183 H 219.777 -0.777728 0.28119 0
M  V30 2184 H 222.323 -1.18118 1.21845 0
M  V30 2185 H 221.095 -2.95229 2.56818 0
M  V30 2186 H 220.718 -3.82342 1.09088 0
M  V30 2187 N 221.715 -0.905404 -1.28997 0
M  V30 2188 C 222.665 -0.358713 -2.25161 0
M  V30 2189 C 223.649 0.524449 -1.52113 0
M  V30 2190 O 224.841 0.365534 -1.73184 0
M  V30 2191 C 221.97 0.407609 -3.40872 0
M  V30 2192 C 221.056 -0.490797 -4.21251 0
M  V30 2193 N 221.447 -1.60061 -4.79806 0
M  V30 2194 C 219.745 -0.289636 -4.45059 0
M  V30 2195 C 220.446 -2.15757 -5.40207 0
M  V30 2196 N 219.422 -1.44988 -5.23908 0
M  V30 2197 H 223.224 -1.20642 -2.67998 0
M  V30 2198 H 220.738 -0.757103 -1.43672 0
M  V30 2199 H 222.735 0.816046 -4.08835 0
M  V30 2200 H 221.395 1.25251 -2.9957 0
M  V30 2201 H 222.406 -1.98329 -4.7842 0
M  V30 2202 H 219.083 0.51643 -4.14294 0
M  V30 2203 H 220.473 -3.09069 -5.96595 0
M  V30 2204 N 223.193 1.4272 -0.668489 0
M  V30 2205 C 224.123 2.335 -0.000100175 0
M  V30 2206 C 225.104 1.50328 0.795964 0
M  V30 2207 O 226.289 1.78949 0.754385 0
M  V30 2208 C 223.419 3.33874 0.956302 0
M  V30 2209 C 222.373 4.27152 0.269278 0
M  V30 2210 C 221.699 5.17684 1.33818 0
M  V30 2211 C 222.999 5.15373 -0.847805 0
M  V30 2212 H 224.693 2.89639 -0.758244 0
M  V30 2213 H 222.239 1.39269 -0.366079 0
M  V30 2214 H 224.192 3.9629 1.43292 0
M  V30 2215 H 222.916 2.76025 1.74579 0
M  V30 2216 H 221.575 3.66123 -0.187042 0
M  V30 2217 H 221.223 4.56165 2.1195 0
M  V30 2218 H 220.923 5.80918 0.883659 0
M  V30 2219 H 222.447 5.82974 1.81586 0
M  V30 2220 H 223.861 5.7151 -0.452681 0
M  V30 2221 H 222.258 5.87407 -1.22773 0
M  V30 2222 H 223.328 4.5415 -1.69929 0
M  V30 2223 N 224.671 0.411399 1.52136 0
M  V30 2224 C 225.917 -0.163888 2.02137 0
M  V30 2225 C 226.25 -1.44597 1.29636 0
M  V30 2226 O 225.525 -1.90272 0.403353 0
M  V30 2227 C 225.808 -0.40927 3.57767 0
M  V30 2228 C 225.661 0.889643 4.40914 0
M  V30 2229 C 226.98 -1.19042 4.23694 0
M  V30 2230 H 224.099 -0.0580896 0.734707 0
M  V30 2231 H 226.741 0.54531 1.82007 0
M  V30 2232 H 224.891 -1.0134 3.7505 0
M  V30 2233 H 226.563 1.52575 4.35337 0
M  V30 2234 H 224.806 1.50011 4.07037 0
M  V30 2235 H 225.477 0.672314 5.4789 0
M  V30 2236 H 227.953 -0.678942 4.10524 0
M  V30 2237 H 226.829 -1.33086 5.32522 0
M  V30 2238 H 227.09 -2.21166 3.82803 0
M  V30 2239 N 226.149 -1.5696 0.141893 0
M  V30 2240 C 227.395 -1.9625 -0.511248 0
M  V30 2241 C 227.728 -1.02654 -1.64851 0
M  V30 2242 O 227.003 -0.0679676 -1.94381 0
M  V30 2243 C 227.286 -3.45285 -1.02227 0
M  V30 2244 C 227.139 -4.49658 0.113138 0
M  V30 2245 C 228.458 -3.96698 -1.90574 0
M  V30 2246 H 225.577 -0.713567 -0.184367 0
M  V30 2247 H 228.219 -1.88698 0.222087 0
M  V30 2248 H 226.369 -3.51852 -1.64719 0
M  V30 2249 H 228.041 -4.55174 0.749302 0
M  V30 2250 H 226.284 -4.26857 0.773026 0
M  V30 2251 H 226.955 -5.51258 -0.286053 0
M  V30 2252 H 229.431 -3.92578 -1.37918 0
M  V30 2253 H 228.307 -5.01453 -2.2324 0
M  V30 2254 H 228.568 -3.3875 -2.84079 0
M  V30 2255 N 227.627 0.131896 -1.57047 0
M  V30 2256 C 228.874 0.841932 -1.84168 0
M  V30 2257 C 229.202 1.8048 -0.725066 0
M  V30 2258 O 228.457 1.93618 0.284692 0
M  V30 2259 C 228.756 1.63703 -3.17704 0
M  V30 2260 C 228.422 0.81961 -4.43388 0
M  V30 2261 C 227.084 0.594148 -4.77518 0
M  V30 2262 C 229.436 0.248977 -5.20605 0
M  V30 2263 C 226.764 -0.212409 -5.86315 0
M  V30 2264 C 229.116 -0.544701 -6.30251 0
M  V30 2265 C 227.78 -0.780599 -6.6292 0
M  V30 2266 H 227.05 0.308085 -0.673917 0
M  V30 2267 H 229.697 0.104867 -1.91213 0
M  V30 2268 H 228.002 2.44464 -3.06177 0
M  V30 2269 H 229.699 2.19015 -3.35907 0
M  V30 2270 H 226.289 1.00542 -4.16641 0
M  V30 2271 H 230.473 0.410408 -4.946 0
M  V30 2272 H 225.729 -0.404524 -6.1006 0
M  V30 2273 H 229.903 -0.993922 -6.89271 0
M  V30 2274 H 227.53 -1.40742 -7.47058 0
M  V30 2275 N 229.106 1.52395 0.401703 0
M  V30 2276 C 230.354 1.66488 1.14569 0
M  V30 2277 C 230.675 0.400897 1.90835 0
M  V30 2278 O 229.945 -0.584415 1.8698 0
M  V30 2279 H 228.525 0.613672 0.425929 0
M  V30 2280 H 231.187 1.89464 0.457093 0
M  V30 2281 H 230.283 2.50942 1.85566 0
M  V30 2282 N 230.584 -0.659388 1.43143 0
M  V30 2283 C 231.514 -1.78422 1.50625 0
M  V30 2284 C 232.495 -1.66216 0.361443 0
M  V30 2285 O 233.68 -1.85404 0.577834 0
M  V30 2286 C 230.81 -3.16815 1.42287 0
M  V30 2287 C 229.764 -3.43777 2.54954 0
M  V30 2288 C 229.09 -4.81905 2.31671 0
M  V30 2289 C 230.39 -3.39134 3.97222 0
M  V30 2290 H 232.084 -1.72417 2.44771 0
M  V30 2291 H 229.63 -0.828084 1.17808 0
M  V30 2292 H 231.583 -3.95253 1.46127 0
M  V30 2293 H 230.307 -3.23534 0.446435 0
M  V30 2294 H 228.966 -2.67707 2.50457 0
M  V30 2295 H 228.614 -4.85294 1.32284 0
M  V30 2296 H 228.314 -5.00906 3.07192 0
M  V30 2297 H 229.838 -5.62609 2.37284 0
M  V30 2298 H 231.252 -4.07518 4.03239 0
M  V30 2299 H 229.649 -3.69671 4.72719 0
M  V30 2300 H 230.719 -2.37426 4.22797 0
M  V30 2301 N 232.062 -1.29571 -0.897171 0
M  V30 2302 C 232.994 -1.10724 -2.00681 0
M  V30 2303 C 234.007 -0.0540026 -1.6271 0
M  V30 2304 O 235.196 -0.298783 -1.75982 0
M  V30 2305 C 232.296 -0.663912 -3.32333 0
M  V30 2306 C 231.469 -1.79622 -3.98816 0
M  V30 2307 C 230.528 -1.34349 -5.0876 0
M  V30 2308 O 229.554 -2.04864 -5.31055 0
M  V30 2309 N 230.756 -0.215764 -5.80099 0
M  V30 2310 H 233.521 -2.06291 -2.17403 0
M  V30 2311 H 231.082 -1.21544 -1.06951 0
M  V30 2312 H 233.074 -0.344295 -4.03233 0
M  V30 2313 H 231.644 0.199375 -3.11964 0
M  V30 2314 H 230.864 -2.28459 -3.21248 0
M  V30 2315 H 232.152 -2.55535 -4.39976 0
M  V30 2316 H 231.55 0.372091 -5.64475 0
M  V30 2317 H 230.107 0.0444707 -6.51785 0
M  V30 2318 N 233.54 1.10788 -1.12088 0
M  V30 2319 C 234.45 2.20599 -0.798338 0
M  V30 2320 C 235.466 1.72712 0.21135 0
M  V30 2321 O 236.642 2.01348 0.0458477 0
M  V30 2322 C 233.707 3.45771 -0.253674 0
M  V30 2323 C 232.768 4.08411 -1.32283 0
M  V30 2324 C 232.001 5.27608 -0.80406 0
M  V30 2325 O 232.224 5.69241 0.363478 0
M  V30 2326 O 231.158 5.8101 -1.57198 0
M  V30 2327 H 234.984 2.50614 -1.7154 0
M  V30 2328 H 232.569 1.19454 -0.897275 0
M  V30 2329 H 234.451 4.21376 0.0453691 0
M  V30 2330 H 233.126 3.1739 0.636005 0
M  V30 2331 H 232.033 3.34507 -1.67499 0
M  V30 2332 H 233.366 4.40986 -2.18614 0
M  V30 2333 N 235.018 0.912232 1.28515 0
M  V30 2334 C 236.295 0.463597 1.90027 0
M  V30 2335 C 236.675 -1.05753 1.82701 0
M  V30 2336 O 236.023 -1.90492 1.26194 0
M  V30 2337 C 236.233 0.992253 3.34597 0
M  V30 2338 C 237.581 1.04344 4.11579 0
M  V30 2339 O 238.605 0.94079 3.43551 0
M  V30 2340 O 237.464 1.1995 5.33174 0
M  V30 2341 H 234.558 0.146666 0.813891 0
M  V30 2342 H 237.104 1.00292 1.36893 0
M  V30 2343 H 235.876 2.03623 3.34146 0
M  V30 2344 H 235.499 0.433672 3.95228 0
M  V30 2345 N 236.496 -1.42363 0.676048 0
M  V30 2346 C 237.744 -2.01123 0.198437 0
M  V30 2347 C 238.065 -1.53731 -1.19966 0
M  V30 2348 O 237.335 -0.759518 -1.80577 0
M  V30 2349 H 235.915 -0.743678 0.0703721 0
M  V30 2350 H 238.577 -1.74263 0.872837 0
M  V30 2351 H 237.673 -3.11454 0.200686 0
M  V30 2352 N 237.974 -0.419461 -1.51915 0
M  V30 2353 C 239.199 0.154572 -2.06823 0
M  V30 2354 C 239.624 1.3722 -1.28656 0
M  V30 2355 O 238.982 1.78461 -0.319583 0
M  V30 2356 C 239.03 0.473172 -3.57482 0
M  V30 2357 O 238.134 1.56255 -3.81652 0
M  V30 2358 H 237.475 0.0096924 -0.663929 0
M  V30 2359 H 240.005 -0.595642 -1.95738 0
M  V30 2360 H 240.015 0.728825 -4.01438 0
M  V30 2361 H 238.69 -0.416873 -4.13805 0
M  V30 2362 H 237.267 1.29825 -3.49571 0
M  V30 2363 N 239.452 1.56882 -0.150215 0
M  V30 2364 C 240.7 1.9584 0.499105 0
M  V30 2365 C 241.021 1.03623 1.65188 0
M  V30 2366 O 240.291 0.0984084 1.95653 0
M  V30 2367 H 238.871 0.723119 0.187373 0
M  V30 2368 H 241.533 1.9358 -0.226466 0
M  V30 2369 H 240.629 2.99638 0.873122 0
M  V30 2370 N 240.93 -0.123565 1.57115 0
M  V30 2371 C 241.893 -1.13583 1.99076 0
M  V30 2372 C 242.893 -1.34564 0.880296 0
M  V30 2373 O 244.083 -1.31158 1.14644 0
M  V30 2374 C 241.215 -2.49128 2.32698 0
M  V30 2375 H 242.408 -0.775287 2.89706 0
M  V30 2376 H 239.961 -0.36771 1.51913 0
M  V30 2377 H 240.696 -2.90111 1.44934 0
M  V30 2378 H 240.481 -2.35255 3.13684 0
M  V30 2379 H 241.971 -3.2199 2.65918 0
M  V30 2380 N 242.408 -1.52605 -0.393616 0
M  V30 2381 C 243.654 -1.67672 -1.14079 0
M  V30 2382 C 243.987 -0.413121 -1.89755 0
M  V30 2383 O 243.262 0.588952 -1.85369 0
M  V30 2384 C 243.545 -2.9088 -2.12276 0
M  V30 2385 C 243.398 -4.27329 -1.40394 0
M  V30 2386 C 244.717 -3.09628 -3.12759 0
M  V30 2387 H 241.836 -0.610168 -0.413356 0
M  V30 2388 H 244.478 -1.85193 -0.424696 0
M  V30 2389 H 242.628 -2.76073 -2.73342 0
M  V30 2390 H 244.3 -4.53894 -0.82327 0
M  V30 2391 H 242.543 -4.2802 -0.705801 0
M  V30 2392 H 243.214 -5.09615 -2.12123 0
M  V30 2393 H 245.69 -3.23436 -2.61779 0
M  V30 2394 H 244.566 -3.97322 -3.78717 0
M  V30 2395 H 244.827 -2.23637 -3.81365 0
M  V30 2396 N 243.887 0.651787 -1.4349 0
M  V30 2397 C 245.133 1.41376 -1.45398 0
M  V30 2398 C 245.466 1.94041 -0.0784823 0
M  V30 2399 O 244.741 1.72379 0.900878 0
M  V30 2400 C 245.024 2.59414 -2.49752 0
M  V30 2401 C 244.877 2.12232 -3.96582 0
M  V30 2402 C 246.196 3.61626 -2.50827 0
M  V30 2403 H 243.315 0.512719 -0.529422 0
M  V30 2404 H 245.957 0.738796 -1.75048 0
M  V30 2405 H 244.107 3.16997 -2.246 0
M  V30 2406 H 245.779 1.59639 -4.32797 0
M  V30 2407 H 244.022 1.43592 -4.09346 0
M  V30 2408 H 244.693 2.9712 -4.65214 0
M  V30 2409 H 247.169 3.13805 -2.7325 0
M  V30 2410 H 246.045 4.41766 -3.25783 0
M  V30 2411 H 246.306 4.14314 -1.5426 0
M  V30 2412 N 245.365 1.30045 0.890287 0
M  V30 2413 C 246.611 1.18737 1.64406 0
M  V30 2414 C 246.944 -0.258525 1.92472 0
M  V30 2415 O 246.219 -1.18562 1.54186 0
M  V30 2416 C 246.502 2.01087 2.98724 0
M  V30 2417 C 246.355 3.53867 2.77665 0
M  V30 2418 C 247.674 1.84457 3.9958 0
M  V30 2419 H 244.793 0.432698 0.596608 0
M  V30 2420 H 247.435 1.5962 1.0306 0
M  V30 2421 H 245.585 1.66349 3.51084 0
M  V30 2422 H 247.257 3.98637 2.32133 0
M  V30 2423 H 245.5 3.78318 2.12269 0
M  V30 2424 H 246.171 4.06772 3.7315 0
M  V30 2425 H 248.647 2.14817 3.56361 0
M  V30 2426 H 247.523 2.44411 4.91482 0
M  V30 2427 H 247.784 0.802276 4.3476 0
M  V30 2428 N 246.843 -1.10192 1.12674 0
M  V30 2429 C 248.089 -1.82475 0.884915 0
M  V30 2430 C 248.422 -1.85093 -0.58773 0
M  V30 2431 O 247.697 -1.3134 -1.43457 0
M  V30 2432 C 247.98 -3.29018 1.46353 0
M  V30 2433 C 247.833 -3.34718 3.00473 0
M  V30 2434 C 249.152 -4.25473 1.12519 0
M  V30 2435 H 246.271 -0.662492 0.322915 0
M  V30 2436 H 248.913 -1.2913 1.39375 0
M  V30 2437 H 247.063 -3.74576 1.03077 0
M  V30 2438 H 248.735 -2.97622 3.52447 0
M  V30 2439 H 246.978 -2.74541 3.35872 0
M  V30 2440 H 247.649 -4.37918 3.36053 0
M  V30 2441 H 250.125 -3.88161 1.499 0
M  V30 2442 H 249.001 -5.26365 1.55663 0
M  V30 2443 H 249.262 -4.42084 0.0377407 0
M  V30 2444 N 248.321 -0.919034 -1.28029 0
M  V30 2445 C 249.732 -0.600735 -1.76771 0
M  V30 2446 C 250.083 0.884024 -1.75156 0
M  V30 2447 O 249.208 1.69163 -1.34956 0
M  V30 2448 C 249.803 -1.08372 -3.21 0
M  V30 2449 C 248.362 -0.816248 -3.67443 0
M  V30 2450 C 247.509 -1.24742 -2.47658 0
M  V30 2451 H 250.46 -1.09974 -1.14418 0
M  V30 2452 H 250.481 -0.427512 -3.78091 0
M  V30 2453 H 249.993 -2.16437 -3.22144 0
M  V30 2454 H 248.094 0.250968 -3.71754 0
M  V30 2455 H 248.207 -1.4277 -4.57333 0
M  V30 2456 H 246.571 -0.666083 -2.45836 0
M  V30 2457 H 247.354 -2.33653 -2.51518 0
M  V30 2458 N 249.799 1.42003 -0.683588 0
M  V30 2459 C 250.762 2.29191 -0.0198243 0
M  V30 2460 C 251.762 1.43773 0.72013 0
M  V30 2461 O 252.952 1.65061 0.556815 0
M  V30 2462 C 250.084 3.26435 0.982487 0
M  V30 2463 H 251.277 2.8938 -0.787345 0
M  V30 2464 H 248.83 1.49789 -0.446418 0
M  V30 2465 H 249.565 2.71203 1.77819 0
M  V30 2466 H 249.35 3.89449 0.455182 0
M  V30 2467 H 250.84 3.918 1.44508 0
M  V30 2468 N 251.277 0.427512 1.51691 0
M  V30 2469 C 252.554 -0.201684 1.94557 0
M  V30 2470 C 252.934 -1.60981 1.36559 0
M  V30 2471 O 252.282 -2.21814 0.548702 0
M  V30 2472 C 252.492 -0.189394 3.48486 0
M  V30 2473 C 253.84 -0.39978 4.22714 0
M  V30 2474 O 254.864 -0.267945 3.55191 0
M  V30 2475 O 253.723 -0.661249 5.42485 0
M  V30 2476 H 250.817 -0.135261 0.815864 0
M  V30 2477 H 253.363 0.484782 1.62628 0
M  V30 2478 H 252.135 0.795431 3.8313 0
M  V30 2479 H 251.758 -0.919187 3.86829 0
M  V30 2480 N 252.755 -1.56801 0.158532 0
M  V30 2481 C 253.983 -2.00859 -0.496303 0
M  V30 2482 C 254.398 -1.03871 -1.57659 0
M  V30 2483 O 253.755 -0.0375165 -1.82461 0
M  V30 2484 C 253.806 -3.4479 -1.08638 0
M  V30 2485 O 253.527 -4.38072 -0.0492322 0
M  V30 2486 C 255.028 -4.04185 -1.8207 0
M  V30 2487 H 252.248 -0.65864 -0.128199 0
M  V30 2488 H 254.792 -2.02885 0.256506 0
M  V30 2489 H 252.947 -3.43579 -1.78975 0
M  V30 2490 H 253.361 -5.2227 -0.483102 0
M  V30 2491 H 254.835 -5.06857 -2.18633 0
M  V30 2492 H 255.312 -3.45549 -2.71095 0
M  V30 2493 H 255.918 -4.0906 -1.16405 0
M  V30 2494 N 254.233 0.115231 -1.57178 0
M  V30 2495 C 255.644 0.67197 -1.74188 0
M  V30 2496 C 255.995 1.80125 -0.777777 0
M  V30 2497 O 255.12 2.16346 0.0484376 0
M  V30 2498 C 255.715 1.22573 -3.1585 0
M  V30 2499 C 254.274 1.72872 -3.34353 0
M  V30 2500 C 253.421 0.629972 -2.70049 0
M  V30 2501 H 256.372 -0.110712 -1.58313 0
M  V30 2502 H 256.393 2.09535 -3.17609 0
M  V30 2503 H 255.905 0.403598 -3.85996 0
M  V30 2504 H 254.006 2.5755 -2.69256 0
M  V30 2505 H 254.119 1.83557 -4.42542 0
M  V30 2506 H 252.483 1.0645 -2.31388 0
M  V30 2507 H 253.266 -0.181241 -3.42821 0
M  V30 2508 N 255.711 1.52812 0.385517 0
M  V30 2509 C 256.959 1.67694 1.12797 0
M  V30 2510 C 257.28 0.421115 1.90399 0
M  V30 2511 O 256.55 -0.564551 1.87589 0
M  V30 2512 H 255.13 0.618155 0.419396 0
M  V30 2513 H 257.792 1.89938 0.436972 0
M  V30 2514 H 256.888 2.52896 1.82894 0
M  V30 2515 N 257.189 -0.644168 1.43834 0
M  V30 2516 C 258.435 -1.40603 1.46146 0
M  V30 2517 C 258.768 -1.93997 0.0887717 0
M  V30 2518 O 258.043 -1.72854 -0.891724 0
M  V30 2519 C 258.326 -2.58086 2.51124 0
M  V30 2520 C 258.179 -2.10126 3.97702 0
M  V30 2521 C 259.498 -3.60291 2.52742 0
M  V30 2522 H 256.617 -0.509905 0.532134 0
M  V30 2523 H 259.259 -0.729502 1.75437 0
M  V30 2524 H 257.409 -3.15801 2.26278 0
M  V30 2525 H 259.081 -1.57342 4.33637 0
M  V30 2526 H 257.324 -1.41419 4.10101 0
M  V30 2527 H 257.995 -2.94649 4.66783 0
M  V30 2528 H 260.471 -3.12352 2.7491 0
M  V30 2529 H 259.347 -4.40032 3.28121 0
M  V30 2530 H 259.608 -4.1349 1.56455 0
M  V30 2531 N 258.668 -1.30515 -0.883378 0
M  V30 2532 C 260.084 -1.08881 -1.16692 0
M  V30 2533 C 260.284 0.149409 -2.00945 0
M  V30 2534 O 259.34 0.84257 -2.38027 0
M  V30 2535 C 260.653 -2.35319 -1.87204 0
M  V30 2536 C 262.201 -2.40799 -1.99962 0
M  V30 2537 C 262.676 -3.67083 -2.73887 0
M  V30 2538 N 264.167 -3.679 -2.81432 0
M  V30 2539 C 264.902 -4.62303 -3.3921 0
M  V30 2540 N 264.398 -5.67052 -3.98025 0
M  V30 2541 N 266.191 -4.49845 -3.3704 0
M  V30 2542 H 258.342 -2.09951 -0.321633 0
M  V30 2543 H 260.605 -0.92556 -0.205043 0
M  V30 2544 H 260.311 -3.25689 -1.3274 0
M  V30 2545 H 260.185 -2.44089 -2.87577 0
M  V30 2546 H 262.572 -1.50907 -2.53597 0
M  V30 2547 H 262.653 -2.36003 -0.98673 0
M  V30 2548 H 262.297 -4.57334 -2.20925 0
M  V30 2549 H 262.227 -3.69141 -3.75556 0
M  V30 2550 H 264.718 -2.92171 -2.39676 0
M  V30 2551 H 265.031 -6.35184 -4.40183 0
M  V30 2552 H 263.376 -5.70842 -3.96439 0
M  V30 2553 H 266.567 -3.67194 -2.90321 0
M  V30 2554 H 266.74 -5.23597 -3.81772 0
M  V30 2555 N 260.146 1.09593 -1.13257 0
M  V30 2556 C 261.392 1.82003 -0.89458 0
M  V30 2557 C 261.725 1.85402 0.577906 0
M  V30 2558 O 261 1.32099 1.42759 0
M  V30 2559 C 261.283 3.28237 -1.48096 0
M  V30 2560 C 261.136 3.3312 -3.02244 0
M  V30 2561 C 262.455 4.24871 -1.14774 0
M  V30 2562 H 259.574 0.66077 -0.326424 0
M  V30 2563 H 262.216 1.28389 -1.40058 0
M  V30 2564 H 260.366 3.74024 -1.05062 0
M  V30 2565 H 262.038 2.95748 -3.54021 0
M  V30 2566 H 260.281 2.72756 -3.37323 0
M  V30 2567 H 260.952 4.3613 -3.38371 0
M  V30 2568 H 263.428 3.87361 -1.51957 0
M  V30 2569 H 262.304 5.25532 -1.58452 0
M  V30 2570 H 262.565 4.42058 -0.0611849 0
M  V30 2571 N 261.624 0.925811 1.2754 0
M  V30 2572 C 262.534 0.428993 2.30644 0
M  V30 2573 C 263.55 -0.489387 1.66976 0
M  V30 2574 O 264.726 -0.372653 1.97922 0
M  V30 2575 C 261.791 -0.311967 3.45294 0
M  V30 2576 C 260.852 0.641098 4.24486 0
M  V30 2577 C 260.085 -0.0645955 5.33661 0
M  V30 2578 O 260.308 -1.28429 5.55754 0
M  V30 2579 O 259.242 0.606265 5.98839 0
M  V30 2580 H 263.068 1.28504 2.75173 0
M  V30 2581 H 260.653 0.691086 1.32455 0
M  V30 2582 H 262.535 -0.729972 4.15029 0
M  V30 2583 H 261.21 -1.14365 3.02824 0
M  V30 2584 H 260.117 1.10874 3.57292 0
M  V30 2585 H 261.45 1.43995 4.70666 0
M  V30 2586 N 263.102 -1.41638 0.69111 0
M  V30 2587 C 264.518 -1.55435 0.362224 0
M  V30 2588 C 264.718 -1.66754 -1.13117 0
M  V30 2589 O 263.774 -1.64348 -1.91692 0
M  V30 2590 C 265.087 -2.79588 1.10684 0
M  V30 2591 C 266.635 -2.9338 1.09075 0
M  V30 2592 C 267.11 -4.20414 1.81703 0
M  V30 2593 N 268.601 -4.27362 1.7865 0
M  V30 2594 C 269.336 -5.24507 2.31689 0
M  V30 2595 N 268.832 -6.27708 2.93179 0
M  V30 2596 N 270.625 -5.16416 2.2197 0
M  V30 2597 H 262.776 -1.32536 1.65976 0
M  V30 2598 H 265.039 -0.639115 0.700168 0
M  V30 2599 H 264.745 -2.77419 2.16175 0
M  V30 2600 H 264.619 -3.70973 0.682545 0
M  V30 2601 H 267.006 -2.95067 0.0441238 0
M  V30 2602 H 267.087 -2.0318 1.55407 0
M  V30 2603 H 266.731 -4.19488 2.86343 0
M  V30 2604 H 266.661 -5.09578 1.32808 0
M  V30 2605 H 269.152 -3.53415 1.33815 0
M  V30 2606 H 269.465 -6.98217 3.31229 0
M  V30 2607 H 267.81 -6.28223 2.97255 0
M  V30 2608 H 271.001 -4.34716 1.73607 0
M  V30 2609 H 271.174 -5.91958 2.63609 0
M  V30 2610 N 264.58 -0.43555 -1.51462 0
M  V30 2611 C 265.826 0.131709 -2.02372 0
M  V30 2612 C 266.159 1.42516 -1.3192 0
M  V30 2613 O 265.434 1.89606 -0.433573 0
M  V30 2614 C 265.717 0.352301 -3.58373 0
M  V30 2615 C 265.57 -0.959676 -4.39443 0
M  V30 2616 C 266.889 1.12286 -4.25535 0
M  V30 2617 H 264.008 0.0463936 -0.735538 0
M  V30 2618 H 266.65 -0.574197 -1.81116 0
M  V30 2619 H 264.8 0.9536 -3.76615 0
M  V30 2620 H 266.472 -1.59482 -4.32855 0
M  V30 2621 H 264.715 -1.56468 -4.04599 0
M  V30 2622 H 265.386 -0.759394 -5.46752 0
M  V30 2623 H 267.862 0.613545 -4.11552 0
M  V30 2624 H 266.738 1.24598 -5.34571 0
M  V30 2625 H 266.999 2.15048 -3.86273 0
M  V30 2626 N 266.058 1.56714 -0.166846 0
M  V30 2627 C 267.469 1.83378 0.350646 0
M  V30 2628 C 267.82 1.08646 1.63372 0
M  V30 2629 O 266.945 0.338058 2.13743 0
M  V30 2630 C 267.54 3.32643 0.642963 0
M  V30 2631 C 266.099 3.59818 1.10491 0
M  V30 2632 C 265.246 2.76954 0.138411 0
M  V30 2633 H 268.197 1.53803 -0.391193 0
M  V30 2634 H 268.218 3.49878 1.49551 0
M  V30 2635 H 267.73 3.87007 -0.291055 0
M  V30 2636 H 265.831 3.1086 2.05418 0
M  V30 2637 H 265.944 4.68178 1.01716 0
M  V30 2638 H 264.308 2.4666 0.634911 0
M  V30 2639 H 265.091 3.34097 -0.789549 0
M  V30 2640 N 267.536 -0.106894 1.57237 0
M  V30 2641 C 268.483 -1.13049 2.01217 0
M  V30 2642 C 269.453 -1.40471 0.886403 0
M  V30 2643 O 270.638 -1.52133 1.15153 0
M  V30 2644 C 267.778 -2.4487 2.43172 0
M  V30 2645 C 266.891 -2.24281 3.69218 0
M  V30 2646 C 266.026 -3.49417 4.00101 0
M  V30 2647 C 265.065 -3.24038 5.19294 0
M  V30 2648 N 264.202 -4.41409 5.45988 0
M  V30 2649 H 269.042 -0.748456 2.88448 0
M  V30 2650 H 266.579 -0.358054 1.42676 0
M  V30 2651 H 268.537 -3.21786 2.65537 0
M  V30 2652 H 267.167 -2.80944 1.58967 0
M  V30 2653 H 266.219 -1.38224 3.54398 0
M  V30 2654 H 267.531 -2.01512 4.56283 0
M  V30 2655 H 266.685 -4.34746 4.2318 0
M  V30 2656 H 265.424 -3.75229 3.11535 0
M  V30 2657 H 264.429 -2.37102 4.96047 0
M  V30 2658 H 265.654 -2.99584 6.09447 0
M  V30 2659 H 263.6 -4.67319 4.60379 0
M  V30 2660 H 263.517 -4.21788 6.274 0
M  V30 2661 H 264.785 -5.27836 5.73593 0
M  V30 2662 N 269.014 -1.53014 -0.377408 0
M  V30 2663 C 270.425 -1.60438 -0.954798 0
M  V30 2664 C 270.776 -0.464418 -1.90624 0
M  V30 2665 O 269.901 0.41087 -2.12464 0
M  V30 2666 C 270.496 -2.90797 -1.73847 0
M  V30 2667 C 269.055 -3.00595 -2.26538 0
M  V30 2668 C 268.202 -2.55645 -1.07429 0
M  V30 2669 H 271.153 -1.57926 -0.156575 0
M  V30 2670 H 271.174 -2.77935 -2.5987 0
M  V30 2671 H 270.686 -3.73746 -1.04574 0
M  V30 2672 H 268.787 -2.22208 -2.99089 0
M  V30 2673 H 268.9 -4.05456 -2.5523 0
M  V30 2674 H 267.264 -2.10239 -1.43777 0
M  V30 2675 H 268.047 -3.41 -0.396728 0
M  V30 2676 N 270.492 0.636531 -1.44174 0
M  V30 2677 C 271.717 1.42847 -1.50364 0
M  V30 2678 C 272.142 1.87665 -0.127867 0
M  V30 2679 O 271.5 1.58408 0.88185 0
M  V30 2680 C 271.548 2.62854 -2.4686 0
M  V30 2681 O 270.652 3.62501 -1.9664 0
M  V30 2682 H 269.993 0.427642 -0.507955 0
M  V30 2683 H 272.523 0.777422 -1.89255 0
M  V30 2684 H 272.533 3.10465 -2.64718 0
M  V30 2685 H 271.208 2.29578 -3.46795 0
M  V30 2686 H 269.785 3.21735 -1.88523 0
M  V30 2687 N 271.97 1.30982 0.876444 0
M  V30 2688 C 273.218 1.20058 1.62575 0
M  V30 2689 C 273.539 -0.242947 1.93481 0
M  V30 2690 O 272.809 -1.1619 1.57724 0
M  V30 2691 H 271.389 0.44135 0.602677 0
M  V30 2692 H 274.051 1.64222 1.04962 0
M  V30 2693 H 273.147 1.76762 2.57219 0
M  V30 2694 N 273.449 -1.08991 1.13837 0
M  V30 2695 C 274.689 -1.82867 0.913183 0
M  V30 2696 C 275.053 -1.83936 -0.550604 0
M  V30 2697 O 276.254 -2.53515 -0.893515 0
M  V30 2698 C 274.525 -3.24843 1.49036 0
M  V30 2699 S 276.084 -4.15669 1.40588 0
M  V30 2700 H 272.902 -0.630278 0.329046 0
M  V30 2701 H 275.504 -1.31049 1.45073 0
M  V30 2702 H 274.208 -3.21644 2.54899 0
M  V30 2703 H 273.739 -3.81734 0.950947 0
M  V30 2704 H 275.754 -4.94686 0.387353 0
M  V30 2705 N 274.927 -0.932562 -1.27047 0
M  V30 2706 C 276.343 -0.633544 -1.46487 0
M  V30 2707 C 276.543 0.815746 -1.84249 0
M  V30 2708 O 275.599 1.59319 -1.95892 0
M  V30 2709 C 276.912 -1.58758 -2.55375 0
M  V30 2710 C 278.46 -1.59634 -2.69232 0
M  V30 2711 C 278.935 -2.53747 -3.81283 0
M  V30 2712 N 280.426 -2.51982 -3.88664 0
M  V30 2713 C 281.161 -3.21491 -4.74796 0
M  V30 2714 N 280.657 -4.00395 -5.65381 0
M  V30 2715 N 282.45 -3.10485 -4.68568 0
M  V30 2716 H 274.601 -1.86946 -1.00821 0
M  V30 2717 H 276.864 -0.802897 -0.504044 0
M  V30 2718 H 276.57 -2.62172 -2.34432 0
M  V30 2719 H 276.444 -1.33301 -3.52861 0
M  V30 2720 H 278.831 -0.569488 -2.89553 0
M  V30 2721 H 278.912 -1.89142 -1.72218 0
M  V30 2722 H 278.556 -3.56545 -3.61715 0
M  V30 2723 H 278.486 -2.21532 -4.77735 0
M  V30 2724 H 280.977 -1.94681 -3.23895 0
M  V30 2725 H 281.29 -4.50406 -6.27976 0
M  V30 2726 H 279.635 -4.04498 -5.65161 0
M  V30 2727 H 282.826 -2.48331 -3.96799 0
M  V30 2728 H 282.999 -3.64925 -5.35475 0
M  V30 2729 N 276.405 1.4127 -0.698611 0
M  V30 2730 C 277.368 2.29158 -0.044132 0
M  V30 2731 C 278.368 1.44529 0.704841 0
M  V30 2732 O 279.558 1.65643 0.539276 0
M  V30 2733 C 276.69 3.27459 0.947809 0
M  V30 2734 H 277.883 2.88529 -0.817994 0
M  V30 2735 H 275.436 1.49307 -0.46228 0
M  V30 2736 H 276.171 2.73073 1.74933 0
M  V30 2737 H 275.956 3.8991 0.41385 0
M  V30 2738 H 277.446 3.93311 1.40344 0
M  V30 2739 N 277.883 0.443576 1.51229 0
M  V30 2740 C 278.846 -0.353132 2.26463 0
M  V30 2741 C 279.846 -0.944338 1.3015 0
M  V30 2742 O 281.036 -0.817813 1.5381 0
M  V30 2743 C 278.168 -1.50023 3.06114 0
M  V30 2744 H 279.361 0.3063 2.98332 0
M  V30 2745 H 276.914 0.196902 1.55055 0
M  V30 2746 H 277.649 -2.19553 2.38677 0
M  V30 2747 H 277.434 -1.08241 3.76864 0
M  V30 2748 H 278.924 -2.06296 3.63087 0
M  V30 2749 N 279.361 -1.56624 0.175154 0
M  V30 2750 C 280.609 -1.96609 -0.467885 0
M  V30 2751 C 280.93 -1.06238 -1.63519 0
M  V30 2752 O 280.2 -0.129523 -1.95471 0
M  V30 2753 H 278.78 -0.726008 -0.175845 0
M  V30 2754 H 281.442 -1.93195 0.257234 0
M  V30 2755 H 280.538 -3.00989 -0.825342 0
M  V30 2756 N 280.839 0.0985539 -1.57292 0
M  V30 2757 C 281.789 1.1261 -1.9825 0
M  V30 2758 C 282.773 1.35961 -0.860426 0
M  V30 2759 O 283.965 1.36711 -1.12424 0
M  V30 2760 C 281.094 2.44727 -2.40757 0
M  V30 2761 C 280.18 2.24764 -3.59642 0
M  V30 2762 N 280.571 1.74661 -4.74687 0
M  V30 2763 C 278.869 2.55344 -3.65672 0
M  V30 2764 C 279.57 1.68887 -5.56644 0
M  V30 2765 N 278.546 2.13976 -4.99715 0
M  V30 2766 H 282.348 0.731604 -2.84648 0
M  V30 2767 H 279.862 0.306029 -1.59491 0
M  V30 2768 H 281.859 3.19072 -2.68326 0
M  V30 2769 H 280.519 2.84917 -1.55733 0
M  V30 2770 H 281.53 1.43908 -4.97505 0
M  V30 2771 H 278.207 2.99081 -2.91302 0
M  V30 2772 H 279.597 1.3123 -6.5896 0
M  V30 2773 N 282.317 1.53212 0.369288 0
M  V30 2774 C 283.28 1.7872 1.43498 0
M  V30 2775 C 284.28 0.657554 1.46741 0
M  V30 2776 O 285.47 0.925736 1.47566 0
M  V30 2777 C 282.602 1.90591 2.82645 0
M  V30 2778 H 283.795 2.73894 1.22156 0
M  V30 2779 H 281.348 1.44233 0.602203 0
M  V30 2780 H 282.083 0.974709 3.09306 0
M  V30 2781 H 281.868 2.72751 2.8169 0
M  V30 2782 H 283.358 2.11931 3.59826 0
M  V30 2783 N 283.795 -0.628877 1.44509 0
M  V30 2784 C 285.072 -1.38733 1.37886 0
M  V30 2785 C 285.452 -2.11065 0.0387008 0
M  V30 2786 O 284.8 -2.06476 -0.97878 0
M  V30 2787 C 285.01 -2.35188 2.57852 0
M  V30 2788 C 286.358 -2.9845 3.02014 0
M  V30 2789 O 287.382 -2.45513 2.58073 0
M  V30 2790 O 286.241 -3.94487 3.78209 0
M  V30 2791 H 283.335 -0.621015 0.54614 0
M  V30 2792 H 285.881 -0.653744 1.56602 0
M  V30 2793 H 284.653 -1.80855 3.46998 0
M  V30 2794 H 284.276 -3.1596 2.4136 0
M  V30 2795 N 285.273 -1.31445 -0.869486 0
M  V30 2796 C 286.203 -1.21727 -1.99261 0
M  V30 2797 C 287.184 -0.104359 -1.6978 0
M  V30 2798 O 288.369 -0.289038 -1.92037 0
M  V30 2799 C 285.499 -0.924317 -3.34774 0
M  V30 2800 C 284.453 -1.99685 -3.78563 0
M  V30 2801 C 283.779 -1.55658 -5.11541 0
M  V30 2802 C 285.079 -3.41003 -3.95619 0
M  V30 2803 H 286.773 -2.1569 -2.07649 0
M  V30 2804 H 284.319 -1.03839 -0.997675 0
M  V30 2805 H 286.272 -0.842934 -4.12883 0
M  V30 2806 H 284.996 0.0509793 -3.2656 0
M  V30 2807 H 283.655 -2.06813 -3.02694 0
M  V30 2808 H 283.303 -0.569132 -4.9977 0
M  V30 2809 H 283.003 -2.27409 -5.41811 0
M  V30 2810 H 284.527 -1.48928 -5.92159 0
M  V30 2811 H 285.941 -3.36547 -4.64122 0
M  V30 2812 H 284.338 -4.10975 -4.37286 0
M  V30 2813 H 285.408 -3.81754 -2.98985 0
M  V30 2814 N 286.751 1.08385 -1.14413 0
M  V30 2815 C 287.701 2.13509 -0.79987 0
M  V30 2816 C 288.685 1.5951 0.211059 0
M  V30 2817 O 289.877 1.76995 0.0133694 0
M  V30 2818 C 287.006 3.42162 -0.279297 0
M  V30 2819 C 286.092 4.03042 -1.31976 0
M  V30 2820 N 286.483 4.38327 -2.52395 0
M  V30 2821 C 284.781 4.30379 -1.17004 0
M  V30 2822 C 285.482 4.86428 -3.19003 0
M  V30 2823 N 284.458 4.84547 -2.46405 0
M  V30 2824 H 288.26 2.38609 -1.7159 0
M  V30 2825 H 285.774 1.2572 -1.02802 0
M  V30 2826 H 287.771 4.16898 -0.0143688 0
M  V30 2827 H 286.431 3.18511 0.630923 0
M  V30 2828 H 287.442 4.29349 -2.89621 0
M  V30 2829 H 284.119 4.16281 -0.318854 0
M  V30 2830 H 285.509 5.23107 -4.21674 0
M  V30 2831 N 288.23 0.939286 1.26551 0
M  V30 2832 C 289.16 0.465044 2.28822 0
M  V30 2833 C 290.141 -0.480692 1.63167 0
M  V30 2834 O 291.326 -0.382955 1.90387 0
M  V30 2835 C 288.456 -0.27234 3.46231 0
M  V30 2836 C 287.41 0.58666 4.2396 0
M  V30 2837 C 286.736 -0.280573 5.33963 0
M  V30 2838 C 288.036 1.85704 4.88171 0
M  V30 2839 H 289.73 1.31979 2.68741 0
M  V30 2840 H 287.276 0.636061 1.29191 0
M  V30 2841 H 289.229 -0.615133 4.16886 0
M  V30 2842 H 287.953 -1.16121 3.0526 0
M  V30 2843 H 286.612 0.91232 3.55067 0
M  V30 2844 H 286.26 -1.16874 4.89234 0
M  V30 2845 H 285.96 0.29076 5.8688 0
M  V30 2846 H 287.484 -0.618678 6.07458 0
M  V30 2847 H 288.898 1.58161 5.51052 0
M  V30 2848 H 287.295 2.37279 5.51197 0
M  V30 2849 H 288.365 2.56957 4.11219 0
M  V30 2850 N 289.708 -1.40897 0.706093 0
M  V30 2851 C 290.985 -1.94868 0.169099 0
M  V30 2852 C 291.365 -1.64485 -1.32318 0
M  V30 2853 O 290.713 -0.95744 -2.07474 0
M  V30 2854 C 290.923 -3.45798 0.471654 0
M  V30 2855 C 292.271 -4.22663 0.405127 0
M  V30 2856 O 293.295 -3.53865 0.407168 0
M  V30 2857 O 292.154 -5.45216 0.374383 0
M  V30 2858 H 289.248 -0.82673 0.0211352 0
M  V30 2859 H 291.794 -1.50558 0.782976 0
M  V30 2860 H 290.566 -3.61235 1.50416 0
M  V30 2861 H 290.189 -3.97225 -0.172666 0
M  V30 2862 N 291.186 -0.45159 -1.50991 0
M  V30 2863 C 292.118 0.388634 -2.25881 0
M  V30 2864 C 293.131 0.974041 -1.30446 0
M  V30 2865 O 294.32 0.865758 -1.56099 0
M  V30 2866 C 291.42 1.5571 -3.01011 0
M  V30 2867 C 290.593 1.08801 -4.23652 0
M  V30 2868 C 289.652 2.12825 -4.8124 0
M  V30 2869 O 288.678 1.71678 -5.42693 0
M  V30 2870 N 289.88 3.45453 -4.66522 0
M  V30 2871 H 292.645 -0.25329 -2.98628 0
M  V30 2872 H 290.206 -0.281268 -1.59438 0
M  V30 2873 H 292.198 2.24952 -3.3642 0
M  V30 2874 H 290.768 2.10409 -2.31186 0
M  V30 2875 H 289.988 0.22215 -3.93574 0
M  V30 2876 H 291.276 0.752213 -5.03209 0
M  V30 2877 H 290.674 3.81605 -4.17605 0
M  V30 2878 H 289.231 4.10549 -5.06254 0
M  V30 2879 N 292.664 1.56529 -0.183458 0
M  V30 2880 C 293.91 1.97537 0.459036 0
M  V30 2881 C 294.243 1.06989 1.62071 0
M  V30 2882 O 293.518 0.11948 1.94133 0
M  V30 2883 C 293.801 3.47874 0.930368 0
M  V30 2884 C 293.654 4.492 -0.232317 0
M  V30 2885 C 294.973 4.01612 1.79989 0
M  V30 2886 H 292.092 0.718204 0.165383 0
M  V30 2887 H 294.734 1.88042 -0.272038 0
M  V30 2888 H 292.884 3.56095 1.55333 0
M  V30 2889 H 294.556 4.53027 -0.86972 0
M  V30 2890 H 292.799 4.24657 -0.885928 0
M  V30 2891 H 293.47 5.51823 0.139796 0
M  V30 2892 H 295.946 3.96097 1.27461 0
M  V30 2893 H 294.822 5.07195 2.09867 0
M  V30 2894 H 295.083 3.46163 2.74998 0
M  V30 2895 N 294.142 -0.090211 1.57342 0
M  V30 2896 C 295.558 -0.444547 1.53284 0
M  V30 2897 C 295.758 -1.80238 0.900914 0
M  V30 2898 O 294.814 -2.4759 0.495513 0
M  V30 2899 C 296.127 -0.402543 2.97993 0
M  V30 2900 C 297.675 -0.48405 3.09234 0
M  V30 2901 C 298.15 -0.472144 4.5556 0
M  V30 2902 N 299.641 -0.532757 4.60126 0
M  V30 2903 C 300.376 -0.545462 5.708 0
M  V30 2904 N 299.872 -0.514082 6.9089 0
M  V30 2905 N 301.665 -0.59064 5.58988 0
M  V30 2906 H 293.816 0.799121 1.96794 0
M  V30 2907 H 296.079 0.297965 0.899956 0
M  V30 2908 H 295.785 0.528106 3.47712 0
M  V30 2909 H 295.659 -1.21969 3.56936 0
M  V30 2910 H 298.046 -1.40512 2.595 0
M  V30 2911 H 298.127 0.361328 2.53235 0
M  V30 2912 H 297.771 0.445 5.05947 0
M  V30 2913 H 297.701 -1.3348 5.09402 0
M  V30 2914 H 300.192 -0.562006 3.73698 0
M  V30 2915 H 300.505 -0.527195 7.71 0
M  V30 2916 H 298.85 -0.481054 6.93333 0
M  V30 2917 H 302.041 -0.61272 4.64073 0
M  V30 2918 H 302.214 -0.597073 6.45243 0
M  V30 2919 N 295.62 -1.53406 -0.361157 0
M  V30 2920 C 296.866 -1.70054 -1.10496 0
M  V30 2921 C 297.199 -0.453278 -1.88836 0
M  V30 2922 O 296.474 0.5495 -1.86576 0
M  V30 2923 C 296.757 -2.95317 -2.06058 0
M  V30 2924 C 296.61 -4.3021 -1.31298 0
M  V30 2925 C 297.929 -3.16193 -3.06121 0
M  V30 2926 H 295.048 -0.618799 -0.400321 0
M  V30 2927 H 297.69 -1.86052 -0.385318 0
M  V30 2928 H 295.84 -2.81809 -2.67425 0
M  V30 2929 H 297.512 -4.55538 -0.726807 0
M  V30 2930 H 295.755 -4.29421 -0.614853 0
M  V30 2931 H 296.426 -5.14 -2.01265 0
M  V30 2932 H 298.902 -3.28916 -2.5486 0
M  V30 2933 H 297.778 -4.05266 -3.70204 0
M  V30 2934 H 298.039 -2.31676 -3.76535 0
M  V30 2935 N 297.098 0.621204 -1.44841 0
M  V30 2936 C 298.509 1.20298 -1.42777 0
M  V30 2937 C 298.86 1.95639 -0.148259 0
M  V30 2938 O 297.985 2.02955 0.750892 0
M  V30 2939 C 298.58 2.1882 -2.58657 0
M  V30 2940 C 297.139 2.72403 -2.59756 0
M  V30 2941 C 296.286 1.4757 -2.34773 0
M  V30 2942 H 299.237 0.411297 -1.53278 0
M  V30 2943 H 299.258 3.01607 -2.31977 0
M  V30 2944 H 298.77 1.63957 -3.51766 0
M  V30 2945 H 296.871 3.31242 -1.70615 0
M  V30 2946 H 296.984 3.17765 -3.58556 0
M  V30 2947 H 295.348 1.76051 -1.8406 0
M  V30 2948 H 296.131 0.945954 -3.3001 0
M  V30 2949 N 298.576 1.31904 0.862503 0
M  V30 2950 C 299.539 1.20131 1.95195 0
M  V30 2951 C 300.539 0.126409 1.60302 0
M  V30 2952 O 301.729 0.376234 1.70089 0
M  V30 2953 C 298.861 0.845691 3.30244 0
M  V30 2954 H 300.054 2.16943 2.07064 0
M  V30 2955 H 297.607 1.15622 1.05172 0
M  V30 2956 H 298.342 -0.120957 3.24074 0
M  V30 2957 H 298.127 1.62276 3.56944 0
M  V30 2958 H 299.617 0.787418 4.10109 0
M  V30 2959 N 300.054 -1.07777 1.14986 0
M  V30 2960 C 301.302 -1.79934 0.920235 0
M  V30 2961 C 301.623 -1.86955 -0.554336 0
M  V30 2962 O 300.893 -1.36731 -1.40291 0
M  V30 2963 H 299.473 -0.666424 0.337473 0
M  V30 2964 H 302.135 -1.3027 1.44968 0
M  V30 2965 H 301.231 -2.82539 1.32583 0
M  V30 2966 N 301.532 -0.945985 -1.26051 0
M  V30 2967 C 302.495 -0.463897 -2.24456 0
M  V30 2968 C 303.495 0.427655 -1.55009 0
M  V30 2969 O 304.685 0.226157 -1.72726 0
M  V30 2970 C 301.817 0.330812 -3.39291 0
M  V30 2971 H 303.01 -1.33357 -2.68619 0
M  V30 2972 H 300.563 -0.728416 -1.38289 0
M  V30 2973 H 301.298 1.21852 -3.00537 0
M  V30 2974 H 301.083 -0.308679 -3.90883 0
M  V30 2975 H 302.573 0.657865 -4.12386 0
M  V30 2976 N 303.011 1.40521 -0.713556 0
M  V30 2977 C 304.257 2.01221 -0.252564 0
M  V30 2978 C 304.59 1.56444 1.1506 0
M  V30 2979 O 303.865 0.783597 1.78017 0
M  V30 2980 C 304.148 3.58582 -0.330332 0
M  V30 2981 C 304.001 4.13437 -1.77173 0
M  V30 2982 C 305.32 4.39079 0.299641 0
M  V30 2983 H 302.439 0.731077 -0.0932471 0
M  V30 2984 H 305.081 1.67026 -0.905673 0
M  V30 2985 H 303.231 3.87844 0.225737 0
M  V30 2986 H 304.903 3.9498 -2.38303 0
M  V30 2987 H 303.146 3.67801 -2.3001 0
M  V30 2988 H 303.817 5.22597 -1.77755 0
M  V30 2989 H 306.293 4.15735 -0.174139 0
M  V30 2990 H 305.169 5.4848 0.214771 0
M  V30 2991 H 305.43 4.19915 1.38288 0
M  V30 2992 N 304.489 0.459591 1.5075 0
M  V30 2993 C 305.419 -0.330644 2.31147 0
M  V30 2994 C 306.4 -1.00087 1.37538 0
M  V30 2995 O 307.585 -1.00025 1.66459 0
M  V30 2996 C 304.715 -1.41958 3.16962 0
M  V30 2997 C 303.669 -0.871608 4.19031 0
M  V30 2998 C 302.995 -2.05797 4.9351 0
M  V30 2999 C 304.295 0.109251 5.22186 0
M  V30 3000 H 305.989 0.340336 2.97459 0
M  V30 3001 H 303.535 0.165119 1.4305 0
M  V30 3002 H 305.488 -1.9798 3.71997 0
M  V30 3003 H 304.212 -2.11917 2.48513 0
M  V30 3004 H 302.871 -0.333442 3.6508 0
M  V30 3005 H 302.519 -2.74427 4.21544 0
M  V30 3006 H 302.219 -1.6976 5.62544 0
M  V30 3007 H 303.743 -2.62331 5.51375 0
M  V30 3008 H 305.157 -0.361405 5.7216 0
M  V30 3009 H 303.554 0.383316 5.98875 0
M  V30 3010 H 304.624 1.03887 4.73641 0
M  V30 3011 N 305.967 -1.56429 0.191757 0
M  V30 3012 C 306.93 -2.17707 -0.716688 0
M  V30 3013 C 307.93 -1.13061 -1.14341 0
M  V30 3014 O 309.12 -1.38464 -1.05704 0
M  V30 3015 C 306.252 -2.77644 -1.97804 0
M  V30 3016 H 307.445 -2.99342 -0.1829 0
M  V30 3017 H 304.998 -1.56193 -0.0578566 0
M  V30 3018 H 305.733 -1.99799 -2.55443 0
M  V30 3019 H 305.518 -3.54246 -1.68083 0
M  V30 3020 H 307.008 -3.24708 -2.62592 0
M  V30 3021 N 307.445 0.0818655 -1.57387 0
M  V30 3022 C 308.693 0.781368 -1.86384 0
M  V30 3023 C 309.014 1.78618 -0.782342 0
M  V30 3024 O 308.284 1.94976 0.190061 0
M  V30 3025 H 306.864 0.291562 -0.687751 0
M  V30 3026 H 309.526 0.060348 -1.94807 0
M  V30 3027 H 308.622 1.3038 -2.83562 0
M  V30 3028 N 308.923 1.53595 0.353017 0
M  V30 3029 C 310.148 1.7462 1.11904 0
M  V30 3030 C 310.573 0.479721 1.8188 0
M  V30 3031 O 309.931 -0.567066 1.72204 0
M  V30 3032 C 309.979 2.92029 2.11545 0
M  V30 3033 O 309.083 2.61516 3.18878 0
M  V30 3034 H 308.424 0.579531 0.324099 0
M  V30 3035 H 310.954 2.00525 0.406301 0
M  V30 3036 H 310.964 3.18551 2.5493 0
M  V30 3037 H 309.639 3.83888 1.60008 0
M  V30 3038 H 308.216 2.45852 2.80377 0
M  V30 3039 N 310.401 -0.613514 1.45168 0
M  V30 3040 C 311.649 -1.36997 1.48581 0
M  V30 3041 C 311.97 -1.94589 0.126545 0
M  V30 3042 O 311.24 -1.76816 -0.843372 0
M  V30 3043 H 309.82 -0.508558 0.547154 0
M  V30 3044 H 312.482 -0.720853 1.81079 0
M  V30 3045 H 311.578 -2.1924 2.22127 0
M  V30 3046 N 311.879 -1.3236 -0.855495 0
M  V30 3047 C 312.842 -1.21164 -1.94556 0
M  V30 3048 C 313.842 -0.134908 -1.60233 0
M  V30 3049 O 315.032 -0.385249 -1.69887 0
M  V30 3050 C 312.164 -0.863192 -3.29791 0
M  V30 3051 H 313.357 -2.18038 -2.05911 0
M  V30 3052 H 310.91 -1.16179 -1.04557 0
M  V30 3053 H 311.645 0.103769 -3.24134 0
M  V30 3054 H 311.43 -1.64166 -3.56078 0
M  V30 3055 H 312.92 -0.809156 -4.09686 0
M  V30 3056 N 313.357 1.07166 -1.15556 0
M  V30 3057 C 314.582 1.84053 -0.955988 0
M  V30 3058 C 315.007 1.81586 0.490739 0
M  V30 3059 O 314.365 1.21018 1.34997 0
M  V30 3060 C 314.413 3.28957 -1.47714 0
M  V30 3061 O 313.517 4.06795 -0.677593 0
M  V30 3062 H 312.858 0.569842 -0.340847 0
M  V30 3063 H 315.388 1.35178 -1.53584 0
M  V30 3064 H 315.398 3.79788 -1.4908 0
M  V30 3065 H 314.073 3.30068 -2.53037 0
M  V30 3066 H 312.65 3.6561 -0.733721 0
M  V30 3067 N 314.835 0.952656 1.25548 0
M  V30 3068 C 315.765 0.489287 2.28316 0
M  V30 3069 C 316.746 -0.463359 1.63667 0
M  V30 3070 O 317.931 -0.36274 1.90782 0
M  V30 3071 C 315.061 -0.235603 3.465 0
M  V30 3072 C 314.015 0.631593 4.23314 0
M  V30 3073 C 313.341 -0.223923 5.34231 0
M  V30 3074 C 314.641 1.90871 4.86174 0
M  V30 3075 H 316.335 1.34822 2.67326 0
M  V30 3076 H 313.881 0.649728 1.28509 0
M  V30 3077 H 315.834 -0.570882 4.17515 0
M  V30 3078 H 314.558 -1.12877 3.06474 0
M  V30 3079 H 313.217 0.949929 3.54079 0
M  V30 3080 H 312.865 -1.11678 4.90446 0
M  V30 3081 H 312.565 0.35299 5.86539 0
M  V30 3082 H 314.089 -0.554214 6.0808 0
M  V30 3083 H 315.503 1.63997 5.49343 0
M  V30 3084 H 313.9 2.43112 5.4865 0
M  V30 3085 H 314.97 2.61304 4.08471 0
M  V30 3086 N 316.313 -1.40141 0.720998 0
M  V30 3087 C 317.724 -1.83678 0.334553 0
M  V30 3088 C 318.075 -1.6027 -1.13173 0
M  V30 3089 O 317.2 -1.08643 -1.87152 0
M  V30 3090 C 317.795 -3.33437 0.600437 0
M  V30 3091 C 316.354 -3.75447 0.267642 0
M  V30 3092 C 315.501 -2.63296 0.870097 0
M  V30 3093 H 318.452 -1.29331 0.919732 0
M  V30 3094 H 318.473 -3.80269 -0.132517 0
M  V30 3095 H 317.985 -3.50442 1.66768 0
M  V30 3096 H 316.086 -3.64035 -0.794329 0
M  V30 3097 H 316.199 -4.73344 0.74042 0
M  V30 3098 H 314.563 -2.52954 0.297739 0
M  V30 3099 H 315.346 -2.83112 1.94172 0
M  V30 3100 N 317.792 -0.46758 -1.50504 0
M  V30 3101 C 318.725 0.374324 -2.25109 0
M  V30 3102 C 319.703 0.99921 -1.28275 0
M  V30 3103 O 320.887 1.03583 -1.57489 0
M  V30 3104 C 318.014 1.52419 -3.02467 0
M  V30 3105 C 317.06 1.01702 -4.14197 0
M  V30 3106 S 317.893 -0.0654477 -5.3546 0
M  V30 3107 C 319.049 1.08837 -6.16365 0
M  V30 3108 H 319.282 -0.258983 -2.9617 0
M  V30 3109 H 316.815 -0.252421 -1.52323 0
M  V30 3110 H 318.773 2.18322 -3.47628 0
M  V30 3111 H 317.434 2.129 -2.30938 0
M  V30 3112 H 316.627 1.87776 -4.67714 0
M  V30 3113 H 316.229 0.435757 -3.71453 0
M  V30 3114 H 318.521 2.00071 -6.47285 0
M  V30 3115 H 319.464 0.592538 -7.05616 0
M  V30 3116 H 319.872 1.34061 -5.4835 0
M  V30 3117 N 319.27 1.56325 -0.20005 0
M  V30 3118 C 320.2 2.22318 0.713916 0
M  V30 3119 C 321.181 1.18788 1.21752 0
M  V30 3120 O 322.366 1.47309 1.26545 0
M  V30 3121 C 319.496 2.88639 1.93144 0
M  V30 3122 C 318.45 3.98457 1.56255 0
M  V30 3123 C 317.776 4.51967 2.85709 0
M  V30 3124 C 319.076 5.16612 0.768747 0
M  V30 3125 H 320.77 2.98952 0.163755 0
M  V30 3126 H 318.316 1.43792 0.0773219 0
M  V30 3127 H 320.269 3.33491 2.57608 0
M  V30 3128 H 318.993 2.09419 2.50621 0
M  V30 3129 H 317.652 3.54305 0.941471 0
M  V30 3130 H 317.3 3.69503 3.41287 0
M  V30 3131 H 317 5.26071 2.6177 0
M  V30 3132 H 318.524 4.99523 3.51154 0
M  V30 3133 H 319.938 5.57977 1.3166 0
M  V30 3134 H 318.335 5.96812 0.627286 0
M  V30 3135 H 319.405 4.84358 -0.229168 0
M  V30 3136 N 320.748 -0.0735177 1.57428 0
M  V30 3137 C 321.994 -0.774145 1.87443 0
M  V30 3138 C 322.327 -1.77311 0.792103 0
M  V30 3139 O 321.602 -1.93492 -0.197793 0
M  V30 3140 C 321.885 -1.48367 3.28115 0
M  V30 3141 C 321.738 -0.501227 4.46999 0
M  V30 3142 C 323.057 -2.429 3.66998 0
M  V30 3143 H 320.176 -0.279971 0.681752 0
M  V30 3144 H 322.818 -0.0373616 1.89963 0
M  V30 3145 H 320.968 -2.11171 3.26097 0
M  V30 3146 H 322.64 0.121468 4.6114 0
M  V30 3147 H 320.883 0.183593 4.33411 0
M  V30 3148 H 321.554 -1.03526 5.42205 0
M  V30 3149 H 324.03 -1.90175 3.70098 0
M  V30 3150 H 322.906 -2.89549 4.66318 0
M  V30 3151 H 323.167 -3.27628 2.96837 0
M  V30 3152 N 322.226 -1.5378 -0.344866 0
M  V30 3153 C 323.189 -1.80981 -1.40637 0
M  V30 3154 C 324.189 -0.680816 -1.45676 0
M  V30 3155 O 325.379 -0.949095 -1.46075 0
M  V30 3156 C 322.511 -1.95063 -2.79577 0
M  V30 3157 H 323.704 -2.75803 -1.17783 0
M  V30 3158 H 321.257 -1.45173 -0.579181 0
M  V30 3159 H 321.992 -1.02379 -3.07716 0
M  V30 3160 H 321.777 -2.77198 -2.77315 0
M  V30 3161 H 323.267 -2.17629 -3.56409 0
M  V30 3162 N 323.704 0.605807 -1.45491 0
M  V30 3163 C 324.667 1.69836 -1.5391 0
M  V30 3164 C 325.667 1.55261 -0.418424 0
M  V30 3165 O 326.857 1.60296 -0.681965 0
M  V30 3166 C 323.989 3.09117 -1.43734 0
M  V30 3167 H 325.182 1.63738 -2.51257 0
M  V30 3168 H 322.735 0.821689 -1.32959 0
M  V30 3169 H 323.47 3.20791 -0.475788 0
M  V30 3170 H 323.255 3.21104 -2.25021 0
M  V30 3171 H 324.745 3.88696 -1.52661 0
M  V30 3172 N 325.182 1.32811 0.848464 0
M  V30 3173 C 326.407 1.26882 1.6406 0
M  V30 3174 C 326.832 -0.15913 1.87426 0
M  V30 3175 O 326.19 -1.11258 1.43148 0
M  V30 3176 C 326.238 2.03997 2.97351 0
M  V30 3177 O 325.342 1.39201 3.88197 0
M  V30 3178 H 324.683 0.436982 0.499943 0
M  V30 3179 H 327.213 1.75224 1.0563 0
M  V30 3180 H 327.223 2.14403 3.47124 0
M  V30 3181 H 325.898 3.0783 2.79666 0
M  V30 3182 H 324.475 1.37381 3.46671 0
M  V30 3183 N 326.66 -1.06551 1.16123 0
M  V30 3184 C 327.59 -2.15935 0.88851 0
M  V30 3185 C 328.571 -1.69306 -0.164135 0
M  V30 3186 O 329.756 -1.94193 -0.0167857 0
M  V30 3187 C 326.886 -3.45149 0.385942 0
M  V30 3188 C 325.84 -4.05271 1.3762 0
M  V30 3189 C 325.166 -5.29664 0.732137 0
M  V30 3190 C 326.466 -4.44355 2.74493 0
M  V30 3191 H 328.16 -2.39006 1.80323 0
M  V30 3192 H 325.706 -1.14866 0.868435 0
M  V30 3193 H 327.659 -4.21004 0.182647 0
M  V30 3194 H 326.383 -3.21689 -0.564274 0
M  V30 3195 H 325.042 -3.3147 1.56599 0
M  V30 3196 H 324.69 -5.02499 -0.224483 0
M  V30 3197 H 324.39 -5.70848 1.39307 0
M  V30 3198 H 325.914 -6.08218 0.538802 0
M  V30 3199 H 327.328 -5.11303 2.59311 0
M  V30 3200 H 325.725 -4.96515 3.37035 0
M  V30 3201 H 326.795 -3.55339 3.29943 0
M  V30 3202 N 328.138 -0.959301 -1.25041 0
M  V30 3203 C 329.101 -0.487677 -2.23952 0
M  V30 3204 C 330.101 0.41119 -1.55454 0
M  V30 3205 O 331.291 0.207825 -1.72956 0
M  V30 3206 C 328.423 0.294807 -3.39623 0
M  V30 3207 H 329.616 -1.36198 -2.67189 0
M  V30 3208 H 327.169 -0.743042 -1.37508 0
M  V30 3209 H 327.904 1.18658 -3.01813 0
M  V30 3210 H 327.689 -0.35012 -3.90534 0
M  V30 3211 H 329.179 0.614089 -4.1306 0
M  V30 3212 N 329.616 1.39756 -0.72842 0
M  V30 3213 C 330.846 2.04651 -0.283117 0
M  V30 3214 C 331.254 1.5502 1.08469 0
M  V30 3215 O 330.597 0.707343 1.69536 0
M  V30 3216 C 330.659 3.58947 -0.199309 0
M  V30 3217 C 330.323 4.31525 -1.5045 0
M  V30 3218 C 331.32 4.5861 -2.44894 0
M  V30 3219 C 329.005 4.70195 -1.76698 0
M  V30 3220 C 330.999 5.23366 -3.63822 0
M  V30 3221 C 328.686 5.3468 -2.95906 0
M  V30 3222 C 329.684 5.61198 -3.89289 0
M  V30 3223 O 329.372 6.24347 -5.06404 0
M  V30 3224 H 329.104 0.664777 -0.122666 0
M  V30 3225 H 331.658 1.79913 -0.990987 0
M  V30 3226 H 329.888 3.82556 0.56461 0
M  V30 3227 H 331.577 4.0534 0.213125 0
M  V30 3228 H 332.343 4.29187 -2.25883 0
M  V30 3229 H 328.222 4.48916 -1.04859 0
M  V30 3230 H 331.766 5.4398 -4.36728 0
M  V30 3231 H 327.663 5.63524 -3.14819 0
M  V30 3232 H 328.431 6.42842 -5.06652 0
M  V30 3233 N 331.094 0.475555 1.50254 0
M  V30 3234 C 332.342 -0.077738 2.0195 0
M  V30 3235 C 332.663 -1.39813 1.35931 0
M  V30 3236 O 331.933 -1.89249 0.506123 0
M  V30 3237 H 330.513 -0.031719 0.746326 0
M  V30 3238 H 333.175 0.626995 1.84539 0
M  V30 3239 H 332.271 -0.225995 3.11281 0
M  V30 3240 N 332.573 -1.56217 0.208337 0
M  V30 3241 C 333.989 -1.58919 -0.14729 0
M  V30 3242 C 334.189 -1.22486 -1.59998 0
M  V30 3243 O 333.245 -0.953849 -2.3379 0
M  V30 3244 C 334.558 -3.00236 0.167048 0
M  V30 3245 C 336.106 -3.12813 0.108219 0
M  V30 3246 C 336.581 -4.56284 0.396049 0
M  V30 3247 N 338.072 -4.61912 0.345142 0
M  V30 3248 C 338.807 -5.70837 0.541523 0
M  V30 3249 N 338.303 -6.88178 0.798968 0
M  V30 3250 N 340.096 -5.60091 0.474867 0
M  V30 3251 H 332.247 -1.78177 1.15614 0
M  V30 3252 H 334.51 -0.827555 0.462446 0
M  V30 3253 H 334.216 -3.31499 1.1748 0
M  V30 3254 H 334.09 -3.7354 -0.524184 0
M  V30 3255 H 336.477 -2.81354 -0.890157 0
M  V30 3256 H 336.558 -2.41866 0.832729 0
M  V30 3257 H 336.202 -4.88458 1.3918 0
M  V30 3258 H 336.132 -5.25439 -0.349502 0
M  V30 3259 H 338.623 -3.77589 0.153316 0
M  V30 3260 H 338.936 -7.67095 0.93727 0
M  V30 3261 H 337.281 -6.89953 0.836013 0
M  V30 3262 H 340.472 -4.67297 0.274064 0
M  V30 3263 H 340.645 -6.44917 0.631326 0
M  V30 3264 N 334.051 0.0651679 -1.57465 0
M  V30 3265 C 334.998 1.07675 -2.04144 0
M  V30 3266 C 335.968 1.38071 -0.923335 0
M  V30 3267 O 337.153 1.49026 -1.19146 0
M  V30 3268 C 334.293 2.38337 -2.49579 0
M  V30 3269 C 333.406 2.14413 -3.75035 0
M  V30 3270 C 332.541 3.38686 -4.09225 0
M  V30 3271 C 331.58 3.10156 -5.27702 0
M  V30 3272 N 330.717 4.26778 -5.57499 0
M  V30 3273 H 335.557 0.671716 -2.90331 0
M  V30 3274 H 333.094 0.3201 -1.43575 0
M  V30 3275 H 335.052 3.14632 -2.73975 0
M  V30 3276 H 333.682 2.7663 -1.6636 0
M  V30 3277 H 332.734 1.2878 -3.57939 0
M  V30 3278 H 334.046 1.89344 -4.61466 0
M  V30 3279 H 333.2 4.23373 -4.34558 0
M  V30 3280 H 331.939 3.66837 -3.21374 0
M  V30 3281 H 330.944 2.23866 -5.02159 0
M  V30 3282 H 332.169 2.8332 -6.17176 0
M  V30 3283 H 330.115 4.54948 -4.72608 0
M  V30 3284 H 330.032 4.05005 -6.38362 0
M  V30 3285 H 331.3 5.12443 -5.87386 0
M  V30 3286 N 335.529 1.53961 0.336706 0
M  V30 3287 C 336.754 1.75797 1.10046 0
M  V30 3288 C 337.179 0.498985 1.81361 0
M  V30 3289 O 336.537 -0.548769 1.72795 0
M  V30 3290 C 336.585 2.94257 2.08436 0
M  V30 3291 O 335.689 2.64883 3.16087 0
M  V30 3292 H 335.03 0.582936 0.317934 0
M  V30 3293 H 337.56 2.00945 0.38501 0
M  V30 3294 H 337.57 3.21237 2.51537 0
M  V30 3295 H 336.245 3.85564 1.55927 0
M  V30 3296 H 334.822 2.48812 2.77753 0
M  V30 3297 N 337.007 -0.598083 1.45811 0
M  V30 3298 C 338.253 -1.35882 1.50545 0
M  V30 3299 C 338.586 -1.93616 0.150445 0
M  V30 3300 O 337.861 -1.75604 -0.83628 0
M  V30 3301 C 338.144 -2.49966 2.59208 0
M  V30 3302 C 337.997 -1.97367 4.04186 0
M  V30 3303 C 339.316 -3.52068 2.64076 0
M  V30 3304 H 336.435 -0.492717 0.548087 0
M  V30 3305 H 339.077 -0.673319 1.77669 0
M  V30 3306 H 337.227 -3.08443 2.3621 0
M  V30 3307 H 338.899 -1.43466 4.38423 0
M  V30 3308 H 337.142 -1.283 4.14393 0
M  V30 3309 H 337.813 -2.79649 4.75921 0
M  V30 3310 H 340.289 -3.03448 2.84708 0
M  V30 3311 H 339.165 -4.2937 3.41954 0
M  V30 3312 H 339.426 -4.08304 1.69531 0
M  V30 3313 N 338.485 -1.33259 -0.841409 0
M  V30 3314 C 339.448 -1.23221 -1.9326 0
M  V30 3315 C 340.448 -0.151895 -1.60081 0
M  V30 3316 O 341.638 -0.403246 -1.69468 0
M  V30 3317 C 338.77 -0.898123 -3.28856 0
M  V30 3318 H 339.963 -2.2021 -2.03587 0
M  V30 3319 H 337.516 -1.17281 -1.03319 0
M  V30 3320 H 338.251 0.0693841 -3.24226 0
M  V30 3321 H 338.036 -1.67934 -3.54317 0
M  V30 3322 H 339.526 -0.852563 -4.08805 0
M  V30 3323 N 339.963 1.05934 -1.16686 0
M  V30 3324 C 341.209 1.79211 -0.962023 0
M  V30 3325 C 341.564 1.85667 0.504545 0
M  V30 3326 O 340.857 1.33991 1.36956 0
M  V30 3327 C 341.051 3.23105 -1.52767 0
M  V30 3328 C 340.88 3.30673 -3.04771 0
M  V30 3329 C 339.65 3.40395 -3.73442 0
M  V30 3330 C 341.848 3.20234 -4.02436 0
M  V30 3331 N 339.83 3.37015 -5.13122 0
M  V30 3332 C 341.201 3.24138 -5.28521 0
M  V30 3333 C 343.256 3.04143 -3.9421 0
M  V30 3334 C 341.959 3.13607 -6.47336 0
M  V30 3335 C 343.985 2.94951 -5.12599 0
M  V30 3336 C 343.347 2.99481 -6.37566 0
M  V30 3337 H 339.446 0.668442 -0.405844 0
M  V30 3338 H 342.03 1.26341 -1.48142 0
M  V30 3339 H 340.201 3.74364 -1.03471 0
M  V30 3340 H 341.933 3.84579 -1.26021 0
M  V30 3341 H 338.688 3.45344 -3.2409 0
M  V30 3342 H 339.112 3.38815 -5.86117 0
M  V30 3343 H 343.754 2.99484 -2.98445 0
M  V30 3344 H 341.472 3.17022 -7.43319 0
M  V30 3345 H 345.058 2.83583 -5.08008 0
M  V30 3346 H 343.938 2.92431 -7.27636 0
M  V30 3347 N 341.441 0.965919 1.2453 0
M  V30 3348 C 342.689 0.625593 1.92174 0
M  V30 3349 C 343.01 -0.841652 1.75901 0
M  V30 3350 O 342.28 -1.60061 1.12948 0
M  V30 3351 H 340.86 0.228388 0.71123 0
M  V30 3352 H 343.522 1.2266 1.51461 0
M  V30 3353 H 342.618 0.864653 2.99884 0
M  V30 3354 N 342.919 -1.39368 0.735821 0
M  V30 3355 C 344.159 -2.02349 0.288813 0
M  V30 3356 C 344.523 -1.57127 -1.10341 0
M  V30 3357 O 345.724 -2.12312 -1.64854 0
M  V30 3358 C 343.995 -3.55288 0.387986 0
M  V30 3359 S 345.554 -4.38795 0.0209408 0
M  V30 3360 H 342.372 -0.701944 0.113115 0
M  V30 3361 H 344.974 -1.70164 0.962518 0
M  V30 3362 H 343.678 -3.85691 1.40252 0
M  V30 3363 H 343.209 -3.92227 -0.303512 0
M  V30 3364 H 345.224 -4.81595 -1.19503 0
M  V30 3365 N 344.397 -0.483516 -1.5 0
M  V30 3366 C 345.643 0.0672592 -2.02688 0
M  V30 3367 C 345.976 1.38247 -1.36387 0
M  V30 3368 O 345.251 1.88131 -0.493675 0
M  V30 3369 C 345.534 0.238109 -3.59312 0
M  V30 3370 C 345.387 -1.099 -4.36168 0
M  V30 3371 C 346.706 0.986916 -4.28892 0
M  V30 3372 H 343.825 0.0229696 -0.736642 0
M  V30 3373 H 346.467 -0.631527 -1.79197 0
M  V30 3374 H 344.617 0.8333 -3.79458 0
M  V30 3375 H 346.289 -1.73172 -4.27562 0
M  V30 3376 H 344.532 -1.69261 -3.99416 0
M  V30 3377 H 345.203 -0.932954 -5.44059 0
M  V30 3378 H 347.679 0.482302 -4.13295 0
M  V30 3379 H 346.555 1.07527 -5.38265 0
M  V30 3380 H 346.816 2.0265 -3.92919 0
M  V30 3381 N 345.875 1.56104 -0.216619 0
M  V30 3382 C 347.123 1.97781 0.415593 0
M  V30 3383 C 347.444 1.10536 1.60645 0
M  V30 3384 O 346.714 0.181303 1.95059 0
M  V30 3385 H 345.294 0.730415 0.156534 0
M  V30 3386 H 347.956 1.92445 -0.308366 0
M  V30 3387 H 347.052 3.03072 0.74525 0
M  V30 3388 N 347.353 -0.0568162 1.57498 0
M  V30 3389 C 348.602 -0.752001 1.87157 0
M  V30 3390 C 348.915 -1.77978 0.811375 0
M  V30 3391 O 350.121 -2.52559 0.996293 0
M  V30 3392 C 348.577 -1.38844 3.3204 0
M  V30 3393 C 348.185 -0.398456 4.46225 0
M  V30 3394 C 349.929 -2.06512 3.70882 0
M  V30 3395 C 347.836 -1.04166 5.82154 0
M  V30 3396 H 346.766 -0.28461 0.698222 0
M  V30 3397 H 349.417 -0.00561272 1.83499 0
M  V30 3398 H 347.799 -2.1836 3.30356 0
M  V30 3399 H 348.973 0.367977 4.59328 0
M  V30 3400 H 347.288 0.174592 4.16034 0
M  V30 3401 H 349.885 -2.55437 4.6974 0
M  V30 3402 H 350.228 -2.87117 3.01445 0
M  V30 3403 H 350.761 -1.33808 3.7462 0
M  V30 3404 H 347.5 -0.275614 6.5492 0
M  V30 3405 H 347.02 -1.7786 5.72823 0
M  V30 3406 H 348.699 -1.55715 6.27982 0
M  V30 3407 N 348.832 -1.54138 -0.328536 0
M  V30 3408 C 349.762 -1.86167 -1.40939 0
M  V30 3409 C 350.743 -0.718044 -1.54202 0
M  V30 3410 O 351.928 -0.971328 -1.68163 0
M  V30 3411 C 349.058 -2.08461 -2.77779 0
M  V30 3412 C 348.012 -3.24299 -2.7931 0
M  V30 3413 C 347.338 -3.31955 -4.19178 0
M  V30 3414 C 348.638 -4.62065 -2.43502 0
M  V30 3415 H 350.332 -2.76689 -1.14383 0
M  V30 3416 H 347.878 -1.33132 -0.548806 0
M  V30 3417 H 349.831 -2.29453 -3.53454 0
M  V30 3418 H 348.555 -1.14684 -3.05802 0
M  V30 3419 H 347.214 -3.03187 -2.0609 0
M  V30 3420 H 346.862 -2.35745 -4.44335 0
M  V30 3421 H 346.562 -4.09805 -4.2111 0
M  V30 3422 H 348.086 -3.55175 -4.96672 0
M  V30 3423 H 349.5 -4.8297 -3.08889 0
M  V30 3424 H 347.897 -5.42429 -2.56693 0
M  V30 3425 H 348.967 -4.64652 -1.38659 0
M  V30 3426 N 350.31 0.590341 -1.46126 0
M  V30 3427 C 351.726 0.912917 -1.30912 0
M  V30 3428 C 351.926 1.99616 -0.274893 0
M  V30 3429 O 350.982 2.50397 0.325197 0
M  V30 3430 C 352.295 1.3375 -2.69317 0
M  V30 3431 C 353.843 1.45077 -2.77348 0
M  V30 3432 C 354.318 1.90904 -4.16317 0
M  V30 3433 N 355.809 1.9811 -4.18696 0
M  V30 3434 C 356.544 2.34828 -5.23109 0
M  V30 3435 N 356.04 2.70393 -6.37856 0
M  V30 3436 N 357.833 2.35317 -5.10473 0
M  V30 3437 H 349.984 -0.125358 -2.1203 0
M  V30 3438 H 352.247 0.00658481 -0.947977 0
M  V30 3439 H 351.953 0.615614 -3.4627 0
M  V30 3440 H 351.827 2.30058 -2.9892 0
M  V30 3441 H 354.214 2.16353 -2.00687 0
M  V30 3442 H 354.295 0.4704 -2.51438 0
M  V30 3443 H 353.939 1.20209 -4.9347 0
M  V30 3444 H 353.869 2.89886 -4.39629 0
M  V30 3445 H 356.36 1.73146 -3.359 0
M  V30 3446 H 356.673 2.97341 -7.13308 0
M  V30 3447 H 355.018 2.68048 -6.41229 0
M  V30 3448 H 358.209 2.0695 -4.19868 0
M  V30 3449 H 358.382 2.63605 -5.9196 0
M  V30 3450 N 351.788 1.33704 0.83433 0
M  V30 3451 C 352.751 1.24244 1.92603 0
M  V30 3452 C 353.751 0.160383 1.59998 0
M  V30 3453 O 354.941 0.412228 1.69252 0
M  V30 3454 C 352.073 0.91555 3.28376 0
M  V30 3455 H 353.266 2.21287 2.02416 0
M  V30 3456 H 350.819 1.17827 1.02696 0
M  V30 3457 H 351.554 -0.0521886 3.24258 0
M  V30 3458 H 351.339 1.69811 3.53422 0
M  V30 3459 H 352.829 0.874231 4.08347 0
M  V30 3460 N 353.266 -1.05314 1.17247 0
M  V30 3461 C 354.506 -1.79869 0.970898 0
M  V30 3462 C 354.87 -1.85594 -0.491808 0
M  V30 3463 O 356.071 -2.56229 -0.812409 0
M  V30 3464 C 354.342 -3.19937 1.59295 0
M  V30 3465 S 355.901 -4.10986 1.53741 0
M  V30 3466 H 352.719 -0.61949 0.348931 0
M  V30 3467 H 355.321 -1.26368 1.49169 0
M  V30 3468 H 354.025 -3.13372 2.65003 0
M  V30 3469 H 353.556 -3.78515 1.07191 0
M  V30 3470 H 355.571 -4.93203 0.544537 0
M  V30 3471 N 354.744 -0.972509 -1.24016 0
M  V30 3472 C 356.16 -0.679827 -1.44397 0
M  V30 3473 C 356.36 0.756716 -1.86751 0
M  V30 3474 O 355.416 1.53007 -2.00861 0
M  V30 3475 C 356.729 -1.66803 -2.50195 0
M  V30 3476 C 358.277 -1.68119 -2.64017 0
M  V30 3477 C 358.752 -2.65748 -3.73017 0
M  V30 3478 N 360.243 -2.64219 -3.8045 0
M  V30 3479 C 360.978 -3.36433 -4.64328 0
M  V30 3480 N 360.474 -4.1818 -5.52356 0
M  V30 3481 N 362.267 -3.25235 -4.58453 0
M  V30 3482 H 354.418 -1.90059 -0.948228 0
M  V30 3483 H 356.681 -0.818527 -0.478245 0
M  V30 3484 H 356.387 -2.69498 -2.25973 0
M  V30 3485 H 356.261 -1.4446 -3.48441 0
M  V30 3486 H 358.648 -0.661319 -2.87594 0
M  V30 3487 H 358.729 -1.94525 -1.66113 0
M  V30 3488 H 358.373 -3.67872 -3.50189 0
M  V30 3489 H 358.303 -2.36619 -4.70446 0
M  V30 3490 H 360.794 -2.04887 -3.17537 0
M  V30 3491 H 361.107 -4.70157 -6.13329 0
M  V30 3492 H 359.452 -4.22273 -5.52006 0
M  V30 3493 H 362.643 -2.60829 -3.88698 0
M  V30 3494 H 362.816 -3.81776 -5.23594 0
M  V30 3495 N 356.222 1.38976 -0.743202 0
M  V30 3496 C 357.45 2.04636 -0.30525 0
M  V30 3497 C 357.865 1.56044 1.06281 0
M  V30 3498 O 357.222 0.728921 1.67311 0
M  V30 3499 C 357.273 3.60193 -0.307177 0
M  V30 3500 O 356.994 4.06998 -1.62124 0
M  V30 3501 C 358.495 4.4306 0.145928 0
M  V30 3502 H 355.715 0.65788 -0.132041 0
M  V30 3503 H 358.259 1.77866 -1.00915 0
M  V30 3504 H 356.414 3.85835 0.347898 0
M  V30 3505 H 356.828 5.01371 -1.54036 0
M  V30 3506 H 358.302 5.51921 0.0934183 0
M  V30 3507 H 358.779 4.22706 1.19231 0
M  V30 3508 H 359.385 4.22584 -0.479886 0
M  V30 3509 N 357.7 0.491464 1.49741 0
M  V30 3510 C 358.663 -0.280906 2.27472 0
M  V30 3511 C 359.663 -0.902454 1.33088 0
M  V30 3512 O 360.853 -0.768465 1.56334 0
M  V30 3513 C 357.985 -1.40209 3.10732 0
M  V30 3514 H 359.178 0.401056 2.97206 0
M  V30 3515 H 356.731 0.246131 1.5435 0
M  V30 3516 H 357.466 -2.11849 2.45541 0
M  V30 3517 H 357.251 -0.961969 3.80117 0
M  V30 3518 H 358.741 -1.9464 3.69466 0
M  V30 3519 N 359.178 -1.55987 0.224894 0
M  V30 3520 C 360.141 -2.19178 -0.670348 0
M  V30 3521 C 361.141 -1.15461 -1.11917 0
M  V30 3522 O 362.331 -1.40675 -1.02743 0
M  V30 3523 C 359.463 -2.81777 -1.9187 0
M  V30 3524 H 360.656 -2.99662 -0.119364 0
M  V30 3525 H 358.209 -1.5628 -0.0247128 0
M  V30 3526 H 358.944 -2.05172 -2.51147 0
M  V30 3527 H 358.729 -3.57732 -1.60531 0
M  V30 3528 H 360.219 -3.30205 -2.55645 0
M  V30 3529 N 360.656 0.0484629 -1.57525 0
M  V30 3530 C 361.902 0.744226 -1.88651 0
M  V30 3531 C 362.235 1.76029 -0.820212 0
M  V30 3532 O 361.51 1.93782 0.166985 0
M  V30 3533 C 361.793 1.43128 -3.30434 0
M  V30 3534 C 361.646 0.43005 -4.47739 0
M  V30 3535 C 362.965 2.37031 -3.70816 0
M  V30 3536 H 360.084 0.269089 -0.68612 0
M  V30 3537 H 362.726 0.00713532 -1.89999 0
M  V30 3538 H 360.876 2.05956 -3.29415 0
M  V30 3539 H 362.548 -0.194816 -4.60888 0
M  V30 3540 H 360.791 -0.252522 -4.33064 0
M  V30 3541 H 361.462 0.948874 -5.43783 0
M  V30 3542 H 363.938 1.84263 -3.73077 0
M  V30 3543 H 362.814 2.82094 -4.70865 0
M  V30 3544 H 363.075 3.22864 -3.02012 0
M  V30 3545 N 362.134 1.5431 0.320358 0
M  V30 3546 C 363.097 1.83195 1.3774 0
M  V30 3547 C 364.097 0.703906 1.44575 0
M  V30 3548 O 365.287 0.972214 1.44546 0
M  V30 3549 C 362.419 1.99487 2.76438 0
M  V30 3550 H 363.612 2.77642 1.1338 0
M  V30 3551 H 361.165 1.46076 0.556012 0
M  V30 3552 H 361.9 1.07262 3.06048 0
M  V30 3553 H 361.685 2.81575 2.7287 0
M  V30 3554 H 363.175 2.23271 3.52902 0
M  V30 3555 N 363.613 -0.582584 1.46437 0
M  V30 3556 C 364.563 -1.68654 1.53426 0
M  V30 3557 C 365.547 -1.55971 0.395194 0
M  V30 3558 O 366.739 -1.64884 0.643612 0
M  V30 3559 C 363.868 -3.07439 1.52762 0
M  V30 3560 C 362.954 -3.25418 2.71963 0
M  V30 3561 N 363.345 -3.13556 3.96883 0
M  V30 3562 C 361.643 -3.56357 2.68189 0
M  V30 3563 C 362.344 -3.33543 4.76575 0
M  V30 3564 N 361.32 -3.58704 4.08451 0
M  V30 3565 H 365.122 -1.58014 2.47808 0
M  V30 3566 H 362.636 -0.786617 1.42078 0
M  V30 3567 H 364.633 -3.86671 1.55857 0
M  V30 3568 H 363.293 -3.1921 0.594573 0
M  V30 3569 H 364.304 -2.9142 4.28129 0
M  V30 3570 H 360.981 -3.74812 1.83908 0
M  V30 3571 H 362.371 -3.29555 5.85528 0
M  V30 3572 N 365.091 -1.34144 -0.827227 0
M  V30 3573 C 366.054 -1.25264 -1.91942 0
M  V30 3574 C 367.054 -0.168866 -1.59911 0
M  V30 3575 O 368.244 -0.421198 -1.69031 0
M  V30 3576 C 365.376 -0.932952 -3.27885 0
M  V30 3577 H 366.569 -2.22357 -2.0124 0
M  V30 3578 H 364.122 -1.1837 -1.0207 0
M  V30 3579 H 364.857 0.0349917 -3.24281 0
M  V30 3580 H 364.642 -1.71682 -3.52516 0
M  V30 3581 H 366.132 -0.895874 -4.07877 0
M  V30 3582 N 366.569 1.04691 -1.17803 0
M  V30 3583 C 367.985 1.29963 -0.926379 0
M  V30 3584 C 368.185 1.97251 0.411635 0
M  V30 3585 O 367.241 2.24922 1.14744 0
M  V30 3586 C 368.554 2.16447 -2.08737 0
M  V30 3587 C 370.102 2.29814 -2.12496 0
M  V30 3588 C 370.577 3.19661 -3.27995 0
M  V30 3589 N 372.068 3.27247 -3.27816 0
M  V30 3590 C 372.803 3.96906 -4.13827 0
M  V30 3591 N 372.299 4.6895 -5.09959 0
M  V30 3592 N 374.092 3.93122 -4.01761 0
M  V30 3593 H 366.243 0.594182 -2.0392 0
M  V30 3594 H 368.506 0.324649 -0.890678 0
M  V30 3595 H 368.212 1.74304 -3.05469 0
M  V30 3596 H 368.086 3.17103 -2.04268 0
M  V30 3597 H 370.473 2.71196 -1.16347 0
M  V30 3598 H 370.554 1.2877 -2.21025 0
M  V30 3599 H 370.198 2.78991 -4.24413 0
M  V30 3600 H 370.128 4.20722 -3.16703 0
M  V30 3601 H 372.619 2.75921 -2.58217 0
M  V30 3602 H 372.932 5.19679 -5.71974 0
M  V30 3603 H 371.277 4.67875 -5.13924 0
M  V30 3604 H 374.468 3.35967 -3.2595 0
M  V30 3605 H 374.641 4.47139 -4.6901 0
M  V30 3606 N 368.047 0.979072 1.23499 0
M  V30 3607 C 369.275 0.665202 1.95915 0
M  V30 3608 C 369.69 -0.767571 1.72493 0
M  V30 3609 O 369.047 -1.51635 1.01554 0
M  V30 3610 C 369.098 0.944438 3.48945 0
M  V30 3611 O 368.819 2.3209 3.71572 0
M  V30 3612 C 370.32 0.646336 4.38563 0
M  V30 3613 H 367.54 0.247218 0.623798 0
M  V30 3614 H 370.084 1.31009 1.57025 0
M  V30 3615 H 368.239 0.345575 3.85856 0
M  V30 3616 H 368.653 2.40957 4.65876 0
M  V30 3617 H 370.127 0.892091 5.44744 0
M  V30 3618 H 370.604 -0.419575 4.37191 0
M  V30 3619 H 371.21 1.22562 4.07258 0
M  V30 3620 N 369.525 -1.3858 0.750561 0
M  V30 3621 C 370.941 -1.53759 0.427824 0
M  V30 3622 C 371.141 -1.71401 -1.05943 0
M  V30 3623 O 370.197 -1.72331 -1.84549 0
M  V30 3624 C 371.51 -2.74642 1.22443 0
M  V30 3625 C 373.058 -2.88489 1.2142 0
M  V30 3626 C 373.533 -4.12329 1.9937 0
M  V30 3627 N 375.024 -4.194 1.96616 0
M  V30 3628 C 375.759 -5.14209 2.53727 0
M  V30 3629 N 375.255 -6.14709 3.19539 0
M  V30 3630 N 377.048 -5.06537 2.43673 0
M  V30 3631 H 369.199 -1.25377 1.71447 0
M  V30 3632 H 371.462 -0.608844 0.726645 0
M  V30 3633 H 371.168 -2.68 2.27747 0
M  V30 3634 H 371.042 -3.67745 0.839273 0
M  V30 3635 H 373.429 -2.94614 0.169232 0
M  V30 3636 H 373.51 -1.96406 1.63885 0
M  V30 3637 H 373.154 -4.06966 3.03877 0
M  V30 3638 H 373.084 -5.03486 1.54302 0
M  V30 3639 H 375.575 -3.47421 1.48684 0
M  V30 3640 H 375.888 -6.8354 3.60545 0
M  V30 3641 H 374.233 -6.1505 3.23633 0
M  V30 3642 H 377.424 -4.26962 1.91889 0
M  V30 3643 H 377.597 -5.80245 2.88479 0
M  V30 3644 N 371.003 -0.499398 -1.49478 0
M  V30 3645 C 371.913 0.284489 -2.32869 0
M  V30 3646 C 372.929 0.968885 -1.44529 0
M  V30 3647 O 374.105 0.95062 -1.77553 0
M  V30 3648 C 371.17 1.33594 -3.19928 0
M  V30 3649 C 370.231 0.665149 -4.24116 0
M  V30 3650 C 369.464 1.6665 -5.07014 0
M  V30 3651 O 369.687 2.89618 -4.91404 0
M  V30 3652 O 368.621 1.22271 -5.8935 0
M  V30 3653 H 372.447 -0.39802 -3.01081 0
M  V30 3654 H 370.032 -0.260758 -1.47107 0
M  V30 3655 H 371.914 1.94431 -3.73864 0
M  V30 3656 H 370.589 2.0014 -2.54412 0
M  V30 3657 H 369.496 0.0170769 -3.74096 0
M  V30 3658 H 370.829 0.0421555 -4.92182 0
M  V30 3659 N 372.481 1.55866 -0.233164 0
M  V30 3660 C 373.413 2.18099 0.704668 0
M  V30 3661 C 374.426 1.15334 1.14899 0
M  V30 3662 O 375.615 1.42262 1.07814 0
M  V30 3663 C 372.715 2.7592 1.96777 0
M  V30 3664 C 371.888 4.03969 1.67713 0
M  V30 3665 C 370.947 4.46242 2.78845 0
M  V30 3666 O 369.973 5.12903 2.46818 0
M  V30 3667 N 371.175 4.12886 4.08051 0
M  V30 3668 H 373.94 2.99205 0.172258 0
M  V30 3669 H 371.501 1.61815 -0.0525945 0
M  V30 3670 H 373.493 3.01165 2.70337 0
M  V30 3671 H 372.063 1.99051 2.41034 0
M  V30 3672 H 371.283 3.86459 0.777391 0
M  V30 3673 H 372.571 4.8748 1.4574 0
M  V30 3674 H 371.969 3.59342 4.3691 0
M  V30 3675 H 370.526 4.42997 4.78118 0
M  V30 3676 N 373.959 -0.0401083 1.57549 0
M  V30 3677 C 375.206 -0.733125 1.88763 0
M  V30 3678 C 375.534 -1.75946 0.829058 0
M  V30 3679 O 374.789 -1.94949 -0.171323 0
M  V30 3680 C 375.088 -1.44902 3.26708 0
M  V30 3681 C 374.754 -0.559707 4.47413 0
M  V30 3682 C 373.416 -0.314731 4.8017 0
M  V30 3683 C 375.768 0.0549743 5.21171 0
M  V30 3684 C 373.096 0.553886 5.8408 0
M  V30 3685 C 375.448 0.911229 6.26003 0
M  V30 3686 C 374.112 1.16577 6.57241 0
M  V30 3687 H 373.382 -0.268269 0.690733 0
M  V30 3688 H 376.029 0.00679408 1.91499 0
M  V30 3689 H 374.334 -2.26197 3.1991 0
M  V30 3690 H 376.031 -1.99058 3.48105 0
M  V30 3691 H 372.621 -0.760793 4.21794 0
M  V30 3692 H 376.805 -0.121344 4.96152 0
M  V30 3693 H 372.061 0.759518 6.06664 0
M  V30 3694 H 376.235 1.3941 6.82303 0
M  V30 3695 H 373.862 1.84058 7.37582 0
M  V30 3696 N 375.437 -1.54477 -0.31217 0
M  V30 3697 C 376.685 -1.72884 -1.04668 0
M  V30 3698 C 377.006 -0.511477 -1.88173 0
M  V30 3699 O 376.276 0.474407 -1.90069 0
M  V30 3700 H 374.856 -0.637461 -0.389425 0
M  V30 3701 H 377.518 -1.91807 -0.345852 0
M  V30 3702 H 376.614 -2.61334 -1.70619 0
M  V30 3703 N 376.915 0.57481 -1.46744 0
M  V30 3704 C 378.331 0.898981 -1.31873 0
M  V30 3705 C 378.531 1.99313 -0.29605 0
M  V30 3706 O 377.587 2.50728 0.298621 0
M  V30 3707 C 378.9 1.30886 -2.7072 0
M  V30 3708 C 380.448 1.42127 -2.78871 0
M  V30 3709 C 380.923 1.86478 -4.18318 0
M  V30 3710 N 382.414 1.93658 -4.20774 0
M  V30 3711 C 383.149 2.29267 -5.2557 0
M  V30 3712 N 382.645 2.63612 -6.40688 0
M  V30 3713 N 384.438 2.29889 -5.1294 0
M  V30 3714 H 376.589 -0.147839 -2.11885 0
M  V30 3715 H 378.852 -0.00347013 -0.947994 0
M  V30 3716 H 378.558 0.578853 -3.46904 0
M  V30 3717 H 378.432 2.26874 -3.01343 0
M  V30 3718 H 380.819 2.14213 -2.0297 0
M  V30 3719 H 380.9 0.443705 -2.51922 0
M  V30 3720 H 380.544 1.14968 -4.94717 0
M  V30 3721 H 380.474 2.85207 -4.42679 0
M  V30 3722 H 382.965 1.69574 -3.37718 0
M  V30 3723 H 383.278 2.89759 -7.16421 0
M  V30 3724 H 381.623 2.61232 -6.44036 0
M  V30 3725 H 384.814 2.02485 -4.22039 0
M  V30 3726 H 384.987 2.57312 -5.94722 0
M  V30 3727 N 378.394 1.34581 0.820102 0
M  V30 3728 C 379.805 1.24298 1.39309 0
M  V30 3729 C 380.156 -0.130351 1.95767 0
M  V30 3730 O 379.281 -1.0308 1.90272 0
M  V30 3731 C 379.876 2.25054 2.53251 0
M  V30 3732 C 378.435 2.18552 3.0645 0
M  V30 3733 C 377.582 2.11503 1.79337 0
M  V30 3734 H 380.533 1.45906 0.624262 0
M  V30 3735 H 380.554 1.86917 3.31425 0
M  V30 3736 H 380.066 3.24996 2.1213 0
M  V30 3737 H 378.167 1.21976 3.52069 0
M  V30 3738 H 378.28 3.0993 3.65349 0
M  V30 3739 H 376.644 1.57268 2.00347 0
M  V30 3740 H 377.427 3.13284 1.40386 0
M  V30 3741 N 379.872 -1.04064 1.18357 0
M  V30 3742 C 380.802 -2.14001 0.934113 0
M  V30 3743 C 381.783 -1.69616 -0.128186 0
M  V30 3744 O 382.968 -1.94185 0.0244093 0
M  V30 3745 C 380.098 -3.44253 0.459066 0
M  V30 3746 C 379.052 -4.02261 1.46185 0
M  V30 3747 C 378.378 -5.27992 0.844322 0
M  V30 3748 C 379.678 -4.38432 2.83856 0
M  V30 3749 H 381.372 -2.35127 1.85352 0
M  V30 3750 H 378.918 -1.12998 0.892604 0
M  V30 3751 H 380.871 -4.20522 0.271907 0
M  V30 3752 H 379.595 -3.22813 -0.495912 0
M  V30 3753 H 378.254 -3.28074 1.63595 0
M  V30 3754 H 377.902 -5.02862 -0.117845 0
M  V30 3755 H 377.602 -5.67765 1.51384 0
M  V30 3756 H 379.126 -6.06938 0.667693 0
M  V30 3757 H 380.54 -5.05688 2.70098 0
M  V30 3758 H 378.937 -4.89254 3.47491 0
M  V30 3759 H 380.007 -3.4826 3.37406 0
M  V30 3760 N 381.35 -0.985608 -1.22978 0
M  V30 3761 C 382.598 -0.656087 -1.91154 0
M  V30 3762 C 382.919 0.813561 -1.77218 0
M  V30 3763 O 382.189 1.58244 -1.1548 0
M  V30 3764 H 380.769 -0.239674 -0.707506 0
M  V30 3765 H 383.431 -1.25054 -1.49491 0
M  V30 3766 H 382.527 -0.912253 -2.9847 0
M  V30 3767 N 382.828 1.3818 -0.7579 0
M  V30 3768 C 384.105 1.94106 -0.241306 0
M  V30 3769 C 384.485 1.69282 1.26122 0
M  V30 3770 O 383.833 1.03378 2.03777 0
M  V30 3771 C 384.043 3.43809 -0.59967 0
M  V30 3772 C 385.391 4.20868 -0.561717 0
M  V30 3773 O 386.415 3.5211 -0.538222 0
M  V30 3774 O 385.274 5.43451 -0.576478 0
M  V30 3775 H 382.368 0.825376 -0.0518042 0
M  V30 3776 H 384.914 1.47548 -0.838315 0
M  V30 3777 H 383.686 3.55403 -1.6372 0
M  V30 3778 H 383.309 3.97592 0.0251197 0
M  V30 3779 N 384.306 0.507319 1.49211 0
M  V30 3780 C 385.256 -0.287112 2.26185 0
M  V30 3781 C 386.24 -0.929983 1.31302 0
M  V30 3782 O 387.432 -0.836538 1.55984 0
M  V30 3783 C 384.561 -1.34718 3.15763 0
M  V30 3784 C 383.647 -0.710235 4.18111 0
M  V30 3785 N 384.038 0.190836 5.0544 0
M  V30 3786 C 382.336 -0.97009 4.35322 0
M  V30 3787 C 383.037 0.55606 5.79036 0
M  V30 3788 N 382.013 -0.0775232 5.43545 0
M  V30 3789 H 385.815 0.406445 2.91076 0
M  V30 3790 H 383.329 0.323814 1.59139 0
M  V30 3791 H 385.326 -1.92982 3.69545 0
M  V30 3792 H 383.986 -2.04235 2.52424 0
M  V30 3793 H 384.997 0.562047 5.14841 0
M  V30 3794 H 381.674 -1.65753 3.83187 0
M  V30 3795 H 383.064 1.2936 6.5933 0
M  V30 3796 N 385.784 -1.5574 0.241426 0
M  V30 3797 C 386.716 -2.18469 -0.693091 0
M  V30 3798 C 387.729 -1.15942 -1.14286 0
M  V30 3799 O 388.918 -1.42832 -1.07058 0
M  V30 3800 C 386.018 -2.7696 -1.95311 0
M  V30 3801 C 385.191 -4.04853 -1.65568 0
M  V30 3802 C 384.25 -4.47715 -2.76474 0
M  V30 3803 O 383.276 -5.14205 -2.44094 0
M  V30 3804 N 384.478 -4.15044 -4.05855 0
M  V30 3805 H 387.243 -2.99292 -0.156388 0
M  V30 3806 H 384.804 -1.61784 0.0611752 0
M  V30 3807 H 386.796 -3.02594 -2.68736 0
M  V30 3808 H 385.366 -2.00326 -2.39975 0
M  V30 3809 H 384.586 -3.86865 -0.756886 0
M  V30 3810 H 385.874 -4.88246 -1.43153 0
M  V30 3811 H 385.272 -3.61654 -4.34998 0
M  V30 3812 H 383.829 -4.45526 -4.75762 0
M  V30 3813 N 387.262 0.0317525 -1.57568 0
M  V30 3814 C 388.192 1.03274 -2.0942 0
M  V30 3815 C 389.173 1.3788 -0.996143 0
M  V30 3816 O 390.358 1.46811 -1.27122 0
M  V30 3817 C 387.488 2.33448 -2.57137 0
M  V30 3818 C 386.442 2.13091 -3.71182 0
M  V30 3819 C 385.768 3.49001 -4.05095 0
M  V30 3820 C 387.068 1.51928 -4.99715 0
M  V30 3821 H 388.762 0.60112 -2.93303 0
M  V30 3822 H 386.308 0.287705 -1.41097 0
M  V30 3823 H 388.261 3.03802 -2.92032 0
M  V30 3824 H 386.985 2.78665 -1.70333 0
M  V30 3825 H 385.644 1.45171 -3.36632 0
M  V30 3826 H 385.292 3.91862 -3.15362 0
M  V30 3827 H 384.992 3.36207 -4.81911 0
M  V30 3828 H 386.516 4.20721 -4.42522 0
M  V30 3829 H 387.93 2.12196 -5.32584 0
M  V30 3830 H 386.327 1.49716 -5.81124 0
M  V30 3831 H 387.397 0.484811 -4.8247 0
M  V30 3832 N 388.74 1.54641 0.303973 0
M  V30 3833 C 389.986 1.74038 1.04109 0
M  V30 3834 C 390.319 0.523051 1.87024 0
M  V30 3835 O 389.594 -0.479874 1.88487 0
M  V30 3836 C 389.877 3.02761 1.94955 0
M  V30 3837 C 389.73 4.34787 1.1524 0
M  V30 3838 C 391.049 3.27336 2.94175 0
M  V30 3839 H 388.168 0.63323 0.377079 0
M  V30 3840 H 390.81 1.87354 0.316001 0
M  V30 3841 H 388.96 2.9154 2.56782 0
M  V30 3842 H 390.632 4.57922 0.557236 0
M  V30 3843 H 388.875 4.31407 0.455053 0
M  V30 3844 H 389.546 5.21116 1.8205 0
M  V30 3845 H 392.022 3.38148 2.42477 0
M  V30 3846 H 390.898 4.18726 3.54908 0
M  V30 3847 H 391.159 2.45491 3.67677 0
M  V30 3848 N 390.218 -0.567019 1.47046 0
M  V30 3849 C 391.181 -1.65696 1.58359 0
M  V30 3850 C 392.181 -1.54097 0.459441 0
M  V30 3851 O 393.371 -1.58432 0.724225 0
M  V30 3852 C 390.503 -3.05197 1.51879 0
M  V30 3853 H 391.696 -1.57019 2.5551 0
M  V30 3854 H 389.249 -0.786148 1.3509 0
M  V30 3855 H 389.984 -3.19417 0.560673 0
M  V30 3856 H 389.769 -3.15025 2.33455 0
M  V30 3857 H 391.259 -3.84511 1.62913 0
M  V30 3858 N 391.696 -1.35014 -0.812953 0
M  V30 3859 C 392.944 -1.27678 -1.56661 0
M  V30 3860 C 393.265 0.150359 -1.94419 0
M  V30 3861 O 392.535 1.08532 -1.63088 0
M  V30 3862 H 391.115 -0.469602 -0.580933 0
M  V30 3863 H 393.777 -1.69043 -0.970076 0
M  V30 3864 H 392.873 -1.88833 -2.48492 0
M  V30 3865 N 393.175 1.03435 -1.18907 0
M  V30 3866 C 394.125 2.09924 -0.889706 0
M  V30 3867 C 395.109 1.60261 0.143216 0
M  V30 3868 O 396.301 1.76892 -0.0617122 0
M  V30 3869 C 393.43 3.40669 -0.424168 0
M  V30 3870 C 392.516 3.97082 -1.48952 0
M  V30 3871 N 392.907 4.27227 -2.70759 0
M  V30 3872 C 391.205 4.25029 -1.35152 0
M  V30 3873 C 391.906 4.7246 -3.39347 0
M  V30 3874 N 390.882 4.7366 -2.66735 0
M  V30 3875 H 394.684 2.31116 -1.81555 0
M  V30 3876 H 392.198 1.21246 -1.08042 0
M  V30 3877 H 394.195 4.16461 -0.191176 0
M  V30 3878 H 392.855 3.20901 0.495263 0
M  V30 3879 H 393.866 4.16678 -3.0757 0
M  V30 3880 H 390.543 4.14554 -0.495126 0
M  V30 3881 H 391.933 5.04751 -4.43481 0
M  V30 3882 N 394.653 0.992116 1.22453 0
M  V30 3883 C 395.902 0.662992 1.90492 0
M  V30 3884 C 396.215 -0.808407 1.78113 0
M  V30 3885 O 397.421 -1.24908 2.41061 0
M  V30 3886 C 395.877 1.1353 3.41524 0
M  V30 3887 C 395.485 2.63187 3.62542 0
M  V30 3888 C 397.229 0.880465 4.15269 0
M  V30 3889 C 395.136 3.04024 5.0727 0
M  V30 3890 H 394.066 0.244278 0.713333 0
M  V30 3891 H 396.717 1.20157 1.38688 0
M  V30 3892 H 395.099 0.52485 3.92506 0
M  V30 3893 H 396.273 3.2957 3.22056 0
M  V30 3894 H 394.588 2.86543 3.02129 0
M  V30 3895 H 397.185 1.16128 5.21937 0
M  V30 3896 H 397.528 -0.183408 4.15896 0
M  V30 3897 H 398.061 1.45307 3.70312 0
M  V30 3898 H 394.8 4.09584 5.11782 0
M  V30 3899 H 394.32 2.42343 5.48662 0
M  V30 3900 H 395.999 2.95282 5.75689 0
M  V30 3901 N 396.131 -1.37776 0.765217 0
M  V30 3902 C 397.094 -2.28686 0.153416 0
M  V30 3903 C 398.094 -1.47727 -0.635081 0
M  V30 3904 O 399.284 -1.68027 -0.459632 0
M  V30 3905 C 396.416 -3.31608 -0.790495 0
M  V30 3906 H 397.609 -2.84297 0.954723 0
M  V30 3907 H 395.162 -1.46932 0.53299 0
M  V30 3908 H 395.897 -2.81109 -1.61705 0
M  V30 3909 H 395.682 -3.9144 -0.227348 0
M  V30 3910 H 397.172 -3.99559 -1.21419 0
M  V30 3911 N 397.609 -0.515225 -1.4894 0
M  V30 3912 C 398.886 0.0879088 -1.95402 0
M  V30 3913 C 399.266 1.52745 -1.45712 0
M  V30 3914 O 398.614 2.18238 -0.677093 0
M  V30 3915 C 398.824 -0.0141055 -3.48997 0
M  V30 3916 C 400.172 0.152646 -4.24326 0
M  V30 3917 O 401.196 0.0604025 -3.56149 0
M  V30 3918 O 400.055 0.34384 -5.45417 0
M  V30 3919 H 397.149 0.0874636 -0.822362 0
M  V30 3920 H 399.695 -0.578775 -1.59525 0
M  V30 3921 H 398.467 -1.01745 -3.77841 0
M  V30 3922 H 398.09 0.692091 -3.9153 0
M  V30 3923 N 399.087 1.5561 -0.249682 0
M  V30 3924 C 400.017 2.24477 0.642826 0
M  V30 3925 C 400.998 1.22601 1.17911 0
M  V30 3926 O 402.183 1.5126 1.21795 0
M  V30 3927 C 399.313 2.94638 1.83863 0
M  V30 3928 C 398.267 4.03227 1.435 0
M  V30 3929 C 397.593 4.60828 2.71186 0
M  V30 3930 C 398.893 5.18796 0.604002 0
M  V30 3931 H 400.587 2.99321 0.0685625 0
M  V30 3932 H 398.133 1.43965 0.0315363 0
M  V30 3933 H 400.086 3.41517 2.46868 0
M  V30 3934 H 398.81 2.17287 2.43832 0
M  V30 3935 H 397.469 3.57121 0.828275 0
M  V30 3936 H 397.117 3.80174 3.29358 0
M  V30 3937 H 396.817 5.34132 2.44901 0
M  V30 3938 H 398.341 5.10442 3.35084 0
M  V30 3939 H 399.755 5.61883 1.13842 0
M  V30 3940 H 398.152 5.98506 0.437097 0
M  V30 3941 H 399.222 4.83384 -0.383147 0
M  V30 3942 N 400.565 -0.0233959 1.57583 0
M  V30 3943 C 401.811 -0.708611 1.90657 0
M  V30 3944 C 402.166 -1.7266 0.848895 0
M  V30 3945 O 401.459 -1.91075 -0.141749 0
M  V30 3946 C 401.653 -1.41428 3.28227 0
M  V30 3947 C 401.482 -0.466155 4.47277 0
M  V30 3948 C 400.252 -0.085117 5.05228 0
M  V30 3949 C 402.45 0.257836 5.13653 0
M  V30 3950 N 400.432 0.863672 6.07794 0
M  V30 3951 C 401.803 1.06209 6.10835 0
M  V30 3952 C 403.858 0.324174 4.96844 0
M  V30 3953 C 402.561 1.9266 6.93018 0
M  V30 3954 C 404.587 1.17583 5.79593 0
M  V30 3955 C 403.949 1.96799 6.7635 0
M  V30 3956 H 400.048 -0.233222 0.746412 0
M  V30 3957 H 402.632 0.0314512 1.94675 0
M  V30 3958 H 400.803 -2.12477 3.25128 0
M  V30 3959 H 402.535 -2.05233 3.488 0
M  V30 3960 H 399.29 -0.448516 4.71471 0
M  V30 3961 H 399.714 1.33274 6.63752 0
M  V30 3962 H 404.356 -0.273975 4.21911 0
M  V30 3963 H 402.074 2.53552 7.67292 0
M  V30 3964 H 405.66 1.23076 5.68633 0
M  V30 3965 H 404.54 2.61635 7.39268 0
M  V30 3966 N 402.043 -1.548 -0.295768 0
M  V30 3967 C 403.271 -1.78327 -1.04914 0
M  V30 3968 C 403.686 -0.545316 -1.80753 0
M  V30 3969 O 403.043 0.485013 -1.75937 0
M  V30 3970 C 403.094 -2.99418 -2.02561 0
M  V30 3971 O 402.815 -4.18431 -1.29798 0
M  V30 3972 C 404.316 -3.35375 -2.89895 0
M  V30 3973 H 401.536 -0.594618 -0.310918 0
M  V30 3974 H 404.08 -2.01763 -0.333454 0
M  V30 3975 H 402.235 -2.78175 -2.69624 0
M  V30 3976 H 402.649 -4.86736 -1.95419 0
M  V30 3977 H 404.123 -4.23332 -3.54251 0
M  V30 3978 H 404.6 -2.53761 -3.58472 0
M  V30 3979 H 405.206 -3.58796 -2.28355 0
M  V30 3980 N 403.521 0.559213 -1.47345 0
M  V30 3981 C 404.484 1.64854 -1.59235 0
M  V30 3982 C 405.484 1.53851 -0.467607 0
M  V30 3983 O 406.674 1.58045 -0.732617 0
M  V30 3984 C 403.806 3.04388 -1.53496 0
M  V30 3985 H 404.999 1.55662 -2.56339 0
M  V30 3986 H 402.552 0.778973 -1.35505 0
M  V30 3987 H 403.287 3.19115 -0.577604 0
M  V30 3988 H 403.072 3.13783 -2.35123 0
M  V30 3989 H 404.562 3.83642 -1.6495 0
M  V30 3990 N 404.999 1.35443 0.805782 0
M  V30 3991 C 405.909 1.30546 1.94923 0
M  V30 3992 C 406.925 0.210233 1.72725 0
M  V30 3993 O 408.101 0.43975 1.9654 0
M  V30 3994 C 405.166 1.07782 3.29521 0
M  V30 3995 C 404.227 2.26625 3.64609 0
M  V30 3996 C 403.46 2.04938 4.92784 0
M  V30 3997 O 403.683 1.01624 5.61274 0
M  V30 3998 O 402.617 2.9232 5.26149 0
M  V30 3999 H 406.443 2.26779 2.02002 0
M  V30 4000 H 404.028 1.15823 0.943682 0
M  V30 4001 H 405.91 0.969392 4.10098 0
M  V30 4002 H 404.585 0.146003 3.23371 0
M  V30 4003 H 403.492 2.43033 2.84404 0
M  V30 4004 H 404.825 3.18257 3.75464 0
M  V30 4005 N 406.477 -1.02803 1.19454 0
M  V30 4006 C 407.409 -2.11181 0.890807 0
M  V30 4007 C 408.422 -1.6238 -0.116829 0
M  V30 4008 O 409.611 -1.78144 0.112694 0
M  V30 4009 C 406.711 -3.37461 0.311942 0
M  V30 4010 C 405.884 -4.15446 1.36834 0
M  V30 4011 C 404.943 -5.20039 0.802864 0
M  V30 4012 O 403.969 -5.49602 1.48077 0
M  V30 4013 N 405.171 -5.79165 -0.393417 0
M  V30 4014 H 407.936 -2.37827 1.82369 0
M  V30 4015 H 405.497 -1.19101 1.09666 0
M  V30 4016 H 407.489 -4.0462 -0.0802225 0
M  V30 4017 H 406.059 -3.08156 -0.52524 0
M  V30 4018 H 405.279 -3.43423 1.93531 0
M  V30 4019 H 406.567 -4.64335 2.08015 0
M  V30 4020 H 405.965 -5.57466 -0.961658 0
M  V30 4021 H 404.522 -6.47729 -0.727351 0
M  V30 4022 N 407.956 -0.998596 -1.21925 0
M  V30 4023 C 409.205 -0.673085 -1.90138 0
M  V30 4024 C 409.518 0.79895 -1.78539 0
M  V30 4025 O 410.724 1.23628 -2.4172 0
M  V30 4026 C 409.18 -1.15339 -3.40918 0
M  V30 4027 C 408.788 -2.65106 -3.61141 0
M  V30 4028 C 410.532 -0.902476 -4.14796 0
M  V30 4029 C 408.439 -3.0671 -5.05651 0
M  V30 4030 H 407.369 -0.248057 -0.712028 0
M  V30 4031 H 410.02 -1.20891 -1.38049 0
M  V30 4032 H 408.402 -0.545658 -3.92223 0
M  V30 4033 H 409.576 -3.31274 -3.20304 0
M  V30 4034 H 407.891 -2.88142 -3.00605 0
M  V30 4035 H 410.488 -1.18895 -5.21314 0
M  V30 4036 H 410.831 0.161349 -4.15987 0
M  V30 4037 H 411.364 -1.47269 -3.69536 0
M  V30 4038 H 408.103 -4.12292 -5.09603 0
M  V30 4039 H 407.623 -2.45249 -5.47369 0
M  V30 4040 H 409.302 -2.9833 -5.74115 0
M  V30 4041 N 409.434 1.37368 -0.772513 0
M  V30 4042 C 410.397 2.28601 -0.165541 0
M  V30 4043 C 411.397 1.48062 0.627238 0
M  V30 4044 O 412.587 1.68268 0.450715 0
M  V30 4045 C 409.719 3.32023 0.772897 0
M  V30 4046 H 410.912 2.83787 -0.969787 0
M  V30 4047 H 408.465 1.46647 -0.540775 0
M  V30 4048 H 409.2 2.81962 1.60212 0
M  V30 4049 H 408.985 3.91555 0.206585 0
M  V30 4050 H 410.475 4.00197 1.19298 0
M  V30 4051 N 410.912 0.523116 1.48665 0
M  V30 4052 C 411.875 -0.232592 2.28017 0
M  V30 4053 C 412.875 -0.874021 1.34972 0
M  V30 4054 O 414.065 -0.735132 1.57929 0
M  V30 4055 C 411.197 -1.33586 3.13636 0
M  V30 4056 H 412.39 0.464008 2.96289 0
M  V30 4057 H 409.943 0.278816 1.53793 0
M  V30 4058 H 410.678 -2.06593 2.4998 0
M  V30 4059 H 410.463 -0.881125 3.82071 0
M  V30 4060 H 411.953 -1.86759 3.73511 0
M  V30 4061 N 412.39 -1.55475 0.257931 0
M  V30 4062 C 413.806 -1.59307 -0.0966563 0
M  V30 4063 C 414.006 -1.27514 -1.5602 0
M  V30 4064 O 413.062 -1.02774 -2.30637 0
M  V30 4065 C 414.375 -2.99552 0.262481 0
M  V30 4066 C 415.923 -3.1231 0.207683 0
M  V30 4067 C 416.398 -4.54793 0.541012 0
M  V30 4068 N 417.889 -4.6058 0.491921 0
M  V30 4069 C 418.624 -5.68825 0.722857 0
M  V30 4070 N 418.12 -6.85287 1.0175 0
M  V30 4071 N 419.913 -5.58296 0.652815 0
M  V30 4072 H 412.064 -1.74409 1.21224 0
M  V30 4073 H 414.327 -0.812424 0.48854 0
M  V30 4074 H 414.033 -3.27593 1.27967 0
M  V30 4075 H 413.907 -3.75019 -0.40508 0
M  V30 4076 H 416.294 -2.84044 -0.800195 0
M  V30 4077 H 416.375 -2.39095 0.909255 0
M  V30 4078 H 416.019 -4.83783 1.5465 0
M  V30 4079 H 415.949 -5.26285 -0.18216 0
M  V30 4080 H 418.44 -3.7691 0.273366 0
M  V30 4081 H 418.753 -7.63725 1.18084 0
M  V30 4082 H 417.098 -6.86945 1.05509 0
M  V30 4083 H 420.289 -4.66189 0.422592 0
M  V30 4084 H 420.462 -6.42582 0.836182 0
M  V30 4085 N 413.868 0.0150385 -1.57593 0
M  V30 4086 C 415.114 0.704043 -1.90187 0
M  V30 4087 C 415.447 1.74249 -0.857366 0
M  V30 4088 O 414.722 1.94092 0.125843 0
M  V30 4089 C 415.005 1.36087 -3.33395 0
M  V30 4090 C 414.858 0.334981 -4.48551 0
M  V30 4091 C 416.177 2.29112 -3.7576 0
M  V30 4092 H 413.296 0.254475 -0.691673 0
M  V30 4093 H 415.938 -0.0331678 -1.89971 0
M  V30 4094 H 414.088 1.98922 -3.3371 0
M  V30 4095 H 415.76 -0.292534 -4.60372 0
M  V30 4096 H 414.003 -0.344325 -4.32431 0
M  V30 4097 H 414.674 0.833316 -5.45674 0
M  V30 4098 H 417.15 1.76308 -3.76902 0
M  V30 4099 H 416.026 2.72043 -4.76743 0
M  V30 4100 H 416.287 3.16385 -3.08793 0
M  V30 4101 N 415.346 1.54954 0.287554 0
M  V30 4102 C 416.586 1.76617 1.02887 0
M  V30 4103 C 416.95 0.547759 1.84021 0
M  V30 4104 O 418.151 0.642365 2.61012 0
M  V30 4105 C 416.422 3.02717 1.89993 0
M  V30 4106 S 417.981 3.45438 2.70588 0
M  V30 4107 H 414.799 0.6207 0.346775 0
M  V30 4108 H 417.401 1.93172 0.30082 0
M  V30 4109 H 416.105 3.89503 1.29287 0
M  V30 4110 H 415.636 2.88787 2.67144 0
M  V30 4111 H 417.651 3.03566 3.92508 0
M  V30 4112 N 416.824 -0.551391 1.4764 0
M  V30 4113 C 417.734 -1.68525 1.63207 0
M  V30 4114 C 418.75 -1.6621 0.514815 0
M  V30 4115 O 419.926 -1.85551 0.783113 0
M  V30 4116 C 416.991 -3.05025 1.64805 0
M  V30 4117 C 416.052 -3.18362 2.88 0
M  V30 4118 C 415.285 -4.4835 2.89513 0
M  V30 4119 O 415.508 -5.34163 2.00065 0
M  V30 4120 O 414.442 -4.65602 3.81443 0
M  V30 4121 H 418.268 -1.58333 2.59161 0
M  V30 4122 H 415.853 -0.722063 1.30792 0
M  V30 4123 H 417.735 -3.86245 1.68502 0
M  V30 4124 H 416.41 -3.15587 0.720197 0
M  V30 4125 H 415.317 -2.36518 2.89845 0
M  V30 4126 H 416.65 -3.12707 3.80099 0
M  V30 4127 N 418.302 -1.35869 -0.798587 0
M  V30 4128 C 419.532 -1.32529 -1.58491 0
M  V30 4129 C 419.94 0.0975405 -1.88948 0
M  V30 4130 O 419.283 1.06224 -1.49874 0
M  V30 4131 C 419.345 -2.07247 -2.9375 0
M  V30 4132 C 419.009 -3.56391 -2.86068 0
M  V30 4133 C 420.006 -4.50824 -2.58947 0
M  V30 4134 C 417.691 -3.9915 -3.04933 0
M  V30 4135 C 419.685 -5.85993 -2.5078 0
M  V30 4136 C 417.372 -5.34413 -2.96389 0
M  V30 4137 C 418.37 -6.27646 -2.69349 0
M  V30 4138 O 418.058 -7.60426 -2.60782 0
M  V30 4139 H 417.79 -0.456529 -0.498556 0
M  V30 4140 H 420.344 -1.79425 -0.999799 0
M  V30 4141 H 418.574 -1.55001 -3.54276 0
M  V30 4142 H 420.263 -1.96883 -3.54954 0
M  V30 4143 H 421.029 -4.19104 -2.44084 0
M  V30 4144 H 416.908 -3.26961 -3.24989 0
M  V30 4145 H 420.452 -6.58735 -2.29595 0
M  V30 4146 H 416.349 -5.65743 -3.10813 0
M  V30 4147 H 417.117 -7.70444 -2.76331 0
M  V30 4148 N 419.78 1.02168 -1.19998 0
M  V30 4149 C 420.743 2.08765 -0.94604 0
M  V30 4150 C 421.743 1.60618 0.0763846 0
M  V30 4151 O 422.933 1.73472 -0.159135 0
M  V30 4152 C 420.065 3.38262 -0.423255 0
M  V30 4153 H 421.258 2.32726 -1.89153 0
M  V30 4154 H 418.811 1.1889 -1.01464 0
M  V30 4155 H 419.546 3.19974 0.527938 0
M  V30 4156 H 419.331 3.74532 -1.16053 0
M  V30 4157 H 420.821 4.16759 -0.264911 0
M  V30 4158 N 421.258 1.00505 1.21394 0
M  V30 4159 C 422.483 0.706367 1.95001 0
M  V30 4160 C 422.908 -0.72463 1.73582 0
M  V30 4161 O 422.266 -1.49702 1.0227 0
M  V30 4162 C 422.314 1.03299 3.45487 0
M  V30 4163 O 421.418 0.138275 4.12168 0
M  V30 4164 H 420.759 0.263175 0.609619 0
M  V30 4165 H 423.289 1.34531 1.54151 0
M  V30 4166 H 423.299 0.979872 3.96059 0
M  V30 4167 H 421.974 2.07567 3.60401 0
M  V30 4168 H 420.551 0.247928 3.72075 0
M  V30 4169 N 422.737 -1.36956 0.779787 0
M  V30 4170 C 424.014 -1.93697 0.272156 0
M  V30 4171 C 424.394 -1.71267 -1.23413 0
M  V30 4172 O 423.742 -1.06607 -2.02107 0
M  V30 4173 C 423.952 -3.42812 0.654291 0
M  V30 4174 C 425.3 -4.19921 0.628602 0
M  V30 4175 O 426.324 -3.51209 0.594172 0
M  V30 4176 O 425.183 -5.42465 0.662864 0
M  V30 4177 H 422.277 -0.824447 0.0649286 0
M  V30 4178 H 424.823 -1.46196 0.861682 0
M  V30 4179 H 423.595 -3.52754 1.69353 0
M  V30 4180 H 423.218 -3.97582 0.0381369 0
M  V30 4181 N 424.215 -0.530993 -1.48385 0
M  V30 4182 C 425.165 0.251092 -2.26613 0
M  V30 4183 C 426.149 0.908977 -1.32765 0
M  V30 4184 O 427.341 0.811616 -1.57295 0
M  V30 4185 C 424.47 1.29677 -3.17866 0
M  V30 4186 C 423.556 0.643627 -4.19188 0
M  V30 4187 N 423.947 -0.271223 -5.05072 0
M  V30 4188 C 422.245 0.900711 -4.3681 0
M  V30 4189 C 422.946 -0.648109 -5.78078 0
M  V30 4190 N 421.922 -0.00895987 -5.43599 0
M  V30 4191 H 425.724 -0.452702 -2.90393 0
M  V30 4192 H 423.238 -0.349091 -1.58604 0
M  V30 4193 H 425.235 1.87079 -3.72568 0
M  V30 4194 H 423.895 2.00193 -2.55642 0
M  V30 4195 H 424.906 -0.643883 -5.13882 0
M  V30 4196 H 421.583 1.59636 -3.85775 0
M  V30 4197 H 422.973 -1.39833 -6.57188 0
M  V30 4198 N 425.693 1.55336 -0.266172 0
M  V30 4199 C 426.939 2.00423 0.346714 0
M  V30 4200 C 427.294 1.15132 1.54151 0
M  V30 4201 O 426.587 0.211289 1.90431 0
M  V30 4202 C 426.781 3.48606 0.787957 0
M  V30 4203 C 426.61 4.48236 -0.362535 0
M  V30 4204 C 425.38 4.98211 -0.843445 0
M  V30 4205 C 427.578 5.00199 -1.19603 0
M  V30 4206 N 425.56 5.81625 -1.96434 0
M  V30 4207 C 426.931 5.80973 -2.16497 0
M  V30 4208 C 428.986 4.82458 -1.2304 0
M  V30 4209 C 427.689 6.45896 -3.1656 0
M  V30 4210 C 429.715 5.48174 -2.21944 0
M  V30 4211 C 429.077 6.28751 -3.17571 0
M  V30 4212 H 425.176 0.776535 0.0922914 0
M  V30 4213 H 427.76 1.90792 -0.388154 0
M  V30 4214 H 425.931 3.58597 1.49207 0
M  V30 4215 H 427.663 3.80538 1.37742 0
M  V30 4216 H 424.418 4.71696 -0.424271 0
M  V30 4217 H 424.842 6.28025 -2.52813 0
M  V30 4218 H 429.484 4.19774 -0.504903 0
M  V30 4219 H 427.202 7.07734 -3.90048 0
M  V30 4220 H 430.788 5.36392 -2.25333 0
M  V30 4221 H 429.668 6.78703 -3.92851 0
M  V30 4222 N 427.171 -0.0066808 1.57599 0
M  V30 4223 C 428.448 -0.729586 1.81484 0
M  V30 4224 C 428.828 -1.92359 0.869558 0
M  V30 4225 O 428.176 -2.28348 -0.0832533 0
M  V30 4226 C 428.386 -1.1416 3.29801 0
M  V30 4227 C 429.734 -1.54823 3.95367 0
M  V30 4228 O 430.758 -1.23558 3.34084 0
M  V30 4229 O 429.617 -2.12937 5.03309 0
M  V30 4230 H 426.711 -0.354674 0.747085 0
M  V30 4231 H 429.257 0.0182609 1.6969 0
M  V30 4232 H 428.029 -0.290231 3.90222 0
M  V30 4233 H 427.652 -1.94876 3.46568 0
M  V30 4234 N 428.649 -1.55105 -0.279332 0
M  V30 4235 C 429.559 -1.90638 -1.36727 0
M  V30 4236 C 430.575 -0.802899 -1.54368 0
M  V30 4237 O 431.751 -1.10138 -1.68616 0
M  V30 4238 C 428.816 -2.16547 -2.70755 0
M  V30 4239 C 427.877 -3.40146 -2.61915 0
M  V30 4240 C 427.11 -3.6481 -3.8955 0
M  V30 4241 O 427.333 -2.92095 -4.89935 0
M  V30 4242 O 426.267 -4.58343 -3.90135 0
M  V30 4243 H 430.093 -2.83237 -1.09591 0
M  V30 4244 H 427.678 -1.4157 -0.477306 0
M  V30 4245 H 429.56 -2.34665 -3.50014 0
M  V30 4246 H 428.235 -1.27131 -2.9769 0
M  V30 4247 H 427.142 -3.2737 -1.81052 0
M  V30 4248 H 428.475 -4.29761 -2.3993 0
M  V30 4249 N 430.127 0.543554 -1.4793 0
M  V30 4250 C 431.375 1.29752 -1.54948 0
M  V30 4251 C 431.696 1.93764 -0.219242 0
M  V30 4252 O 430.966 1.80639 0.75805 0
M  V30 4253 H 429.546 0.481874 -0.570795 0
M  V30 4254 H 432.208 0.633636 -1.84312 0
M  V30 4255 H 431.304 2.08392 -2.32334 0
M  V30 4256 N 431.605 1.3629 0.791371 0
M  V30 4257 C 432.83 1.33726 1.58531 0
M  V30 4258 C 433.255 -0.0794933 1.87932 0
M  V30 4259 O 432.613 -1.05087 1.47738 0
M  V30 4260 C 432.661 2.16425 2.88431 0
M  V30 4261 O 431.765 1.5554 3.81944 0
M  V30 4262 H 431.106 0.457793 0.480959 0
M  V30 4263 H 433.636 1.79547 0.981031 0
M  V30 4264 H 433.646 2.28933 3.37718 0
M  V30 4265 H 432.321 3.19415 2.66359 0
M  V30 4266 H 430.898 1.51961 3.40532 0
M  V30 4267 N 433.083 -1.0153 1.20538 0
M  V30 4268 C 434.494 -1.56598 1.01657 0
M  V30 4269 C 434.845 -1.91505 -0.426668 0
M  V30 4270 O 433.97 -1.72375 -1.30827 0
M  V30 4271 C 434.565 -2.84542 1.83905 0
M  V30 4272 C 433.124 -3.36133 1.69386 0
M  V30 4273 C 432.271 -2.09427 1.81757 0
M  V30 4274 H 435.222 -0.838974 1.34711 0
M  V30 4275 H 435.243 -3.56004 1.34319 0
M  V30 4276 H 434.755 -2.59105 2.8894 0
M  V30 4277 H 432.856 -3.66528 0.669933 0
M  V30 4278 H 432.969 -4.08248 2.50739 0
M  V30 4279 H 431.333 -2.21941 1.24957 0
M  V30 4280 H 432.116 -1.86414 2.88279 0
M  V30 4281 N 434.561 -1.01147 -1.20859 0
M  V30 4282 C 435.471 -0.58686 -2.27141 0
M  V30 4283 C 436.487 0.373198 -1.69951 0
M  V30 4284 O 437.663 0.235423 -2.00019 0
M  V30 4285 C 434.728 0.0733602 -3.46622 0
M  V30 4286 C 433.789 -0.931995 -4.19061 0
M  V30 4287 C 433.022 -0.303186 -5.32838 0
M  V30 4288 O 433.245 0.898395 -5.63281 0
M  V30 4289 O 432.179 -1.01735 -5.9324 0
M  V30 4290 H 436.005 -1.47155 -2.65667 0
M  V30 4291 H 433.59 -0.780689 -1.2738 0
M  V30 4292 H 435.472 0.442333 -4.19072 0
M  V30 4293 H 434.147 0.932329 -3.09983 0
M  V30 4294 H 433.054 -1.35224 -3.48805 0
M  V30 4295 H 434.387 -1.76076 -4.59628 0
M  V30 4296 N 436.039 1.36541 -0.78704 0
M  V30 4297 C 436.972 2.27831 -0.129765 0
M  V30 4298 C 437.95 1.47105 0.692732 0
M  V30 4299 O 439.134 1.7641 0.664222 0
M  V30 4300 C 436.261 3.28577 0.821883 0
M  V30 4301 C 435.307 4.26422 0.0814771 0
M  V30 4302 S 436.14 5.20919 -1.24112 0
M  V30 4303 C 437.296 6.25212 -0.293409 0
M  V30 4304 H 437.529 2.83229 -0.903811 0
M  V30 4305 H 435.062 1.43046 -0.581144 0
M  V30 4306 H 437.02 3.87123 1.3655 0
M  V30 4307 H 435.681 2.72096 1.56916 0
M  V30 4308 H 434.874 4.97554 0.803485 0
M  V30 4309 H 434.476 3.71944 -0.391589 0
M  V30 4310 H 436.768 6.75435 0.528622 0
M  V30 4311 H 437.711 7.01378 -0.973344 0
M  V30 4312 H 438.119 5.64407 0.102196 0
M  V30 4313 N 437.518 0.538854 1.48102 0
M  V30 4314 C 438.764 0.00801365 2.02798 0
M  V30 4315 C 439.097 -1.3309 1.41424 0
M  V30 4316 O 438.372 -1.86169 0.563158 0
M  V30 4317 C 438.655 -0.104589 3.59948 0
M  V30 4318 C 438.508 1.26012 4.31788 0
M  V30 4319 C 439.827 -0.827055 4.32259 0
M  V30 4320 H 436.946 0.00438624 0.736987 0
M  V30 4321 H 439.588 0.6976 1.7673 0
M  V30 4322 H 437.738 -0.691893 3.82289 0
M  V30 4323 H 439.41 1.88922 4.2084 0
M  V30 4324 H 437.653 1.83968 3.92859 0
M  V30 4325 H 438.324 1.13424 5.40221 0
M  V30 4326 H 440.8 -0.328578 4.14801 0
M  V30 4327 H 439.676 -0.87476 5.41885 0
M  V30 4328 H 439.937 -1.87927 4.0017 0
M  V30 4329 N 438.996 -1.55193 0.274407 0
M  V30 4330 C 440.407 -1.85358 -0.223488 0
M  V30 4331 C 440.758 -1.19642 -1.555 0
M  V30 4332 O 439.883 -0.484498 -2.10907 0
M  V30 4333 C 440.478 -3.36282 -0.412285 0
M  V30 4334 C 439.037 -3.66574 -0.854413 0
M  V30 4335 C 438.184 -2.7725 0.0527056 0
M  V30 4336 H 441.135 -1.50743 0.496215 0
M  V30 4337 H 441.156 -3.59349 -1.25094 0
M  V30 4338 H 440.668 -3.84083 0.556965 0
M  V30 4339 H 438.769 -3.24273 -1.83516 0
M  V30 4340 H 438.882 -4.74073 -0.692226 0
M  V30 4341 H 437.246 -2.50447 -0.463484 0
M  V30 4342 H 438.029 -3.27865 1.01783 0
M  V30 4343 N 440.474 -0.00167713 -1.576 0
M  V30 4344 C 441.437 0.974046 -2.07473 0
M  V30 4345 C 442.437 1.27143 -0.984444 0
M  V30 4346 O 443.627 1.21633 -1.24703 0
M  V30 4347 C 440.759 2.29849 -2.51759 0
M  V30 4348 H 441.952 0.54262 -2.9495 0
M  V30 4349 H 439.505 0.245829 -1.54355 0
M  V30 4350 H 440.24 2.77677 -1.67529 0
M  V30 4351 H 440.025 2.09584 -3.31386 0
M  V30 4352 H 441.515 2.9984 -2.90664 0
M  V30 4353 N 441.952 1.55251 0.271103 0
M  V30 4354 C 443.18 1.79974 1.02064 0
M  V30 4355 C 443.595 0.574003 1.79863 0
M  V30 4356 O 442.952 -0.456962 1.76686 0
M  V30 4357 C 443.003 3.02603 1.97772 0
M  V30 4358 O 442.724 4.20443 1.23124 0
M  V30 4359 C 444.225 3.39944 2.84522 0
M  V30 4360 H 441.445 0.599489 0.301419 0
M  V30 4361 H 443.989 2.02268 0.301313 0
M  V30 4362 H 442.144 2.8243 2.65165 0
M  V30 4363 H 442.558 4.89783 1.87651 0
M  V30 4364 H 444.032 4.28915 3.47471 0
M  V30 4365 H 444.509 2.59432 3.54389 0
M  V30 4366 H 445.115 3.62383 2.22618 0
M  V30 4367 N 443.43 -0.535701 1.48216 0
M  V30 4368 C 444.679 -1.28828 1.55197 0
M  V30 4369 C 444.992 -1.94263 0.228278 0
M  V30 4370 O 446.198 -2.70927 0.176278 0
M  V30 4371 C 444.654 -2.33727 2.73678 0
M  V30 4372 C 444.262 -1.74386 4.12666 0
M  V30 4373 C 446.006 -3.1003 2.89968 0
M  V30 4374 C 443.913 -2.77192 5.22416 0
M  V30 4375 H 442.843 -0.484484 0.577747 0
M  V30 4376 H 445.494 -0.56646 1.74538 0
M  V30 4377 H 443.876 -3.08919 2.4776 0
M  V30 4378 H 445.05 -1.05421 4.48579 0
M  V30 4379 H 443.365 -1.10595 4.01445 0
M  V30 4380 H 445.962 -3.86842 3.6913 0
M  V30 4381 H 446.305 -3.65542 1.9921 0
M  V30 4382 H 446.838 -2.41952 3.15759 0
M  V30 4383 H 443.577 -2.26507 6.15122 0
M  V30 4384 H 443.097 -3.44502 4.90998 0
M  V30 4385 H 444.776 -3.40285 5.50286 0
M  V30 4386 N 444.908 -1.36708 -0.784132 0
M  V30 4387 C 445.838 -1.34153 -1.91116 0
M  V30 4388 C 446.819 -0.212121 -1.68772 0
M  V30 4389 O 448.004 -0.410581 -1.8981 0
M  V30 4390 C 445.134 -1.13535 -3.28218 0
M  V30 4391 C 444.088 -2.23356 -3.65097 0
M  V30 4392 C 443.414 -1.87875 -5.00607 0
M  V30 4393 C 444.714 -3.65473 -3.73131 0
M  V30 4394 H 446.408 -2.28459 -1.93512 0
M  V30 4395 H 443.954 -1.09973 -0.929618 0
M  V30 4396 H 445.907 -1.10381 -4.06687 0
M  V30 4397 H 444.631 -0.156804 -3.26223 0
M  V30 4398 H 443.29 -2.25645 -2.88929 0
M  V30 4399 H 442.938 -0.885814 -4.95139 0
M  V30 4400 H 442.638 -2.61406 -5.26252 0
M  V30 4401 H 444.162 -1.86286 -5.81489 0
M  V30 4402 H 445.576 -3.65382 -4.41779 0
M  V30 4403 H 443.973 -4.37953 -4.10265 0
M  V30 4404 H 445.043 -3.99995 -2.74102 0
M  V30 4405 N 446.386 1.0089 -1.21074 0
M  V30 4406 C 447.349 2.0775 -0.968129 0
M  V30 4407 C 448.349 1.6069 0.0593445 0
M  V30 4408 O 449.539 1.73293 -0.177525 0
M  V30 4409 C 446.671 3.37794 -0.459108 0
M  V30 4410 H 447.864 2.30707 -1.9161 0
M  V30 4411 H 445.417 1.17807 -1.02719 0
M  V30 4412 H 446.152 3.20516 0.49397 0
M  V30 4413 H 445.937 3.7328 -1.20019 0
M  V30 4414 H 447.427 4.16454 -0.309099 0
M  V30 4415 N 447.864 1.01787 1.20321 0
M  V30 4416 C 448.811 0.589197 2.23153 0
M  V30 4417 C 449.781 -0.391367 1.61423 0
M  V30 4418 O 450.966 -0.290518 1.88575 0
M  V30 4419 C 448.106 -0.0650747 3.45039 0
M  V30 4420 C 447.219 0.960207 4.21194 0
M  V30 4421 C 446.354 0.276854 5.30478 0
M  V30 4422 C 445.393 1.2888 5.98378 0
M  V30 4423 N 444.53 0.632031 6.99249 0
M  V30 4424 H 449.37 1.47071 2.59179 0
M  V30 4425 H 446.907 0.736192 1.27352 0
M  V30 4426 H 448.865 -0.461552 4.14639 0
M  V30 4427 H 447.495 -0.910233 3.09701 0
M  V30 4428 H 446.547 1.47484 3.50646 0
M  V30 4429 H 447.859 1.72977 4.67847 0
M  V30 4430 H 447.013 -0.175056 6.06447 0
M  V30 4431 H 445.752 -0.525004 4.84866 0
M  V30 4432 H 444.757 1.75109 5.21169 0
M  V30 4433 H 445.982 2.09196 6.46076 0
M  V30 4434 H 443.928 -0.149935 6.55829 0
M  V30 4435 H 443.845 1.33964 7.44036 0
M  V30 4436 H 445.113 0.203755 7.79234 0
M  V30 4437 N 449.342 -1.36122 0.79427 0
M  V30 4438 C 450.292 -2.27373 0.169017 0
M  V30 4439 C 451.276 -1.4719 -0.649913 0
M  V30 4440 O 452.468 -1.69518 -0.50919 0
M  V30 4441 C 449.597 -3.36264 -0.691455 0
M  V30 4442 C 448.683 -4.2388 0.13653 0
M  V30 4443 N 449.074 -4.91519 1.19345 0
M  V30 4444 C 447.372 -4.45921 -0.0838499 0
M  V30 4445 C 448.073 -5.56369 1.6979 0
M  V30 4446 N 447.049 -5.34204 1.00634 0
M  V30 4447 H 450.851 -2.77154 0.977897 0
M  V30 4448 H 448.365 -1.49504 0.634208 0
M  V30 4449 H 450.362 -4.00572 -1.15534 0
M  V30 4450 H 449.022 -2.88037 -1.49883 0
M  V30 4451 H 450.033 -4.9334 1.57594 0
M  V30 4452 H 446.71 -4.08518 -0.861341 0
M  V30 4453 H 448.1 -6.20368 2.58055 0
M  V30 4454 N 450.82 -0.546701 -1.47814 0
M  V30 4455 C 452.066 -0.0187684 -2.02791 0
M  V30 4456 C 452.399 1.32338 -1.42128 0
M  V30 4457 O 451.674 1.85867 -0.573023 0
M  V30 4458 C 451.957 0.0854985 -3.59998 0
M  V30 4459 C 451.81 -1.283 -4.31114 0
M  V30 4460 C 453.129 0.80412 -4.32691 0
M  V30 4461 H 450.248 -0.0082946 -0.736953 0
M  V30 4462 H 452.89 -0.706962 -1.76358 0
M  V30 4463 H 451.04 0.671609 -3.82651 0
M  V30 4464 H 452.712 -1.91151 -4.19832 0
M  V30 4465 H 450.955 -1.86049 -3.91878 0
M  V30 4466 H 451.626 -1.16287 -5.39612 0
M  V30 4467 H 454.102 0.306576 -4.14969 0
M  V30 4468 H 452.978 0.846011 -5.42341 0
M  V30 4469 H 453.239 1.85802 -4.01161 0
M  V30 4470 N 452.299 1.55045 -0.282633 0
M  V30 4471 C 453.262 2.21515 0.588539 0
M  V30 4472 C 454.262 1.19535 1.07554 0
M  V30 4473 O 455.452 1.44391 0.974514 0
M  V30 4474 C 452.584 2.88704 1.8128 0
M  V30 4475 H 453.777 2.99899 0.00806397 0
M  V30 4476 H 451.33 1.56265 -0.0333067 0
M  V30 4477 H 452.065 2.14352 2.43359 0
M  V30 4478 H 451.85 3.63443 1.47144 0
M  V30 4479 H 453.34 3.39465 2.43214 0
M  V30 4480 N 453.777 0.010035 1.57597 0
M  V30 4481 C 454.74 -0.963029 2.07986 0
M  V30 4482 C 455.74 -1.26619 0.991173 0
M  V30 4483 O 456.93 -1.2097 1.25347 0
M  V30 4484 C 454.062 -2.2851 2.52974 0
M  V30 4485 H 455.255 -0.526971 2.95234 0
M  V30 4486 H 452.808 -0.237639 1.54483 0
M  V30 4487 H 453.543 -2.76784 1.69 0
M  V30 4488 H 453.328 -2.07824 3.32493 0
M  V30 4489 H 454.818 -2.98294 2.9225 0
M  V30 4490 N 455.255 -1.55392 -0.262866 0
M  V30 4491 C 456.165 -1.92077 -1.34698 0
M  V30 4492 C 457.181 -0.819227 -1.53508 0
M  V30 4493 O 458.357 -1.11921 -1.67439 0
M  V30 4494 C 455.422 -2.19407 -2.68443 0
M  V30 4495 C 454.483 -3.42905 -2.58292 0
M  V30 4496 C 453.716 -3.68921 -3.85659 0
M  V30 4497 O 453.939 -2.97275 -4.8681 0
M  V30 4498 O 452.873 -4.62455 -3.85252 0
M  V30 4499 H 456.699 -2.84384 -1.06581 0
M  V30 4500 H 454.284 -1.42069 -0.462264 0
M  V30 4501 H 456.166 -2.38365 -3.47506 0
M  V30 4502 H 454.841 -1.30282 -2.96325 0
M  V30 4503 H 453.748 -3.29272 -1.7757 0
M  V30 4504 H 455.081 -4.32282 -2.35358 0
M  V30 4505 N 456.733 0.527833 -1.48498 0
M  V30 4506 C 458.149 0.856571 -1.34666 0
M  V30 4507 C 458.349 1.98271 -0.35931 0
M  V30 4508 O 457.405 2.51551 0.218703 0
M  V30 4509 C 458.718 1.22207 -2.74747 0
M  V30 4510 C 460.266 1.33183 -2.83251 0
M  V30 4511 C 460.741 1.73075 -4.24039 0
M  V30 4512 N 462.232 1.80174 -4.26722 0
M  V30 4513 C 462.967 2.1243 -5.32598 0
M  V30 4514 N 462.463 2.43096 -6.4875 0
M  V30 4515 N 464.256 2.13454 -5.19994 0
M  V30 4516 H 456.407 -0.215174 -2.11307 0
M  V30 4517 H 458.67 -0.0336281 -0.947403 0
M  V30 4518 H 458.376 0.468195 -3.4857 0
M  V30 4519 H 458.25 2.17173 -3.08409 0
M  V30 4520 H 460.637 2.07647 -2.09683 0
M  V30 4521 H 460.718 0.363333 -2.53206 0
M  V30 4522 H 460.362 0.991712 -4.98124 0
M  V30 4523 H 460.292 2.70979 -4.51529 0
M  V30 4524 H 462.783 1.58744 -3.42942 0
M  V30 4525 H 463.096 2.6682 -7.25277 0
M  V30 4526 H 461.441 2.40611 -6.52021 0
M  V30 4527 H 464.632 1.88956 -4.28268 0
M  V30 4528 H 464.805 2.38261 -6.02608 0
M  V30 4529 N 458.211 1.37122 0.776871 0
M  V30 4530 C 459.174 1.32301 1.8716 0
M  V30 4531 C 460.174 0.228099 1.59174 0
M  V30 4532 O 461.364 0.483642 1.67352 0
M  V30 4533 C 458.496 1.054 3.24197 0
M  V30 4534 H 459.689 2.29673 1.92848 0
M  V30 4535 H 457.242 1.22077 0.97606 0
M  V30 4536 H 457.977 0.0853872 3.24188 0
M  V30 4537 H 457.762 1.84648 3.45901 0
M  V30 4538 H 459.252 1.04664 4.04271 0
M  V30 4539 N 459.689 -1.00246 1.21608 0
M  V30 4540 C 460.652 -2.07233 0.979133 0
M  V30 4541 C 461.652 -1.6072 -0.0508219 0
M  V30 4542 O 462.842 -1.73196 0.186712 0
M  V30 4543 C 459.974 -3.37546 0.477016 0
M  V30 4544 H 461.167 -2.29687 1.92831 0
M  V30 4545 H 458.72 -1.17261 1.03342 0
M  V30 4546 H 459.455 -3.20773 -0.476966 0
M  V30 4547 H 459.24 -3.72638 1.21997 0
M  V30 4548 H 460.73 -4.16285 0.331181 0
M  V30 4549 N 461.167 -1.02423 -1.1978 0
M  V30 4550 C 462.13 -0.605703 -2.21052 0
M  V30 4551 C 463.13 0.328209 -1.57415 0
M  V30 4552 O 464.32 0.115853 -1.73814 0
M  V30 4553 C 461.452 0.114366 -3.40708 0
M  V30 4554 H 462.645 -1.5017 -2.59594 0
M  V30 4555 H 460.198 -0.814888 -1.33376 0
M  V30 4556 H 460.933 1.02492 -3.07678 0
M  V30 4557 H 460.718 -0.556641 -3.88129 0
M  V30 4558 H 462.208 0.394272 -4.15735 0
M  V30 4559 N 462.645 1.35699 -0.801477 0
M  V30 4560 C 463.893 1.9852 -0.37871 0
M  V30 4561 C 464.214 1.63907 1.05638 0
M  V30 4562 O 463.484 0.919013 1.73006 0
M  V30 4563 H 462.064 0.734322 -0.137042 0
M  V30 4564 H 464.726 1.65697 -1.02619 0
M  V30 4565 H 463.822 3.08382 -0.480284 0
M  V30 4566 N 464.123 0.554532 1.47522 0
M  V30 4567 C 465.086 -0.184174 2.28459 0
M  V30 4568 C 466.086 -0.845195 1.36796 0
M  V30 4569 O 467.276 -0.701467 1.59452 0
M  V30 4570 C 464.408 -1.26903 3.16399 0
M  V30 4571 H 465.601 0.526751 2.95238 0
M  V30 4572 H 463.154 0.311375 1.53167 0
M  V30 4573 H 463.889 -2.01244 2.54306 0
M  V30 4574 H 463.674 -0.799883 3.83854 0
M  V30 4575 H 465.164 -1.78794 3.77389 0
M  V30 4576 N 465.601 -1.54893 0.290851 0
M  V30 4577 C 466.564 -2.21824 -0.576784 0
M  V30 4578 C 467.564 -1.20104 -1.06919 0
M  V30 4579 O 468.754 -1.44906 -0.966843 0
M  V30 4580 C 465.886 -2.89662 -1.79747 0
M  V30 4581 H 467.079 -2.99899 0.00784051 0
M  V30 4582 H 464.632 -1.56245 0.0415934 0
M  V30 4583 H 465.367 -2.15639 -2.42219 0
M  V30 4584 H 465.152 -3.64219 -1.45214 0
M  V30 4585 H 466.642 -3.4075 -2.4141 0
M  V30 4586 N 467.08 -0.0183926 -1.57589 0
M  V30 4587 C 468.308 0.673046 -1.95647 0
M  V30 4588 C 468.723 1.66275 -0.894312 0
M  V30 4589 O 468.08 1.82072 0.124975 0
M  V30 4590 C 468.131 1.38884 -3.33756 0
M  V30 4591 O 467.852 0.438806 -4.35897 0
M  V30 4592 C 469.353 2.1731 -3.86383 0
M  V30 4593 H 466.573 0.186292 -0.644621 0
M  V30 4594 H 469.117 -0.0749748 -2.04363 0
M  V30 4595 H 467.272 2.08835 -3.26293 0
M  V30 4596 H 467.686 0.945869 -5.15901 0
M  V30 4597 H 469.16 2.62863 -4.85394 0
M  V30 4598 H 469.637 3.00764 -3.20059 0
M  V30 4599 H 470.243 1.52339 -3.97081 0
M  V30 4600 N 468.558 1.5553 0.254621 0
M  V30 4601 C 469.521 1.88872 1.29846 0
M  V30 4602 C 470.521 0.764591 1.41459 0
M  V30 4603 O 471.711 1.03265 1.40293 0
M  V30 4604 C 468.843 2.11032 2.67728 0
M  V30 4605 H 470.036 2.82201 1.01502 0
M  V30 4606 H 467.589 1.48303 0.493556 0
M  V30 4607 H 468.324 1.20146 3.01223 0
M  V30 4608 H 468.109 2.92895 2.60682 0
M  V30 4609 H 469.599 2.38038 3.43115 0
M  V30 4610 N 470.036 -0.519951 1.48776 0
M  V30 4611 C 470.999 -1.60574 1.6355 0
M  V30 4612 C 471.999 -1.52557 0.508234 0
M  V30 4613 O 473.189 -1.56047 0.774262 0
M  V30 4614 C 470.321 -3.00211 1.61512 0
M  V30 4615 H 471.514 -1.4881 2.60376 0
M  V30 4616 H 469.067 -0.742772 1.37523 0
M  V30 4617 H 469.802 -3.17471 0.662009 0
M  V30 4618 H 469.587 -3.07439 2.43359 0
M  V30 4619 H 471.077 -3.79134 1.75064 0
M  V30 4620 N 471.514 -1.37532 -0.769588 0
M  V30 4621 C 472.446 -1.29347 -1.89214 0
M  V30 4622 C 473.459 -0.208842 -1.61455 0
M  V30 4623 O 474.648 -0.465158 -1.72333 0
M  V30 4624 C 471.748 -0.977649 -3.24492 0
M  V30 4625 C 470.921 -2.16817 -3.7988 0
M  V30 4626 C 469.98 -1.82229 -4.93639 0
M  V30 4627 O 469.006 -2.54548 -5.09111 0
M  V30 4628 N 470.208 -0.767696 -5.75401 0
M  V30 4629 H 472.973 -2.26073 -1.96751 0
M  V30 4630 H 470.534 -1.31185 -0.948795 0
M  V30 4631 H 472.526 -0.727065 -3.98115 0
M  V30 4632 H 471.096 -0.0988777 -3.12444 0
M  V30 4633 H 470.316 -2.58038 -2.9801 0
M  V30 4634 H 471.604 -2.96308 -4.13617 0
M  V30 4635 H 471.002 -0.167626 -5.65452 0
M  V30 4636 H 469.559 -0.576973 -6.49241 0
M  V30 4637 N 472.992 0.995999 -1.22138 0
M  V30 4638 C 474.238 1.73767 -1.04561 0
M  V30 4639 C 474.571 1.89633 0.418698 0
M  V30 4640 O 473.846 1.43723 1.3105 0
M  V30 4641 C 474.129 3.14505 -1.75382 0
M  V30 4642 C 473.982 3.06306 -3.29388 0
M  V30 4643 C 475.301 4.13615 -1.50369 0
M  V30 4644 H 472.42 0.630728 -0.38125 0
M  V30 4645 H 475.062 1.16057 -1.50435 0
M  V30 4646 H 473.212 3.63775 -1.36383 0
M  V30 4647 H 474.884 2.64681 -3.77812 0
M  V30 4648 H 473.127 2.43186 -3.59226 0
M  V30 4649 H 473.798 4.05884 -3.74116 0
M  V30 4650 H 476.274 3.73089 -1.84239 0
M  V30 4651 H 475.15 5.10212 -2.02421 0
M  V30 4652 H 475.411 4.39949 -0.435611 0
M  V30 4653 N 474.47 1.03057 1.19235 0
M  V30 4654 C 475.4 0.633497 2.24742 0
M  V30 4655 C 476.381 -0.358335 1.66283 0
M  V30 4656 O 477.566 -0.240676 1.92703 0
M  V30 4657 C 474.696 -0.0147648 3.47297 0
M  V30 4658 C 473.65 0.899527 4.18441 0
M  V30 4659 C 472.976 0.116281 5.34574 0
M  V30 4660 C 474.276 2.21404 4.73051 0
M  V30 4661 H 475.97 1.5155 2.58211 0
M  V30 4662 H 473.516 0.73014 1.24117 0
M  V30 4663 H 475.469 -0.304202 4.20301 0
M  V30 4664 H 474.193 -0.931577 3.13032 0
M  V30 4665 H 472.852 1.17319 3.47321 0
M  V30 4666 H 472.5 -0.802619 4.96555 0
M  V30 4667 H 472.2 0.725293 5.83107 0
M  V30 4668 H 473.724 -0.166376 6.10373 0
M  V30 4669 H 475.138 1.98601 5.37802 0
M  V30 4670 H 473.535 2.77512 5.32078 0
M  V30 4671 H 474.605 2.86752 3.91026 0
M  V30 4672 N 475.948 -1.35272 0.808662 0
M  V30 4673 C 476.911 -2.28082 0.226093 0
M  V30 4674 C 477.911 -1.49673 -0.587762 0
M  V30 4675 O 479.101 -1.69404 -0.405943 0
M  V30 4676 C 476.233 -3.33955 -0.684596 0
M  V30 4677 H 477.426 -2.81116 1.04469 0
M  V30 4678 H 474.979 -1.45162 0.579466 0
M  V30 4679 H 475.714 -2.86111 -1.5268 0
M  V30 4680 H 475.499 -3.91965 -0.102699 0
M  V30 4681 H 476.989 -4.03219 -1.08646 0
M  V30 4682 N 477.426 -0.562348 -1.47226 0
M  V30 4683 C 478.651 -0.0432632 -2.07355 0
M  V30 4684 C 479.076 1.24332 -1.41149 0
M  V30 4685 O 478.434 1.74603 -0.488226 0
M  V30 4686 C 478.482 0.130288 -3.60365 0
M  V30 4687 O 477.586 1.19166 -3.94808 0
M  V30 4688 H 476.927 -0.0536334 -0.66183 0
M  V30 4689 H 479.457 -0.779495 -1.89169 0
M  V30 4690 H 479.467 0.342881 -4.06557 0
M  V30 4691 H 478.142 -0.809389 -4.07948 0
M  V30 4692 H 476.719 0.959153 -3.60354 0
M  V30 4693 N 478.904 1.54736 -0.299062 0
M  V30 4694 C 479.867 2.22127 0.565012 0
M  V30 4695 C 480.867 1.20669 1.06281 0
M  V30 4696 O 482.057 1.45417 0.959145 0
M  V30 4697 C 479.189 2.90611 1.78208 0
M  V30 4698 H 480.382 2.99891 -0.0237448 0
M  V30 4699 H 477.935 1.5622 -0.0498788 0
M  V30 4700 H 478.67 2.16921 2.41072 0
M  V30 4701 H 478.455 3.64984 1.43281 0
M  V30 4702 H 479.945 3.42026 2.396 0
M  V30 4703 N 480.382 0.0267497 1.57577 0
M  V30 4704 C 481.63 -0.651116 1.91324 0
M  V30 4705 C 481.951 -1.72804 0.90353 0
M  V30 4706 O 481.221 -1.95822 -0.0552946 0
M  V30 4707 H 479.801 -0.243491 0.706202 0
M  V30 4708 H 482.463 0.0739935 1.94759 0
M  V30 4709 H 481.559 -1.10536 2.9187 0
M  V30 4710 N 481.861 -1.55662 -0.24637 0
M  V30 4711 C 482.824 -1.89558 -1.28842 0
M  V30 4712 C 483.824 -0.772082 -1.41052 0
M  V30 4713 O 485.014 -1.04007 -1.39743 0
M  V30 4714 C 482.146 -2.12449 -2.66605 0
M  V30 4715 H 483.339 -2.82735 -1.00004 0
M  V30 4716 H 480.892 -1.48562 -0.485684 0
M  V30 4717 H 481.627 -1.21742 -3.00582 0
M  V30 4718 H 481.412 -2.94273 -2.59125 0
M  V30 4719 H 482.902 -2.39854 -3.41847 0
M  V30 4720 N 483.339 0.512053 -1.4905 0
M  V30 4721 C 484.755 0.84224 -1.35567 0
M  V30 4722 C 484.955 1.97878 -0.380319 0
M  V30 4723 O 484.011 2.51769 0.19201 0
M  V30 4724 C 485.324 1.19286 -2.76028 0
M  V30 4725 C 486.872 1.30171 -2.84648 0
M  V30 4726 C 487.347 1.68568 -4.25851 0
M  V30 4727 N 488.838 1.75638 -4.28609 0
M  V30 4728 C 489.573 2.06769 -5.34821 0
M  V30 4729 N 489.069 2.36201 -6.51292 0
M  V30 4730 N 490.862 2.07927 -5.22229 0
M  V30 4731 H 483.013 -0.237574 -2.11067 0
M  V30 4732 H 485.276 -0.0436747 -0.946993 0
M  V30 4733 H 484.982 0.431199 -3.49047 0
M  V30 4734 H 484.856 2.13889 -3.10695 0
M  V30 4735 H 487.243 2.05411 -2.11873 0
M  V30 4736 H 487.324 0.336457 -2.53578 0
M  V30 4737 H 486.968 0.938824 -4.99148 0
M  V30 4738 H 486.898 2.66174 -4.54377 0
M  V30 4739 H 489.389 1.55097 -3.44606 0
M  V30 4740 H 489.702 2.59112 -7.28066 0
M  V30 4741 H 488.047 2.33681 -6.54536 0
M  V30 4742 H 491.238 1.84403 -4.30248 0
M  V30 4743 H 491.411 2.31856 -6.05101 0
M  V30 4744 N 484.817 1.37938 0.762283 0
M  V30 4745 C 485.727 1.36681 1.90671 0
M  V30 4746 C 486.743 0.265078 1.71969 0
M  V30 4747 O 487.919 0.502055 1.95042 0
M  V30 4748 C 484.984 1.18211 3.25925 0
M  V30 4749 C 484.045 2.3811 3.57214 0
M  V30 4750 C 483.278 2.20512 4.86014 0
M  V30 4751 O 483.501 1.19429 5.57757 0
M  V30 4752 O 482.435 3.08911 5.16583 0
M  V30 4753 H 486.261 2.33091 1.94685 0
M  V30 4754 H 483.846 1.18767 0.906356 0
M  V30 4755 H 485.728 1.09937 4.06807 0
M  V30 4756 H 484.403 0.248807 3.22742 0
M  V30 4757 H 483.31 2.51958 2.76529 0
M  V30 4758 H 484.643 3.30041 3.65149 0
M  V30 4759 N 486.295 -0.989507 1.22664 0
M  V30 4760 C 487.543 -1.72612 1.05117 0
M  V30 4761 C 487.864 -1.90552 -0.414131 0
M  V30 4762 O 487.134 -1.4676 -1.29762 0
M  V30 4763 H 485.714 -0.639555 0.385977 0
M  V30 4764 H 488.376 -1.19158 1.54232 0
M  V30 4765 H 487.472 -2.71926 1.53175 0
M  V30 4766 N 487.773 -1.03688 -1.18687 0
M  V30 4767 C 488.723 -0.595067 -2.20098 0
M  V30 4768 C 489.707 0.360465 -1.5681 0
M  V30 4769 O 490.899 0.180136 -1.76081 0
M  V30 4770 C 488.028 0.0444495 -3.43271 0
M  V30 4771 C 487.114 -0.934002 -4.13687 0
M  V30 4772 N 487.505 -2.09957 -4.60165 0
M  V30 4773 C 485.803 -0.759177 -4.39491 0
M  V30 4774 C 486.504 -2.71735 -5.1433 0
M  V30 4775 N 485.48 -1.99638 -5.05614 0
M  V30 4776 H 489.282 -1.48336 -2.5372 0
M  V30 4777 H 486.796 -0.904949 -1.3485 0
M  V30 4778 H 488.793 0.37864 -4.15177 0
M  V30 4779 H 487.453 0.928325 -3.11147 0
M  V30 4780 H 488.464 -2.47863 -4.54735 0
M  V30 4781 H 485.141 0.0749292 -4.17433 0
M  V30 4782 H 486.531 -3.70492 -5.60523 0
M  V30 4783 N 489.251 1.34841 -0.815825 0
M  V30 4784 C 490.497 1.98793 -0.401129 0
M  V30 4785 C 490.83 1.64548 1.03139 0
M  V30 4786 O 490.105 0.913487 1.71714 0
M  V30 4787 C 490.388 3.55143 -0.595409 0
M  V30 4788 C 490.241 3.99155 -2.07352 0
M  V30 4789 C 491.56 4.40092 -0.0268823 0
M  V30 4790 H 488.679 0.722146 -0.14722 0
M  V30 4791 H 491.321 1.59847 -1.02707 0
M  V30 4792 H 489.471 3.8845 -0.0625779 0
M  V30 4793 H 491.143 3.76216 -2.66945 0
M  V30 4794 H 489.386 3.49726 -2.56659 0
M  V30 4795 H 490.057 5.07971 -2.1603 0
M  V30 4796 H 492.533 4.13298 -0.482042 0
M  V30 4797 H 491.409 5.48562 -0.19267 0
M  V30 4798 H 491.67 4.29016 1.06759 0
M  V30 4799 N 490.729 0.570148 1.46925 0
M  V30 4800 C 491.975 0.0510284 2.02736 0
M  V30 4801 C 492.308 -1.3006 1.44215 0
M  V30 4802 O 491.583 -1.84932 0.602521 0
M  V30 4803 C 491.866 -0.028215 3.60089 0
M  V30 4804 C 491.719 1.35142 4.29018 0
M  V30 4805 C 493.038 -0.735181 4.33916 0
M  V30 4806 H 490.157 0.0200178 0.736728 0
M  V30 4807 H 492.799 0.73493 1.75211 0
M  V30 4808 H 490.949 -0.610648 3.83671 0
M  V30 4809 H 492.621 1.97806 4.16738 0
M  V30 4810 H 490.864 1.9226 3.88868 0
M  V30 4811 H 491.535 1.24857 5.37694 0
M  V30 4812 H 494.011 -0.240519 4.15404 0
M  V30 4813 H 492.887 -0.759622 5.43618 0
M  V30 4814 H 493.148 -1.79397 4.04066 0
M  V30 4815 N 492.207 -1.54576 0.307264 0
M  V30 4816 C 493.117 -2.27435 -0.57536 0
M  V30 4817 C 494.133 -1.31183 -1.14311 0
M  V30 4818 O 495.309 -1.64175 -1.16656 0
M  V30 4819 C 492.374 -3.00566 -1.72803 0
M  V30 4820 C 491.435 -4.12369 -1.19373 0
M  V30 4821 C 490.668 -4.82003 -2.29147 0
M  V30 4822 O 490.891 -4.51038 -3.49171 0
M  V30 4823 O 489.825 -5.69271 -1.95485 0
M  V30 4824 H 493.651 -3.03696 0.0158558 0
M  V30 4825 H 491.236 -1.49219 0.0735064 0
M  V30 4826 H 493.118 -3.46416 -2.39946 0
M  V30 4827 H 491.793 -2.27195 -2.30574 0
M  V30 4828 H 490.7 -3.70905 -0.487851 0
M  V30 4829 H 492.033 -4.87736 -0.661376 0
M  V30 4830 N 493.685 -0.035106 -1.57561 0
M  V30 4831 C 495.101 0.321334 -1.56332 0
M  V30 4832 C 495.301 1.72509 -1.04129 0
M  V30 4833 O 494.357 2.4287 -0.690694 0
M  V30 4834 C 495.67 0.164469 -3.0025 0
M  V30 4835 C 497.218 0.236786 -3.12103 0
M  V30 4836 C 497.693 0.10864 -4.57871 0
M  V30 4837 N 499.184 0.165433 -4.62904 0
M  V30 4838 C 499.919 0.0901506 -5.73329 0
M  V30 4839 N 499.415 -0.0365606 -6.9279 0
M  V30 4840 N 501.208 0.144572 -5.61914 0
M  V30 4841 H 493.359 -0.952976 -1.89821 0
M  V30 4842 H 495.622 -0.368537 -0.873432 0
M  V30 4843 H 495.328 -0.802746 -3.42416 0
M  V30 4844 H 495.202 0.932194 -3.655 0
M  V30 4845 H 497.589 1.19446 -2.69845 0
M  V30 4846 H 497.67 -0.561419 -2.49563 0
M  V30 4847 H 497.314 -0.845644 -5.00811 0
M  V30 4848 H 497.244 0.925786 -5.18398 0
M  V30 4849 H 499.735 0.263269 -3.76982 0
M  V30 4850 H 500.048 -0.0871487 -7.72751 0
M  V30 4851 H 498.393 -0.0714256 -6.94963 0
M  V30 4852 H 501.584 0.242006 -4.67474 0
M  V30 4853 H 501.757 0.0824413 -6.47948 0
M  V30 4854 N 495.163 1.55791 0.238111 0
M  V30 4855 C 496.126 1.90239 1.27835 0
M  V30 4856 C 497.126 0.779552 1.4064 0
M  V30 4857 O 498.316 1.04747 1.3919 0
M  V30 4858 C 495.448 2.13859 2.65475 0
M  V30 4859 H 496.641 2.83262 0.985034 0
M  V30 4860 H 494.194 1.48818 0.477799 0
M  V30 4861 H 494.929 1.23334 2.99932 0
M  V30 4862 H 494.714 2.95643 2.57561 0
M  V30 4863 H 496.204 2.41664 3.40571 0
M  V30 4864 N 496.642 -0.504142 1.49319 0
M  V30 4865 C 497.872 -1.28071 1.62116 0
M  V30 4866 C 498.28 -1.86955 0.290566 0
M  V30 4867 O 497.623 -1.68415 -0.733616 0
M  V30 4868 C 497.685 -2.4521 2.62893 0
M  V30 4869 C 497.349 -2.07218 4.0732 0
M  V30 4870 C 498.346 -1.61375 4.94221 0
M  V30 4871 C 496.031 -2.16949 4.53033 0
M  V30 4872 C 498.025 -1.25763 6.2487 0
M  V30 4873 C 495.712 -1.80949 5.83696 0
M  V30 4874 C 496.71 -1.3543 6.69438 0
M  V30 4875 O 496.398 -0.99915 7.97667 0
M  V30 4876 H 496.13 -0.394763 0.54876 0
M  V30 4877 H 498.684 -0.612118 1.96067 0
M  V30 4878 H 496.914 -3.15134 2.24115 0
M  V30 4879 H 498.603 -3.0724 2.65252 0
M  V30 4880 H 499.369 -1.53306 4.60133 0
M  V30 4881 H 495.248 -2.5133 3.86463 0
M  V30 4882 H 498.792 -0.901631 6.91749 0
M  V30 4883 H 494.689 -1.88667 6.17313 0
M  V30 4884 H 495.457 -1.13089 8.1065 0
M  V30 4885 N 498.12 -1.38341 -0.754957 0
M  V30 4886 C 499.536 -1.19508 -1.05783 0
M  V30 4887 C 499.736 -0.0428005 -2.01455 0
M  V30 4888 O 498.792 0.611861 -2.44975 0
M  V30 4889 C 500.105 -2.52091 -1.63923 0
M  V30 4890 C 501.653 -2.58762 -1.76101 0
M  V30 4891 C 502.128 -3.91517 -2.37652 0
M  V30 4892 N 503.619 -3.93049 -2.45085 0
M  V30 4893 C 504.354 -4.9253 -2.93602 0
M  V30 4894 N 503.85 -6.02408 -3.42165 0
M  V30 4895 N 505.643 -4.79921 -2.92629 0
M  V30 4896 H 497.794 -2.1206 -0.120056 0
M  V30 4897 H 500.057 -0.94089 -0.11589 0
M  V30 4898 H 499.763 -3.36858 -1.01093 0
M  V30 4899 H 499.637 -2.70388 -2.63003 0
M  V30 4900 H 502.024 -1.74391 -2.38058 0
M  V30 4901 H 502.105 -2.44333 -0.757294 0
M  V30 4902 H 501.749 -4.76309 -1.76329 0
M  V30 4903 H 501.679 -4.03256 -3.38662 0
M  V30 4904 H 504.17 -3.13685 -2.10736 0
M  V30 4905 H 504.483 -6.74248 -3.77637 0
M  V30 4906 H 502.828 -6.0603 -3.40225 0
M  V30 4907 H 506.019 -3.93194 -2.54001 0
M  V30 4908 H 506.192 -5.57601 -3.30128 0
M  V30 4909 N 499.598 0.982988 -1.23187 0
M  V30 4910 C 500.875 1.69814 -0.970707 0
M  V30 4911 C 501.255 2.04811 0.511424 0
M  V30 4912 O 500.603 1.73924 1.48198 0
M  V30 4913 C 500.813 2.94143 -1.87831 0
M  V30 4914 C 502.161 3.66712 -2.14026 0
M  V30 4915 O 503.185 3.04171 -1.8536 0
M  V30 4916 O 502.044 4.79258 -2.62629 0
M  V30 4917 H 499.138 0.741659 -0.365884 0
M  V30 4918 H 501.684 1.03844 -1.34218 0
M  V30 4919 H 500.456 2.64858 -2.88038 0
M  V30 4920 H 500.079 3.6785 -1.50905 0
M  V30 4921 N 501.076 1.04316 1.18135 0
M  V30 4922 C 502.039 0.640794 2.2006 0
M  V30 4923 C 503.039 -0.303124 1.57917 0
M  V30 4924 O 504.229 -0.0881855 1.73977 0
M  V30 4925 C 501.361 -0.060148 3.40847 0
M  V30 4926 H 502.554 1.54281 2.57172 0
M  V30 4927 H 500.107 0.836004 1.32063 0
M  V30 4928 H 500.842 -0.975845 3.0927 0
M  V30 4929 H 500.627 0.618319 3.87194 0
M  V30 4930 H 502.117 -0.328082 4.16309 0
M  V30 4931 N 502.554 -1.34406 0.822964 0
M  V30 4932 C 503.501 -2.29519 0.24284 0
M  V30 4933 C 504.471 -1.5359 -0.632397 0
M  V30 4934 O 505.656 -1.8196 -0.57403 0
M  V30 4935 C 502.796 -3.40032 -0.58925 0
M  V30 4936 C 501.909 -4.30899 0.308236 0
M  V30 4937 C 501.044 -5.28515 -0.533425 0
M  V30 4938 C 500.083 -6.1102 0.363444 0
M  V30 4939 N 499.22 -7.00725 -0.439147 0
M  V30 4940 H 504.06 -2.78537 1.05929 0
M  V30 4941 H 501.597 -1.3707 0.533872 0
M  V30 4942 H 503.555 -4.0279 -1.087 0
M  V30 4943 H 502.185 -2.92248 -1.37081 0
M  V30 4944 H 501.237 -3.69002 0.924203 0
M  V30 4945 H 502.549 -4.88717 0.997862 0
M  V30 4946 H 501.703 -5.96725 -1.09565 0
M  V30 4947 H 500.442 -4.71235 -1.25656 0
M  V30 4948 H 499.447 -5.41743 0.937812 0
M  V30 4949 H 500.672 -6.70381 1.08469 0
M  V30 4950 H 498.618 -6.45913 -1.14595 0
M  V30 4951 H 498.535 -7.55756 0.19209 0
M  V30 4952 H 499.803 -7.73263 -0.984124 0
M  V30 4953 N 504.032 -0.577932 -1.46621 0
M  V30 4954 C 504.962 0.145917 -2.33044 0
M  V30 4955 C 505.943 0.888412 -1.45056 0
M  V30 4956 O 507.128 0.864812 -1.73881 0
M  V30 4957 C 504.258 1.16322 -3.27241 0
M  V30 4958 C 503.212 0.535868 -4.24632 0
M  V30 4959 C 502.538 1.65929 -5.08303 0
M  V30 4960 C 503.838 -0.523861 -5.19666 0
M  V30 4961 H 505.532 -0.575636 -2.93814 0
M  V30 4962 H 503.078 -0.278272 -1.41286 0
M  V30 4963 H 505.031 1.67793 -3.86553 0
M  V30 4964 H 503.755 1.91498 -2.64567 0
M  V30 4965 H 502.414 0.0422759 -3.66576 0
M  V30 4966 H 502.062 2.40061 -4.42018 0
M  V30 4967 H 501.762 1.2452 -5.74255 0
M  V30 4968 H 503.286 2.17686 -5.70478 0
M  V30 4969 H 504.7 -0.0944059 -5.73222 0
M  V30 4970 H 503.097 -0.858 -5.93935 0
M  V30 4971 H 504.167 -1.41197 -4.63887 0
M  V30 4972 N 505.51 1.54411 -0.315457 0
M  V30 4973 C 506.443 2.20265 0.596522 0
M  V30 4974 C 507.421 1.17693 1.12192 0
M  V30 4975 O 508.605 1.46397 1.18744 0
M  V30 4976 C 505.732 2.85794 1.81767 0
M  V30 4977 C 504.778 4.02017 1.42424 0
M  V30 4978 S 505.611 5.33452 0.467836 0
M  V30 4979 C 506.767 6.02471 1.69645 0
M  V30 4980 H 507 2.97277 0.0370896 0
M  V30 4981 H 504.533 1.54079 -0.0995562 0
M  V30 4982 H 506.491 3.24172 2.51839 0
M  V30 4983 H 505.152 2.08601 2.34828 0
M  V30 4984 H 504.345 4.46701 2.33396 0
M  V30 4985 H 503.947 3.65271 0.803311 0
M  V30 4986 H 506.239 6.24157 2.63504 0
M  V30 4987 H 507.182 6.96215 1.29192 0
M  V30 4988 H 507.59 5.32284 1.87974 0
M  V30 4989 N 506.988 0.0434614 1.5754 0
M  V30 4990 C 507.898 -0.94893 2.14552 0
M  V30 4991 C 508.914 -1.34707 1.10136 0
M  V30 4992 O 510.09 -1.42557 1.42266 0
M  V30 4993 C 507.155 -2.208 2.67298 0
M  V30 4994 C 506.216 -1.86893 3.86484 0
M  V30 4995 C 505.449 -3.06797 4.36705 0
M  V30 4996 O 505.672 -4.19921 3.86034 0
M  V30 4997 O 504.606 -2.8826 5.28384 0
M  V30 4998 H 508.432 -0.494099 2.99654 0
M  V30 4999 H 506.017 -0.177989 1.48336 0
M  V30 5000 H 507.899 -2.94686 3.01228 0
M  V30 5001 H 506.574 -2.65436 1.85272 0
M  V30 5002 H 505.481 -1.10347 3.57455 0
M  V30 5003 H 506.814 -1.47062 4.69716 0
M  V30 5004 N 508.466 -1.55915 -0.229846 0
M  V30 5005 C 509.715 -1.77742 -0.953455 0
M  V30 5006 C 510.028 -0.610524 -1.85828 0
M  V30 5007 O 511.234 -0.712219 -2.61992 0
M  V30 5008 C 509.69 -3.14738 -1.74551 0
M  V30 5009 C 509.298 -4.39126 -0.887242 0
M  V30 5010 C 511.042 -3.45895 -2.46084 0
M  V30 5011 C 508.949 -5.67149 -1.67617 0
M  V30 5012 H 507.879 -0.662648 -0.359741 0
M  V30 5013 H 510.53 -1.82322 -0.207576 0
M  V30 5014 H 508.912 -3.04311 -2.53399 0
M  V30 5015 H 510.086 -4.60588 -0.139892 0
M  V30 5016 H 508.401 -4.15427 -0.284443 0
M  V30 5017 H 510.998 -4.38767 -3.05594 0
M  V30 5018 H 511.341 -2.68007 -3.18556 0
M  V30 5019 H 511.874 -3.57614 -1.74233 0
M  V30 5020 H 508.613 -6.47906 -0.994881 0
M  V30 5021 H 508.133 -5.49763 -2.39836 0
M  V30 5022 H 509.812 -6.07025 -2.23898 0
M  V30 5023 N 509.944 0.496216 -1.49584 0
M  V30 5024 C 511.193 1.24668 -1.58558 0
M  V30 5025 C 511.506 1.9359 -0.279703 0
M  V30 5026 O 512.712 2.70365 -0.248048 0
M  V30 5027 C 511.168 2.26388 -2.79779 0
M  V30 5028 C 510.776 1.63384 -4.17145 0
M  V30 5029 C 512.52 3.02233 -2.98086 0
M  V30 5030 C 510.427 2.63243 -5.29582 0
M  V30 5031 H 509.357 0.468995 -0.590389 0
M  V30 5032 H 512.008 0.519985 -1.75978 0
M  V30 5033 H 510.39 3.02241 -2.55863 0
M  V30 5034 H 511.564 0.93491 -4.51216 0
M  V30 5035 H 509.879 0.999121 -4.04236 0
M  V30 5036 H 512.476 3.76919 -3.79257 0
M  V30 5037 H 512.819 3.60132 -2.08831 0
M  V30 5038 H 513.352 2.33495 -3.22063 0
M  V30 5039 H 510.091 2.10119 -6.20911 0
M  V30 5040 H 509.611 3.31363 -4.99959 0
M  V30 5041 H 511.29 3.25575 -5.59115 0
M  V30 5042 N 511.423 1.38739 0.74761 0
M  V30 5043 C 512.333 1.38696 1.89211 0
M  V30 5044 C 513.349 0.283303 1.71678 0
M  V30 5045 O 514.525 0.522713 1.94498 0
M  V30 5046 C 511.59 1.21662 3.24653 0
M  V30 5047 C 510.651 2.41886 3.54669 0
M  V30 5048 C 509.884 2.25655 4.83648 0
M  V30 5049 O 510.107 1.25339 5.56459 0
M  V30 5050 O 509.041 3.14372 5.13277 0
M  V30 5051 H 512.867 2.35143 1.92202 0
M  V30 5052 H 510.452 1.19721 0.893708 0
M  V30 5053 H 512.334 1.14246 4.05618 0
M  V30 5054 H 511.009 0.283024 3.2246 0
M  V30 5055 H 509.916 2.54877 2.73841 0
M  V30 5056 H 511.249 3.33895 3.61628 0
M  V30 5057 N 512.901 -0.976442 1.23707 0
M  V30 5058 C 514.149 -1.71487 1.06942 0
M  V30 5059 C 514.47 -1.9098 -0.393897 0
M  V30 5060 O 513.74 -1.48128 -1.28198 0
M  V30 5061 H 512.32 -0.635425 0.392739 0
M  V30 5062 H 514.982 -1.17515 1.55487 0
M  V30 5063 H 514.078 -2.70286 1.56051 0
M  V30 5064 N 514.379 -1.04941 -1.1758 0
M  V30 5065 C 515.604 -0.778253 -1.92245 0
M  V30 5066 C 516.029 0.659707 -1.76152 0
M  V30 5067 O 515.387 1.45803 -1.07755 0
M  V30 5068 C 515.435 -1.16051 -3.41416 0
M  V30 5069 O 514.539 -0.291153 -4.11371 0
M  V30 5070 H 513.88 -0.285619 -0.599431 0
M  V30 5071 H 516.41 -1.40159 -1.49052 0
M  V30 5072 H 516.42 -1.12619 -3.92149 0
M  V30 5073 H 515.095 -2.208 -3.52449 0
M  V30 5074 H 513.672 -0.385851 -3.70898 0
M  V30 5075 N 515.857 1.33968 -0.830081 0
M  V30 5076 C 517.082 2.02813 -0.433796 0
M  V30 5077 C 517.507 1.62076 0.954614 0
M  V30 5078 O 516.865 0.808955 1.62252 0
M  V30 5079 C 516.913 3.56348 -0.552115 0
M  V30 5080 O 516.017 4.10202 0.425191 0
M  V30 5081 H 515.358 0.639817 -0.177567 0
M  V30 5082 H 517.888 1.7106 -1.12248 0
M  V30 5083 H 517.898 4.05722 -0.430513 0
M  V30 5084 H 516.573 3.85344 -1.56471 0
M  V30 5085 H 515.15 3.71979 0.261878 0
M  V30 5086 N 517.335 0.585699 1.46312 0
M  V30 5087 C 518.245 -0.148236 2.34131 0
M  V30 5088 C 519.261 -0.882972 1.49932 0
M  V30 5089 O 520.437 -0.845484 1.82794 0
M  V30 5090 C 517.502 -1.14714 3.27172 0
M  V30 5091 C 516.563 -0.416746 4.27272 0
M  V30 5092 C 515.796 -1.36806 5.15868 0
M  V30 5093 O 516.019 -2.60475 5.07454 0
M  V30 5094 O 514.953 -0.877018 5.95476 0
M  V30 5095 H 518.779 0.572882 2.98248 0
M  V30 5096 H 516.364 0.346082 1.45336 0
M  V30 5097 H 518.246 -1.72303 3.84564 0
M  V30 5098 H 516.921 -1.84967 2.65648 0
M  V30 5099 H 515.828 0.201061 3.73559 0
M  V30 5100 H 517.161 0.244872 4.9159 0
M  V30 5101 N 518.813 -1.54241 0.323641 0
M  V30 5102 C 519.746 -2.20579 -0.584833 0
M  V30 5103 C 520.724 -1.18286 -1.11567 0
M  V30 5104 O 521.908 -1.47025 -1.17966 0
M  V30 5105 C 519.035 -2.86754 -1.80249 0
M  V30 5106 C 518.081 -4.02767 -1.4029 0
M  V30 5107 S 518.914 -5.33693 -0.439539 0
M  V30 5108 C 520.07 -6.03362 -1.66448 0
M  V30 5109 H 520.303 -2.97292 -0.0213238 0
M  V30 5110 H 517.836 -1.54024 0.107726 0
M  V30 5111 H 519.794 -3.25503 -2.50116 0
M  V30 5112 H 518.455 -2.09844 -2.33719 0
M  V30 5113 H 517.648 -4.47933 -2.31024 0
M  V30 5114 H 517.25 -3.65692 -0.783928 0
M  V30 5115 H 519.542 -6.25546 -2.6019 0
M  V30 5116 H 520.485 -6.9689 -1.25498 0
M  V30 5117 H 520.893 -5.33273 -1.85149 0
M  V30 5118 N 520.291 -0.0518155 -1.57515 0
M  V30 5119 C 521.531 0.625712 -1.94587 0
M  V30 5120 C 521.895 1.6797 -0.930053 0
M  V30 5121 O 523.096 2.41135 -1.18774 0
M  V30 5122 C 521.367 1.20574 -3.36447 0
M  V30 5123 S 522.926 1.90118 -3.95475 0
M  V30 5124 H 519.744 0.205434 -0.680675 0
M  V30 5125 H 522.346 -0.120906 -1.95126 0
M  V30 5126 H 521.05 0.426521 -4.08178 0
M  V30 5127 H 520.581 1.98916 -3.39405 0
M  V30 5128 H 522.596 3.18184 -3.80753 0
M  V30 5129 N 521.769 1.56035 0.221574 0
M  V30 5130 C 523.185 1.49026 0.571271 0
M  V30 5131 C 523.385 0.746912 1.87146 0
M  V30 5132 O 522.441 0.286566 2.50869 0
M  V30 5133 C 523.754 2.93579 0.650522 0
M  V30 5134 C 525.302 3.04099 0.741151 0
M  V30 5135 C 525.777 4.5001 0.851747 0
M  V30 5136 N 527.268 4.54053 0.915968 0
M  V30 5137 C 528.003 5.64232 1.02125 0
M  V30 5138 N 527.499 6.84164 1.09049 0
M  V30 5139 N 529.292 5.52084 1.05639 0
M  V30 5140 H 521.443 2.02791 -0.63162 0
M  V30 5141 H 523.706 0.921736 -0.221602 0
M  V30 5142 H 523.412 3.50912 -0.235253 0
M  V30 5143 H 523.286 3.45476 1.51413 0
M  V30 5144 H 525.673 2.4683 1.61737 0
M  V30 5145 H 525.754 2.55371 -0.148128 0
M  V30 5146 H 525.398 5.07896 -0.0200117 0
M  V30 5147 H 525.328 4.96444 1.75644 0
M  V30 5148 H 527.819 3.67683 0.872782 0
M  V30 5149 H 528.132 7.63883 1.1706 0
M  V30 5150 H 526.477 6.86875 1.05962 0
M  V30 5151 H 529.668 4.57317 0.998953 0
M  V30 5152 H 529.841 6.37983 1.13498 0
M  V30 5153 N 523.247 -0.488276 1.49845 0
M  V30 5154 C 524.493 -1.24341 1.6021 0
M  V30 5155 C 524.826 -1.91967 0.293651 0
M  V30 5156 O 524.101 -1.81323 -0.703718 0
M  V30 5157 C 524.384 -2.3005 2.77036 0
M  V30 5158 C 524.237 -1.66842 4.17713 0
M  V30 5159 C 525.556 -3.31509 2.89464 0
M  V30 5160 H 522.675 -0.450704 0.583125 0
M  V30 5161 H 525.317 -0.539673 1.82174 0
M  V30 5162 H 523.467 -2.90071 2.58439 0
M  V30 5163 H 525.139 -1.1055 4.47858 0
M  V30 5164 H 523.382 -0.972079 4.22768 0
M  V30 5165 H 524.053 -2.43576 4.95353 0
M  V30 5166 H 526.529 -2.81493 3.06433 0
M  V30 5167 H 525.405 -4.02822 3.72861 0
M  V30 5168 H 525.666 -3.94603 1.99351 0
M  V30 5169 N 524.725 -1.39134 -0.740242 0
M  V30 5170 C 525.658 -1.3182 -1.86276 0
M  V30 5171 C 526.636 -0.192794 -1.61453 0
M  V30 5172 O 527.82 -0.372365 -1.84786 0
M  V30 5173 C 524.947 -1.04564 -3.22155 0
M  V30 5174 C 523.993 -2.19224 -3.65846 0
M  V30 5175 S 524.826 -3.81466 -3.75824 0
M  V30 5176 C 525.982 -3.56425 -5.14502 0
M  V30 5177 H 526.215 -2.26822 -1.92195 0
M  V30 5178 H 523.748 -1.25127 -0.904576 0
M  V30 5179 H 525.706 -0.895228 -4.00619 0
M  V30 5180 H 524.367 -0.112578 -3.13898 0
M  V30 5181 H 523.56 -1.95732 -4.6444 0
M  V30 5182 H 523.162 -2.30441 -2.94572 0
M  V30 5183 H 525.454 -3.13366 -6.00673 0
M  V30 5184 H 526.397 -4.54462 -5.43019 0
M  V30 5185 H 526.805 -2.90641 -4.8393 0
M  V30 5186 N 526.204 0.969867 -1.24223 0
M  V30 5187 C 527.134 2.08191 -1.05729 0
M  V30 5188 C 528.115 1.70075 0.0290765 0
M  V30 5189 O 529.3 1.93712 -0.137583 0
M  V30 5190 C 526.43 3.40991 -0.658995 0
M  V30 5191 C 525.384 3.93054 -1.69389 0
M  V30 5192 C 524.71 5.22171 -1.15072 0
M  V30 5193 C 526.01 4.21137 -3.08935 0
M  V30 5194 H 527.704 2.23921 -1.98746 0
M  V30 5195 H 525.25 1.07602 -0.956967 0
M  V30 5196 H 527.203 4.18221 -0.51662 0
M  V30 5197 H 525.927 3.25155 0.30686 0
M  V30 5198 H 524.586 3.17977 -1.82444 0
M  V30 5199 H 524.234 5.02694 -0.175539 0
M  V30 5200 H 523.934 5.57973 -1.84229 0
M  V30 5201 H 525.458 6.02013 -1.02042 0
M  V30 5202 H 526.872 4.8908 -2.99121 0
M  V30 5203 H 525.269 4.68163 -3.75425 0
M  V30 5204 H 526.339 3.27996 -3.57137 0
M  V30 5205 N 527.682 1.05563 1.17022 0
M  V30 5206 C 528.645 0.664098 2.19368 0
M  V30 5207 C 529.645 -0.286358 1.5823 0
M  V30 5208 O 530.835 -0.069728 1.7406 0
M  V30 5209 C 527.967 -0.0239932 3.40892 0
M  V30 5210 H 529.16 1.57 2.55521 0
M  V30 5211 H 526.713 0.849964 1.31169 0
M  V30 5212 H 527.448 -0.942988 3.10287 0
M  V30 5213 H 527.233 0.659351 3.86516 0
M  V30 5214 H 528.723 -0.283909 4.16634 0
M  V30 5215 N 529.16 -1.33526 0.837174 0
M  V30 5216 C 530.092 -2.28077 0.226579 0
M  V30 5217 C 531.105 -1.51666 -0.591717 0
M  V30 5218 O 532.294 -1.73511 -0.419064 0
M  V30 5219 C 529.394 -3.31597 -0.69978 0
M  V30 5220 C 528.567 -4.37329 0.0788067 0
M  V30 5221 C 527.626 -5.20526 -0.770637 0
M  V30 5222 O 526.652 -5.68811 -0.210453 0
M  V30 5223 N 527.854 -5.41639 -2.08825 0
M  V30 5224 H 530.619 -2.81115 1.03897 0
M  V30 5225 H 528.18 -1.46201 0.695476 0
M  V30 5226 H 530.172 -3.84158 -1.27298 0
M  V30 5227 H 528.742 -2.78848 -1.41288 0
M  V30 5228 H 527.962 -3.8529 0.833381 0
M  V30 5229 H 529.25 -5.05079 0.614238 0
M  V30 5230 H 528.648 -5.04108 -2.56693 0
M  V30 5231 H 527.205 -5.97263 -2.60998 0
M  V30 5232 N 530.638 -0.59345 -1.46 0
M  V30 5233 C 531.588 0.154751 -2.27474 0
M  V30 5234 C 532.572 0.851849 -1.365 0
M  V30 5235 O 533.764 0.744171 -1.60596 0
M  V30 5236 C 530.893 1.16079 -3.2308 0
M  V30 5237 C 529.979 0.465256 -4.2154 0
M  V30 5238 N 530.37 -0.485197 -5.03467 0
M  V30 5239 C 528.668 0.714634 -4.40237 0
M  V30 5240 C 529.369 -0.892709 -5.74809 0
M  V30 5241 N 528.345 -0.239511 -5.43072 0
M  V30 5242 H 532.147 -0.57546 -2.88211 0
M  V30 5243 H 529.661 -0.416046 -1.5698 0
M  V30 5244 H 531.658 1.71108 -3.80168 0
M  V30 5245 H 530.318 1.89171 -2.63903 0
M  V30 5246 H 531.329 -0.861258 -5.10689 0
M  V30 5247 H 528.006 1.43131 -3.92199 0
M  V30 5248 H 529.396 -1.67581 -6.50666 0
M  V30 5249 N 532.116 1.54067 -0.331816 0
M  V30 5250 C 533.079 2.23275 0.517768 0
M  V30 5251 C 534.079 1.22897 1.03697 0
M  V30 5252 O 535.269 1.47419 0.928084 0
M  V30 5253 C 532.401 2.94326 1.72004 0
M  V30 5254 H 533.594 2.99773 -0.0873507 0
M  V30 5255 H 531.147 1.56079 -0.0830042 0
M  V30 5256 H 531.882 2.21986 2.36417 0
M  V30 5257 H 531.667 3.67941 1.35507 0
M  V30 5258 H 533.157 3.47031 2.32291 0
M  V30 5259 N 533.594 0.0601682 1.57485 0
M  V30 5260 C 534.524 -0.90889 2.15085 0
M  V30 5261 C 535.505 -1.31838 1.07484 0
M  V30 5262 O 536.69 -1.3915 1.35466 0
M  V30 5263 C 533.82 -2.18059 2.7031 0
M  V30 5264 C 532.774 -1.91088 3.82974 0
M  V30 5265 C 532.1 -3.24789 4.24754 0
M  V30 5266 C 533.4 -1.22535 5.07723 0
M  V30 5267 H 535.094 -0.429093 2.96309 0
M  V30 5268 H 532.64 -0.204952 1.42534 0
M  V30 5269 H 534.593 -2.86258 3.09248 0
M  V30 5270 H 533.317 -2.6826 1.8629 0
M  V30 5271 H 531.976 -1.25297 3.44523 0
M  V30 5272 H 531.624 -3.72809 3.37672 0
M  V30 5273 H 531.324 -3.07538 5.00694 0
M  V30 5274 H 532.848 -3.94205 4.66299 0
M  V30 5275 H 534.262 -1.80783 5.4405 0
M  V30 5276 H 532.659 -1.1558 5.88864 0
M  V30 5277 H 533.729 -0.202692 4.84476 0
M  V30 5278 N 535.072 -1.5615 -0.213296 0
M  V30 5279 C 536.035 -1.92249 -1.24792 0
M  V30 5280 C 537.035 -0.801828 -1.39382 0
M  V30 5281 O 538.225 -1.06948 -1.37506 0
M  V30 5282 C 535.357 -2.18056 -2.62039 0
M  V30 5283 H 536.55 -2.84793 -0.939845 0
M  V30 5284 H 534.103 -1.49559 -0.454062 0
M  V30 5285 H 534.838 -1.2809 -2.97932 0
M  V30 5286 H 534.623 -2.99703 -2.52825 0
M  V30 5287 H 536.113 -2.47051 -3.36683 0
M  V30 5288 N 536.55 0.480323 -1.50102 0
M  V30 5289 C 537.48 1.58769 -1.71215 0
M  V30 5290 C 538.461 1.60583 -0.560997 0
M  V30 5291 O 539.646 1.76996 -0.799127 0
M  V30 5292 C 536.776 2.97148 -1.79778 0
M  V30 5293 C 535.73 3.10201 -2.94888 0
M  V30 5294 C 535.056 4.50137 -2.88584 0
M  V30 5295 C 536.356 2.88283 -4.35534 0
M  V30 5296 H 538.05 1.41354 -2.6393 0
M  V30 5297 H 535.596 0.678591 -1.27008 0
M  V30 5298 H 537.549 3.74536 -1.93133 0
M  V30 5299 H 536.273 3.15699 -0.836772 0
M  V30 5300 H 534.932 2.35244 -2.81169 0
M  V30 5301 H 534.58 4.65593 -1.90349 0
M  V30 5302 H 534.28 4.59808 -3.65856 0
M  V30 5303 H 535.804 5.29558 -3.03976 0
M  V30 5304 H 537.218 3.55427 -4.49827 0
M  V30 5305 H 535.615 3.09408 -5.14186 0
M  V30 5306 H 536.685 1.84219 -4.48544 0
M  V30 5307 N 538.028 1.39524 0.732853 0
M  V30 5308 C 539.439 1.32905 1.31122 0
M  V30 5309 C 539.79 -0.00558708 1.96199 0
M  V30 5310 O 538.915 -0.907706 1.96443 0
M  V30 5311 C 539.51 2.40704 2.38426 0
M  V30 5312 C 538.069 2.37599 2.91931 0
M  V30 5313 C 537.216 2.2248 1.65523 0
M  V30 5314 H 540.167 1.49581 0.530207 0
M  V30 5315 H 540.188 2.07616 3.18867 0
M  V30 5316 H 539.7 3.37829 1.91033 0
M  V30 5317 H 537.801 1.44119 3.43599 0
M  V30 5318 H 537.914 3.32538 3.44899 0
M  V30 5319 H 536.278 1.69691 1.8994 0
M  V30 5320 H 537.061 3.21577 1.20178 0
M  V30 5321 N 539.506 -0.963266 1.24736 0
M  V30 5322 C 540.469 -2.04013 1.04457 0
M  V30 5323 C 541.469 -1.608 0.000335555 0
M  V30 5324 O 542.659 -1.72515 0.241719 0
M  V30 5325 C 539.791 -3.35858 0.584162 0
M  V30 5326 H 540.984 -2.23436 2.00041 0
M  V30 5327 H 538.537 -1.13914 1.07021 0
M  V30 5328 H 539.272 -3.22128 -0.374673 0
M  V30 5329 H 539.057 -3.68568 1.3379 0
M  V30 5330 H 540.547 -4.1502 0.463451 0
M  V30 5331 O 541.023 -1.1863 -1.09586 0
M  V30 5332 H 541.714 -0.930355 -1.69894 0
M  V30 END ATOM
M  V30 BEGIN BOND
M  V30 END BOND
M  V30 END CTAB
M  END
$$$$
