drugbank_target|Q9KL51 DevB protein (DB03556)
 OpenBabel12092120283D

  0  0  0     0  0            999 V3000
M  V30 BEGIN CTAB
M  V30 COUNTS 3597 3643 0 0 0
M  V30 BEGIN ATOM
M  V30 1 H -0.908 1.98254 -0.117106 0
M  V30 2 N 0 1.576 0 0
M  V30 3 C 0.933 2.03868 1.02534 0
M  V30 4 C 1.911 0.928543 1.3348 0
M  V30 5 O 3.095 1.19667 1.45644 0
M  V30 6 C 0.222 2.43627 2.35294 0
M  V30 7 C -0.732 3.65373 2.2001 0
M  V30 8 S 0.101 5.13292 1.52614 0
M  V30 9 C 1.257 5.56322 2.86805 0
M  V30 10 H 1.49 2.90518 0.631377 0
M  V30 11 H -0.977 1.52953 0.210867 0
M  V30 12 H 0.981 2.67203 3.11629 0
M  V30 13 H -0.358 1.57376 2.7183 0
M  V30 14 H -1.165 3.90944 3.18086 0
M  V30 15 H -1.563 3.418 1.51819 0
M  V30 16 H 0.729 5.58782 3.83104 0
M  V30 17 H 1.672 6.56266 2.65933 0
M  V30 18 H 2.08 4.83886 2.90714 0
M  V30 19 N 1.4781 -0.272755 1.55222 0
M  V30 20 C 2.7271 -1.00211 1.75045 0
M  V30 21 C 3.0401 -1.87441 0.559046 0
M  V30 22 O 4.2461 -2.63856 0.639698 0
M  V30 23 C 2.7021 -1.83165 3.09804 0
M  V30 24 C 2.3101 -1.008 4.36513 0
M  V30 25 C 4.0541 -2.55529 3.38977 0
M  V30 26 C 1.9611 -1.83194 5.62311 0
M  V30 27 H 0.8911 -0.377878 0.652476 0
M  V30 28 H 3.5421 -0.257776 1.8168 0
M  V30 29 H 1.9241 -2.61694 2.97207 0
M  V30 30 H 3.0981 -0.266855 4.60027 0
M  V30 31 H 1.4131 -0.398897 4.14485 0
M  V30 32 H 4.0101 -3.17578 4.30172 0
M  V30 33 H 4.3531 -3.25825 2.59121 0
M  V30 34 H 4.8861 -1.84029 3.52673 0
M  V30 35 H 1.6251 -1.17318 6.44916 0
M  V30 36 H 1.1451 -2.54905 5.4294 0
M  V30 37 H 2.8241 -2.40552 6.00619 0
M  V30 38 N 2.9562 -1.48159 -0.537278 0
M  V30 39 C 3.9042 -1.62573 -1.66352 0
M  V30 40 C 4.8982 -0.492366 -1.62087 0
M  V30 41 O 6.1042 -0.670847 -1.67032 0
M  V30 42 H 2.4792 -0.511992 -0.550789 0
M  V30 43 H 4.4502 -2.57176 -1.51337 0
M  V30 44 C 3.1992 -1.67583 -3.04649 0
M  V30 45 H 2.5222 -2.54151 -3.08622 0
M  V30 46 H 3.9622 -1.81713 -3.83088 0
M  V30 47 C 2.4212 -0.413039 -3.34358 0
M  V30 48 O 2.9512 0.477259 -3.98855 0
M  V30 49 N 1.1572 -0.286961 -2.8918 0
M  V30 50 H 0.7042 -1.01241 -2.36871 0
M  V30 51 H 0.6622 0.556963 -3.09427 0
M  V30 52 N 4.4343 0.785586 -1.36625 0
M  V30 53 C 5.3843 1.88822 -1.27789 0
M  V30 54 C 6.3683 1.60014 -0.168579 0
M  V30 55 O 7.5603 1.72381 -0.401737 0
M  V30 56 C 4.6893 3.26092 -1.07327 0
M  V30 57 C 3.7753 3.60897 -2.22743 0
M  V30 58 N 4.1663 3.66982 -3.48077 0
M  V30 59 C 2.4643 3.90981 -2.14593 0
M  V30 60 C 3.1653 3.98137 -4.24101 0
M  V30 61 N 2.1413 4.13319 -3.53084 0
M  V30 62 H 5.9433 1.91759 -2.22723 0
M  V30 63 H 3.4573 0.981311 -1.29399 0
M  V30 64 H 5.4543 4.04954 -0.990842 0
M  V30 65 H 4.1143 3.24428 -0.132977 0
M  V30 66 H 5.1253 3.49531 -3.82163 0
M  V30 67 H 1.8023 3.9722 -1.2854 0
M  V30 68 H 3.1923 4.09737 -5.32509 0
M  V30 69 N 5.9124 1.20967 1.01018 0
M  V30 70 C 6.8594 0.964281 2.09691 0
M  V30 71 C 7.8294 -0.107853 1.65749 0
M  V30 72 O 9.0144 0.0381987 1.90762 0
M  V30 73 C 6.1544 0.52943 3.41015 0
M  V30 74 C 5.2674 1.67043 3.98398 0
M  V30 75 C 4.4024 1.18525 5.17808 0
M  V30 76 C 3.4414 2.29892 5.67288 0
M  V30 77 N 2.5784 1.82546 6.77954 0
M  V30 78 H 7.4184 1.89463 2.30017 0
M  V30 79 H 4.9554 0.944289 1.1279 0
M  V30 80 H 6.9134 0.258588 4.16398 0
M  V30 81 H 5.5434 -0.363919 3.20742 0
M  V30 82 H 4.5954 2.05603 3.20049 0
M  V30 83 H 5.9074 2.50877 4.31117 0
M  V30 84 H 5.0614 0.870762 6.00419 0
M  V30 85 H 3.8004 0.316887 4.86669 0
M  V30 86 H 2.8054 2.6215 4.83278 0
M  V30 87 H 4.0304 3.17216 6.00459 0
M  V30 88 H 1.9764 0.980454 6.48632 0
M  V30 89 H 1.8934 2.59956 7.09901 0
M  V30 90 H 3.1614 1.54115 7.64113 0
M  V30 91 N 7.3905 -1.2043 1.01659 0
M  V30 92 C 8.6395 -1.89118 0.701237 0
M  V30 93 C 8.9525 -1.79705 -0.772358 0
M  V30 94 O 10.1585 -2.43528 -1.20026 0
M  V30 95 C 8.6145 -3.39168 1.20388 0
M  V30 96 C 8.2225 -3.57166 2.70438 0
M  V30 97 C 9.9665 -4.1341 0.963953 0
M  V30 98 C 7.8735 -5.01042 3.14183 0
M  V30 99 H 6.8035 -0.708267 0.2586 0
M  V30 100 H 9.4545 -1.36239 1.22927 0
M  V30 101 H 7.8365 -3.91369 0.603824 0
M  V30 102 H 9.0105 -3.15351 3.35992 0
M  V30 103 H 7.3255 -2.96294 2.92572 0
M  V30 104 H 9.9225 -5.19491 1.26621 0
M  V30 105 H 10.2655 -4.16181 -0.099578 0
M  V30 106 H 10.7985 -3.67309 1.52738 0
M  V30 107 H 7.5375 -5.03426 4.19812 0
M  V30 108 H 7.0575 -5.43668 2.53348 0
M  V30 109 H 8.7365 -5.69623 3.0682 0
M  V30 110 N 8.8686 -0.792821 -1.36206 0
M  V30 111 C 10.1156 -0.366786 -1.99151 0
M  V30 112 C 10.4436 1.06243 -1.62919 0
M  V30 113 O 9.6986 1.74927 -0.877442 0
M  V30 114 C 9.9976 -0.481501 -3.54142 0
M  V30 115 C 9.6636 -1.87202 -4.10203 0
M  V30 116 C 8.3256 -2.25248 -4.25226 0
M  V30 117 C 10.6776 -2.78237 -4.40719 0
M  V30 118 C 8.0056 -3.53723 -4.68078 0
M  V30 119 C 10.3576 -4.06144 -4.85005 0
M  V30 120 C 9.0216 -4.44207 -4.98234 0
M  V30 121 H 8.2916 -0.134217 -0.728743 0
M  V30 122 H 10.9386 -1.01094 -1.62641 0
M  V30 123 H 9.2436 0.246146 -3.91026 0
M  V30 124 H 10.9406 -0.132844 -4.0078 0
M  V30 125 H 7.5306 -1.56639 -3.98951 0
M  V30 126 H 11.7146 -2.50097 -4.28679 0
M  V30 127 H 6.9706 -3.8308 -4.76508 0
M  V30 128 H 11.1446 -4.76796 -5.07581 0
M  V30 129 H 8.7716 -5.43814 -5.31197 0
M  V30 130 N 10.3467 1.47872 -0.545128 0
M  V30 131 C 11.7577 1.86384 -0.108581 0
M  V30 132 C 12.1087 1.45309 1.31832 0
M  V30 133 O 11.2337 0.850641 1.9898 0
M  V30 134 C 11.8287 3.38265 -0.190274 0
M  V30 135 C 10.3877 3.75914 0.191164 0
M  V30 136 C 9.5347 2.71926 -0.543273 0
M  V30 137 H 12.4857 1.39561 -0.755537 0
M  V30 138 H 12.5067 3.75831 0.594217 0
M  V30 139 H 12.0187 3.6813 -1.2289 0
M  V30 140 H 10.1197 3.51665 1.23136 0
M  V30 141 H 10.2327 4.78836 -0.158987 0
M  V30 142 H 8.5967 2.54697 0.0122495 0
M  V30 143 H 9.3797 3.04634 -1.58282 0
M  V30 144 N 11.8248 0.280983 1.55075 0
M  V30 145 C 13.0528 -0.337293 2.04132 0
M  V30 146 C 13.4678 -1.4903 1.15912 0
M  V30 147 O 12.8248 -1.81606 0.180459 0
M  V30 148 C 12.8758 -0.812706 3.52246 0
M  V30 149 O 12.5968 0.294387 4.3711 0
M  V30 150 C 14.0978 -1.4982 4.17216 0
M  V30 151 H 11.3178 -0.0761638 0.666663 0
M  V30 152 H 13.8618 0.414787 2.00249 0
M  V30 153 H 12.0168 -1.51486 3.56554 0
M  V30 154 H 12.4308 -0.0721325 5.2445 0
M  V30 155 H 13.9048 -1.7822 5.22438 0
M  V30 156 H 14.3818 -2.43168 3.65741 0
M  V30 157 H 14.9878 -0.839742 4.16927 0
M  V30 158 N 13.3029 -1.57598 0.00835791 0
M  V30 159 C 14.2659 -2.07884 -0.965242 0
M  V30 160 C 15.2659 -0.989825 -1.26725 0
M  V30 161 O 16.4559 -1.25218 -1.21104 0
M  V30 162 C 13.5879 -2.52731 -2.28779 0
M  V30 163 H 14.7809 -2.95178 -0.530112 0
M  V30 164 H 12.3339 -1.54458 -0.239283 0
M  V30 165 H 13.0689 -1.68705 -2.76964 0
M  V30 166 H 12.8539 -3.32272 -2.08177 0
M  V30 167 H 14.3439 -2.91933 -2.98605 0
M  V30 168 N 14.781 0.264519 -1.55364 0
M  V30 169 C 16.058 1.01677 -1.67096 0
M  V30 170 C 16.438 2.03996 -0.543015 0
M  V30 171 O 15.786 2.23907 0.45585 0
M  V30 172 C 15.996 1.66596 -3.0667 0
M  V30 173 C 17.344 2.17442 -3.64697 0
M  V30 174 O 18.368 1.76568 -3.09358 0
M  V30 175 O 17.227 2.92439 -4.61673 0
M  V30 176 H 14.321 0.472161 -0.678965 0
M  V30 177 H 16.867 0.259703 -1.67701 0
M  V30 178 H 15.639 0.924962 -3.80211 0
M  V30 179 H 15.262 2.48968 -3.10001 0
M  V30 180 N 16.2591 1.48442 0.529413 0
M  V30 181 C 17.2221 1.62524 1.61612 0
M  V30 182 C 18.2221 0.498509 1.52877 0
M  V30 183 O 19.4121 0.76431 1.56537 0
M  V30 184 C 16.5441 1.59597 3.01233 0
M  V30 185 H 17.7371 2.59423 1.50465 0
M  V30 186 H 15.2901 1.37047 0.751514 0
M  V30 187 H 16.0251 0.641781 3.17886 0
M  V30 188 H 15.8101 2.41397 3.08982 0
M  V30 189 H 17.3001 1.72646 3.80241 0
M  V30 190 N 17.7372 -0.778329 1.37039 0
M  V30 191 C 18.9832 -1.53892 1.32079 0
M  V30 192 C 19.3162 -1.9396 -0.0965386 0
M  V30 193 O 18.5912 -1.63568 -1.05242 0
M  V30 194 C 18.8742 -2.80847 2.25382 0
M  V30 195 C 18.7272 -2.47076 3.75864 0
M  V30 196 C 20.0462 -3.82741 2.1725 0
M  V30 197 H 17.1652 -0.558303 0.48111 0
M  V30 198 H 19.8072 -0.893397 1.67685 0
M  V30 199 H 17.9572 -3.35931 1.95148 0
M  V30 200 H 19.6292 -1.97957 4.16666 0
M  V30 201 H 17.8722 -1.79863 3.94755 0
M  V30 202 H 18.5432 -3.37798 4.36574 0
M  V30 203 H 21.0192 -3.37133 2.43887 0
M  V30 204 H 19.8952 -4.69303 2.84686 0
M  V30 205 H 20.1562 -4.2652 1.16331 0
M  V30 206 N 19.2153 -1.21501 -1.00376 0
M  V30 207 C 20.4613 -1.03452 -1.74429 0
M  V30 208 C 20.7943 0.430764 -1.89362 0
M  V30 209 O 20.0693 1.31962 -1.42886 0
M  V30 210 C 20.3523 -1.73375 -3.15615 0
M  V30 211 C 20.2053 -3.27431 -3.08397 0
M  V30 212 C 21.5243 -1.47732 -4.14564 0
M  V30 213 H 18.6433 -0.377226 -0.633143 0
M  V30 214 H 21.2853 -1.49693 -1.17013 0
M  V30 215 H 19.4353 -1.34064 -3.64636 0
M  V30 216 H 21.1073 -3.76119 -2.67081 0
M  V30 217 H 19.3503 -3.5767 -2.45468 0
M  V30 218 H 20.0213 -3.71524 -4.08258 0
M  V30 219 H 22.4973 -1.8186 -3.74254 0
M  V30 220 H 21.3733 -1.99169 -5.11491 0
M  V30 221 H 21.6343 -0.407589 -4.40217 0
M  V30 222 N 20.6934 1.19889 -1.02296 0
M  V30 223 C 21.6404 2.22901 -0.598651 0
M  V30 224 C 22.6104 1.61588 0.384521 0
M  V30 225 O 23.7954 1.88697 0.282522 0
M  V30 226 C 20.9354 3.45063 0.0504476 0
M  V30 227 C 20.0484 4.20783 -0.978053 0
M  V30 228 C 19.1834 5.30356 -0.299338 0
M  V30 229 C 18.2224 5.97826 -1.31416 0
M  V30 230 N 17.3594 6.98975 -0.661667 0
M  V30 231 H 22.1994 2.58554 -1.48169 0
M  V30 232 H 19.7364 1.27039 -0.741584 0
M  V30 233 H 21.6944 4.14831 0.443971 0
M  V30 234 H 20.3244 3.10084 0.897097 0
M  V30 235 H 19.3764 3.50018 -1.48969 0
M  V30 236 H 20.6884 4.67109 -1.74958 0
M  V30 237 H 19.8424 6.06516 0.149347 0
M  V30 238 H 18.5814 4.85084 0.504445 0
M  V30 239 H 17.5864 5.20422 -1.77317 0
M  V30 240 H 18.8114 6.45183 -2.11933 0
M  V30 241 H 16.7574 6.55886 0.122132 0
M  V30 242 H 16.6744 7.43461 -1.37117 0
M  V30 243 H 17.9424 7.7914 -0.236785 0
M  V30 244 N 22.1715 0.800033 1.35784 0
M  V30 245 C 23.3965 0.388511 2.03729 0
M  V30 246 C 23.8215 -0.990481 1.5991 0
M  V30 247 O 23.1795 -1.64013 0.772612 0
M  V30 248 C 23.2275 0.4726 3.5749 0
M  V30 249 O 22.3315 -0.51646 4.09153 0
M  V30 250 H 21.6725 0.163271 0.643614 0
M  V30 251 H 24.2025 1.0841 1.73518 0
M  V30 252 H 24.2125 0.34003 4.06581 0
M  V30 253 H 22.8875 1.47848 3.88734 0
M  V30 254 H 21.4645 -0.344673 3.71304 0
M  V30 255 N 23.6496 -1.47581 0.552962 0
M  V30 256 C 24.5796 -2.32762 -0.185451 0
M  V30 257 C 25.5606 -1.43527 -0.912905 0
M  V30 258 O 26.7456 -1.72388 -0.894201 0
M  V30 259 C 23.8756 -3.25219 -1.21859 0
M  V30 260 C 22.8296 -4.23661 -0.607864 0
M  V30 261 C 22.1556 -5.05413 -1.74533 0
M  V30 262 C 23.4556 -5.20481 0.435582 0
M  V30 263 H 25.1496 -2.94749 0.525684 0
M  V30 264 H 22.6956 -1.41738 0.254251 0
M  V30 265 H 24.6486 -3.8365 -1.7433 0
M  V30 266 H 23.3726 -2.61279 -1.95961 0
M  V30 267 H 22.0316 -3.66451 -0.104489 0
M  V30 268 H 21.6796 -4.3788 -2.47529 0
M  V30 269 H 21.3796 -5.72059 -1.34249 0
M  V30 270 H 22.9036 -5.66701 -2.27338 0
M  V30 271 H 24.3176 -5.733 -0.00290157 0
M  V30 272 H 22.7146 -5.95305 0.757067 0
M  V30 273 H 23.7846 -4.66217 1.33303 0
M  V30 274 N 25.1277 -0.289203 -1.54924 0
M  V30 275 C 26.0907 0.579144 -2.21762 0
M  V30 276 C 27.0907 1.07047 -1.1999 0
M  V30 277 O 28.2807 0.968384 -1.44803 0
M  V30 278 C 25.4127 1.80055 -2.8947 0
M  V30 279 H 26.6057 -0.00464908 -2.999 0
M  V30 280 H 24.1587 -0.0399306 -1.56249 0
M  V30 281 H 24.8937 2.42449 -2.15381 0
M  V30 282 H 24.6787 1.45602 -3.64064 0
M  V30 283 H 26.1687 2.41773 -3.40493 0
M  V30 284 N 26.6058 1.57591 -0.0167156 0
M  V30 285 C 27.8828 1.82547 0.702564 0
M  V30 286 C 28.2628 0.898018 1.91047 0
M  V30 287 O 27.6108 -0.0493456 2.28447 0
M  V30 288 C 27.8208 3.31459 1.09251 0
M  V30 289 C 29.1688 3.97622 1.48937 0
M  V30 290 O 30.1928 3.35881 1.18584 0
M  V30 291 O 29.0518 5.06415 2.05442 0
M  V30 292 H 26.1458 0.752268 0.343544 0
M  V30 293 H 28.6918 1.69644 -0.0434495 0
M  V30 294 H 27.4638 3.9061 0.23227 0
M  V30 295 H 27.0868 3.49422 1.89709 0
M  V30 296 N 28.0839 -0.256276 1.55502 0
M  V30 297 C 29.3609 -1.00789 1.67633 0
M  V30 298 C 29.7409 -2.03706 0.553826 0
M  V30 299 O 29.0889 -2.24145 -0.443969 0
M  V30 300 C 29.2989 -1.64968 3.07549 0
M  V30 301 C 30.6469 -2.15505 3.65845 0
M  V30 302 O 31.6709 -1.74925 3.1029 0
M  V30 303 O 30.5299 -2.89986 4.63217 0
M  V30 304 H 27.6239 -0.468553 0.681459 0
M  V30 305 H 30.1699 -0.250806 1.67836 0
M  V30 306 H 28.9419 -0.904785 3.80696 0
M  V30 307 H 28.5649 -2.47321 3.11317 0
M  V30 308 N 29.562 -1.4872 -0.521534 0
M  V30 309 C 30.495 -1.58451 -1.64221 0
M  V30 310 C 31.473 -0.434513 -1.56687 0
M  V30 311 O 32.657 -0.647275 -1.77038 0
M  V30 312 C 29.784 -1.52037 -3.02659 0
M  V30 313 C 28.83 -2.71981 -3.28525 0
M  V30 314 S 29.663 -4.33869 -3.13876 0
M  V30 315 C 30.819 -4.30067 -4.54745 0
M  V30 316 H 31.052 -2.53256 -1.55719 0
M  V30 317 H 28.585 -1.37358 -0.705143 0
M  V30 318 H 30.543 -1.49023 -3.82495 0
M  V30 319 H 29.204 -0.585541 -3.08594 0
M  V30 320 H 28.397 -2.63656 -4.29536 0
M  V30 321 H 27.999 -2.72302 -2.56374 0
M  V30 322 H 30.291 -4.00521 -5.46433 0
M  V30 323 H 31.234 -5.31287 -4.68123 0
M  V30 324 H 31.642 -3.60419 -4.34463 0
M  V30 325 N 31.0401 0.771051 -1.3745 0
M  V30 326 C 31.9701 1.89827 -1.3597 0
M  V30 327 C 32.9511 1.68562 -0.228216 0
M  V30 328 O 34.1361 1.8941 -0.428675 0
M  V30 329 C 31.2661 3.2712 -1.16662 0
M  V30 330 C 30.2201 3.6295 -2.2683 0
M  V30 331 C 29.5461 4.98791 -1.92644 0
M  V30 332 C 30.8461 3.69627 -3.69017 0
M  V30 333 H 32.5401 1.91323 -2.30295 0
M  V30 334 H 30.0861 0.919082 -1.10855 0
M  V30 335 H 32.0391 4.05615 -1.14256 0
M  V30 336 H 30.7631 3.26059 -0.187926 0
M  V30 337 H 29.4221 2.86763 -2.28392 0
M  V30 338 H 29.0701 4.94271 -0.933021 0
M  V30 339 H 28.7701 5.23733 -2.66416 0
M  V30 340 H 30.2941 5.79685 -1.91826 0
M  V30 341 H 31.7081 4.38273 -3.69581 0
M  V30 342 H 30.1051 4.06067 -4.41848 0
M  V30 343 H 31.1751 2.70273 -4.02592 0
M  V30 344 N 32.5182 1.22032 0.997298 0
M  V30 345 C 33.4812 0.987909 2.06816 0
M  V30 346 C 34.4812 -0.0440084 1.6074 0
M  V30 347 O 35.6712 0.194053 1.73116 0
M  V30 348 C 32.8032 0.49132 3.37341 0
M  V30 349 H 33.9962 1.93803 2.28868 0
M  V30 350 H 31.5492 1.03838 1.16822 0
M  V30 351 H 32.2842 -0.463364 3.20973 0
M  V30 352 H 32.0692 1.23575 3.72118 0
M  V30 353 H 33.5592 0.348824 4.16141 0
M  V30 354 N 33.9963 -1.19345 1.0293 0
M  V30 355 C 35.2263 -1.92717 0.744563 0
M  V30 356 C 35.6343 -1.75751 -0.700579 0
M  V30 357 O 34.9773 -1.07703 -1.48815 0
M  V30 358 C 35.0393 -3.44828 1.01657 0
M  V30 359 C 34.7033 -3.85564 2.45335 0
M  V30 360 C 35.7003 -3.90286 3.43472 0
M  V30 361 C 33.3853 -4.1719 2.79746 0
M  V30 362 C 35.3793 -4.26065 4.74075 0
M  V30 363 C 33.0663 -4.52642 4.10559 0
M  V30 364 C 34.0643 -4.57054 5.07534 0
M  V30 365 O 33.7523 -4.91685 6.36004 0
M  V30 366 H 33.4843 -0.618977 0.271742 0
M  V30 367 H 36.0383 -1.52415 1.37691 0
M  V30 368 H 34.2683 -3.85314 0.327084 0
M  V30 369 H 35.9573 -3.99437 0.721427 0
M  V30 370 H 36.7233 -3.66002 3.18225 0
M  V30 371 H 32.6023 -4.1294 2.04943 0
M  V30 372 H 36.1463 -4.29423 5.49765 0
M  V30 373 H 32.0433 -4.76383 4.35579 0
M  V30 374 H 32.8113 -5.09631 6.40483 0
M  V30 375 N 35.4744 -0.807222 -1.35358 0
M  V30 376 C 36.6994 -0.399309 -2.0352 0
M  V30 377 C 37.1244 0.981986 -1.60433 0
M  V30 378 O 36.4824 1.63601 -0.781299 0
M  V30 379 C 36.5304 -0.491552 -3.57234 0
M  V30 380 O 35.6344 0.494754 -4.09421 0
M  V30 381 H 34.9754 -0.166682 -0.642739 0
M  V30 382 H 37.5054 -1.09328 -1.72941 0
M  V30 383 H 37.5154 -0.361588 -4.06395 0
M  V30 384 H 36.1904 -1.49907 -3.87944 0
M  V30 385 H 34.7674 0.324977 -3.71481 0
M  V30 386 N 36.9525 1.47285 -0.560781 0
M  V30 387 C 37.8845 2.28118 0.222438 0
M  V30 388 C 38.8975 1.37219 0.876056 0
M  V30 389 O 40.0865 1.62011 0.749307 0
M  V30 390 C 37.1865 3.1159 1.33285 0
M  V30 391 C 36.3595 4.30473 0.77534 0
M  V30 392 C 35.4185 4.95513 1.77069 0
M  V30 393 O 34.4445 5.53792 1.31539 0
M  V30 394 N 35.6465 4.90531 3.10418 0
M  V30 395 H 38.4115 2.95976 -0.470958 0
M  V30 396 H 35.9725 1.56955 -0.39709 0
M  V30 397 H 37.9645 3.51967 1.99752 0
M  V30 398 H 36.5345 2.45951 1.92943 0
M  V30 399 H 35.7545 3.94144 -0.0662113 0
M  V30 400 H 37.0425 5.07362 0.382272 0
M  V30 401 H 36.4405 4.44389 3.5005 0
M  V30 402 H 34.9975 5.34917 3.72434 0
M  V30 403 N 38.4306 0.297415 1.54768 0
M  V30 404 C 39.3626 -0.613881 2.20826 0
M  V30 405 C 40.3756 -1.10032 1.19987 0
M  V30 406 O 41.5646 -1.01839 1.46598 0
M  V30 407 C 38.6646 -1.852 2.83821 0
M  V30 408 C 37.8376 -1.50865 4.10559 0
M  V30 409 C 36.8966 -2.60154 4.57391 0
M  V30 410 O 35.9226 -2.25398 5.2267 0
M  V30 411 N 37.1246 -3.90629 4.29406 0
M  V30 412 H 39.8896 -0.048389 2.99661 0
M  V30 413 H 37.4506 0.11946 1.61459 0
M  V30 414 H 39.4426 -2.57652 3.12086 0
M  V30 415 H 38.0126 -2.32597 2.08847 0
M  V30 416 H 37.2326 -0.616925 3.89343 0
M  V30 417 H 38.5206 -1.25458 4.9309 0
M  V30 418 H 37.9186 -4.21677 3.77101 0
M  V30 419 H 36.4756 -4.59391 4.62388 0
M  V30 420 N 39.9087 -1.5758 0.0250728 0
M  V30 421 C 41.1567 -1.91255 -0.653151 0
M  V30 422 C 41.4777 -0.901691 -1.729 0
M  V30 423 O 40.7477 0.0573785 -1.95816 0
M  V30 424 H 39.3277 -0.705942 -0.244243 0
M  V30 425 H 41.9897 -1.94767 0.0719209 0
M  V30 426 H 41.0857 -2.91752 -1.10847 0
M  V30 427 N 41.3868 0.248026 -1.55636 0
M  V30 428 C 42.3188 1.32993 -1.8667 0
M  V30 429 C 43.3318 1.44345 -0.752877 0
M  V30 430 O 44.5208 1.45715 -1.03098 0
M  V30 431 C 41.6208 2.70863 -2.03682 0
M  V30 432 C 40.7938 2.81792 -3.34532 0
M  V30 433 C 39.8528 4.005 -3.41301 0
M  V30 434 O 38.8788 3.9008 -4.14519 0
M  V30 435 N 40.0808 5.13618 -2.70512 0
M  V30 436 H 42.8458 1.06707 -2.8006 0
M  V30 437 H 40.4068 0.438129 -1.55859 0
M  V30 438 H 42.3988 3.48612 -2.05553 0
M  V30 439 H 40.9688 2.89862 -1.17041 0
M  V30 440 H 40.1888 1.90729 -3.44987 0
M  V30 441 H 41.4768 2.86043 -4.20781 0
M  V30 442 H 40.8748 5.24975 -2.10755 0
M  V30 443 H 39.4318 5.89505 -2.78077 0
M  V30 444 N 42.8649 1.48995 0.513639 0
M  V30 445 C 44.2759 1.5119 1.09537 0
M  V30 446 C 44.6269 0.290906 1.94031 0
M  V30 447 O 43.7519 -0.60049 2.07902 0
M  V30 448 C 44.3469 2.73964 1.99322 0
M  V30 449 C 42.9059 2.78978 2.52682 0
M  V30 450 C 42.0529 2.44934 1.30009 0
M  V30 451 H 45.0039 1.55875 0.298125 0
M  V30 452 H 45.0249 2.53409 2.83838 0
M  V30 453 H 44.5369 3.62813 1.37799 0
M  V30 454 H 42.6379 1.94378 3.1788 0
M  V30 455 H 42.7509 3.8083 2.90698 0
M  V30 456 H 41.1149 1.9644 1.62122 0
M  V30 457 H 41.8979 3.36043 0.702131 0
M  V30 458 N 44.343 -0.763751 1.37857 0
M  V30 459 C 45.589 -1.52483 1.33704 0
M  V30 460 C 45.922 -1.94051 -0.0759612 0
M  V30 461 O 45.197 -1.64675 -1.03501 0
M  V30 462 C 45.48 -2.78441 2.28348 0
M  V30 463 C 45.333 -2.43075 3.78463 0
M  V30 464 C 46.652 -3.80415 2.21298 0
M  V30 465 H 43.771 -0.553169 0.487005 0
M  V30 466 H 46.413 -0.875562 1.68624 0
M  V30 467 H 44.563 -3.33842 1.987 0
M  V30 468 H 46.235 -1.93527 4.18742 0
M  V30 469 H 44.478 -1.75666 3.96641 0
M  V30 470 H 45.149 -3.33149 4.40132 0
M  V30 471 H 47.625 -3.34527 2.47449 0
M  V30 472 H 46.501 -4.66257 2.89647 0
M  V30 473 H 46.762 -4.25262 1.20849 0
M  V30 474 N 45.8211 -1.22559 -0.990812 0
M  V30 475 C 46.7711 -0.964807 -2.0658 0
M  V30 476 C 47.7551 0.0853472 -1.60673 0
M  V30 477 O 48.9471 -0.125443 -1.76555 0
M  V30 478 C 46.0761 -0.546707 -3.38919 0
M  V30 479 C 45.1621 -1.6317 -3.91454 0
M  V30 480 N 45.5531 -2.85985 -4.17189 0
M  V30 481 C 43.8511 -1.50387 -4.19881 0
M  V30 482 C 44.5521 -3.56159 -4.59919 0
M  V30 483 N 43.5281 -2.83637 -4.63736 0
M  V30 484 H 47.3301 -1.89769 -2.24421 0
M  V30 485 H 44.8441 -1.12343 -1.17273 0
M  V30 486 H 46.8411 -0.34119 -4.15502 0
M  V30 487 H 45.5011 0.379254 -3.22478 0
M  V30 488 H 46.5121 -3.22392 -4.05319 0
M  V30 489 H 43.1891 -0.644254 -4.12499 0
M  V30 490 H 44.5791 -4.6139 -4.88435 0
M  V30 491 N 47.2992 1.18797 -1.03562 0
M  V30 492 C 48.5482 1.87978 -0.731235 0
M  V30 493 C 48.8612 1.80911 0.743671 0
M  V30 494 O 50.0672 2.45407 1.16137 0
M  V30 495 C 48.5232 3.3721 -1.25768 0
M  V30 496 C 48.1312 3.52818 -2.76085 0
M  V30 497 C 49.8752 4.11825 -1.0296 0
M  V30 498 C 47.7822 4.9598 -3.22114 0
M  V30 499 H 46.7122 0.704063 -0.269835 0
M  V30 500 H 49.3632 1.34266 -1.25079 0
M  V30 501 H 47.7452 3.90359 -0.666011 0
M  V30 502 H 48.9192 3.09965 -3.40966 0
M  V30 503 H 47.2342 2.91602 -2.97249 0
M  V30 504 H 49.8312 5.17411 -1.34869 0
M  V30 505 H 50.1742 4.16287 0.0333546 0
M  V30 506 H 50.7072 3.64833 -1.58562 0
M  V30 507 H 47.4462 4.96684 -4.27768 0
M  V30 508 H 46.9662 5.39569 -2.61965 0
M  V30 509 H 48.6452 5.6467 -3.15844 0
M  V30 510 N 48.7773 0.814389 1.34928 0
M  V30 511 C 50.0023 0.410097 2.03305 0
M  V30 512 C 50.4273 -0.973464 1.60951 0
M  V30 513 O 49.7853 -1.63185 0.789964 0
M  V30 514 C 49.8333 0.51049 3.56968 0
M  V30 515 O 48.9373 -0.473035 4.09678 0
M  V30 516 H 48.2783 0.170088 0.641846 0
M  V30 517 H 50.8083 1.10244 1.72358 0
M  V30 518 H 50.8183 0.383135 4.06197 0
M  V30 519 H 49.4933 1.51963 3.87144 0
M  V30 520 H 48.0703 -0.305272 3.71648 0
M  V30 521 N 50.2554 -1.46986 0.568584 0
M  V30 522 C 51.1854 -2.32946 -0.160753 0
M  V30 523 C 52.1664 -1.44487 -0.897631 0
M  V30 524 O 53.3514 -1.73327 -0.875867 0
M  V30 525 C 50.4814 -3.26494 -1.18403 0
M  V30 526 C 49.4354 -4.24282 -0.562895 0
M  V30 527 C 48.7614 -5.07236 -1.69163 0
M  V30 528 C 50.0614 -5.19989 0.490761 0
M  V30 529 H 51.7554 -2.94175 0.556916 0
M  V30 530 H 49.3014 -1.4146 0.26927 0
M  V30 531 H 51.2544 -3.85477 -1.70251 0
M  V30 532 H 49.9784 -2.63343 -1.93179 0
M  V30 533 H 48.6374 -3.66541 -0.0656164 0
M  V30 534 H 48.2854 -4.4048 -2.42871 0
M  V30 535 H 47.9854 -5.7345 -1.28174 0
M  V30 536 H 49.5094 -5.6908 -2.21314 0
M  V30 537 H 50.9234 -5.73271 0.0579047 0
M  V30 538 H 49.3204 -5.94469 0.820165 0
M  V30 539 H 50.3904 -4.64777 1.3824 0
M  V30 540 N 51.7335 -0.305618 -1.54608 0
M  V30 541 C 52.9585 0.307562 -2.05107 0
M  V30 542 C 53.3835 1.46385 -1.18123 0
M  V30 543 O 52.7415 1.8034 -0.186324 0
M  V30 544 C 52.7895 0.73704 -3.52987 0
M  V30 545 O 51.8935 1.84134 -3.6901 0
M  V30 546 H 51.2345 0.0589143 -0.661381 0
M  V30 547 H 53.7645 -0.448807 -1.99617 0
M  V30 548 H 53.7745 1.02459 -3.94925 0
M  V30 549 H 52.4495 -0.108773 -4.15758 0
M  V30 550 H 51.0265 1.55398 -3.38978 0
M  V30 551 N 53.2116 1.57565 -0.0334293 0
M  V30 552 C 54.4596 1.91598 0.642999 0
M  V30 553 C 54.7806 0.910847 1.7242 0
M  V30 554 O 54.0506 -0.0469931 1.95844 0
M  V30 555 H 52.6306 0.707228 0.240496 0
M  V30 556 H 55.2926 1.94726 -0.0822488 0
M  V30 557 H 54.3886 2.92336 1.09298 0
M  V30 558 N 54.6897 -0.239769 1.55765 0
M  V30 559 C 55.9377 -0.964892 1.77579 0
M  V30 560 C 56.2587 -1.85582 0.598699 0
M  V30 561 O 55.5287 -1.92075 -0.385226 0
M  V30 562 H 54.1087 -0.359265 0.654933 0
M  V30 563 H 56.7707 -0.256001 1.93211 0
M  V30 564 H 55.8667 -1.58243 2.69009 0
M  V30 565 N 56.1678 -1.49265 -0.50573 0
M  V30 566 C 57.3928 -1.62478 -1.28902 0
M  V30 567 C 57.8178 -0.294332 -1.85783 0
M  V30 568 O 57.1758 0.737412 -1.65626 0
M  V30 569 C 57.2238 -2.69268 -2.39848 0
M  V30 570 O 56.3278 -2.28113 -3.43567 0
M  V30 571 H 55.6688 -0.54399 -0.380751 0
M  V30 572 H 58.1988 -1.95421 -0.605952 0
M  V30 573 H 58.2088 -2.91291 -2.85681 0
M  V30 574 H 56.8838 -3.65846 -1.97812 0
M  V30 575 H 55.4608 -2.16401 -3.03685 0
M  V30 576 N 57.6459 0.756429 -1.3826 0
M  V30 577 C 58.8739 1.54565 -1.3754 0
M  V30 578 C 59.2889 1.88767 0.0355331 0
M  V30 579 O 58.6459 1.52572 1.0014 0
M  V30 580 C 58.6969 2.84654 -2.22833 0
M  V30 581 O 58.4179 2.51912 -3.5843 0
M  V30 582 C 59.9189 3.78807 -2.30261 0
M  V30 583 H 57.1389 0.478353 -0.470553 0
M  V30 584 H 59.6829 0.936381 -1.81803 0
M  V30 585 H 57.8379 3.41965 -1.8204 0
M  V30 586 H 58.2519 3.35325 -4.03308 0
M  V30 587 H 59.7259 4.67045 -2.94233 0
M  V30 588 H 60.2029 4.19038 -1.31545 0
M  V30 589 H 60.8089 3.2742 -2.71433 0
M  V30 590 N 59.124 1.23083 0.984299 0
M  V30 591 C 60.535 1.05609 1.5396 0
M  V30 592 C 60.886 -0.377793 1.92528 0
M  V30 593 O 60.011 -1.26398 1.75649 0
M  V30 594 C 60.606 1.91087 2.7977 0
M  V30 595 C 59.165 1.77885 3.31713 0
M  V30 596 C 58.312 1.87028 2.04733 0
M  V30 597 H 61.263 1.36802 0.804419 0
M  V30 598 H 61.284 1.43336 3.5247 0
M  V30 599 H 60.796 2.9544 2.51668 0
M  V30 600 H 58.897 0.762995 3.64704 0
M  V30 601 H 59.01 2.61047 4.01735 0
M  V30 602 H 57.374 1.30565 2.18689 0
M  V30 603 H 58.157 2.92929 1.79017 0
M  V30 604 N 60.6021 -1.18246 1.0419 0
M  V30 605 C 61.5491 -2.2192 0.634037 0
M  V30 606 C 62.5191 -1.62179 -0.358765 0
M  V30 607 O 63.7041 -1.89122 -0.252466 0
M  V30 608 C 60.8441 -3.451 0.00445535 0
M  V30 609 C 59.9571 -4.19174 1.04487 0
M  V30 610 C 59.0921 -5.29813 0.383676 0
M  V30 611 C 58.1311 -5.9566 1.4091 0
M  V30 612 N 57.2681 -6.97834 0.772784 0
M  V30 613 H 62.1081 -2.56164 1.52263 0
M  V30 614 H 59.6451 -1.25843 0.761701 0
M  V30 615 H 61.6031 -4.15485 -0.377919 0
M  V30 616 H 60.2331 -3.11472 -0.847652 0
M  V30 617 H 59.2851 -3.47604 1.54518 0
M  V30 618 H 60.5971 -4.64267 1.82368 0
M  V30 619 H 59.7511 -6.06677 -0.0528366 0
M  V30 620 H 58.4901 -4.85825 -0.427208 0
M  V30 621 H 57.4951 -5.17535 1.85574 0
M  V30 622 H 58.7201 -6.4173 2.22171 0
M  V30 623 H 56.6661 -6.55998 -0.0177708 0
M  V30 624 H 56.5831 -7.41186 1.48928 0
M  V30 625 H 57.8511 -7.78665 0.36071 0
M  V30 626 N 62.0802 -0.821533 -1.34494 0
M  V30 627 C 63.0132 -0.187704 -2.27427 0
M  V30 628 C 63.9912 0.65507 -1.48821 0
M  V30 629 O 65.1752 0.619111 -1.78043 0
M  V30 630 C 62.3022 0.737996 -3.30562 0
M  V30 631 C 61.3482 -0.0270713 -4.26491 0
M  V30 632 S 62.1812 -1.37329 -5.17592 0
M  V30 633 C 63.3372 -0.452427 -6.24263 0
M  V30 634 H 63.5702 -0.975598 -2.80837 0
M  V30 635 H 61.1032 -0.61736 -1.4152 0
M  V30 636 H 63.0612 1.26654 -3.90473 0
M  V30 637 H 61.7222 1.4994 -2.76001 0
M  V30 638 H 60.9152 0.6766 -4.99438 0
M  V30 639 H 60.5172 -0.48612 -3.70827 0
M  V30 640 H 62.8092 0.356557 -6.76561 0
M  V30 641 H 63.7522 -1.15153 -6.98674 0
M  V30 642 H 64.1602 -0.0414755 -5.64485 0
M  V30 643 N 63.5583 1.46682 -0.576371 0
M  V30 644 C 64.4883 2.33028 0.148397 0
M  V30 645 C 65.4693 1.44961 0.889956 0
M  V30 646 O 66.6543 1.73789 0.866662 0
M  V30 647 C 63.7843 3.27117 1.1667 0
M  V30 648 C 62.7383 4.24575 0.540386 0
M  V30 649 C 62.0643 5.08126 1.6647 0
M  V30 650 C 63.3643 5.19722 -0.518331 0
M  V30 651 H 65.0583 2.93875 -0.572509 0
M  V30 652 H 62.6043 1.41315 -0.276768 0
M  V30 653 H 64.5573 3.86374 1.68204 0
M  V30 654 H 63.2813 2.64364 1.9178 0
M  V30 655 H 61.9403 3.66571 0.0461769 0
M  V30 656 H 61.5883 4.41762 2.40531 0
M  V30 657 H 61.2883 5.74122 1.25131 0
M  V30 658 H 62.8123 5.70246 2.18293 0
M  V30 659 H 64.2263 5.73232 -0.0883058 0
M  V30 660 H 62.6233 5.94026 -0.851679 0
M  V30 661 H 63.6933 4.64037 -1.40703 0
M  V30 662 N 65.0364 0.313813 1.54444 0
M  V30 663 C 66.2834 -0.291675 2.00388 0
M  V30 664 C 66.6114 -1.52904 1.2021 0
M  V30 665 O 65.8664 -1.93833 0.269707 0
M  V30 666 C 66.1654 -0.680386 3.50864 0
M  V30 667 C 65.8314 0.456699 4.48581 0
M  V30 668 C 64.4934 0.768824 4.75018 0
M  V30 669 C 66.8454 1.22098 5.06697 0
M  V30 670 C 64.1734 1.84812 5.56831 0
M  V30 671 C 66.5254 2.29029 5.89685 0
M  V30 672 C 65.1894 2.60834 6.14428 0
M  V30 673 H 64.4594 -0.106732 0.733273 0
M  V30 674 H 67.1064 0.43557 1.86481 0
M  V30 675 H 65.4114 -1.48791 3.62448 0
M  V30 676 H 67.1084 -1.16026 3.83847 0
M  V30 677 H 63.6984 0.203337 4.28117 0
M  V30 678 H 67.8824 0.993096 4.86263 0
M  V30 679 H 63.1384 2.09912 5.74236 0
M  V30 680 H 67.3124 2.887 6.33739 0
M  V30 681 H 64.9394 3.44596 6.77612 0
M  V30 682 N 66.5145 -1.57545 0.0417849 0
M  V30 683 C 67.4615 -2.10977 -0.935805 0
M  V30 684 C 68.4315 -1.01486 -1.31491 0
M  V30 685 O 69.6165 -1.2898 -1.40602 0
M  V30 686 C 66.7565 -2.65169 -2.2086 0
M  V30 687 C 65.8695 -3.88714 -1.88482 0
M  V30 688 C 65.0045 -4.31254 -3.1015 0
M  V30 689 C 64.0435 -5.47524 -2.7365 0
M  V30 690 N 63.1805 -5.85162 -3.87982 0
M  V30 691 H 68.0205 -2.94218 -0.473249 0
M  V30 692 H 65.5575 -1.45415 -0.221981 0
M  V30 693 H 67.5155 -2.94685 -2.95325 0
M  V30 694 H 66.1455 -1.8474 -2.64709 0
M  V30 695 H 65.1975 -3.65849 -1.04205 0
M  V30 696 H 66.5095 -4.73245 -1.57608 0
M  V30 697 H 65.6635 -4.62273 -3.92923 0
M  V30 698 H 64.4025 -3.45516 -3.44195 0
M  V30 699 H 63.4075 -5.16187 -1.89291 0
M  V30 700 H 64.6325 -6.34971 -2.40807 0
M  V30 701 H 62.5785 -5.02377 -4.21846 0
M  V30 702 H 62.4955 -6.64362 -3.60775 0
M  V30 703 H 63.7635 -6.20791 -4.71422 0
M  V30 704 N 67.9926 0.231505 -1.5589 0
M  V30 705 C 68.9226 1.29022 -1.94617 0
M  V30 706 C 69.9036 1.4941 -0.813067 0
M  V30 707 O 71.0886 1.6176 -1.07459 0
M  V30 708 C 68.2186 2.64199 -2.25424 0
M  V30 709 C 67.1726 2.58484 -3.41131 0
M  V30 710 C 66.4986 3.97599 -3.57518 0
M  V30 711 C 67.7986 2.1413 -4.76388 0
M  V30 712 H 69.4926 0.968563 -2.83301 0
M  V30 713 H 67.0386 0.464479 -1.36303 0
M  V30 714 H 68.9916 3.38413 -2.51107 0
M  V30 715 H 67.7156 2.98032 -1.33583 0
M  V30 716 H 66.3746 1.86727 -3.15481 0
M  V30 717 H 66.0226 4.28723 -2.6307 0
M  V30 718 H 65.7226 3.94659 -4.35337 0
M  V30 719 H 67.2466 4.7349 -3.85538 0
M  V30 720 H 68.6606 2.78083 -5.01341 0
M  V30 721 H 67.0576 2.2227 -5.57419 0
M  V30 722 H 68.1276 1.09331 -4.72414 0
M  V30 723 N 69.4707 1.49531 0.497807 0
M  V30 724 C 70.4007 1.6935 1.60757 0
M  V30 725 C 71.3817 0.542218 1.61227 0
M  V30 726 O 72.5667 0.778417 1.77917 0
M  V30 727 C 69.6967 1.76298 2.99226 0
M  V30 728 C 68.6507 2.91248 3.13622 0
M  V30 729 C 67.9767 2.83312 4.53474 0
M  V30 730 C 69.2767 4.3214 2.93346 0
M  V30 731 H 70.9707 2.62263 1.44425 0
M  V30 732 H 68.5167 1.26208 0.693367 0
M  V30 733 H 70.4697 1.88749 3.76765 0
M  V30 734 H 69.1937 0.799871 3.16654 0
M  V30 735 H 67.8527 2.78404 2.38509 0
M  V30 736 H 67.5007 1.84902 4.67782 0
M  V30 737 H 67.2007 3.60465 4.64046 0
M  V30 738 H 68.7247 2.97775 5.33069 0
M  V30 739 H 70.1387 4.45649 3.60652 0
M  V30 740 H 68.5357 5.1054 3.15387 0
M  V30 741 H 69.6057 4.46363 1.89441 0
M  V30 742 N 70.9488 -0.749086 1.3866 0
M  V30 743 C 71.9118 -1.84457 1.36045 0
M  V30 744 C 72.9118 -1.58682 0.260122 0
M  V30 745 O 74.1018 -1.66343 0.517261 0
M  V30 746 C 71.2338 -3.22008 1.11911 0
M  V30 747 H 72.4268 -1.88182 2.33512 0
M  V30 748 H 69.9798 -0.951266 1.24019 0
M  V30 749 H 70.7148 -3.2395 0.150686 0
M  V30 750 H 70.4998 -3.42111 1.91579 0
M  V30 751 H 71.9898 -4.0208 1.12788 0
M  V30 752 N 72.4269 -1.23603 -0.977757 0
M  V30 753 C 73.6519 -1.09735 -1.75991 0
M  V30 754 C 74.0769 0.346858 -1.84874 0
M  V30 755 O 73.4349 1.25093 -1.3123 0
M  V30 756 C 73.4829 -1.73051 -3.16363 0
M  V30 757 O 72.5869 -0.994452 -4.0023 0
M  V30 758 H 71.9279 -0.384476 -0.541364 0
M  V30 759 H 74.4579 -1.6371 -1.2272 0
M  V30 760 H 74.4679 -1.78398 -3.66931 0
M  V30 761 H 73.1429 -2.78137 -3.09213 0
M  V30 762 H 71.7199 -1.01812 -3.58732 0
M  V30 763 N 73.905 1.17692 -1.04816 0
M  V30 764 C 74.837 2.21103 -0.603822 0
M  V30 765 C 75.85 1.59411 0.33046 0
M  V30 766 O 77.039 1.7807 0.12379 0
M  V30 767 C 74.139 3.38623 0.136898 0
M  V30 768 C 73.312 4.29888 -0.807137 0
M  V30 769 C 72.371 5.26088 -0.10836 0
M  V30 770 O 71.397 5.64353 -0.741232 0
M  V30 771 N 72.599 5.68882 1.15558 0
M  V30 772 H 75.364 2.59848 -1.49329 0
M  V30 773 H 72.925 1.32553 -0.929587 0
M  V30 774 H 74.917 4.00009 0.614401 0
M  V30 775 H 73.487 2.98508 0.927993 0
M  V30 776 H 72.707 3.65993 -1.46434 0
M  V30 777 H 73.995 4.87759 -1.44807 0
M  V30 778 H 73.393 5.39861 1.69015 0
M  V30 779 H 71.95 6.32429 1.57722 0
M  V30 780 N 75.3831 0.828654 1.34056 0
M  V30 781 C 76.7941 0.477534 1.8049 0
M  V30 782 C 77.1451 -1.00258 1.6865 0
M  V30 783 O 76.2701 -1.78057 1.22982 0
M  V30 784 C 76.8651 0.860018 3.27703 0
M  V30 785 C 75.4241 0.561185 3.72193 0
M  V30 786 C 74.5711 1.07385 2.55663 0
M  V30 787 H 77.5221 1.0183 1.21722 0
M  V30 788 H 77.5431 0.166038 3.80138 0
M  V30 789 H 77.0551 1.93731 3.36288 0
M  V30 790 H 75.1561 -0.506465 3.69142 0
M  V30 791 H 75.2691 1.10926 4.66082 0
M  V30 792 H 73.6331 0.495149 2.49841 0
M  V30 793 H 74.4161 2.15771 2.67016 0
M  V30 794 N 76.8612 -1.46375 0.584142 0
M  V30 795 C 78.0912 -2.06461 0.0758195 0
M  V30 796 C 78.4992 -1.43322 -1.23512 0
M  V30 797 O 77.8422 -0.533216 -1.75791 0
M  V30 798 C 77.9042 -3.59131 -0.162773 0
M  V30 799 C 77.5682 -4.4447 1.06279 0
M  V30 800 C 78.5652 -4.80918 1.97519 0
M  V30 801 C 76.2502 -4.85584 1.28504 0
M  V30 802 C 78.2442 -5.57309 3.09331 0
M  V30 803 C 75.9312 -5.61734 2.4062 0
M  V30 804 C 76.9292 -5.9751 3.30863 0
M  V30 805 O 76.6172 -6.72121 4.41032 0
M  V30 806 H 76.3492 -0.673745 0.0551725 0
M  V30 807 H 78.9032 -1.88969 0.804984 0
M  V30 808 H 77.1332 -3.74936 -0.946565 0
M  V30 809 H 78.8222 -4.0114 -0.619782 0
M  V30 810 H 79.5882 -4.49732 1.81565 0
M  V30 811 H 75.4672 -4.57187 0.591702 0
M  V30 812 H 79.0112 -5.85152 3.79793 0
M  V30 813 H 74.9082 -5.92334 2.56537 0
M  V30 814 H 75.6762 -6.90547 4.39417 0
M  V30 815 N 78.3393 -0.321999 -1.54275 0
M  V30 816 C 79.3023 0.531975 -2.22941 0
M  V30 817 C 80.3023 1.04478 -1.22234 0
M  V30 818 O 81.4923 0.937452 -1.46825 0
M  V30 819 C 78.6243 1.73874 -2.93224 0
M  V30 820 H 79.8173 -0.0682612 -2.99822 0
M  V30 821 H 77.3703 -0.0730644 -1.56129 0
M  V30 822 H 78.1053 2.37825 -2.20476 0
M  V30 823 H 77.8903 1.37847 -3.6707 0
M  V30 824 H 79.3803 2.34496 -3.45545 0
M  V30 825 N 79.8174 1.5752 -0.0501392 0
M  V30 826 C 80.7654 2.12651 0.942459 0
M  V30 827 C 81.7594 1.05807 1.32292 0
M  V30 828 O 82.9654 1.24217 1.3027 0
M  V30 829 H 79.3404 0.679673 0.321789 0
M  V30 830 H 81.3114 2.94951 0.452356 0
M  V30 831 C 80.0604 2.68565 2.20836 0
M  V30 832 H 79.3834 3.50439 1.92439 0
M  V30 833 H 80.8234 3.10761 2.8845 0
M  V30 834 C 79.2824 1.62291 2.95234 0
M  V30 835 O 79.8124 1.03508 3.88135 0
M  V30 836 N 78.0184 1.33836 2.57946 0
M  V30 837 H 77.5654 1.81826 1.82475 0
M  V30 838 H 77.5234 0.629595 3.08032 0
M  V30 839 N 81.2955 -0.223234 1.56011 0
M  V30 840 C 82.5725 -0.972108 1.69733 0
M  V30 841 C 82.9525 -2.02485 0.59691 0
M  V30 842 O 82.3005 -2.25037 -0.396324 0
M  V30 843 C 82.5105 -1.58407 3.10979 0
M  V30 844 C 83.8585 -2.07696 3.70334 0
M  V30 845 O 84.8825 -1.68304 3.1393 0
M  V30 846 O 83.7415 -2.80096 4.69264 0
M  V30 847 H 80.8355 -0.453993 0.691245 0
M  V30 848 H 83.3815 -0.215149 1.68331 0
M  V30 849 H 82.1535 -0.823831 3.82529 0
M  V30 850 H 81.7765 -2.40661 3.16493 0
M  V30 851 N 82.7736 -1.49793 -0.48987 0
M  V30 852 C 84.0226 -1.59085 -1.23995 0
M  V30 853 C 84.3356 -0.287907 -1.9347 0
M  V30 854 O 85.5416 -0.259506 -2.70257 0
M  V30 855 C 83.9976 -2.80736 -2.252 0
M  V30 856 C 83.6056 -4.17833 -1.61614 0
M  V30 857 C 85.3496 -2.99364 -3.00967 0
M  V30 858 C 83.2566 -5.30693 -2.60996 0
M  V30 859 H 82.1866 -0.592372 -0.466488 0
M  V30 860 H 84.8376 -1.76197 -0.51252 0
M  V30 861 H 83.2196 -2.57142 -3.01154 0
M  V30 862 H 84.3936 -4.51608 -0.915774 0
M  V30 863 H 82.7086 -4.04656 -0.981977 0
M  V30 864 H 85.3056 -3.80851 -3.75308 0
M  V30 865 H 85.6486 -2.10356 -3.59244 0
M  V30 866 H 86.1816 -3.2305 -2.32128 0
M  V30 867 H 82.9206 -6.21796 -2.07485 0
M  V30 868 H 82.4406 -5.01359 -3.2924 0
M  V30 869 H 84.1196 -5.6049 -3.23202 0
M  V30 870 N 84.2517 0.741722 -1.39055 0
M  V30 871 C 85.1837 1.8657 -1.33133 0
M  V30 872 C 86.1967 1.61001 -0.241329 0
M  V30 873 O 87.3857 1.7136 -0.499784 0
M  V30 874 C 84.4857 3.22457 -1.04283 0
M  V30 875 C 83.6587 3.75435 -2.24427 0
M  V30 876 C 82.7177 4.89867 -1.92138 0
M  V30 877 O 81.7437 5.03879 -2.64754 0
M  V30 878 N 82.9457 5.73738 -0.88347 0
M  V30 879 H 85.7107 1.92156 -2.29991 0
M  V30 880 H 83.2717 0.922172 -1.3307 0
M  V30 881 H 85.2637 3.9657 -0.807128 0
M  V30 882 H 83.8337 3.12181 -0.161807 0
M  V30 883 H 83.0537 2.92751 -2.6399 0
M  V30 884 H 84.3417 4.07563 -3.04581 0
M  V30 885 H 83.7397 5.64999 -0.281517 0
M  V30 886 H 82.2967 6.47947 -0.707662 0
M  V30 887 N 85.7298 1.2412 0.971189 0
M  V30 888 C 86.9758 1.09048 1.71698 0
M  V30 889 C 87.3308 -0.367442 1.88859 0
M  V30 890 O 86.6238 -1.26792 1.43646 0
M  V30 891 C 86.8178 1.75983 3.11071 0
M  V30 892 C 86.6468 3.28133 3.07504 0
M  V30 893 C 85.4168 3.97331 3.1218 0
M  V30 894 C 87.6148 4.24773 2.89952 0
M  V30 895 N 85.5968 5.3639 2.98596 0
M  V30 896 C 86.9678 5.50806 2.84627 0
M  V30 897 C 89.0228 4.15392 2.74506 0
M  V30 898 C 87.7258 6.68533 2.65437 0
M  V30 899 C 89.7518 5.32793 2.56682 0
M  V30 900 C 89.1138 6.57756 2.52063 0
M  V30 901 H 85.2128 0.453632 0.636979 0
M  V30 902 H 87.7968 1.56983 1.15171 0
M  V30 903 H 85.9678 1.30566 3.65796 0
M  V30 904 H 87.6998 1.53803 3.74335 0
M  V30 905 H 84.4548 3.48473 3.20724 0
M  V30 906 H 84.8788 6.09321 2.95054 0
M  V30 907 H 89.5208 3.19543 2.76861 0
M  V30 908 H 87.2388 7.64509 2.61825 0
M  V30 909 H 90.8248 5.27383 2.4568 0
M  V30 910 H 89.7048 7.4707 2.38446 0
M  V30 911 N 87.2079 -1.17134 1.05439 0
M  V30 912 C 88.1549 -2.21235 0.657539 0
M  V30 913 C 89.1249 -1.62551 -0.341543 0
M  V30 914 O 90.3099 -1.89379 -0.232393 0
M  V30 915 C 87.4499 -3.45076 0.0410575 0
M  V30 916 C 86.5629 -4.18042 1.08927 0
M  V30 917 C 85.6979 -5.29376 0.439848 0
M  V30 918 C 84.7369 -5.94132 1.4722 0
M  V30 919 N 83.8739 -6.96975 0.846756 0
M  V30 920 H 88.7139 -2.54534 1.54972 0
M  V30 921 H 86.2509 -1.25028 0.775006 0
M  V30 922 H 88.2089 -4.15862 -0.33383 0
M  V30 923 H 86.8389 -3.12353 -0.814568 0
M  V30 924 H 85.8909 -3.45945 1.58196 0
M  V30 925 H 87.2029 -4.62306 1.87282 0
M  V30 926 H 86.3569 -6.06699 0.0115125 0
M  V30 927 H 85.0959 -4.86251 -0.375656 0
M  V30 928 H 84.1009 -5.15538 1.91052 0
M  V30 929 H 85.3259 -6.39337 2.28965 0
M  V30 930 H 83.2719 -6.5598 0.0518075 0
M  V30 931 H 83.1889 -7.39565 1.5678 0
M  V30 932 H 84.4569 -7.78239 0.443277 0
M  V30 933 N 88.686 -0.835752 -1.33615 0
M  V30 934 C 89.634 -0.255238 -2.31195 0
M  V30 935 C 90.628 0.61107 -1.57995 0
M  V30 936 O 91.834 0.500979 -1.72888 0
M  V30 937 H 88.209 -0.0638085 -0.749288 0
M  V30 938 H 90.18 -1.09283 -2.77669 0
M  V30 939 C 88.929 0.55754 -3.43201 0
M  V30 940 H 88.252 -0.0997553 -3.99676 0
M  V30 941 H 89.692 0.929622 -4.13683 0
M  V30 942 C 88.151 1.73515 -2.88781 0
M  V30 943 O 88.681 2.83376 -2.84712 0
M  V30 944 N 86.887 1.55603 -2.4543 0
M  V30 945 H 86.434 0.662354 -2.48939 0
M  V30 946 H 86.392 2.34545 -2.09371 0
M  V30 947 N 90.1641 1.46063 -0.591896 0
M  V30 948 C 91.0941 2.33172 0.123673 0
M  V30 949 C 92.0751 1.45897 0.87453 0
M  V30 950 O 93.2601 1.74698 0.848181 0
M  V30 951 C 90.3901 3.28336 1.13194 0
M  V30 952 C 89.3441 4.25124 0.495324 0
M  V30 953 C 88.6701 5.09863 1.61071 0
M  V30 954 C 89.9701 5.19143 -0.573425 0
M  V30 955 H 91.6641 2.93252 -0.603646 0
M  V30 956 H 89.2101 1.41014 -0.291741 0
M  V30 957 H 91.1631 3.88137 1.64097 0
M  V30 958 H 89.8871 2.66383 1.88965 0
M  V30 959 H 88.5461 3.66599 0.00729452 0
M  V30 960 H 88.1941 4.44288 2.35832 0
M  V30 961 H 87.8941 5.75417 1.19035 0
M  V30 962 H 89.4181 5.72529 2.12233 0
M  V30 963 H 90.8321 5.73106 -0.1491 0
M  V30 964 H 89.2291 5.93089 -0.914636 0
M  V30 965 H 90.2991 4.62519 -1.45617 0
M  V30 966 N 91.6422 0.330177 1.54103 0
M  V30 967 C 92.5922 -0.548456 2.21305 0
M  V30 968 C 93.5762 -1.07651 1.19583 0
M  V30 969 O 94.7682 -1.01243 1.45186 0
M  V30 970 C 91.8972 -1.70559 2.97934 0
M  V30 971 C 90.9832 -1.19212 4.07 0
M  V30 972 N 91.3742 -0.398831 5.04225 0
M  V30 973 C 89.6722 -1.47024 4.2107 0
M  V30 974 C 90.3732 -0.121761 5.81573 0
M  V30 975 N 89.3492 -0.709722 5.38947 0
M  V30 976 H 93.1512 0.0648483 2.93828 0
M  V30 977 H 90.6652 0.136363 1.61826 0
M  V30 978 H 92.6622 -2.34688 3.44568 0
M  V30 979 H 91.3222 -2.32231 2.26934 0
M  V30 980 H 92.3332 -0.0410869 5.17884 0
M  V30 981 H 89.0102 -2.09232 3.61287 0
M  V30 982 H 90.4002 0.517298 6.69906 0
M  V30 983 N 93.1203 -1.57491 0.0584922 0
M  V30 984 C 94.3673 -1.92978 -0.613648 0
M  V30 985 C 94.6953 -0.937461 -1.70417 0
M  V30 986 O 93.9503 0.049078 -1.95638 0
M  V30 987 C 94.2493 -3.3513 -1.24188 0
M  V30 988 C 93.9153 -4.50037 -0.278826 0
M  V30 989 C 92.5773 -4.81198 -0.0138447 0
M  V30 990 C 94.9293 -5.19807 0.380777 0
M  V30 991 C 92.2573 -5.79473 0.918052 0
M  V30 992 C 94.6093 -6.19079 1.30091 0
M  V30 993 C 93.2733 -6.48665 1.57449 0
M  V30 994 H 92.5433 -0.706157 -0.22455 0
M  V30 995 H 95.1903 -1.91082 0.126533 0
M  V30 996 H 93.4953 -3.33429 -2.05749 0
M  V30 997 H 95.1923 -3.59871 -1.769 0
M  V30 998 H 91.7823 -4.25726 -0.495539 0
M  V30 999 H 95.9663 -4.95939 0.189158 0
M  V30 1000 H 91.2223 -6.00727 1.1374 0
M  V30 1001 H 95.3963 -6.7225 1.81804 0
M  V30 1002 H 93.0233 -7.24628 2.29822 0
M  V30 1003 N 94.5984 0.214957 -1.56127 0
M  V30 1004 C 95.8444 0.935325 -1.80619 0
M  V30 1005 C 96.1994 1.81706 -0.632507 0
M  V30 1006 O 95.4924 1.87931 0.373182 0
M  V30 1007 C 95.6864 1.80314 -3.0858 0
M  V30 1008 C 95.5154 1.00691 -4.38282 0
M  V30 1009 C 94.2854 0.699211 -5.00439 0
M  V30 1010 C 96.4834 0.369057 -5.12974 0
M  V30 1011 N 94.4654 -0.117734 -6.13787 0
M  V30 1012 C 95.8364 -0.310981 -6.1922 0
M  V30 1013 C 97.8914 0.282759 -4.97096 0
M  V30 1014 C 96.5944 -1.06907 -7.11311 0
M  V30 1015 C 98.6204 -0.461881 -5.89594 0
M  V30 1016 C 97.9824 -1.13044 -6.9527 0
M  V30 1017 H 94.0814 0.322307 -0.71249 0
M  V30 1018 H 96.6654 0.205649 -1.93611 0
M  V30 1019 H 94.8364 2.50458 -2.96859 0
M  V30 1020 H 96.5684 2.46148 -3.21237 0
M  V30 1021 H 93.3234 1.01884 -4.62511 0
M  V30 1022 H 93.7474 -0.515235 -6.75037 0
M  V30 1023 H 98.3894 0.785292 -4.15443 0
M  V30 1024 H 96.1074 -1.5831 -7.92442 0
M  V30 1025 H 99.6934 -0.529746 -5.79383 0
M  V30 1026 H 98.5734 -1.69742 -7.65609 0
M  V30 1027 N 96.0765 1.50051 0.48192 0
M  V30 1028 C 97.3225 1.61706 1.2338 0
M  V30 1029 C 97.6775 0.308488 1.89911 0
M  V30 1030 O 96.9705 -0.692798 1.78636 0
M  V30 1031 C 97.1645 2.72717 2.30998 0
M  V30 1032 C 96.9935 4.14242 1.75024 0
M  V30 1033 C 95.7635 4.80786 1.55476 0
M  V30 1034 C 97.9615 4.98846 1.25128 0
M  V30 1035 N 95.9435 6.06563 0.946311 0
M  V30 1036 C 97.3145 6.15258 0.765382 0
M  V30 1037 C 99.3695 4.84702 1.13881 0
M  V30 1038 C 98.0725 7.19079 0.178113 0
M  V30 1039 C 100.098 5.8869 0.565486 0
M  V30 1040 C 99.4605 7.04343 0.0899105 0
M  V30 1041 H 95.5595 0.645958 0.440753 0
M  V30 1042 H 98.1435 1.8713 0.537624 0
M  V30 1043 H 96.3145 2.49033 2.98055 0
M  V30 1044 H 98.0465 2.73789 2.9803 0
M  V30 1045 H 94.8015 4.37899 1.80392 0
M  V30 1046 H 95.2255 6.73767 0.660812 0
M  V30 1047 H 99.8675 3.95583 1.49244 0
M  V30 1048 H 97.5855 8.07882 -0.187749 0
M  V30 1049 H 101.171 5.79808 0.480974 0
M  V30 1050 H 100.051 7.83433 -0.346782 0
M  V30 1051 N 97.5546 -0.734337 1.39446 0
M  V30 1052 C 98.8026 -1.49096 1.36436 0
M  V30 1053 C 99.1236 -1.94961 -0.0388255 0
M  V30 1054 O 98.3936 -1.69033 -0.990191 0
M  V30 1055 H 96.9736 -0.5531 0.502085 0
M  V30 1056 H 99.6356 -0.871725 1.74319 0
M  V30 1057 H 98.7316 -2.37276 2.02747 0
M  V30 1058 N 99.0327 -1.24633 -0.964593 0
M  V30 1059 C 100.31 -0.995809 -1.68354 0
M  V30 1060 C 100.69 0.480964 -2.05548 0
M  V30 1061 O 100.038 1.45599 -1.76105 0
M  V30 1062 C 100.248 -1.92177 -2.91323 0
M  V30 1063 C 101.596 -2.19446 -3.63495 0
M  V30 1064 O 102.62 -1.89855 -3.01386 0
M  V30 1065 O 101.479 -2.69714 -4.75307 0
M  V30 1066 H 98.5727 -0.376854 -0.736146 0
M  V30 1067 H 101.119 -1.35745 -1.0184 0
M  V30 1068 H 99.8907 -2.91938 -2.60553 0
M  V30 1069 H 99.5137 -1.56349 -3.65569 0
M  V30 1070 N 100.511 1.16574 -1.06058 0
M  V30 1071 C 101.421 2.2452 -0.680282 0
M  V30 1072 C 102.437 1.71348 0.302604 0
M  V30 1073 O 103.613 2.00822 0.152513 0
M  V30 1074 C 100.678 3.46629 -0.0700315 0
M  V30 1075 C 99.7388 4.14849 -1.10448 0
M  V30 1076 C 98.9718 5.31129 -0.523256 0
M  V30 1077 O 99.1948 5.66514 0.664709 0
M  V30 1078 O 98.1288 5.88526 -1.26179 0
M  V30 1079 H 101.955 2.59355 -1.58015 0
M  V30 1080 H 99.5398 1.24043 -0.832694 0
M  V30 1081 H 101.422 4.20543 0.268667 0
M  V30 1082 H 100.097 3.13573 0.803353 0
M  V30 1083 H 99.0038 3.42916 -1.49532 0
M  V30 1084 H 100.337 4.51954 -1.94931 0
M  V30 1085 N 101.989 0.842826 1.3317 0
M  V30 1086 C 103.405 0.531128 1.50503 0
M  V30 1087 C 103.605 -0.940734 1.78192 0
M  V30 1088 O 102.661 -1.72436 1.84451 0
M  V30 1089 C 103.974 1.40789 2.65705 0
M  V30 1090 C 105.522 1.40708 2.79589 0
M  V30 1091 C 105.997 2.26878 3.97857 0
M  V30 1092 N 107.488 2.24609 4.05099 0
M  V30 1093 C 108.223 2.88019 4.95815 0
M  V30 1094 N 107.719 3.60496 5.9162 0
M  V30 1095 N 109.512 2.77469 4.88843 0
M  V30 1096 H 101.663 1.79557 1.1346 0
M  V30 1097 H 103.926 0.766267 0.558156 0
M  V30 1098 H 103.632 2.454 2.51936 0
M  V30 1099 H 103.506 1.08677 3.61205 0
M  V30 1100 H 105.893 0.368668 2.92788 0
M  V30 1101 H 105.974 1.76829 1.84838 0
M  V30 1102 H 105.618 3.3078 3.85418 0
M  V30 1103 H 105.548 1.88096 4.91861 0
M  V30 1104 H 108.039 1.71906 3.36536 0
M  V30 1105 H 108.352 4.06076 6.57512 0
M  V30 1106 H 106.697 3.64604 5.91683 0
M  V30 1107 H 109.888 2.20406 4.12963 0
M  V30 1108 H 110.061 3.2717 5.59342 0
M  V30 1109 N 103.467 -1.45747 0.599634 0
M  V30 1110 C 104.707 -2.04181 0.0946309 0
M  V30 1111 C 105.071 -1.45895 -1.24815 0
M  V30 1112 O 106.272 -1.95633 -1.8434 0
M  V30 1113 C 104.543 -3.57368 0.047581 0
M  V30 1114 S 106.102 -4.36997 -0.397387 0
M  V30 1115 H 102.92 -0.70953 0.0456954 0
M  V30 1116 H 105.522 -1.78564 0.795946 0
M  V30 1117 H 104.226 -3.97303 1.02852 0
M  V30 1118 H 103.757 -3.87549 -0.675977 0
M  V30 1119 H 105.772 -4.68012 -1.64862 0
M  V30 1120 N 104.945 -0.338344 -1.53925 0
M  V30 1121 C 106.191 0.260143 -2.01125 0
M  V30 1122 C 106.524 1.50617 -1.22589 0
M  V30 1123 O 105.799 1.91979 -0.312113 0
M  V30 1124 C 106.082 0.579499 -3.55407 0
M  V30 1125 C 105.935 -0.678264 -4.44657 0
M  V30 1126 C 107.254 1.39122 -4.17532 0
M  V30 1127 H 104.373 0.0930772 -0.731099 0
M  V30 1128 H 107.015 -0.457852 -1.84401 0
M  V30 1129 H 105.165 1.19118 -3.69788 0
M  V30 1130 H 106.837 -1.31631 -4.42121 0
M  V30 1131 H 105.08 -1.3042 -4.13731 0
M  V30 1132 H 105.751 -0.410143 -5.50474 0
M  V30 1133 H 108.227 0.874035 -4.06817 0
M  V30 1134 H 107.103 1.58342 -5.25565 0
M  V30 1135 H 107.364 2.39178 -3.71815 0
M  V30 1136 N 106.423 1.57458 -0.0668435 0
M  V30 1137 C 107.386 2.11323 0.887422 0
M  V30 1138 C 108.386 1.03618 1.22964 0
M  V30 1139 O 109.576 1.29626 1.16373 0
M  V30 1140 C 106.708 2.61048 2.19242 0
M  V30 1141 H 107.901 2.96942 0.420194 0
M  V30 1142 H 105.454 1.55239 0.181793 0
M  V30 1143 H 106.189 1.78868 2.70512 0
M  V30 1144 H 105.974 3.39769 1.95702 0
M  V30 1145 H 107.464 3.02814 2.87565 0
M  V30 1146 N 107.901 -0.206675 1.56239 0
M  V30 1147 C 109.312 -0.772383 1.69974 0
M  V30 1148 C 109.663 -1.84353 0.671436 0
M  V30 1149 O 108.788 -2.15695 -0.174491 0
M  V30 1150 C 109.383 -1.40779 3.08167 0
M  V30 1151 C 107.942 -1.92072 3.23706 0
M  V30 1152 C 107.089 -0.786347 2.65917 0
M  V30 1153 H 110.04 0.0182223 1.5869 0
M  V30 1154 H 110.061 -2.27696 3.04852 0
M  V30 1155 H 109.573 -0.627958 3.82986 0
M  V30 1156 H 107.674 -2.7281 2.53782 0
M  V30 1157 H 107.787 -2.09046 4.31087 0
M  V30 1158 H 106.151 -1.1976 2.24788 0
M  V30 1159 H 106.934 -0.0189416 3.43295 0
M  V30 1160 N 109.379 -1.50304 -0.473955 0
M  V30 1161 C 110.656 -1.51667 -1.23518 0
M  V30 1162 C 111.036 -0.259701 -2.09496 0
M  V30 1163 O 110.384 0.756986 -2.15597 0
M  V30 1164 C 110.594 -2.81082 -2.06868 0
M  V30 1165 C 111.942 -3.31631 -2.65153 0
M  V30 1166 O 112.966 -2.82384 -2.17113 0
M  V30 1167 O 111.825 -4.17471 -3.52675 0
M  V30 1168 H 108.919 -0.60822 -0.560355 0
M  V30 1169 H 111.465 -1.62592 -0.486011 0
M  V30 1170 H 110.237 -3.64041 -1.4349 0
M  V30 1171 H 109.86 -2.73146 -2.88924 0
M  V30 1172 N 110.857 0.726932 -1.39834 0
M  V30 1173 C 112.134 1.47902 -1.28001 0
M  V30 1174 C 112.514 2.1083 0.106789 0
M  V30 1175 O 111.862 1.99242 1.11869 0
M  V30 1176 C 112.072 2.52392 -2.41038 0
M  V30 1177 C 113.42 3.18546 -2.80737 0
M  V30 1178 O 114.444 2.62708 -2.40547 0
M  V30 1179 O 113.303 4.19604 -3.50135 0
M  V30 1180 H 110.397 0.657163 -0.502062 0
M  V30 1181 H 112.943 0.760071 -1.51727 0
M  V30 1182 H 111.715 2.04329 -3.33715 0
M  V30 1183 H 111.338 3.31837 -2.19021 0
M  V30 1184 N 112.336 1.25143 0.95797 0
M  V30 1185 C 113.299 1.05321 2.03569 0
M  V30 1186 C 114.299 0.007152 1.60798 0
M  V30 1187 O 115.489 0.24903 1.72411 0
M  V30 1188 C 112.621 0.598394 3.35607 0
M  V30 1189 H 113.814 2.00986 2.22586 0
M  V30 1190 H 111.367 1.07502 1.13459 0
M  V30 1191 H 112.102 -0.361014 3.22284 0
M  V30 1192 H 111.887 1.35351 3.67998 0
M  V30 1193 H 113.377 0.48104 4.1482 0
M  V30 1194 N 113.814 -1.1601 1.06675 0
M  V30 1195 C 114.724 -2.24156 0.692179 0
M  V30 1196 C 115.74 -1.71507 -0.293513 0
M  V30 1197 O 116.916 -2.009 -0.141861 0
M  V30 1198 C 113.981 -3.46587 0.0884131 0
M  V30 1199 C 113.042 -4.14257 1.12646 0
M  V30 1200 C 112.275 -5.30844 0.551416 0
M  V30 1201 O 112.498 -5.66858 -0.634656 0
M  V30 1202 O 111.432 -5.87848 1.29298 0
M  V30 1203 H 115.258 -2.58513 1.59388 0
M  V30 1204 H 112.843 -1.23599 0.83926 0
M  V30 1205 H 114.725 -4.20679 -0.246361 0
M  V30 1206 H 113.4 -3.13994 -0.786712 0
M  V30 1207 H 112.307 -3.42118 1.51348 0
M  V30 1208 H 113.64 -4.50914 1.97325 0
M  V30 1209 N 115.292 -0.849877 -1.32721 0
M  V30 1210 C 116.517 -0.463856 -2.02146 0
M  V30 1211 C 116.942 0.930449 -1.63476 0
M  V30 1212 O 116.3 1.61033 -0.832952 0
M  V30 1213 C 116.348 -0.604955 -3.55489 0
M  V30 1214 O 115.452 0.36425 -4.10788 0
M  V30 1215 H 114.793 -0.187046 -0.637111 0
M  V30 1216 H 117.323 -1.14775 -1.69375 0
M  V30 1217 H 117.333 -0.490696 -4.05038 0
M  V30 1218 H 116.008 -1.62174 -3.82978 0
M  V30 1219 H 114.585 0.206628 -3.72327 0
M  V30 1220 N 116.77 1.45427 -0.607355 0
M  V30 1221 C 117.718 2.32269 0.12411 0
M  V30 1222 C 118.712 1.45955 0.859854 0
M  V30 1223 O 119.918 1.6244 0.775447 0
M  V30 1224 H 116.293 0.749691 0.0588839 0
M  V30 1225 H 118.264 2.91743 -0.626762 0
M  V30 1226 C 117.013 3.29567 1.1082 0
M  V30 1227 H 116.336 3.95978 0.551492 0
M  V30 1228 H 117.776 3.93061 1.58995 0
M  V30 1229 C 116.235 2.56722 2.18164 0
M  V30 1230 O 116.765 2.34842 3.25902 0
M  V30 1231 N 114.971 2.16861 1.93442 0
M  V30 1232 H 114.518 2.34855 1.05834 0
M  V30 1233 H 114.476 1.68444 2.65469 0
M  V30 1234 N 118.248 0.346503 1.53744 0
M  V30 1235 C 119.478 -0.250047 2.05081 0
M  V30 1236 C 119.886 -1.44529 1.22098 0
M  V30 1237 O 119.229 -1.81992 0.249917 0
M  V30 1238 C 119.291 -0.725934 3.52094 0
M  V30 1239 C 118.955 0.350053 4.55657 0
M  V30 1240 C 119.952 1.19372 5.0601 0
M  V30 1241 C 117.637 0.504827 4.99757 0
M  V30 1242 C 119.631 2.17768 5.99046 0
M  V30 1243 C 117.318 1.49218 5.92602 0
M  V30 1244 C 118.316 2.32706 6.42135 0
M  V30 1245 O 118.004 3.2976 7.33153 0
M  V30 1246 H 117.736 -0.0515469 0.674032 0
M  V30 1247 H 120.29 0.497559 1.99282 0
M  V30 1248 H 118.52 -1.52483 3.55367 0
M  V30 1249 H 120.209 -1.24336 3.86388 0
M  V30 1250 H 120.975 1.08525 4.72702 0
M  V30 1251 H 116.854 -0.135178 4.60802 0
M  V30 1252 H 120.398 2.82971 6.37631 0
M  V30 1253 H 116.295 1.6012 6.25325 0
M  V30 1254 H 117.063 3.25265 7.51096 0
M  V30 1255 N 119.726 -1.57421 0.075193 0
M  V30 1256 C 120.974 -1.93236 -0.591974 0
M  V30 1257 C 121.295 -0.956241 -1.69944 0
M  V30 1258 O 120.565 -0.00494792 -1.95899 0
M  V30 1259 H 119.145 -0.713355 -0.22166 0
M  V30 1260 H 121.807 -1.9444 0.133848 0
M  V30 1261 H 120.903 -2.95131 -1.01509 0
M  V30 1262 N 121.204 0.198386 -1.56346 0
M  V30 1263 C 122.114 1.2664 -1.97483 0
M  V30 1264 C 123.13 1.49989 -0.882002 0
M  V30 1265 O 124.306 1.62668 -1.18748 0
M  V30 1266 C 121.371 2.59141 -2.30319 0
M  V30 1267 C 120.432 2.43892 -3.53292 0
M  V30 1268 C 119.665 3.70074 -3.84553 0
M  V30 1269 O 119.888 4.74101 -3.1715 0
M  V30 1270 O 118.822 3.658 -4.7799 0
M  V30 1271 H 122.648 0.947304 -2.88548 0
M  V30 1272 H 120.233 0.403123 -1.43859 0
M  V30 1273 H 122.115 3.37352 -2.5253 0
M  V30 1274 H 120.79 2.90684 -1.42423 0
M  V30 1275 H 119.697 1.63803 -3.36332 0
M  V30 1276 H 121.03 2.17282 -4.41644 0
M  V30 1277 N 122.682 1.50554 0.465978 0
M  V30 1278 C 123.645 1.69233 1.54574 0
M  V30 1279 C 124.645 0.562901 1.50626 0
M  V30 1280 O 125.835 0.830016 1.53155 0
M  V30 1281 C 122.967 1.7223 2.94193 0
M  V30 1282 H 124.16 2.65571 1.39327 0
M  V30 1283 H 121.713 1.40111 0.692711 0
M  V30 1284 H 122.448 0.77603 3.14878 0
M  V30 1285 H 122.233 2.54285 2.98466 0
M  V30 1286 H 123.723 1.88618 3.72576 0
M  V30 1287 N 124.16 -0.719506 1.40217 0
M  V30 1288 C 125.108 -1.85493 1.40339 0
M  V30 1289 C 126.102 -1.66995 0.284415 0
M  V30 1290 O 127.308 -1.74148 0.455252 0
M  V30 1291 H 123.683 -0.610857 0.438586 0
M  V30 1292 H 125.654 -1.82506 2.36081 0
M  V30 1293 C 124.403 -3.23321 1.27901 0
M  V30 1294 H 123.726 -3.38159 2.1328 0
M  V30 1295 H 125.166 -4.02914 1.32045 0
M  V30 1296 C 123.625 -3.36898 -0.0111355 0
M  V30 1297 O 124.155 -3.89674 -0.975538 0
M  V30 1298 N 122.361 -2.90492 -0.0793393 0
M  V30 1299 H 121.908 -2.47731 0.706183 0
M  V30 1300 H 121.866 -2.99955 -0.942038 0
M  V30 1301 N 125.638 -1.25649 -0.95132 0
M  V30 1302 C 126.601 -1.06399 -2.03007 0
M  V30 1303 C 127.601 -0.0156794 -1.60792 0
M  V30 1304 O 128.791 -0.25817 -1.72276 0
M  V30 1305 C 125.923 -0.616184 -3.35285 0
M  V30 1306 H 127.116 -2.02164 -2.21517 0
M  V30 1307 H 124.669 -1.08103 -1.12887 0
M  V30 1308 H 125.404 0.343917 -3.22471 0
M  V30 1309 H 125.189 -1.37301 -3.67275 0
M  V30 1310 H 126.679 -0.503032 -4.14559 0
M  V30 1311 N 127.117 1.15442 -1.07289 0
M  V30 1312 C 128.047 2.22312 -0.714107 0
M  V30 1313 C 129.028 1.67467 0.298155 0
M  V30 1314 O 130.213 1.93445 0.171048 0
M  V30 1315 C 127.343 3.47124 -0.110448 0
M  V30 1316 C 126.297 4.14926 -1.04979 0
M  V30 1317 C 125.623 5.33807 -0.308924 0
M  V30 1318 C 126.923 4.64762 -2.38314 0
M  V30 1319 H 128.617 2.5258 -1.6076 0
M  V30 1320 H 126.163 1.21404 -0.77441 0
M  V30 1321 H 128.116 4.21124 0.152482 0
M  V30 1322 H 126.84 3.16187 0.81812 0
M  V30 1323 H 125.499 3.42866 -1.29764 0
M  V30 1324 H 125.147 4.99126 0.623084 0
M  V30 1325 H 124.847 5.80113 -0.935036 0
M  V30 1326 H 126.371 6.10576 -0.0537771 0
M  V30 1327 H 127.785 5.30292 -2.1786 0
M  V30 1328 H 126.182 5.21728 -2.96514 0
M  V30 1329 H 127.252 3.80434 -3.00663 0
M  V30 1330 N 128.595 0.856903 1.32268 0
M  V30 1331 C 129.525 0.31858 2.31316 0
M  V30 1332 C 130.506 -0.583487 1.59779 0
M  V30 1333 O 131.691 -0.503259 1.87566 0
M  V30 1334 C 128.821 -0.491979 3.43798 0
M  V30 1335 C 127.775 0.315849 4.26833 0
M  V30 1336 C 127.101 -0.619586 5.31098 0
M  V30 1337 C 128.401 1.54282 4.98993 0
M  V30 1338 H 130.095 1.14621 2.76591 0
M  V30 1339 H 127.641 0.552613 1.32974 0
M  V30 1340 H 129.594 -0.879012 4.1213 0
M  V30 1341 H 128.318 -1.35299 2.97257 0
M  V30 1342 H 126.977 0.684664 3.6015 0
M  V30 1343 H 126.625 -1.47751 4.8081 0
M  V30 1344 H 126.325 -0.0830621 5.87541 0
M  V30 1345 H 127.849 -1.00375 6.02293 0
M  V30 1346 H 129.263 1.22796 5.59995 0
M  V30 1347 H 127.66 2.01745 5.65172 0
M  V30 1348 H 128.73 2.30285 4.26728 0
M  V30 1349 N 130.073 -1.45103 0.615059 0
M  V30 1350 C 131.32 -2.02183 0.113179 0
M  V30 1351 C 131.648 -1.48249 -1.25906 0
M  V30 1352 O 130.903 -0.650265 -1.84581 0
M  V30 1353 C 131.202 -3.57386 0.0318797 0
M  V30 1354 C 130.868 -4.30505 1.34077 0
M  V30 1355 C 129.53 -4.50197 1.69929 0
M  V30 1356 C 131.882 -4.72238 2.20546 0
M  V30 1357 C 129.21 -5.08881 2.91988 0
M  V30 1358 C 131.562 -5.32272 3.41861 0
M  V30 1359 C 130.226 -5.50187 3.77956 0
M  V30 1360 H 129.496 -0.739842 0.0414151 0
M  V30 1361 H 132.143 -1.74073 0.798168 0
M  V30 1362 H 130.448 -3.84817 -0.736409 0
M  V30 1363 H 132.145 -3.99264 -0.372712 0
M  V30 1364 H 128.735 -4.15496 1.05173 0
M  V30 1365 H 132.919 -4.56751 1.94146 0
M  V30 1366 H 128.175 -5.20939 3.2005 0
M  V30 1367 H 132.349 -5.63563 4.09109 0
M  V30 1368 H 129.976 -5.95427 4.72622 0
M  V30 1369 N 131.551 -0.354651 -1.53558 0
M  V30 1370 C 132.776 0.242153 -2.05981 0
M  V30 1371 C 133.201 1.42553 -1.2272 0
M  V30 1372 O 132.559 1.79656 -0.243604 0
M  V30 1373 C 132.607 0.624367 -3.55154 0
M  V30 1374 O 131.711 1.72301 -3.74681 0
M  V30 1375 H 131.052 0.0378432 -0.662921 0
M  V30 1376 H 133.582 -0.512087 -1.98088 0
M  V30 1377 H 133.592 0.898433 -3.97985 0
M  V30 1378 H 132.267 -0.240989 -4.15201 0
M  V30 1379 H 130.844 1.44535 -3.4375 0
M  V30 1380 N 133.029 1.57378 -0.0835403 0
M  V30 1381 C 133.976 2.13384 0.879539 0
M  V30 1382 C 134.946 1.04936 1.28754 0
M  V30 1383 O 136.131 1.32662 1.37133 0
M  V30 1384 C 133.271 2.70932 2.13752 0
M  V30 1385 C 132.384 3.93575 1.7811 0
M  V30 1386 C 131.519 4.39326 2.98607 0
M  V30 1387 C 130.558 5.54587 2.59037 0
M  V30 1388 N 129.695 5.95243 3.72331 0
M  V30 1389 H 134.535 2.9537 0.395076 0
M  V30 1390 H 132.072 1.45953 0.183349 0
M  V30 1391 H 134.03 3.02411 2.87408 0
M  V30 1392 H 132.66 1.91693 2.59718 0
M  V30 1393 H 131.712 3.68483 0.94469 0
M  V30 1394 H 133.024 4.77258 1.45005 0
M  V30 1395 H 132.178 4.72528 3.80529 0
M  V30 1396 H 130.917 3.5452 3.34913 0
M  V30 1397 H 129.922 5.21024 1.75539 0
M  V30 1398 H 131.147 6.41133 2.23887 0
M  V30 1399 H 129.093 5.13385 4.08378 0
M  V30 1400 H 129.01 6.73694 3.43034 0
M  V30 1401 H 130.278 6.33072 4.54797 0
M  V30 1402 N 134.507 -0.190092 1.56449 0
M  V30 1403 C 135.756 -0.907912 1.80111 0
M  V30 1404 C 136.069 -1.84214 0.657619 0
M  V30 1405 O 137.275 -2.60094 0.778663 0
M  V30 1406 C 135.731 -1.66485 3.19078 0
M  V30 1407 C 135.339 -0.7752 4.41242 0
M  V30 1408 C 137.083 -2.37201 3.52045 0
M  V30 1409 C 134.99 -1.53129 5.71231 0
M  V30 1410 H 133.92 -0.34276 0.671589 0
M  V30 1411 H 136.571 -0.161109 1.82791 0
M  V30 1412 H 134.953 -2.45572 3.10661 0
M  V30 1413 H 136.127 -0.0226298 4.60794 0
M  V30 1414 H 134.442 -0.178627 4.16017 0
M  V30 1415 H 137.039 -2.94329 4.46402 0
M  V30 1416 H 137.382 -3.11632 2.76028 0
M  V30 1417 H 137.915 -1.65075 3.61932 0
M  V30 1418 H 134.654 -0.82967 6.50228 0
M  V30 1419 H 134.174 -2.25767 5.55688 0
M  V30 1420 H 135.853 -2.08377 6.12526 0
M  V30 1421 N 135.985 -1.50799 -0.457987 0
M  V30 1422 C 136.933 -1.71162 -1.575 0
M  V30 1423 C 137.927 -0.577592 -1.59249 0
M  V30 1424 O 139.133 -0.758443 -1.63241 0
M  V30 1425 H 135.508 -0.540468 -0.522875 0
M  V30 1426 H 137.479 -2.64837 -1.37492 0
M  V30 1427 C 136.228 -1.83496 -2.95338 0
M  V30 1428 H 135.551 -2.70153 -2.94716 0
M  V30 1429 H 136.991 -2.01765 -3.72917 0
M  V30 1430 C 135.45 -0.589694 -3.31699 0
M  V30 1431 O 135.98 0.265163 -4.00824 0
M  V30 1432 N 134.186 -0.439845 -2.87252 0
M  V30 1433 H 133.733 -1.13655 -2.31172 0
M  V30 1434 H 133.691 0.392159 -3.11945 0
M  V30 1435 N 137.463 0.71206 -1.40597 0
M  V30 1436 C 138.396 1.83582 -1.35546 0
M  V30 1437 C 139.374 1.61032 -0.225284 0
M  V30 1438 O 140.558 1.83998 -0.409519 0
M  V30 1439 C 137.685 3.19983 -1.11034 0
M  V30 1440 C 136.731 3.61355 -2.2655 0
M  V30 1441 S 137.564 3.68062 -3.88961 0
M  V30 1442 C 138.72 5.07216 -3.66719 0
M  V30 1443 H 138.953 1.87586 -2.30648 0
M  V30 1444 H 136.486 0.879182 -1.26924 0
M  V30 1445 H 138.444 3.98734 -0.975761 0
M  V30 1446 H 137.105 3.13608 -0.175798 0
M  V30 1447 H 136.298 4.60403 -2.0505 0
M  V30 1448 H 135.9 2.8987 -2.36329 0
M  V30 1449 H 138.192 5.94238 -3.25404 0
M  V30 1450 H 139.135 5.33753 -4.6531 0
M  V30 1451 H 139.543 4.77976 -3.00332 0
M  V30 1452 N 138.941 1.26152 0.944643 0
M  V30 1453 C 140.352 1.10454 1.50522 0
M  V30 1454 C 140.703 -0.31635 1.93633 0
M  V30 1455 O 139.828 -1.20746 1.79581 0
M  V30 1456 C 140.423 1.99891 2.73549 0
M  V30 1457 C 138.982 1.88348 3.25886 0
M  V30 1458 C 138.129 1.93447 1.9868 0
M  V30 1459 H 141.08 1.39292 0.760489 0
M  V30 1460 H 141.101 1.54477 3.47732 0
M  V30 1461 H 140.613 3.03297 2.42141 0
M  V30 1462 H 138.714 0.878636 3.62092 0
M  V30 1463 H 138.827 2.73696 3.93227 0
M  V30 1464 H 137.191 1.37456 2.14425 0
M  V30 1465 H 137.974 2.98476 1.69607 0
M  V30 1466 N 140.419 -1.14872 1.07899 0
M  V30 1467 C 141.382 -2.17986 0.708161 0
M  V30 1468 C 142.382 -1.58775 -0.25442 0
M  V30 1469 O 143.572 -1.74166 -0.034645 0
M  V30 1470 C 140.704 -3.40871 0.0446929 0
M  V30 1471 H 141.897 -2.52306 1.62116 0
M  V30 1472 H 139.45 -1.2943 0.876218 0
M  V30 1473 H 140.185 -3.12124 -0.880281 0
M  V30 1474 H 139.97 -3.8511 0.737091 0
M  V30 1475 H 141.46 -4.17121 -0.19991 0
M  V30 1476 N 141.898 -0.863906 -1.31812 0
M  V30 1477 C 142.83 -0.272485 -2.27575 0
M  V30 1478 C 143.843 0.56104 -1.52827 0
M  V30 1479 O 145.032 0.384021 -1.7432 0
M  V30 1480 C 142.132 0.63283 -3.32939 0
M  V30 1481 C 141.305 -0.166902 -4.37081 0
M  V30 1482 C 140.364 0.665608 -5.21973 0
M  V30 1483 O 139.39 0.0958091 -5.69119 0
M  V30 1484 N 140.592 1.9787 -5.45736 0
M  V30 1485 H 143.357 -1.0954 -2.78964 0
M  V30 1486 H 140.918 -0.724791 -1.4477 0
M  V30 1487 H 142.91 1.19532 -3.86645 0
M  V30 1488 H 141.48 1.35642 -2.81638 0
M  V30 1489 H 140.7 -0.910838 -3.83533 0
M  V30 1490 H 141.988 -0.715874 -5.03739 0
M  V30 1491 H 141.386 2.46484 -5.09178 0
M  V30 1492 H 139.943 2.48911 -6.024 0
M  V30 1493 N 143.376 1.44774 -0.622745 0
M  V30 1494 C 144.324 2.32387 0.0994683 0
M  V30 1495 C 145.318 1.46859 0.844326 0
M  V30 1496 O 146.524 1.63254 0.758174 0
M  V30 1497 H 142.899 0.750273 0.0509291 0
M  V30 1498 H 144.87 2.91062 -0.65767 0
M  V30 1499 C 143.619 3.30723 1.07319 0
M  V30 1500 H 142.942 3.96541 0.509462 0
M  V30 1501 H 144.382 3.94725 1.54817 0
M  V30 1502 C 142.841 2.59021 2.15429 0
M  V30 1503 O 143.371 2.38286 3.23393 0
M  V30 1504 N 141.577 2.189 1.91131 0
M  V30 1505 H 141.124 2.35964 1.03337 0
M  V30 1506 H 141.082 1.71251 2.63668 0
M  V30 1507 N 144.854 0.36279 1.53368 0
M  V30 1508 C 146.103 -0.22888 2.00397 0
M  V30 1509 C 146.416 -1.50096 1.25421 0
M  V30 1510 O 147.622 -2.17106 1.63025 0
M  V30 1511 C 146.078 -0.458417 3.56969 0
M  V30 1512 C 145.686 0.798877 4.4082 0
M  V30 1513 C 147.43 -1.00789 4.12361 0
M  V30 1514 C 145.337 0.539078 5.88938 0
M  V30 1515 H 144.267 -0.089305 0.748693 0
M  V30 1516 H 146.918 0.481099 1.77081 0
M  V30 1517 H 145.3 -1.22959 3.76427 0
M  V30 1518 H 146.474 1.57262 4.33134 0
M  V30 1519 H 144.789 1.27137 3.96516 0
M  V30 1520 H 147.386 -1.21754 5.20653 0
M  V30 1521 H 147.729 -1.9692 3.66781 0
M  V30 1522 H 148.262 -0.296961 3.9669 0
M  V30 1523 H 145.001 1.47064 6.3879 0
M  V30 1524 H 144.521 -0.196222 5.99479 0
M  V30 1525 H 146.2 0.163542 6.46793 0
M  V30 1526 N 146.332 -1.57332 0.0918853 0
M  V30 1527 C 147.282 -2.10385 -0.87876 0
M  V30 1528 C 148.266 -1.01814 -1.24591 0
M  V30 1529 O 149.458 -1.28093 -1.22152 0
M  V30 1530 C 146.587 -2.68517 -2.13901 0
M  V30 1531 C 145.673 -3.84126 -1.79744 0
M  V30 1532 N 146.064 -4.92288 -1.1613 0
M  V30 1533 C 144.362 -3.93801 -2.09373 0
M  V30 1534 C 145.063 -5.7295 -1.00513 0
M  V30 1535 N 144.039 -5.21876 -1.5214 0
M  V30 1536 H 147.841 -2.91395 -0.38293 0
M  V30 1537 H 145.355 -1.62017 -0.111423 0
M  V30 1538 H 147.352 -3.04852 -2.84378 0
M  V30 1539 H 146.012 -1.88961 -2.64053 0
M  V30 1540 H 147.023 -5.1123 -0.828504 0
M  V30 1541 H 143.7 -3.25249 -2.61762 0
M  V30 1542 H 145.09 -6.69978 -0.507902 0
M  V30 1543 N 147.81 0.181792 -1.56548 0
M  V30 1544 C 149.226 0.53316 -1.50431 0
M  V30 1545 C 149.426 1.85184 -0.794297 0
M  V30 1546 O 148.482 2.50058 -0.350318 0
M  V30 1547 C 149.795 0.575597 -2.9514 0
M  V30 1548 C 151.343 0.663519 -3.05886 0
M  V30 1549 C 151.818 0.736946 -4.52032 0
M  V30 1550 N 153.309 0.800118 -4.56237 0
M  V30 1551 C 154.044 0.877327 -5.66649 0
M  V30 1552 N 153.54 0.916016 -6.86718 0
M  V30 1553 N 155.333 0.915542 -5.54594 0
M  V30 1554 H 147.484 -0.683025 -2.01118 0
M  V30 1555 H 149.747 -0.244988 -0.915797 0
M  V30 1556 H 149.453 -0.324482 -3.502 0
M  V30 1557 H 149.327 1.42572 -3.49218 0
M  V30 1558 H 151.714 1.55403 -2.50867 0
M  V30 1559 H 151.795 -0.21307 -2.54911 0
M  V30 1560 H 151.439 -0.149262 -5.07681 0
M  V30 1561 H 151.369 1.62953 -5.00753 0
M  V30 1562 H 153.86 0.778926 -3.69785 0
M  V30 1563 H 154.173 0.975813 -7.66614 0
M  V30 1564 H 152.518 0.884469 -6.89349 0
M  V30 1565 H 155.709 0.882245 -4.59711 0
M  V30 1566 H 155.882 0.972253 -6.40665 0
M  V30 1567 N 149.288 1.51039 0.449983 0
M  V30 1568 C 150.537 1.62317 1.19733 0
M  V30 1569 C 150.85 0.339101 1.92638 0
M  V30 1570 O 152.056 0.331069 2.69474 0
M  V30 1571 C 150.512 2.86608 2.17678 0
M  V30 1572 C 150.12 4.21972 1.50479 0
M  V30 1573 C 151.864 3.07239 2.92924 0
M  V30 1574 C 149.771 5.37426 2.46834 0
M  V30 1575 H 148.701 0.604532 0.450619 0
M  V30 1576 H 151.352 1.77494 0.465625 0
M  V30 1577 H 149.734 2.65037 2.94231 0
M  V30 1578 H 150.908 4.53878 0.795716 0
M  V30 1579 H 149.223 4.07117 0.874344 0
M  V30 1580 H 151.82 3.90668 3.65079 0
M  V30 1581 H 152.163 2.19807 3.5354 0
M  V30 1582 H 152.696 3.29091 2.23481 0
M  V30 1583 H 149.435 6.27079 1.90926 0
M  V30 1584 H 148.955 5.09912 3.15832 0
M  V30 1585 H 150.634 5.68862 3.08228 0
M  V30 1586 N 150.766 -0.704594 1.40972 0
M  V30 1587 C 151.696 -1.83124 1.44872 0
M  V30 1588 C 152.677 -1.67281 0.30838 0
M  V30 1589 O 153.862 -1.87149 0.518556 0
M  V30 1590 C 150.992 -3.21181 1.32136 0
M  V30 1591 C 149.946 -3.51714 2.43888 0
M  V30 1592 C 149.272 -4.89032 2.16222 0
M  V30 1593 C 150.572 -3.516 3.86232 0
M  V30 1594 H 152.266 -1.80117 2.39161 0
M  V30 1595 H 149.812 -0.865145 1.15114 0
M  V30 1596 H 151.765 -3.99702 1.33479 0
M  V30 1597 H 150.489 -3.24791 0.343279 0
M  V30 1598 H 149.148 -2.75539 2.41813 0
M  V30 1599 H 148.796 -4.89256 1.16778 0
M  V30 1600 H 148.496 -5.10426 2.911 0
M  V30 1601 H 150.02 -5.69873 2.19265 0
M  V30 1602 H 151.434 -4.2014 3.9007 0
M  V30 1603 H 149.831 -3.84523 4.60719 0
M  V30 1604 H 150.901 -2.50757 4.15029 0
M  V30 1605 N 152.244 -1.26651 -0.937939 0
M  V30 1606 C 153.492 -1.12165 -1.68118 0
M  V30 1607 C 153.813 0.334983 -1.92101 0
M  V30 1608 O 153.083 1.23583 -1.52 0
M  V30 1609 H 151.663 -0.412093 -0.623048 0
M  V30 1610 H 154.325 -1.59027 -1.12678 0
M  V30 1611 H 153.421 -1.64289 -2.6536 0
M  V30 1612 N 153.722 1.14298 -1.08507 0
M  V30 1613 C 154.632 2.23027 -0.727753 0
M  V30 1614 C 155.648 1.71952 0.26619 0
M  V30 1615 O 156.824 2.011 0.109882 0
M  V30 1616 C 153.889 3.46403 -0.143541 0
M  V30 1617 C 152.95 4.12413 -1.19223 0
M  V30 1618 C 152.183 5.29899 -0.635798 0
M  V30 1619 O 152.406 5.67796 0.544393 0
M  V30 1620 O 151.34 5.85717 -1.38634 0
M  V30 1621 H 155.166 2.55945 -1.63481 0
M  V30 1622 H 152.751 1.22248 -0.858817 0
M  V30 1623 H 154.633 4.21018 0.179404 0
M  V30 1624 H 153.308 3.15206 0.736659 0
M  V30 1625 H 152.215 3.39667 -1.56772 0
M  V30 1626 H 153.548 4.47718 -2.04474 0
M  V30 1627 N 155.201 0.870884 1.31352 0
M  V30 1628 C 156.149 0.316445 2.30437 0
M  V30 1629 C 157.143 -0.568965 1.59559 0
M  V30 1630 O 158.349 -0.454964 1.74155 0
M  V30 1631 H 154.724 0.0836521 0.747333 0
M  V30 1632 H 156.695 1.16606 2.74673 0
M  V30 1633 C 155.444 -0.46635 3.44558 0
M  V30 1634 H 154.767 0.205687 3.99271 0
M  V30 1635 H 156.207 -0.819614 4.16003 0
M  V30 1636 C 154.666 -1.65797 2.9328 0
M  V30 1637 O 155.196 -2.75728 2.92125 0
M  V30 1638 N 153.402 -1.49041 2.4947 0
M  V30 1639 H 152.949 -0.59612 2.50608 0
M  V30 1640 H 152.907 -2.28911 2.15516 0
M  V30 1641 N 156.679 -1.44442 0.630414 0
M  V30 1642 C 157.589 -2.34476 -0.0761693 0
M  V30 1643 C 158.605 -1.52576 -0.836449 0
M  V30 1644 O 159.781 -1.85307 -0.788874 0
M  V30 1645 C 156.846 -3.30545 -1.04599 0
M  V30 1646 C 155.907 -4.28352 -0.28516 0
M  V30 1647 C 155.14 -5.19831 -1.20878 0
M  V30 1648 O 155.363 -5.15223 -2.44747 0
M  V30 1649 O 154.297 -5.97892 -0.693491 0
M  V30 1650 H 158.123 -2.96345 0.664324 0
M  V30 1651 H 155.708 -1.44203 0.39061 0
M  V30 1652 H 157.59 -3.89681 -1.60396 0
M  V30 1653 H 156.265 -2.7121 -1.76711 0
M  V30 1654 H 155.172 -3.72764 0.315837 0
M  V30 1655 H 156.505 -4.90605 0.395924 0
M  V30 1656 N 158.157 -0.370918 -1.53173 0
M  V30 1657 C 159.568 0.107139 -1.86392 0
M  V30 1658 C 159.919 1.47714 -1.29132 0
M  V30 1659 O 159.044 2.07464 -0.615439 0
M  V30 1660 C 159.639 0.201187 -3.38202 0
M  V30 1661 C 158.198 0.623507 -3.712 0
M  V30 1662 C 157.345 -0.225978 -2.76378 0
M  V30 1663 H 160.296 -0.58951 -1.47345 0
M  V30 1664 H 160.317 1.02377 -3.66468 0
M  V30 1665 H 159.829 -0.796058 -3.79848 0
M  V30 1666 H 157.93 1.62879 -3.35114 0
M  V30 1667 H 158.043 0.394414 -4.77474 0
M  V30 1668 H 156.407 0.305962 -2.52856 0
M  V30 1669 H 157.19 -1.22086 -3.20858 0
M  V30 1670 N 159.635 1.57281 -0.100228 0
M  V30 1671 C 160.567 2.11342 0.886972 0
M  V30 1672 C 161.58 1.05182 1.24261 0
M  V30 1673 O 162.769 1.32613 1.19483 0
M  V30 1674 C 159.869 2.5825 2.19454 0
M  V30 1675 C 159.042 3.88302 2.01346 0
M  V30 1676 C 158.101 4.21004 3.15661 0
M  V30 1677 O 157.127 4.9014 2.89398 0
M  V30 1678 N 158.329 3.76818 4.41575 0
M  V30 1679 H 161.094 2.96668 0.425216 0
M  V30 1680 H 158.655 1.61678 0.0847334 0
M  V30 1681 H 160.647 2.7717 2.94888 0
M  V30 1682 H 159.217 1.77907 2.57037 0
M  V30 1683 H 158.437 3.7848 1.10212 0
M  V30 1684 H 159.725 4.73375 1.8653 0
M  V30 1685 H 159.123 3.2102 4.65792 0
M  V30 1686 H 157.68 4.00882 5.13942 0
M  V30 1687 N 161.113 -0.173488 1.56642 0
M  V30 1688 C 162.076 -1.19859 1.95362 0
M  V30 1689 C 163.076 -1.37296 0.83704 0
M  V30 1690 O 164.266 -1.34739 1.10413 0
M  V30 1691 C 161.398 -2.56405 2.24654 0
M  V30 1692 H 162.591 -0.867062 2.87092 0
M  V30 1693 H 160.144 -0.415853 1.50666 0
M  V30 1694 H 160.879 -2.94576 1.35631 0
M  V30 1695 H 160.664 -2.45115 3.06041 0
M  V30 1696 H 162.154 -3.30287 2.5554 0
M  V30 1697 N 162.591 -1.51276 -0.441967 0
M  V30 1698 C 163.501 -1.75092 -1.56141 0
M  V30 1699 C 164.517 -0.634963 -1.62001 0
M  V30 1700 O 165.693 -0.916686 -1.79329 0
M  V30 1701 C 162.758 -1.86666 -2.92158 0
M  V30 1702 C 161.819 -3.10506 -2.96453 0
M  V30 1703 C 161.052 -3.21519 -4.25982 0
M  V30 1704 O 161.275 -2.38586 -5.18105 0
M  V30 1705 O 160.209 -4.14465 -4.36466 0
M  V30 1706 H 164.035 -2.70044 -1.38961 0
M  V30 1707 H 161.62 -1.35722 -0.624499 0
M  V30 1708 H 163.502 -1.96292 -3.72891 0
M  V30 1709 H 162.177 -0.949014 -3.09476 0
M  V30 1710 H 161.084 -3.06363 -2.14692 0
M  V30 1711 H 162.417 -4.01945 -2.84079 0
M  V30 1712 N 164.069 0.697108 -1.41344 0
M  V30 1713 C 165.032 1.79281 -1.42797 0
M  V30 1714 C 166.032 1.57607 -0.318837 0
M  V30 1715 O 167.222 1.64309 -0.578642 0
M  V30 1716 C 164.354 3.17632 -1.23785 0
M  V30 1717 H 165.547 1.79385 -2.40335 0
M  V30 1718 H 163.1 0.904582 -1.27464 0
M  V30 1719 H 163.835 3.23167 -0.270814 0
M  V30 1720 H 163.62 3.34765 -2.04144 0
M  V30 1721 H 165.11 3.97617 -1.27633 0
M  V30 1722 N 165.547 1.27147 0.931209 0
M  V30 1723 C 166.457 1.11372 2.06478 0
M  V30 1724 C 167.473 0.044645 1.73943 0
M  V30 1725 O 168.649 0.250417 1.99837 0
M  V30 1726 C 165.714 0.758838 3.38294 0
M  V30 1727 C 164.775 1.90841 3.84549 0
M  V30 1728 C 164.008 1.57036 5.10074 0
M  V30 1729 O 164.231 0.476645 5.68405 0
M  V30 1730 O 163.165 2.40839 5.51616 0
M  V30 1731 H 166.991 2.06493 2.22698 0
M  V30 1732 H 164.576 1.06301 1.04978 0
M  V30 1733 H 166.458 0.574098 4.17471 0
M  V30 1734 H 165.133 -0.162879 3.2329 0
M  V30 1735 H 164.04 2.14819 3.06274 0
M  V30 1736 H 165.373 2.81021 4.04089 0
M  V30 1737 N 167.025 -1.13721 1.09112 0
M  V30 1738 C 168.441 -1.36914 0.820174 0
M  V30 1739 C 168.641 -1.93356 -0.567079 0
M  V30 1740 O 167.697 -2.15093 -1.32255 0
M  V30 1741 C 169.01 -2.3235 1.90877 0
M  V30 1742 C 170.558 -2.45973 1.93562 0
M  V30 1743 C 171.033 -3.44714 3.01556 0
M  V30 1744 N 172.524 -3.52263 3.00775 0
M  V30 1745 C 173.259 -4.28536 3.80978 0
M  V30 1746 N 172.755 -5.07991 4.71081 0
M  V30 1747 N 174.548 -4.23804 3.69251 0
M  V30 1748 H 166.699 -0.754348 1.98553 0
M  V30 1749 H 168.962 -0.3944 0.862063 0
M  V30 1750 H 168.668 -1.98027 2.90651 0
M  V30 1751 H 168.542 -3.32332 1.78424 0
M  V30 1752 H 170.929 -2.79584 0.944286 0
M  V30 1753 H 171.01 -1.45926 2.10093 0
M  V30 1754 H 170.654 -3.11835 4.00901 0
M  V30 1755 H 170.584 -4.44558 2.82269 0
M  V30 1756 H 173.075 -2.95567 2.35475 0
M  V30 1757 H 173.388 -5.63487 5.28869 0
M  V30 1758 H 171.733 -5.07235 4.75119 0
M  V30 1759 H 174.924 -3.60806 2.98222 0
M  V30 1760 H 175.097 -4.82995 4.31995 0
M  V30 1761 N 168.503 -0.877838 -1.30888 0
M  V30 1762 C 169.75 -0.492696 -1.96415 0
M  V30 1763 C 170.078 0.956671 -1.69346 0
M  V30 1764 O 169.333 1.68993 -0.986913 0
M  V30 1765 C 169.632 -0.705748 -3.50363 0
M  V30 1766 C 169.298 -2.1291 -3.97467 0
M  V30 1767 C 167.96 -2.51834 -4.1004 0
M  V30 1768 C 170.312 -3.05702 -4.22132 0
M  V30 1769 C 167.64 -3.82775 -4.44635 0
M  V30 1770 C 169.992 -4.36166 -4.58194 0
M  V30 1771 C 168.656 -4.74993 -4.68975 0
M  V30 1772 H 167.926 -0.18029 -0.718733 0
M  V30 1773 H 170.573 -1.11233 -1.55883 0
M  V30 1774 H 168.878 -0.00303058 -3.918 0
M  V30 1775 H 170.575 -0.387456 -3.99124 0
M  V30 1776 H 167.165 -1.81694 -3.88182 0
M  V30 1777 H 171.349 -2.76853 -4.11906 0
M  V30 1778 H 166.605 -4.12609 -4.51181 0
M  V30 1779 H 170.779 -5.08111 -4.76231 0
M  V30 1780 H 168.406 -5.76495 -4.95537 0
M  V30 1781 N 169.982 1.44106 -0.638065 0
M  V30 1782 C 170.945 2.29138 0.0531013 0
M  V30 1783 C 171.945 1.41409 0.765506 0
M  V30 1784 O 173.135 1.63206 0.609046 0
M  V30 1785 C 170.267 3.23144 1.08584 0
M  V30 1786 H 171.46 2.91739 -0.694883 0
M  V30 1787 H 169.013 1.51134 -0.398538 0
M  V30 1788 H 169.748 2.65408 1.86357 0
M  V30 1789 H 169.533 3.87804 0.578852 0
M  V30 1790 H 171.023 3.87004 1.56899 0
M  V30 1791 N 171.46 0.379036 1.52974 0
M  V30 1792 C 172.392 -0.495963 2.2377 0
M  V30 1793 C 173.405 -1.03517 1.25651 0
M  V30 1794 O 174.594 -0.939249 1.51791 0
M  V30 1795 C 171.694 -1.69894 2.93239 0
M  V30 1796 C 170.867 -1.2889 4.17979 0
M  V30 1797 C 169.926 -2.35543 4.70538 0
M  V30 1798 O 168.952 -1.97375 5.33883 0
M  V30 1799 N 170.154 -3.67318 4.49508 0
M  V30 1800 H 172.919 0.110523 2.99496 0
M  V30 1801 H 170.48 0.204878 1.60598 0
M  V30 1802 H 172.472 -2.40747 3.25304 0
M  V30 1803 H 171.042 -2.212 2.20883 0
M  V30 1804 H 170.262 -0.409676 3.92065 0
M  V30 1805 H 171.55 -0.991443 4.99047 0
M  V30 1806 H 170.948 -4.01095 3.98923 0
M  V30 1807 H 169.505 -4.34235 4.8609 0
M  V30 1808 N 172.938 -1.57226 0.108567 0
M  V30 1809 C 173.901 -2.13602 -0.831082 0
M  V30 1810 C 174.901 -1.06841 -1.20173 0
M  V30 1811 O 176.091 -1.32666 -1.12895 0
M  V30 1812 C 173.223 -2.66769 -2.12243 0
M  V30 1813 H 174.416 -2.97951 -0.341317 0
M  V30 1814 H 171.969 -1.55667 -0.14057 0
M  V30 1815 H 172.704 -1.85977 -2.65675 0
M  V30 1816 H 172.489 -3.44839 -1.86625 0
M  V30 1817 H 173.979 -3.10332 -2.79435 0
M  V30 1818 N 174.416 0.165178 -1.56732 0
M  V30 1819 C 175.349 1.23336 -1.91998 0
M  V30 1820 C 176.327 1.42476 -0.783531 0
M  V30 1821 O 177.511 1.57384 -1.03743 0
M  V30 1822 C 174.638 2.59533 -2.17625 0
M  V30 1823 C 173.684 2.57093 -3.40302 0
M  V30 1824 S 174.517 2.05571 -4.9447 0
M  V30 1825 C 175.673 3.43532 -5.23198 0
M  V30 1826 H 175.906 0.932387 -2.82301 0
M  V30 1827 H 173.439 0.370013 -1.49901 0
M  V30 1828 H 175.397 3.37918 -2.3307 0
M  V30 1829 H 174.058 2.86827 -1.28019 0
M  V30 1830 H 173.251 3.57308 -3.55453 0
M  V30 1831 H 172.853 1.86806 -3.24005 0
M  V30 1832 H 175.145 4.39559 -5.15552 0
M  V30 1833 H 176.088 3.33251 -6.2478 0
M  V30 1834 H 176.496 3.39828 -4.50752 0
M  V30 1835 N 175.894 1.51508 0.433938 0
M  V30 1836 C 176.857 1.72473 1.50949 0
M  V30 1837 C 177.857 0.594725 1.49398 0
M  V30 1838 O 179.047 0.862315 1.5136 0
M  V30 1839 C 176.179 1.78431 2.90474 0
M  V30 1840 H 177.372 2.68467 1.33662 0
M  V30 1841 H 174.925 1.41549 0.662836 0
M  V30 1842 H 175.66 0.842645 3.13161 0
M  V30 1843 H 175.445 2.60558 2.93005 0
M  V30 1844 H 176.935 1.96479 3.68491 0
M  V30 1845 N 177.372 -0.689602 1.41712 0
M  V30 1846 C 178.322 -1.79571 1.40493 0
M  V30 1847 C 179.306 -1.58473 0.278409 0
M  V30 1848 O 180.498 -1.69204 0.519532 0
M  V30 1849 C 177.627 -3.17923 1.29536 0
M  V30 1850 C 176.713 -3.44695 2.47075 0
M  V30 1851 N 177.104 -3.42132 3.72531 0
M  V30 1852 C 175.402 -3.75269 2.41017 0
M  V30 1853 C 176.103 -3.67976 4.50521 0
M  V30 1854 N 175.079 -3.88014 3.80718 0
M  V30 1855 H 178.881 -1.75961 2.35404 0
M  V30 1856 H 176.395 -0.889839 1.35851 0
M  V30 1857 H 178.392 -3.97167 1.26745 0
M  V30 1858 H 177.052 -3.22741 0.356153 0
M  V30 1859 H 178.063 -3.22375 4.05333 0
M  V30 1860 H 174.74 -3.87421 1.55599 0
M  V30 1861 H 176.13 -3.7208 5.59469 0
M  V30 1862 N 178.85 -1.27639 -0.924453 0
M  V30 1863 C 180.096 -1.14336 -1.67497 0
M  V30 1864 C 180.429 0.309465 -1.91718 0
M  V30 1865 O 179.704 1.22608 -1.50989 0
M  V30 1866 C 179.987 -1.93096 -3.0395 0
M  V30 1867 C 179.84 -3.46381 -2.8695 0
M  V30 1868 C 181.159 -1.73798 -4.0433 0
M  V30 1869 H 178.278 -0.416728 -0.607871 0
M  V30 1870 H 180.92 -1.56832 -1.07256 0
M  V30 1871 H 179.07 -1.56982 -3.55372 0
M  V30 1872 H 180.742 -3.92343 -2.42621 0
M  V30 1873 H 178.985 -3.72557 -2.22225 0
M  V30 1874 H 179.656 -3.96735 -3.83804 0
M  V30 1875 H 182.132 -2.05293 -3.61931 0
M  V30 1876 H 181.008 -2.31294 -4.97789 0
M  V30 1877 H 181.269 -0.686725 -4.36734 0
M  V30 1878 N 180.328 1.1314 -1.09713 0
M  V30 1879 C 181.577 1.83838 -0.829851 0
M  V30 1880 C 181.89 1.84599 0.646728 0
M  V30 1881 O 183.096 2.51218 1.02965 0
M  V30 1882 C 181.552 3.30069 -1.43466 0
M  V30 1883 C 181.16 3.37688 -2.94399 0
M  V30 1884 C 182.904 4.05788 -1.24645 0
M  V30 1885 C 180.811 4.78209 -3.47952 0
M  V30 1886 H 179.741 0.68877 -0.306777 0
M  V30 1887 H 182.392 1.27448 -1.3202 0
M  V30 1888 H 180.774 3.8628 -0.871996 0
M  V30 1889 H 181.948 2.91456 -3.56918 0
M  V30 1890 H 180.263 2.75436 -3.12289 0
M  V30 1891 H 182.86 5.09535 -1.62107 0
M  V30 1892 H 183.203 4.15878 -0.187357 0
M  V30 1893 H 183.736 3.55915 -1.77678 0
M  V30 1894 H 180.475 4.73311 -4.53495 0
M  V30 1895 H 179.995 5.24924 -2.90198 0
M  V30 1896 H 181.674 5.47133 -3.45332 0
M  V30 1897 N 181.806 0.884767 1.30421 0
M  V30 1898 C 183.217 0.553656 1.78302 0
M  V30 1899 C 183.568 -0.930153 1.7275 0
M  V30 1900 O 182.693 -1.72681 1.30423 0
M  V30 1901 C 183.288 0.998234 3.2376 0
M  V30 1902 C 181.847 0.71854 3.69478 0
M  V30 1903 C 180.994 1.18132 2.50879 0
M  V30 1904 H 183.945 1.06901 1.17294 0
M  V30 1905 H 183.966 0.327118 3.79091 0
M  V30 1906 H 183.478 2.0782 3.27769 0
M  V30 1907 H 181.579 -0.349444 3.70958 0
M  V30 1908 H 181.692 1.30595 4.60958 0
M  V30 1909 H 180.056 0.600669 2.47516 0
M  V30 1910 H 180.839 2.26902 2.57624 0
M  V30 1911 N 183.284 -1.43765 0.645699 0
M  V30 1912 C 184.512 -2.06253 0.163556 0
M  V30 1913 C 184.927 -1.48352 -1.16778 0
M  V30 1914 O 184.284 -0.611932 -1.71935 0
M  V30 1915 C 184.335 -3.61453 0.0583186 0
M  V30 1916 O 184.056 -4.172 1.33702 0
M  V30 1917 C 185.557 -4.41002 -0.450795 0
M  V30 1918 H 182.777 -0.665413 0.0864077 0
M  V30 1919 H 185.321 -1.84396 0.884222 0
M  V30 1920 H 183.476 -3.82522 -0.612865 0
M  V30 1921 H 183.89 -5.10791 1.19131 0
M  V30 1922 H 185.364 -5.49966 -0.473403 0
M  V30 1923 H 185.841 -4.13488 -1.48068 0
M  V30 1924 H 186.447 -4.24886 0.187637 0
M  V30 1925 N 184.763 -0.387143 -1.52771 0
M  V30 1926 C 185.673 0.456442 -2.30117 0
M  V30 1927 C 186.689 1.07342 -1.36944 0
M  V30 1928 O 187.865 1.07971 -1.70013 0
M  V30 1929 C 184.93 1.56957 -3.09136 0
M  V30 1930 C 183.991 0.977916 -4.18014 0
M  V30 1931 C 183.224 2.038 -4.93256 0
M  V30 1932 O 183.447 3.25271 -4.68567 0
M  V30 1933 O 182.381 1.6565 -5.78657 0
M  V30 1934 H 186.207 -0.17359 -3.03203 0
M  V30 1935 H 183.792 -0.150919 -1.48636 0
M  V30 1936 H 185.674 2.21628 -3.58412 0
M  V30 1937 H 184.349 2.18461 -2.38865 0
M  V30 1938 H 183.256 0.294525 -3.72939 0
M  V30 1939 H 184.589 0.407128 -4.90513 0
M  V30 1940 N 186.241 1.57166 -0.116904 0
M  V30 1941 C 187.189 2.16457 0.851418 0
M  V30 1942 C 188.183 1.11323 1.27686 0
M  V30 1943 O 189.389 1.2963 1.24884 0
M  V30 1944 H 185.764 0.69271 0.292672 0
M  V30 1945 H 187.735 2.96605 0.32685 0
M  V30 1946 C 186.484 2.77689 2.09246 0
M  V30 1947 H 185.807 3.58285 1.77402 0
M  V30 1948 H 187.247 3.22716 2.7501 0
M  V30 1949 C 185.706 1.74667 2.88085 0
M  V30 1950 O 186.236 1.19877 3.83396 0
M  V30 1951 N 184.442 1.44656 2.52038 0
M  V30 1952 H 183.989 1.89402 1.74599 0
M  V30 1953 H 183.947 0.759675 3.05084 0
M  V30 1954 N 187.719 -0.156864 1.56817 0
M  V30 1955 C 188.967 -0.869404 1.82444 0
M  V30 1956 C 189.288 -1.82147 0.69623 0
M  V30 1957 O 188.558 -1.93847 -0.28287 0
M  V30 1958 H 187.138 -0.324043 0.673056 0
M  V30 1959 H 189.8 -0.153224 1.94297 0
M  V30 1960 H 188.896 -1.43761 2.77019 0
M  V30 1961 N 189.197 -1.51736 -0.425897 0
M  V30 1962 C 190.425 -1.68794 -1.1965 0
M  V30 1963 C 190.84 -0.390164 -1.84725 0
M  V30 1964 O 190.197 0.632376 -1.71194 0
M  V30 1965 C 190.248 -2.81174 -2.27208 0
M  V30 1966 O 189.969 -4.05925 -1.64793 0
M  V30 1967 C 191.47 -3.09599 -3.17275 0
M  V30 1968 H 188.69 -0.566128 -0.360194 0
M  V30 1969 H 191.234 -1.98211 -0.503249 0
M  V30 1970 H 189.389 -2.54324 -2.9223 0
M  V30 1971 H 189.803 -4.68423 -2.35967 0
M  V30 1972 H 191.277 -3.91786 -3.88854 0
M  V30 1973 H 191.754 -2.22468 -3.78688 0
M  V30 1974 H 192.36 -3.38151 -2.57941 0
M  V30 1975 N 190.675 0.682077 -1.42076 0
M  V30 1976 C 192.086 1.26246 -1.37546 0
M  V30 1977 C 192.437 1.96092 -0.0651481 0
M  V30 1978 O 191.562 1.99587 0.836297 0
M  V30 1979 C 192.157 2.29594 -2.49143 0
M  V30 1980 C 190.716 2.83175 -2.47969 0
M  V30 1981 C 189.863 1.57395 -2.28303 0
M  V30 1982 H 192.814 0.475937 -1.51395 0
M  V30 1983 H 192.835 3.11175 -2.18976 0
M  V30 1984 H 192.347 1.78729 -3.44496 0
M  V30 1985 H 190.448 3.3818 -1.56413 0
M  V30 1986 H 190.561 3.32687 -3.44755 0
M  V30 1987 H 188.925 1.83699 -1.76428 0
M  V30 1988 H 189.708 1.08507 -3.25701 0
M  V30 1989 N 192.153 1.28127 0.917671 0
M  V30 1990 C 193.399 1.15223 1.66888 0
M  V30 1991 C 193.732 -0.299293 1.9188 0
M  V30 1992 O 193.007 -1.21805 1.51637 0
M  V30 1993 C 193.29 1.94706 3.02922 0
M  V30 1994 C 193.143 3.47898 2.85109 0
M  V30 1995 C 194.462 1.75939 4.03402 0
M  V30 1996 H 191.581 0.419946 0.605652 0
M  V30 1997 H 194.223 1.57398 1.06423 0
M  V30 1998 H 192.373 1.58864 3.54534 0
M  V30 1999 H 194.045 3.93624 2.40537 0
M  V30 2000 H 192.288 3.7373 2.20246 0
M  V30 2001 H 192.959 3.98765 3.81694 0
M  V30 2002 H 195.435 2.07209 3.60837 0
M  V30 2003 H 194.311 2.33931 4.96556 0
M  V30 2004 H 194.572 0.709877 4.36364 0
M  V30 2005 N 193.631 -1.12557 1.10312 0
M  V30 2006 C 194.878 -1.84038 0.844759 0
M  V30 2007 C 195.206 -1.84026 -0.629668 0
M  V30 2008 O 194.461 -1.28026 -1.48013 0
M  V30 2009 C 194.76 -3.31462 1.33669 0
M  V30 2010 C 194.426 -3.51647 2.82232 0
M  V30 2011 C 193.088 -3.56864 3.22802 0
M  V30 2012 C 195.44 -3.58867 3.77974 0
M  V30 2013 C 192.768 -3.66844 4.57867 0
M  V30 2014 C 195.12 -3.70375 5.1284 0
M  V30 2015 C 193.784 -3.73848 5.52986 0
M  V30 2016 H 193.054 -0.673444 0.309119 0
M  V30 2017 H 195.701 -1.32824 1.37949 0
M  V30 2018 H 194.006 -3.85091 0.721949 0
M  V30 2019 H 195.703 -3.85236 1.11329 0
M  V30 2020 H 192.293 -3.48249 2.49842 0
M  V30 2021 H 196.477 -3.54107 3.47738 0
M  V30 2022 H 191.733 -3.67804 4.88396 0
M  V30 2023 H 195.907 -3.74904 5.86873 0
M  V30 2024 H 193.534 -3.81333 6.57639 0
M  V30 2025 N 195.109 -0.891671 -1.2995 0
M  V30 2026 C 196.386 -0.433307 -1.9074 0
M  V30 2027 C 196.766 1.08646 -1.80995 0
M  V30 2028 O 196.114 1.92476 -1.23147 0
M  V30 2029 C 196.324 -0.938895 -3.36134 0
M  V30 2030 C 197.672 -0.977829 -4.13187 0
M  V30 2031 O 198.696 -0.886015 -3.45005 0
M  V30 2032 O 197.555 -1.11453 -5.35015 0
M  V30 2033 H 194.649 -0.133699 -0.816121 0
M  V30 2034 H 197.195 -0.981011 -1.38471 0
M  V30 2035 H 195.967 -1.98281 -3.37343 0
M  V30 2036 H 195.59 -0.37074 -3.95868 0
M  V30 2037 N 196.587 1.43421 -0.653314 0
M  V30 2038 C 197.833 2.02641 -0.175593 0
M  V30 2039 C 198.188 1.5062 1.19713 0
M  V30 2040 O 197.481 0.689697 1.78756 0
M  V30 2041 C 197.675 3.57176 -0.126623 0
M  V30 2042 C 197.504 4.24191 -1.49306 0
M  V30 2043 C 196.274 4.60257 -2.08547 0
M  V30 2044 C 198.472 4.53193 -2.43148 0
M  V30 2045 N 196.454 5.12345 -3.38194 0
M  V30 2046 C 197.825 5.06601 -3.57429 0
M  V30 2047 C 199.88 4.35161 -2.41949 0
M  V30 2048 C 198.583 5.43875 -4.70736 0
M  V30 2049 C 200.609 4.73498 -3.54336 0
M  V30 2050 C 199.971 5.27039 -4.67343 0
M  V30 2051 H 196.07 0.77441 -0.108686 0
M  V30 2052 H 198.654 1.74596 -0.861638 0
M  V30 2053 H 196.825 3.84784 0.528766 0
M  V30 2054 H 198.557 4.03078 0.36198 0
M  V30 2055 H 195.312 4.45302 -1.61255 0
M  V30 2056 H 195.736 5.42842 -4.04538 0
M  V30 2057 H 200.378 3.9304 -1.55818 0
M  V30 2058 H 198.096 5.8494 -5.57558 0
M  V30 2059 H 201.682 4.61241 -3.5461 0
M  V30 2060 H 200.562 5.56153 -5.52868 0
M  V30 2061 N 198.065 0.39524 1.52563 0
M  V30 2062 C 199.314 -0.186321 2.00838 0
M  V30 2063 C 199.627 -1.47402 1.28577 0
M  V30 2064 O 200.833 -2.13599 1.67593 0
M  V30 2065 C 199.289 -0.382595 3.57861 0
M  V30 2066 C 198.897 0.892202 4.39026 0
M  V30 2067 C 200.641 -0.9202 4.14406 0
M  V30 2068 C 198.548 0.66388 5.87662 0
M  V30 2069 H 197.478 -0.0734041 0.750418 0
M  V30 2070 H 200.129 0.518552 1.76021 0
M  V30 2071 H 198.511 -1.14946 3.7895 0
M  V30 2072 H 199.685 1.66414 4.29701 0
M  V30 2073 H 198 1.35519 3.9373 0
M  V30 2074 H 200.597 -1.10683 5.23119 0
M  V30 2075 H 200.94 -1.89096 3.70875 0
M  V30 2076 H 201.473 -0.212751 3.97231 0
M  V30 2077 H 198.212 1.6058 6.35527 0
M  V30 2078 H 197.732 -0.0690193 5.9976 0
M  V30 2079 H 199.411 0.300699 6.46301 0
M  V30 2080 N 199.544 -1.57102 0.125237 0
M  V30 2081 C 200.474 -2.18659 -0.819174 0
M  V30 2082 C 201.455 -1.12843 -1.27281 0
M  V30 2083 O 202.64 -1.41104 -1.33429 0
M  V30 2084 C 199.77 -2.79096 -2.06695 0
M  V30 2085 C 198.724 -3.90548 -1.75088 0
M  V30 2086 C 198.05 -4.37821 -3.06948 0
M  V30 2087 C 199.35 -5.12356 -1.01435 0
M  V30 2088 H 201.044 -2.9783 -0.306202 0
M  V30 2089 H 198.59 -1.4326 -0.145839 0
M  V30 2090 H 200.543 -3.2082 -2.73226 0
M  V30 2091 H 199.267 -1.97223 -2.60328 0
M  V30 2092 H 197.926 -3.49409 -1.10944 0
M  V30 2093 H 197.574 -3.52799 -3.58527 0
M  V30 2094 H 197.274 -5.12982 -2.86571 0
M  V30 2095 H 198.798 -4.822 -3.74587 0
M  V30 2096 H 200.212 -5.5106 -1.58132 0
M  V30 2097 H 198.609 -5.9314 -0.911319 0
M  V30 2098 H 199.679 -4.849 -0.00218681 0
M  V30 2099 N 201.022 0.148545 -1.56898 0
M  V30 2100 C 201.952 1.18524 -2.01182 0
M  V30 2101 C 202.933 1.4489 -0.891123 0
M  V30 2102 O 204.118 1.55836 -1.15882 0
M  V30 2103 C 201.248 2.51879 -2.39112 0
M  V30 2104 C 200.202 2.40038 -3.54353 0
M  V30 2105 C 199.528 3.78089 -3.78091 0
M  V30 2106 C 200.828 1.88577 -4.87069 0
M  V30 2107 H 202.522 0.817029 -2.88036 0
M  V30 2108 H 200.068 0.391575 -1.38574 0
M  V30 2109 H 202.021 3.24627 -2.68692 0
M  V30 2110 H 200.745 2.90532 -1.49193 0
M  V30 2111 H 199.404 1.69742 -3.24936 0
M  V30 2112 H 199.052 4.14175 -2.85426 0
M  V30 2113 H 198.752 3.71028 -4.55645 0
M  V30 2114 H 200.276 4.52387 -4.10095 0
M  V30 2115 H 201.69 2.51117 -5.15377 0
M  V30 2116 H 200.087 1.9241 -5.68417 0
M  V30 2117 H 201.157 0.84136 -4.77545 0
M  V30 2118 N 202.5 1.5196 0.417844 0
M  V30 2119 C 203.748 1.65263 1.16329 0
M  V30 2120 C 204.069 0.380634 1.91249 0
M  V30 2121 O 203.339 -0.604214 1.86349 0
M  V30 2122 H 201.919 0.60912 0.432414 0
M  V30 2123 H 204.581 1.88969 0.477162 0
M  V30 2124 H 203.677 2.4896 1.88217 0
M  V30 2125 N 203.978 -0.674533 1.42435 0
M  V30 2126 C 205.224 -1.43671 1.43131 0
M  V30 2127 C 205.557 -1.94142 0.0476021 0
M  V30 2128 O 204.832 -1.70924 -0.928188 0
M  V30 2129 C 205.115 -2.63355 2.45594 0
M  V30 2130 C 204.968 -2.18514 3.93156 0
M  V30 2131 C 206.287 -3.65571 2.45043 0
M  V30 2132 H 203.406 -0.521077 0.521198 0
M  V30 2133 H 206.048 -0.766551 1.7385 0
M  V30 2134 H 204.198 -3.2053 2.19528 0
M  V30 2135 H 205.87 -1.66504 4.30202 0
M  V30 2136 H 204.113 -1.50086 4.07009 0
M  V30 2137 H 204.784 -3.04484 4.60428 0
M  V30 2138 H 207.26 -3.18113 2.68223 0
M  V30 2139 H 206.136 -4.46893 3.18713 0
M  V30 2140 H 206.397 -4.16716 1.47649 0
M  V30 2141 N 205.456 -1.28612 -0.910864 0
M  V30 2142 C 206.704 -1.15705 -1.65701 0
M  V30 2143 C 207.025 0.29416 -1.92769 0
M  V30 2144 O 206.295 1.20331 -1.54588 0
M  V30 2145 H 204.875 -0.425216 -0.614167 0
M  V30 2146 H 207.537 -1.61381 -1.0928 0
M  V30 2147 H 206.633 -1.6988 -2.61815 0
M  V30 2148 N 206.934 1.1197 -1.10907 0
M  V30 2149 C 207.897 2.16031 -0.765707 0
M  V30 2150 C 208.897 1.59393 0.212235 0
M  V30 2151 O 210.087 1.74196 -0.0115441 0
M  V30 2152 C 207.219 3.40632 -0.135053 0
M  V30 2153 H 208.412 2.47919 -1.68748 0
M  V30 2154 H 205.965 1.27061 -0.910226 0
M  V30 2155 H 206.7 3.14348 0.797218 0
M  V30 2156 H 206.485 3.8302 -0.838937 0
M  V30 2157 H 207.975 4.17505 0.0892469 0
M  V30 2158 N 208.412 0.89855 1.29475 0
M  V30 2159 C 209.689 0.443416 1.90508 0
M  V30 2160 C 210.069 -1.07685 1.81569 0
M  V30 2161 O 209.417 -1.9182 1.24166 0
M  V30 2162 C 209.627 0.956708 3.35631 0
M  V30 2163 C 210.975 0.999728 4.12663 0
M  V30 2164 O 211.999 0.904299 3.4453 0
M  V30 2165 O 210.858 1.14289 5.34416 0
M  V30 2166 H 207.952 0.138025 0.815401 0
M  V30 2167 H 210.498 0.98834 1.37949 0
M  V30 2168 H 209.27 2.00067 3.36287 0
M  V30 2169 H 208.893 0.391728 3.95666 0
M  V30 2170 N 209.89 -1.43072 0.660911 0
M  V30 2171 C 211.138 -2.01323 0.177094 0
M  V30 2172 C 211.459 -1.5245 -1.2159 0
M  V30 2173 O 210.729 -0.740322 -1.81373 0
M  V30 2174 H 209.309 -0.744382 0.0624804 0
M  V30 2175 H 211.971 -1.75179 0.854305 0
M  V30 2176 H 211.067 -3.11649 0.167641 0
M  V30 2177 N 211.368 -0.403325 -1.52352 0
M  V30 2178 C 212.318 0.442244 -2.2367 0
M  V30 2179 C 213.302 1.01823 -1.24583 0
M  V30 2180 O 214.494 0.942005 -1.49851 0
M  V30 2181 C 211.623 1.5615 -3.05732 0
M  V30 2182 C 210.709 0.996575 -4.12225 0
M  V30 2183 N 211.1 0.157804 -5.05554 0
M  V30 2184 C 209.398 1.26767 -4.27605 0
M  V30 2185 C 210.099 -0.155853 -5.81491 0
M  V30 2186 N 209.075 0.451775 -5.41719 0
M  V30 2187 H 212.877 -0.204964 -2.93184 0
M  V30 2188 H 210.391 -0.213418 -1.60992 0
M  V30 2189 H 212.388 2.17981 -3.55373 0
M  V30 2190 H 211.048 2.21139 -2.37755 0
M  V30 2191 H 212.059 -0.206049 -5.1749 0
M  V30 2192 H 208.736 1.91757 -3.70858 0
M  V30 2193 H 210.126 -0.836329 -6.66675 0
M  V30 2194 N 212.846 1.57033 -0.133567 0
M  V30 2195 C 214.074 2.00044 0.528195 0
M  V30 2196 C 214.489 1.01349 1.59291 0
M  V30 2197 O 213.846 0.00848369 1.82498 0
M  V30 2198 C 213.897 3.43018 1.1411 0
M  V30 2199 O 213.618 4.37939 0.11892 0
M  V30 2200 C 215.119 4.01237 1.88477 0
M  V30 2201 H 212.339 0.656517 0.138661 0
M  V30 2202 H 214.883 2.03267 -0.224196 0
M  V30 2203 H 213.038 3.40688 1.84418 0
M  V30 2204 H 213.452 5.21436 0.56613 0
M  V30 2205 H 214.926 5.03314 2.26669 0
M  V30 2206 H 215.403 3.41193 2.76558 0
M  V30 2207 H 216.009 4.07156 1.22898 0
M  V30 2208 N 214.325 -0.140222 1.56975 0
M  V30 2209 C 215.288 -1.15689 1.97861 0
M  V30 2210 C 216.288 -1.3549 0.865974 0
M  V30 2211 O 217.478 -1.32367 1.13246 0
M  V30 2212 C 214.61 -2.51582 2.30042 0
M  V30 2213 H 215.803 -0.805971 2.88867 0
M  V30 2214 H 213.356 -0.383801 1.51515 0
M  V30 2215 H 214.091 -2.91632 1.41849 0
M  V30 2216 H 213.876 -2.38569 3.11171 0
M  V30 2217 H 215.366 -3.24792 2.62488 0
M  V30 2218 N 215.803 -1.52179 -0.40978 0
M  V30 2219 C 217.028 -1.70347 -1.18308 0
M  V30 2220 C 217.453 -0.411887 -1.83535 0
M  V30 2221 O 216.811 0.630587 -1.6998 0
M  V30 2222 C 216.859 -2.83977 -2.22238 0
M  V30 2223 O 215.963 -2.495 -3.28365 0
M  V30 2224 H 215.304 -0.567103 -0.345384 0
M  V30 2225 H 217.834 -1.98879 -0.480445 0
M  V30 2226 H 217.844 -3.0887 -2.66577 0
M  V30 2227 H 216.519 -3.77685 -1.74146 0
M  V30 2228 H 215.096 -2.35277 -2.89308 0
M  V30 2229 N 217.281 0.66697 -1.42791 0
M  V30 2230 C 218.211 1.79218 -1.49677 0
M  V30 2231 C 219.192 1.66405 -0.352623 0
M  V30 2232 O 220.377 1.85708 -0.567993 0
M  V30 2233 C 217.507 3.17565 -1.40605 0
M  V30 2234 C 216.461 3.45124 -2.53127 0
M  V30 2235 C 215.787 4.83127 -2.29112 0
M  V30 2236 C 217.087 3.41236 -3.95418 0
M  V30 2237 H 218.781 1.73713 -2.43853 0
M  V30 2238 H 216.327 0.83432 -1.17367 0
M  V30 2239 H 218.28 3.96022 -1.44029 0
M  V30 2240 H 217.004 3.23767 -0.429271 0
M  V30 2241 H 215.663 2.69031 -2.49034 0
M  V30 2242 H 215.311 4.85988 -1.29709 0
M  V30 2243 H 215.011 5.02528 -3.04531 0
M  V30 2244 H 216.535 5.63859 -2.34297 0
M  V30 2245 H 217.949 4.09651 -4.01073 0
M  V30 2246 H 216.346 3.72173 -4.70752 0
M  V30 2247 H 217.416 2.39665 -4.21532 0
M  V30 2248 N 218.759 1.29093 0.90403 0
M  V30 2249 C 220.006 1.16813 1.65411 0
M  V30 2250 C 220.334 -0.28128 1.92455 0
M  V30 2251 O 219.589 -1.22006 1.53013 0
M  V30 2252 C 219.888 1.92224 3.01305 0
M  V30 2253 C 219.554 3.41968 2.93885 0
M  V30 2254 C 218.216 3.82807 2.91569 0
M  V30 2255 C 220.568 4.37409 2.83413 0
M  V30 2256 C 217.896 5.1741 2.76594 0
M  V30 2257 C 220.248 5.72097 2.69977 0
M  V30 2258 C 218.912 6.12199 2.66024 0
M  V30 2259 H 218.182 0.42745 0.605283 0
M  V30 2260 H 220.829 1.59981 1.05254 0
M  V30 2261 H 219.134 1.41635 3.65304 0
M  V30 2262 H 220.831 1.80131 3.58265 0
M  V30 2263 H 217.421 3.09504 2.96488 0
M  V30 2264 H 221.605 4.06813 2.84283 0
M  V30 2265 H 216.861 5.47596 2.71935 0
M  V30 2266 H 221.035 6.45704 2.60844 0
M  V30 2267 H 218.662 7.16448 2.54178 0
M  V30 2268 N 220.237 -1.11381 1.11499 0
M  V30 2269 C 221.648 -1.6465 0.880191 0
M  V30 2270 C 221.999 -1.87199 -0.587434 0
M  V30 2271 O 221.124 -1.60667 -1.44966 0
M  V30 2272 C 221.719 -2.99105 1.59128 0
M  V30 2273 C 220.278 -3.49279 1.40289 0
M  V30 2274 C 219.425 -2.24077 1.63354 0
M  V30 2275 H 222.376 -0.950123 1.27116 0
M  V30 2276 H 222.397 -3.66107 1.03664 0
M  V30 2277 H 221.909 -2.82661 2.65941 0
M  V30 2278 H 220.01 -3.70887 0.356888 0
M  V30 2279 H 220.123 -4.2803 2.15238 0
M  V30 2280 H 218.487 -2.31733 1.05698 0
M  V30 2281 H 219.27 -2.10175 2.71443 0
M  V30 2282 N 221.715 -0.905404 -1.28997 0
M  V30 2283 C 222.963 -0.533192 -1.9494 0
M  V30 2284 C 223.284 0.924618 -1.71685 0
M  V30 2285 O 222.554 1.65268 -1.05183 0
M  V30 2286 H 221.134 -0.194194 -0.721317 0
M  V30 2287 H 223.796 -1.15294 -1.57141 0
M  V30 2288 H 222.892 -0.72059 -3.03667 0
M  V30 2289 N 223.193 1.4272 -0.668489 0
M  V30 2290 C 224.125 2.2914 0.052613 0
M  V30 2291 C 225.138 1.43339 0.771857 0
M  V30 2292 O 226.327 1.67123 0.627067 0
M  V30 2293 C 223.427 3.20618 1.09804 0
M  V30 2294 C 222.6 4.35039 0.45389 0
M  V30 2295 C 221.659 5.07282 1.39825 0
M  V30 2296 O 220.685 5.62024 0.900978 0
M  V30 2297 N 221.887 5.12206 2.73176 0
M  V30 2298 H 224.652 2.91668 -0.689209 0
M  V30 2299 H 222.213 1.53577 -0.512422 0
M  V30 2300 H 224.205 3.65815 1.73094 0
M  V30 2301 H 222.775 2.59585 1.74167 0
M  V30 2302 H 221.995 3.92567 -0.358396 0
M  V30 2303 H 223.283 5.088 0.00486972 0
M  V30 2304 H 222.681 4.6913 3.16122 0
M  V30 2305 H 221.238 5.61069 3.31729 0
M  V30 2306 N 224.671 0.411399 1.52136 0
M  V30 2307 C 225.899 -0.163076 2.06256 0
M  V30 2308 C 226.314 -1.3867 1.28125 0
M  V30 2309 O 225.671 -1.79423 0.333721 0
M  V30 2310 C 225.722 -0.511252 3.57867 0
M  V30 2311 O 225.443 0.66378 4.33042 0
M  V30 2312 C 226.944 -1.13921 4.28412 0
M  V30 2313 H 224.164 -0.0193897 0.67072 0
M  V30 2314 H 226.708 0.583007 1.96013 0
M  V30 2315 H 224.863 -1.20723 3.6811 0
M  V30 2316 H 225.277 0.372601 5.23175 0
M  V30 2317 H 226.751 -1.33302 5.35663 0
M  V30 2318 H 227.228 -2.11296 3.85033 0
M  V30 2319 H 227.834 -0.483373 4.22544 0
M  V30 2320 N 226.149 -1.5696 0.141893 0
M  V30 2321 C 227.426 -1.87553 -0.555281 0
M  V30 2322 C 227.806 -1.04699 -1.83306 0
M  V30 2323 O 227.154 -0.132346 -2.28116 0
M  V30 2324 C 227.364 -3.39093 -0.825664 0
M  V30 2325 C 228.712 -4.08199 -1.16869 0
M  V30 2326 O 229.736 -3.44242 -0.915185 0
M  V30 2327 O 228.595 -5.21139 -1.6455 0
M  V30 2328 H 225.689 -0.777188 -0.282679 0
M  V30 2329 H 228.235 -1.68763 0.17812 0
M  V30 2330 H 227.007 -3.91221 0.0788633 0
M  V30 2331 H 226.63 -3.63393 -1.61343 0
M  V30 2332 N 227.627 0.131896 -1.57047 0
M  V30 2333 C 228.857 0.855219 -1.88068 0
M  V30 2334 C 229.265 1.74557 -0.729817 0
M  V30 2335 O 228.608 1.81083 0.308962 0
M  V30 2336 C 228.67 1.75119 -3.13964 0
M  V30 2337 C 228.334 1.03646 -4.45091 0
M  V30 2338 C 229.331 0.383276 -5.18485 0
M  V30 2339 C 227.016 1.02148 -4.91804 0
M  V30 2340 C 229.01 -0.275347 -6.36805 0
M  V30 2341 C 226.697 0.359047 -6.10044 0
M  V30 2342 C 227.695 -0.288222 -6.82392 0
M  V30 2343 O 227.383 -0.94011 -7.98384 0
M  V30 2344 H 227.115 0.251864 -0.627328 0
M  V30 2345 H 229.669 0.124782 -2.05021 0
M  V30 2346 H 227.899 2.52295 -2.9306 0
M  V30 2347 H 229.588 2.3478 -3.31109 0
M  V30 2348 H 230.354 0.386562 -4.83457 0
M  V30 2349 H 226.233 1.5147 -4.35405 0
M  V30 2350 H 229.777 -0.781148 -6.93213 0
M  V30 2351 H 225.674 0.35348 -6.44531 0
M  V30 2352 H 226.442 -0.84329 -8.14144 0
M  V30 2353 N 229.106 1.52395 0.401703 0
M  V30 2354 C 230.069 1.75636 1.47257 0
M  V30 2355 C 231.069 0.62628 1.48103 0
M  V30 2356 O 232.259 0.894227 1.49497 0
M  V30 2357 C 229.391 1.84553 2.86624 0
M  V30 2358 H 230.584 2.71241 1.27938 0
M  V30 2359 H 228.137 1.42923 0.632662 0
M  V30 2360 H 228.872 0.908882 3.11303 0
M  V30 2361 H 228.657 2.66715 2.87412 0
M  V30 2362 H 230.147 2.04251 3.64241 0
M  V30 2363 N 230.584 -0.659388 1.43143 0
M  V30 2364 C 231.861 -1.41627 1.34912 0
M  V30 2365 C 232.241 -2.11099 -0.00607785 0
M  V30 2366 O 231.589 -2.04353 -1.02236 0
M  V30 2367 C 231.799 -2.40604 2.52805 0
M  V30 2368 C 233.147 -3.04789 2.95616 0
M  V30 2369 O 234.171 -2.50932 2.52807 0
M  V30 2370 O 233.03 -4.02421 3.69756 0
M  V30 2371 H 230.124 -0.63246 0.532844 0
M  V30 2372 H 232.67 -0.686814 1.5518 0
M  V30 2373 H 231.442 -1.88174 3.43083 0
M  V30 2374 H 231.065 -3.21009 2.34604 0
M  V30 2375 N 232.062 -1.29571 -0.897171 0
M  V30 2376 C 233.025 -1.14913 -1.98312 0
M  V30 2377 C 234.025 -0.0838629 -1.60581 0
M  V30 2378 O 235.215 -0.331006 -1.71026 0
M  V30 2379 C 232.347 -0.757835 -3.3237 0
M  V30 2380 H 233.54 -2.11377 -2.12743 0
M  V30 2381 H 231.093 -1.12793 -1.08201 0
M  V30 2382 H 231.828 0.206837 -3.2364 0
M  V30 2383 H 231.613 -1.52755 -3.61121 0
M  V30 2384 H 233.103 -0.678408 -4.12053 0
M  V30 2385 N 233.54 1.10788 -1.12088 0
M  V30 2386 C 234.488 2.19111 -0.780587 0
M  V30 2387 C 235.482 1.67818 0.230961 0
M  V30 2388 O 236.688 1.79777 0.0895427 0
M  V30 2389 H 233.063 0.714477 -0.234578 0
M  V30 2390 H 235.034 2.45055 -1.70266 0
M  V30 2391 C 233.783 3.46818 -0.24747 0
M  V30 2392 H 233.106 3.86646 -1.01712 0
M  V30 2393 H 234.546 4.23973 -0.0476291 0
M  V30 2394 C 233.005 3.20968 1.02378 0
M  V30 2395 O 233.535 3.42298 2.10226 0
M  V30 2396 N 231.741 2.74658 0.949271 0
M  V30 2397 H 231.288 2.57501 0.0715173 0
M  V30 2398 H 231.246 2.57739 1.80049 0
M  V30 2399 N 235.018 0.912232 1.28515 0
M  V30 2400 C 235.948 0.416403 2.29757 0
M  V30 2401 C 236.929 -0.515194 1.6211 0
M  V30 2402 O 238.114 -0.423253 1.89532 0
M  V30 2403 C 235.244 -0.34572 3.45575 0
M  V30 2404 C 234.198 0.496599 4.25109 0
M  V30 2405 C 233.524 -0.393771 5.33248 0
M  V30 2406 C 234.824 1.75307 4.92001 0
M  V30 2407 H 236.518 1.26249 2.7148 0
M  V30 2408 H 234.064 0.608515 1.30511 0
M  V30 2409 H 236.017 -0.703422 4.15488 0
M  V30 2410 H 234.741 -1.2257 3.02728 0
M  V30 2411 H 233.4 0.8368 3.56922 0
M  V30 2412 H 233.048 -1.27225 4.86644 0
M  V30 2413 H 232.748 0.166209 5.87365 0
M  V30 2414 H 234.272 -0.747389 6.06009 0
M  V30 2415 H 235.686 1.46437 5.54283 0
M  V30 2416 H 234.083 2.25534 5.56106 0
M  V30 2417 H 235.153 2.48176 4.16577 0
M  V30 2418 N 236.496 -1.42363 0.676048 0
M  V30 2419 C 237.721 -2.06377 0.205705 0
M  V30 2420 C 238.146 -1.50463 -1.12883 0
M  V30 2421 O 237.504 -0.623619 -1.70237 0
M  V30 2422 C 237.552 -3.60277 0.152655 0
M  V30 2423 O 236.656 -4.02935 -0.87845 0
M  V30 2424 H 235.997 -0.655588 0.105359 0
M  V30 2425 H 238.527 -1.82475 0.925412 0
M  V30 2426 H 238.537 -4.07993 -0.0230675 0
M  V30 2427 H 237.212 -4.00346 1.12675 0
M  V30 2428 H 235.789 -3.66764 -0.673668 0
M  V30 2429 N 237.974 -0.419461 -1.51915 0
M  V30 2430 C 239.22 0.153166 -2.02221 0
M  V30 2431 C 239.553 1.43907 -1.30401 0
M  V30 2432 O 238.828 1.90055 -0.413438 0
M  V30 2433 C 239.111 0.390291 -3.57979 0
M  V30 2434 C 238.964 -0.913014 -4.40436 0
M  V30 2435 C 240.283 1.16794 -4.2432 0
M  V30 2436 H 237.402 0.0541924 -0.735005 0
M  V30 2437 H 240.044 -0.554955 -1.81715 0
M  V30 2438 H 238.194 0.993491 -3.75582 0
M  V30 2439 H 239.866 -1.54882 -4.34522 0
M  V30 2440 H 238.109 -1.52168 -4.06236 0
M  V30 2441 H 238.78 -0.701361 -5.47526 0
M  V30 2442 H 241.256 0.657161 -4.10878 0
M  V30 2443 H 240.132 1.3026 -5.3322 0
M  V30 2444 H 240.393 2.19132 -3.83971 0
M  V30 2445 N 239.452 1.56882 -0.150215 0
M  V30 2446 C 240.698 1.96518 0.500834 0
M  V30 2447 C 241.031 1.03527 1.64304 0
M  V30 2448 O 240.306 0.0782751 1.94342 0
M  V30 2449 C 240.589 3.45822 1.00395 0
M  V30 2450 C 240.442 4.49591 -0.136983 0
M  V30 2451 C 241.761 3.97704 1.88467 0
M  V30 2452 H 238.88 0.714535 0.18058 0
M  V30 2453 H 241.522 1.88577 -0.232091 0
M  V30 2454 H 239.672 3.5272 1.62851 0
M  V30 2455 H 241.344 4.5477 -0.77343 0
M  V30 2456 H 239.587 4.26441 -0.795652 0
M  V30 2457 H 240.258 5.51402 0.256815 0
M  V30 2458 H 242.734 3.93304 1.35834 0
M  V30 2459 H 241.61 5.0263 2.20578 0
M  V30 2460 H 241.871 3.40252 2.82279 0
M  V30 2461 N 240.93 -0.123565 1.57115 0
M  V30 2462 C 241.893 -1.13583 1.99076 0
M  V30 2463 C 242.893 -1.34564 0.880296 0
M  V30 2464 O 244.083 -1.31158 1.14644 0
M  V30 2465 C 241.215 -2.49128 2.32698 0
M  V30 2466 H 242.408 -0.775287 2.89706 0
M  V30 2467 H 239.961 -0.36771 1.51913 0
M  V30 2468 H 240.696 -2.90111 1.44934 0
M  V30 2469 H 240.481 -2.35255 3.13684 0
M  V30 2470 H 241.971 -3.2199 2.65918 0
M  V30 2471 N 242.408 -1.52605 -0.393616 0
M  V30 2472 C 243.633 -1.71592 -1.16495 0
M  V30 2473 C 244.058 -0.43133 -1.83088 0
M  V30 2474 O 243.416 0.612523 -1.7064 0
M  V30 2475 C 243.464 -2.86318 -2.19213 0
M  V30 2476 O 242.568 -2.52969 -3.257 0
M  V30 2477 H 241.909 -0.570734 -0.33935 0
M  V30 2478 H 244.439 -1.99377 -0.459324 0
M  V30 2479 H 244.449 -3.1168 -2.63286 0
M  V30 2480 H 243.124 -3.79511 -1.7013 0
M  V30 2481 H 241.701 -2.38332 -2.86797 0
M  V30 2482 N 243.887 0.651787 -1.4349 0
M  V30 2483 C 244.837 1.75783 -1.45205 0
M  V30 2484 C 245.821 1.57679 -0.320328 0
M  V30 2485 O 247.013 1.67767 -0.564211 0
M  V30 2486 C 244.142 3.14377 -1.3792 0
M  V30 2487 C 243.228 3.38023 -2.56127 0
M  V30 2488 N 243.619 3.32135 -3.81471 0
M  V30 2489 C 241.917 3.68747 -2.50882 0
M  V30 2490 C 242.618 3.55902 -4.60118 0
M  V30 2491 N 241.594 3.77783 -3.90872 0
M  V30 2492 H 245.396 1.69657 -2.39987 0
M  V30 2493 H 242.91 0.853508 -1.38163 0
M  V30 2494 H 244.907 3.93666 -1.37231 0
M  V30 2495 H 243.567 3.21683 -0.441596 0
M  V30 2496 H 244.578 3.11515 -4.13738 0
M  V30 2497 H 241.255 3.8316 -1.65816 0
M  V30 2498 H 242.645 3.57116 -5.69138 0
M  V30 2499 N 245.365 1.30045 0.890287 0
M  V30 2500 C 246.776 1.16738 1.45702 0
M  V30 2501 C 247.127 -0.233939 1.948 0
M  V30 2502 O 246.252 -1.13021 1.84541 0
M  V30 2503 C 246.847 2.11313 2.64825 0
M  V30 2504 C 245.406 2.02001 3.17604 0
M  V30 2505 C 244.553 2.01699 1.90296 0
M  V30 2506 H 247.504 1.42392 0.700726 0
M  V30 2507 H 247.525 1.69086 3.40867 0
M  V30 2508 H 247.037 3.13294 2.2906 0
M  V30 2509 H 245.138 1.03142 3.5804 0
M  V30 2510 H 245.251 2.90128 3.81264 0
M  V30 2511 H 243.615 1.46427 2.08402 0
M  V30 2512 H 244.398 3.05402 1.56795 0
M  V30 2513 N 246.843 -1.10192 1.12674 0
M  V30 2514 C 247.753 -2.20172 0.810026 0
M  V30 2515 C 248.769 -1.72821 -0.202188 0
M  V30 2516 O 249.945 -2.01369 -0.0351691 0
M  V30 2517 C 247.01 -3.45631 0.272007 0
M  V30 2518 C 246.071 -4.07704 1.34447 0
M  V30 2519 C 245.304 -5.27175 0.832029 0
M  V30 2520 O 245.527 -5.69425 -0.333284 0
M  V30 2521 O 244.461 -5.80168 1.60277 0
M  V30 2522 H 248.287 -2.49701 1.72867 0
M  V30 2523 H 245.872 -1.18977 0.903597 0
M  V30 2524 H 247.754 -4.21394 -0.0230219 0
M  V30 2525 H 246.429 -3.17723 -0.619164 0
M  V30 2526 H 245.336 -3.33614 1.6927 0
M  V30 2527 H 246.669 -4.3982 2.2095 0
M  V30 2528 N 248.321 -0.919034 -1.28029 0
M  V30 2529 C 249.546 -0.570357 -1.99403 0
M  V30 2530 C 249.971 0.842486 -1.68178 0
M  V30 2531 O 249.329 1.56391 -0.917141 0
M  V30 2532 C 249.377 -0.792541 -3.51783 0
M  V30 2533 O 248.481 0.145988 -4.12142 0
M  V30 2534 H 247.822 -0.220555 -0.6263 0
M  V30 2535 H 250.352 -1.23592 -1.63053 0
M  V30 2536 H 250.362 -0.704708 -4.01868 0
M  V30 2537 H 249.037 -1.82247 -3.73844 0
M  V30 2538 H 247.614 0.00897528 -3.72899 0
M  V30 2539 N 249.799 1.42003 -0.683588 0
M  V30 2540 C 251.047 2.01015 -0.209101 0
M  V30 2541 C 251.368 1.54365 1.19149 0
M  V30 2542 O 250.638 0.769083 1.80172 0
M  V30 2543 H 249.218 0.743294 -0.074315 0
M  V30 2544 H 251.88 1.73798 -0.882066 0
M  V30 2545 H 250.976 3.11343 -0.2172 0
M  V30 2546 N 251.277 0.427512 1.51691 0
M  V30 2547 C 252.209 -0.424521 2.25234 0
M  V30 2548 C 253.222 -0.994671 1.2888 0
M  V30 2549 O 254.411 -0.890483 1.54702 0
M  V30 2550 C 251.511 -1.60479 2.98496 0
M  V30 2551 C 250.684 -1.15527 4.21868 0
M  V30 2552 C 249.743 -2.20454 4.77793 0
M  V30 2553 O 248.769 -1.8029 5.39893 0
M  V30 2554 N 249.971 -3.52831 4.60967 0
M  V30 2555 H 252.736 0.205749 2.98993 0
M  V30 2556 H 250.297 0.255867 1.59865 0
M  V30 2557 H 252.289 -2.30276 3.32799 0
M  V30 2558 H 250.859 -2.14061 2.27809 0
M  V30 2559 H 250.079 -0.284736 3.9317 0
M  V30 2560 H 251.367 -0.832173 5.01949 0
M  V30 2561 H 250.765 -3.88201 4.11481 0
M  V30 2562 H 249.322 -4.18551 4.99658 0
M  V30 2563 N 252.755 -1.56801 0.158532 0
M  V30 2564 C 253.685 -2.20347 -0.772609 0
M  V30 2565 C 254.666 -1.15518 -1.24859 0
M  V30 2566 O 255.851 -1.43902 -1.30406 0
M  V30 2567 C 252.981 -2.83417 -2.00729 0
M  V30 2568 C 251.935 -3.94174 -1.66765 0
M  V30 2569 C 251.261 -4.44233 -2.97592 0
M  V30 2570 C 252.561 -5.14392 -0.905447 0
M  V30 2571 H 254.255 -2.98413 -0.242959 0
M  V30 2572 H 251.801 -1.43537 -0.115419 0
M  V30 2573 H 253.754 -3.26543 -2.6636 0
M  V30 2574 H 252.478 -2.02701 -2.56086 0
M  V30 2575 H 251.137 -3.51684 -1.03508 0
M  V30 2576 H 250.785 -3.60325 -3.50963 0
M  V30 2577 H 250.485 -5.18945 -2.75626 0
M  V30 2578 H 252.009 -4.90037 -3.64274 0
M  V30 2579 H 253.423 -5.5429 -1.46408 0
M  V30 2580 H 251.82 -5.9494 -0.7853 0
M  V30 2581 H 252.89 -4.84795 0.100668 0
M  V30 2582 N 254.233 0.115231 -1.57178 0
M  V30 2583 C 255.649 0.468877 -1.52557 0
M  V30 2584 C 255.849 1.81649 -0.872125 0
M  V30 2585 O 254.905 2.48347 -0.45606 0
M  V30 2586 C 256.218 0.4499 -2.97315 0
M  V30 2587 C 257.766 0.533185 -3.08425 0
M  V30 2588 C 258.241 0.54456 -4.54751 0
M  V30 2589 N 259.732 0.605892 -4.5922 0
M  V30 2590 C 260.467 0.636203 -5.6986 0
M  V30 2591 N 259.963 0.623931 -6.89985 0
M  V30 2592 N 261.756 0.679496 -5.57978 0
M  V30 2593 H 253.907 -0.767712 -1.9804 0
M  V30 2594 H 256.17 -0.283609 -0.904583 0
M  V30 2595 H 255.876 -0.472721 -3.48509 0
M  V30 2596 H 255.75 1.27632 -3.5495 0
M  V30 2597 H 258.137 1.44623 -2.57232 0
M  V30 2598 H 258.218 -0.320995 -2.53778 0
M  V30 2599 H 257.862 -0.364452 -5.06591 0
M  V30 2600 H 257.792 1.41568 -5.07214 0
M  V30 2601 H 260.283 0.621386 -3.72756 0
M  V30 2602 H 260.596 0.649787 -7.70063 0
M  V30 2603 H 258.941 0.591296 -6.9248 0
M  V30 2604 H 262.132 0.686472 -4.63039 0
M  V30 2605 H 262.305 0.69965 -6.44212 0
M  V30 2606 N 255.711 1.52812 0.385517 0
M  V30 2607 C 256.957 1.68275 1.13188 0
M  V30 2608 C 257.29 0.423179 1.89533 0
M  V30 2609 O 256.565 -0.579113 1.85679 0
M  V30 2610 C 256.848 2.92001 2.1073 0
M  V30 2611 C 256.701 4.28067 1.38125 0
M  V30 2612 C 258.02 3.11283 3.11113 0
M  V30 2613 H 255.139 0.612352 0.410115 0
M  V30 2614 H 257.781 1.85415 0.414869 0
M  V30 2615 H 255.931 2.77519 2.71874 0
M  V30 2616 H 257.603 4.54324 0.799187 0
M  V30 2617 H 255.846 4.28388 0.683092 0
M  V30 2618 H 256.517 5.10733 2.09417 0
M  V30 2619 H 258.993 3.2482 2.6006 0
M  V30 2620 H 257.869 3.99325 3.76605 0
M  V30 2621 H 258.13 2.25656 3.80173 0
M  V30 2622 N 257.189 -0.644168 1.43834 0
M  V30 2623 C 258.414 -1.43642 1.49605 0
M  V30 2624 C 258.839 -1.8773 0.117913 0
M  V30 2625 O 258.197 -1.57938 -0.890239 0
M  V30 2626 C 258.245 -2.6416 2.45463 0
M  V30 2627 O 257.349 -3.63538 1.94714 0
M  V30 2628 H 256.69 -0.430329 0.50568 0
M  V30 2629 H 259.22 -0.787448 1.8884 0
M  V30 2630 H 259.23 -3.11864 2.63068 0
M  V30 2631 H 257.905 -2.31414 3.45572 0
M  V30 2632 H 256.482 -3.2273 1.86814 0
M  V30 2633 N 258.668 -1.30515 -0.883378 0
M  V30 2634 C 259.615 -1.17032 -1.98927 0
M  V30 2635 C 260.585 -0.0594241 -1.65994 0
M  V30 2636 O 261.77 -0.229895 -1.8941 0
M  V30 2637 C 258.91 -0.869777 -3.33959 0
M  V30 2638 C 258.023 -2.06271 -3.79574 0
M  V30 2639 C 257.158 -1.70011 -5.03259 0
M  V30 2640 C 256.197 -2.8579 -5.41286 0
M  V30 2641 N 255.334 -2.49816 -6.56153 0
M  V30 2642 H 260.174 -2.1164 -2.09792 0
M  V30 2643 H 257.711 -1.05296 -1.02719 0
M  V30 2644 H 259.669 -0.676138 -4.11685 0
M  V30 2645 H 258.299 0.0394332 -3.22776 0
M  V30 2646 H 257.351 -2.36755 -2.97744 0
M  V30 2647 H 258.663 -2.92971 -4.03694 0
M  V30 2648 H 257.817 -1.47032 -5.88614 0
M  V30 2649 H 256.556 -0.804829 -4.81013 0
M  V30 2650 H 255.561 -3.09434 -4.54456 0
M  V30 2651 H 256.786 -3.76008 -5.65504 0
M  V30 2652 H 254.732 -1.62795 -6.35479 0
M  V30 2653 H 254.649 -3.30048 -6.8015 0
M  V30 2654 H 255.917 -2.30197 -7.44735 0
M  V30 2655 N 260.146 1.09593 -1.13257 0
M  V30 2656 C 261.374 1.855 -0.916378 0
M  V30 2657 C 261.789 1.81069 0.534738 0
M  V30 2658 O 261.146 1.20562 1.37007 0
M  V30 2659 C 261.197 3.33546 -1.39388 0
M  V30 2660 O 260.918 3.37927 -2.78813 0
M  V30 2661 C 262.419 4.26299 -1.21588 0
M  V30 2662 H 259.639 0.585991 -0.326887 0
M  V30 2663 H 262.183 1.38488 -1.5047 0
M  V30 2664 H 260.338 3.77992 -0.848597 0
M  V30 2665 H 260.752 4.30254 -2.9997 0
M  V30 2666 H 262.226 5.28341 -1.59876 0
M  V30 2667 H 262.703 4.38918 -0.157376 0
M  V30 2668 H 263.309 3.87668 -1.7491 0
M  V30 2669 N 261.624 0.925811 1.2754 0
M  V30 2670 C 262.587 0.428129 2.25166 0
M  V30 2671 C 263.587 -0.452261 1.54309 0
M  V30 2672 O 264.777 -0.253608 1.72344 0
M  V30 2673 C 261.909 -0.384749 3.38722 0
M  V30 2674 H 263.102 1.29066 2.70706 0
M  V30 2675 H 260.655 0.706323 1.3943 0
M  V30 2676 H 261.39 -1.26618 2.98561 0
M  V30 2677 H 261.175 0.246454 3.91325 0
M  V30 2678 H 262.665 -0.723389 4.11287 0
M  V30 2679 N 263.102 -1.41638 0.69111 0
M  V30 2680 C 264.049 -2.30789 0.0229705 0
M  V30 2681 C 265.019 -1.46863 -0.775911 0
M  V30 2682 O 266.204 -1.75661 -0.74485 0
M  V30 2683 C 263.344 -3.32868 -0.910666 0
M  V30 2684 C 262.457 -4.31875 -0.103874 0
M  V30 2685 C 261.592 -5.21024 -1.03475 0
M  V30 2686 C 260.631 -6.11702 -0.220598 0
M  V30 2687 N 259.768 -6.93349 -1.10504 0
M  V30 2688 H 264.608 -2.87366 0.788978 0
M  V30 2689 H 262.145 -1.41535 0.400794 0
M  V30 2690 H 264.103 -3.90596 -1.46597 0
M  V30 2691 H 262.733 -2.77851 -1.64312 0
M  V30 2692 H 261.785 -3.76131 0.568285 0
M  V30 2693 H 263.097 -4.96003 0.527504 0
M  V30 2694 H 262.251 -5.83565 -1.65943 0
M  V30 2695 H 260.99 -4.57112 -1.69999 0
M  V30 2696 H 259.995 -5.48215 0.417187 0
M  V30 2697 H 261.22 -6.77668 0.440784 0
M  V30 2698 H 259.166 -6.3205 -1.75638 0
M  V30 2699 H 259.083 -7.54146 -0.529125 0
M  V30 2700 H 260.351 -7.60362 -1.71667 0
M  V30 2701 N 264.58 -0.43555 -1.51462 0
M  V30 2702 C 265.826 0.131709 -2.02372 0
M  V30 2703 C 266.159 1.42516 -1.3192 0
M  V30 2704 O 265.434 1.89606 -0.433573 0
M  V30 2705 C 265.717 0.352301 -3.58373 0
M  V30 2706 C 265.57 -0.959676 -4.39443 0
M  V30 2707 C 266.889 1.12286 -4.25535 0
M  V30 2708 H 264.008 0.0463936 -0.735538 0
M  V30 2709 H 266.65 -0.574197 -1.81116 0
M  V30 2710 H 264.8 0.9536 -3.76615 0
M  V30 2711 H 266.472 -1.59482 -4.32855 0
M  V30 2712 H 264.715 -1.56468 -4.04599 0
M  V30 2713 H 265.386 -0.759394 -5.46752 0
M  V30 2714 H 267.862 0.613545 -4.11552 0
M  V30 2715 H 266.738 1.24598 -5.34571 0
M  V30 2716 H 266.999 2.15048 -3.86273 0
M  V30 2717 N 266.058 1.56714 -0.166846 0
M  V30 2718 C 266.988 2.20754 0.760913 0
M  V30 2719 C 267.969 1.16178 1.24244 0
M  V30 2720 O 269.154 1.44592 1.29641 0
M  V30 2721 C 266.284 2.84478 1.99223 0
M  V30 2722 C 265.238 3.95053 1.64672 0
M  V30 2723 C 264.564 4.45805 2.95232 0
M  V30 2724 C 265.864 5.14865 0.878155 0
M  V30 2725 H 267.558 2.98537 0.22713 0
M  V30 2726 H 265.104 1.43596 0.107805 0
M  V30 2727 H 267.057 3.27951 2.64624 0
M  V30 2728 H 265.781 2.04056 2.55007 0
M  V30 2729 H 264.44 3.52228 1.01641 0
M  V30 2730 H 264.088 3.62181 3.49047 0
M  V30 2731 H 263.788 5.204 2.7287 0
M  V30 2732 H 265.312 4.91962 3.6167 0
M  V30 2733 H 266.726 5.55059 1.43466 0
M  V30 2734 H 265.123 5.95348 0.753738 0
M  V30 2735 H 266.193 4.84735 -0.126377 0
M  V30 2736 N 267.536 -0.106894 1.57237 0
M  V30 2737 C 268.468 -1.15646 1.97885 0
M  V30 2738 C 269.481 -1.36981 0.879779 0
M  V30 2739 O 270.67 -1.35841 1.15799 0
M  V30 2740 C 267.77 -2.51425 2.27241 0
M  V30 2741 C 266.943 -2.50529 3.58545 0
M  V30 2742 C 266.002 -3.68145 3.75973 0
M  V30 2743 O 265.028 -3.51176 4.47956 0
M  V30 2744 N 266.23 -4.87177 3.15656 0
M  V30 2745 H 268.995 -0.81059 2.8853 0
M  V30 2746 H 266.556 -0.296024 1.59171 0
M  V30 2747 H 268.548 -3.28689 2.36105 0
M  V30 2748 H 267.118 -2.78147 1.42663 0
M  V30 2749 H 266.338 -1.58894 3.60758 0
M  V30 2750 H 267.626 -2.46997 4.44826 0
M  V30 2751 H 267.024 -5.03868 2.57165 0
M  V30 2752 H 265.581 -5.62075 3.30023 0
M  V30 2753 N 269.014 -1.53014 -0.377408 0
M  V30 2754 C 269.977 -1.77957 -1.44444 0
M  V30 2755 C 270.977 -0.649763 -1.47087 0
M  V30 2756 O 272.167 -0.917897 -1.48055 0
M  V30 2757 C 269.299 -1.89089 -2.83651 0
M  V30 2758 H 270.492 -2.73243 -1.23606 0
M  V30 2759 H 268.045 -1.43912 -0.609844 0
M  V30 2760 H 268.78 -0.958293 -3.09818 0
M  V30 2761 H 268.565 -2.71254 -2.83132 0
M  V30 2762 H 270.055 -2.1002 -3.60945 0
M  V30 2763 N 270.492 0.636531 -1.44174 0
M  V30 2764 C 271.455 1.73063 -1.50273 0
M  V30 2765 C 272.455 1.56113 -0.385397 0
M  V30 2766 O 273.645 1.61707 -0.64781 0
M  V30 2767 C 270.777 3.12096 -1.37145 0
M  V30 2768 H 271.97 1.69031 -2.47727 0
M  V30 2769 H 269.523 0.849706 -1.31186 0
M  V30 2770 H 270.258 3.21728 -0.407636 0
M  V30 2771 H 270.043 3.25805 -2.18159 0
M  V30 2772 H 271.533 3.91846 -1.44382 0
M  V30 2773 N 271.97 1.30982 0.876444 0
M  V30 2774 C 272.917 1.18085 1.98304 0
M  V30 2775 C 273.887 0.0682263 1.6596 0
M  V30 2776 O 275.072 0.239937 1.89285 0
M  V30 2777 C 272.212 0.887475 3.33493 0
M  V30 2778 C 271.325 2.08281 3.78475 0
M  V30 2779 C 270.46 1.72678 5.0235 0
M  V30 2780 C 269.499 2.88657 5.39762 0
M  V30 2781 N 268.636 2.53292 6.54819 0
M  V30 2782 H 273.476 2.1275 2.08666 0
M  V30 2783 H 271.013 1.05839 1.02159 0
M  V30 2784 H 272.971 0.697961 4.1132 0
M  V30 2785 H 271.601 -0.022315 3.22792 0
M  V30 2786 H 270.653 2.3833 2.96484 0
M  V30 2787 H 271.965 2.95108 4.02135 0
M  V30 2788 H 271.119 1.50151 5.87826 0
M  V30 2789 H 269.858 0.830327 4.8058 0
M  V30 2790 H 268.863 3.1184 4.52809 0
M  V30 2791 H 270.088 3.79002 5.63502 0
M  V30 2792 H 268.034 1.66163 6.34607 0
M  V30 2793 H 267.951 3.3365 6.7839 0
M  V30 2794 H 269.219 2.34143 7.43503 0
M  V30 2795 N 273.449 -1.08991 1.13837 0
M  V30 2796 C 274.865 -1.33312 0.877506 0
M  V30 2797 C 275.065 -1.95587 -0.48456 0
M  V30 2798 O 274.121 -2.20509 -1.23013 0
M  V30 2799 C 275.434 -2.24045 2.0056 0
M  V30 2800 C 276.982 -2.37542 2.03821 0
M  V30 2801 C 277.457 -3.31614 3.15905 0
M  V30 2802 N 278.948 -3.39189 3.15445 0
M  V30 2803 C 279.683 -4.11992 3.98811 0
M  V30 2804 N 279.179 -4.87553 4.92203 0
M  V30 2805 N 280.972 -4.07762 3.86894 0
M  V30 2806 H 273.123 -0.669456 2.01574 0
M  V30 2807 H 275.386 -0.357482 0.878015 0
M  V30 2808 H 275.092 -1.85521 2.98789 0
M  V30 2809 H 274.966 -3.24466 1.92359 0
M  V30 2810 H 277.353 -2.75327 1.06202 0
M  V30 2811 H 277.434 -1.36884 2.16093 0
M  V30 2812 H 277.078 -2.94551 4.13766 0
M  V30 2813 H 277.008 -4.32186 3.0087 0
M  V30 2814 H 279.499 -2.85314 2.47799 0
M  V30 2815 H 279.812 -5.40549 5.52292 0
M  V30 2816 H 278.157 -4.86627 4.96205 0
M  V30 2817 H 281.348 -3.47833 3.13257 0
M  V30 2818 H 281.521 -4.64238 4.52092 0
M  V30 2819 N 274.927 -0.932562 -1.27047 0
M  V30 2820 C 276.176 -0.571351 -1.93439 0
M  V30 2821 C 276.489 0.892467 -1.74053 0
M  V30 2822 O 277.695 1.36267 -2.34826 0
M  V30 2823 C 276.151 -0.97106 -3.46552 0
M  V30 2824 C 275.759 -2.4559 -3.74686 0
M  V30 2825 C 277.503 -0.681333 -4.18997 0
M  V30 2826 C 275.41 -2.79475 -5.21198 0
M  V30 2827 H 274.34 -0.209966 -0.724176 0
M  V30 2828 H 276.991 -1.13403 -1.44263 0
M  V30 2829 H 275.373 -0.336983 -3.94564 0
M  V30 2830 H 276.547 -3.13829 -3.37414 0
M  V30 2831 H 274.862 -2.71802 -3.15456 0
M  V30 2832 H 277.459 -0.910939 -5.26883 0
M  V30 2833 H 277.802 0.381628 -4.14547 0
M  V30 2834 H 278.335 -1.27473 -3.76823 0
M  V30 2835 H 275.074 -3.847 -5.30741 0
M  V30 2836 H 274.594 -2.1589 -5.596 0
M  V30 2837 H 276.273 -2.67478 -5.89122 0
M  V30 2838 N 276.405 1.4127 -0.698611 0
M  V30 2839 C 277.63 2.06024 -0.238512 0
M  V30 2840 C 278.055 1.5224 1.10475 0
M  V30 2841 O 277.413 0.650623 1.69223 0
M  V30 2842 C 277.461 3.59988 -0.209952 0
M  V30 2843 O 276.565 4.04282 0.814235 0
M  V30 2844 H 275.906 0.653829 -0.115775 0
M  V30 2845 H 278.436 1.8098 -0.954326 0
M  V30 2846 H 278.446 4.07979 -0.0418436 0
M  V30 2847 H 277.121 3.98503 -1.1903 0
M  V30 2848 H 275.698 3.6779 0.615234 0
M  V30 2849 N 277.883 0.443576 1.51229 0
M  V30 2850 C 279.113 -0.119117 2.06256 0
M  V30 2851 C 279.521 -1.36471 1.31043 0
M  V30 2852 O 278.864 -1.80034 0.365151 0
M  V30 2853 C 278.926 -0.500546 3.55998 0
M  V30 2854 C 278.59 0.639125 4.52509 0
M  V30 2855 C 279.587 1.51311 4.97394 0
M  V30 2856 C 277.272 0.821632 4.95535 0
M  V30 2857 C 279.266 2.55425 5.83984 0
M  V30 2858 C 276.953 1.86603 5.81913 0
M  V30 2859 C 277.951 2.73072 6.26036 0
M  V30 2860 O 277.639 3.75718 7.10698 0
M  V30 2861 H 277.371 -0.00857665 0.675946 0
M  V30 2862 H 279.925 0.623288 1.95715 0
M  V30 2863 H 278.155 -1.29575 3.64345 0
M  V30 2864 H 279.844 -0.995116 3.93513 0
M  V30 2865 H 280.61 1.38367 4.64844 0
M  V30 2866 H 276.489 0.158149 4.60729 0
M  V30 2867 H 280.033 3.22949 6.18344 0
M  V30 2868 H 275.93 1.99564 6.13876 0
M  V30 2869 H 276.698 3.72374 7.2889 0
M  V30 2870 N 279.361 -1.56624 0.175154 0
M  V30 2871 C 280.291 -2.21155 -0.749195 0
M  V30 2872 C 281.272 -1.16836 -1.23626 0
M  V30 2873 O 282.457 -1.45277 -1.28873 0
M  V30 2874 C 279.587 -2.8553 -1.97711 0
M  V30 2875 C 278.541 -3.95921 -1.62575 0
M  V30 2876 C 277.867 -4.47365 -2.92864 0
M  V30 2877 C 279.167 -5.15323 -0.850838 0
M  V30 2878 H 280.861 -2.98653 -0.211295 0
M  V30 2879 H 278.407 -1.43651 -0.100188 0
M  V30 2880 H 280.36 -3.2935 -2.62881 0
M  V30 2881 H 279.084 -2.05406 -2.53921 0
M  V30 2882 H 277.743 -3.52762 -0.997719 0
M  V30 2883 H 277.391 -3.64027 -3.47122 0
M  V30 2884 H 277.091 -5.21839 -2.70106 0
M  V30 2885 H 278.615 -4.93873 -3.59056 0
M  V30 2886 H 280.029 -5.55812 -1.40521 0
M  V30 2887 H 278.426 -5.95739 -0.722154 0
M  V30 2888 H 279.496 -4.84661 0.152082 0
M  V30 2889 N 280.839 0.0985539 -1.57292 0
M  V30 2890 C 282.085 0.803867 -1.86188 0
M  V30 2891 C 282.418 1.78549 -0.763794 0
M  V30 2892 O 281.693 1.93153 0.22855 0
M  V30 2893 C 281.976 1.53568 -3.25713 0
M  V30 2894 C 281.829 0.572277 -4.46145 0
M  V30 2895 C 283.148 2.48708 -3.63087 0
M  V30 2896 H 280.267 0.290781 -0.677211 0
M  V30 2897 H 282.909 0.0675783 -1.8988 0
M  V30 2898 H 281.059 2.16332 -3.22696 0
M  V30 2899 H 282.731 -0.0480894 -4.61275 0
M  V30 2900 H 280.974 -0.114618 -4.33649 0
M  V30 2901 H 281.645 1.12139 -5.40489 0
M  V30 2902 H 284.121 1.96039 -3.67026 0
M  V30 2903 H 282.997 2.96932 -4.61652 0
M  V30 2904 H 283.258 3.32309 -2.91588 0
M  V30 2905 N 282.317 1.53212 0.369288 0
M  V30 2906 C 283.247 1.82365 1.45826 0
M  V30 2907 C 284.228 0.676907 1.56051 0
M  V30 2908 O 285.413 0.926401 1.70679 0
M  V30 2909 C 282.543 2.01023 2.83208 0
M  V30 2910 C 281.497 3.1678 2.8781 0
M  V30 2911 C 280.823 3.20724 4.27832 0
M  V30 2912 C 282.123 4.55447 2.55667 0
M  V30 2913 H 283.817 2.73559 1.21678 0
M  V30 2914 H 281.363 1.3163 0.583911 0
M  V30 2915 H 283.316 2.20001 3.59413 0
M  V30 2916 H 282.04 1.06536 3.08736 0
M  V30 2917 H 280.699 2.97616 2.14056 0
M  V30 2918 H 280.347 2.23882 4.50429 0
M  V30 2919 H 280.047 3.98496 4.31827 0
M  V30 2920 H 281.571 3.41881 5.05915 0
M  V30 2921 H 282.985 4.74611 3.21586 0
M  V30 2922 H 281.382 5.35432 2.70984 0
M  V30 2923 H 282.452 4.60812 1.5093 0
M  V30 2924 N 283.795 -0.628877 1.44509 0
M  V30 2925 C 285.043 -1.38565 1.4712 0
M  V30 2926 C 285.364 -1.94712 0.105899 0
M  V30 2927 O 284.634 -1.75912 -0.862079 0
M  V30 2928 H 283.214 -0.514333 0.541729 0
M  V30 2929 H 285.876 -0.740018 1.80305 0
M  V30 2930 H 284.972 -2.21583 2.19789 0
M  V30 2931 N 285.273 -1.31445 -0.869486 0
M  V30 2932 C 286.236 -1.19094 -1.9583 0
M  V30 2933 C 287.236 -0.117906 -1.60367 0
M  V30 2934 O 288.426 -0.367208 -1.70286 0
M  V30 2935 C 285.558 -0.828165 -3.30688 0
M  V30 2936 H 286.751 -2.15842 -2.08212 0
M  V30 2937 H 284.304 -1.15063 -1.05784 0
M  V30 2938 H 285.039 0.138142 -3.24006 0
M  V30 2939 H 284.824 -1.6038 -3.578 0
M  V30 2940 H 286.314 -0.765658 -4.10521 0
M  V30 2941 N 286.751 1.08385 -1.14413 0
M  V30 2942 C 287.999 1.80419 -0.910679 0
M  V30 2943 C 288.32 1.86658 0.564243 0
M  V30 2944 O 287.59 1.35985 1.41014 0
M  V30 2945 H 286.17 0.668204 -0.333934 0
M  V30 2946 H 288.832 1.31037 -1.44275 0
M  V30 2947 H 287.928 2.83238 -1.31082 0
M  V30 2948 N 288.23 0.939286 1.26551 0
M  V30 2949 C 289.177 0.446088 2.26448 0
M  V30 2950 C 290.147 -0.493234 1.58608 0
M  V30 2951 O 291.332 -0.409857 1.86346 0
M  V30 2952 C 288.472 -0.284375 3.43926 0
M  V30 2953 C 287.585 0.690399 4.26448 0
M  V30 2954 C 286.72 -0.0610712 5.31165 0
M  V30 2955 C 285.759 0.905649 6.05363 0
M  V30 2956 N 284.896 0.186055 7.01853 0
M  V30 2957 H 289.736 1.30291 2.68008 0
M  V30 2958 H 287.273 0.65371 1.31776 0
M  V30 2959 H 289.231 -0.724313 4.10864 0
M  V30 2960 H 287.861 -1.10535 3.03285 0
M  V30 2961 H 286.913 1.24885 3.59316 0
M  V30 2962 H 288.225 1.42873 4.779 0
M  V30 2963 H 287.379 -0.56038 6.04106 0
M  V30 2964 H 286.118 -0.832297 4.80546 0
M  V30 2965 H 285.123 1.4161 5.3125 0
M  V30 2966 H 286.348 1.67685 6.58072 0
M  V30 2967 H 284.294 -0.566714 6.53548 0
M  V30 2968 H 284.211 0.863752 7.51049 0
M  V30 2969 H 285.479 -0.292221 7.78952 0
M  V30 2970 N 289.708 -1.40897 0.706093 0
M  V30 2971 C 290.671 -2.29131 0.0562841 0
M  V30 2972 C 291.671 -1.44901 -0.697166 0
M  V30 2973 O 292.861 -1.65926 -0.530484 0
M  V30 2974 C 289.993 -3.27957 -0.93043 0
M  V30 2975 H 291.186 -2.88091 0.833284 0
M  V30 2976 H 288.739 -1.4906 0.470192 0
M  V30 2977 H 289.474 -2.73997 -1.73482 0
M  V30 2978 H 289.259 -3.90124 -0.393166 0
M  V30 2979 H 290.749 -3.94049 -1.38256 0
M  V30 2980 N 291.186 -0.45159 -1.50991 0
M  V30 2981 C 292.096 0.358431 -2.31846 0
M  V30 2982 C 293.112 1.01438 -1.41373 0
M  V30 2983 O 294.288 1.00663 -1.74439 0
M  V30 2984 C 291.353 1.43704 -3.15515 0
M  V30 2985 C 290.414 0.799742 -4.21785 0
M  V30 2986 C 289.647 1.82696 -5.01456 0
M  V30 2987 O 289.87 3.05105 -4.81941 0
M  V30 2988 O 288.804 1.40958 -5.85162 0
M  V30 2989 H 292.63 -0.302032 -3.02194 0
M  V30 2990 H 290.215 -0.213825 -1.47862 0
M  V30 2991 H 292.097 2.06227 -3.67489 0
M  V30 2992 H 290.772 2.08133 -2.47916 0
M  V30 2993 H 289.679 0.136084 -3.73852 0
M  V30 2994 H 291.012 0.198718 -4.91799 0
M  V30 2995 N 292.664 1.56529 -0.183458 0
M  V30 2996 C 293.913 1.96419 0.458511 0
M  V30 2997 C 294.226 1.0727 1.63562 0
M  V30 2998 O 295.432 1.36893 2.34462 0
M  V30 2999 C 293.888 3.49298 0.867122 0
M  V30 3000 C 293.496 4.47092 -0.285057 0
M  V30 3001 C 295.24 3.97983 1.47683 0
M  V30 3002 C 293.147 5.91225 0.143862 0
M  V30 3003 H 292.077 0.733394 0.175071 0
M  V30 3004 H 294.728 1.81448 -0.273624 0
M  V30 3005 H 293.11 3.59731 1.65559 0
M  V30 3006 H 294.284 4.48383 -1.0625 0
M  V30 3007 H 292.599 4.08535 -0.805503 0
M  V30 3008 H 295.196 5.03134 1.80999 0
M  V30 3009 H 295.539 3.41618 2.37914 0
M  V30 3010 H 296.072 3.90617 0.752562 0
M  V30 3011 H 292.811 6.5149 -0.723974 0
M  V30 3012 H 292.331 5.93214 0.886413 0
M  V30 3013 H 294.01 6.44362 0.583628 0
M  V30 3014 N 294.142 -0.090211 1.57342 0
M  V30 3015 C 295.388 -0.793982 1.86611 0
M  V30 3016 C 295.721 -1.78142 0.773252 0
M  V30 3017 O 294.996 -1.93271 -0.218304 0
M  V30 3018 C 295.279 -1.51839 3.26523 0
M  V30 3019 C 295.132 -0.548609 4.46442 0
M  V30 3020 C 296.451 -2.46779 3.64401 0
M  V30 3021 H 293.57 -0.287186 0.678744 0
M  V30 3022 H 296.212 -0.0575076 1.89913 0
M  V30 3023 H 294.362 -2.14617 3.23839 0
M  V30 3024 H 296.034 0.0725513 4.61243 0
M  V30 3025 H 294.277 0.137614 4.33582 0
M  V30 3026 H 294.948 -1.09271 5.41076 0
M  V30 3027 H 297.424 -1.94089 3.68061 0
M  V30 3028 H 296.3 -2.94479 4.63221 0
M  V30 3029 H 296.561 -3.30758 2.93346 0
M  V30 3030 N 295.62 -1.53406 -0.361157 0
M  V30 3031 C 296.53 -1.83122 -1.4664 0
M  V30 3032 C 297.546 -0.719943 -1.58407 0
M  V30 3033 O 298.722 -1.01046 -1.74218 0
M  V30 3034 C 295.787 -2.01891 -2.81853 0
M  V30 3035 C 294.848 -3.25784 -2.79577 0
M  V30 3036 C 294.081 -3.43648 -4.0834 0
M  V30 3037 O 294.304 -2.65714 -5.0473 0
M  V30 3038 O 293.238 -4.37018 -4.13883 0
M  V30 3039 H 297.064 -2.7703 -1.24451 0
M  V30 3040 H 294.649 -1.38841 -0.551678 0
M  V30 3041 H 296.531 -2.15782 -3.61962 0
M  V30 3042 H 295.206 -1.11173 -3.0401 0
M  V30 3043 H 294.113 -3.17312 -1.98151 0
M  V30 3044 H 295.446 -4.16439 -2.62373 0
M  V30 3045 N 297.098 0.621204 -1.44841 0
M  V30 3046 C 298.03 1.74615 -1.48466 0
M  V30 3047 C 299.043 1.58377 -0.37691 0
M  V30 3048 O 300.232 1.66508 -0.643215 0
M  V30 3049 C 297.332 3.12459 -1.31236 0
M  V30 3050 C 296.505 3.55064 -2.55438 0
M  V30 3051 C 295.564 4.71821 -2.32963 0
M  V30 3052 O 294.59 4.79628 -3.06505 0
M  V30 3053 N 295.792 5.64186 -1.36654 0
M  V30 3054 H 298.557 1.71973 -2.45449 0
M  V30 3055 H 296.118 0.806077 -1.40407 0
M  V30 3056 H 298.11 3.88302 -1.14032 0
M  V30 3057 H 296.68 3.09686 -0.4258 0
M  V30 3058 H 295.9 2.69324 -2.87851 0
M  V30 3059 H 297.188 3.80284 -3.38026 0
M  V30 3060 H 296.586 5.6058 -0.759344 0
M  V30 3061 H 295.143 6.39618 -1.25425 0
M  V30 3062 N 298.576 1.31904 0.862503 0
M  V30 3063 C 299.825 1.21373 1.61094 0
M  V30 3064 C 300.138 -0.22504 1.94301 0
M  V30 3065 O 301.344 -0.452121 2.67709 0
M  V30 3066 C 299.8 2.12525 2.9045 0
M  V30 3067 C 299.408 3.61441 2.64697 0
M  V30 3068 C 301.152 2.10813 3.68454 0
M  V30 3069 C 299.059 4.44578 3.90006 0
M  V30 3070 H 297.989 0.450705 0.604468 0
M  V30 3071 H 300.64 1.56811 0.953027 0
M  V30 3072 H 299.022 1.69994 3.57656 0
M  V30 3073 H 300.196 4.12264 2.05851 0
M  V30 3074 H 298.511 3.65205 2.00036 0
M  V30 3075 H 301.108 2.70167 4.61426 0
M  V30 3076 H 301.451 1.09713 4.01583 0
M  V30 3077 H 301.984 2.51583 3.08141 0
M  V30 3078 H 298.723 5.46461 3.62023 0
M  V30 3079 H 298.243 3.98508 4.48276 0
M  V30 3080 H 299.922 4.57176 4.5782 0
M  V30 3081 N 300.054 -1.07777 1.14986 0
M  V30 3082 C 301.004 -2.13082 0.811181 0
M  V30 3083 C 301.988 -1.59619 -0.202597 0
M  V30 3084 O 303.18 -1.77 -0.00398275 0
M  V30 3085 C 300.309 -3.42009 0.297439 0
M  V30 3086 C 299.395 -4.02337 1.34112 0
M  V30 3087 N 299.786 -4.36982 2.54716 0
M  V30 3088 C 298.084 -4.29752 1.19285 0
M  V30 3089 C 298.785 -4.84729 3.21578 0
M  V30 3090 N 297.761 -4.83233 2.48972 0
M  V30 3091 H 301.563 -2.37696 1.72853 0
M  V30 3092 H 299.077 -1.25173 1.03468 0
M  V30 3093 H 301.074 -4.16884 0.0364777 0
M  V30 3094 H 299.734 -3.18841 -0.614022 0
M  V30 3095 H 300.745 -4.27807 2.91894 0
M  V30 3096 H 297.422 -4.16106 0.340926 0
M  V30 3097 H 298.812 -5.20863 4.24442 0
M  V30 3098 N 301.532 -0.945985 -1.26051 0
M  V30 3099 C 302.76 -0.613025 -1.9761 0
M  V30 3100 C 303.175 0.813035 -1.70397 0
M  V30 3101 O 302.532 1.54274 -0.974979 0
M  V30 3102 C 302.583 -0.85159 -3.51326 0
M  V30 3103 O 302.304 -2.22157 -3.77595 0
M  V30 3104 C 303.805 -0.529831 -4.40122 0
M  V30 3105 H 301.025 -0.230593 -0.630133 0
M  V30 3106 H 303.569 -1.268 -1.60443 0
M  V30 3107 H 301.724 -0.243151 -3.86636 0
M  V30 3108 H 302.138 -2.2852 -4.721 0
M  V30 3109 H 303.612 -0.747348 -5.46917 0
M  V30 3110 H 304.089 0.535341 -4.35925 0
M  V30 3111 H 304.695 -1.11721 -4.10364 0
M  V30 3112 N 303.011 1.40521 -0.713556 0
M  V30 3113 C 304.239 2.05237 -0.261775 0
M  V30 3114 C 304.654 1.53755 1.09567 0
M  V30 3115 O 304.011 0.693268 1.6882 0
M  V30 3116 C 304.062 3.60763 -0.230706 0
M  V30 3117 O 303.783 4.10345 -1.53455 0
M  V30 3118 C 305.284 4.42651 0.239874 0
M  V30 3119 H 302.504 0.660533 -0.118057 0
M  V30 3120 H 305.048 1.79967 -0.971192 0
M  V30 3121 H 303.203 3.8501 0.429661 0
M  V30 3122 H 303.617 5.04526 -1.43366 0
M  V30 3123 H 305.091 5.51599 0.210468 0
M  V30 3124 H 305.568 4.20082 1.28171 0
M  V30 3125 H 306.174 4.23507 -0.390142 0
M  V30 3126 N 304.489 0.459591 1.5075 0
M  V30 3127 C 305.9 0.00171547 1.867 0
M  V30 3128 C 306.251 -1.39934 1.37525 0
M  V30 3129 O 305.376 -2.03523 0.735349 0
M  V30 3130 C 305.971 -0.00366298 3.388 0
M  V30 3131 C 304.53 -0.406026 3.74204 0
M  V30 3132 C 303.677 0.38673 2.7459 0
M  V30 3133 H 306.628 0.674413 1.43657 0
M  V30 3134 H 306.649 -0.808371 3.71814 0
M  V30 3135 H 306.161 1.01617 3.74561 0
M  V30 3136 H 304.262 -1.43063 3.4404 0
M  V30 3137 H 304.375 -0.115362 4.78961 0
M  V30 3138 H 302.739 -0.158019 2.54209 0
M  V30 3139 H 303.522 1.40585 3.13194 0
M  V30 3140 N 305.967 -1.56429 0.191757 0
M  V30 3141 C 306.93 -2.17707 -0.716688 0
M  V30 3142 C 307.93 -1.13061 -1.14341 0
M  V30 3143 O 309.12 -1.38464 -1.05704 0
M  V30 3144 C 306.252 -2.77644 -1.97804 0
M  V30 3145 H 307.445 -2.99342 -0.1829 0
M  V30 3146 H 304.998 -1.56193 -0.0578566 0
M  V30 3147 H 305.733 -1.99799 -2.55443 0
M  V30 3148 H 305.518 -3.54246 -1.68083 0
M  V30 3149 H 307.008 -3.24708 -2.62592 0
M  V30 3150 N 307.445 0.0818655 -1.57387 0
M  V30 3151 C 308.355 1.11642 -2.06333 0
M  V30 3152 C 309.371 1.43033 -0.99083 0
M  V30 3153 O 310.547 1.53411 -1.30488 0
M  V30 3154 C 307.612 2.41342 -2.48907 0
M  V30 3155 C 306.673 2.17014 -3.7041 0
M  V30 3156 C 305.906 3.4053 -4.10944 0
M  V30 3157 O 306.129 4.4927 -3.51444 0
M  V30 3158 O 305.063 3.29336 -5.03807 0
M  V30 3159 H 308.889 0.730657 -2.9478 0
M  V30 3160 H 306.474 0.295301 -1.46452 0
M  V30 3161 H 308.356 3.17691 -2.76858 0
M  V30 3162 H 307.031 2.79319 -1.63593 0
M  V30 3163 H 305.938 1.38403 -3.47556 0
M  V30 3164 H 307.271 1.83923 -4.56545 0
M  V30 3165 N 308.923 1.53595 0.353017 0
M  V30 3166 C 309.855 1.77219 1.45348 0
M  V30 3167 C 310.868 0.65324 1.49119 0
M  V30 3168 O 312.057 0.929775 1.52373 0
M  V30 3169 C 309.157 1.84841 2.84055 0
M  V30 3170 C 308.33 3.14649 3.03833 0
M  V30 3171 C 307.389 3.13351 4.22727 0
M  V30 3172 O 306.415 3.87107 4.17297 0
M  V30 3173 N 307.617 2.35052 5.30783 0
M  V30 3174 H 310.382 2.72178 1.25457 0
M  V30 3175 H 307.943 1.52528 0.542833 0
M  V30 3176 H 309.935 1.81435 3.61751 0
M  V30 3177 H 308.505 0.971114 2.97133 0
M  V30 3178 H 307.725 3.31256 2.13689 0
M  V30 3179 H 309.013 4.00411 3.13925 0
M  V30 3180 H 308.411 1.74663 5.38061 0
M  V30 3181 H 306.968 2.37453 6.07009 0
M  V30 3182 N 310.401 -0.613514 1.45168 0
M  V30 3183 C 311.331 -1.7354 1.56225 0
M  V30 3184 C 312.312 -1.64981 0.41414 0
M  V30 3185 O 313.497 -1.83472 0.636526 0
M  V30 3186 C 310.627 -3.12128 1.52295 0
M  V30 3187 C 309.581 -3.35491 2.65762 0
M  V30 3188 C 308.907 -4.74291 2.46885 0
M  V30 3189 C 310.207 -3.26325 4.0781 0
M  V30 3190 H 311.901 -1.64543 2.50132 0
M  V30 3191 H 309.447 -0.790185 1.20383 0
M  V30 3192 H 311.4 -3.90404 1.58628 0
M  V30 3193 H 310.124 -3.2195 0.549139 0
M  V30 3194 H 308.783 -2.59603 2.58847 0
M  V30 3195 H 308.431 -4.80839 1.47657 0
M  V30 3196 H 308.131 -4.9088 3.22972 0
M  V30 3197 H 309.655 -5.54775 2.55063 0
M  V30 3198 H 311.069 -3.94483 4.16 0
M  V30 3199 H 309.466 -3.54445 4.8424 0
M  V30 3200 H 310.536 -2.23855 4.30136 0
M  V30 3201 N 311.879 -1.3236 -0.855495 0
M  V30 3202 C 313.29 -1.2056 -1.42556 0
M  V30 3203 C 313.641 0.182209 -1.95352 0
M  V30 3204 O 312.766 1.08088 -1.87472 0
M  V30 3205 C 313.361 -2.1826 -2.59129 0
M  V30 3206 C 311.92 -2.10351 -3.12137 0
M  V30 3207 C 311.067 -2.06674 -1.84882 0
M  V30 3208 H 314.018 -1.442 -0.662727 0
M  V30 3209 H 314.039 -1.78064 -3.36264 0
M  V30 3210 H 313.551 -3.19257 -2.20673 0
M  V30 3211 H 311.652 -1.12599 -3.55179 0
M  V30 3212 H 311.765 -3.00135 -3.73438 0
M  V30 3213 H 310.129 -1.51901 -2.04446 0
M  V30 3214 H 310.912 -3.09451 -1.48643 0
M  V30 3215 N 313.357 1.07166 -1.15556 0
M  V30 3216 C 314.587 1.83248 -0.954133 0
M  V30 3217 C 314.995 1.82449 0.500911 0
M  V30 3218 O 314.338 1.23575 1.35923 0
M  V30 3219 C 314.4 3.31393 -1.39351 0
M  V30 3220 C 314.064 3.5591 -2.86666 0
M  V30 3221 C 315.061 3.49695 -3.8472 0
M  V30 3222 C 312.746 3.83515 -3.24379 0
M  V30 3223 C 314.74 3.70737 -5.18491 0
M  V30 3224 C 312.427 4.04209 -4.58321 0
M  V30 3225 C 313.425 3.97815 -5.55186 0
M  V30 3226 O 313.113 4.17954 -6.86709 0
M  V30 3227 H 312.845 0.584941 -0.338851 0
M  V30 3228 H 315.399 1.36169 -1.53777 0
M  V30 3229 H 313.629 3.79292 -0.75329 0
M  V30 3230 H 315.318 3.88945 -1.16089 0
M  V30 3231 H 316.084 3.28368 -3.56931 0
M  V30 3232 H 311.963 3.87605 -2.49567 0
M  V30 3233 H 315.507 3.65663 -5.94085 0
M  V30 3234 H 311.404 4.25023 -4.85825 0
M  V30 3235 H 312.172 4.35291 -6.93155 0
M  V30 3236 N 314.835 0.952656 1.25548 0
M  V30 3237 C 316.246 0.647392 1.75116 0
M  V30 3238 C 316.597 -0.837274 1.77438 0
M  V30 3239 O 315.722 -1.65525 1.39393 0
M  V30 3240 C 316.317 1.16845 3.18014 0
M  V30 3241 C 314.876 0.913382 3.6515 0
M  V30 3242 C 314.023 1.31265 2.44264 0
M  V30 3243 H 316.974 1.12968 1.11462 0
M  V30 3244 H 316.995 0.527606 3.76824 0
M  V30 3245 H 316.507 2.24902 3.16292 0
M  V30 3246 H 314.608 -0.152316 3.72289 0
M  V30 3247 H 314.721 1.54845 4.53387 0
M  V30 3248 H 313.085 0.731028 2.43984 0
M  V30 3249 H 313.868 2.40239 2.45234 0
M  V30 3250 N 316.313 -1.40141 0.720998 0
M  V30 3251 C 317.276 -2.29058 0.0805834 0
M  V30 3252 C 318.276 -1.45632 -0.681758 0
M  V30 3253 O 319.466 -1.6648 -0.512856 0
M  V30 3254 C 316.598 -3.28925 -0.895593 0
M  V30 3255 H 317.791 -2.87191 0.863793 0
M  V30 3256 H 315.344 -1.48553 0.485975 0
M  V30 3257 H 316.079 -2.75822 -1.70566 0
M  V30 3258 H 315.864 -3.90519 -0.351766 0
M  V30 3259 H 317.354 -3.95494 -1.34069 0
M  V30 3260 N 317.792 -0.46758 -1.50504 0
M  V30 3261 C 318.755 0.317059 -2.26996 0
M  V30 3262 C 319.755 0.923513 -1.31635 0
M  V30 3263 O 320.945 0.793239 -1.55091 0
M  V30 3264 C 318.077 1.45134 -3.08462 0
M  V30 3265 H 319.27 -0.353723 -2.97807 0
M  V30 3266 H 316.823 -0.221545 -1.54722 0
M  V30 3267 H 317.558 2.15728 -2.4214 0
M  V30 3268 H 317.343 1.02232 -3.78538 0
M  V30 3269 H 318.833 2.00493 -3.66323 0
M  V30 3270 N 319.27 1.56325 -0.20005 0
M  V30 3271 C 320.217 2.1932 0.718833 0
M  V30 3272 C 321.187 1.14198 1.20615 0
M  V30 3273 O 322.372 1.42469 1.26914 0
M  V30 3274 C 319.512 2.86041 1.93066 0
M  V30 3275 C 318.625 4.05702 1.48425 0
M  V30 3276 C 317.76 4.60266 2.65196 0
M  V30 3277 C 316.799 5.72273 2.17185 0
M  V30 3278 N 315.936 6.21221 3.27152 0
M  V30 3279 H 320.776 2.97486 0.17489 0
M  V30 3280 H 318.313 1.46911 0.0745794 0
M  V30 3281 H 320.271 3.22897 2.64184 0
M  V30 3282 H 318.901 2.1043 2.44783 0
M  V30 3283 H 317.953 3.74475 0.668755 0
M  V30 3284 H 319.265 4.86699 1.09204 0
M  V30 3285 H 318.419 4.99453 3.4443 0
M  V30 3286 H 317.158 3.78386 3.07693 0
M  V30 3287 H 316.163 5.3261 1.36407 0
M  V30 3288 H 317.388 6.55974 1.75713 0
M  V30 3289 H 315.334 5.42263 3.69171 0
M  V30 3290 H 315.251 6.97284 2.92116 0
M  V30 3291 H 316.519 6.65063 4.06585 0
M  V30 3292 N 320.748 -0.0735177 1.57428 0
M  V30 3293 C 321.997 -0.771809 1.86349 0
M  V30 3294 C 322.31 -1.78828 0.792452 0
M  V30 3295 O 323.516 -2.53602 0.96945 0
M  V30 3296 C 321.972 -1.42358 3.30548 0
M  V30 3297 C 321.58 -0.445761 4.45777 0
M  V30 3298 C 323.324 -2.10434 3.6867 0
M  V30 3299 C 321.231 -1.10335 5.81016 0
M  V30 3300 H 320.161 -0.291999 0.695164 0
M  V30 3301 H 322.812 -0.0250749 1.83483 0
M  V30 3302 H 321.194 -2.21852 3.28021 0
M  V30 3303 H 322.368 0.319239 4.59693 0
M  V30 3304 H 320.683 0.130457 4.16196 0
M  V30 3305 H 323.28 -2.60405 4.67004 0
M  V30 3306 H 323.623 -2.90298 2.98383 0
M  V30 3307 H 324.156 -1.37773 3.7318 0
M  V30 3308 H 320.895 -0.345061 6.54591 0
M  V30 3309 H 320.415 -1.83925 5.70904 0
M  V30 3310 H 322.094 -1.62367 6.26295 0
M  V30 3311 N 322.226 -1.5378 -0.344866 0
M  V30 3312 C 323.176 -1.78057 -1.42407 0
M  V30 3313 C 324.16 -0.635732 -1.47808 0
M  V30 3314 O 325.352 -0.89508 -1.527 0
M  V30 3315 C 322.481 -1.99242 -2.79566 0
M  V30 3316 C 321.567 -3.19787 -2.78562 0
M  V30 3317 N 321.958 -4.41284 -2.47189 0
M  V30 3318 C 320.256 -3.2093 -3.0971 0
M  V30 3319 C 320.957 -5.23128 -2.54385 0
M  V30 3320 N 319.933 -4.59813 -2.89953 0
M  V30 3321 H 323.735 -2.69588 -1.17046 0
M  V30 3322 H 321.249 -1.52687 -0.553217 0
M  V30 3323 H 323.246 -2.14768 -3.57324 0
M  V30 3324 H 321.906 -1.08953 -3.05875 0
M  V30 3325 H 322.917 -4.68657 -2.20411 0
M  V30 3326 H 319.594 -2.40603 -3.41199 0
M  V30 3327 H 320.984 -6.30096 -2.333 0
M  V30 3328 N 323.704 0.605807 -1.45491 0
M  V30 3329 C 324.929 1.39625 -1.53361 0
M  V30 3330 C 325.354 1.87351 -0.167645 0
M  V30 3331 O 324.712 1.60243 0.848051 0
M  V30 3332 C 324.76 2.57559 -2.5238 0
M  V30 3333 O 323.864 3.58248 -2.04285 0
M  V30 3334 H 323.205 0.416771 -0.516912 0
M  V30 3335 H 325.735 0.737103 -1.90861 0
M  V30 3336 H 325.745 3.0478 -2.71244 0
M  V30 3337 H 324.42 2.22171 -3.51586 0
M  V30 3338 H 322.997 3.17664 -1.95305 0
M  V30 3339 N 325.182 1.32811 0.848464 0
M  V30 3340 C 326.41 1.26739 1.63538 0
M  V30 3341 C 326.825 -0.163484 1.88091 0
M  V30 3342 O 326.182 -1.10258 1.45429 0
M  V30 3343 C 326.233 2.03013 2.99112 0
M  V30 3344 O 325.954 3.40518 2.75643 0
M  V30 3345 C 327.455 2.04038 3.93552 0
M  V30 3346 H 324.675 0.437024 0.509167 0
M  V30 3347 H 327.219 1.75033 1.05753 0
M  V30 3348 H 325.374 1.58426 3.53525 0
M  V30 3349 H 325.788 3.79635 3.61908 0
M  V30 3350 H 327.262 2.61877 4.85926 0
M  V30 3351 H 327.739 1.0282 4.26995 0
M  V30 3352 H 328.345 2.486 3.45077 0
M  V30 3353 N 326.66 -1.06551 1.16123 0
M  V30 3354 C 327.885 -1.83544 0.965735 0
M  V30 3355 C 328.31 -1.81843 -0.481102 0
M  V30 3356 O 327.668 -1.21732 -1.34354 0
M  V30 3357 C 327.716 -3.28169 1.49457 0
M  V30 3358 O 326.82 -4.0643 0.699157 0
M  V30 3359 H 326.161 -0.568026 0.343864 0
M  V30 3360 H 328.691 -1.34362 1.54299 0
M  V30 3361 H 328.701 -3.78992 1.51092 0
M  V30 3362 H 327.376 -3.28722 2.54784 0
M  V30 3363 H 325.953 -3.65216 0.7531 0
M  V30 3364 N 328.138 -0.959301 -1.25041 0
M  V30 3365 C 329.386 -0.615393 -1.92503 0
M  V30 3366 C 329.707 0.850969 -1.75452 0
M  V30 3367 O 328.977 1.60658 -1.12098 0
M  V30 3368 H 327.557 -0.224613 -0.712431 0
M  V30 3369 H 330.219 -1.21855 -1.5211 0
M  V30 3370 H 329.315 -0.848738 -3.00338 0
M  V30 3371 N 329.616 1.39756 -0.72842 0
M  V30 3372 C 330.862 2.00942 -0.273892 0
M  V30 3373 C 331.195 1.57656 1.13394 0
M  V30 3374 O 330.47 0.802434 1.77176 0
M  V30 3375 C 330.753 3.58211 -0.368346 0
M  V30 3376 C 330.606 4.11534 -1.81548 0
M  V30 3377 C 331.925 4.39372 0.253054 0
M  V30 3378 H 329.044 0.730047 -0.100996 0
M  V30 3379 H 331.686 1.66056 -0.923337 0
M  V30 3380 H 329.836 3.88061 0.184588 0
M  V30 3381 H 331.508 3.92431 -2.42478 0
M  V30 3382 H 329.751 3.65341 -2.33898 0
M  V30 3383 H 330.422 5.20682 -1.83288 0
M  V30 3384 H 332.898 4.15527 -0.218224 0
M  V30 3385 H 331.774 5.48677 0.156585 0
M  V30 3386 H 332.035 4.21358 1.33826 0
M  V30 3387 N 331.094 0.475555 1.50254 0
M  V30 3388 C 332.322 -0.0754493 2.06762 0
M  V30 3389 C 332.737 -1.33111 1.33891 0
M  V30 3390 O 332.094 -1.77846 0.40952 0
M  V30 3391 C 332.145 -0.359008 3.59713 0
M  V30 3392 O 331.866 0.846851 4.29837 0
M  V30 3393 C 333.367 -0.956484 4.32858 0
M  V30 3394 H 330.587 0.00907525 0.670939 0
M  V30 3395 H 333.131 0.665618 1.93364 0
M  V30 3396 H 331.286 -1.05001 3.72899 0
M  V30 3397 H 331.7 0.594162 5.21124 0
M  V30 3398 H 333.174 -1.10463 5.40834 0
M  V30 3399 H 333.651 -1.94775 3.93649 0
M  V30 3400 H 334.257 -0.303723 4.24214 0
M  V30 3401 N 332.573 -1.56217 0.208337 0
M  V30 3402 C 333.483 -2.23316 -0.718836 0
M  V30 3403 C 334.499 -1.23648 -1.22422 0
M  V30 3404 O 335.675 -1.56423 -1.26861 0
M  V30 3405 C 332.74 -2.88968 -1.91568 0
M  V30 3406 C 331.801 -4.03943 -1.45357 0
M  V30 3407 C 331.034 -4.66455 -2.59337 0
M  V30 3408 O 331.257 -4.27919 -3.77149 0
M  V30 3409 O 330.191 -5.55686 -2.31293 0
M  V30 3410 H 334.017 -3.03182 -0.177315 0
M  V30 3411 H 331.602 -1.49384 -0.0215402 0
M  V30 3412 H 333.484 -3.30455 -2.61491 0
M  V30 3413 H 332.159 -2.12071 -2.44556 0
M  V30 3414 H 331.066 -3.67052 -0.722746 0
M  V30 3415 H 332.399 -4.82543 -0.970219 0
M  V30 3416 N 334.051 0.0651679 -1.57465 0
M  V30 3417 C 335.297 0.758912 -1.88712 0
M  V30 3418 C 335.652 1.7485 -0.802819 0
M  V30 3419 O 334.945 1.90632 0.192359 0
M  V30 3420 C 335.139 1.50081 -3.24362 0
M  V30 3421 C 334.968 0.584579 -4.45884 0
M  V30 3422 C 333.738 0.219039 -5.04825 0
M  V30 3423 C 335.936 -0.121559 -5.14156 0
M  V30 3424 N 333.918 -0.702222 -6.09871 0
M  V30 3425 C 335.289 -0.899767 -6.13436 0
M  V30 3426 C 337.344 -0.192331 -4.97528 0
M  V30 3427 C 336.047 -1.74218 -6.97883 0
M  V30 3428 C 338.073 -1.02174 -5.82507 0
M  V30 3429 C 337.435 -1.78798 -6.8133 0
M  V30 3430 H 333.534 0.25293 -0.739967 0
M  V30 3431 H 336.118 0.0201744 -1.9469 0
M  V30 3432 H 334.289 2.21023 -3.1938 0
M  V30 3433 H 336.021 2.14409 -3.43236 0
M  V30 3434 H 332.776 0.57336 -4.70117 0
M  V30 3435 H 333.2 -1.15629 -6.67052 0
M  V30 3436 H 337.842 0.385741 -4.21037 0
M  V30 3437 H 335.56 -2.3312 -7.73745 0
M  V30 3438 H 339.146 -1.07957 -5.71696 0
M  V30 3439 H 338.026 -2.41942 -7.45945 0
M  V30 3440 N 335.529 1.53961 0.336706 0
M  V30 3441 C 336.759 1.75229 1.09446 0
M  V30 3442 C 337.167 0.494602 1.82621 0
M  V30 3443 O 336.51 -0.543764 1.75468 0
M  V30 3444 C 336.572 2.88288 2.1478 0
M  V30 3445 C 336.236 4.27656 1.6112 0
M  V30 3446 C 337.233 5.08981 1.0599 0
M  V30 3447 C 334.918 4.74161 1.6576 0
M  V30 3448 C 336.912 6.34916 0.562129 0
M  V30 3449 C 334.599 6.00067 1.15595 0
M  V30 3450 C 335.597 6.80278 0.609147 0
M  V30 3451 O 335.285 8.03818 0.114999 0
M  V30 3452 H 335.017 0.588881 0.331956 0
M  V30 3453 H 337.571 2.01614 0.392566 0
M  V30 3454 H 335.801 2.57443 2.88548 0
M  V30 3455 H 337.49 2.97461 2.76174 0
M  V30 3456 H 338.256 4.74213 1.01722 0
M  V30 3457 H 334.135 4.11781 2.07261 0
M  V30 3458 H 337.679 6.9747 0.134668 0
M  V30 3459 H 333.576 6.3433 1.19566 0
M  V30 3460 H 334.344 8.18172 0.231651 0
M  V30 3461 N 337.007 -0.598083 1.45811 0
M  V30 3462 C 337.937 -1.71873 1.58057 0
M  V30 3463 C 338.918 -1.64533 0.431615 0
M  V30 3464 O 340.103 -1.82787 0.65595 0
M  V30 3465 C 337.233 -3.10495 1.55597 0
M  V30 3466 C 336.187 -3.32654 2.69305 0
M  V30 3467 C 335.513 -4.71646 2.51902 0
M  V30 3468 C 336.813 -3.21981 4.11248 0
M  V30 3469 H 338.507 -1.61881 2.51863 0
M  V30 3470 H 336.053 -0.777372 1.21214 0
M  V30 3471 H 338.006 -3.88699 1.6276 0
M  V30 3472 H 336.73 -3.2135 0.583255 0
M  V30 3473 H 335.389 -2.56843 2.61586 0
M  V30 3474 H 335.037 -4.79246 1.52748 0
M  V30 3475 H 334.737 -4.87426 3.2816 0
M  V30 3476 H 336.261 -5.52038 2.60933 0
M  V30 3477 H 337.675 -3.90049 4.20161 0
M  V30 3478 H 336.072 -3.49289 4.87972 0
M  V30 3479 H 337.142 -2.1928 4.32486 0
M  V30 3480 N 338.485 -1.33259 -0.841409 0
M  V30 3481 C 339.762 -1.15174 -1.58096 0
M  V30 3482 C 340.142 0.282858 -2.09196 0
M  V30 3483 O 339.49 1.28151 -1.89181 0
M  V30 3484 C 339.7 -2.1907 -2.71679 0
M  V30 3485 C 341.048 -2.53093 -3.40924 0
M  V30 3486 O 342.072 -2.17717 -2.81918 0
M  V30 3487 O 340.931 -3.1379 -4.47435 0
M  V30 3488 H 338.025 -0.445303 -0.696875 0
M  V30 3489 H 340.571 -1.44833 -0.884385 0
M  V30 3490 H 339.343 -3.15443 -2.31541 0
M  V30 3491 H 338.966 -1.90481 -3.49002 0
M  V30 3492 N 339.963 1.05934 -1.16686 0
M  V30 3493 C 341.188 1.83029 -0.975455 0
M  V30 3494 C 341.613 1.82096 0.471452 0
M  V30 3495 O 340.971 1.22443 1.33706 0
M  V30 3496 C 341.019 3.27372 -1.51195 0
M  V30 3497 O 340.123 4.06054 -0.720701 0
M  V30 3498 H 339.464 0.566194 -0.346872 0
M  V30 3499 H 341.994 1.33541 -1.55009 0
M  V30 3500 H 342.004 3.78186 -1.53099 0
M  V30 3501 H 340.679 3.27366 -2.56523 0
M  V30 3502 H 339.256 3.64812 -0.772458 0
M  V30 3503 N 341.441 0.965919 1.2453 0
M  V30 3504 C 342.718 0.543777 1.87889 0
M  V30 3505 C 343.098 -0.97909 1.87021 0
M  V30 3506 O 342.446 -1.84969 1.3416 0
M  V30 3507 C 342.656 1.13327 3.30088 0
M  V30 3508 C 344.004 1.21707 4.06783 0
M  V30 3509 O 345.028 1.08566 3.39252 0
M  V30 3510 O 343.887 1.42456 5.27606 0
M  V30 3511 H 340.981 0.181054 0.806938 0
M  V30 3512 H 343.527 1.06007 1.32516 0
M  V30 3513 H 342.299 2.17612 3.25209 0
M  V30 3514 H 341.922 0.600911 3.93033 0
M  V30 3515 N 342.919 -1.39368 0.735821 0
M  V30 3516 C 343.882 -2.2896 0.104874 0
M  V30 3517 C 344.882 -1.46347 -0.666274 0
M  V30 3518 O 346.072 -1.67014 -0.49517 0
M  V30 3519 C 343.204 -3.29857 -0.860656 0
M  V30 3520 H 344.397 -2.86259 0.894205 0
M  V30 3521 H 341.95 -1.48029 0.501704 0
M  V30 3522 H 342.685 -2.77615 -1.67631 0
M  V30 3523 H 342.47 -3.9087 -0.310327 0
M  V30 3524 H 343.96 -3.96893 -1.29867 0
M  V30 3525 N 344.397 -0.483516 -1.5 0
M  V30 3526 C 345.36 0.292965 -2.2732 0
M  V30 3527 C 346.36 0.909499 -1.32608 0
M  V30 3528 O 347.55 0.776745 -1.55924 0
M  V30 3529 C 344.682 1.41854 -3.09984 0
M  V30 3530 H 345.875 -0.385289 -2.97415 0
M  V30 3531 H 343.428 -0.237942 -1.54478 0
M  V30 3532 H 344.163 2.13148 -2.44414 0
M  V30 3533 H 343.948 0.982114 -3.79601 0
M  V30 3534 H 345.438 1.96597 -3.68429 0
M  V30 3535 N 345.875 1.56104 -0.216619 0
M  V30 3536 C 346.838 2.18819 0.681962 0
M  V30 3537 C 347.838 1.14866 1.12528 0
M  V30 3538 O 349.028 1.40128 1.03488 0
M  V30 3539 C 346.16 2.80756 1.93362 0
M  V30 3540 H 347.353 2.99595 0.135254 0
M  V30 3541 H 344.906 1.56265 0.0330003 0
M  V30 3542 H 345.641 2.03837 2.52232 0
M  V30 3543 H 345.426 3.56876 1.62426 0
M  V30 3544 H 346.916 3.28844 2.57393 0
M  V30 3545 N 347.353 -0.0568162 1.57498 0
M  V30 3546 C 348.3 -1.06591 2.04712 0
M  V30 3547 C 349.27 -1.3758 0.930644 0
M  V30 3548 O 350.455 -1.48392 1.19935 0
M  V30 3549 C 347.595 -2.3701 2.50839 0
M  V30 3550 C 346.708 -2.12421 3.76167 0
M  V30 3551 C 345.843 -3.36511 4.11015 0
M  V30 3552 C 344.882 -3.07353 5.2934 0
M  V30 3553 N 344.019 -4.23816 5.59754 0
M  V30 3554 H 348.859 -0.65631 2.90683 0
M  V30 3555 H 346.396 -0.312481 1.43743 0
M  V30 3556 H 348.354 -3.13175 2.7564 0
M  V30 3557 H 346.984 -2.75744 1.67825 0
M  V30 3558 H 346.036 -1.2688 3.58616 0
M  V30 3559 H 347.348 -1.86894 4.62463 0
M  V30 3560 H 346.502 -4.21062 4.36797 0
M  V30 3561 H 345.241 -3.65128 3.23315 0
M  V30 3562 H 344.246 -2.212 5.03339 0
M  V30 3563 H 345.471 -2.80043 6.1867 0
M  V30 3564 H 343.417 -4.52436 4.75014 0
M  V30 3565 H 343.334 -4.01614 6.40501 0
M  V30 3566 H 344.602 -5.0932 5.90096 0
M  V30 3567 N 348.832 -1.54138 -0.328536 0
M  V30 3568 C 350.081 -1.71318 -1.06456 0
M  V30 3569 C 350.394 -0.491109 -1.89334 0
M  V30 3570 O 351.6 -0.54416 -2.65991 0
M  V30 3571 C 350.056 -3.03 -1.94214 0
M  V30 3572 C 349.664 -4.32595 -1.16471 0
M  V30 3573 C 351.408 -3.29544 -2.67583 0
M  V30 3574 C 349.315 -5.55341 -2.03347 0
M  V30 3575 H 348.245 -0.638429 -0.401155 0
M  V30 3576 H 350.896 -1.80633 -0.323106 0
M  V30 3577 H 349.278 -2.87579 -2.72239 0
M  V30 3578 H 350.452 -4.58766 -0.432525 0
M  V30 3579 H 348.767 -4.12777 -0.548063 0
M  V30 3580 H 351.364 -4.18444 -3.3288 0
M  V30 3581 H 351.707 -2.47206 -3.34955 0
M  V30 3582 H 352.24 -3.45809 -1.96623 0
M  V30 3583 H 348.979 -6.40268 -1.40491 0
M  V30 3584 H 348.499 -5.33397 -2.74313 0
M  V30 3585 H 350.178 -5.91557 -2.62049 0
M  V30 3586 N 350.31 0.590341 -1.46126 0
M  V30 3587 C 351.273 1.68194 -1.55703 0
M  V30 3588 C 352.273 1.54808 -0.434868 0
M  V30 3589 O 353.463 1.59564 -0.698928 0
M  V30 3590 C 350.595 3.07575 -1.47005 0
M  V30 3591 H 351.788 1.61064 -2.52979 0
M  V30 3592 H 349.341 0.807541 -1.33823 0
M  V30 3593 H 350.076 3.20268 -0.509785 0
M  V30 3594 H 349.861 3.187 -2.28414 0
M  V30 3595 H 351.351 3.87055 -1.56776 0
M  V30 3596 O 351.827 1.43831 0.734505 0
M  V30 3597 H 352.518 1.35486 1.38431 0
M  V30 END ATOM
M  V30 BEGIN BOND
M  V30 END BOND
M  V30 END CTAB
M  END
$$$$
