drugbank_target|Q9KM65 CAI-1 autoinducer synthase (DB08364)
 OpenBabel12092120503D

  0  0  0     0  0            999 V3000
M  V30 BEGIN CTAB
M  V30 COUNTS 6095 6157 0 0 0
M  V30 BEGIN ATOM
M  V30 1 H -0.908 1.98254 -0.117106 0
M  V30 2 N 0 1.576 0 0
M  V30 3 C 0.933 2.03868 1.02534 0
M  V30 4 C 1.911 0.928543 1.3348 0
M  V30 5 O 3.095 1.19667 1.45644 0
M  V30 6 C 0.222 2.43627 2.35294 0
M  V30 7 C -0.732 3.65373 2.2001 0
M  V30 8 S 0.101 5.13292 1.52614 0
M  V30 9 C 1.257 5.56322 2.86805 0
M  V30 10 H 1.49 2.90518 0.631377 0
M  V30 11 H -0.977 1.52953 0.210867 0
M  V30 12 H 0.981 2.67203 3.11629 0
M  V30 13 H -0.358 1.57376 2.7183 0
M  V30 14 H -1.165 3.90944 3.18086 0
M  V30 15 H -1.563 3.418 1.51819 0
M  V30 16 H 0.729 5.58782 3.83104 0
M  V30 17 H 1.672 6.56266 2.65933 0
M  V30 18 H 2.08 4.83886 2.90714 0
M  V30 19 N 1.4781 -0.272755 1.55222 0
M  V30 20 C 2.4261 -1.35705 1.88909 0
M  V30 21 C 3.4201 -1.5112 0.765456 0
M  V30 22 O 4.6261 -1.52901 0.949802 0
M  V30 23 H 1.0011 -0.453868 0.59959 0
M  V30 24 H 2.9721 -1.04544 2.79487 0
M  V30 25 C 1.7211 -2.71049 2.17779 0
M  V30 26 H 1.0441 -2.59979 3.03728 0
M  V30 27 H 2.4841 -3.45858 2.45272 0
M  V30 28 C 0.9431 -3.22165 0.985473 0
M  V30 29 O 1.4731 -4.01096 0.220233 0
M  V30 30 N -0.3209 -2.7985 0.783108 0
M  V30 31 H -0.7739 -2.15775 1.40708 0
M  V30 32 H -0.8159 -3.14397 -0.0130392 0
M  V30 33 N 2.9562 -1.48159 -0.537278 0
M  V30 34 C 3.9032 -1.62138 -1.64256 0
M  V30 35 C 4.8732 -0.463668 -1.59497 0
M  V30 36 O 6.0582 -0.686241 -1.78032 0
M  V30 37 C 3.1982 -1.66028 -3.02537 0
M  V30 38 C 2.3112 -2.92855 -3.17585 0
M  V30 39 C 1.4462 -2.87952 -4.46382 0
M  V30 40 C 0.4852 -4.09516 -4.54932 0
M  V30 41 N -0.3778 -4.02733 -5.75109 0
M  V30 42 H 4.4622 -2.56529 -1.51647 0
M  V30 43 H 1.9992 -1.27224 -0.738414 0
M  V30 44 H 3.9572 -1.66265 -3.82638 0
M  V30 45 H 2.5872 -0.751331 -3.13934 0
M  V30 46 H 1.6392 -3.02395 -2.30784 0
M  V30 47 H 2.9512 -3.82822 -3.19764 0
M  V30 48 H 2.1052 -2.8655 -5.34765 0
M  V30 49 H 0.8442 -1.95702 -4.46712 0
M  V30 50 H -0.1508 -4.11201 -3.64957 0
M  V30 51 H 1.0742 -5.02917 -4.56346 0
M  V30 52 H -0.9798 -3.13299 -5.76351 0
M  V30 53 H -1.0628 -4.86397 -5.78752 0
M  V30 54 H 0.2052 -4.05379 -6.65799 0
M  V30 55 N 4.4343 0.785586 -1.36625 0
M  V30 56 C 5.8453 1.36101 -1.27803 0
M  V30 57 C 6.1963 1.96035 0.0804875 0
M  V30 58 O 5.3213 1.92834 0.982042 0
M  V30 59 C 5.9163 2.47442 -2.31426 0
M  V30 60 C 4.4753 3.00789 -2.26281 0
M  V30 61 C 3.6223 1.73896 -2.15999 0
M  V30 62 H 6.5733 0.586928 -1.47448 0
M  V30 63 H 6.5943 3.2656 -1.95291 0
M  V30 64 H 6.1063 2.03791 -3.30289 0
M  V30 65 H 4.2073 3.48851 -1.30896 0
M  V30 66 H 4.3203 3.57343 -3.19128 0
M  V30 67 H 2.6843 1.9628 -1.62316 0
M  V30 68 H 3.4673 1.32368 -3.16755 0
M  V30 69 N 5.9124 1.20967 1.01018 0
M  V30 70 C 6.8444 0.922059 2.09835 0
M  V30 71 C 7.8574 -0.0927106 1.62536 0
M  V30 72 O 9.0464 0.139127 1.77957 0
M  V30 73 C 6.1464 0.362004 3.36961 0
M  V30 74 C 5.3194 1.42986 4.13369 0
M  V30 75 C 4.3784 0.879976 5.1879 0
M  V30 76 O 3.4044 1.56219 5.47343 0
M  V30 77 N 4.6064 -0.307396 5.79686 0
M  V30 78 H 7.3714 1.8588 2.35093 0
M  V30 79 H 4.9324 1.11422 1.1746 0
M  V30 80 H 6.9244 -0.0201474 4.04695 0
M  V30 81 H 5.4944 -0.479437 3.08902 0
M  V30 82 H 4.7144 1.98608 3.40512 0
M  V30 83 H 6.0024 2.14885 4.61196 0
M  V30 84 H 5.4004 -0.878796 5.58832 0
M  V30 85 H 3.9574 -0.631115 6.48737 0
M  V30 86 N 7.3905 -1.2043 1.01659 0
M  V30 87 C 8.3205 -2.25466 0.607226 0
M  V30 88 C 9.3015 -1.65853 -0.377716 0
M  V30 89 O 10.4865 -1.92409 -0.263149 0
M  V30 90 C 7.6165 -3.47256 -0.0552949 0
M  V30 91 C 6.5705 -4.19462 0.850632 0
M  V30 92 C 5.8965 -5.34673 0.0538859 0
M  V30 93 C 7.1965 -4.75603 2.15868 0
M  V30 94 H 8.8905 -2.59962 1.48526 0
M  V30 95 H 6.4365 -1.2496 0.715605 0
M  V30 96 H 8.3895 -4.19917 -0.353233 0
M  V30 97 H 7.1135 -3.11924 -0.968045 0
M  V30 98 H 5.7725 -3.48667 1.13257 0
M  V30 99 H 5.4205 -4.95585 -0.860514 0
M  V30 100 H 5.1205 -5.83913 0.657192 0
M  V30 101 H 6.6445 -6.10138 -0.237598 0
M  V30 102 H 8.0585 -5.40083 1.92311 0
M  V30 103 H 6.4555 -5.3528 2.71284 0
M  V30 104 H 7.5255 -3.94346 2.82169 0
M  V30 105 N 8.8686 -0.792821 -1.36206 0
M  V30 106 C 10.2796 -0.429513 -1.81692 0
M  V30 107 C 10.6306 1.04695 -1.65932 0
M  V30 108 O 9.7556 1.81256 -1.18218 0
M  V30 109 C 10.3506 -0.772831 -3.29868 0
M  V30 110 C 8.9096 -0.462307 -3.7355 0
M  V30 111 C 8.0566 -1.00569 -2.5842 0
M  V30 112 H 11.0076 -0.985672 -1.24379 0
M  V30 113 H 11.0286 -0.0651928 -3.80444 0
M  V30 114 H 10.5406 -1.84747 -3.41307 0
M  V30 115 H 8.6416 0.604158 -3.67669 0
M  V30 116 H 8.7546 -0.985299 -4.68859 0
M  V30 117 H 7.1186 -0.428734 -2.51066 0
M  V30 118 H 7.9016 -2.08616 -2.72643 0
M  V30 119 N 10.3467 1.47872 -0.545128 0
M  V30 120 C 11.6237 1.9554 0.0485222 0
M  V30 121 C 12.0037 1.4876 1.49779 0
M  V30 122 O 11.3517 0.720925 2.16829 0
M  V30 123 C 11.5617 3.48898 -0.084417 0
M  V30 124 C 12.9097 4.24547 0.0671239 0
M  V30 125 O 13.9337 3.56198 -0.0113649 0
M  V30 126 O 12.7927 5.45999 0.233882 0
M  V30 127 H 9.8867 0.823957 0.0708773 0
M  V30 128 H 12.4327 1.58327 -0.610798 0
M  V30 129 H 11.2047 3.75714 -1.09337 0
M  V30 130 H 10.8277 3.92845 0.613066 0
M  V30 131 N 11.8248 0.280983 1.55075 0
M  V30 132 C 13.0718 -0.334115 1.99725 0
M  V30 133 C 13.3998 -1.5542 1.1694 0
M  V30 134 O 12.6548 -1.94361 0.228531 0
M  V30 135 C 12.9538 -0.754656 3.49342 0
M  V30 136 C 12.6198 0.361445 4.49449 0
M  V30 137 C 11.2818 0.667893 4.76542 0
M  V30 138 C 13.6338 1.11322 5.09173 0
M  V30 139 C 10.9618 1.7296 5.60626 0
M  V30 140 C 13.3138 2.1647 5.9441 0
M  V30 141 C 11.9778 2.47742 6.19822 0
M  V30 142 H 11.2478 -0.122261 0.730844 0
M  V30 143 H 13.8948 0.395917 1.87363 0
M  V30 144 H 12.1998 -1.56446 3.5921 0
M  V30 145 H 13.8968 -1.24142 3.813 0
M  V30 146 H 10.4868 0.112481 4.28452 0
M  V30 147 H 14.6708 0.88973 4.8826 0
M  V30 148 H 9.9268 1.97684 5.78559 0
M  V30 149 H 14.1008 2.75193 6.3972 0
M  V30 150 H 11.7278 3.30145 6.84769 0
M  V30 151 N 13.3029 -1.57598 0.00835791 0
M  V30 152 C 14.5519 -1.90107 -0.673968 0
M  V30 153 C 14.8649 -0.884275 -1.7447 0
M  V30 154 O 16.0709 -1.09987 -2.48224 0
M  V30 155 C 14.5269 -3.37497 -1.24995 0
M  V30 156 C 14.1349 -4.47491 -0.2136 0
M  V30 157 C 15.8789 -3.79104 -1.90999 0
M  V30 158 C 13.7859 -5.85963 -0.80005 0
M  V30 159 H 12.7159 -0.709393 -0.255495 0
M  V30 160 H 15.3669 -1.83365 0.0702693 0
M  V30 161 H 13.7489 -3.39102 -2.04513 0
M  V30 162 H 14.9229 -4.57414 0.557596 0
M  V30 163 H 13.2379 -4.14956 0.346474 0
M  V30 164 H 15.8349 -4.79901 -2.35795 0
M  V30 165 H 16.1779 -3.1306 -2.74407 0
M  V30 166 H 16.7109 -3.79833 -1.18203 0
M  V30 167 H 13.4499 -6.555 -0.00456708 0
M  V30 168 H 12.9699 -5.79687 -1.54021 0
M  V30 169 H 14.6489 -6.33884 -1.29615 0
M  V30 170 N 14.781 0.264519 -1.55364 0
M  V30 171 C 15.713 1.34965 -1.85248 0
M  V30 172 C 16.726 1.45136 -0.737525 0
M  V30 173 O 17.915 1.46801 -1.01547 0
M  V30 174 C 15.015 2.73008 -2.00797 0
M  V30 175 C 14.188 2.85324 -3.31525 0
M  V30 176 C 13.247 4.04097 -3.37034 0
M  V30 177 O 12.273 3.94455 -4.10358 0
M  V30 178 N 13.475 5.16458 -2.65049 0
M  V30 179 H 16.24 1.09672 -2.78913 0
M  V30 180 H 13.801 0.454635 -1.55386 0
M  V30 181 H 15.793 3.50772 -2.01844 0
M  V30 182 H 14.363 2.91087 -1.1396 0
M  V30 183 H 13.583 1.94377 -3.42945 0
M  V30 184 H 14.871 2.9049 -4.17724 0
M  V30 185 H 14.269 5.27181 -2.05175 0
M  V30 186 H 12.826 5.92422 -2.71809 0
M  V30 187 N 16.2591 1.48442 0.529413 0
M  V30 188 C 17.2071 1.63452 1.65487 0
M  V30 189 C 18.2011 0.500955 1.61823 0
M  V30 190 O 19.4071 0.679695 1.66674 0
M  V30 191 H 15.7821 0.514905 0.548066 0
M  V30 192 H 17.7531 2.57975 1.49971 0
M  V30 193 C 16.5021 1.69196 3.03756 0
M  V30 194 H 15.8251 2.55784 3.07269 0
M  V30 195 H 17.2651 1.83743 3.82119 0
M  V30 196 C 15.7241 0.430765 3.34135 0
M  V30 197 O 16.2541 -0.4561 3.99102 0
M  V30 198 N 14.4601 0.302293 2.89023 0
M  V30 199 H 14.0071 1.02496 2.36331 0
M  V30 200 H 13.9651 -0.540546 3.09718 0
M  V30 201 N 17.7372 -0.778329 1.37039 0
M  V30 202 C 18.6842 -1.89139 1.32269 0
M  V30 203 C 19.6542 -1.65017 0.189387 0
M  V30 204 O 20.8392 -1.87024 0.377693 0
M  V30 205 C 17.9792 -3.26112 1.12894 0
M  V30 206 C 17.0922 -3.62233 2.35396 0
M  V30 207 C 16.2272 -4.8838 2.08946 0
M  V30 208 C 15.2662 -5.17212 3.2735 0
M  V30 209 N 14.4032 -6.34546 3.00492 0
M  V30 210 H 19.2432 -1.92552 2.27437 0
M  V30 211 H 16.7802 -0.941473 1.13025 0
M  V30 212 H 18.7382 -4.05116 0.996835 0
M  V30 213 H 17.3682 -3.22091 0.213758 0
M  V30 214 H 16.4202 -2.78265 2.5937 0
M  V30 215 H 17.7322 -3.79481 3.23721 0
M  V30 216 H 16.8862 -5.75274 1.92729 0
M  V30 217 H 15.6252 -4.73222 1.17949 0
M  V30 218 H 14.6302 -4.28796 3.44113 0
M  V30 219 H 15.8552 -5.34283 4.19188 0
M  V30 220 H 13.8012 -6.20759 2.12118 0
M  V30 221 H 13.7182 -6.52179 3.82358 0
M  V30 222 H 14.9862 -7.24394 2.87879 0
M  V30 223 N 19.2153 -1.21501 -1.00376 0
M  V30 224 C 20.4643 -1.02718 -1.73586 0
M  V30 225 C 20.7773 0.439589 -1.90596 0
M  V30 226 O 21.9833 0.746848 -2.61026 0
M  V30 227 C 20.4393 -1.78929 -3.1227 0
M  V30 228 C 20.0473 -3.29783 -3.03228 0
M  V30 229 C 21.7913 -1.68557 -3.89601 0
M  V30 230 C 19.6983 -3.98479 -4.36999 0
M  V30 231 H 18.6283 -0.380733 -0.650814 0
M  V30 232 H 21.2793 -1.45248 -1.1214 0
M  V30 233 H 19.6613 -1.29192 -3.74333 0
M  V30 234 H 20.8353 -3.86832 -2.50395 0
M  V30 235 H 19.1503 -3.40711 -2.39385 0
M  V30 236 H 21.7473 -2.17211 -4.88593 0
M  V30 237 H 22.0903 -0.644021 -4.11288 0
M  V30 238 H 22.6233 -2.15778 -3.34193 0
M  V30 239 H 19.3623 -5.02841 -4.20513 0
M  V30 240 H 18.8823 -3.46219 -4.89788 0
M  V30 241 H 20.5613 -4.03462 -5.05794 0
M  V30 242 N 20.6934 1.19889 -1.02296 0
M  V30 243 C 21.9704 1.85148 -0.630832 0
M  V30 244 C 22.3504 1.91385 0.890782 0
M  V30 245 O 21.6984 1.42642 1.78509 0
M  V30 246 C 21.9084 3.24442 -1.28602 0
M  V30 247 C 23.2564 4.00663 -1.4055 0
M  V30 248 O 24.2804 3.33818 -1.24273 0
M  V30 249 O 23.1394 5.20387 -1.66913 0
M  V30 250 H 20.2334 0.797613 -0.218499 0
M  V30 251 H 22.7794 1.27427 -1.12074 0
M  V30 252 H 21.5514 3.14704 -2.32545 0
M  V30 253 H 21.1744 3.89802 -0.7836 0
M  V30 254 N 22.1715 0.800033 1.35784 0
M  V30 255 C 23.1215 0.178654 2.27299 0
M  V30 256 C 24.1055 -0.643667 1.47464 0
M  V30 257 O 25.2975 -0.502 1.69732 0
M  V30 258 C 22.4265 -0.677194 3.36555 0
M  V30 259 C 21.5125 0.154497 4.23818 0
M  V30 260 N 21.9035 1.21427 4.91008 0
M  V30 261 C 20.2015 -0.0649462 4.45953 0
M  V30 262 C 20.9025 1.72147 5.55644 0
M  V30 263 N 19.8785 1.02897 5.33773 0
M  V30 264 H 23.6805 0.989637 2.76737 0
M  V30 265 H 21.1945 0.64054 1.49234 0
M  V30 266 H 23.1915 -1.13835 4.01058 0
M  V30 267 H 21.8515 -1.4866 2.8867 0
M  V30 268 H 22.8625 1.59684 4.92668 0
M  V30 269 H 19.5395 -0.844016 4.0888 0
M  V30 270 H 20.9295 2.60683 6.19269 0
M  V30 271 N 23.6496 -1.47581 0.552962 0
M  V30 272 C 24.8796 -2.06575 0.0320091 0
M  V30 273 C 25.2876 -1.4067 -1.26525 0
M  V30 274 O 24.6306 -0.495808 -1.76883 0
M  V30 275 C 24.6926 -3.58705 -0.238913 0
M  V30 276 C 24.3566 -4.46625 0.968272 0
M  V30 277 C 25.3536 -4.85 1.87274 0
M  V30 278 C 23.0386 -4.88201 1.18175 0
M  V30 279 C 25.0326 -5.63745 2.9744 0
M  V30 280 C 22.7196 -5.66712 2.28651 0
M  V30 281 C 23.7176 -6.04394 3.18114 0
M  V30 282 O 23.4056 -6.81324 4.26676 0
M  V30 283 H 23.1376 -0.674763 0.0408689 0
M  V30 284 H 25.6916 -1.90634 0.764719 0
M  V30 285 H 23.9216 -3.72844 -1.02588 0
M  V30 286 H 25.6106 -3.99735 -0.704731 0
M  V30 287 H 26.3766 -4.53482 1.71984 0
M  V30 288 H 22.2556 -4.58339 0.494593 0
M  V30 289 H 25.7996 -5.93077 3.67296 0
M  V30 290 H 21.6966 -5.97642 2.43915 0
M  V30 291 H 22.4646 -6.99712 4.24671 0
M  V30 292 N 25.1277 -0.289203 -1.54924 0
M  V30 293 C 26.3767 0.324231 -1.99077 0
M  V30 294 C 26.6897 1.5591 -1.18117 0
M  V30 295 O 27.8957 2.24637 -1.52481 0
M  V30 296 C 26.3517 0.628209 -3.54375 0
M  V30 297 C 25.9597 -0.587647 -4.44129 0
M  V30 298 C 27.7037 1.20349 -4.07083 0
M  V30 299 C 25.6107 -0.257475 -5.90839 0
M  V30 300 H 24.5407 0.124924 -0.743579 0
M  V30 301 H 27.1917 -0.396063 -1.79175 0
M  V30 302 H 25.5737 1.40778 -3.70132 0
M  V30 303 H 26.7477 -1.36418 -4.40144 0
M  V30 304 H 25.0627 -1.08074 -4.0213 0
M  V30 305 H 27.6597 1.46456 -5.14252 0
M  V30 306 H 28.0027 2.14195 -3.56968 0
M  V30 307 H 28.5357 0.485889 -3.94821 0
M  V30 308 H 25.2747 -1.16419 -6.45079 0
M  V30 309 H 24.7947 0.482018 -5.9786 0
M  V30 310 H 26.4737 0.145238 -6.46837 0
M  V30 311 N 26.6058 1.57591 -0.0167156 0
M  V30 312 C 27.5158 2.1291 0.98521 0
M  V30 313 C 28.5318 1.07834 1.36557 0
M  V30 314 O 29.7078 1.39826 1.44951 0
M  V30 315 C 26.7728 2.63512 2.25305 0
M  V30 316 C 25.8338 3.83256 1.93426 0
M  V30 317 C 25.0668 4.31435 3.14165 0
M  V30 318 O 25.2898 3.78851 4.26413 0
M  V30 319 O 24.2238 5.23416 2.97186 0
M  V30 320 H 28.0498 2.98772 0.544888 0
M  V30 321 H 25.6348 1.48012 0.203141 0
M  V30 322 H 27.5168 2.96183 2.99756 0
M  V30 323 H 26.1918 1.8074 2.68542 0
M  V30 324 H 25.0988 3.55531 1.16398 0
M  V30 325 H 26.4318 4.67153 1.55013 0
M  V30 326 N 28.0839 -0.256276 1.55502 0
M  V30 327 C 29.0319 -1.33694 1.90338 0
M  V30 328 C 30.0259 -1.50299 0.781441 0
M  V30 329 O 31.2319 -1.51885 0.965966 0
M  V30 330 H 27.6069 -0.447483 0.60437 0
M  V30 331 H 29.5779 -1.01574 2.8058 0
M  V30 332 C 28.3269 -2.68724 2.20642 0
M  V30 333 H 27.6499 -2.56743 3.06469 0
M  V30 334 H 29.0899 -3.43237 2.48926 0
M  V30 335 C 27.5489 -3.21101 1.01959 0
M  V30 336 O 28.0789 -4.0084 0.262762 0
M  V30 337 N 26.2849 -2.79003 0.812746 0
M  V30 338 H 25.8319 -2.14271 1.42989 0
M  V30 339 H 25.7899 -3.14393 0.0203076 0
M  V30 340 N 29.562 -1.4872 -0.521534 0
M  V30 341 C 30.792 -1.6061 -1.29954 0
M  V30 342 C 31.2 -0.268728 -1.87282 0
M  V30 343 O 30.543 0.753221 -1.67548 0
M  V30 344 C 30.605 -2.60013 -2.48261 0
M  V30 345 C 30.269 -4.04874 -2.11957 0
M  V30 346 C 31.266 -4.92304 -1.67132 0
M  V30 347 C 28.951 -4.5047 -2.22221 0
M  V30 348 C 30.945 -6.2336 -1.33047 0
M  V30 349 C 28.632 -5.81544 -1.87748 0
M  V30 350 C 29.63 -6.67812 -1.43234 0
M  V30 351 O 29.318 -7.96446 -1.09217 0
M  V30 352 H 29.05 -0.544116 -0.401141 0
M  V30 353 H 31.604 -1.95339 -0.634958 0
M  V30 354 H 29.834 -2.20422 -3.17728 0
M  V30 355 H 31.523 -2.61648 -3.10315 0
M  V30 356 H 32.289 -4.58312 -1.58665 0
M  V30 357 H 28.168 -3.83504 -2.55823 0
M  V30 358 H 31.712 -6.90649 -0.982299 0
M  V30 359 H 27.609 -6.15069 -1.95858 0
M  V30 360 H 28.377 -8.09275 -1.22542 0
M  V30 361 N 31.0401 0.771051 -1.3745 0
M  V30 362 C 32.2871 1.52963 -1.32697 0
M  V30 363 C 32.6151 1.94299 0.0883274 0
M  V30 364 O 31.8701 1.64397 1.0617 0
M  V30 365 C 32.1691 2.80676 -2.2126 0
M  V30 366 C 31.8351 2.58389 -3.69521 0
M  V30 367 C 30.4971 2.52019 -4.09927 0
M  V30 368 C 32.8491 2.38469 -4.63446 0
M  V30 369 C 30.1771 2.23721 -5.42371 0
M  V30 370 C 32.5291 2.11694 -5.96128 0
M  V30 371 C 31.1931 2.03769 -6.35637 0
M  V30 372 H 30.4631 0.559732 -0.485573 0
M  V30 373 H 33.1101 0.888083 -1.69662 0
M  V30 374 H 31.4151 3.49392 -1.77291 0
M  V30 375 H 33.1121 3.38557 -2.14895 0
M  V30 376 H 29.7021 2.6421 -3.37478 0
M  V30 377 H 33.8861 2.4238 -4.33089 0
M  V30 378 H 29.1421 2.16081 -5.71943 0
M  V30 379 H 33.3161 1.9528 -6.6846 0
M  V30 380 H 30.9431 1.81606 -7.38189 0
M  V30 381 N 32.5182 1.22032 0.997298 0
M  V30 382 C 33.7952 0.950823 1.70935 0
M  V30 383 C 34.1752 -0.535292 2.042 0
M  V30 384 O 33.5232 -1.50217 1.72183 0
M  V30 385 C 33.7332 1.84386 2.96315 0
M  V30 386 C 35.0812 2.09732 3.69185 0
M  V30 387 O 36.1052 1.81798 3.06314 0
M  V30 388 O 34.9642 2.57018 4.82291 0
M  V30 389 H 32.0582 0.357204 0.745878 0
M  V30 390 H 34.6042 1.32997 1.05404 0
M  V30 391 H 33.3762 2.84928 2.68201 0
M  V30 392 H 32.9992 1.46602 3.69586 0
M  V30 393 N 33.9963 -1.19345 1.0293 0
M  V30 394 C 35.2453 -1.88363 0.721256 0
M  V30 395 C 35.5583 -1.80514 -0.753254 0
M  V30 396 O 36.7643 -2.44788 -1.17436 0
M  V30 397 C 35.2203 -3.37872 1.23978 0
M  V30 398 C 34.8283 -3.54278 2.74211 0
M  V30 399 C 36.5723 -4.12365 1.00775 0
M  V30 400 C 34.4793 -4.97682 3.19479 0
M  V30 401 H 33.4093 -0.705484 0.266098 0
M  V30 402 H 36.0603 -1.34928 1.24365 0
M  V30 403 H 34.4423 -3.90707 0.6453 0
M  V30 404 H 35.6163 -3.11769 3.39318 0
M  V30 405 H 33.9313 -2.93174 2.95699 0
M  V30 406 H 36.5283 -5.18119 1.32123 0
M  V30 407 H 36.8713 -4.16263 -0.0554308 0
M  V30 408 H 37.4043 -3.65668 1.56625 0
M  V30 409 H 34.1433 -4.98945 4.25128 0
M  V30 410 H 33.6633 -5.4095 2.591 0
M  V30 411 H 35.3423 -5.66337 3.12845 0
M  V30 412 N 35.4744 -0.807222 -1.35358 0
M  V30 413 C 36.4224 -0.20614 -2.31685 0
M  V30 414 C 37.4164 0.644445 -1.56663 0
M  V30 415 O 38.6224 0.537538 -1.71786 0
M  V30 416 H 34.9974 -0.0479006 -0.750473 0
M  V30 417 H 36.9684 -1.03369 -2.79924 0
M  V30 418 C 35.7174 0.630212 -3.41941 0
M  V30 419 H 35.0404 -0.0149558 -3.99797 0
M  V30 420 H 36.4804 1.01716 -4.11619 0
M  V30 421 C 34.9394 1.79601 -2.85035 0
M  V30 422 O 35.4694 2.89351 -2.78637 0
M  V30 423 N 33.6754 1.60774 -2.42074 0
M  V30 424 H 33.2224 0.715009 -2.47478 0
M  V30 425 H 33.1804 2.38933 -2.04349 0
M  V30 426 N 36.9525 1.47285 -0.560781 0
M  V30 427 C 37.8995 2.30058 0.18491 0
M  V30 428 C 38.8695 1.39281 0.904986 0
M  V30 429 O 40.0545 1.68241 0.899979 0
M  V30 430 C 37.1945 3.23317 1.20666 0
M  V30 431 C 36.3075 4.29186 0.492285 0
M  V30 432 C 35.4425 5.09592 1.49964 0
M  V30 433 C 34.4815 6.07232 0.770439 0
M  V30 434 N 33.6185 6.80584 1.72479 0
M  V30 435 H 38.4585 2.93302 -0.527048 0
M  V30 436 H 35.9955 1.44568 -0.271738 0
M  V30 437 H 37.9535 3.75811 1.81168 0
M  V30 438 H 36.5835 2.61929 1.88661 0
M  V30 439 H 35.6355 3.7972 -0.227333 0
M  V30 440 H 36.9475 4.98738 -0.0787929 0
M  V30 441 H 36.1015 5.66254 2.17809 0
M  V30 442 H 34.8405 4.3995 2.10464 0
M  V30 443 H 33.8455 5.49745 0.0780846 0
M  V30 444 H 35.0705 6.78884 0.171134 0
M  V30 445 H 33.0165 6.1367 2.3183 0
M  V30 446 H 32.9335 7.46319 1.20596 0
M  V30 447 H 34.2015 7.41818 2.39428 0
M  V30 448 N 38.4306 0.297415 1.54768 0
M  V30 449 C 39.3786 -0.596051 2.24833 0
M  V30 450 C 40.3726 -1.13992 1.25308 0
M  V30 451 O 41.5786 -1.09098 1.4317 0
M  V30 452 H 37.9536 -0.210814 0.721846 0
M  V30 453 H 39.9246 0.0174667 2.98395 0
M  V30 454 C 38.6736 -1.75818 2.99972 0
M  V30 455 H 37.9966 -1.3489 3.76357 0
M  V30 456 H 39.4366 -2.35949 3.52284 0
M  V30 457 C 37.8956 -2.66014 2.06732 0
M  V30 458 O 38.4256 -3.67009 1.63302 0
M  V30 459 N 36.6316 -2.33669 1.72763 0
M  V30 460 H 36.1786 -1.51586 2.08277 0
M  V30 461 H 36.1366 -2.94285 1.10652 0
M  V30 462 N 39.9087 -1.5758 0.0250728 0
M  V30 463 C 41.1567 -1.91255 -0.653151 0
M  V30 464 C 41.4777 -0.901691 -1.729 0
M  V30 465 O 40.7477 0.0573785 -1.95816 0
M  V30 466 H 39.3277 -0.705942 -0.244243 0
M  V30 467 H 41.9897 -1.94767 0.0719209 0
M  V30 468 H 41.0857 -2.91752 -1.10847 0
M  V30 469 N 41.3868 0.248026 -1.55636 0
M  V30 470 C 42.3338 1.30707 -1.90222 0
M  V30 471 C 43.3038 1.47881 -0.756332 0
M  V30 472 O 44.4888 1.61883 -1.00988 0
M  V30 473 C 41.6288 2.65769 -2.20138 0
M  V30 474 C 40.7418 2.56612 -3.47526 0
M  V30 475 C 39.8768 3.8402 -3.67017 0
M  V30 476 C 38.9158 3.69476 -4.8801 0
M  V30 477 N 38.0528 4.88774 -5.04029 0
M  V30 478 H 42.8928 1.00512 -2.80538 0
M  V30 479 H 40.4298 0.485055 -1.38873 0
M  V30 480 H 42.3878 3.44386 -2.35487 0
M  V30 481 H 41.0178 2.94115 -1.33027 0
M  V30 482 H 40.0698 1.69571 -3.40514 0
M  V30 483 H 41.3818 2.41774 -4.36287 0
M  V30 484 H 40.5358 4.7108 -3.8232 0
M  V30 485 H 39.2748 4.01754 -2.76487 0
M  V30 486 H 38.2798 2.80799 -4.72686 0
M  V30 487 H 39.5048 3.53238 -5.8 0
M  V30 488 H 37.4508 5.0687 -4.16435 0
M  V30 489 H 37.3678 4.76562 -5.86877 0
M  V30 490 H 38.6358 5.77335 -5.23741 0
M  V30 491 N 42.8649 1.48995 0.513639 0
M  V30 492 C 43.8149 1.61127 1.61314 0
M  V30 493 C 44.7989 0.467521 1.53958 0
M  V30 494 O 45.9909 0.719826 1.61702 0
M  V30 495 C 43.1199 1.66937 2.99978 0
M  V30 496 C 42.2059 2.86847 3.12377 0
M  V30 497 N 42.5969 4.11078 2.94701 0
M  V30 498 C 40.8949 2.84521 3.43459 0
M  V30 499 C 41.5959 4.91615 3.10949 0
M  V30 500 N 40.5719 4.24739 3.3926 0
M  V30 501 H 44.3739 2.54909 1.46282 0
M  V30 502 H 41.8879 1.45593 0.719483 0
M  V30 503 H 43.8849 1.73725 3.78979 0
M  V30 504 H 42.5449 0.742831 3.16089 0
M  V30 505 H 43.5559 4.41258 2.71131 0
M  V30 506 H 40.2329 2.01192 3.65825 0
M  V30 507 H 41.6229 6.00264 3.01882 0
M  V30 508 N 44.343 -0.763751 1.37857 0
M  V30 509 C 45.273 -1.89103 1.36975 0
M  V30 510 C 46.254 -1.68439 0.237152 0
M  V30 511 O 47.439 -1.8918 0.438713 0
M  V30 512 C 44.569 -3.26496 1.18395 0
M  V30 513 C 43.523 -3.61741 2.28751 0
M  V30 514 C 42.849 -4.97762 1.95286 0
M  V30 515 C 44.149 -3.67665 3.70972 0
M  V30 516 H 45.843 -1.90099 2.31307 0
M  V30 517 H 43.389 -0.91319 1.11341 0
M  V30 518 H 45.342 -4.05003 1.16406 0
M  V30 519 H 44.066 -3.25955 0.205215 0
M  V30 520 H 42.725 -2.85547 2.29909 0
M  V30 521 H 42.373 -4.93769 0.959221 0
M  V30 522 H 42.073 -5.22313 2.69189 0
M  V30 523 H 43.597 -5.7866 1.94898 0
M  V30 524 H 45.011 -4.36307 3.719 0
M  V30 525 H 43.408 -4.03718 4.43995 0
M  V30 526 H 44.478 -2.68134 4.0402 0
M  V30 527 N 45.8211 -1.22559 -0.990812 0
M  V30 528 C 47.0671 -1.05297 -1.73322 0
M  V30 529 C 47.4001 0.410655 -1.89808 0
M  V30 530 O 46.6751 1.30439 -1.44277 0
M  V30 531 C 46.9581 -1.76713 -3.13759 0
M  V30 532 C 46.8111 -3.30684 -3.04907 0
M  V30 533 C 48.1301 -1.52121 -4.12974 0
M  V30 534 H 45.2491 -0.38392 -0.629106 0
M  V30 535 H 47.8911 -1.50926 -1.15418 0
M  V30 536 H 46.0411 -1.37924 -3.63193 0
M  V30 537 H 47.7131 -3.7893 -2.63077 0
M  V30 538 H 45.9561 -3.60253 -2.41661 0
M  V30 539 H 46.6271 -3.75833 -4.04294 0
M  V30 540 H 49.1031 -1.85819 -3.72304 0
M  V30 541 H 47.9791 -2.04582 -5.0935 0
M  V30 542 H 48.2401 -0.454257 -4.3976 0
M  V30 543 N 47.2992 1.18797 -1.03562 0
M  V30 544 C 48.2292 2.24472 -0.643019 0
M  V30 545 C 49.2102 1.66433 0.351283 0
M  V30 546 O 50.3952 1.92803 0.232505 0
M  V30 547 C 47.5252 3.473 4.24935e-05 0
M  V30 548 C 46.4792 4.18055 -0.917257 0
M  V30 549 C 45.8052 5.34519 -0.138941 0
M  V30 550 C 47.1052 4.72109 -2.23407 0
M  V30 551 H 48.7992 2.57566 -1.52643 0
M  V30 552 H 46.3452 1.23806 -0.735394 0
M  V30 553 H 48.2982 4.20426 0.286383 0
M  V30 554 H 47.0222 3.13424 0.918299 0
M  V30 555 H 45.6812 3.46821 -1.1879 0
M  V30 556 H 45.3292 4.96891 0.781562 0
M  V30 557 H 45.0292 5.82794 -0.750005 0
M  V30 558 H 46.5532 6.10438 0.1405 0
M  V30 559 H 47.9672 5.36955 -2.00879 0
M  V30 560 H 46.3642 5.30897 -2.79765 0
M  V30 561 H 47.4342 3.89807 -2.88407 0
M  V30 562 N 48.7773 0.814389 1.34928 0
M  V30 563 C 50.0253 0.397636 1.9815 0
M  V30 564 C 50.3463 -1.04069 1.64908 0
M  V30 565 O 49.6163 -1.72121 0.93548 0
M  V30 566 H 48.1963 0.144043 0.732981 0
M  V30 567 H 50.8583 1.04195 1.6471 0
M  V30 568 H 49.9543 0.509688 3.0791 0
M  V30 569 N 50.2554 -1.46986 0.568584 0
M  V30 570 C 51.2024 -2.30153 -0.172707 0
M  V30 571 C 52.1724 -1.39759 -0.897586 0
M  V30 572 O 53.3574 -1.68716 -0.891044 0
M  V30 573 C 50.4974 -3.23952 -1.1895 0
M  V30 574 C 49.6104 -4.29441 -0.469517 0
M  V30 575 C 48.7454 -5.1038 -1.47259 0
M  V30 576 C 47.7844 -6.07632 -0.738225 0
M  V30 577 N 46.9214 -6.8149 -1.68868 0
M  V30 578 H 51.7614 -2.93019 0.542596 0
M  V30 579 H 49.2984 -1.44422 0.279401 0
M  V30 580 H 51.2564 -3.76767 -1.79173 0
M  V30 581 H 49.8864 -2.62926 -1.87269 0
M  V30 582 H 48.9384 -3.79594 0.247467 0
M  V30 583 H 50.2504 -4.98689 0.105241 0
M  V30 584 H 49.4044 -5.67402 -2.14803 0
M  V30 585 H 48.1434 -4.4106 -2.08128 0
M  V30 586 H 47.1484 -5.49778 -0.0489293 0
M  V30 587 H 48.3734 -6.78966 -0.135129 0
M  V30 588 H 46.3194 -6.14891 -2.28573 0
M  V30 589 H 46.2364 -7.46948 -1.16636 0
M  V30 590 H 47.5044 -7.43078 -2.3549 0
M  V30 591 N 51.7335 -0.305618 -1.54608 0
M  V30 592 C 52.6655 0.602161 -2.21149 0
M  V30 593 C 53.6785 1.09394 -1.20569 0
M  V30 594 O 54.8675 1.0106 -1.47136 0
M  V30 595 C 51.9675 1.83692 -2.84799 0
M  V30 596 C 51.1405 1.48686 -4.11353 0
M  V30 597 C 50.1995 2.57725 -4.58764 0
M  V30 598 O 49.2255 2.22623 -5.23858 0
M  V30 599 N 50.4275 3.88346 -4.31471 0
M  V30 600 H 53.1925 0.0324966 -2.99682 0
M  V30 601 H 50.7535 -0.128021 -1.61393 0
M  V30 602 H 52.7455 2.55994 -3.13448 0
M  V30 603 H 51.3155 2.31486 -2.10078 0
M  V30 604 H 50.5355 0.596269 -3.89664 0
M  V30 605 H 51.8235 1.22842 -4.93748 0
M  V30 606 H 51.2215 4.19671 -3.79331 0
M  V30 607 H 49.7785 4.56932 -4.64818 0
M  V30 608 N 53.2116 1.57565 -0.0334293 0
M  V30 609 C 54.1746 2.09393 0.932048 0
M  V30 610 C 55.1746 1.00986 1.25134 0
M  V30 611 O 56.3646 1.27129 1.19096 0
M  V30 612 C 53.4966 2.56338 2.2473 0
M  V30 613 H 54.6896 2.95984 0.483085 0
M  V30 614 H 52.2426 1.54819 0.21468 0
M  V30 615 H 52.9776 1.7309 2.74245 0
M  V30 616 H 52.7626 3.35542 2.02865 0
M  V30 617 H 54.2526 2.96646 2.93923 0
M  V30 618 N 54.6897 -0.239769 1.55765 0
M  V30 619 C 55.9147 -0.988373 1.82335 0
M  V30 620 C 56.3397 -1.77886 0.611421 0
M  V30 621 O 55.6977 -1.75889 -0.439639 0
M  V30 622 C 55.7457 -1.89627 3.06715 0
M  V30 623 O 54.8497 -2.98904 2.84131 0
M  V30 624 H 54.1907 -0.280858 0.601677 0
M  V30 625 H 56.7207 -0.258597 2.02959 0
M  V30 626 H 56.7307 -2.30957 3.36338 0
M  V30 627 H 55.4057 -1.31511 3.9456 0
M  V30 628 H 53.9827 -2.61651 2.65694 0
M  V30 629 N 56.1678 -1.49265 -0.50573 0
M  V30 630 C 57.5788 -1.51769 -1.08734 0
M  V30 631 C 57.9298 -0.301192 -1.93874 0
M  V30 632 O 57.0548 0.589456 -2.08217 0
M  V30 633 C 57.6498 -2.75017 -1.97867 0
M  V30 634 C 56.2088 -2.80314 -2.51199 0
M  V30 635 C 55.3558 -2.4562 -1.28709 0
M  V30 636 H 58.3068 -1.56031 -0.289855 0
M  V30 637 H 58.3278 -2.5491 -2.82491 0
M  V30 638 H 57.8398 -3.63539 -1.35873 0
M  V30 639 H 55.9408 -1.96061 -3.16845 0
M  V30 640 H 56.0538 -3.82366 -2.88675 0
M  V30 641 H 54.4178 -1.97297 -1.61078 0
M  V30 642 H 55.2008 -3.36411 -0.6843 0
M  V30 643 N 57.6459 0.756429 -1.3826 0
M  V30 644 C 58.9229 1.50584 -1.24835 0
M  V30 645 C 59.3029 2.10556 0.151485 0
M  V30 646 O 58.6509 1.96825 1.1607 0
M  V30 647 C 58.8609 2.57448 -2.3563 0
M  V30 648 C 60.2089 3.24429 -2.73917 0
M  V30 649 O 61.2329 2.67751 -2.34921 0
M  V30 650 O 60.0919 4.26937 -3.41156 0
M  V30 651 H 57.1859 0.667664 -0.48801 0
M  V30 652 H 59.7319 0.792083 -1.5008 0
M  V30 653 H 58.5039 2.11362 -3.29305 0
M  V30 654 H 58.1269 3.36408 -2.11933 0
M  V30 655 N 59.124 1.23083 0.984299 0
M  V30 656 C 60.401 0.9689 1.69917 0
M  V30 657 C 60.781 -0.513604 2.04757 0
M  V30 658 O 60.129 -1.48383 1.73767 0
M  V30 659 C 60.339 1.87518 2.94343 0
M  V30 660 C 61.687 2.13636 3.6694 0
M  V30 661 O 62.711 1.85036 3.04368 0
M  V30 662 O 61.57 2.62119 4.79537 0
M  V30 663 H 58.664 0.365095 0.742048 0
M  V30 664 H 61.21 1.34107 1.03987 0
M  V30 665 H 59.982 2.87756 2.65164 0
M  V30 666 H 59.605 1.50514 3.6801 0
M  V30 667 N 60.6021 -1.18246 1.0419 0
M  V30 668 C 61.8511 -1.87588 0.741194 0
M  V30 669 C 62.1641 -1.81303 -0.734066 0
M  V30 670 O 63.3701 -2.46019 -1.14834 0
M  V30 671 C 61.8261 -3.36538 1.27555 0
M  V30 672 C 61.4341 -3.51349 2.77953 0
M  V30 673 C 63.1781 -4.11273 1.05143 0
M  V30 674 C 61.0851 -4.94265 3.2474 0
M  V30 675 H 60.0151 -0.702622 0.273565 0
M  V30 676 H 62.6661 -1.33601 1.25789 0
M  V30 677 H 61.0481 -3.9 0.686703 0
M  V30 678 H 62.2221 -3.08153 3.42605 0
M  V30 679 H 60.5371 -2.90022 2.98791 0
M  V30 680 H 63.1341 -5.16689 1.37611 0
M  V30 681 H 63.4771 -4.16298 -0.0112774 0
M  V30 682 H 64.0101 -3.63987 1.60495 0
M  V30 683 H 60.7491 -4.94408 4.30396 0
M  V30 684 H 60.2691 -5.38172 2.64823 0
M  V30 685 H 61.9481 -5.62987 3.18834 0
M  V30 686 N 62.0802 -0.821533 -1.34494 0
M  V30 687 C 63.3292 -0.405355 -1.97585 0
M  V30 688 C 63.6422 1.03677 -1.65863 0
M  V30 689 O 64.8482 1.55679 -2.22433 0
M  V30 690 C 63.3042 -0.673861 -3.53535 0
M  V30 691 C 62.9122 -2.12951 -3.94152 0
M  V30 692 C 64.6562 -0.32378 -4.23263 0
M  V30 693 C 62.5632 -2.34298 -5.43009 0
M  V30 694 H 61.4932 -0.147836 -0.739365 0
M  V30 695 H 64.1442 -1.00769 -1.53355 0
M  V30 696 H 62.5262 -0.00137554 -3.96 0
M  V30 697 H 63.7002 -2.84104 -3.62797 0
M  V30 698 H 62.0152 -2.44089 -3.37356 0
M  V30 699 H 64.6122 -0.461126 -5.32708 0
M  V30 700 H 64.9552 0.731586 -4.09821 0
M  V30 701 H 65.4882 -0.950786 -3.8627 0
M  V30 702 H 62.2272 -3.38335 -5.61435 0
M  V30 703 H 61.7472 -1.67687 -5.75883 0
M  V30 704 H 63.4262 -2.16588 -6.09671 0
M  V30 705 N 63.5583 1.46682 -0.576371 0
M  V30 706 C 64.4883 2.33028 0.148397 0
M  V30 707 C 65.4693 1.44961 0.889956 0
M  V30 708 O 66.6543 1.73789 0.866662 0
M  V30 709 C 63.7843 3.27117 1.1667 0
M  V30 710 C 62.7383 4.24575 0.540386 0
M  V30 711 C 62.0643 5.08126 1.6647 0
M  V30 712 C 63.3643 5.19722 -0.518331 0
M  V30 713 H 65.0583 2.93875 -0.572509 0
M  V30 714 H 62.6043 1.41315 -0.276768 0
M  V30 715 H 64.5573 3.86374 1.68204 0
M  V30 716 H 63.2813 2.64364 1.9178 0
M  V30 717 H 61.9403 3.66571 0.0461769 0
M  V30 718 H 61.5883 4.41762 2.40531 0
M  V30 719 H 61.2883 5.74122 1.25131 0
M  V30 720 H 62.8123 5.70246 2.18293 0
M  V30 721 H 64.2263 5.73232 -0.0883058 0
M  V30 722 H 62.6233 5.94026 -0.851679 0
M  V30 723 H 63.6933 4.64037 -1.40703 0
M  V30 724 N 65.0364 0.313813 1.54444 0
M  V30 725 C 65.9684 -0.590425 2.21465 0
M  V30 726 C 66.9814 -1.08753 1.21147 0
M  V30 727 O 68.1704 -1.00278 1.4767 0
M  V30 728 C 65.2704 -1.82179 2.85769 0
M  V30 729 C 64.4434 -1.46502 4.12136 0
M  V30 730 C 63.5024 -2.55288 4.60124 0
M  V30 731 O 62.5284 -2.19842 5.25032 0
M  V30 732 N 63.7304 -3.86053 4.33525 0
M  V30 733 H 66.4954 -0.0166033 2.99695 0
M  V30 734 H 64.0564 0.136578 1.61323 0
M  V30 735 H 66.0484 -2.54328 3.14801 0
M  V30 736 H 64.6184 -2.30369 2.11303 0
M  V30 737 H 63.8384 -0.575595 3.89975 0
M  V30 738 H 65.1264 -1.20221 4.94393 0
M  V30 739 H 64.5244 -4.17654 3.81552 0
M  V30 740 H 63.0814 -4.54461 4.67235 0
M  V30 741 N 66.5145 -1.57545 0.0417849 0
M  V30 742 C 67.7395 -1.97035 -0.647455 0
M  V30 743 C 68.1645 -0.918775 -1.64135 0
M  V30 744 O 67.5225 0.119006 -1.80909 0
M  V30 745 C 67.5705 -3.35609 -1.31905 0
M  V30 746 O 66.6745 -3.3287 -2.43457 0
M  V30 747 H 66.0155 -0.64211 -0.169086 0
M  V30 748 H 68.5455 -2.04318 0.107399 0
M  V30 749 H 68.5555 -3.72126 -1.67291 0
M  V30 750 H 67.2305 -4.11685 -0.590586 0
M  V30 751 H 65.8075 -3.08087 -2.10088 0
M  V30 752 N 67.9926 0.231505 -1.5589 0
M  V30 753 C 68.9406 1.30649 -1.92441 0
M  V30 754 C 69.9346 1.49037 -0.805254 0
M  V30 755 O 71.1406 1.50329 -0.990007 0
M  V30 756 H 67.5156 0.437812 -0.611412 0
M  V30 757 H 69.4866 0.970973 -2.82161 0
M  V30 758 C 68.2356 2.65179 -2.24889 0
M  V30 759 H 67.5586 2.51835 -3.10514 0
M  V30 760 H 68.9986 3.39234 -2.54355 0
M  V30 761 C 67.4576 3.19439 -1.07054 0
M  V30 762 O 67.9876 4.00371 -0.326499 0
M  V30 763 N 66.1936 2.77675 -0.85703 0
M  V30 764 H 65.7406 2.11969 -1.46379 0
M  V30 765 H 65.6986 3.14321 -0.0703223 0
M  V30 766 N 69.4707 1.49531 0.497807 0
M  V30 767 C 70.7477 1.49682 1.25915 0
M  V30 768 C 71.1277 0.226339 2.09883 0
M  V30 769 O 70.4757 -0.791189 2.14365 0
M  V30 770 C 70.6857 2.77755 2.11313 0
M  V30 771 C 72.0337 3.27371 2.70395 0
M  V30 772 O 73.0577 2.78894 2.21578 0
M  V30 773 O 71.9167 4.11808 3.59272 0
M  V30 774 H 69.0107 0.599228 0.56996 0
M  V30 775 H 71.5567 1.61798 0.511816 0
M  V30 776 H 70.3287 3.61713 1.49264 0
M  V30 777 H 69.9517 2.68515 2.93233 0
M  V30 778 N 70.9488 -0.749086 1.3866 0
M  V30 779 C 72.1788 -1.53611 1.38157 0
M  V30 780 C 72.5868 -1.89177 -0.0293595 0
M  V30 781 O 71.9298 -1.53606 -1.00752 0
M  V30 782 C 71.9918 -2.86087 2.17702 0
M  V30 783 C 71.6558 -2.73034 3.66472 0
M  V30 784 C 72.6528 -2.42526 4.59866 0
M  V30 785 C 70.3378 -2.90345 4.09884 0
M  V30 786 C 72.3318 -2.29492 5.94653 0
M  V30 787 C 70.0188 -2.7693 5.4475 0
M  V30 788 C 71.0168 -2.46547 6.36949 0
M  V30 789 O 70.7048 -2.33199 7.69333 0
M  V30 790 H 70.4368 -0.481773 0.474205 0
M  V30 791 H 72.9908 -0.934465 1.82912 0
M  V30 792 H 71.2208 -3.48458 1.67672 0
M  V30 793 H 72.9098 -3.47625 2.09551 0
M  V30 794 H 73.6758 -2.28816 4.27631 0
M  V30 795 H 69.5548 -3.1299 3.38464 0
M  V30 796 H 73.0988 -2.05698 6.66584 0
M  V30 797 H 68.9958 -2.90215 5.76581 0
M  V30 798 H 69.7638 -2.48376 7.79905 0
M  V30 799 N 72.4269 -1.23603 -0.977757 0
M  V30 800 C 73.3569 -1.04401 -2.0886 0
M  V30 801 C 74.3379 0.0399052 -1.70053 0
M  V30 802 O 75.5229 -0.125246 -1.93796 0
M  V30 803 C 72.6529 -0.637269 -3.41403 0
M  V30 804 C 71.6069 -1.66883 -3.94124 0
M  V30 805 C 70.9329 -1.11745 -5.22893 0
M  V30 806 C 72.2329 -3.06247 -4.23096 0
M  V30 807 H 73.9269 -1.97316 -2.25182 0
M  V30 808 H 71.4729 -0.950096 -1.08209 0
M  V30 809 H 73.4259 -0.48998 -4.18542 0
M  V30 810 H 72.1499 0.327557 -3.24953 0
M  V30 811 H 70.8089 -1.80416 -3.19133 0
M  V30 812 H 70.4569 -0.143527 -5.02795 0
M  V30 813 H 70.1569 -1.80672 -5.59134 0
M  V30 814 H 71.6809 -0.982067 -6.02651 0
M  V30 815 H 73.0949 -2.96001 -4.90975 0
M  V30 816 H 71.4919 -3.72436 -4.70544 0
M  V30 817 H 72.5619 -3.55041 -3.30263 0
M  V30 818 N 73.905 1.17692 -1.04816 0
M  V30 819 C 74.868 2.19787 -0.650117 0
M  V30 820 C 75.868 1.58044 0.296427 0
M  V30 821 O 77.058 1.74012 0.0808097 0
M  V30 822 C 74.19 3.40869 0.0456987 0
M  V30 823 H 75.383 2.56516 -1.5537 0
M  V30 824 H 72.936 1.31708 -0.841594 0
M  V30 825 H 73.671 3.09681 0.962726 0
M  V30 826 H 73.456 3.86928 -0.634727 0
M  V30 827 H 74.946 4.16445 0.310432 0
M  V30 828 N 75.3831 0.828654 1.34056 0
M  V30 829 C 76.3131 0.269443 2.3194 0
M  V30 830 C 77.2941 -0.617247 1.58506 0
M  V30 831 O 78.4791 -0.542931 1.86456 0
M  V30 832 C 75.6091 -0.564793 3.42677 0
M  V30 833 C 74.5631 0.225241 4.27407 0
M  V30 834 C 73.8891 -0.7321 5.29664 0
M  V30 835 C 75.1891 1.43663 5.02154 0
M  V30 836 H 76.8831 1.08728 2.7896 0
M  V30 837 H 74.4291 0.524283 1.34117 0
M  V30 838 H 76.3821 -0.966233 4.10173 0
M  V30 839 H 75.1061 -1.41574 2.9432 0
M  V30 840 H 73.7651 0.608117 3.61521 0
M  V30 841 H 73.4131 -1.57916 4.77568 0
M  V30 842 H 73.1131 -0.20767 5.87233 0
M  V30 843 H 74.6371 -1.13128 6.00029 0
M  V30 844 H 76.0511 1.1089 5.62473 0
M  V30 845 H 74.4481 1.89711 5.69324 0
M  V30 846 H 75.5181 2.21181 4.31517 0
M  V30 847 N 76.8612 -1.46375 0.584142 0
M  V30 848 C 77.8242 -2.28784 -0.138108 0
M  V30 849 C 78.8242 -1.38471 -0.817462 0
M  V30 850 O 80.0142 -1.60833 -0.669199 0
M  V30 851 C 77.1462 -3.18892 -1.20503 0
M  V30 852 H 78.3392 -2.94117 0.586127 0
M  V30 853 H 75.8922 -1.52509 0.342171 0
M  V30 854 H 76.6272 -2.58309 -1.96079 0
M  V30 855 H 76.4122 -3.85388 -0.722384 0
M  V30 856 H 77.9022 -3.80914 -1.71155 0
M  V30 857 N 78.3393 -0.321999 -1.54275 0
M  V30 858 C 79.2873 0.560206 -2.25753 0
M  V30 859 C 80.2813 1.11984 -1.27106 0
M  V30 860 O 81.4873 1.06806 -1.44888 0
M  V30 861 H 77.8623 0.199304 -0.725108 0
M  V30 862 H 79.8333 -0.0649365 -2.98329 0
M  V30 863 C 78.5823 1.71023 -3.02731 0
M  V30 864 H 77.9053 1.28885 -3.78456 0
M  V30 865 H 79.3453 2.30314 -3.55993 0
M  V30 866 C 77.8043 2.62692 -2.10938 0
M  V30 867 O 78.3343 3.64364 -1.6912 0
M  V30 868 N 76.5403 2.30891 -1.76459 0
M  V30 869 H 76.0873 1.48253 -2.10663 0
M  V30 870 H 76.0453 2.92487 -1.1532 0
M  V30 871 N 79.8174 1.5752 -0.0501392 0
M  V30 872 C 80.7674 2.07981 0.934231 0
M  V30 873 C 81.7514 0.984745 1.27246 0
M  V30 874 O 82.9434 1.24809 1.25506 0
M  V30 875 C 80.0724 2.62751 2.20945 0
M  V30 876 C 79.1584 3.79225 1.89865 0
M  V30 877 N 79.5494 4.89036 1.29142 0
M  V30 878 C 77.8474 3.88111 2.19741 0
M  V30 879 C 78.5484 5.70084 1.15669 0
M  V30 880 N 77.5244 5.17659 1.65923 0
M  V30 881 H 81.3264 2.90277 0.460053 0
M  V30 882 H 78.8404 1.61665 0.15434 0
M  V30 883 H 80.8374 2.97205 2.9236 0
M  V30 884 H 79.4974 1.81894 2.6897 0
M  V30 885 H 80.5084 5.08854 0.963756 0
M  V30 886 H 77.1854 3.18194 2.70293 0
M  V30 887 H 78.5754 6.68395 0.685356 0
M  V30 888 N 81.2955 -0.223234 1.56011 0
M  V30 889 C 82.7065 -0.790368 1.69145 0
M  V30 890 C 83.0575 -1.85055 0.651845 0
M  V30 891 O 82.1825 -2.15498 -0.197359 0
M  V30 892 C 82.7775 -1.4404 3.06656 0
M  V30 893 C 81.3365 -1.95494 3.2165 0
M  V30 894 C 80.4835 -0.814506 2.65068 0
M  V30 895 H 83.4345 0.00139011 1.587 0
M  V30 896 H 83.4555 -2.30916 3.0242 0
M  V30 897 H 82.9675 -0.668543 3.82298 0
M  V30 898 H 81.0685 -2.75487 2.50874 0
M  V30 899 H 81.1815 -2.13607 4.28846 0
M  V30 900 H 79.5455 -1.22137 2.23505 0
M  V30 901 H 80.3285 -0.0553515 3.43255 0
M  V30 902 N 82.7736 -1.49793 -0.48987 0
M  V30 903 C 83.7036 -1.70201 -1.59856 0
M  V30 904 C 84.6846 -0.55076 -1.60937 0
M  V30 905 O 85.8696 -0.787841 -1.77501 0
M  V30 906 C 82.9996 -1.77882 -2.98287 0
M  V30 907 C 81.9536 -2.92907 -3.12073 0
M  V30 908 C 81.2796 -2.85712 -4.51965 0
M  V30 909 C 82.5796 -4.3369 -2.91051 0
M  V30 910 H 84.2736 -2.63025 -1.43032 0
M  V30 911 H 81.8196 -1.26574 -0.686664 0
M  V30 912 H 83.7726 -1.90744 -3.75759 0
M  V30 913 H 82.4966 -0.816653 -3.16225 0
M  V30 914 H 81.1556 -2.79665 -2.37029 0
M  V30 915 H 80.8036 -1.8738 -4.66795 0
M  V30 916 H 80.5036 -3.62921 -4.62128 0
M  V30 917 H 82.0276 -3.00598 -5.31482 0
M  V30 918 H 83.4416 -4.47555 -3.58284 0
M  V30 919 H 81.8386 -5.12205 -3.12675 0
M  V30 920 H 82.9086 -4.47362 -1.87071 0
M  V30 921 N 84.2517 0.741722 -1.39055 0
M  V30 922 C 85.5007 1.49656 -1.35225 0
M  V30 923 C 85.8137 1.95533 0.0512708 0
M  V30 924 O 87.0197 2.7067 0.212138 0
M  V30 925 C 85.4757 2.70389 -2.37525 0
M  V30 926 C 85.0837 2.31489 -3.83558 0
M  V30 927 C 86.8277 3.48236 -2.42759 0
M  V30 928 C 84.7347 3.48903 -4.77515 0
M  V30 929 H 83.6647 0.56197 -0.502699 0
M  V30 930 H 86.3157 0.809727 -1.64668 0
M  V30 931 H 84.6977 3.41113 -2.01142 0
M  V30 932 H 85.8717 1.68354 -4.28945 0
M  V30 933 H 84.1867 1.66749 -3.81554 0
M  V30 934 H 86.7837 4.35558 -3.1015 0
M  V30 935 H 87.1267 3.90229 -1.45008 0
M  V30 936 H 87.6597 2.84535 -2.78002 0
M  V30 937 H 84.3987 3.11966 -5.76504 0
M  V30 938 H 83.9187 4.11041 -4.36813 0
M  V30 939 H 85.5977 4.15328 -4.96096 0
M  V30 940 N 85.7298 1.2412 0.971189 0
M  V30 941 C 86.6768 1.0305 2.06517 0
M  V30 942 C 87.6468 -0.0550666 1.66009 0
M  V30 943 O 88.8318 0.0988688 1.90544 0
M  V30 944 C 85.9718 0.637653 3.39158 0
M  V30 945 C 85.0848 1.79633 3.92882 0
M  V30 946 C 84.2198 1.34939 5.13775 0
M  V30 947 C 83.2588 2.47823 5.59687 0
M  V30 948 N 82.3958 2.04022 6.71803 0
M  V30 949 H 87.2358 1.96685 2.23873 0
M  V30 950 H 84.7728 0.979694 1.09729 0
M  V30 951 H 86.7308 0.390931 4.15364 0
M  V30 952 H 85.3608 -0.261693 3.21737 0
M  V30 953 H 84.4128 2.15681 3.13346 0
M  V30 954 H 85.7248 2.64466 4.22918 0
M  V30 955 H 84.8788 1.06134 5.97345 0
M  V30 956 H 83.6178 0.471557 4.85415 0
M  V30 957 H 82.6228 2.77392 4.74693 0
M  V30 958 H 83.8478 3.36158 5.90063 0
M  V30 959 H 81.7938 1.18632 6.45184 0
M  V30 960 H 81.7108 2.82409 7.01271 0
M  V30 961 H 82.9788 1.78347 7.58823 0
M  V30 962 N 87.2079 -1.17134 1.05439 0
M  V30 963 C 88.1709 -2.19439 0.661764 0
M  V30 964 C 89.1709 -1.58199 -0.288042 0
M  V30 965 O 90.3609 -1.74053 -0.0715803 0
M  V30 966 C 87.4929 -3.40889 -0.0276209 0
M  V30 967 H 88.6859 -2.55688 1.56728 0
M  V30 968 H 86.2389 -1.31259 0.848567 0
M  V30 969 H 86.9739 -3.10187 -0.94629 0
M  V30 970 H 86.7589 -3.86586 0.655238 0
M  V30 971 H 88.2489 -4.16603 -0.288342 0
M  V30 972 N 88.686 -0.835752 -1.33615 0
M  V30 973 C 90.102 -0.523139 -1.50783 0
M  V30 974 C 90.302 0.950171 -1.77691 0
M  V30 975 O 89.358 1.73411 -1.83534 0
M  V30 976 C 90.671 -1.39378 -2.66448 0
M  V30 977 C 92.219 -1.39223 -2.80332 0
M  V30 978 C 92.694 -2.24765 -3.99055 0
M  V30 979 N 94.185 -2.22458 -4.06284 0
M  V30 980 C 94.92 -2.85386 -4.97336 0
M  V30 981 N 94.416 -3.57354 -5.93523 0
M  V30 982 N 96.209 -2.74872 -4.90308 0
M  V30 983 H 88.36 -1.78952 -1.14411 0
M  V30 984 H 90.623 -0.763297 -0.562212 0
M  V30 985 H 90.329 -2.44061 -2.53234 0
M  V30 986 H 90.203 -1.0676 -3.61776 0
M  V30 987 H 92.59 -0.353136 -2.92979 0
M  V30 988 H 92.671 -1.75846 -1.85773 0
M  V30 989 H 92.315 -3.28732 -3.87167 0
M  V30 990 H 92.245 -1.85485 -4.92852 0
M  V30 991 H 94.736 -1.70119 -3.37443 0
M  V30 992 H 95.049 -4.02584 -6.59656 0
M  V30 993 H 93.394 -3.61461 -5.93608 0
M  V30 994 H 96.585 -2.18213 -4.14126 0
M  V30 995 H 96.758 -3.24199 -5.61069 0
M  V30 996 N 90.1641 1.46063 -0.591896 0
M  V30 997 C 91.0941 2.33172 0.123673 0
M  V30 998 C 92.0751 1.45897 0.87453 0
M  V30 999 O 93.2601 1.74698 0.848181 0
M  V30 1000 C 90.3901 3.28336 1.13194 0
M  V30 1001 C 89.3441 4.25124 0.495324 0
M  V30 1002 C 88.6701 5.09863 1.61071 0
M  V30 1003 C 89.9701 5.19143 -0.573425 0
M  V30 1004 H 91.6641 2.93252 -0.603646 0
M  V30 1005 H 89.2101 1.41014 -0.291741 0
M  V30 1006 H 91.1631 3.88137 1.64097 0
M  V30 1007 H 89.8871 2.66383 1.88965 0
M  V30 1008 H 88.5461 3.66599 0.00729452 0
M  V30 1009 H 88.1941 4.44288 2.35832 0
M  V30 1010 H 87.8941 5.75417 1.19035 0
M  V30 1011 H 89.4181 5.72529 2.12233 0
M  V30 1012 H 90.8321 5.73106 -0.1491 0
M  V30 1013 H 89.2291 5.93089 -0.914636 0
M  V30 1014 H 90.2991 4.62519 -1.45617 0
M  V30 1015 N 91.6422 0.330177 1.54103 0
M  V30 1016 C 92.6052 -0.520144 2.2322 0
M  V30 1017 C 93.6052 -1.03828 1.22786 0
M  V30 1018 O 94.7952 -0.929652 1.4732 0
M  V30 1019 C 91.9272 -1.72317 2.94142 0
M  V30 1020 H 93.1202 0.0841605 2.99782 0
M  V30 1021 H 90.6732 0.0813433 1.56088 0
M  V30 1022 H 91.4082 -2.36653 2.21734 0
M  V30 1023 H 91.1932 -1.35898 3.67796 0
M  V30 1024 H 92.6832 -2.3266 3.46784 0
M  V30 1025 N 93.1203 -1.57491 0.0584922 0
M  V30 1026 C 94.0673 -2.11958 -0.913376 0
M  V30 1027 C 95.0373 -1.02875 -1.30407 0
M  V30 1028 O 96.2223 -1.30464 -1.39226 0
M  V30 1029 C 93.3623 -2.67497 -2.18035 0
M  V30 1030 C 92.4753 -3.90691 -1.84349 0
M  V30 1031 C 91.6103 -4.3452 -3.05559 0
M  V30 1032 C 90.6493 -5.50395 -2.67827 0
M  V30 1033 N 89.7863 -5.89244 -3.81754 0
M  V30 1034 H 94.6263 -2.94704 -0.442017 0
M  V30 1035 H 92.1633 -1.45643 -0.206545 0
M  V30 1036 H 94.1213 -2.978 -2.92183 0
M  V30 1037 H 92.7513 -1.87537 -2.62735 0
M  V30 1038 H 91.8033 -3.66934 -1.00319 0
M  V30 1039 H 93.1153 -4.7489 -1.5258 0
M  V30 1040 H 92.2693 -4.66414 -3.87998 0
M  V30 1041 H 91.0083 -3.49147 -3.40511 0
M  V30 1042 H 90.0133 -5.18165 -1.83806 0
M  V30 1043 H 91.2383 -6.3749 -2.34059 0
M  V30 1044 H 89.1843 -5.06823 -4.16493 0
M  V30 1045 H 89.1013 -6.68151 -3.53708 0
M  V30 1046 H 90.3693 -6.25756 -4.64811 0
M  V30 1047 N 94.5984 0.214957 -1.56127 0
M  V30 1048 C 95.8234 0.95924 -1.83884 0
M  V30 1049 C 96.2484 1.7689 -0.639644 0
M  V30 1050 O 95.6064 1.76566 0.411601 0
M  V30 1051 C 95.6544 1.84723 -3.09693 0
M  V30 1052 O 94.7584 2.94346 -2.8885 0
M  V30 1053 H 94.0994 0.27125 -0.606069 0
M  V30 1054 H 96.6294 0.226276 -2.03345 0
M  V30 1055 H 96.6394 2.25576 -3.39969 0
M  V30 1056 H 95.3144 1.25218 -3.96602 0
M  V30 1057 H 93.8914 2.57391 -2.69823 0
M  V30 1058 N 96.0765 1.50051 0.48192 0
M  V30 1059 C 97.0065 1.71046 1.58951 0
M  V30 1060 C 97.9875 0.559288 1.60642 0
M  V30 1061 O 99.1725 0.797243 1.77081 0
M  V30 1062 C 96.3025 1.79462 2.97339 0
M  V30 1063 C 95.2565 2.94558 3.10515 0
M  V30 1064 C 94.5825 2.88105 4.50444 0
M  V30 1065 C 95.8825 4.35227 2.88747 0
M  V30 1066 H 97.5765 2.6378 1.41635 0
M  V30 1067 H 95.1225 1.26936 0.679942 0
M  V30 1068 H 97.0755 1.92734 3.74742 0
M  V30 1069 H 95.7995 0.833412 3.15788 0
M  V30 1070 H 94.4585 2.80918 2.35543 0
M  V30 1071 H 94.1065 1.89853 4.65795 0
M  V30 1072 H 93.8065 3.65366 4.60197 0
M  V30 1073 H 95.3305 3.03412 5.29881 0
M  V30 1074 H 96.7445 4.49449 3.55905 0
M  V30 1075 H 95.1415 5.13856 3.09955 0
M  V30 1076 H 96.2115 4.48347 1.84696 0
M  V30 1077 N 97.5546 -0.734337 1.39446 0
M  V30 1078 C 98.4846 -1.86155 1.40955 0
M  V30 1079 C 99.4656 -1.67898 0.272827 0
M  V30 1080 O 100.651 -1.88207 0.478743 0
M  V30 1081 C 97.7806 -3.23912 1.25294 0
M  V30 1082 C 96.7346 -3.56808 2.36373 0
M  V30 1083 C 96.0606 -4.93508 2.058 0
M  V30 1084 C 97.3606 -3.59713 3.78687 0
M  V30 1085 H 99.0546 -1.8515 2.35287 0
M  V30 1086 H 96.6006 -0.889367 1.13253 0
M  V30 1087 H 98.5536 -4.02443 1.2497 0
M  V30 1088 H 97.2776 -3.25446 0.274308 0
M  V30 1089 H 95.9366 -2.80606 2.35914 0
M  V30 1090 H 95.5846 -4.91623 1.06374 0
M  V30 1091 H 95.2846 -5.16486 2.80208 0
M  V30 1092 H 96.8086 -5.74396 2.07128 0
M  V30 1093 H 98.2226 -4.2832 3.81071 0
M  V30 1094 H 96.6196 -3.94209 4.52459 0
M  V30 1095 H 97.6896 -2.59504 4.09617 0
M  V30 1096 N 99.0327 -1.24633 -0.964593 0
M  V30 1097 C 99.9427 -1.05859 -2.09359 0
M  V30 1098 C 100.959 0.00148855 -1.74 0
M  V30 1099 O 102.135 -0.197346 -2.00431 0
M  V30 1100 C 99.1997 -0.668879 -3.40187 0
M  V30 1101 C 98.2607 -1.80578 -3.89474 0
M  V30 1102 C 97.4937 -1.43457 -5.14058 0
M  V30 1103 O 97.7167 -0.325775 -5.69469 0
M  V30 1104 O 96.6507 -2.2613 -5.57807 0
M  V30 1105 H 100.477 -2.00516 -2.28094 0
M  V30 1106 H 98.0617 -1.03481 -1.0776 0
M  V30 1107 H 99.9437 -0.463211 -4.18846 0
M  V30 1108 H 98.6187 0.248536 -3.22744 0
M  V30 1109 H 97.5257 -2.06623 -3.11862 0
M  V30 1110 H 98.8587 -2.70208 -4.11398 0
M  V30 1111 N 100.511 1.16574 -1.06058 0
M  V30 1112 C 101.421 2.2452 -0.680282 0
M  V30 1113 C 102.437 1.71348 0.302604 0
M  V30 1114 O 103.613 2.00822 0.152513 0
M  V30 1115 C 100.678 3.46629 -0.0700315 0
M  V30 1116 C 99.7388 4.14849 -1.10448 0
M  V30 1117 C 98.9718 5.31129 -0.523256 0
M  V30 1118 O 99.1948 5.66514 0.664709 0
M  V30 1119 O 98.1288 5.88526 -1.26179 0
M  V30 1120 H 101.955 2.59355 -1.58015 0
M  V30 1121 H 99.5398 1.24043 -0.832694 0
M  V30 1122 H 101.422 4.20543 0.268667 0
M  V30 1123 H 100.097 3.13573 0.803353 0
M  V30 1124 H 99.0038 3.42916 -1.49532 0
M  V30 1125 H 100.337 4.51954 -1.94931 0
M  V30 1126 N 101.989 0.842826 1.3317 0
M  V30 1127 C 102.921 0.236245 2.27979 0
M  V30 1128 C 103.934 -0.585282 1.51915 0
M  V30 1129 O 105.123 -0.411705 1.73687 0
M  V30 1130 C 102.223 -0.685717 3.3189 0
M  V30 1131 C 101.396 0.0973448 4.37292 0
M  V30 1132 C 100.455 -0.748565 5.20848 0
M  V30 1133 O 99.4809 -0.186339 5.68895 0
M  V30 1134 N 100.683 -2.06527 5.42519 0
M  V30 1135 H 103.448 1.05088 2.80672 0
M  V30 1136 H 101.009 0.701667 1.45905 0
M  V30 1137 H 103.001 -1.25669 3.84694 0
M  V30 1138 H 101.571 -1.40105 2.79445 0
M  V30 1139 H 100.791 0.849706 3.84933 0
M  V30 1140 H 102.079 0.635643 5.04814 0
M  V30 1141 H 101.477 -2.54554 5.05192 0
M  V30 1142 H 100.034 -2.58464 5.98364 0
M  V30 1143 N 103.467 -1.45747 0.599634 0
M  V30 1144 C 104.399 -2.28628 -0.161879 0
M  V30 1145 C 105.412 -1.39494 -0.839367 0
M  V30 1146 O 106.601 -1.63941 -0.706089 0
M  V30 1147 C 103.701 -3.15014 -1.24976 0
M  V30 1148 C 102.874 -4.32378 -0.660935 0
M  V30 1149 C 101.933 -5.00033 -1.63869 0
M  V30 1150 O 100.959 -5.57085 -1.1681 0
M  V30 1151 N 102.161 -4.98589 -2.97303 0
M  V30 1152 H 104.926 -2.94624 0.549265 0
M  V30 1153 H 102.487 -1.55847 0.438565 0
M  V30 1154 H 104.479 -3.5714 -1.9035 0
M  V30 1155 H 103.049 -2.5098 -1.86354 0
M  V30 1156 H 102.269 -3.9383 0.170688 0
M  V30 1157 H 103.557 -5.08197 -0.247619 0
M  V30 1158 H 102.955 -4.53514 -3.38145 0
M  V30 1159 H 101.512 -5.44603 -3.58121 0
M  V30 1160 N 104.945 -0.338344 -1.53925 0
M  V30 1161 C 106.17 0.263987 -2.05713 0
M  V30 1162 C 106.595 1.43847 -1.21201 0
M  V30 1163 O 105.953 1.79904 -0.224535 0
M  V30 1164 C 106.001 0.662 -3.54471 0
M  V30 1165 O 105.105 1.76265 -3.72833 0
M  V30 1166 H 104.446 0.0448722 -0.662482 0
M  V30 1167 H 106.976 -0.491048 -1.9862 0
M  V30 1168 H 106.986 0.940594 -3.9701 0
M  V30 1169 H 105.661 -0.196937 -4.15433 0
M  V30 1170 H 104.238 1.48173 -3.42198 0
M  V30 1171 N 106.423 1.57458 -0.0668435 0
M  V30 1172 C 107.353 2.15468 0.899764 0
M  V30 1173 C 108.334 1.08042 1.31381 0
M  V30 1174 O 109.519 1.36054 1.38574 0
M  V30 1175 C 106.649 2.71232 2.16911 0
M  V30 1176 C 105.603 3.83781 1.89463 0
M  V30 1177 C 104.929 4.26127 3.22986 0
M  V30 1178 C 106.229 5.08238 1.20381 0
M  V30 1179 H 107.923 2.96488 0.416529 0
M  V30 1180 H 105.469 1.4262 0.198908 0
M  V30 1181 H 107.422 3.10458 2.84945 0
M  V30 1182 H 106.146 1.87426 2.67468 0
M  V30 1183 H 104.805 3.45051 1.23836 0
M  V30 1184 H 104.453 3.39249 3.71374 0
M  V30 1185 H 104.153 5.01993 3.05413 0
M  V30 1186 H 105.677 4.67966 3.92225 0
M  V30 1187 H 107.091 5.44811 1.78475 0
M  V30 1188 H 105.488 5.89349 1.13083 0
M  V30 1189 H 106.558 4.84558 0.182153 0
M  V30 1190 N 107.901 -0.206675 1.56239 0
M  V30 1191 C 109.148 -0.928842 1.79941 0
M  V30 1192 C 109.476 -1.83734 0.638131 0
M  V30 1193 O 108.731 -1.92039 -0.376746 0
M  V30 1194 C 109.03 -1.78675 3.09532 0
M  V30 1195 C 108.696 -1.03022 4.38973 0
M  V30 1196 C 107.358 -0.821302 4.74139 0
M  V30 1197 C 109.71 -0.497081 5.18824 0
M  V30 1198 C 107.038 -0.0675719 5.86661 0
M  V30 1199 C 109.39 0.24338 6.32132 0
M  V30 1200 C 108.054 0.463422 6.65889 0
M  V30 1201 H 107.324 -0.339887 0.658451 0
M  V30 1202 H 109.971 -0.195977 1.90495 0
M  V30 1203 H 108.276 -2.58794 2.94165 0
M  V30 1204 H 109.973 -2.34792 3.25075 0
M  V30 1205 H 106.563 -1.20306 4.11369 0
M  V30 1206 H 110.747 -0.645921 4.92079 0
M  V30 1207 H 106.003 0.112995 6.11296 0
M  V30 1208 H 110.177 0.66393 6.93228 0
M  V30 1209 H 107.804 1.04938 7.52922 0
M  V30 1210 N 109.379 -1.50304 -0.473955 0
M  V30 1211 C 110.312 -1.63595 -1.59097 0
M  V30 1212 C 111.29 -0.484142 -1.55225 0
M  V30 1213 O 112.474 -0.703271 -1.7489 0
M  V30 1214 C 109.601 -1.61589 -2.97669 0
M  V30 1215 C 108.647 -2.82295 -3.19705 0
M  V30 1216 S 109.48 -4.43635 -2.99913 0
M  V30 1217 C 110.636 -4.44317 -4.40832 0
M  V30 1218 H 110.869 -2.58082 -1.47583 0
M  V30 1219 H 108.402 -1.39531 -0.661087 0
M  V30 1220 H 110.36 -1.61116 -3.7756 0
M  V30 1221 H 109.021 -0.683421 -3.06575 0
M  V30 1222 H 108.214 -2.77188 -4.20931 0
M  V30 1223 H 107.816 -2.8032 -2.47582 0
M  V30 1224 H 110.108 -4.17703 -5.33414 0
M  V30 1225 H 111.051 -5.45911 -4.50984 0
M  V30 1226 H 111.459 -3.74059 -4.22777 0
M  V30 1227 N 110.857 0.726932 -1.39834 0
M  V30 1228 C 112.082 1.52121 -1.40976 0
M  V30 1229 C 112.507 1.88098 -0.00826029 0
M  V30 1230 O 111.865 1.52479 0.980807 0
M  V30 1231 C 111.913 2.78021 -2.29644 0
M  V30 1232 O 111.017 3.74272 -1.73188 0
M  V30 1233 H 110.358 0.45908 -0.479731 0
M  V30 1234 H 112.888 0.896207 -1.83927 0
M  V30 1235 H 112.898 3.26671 -2.44438 0
M  V30 1236 H 111.573 2.51169 -3.31492 0
M  V30 1237 H 110.15 3.33073 -1.6768 0
M  V30 1238 N 112.336 1.25143 0.95797 0
M  V30 1239 C 113.299 1.05321 2.03569 0
M  V30 1240 C 114.299 0.007152 1.60798 0
M  V30 1241 O 115.489 0.24903 1.72411 0
M  V30 1242 C 112.621 0.598394 3.35607 0
M  V30 1243 H 113.814 2.00986 2.22586 0
M  V30 1244 H 111.367 1.07502 1.13459 0
M  V30 1245 H 112.102 -0.361014 3.22284 0
M  V30 1246 H 111.887 1.35351 3.67998 0
M  V30 1247 H 113.377 0.48104 4.1482 0
M  V30 1248 N 113.814 -1.1601 1.06675 0
M  V30 1249 C 115.039 -1.91068 0.806706 0
M  V30 1250 C 115.464 -1.77112 -0.633485 0
M  V30 1251 O 114.822 -1.09908 -1.44187 0
M  V30 1252 C 114.87 -3.39655 1.21106 0
M  V30 1253 O 113.974 -4.10893 0.352189 0
M  V30 1254 H 113.315 -0.595125 0.294486 0
M  V30 1255 H 115.845 -1.46955 1.42356 0
M  V30 1256 H 115.855 -3.90434 1.18428 0
M  V30 1257 H 114.53 -3.49132 2.26008 0
M  V30 1258 H 113.107 -3.70285 0.440868 0
M  V30 1259 N 115.292 -0.849877 -1.32721 0
M  V30 1260 C 116.539 -0.450923 -1.97416 0
M  V30 1261 C 116.867 0.992376 -1.67279 0
M  V30 1262 O 116.122 1.71048 -0.950845 0
M  V30 1263 C 116.421 -0.631272 -3.51781 0
M  V30 1264 C 116.087 -2.04432 -4.01894 0
M  V30 1265 C 114.749 -2.4308 -4.1529 0
M  V30 1266 C 117.101 -2.96679 -4.28522 0
M  V30 1267 C 114.429 -3.73257 -4.52654 0
M  V30 1268 C 116.781 -4.26349 -4.67343 0
M  V30 1269 C 115.445 -4.64939 -4.78945 0
M  V30 1270 H 114.715 -0.165004 -0.722395 0
M  V30 1271 H 117.362 -1.07901 -1.58207 0
M  V30 1272 H 115.667 0.0800767 -3.91718 0
M  V30 1273 H 117.364 -0.302709 -3.99856 0
M  V30 1274 H 113.954 -1.73419 -3.91949 0
M  V30 1275 H 118.138 -2.68054 -4.17685 0
M  V30 1276 H 113.394 -4.02946 -4.59831 0
M  V30 1277 H 117.568 -4.97895 -4.86902 0
M  V30 1278 H 115.195 -5.65855 -5.07654 0
M  V30 1279 N 116.77 1.45427 -0.607355 0
M  V30 1280 C 117.7 2.3329 0.0989352 0
M  V30 1281 C 118.681 1.46816 0.859007 0
M  V30 1282 O 119.866 1.75588 0.829604 0
M  V30 1283 C 116.996 3.29518 1.09705 0
M  V30 1284 C 115.95 4.25626 0.450206 0
M  V30 1285 C 115.276 5.11542 1.55655 0
M  V30 1286 C 116.576 5.18505 -0.628455 0
M  V30 1287 H 118.27 2.92595 -0.634716 0
M  V30 1288 H 115.816 1.40696 -0.306681 0
M  V30 1289 H 117.769 3.89855 1.59971 0
M  V30 1290 H 116.493 2.68372 1.86129 0
M  V30 1291 H 115.152 3.66586 -0.0315886 0
M  V30 1292 H 114.8 4.46765 2.31107 0
M  V30 1293 H 114.5 5.76647 1.12925 0
M  V30 1294 H 116.024 5.74748 2.06148 0
M  V30 1295 H 117.438 5.72916 -0.209877 0
M  V30 1296 H 115.835 5.92085 -0.977489 0
M  V30 1297 H 116.905 4.60948 -1.50514 0
M  V30 1298 N 118.248 0.346503 1.53744 0
M  V30 1299 C 119.18 -0.543316 2.22667 0
M  V30 1300 C 120.193 -1.06159 1.23427 0
M  V30 1301 O 121.382 -0.971235 1.49764 0
M  V30 1302 C 118.482 -1.76076 2.89569 0
M  V30 1303 C 117.655 -1.37727 4.15151 0
M  V30 1304 C 116.714 -2.45471 4.65436 0
M  V30 1305 O 115.74 -2.08655 5.29577 0
M  V30 1306 N 116.942 -3.7677 4.41616 0
M  V30 1307 H 119.707 0.0469703 2.99663 0
M  V30 1308 H 117.268 0.170766 1.60997 0
M  V30 1309 H 119.26 -2.47593 3.20125 0
M  V30 1310 H 117.83 -2.25835 2.16142 0
M  V30 1311 H 117.05 -0.492746 3.91108 0
M  V30 1312 H 118.338 -1.09708 4.96832 0
M  V30 1313 H 117.736 -4.09467 3.90325 0
M  V30 1314 H 116.293 -4.44448 4.7677 0
M  V30 1315 N 119.726 -1.57421 0.075193 0
M  V30 1316 C 120.674 -2.14124 -0.908508 0
M  V30 1317 C 121.668 -1.07898 -1.30592 0
M  V30 1318 O 122.874 -1.26273 -1.28277 0
M  V30 1319 H 119.249 -0.684707 -0.310935 0
M  V30 1320 H 121.22 -2.95634 -0.405374 0
M  V30 1321 C 119.969 -2.72044 -2.16535 0
M  V30 1322 H 119.292 -3.53456 -1.86839 0
M  V30 1323 H 120.732 -3.15311 -2.83469 0
M  V30 1324 C 119.191 -1.66968 -2.92615 0
M  V30 1325 O 119.721 -1.0967 -3.86439 0
M  V30 1326 N 117.927 -1.37923 -2.55784 0
M  V30 1327 H 117.474 -1.84706 -1.79559 0
M  V30 1328 H 117.432 -0.67852 -3.06991 0
M  V30 1329 N 121.204 0.198386 -1.56346 0
M  V30 1330 C 122.481 0.944982 -1.71258 0
M  V30 1331 C 122.861 2.0151 -0.629048 0
M  V30 1332 O 122.209 2.25639 0.360473 0
M  V30 1333 C 122.419 1.5344 -3.1346 0
M  V30 1334 C 123.767 2.01778 -3.73591 0
M  V30 1335 O 124.791 1.63288 -3.16568 0
M  V30 1336 O 123.65 2.72594 -4.73661 0
M  V30 1337 H 120.744 0.442939 -0.69838 0
M  V30 1338 H 123.29 0.188342 -1.68652 0
M  V30 1339 H 122.062 0.762869 -3.83792 0
M  V30 1340 H 121.685 2.35596 -3.20282 0
M  V30 1341 N 122.682 1.50554 0.465978 0
M  V30 1342 C 123.912 1.65323 1.23903 0
M  V30 1343 C 124.32 0.338051 1.86155 0
M  V30 1344 O 123.663 -0.690518 1.70228 0
M  V30 1345 C 123.725 2.69048 2.3844 0
M  V30 1346 C 123.389 4.12462 1.96784 0
M  V30 1347 C 124.386 4.98168 1.48745 0
M  V30 1348 C 122.071 4.58407 2.05349 0
M  V30 1349 C 124.065 6.27868 1.0982 0
M  V30 1350 C 121.752 5.88112 1.66035 0
M  V30 1351 C 122.75 6.72668 1.18349 0
M  V30 1352 O 122.438 7.99951 0.795825 0
M  V30 1353 H 122.17 0.558629 0.38067 0
M  V30 1354 H 124.724 1.97561 0.562022 0
M  V30 1355 H 122.954 2.32062 3.09328 0
M  V30 1356 H 124.643 2.72985 3.0039 0
M  V30 1357 H 125.409 4.63885 1.41546 0
M  V30 1358 H 121.288 3.92735 2.41414 0
M  V30 1359 H 124.832 6.93819 0.725293 0
M  V30 1360 H 120.729 6.21914 1.72895 0
M  V30 1361 H 121.497 8.13265 0.924222 0
M  V30 1362 N 124.16 -0.719506 1.40217 0
M  V30 1363 C 125.437 -1.47221 1.28784 0
M  V30 1364 C 125.817 -2.10883 -0.0956067 0
M  V30 1365 O 125.165 -1.99833 -1.10811 0
M  V30 1366 C 125.375 -2.5111 2.42373 0
M  V30 1367 C 126.723 -3.17053 2.82423 0
M  V30 1368 O 127.747 -2.61429 2.41937 0
M  V30 1369 O 126.606 -4.17742 3.52355 0
M  V30 1370 H 123.7 -0.654491 0.50554 0
M  V30 1371 H 126.246 -0.752014 1.52128 0
M  V30 1372 H 125.018 -2.02556 3.34793 0
M  V30 1373 H 124.641 -3.3067 2.20778 0
M  V30 1374 N 125.638 -1.25649 -0.95132 0
M  V30 1375 C 126.585 -1.06323 -2.04851 0
M  V30 1376 C 127.555 0.0286491 -1.66075 0
M  V30 1377 O 128.74 -0.12917 -1.90362 0
M  V30 1378 C 125.88 -0.691529 -3.381 0
M  V30 1379 C 124.993 -1.85861 -3.89974 0
M  V30 1380 C 124.128 -1.43096 -5.11563 0
M  V30 1381 C 123.167 -2.56696 -5.55674 0
M  V30 1382 N 122.304 -2.14684 -6.68472 0
M  V30 1383 H 127.144 -2.00222 -2.20715 0
M  V30 1384 H 124.681 -0.997027 -1.08156 0
M  V30 1385 H 126.639 -0.456963 -4.1469 0
M  V30 1386 H 125.269 0.210474 -3.22113 0
M  V30 1387 H 124.321 -2.20639 -3.09875 0
M  V30 1388 H 125.633 -2.71161 -4.18657 0
M  V30 1389 H 124.787 -1.15624 -5.9558 0
M  V30 1390 H 123.526 -0.548722 -4.84603 0
M  V30 1391 H 122.531 -2.84909 -4.7022 0
M  V30 1392 H 123.756 -3.45503 -5.8464 0
M  V30 1393 H 121.702 -1.28881 -6.43215 0
M  V30 1394 H 121.619 -2.9353 -6.96689 0
M  V30 1395 H 122.887 -1.90397 -7.5589 0
M  V30 1396 N 127.117 1.15442 -1.07289 0
M  V30 1397 C 128.528 1.67803 -0.818475 0
M  V30 1398 C 128.879 1.8489 0.656507 0
M  V30 1399 O 128.004 1.55176 1.50829 0
M  V30 1400 C 128.599 3.04805 -1.47917 0
M  V30 1401 C 127.158 3.54245 -1.27229 0
M  V30 1402 C 126.305 2.29986 -1.54925 0
M  V30 1403 H 129.256 0.996646 -1.23502 0
M  V30 1404 H 129.277 3.69702 -0.90005 0
M  V30 1405 H 128.789 2.92336 -2.55267 0
M  V30 1406 H 126.89 3.71956 -0.21899 0
M  V30 1407 H 127.003 4.35723 -1.99203 0
M  V30 1408 H 125.367 2.35496 -0.970242 0
M  V30 1409 H 126.15 2.20105 -2.63455 0
M  V30 1410 N 128.595 0.856903 1.32268 0
M  V30 1411 C 129.528 0.247937 2.26849 0
M  V30 1412 C 130.506 -0.615382 1.50505 0
M  V30 1413 O 131.69 -0.571689 1.79622 0
M  V30 1414 C 128.817 -0.650093 3.32403 0
M  V30 1415 C 127.863 0.140138 4.2627 0
M  V30 1416 S 128.696 1.51004 5.13769 0
M  V30 1417 C 129.852 0.61778 6.22844 0
M  V30 1418 H 130.085 1.04971 2.78152 0
M  V30 1419 H 127.618 0.654665 1.39834 0
M  V30 1420 H 129.576 -1.16256 3.93694 0
M  V30 1421 H 128.237 -1.4257 2.7988 0
M  V30 1422 H 127.43 -0.543945 5.01056 0
M  V30 1423 H 127.032 0.584267 3.69408 0
M  V30 1424 H 129.324 -0.177053 6.77269 0
M  V30 1425 H 130.267 1.33636 6.95375 0
M  V30 1426 H 130.675 0.191124 5.64176 0
M  V30 1427 N 130.073 -1.45103 0.615059 0
M  V30 1428 C 131.322 -2.01396 0.110718 0
M  V30 1429 C 131.635 -1.48834 -1.26916 0
M  V30 1430 O 132.841 -1.97152 -1.86664 0
M  V30 1431 C 131.297 -3.59599 0.14723 0
M  V30 1432 C 130.905 -4.21158 1.52743 0
M  V30 1433 C 132.649 -4.23428 -0.30148 0
M  V30 1434 C 130.556 -5.71535 1.51992 0
M  V30 1435 H 129.486 -0.753061 0.0376241 0
M  V30 1436 H 132.137 -1.66494 0.77149 0
M  V30 1437 H 130.519 -3.91724 -0.580339 0
M  V30 1438 H 131.693 -4.00594 2.2773 0
M  V30 1439 H 130.008 -3.69552 1.91886 0
M  V30 1440 H 132.605 -5.33703 -0.326392 0
M  V30 1441 H 132.948 -3.94629 -1.32565 0
M  V30 1442 H 133.481 -3.96047 0.373065 0
M  V30 1443 H 130.22 -6.05044 2.52193 0
M  V30 1444 H 129.74 -5.94268 0.81274 0
M  V30 1445 H 131.419 -6.34873 1.24681 0
M  V30 1446 N 131.551 -0.354651 -1.53558 0
M  V30 1447 C 132.461 0.50515 -2.29097 0
M  V30 1448 C 133.477 1.10223 -1.34636 0
M  V30 1449 O 134.653 1.11553 -1.67684 0
M  V30 1450 C 131.718 1.63479 -3.05738 0
M  V30 1451 C 130.779 1.06636 -4.15845 0
M  V30 1452 C 130.012 2.14217 -4.88822 0
M  V30 1453 O 130.235 3.35137 -4.61562 0
M  V30 1454 O 129.169 1.77887 -5.75013 0
M  V30 1455 H 132.995 -0.109237 -3.03503 0
M  V30 1456 H 130.58 -0.119357 -1.48922 0
M  V30 1457 H 132.462 2.2918 -3.5363 0
M  V30 1458 H 131.137 2.23478 -2.34178 0
M  V30 1459 H 130.044 0.373565 -3.7223 0
M  V30 1460 H 131.377 0.511081 -4.89539 0
M  V30 1461 N 133.029 1.57378 -0.0835403 0
M  V30 1462 C 133.976 2.13384 0.879539 0
M  V30 1463 C 134.946 1.04936 1.28754 0
M  V30 1464 O 136.131 1.32662 1.37133 0
M  V30 1465 C 133.271 2.70932 2.13752 0
M  V30 1466 C 132.384 3.93575 1.7811 0
M  V30 1467 C 131.519 4.39326 2.98607 0
M  V30 1468 C 130.558 5.54587 2.59037 0
M  V30 1469 N 129.695 5.95243 3.72331 0
M  V30 1470 H 134.535 2.9537 0.395076 0
M  V30 1471 H 132.072 1.45953 0.183349 0
M  V30 1472 H 134.03 3.02411 2.87408 0
M  V30 1473 H 132.66 1.91693 2.59718 0
M  V30 1474 H 131.712 3.68483 0.94469 0
M  V30 1475 H 133.024 4.77258 1.45005 0
M  V30 1476 H 132.178 4.72528 3.80529 0
M  V30 1477 H 130.917 3.5452 3.34913 0
M  V30 1478 H 129.922 5.21024 1.75539 0
M  V30 1479 H 131.147 6.41133 2.23887 0
M  V30 1480 H 129.093 5.13385 4.08378 0
M  V30 1481 H 129.01 6.73694 3.43034 0
M  V30 1482 H 130.278 6.33072 4.54797 0
M  V30 1483 N 134.507 -0.190092 1.56449 0
M  V30 1484 C 135.923 -0.54113 1.50146 0
M  V30 1485 C 136.123 -1.85603 0.784465 0
M  V30 1486 O 135.179 -2.5024 0.337051 0
M  V30 1487 C 136.492 -0.591241 2.9483 0
M  V30 1488 C 138.04 -0.679732 3.0553 0
M  V30 1489 C 138.515 -0.760908 4.51635 0
M  V30 1490 N 140.006 -0.824302 4.55806 0
M  V30 1491 C 140.741 -0.907365 5.66175 0
M  V30 1492 N 140.237 -0.952422 6.86222 0
M  V30 1493 N 142.03 -0.94494 5.541 0
M  V30 1494 H 134.181 0.67235 2.01478 0
M  V30 1495 H 136.444 0.240127 0.917084 0
M  V30 1496 H 136.15 0.305905 3.50367 0
M  V30 1497 H 136.024 -1.44422 3.48457 0
M  V30 1498 H 138.411 -1.56731 2.50039 0
M  V30 1499 H 138.492 0.199549 2.5502 0
M  V30 1500 H 138.136 0.122336 5.07753 0
M  V30 1501 H 138.066 -1.65606 4.99882 0
M  V30 1502 H 140.557 -0.798526 3.69367 0
M  V30 1503 H 140.87 -1.01645 7.66086 0
M  V30 1504 H 139.215 -0.921014 6.8887 0
M  V30 1505 H 142.406 -0.906612 4.59236 0
M  V30 1506 H 142.579 -1.00622 6.4014 0
M  V30 1507 N 135.985 -1.50799 -0.457987 0
M  V30 1508 C 136.915 -1.73553 -1.5621 0
M  V30 1509 C 137.896 -0.584774 -1.59732 0
M  V30 1510 O 139.081 -0.825314 -1.7579 0
M  V30 1511 C 136.211 -1.84169 -2.94447 0
M  V30 1512 C 135.165 -2.99461 -3.0579 0
M  V30 1513 C 134.491 -2.95235 -4.45803 0
M  V30 1514 C 135.791 -4.39766 -2.81786 0
M  V30 1515 H 137.485 -2.66 -1.37421 0
M  V30 1516 H 135.031 -1.28002 -0.659662 0
M  V30 1517 H 136.984 -1.98672 -3.71628 0
M  V30 1518 H 135.708 -0.883545 -3.14422 0
M  V30 1519 H 134.367 -2.8463 -2.31044 0
M  V30 1520 H 134.015 -1.97239 -4.62715 0
M  V30 1521 H 133.715 -3.72642 -4.54326 0
M  V30 1522 H 135.239 -3.11803 -5.24987 0
M  V30 1523 H 136.653 -4.55054 -3.4871 0
M  V30 1524 H 135.05 -5.18722 -3.0174 0
M  V30 1525 H 136.12 -4.51229 -1.7754 0
M  V30 1526 N 137.463 0.71206 -1.40597 0
M  V30 1527 C 138.426 1.80785 -1.40888 0
M  V30 1528 C 139.426 1.57937 -0.302103 0
M  V30 1529 O 140.616 1.64913 -0.561182 0
M  V30 1530 C 137.748 3.18927 -1.20409 0
M  V30 1531 H 138.941 1.81924 -2.38419 0
M  V30 1532 H 136.494 0.91805 -1.26497 0
M  V30 1533 H 137.229 3.23436 -0.236522 0
M  V30 1534 H 137.014 3.36911 -2.00582 0
M  V30 1535 H 138.504 3.98949 -1.23408 0
M  V30 1536 N 138.941 1.26152 0.944643 0
M  V30 1537 C 139.888 1.07408 2.04285 0
M  V30 1538 C 140.858 -0.0198413 1.66088 0
M  V30 1539 O 142.043 0.139264 1.90291 0
M  V30 1540 C 139.183 0.70945 3.37729 0
M  V30 1541 C 138.296 1.87926 3.88983 0
M  V30 1542 C 137.431 1.45807 5.10797 0
M  V30 1543 C 136.47 2.5964 5.54305 0
M  V30 1544 N 135.607 2.18226 6.67324 0
M  V30 1545 H 140.447 2.01389 2.1965 0
M  V30 1546 H 137.984 1.00275 1.07626 0
M  V30 1547 H 139.942 0.478948 4.14442 0
M  V30 1548 H 138.572 -0.193389 3.2222 0
M  V30 1549 H 137.624 2.22279 3.08701 0
M  V30 1550 H 138.936 2.73377 4.17213 0
M  V30 1551 H 138.09 1.18781 5.94959 0
M  V30 1552 H 136.829 0.574414 4.84305 0
M  V30 1553 H 135.834 2.87399 4.68702 0
M  V30 1554 H 137.059 3.48599 5.828 0
M  V30 1555 H 135.005 1.3229 6.42523 0
M  V30 1556 H 134.922 2.97221 6.95123 0
M  V30 1557 H 136.19 1.94403 7.54869 0
M  V30 1558 N 140.419 -1.14872 1.07899 0
M  V30 1559 C 141.666 -1.85789 0.805532 0
M  V30 1560 C 141.994 -1.82649 -0.668561 0
M  V30 1561 O 141.249 -1.24858 -1.50695 0
M  V30 1562 C 141.548 -3.34223 1.26609 0
M  V30 1563 C 141.214 -3.57555 2.74709 0
M  V30 1564 C 139.876 -3.63631 3.1516 0
M  V30 1565 C 142.228 -3.66803 3.70277 0
M  V30 1566 C 139.556 -3.76473 4.49983 0
M  V30 1567 C 141.908 -3.8117 5.04869 0
M  V30 1568 C 140.572 -3.85494 5.44932 0
M  V30 1569 H 139.842 -0.679849 0.294765 0
M  V30 1570 H 142.489 -1.3572 1.35101 0
M  V30 1571 H 140.794 -3.86536 0.640103 0
M  V30 1572 H 142.491 -3.87511 1.03132 0
M  V30 1573 H 139.081 -3.5347 2.42398 0
M  V30 1574 H 143.265 -3.61404 3.40149 0
M  V30 1575 H 138.521 -3.7808 4.80484 0
M  V30 1576 H 142.695 -3.87268 5.78789 0
M  V30 1577 H 140.322 -3.95197 6.49403 0
M  V30 1578 N 141.898 -0.863906 -1.31812 0
M  V30 1579 C 143.126 -0.486111 -2.01108 0
M  V30 1580 C 143.541 0.919755 -1.64882 0
M  V30 1581 O 142.898 1.60162 -0.874893 0
M  V30 1582 C 142.949 -0.626435 -3.56031 0
M  V30 1583 O 142.67 -1.97693 -3.90959 0
M  V30 1584 C 144.171 -0.248857 -4.42601 0
M  V30 1585 H 141.391 -0.190052 -0.643523 0
M  V30 1586 H 143.935 -1.1634 -1.68182 0
M  V30 1587 H 142.09 0.00322717 -3.874 0
M  V30 1588 H 142.504 -1.98034 -4.85678 0
M  V30 1589 H 143.978 -0.398016 -5.50563 0
M  V30 1590 H 144.455 0.811489 -4.31638 0
M  V30 1591 H 145.061 -0.853971 -4.16638 0
M  V30 1592 N 143.376 1.44774 -0.622745 0
M  V30 1593 C 144.624 2.01721 -0.123655 0
M  V30 1594 C 144.945 1.49172 1.25589 0
M  V30 1595 O 144.215 0.691974 1.83272 0
M  V30 1596 H 142.795 0.745777 -0.0427225 0
M  V30 1597 H 145.457 1.77382 -0.807559 0
M  V30 1598 H 144.553 3.11984 -0.0849534 0
M  V30 1599 N 144.854 0.36279 1.53368 0
M  V30 1600 C 146.101 -0.227776 2.01215 0
M  V30 1601 C 146.429 -1.49003 1.25014 0
M  V30 1602 O 145.684 -1.92876 0.331236 0
M  V30 1603 C 145.983 -0.568417 3.52851 0
M  V30 1604 C 145.649 0.59918 4.46901 0
M  V30 1605 C 144.311 0.919559 4.72332 0
M  V30 1606 C 146.663 1.38156 5.02556 0
M  V30 1607 C 143.991 2.02434 5.5067 0
M  V30 1608 C 146.343 2.47674 5.821 0
M  V30 1609 C 145.007 2.8025 6.05819 0
M  V30 1610 H 144.277 -0.083349 0.736297 0
M  V30 1611 H 146.924 0.494677 1.85001 0
M  V30 1612 H 145.229 -1.37185 3.66998 0
M  V30 1613 H 146.926 -1.03756 3.87344 0
M  V30 1614 H 143.516 0.339437 4.27254 0
M  V30 1615 H 147.7 1.14729 4.82857 0
M  V30 1616 H 142.956 2.28075 5.67267 0
M  V30 1617 H 147.13 3.08716 6.24234 0
M  V30 1618 H 144.757 3.65979 6.66306 0
M  V30 1619 N 146.332 -1.57332 0.0918853 0
M  V30 1620 C 147.609 -1.85691 -0.614668 0
M  V30 1621 C 147.989 -0.988146 -1.86545 0
M  V30 1622 O 147.337 -0.0597055 -2.28422 0
M  V30 1623 C 147.547 -3.36294 -0.933126 0
M  V30 1624 C 148.895 -4.04275 -1.29796 0
M  V30 1625 O 149.919 -3.41157 -1.02424 0
M  V30 1626 O 148.778 -5.1564 -1.81047 0
M  V30 1627 H 145.872 -0.767802 -0.307261 0
M  V30 1628 H 148.418 -1.69244 0.12434 0
M  V30 1629 H 147.19 -3.91273 -0.0456404 0
M  V30 1630 H 146.813 -3.58076 -1.72822 0
M  V30 1631 N 147.81 0.181792 -1.56548 0
M  V30 1632 C 148.72 1.24538 -1.98815 0
M  V30 1633 C 149.736 1.49045 -0.897861 0
M  V30 1634 O 150.912 1.61399 -1.20467 0
M  V30 1635 C 147.977 2.56683 -2.33055 0
M  V30 1636 C 147.038 2.40131 -3.55859 0
M  V30 1637 C 146.271 3.65975 -3.88456 0
M  V30 1638 O 146.494 4.70711 -3.22161 0
M  V30 1639 O 145.428 3.6071 -4.81842 0
M  V30 1640 H 149.254 0.916647 -2.89536 0
M  V30 1641 H 146.839 0.387842 -1.44278 0
M  V30 1642 H 148.721 3.34655 -2.56094 0
M  V30 1643 H 147.396 2.89157 -1.45498 0
M  V30 1644 H 146.303 1.60226 -3.38051 0
M  V30 1645 H 147.636 2.12585 -4.43924 0
M  V30 1646 N 149.288 1.51039 0.449983 0
M  V30 1647 C 150.528 1.64732 1.21007 0
M  V30 1648 C 150.892 0.349865 1.88785 0
M  V30 1649 O 152.093 0.362431 2.66345 0
M  V30 1650 C 150.364 2.80902 2.20973 0
M  V30 1651 S 151.923 3.14851 3.05638 0
M  V30 1652 H 148.741 0.5805 0.410538 0
M  V30 1653 H 151.343 1.88901 0.503634 0
M  V30 1654 H 150.047 3.73627 1.69796 0
M  V30 1655 H 149.578 2.58882 2.96215 0
M  V30 1656 H 151.593 2.60306 4.22439 0
M  V30 1657 N 150.766 -0.704594 1.40972 0
M  V30 1658 C 151.696 -1.83124 1.44872 0
M  V30 1659 C 152.677 -1.67281 0.30838 0
M  V30 1660 O 153.862 -1.87149 0.518556 0
M  V30 1661 C 150.992 -3.21181 1.32136 0
M  V30 1662 C 149.946 -3.51714 2.43888 0
M  V30 1663 C 149.272 -4.89032 2.16222 0
M  V30 1664 C 150.572 -3.516 3.86232 0
M  V30 1665 H 152.266 -1.80117 2.39161 0
M  V30 1666 H 149.812 -0.865145 1.15114 0
M  V30 1667 H 151.765 -3.99702 1.33479 0
M  V30 1668 H 150.489 -3.24791 0.343279 0
M  V30 1669 H 149.148 -2.75539 2.41813 0
M  V30 1670 H 148.796 -4.89256 1.16778 0
M  V30 1671 H 148.496 -5.10426 2.911 0
M  V30 1672 H 150.02 -5.69873 2.19265 0
M  V30 1673 H 151.434 -4.2014 3.9007 0
M  V30 1674 H 149.831 -3.84523 4.60719 0
M  V30 1675 H 150.901 -2.50757 4.15029 0
M  V30 1676 N 152.244 -1.26651 -0.937939 0
M  V30 1677 C 153.174 -1.10993 -2.05433 0
M  V30 1678 C 154.155 -0.0142161 -1.70094 0
M  V30 1679 O 155.34 -0.186837 -1.93299 0
M  V30 1680 C 152.47 -0.745561 -3.39203 0
M  V30 1681 C 151.424 -1.79337 -3.88616 0
M  V30 1682 C 150.75 -1.28324 -5.19073 0
M  V30 1683 C 152.05 -3.19553 -4.13138 0
M  V30 1684 H 153.744 -2.0438 -2.1879 0
M  V30 1685 H 151.29 -0.984041 -1.05131 0
M  V30 1686 H 153.243 -0.622888 -4.16771 0
M  V30 1687 H 151.967 0.22401 -3.25831 0
M  V30 1688 H 150.626 -1.90477 -3.13231 0
M  V30 1689 H 150.274 -0.303414 -5.02084 0
M  V30 1690 H 149.974 -1.98369 -5.53103 0
M  V30 1691 H 151.498 -1.1733 -5.99221 0
M  V30 1692 H 152.912 -3.11471 -4.81309 0
M  V30 1693 H 151.309 -3.87218 -4.58457 0
M  V30 1694 H 152.379 -3.65368 -3.18801 0
M  V30 1695 N 153.722 1.14298 -1.08507 0
M  V30 1696 C 154.947 1.8976 -0.837001 0
M  V30 1697 C 155.372 1.78097 0.605228 0
M  V30 1698 O 154.73 1.12188 1.4242 0
M  V30 1699 C 154.778 3.37685 -1.26495 0
M  V30 1700 O 153.882 4.10281 -0.417514 0
M  V30 1701 H 153.223 0.590365 -0.303917 0
M  V30 1702 H 155.753 1.44672 -1.44676 0
M  V30 1703 H 155.763 3.88501 -1.24625 0
M  V30 1704 H 154.438 3.45492 -2.31534 0
M  V30 1705 H 153.015 3.69536 -0.499722 0
M  V30 1706 N 155.201 0.870884 1.31352 0
M  V30 1707 C 156.133 0.28455 2.27427 0
M  V30 1708 C 157.146 -0.552927 1.53123 0
M  V30 1709 O 158.335 -0.374771 1.74521 0
M  V30 1710 C 155.435 -0.615164 3.3327 0
M  V30 1711 C 154.608 0.190079 4.36987 0
M  V30 1712 C 153.667 -0.637917 5.22319 0
M  V30 1713 O 152.693 -0.065626 5.69162 0
M  V30 1714 N 153.895 -1.94973 5.46778 0
M  V30 1715 H 156.66 1.11017 2.7838 0
M  V30 1716 H 154.221 0.732458 1.44384 0
M  V30 1717 H 156.213 -1.1748 3.87273 0
M  V30 1718 H 154.783 -1.34146 2.82354 0
M  V30 1719 H 154.003 0.931165 3.83044 0
M  V30 1720 H 155.291 0.742579 5.03352 0
M  V30 1721 H 154.689 -2.4378 5.10478 0
M  V30 1722 H 153.246 -2.45713 6.03712 0
M  V30 1723 N 156.679 -1.44442 0.630414 0
M  V30 1724 C 157.904 -2.06927 0.139944 0
M  V30 1725 C 158.329 -1.46795 -1.17613 0
M  V30 1726 O 157.687 -0.569144 -1.72135 0
M  V30 1727 C 157.735 -3.6058 0.0379581 0
M  V30 1728 O 156.839 -3.99937 -1.0062 0
M  V30 1729 H 156.18 -0.658608 0.0844483 0
M  V30 1730 H 158.71 -1.85327 0.866891 0
M  V30 1731 H 158.72 -4.07714 -0.152856 0
M  V30 1732 H 157.395 -4.03728 0.998809 0
M  V30 1733 H 155.972 -3.64436 -0.79001 0
M  V30 1734 N 158.157 -0.370918 -1.53173 0
M  V30 1735 C 159.405 0.216673 -2.00935 0
M  V30 1736 C 159.726 1.48845 -1.25977 0
M  V30 1737 O 158.996 1.92286 -0.374551 0
M  V30 1738 H 157.576 0.0830565 -0.742368 0
M  V30 1739 H 160.238 -0.49838 -1.8842 0
M  V30 1740 H 159.334 0.439893 -3.08984 0
M  V30 1741 N 159.635 1.57281 -0.100228 0
M  V30 1742 C 160.881 1.95626 0.556946 0
M  V30 1743 C 161.236 0.981655 1.65473 0
M  V30 1744 O 160.529 0.00849847 1.91598 0
M  V30 1745 C 160.723 3.38305 1.15259 0
M  V30 1746 C 160.552 4.49555 0.114035 0
M  V30 1747 C 159.322 5.0434 -0.311266 0
M  V30 1748 C 161.52 5.10051 -0.659768 0
M  V30 1749 N 159.502 5.99152 -1.33755 0
M  V30 1750 C 160.873 6.00628 -1.53774 0
M  V30 1751 C 162.928 4.92772 -0.712723 0
M  V30 1752 C 161.631 6.7578 -2.46403 0
M  V30 1753 C 163.657 5.6859 -1.62663 0
M  V30 1754 C 163.019 6.58838 -2.49222 0
M  V30 1755 H 159.118 0.7624 0.173982 0
M  V30 1756 H 161.702 1.93829 -0.183988 0
M  V30 1757 H 159.873 3.40786 1.86332 0
M  V30 1758 H 161.605 3.63817 1.77254 0
M  V30 1759 H 158.36 4.73537 0.0774812 0
M  V30 1760 H 158.784 6.5126 -1.84905 0
M  V30 1761 H 163.426 4.22761 -0.0576648 0
M  V30 1762 H 161.144 7.4505 -3.12931 0
M  V30 1763 H 164.73 5.57233 -1.67281 0
M  V30 1764 H 163.61 7.16479 -3.18791 0
M  V30 1765 N 161.113 -0.173488 1.56642 0
M  V30 1766 C 162.061 -1.23417 1.97157 0
M  V30 1767 C 163.055 -1.45946 0.860013 0
M  V30 1768 O 164.261 -1.46551 1.04512 0
M  V30 1769 H 160.636 -0.414818 0.62724 0
M  V30 1770 H 162.607 -0.865582 2.8557 0
M  V30 1771 C 161.356 -2.5665 2.34576 0
M  V30 1772 H 160.679 -2.40137 3.19647 0
M  V30 1773 H 162.119 -3.2956 2.6677 0
M  V30 1774 C 160.578 -3.15245 1.18836 0
M  V30 1775 O 161.108 -3.98883 0.474869 0
M  V30 1776 N 159.314 -2.74303 0.959497 0
M  V30 1777 H 158.861 -2.0639 1.54146 0
M  V30 1778 H 158.819 -3.13844 0.186932 0
M  V30 1779 N 162.591 -1.51276 -0.441967 0
M  V30 1780 C 163.554 -1.7167 -1.51862 0
M  V30 1781 C 164.554 -0.586793 -1.49711 0
M  V30 1782 O 165.744 -0.854276 -1.51815 0
M  V30 1783 C 162.876 -1.76889 -2.91416 0
M  V30 1784 H 164.069 -2.67754 -1.35084 0
M  V30 1785 H 161.622 -1.41196 -0.670333 0
M  V30 1786 H 162.357 -0.826026 -3.13604 0
M  V30 1787 H 162.142 -2.59001 -2.94382 0
M  V30 1788 H 163.632 -1.94522 -3.69528 0
M  V30 1789 N 164.069 0.697108 -1.41344 0
M  V30 1790 C 165.017 1.83237 -1.43272 0
M  V30 1791 C 166.011 1.66522 -0.310947 0
M  V30 1792 O 167.217 1.73402 -0.482899 0
M  V30 1793 H 163.592 0.603802 -0.448249 0
M  V30 1794 H 165.563 1.78727 -2.38954 0
M  V30 1795 C 164.312 3.21245 -1.33029 0
M  V30 1796 H 163.635 3.34723 -2.18633 0
M  V30 1797 H 165.075 4.00763 -1.38439 0
M  V30 1798 C 163.534 3.36873 -0.0424635 0
M  V30 1799 O 164.064 3.91177 0.913421 0
M  V30 1800 N 162.27 2.90581 0.0331145 0
M  V30 1801 H 161.817 2.46577 -0.745506 0
M  V30 1802 H 161.775 3.01416 0.894199 0
M  V30 1803 N 165.547 1.27147 0.931209 0
M  V30 1804 C 166.793 1.13446 1.68101 0
M  V30 1805 C 167.126 -0.319628 1.91552 0
M  V30 1806 O 166.401 -1.23407 1.50336 0
M  V30 1807 C 166.684 1.91482 3.0497 0
M  V30 1808 C 166.537 3.44855 2.88782 0
M  V30 1809 C 167.856 1.71651 4.05246 0
M  V30 1810 H 164.975 0.413498 0.610072 0
M  V30 1811 H 167.617 1.56261 1.08086 0
M  V30 1812 H 165.767 1.55095 3.56199 0
M  V30 1813 H 167.439 3.9105 2.44698 0
M  V30 1814 H 165.682 3.71373 2.24198 0
M  V30 1815 H 166.353 3.94694 3.85902 0
M  V30 1816 H 168.829 2.0337 3.63015 0
M  V30 1817 H 167.705 2.28651 4.99009 0
M  V30 1818 H 167.966 0.663555 4.37092 0
M  V30 1819 N 167.025 -1.13721 1.09112 0
M  V30 1820 C 168.273 -1.84559 0.823562 0
M  V30 1821 C 168.594 -1.83754 -0.652658 0
M  V30 1822 O 167.864 -1.29102 -1.47342 0
M  V30 1823 H 166.444 -0.683376 0.301673 0
M  V30 1824 H 169.106 -1.37771 1.37859 0
M  V30 1825 H 168.202 -2.8917 1.17419 0
M  V30 1826 N 168.503 -0.877838 -1.30888 0
M  V30 1827 C 169.433 -0.35534 -2.3078 0
M  V30 1828 C 170.414 0.557994 -1.60687 0
M  V30 1829 O 171.599 0.473355 -1.88343 0
M  V30 1830 C 168.729 0.437221 -3.44537 0
M  V30 1831 C 167.683 -0.383715 -4.26276 0
M  V30 1832 C 167.009 0.535014 -5.32017 0
M  V30 1833 C 168.309 -1.62201 -4.96476 0
M  V30 1834 H 170.003 -1.19007 -2.74732 0
M  V30 1835 H 167.549 -0.573698 -1.32078 0
M  V30 1836 H 169.502 0.813334 -4.13477 0
M  V30 1837 H 168.226 1.30553 -2.99372 0
M  V30 1838 H 166.885 -0.741874 -3.59015 0
M  V30 1839 H 166.533 1.40083 -4.831 0
M  V30 1840 H 166.233 -0.0104211 -5.87599 0
M  V30 1841 H 167.757 0.907799 -6.03814 0
M  V30 1842 H 169.171 -1.31689 -5.5797 0
M  V30 1843 H 167.568 -2.10711 -5.61891 0
M  V30 1844 H 168.638 -2.37044 -4.23011 0
M  V30 1845 N 169.982 1.44106 -0.638065 0
M  V30 1846 C 170.912 2.33448 0.0494287 0
M  V30 1847 C 171.893 1.48606 0.827672 0
M  V30 1848 O 173.078 1.77308 0.792173 0
M  V30 1849 C 170.208 3.31771 1.02691 0
M  V30 1850 C 169.162 4.26485 0.359823 0
M  V30 1851 C 168.488 5.14729 1.44769 0
M  V30 1852 C 169.788 5.17056 -0.738296 0
M  V30 1853 H 171.482 2.91183 -0.696636 0
M  V30 1854 H 169.028 1.40014 -0.336456 0
M  V30 1855 H 170.981 3.93161 1.51666 0
M  V30 1856 H 169.705 2.7226 1.80395 0
M  V30 1857 H 168.364 3.66437 -0.10934 0
M  V30 1858 H 168.012 4.51566 2.21578 0
M  V30 1859 H 167.712 5.78913 1.00668 0
M  V30 1860 H 169.236 5.78991 1.93911 0
M  V30 1861 H 170.65 5.72342 -0.331354 0
M  V30 1862 H 169.047 5.89879 -1.10286 0
M  V30 1863 H 170.117 4.57652 -1.60258 0
M  V30 1864 N 171.46 0.379036 1.52974 0
M  V30 1865 C 172.392 -0.495963 2.2377 0
M  V30 1866 C 173.405 -1.03517 1.25651 0
M  V30 1867 O 174.594 -0.939249 1.51791 0
M  V30 1868 C 171.694 -1.69894 2.93239 0
M  V30 1869 C 170.867 -1.2889 4.17979 0
M  V30 1870 C 169.926 -2.35543 4.70538 0
M  V30 1871 O 168.952 -1.97375 5.33883 0
M  V30 1872 N 170.154 -3.67318 4.49508 0
M  V30 1873 H 172.919 0.110523 2.99496 0
M  V30 1874 H 170.48 0.204878 1.60598 0
M  V30 1875 H 172.472 -2.40747 3.25304 0
M  V30 1876 H 171.042 -2.212 2.20883 0
M  V30 1877 H 170.262 -0.409676 3.92065 0
M  V30 1878 H 171.55 -0.991443 4.99047 0
M  V30 1879 H 170.948 -4.01095 3.98923 0
M  V30 1880 H 169.505 -4.34235 4.8609 0
M  V30 1881 N 172.938 -1.57226 0.108567 0
M  V30 1882 C 174.166 -1.99179 -0.559954 0
M  V30 1883 C 174.581 -0.988022 -1.60884 0
M  V30 1884 O 173.938 0.0205512 -1.82488 0
M  V30 1885 C 173.989 -3.41159 -1.19552 0
M  V30 1886 O 173.71 -4.37694 -0.188577 0
M  V30 1887 C 175.211 -3.98188 -1.94837 0
M  V30 1888 H 172.431 -0.654228 -0.149088 0
M  V30 1889 H 174.975 -2.03598 0.19183 0
M  V30 1890 H 173.13 -3.37711 -1.89815 0
M  V30 1891 H 173.544 -5.20469 -0.649014 0
M  V30 1892 H 175.018 -4.99644 -2.34648 0
M  V30 1893 H 175.495 -3.3675 -2.81951 0
M  V30 1894 H 176.101 -4.0515 -1.2936 0
M  V30 1895 N 174.416 0.165178 -1.56732 0
M  V30 1896 C 175.665 0.879143 -1.81532 0
M  V30 1897 C 175.978 1.83144 -0.686842 0
M  V30 1898 O 177.184 2.58823 -0.819944 0
M  V30 1899 C 175.64 1.61388 -3.21686 0
M  V30 1900 C 175.248 0.704904 -4.4242 0
M  V30 1901 C 176.992 2.3157 -3.55774 0
M  V30 1902 C 174.899 1.44022 -5.73595 0
M  V30 1903 H 173.829 0.332033 -0.676957 0
M  V30 1904 H 176.48 0.132008 -1.83025 0
M  V30 1905 H 174.862 2.40599 -3.14529 0
M  V30 1906 H 176.036 -0.0506815 -4.60772 0
M  V30 1907 H 174.351 0.112419 -4.16248 0
M  V30 1908 H 176.948 2.8719 -4.51028 0
M  V30 1909 H 177.291 3.07201 -2.8095 0
M  V30 1910 H 177.824 1.59297 -3.64513 0
M  V30 1911 H 174.563 0.72612 -6.51466 0
M  V30 1912 H 174.083 2.16898 -5.5921 0
M  V30 1913 H 175.762 1.98606 -6.15764 0
M  V30 1914 N 175.894 1.51508 0.433938 0
M  V30 1915 C 177.134 1.66006 1.19253 0
M  V30 1916 C 177.498 0.369868 1.88404 0
M  V30 1917 O 178.699 0.39066 2.65946 0
M  V30 1918 C 176.97 2.83229 2.17981 0
M  V30 1919 S 178.529 3.18075 3.02281 0
M  V30 1920 H 175.347 0.584821 0.404358 0
M  V30 1921 H 177.949 1.89425 0.48357 0
M  V30 1922 H 176.653 3.75407 1.65824 0
M  V30 1923 H 176.184 2.6201 2.93453 0
M  V30 1924 H 178.199 2.64772 4.19655 0
M  V30 1925 N 177.372 -0.689602 1.41712 0
M  V30 1926 C 178.304 -1.815 1.39966 0
M  V30 1927 C 179.317 -1.59995 0.300917 0
M  V30 1928 O 180.506 -1.69387 0.563039 0
M  V30 1929 C 177.606 -3.18364 1.16179 0
M  V30 1930 C 176.779 -3.66847 2.38206 0
M  V30 1931 C 175.838 -4.82398 2.10186 0
M  V30 1932 O 174.864 -4.93706 2.83272 0
M  V30 1933 N 176.066 -5.70064 1.0958 0
M  V30 1934 H 178.831 -1.83488 2.36965 0
M  V30 1935 H 176.392 -0.872149 1.36401 0
M  V30 1936 H 178.384 -3.93301 0.953756 0
M  V30 1937 H 176.954 -3.11365 0.27756 0
M  V30 1938 H 176.174 -2.82751 2.74673 0
M  V30 1939 H 177.462 -3.95978 3.19498 0
M  V30 1940 H 176.86 -5.63565 0.491019 0
M  V30 1941 H 175.417 -6.44874 0.947656 0
M  V30 1942 N 178.85 -1.27639 -0.924453 0
M  V30 1943 C 180.261 -1.12834 -1.48746 0
M  V30 1944 C 180.612 0.285505 -1.94112 0
M  V30 1945 O 179.737 1.17874 -1.81479 0
M  V30 1946 C 180.332 -2.04217 -2.70334 0
M  V30 1947 C 178.891 -1.93509 -3.22848 0
M  V30 1948 C 178.038 -1.96583 -1.95577 0
M  V30 1949 H 180.989 -1.40484 -0.738233 0
M  V30 1950 H 181.01 -1.59989 -3.4523 0
M  V30 1951 H 180.522 -3.07111 -2.37285 0
M  V30 1952 H 178.623 -0.936131 -3.60649 0
M  V30 1953 H 178.736 -2.79917 -3.88823 0
M  V30 1954 H 177.1 -1.4085 -2.12211 0
M  V30 1955 H 177.883 -3.01137 -1.64837 0
M  V30 1956 N 180.328 1.1314 -1.09713 0
M  V30 1957 C 181.276 2.20717 -0.733934 0
M  V30 1958 C 182.27 1.6729 0.266506 0
M  V30 1959 O 183.476 1.79547 0.127656 0
M  V30 1960 H 179.851 0.719292 -0.21937 0
M  V30 1961 H 181.822 2.48611 -1.6503 0
M  V30 1962 C 180.571 3.47265 -0.173849 0
M  V30 1963 H 179.894 3.88716 -0.934873 0
M  V30 1964 H 181.334 4.23979 0.0423126 0
M  V30 1965 C 179.793 3.18724 1.09164 0
M  V30 1966 O 180.323 3.37762 2.17439 0
M  V30 1967 N 178.529 2.72583 1.00732 0
M  V30 1968 H 178.076 2.57291 0.126121 0
M  V30 1969 H 178.034 2.53862 1.85476 0
M  V30 1970 N 181.806 0.884767 1.30421 0
M  V30 1971 C 183.034 0.518044 2.0031 0
M  V30 1972 C 183.449 -0.893408 1.66324 0
M  V30 1973 O 182.806 -1.5875 0.900262 0
M  V30 1974 C 182.857 0.682997 3.54989 0
M  V30 1975 O 182.578 2.03888 3.87764 0
M  V30 1976 C 184.079 0.31924 4.42149 0
M  V30 1977 H 181.299 0.200265 0.640418 0
M  V30 1978 H 183.843 1.19001 1.6631 0
M  V30 1979 H 181.998 0.0584052 3.87356 0
M  V30 1980 H 182.412 2.05735 4.82466 0
M  V30 1981 H 183.886 0.485555 5.4986 0
M  V30 1982 H 184.363 -0.742717 4.32875 0
M  V30 1983 H 184.969 0.920147 4.15227 0
M  V30 1984 N 183.284 -1.43765 0.645699 0
M  V30 1985 C 184.232 -2.32516 -0.0624849 0
M  V30 1986 C 185.226 -1.48183 -0.820855 0
M  V30 1987 O 186.432 -1.64439 -0.732106 0
M  V30 1988 H 182.807 -0.750989 -0.0389864 0
M  V30 1989 H 184.778 -2.89979 0.703892 0
M  V30 1990 C 183.527 -3.32389 -1.02044 0
M  V30 1991 H 182.85 -3.97301 -0.446312 0
M  V30 1992 H 184.29 -3.97138 -1.48517 0
M  V30 1993 C 182.749 -2.62416 -2.11281 0
M  V30 1994 O 183.279 -2.434 -3.19561 0
M  V30 1995 N 181.485 -2.21913 -1.87624 0
M  V30 1996 H 181.032 -2.37578 -0.995703 0
M  V30 1997 H 180.99 -1.75424 -2.6091 0
M  V30 1998 N 184.763 -0.387143 -1.52771 0
M  V30 1999 C 186.009 0.196025 -2.0185 0
M  V30 2000 C 186.342 1.46641 -1.27319 0
M  V30 2001 O 185.617 1.90889 -0.373032 0
M  V30 2002 C 185.9 0.466136 -3.5707 0
M  V30 2003 C 185.753 -0.819385 -4.42274 0
M  V30 2004 C 187.072 1.25768 -4.21747 0
M  V30 2005 H 184.191 0.0697708 -0.73369 0
M  V30 2006 H 186.833 -0.516286 -1.82851 0
M  V30 2007 H 184.983 1.07293 -3.7339 0
M  V30 2008 H 186.655 -1.4563 -4.37709 0
M  V30 2009 H 184.898 -1.43517 -4.09372 0
M  V30 2010 H 185.569 -0.585065 -5.48891 0
M  V30 2011 H 188.045 0.744167 -4.09391 0
M  V30 2012 H 186.921 1.41541 -5.30337 0
M  V30 2013 H 187.182 2.27228 -3.79236 0
M  V30 2014 N 186.241 1.57166 -0.116904 0
M  V30 2015 C 187.471 1.99184 0.548586 0
M  V30 2016 C 187.879 0.995436 1.60897 0
M  V30 2017 O 187.222 -0.0201293 1.83689 0
M  V30 2018 C 187.284 3.37611 1.23526 0
M  V30 2019 C 186.948 4.55857 0.323077 0
M  V30 2020 C 187.945 5.18056 -0.437476 0
M  V30 2021 C 185.63 5.01751 0.234761 0
M  V30 2022 C 187.624 6.24536 -1.2741 0
M  V30 2023 C 185.311 6.08093 -0.605496 0
M  V30 2024 C 186.309 6.69352 -1.35856 0
M  V30 2025 O 185.997 7.7364 -2.18487 0
M  V30 2026 H 185.729 0.659148 0.149999 0
M  V30 2027 H 188.283 2.0443 -0.199428 0
M  V30 2028 H 186.513 3.29113 2.0303 0
M  V30 2029 H 188.202 3.63932 1.79745 0
M  V30 2030 H 188.968 4.83516 -0.379105 0
M  V30 2031 H 184.847 4.53817 0.810601 0
M  V30 2032 H 188.391 6.72281 -1.86237 0
M  V30 2033 H 184.288 6.42063 -0.665268 0
M  V30 2034 H 185.056 7.90727 -2.11406 0
M  V30 2035 N 187.719 -0.156864 1.56817 0
M  V30 2036 C 188.968 -0.869504 1.81996 0
M  V30 2037 C 189.281 -1.82777 0.696545 0
M  V30 2038 O 190.487 -2.58384 0.833658 0
M  V30 2039 C 188.943 -1.59679 3.22538 0
M  V30 2040 C 188.551 -0.681431 4.42787 0
M  V30 2041 C 190.295 -2.2968 3.56997 0
M  V30 2042 C 188.202 -1.40978 5.74351 0
M  V30 2043 H 187.132 -0.328438 0.678708 0
M  V30 2044 H 189.783 -0.1223 1.83092 0
M  V30 2045 H 188.165 -2.38927 3.158 0
M  V30 2046 H 189.339 0.0751166 4.60739 0
M  V30 2047 H 187.654 -0.0903431 4.16302 0
M  V30 2048 H 190.251 -2.84794 4.52544 0
M  V30 2049 H 190.594 -3.05707 2.82576 0
M  V30 2050 H 191.127 -1.57361 3.65352 0
M  V30 2051 H 187.866 -0.691561 6.51842 0
M  V30 2052 H 187.386 -2.13929 5.60352 0
M  V30 2053 H 189.065 -1.95337 6.16808 0
M  V30 2054 N 189.197 -1.51736 -0.425897 0
M  V30 2055 C 190.474 -1.55519 -1.1863 0
M  V30 2056 C 190.854 -0.326219 -2.08564 0
M  V30 2057 O 190.202 0.688012 -2.17896 0
M  V30 2058 C 190.412 -2.87521 -1.9782 0
M  V30 2059 C 191.76 -3.39899 -2.54468 0
M  V30 2060 O 192.784 -2.89148 -2.08019 0
M  V30 2061 O 191.643 -4.2848 -3.39215 0
M  V30 2062 H 188.737 -0.625739 -0.540721 0
M  V30 2063 H 191.283 -1.64055 -0.434038 0
M  V30 2064 H 190.055 -3.68422 -1.31836 0
M  V30 2065 H 189.678 -2.822 -2.80088 0
M  V30 2066 N 190.675 0.682077 -1.42076 0
M  V30 2067 C 191.922 1.44215 -1.42156 0
M  V30 2068 C 192.25 1.94468 -0.0354186 0
M  V30 2069 O 191.505 1.70816 0.955002 0
M  V30 2070 C 191.804 2.66036 -2.38662 0
M  V30 2071 C 191.47 2.34366 -3.85206 0
M  V30 2072 C 190.132 2.25439 -4.25124 0
M  V30 2073 C 192.484 2.08513 -4.77673 0
M  V30 2074 C 189.812 1.88775 -5.55501 0
M  V30 2075 C 192.164 1.73354 -6.08384 0
M  V30 2076 C 190.828 1.62933 -6.47309 0
M  V30 2077 H 190.098 0.527718 -0.520187 0
M  V30 2078 H 192.745 0.778387 -1.74967 0
M  V30 2079 H 191.05 3.3741 -1.99152 0
M  V30 2080 H 192.747 3.24205 -2.35991 0
M  V30 2081 H 189.337 2.42213 -3.53597 0
M  V30 2082 H 193.521 2.14346 -4.47626 0
M  V30 2083 H 188.777 1.7927 -5.84527 0
M  V30 2084 H 192.951 1.52373 -6.79526 0
M  V30 2085 H 190.578 1.34292 -7.48244 0
M  V30 2086 N 192.153 1.28127 0.917671 0
M  V30 2087 C 193.4 1.15052 1.66641 0
M  V30 2088 C 193.728 -0.301677 1.92146 0
M  V30 2089 O 192.983 -1.23622 1.51711 0
M  V30 2090 C 193.282 1.89018 3.03327 0
M  V30 2091 C 192.948 3.38832 2.97496 0
M  V30 2092 C 191.61 3.79693 2.95613 0
M  V30 2093 C 193.962 4.34378 2.88036 0
M  V30 2094 C 191.29 5.14447 2.82066 0
M  V30 2095 C 193.642 5.69201 2.7603 0
M  V30 2096 C 192.306 6.09343 2.72502 0
M  V30 2097 H 191.576 0.421006 0.609783 0
M  V30 2098 H 194.223 1.58855 1.06945 0
M  V30 2099 H 192.528 1.37752 3.66785 0
M  V30 2100 H 194.225 1.76321 3.60156 0
M  V30 2101 H 190.815 3.06342 2.99754 0
M  V30 2102 H 194.999 4.03775 2.88581 0
M  V30 2103 H 190.255 5.44681 2.77728 0
M  V30 2104 H 194.429 6.42901 2.67678 0
M  V30 2105 H 192.056 7.13712 2.61762 0
M  V30 2106 N 193.631 -1.12557 1.10312 0
M  V30 2107 C 194.594 -2.16434 0.75424 0
M  V30 2108 C 195.594 -1.59278 -0.220685 0
M  V30 2109 O 196.784 -1.742 0.00230591 0
M  V30 2110 C 193.916 -3.40699 0.116987 0
M  V30 2111 H 195.109 -2.48811 1.67431 0
M  V30 2112 H 192.662 -1.27542 0.903475 0
M  V30 2113 H 193.397 -3.13921 -0.813877 0
M  V30 2114 H 193.182 -3.83459 0.818613 0
M  V30 2115 H 194.672 -4.17451 -0.111387 0
M  V30 2116 N 195.109 -0.891671 -1.2995 0
M  V30 2117 C 196.059 -0.334811 -2.25528 0
M  V30 2118 C 197.043 0.540553 -1.51548 0
M  V30 2119 O 198.235 0.383882 -1.72787 0
M  V30 2120 C 195.364 0.44374 -3.4042 0
M  V30 2121 C 194.45 -0.44609 -4.21747 0
M  V30 2122 N 194.841 -1.54963 -4.81477 0
M  V30 2123 C 193.139 -0.242415 -4.45341 0
M  V30 2124 C 193.84 -2.10015 -5.42465 0
M  V30 2125 N 192.816 -1.39423 -5.25416 0
M  V30 2126 H 196.618 -1.17792 -2.69262 0
M  V30 2127 H 194.132 -0.741822 -1.44467 0
M  V30 2128 H 196.129 0.859362 -4.07947 0
M  V30 2129 H 194.789 1.28421 -2.98225 0
M  V30 2130 H 195.8 -1.93244 -4.80497 0
M  V30 2131 H 192.477 0.560342 -4.13723 0
M  V30 2132 H 193.867 -3.02724 -5.9984 0
M  V30 2133 N 196.587 1.43421 -0.653314 0
M  V30 2134 C 197.52 2.2803 0.0879804 0
M  V30 2135 C 198.498 1.39833 0.82979 0
M  V30 2136 O 199.682 1.69275 0.829341 0
M  V30 2137 C 196.809 3.19247 1.13132 0
M  V30 2138 C 195.855 4.23704 0.487546 0
M  V30 2139 S 196.688 5.30377 -0.738961 0
M  V30 2140 C 197.844 6.25162 0.30384 0
M  V30 2141 H 198.077 2.90554 -0.629739 0
M  V30 2142 H 195.61 1.47934 -0.442156 0
M  V30 2143 H 197.568 3.72346 1.72827 0
M  V30 2144 H 196.229 2.55901 1.82136 0
M  V30 2145 H 195.422 4.87631 1.27407 0
M  V30 2146 H 195.024 3.73983 -0.0352915 0
M  V30 2147 H 197.316 6.67321 1.17 0
M  V30 2148 H 198.259 7.07463 -0.300402 0
M  V30 2149 H 198.667 5.60864 0.63969 0
M  V30 2150 N 198.065 0.39524 1.52563 0
M  V30 2151 C 199.29 -0.187456 2.06551 0
M  V30 2152 C 199.715 -1.39249 1.26457 0
M  V30 2153 O 199.073 -1.78947 0.291151 0
M  V30 2154 C 199.121 -0.529985 3.56684 0
M  V30 2155 O 198.225 -1.62307 3.79118 0
M  V30 2156 H 197.566 -0.0202537 0.663691 0
M  V30 2157 H 200.096 0.564426 1.96661 0
M  V30 2158 H 200.106 -0.792598 4.00227 0
M  V30 2159 H 198.781 0.350987 4.14416 0
M  V30 2160 H 197.358 -1.3537 3.47461 0
M  V30 2161 N 199.544 -1.57102 0.125237 0
M  V30 2162 C 200.474 -2.18659 -0.819174 0
M  V30 2163 C 201.455 -1.12843 -1.27281 0
M  V30 2164 O 202.64 -1.41104 -1.33429 0
M  V30 2165 C 199.77 -2.79096 -2.06695 0
M  V30 2166 C 198.724 -3.90548 -1.75088 0
M  V30 2167 C 198.05 -4.37821 -3.06948 0
M  V30 2168 C 199.35 -5.12356 -1.01435 0
M  V30 2169 H 201.044 -2.9783 -0.306202 0
M  V30 2170 H 198.59 -1.4326 -0.145839 0
M  V30 2171 H 200.543 -3.2082 -2.73226 0
M  V30 2172 H 199.267 -1.97223 -2.60328 0
M  V30 2173 H 197.926 -3.49409 -1.10944 0
M  V30 2174 H 197.574 -3.52799 -3.58527 0
M  V30 2175 H 197.274 -5.12982 -2.86571 0
M  V30 2176 H 198.798 -4.822 -3.74587 0
M  V30 2177 H 200.212 -5.5106 -1.58132 0
M  V30 2178 H 198.609 -5.9314 -0.911319 0
M  V30 2179 H 199.679 -4.849 -0.00218681 0
M  V30 2180 N 201.022 0.148545 -1.56898 0
M  V30 2181 C 202.268 0.857877 -1.84424 0
M  V30 2182 C 202.623 1.7886 -0.709006 0
M  V30 2183 O 201.916 1.89344 0.293139 0
M  V30 2184 C 202.11 1.67064 -3.1595 0
M  V30 2185 C 201.939 0.82011 -4.42159 0
M  V30 2186 C 200.709 0.486328 -5.02954 0
M  V30 2187 C 202.907 0.151155 -5.14078 0
M  V30 2188 N 200.889 -0.377956 -6.12735 0
M  V30 2189 C 202.26 -0.573333 -6.17343 0
M  V30 2190 C 204.315 0.0716685 -4.97848 0
M  V30 2191 C 203.018 -1.3698 -7.06137 0
M  V30 2192 C 205.044 -0.711532 -5.87104 0
M  V30 2193 C 204.406 -1.42431 -6.8985 0
M  V30 2194 H 200.505 0.291798 -0.725519 0
M  V30 2195 H 203.089 0.123347 -1.94309 0
M  V30 2196 H 201.26 2.37642 -3.07215 0
M  V30 2197 H 202.992 2.32302 -3.31388 0
M  V30 2198 H 199.747 0.821753 -4.66416 0
M  V30 2199 H 200.171 -0.801077 -6.72244 0
M  V30 2200 H 204.813 0.608381 -4.184 0
M  V30 2201 H 202.531 -1.91778 -7.85014 0
M  V30 2202 H 206.117 -0.775005 -5.76615 0
M  V30 2203 H 204.997 -2.02061 -7.57721 0
M  V30 2204 N 202.5 1.5196 0.417844 0
M  V30 2205 C 203.41 1.77554 1.53336 0
M  V30 2206 C 204.426 0.660655 1.6097 0
M  V30 2207 O 205.602 0.945099 1.77848 0
M  V30 2208 C 202.667 1.91291 2.89152 0
M  V30 2209 C 201.728 3.15183 2.91475 0
M  V30 2210 C 200.961 3.28256 4.20813 0
M  V30 2211 O 201.184 2.46798 5.14244 0
M  V30 2212 O 200.118 4.21356 4.29817 0
M  V30 2213 H 203.944 2.7222 1.34647 0
M  V30 2214 H 201.529 1.36698 0.602828 0
M  V30 2215 H 203.411 2.02199 3.69721 0
M  V30 2216 H 202.086 0.998129 3.07927 0
M  V30 2217 H 200.993 3.09739 2.09791 0
M  V30 2218 H 202.326 4.06414 2.77648 0
M  V30 2219 N 203.978 -0.674533 1.42435 0
M  V30 2220 C 205.226 -1.43175 1.42637 0
M  V30 2221 C 205.547 -1.94951 0.0438992 0
M  V30 2222 O 204.817 -1.7308 -0.917607 0
M  V30 2223 H 203.397 -0.531307 0.525092 0
M  V30 2224 H 206.059 -0.797006 1.77859 0
M  V30 2225 H 205.155 -2.28463 2.12629 0
M  V30 2226 N 205.456 -1.28612 -0.910864 0
M  V30 2227 C 206.419 -1.12803 -1.9952 0
M  V30 2228 C 207.419 -0.0668264 -1.60661 0
M  V30 2229 O 208.609 -0.312847 -1.71368 0
M  V30 2230 C 205.741 -0.72254 -3.33155 0
M  V30 2231 H 206.934 -2.09109 -2.14973 0
M  V30 2232 H 204.487 -1.11639 -1.09391 0
M  V30 2233 H 205.222 0.241152 -3.23402 0
M  V30 2234 H 205.007 -1.48916 -3.62721 0
M  V30 2235 H 206.497 -0.634666 -4.12749 0
M  V30 2236 N 206.934 1.1197 -1.10907 0
M  V30 2237 C 208.35 1.35591 -0.841852 0
M  V30 2238 C 208.55 1.94233 0.536246 0
M  V30 2239 O 207.606 2.1717 1.28816 0
M  V30 2240 C 208.919 2.29284 -1.94549 0
M  V30 2241 C 210.467 2.42862 -1.97451 0
M  V30 2242 C 210.942 3.39873 -3.07002 0
M  V30 2243 N 212.433 3.47433 -3.06341 0
M  V30 2244 C 213.168 4.22421 -3.87748 0
M  V30 2245 N 212.664 5.00432 -4.79103 0
M  V30 2246 N 214.457 4.17876 -3.75946 0
M  V30 2247 H 206.608 0.722664 -1.99728 0
M  V30 2248 H 208.871 0.380635 -0.868229 0
M  V30 2249 H 208.577 1.93378 -2.93765 0
M  V30 2250 H 208.451 3.29452 -1.83688 0
M  V30 2251 H 210.838 2.78046 -0.988645 0
M  V30 2252 H 210.919 1.42566 -2.12388 0
M  V30 2253 H 210.563 3.05417 -4.05811 0
M  V30 2254 H 210.493 4.40011 -2.89306 0
M  V30 2255 H 212.984 2.91784 -2.40147 0
M  V30 2256 H 213.297 5.55002 -5.37766 0
M  V30 2257 H 211.642 4.99612 -4.83128 0
M  V30 2258 H 214.833 3.56016 -3.03924 0
M  V30 2259 H 215.006 4.76061 -4.39624 0
M  V30 2260 N 208.412 0.89855 1.29475 0
M  V30 2261 C 209.642 0.538479 1.99459 0
M  V30 2262 C 210.05 -0.880922 1.67441 0
M  V30 2263 O 209.393 -1.59283 0.915127 0
M  V30 2264 C 209.455 0.649564 3.53583 0
M  V30 2265 C 209.119 2.03573 4.09154 0
M  V30 2266 C 210.116 3.00675 4.24135 0
M  V30 2267 C 207.801 2.3448 4.44212 0
M  V30 2268 C 209.795 4.26809 4.73405 0
M  V30 2269 C 207.482 3.60857 4.93179 0
M  V30 2270 C 208.48 4.56836 5.0773 0
M  V30 2271 O 208.168 5.80969 5.55635 0
M  V30 2272 H 207.9 0.205372 0.644048 0
M  V30 2273 H 210.454 1.20958 1.66007 0
M  V30 2274 H 208.684 -0.0785592 3.8662 0
M  V30 2275 H 210.373 0.29881 4.04799 0
M  V30 2276 H 211.139 2.78112 3.97339 0
M  V30 2277 H 207.018 1.60534 4.32145 0
M  V30 2278 H 210.562 5.0173 4.84678 0
M  V30 2279 H 206.459 3.83251 5.19412 0
M  V30 2280 H 207.227 5.83542 5.73952 0
M  V30 2281 N 209.89 -1.43072 0.660911 0
M  V30 2282 C 210.853 -2.29194 -0.0166406 0
M  V30 2283 C 211.853 -1.42609 -0.742912 0
M  V30 2284 O 213.043 -1.64155 -0.583004 0
M  V30 2285 C 210.175 -3.24831 -1.0343 0
M  V30 2286 H 211.368 -2.90596 0.741208 0
M  V30 2287 H 208.921 -1.5048 0.422532 0
M  V30 2288 H 209.656 -2.68339 -1.82111 0
M  V30 2289 H 209.441 -3.88676 -0.517082 0
M  V30 2290 H 210.931 -3.89451 -1.50723 0
M  V30 2291 N 211.368 -0.403325 -1.52352 0
M  V30 2292 C 212.316 0.439752 -2.28405 0
M  V30 2293 C 213.31 1.05089 -1.32863 0
M  V30 2294 O 214.516 0.989759 -1.50345 0
M  V30 2295 H 210.891 0.160587 -0.734653 0
M  V30 2296 H 212.862 -0.222983 -2.97566 0
M  V30 2297 C 211.611 1.54736 -3.11371 0
M  V30 2298 H 210.934 1.08643 -3.84755 0
M  V30 2299 H 212.374 2.1112 -3.67701 0
M  V30 2300 C 210.833 2.51141 -2.24566 0
M  V30 2301 O 211.363 3.54887 -1.88196 0
M  V30 2302 N 209.569 2.21213 -1.8845 0
M  V30 2303 H 209.116 1.36878 -2.18225 0
M  V30 2304 H 209.074 2.85963 -1.30662 0
M  V30 2305 N 212.846 1.57033 -0.133567 0
M  V30 2306 C 213.809 2.14897 0.796995 0
M  V30 2307 C 214.809 1.0874 1.18458 0
M  V30 2308 O 215.999 1.34446 1.1077 0
M  V30 2309 C 213.131 2.70112 2.07973 0
M  V30 2310 H 214.324 2.98457 0.293873 0
M  V30 2311 H 211.877 1.55871 0.115787 0
M  V30 2312 H 212.612 1.9018 2.62682 0
M  V30 2313 H 212.397 3.47764 1.81115 0
M  V30 2314 H 213.887 3.14738 2.74462 0
M  V30 2315 N 214.325 -0.140222 1.56975 0
M  V30 2316 C 215.257 -1.19818 1.95388 0
M  V30 2317 C 216.27 -1.38816 0.850525 0
M  V30 2318 O 217.459 -1.38267 1.12891 0
M  V30 2319 C 214.559 -2.56189 2.21857 0
M  V30 2320 C 213.732 -2.58077 3.5315 0
M  V30 2321 C 212.791 -3.76037 3.6808 0
M  V30 2322 O 211.817 -3.60598 4.40406 0
M  V30 2323 N 213.019 -4.93763 3.05251 0
M  V30 2324 H 215.784 -0.871609 2.86746 0
M  V30 2325 H 213.345 -0.32972 1.58507 0
M  V30 2326 H 215.337 -3.33623 2.2908 0
M  V30 2327 H 213.907 -2.81111 1.36731 0
M  V30 2328 H 213.127 -1.6651 3.57307 0
M  V30 2329 H 214.415 -2.56377 4.39486 0
M  V30 2330 H 213.813 -5.09209 2.46419 0
M  V30 2331 H 212.37 -5.68949 3.18026 0
M  V30 2332 N 215.803 -1.52179 -0.40978 0
M  V30 2333 C 216.766 -1.74853 -1.48186 0
M  V30 2334 C 217.766 -0.618417 -1.48433 0
M  V30 2335 O 218.956 -0.886286 -1.49969 0
M  V30 2336 C 216.088 -1.8303 -2.87598 0
M  V30 2337 H 217.281 -2.70559 -1.29374 0
M  V30 2338 H 214.834 -1.42586 -0.640233 0
M  V30 2339 H 215.569 -0.89236 -3.11781 0
M  V30 2340 H 215.354 -2.65187 -2.88822 0
M  V30 2341 H 216.844 -2.02316 -3.65319 0
M  V30 2342 N 217.281 0.66697 -1.42791 0
M  V30 2343 C 218.231 1.77313 -1.43332 0
M  V30 2344 C 219.215 1.5801 -0.303586 0
M  V30 2345 O 220.407 1.68356 -0.546385 0
M  V30 2346 C 217.536 3.15822 -1.34578 0
M  V30 2347 C 216.622 3.40721 -2.52528 0
M  V30 2348 N 217.013 3.36162 -3.77927 0
M  V30 2349 C 215.311 3.71387 -2.46956 0
M  V30 2350 C 216.012 3.60762 -4.56318 0
M  V30 2351 N 214.988 3.81908 -3.86843 0
M  V30 2352 H 218.79 1.72193 -2.38174 0
M  V30 2353 H 216.304 0.868114 -1.3725 0
M  V30 2354 H 218.301 3.951 -1.33048 0
M  V30 2355 H 216.961 3.22133 -0.407453 0
M  V30 2356 H 217.972 3.15885 -4.10411 0
M  V30 2357 H 214.649 3.84897 -1.61743 0
M  V30 2358 H 216.039 3.63132 -5.65318 0
M  V30 2359 N 218.759 1.29093 0.90403 0
M  V30 2360 C 220.17 1.15186 1.46932 0
M  V30 2361 C 220.521 -0.254587 1.94541 0
M  V30 2362 O 219.646 -1.14972 1.83332 0
M  V30 2363 C 220.241 2.08492 2.67051 0
M  V30 2364 C 218.8 1.98621 3.19729 0
M  V30 2365 C 217.947 1.9967 1.92425 0
M  V30 2366 H 220.898 1.41641 0.715789 0
M  V30 2367 H 220.919 1.65461 3.42641 0
M  V30 2368 H 220.431 3.10847 2.3237 0
M  V30 2369 H 218.532 0.993389 3.59114 0
M  V30 2370 H 218.645 2.86068 3.8432 0
M  V30 2371 H 217.009 1.44208 2.09943 0
M  V30 2372 H 217.792 3.03721 1.60026 0
M  V30 2373 N 220.237 -1.11381 1.11499 0
M  V30 2374 C 221.484 -1.83132 0.864231 0
M  V30 2375 C 221.812 -1.84683 -0.610114 0
M  V30 2376 O 221.067 -1.29589 -1.46646 0
M  V30 2377 C 221.366 -3.30026 1.37177 0
M  V30 2378 C 221.032 -3.48634 2.85946 0
M  V30 2379 C 219.694 -3.53421 3.26569 0
M  V30 2380 C 222.046 -3.54837 3.81759 0
M  V30 2381 C 219.374 -3.61967 4.61733 0
M  V30 2382 C 221.726 -3.64915 5.1674 0
M  V30 2383 C 220.39 -3.67962 5.5692 0
M  V30 2384 H 219.66 -0.670127 0.316245 0
M  V30 2385 H 222.307 -1.31354 1.3935 0
M  V30 2386 H 220.612 -3.84304 0.762753 0
M  V30 2387 H 222.309 -3.84034 1.15408 0
M  V30 2388 H 218.899 -3.45579 2.53521 0
M  V30 2389 H 223.083 -3.50399 3.51474 0
M  V30 2390 H 218.339 -3.62603 4.92269 0
M  V30 2391 H 222.513 -3.68658 5.90816 0
M  V30 2392 H 220.14 -3.74336 6.61647 0
M  V30 2393 N 221.715 -0.905404 -1.28997 0
M  V30 2394 C 222.648 -0.331959 -2.25773 0
M  V30 2395 C 223.626 0.559099 -1.52685 0
M  V30 2396 O 224.81 0.50463 -1.8162 0
M  V30 2397 C 221.937 0.526276 -3.34586 0
M  V30 2398 C 220.983 -0.298249 -4.25456 0
M  V30 2399 S 221.816 -1.69968 -5.0781 0
M  V30 2400 C 222.972 -0.848519 -6.20122 0
M  V30 2401 H 223.205 -1.15222 -2.74064 0
M  V30 2402 H 220.738 -0.706112 -1.37308 0
M  V30 2403 H 222.696 1.01565 -3.97737 0
M  V30 2404 H 221.357 1.32084 -2.84978 0
M  V30 2405 H 220.55 0.357607 -5.0273 0
M  V30 2406 H 220.152 -0.720968 -3.66985 0
M  V30 2407 H 222.444 -0.0744325 -6.77459 0
M  V30 2408 H 223.387 -1.59353 -6.89937 0
M  V30 2409 H 223.795 -0.400383 -5.63078 0
M  V30 2410 N 223.193 1.4272 -0.668489 0
M  V30 2411 C 224.143 2.27971 0.0363806 0
M  V30 2412 C 225.127 1.40741 0.779794 0
M  V30 2413 O 226.319 1.64245 0.659745 0
M  V30 2414 C 223.448 3.28673 0.991398 0
M  V30 2415 C 222.534 4.23388 0.245658 0
M  V30 2416 N 222.925 5.00267 -0.746069 0
M  V30 2417 C 221.223 4.43355 0.484988 0
M  V30 2418 C 221.924 5.69396 -1.19009 0
M  V30 2419 N 220.9 5.41095 -0.521287 0
M  V30 2420 H 224.702 2.84833 -0.724394 0
M  V30 2421 H 222.216 1.54607 -0.497028 0
M  V30 2422 H 224.213 3.88543 1.51129 0
M  V30 2423 H 222.873 2.73373 1.75207 0
M  V30 2424 H 223.884 5.05525 -1.12537 0
M  V30 2425 H 220.561 3.99104 1.22565 0
M  V30 2426 H 221.951 6.41083 -2.01153 0
M  V30 2427 N 224.671 0.411399 1.52136 0
M  V30 2428 C 225.619 -0.427633 2.28635 0
M  V30 2429 C 226.613 -1.04383 1.33419 0
M  V30 2430 O 227.819 -0.981772 1.50868 0
M  V30 2431 H 224.194 -0.156689 0.735495 0
M  V30 2432 H 226.165 0.238761 2.97443 0
M  V30 2433 C 224.914 -1.53082 3.12188 0
M  V30 2434 H 224.237 -1.06601 3.85326 0
M  V30 2435 H 225.677 -2.09167 3.68816 0
M  V30 2436 C 224.136 -2.49946 2.25895 0
M  V30 2437 O 224.666 -3.53884 1.90076 0
M  V30 2438 N 222.872 -2.2021 1.8962 0
M  V30 2439 H 222.419 -1.35719 2.18948 0
M  V30 2440 H 222.377 -2.85266 1.32176 0
M  V30 2441 N 226.149 -1.5696 0.141893 0
M  V30 2442 C 227.097 -2.17784 -0.816874 0
M  V30 2443 C 228.091 -1.1334 -1.25899 0
M  V30 2444 O 229.297 -1.316 -1.22806 0
M  V30 2445 H 225.672 -0.697278 -0.281615 0
M  V30 2446 H 227.643 -2.97087 -0.279621 0
M  V30 2447 C 226.392 -2.80983 -2.04802 0
M  V30 2448 H 225.715 -3.61062 -1.7168 0
M  V30 2449 H 227.155 -3.2705 -2.69841 0
M  V30 2450 C 225.614 -1.79228 -2.8527 0
M  V30 2451 O 226.144 -1.25962 -3.8144 0
M  V30 2452 N 224.35 -1.48647 -2.49704 0
M  V30 2453 H 223.897 -1.92155 -1.71564 0
M  V30 2454 H 223.855 -0.808115 -3.03837 0
M  V30 2455 N 227.627 0.131896 -1.57047 0
M  V30 2456 C 228.867 0.847972 -1.85981 0
M  V30 2457 C 229.231 1.77655 -0.7282 0
M  V30 2458 O 230.432 2.53322 -0.898968 0
M  V30 2459 C 228.703 1.58919 -3.20124 0
M  V30 2460 S 230.262 2.34862 -3.70655 0
M  V30 2461 H 227.08 0.283273 -0.652133 0
M  V30 2462 H 229.682 0.107057 -1.95207 0
M  V30 2463 H 228.386 0.898771 -4.00438 0
M  V30 2464 H 227.917 2.37073 -3.13942 0
M  V30 2465 H 229.932 3.60344 -3.41126 0
M  V30 2466 N 229.106 1.52395 0.401703 0
M  V30 2467 C 230.383 1.57387 1.16141 0
M  V30 2468 C 230.763 0.359359 2.08019 0
M  V30 2469 O 230.111 -0.65326 2.18963 0
M  V30 2470 C 230.321 2.90631 1.93221 0
M  V30 2471 C 231.669 3.43904 2.49028 0
M  V30 2472 O 232.693 2.92421 2.03393 0
M  V30 2473 O 231.552 4.33823 3.32356 0
M  V30 2474 H 228.646 0.634262 0.530698 0
M  V30 2475 H 231.192 1.64725 0.407883 0
M  V30 2476 H 229.964 3.70473 1.25958 0
M  V30 2477 H 229.587 2.8662 2.75563 0
M  V30 2478 N 230.584 -0.659388 1.43143 0
M  V30 2479 C 231.534 -1.7655 1.44271 0
M  V30 2480 C 232.518 -1.57847 0.311961 0
M  V30 2481 O 233.71 -1.68064 0.555306 0
M  V30 2482 C 230.839 -3.15104 1.36251 0
M  V30 2483 C 229.925 -3.39377 2.54331 0
M  V30 2484 N 230.316 -3.34153 3.79704 0
M  V30 2485 C 228.614 -3.70072 2.48922 0
M  V30 2486 C 229.315 -3.58337 4.58225 0
M  V30 2487 N 228.291 -3.79851 3.88863 0
M  V30 2488 H 232.093 -1.70928 2.39083 0
M  V30 2489 H 229.607 -0.860823 1.37708 0
M  V30 2490 H 231.604 -3.94389 1.35141 0
M  V30 2491 H 230.264 -3.21913 0.424531 0
M  V30 2492 H 231.275 -3.13704 4.1208 0
M  V30 2493 H 227.952 -3.84034 1.63781 0
M  V30 2494 H 229.342 -3.60129 5.67236 0
M  V30 2495 N 232.062 -1.29571 -0.897171 0
M  V30 2496 C 232.992 -1.17473 -2.01798 0
M  V30 2497 C 233.973 -0.068323 -1.69963 0
M  V30 2498 O 235.158 -0.248239 -1.92607 0
M  V30 2499 C 232.288 -0.853099 -3.36659 0
M  V30 2500 C 231.242 -1.9161 -3.82713 0
M  V30 2501 C 230.568 -1.44773 -5.14728 0
M  V30 2502 C 231.868 -3.32535 -4.02763 0
M  V30 2503 H 233.562 -2.11237 -2.12177 0
M  V30 2504 H 231.108 -1.01699 -1.01948 0
M  V30 2505 H 233.061 -0.755165 -4.14578 0
M  V30 2506 H 231.785 0.120236 -3.26379 0
M  V30 2507 H 230.444 -2.00346 -3.07013 0
M  V30 2508 H 230.092 -0.462995 -5.00865 0
M  V30 2509 H 229.792 -2.15865 -5.46513 0
M  V30 2510 H 231.316 -1.36334 -5.95185 0
M  V30 2511 H 232.73 -3.26626 -4.71156 0
M  V30 2512 H 231.127 -4.01607 -4.45905 0
M  V30 2513 H 232.197 -3.75326 -3.07016 0
M  V30 2514 N 233.54 1.10788 -1.12088 0
M  V30 2515 C 234.956 1.34691 -0.856186 0
M  V30 2516 C 235.156 1.94791 0.515615 0
M  V30 2517 O 234.212 2.18524 1.26505 0
M  V30 2518 C 235.525 2.27208 -1.9697 0
M  V30 2519 C 237.073 2.40755 -2.00016 0
M  V30 2520 C 237.548 3.36598 -3.1059 0
M  V30 2521 N 239.039 3.44164 -3.10008 0
M  V30 2522 C 239.774 4.18284 -3.92206 0
M  V30 2523 N 239.27 4.95322 -4.84384 0
M  V30 2524 N 241.063 4.13865 -3.80357 0
M  V30 2525 H 233.214 0.70144 -2.00483 0
M  V30 2526 H 235.477 0.371405 -0.872217 0
M  V30 2527 H 235.183 1.90251 -2.958 0
M  V30 2528 H 235.057 3.27485 -1.87172 0
M  V30 2529 H 237.444 2.76982 -1.01808 0
M  V30 2530 H 237.525 1.40305 -2.13888 0
M  V30 2531 H 237.169 3.01096 -4.09028 0
M  V30 2532 H 237.099 4.36918 -2.93956 0
M  V30 2533 H 239.59 2.8922 -2.43228 0
M  V30 2534 H 239.903 5.49267 -5.43623 0
M  V30 2535 H 238.248 4.94459 -4.884 0
M  V30 2536 H 241.439 3.52773 -3.07683 0
M  V30 2537 H 241.612 4.71372 -4.44649 0
M  V30 2538 N 235.018 0.912232 1.28515 0
M  V30 2539 C 235.951 0.343928 2.25593 0
M  V30 2540 C 236.929 -0.550994 1.5298 0
M  V30 2541 O 238.113 -0.494991 1.81885 0
M  V30 2542 C 235.24 -0.508525 3.34861 0
M  V30 2543 C 234.286 0.320808 4.25292 0
M  V30 2544 S 235.119 1.72658 5.06902 0
M  V30 2545 C 236.275 0.881394 6.19663 0
M  V30 2546 H 236.508 1.16674 2.73449 0
M  V30 2547 H 234.041 0.713384 1.36931 0
M  V30 2548 H 235.999 -0.994539 3.9827 0
M  V30 2549 H 234.66 -1.30571 2.85675 0
M  V30 2550 H 233.853 -0.330941 5.02912 0
M  V30 2551 H 233.455 0.74042 3.66598 0
M  V30 2552 H 235.747 0.110359 6.7741 0
M  V30 2553 H 236.69 1.63009 6.89082 0
M  V30 2554 H 237.098 0.430239 5.62858 0
M  V30 2555 N 236.496 -1.42363 0.676048 0
M  V30 2556 C 237.426 -2.33497 0.0124832 0
M  V30 2557 C 238.407 -1.50748 -0.787981 0
M  V30 2558 O 239.592 -1.79346 -0.744884 0
M  V30 2559 C 236.722 -3.34377 -0.938582 0
M  V30 2560 C 235.676 -4.27289 -0.246622 0
M  V30 2561 C 235.002 -5.18386 -1.31071 0
M  V30 2562 C 236.302 -5.14916 0.875125 0
M  V30 2563 H 237.996 -2.89233 0.773593 0
M  V30 2564 H 235.542 -1.39073 0.37346 0
M  V30 2565 H 237.495 -3.97044 -1.41188 0
M  V30 2566 H 236.219 -2.76947 -1.73113 0
M  V30 2567 H 234.878 -3.66018 0.206456 0
M  V30 2568 H 234.526 -4.57282 -2.09528 0
M  V30 2569 H 234.226 -5.81378 -0.852839 0
M  V30 2570 H 235.75 -5.83929 -1.78492 0
M  V30 2571 H 237.164 -5.71262 0.482983 0
M  V30 2572 H 235.561 -5.86747 1.25887 0
M  V30 2573 H 236.631 -4.53242 1.72335 0
M  V30 2574 N 237.974 -0.419461 -1.51915 0
M  V30 2575 C 239.223 0.154346 -2.01109 0
M  V30 2576 C 239.536 1.45338 -1.30905 0
M  V30 2577 O 240.742 2.10906 -1.7097 0
M  V30 2578 C 239.198 0.325615 -3.58424 0
M  V30 2579 C 238.806 -0.961934 -4.37551 0
M  V30 2580 C 240.55 0.854155 -4.15818 0
M  V30 2581 C 238.457 -0.757287 -5.86531 0
M  V30 2582 H 237.387 0.0614563 -0.751491 0
M  V30 2583 H 240.038 -0.54649 -1.75173 0
M  V30 2584 H 238.42 1.08903 -3.80731 0
M  V30 2585 H 239.594 -1.7323 -4.26999 0
M  V30 2586 H 237.909 -1.41766 -3.91524 0
M  V30 2587 H 240.506 1.02346 -5.24814 0
M  V30 2588 H 240.849 1.83172 -3.73837 0
M  V30 2589 H 241.382 0.149528 -3.97519 0
M  V30 2590 H 238.121 -1.70671 -6.32892 0
M  V30 2591 H 237.641 -0.0264061 -5.99794 0
M  V30 2592 H 239.32 -0.403482 -6.45741 0
M  V30 2593 N 239.452 1.56882 -0.150215 0
M  V30 2594 C 240.384 2.14057 0.819286 0
M  V30 2595 C 241.397 1.09082 1.20851 0
M  V30 2596 O 242.586 1.36347 1.15203 0
M  V30 2597 C 239.686 2.65102 2.11127 0
M  V30 2598 C 238.859 3.94511 1.88891 0
M  V30 2599 C 237.918 4.30834 3.02107 0
M  V30 2600 O 236.944 4.99099 2.73659 0
M  V30 2601 N 238.146 3.90676 4.29363 0
M  V30 2602 H 240.911 2.97871 0.330618 0
M  V30 2603 H 238.472 1.61866 0.0332538 0
M  V30 2604 H 240.464 2.86411 2.85921 0
M  V30 2605 H 239.034 1.85994 2.51247 0
M  V30 2606 H 238.254 3.81795 0.981152 0
M  V30 2607 H 239.542 4.7907 1.71376 0
M  V30 2608 H 238.94 3.35677 4.55343 0
M  V30 2609 H 237.497 4.1703 5.00928 0
M  V30 2610 N 240.93 -0.123565 1.57115 0
M  V30 2611 C 242.346 -0.476961 1.52306 0
M  V30 2612 C 242.546 -1.82109 0.86248 0
M  V30 2613 O 241.602 -2.48586 0.442884 0
M  V30 2614 C 242.915 -0.465661 2.97073 0
M  V30 2615 C 244.463 -0.549534 3.08138 0
M  V30 2616 C 244.938 -0.568669 4.54456 0
M  V30 2617 N 246.429 -0.630237 4.58892 0
M  V30 2618 C 247.164 -0.666415 5.69514 0
M  V30 2619 N 246.66 -0.660514 6.89644 0
M  V30 2620 N 248.453 -0.709077 5.5761 0
M  V30 2621 H 240.604 0.757198 1.98445 0
M  V30 2622 H 242.867 0.278808 0.906074 0
M  V30 2623 H 242.573 0.454232 3.48754 0
M  V30 2624 H 242.447 -1.29513 3.54269 0
M  V30 2625 H 244.834 -1.45985 2.56461 0
M  V30 2626 H 244.915 0.307532 2.53945 0
M  V30 2627 H 244.559 0.337581 5.06777 0
M  V30 2628 H 244.489 -1.44256 5.06456 0
M  V30 2629 H 246.98 -0.641146 3.72421 0
M  V30 2630 H 247.293 -0.690616 7.69708 0
M  V30 2631 H 245.638 -0.628012 6.92157 0
M  V30 2632 H 248.829 -0.711019 4.62668 0
M  V30 2633 H 249.002 -0.733804 6.43832 0
M  V30 2634 N 242.408 -1.52605 -0.393616 0
M  V30 2635 C 243.358 -1.73436 -1.48 0
M  V30 2636 C 244.342 -0.588386 -1.49756 0
M  V30 2637 O 245.534 -0.846047 -1.5547 0
M  V30 2638 C 242.663 -1.90247 -2.85764 0
M  V30 2639 C 241.749 -3.10763 -2.88595 0
M  V30 2640 N 242.14 -4.33196 -2.61103 0
M  V30 2641 C 240.438 -3.10914 -3.19763 0
M  V30 2642 C 241.139 -5.1477 -2.70899 0
M  V30 2643 N 240.115 -4.50356 -3.04435 0
M  V30 2644 H 243.917 -2.65727 -1.25563 0
M  V30 2645 H 241.431 -1.5085 -0.601513 0
M  V30 2646 H 243.428 -2.03291 -3.63976 0
M  V30 2647 H 242.088 -0.991663 -3.09186 0
M  V30 2648 H 243.099 -4.61408 -2.35209 0
M  V30 2649 H 239.776 -2.29626 -3.4868 0
M  V30 2650 H 241.166 -6.22355 -2.53227 0
M  V30 2651 N 243.887 0.651787 -1.4349 0
M  V30 2652 C 245.135 1.40888 -1.44897 0
M  V30 2653 C 245.456 1.94856 -0.0749086 0
M  V30 2654 O 244.726 1.74518 0.889956 0
M  V30 2655 H 243.306 0.522887 -0.533478 0
M  V30 2656 H 245.968 0.768609 -1.79104 0
M  V30 2657 H 245.064 2.25052 -2.16236 0
M  V30 2658 N 245.365 1.30045 0.890287 0
M  V30 2659 C 246.776 1.16738 1.45702 0
M  V30 2660 C 247.127 -0.233939 1.948 0
M  V30 2661 O 246.252 -1.13021 1.84541 0
M  V30 2662 C 246.847 2.11313 2.64825 0
M  V30 2663 C 245.406 2.02001 3.17604 0
M  V30 2664 C 244.553 2.01699 1.90296 0
M  V30 2665 H 247.504 1.42392 0.700726 0
M  V30 2666 H 247.525 1.69086 3.40867 0
M  V30 2667 H 247.037 3.13294 2.2906 0
M  V30 2668 H 245.138 1.03142 3.5804 0
M  V30 2669 H 245.251 2.90128 3.81264 0
M  V30 2670 H 243.615 1.46427 2.08402 0
M  V30 2671 H 244.398 3.05402 1.56795 0
M  V30 2672 N 246.843 -1.10192 1.12674 0
M  V30 2673 C 248.091 -1.81845 0.881861 0
M  V30 2674 C 248.412 -1.85737 -0.593867 0
M  V30 2675 O 247.682 -1.33724 -1.4316 0
M  V30 2676 H 246.262 -0.673432 0.323261 0
M  V30 2677 H 248.924 -1.33316 1.42172 0
M  V30 2678 H 248.02 -2.85288 1.2656 0
M  V30 2679 N 248.321 -0.919034 -1.28029 0
M  V30 2680 C 249.57 -0.550802 -1.94034 0
M  V30 2681 C 249.883 0.910877 -1.73096 0
M  V30 2682 O 251.089 1.3875 -2.33368 0
M  V30 2683 C 249.545 -0.934249 -3.47563 0
M  V30 2684 C 249.153 -2.41602 -3.7727 0
M  V30 2685 C 250.897 -0.636854 -4.19696 0
M  V30 2686 C 248.804 -2.73932 -5.24133 0
M  V30 2687 H 247.734 -0.202273 -0.726362 0
M  V30 2688 H 250.385 -1.11867 -1.45458 0
M  V30 2689 H 248.767 -0.295115 -3.94899 0
M  V30 2690 H 249.941 -3.10233 -3.40723 0
M  V30 2691 H 248.256 -2.68441 -3.18321 0
M  V30 2692 H 250.853 -0.855005 -5.2782 0
M  V30 2693 H 251.196 0.425575 -4.14119 0
M  V30 2694 H 251.729 -1.23469 -3.78154 0
M  V30 2695 H 248.468 -3.79049 -5.34792 0
M  V30 2696 H 247.988 -2.09942 -5.61858 0
M  V30 2697 H 249.667 -2.61215 -5.91925 0
M  V30 2698 N 249.799 1.42003 -0.683588 0
M  V30 2699 C 251.048 2.00638 -0.206681 0
M  V30 2700 C 251.361 1.5472 1.19671 0
M  V30 2701 O 252.567 2.05833 1.77045 0
M  V30 2702 C 251.023 3.58487 -0.318632 0
M  V30 2703 C 250.631 4.1339 -1.72663 0
M  V30 2704 C 252.375 4.24384 0.0991141 0
M  V30 2705 C 250.282 5.63633 -1.79087 0
M  V30 2706 H 249.212 0.750408 -0.0735107 0
M  V30 2707 H 251.863 1.62624 -0.850048 0
M  V30 2708 H 250.245 3.94047 0.392781 0
M  V30 2709 H 251.419 3.89273 -2.46583 0
M  V30 2710 H 249.734 3.59976 -2.09299 0
M  V30 2711 H 252.331 5.34652 0.0713833 0
M  V30 2712 H 252.674 4.00505 1.13586 0
M  V30 2713 H 253.207 3.93816 -0.561599 0
M  V30 2714 H 249.946 5.92323 -2.80774 0
M  V30 2715 H 249.466 5.89714 -1.09535 0
M  V30 2716 H 251.145 6.28201 -1.5483 0
M  V30 2717 N 251.277 0.427512 1.51691 0
M  V30 2718 C 252.523 -0.142439 2.02299 0
M  V30 2719 C 252.856 -1.43214 1.31162 0
M  V30 2720 O 252.131 -1.89833 0.423511 0
M  V30 2721 C 252.414 -0.371301 3.58181 0
M  V30 2722 C 252.267 0.936358 4.39946 0
M  V30 2723 C 253.586 -1.14542 4.24933 0
M  V30 2724 H 250.705 -0.0502937 0.735282 0
M  V30 2725 H 253.347 0.564584 1.81418 0
M  V30 2726 H 251.497 -0.973559 3.76104 0
M  V30 2727 H 253.169 1.57184 4.33694 0
M  V30 2728 H 251.412 1.5432 4.05423 0
M  V30 2729 H 252.083 0.730388 5.47147 0
M  V30 2730 H 254.559 -0.635362 4.11221 0
M  V30 2731 H 253.435 -1.27431 5.33903 0
M  V30 2732 H 253.696 -2.17093 3.85127 0
M  V30 2733 N 252.755 -1.56801 0.158532 0
M  V30 2734 C 254.001 -1.96781 -0.490405 0
M  V30 2735 C 254.334 -1.04397 -1.63753 0
M  V30 2736 O 253.609 -0.0885805 -1.94298 0
M  V30 2737 C 253.892 -3.4635 -0.985594 0
M  V30 2738 C 253.745 -4.49512 0.160824 0
M  V30 2739 C 255.064 -3.98697 -1.86355 0
M  V30 2740 H 252.183 -0.715482 -0.176788 0
M  V30 2741 H 254.825 -1.88451 0.242088 0
M  V30 2742 H 252.975 -3.53579 -1.60978 0
M  V30 2743 H 254.647 -4.54353 0.797537 0
M  V30 2744 H 252.89 -4.26013 0.818256 0
M  V30 2745 H 253.561 -5.51531 -0.227569 0
M  V30 2746 H 256.037 -3.94019 -1.33746 0
M  V30 2747 H 254.913 -5.03792 -2.17909 0
M  V30 2748 H 255.174 -3.41744 -2.8047 0
M  V30 2749 N 254.233 0.115231 -1.57178 0
M  V30 2750 C 255.51 0.852873 -1.76027 0
M  V30 2751 C 255.89 1.97892 -0.73498 0
M  V30 2752 O 255.238 2.27232 0.24036 0
M  V30 2753 C 255.448 1.36608 -3.21153 0
M  V30 2754 C 256.796 1.81692 -3.83762 0
M  V30 2755 O 257.82 1.46278 -3.24779 0
M  V30 2756 O 256.679 2.47104 -4.87444 0
M  V30 2757 H 253.773 0.405296 -0.720877 0
M  V30 2758 H 256.319 0.0986785 -1.69413 0
M  V30 2759 H 255.091 0.558357 -3.87296 0
M  V30 2760 H 254.714 2.18287 -3.3232 0
M  V30 2761 N 255.711 1.52812 0.385517 0
M  V30 2762 C 256.936 1.72207 1.15583 0
M  V30 2763 C 257.361 0.441034 1.82857 0
M  V30 2764 O 256.719 -0.603465 1.70962 0
M  V30 2765 C 256.767 2.87476 2.17692 0
M  V30 2766 O 255.871 2.54693 3.24354 0
M  V30 2767 H 255.212 0.572526 0.336319 0
M  V30 2768 H 257.742 1.99618 0.448744 0
M  V30 2769 H 257.752 3.13072 2.6163 0
M  V30 2770 H 256.427 3.80408 1.68115 0
M  V30 2771 H 255.004 2.3985 2.85529 0
M  V30 2772 N 257.189 -0.644168 1.43834 0
M  V30 2773 C 258.438 -1.39985 1.45214 0
M  V30 2774 C 258.751 -1.95421 0.0835494 0
M  V30 2775 O 259.957 -2.71488 -0.0251748 0
M  V30 2776 C 258.413 -2.53384 2.55587 0
M  V30 2777 C 258.021 -2.04517 3.98594 0
M  V30 2778 C 259.765 -3.30685 2.66172 0
M  V30 2779 C 257.672 -3.1518 5.00416 0
M  V30 2780 H 256.602 -0.526005 0.540218 0
M  V30 2781 H 259.253 -0.694367 1.69855 0
M  V30 2782 H 257.635 -3.26446 2.24163 0
M  V30 2783 H 258.809 -1.38405 4.39523 0
M  V30 2784 H 257.124 -1.40068 3.92135 0
M  V30 2785 H 259.721 -4.13158 3.39418 0
M  V30 2786 H 260.064 -3.79312 1.71546 0
M  V30 2787 H 260.597 -2.64708 2.96942 0
M  V30 2788 H 257.336 -2.71511 5.96625 0
M  V30 2789 H 256.856 -3.79974 4.64091 0
M  V30 2790 H 258.535 -3.80166 5.23529 0
M  V30 2791 N 258.668 -1.30515 -0.883378 0
M  V30 2792 C 259.898 -1.22182 -1.66599 0
M  V30 2793 C 260.306 0.217507 -1.87946 0
M  V30 2794 O 259.649 1.1554 -1.42815 0
M  V30 2795 C 259.711 -1.88146 -3.06335 0
M  V30 2796 C 259.375 -3.37476 -3.08154 0
M  V30 2797 C 260.372 -4.33443 -2.87094 0
M  V30 2798 C 258.057 -3.7895 -3.29701 0
M  V30 2799 C 260.051 -5.68858 -2.8754 0
M  V30 2800 C 257.738 -5.14482 -3.29776 0
M  V30 2801 C 258.736 -6.09246 -3.0872 0
M  V30 2802 O 258.424 -7.42302 -3.08615 0
M  V30 2803 H 258.156 -0.423898 -0.52658 0
M  V30 2804 H 260.71 -1.72703 -1.11188 0
M  V30 2805 H 258.94 -1.32157 -3.63416 0
M  V30 2806 H 260.629 -1.7391 -3.66756 0
M  V30 2807 H 261.395 -4.02733 -2.70243 0
M  V30 2808 H 257.274 -3.05631 -3.45124 0
M  V30 2809 H 260.818 -6.428 -2.71024 0
M  V30 2810 H 256.715 -5.44832 -3.46163 0
M  V30 2811 H 257.483 -7.5131 -3.24769 0
M  V30 2812 N 260.146 1.09593 -1.13257 0
M  V30 2813 C 261.371 1.8604 -0.916732 0
M  V30 2814 C 261.796 1.80504 0.529146 0
M  V30 2815 O 261.154 1.18127 1.37534 0
M  V30 2816 C 261.202 3.32017 -1.40703 0
M  V30 2817 O 260.306 4.08141 -0.591153 0
M  V30 2818 H 259.647 0.576943 -0.328683 0
M  V30 2819 H 262.177 1.38405 -1.50682 0
M  V30 2820 H 262.187 3.82865 -1.4099 0
M  V30 2821 H 260.862 3.35361 -2.45979 0
M  V30 2822 H 259.439 3.67084 -0.656005 0
M  V30 2823 N 261.624 0.925811 1.2754 0
M  V30 2824 C 262.852 0.581509 1.9856 0
M  V30 2825 C 263.267 -0.840041 1.69082 0
M  V30 2826 O 262.624 -1.55805 0.950312 0
M  V30 2827 C 262.675 0.795589 3.52637 0
M  V30 2828 O 262.396 2.16121 3.81082 0
M  V30 2829 C 263.897 0.459744 4.4091 0
M  V30 2830 H 261.117 0.220538 0.633722 0
M  V30 2831 H 263.661 1.24232 1.6244 0
M  V30 2832 H 261.816 0.18161 3.86974 0
M  V30 2833 H 262.23 2.2098 4.75676 0
M  V30 2834 H 263.704 0.660244 5.48037 0
M  V30 2835 H 264.181 -0.604625 4.35018 0
M  V30 2836 H 264.787 1.05178 4.12089 0
M  V30 2837 N 263.102 -1.41638 0.69111 0
M  V30 2838 C 264.032 -2.3347 0.037248 0
M  V30 2839 C 265.013 -1.51575 -0.771947 0
M  V30 2840 O 266.198 -1.80126 -0.72582 0
M  V30 2841 C 263.328 -3.35354 -0.903064 0
M  V30 2842 C 262.282 -4.27526 -0.201288 0
M  V30 2843 C 261.608 -5.19747 -1.25565 0
M  V30 2844 C 262.908 -5.13959 0.929689 0
M  V30 2845 H 264.602 -2.88397 0.804227 0
M  V30 2846 H 262.148 -1.38669 0.388189 0
M  V30 2847 H 264.101 -3.98519 -1.36969 0
M  V30 2848 H 262.825 -2.78767 -1.70166 0
M  V30 2849 H 261.484 -3.65779 0.245265 0
M  V30 2850 H 261.132 -4.59479 -2.04666 0
M  V30 2851 H 260.832 -5.8225 -0.791128 0
M  V30 2852 H 262.356 -5.85789 -1.72288 0
M  V30 2853 H 263.77 -5.70718 0.543546 0
M  V30 2854 H 262.167 -5.85379 1.32103 0
M  V30 2855 H 263.237 -4.51389 1.77133 0
M  V30 2856 N 264.58 -0.43555 -1.51462 0
M  V30 2857 C 265.828 0.131254 -2.01673 0
M  V30 2858 C 266.149 1.43368 -1.32177 0
M  V30 2859 O 265.419 1.90524 -0.455769 0
M  V30 2860 H 263.999 0.0514954 -0.745223 0
M  V30 2861 H 266.661 -0.577847 -1.86137 0
M  V30 2862 H 265.757 0.308446 -3.10572 0
M  V30 2863 N 266.058 1.56714 -0.166846 0
M  V30 2864 C 267.286 2.0112 0.485644 0
M  V30 2865 C 267.701 1.04705 1.57106 0
M  V30 2866 O 267.058 0.0471923 1.82439 0
M  V30 2867 C 267.109 3.45361 1.06808 0
M  V30 2868 O 266.83 4.38092 0.0259995 0
M  V30 2869 C 268.331 4.05145 1.79924 0
M  V30 2870 H 265.551 0.65931 0.124704 0
M  V30 2871 H 268.095 2.02746 -0.267262 0
M  V30 2872 H 266.25 3.44524 1.7715 0
M  V30 2873 H 266.664 5.22519 0.455398 0
M  V30 2874 H 268.138 5.08009 2.15942 0
M  V30 2875 H 268.615 3.46982 2.69258 0
M  V30 2876 H 269.221 4.09672 1.14234 0
M  V30 2877 N 267.536 -0.106894 1.57237 0
M  V30 2878 C 268.785 -0.811163 1.8467 0
M  V30 2879 C 269.098 -1.80469 0.754342 0
M  V30 2880 O 270.304 -2.55601 0.915439 0
M  V30 2881 C 268.76 -1.49337 3.27454 0
M  V30 2882 C 268.368 -0.540217 4.44731 0
M  V30 2883 C 270.112 -2.18206 3.64124 0
M  V30 2884 C 268.019 -1.22634 5.78545 0
M  V30 2885 H 266.949 -0.306679 0.688813 0
M  V30 2886 H 269.6 -0.0639887 1.83388 0
M  V30 2887 H 267.982 -2.2876 3.23241 0
M  V30 2888 H 269.156 0.221659 4.60267 0
M  V30 2889 H 267.471 0.042146 4.16379 0
M  V30 2890 H 270.068 -2.70253 4.61376 0
M  V30 2891 H 270.411 -2.96562 2.92158 0
M  V30 2892 H 270.944 -1.45658 3.70174 0
M  V30 2893 H 267.683 -0.483832 6.53712 0
M  V30 2894 H 267.203 -1.95993 5.66874 0
M  V30 2895 H 268.882 -1.75615 6.2271 0
M  V30 2896 N 269.014 -1.53014 -0.377408 0
M  V30 2897 C 269.977 -1.77957 -1.44444 0
M  V30 2898 C 270.977 -0.649763 -1.47087 0
M  V30 2899 O 272.167 -0.917897 -1.48055 0
M  V30 2900 C 269.299 -1.89089 -2.83651 0
M  V30 2901 H 270.492 -2.73243 -1.23606 0
M  V30 2902 H 268.045 -1.43912 -0.609844 0
M  V30 2903 H 268.78 -0.958293 -3.09818 0
M  V30 2904 H 268.565 -2.71254 -2.83132 0
M  V30 2905 H 270.055 -2.1002 -3.60945 0
M  V30 2906 N 270.492 0.636531 -1.44174 0
M  V30 2907 C 271.903 1.21806 -1.41493 0
M  V30 2908 C 272.254 1.95785 -0.1275 0
M  V30 2909 O 271.379 2.02147 0.772376 0
M  V30 2910 C 271.974 2.21551 -2.56321 0
M  V30 2911 C 270.533 2.75143 -2.56853 0
M  V30 2912 C 269.68 1.50052 -2.33195 0
M  V30 2913 H 272.631 0.427531 -1.52833 0
M  V30 2914 H 272.652 3.0405 -2.28765 0
M  V30 2915 H 272.164 1.67679 -3.50008 0
M  V30 2916 H 270.265 3.33033 -1.67093 0
M  V30 2917 H 270.378 3.2155 -3.55165 0
M  V30 2918 H 268.742 1.77993 -1.82183 0
M  V30 2919 H 269.525 0.980903 -3.28988 0
M  V30 2920 N 271.97 1.30982 0.876444 0
M  V30 2921 C 272.9 1.20668 1.99903 0
M  V30 2922 C 273.881 0.095354 1.69833 0
M  V30 2923 O 275.066 0.27885 1.92188 0
M  V30 2924 C 272.196 0.90655 3.3526 0
M  V30 2925 C 271.15 1.97675 3.79617 0
M  V30 2926 C 270.476 1.52943 5.1236 0
M  V30 2927 C 271.776 3.389 3.97422 0
M  V30 2928 H 273.47 2.14586 2.0879 0
M  V30 2929 H 271.016 1.03308 1.00317 0
M  V30 2930 H 272.969 0.821025 4.13324 0
M  V30 2931 H 271.693 -0.0682969 3.26529 0
M  V30 2932 H 270.352 2.05205 3.03787 0
M  V30 2933 H 270 0.54262 5.00065 0
M  V30 2934 H 269.7 2.24532 5.43009 0
M  V30 2935 H 271.224 1.45786 5.92941 0
M  V30 2936 H 272.638 3.34081 4.659 0
M  V30 2937 H 271.035 4.0865 4.3946 0
M  V30 2938 H 272.105 3.80163 3.01006 0
M  V30 2939 N 273.449 -1.08991 1.13837 0
M  V30 2940 C 274.412 -2.13925 0.822715 0
M  V30 2941 C 275.412 -1.599 -0.1699 0
M  V30 2942 O 276.602 -1.74104 0.0577251 0
M  V30 2943 C 273.734 -3.40155 0.225318 0
M  V30 2944 H 274.927 -2.43358 1.75262 0
M  V30 2945 H 272.48 -1.24603 0.943594 0
M  V30 2946 H 273.215 -3.16352 -0.713594 0
M  V30 2947 H 273 -3.80661 0.940193 0
M  V30 2948 H 274.49 -4.17594 0.0214784 0
M  V30 2949 N 274.927 -0.932562 -1.27047 0
M  V30 2950 C 275.837 -0.441219 -2.30414 0
M  V30 2951 C 276.853 0.480525 -1.67233 0
M  V30 2952 O 278.029 0.362151 -1.98117 0
M  V30 2953 C 275.094 0.293651 -3.45454 0
M  V30 2954 C 274.155 -0.663601 -4.2414 0
M  V30 2955 C 273.388 0.0362932 -5.33688 0
M  V30 2956 O 273.611 1.2548 -5.56427 0
M  V30 2957 O 272.545 -0.638015 -5.98509 0
M  V30 2958 H 276.371 -1.29962 -2.74488 0
M  V30 2959 H 273.956 -0.6981 -1.32087 0
M  V30 2960 H 275.838 0.707951 -4.15411 0
M  V30 2961 H 274.513 1.12758 -3.03426 0
M  V30 2962 H 273.42 -1.12768 -3.56699 0
M  V30 2963 H 274.753 -1.46489 -4.69896 0
M  V30 2964 N 276.405 1.4127 -0.698611 0
M  V30 2965 C 277.335 2.33447 -0.049629 0
M  V30 2966 C 278.316 1.51982 0.763898 0
M  V30 2967 O 279.501 1.80509 0.716257 0
M  V30 2968 C 276.631 3.35828 0.885267 0
M  V30 2969 C 275.585 4.27627 0.178613 0
M  V30 2970 C 274.911 5.20406 1.22807 0
M  V30 2971 C 276.211 5.13459 -0.956933 0
M  V30 2972 H 277.905 2.87966 -0.81951 0
M  V30 2973 H 275.451 1.38461 -0.395538 0
M  V30 2974 H 277.404 3.9924 1.34854 0
M  V30 2975 H 276.128 2.79666 1.68685 0
M  V30 2976 H 274.787 3.65643 -0.26466 0
M  V30 2977 H 274.435 4.60558 2.02226 0
M  V30 2978 H 274.135 5.82661 0.760239 0
M  V30 2979 H 275.659 5.86695 1.69179 0
M  V30 2980 H 277.073 5.70421 -0.573805 0
M  V30 2981 H 275.47 5.8467 -1.35205 0
M  V30 2982 H 276.54 4.50443 -1.79524 0
M  V30 2983 N 277.883 0.443576 1.51229 0
M  V30 2984 C 279.129 -0.120975 2.02439 0
M  V30 2985 C 279.462 -1.41815 1.32674 0
M  V30 2986 O 278.737 -1.89373 0.443622 0
M  V30 2987 C 279.02 -0.333291 3.58554 0
M  V30 2988 C 278.873 0.982968 4.38928 0
M  V30 2989 C 280.192 -1.10028 4.26124 0
M  V30 2990 H 277.311 -0.0424923 0.735774 0
M  V30 2991 H 279.953 0.583794 1.80809 0
M  V30 2992 H 278.103 -0.933614 3.77115 0
M  V30 2993 H 279.775 1.61775 4.32003 0
M  V30 2994 H 278.018 1.58611 4.03763 0
M  V30 2995 H 278.689 0.788379 5.46341 0
M  V30 2996 H 281.165 -0.591711 4.11871 0
M  V30 2997 H 280.041 -1.21761 5.35225 0
M  V30 2998 H 280.302 -2.12996 3.87408 0
M  V30 2999 N 279.361 -1.56624 0.175154 0
M  V30 3000 C 280.309 -2.19468 -0.770495 0
M  V30 3001 C 281.303 -1.15985 -1.23466 0
M  V30 3002 O 282.509 -1.34176 -1.19987 0
M  V30 3003 H 278.884 -0.703095 -0.266761 0
M  V30 3004 H 280.855 -2.97613 -0.216542 0
M  V30 3005 C 279.604 -2.85264 -1.98796 0
M  V30 3006 H 278.927 -3.64623 -1.63983 0
M  V30 3007 H 280.367 -3.327 -2.62843 0
M  V30 3008 C 278.826 -1.85239 -2.81404 0
M  V30 3009 O 279.356 -1.34024 -3.78682 0
M  V30 3010 N 277.562 -1.53911 -2.46495 0
M  V30 3011 H 277.109 -1.95751 -1.67449 0
M  V30 3012 H 277.067 -0.872382 -3.02054 0
M  V30 3013 N 280.839 0.0985539 -1.57292 0
M  V30 3014 C 282.088 0.801358 -1.85098 0
M  V30 3015 C 282.401 1.80066 -0.763902 0
M  V30 3016 O 283.607 2.55112 -0.928981 0
M  V30 3017 C 282.063 1.47599 -3.28242 0
M  V30 3018 C 281.671 0.516624 -4.45011 0
M  V30 3019 C 283.415 2.16272 -3.65276 0
M  V30 3020 C 281.322 1.19564 -5.79188 0
M  V30 3021 H 280.252 0.303022 -0.69043 0
M  V30 3022 H 282.903 0.0542623 -1.8342 0
M  V30 3023 H 281.285 2.27042 -3.2445 0
M  V30 3024 H 282.459 -0.246065 -4.60143 0
M  V30 3025 H 280.774 -0.064227 -4.1635 0
M  V30 3026 H 283.371 2.67802 -4.62803 0
M  V30 3027 H 283.714 2.95009 -2.93727 0
M  V30 3028 H 284.247 1.43693 -3.70941 0
M  V30 3029 H 280.986 0.449157 -6.53959 0
M  V30 3030 H 280.506 1.92984 -5.67906 0
M  V30 3031 H 282.185 1.7231 -6.23633 0
M  V30 3032 N 282.317 1.53212 0.369288 0
M  V30 3033 C 283.542 1.73423 1.1375 0
M  V30 3034 C 283.967 0.460404 1.82378 0
M  V30 3035 O 283.325 -0.585298 1.71592 0
M  V30 3036 C 283.373 2.89769 2.1463 0
M  V30 3037 O 282.477 2.58119 3.21634 0
M  V30 3038 H 281.818 0.576061 0.330227 0
M  V30 3039 H 284.348 2.00083 0.427547 0
M  V30 3040 H 284.358 3.15829 2.58294 0
M  V30 3041 H 283.033 3.8217 1.64071 0
M  V30 3042 H 281.61 2.42864 2.82969 0
M  V30 3043 N 283.795 -0.628877 1.44509 0
M  V30 3044 C 284.742 -1.74074 1.51549 0
M  V30 3045 C 285.712 -1.62084 0.363021 0
M  V30 3046 O 286.897 -1.81975 0.573567 0
M  V30 3047 C 284.037 -3.12328 1.46784 0
M  V30 3048 C 283.15 -3.35277 2.72422 0
M  V30 3049 C 282.285 -4.63515 2.59475 0
M  V30 3050 C 281.324 -4.7965 3.80266 0
M  V30 3051 N 280.461 -5.99168 3.65981 0
M  V30 3052 H 285.301 -1.67392 2.46544 0
M  V30 3053 H 282.838 -0.816527 1.22357 0
M  V30 3054 H 284.796 -3.92286 1.42012 0
M  V30 3055 H 283.426 -3.18018 0.553544 0
M  V30 3056 H 282.478 -2.49242 2.87372 0
M  V30 3057 H 283.79 -3.43078 3.62076 0
M  V30 3058 H 282.944 -5.51638 2.52548 0
M  V30 3059 H 281.683 -4.58076 1.67384 0
M  V30 3060 H 280.688 -3.89957 3.87574 0
M  V30 3061 H 281.913 -4.86902 4.73395 0
M  V30 3062 H 279.859 -5.94814 2.76644 0
M  V30 3063 H 279.776 -6.08035 4.49254 0
M  V30 3064 H 281.044 -6.89846 3.6295 0
M  V30 3065 N 285.273 -1.31445 -0.869486 0
M  V30 3066 C 286.183 -1.21097 -2.0093 0
M  V30 3067 C 287.199 -0.127584 -1.73532 0
M  V30 3068 O 288.375 -0.345477 -1.98415 0
M  V30 3069 C 285.44 -0.919378 -3.34288 0
M  V30 3070 C 284.501 -2.08971 -3.75006 0
M  V30 3071 C 283.734 -1.81194 -5.02001 0
M  V30 3072 O 283.957 -0.747296 -5.65484 0
M  V30 3073 O 282.891 -2.66883 -5.39497 0
M  V30 3074 H 286.717 -2.16883 -2.12592 0
M  V30 3075 H 284.302 -1.11189 -0.997868 0
M  V30 3076 H 286.184 -0.772625 -4.14257 0
M  V30 3077 H 284.859 0.00844772 -3.23699 0
M  V30 3078 H 283.766 -2.29187 -2.95676 0
M  V30 3079 H 285.099 -2.9998 -3.90221 0
M  V30 3080 N 286.751 1.08385 -1.14413 0
M  V30 3081 C 287.998 1.80776 -0.912482 0
M  V30 3082 C 288.326 1.86236 0.560934 0
M  V30 3083 O 287.581 1.33431 1.43159 0
M  V30 3084 C 287.88 3.26273 -1.45879 0
M  V30 3085 C 287.546 3.4093 -2.95089 0
M  V30 3086 C 286.208 3.44638 -3.35824 0
M  V30 3087 C 288.56 3.44591 -3.91033 0
M  V30 3088 C 285.888 3.49597 -4.71167 0
M  V30 3089 C 288.24 3.51086 -5.26233 0
M  V30 3090 C 286.904 3.53067 -5.6648 0
M  V30 3091 H 286.174 0.661507 -0.333901 0
M  V30 3092 H 288.821 1.27613 -1.42784 0
M  V30 3093 H 287.126 3.82146 -0.864376 0
M  V30 3094 H 288.823 3.80839 -1.2555 0
M  V30 3095 H 285.413 3.38736 -2.62594 0
M  V30 3096 H 289.597 3.40957 -3.60641 0
M  V30 3097 H 284.853 3.49424 -5.0171 0
M  V30 3098 H 289.027 3.52864 -6.00383 0
M  V30 3099 H 286.654 3.56662 -6.71339 0
M  V30 3100 N 288.23 0.939286 1.26551 0
M  V30 3101 C 289.478 0.58469 1.93457 0
M  V30 3102 C 289.799 -0.878774 1.74076 0
M  V30 3103 O 289.069 -1.62421 1.09528 0
M  V30 3104 H 287.649 0.21325 0.715914 0
M  V30 3105 H 290.311 1.1942 1.54029 0
M  V30 3106 H 289.407 0.800849 3.0165 0
M  V30 3107 N 289.708 -1.40897 0.706093 0
M  V30 3108 C 290.948 -2.02916 0.245827 0
M  V30 3109 C 291.312 -1.54751 -1.13649 0
M  V30 3110 O 292.513 -2.08768 -1.69321 0
M  V30 3111 C 290.784 -3.56031 0.312537 0
M  V30 3112 S 292.343 -4.38741 -0.0721388 0
M  V30 3113 H 289.161 -0.704186 0.0982007 0
M  V30 3114 H 291.763 -1.72168 0.926207 0
M  V30 3115 H 290.467 -3.88579 1.32039 0
M  V30 3116 H 289.998 -3.91495 -0.386641 0
M  V30 3117 H 292.013 -4.78952 -1.29692 0
M  V30 3118 N 291.186 -0.45159 -1.50991 0
M  V30 3119 C 292.149 0.341117 -2.26647 0
M  V30 3120 C 293.149 0.937422 -1.30649 0
M  V30 3121 O 294.339 0.809644 -1.54241 0
M  V30 3122 C 291.471 1.48398 -3.06905 0
M  V30 3123 H 292.664 -0.322117 -2.98165 0
M  V30 3124 H 290.217 -0.205122 -1.54948 0
M  V30 3125 H 290.952 2.18284 -2.39838 0
M  V30 3126 H 290.737 1.06241 -3.77432 0
M  V30 3127 H 292.227 2.04367 -3.64176 0
M  V30 3128 N 292.664 1.56529 -0.183458 0
M  V30 3129 C 293.594 2.21549 0.737456 0
M  V30 3130 C 294.575 1.17489 1.23005 0
M  V30 3131 O 295.76 1.45959 1.281 0
M  V30 3132 C 292.89 2.86575 1.96194 0
M  V30 3133 C 291.844 3.96778 1.60473 0
M  V30 3134 C 291.17 4.48911 2.90487 0
M  V30 3135 C 292.47 5.15767 0.823497 0
M  V30 3136 H 294.164 2.98761 0.195453 0
M  V30 3137 H 291.71 1.43702 0.0925686 0
M  V30 3138 H 293.663 3.30739 2.61131 0
M  V30 3139 H 292.387 2.06749 2.52828 0
M  V30 3140 H 291.046 3.53286 0.978997 0
M  V30 3141 H 290.694 3.65862 3.45186 0
M  V30 3142 H 290.394 5.23265 2.67335 0
M  V30 3143 H 291.918 4.95771 3.56432 0
M  V30 3144 H 293.332 5.56549 1.37571 0
M  V30 3145 H 291.729 5.96114 0.690551 0
M  V30 3146 H 292.799 4.84574 -0.177782 0
M  V30 3147 N 294.142 -0.090211 1.57342 0
M  V30 3148 C 295.072 -1.10976 2.05443 0
M  V30 3149 C 296.053 -1.41482 0.944284 0
M  V30 3150 O 297.238 -1.51428 1.21586 0
M  V30 3151 C 294.368 -2.42831 2.48295 0
M  V30 3152 C 293.322 -2.26721 3.63018 0
M  V30 3153 C 292.648 -3.63796 3.91863 0
M  V30 3154 C 293.948 -1.7037 4.93732 0
M  V30 3155 H 295.642 -0.709564 2.9087 0
M  V30 3156 H 293.188 -0.339874 1.39932 0
M  V30 3157 H 295.141 -3.14431 2.80555 0
M  V30 3158 H 293.865 -2.84795 1.59873 0
M  V30 3159 H 292.524 -1.57565 3.31012 0
M  V30 3160 H 292.172 -4.03297 3.00601 0
M  V30 3161 H 291.872 -3.53861 4.69101 0
M  V30 3162 H 293.396 -4.36855 4.26603 0
M  V30 3163 H 294.81 -2.31816 5.24342 0
M  V30 3164 H 293.207 -1.71181 5.75167 0
M  V30 3165 H 294.277 -0.663542 4.80339 0
M  V30 3166 N 295.62 -1.53406 -0.361157 0
M  V30 3167 C 296.866 -1.70054 -1.10496 0
M  V30 3168 C 297.199 -0.453278 -1.88836 0
M  V30 3169 O 296.474 0.5495 -1.86576 0
M  V30 3170 C 296.757 -2.95317 -2.06058 0
M  V30 3171 C 296.61 -4.3021 -1.31298 0
M  V30 3172 C 297.929 -3.16193 -3.06121 0
M  V30 3173 H 295.048 -0.618799 -0.400321 0
M  V30 3174 H 297.69 -1.86052 -0.385318 0
M  V30 3175 H 295.84 -2.81809 -2.67425 0
M  V30 3176 H 297.512 -4.55538 -0.726807 0
M  V30 3177 H 295.755 -4.29421 -0.614853 0
M  V30 3178 H 296.426 -5.14 -2.01265 0
M  V30 3179 H 298.902 -3.28916 -2.5486 0
M  V30 3180 H 297.778 -4.05266 -3.70204 0
M  V30 3181 H 298.039 -2.31676 -3.76535 0
M  V30 3182 N 297.098 0.621204 -1.44841 0
M  V30 3183 C 298.375 1.38 -1.38619 0
M  V30 3184 C 298.755 2.11041 -0.0498935 0
M  V30 3185 O 298.103 2.06992 0.967816 0
M  V30 3186 C 298.313 2.33817 -2.59096 0
M  V30 3187 C 299.661 2.96844 -3.03593 0
M  V30 3188 O 300.685 2.44141 -2.59371 0
M  V30 3189 O 299.544 3.92476 -3.80296 0
M  V30 3190 H 296.638 0.61811 -0.549426 0
M  V30 3191 H 299.184 0.645429 -1.56947 0
M  V30 3192 H 297.956 1.79012 -3.47952 0
M  V30 3193 H 297.579 3.14676 -2.43032 0
M  V30 3194 N 298.576 1.31904 0.862503 0
M  V30 3195 C 299.486 1.22161 2.00285 0
M  V30 3196 C 300.502 0.136785 1.73462 0
M  V30 3197 O 301.678 0.355994 1.98229 0
M  V30 3198 C 298.743 0.937093 3.33796 0
M  V30 3199 C 297.804 2.10957 3.73893 0
M  V30 3200 C 297.037 1.83853 5.01033 0
M  V30 3201 O 297.26 0.777274 5.65079 0
M  V30 3202 O 296.194 2.69741 5.38074 0
M  V30 3203 H 300.02 2.18008 2.11439 0
M  V30 3204 H 297.605 1.11716 0.991957 0
M  V30 3205 H 299.487 0.794583 4.13841 0
M  V30 3206 H 298.162 0.00871894 3.23699 0
M  V30 3207 H 297.069 2.30752 2.94456 0
M  V30 3208 H 298.402 3.02046 3.88625 0
M  V30 3209 N 300.054 -1.07777 1.14986 0
M  V30 3210 C 301.279 -1.84558 0.946213 0
M  V30 3211 C 301.704 -1.81323 -0.500362 0
M  V30 3212 O 301.062 -1.20301 -1.35637 0
M  V30 3213 C 301.11 -3.29736 1.45968 0
M  V30 3214 O 300.214 -4.07149 0.65601 0
M  V30 3215 H 299.555 -0.571641 0.33782 0
M  V30 3216 H 302.085 -1.35991 1.52865 0
M  V30 3217 H 302.095 -3.80574 1.47063 0
M  V30 3218 H 300.77 -3.31406 2.51283 0
M  V30 3219 H 299.347 -3.65994 0.714322 0
M  V30 3220 N 301.532 -0.945985 -1.26051 0
M  V30 3221 C 302.482 -0.430164 -2.23905 0
M  V30 3222 C 303.466 0.47579 -1.53704 0
M  V30 3223 O 304.658 0.310252 -1.7426 0
M  V30 3224 C 301.787 0.298957 -3.41996 0
M  V30 3225 C 300.873 -0.624566 -4.19476 0
M  V30 3226 N 301.264 -1.75245 -4.74471 0
M  V30 3227 C 299.562 -0.431082 -4.43912 0
M  V30 3228 C 300.263 -2.32834 -5.3307 0
M  V30 3229 N 299.239 -1.61583 -5.1903 0
M  V30 3230 H 303.041 -1.29107 -2.64024 0
M  V30 3231 H 300.555 -0.802428 -1.41191 0
M  V30 3232 H 302.552 0.685565 -4.11225 0
M  V30 3233 H 301.212 1.15657 -3.03403 0
M  V30 3234 H 302.223 -2.13449 -4.71868 0
M  V30 3235 H 298.9 0.384364 -4.15727 0
M  V30 3236 H 300.29 -3.27893 -5.86461 0
M  V30 3237 N 303.011 1.40521 -0.713556 0
M  V30 3238 C 304.236 2.05759 -0.26035 0
M  V30 3239 C 304.661 1.53403 1.08854 0
M  V30 3240 O 304.019 0.668535 1.68524 0
M  V30 3241 C 304.067 3.59745 -0.248122 0
M  V30 3242 O 303.171 4.05123 0.77131 0
M  V30 3243 H 302.512 0.652564 -0.122703 0
M  V30 3244 H 305.042 1.79958 -0.973467 0
M  V30 3245 H 305.052 4.07911 -0.0851129 0
M  V30 3246 H 303.727 3.97218 -1.2325 0
M  V30 3247 H 302.304 3.68422 0.57619 0
M  V30 3248 N 304.489 0.459591 1.5075 0
M  V30 3249 C 305.419 -0.330644 2.31147 0
M  V30 3250 C 306.4 -1.00087 1.37538 0
M  V30 3251 O 307.585 -1.00025 1.66459 0
M  V30 3252 C 304.715 -1.41958 3.16962 0
M  V30 3253 C 303.669 -0.871608 4.19031 0
M  V30 3254 C 302.995 -2.05797 4.9351 0
M  V30 3255 C 304.295 0.109251 5.22186 0
M  V30 3256 H 305.989 0.340336 2.97459 0
M  V30 3257 H 303.535 0.165119 1.4305 0
M  V30 3258 H 305.488 -1.9798 3.71997 0
M  V30 3259 H 304.212 -2.11917 2.48513 0
M  V30 3260 H 302.871 -0.333442 3.6508 0
M  V30 3261 H 302.519 -2.74427 4.21544 0
M  V30 3262 H 302.219 -1.6976 5.62544 0
M  V30 3263 H 303.743 -2.62331 5.51375 0
M  V30 3264 H 305.157 -0.361405 5.7216 0
M  V30 3265 H 303.554 0.383316 5.98875 0
M  V30 3266 H 304.624 1.03887 4.73641 0
M  V30 3267 N 305.967 -1.56429 0.191757 0
M  V30 3268 C 307.215 -1.97095 -0.447006 0
M  V30 3269 C 307.536 -1.07967 -1.62383 0
M  V30 3270 O 306.806 -0.150248 -1.95323 0
M  V30 3271 H 305.386 -0.727832 -0.168135 0
M  V30 3272 H 308.048 -1.92911 0.27771 0
M  V30 3273 H 307.144 -3.01848 -0.793371 0
M  V30 3274 N 307.445 0.0818655 -1.57387 0
M  V30 3275 C 308.673 0.796108 -1.9097 0
M  V30 3276 C 309.088 1.71626 -0.786757 0
M  V30 3277 O 308.445 1.80908 0.240513 0
M  V30 3278 C 308.496 1.59829 -3.24248 0
M  V30 3279 O 308.217 0.715131 -4.32224 0
M  V30 3280 C 309.718 2.41442 -3.7178 0
M  V30 3281 H 306.938 0.22691 -0.631469 0
M  V30 3282 H 309.482 0.0551439 -2.04426 0
M  V30 3283 H 307.637 2.29163 -3.12351 0
M  V30 3284 H 308.051 1.27205 -5.08841 0
M  V30 3285 H 309.525 2.932 -4.67694 0
M  V30 3286 H 310.002 3.2051 -3.00283 0
M  V30 3287 H 310.608 1.77283 -3.86589 0
M  V30 3288 N 308.923 1.53595 0.353017 0
M  V30 3289 C 309.873 1.77299 1.43349 0
M  V30 3290 C 310.857 0.627884 1.48143 0
M  V30 3291 O 312.049 0.88697 1.53173 0
M  V30 3292 C 309.178 1.97757 2.80619 0
M  V30 3293 C 308.264 3.18305 2.80254 0
M  V30 3294 N 308.655 4.39967 2.49526 0
M  V30 3295 C 306.953 3.19283 3.11407 0
M  V30 3296 C 307.654 5.21772 2.57156 0
M  V30 3297 N 306.63 4.58269 2.92388 0
M  V30 3298 H 310.432 2.68963 1.18474 0
M  V30 3299 H 307.946 1.52391 0.561306 0
M  V30 3300 H 309.943 2.1287 3.58458 0
M  V30 3301 H 308.603 1.07329 3.06448 0
M  V30 3302 H 309.614 4.67482 2.22893 0
M  V30 3303 H 306.291 2.3879 3.4247 0
M  V30 3304 H 307.681 6.2885 2.36638 0
M  V30 3305 N 310.401 -0.613514 1.45168 0
M  V30 3306 C 311.649 -1.36997 1.48581 0
M  V30 3307 C 311.97 -1.94589 0.126545 0
M  V30 3308 O 311.24 -1.76816 -0.843372 0
M  V30 3309 H 309.82 -0.508558 0.547154 0
M  V30 3310 H 312.482 -0.720853 1.81079 0
M  V30 3311 H 311.578 -2.1924 2.22127 0
M  V30 3312 N 311.879 -1.3236 -0.855495 0
M  V30 3313 C 313.29 -1.2056 -1.42556 0
M  V30 3314 C 313.641 0.182209 -1.95352 0
M  V30 3315 O 312.766 1.08088 -1.87472 0
M  V30 3316 C 313.361 -2.1826 -2.59129 0
M  V30 3317 C 311.92 -2.10351 -3.12137 0
M  V30 3318 C 311.067 -2.06674 -1.84882 0
M  V30 3319 H 314.018 -1.442 -0.662727 0
M  V30 3320 H 314.039 -1.78064 -3.36264 0
M  V30 3321 H 313.551 -3.19257 -2.20673 0
M  V30 3322 H 311.652 -1.12599 -3.55179 0
M  V30 3323 H 311.765 -3.00135 -3.73438 0
M  V30 3324 H 310.129 -1.51901 -2.04446 0
M  V30 3325 H 310.912 -3.09451 -1.48643 0
M  V30 3326 N 313.357 1.07166 -1.15556 0
M  V30 3327 C 314.305 2.16517 -0.8499 0
M  V30 3328 C 315.299 1.68468 0.177454 0
M  V30 3329 O 316.505 1.79971 0.0323026 0
M  V30 3330 H 312.88 0.706652 -0.25719 0
M  V30 3331 H 314.851 2.39514 -1.77976 0
M  V30 3332 C 313.6 3.45855 -0.357682 0
M  V30 3333 H 312.923 3.83214 -1.13961 0
M  V30 3334 H 314.363 4.23607 -0.182489 0
M  V30 3335 C 312.822 3.24062 0.921152 0
M  V30 3336 O 313.352 3.48813 1.9923 0
M  V30 3337 N 311.558 2.77539 0.86141 0
M  V30 3338 H 311.105 2.57598 -0.0104408 0
M  V30 3339 H 311.063 2.63337 1.71758 0
M  V30 3340 N 314.835 0.952656 1.25548 0
M  V30 3341 C 316.083 0.605176 1.92826 0
M  V30 3342 C 316.404 -0.860261 1.74999 0
M  V30 3343 O 315.674 -1.6125 1.11244 0
M  V30 3344 H 314.254 0.220832 0.713612 0
M  V30 3345 H 316.916 1.21047 1.52754 0
M  V30 3346 H 316.012 0.832798 3.00784 0
M  V30 3347 N 316.313 -1.40141 0.720998 0
M  V30 3348 C 317.276 -2.29058 0.0805834 0
M  V30 3349 C 318.276 -1.45632 -0.681758 0
M  V30 3350 O 319.466 -1.6648 -0.512856 0
M  V30 3351 C 316.598 -3.28925 -0.895593 0
M  V30 3352 H 317.791 -2.87191 0.863793 0
M  V30 3353 H 315.344 -1.48553 0.485975 0
M  V30 3354 H 316.079 -2.75822 -1.70566 0
M  V30 3355 H 315.864 -3.90519 -0.351766 0
M  V30 3356 H 317.354 -3.95494 -1.34069 0
M  V30 3357 N 317.792 -0.46758 -1.50504 0
M  V30 3358 C 319.04 0.0884469 -2.01906 0
M  V30 3359 C 319.361 1.40532 -1.35188 0
M  V30 3360 O 318.631 1.89515 -0.496079 0
M  V30 3361 H 317.211 0.0356765 -0.746148 0
M  V30 3362 H 319.873 -0.6172 -1.84869 0
M  V30 3363 H 318.969 0.2425 -3.11156 0
M  V30 3364 N 319.27 1.56325 -0.20005 0
M  V30 3365 C 320.2 2.22318 0.713916 0
M  V30 3366 C 321.181 1.18788 1.21752 0
M  V30 3367 O 322.366 1.47309 1.26545 0
M  V30 3368 C 319.496 2.88639 1.93144 0
M  V30 3369 C 318.45 3.98457 1.56255 0
M  V30 3370 C 317.776 4.51967 2.85709 0
M  V30 3371 C 319.076 5.16612 0.768747 0
M  V30 3372 H 320.77 2.98952 0.163755 0
M  V30 3373 H 318.316 1.43792 0.0773219 0
M  V30 3374 H 320.269 3.33491 2.57608 0
M  V30 3375 H 318.993 2.09419 2.50621 0
M  V30 3376 H 317.652 3.54305 0.941471 0
M  V30 3377 H 317.3 3.69503 3.41287 0
M  V30 3378 H 317 5.26071 2.6177 0
M  V30 3379 H 318.524 4.99523 3.51154 0
M  V30 3380 H 319.938 5.57977 1.3166 0
M  V30 3381 H 318.335 5.96812 0.627286 0
M  V30 3382 H 319.405 4.84358 -0.229168 0
M  V30 3383 N 320.748 -0.0735177 1.57428 0
M  V30 3384 C 321.678 -1.0879 2.06608 0
M  V30 3385 C 322.659 -1.40473 0.959237 0
M  V30 3386 O 323.844 -1.5013 1.23185 0
M  V30 3387 C 320.974 -2.40183 2.50857 0
M  V30 3388 C 319.928 -2.22858 3.65402 0
M  V30 3389 C 319.254 -3.59619 3.957 0
M  V30 3390 C 320.554 -1.65123 4.95511 0
M  V30 3391 H 322.248 -0.678673 2.91607 0
M  V30 3392 H 319.794 -0.325013 1.40284 0
M  V30 3393 H 321.747 -3.11437 2.83874 0
M  V30 3394 H 320.471 -2.83083 1.62885 0
M  V30 3395 H 319.13 -1.54045 3.32664 0
M  V30 3396 H 318.778 -4.00086 3.04861 0
M  V30 3397 H 318.478 -3.48866 4.72828 0
M  V30 3398 H 320.002 -4.32306 4.31212 0
M  V30 3399 H 321.416 -2.26241 5.26771 0
M  V30 3400 H 319.813 -1.65071 5.7695 0
M  V30 3401 H 320.883 -0.612559 4.81015 0
M  V30 3402 N 322.226 -1.5378 -0.344866 0
M  V30 3403 C 323.189 -1.80981 -1.40637 0
M  V30 3404 C 324.189 -0.680816 -1.45676 0
M  V30 3405 O 325.379 -0.949095 -1.46075 0
M  V30 3406 C 322.511 -1.95063 -2.79577 0
M  V30 3407 H 323.704 -2.75803 -1.17783 0
M  V30 3408 H 321.257 -1.45173 -0.579181 0
M  V30 3409 H 321.992 -1.02379 -3.07716 0
M  V30 3410 H 321.777 -2.77198 -2.77315 0
M  V30 3411 H 323.267 -2.17629 -3.56409 0
M  V30 3412 N 323.704 0.605807 -1.45491 0
M  V30 3413 C 324.614 1.74466 -1.56839 0
M  V30 3414 C 325.63 1.68006 -0.452772 0
M  V30 3415 O 326.806 1.8833 -0.713708 0
M  V30 3416 C 323.871 3.10931 -1.53371 0
M  V30 3417 C 322.932 3.28832 -2.75986 0
M  V30 3418 C 322.165 4.58787 -2.72673 0
M  V30 3419 O 322.388 5.4122 -1.80102 0
M  V30 3420 O 321.322 4.79438 -3.63899 0
M  V30 3421 H 325.148 1.67843 -2.53106 0
M  V30 3422 H 322.733 0.770108 -1.28022 0
M  V30 3423 H 324.615 3.92233 -1.54051 0
M  V30 3424 H 323.29 3.18042 -0.602572 0
M  V30 3425 H 322.197 2.47112 -2.80867 0
M  V30 3426 H 323.53 3.26599 -3.68231 0
M  V30 3427 N 325.182 1.32811 0.848464 0
M  V30 3428 C 326.112 1.24882 1.97299 0
M  V30 3429 C 327.093 0.131357 1.69592 0
M  V30 3430 O 328.278 0.319553 1.91553 0
M  V30 3431 C 325.408 0.97746 3.33261 0
M  V30 3432 C 324.362 2.05682 3.75338 0
M  V30 3433 C 323.688 1.63777 5.09 0
M  V30 3434 C 324.988 3.47254 3.90144 0
M  V30 3435 H 326.682 2.18966 2.04191 0
M  V30 3436 H 324.228 1.05413 0.981029 0
M  V30 3437 H 326.181 0.908513 4.1149 0
M  V30 3438 H 324.905 0.000980011 3.266 0
M  V30 3439 H 323.564 2.11603 2.99366 0
M  V30 3440 H 323.212 0.648569 4.98801 0
M  V30 3441 H 322.912 2.36 5.38124 0
M  V30 3442 H 324.436 1.5833 5.89715 0
M  V30 3443 H 325.85 3.43888 4.58709 0
M  V30 3444 H 324.247 4.1788 4.30693 0
M  V30 3445 H 325.317 3.86462 2.92874 0
M  V30 3446 N 326.66 -1.06551 1.16123 0
M  V30 3447 C 327.908 -1.78947 0.939267 0
M  V30 3448 C 328.229 -1.87532 -0.534476 0
M  V30 3449 O 327.499 -1.38211 -1.38833 0
M  V30 3450 H 326.079 -0.662807 0.344523 0
M  V30 3451 H 328.741 -1.28725 1.46342 0
M  V30 3452 H 327.837 -2.81117 1.35572 0
M  V30 3453 N 328.138 -0.959301 -1.25041 0
M  V30 3454 C 329.068 -0.501388 -2.28053 0
M  V30 3455 C 330.049 0.454673 -1.63911 0
M  V30 3456 O 331.234 0.352618 -1.90972 0
M  V30 3457 C 328.364 0.217224 -3.4662 0
M  V30 3458 C 327.318 -0.654034 -4.22973 0
M  V30 3459 C 326.644 0.195589 -5.34342 0
M  V30 3460 C 327.944 -1.93447 -4.85155 0
M  V30 3461 H 329.638 -1.36238 -2.66608 0
M  V30 3462 H 327.184 -0.656534 -1.28163 0
M  V30 3463 H 329.137 0.548732 -4.17812 0
M  V30 3464 H 327.861 1.1125 -3.07068 0
M  V30 3465 H 326.52 -0.968693 -3.5357 0
M  V30 3466 H 326.168 1.09076 -4.91031 0
M  V30 3467 H 325.868 -0.384091 -5.86343 0
M  V30 3468 H 327.392 0.521958 -6.08365 0
M  V30 3469 H 328.806 -1.66908 -5.48466 0
M  V30 3470 H 327.203 -2.46018 -5.47353 0
M  V30 3471 H 328.273 -2.63466 -4.07079 0
M  V30 3472 N 329.616 1.39756 -0.72842 0
M  V30 3473 C 330.844 2.04948 -0.283528 0
M  V30 3474 C 331.259 1.54908 1.0793 0
M  V30 3475 O 330.616 0.711135 1.68075 0
M  V30 3476 C 330.667 3.60498 -0.268957 0
M  V30 3477 O 330.388 4.08695 -1.57798 0
M  V30 3478 C 331.889 4.4288 0.192912 0
M  V30 3479 H 329.109 0.659243 -0.125056 0
M  V30 3480 H 331.653 1.78927 -0.990226 0
M  V30 3481 H 329.808 3.85444 0.388801 0
M  V30 3482 H 330.222 5.02977 -1.48709 0
M  V30 3483 H 331.696 5.51791 0.151952 0
M  V30 3484 H 332.173 4.21418 1.23708 0
M  V30 3485 H 332.779 4.23069 -0.435039 0
M  V30 3486 N 331.094 0.475555 1.50254 0
M  V30 3487 C 332.51 0.12997 1.5907 0
M  V30 3488 C 332.71 -1.36385 1.48328 0
M  V30 3489 O 331.766 -2.13754 1.34407 0
M  V30 3490 C 333.079 0.684139 2.92814 0
M  V30 3491 C 334.627 0.647965 3.0622 0
M  V30 3492 C 335.102 1.17975 4.42545 0
M  V30 3493 N 336.593 1.13936 4.48969 0
M  V30 3494 C 337.328 1.52129 5.52851 0
M  V30 3495 N 336.824 1.97793 6.63965 0
M  V30 3496 N 338.617 1.43704 5.4342 0
M  V30 3497 H 330.768 1.44706 1.55479 0
M  V30 3498 H 333.031 0.598691 0.735033 0
M  V30 3499 H 332.737 1.73079 3.06164 0
M  V30 3500 H 332.611 0.130204 3.76975 0
M  V30 3501 H 334.998 -0.38979 2.92514 0
M  V30 3502 H 335.079 1.23876 2.23805 0
M  V30 3503 H 334.723 2.21616 4.57 0
M  V30 3504 H 334.653 0.565138 5.23559 0
M  V30 3505 H 337.144 0.804488 3.69238 0
M  V30 3506 H 337.457 2.25072 7.39299 0
M  V30 3507 H 335.802 2.01749 6.65073 0
M  V30 3508 H 338.993 1.07867 4.55502 0
M  V30 3509 H 339.166 1.73794 6.24259 0
M  V30 3510 N 332.573 -1.56217 0.208337 0
M  V30 3511 C 333.483 -2.23316 -0.718836 0
M  V30 3512 C 334.499 -1.23648 -1.22422 0
M  V30 3513 O 335.675 -1.56423 -1.26861 0
M  V30 3514 C 332.74 -2.88968 -1.91568 0
M  V30 3515 C 331.801 -4.03943 -1.45357 0
M  V30 3516 C 331.034 -4.66455 -2.59337 0
M  V30 3517 O 331.257 -4.27919 -3.77149 0
M  V30 3518 O 330.191 -5.55686 -2.31293 0
M  V30 3519 H 334.017 -3.03182 -0.177315 0
M  V30 3520 H 331.602 -1.49384 -0.0215402 0
M  V30 3521 H 333.484 -3.30455 -2.61491 0
M  V30 3522 H 332.159 -2.12071 -2.44556 0
M  V30 3523 H 331.066 -3.67052 -0.722746 0
M  V30 3524 H 332.399 -4.82543 -0.970219 0
M  V30 3525 N 334.051 0.0651679 -1.57465 0
M  V30 3526 C 335.297 0.764193 -1.87851 0
M  V30 3527 C 335.63 1.76889 -0.801495 0
M  V30 3528 O 334.905 1.93594 0.187528 0
M  V30 3529 C 335.188 1.46625 -3.28897 0
M  V30 3530 C 335.041 0.477515 -4.47258 0
M  V30 3531 C 336.36 2.4095 -3.68281 0
M  V30 3532 H 333.479 0.276351 -0.683227 0
M  V30 3533 H 336.121 0.0272868 -1.8998 0
M  V30 3534 H 334.271 2.09438 -3.27212 0
M  V30 3535 H 335.943 -0.145922 -4.61069 0
M  V30 3536 H 334.186 -0.206576 -4.33308 0
M  V30 3537 H 334.857 1.0065 -5.42746 0
M  V30 3538 H 337.333 1.88209 -3.71102 0
M  V30 3539 H 336.209 2.87072 -4.67847 0
M  V30 3540 H 336.47 3.26049 -2.98571 0
M  V30 3541 N 335.529 1.53961 0.336706 0
M  V30 3542 C 336.479 1.7881 1.41461 0
M  V30 3543 C 337.463 0.643561 1.47469 0
M  V30 3544 O 338.655 0.903166 1.52223 0
M  V30 3545 C 335.784 2.00722 2.78506 0
M  V30 3546 C 334.87 3.2126 2.76862 0
M  V30 3547 N 335.261 4.42588 2.44845 0
M  V30 3548 C 333.559 3.22568 3.08004 0
M  V30 3549 C 334.26 5.2447 2.51607 0
M  V30 3550 N 333.236 4.61344 2.87511 0
M  V30 3551 H 337.038 2.70205 1.15615 0
M  V30 3552 H 334.552 1.52978 0.545112 0
M  V30 3553 H 336.549 2.1666 3.5618 0
M  V30 3554 H 335.209 1.10573 3.05293 0
M  V30 3555 H 336.22 4.69819 2.17922 0
M  V30 3556 H 332.897 2.42409 3.39918 0
M  V30 3557 H 334.287 6.31324 2.29955 0
M  V30 3558 N 337.007 -0.598083 1.45811 0
M  V30 3559 C 338.254 -1.35681 1.50323 0
M  V30 3560 C 338.582 -1.9393 0.148739 0
M  V30 3561 O 337.837 -1.76094 -0.853787 0
M  V30 3562 C 338.136 -2.51669 2.53766 0
M  V30 3563 C 337.802 -2.11508 3.98215 0
M  V30 3564 C 336.464 -2.0027 4.37545 0
M  V30 3565 C 338.816 -1.80308 4.89018 0
M  V30 3566 C 336.144 -1.56067 5.65562 0
M  V30 3567 C 338.496 -1.37589 6.17456 0
M  V30 3568 C 337.16 -1.24916 6.55708 0
M  V30 3569 H 336.43 -0.496492 0.550069 0
M  V30 3570 H 339.077 -0.675052 1.79207 0
M  V30 3571 H 337.382 -3.25225 2.18486 0
M  V30 3572 H 339.079 -3.09895 2.54492 0
M  V30 3573 H 335.669 -2.21185 3.67117 0
M  V30 3574 H 339.853 -1.87884 4.59362 0
M  V30 3575 H 335.109 -1.44886 5.93985 0
M  V30 3576 H 339.283 -1.12495 6.87254 0
M  V30 3577 H 336.91 -0.904386 7.54801 0
M  V30 3578 N 338.485 -1.33259 -0.841409 0
M  V30 3579 C 339.418 -1.1764 -1.95541 0
M  V30 3580 C 340.396 -0.072501 -1.62438 0
M  V30 3581 O 341.58 -0.23427 -1.87039 0
M  V30 3582 C 338.707 -0.803794 -3.29024 0
M  V30 3583 C 337.753 -1.91482 -3.81099 0
M  V30 3584 S 338.586 -3.52538 -4.03085 0
M  V30 3585 C 339.742 -3.17279 -5.39523 0
M  V30 3586 H 339.975 -2.11941 -2.08491 0
M  V30 3587 H 337.508 -1.18072 -0.9949 0
M  V30 3588 H 339.466 -0.595592 -4.06156 0
M  V30 3589 H 338.127 0.120574 -3.13868 0
M  V30 3590 H 337.32 -1.60742 -4.7768 0
M  V30 3591 H 336.922 -2.07956 -3.10854 0
M  V30 3592 H 339.214 -2.67946 -6.22263 0
M  V30 3593 H 340.157 -4.1293 -5.75234 0
M  V30 3594 H 340.565 -2.53943 -5.04156 0
M  V30 3595 N 339.963 1.05934 -1.16686 0
M  V30 3596 C 341.191 1.8249 -0.974929 0
M  V30 3597 C 341.606 1.82679 0.476861 0
M  V30 3598 O 340.963 1.2486 1.33103 0
M  V30 3599 C 341.014 3.28943 -1.49929 0
M  V30 3600 O 340.735 3.28886 -2.89423 0
M  V30 3601 C 342.236 4.22215 -1.35089 0
M  V30 3602 H 339.456 0.575295 -0.345365 0
M  V30 3603 H 342 1.33631 -1.548 0
M  V30 3604 H 340.155 3.751 -0.968423 0
M  V30 3605 H 340.569 4.20493 -3.13506 0
M  V30 3606 H 342.043 5.22987 -1.76603 0
M  V30 3607 H 342.52 4.38195 -0.296935 0
M  V30 3608 H 343.126 3.81907 -1.87155 0
M  V30 3609 N 341.441 0.965919 1.2453 0
M  V30 3610 C 342.404 0.499547 2.2369 0
M  V30 3611 C 343.404 -0.40294 1.5567 0
M  V30 3612 O 344.594 -0.19865 1.73064 0
M  V30 3613 C 341.726 -0.276792 3.39774 0
M  V30 3614 H 342.919 1.37613 2.66463 0
M  V30 3615 H 340.472 0.750324 1.37112 0
M  V30 3616 H 341.207 -1.17055 3.02438 0
M  V30 3617 H 340.992 0.370826 3.90343 0
M  V30 3618 H 342.482 -0.592175 4.1338 0
M  V30 3619 N 342.919 -1.39368 0.735821 0
M  V30 3620 C 344.144 -2.05319 0.293052 0
M  V30 3621 C 344.569 -1.55115 -1.064 0
M  V30 3622 O 343.927 -0.695261 -1.67439 0
M  V30 3623 C 343.975 -3.59305 0.305323 0
M  V30 3624 O 343.079 -4.06299 -0.706761 0
M  V30 3625 H 342.42 -0.650529 0.13307 0
M  V30 3626 H 344.95 -1.78386 1.00197 0
M  V30 3627 H 344.96 -4.07724 0.149997 0
M  V30 3628 H 343.635 -3.95207 1.29553 0
M  V30 3629 H 342.212 -3.69292 -0.517504 0
M  V30 3630 N 344.397 -0.483516 -1.5 0
M  V30 3631 C 345.327 0.293829 -2.31644 0
M  V30 3632 C 346.308 0.978864 -1.39112 0
M  V30 3633 O 347.493 0.973644 -1.68029 0
M  V30 3634 C 344.623 1.36897 -3.19181 0
M  V30 3635 C 343.577 0.804833 -4.20365 0
M  V30 3636 C 342.903 1.9792 -4.96721 0
M  V30 3637 C 344.203 -0.192313 -5.21946 0
M  V30 3638 H 345.897 -0.387616 -2.9688 0
M  V30 3639 H 343.443 -0.187856 -1.42769 0
M  V30 3640 H 345.396 1.92037 -3.751 0
M  V30 3641 H 344.12 2.07936 -2.51853 0
M  V30 3642 H 342.779 0.275319 -3.65565 0
M  V30 3643 H 342.427 2.67686 -4.25856 0
M  V30 3644 H 342.127 1.60789 -5.65173 0
M  V30 3645 H 343.651 2.53526 -5.55479 0
M  V30 3646 H 345.065 0.270333 -5.72662 0
M  V30 3647 H 343.462 -0.478543 -5.98189 0
M  V30 3648 H 344.532 -1.11409 -4.71928 0
M  V30 3649 N 345.875 1.56104 -0.216619 0
M  V30 3650 C 346.838 2.18819 0.681962 0
M  V30 3651 C 347.838 1.14866 1.12528 0
M  V30 3652 O 349.028 1.40128 1.03488 0
M  V30 3653 C 346.16 2.80756 1.93362 0
M  V30 3654 H 347.353 2.99595 0.135254 0
M  V30 3655 H 344.906 1.56265 0.0330003 0
M  V30 3656 H 345.641 2.03837 2.52232 0
M  V30 3657 H 345.426 3.56876 1.62426 0
M  V30 3658 H 346.916 3.28844 2.57393 0
M  V30 3659 N 347.353 -0.0568162 1.57498 0
M  V30 3660 C 348.3 -1.06591 2.04712 0
M  V30 3661 C 349.27 -1.3758 0.930644 0
M  V30 3662 O 350.455 -1.48392 1.19935 0
M  V30 3663 C 347.595 -2.3701 2.50839 0
M  V30 3664 C 346.708 -2.12421 3.76167 0
M  V30 3665 C 345.843 -3.36511 4.11015 0
M  V30 3666 C 344.882 -3.07353 5.2934 0
M  V30 3667 N 344.019 -4.23816 5.59754 0
M  V30 3668 H 348.859 -0.65631 2.90683 0
M  V30 3669 H 346.396 -0.312481 1.43743 0
M  V30 3670 H 348.354 -3.13175 2.7564 0
M  V30 3671 H 346.984 -2.75744 1.67825 0
M  V30 3672 H 346.036 -1.2688 3.58616 0
M  V30 3673 H 347.348 -1.86894 4.62463 0
M  V30 3674 H 346.502 -4.21062 4.36797 0
M  V30 3675 H 345.241 -3.65128 3.23315 0
M  V30 3676 H 344.246 -2.212 5.03339 0
M  V30 3677 H 345.471 -2.80043 6.1867 0
M  V30 3678 H 343.417 -4.52436 4.75014 0
M  V30 3679 H 343.334 -4.01614 6.40501 0
M  V30 3680 H 344.602 -5.0932 5.90096 0
M  V30 3681 N 348.832 -1.54138 -0.328536 0
M  V30 3682 C 350.06 -1.76062 -1.08673 0
M  V30 3683 C 350.475 -0.506852 -1.81869 0
M  V30 3684 O 349.832 0.522223 -1.74869 0
M  V30 3685 C 349.883 -2.95054 -2.08866 0
M  V30 3686 O 349.604 -4.15583 -1.38644 0
M  V30 3687 C 351.105 -3.2915 -2.96943 0
M  V30 3688 H 348.325 -0.587889 -0.323461 0
M  V30 3689 H 350.869 -2.0101 -0.376175 0
M  V30 3690 H 349.024 -2.72394 -2.75464 0
M  V30 3691 H 349.438 -4.82481 -2.05699 0
M  V30 3692 H 350.912 -4.15723 -3.63151 0
M  V30 3693 H 351.389 -2.461 -3.63774 0
M  V30 3694 H 351.995 -3.53871 -2.35914 0
M  V30 3695 N 350.31 0.590341 -1.46126 0
M  V30 3696 C 351.557 1.34882 -1.5104 0
M  V30 3697 C 351.885 1.93849 -0.159021 0
M  V30 3698 O 351.14 1.76544 0.844436 0
M  V30 3699 C 351.439 2.5032 -2.55097 0
M  V30 3700 C 351.105 2.09394 -3.99331 0
M  V30 3701 C 349.767 1.97947 -4.38601 0
M  V30 3702 C 352.119 1.77712 -4.89967 0
M  V30 3703 C 349.447 1.53065 -5.66381 0
M  V30 3704 C 351.799 1.34312 -6.18177 0
M  V30 3705 C 350.463 1.21436 -6.56361 0
M  V30 3706 H 349.733 0.493568 -0.552695 0
M  V30 3707 H 352.38 0.665539 -1.79563 0
M  V30 3708 H 350.685 3.24062 -2.20207 0
M  V30 3709 H 352.382 3.08541 -2.56132 0
M  V30 3710 H 348.972 2.19235 -3.68285 0
M  V30 3711 H 353.156 1.85445 -4.60352 0
M  V30 3712 H 348.412 1.41733 -5.94745 0
M  V30 3713 H 352.586 1.08849 -6.87841 0
M  V30 3714 H 350.213 0.864345 -7.5527 0
M  V30 3715 N 351.788 1.33704 0.83433 0
M  V30 3716 C 352.751 1.24244 1.92603 0
M  V30 3717 C 353.751 0.160383 1.59998 0
M  V30 3718 O 354.941 0.412228 1.69252 0
M  V30 3719 C 352.073 0.91555 3.28376 0
M  V30 3720 H 353.266 2.21287 2.02416 0
M  V30 3721 H 350.819 1.17827 1.02696 0
M  V30 3722 H 351.554 -0.0521886 3.24258 0
M  V30 3723 H 351.339 1.69811 3.53422 0
M  V30 3724 H 352.829 0.874231 4.08347 0
M  V30 3725 N 353.266 -1.05314 1.17247 0
M  V30 3726 C 354.496 -1.81707 0.983166 0
M  V30 3727 C 354.904 -1.83222 -0.471822 0
M  V30 3728 O 354.247 -1.25721 -1.3394 0
M  V30 3729 C 354.309 -3.29134 1.44606 0
M  V30 3730 C 353.973 -3.51304 2.92292 0
M  V30 3731 C 354.97 -3.4353 3.90235 0
M  V30 3732 C 352.655 -3.78306 3.30439 0
M  V30 3733 C 354.649 -3.62442 5.24323 0
M  V30 3734 C 352.336 -3.96866 4.64694 0
M  V30 3735 C 353.334 -3.88933 5.61445 0
M  V30 3736 O 353.022 -4.06976 6.93272 0
M  V30 3737 H 352.754 -0.579476 0.348114 0
M  V30 3738 H 355.308 -1.33705 1.55924 0
M  V30 3739 H 353.538 -3.78046 0.813537 0
M  V30 3740 H 355.227 -3.87049 1.22262 0
M  V30 3741 H 355.993 -3.22648 3.62109 0
M  V30 3742 H 351.872 -3.83585 2.55702 0
M  V30 3743 H 355.416 -3.56165 5.99827 0
M  V30 3744 H 351.313 -4.1724 4.92525 0
M  V30 3745 H 352.081 -4.24209 6.99992 0
M  V30 3746 N 354.744 -0.972509 -1.24016 0
M  V30 3747 C 356.16 -0.679827 -1.44397 0
M  V30 3748 C 356.36 0.756716 -1.86751 0
M  V30 3749 O 355.416 1.53007 -2.00861 0
M  V30 3750 C 356.729 -1.66803 -2.50195 0
M  V30 3751 C 358.277 -1.68119 -2.64017 0
M  V30 3752 C 358.752 -2.65748 -3.73017 0
M  V30 3753 N 360.243 -2.64219 -3.8045 0
M  V30 3754 C 360.978 -3.36433 -4.64328 0
M  V30 3755 N 360.474 -4.1818 -5.52356 0
M  V30 3756 N 362.267 -3.25235 -4.58453 0
M  V30 3757 H 354.418 -1.90059 -0.948228 0
M  V30 3758 H 356.681 -0.818527 -0.478245 0
M  V30 3759 H 356.387 -2.69498 -2.25973 0
M  V30 3760 H 356.261 -1.4446 -3.48441 0
M  V30 3761 H 358.648 -0.661319 -2.87594 0
M  V30 3762 H 358.729 -1.94525 -1.66113 0
M  V30 3763 H 358.373 -3.67872 -3.50189 0
M  V30 3764 H 358.303 -2.36619 -4.70446 0
M  V30 3765 H 360.794 -2.04887 -3.17537 0
M  V30 3766 H 361.107 -4.70157 -6.13329 0
M  V30 3767 H 359.452 -4.22273 -5.52006 0
M  V30 3768 H 362.643 -2.60829 -3.88698 0
M  V30 3769 H 362.816 -3.81776 -5.23594 0
M  V30 3770 N 356.222 1.38976 -0.743202 0
M  V30 3771 C 357.185 2.28901 -0.117014 0
M  V30 3772 C 358.185 1.46698 0.658503 0
M  V30 3773 O 359.375 1.67274 0.486305 0
M  V30 3774 C 356.507 3.30309 0.84315 0
M  V30 3775 H 357.7 2.8578 -0.909373 0
M  V30 3776 H 355.253 1.47761 -0.509547 0
M  V30 3777 H 355.988 2.785 1.66157 0
M  V30 3778 H 355.773 3.91029 0.289594 0
M  V30 3779 H 357.263 3.97577 1.2776 0
M  V30 3780 N 357.7 0.491464 1.49741 0
M  V30 3781 C 358.948 -0.0563141 2.02022 0
M  V30 3782 C 359.269 -1.38363 1.37407 0
M  V30 3783 O 358.539 -1.88702 0.526166 0
M  V30 3784 H 357.119 -0.0238014 0.746621 0
M  V30 3785 H 359.781 0.646533 1.83864 0
M  V30 3786 H 358.877 -0.192967 3.11503 0
M  V30 3787 N 359.178 -1.55987 0.224894 0
M  V30 3788 C 360.141 -2.19178 -0.670348 0
M  V30 3789 C 361.141 -1.15461 -1.11917 0
M  V30 3790 O 362.331 -1.40675 -1.02743 0
M  V30 3791 C 359.463 -2.81777 -1.9187 0
M  V30 3792 H 360.656 -2.99662 -0.119364 0
M  V30 3793 H 358.209 -1.5628 -0.0247128 0
M  V30 3794 H 358.944 -2.05172 -2.51147 0
M  V30 3795 H 358.729 -3.57732 -1.60531 0
M  V30 3796 H 360.219 -3.30205 -2.55645 0
M  V30 3797 N 360.656 0.0484629 -1.57525 0
M  V30 3798 C 361.905 0.742065 -1.87553 0
M  V30 3799 C 362.218 1.77545 -0.820802 0
M  V30 3800 O 363.424 2.52027 -1.00967 0
M  V30 3801 C 361.88 1.37081 -3.32771 0
M  V30 3802 C 361.488 0.374786 -4.4643 0
M  V30 3803 C 363.232 2.04542 -3.71972 0
M  V30 3804 C 361.139 1.01077 -5.82698 0
M  V30 3805 H 360.069 0.280903 -0.699721 0
M  V30 3806 H 362.72 -0.00411877 -1.835 0
M  V30 3807 H 361.102 2.16605 -3.31509 0
M  V30 3808 H 362.276 -0.392331 -4.59127 0
M  V30 3809 H 360.591 -0.196653 -4.15935 0
M  V30 3810 H 363.188 2.52943 -4.71088 0
M  V30 3811 H 363.531 2.85515 -3.02964 0
M  V30 3812 H 364.064 1.31819 -3.75325 0
M  V30 3813 H 360.803 0.240878 -6.55057 0
M  V30 3814 H 360.323 1.74819 -5.73758 0
M  V30 3815 H 362.002 1.52383 -6.28799 0
M  V30 3816 N 362.134 1.5431 0.320358 0
M  V30 3817 C 363.38 1.73859 1.05568 0
M  V30 3818 C 363.735 0.507807 1.85578 0
M  V30 3819 O 363.028 -0.499789 1.84967 0
M  V30 3820 C 363.222 2.95639 2.00828 0
M  V30 3821 C 363.051 4.30444 1.30186 0
M  V30 3822 C 361.821 4.94544 1.03703 0
M  V30 3823 C 364.019 5.0929 0.716138 0
M  V30 3824 N 362.001 6.13172 0.298846 0
M  V30 3825 C 363.372 6.19903 0.109729 0
M  V30 3826 C 365.427 4.94034 0.619269 0
M  V30 3827 C 364.13 7.16924 -0.584153 0
M  V30 3828 C 366.156 5.91369 -0.0609184 0
M  V30 3829 C 365.518 7.01336 -0.656258 0
M  V30 3830 H 361.617 0.688988 0.36989 0
M  V30 3831 H 364.201 1.9177 0.336494 0
M  V30 3832 H 362.372 2.79188 2.70016 0
M  V30 3833 H 364.104 3.03802 2.6737 0
M  V30 3834 H 360.859 4.54536 1.33019 0
M  V30 3835 H 361.283 6.76977 -0.0561964 0
M  V30 3836 H 365.925 4.0916 1.06526 0
M  V30 3837 H 363.643 8.01354 -1.04197 0
M  V30 3838 H 367.229 5.81642 -0.135552 0
M  V30 3839 H 366.109 7.75359 -1.17423 0
M  V30 3840 N 363.613 -0.582584 1.46437 0
M  V30 3841 C 364.853 -1.35184 1.53312 0
M  V30 3842 C 365.217 -1.9115 0.180508 0
M  V30 3843 O 366.418 -2.68514 0.124017 0
M  V30 3844 C 364.689 -2.45089 2.60127 0
M  V30 3845 S 366.248 -3.32439 2.86408 0
M  V30 3846 H 363.066 -0.460559 0.54167 0
M  V30 3847 H 365.668 -0.669709 1.83671 0
M  V30 3848 H 364.372 -2.02366 3.57038 0
M  V30 3849 H 363.903 -3.18074 2.315 0
M  V30 3850 H 365.918 -4.43924 2.21688 0
M  V30 3851 N 365.091 -1.34144 -0.827227 0
M  V30 3852 C 366.039 -1.25364 -1.95925 0
M  V30 3853 C 367.033 -0.152608 -1.68711 0
M  V30 3854 O 368.239 -0.317311 -1.77181 0
M  V30 3855 H 364.614 -0.389342 -0.643364 0
M  V30 3856 H 366.585 -2.21045 -2.00454 0
M  V30 3857 C 365.334 -1.02158 -3.32354 0
M  V30 3858 H 364.657 -1.86111 -3.5384 0
M  V30 3859 H 366.097 -1.00048 -4.12027 0
M  V30 3860 C 364.556 0.275244 -3.35774 0
M  V30 3861 O 365.086 1.27806 -3.80826 0
M  V30 3862 N 363.292 0.306853 -2.88975 0
M  V30 3863 H 362.839 -0.509777 -2.52506 0
M  V30 3864 H 362.797 1.17432 -2.91646 0
M  V30 3865 N 366.569 1.04691 -1.17803 0
M  V30 3866 C 367.517 2.14665 -0.895635 0
M  V30 3867 C 368.511 1.68806 0.141679 0
M  V30 3868 O 369.717 1.79999 -0.00587914 0
M  V30 3869 H 366.092 0.701038 -0.272121 0
M  V30 3870 H 368.063 2.35685 -1.83017 0
M  V30 3871 C 366.812 3.45019 -0.430962 0
M  V30 3872 H 366.135 3.8071 -1.22064 0
M  V30 3873 H 367.575 4.23125 -0.272301 0
M  V30 3874 C 366.034 3.25943 0.852207 0
M  V30 3875 O 366.564 3.5296 1.91786 0
M  V30 3876 N 364.77 2.79304 0.802346 0
M  V30 3877 H 364.317 2.57518 -0.0650788 0
M  V30 3878 H 364.275 2.66921 1.66134 0
M  V30 3879 N 368.047 0.979072 1.23499 0
M  V30 3880 C 368.957 0.526431 2.28617 0
M  V30 3881 C 369.973 -0.418126 1.68901 0
M  V30 3882 O 371.149 -0.288372 1.99325 0
M  V30 3883 C 368.214 -0.165235 3.46306 0
M  V30 3884 C 367.275 0.82056 4.21385 0
M  V30 3885 C 366.508 0.161807 5.33455 0
M  V30 3886 O 366.731 -1.04742 5.60701 0
M  V30 3887 O 365.665 0.859708 5.95729 0
M  V30 3888 H 369.491 1.4006 2.69475 0
M  V30 3889 H 367.076 0.746643 1.29405 0
M  V30 3890 H 368.958 -0.553287 4.17752 0
M  V30 3891 H 367.633 -1.01419 3.07402 0
M  V30 3892 H 366.54 1.25929 3.52268 0
M  V30 3893 H 367.873 1.63828 4.64135 0
M  V30 3894 N 369.525 -1.3858 0.750561 0
M  V30 3895 C 370.771 -2.00481 0.305825 0
M  V30 3896 C 371.104 -1.5944 -1.10872 0
M  V30 3897 O 370.379 -0.83052 -1.75877 0
M  V30 3898 C 370.662 -3.5758 0.425287 0
M  V30 3899 C 370.515 -4.08594 1.88072 0
M  V30 3900 C 371.834 -4.39719 -0.183122 0
M  V30 3901 H 368.953 -0.728348 0.112598 0
M  V30 3902 H 371.595 -1.64566 0.949638 0
M  V30 3903 H 369.745 -3.88306 -0.122828 0
M  V30 3904 H 371.417 -3.88523 2.48691 0
M  V30 3905 H 369.66 -3.61574 2.39681 0
M  V30 3906 H 370.331 -5.177 1.91548 0
M  V30 3907 H 372.807 -4.15128 0.284303 0
M  V30 3908 H 371.683 -5.48856 -0.0692757 0
M  V30 3909 H 371.944 -4.23434 -1.27106 0
M  V30 3910 N 371.003 -0.499398 -1.49478 0
M  V30 3911 C 371.951 0.293604 -2.3074 0
M  V30 3912 C 372.945 0.96427 -1.39277 0
M  V30 3913 O 374.151 0.892141 -1.56336 0
M  V30 3914 H 370.526 0.113541 -0.743379 0
M  V30 3915 H 372.497 -0.411772 -2.95545 0
M  V30 3916 C 371.246 1.3462 -3.20582 0
M  V30 3917 H 370.569 0.83954 -3.90886 0
M  V30 3918 H 372.009 1.87308 -3.80384 0
M  V30 3919 C 370.468 2.36351 -2.40083 0
M  V30 3920 O 370.998 3.422 -2.10385 0
M  V30 3921 N 369.204 2.0878 -2.02137 0
M  V30 3922 H 368.751 1.22723 -2.26488 0
M  V30 3923 H 368.709 2.77075 -1.48583 0
M  V30 3924 N 372.481 1.55866 -0.233164 0
M  V30 3925 C 373.897 1.59133 0.121988 0
M  V30 3926 C 374.097 1.25016 1.58029 0
M  V30 3927 O 373.153 0.990922 2.32243 0
M  V30 3928 C 374.466 2.99932 -0.214792 0
M  V30 3929 C 376.014 3.12601 -0.157971 0
M  V30 3930 C 376.489 4.55597 -0.46859 0
M  V30 3931 N 377.98 4.61305 -0.418585 0
M  V30 3932 C 378.715 5.69903 -0.63227 0
M  V30 3933 N 378.211 6.86819 -0.90835 0
M  V30 3934 N 380.004 5.59264 -0.563913 0
M  V30 3935 H 372.155 1.76315 -1.18434 0
M  V30 3936 H 374.418 0.820093 -0.475553 0
M  V30 3937 H 374.124 3.29588 -1.22739 0
M  V30 3938 H 373.998 3.74327 0.464691 0
M  V30 3939 H 376.385 2.82735 0.845283 0
M  V30 3940 H 376.466 2.40511 -0.871102 0
M  V30 3941 H 376.11 4.86182 -1.46934 0
M  V30 3942 H 376.04 5.25928 0.265865 0
M  V30 3943 H 378.531 3.77297 -0.213368 0
M  V30 3944 H 378.844 7.65507 -1.05919 0
M  V30 3945 H 377.189 6.88536 -0.945673 0
M  V30 3946 H 380.38 4.66802 -0.348372 0
M  V30 3947 H 380.553 6.43831 -0.733847 0
M  V30 3948 N 373.959 -0.0401083 1.57549 0
M  V30 3949 C 375.199 -0.738098 1.90608 0
M  V30 3950 C 375.563 -1.73107 0.830539 0
M  V30 3951 O 376.764 -2.4765 1.04513 0
M  V30 3952 C 375.035 -1.39985 3.28845 0
M  V30 3953 S 376.594 -2.12852 3.83718 0
M  V30 3954 H 373.412 -0.24477 0.667539 0
M  V30 3955 H 376.014 0.00693599 1.95499 0
M  V30 3956 H 374.718 -0.663775 4.04997 0
M  V30 3957 H 374.249 -2.18366 3.2723 0
M  V30 3958 H 376.264 -3.39842 3.61555 0
M  V30 3959 N 375.437 -1.54477 -0.31217 0
M  V30 3960 C 376.683 -1.73483 -1.0503 0
M  V30 3961 C 377.016 -0.513125 -1.87298 0
M  V30 3962 O 376.291 0.489864 -1.8823 0
M  V30 3963 C 376.574 -3.01723 -1.96558 0
M  V30 3964 C 376.427 -4.3417 -1.17545 0
M  V30 3965 C 377.746 -3.25772 -2.95907 0
M  V30 3966 H 374.865 -0.631222 -0.380432 0
M  V30 3967 H 377.507 -1.87184 -0.325932 0
M  V30 3968 H 375.657 -2.90174 -2.58324 0
M  V30 3969 H 377.329 -4.5762 -0.581513 0
M  V30 3970 H 375.572 -4.31159 -0.477925 0
M  V30 3971 H 376.243 -5.20143 -1.84811 0
M  V30 3972 H 378.719 -3.36857 -2.44267 0
M  V30 3973 H 377.595 -4.16838 -3.57123 0
M  V30 3974 H 377.856 -2.43537 -3.68974 0
M  V30 3975 N 376.915 0.57481 -1.46744 0
M  V30 3976 C 378.326 1.15695 -1.46532 0
M  V30 3977 C 378.677 1.95068 -0.210425 0
M  V30 3978 O 377.802 2.05241 0.685944 0
M  V30 3979 C 378.397 2.1048 -2.65487 0
M  V30 3980 C 376.956 2.64002 -2.68291 0
M  V30 3981 C 376.103 1.40026 -2.39349 0
M  V30 3982 H 379.054 0.362325 -1.54509 0
M  V30 3983 H 379.075 2.94074 -2.41455 0
M  V30 3984 H 378.587 1.52683 -3.56805 0
M  V30 3985 H 376.688 3.25646 -1.81067 0
M  V30 3986 H 376.801 3.06197 -3.68483 0
M  V30 3987 H 375.165 1.70106 -1.89568 0
M  V30 3988 H 375.948 0.840485 -3.32852 0
M  V30 3989 N 378.394 1.34581 0.820102 0
M  V30 3990 C 379.641 1.27096 1.57648 0
M  V30 3991 C 379.969 -0.158317 1.93855 0
M  V30 3992 O 379.224 -1.12028 1.60463 0
M  V30 3993 C 379.523 2.10997 2.8847 0
M  V30 3994 C 379.189 3.59966 2.71543 0
M  V30 3995 C 377.851 4.00575 2.66634 0
M  V30 3996 C 380.203 4.54548 2.55021 0
M  V30 3997 C 377.531 5.33953 2.43128 0
M  V30 3998 C 379.883 5.88109 2.33047 0
M  V30 3999 C 378.547 6.27878 2.26552 0
M  V30 4000 H 377.817 0.465078 0.576874 0
M  V30 4001 H 380.464 1.6635 0.948671 0
M  V30 4002 H 378.769 1.6458 3.55557 0
M  V30 4003 H 380.466 2.0255 3.46084 0
M  V30 4004 H 377.056 3.27733 2.76205 0
M  V30 4005 H 381.24 4.24069 2.57835 0
M  V30 4006 H 376.496 5.63781 2.3656 0
M  V30 4007 H 380.67 6.60985 2.19251 0
M  V30 4008 H 378.297 7.31162 2.081 0
M  V30 4009 N 379.872 -1.04064 1.18357 0
M  V30 4010 C 381.121 -1.76662 0.973313 0
M  V30 4011 C 381.434 -1.89154 -0.497991 0
M  V30 4012 O 382.64 -2.58606 -0.826762 0
M  V30 4013 C 381.096 -3.17624 1.69242 0
M  V30 4014 C 380.704 -3.13225 3.20303 0
M  V30 4015 C 382.448 -3.946 1.56497 0
M  V30 4016 C 380.355 -4.49046 3.84853 0
M  V30 4017 H 379.285 -0.662214 0.36054 0
M  V30 4018 H 381.936 -1.16553 1.41731 0
M  V30 4019 H 380.318 -3.78129 1.1762 0
M  V30 4020 H 381.492 -2.62172 3.78949 0
M  V30 4021 H 379.807 -2.49749 3.33189 0
M  V30 4022 H 382.404 -4.95042 2.02084 0
M  V30 4023 H 382.747 -4.13074 0.517243 0
M  V30 4024 H 383.28 -3.4067 2.05399 0
M  V30 4025 H 380.019 -4.35777 4.89672 0
M  V30 4026 H 379.539 -5.00203 3.30994 0
M  V30 4027 H 381.218 -5.17961 3.87718 0
M  V30 4028 N 381.35 -0.985608 -1.22978 0
M  V30 4029 C 382.575 -0.675254 -1.961 0
M  V30 4030 C 383 0.752154 -1.72407 0
M  V30 4031 O 382.358 1.5131 -0.998751 0
M  V30 4032 C 382.406 -0.977899 -3.47087 0
M  V30 4033 O 381.51 -0.072685 -4.12336 0
M  V30 4034 H 380.851 -0.253443 -0.613728 0
M  V30 4035 H 383.381 -1.32061 -1.56272 0
M  V30 4036 H 383.391 -0.916739 -3.97567 0
M  V30 4037 H 382.066 -2.01807 -3.63657 0
M  V30 4038 H 380.643 -0.188703 -3.72422 0
M  V30 4039 N 382.828 1.3818 -0.7579 0
M  V30 4040 C 384.058 2.04004 -0.326463 0
M  V30 4041 C 384.466 1.57286 1.05156 0
M  V30 4042 O 383.809 0.743144 1.67997 0
M  V30 4043 C 383.871 3.58444 -0.275402 0
M  V30 4044 C 383.535 4.28237 -1.59569 0
M  V30 4045 C 384.532 4.53312 -2.54566 0
M  V30 4046 C 382.217 4.66341 -1.86631 0
M  V30 4047 C 384.211 5.15531 -3.74842 0
M  V30 4048 C 381.898 5.28283 -3.0718 0
M  V30 4049 C 382.896 5.52814 -4.01106 0
M  V30 4050 O 382.584 6.13465 -5.19534 0
M  V30 4051 H 382.316 0.662026 -0.136739 0
M  V30 4052 H 384.87 1.7777 -1.02893 0
M  V30 4053 H 383.1 3.83667 0.483337 0
M  V30 4054 H 384.789 4.05701 0.127099 0
M  V30 4055 H 385.555 4.24299 -2.34936 0
M  V30 4056 H 381.434 4.46591 -1.14358 0
M  V30 4057 H 384.978 5.34594 -4.48168 0
M  V30 4058 H 380.875 5.56719 -3.26702 0
M  V30 4059 H 381.643 6.31951 -5.20173 0
M  V30 4060 N 384.306 0.507319 1.49211 0
M  V30 4061 C 385.717 0.0611118 1.866 0
M  V30 4062 C 386.068 -1.35488 1.41907 0
M  V30 4063 O 385.193 -2.0108 0.799726 0
M  V30 4064 C 385.788 0.104125 3.3864 0
M  V30 4065 C 384.347 -0.28677 3.75306 0
M  V30 4066 C 383.494 0.473893 2.73221 0
M  V30 4067 H 386.445 0.719775 1.41439 0
M  V30 4068 H 386.466 -0.689672 3.74198 0
M  V30 4069 H 385.978 1.13482 3.71138 0
M  V30 4070 H 384.079 -1.32046 3.48417 0
M  V30 4071 H 384.192 0.0370745 4.79086 0
M  V30 4072 H 382.556 -0.0770644 2.54583 0
M  V30 4073 H 383.339 1.50478 3.08563 0
M  V30 4074 N 385.784 -1.5574 0.241426 0
M  V30 4075 C 386.747 -2.19877 -0.647063 0
M  V30 4076 C 387.747 -1.16642 -1.10686 0
M  V30 4077 O 388.937 -1.41757 -1.01245 0
M  V30 4078 C 386.069 -2.83797 -1.88871 0
M  V30 4079 H 387.262 -2.99772 -0.087574 0
M  V30 4080 H 384.815 -1.56298 -0.00813574 0
M  V30 4081 H 385.55 -2.07824 -2.48957 0
M  V30 4082 H 385.335 -3.59414 -1.56728 0
M  V30 4083 H 386.825 -3.32898 -2.52129 0
M  V30 4084 N 387.262 0.0317525 -1.57568 0
M  V30 4085 C 388.511 0.722131 -1.8833 0
M  V30 4086 C 388.824 1.76664 -0.839587 0
M  V30 4087 O 390.03 2.50942 -1.03635 0
M  V30 4088 C 388.486 1.33544 -3.34207 0
M  V30 4089 C 388.094 0.327415 -4.46802 0
M  V30 4090 C 389.838 2.00585 -3.7412 0
M  V30 4091 C 387.745 0.948915 -5.83738 0
M  V30 4092 H 386.675 0.273466 -0.702661 0
M  V30 4093 H 389.326 -0.0235811 -1.83485 0
M  V30 4094 H 387.708 2.13077 -3.33788 0
M  V30 4095 H 388.882 -0.441006 -4.58685 0
M  V30 4096 H 387.197 -0.240758 -4.15703 0
M  V30 4097 H 389.794 2.47932 -4.73744 0
M  V30 4098 H 390.137 2.82285 -3.05975 0
M  V30 4099 H 390.67 1.27831 -3.76702 0
M  V30 4100 H 387.409 0.171387 -6.55276 0
M  V30 4101 H 386.929 1.68724 -5.7558 0
M  V30 4102 H 388.608 1.45705 -6.3038 0
M  V30 4103 N 388.74 1.54641 0.303973 0
M  V30 4104 C 389.987 1.7378 1.03955 0
M  V30 4105 C 390.315 0.521986 1.87365 0
M  V30 4106 O 389.57 -0.496099 1.89308 0
M  V30 4107 C 389.869 2.97753 1.97681 0
M  V30 4108 C 389.535 4.31671 1.30271 0
M  V30 4109 C 388.197 4.68075 1.11619 0
M  V30 4110 C 390.549 5.147 0.82055 0
M  V30 4111 C 387.877 5.8509 0.434304 0
M  V30 4112 C 390.229 6.32416 0.152395 0
M  V30 4113 C 388.893 6.67484 -0.0461067 0
M  V30 4114 H 388.163 0.635908 0.380398 0
M  V30 4115 H 390.81 1.88896 0.314718 0
M  V30 4116 H 389.115 2.77406 2.76682 0
M  V30 4117 H 390.812 3.09756 2.54661 0
M  V30 4118 H 387.402 4.03041 1.45795 0
M  V30 4119 H 391.586 4.87077 0.952374 0
M  V30 4120 H 386.842 6.10806 0.269495 0
M  V30 4121 H 391.016 6.96023 -0.229126 0
M  V30 4122 H 388.643 7.58011 -0.576494 0
M  V30 4123 N 390.218 -0.567019 1.47046 0
M  V30 4124 C 391.443 -1.3551 1.57009 0
M  V30 4125 C 391.868 -1.86841 0.217259 0
M  V30 4126 O 391.226 -1.62435 -0.805268 0
M  V30 4127 C 391.274 -2.50777 2.5912 0
M  V30 4128 O 390.378 -3.52706 2.13711 0
M  V30 4129 H 389.719 -0.402919 0.52778 0
M  V30 4130 H 392.249 -0.686241 1.92748 0
M  V30 4131 H 392.259 -2.97481 2.79229 0
M  V30 4132 H 390.934 -2.12771 3.57353 0
M  V30 4133 H 389.511 -3.12374 2.03659 0
M  V30 4134 N 391.696 -1.35014 -0.812953 0
M  V30 4135 C 392.921 -1.31187 -1.60639 0
M  V30 4136 C 393.346 0.109382 -1.87782 0
M  V30 4137 O 392.704 1.07424 -1.46047 0
M  V30 4138 C 392.752 -2.11809 -2.91838 0
M  V30 4139 O 391.856 -1.49444 -3.8437 0
M  V30 4140 H 391.197 -0.450084 -0.488181 0
M  V30 4141 H 393.727 -1.77963 -1.00947 0
M  V30 4142 H 393.737 -2.23531 -3.41318 0
M  V30 4143 H 392.412 -3.15137 -2.71407 0
M  V30 4144 H 390.989 -1.46524 -3.42907 0
M  V30 4145 N 393.175 1.03435 -1.18907 0
M  V30 4146 C 394.403 1.80381 -1.01342 0
M  V30 4147 C 394.818 1.83649 0.438005 0
M  V30 4148 O 394.175 1.27655 1.30424 0
M  V30 4149 C 394.226 3.25689 -1.56873 0
M  V30 4150 O 393.947 3.22673 -2.96334 0
M  V30 4151 C 395.448 4.19255 -1.44014 0
M  V30 4152 H 392.668 0.56784 -0.35749 0
M  V30 4153 H 395.212 1.30317 -1.576 0
M  V30 4154 H 393.367 3.72962 -1.04777 0
M  V30 4155 H 393.781 4.13748 -3.22355 0
M  V30 4156 H 395.255 5.19123 -1.87657 0
M  V30 4157 H 395.732 4.37467 -0.389815 0
M  V30 4158 H 396.338 3.77851 -1.95214 0
M  V30 4159 N 394.653 0.992116 1.22453 0
M  V30 4160 C 395.583 0.561677 2.26644 0
M  V30 4161 C 396.564 -0.411055 1.65059 0
M  V30 4162 O 397.749 -0.301861 1.9184 0
M  V30 4163 C 394.879 -0.125247 3.47074 0
M  V30 4164 C 393.833 0.765948 4.21091 0
M  V30 4165 C 393.159 -0.0538484 5.34673 0
M  V30 4166 C 394.459 2.06242 4.79856 0
M  V30 4167 H 396.153 1.43259 2.62902 0
M  V30 4168 H 393.699 0.690283 1.26377 0
M  V30 4169 H 395.652 -0.437764 4.1912 0
M  V30 4170 H 394.376 -1.03069 3.0991 0
M  V30 4171 H 393.035 1.0621 3.50878 0
M  V30 4172 H 392.683 -0.960188 4.9375 0
M  V30 4173 H 392.383 0.539415 5.85119 0
M  V30 4174 H 393.907 -0.360477 6.09535 0
M  V30 4175 H 395.321 1.8139 5.43848 0
M  V30 4176 H 393.718 2.60444 5.40638 0
M  V30 4177 H 394.788 2.74167 3.99951 0
M  V30 4178 N 396.131 -1.37776 0.765217 0
M  V30 4179 C 397.061 -2.32945 0.160953 0
M  V30 4180 C 398.042 -1.55454 -0.690516 0
M  V30 4181 O 399.227 -1.83721 -0.629318 0
M  V30 4182 C 396.357 -3.39669 -0.724031 0
M  V30 4183 C 395.311 -4.27992 0.0256173 0
M  V30 4184 C 394.637 -5.25673 -0.978383 0
M  V30 4185 C 395.937 -5.08309 1.20082 0
M  V30 4186 H 397.631 -2.83728 0.955969 0
M  V30 4187 H 395.177 -1.36416 0.461149 0
M  V30 4188 H 397.13 -4.05219 -1.15652 0
M  V30 4189 H 395.854 -2.87396 -1.5515 0
M  V30 4190 H 394.513 -3.63964 0.438812 0
M  V30 4191 H 394.161 -4.69682 -1.80022 0
M  V30 4192 H 393.861 -5.85625 -0.481378 0
M  V30 4193 H 395.385 -5.94098 -1.40995 0
M  V30 4194 H 396.799 -5.67034 0.845307 0
M  V30 4195 H 395.196 -5.77554 1.62947 0
M  V30 4196 H 396.266 -4.41365 2.00811 0
M  V30 4197 N 397.609 -0.515225 -1.4894 0
M  V30 4198 C 399.02 -0.0710067 -1.86565 0
M  V30 4199 C 399.371 1.34733 -1.42623 0
M  V30 4200 O 398.496 2.00653 -0.810379 0
M  V30 4201 C 399.091 -0.122083 -3.3858 0
M  V30 4202 C 397.65 0.266863 -3.75453 0
M  V30 4203 C 396.797 -0.488376 -2.72966 0
M  V30 4204 H 399.748 -0.727266 -1.41055 0
M  V30 4205 H 399.769 0.669818 -3.74558 0
M  V30 4206 H 399.281 -1.15448 -3.70531 0
M  V30 4207 H 397.382 1.30196 -3.49113 0
M  V30 4208 H 397.495 -0.0624811 -4.79059 0
M  V30 4209 H 395.859 0.0635622 -2.54621 0
M  V30 4210 H 396.642 -1.52113 -3.07761 0
M  V30 4211 N 399.087 1.5561 -0.249682 0
M  V30 4212 C 400.317 2.03116 0.377803 0
M  V30 4213 C 400.725 1.12822 1.51881 0
M  V30 4214 O 400.068 0.13562 1.83199 0
M  V30 4215 C 400.13 3.46866 0.944693 0
M  V30 4216 C 399.794 4.56955 -0.0644259 0
M  V30 4217 C 400.791 5.12485 -0.874957 0
M  V30 4218 C 398.476 5.01936 -0.19132 0
M  V30 4219 C 400.47 6.11491 -1.79881 0
M  V30 4220 C 398.157 6.00773 -1.11868 0
M  V30 4221 C 399.155 6.5543 -1.92095 0
M  V30 4222 O 398.843 7.5234 -2.83267 0
M  V30 4223 H 398.575 0.669489 0.0935961 0
M  V30 4224 H 401.129 2.02004 -0.371966 0
M  V30 4225 H 399.359 3.45136 1.74407 0
M  V30 4226 H 401.048 3.77856 1.48255 0
M  V30 4227 H 401.814 4.78564 -0.787523 0
M  V30 4228 H 397.693 4.59055 0.423072 0
M  V30 4229 H 401.237 6.54078 -2.42543 0
M  V30 4230 H 397.134 6.34114 -1.20703 0
M  V30 4231 H 397.902 7.69966 -2.7766 0
M  V30 4232 N 400.565 -0.0233959 1.57583 0
M  V30 4233 C 401.475 -1.03907 2.10334 0
M  V30 4234 C 402.491 -1.39257 1.04323 0
M  V30 4235 O 403.667 -1.48462 1.36091 0
M  V30 4236 C 400.732 -2.31938 2.57693 0
M  V30 4237 C 399.793 -2.03117 3.78209 0
M  V30 4238 C 399.026 -3.25043 4.233 0
M  V30 4239 O 399.249 -4.35916 3.67876 0
M  V30 4240 O 398.183 -3.10411 5.15683 0
M  V30 4241 H 402.009 -0.620748 2.97288 0
M  V30 4242 H 399.594 -0.240743 1.47448 0
M  V30 4243 H 401.476 -3.07196 2.88458 0
M  V30 4244 H 400.151 -2.73055 1.73847 0
M  V30 4245 H 399.058 -1.25408 3.52454 0
M  V30 4246 H 400.391 -1.66852 4.63056 0
M  V30 4247 N 402.043 -1.548 -0.295768 0
M  V30 4248 C 403.006 -1.85363 -1.34808 0
M  V30 4249 C 404.006 -0.726817 -1.43436 0
M  V30 4250 O 405.196 -0.995088 -1.42981 0
M  V30 4251 C 402.328 -2.03859 -2.73229 0
M  V30 4252 H 403.521 -2.7941 -1.08949 0
M  V30 4253 H 401.074 -1.46942 -0.532702 0
M  V30 4254 H 401.809 -1.12117 -3.04303 0
M  V30 4255 H 401.594 -2.8588 -2.68356 0
M  V30 4256 H 403.084 -2.28857 -3.49305 0
M  V30 4257 N 403.521 0.559213 -1.47345 0
M  V30 4258 C 404.484 1.64854 -1.59235 0
M  V30 4259 C 405.484 1.53851 -0.467607 0
M  V30 4260 O 406.674 1.58045 -0.732617 0
M  V30 4261 C 403.806 3.04388 -1.53496 0
M  V30 4262 H 404.999 1.55662 -2.56339 0
M  V30 4263 H 402.552 0.778973 -1.35505 0
M  V30 4264 H 403.287 3.19115 -0.577604 0
M  V30 4265 H 403.072 3.13783 -2.35123 0
M  V30 4266 H 404.562 3.83642 -1.6495 0
M  V30 4267 N 404.999 1.35443 0.805782 0
M  V30 4268 C 406.247 1.28507 1.55982 0
M  V30 4269 C 406.568 -0.140046 1.94496 0
M  V30 4270 O 405.838 -1.07666 1.63661 0
M  V30 4271 H 404.418 0.472676 0.578434 0
M  V30 4272 H 407.08 1.69555 0.961098 0
M  V30 4273 H 406.176 1.90148 2.47488 0
M  V30 4274 N 406.477 -1.02803 1.19454 0
M  V30 4275 C 407.407 -2.12999 0.956758 0
M  V30 4276 C 408.388 -1.69743 -0.110188 0
M  V30 4277 O 409.573 -1.94148 0.0450038 0
M  V30 4278 C 406.703 -3.43746 0.495553 0
M  V30 4279 C 405.657 -4.00688 1.50443 0
M  V30 4280 C 404.983 -5.27067 0.900275 0
M  V30 4281 C 406.283 -4.35397 2.8849 0
M  V30 4282 H 407.977 -2.33148 1.87836 0
M  V30 4283 H 405.523 -1.12045 0.904539 0
M  V30 4284 H 407.476 -4.2021 0.316493 0
M  V30 4285 H 406.2 -3.23321 -0.461646 0
M  V30 4286 H 404.859 -3.2632 1.67065 0
M  V30 4287 H 404.507 -5.02959 -0.064503 0
M  V30 4288 H 404.207 -5.66127 1.57397 0
M  V30 4289 H 405.731 -6.06196 0.73203 0
M  V30 4290 H 407.145 -5.02795 2.75446 0
M  V30 4291 H 405.542 -4.85541 3.52661 0
M  V30 4292 H 406.612 -3.44662 3.41081 0
M  V30 4293 N 407.956 -0.998596 -1.21925 0
M  V30 4294 C 408.866 -0.562736 -2.27751 0
M  V30 4295 C 409.882 0.391203 -1.69545 0
M  V30 4296 O 411.058 0.256625 -1.99758 0
M  V30 4297 C 408.123 0.11012 -3.46525 0
M  V30 4298 C 407.184 -0.887495 -4.20026 0
M  V30 4299 C 406.417 -0.246654 -5.3313 0
M  V30 4300 O 406.64 0.958088 -5.62296 0
M  V30 4301 O 405.574 -0.954374 -5.94286 0
M  V30 4302 H 409.4 -1.44329 -2.67213 0
M  V30 4303 H 406.985 -0.767135 -1.28201 0
M  V30 4304 H 408.867 0.486756 -4.18579 0
M  V30 4305 H 407.542 0.965154 -3.08976 0
M  V30 4306 H 406.449 -1.31517 -3.5022 0
M  V30 4307 H 407.782 -1.71191 -4.6147 0
M  V30 4308 N 409.434 1.37368 -0.772513 0
M  V30 4309 C 410.662 2.03942 -0.348588 0
M  V30 4310 C 411.077 1.58264 1.02947 0
M  V30 4311 O 410.434 0.764246 1.65727 0
M  V30 4312 C 410.485 3.5946 -0.38351 0
M  V30 4313 O 410.206 4.03468 -1.70721 0
M  V30 4314 C 411.707 4.4327 0.0519152 0
M  V30 4315 H 408.927 0.654931 -0.145966 0
M  V30 4316 H 411.471 1.75686 -1.04665 0
M  V30 4317 H 409.626 3.86486 0.265978 0
M  V30 4318 H 410.04 4.97991 -1.64636 0
M  V30 4319 H 411.514 5.51995 -0.0236733 0
M  V30 4320 H 411.991 4.2514 1.10238 0
M  V30 4321 H 412.597 4.21471 -0.569415 0
M  V30 4322 N 410.912 0.523116 1.48665 0
M  V30 4323 C 412.14 -0.0096312 2.06898 0
M  V30 4324 C 412.555 -1.28784 1.38059 0
M  V30 4325 O 411.912 -1.76453 0.465893 0
M  V30 4326 C 411.963 -0.244386 3.60673 0
M  V30 4327 O 411.684 0.983172 4.26925 0
M  V30 4328 C 413.185 -0.818289 4.35682 0
M  V30 4329 H 410.405 0.0304161 0.67031 0
M  V30 4330 H 412.949 0.726799 1.91149 0
M  V30 4331 H 411.104 -0.930847 3.76051 0
M  V30 4332 H 411.518 0.759653 5.1897 0
M  V30 4333 H 412.992 -0.93201 5.44075 0
M  V30 4334 H 413.469 -1.82153 3.99646 0
M  V30 4335 H 414.075 -0.168609 4.24966 0
M  V30 4336 N 412.39 -1.55475 0.257931 0
M  V30 4337 C 413.32 -2.24815 -0.630912 0
M  V30 4338 C 414.301 -1.23224 -1.17259 0
M  V30 4339 O 415.486 -1.51904 -1.20991 0
M  V30 4340 C 412.616 -2.95609 -1.82298 0
M  V30 4341 C 411.57 -4.03982 -1.41359 0
M  V30 4342 C 410.896 -4.6226 -2.68738 0
M  V30 4343 C 412.196 -5.19109 -0.57648 0
M  V30 4344 H 413.89 -2.99354 -0.0526878 0
M  V30 4345 H 411.436 -1.4398 -0.023901 0
M  V30 4346 H 413.389 -3.42822 -2.45054 0
M  V30 4347 H 412.113 -2.18577 -2.42676 0
M  V30 4348 H 410.772 -3.57555 -0.809324 0
M  V30 4349 H 410.42 -3.81915 -3.27338 0
M  V30 4350 H 410.12 -5.35424 -2.42065 0
M  V30 4351 H 411.644 -5.12212 -3.32372 0
M  V30 4352 H 413.058 -5.62479 -1.10861 0
M  V30 4353 H 411.455 -5.98729 -0.405351 0
M  V30 4354 H 412.525 -4.83174 0.408776 0
M  V30 4355 N 413.868 0.0150385 -1.57593 0
M  V30 4356 C 414.778 1.02791 -2.10882 0
M  V30 4357 C 415.794 1.38702 -1.0506 0
M  V30 4358 O 416.97 1.47739 -1.36877 0
M  V30 4359 C 414.035 2.30568 -2.58919 0
M  V30 4360 C 413.096 2.01108 -3.79281 0
M  V30 4361 C 412.329 3.22794 -4.25018 0
M  V30 4362 O 412.552 4.33959 -3.70183 0
M  V30 4363 O 411.486 3.07672 -5.17322 0
M  V30 4364 H 415.312 0.604973 -2.97613 0
M  V30 4365 H 412.897 0.23292 -1.47573 0
M  V30 4366 H 414.779 3.05662 -2.90084 0
M  V30 4367 H 413.454 2.72129 -1.75293 0
M  V30 4368 H 412.361 1.23537 -3.53114 0
M  V30 4369 H 413.694 1.64394 -4.63935 0
M  V30 4370 N 415.346 1.54954 0.287554 0
M  V30 4371 C 416.595 1.74081 1.01877 0
M  V30 4372 C 416.908 0.541135 1.87966 0
M  V30 4373 O 418.114 0.614491 2.64455 0
M  V30 4374 C 416.57 3.08042 1.86113 0
M  V30 4375 C 416.178 4.35531 1.04961 0
M  V30 4376 C 417.922 3.36523 2.58752 0
M  V30 4377 C 415.829 5.60538 1.88551 0
M  V30 4378 H 414.759 0.64884 0.384087 0
M  V30 4379 H 417.41 1.81426 0.275101 0
M  V30 4380 H 415.792 2.94696 2.64519 0
M  V30 4381 H 416.966 4.59751 0.31074 0
M  V30 4382 H 415.281 4.14085 0.43843 0
M  V30 4383 H 417.878 4.27122 3.21668 0
M  V30 4384 H 418.221 2.56 3.28283 0
M  V30 4385 H 418.754 3.50901 1.87386 0
M  V30 4386 H 415.493 6.43767 1.23466 0
M  V30 4387 H 415.013 5.40483 2.60074 0
M  V30 4388 H 416.692 5.98297 2.46273 0
M  V30 4389 N 416.824 -0.551391 1.4764 0
M  V30 4390 C 418.073 -1.30467 1.53822 0
M  V30 4391 C 418.386 -1.94495 0.207661 0
M  V30 4392 O 419.592 -2.71099 0.147533 0
M  V30 4393 C 418.048 -2.36616 2.71184 0
M  V30 4394 C 417.656 -1.78754 4.10793 0
M  V30 4395 C 419.4 -3.13088 2.86663 0
M  V30 4396 C 417.307 -2.82717 5.19447 0
M  V30 4397 H 416.237 -0.490584 0.572576 0
M  V30 4398 H 418.888 -0.58494 1.73927 0
M  V30 4399 H 417.27 -3.11529 2.4447 0
M  V30 4400 H 418.444 -1.10173 4.47435 0
M  V30 4401 H 416.759 -1.14846 4.00249 0
M  V30 4402 H 419.356 -3.90736 3.65007 0
M  V30 4403 H 419.699 -3.67635 1.95321 0
M  V30 4404 H 420.232 -2.45288 3.13175 0
M  V30 4405 H 416.971 -2.33018 6.12685 0
M  V30 4406 H 416.491 -3.4969 4.87316 0
M  V30 4407 H 418.17 -3.46102 5.46646 0
M  V30 4408 N 418.302 -1.35869 -0.798587 0
M  V30 4409 C 419.212 -1.31578 -1.94228 0
M  V30 4410 C 420.228 -0.21939 -1.72611 0
M  V30 4411 O 421.404 -0.450167 -1.96305 0
M  V30 4412 C 418.469 -1.09528 -3.28944 0
M  V30 4413 C 417.53 -2.28556 -3.63402 0
M  V30 4414 C 416.763 -2.07549 -4.9169 0
M  V30 4415 O 416.986 -1.046 -5.60727 0
M  V30 4416 O 415.92 -2.95106 -5.24591 0
M  V30 4417 H 419.746 -2.27847 -2.00796 0
M  V30 4418 H 417.331 -1.16322 -0.937526 0
M  V30 4419 H 419.213 -0.991127 -4.09579 0
M  V30 4420 H 417.888 -0.16315 -3.23289 0
M  V30 4421 H 416.795 -2.44538 -2.83112 0
M  V30 4422 H 418.128 -3.20244 -3.73771 0
M  V30 4423 N 419.78 1.02168 -1.19998 0
M  V30 4424 C 421.005 1.79833 -1.03319 0
M  V30 4425 C 421.43 1.83504 0.413281 0
M  V30 4426 O 420.788 1.26635 1.29743 0
M  V30 4427 C 420.836 3.22396 -1.61533 0
M  V30 4428 O 419.94 4.03555 -0.849519 0
M  V30 4429 H 419.281 0.554872 -0.364709 0
M  V30 4430 H 421.811 1.28542 -1.59179 0
M  V30 4431 H 421.821 3.73124 -1.65054 0
M  V30 4432 H 420.496 3.19039 -2.66809 0
M  V30 4433 H 419.073 3.62169 -0.888129 0
M  V30 4434 N 421.258 1.00505 1.21394 0
M  V30 4435 C 422.221 0.570459 2.21987 0
M  V30 4436 C 423.221 -0.353211 1.56873 0
M  V30 4437 O 424.411 -0.14349 1.73608 0
M  V30 4438 C 421.543 -0.168555 3.40483 0
M  V30 4439 H 422.736 1.46021 2.6195 0
M  V30 4440 H 420.289 0.793565 1.34656 0
M  V30 4441 H 421.024 -1.07374 3.06009 0
M  V30 4442 H 420.809 0.494823 3.88965 0
M  V30 4443 H 422.299 -0.460362 4.15055 0
M  V30 4444 N 422.737 -1.36956 0.779787 0
M  V30 4445 C 424.014 -1.93697 0.272156 0
M  V30 4446 C 424.394 -1.71267 -1.23413 0
M  V30 4447 O 423.742 -1.06607 -2.02107 0
M  V30 4448 C 423.952 -3.42812 0.654291 0
M  V30 4449 C 425.3 -4.19921 0.628602 0
M  V30 4450 O 426.324 -3.51209 0.594172 0
M  V30 4451 O 425.183 -5.42465 0.662864 0
M  V30 4452 H 422.277 -0.824447 0.0649286 0
M  V30 4453 H 424.823 -1.46196 0.861682 0
M  V30 4454 H 423.595 -3.52754 1.69353 0
M  V30 4455 H 423.218 -3.97582 0.0381369 0
M  V30 4456 N 424.215 -0.530993 -1.48385 0
M  V30 4457 C 425.163 0.244595 -2.3131 0
M  V30 4458 C 426.157 0.93451 -1.41291 0
M  V30 4459 O 427.363 0.85878 -1.58193 0
M  V30 4460 H 423.738 0.0977472 -0.74562 0
M  V30 4461 H 425.709 -0.474369 -2.94605 0
M  V30 4462 C 424.458 1.2779 -3.23365 0
M  V30 4463 H 423.781 0.756439 -3.92579 0
M  V30 4464 H 425.221 1.79198 -3.84271 0
M  V30 4465 C 423.68 2.31205 -2.45042 0
M  V30 4466 O 424.21 3.37661 -2.17596 0
M  V30 4467 N 422.416 2.04446 -2.0652 0
M  V30 4468 H 421.963 1.17891 -2.2904 0
M  V30 4469 H 421.921 2.73861 -1.54427 0
M  V30 4470 N 425.693 1.55336 -0.266172 0
M  V30 4471 C 427.109 1.59356 0.0882065 0
M  V30 4472 C 427.309 1.2834 1.55342 0
M  V30 4473 O 426.365 1.03996 2.30089 0
M  V30 4474 C 427.678 2.99409 -0.278364 0
M  V30 4475 C 429.226 3.12196 -0.224243 0
M  V30 4476 C 429.701 4.545 -0.565123 0
M  V30 4477 N 431.192 4.60313 -0.51634 0
M  V30 4478 C 431.927 5.68434 -0.753013 0
M  V30 4479 N 431.423 6.84738 -1.05383 0
M  V30 4480 N 433.216 5.57942 -0.682414 0
M  V30 4481 H 425.367 1.73764 -1.22147 0
M  V30 4482 H 427.63 0.809822 -0.492841 0
M  V30 4483 H 427.336 3.2691 -1.29703 0
M  V30 4484 H 427.21 3.75228 0.385186 0
M  V30 4485 H 429.597 2.84464 0.78512 0
M  V30 4486 H 429.678 2.38609 -0.921922 0
M  V30 4487 H 429.322 4.82956 -1.57213 0
M  V30 4488 H 429.252 5.26374 0.154248 0
M  V30 4489 H 431.743 3.7676 -0.29335 0
M  V30 4490 H 432.056 7.63088 -1.22133 0
M  V30 4491 H 430.401 6.86375 -1.09151 0
M  V30 4492 H 433.592 4.65958 -0.44731 0
M  V30 4493 H 433.765 6.4213 -0.870248 0
M  V30 4494 N 427.171 -0.0066808 1.57599 0
M  V30 4495 C 428.587 -0.36267 1.55425 0
M  V30 4496 C 428.787 -1.75209 0.995187 0
M  V30 4497 O 427.843 -2.44616 0.626058 0
M  V30 4498 C 429.156 -0.244017 2.99708 0
M  V30 4499 C 430.704 -0.319451 3.11366 0
M  V30 4500 C 431.179 -0.229998 4.57422 0
M  V30 4501 N 432.67 -0.288105 4.62303 0
M  V30 4502 C 433.405 -0.242127 5.72889 0
M  V30 4503 N 432.901 -0.147133 6.92644 0
M  V30 4504 N 434.694 -0.293502 5.61333 0
M  V30 4505 H 426.845 0.902314 1.92281 0
M  V30 4506 H 429.108 0.34525 0.882896 0
M  V30 4507 H 428.814 0.711678 3.44424 0
M  V30 4508 H 428.688 -1.02877 3.629 0
M  V30 4509 H 431.075 -1.26559 2.66584 0
M  V30 4510 H 431.156 0.495055 2.50964 0
M  V30 4511 H 430.8 0.712566 5.02877 0
M  V30 4512 H 430.73 -1.0629 5.15761 0
M  V30 4513 H 433.221 -0.363126 3.76151 0
M  V30 4514 H 433.534 -0.117763 7.7271 0
M  V30 4515 H 431.879 -0.112857 6.94908 0
M  V30 4516 H 435.07 -0.365864 4.66668 0
M  V30 4517 H 435.243 -0.254204 6.47501 0
M  V30 4518 N 428.649 -1.55105 -0.279332 0
M  V30 4519 C 429.581 -1.83952 -1.36727 0
M  V30 4520 C 430.594 -0.723642 -1.45833 0
M  V30 4521 O 431.783 -1.00141 -1.47763 0
M  V30 4522 C 428.883 -1.98183 -2.74912 0
M  V30 4523 C 428.056 -3.28787 -2.88475 0
M  V30 4524 C 427.115 -3.33162 -4.07295 0
M  V30 4525 O 426.141 -4.06576 -3.98353 0
M  V30 4526 N 427.343 -2.60109 -5.18964 0
M  V30 4527 H 430.108 -2.77853 -1.12328 0
M  V30 4528 H 427.669 -1.54945 -0.469442 0
M  V30 4529 H 429.661 -1.98488 -3.52682 0
M  V30 4530 H 428.231 -1.11177 -2.92162 0
M  V30 4531 H 427.451 -3.41075 -1.97641 0
M  V30 4532 H 428.739 -4.14933 -2.94463 0
M  V30 4533 H 428.137 -2.00136 -5.29115 0
M  V30 4534 H 426.694 -2.66143 -5.94988 0
M  V30 4535 N 430.127 0.543554 -1.4793 0
M  V30 4536 C 431.077 1.64527 -1.57844 0
M  V30 4537 C 432.061 1.54869 -0.436408 0
M  V30 4538 O 433.253 1.63119 -0.687101 0
M  V30 4539 C 430.382 3.03281 -1.6086 0
M  V30 4540 C 429.468 3.18093 -2.80495 0
M  V30 4541 N 429.859 3.02923 -4.05057 0
M  V30 4542 C 428.157 3.49121 -2.77543 0
M  V30 4543 C 428.858 3.20791 -4.85251 0
M  V30 4544 N 427.834 3.47749 -4.17818 0
M  V30 4545 H 431.636 1.51388 -2.5191 0
M  V30 4546 H 429.15 0.748671 -1.44113 0
M  V30 4547 H 431.147 3.82403 -1.66054 0
M  V30 4548 H 429.807 3.17521 -0.678996 0
M  V30 4549 H 430.818 2.79966 -4.35705 0
M  V30 4550 H 427.495 3.69804 -1.93781 0
M  V30 4551 H 428.885 3.13915 -5.9406 0
M  V30 4552 N 431.605 1.3629 0.791371 0
M  V30 4553 C 432.535 1.33137 1.91825 0
M  V30 4554 C 433.516 0.203168 1.68882 0
M  V30 4555 O 434.701 0.400509 1.90025 0
M  V30 4556 C 431.831 1.11793 3.28816 0
M  V30 4557 C 430.785 2.21417 3.66277 0
M  V30 4558 C 430.111 1.85218 5.01596 0
M  V30 4559 C 431.411 3.63489 3.75064 0
M  V30 4560 H 433.105 2.2743 1.9472 0
M  V30 4561 H 430.651 1.09479 0.935437 0
M  V30 4562 H 432.604 1.08222 4.07266 0
M  V30 4563 H 431.328 0.139501 3.26302 0
M  V30 4564 H 429.987 2.2411 2.90121 0
M  V30 4565 H 429.635 0.859544 4.95602 0
M  V30 4566 H 429.335 2.58611 5.27631 0
M  V30 4567 H 430.859 1.832 5.82469 0
M  V30 4568 H 432.273 3.63034 4.43711 0
M  V30 4569 H 430.67 4.35771 4.12582 0
M  V30 4570 H 431.74 3.98536 2.76219 0
M  V30 4571 N 433.083 -1.0153 1.20538 0
M  V30 4572 C 434.36 -1.72327 0.925343 0
M  V30 4573 C 434.74 -2.03383 -0.565547 0
M  V30 4574 O 434.088 -1.69934 -1.52757 0
M  V30 4575 C 434.298 -2.9902 1.79967 0
M  V30 4576 C 435.646 -3.72258 2.04228 0
M  V30 4577 O 436.67 -3.08979 1.77231 0
M  V30 4578 O 435.529 -4.86053 2.4983 0
M  V30 4579 H 432.623 -0.751099 0.346092 0
M  V30 4580 H 435.169 -1.07366 1.31417 0
M  V30 4581 H 433.941 -2.72402 2.80915 0
M  V30 4582 H 433.564 -3.71721 1.41099 0
M  V30 4583 N 434.561 -1.01147 -1.20859 0
M  V30 4584 C 435.977 -0.725422 -1.42161 0
M  V30 4585 C 436.177 0.696919 -1.89064 0
M  V30 4586 O 435.233 1.46539 -2.05627 0
M  V30 4587 C 436.546 -1.74678 -2.44761 0
M  V30 4588 C 438.094 -1.76433 -2.58535 0
M  V30 4589 C 438.569 -2.77481 -3.64374 0
M  V30 4590 N 440.06 -2.76189 -3.71852 0
M  V30 4591 C 440.795 -3.51035 -4.53389 0
M  V30 4592 N 440.291 -4.35541 -5.38773 0
M  V30 4593 N 442.084 -3.39655 -4.47873 0
M  V30 4594 H 434.235 -1.92979 -0.887282 0
M  V30 4595 H 436.498 -0.833327 -0.451962 0
M  V30 4596 H 436.204 -2.76551 -2.17285 0
M  V30 4597 H 436.078 -1.55472 -3.43669 0
M  V30 4598 H 438.465 -0.75248 -2.85345 0
M  V30 4599 H 438.546 -1.99712 -1.5984 0
M  V30 4600 H 438.19 -3.78827 -3.38308 0
M  V30 4601 H 438.12 -2.51466 -4.6268 0
M  V30 4602 H 440.611 -2.14885 -3.10858 0
M  V30 4603 H 440.924 -4.89432 -5.98061 0
M  V30 4604 H 439.269 -4.39621 -5.38292 0
M  V30 4605 H 442.46 -2.73063 -3.80203 0
M  V30 4606 H 442.633 -3.9824 -5.11184 0
M  V30 4607 N 436.039 1.36541 -0.78704 0
M  V30 4608 C 436.972 2.27831 -0.129765 0
M  V30 4609 C 437.95 1.47105 0.692732 0
M  V30 4610 O 439.134 1.7641 0.664222 0
M  V30 4611 C 436.261 3.28577 0.821883 0
M  V30 4612 C 435.307 4.26422 0.0814771 0
M  V30 4613 S 436.14 5.20919 -1.24112 0
M  V30 4614 C 437.296 6.25212 -0.293409 0
M  V30 4615 H 437.529 2.83229 -0.903811 0
M  V30 4616 H 435.062 1.43046 -0.581144 0
M  V30 4617 H 437.02 3.87123 1.3655 0
M  V30 4618 H 435.681 2.72096 1.56916 0
M  V30 4619 H 434.874 4.97554 0.803485 0
M  V30 4620 H 434.476 3.71944 -0.391589 0
M  V30 4621 H 436.768 6.75435 0.528622 0
M  V30 4622 H 437.711 7.01378 -0.973344 0
M  V30 4623 H 438.119 5.64407 0.102196 0
M  V30 4624 N 437.518 0.538854 1.48102 0
M  V30 4625 C 438.481 -0.208395 2.28251 0
M  V30 4626 C 439.481 -0.859656 1.35892 0
M  V30 4627 O 440.671 -0.71834 1.58699 0
M  V30 4628 C 437.803 -1.30252 3.15035 0
M  V30 4629 H 438.996 0.495407 2.9578 0
M  V30 4630 H 436.549 0.295112 1.53489 0
M  V30 4631 H 437.284 -2.0393 2.52157 0
M  V30 4632 H 437.069 -0.840551 3.82985 0
M  V30 4633 H 438.559 -1.82787 3.75471 0
M  V30 4634 N 438.996 -1.55193 0.274407 0
M  V30 4635 C 440.412 -1.59401 -0.0797543 0
M  V30 4636 C 440.612 -1.29162 -1.54659 0
M  V30 4637 O 439.668 -1.05215 -2.29534 0
M  V30 4638 C 440.981 -2.99257 0.294238 0
M  V30 4639 C 442.529 -3.12072 0.240796 0
M  V30 4640 C 443.004 -4.54194 0.589218 0
M  V30 4641 N 444.495 -4.60033 0.540744 0
M  V30 4642 C 445.23 -5.68027 0.783147 0
M  V30 4643 N 444.726 -6.8417 1.09013 0
M  V30 4644 N 446.519 -5.57572 0.711993 0
M  V30 4645 H 438.67 -1.73113 1.23067 0
M  V30 4646 H 440.933 -0.807197 0.497129 0
M  V30 4647 H 440.639 -3.26217 1.31435 0
M  V30 4648 H 440.513 -3.75427 -0.365281 0
M  V30 4649 H 442.9 -2.84877 -0.770024 0
M  V30 4650 H 442.981 -2.38117 0.934563 0
M  V30 4651 H 442.625 -4.82115 1.59772 0
M  V30 4652 H 442.555 -5.26448 -0.126331 0
M  V30 4653 H 445.046 -3.76599 0.313327 0
M  V30 4654 H 445.359 -7.6243 1.26178 0
M  V30 4655 H 443.704 -6.85787 1.12789 0
M  V30 4656 H 446.895 -4.65714 0.472014 0
M  V30 4657 H 447.068 -6.41659 0.90429 0
M  V30 4658 N 440.474 -0.00167713 -1.576 0
M  V30 4659 C 441.421 0.989195 -2.08527 0
M  V30 4660 C 442.391 1.34031 -0.981065 0
M  V30 4661 O 443.576 1.43839 -1.2536 0
M  V30 4662 C 440.716 2.27537 -2.59463 0
M  V30 4663 C 439.829 1.98314 -3.83791 0
M  V30 4664 C 438.964 3.21025 -4.23222 0
M  V30 4665 C 438.003 2.87495 -5.40382 0
M  V30 4666 N 437.14 4.02749 -5.75098 0
M  V30 4667 H 441.98 0.547973 -2.92919 0
M  V30 4668 H 439.517 0.258917 -1.44803 0
M  V30 4669 H 441.475 3.02729 -2.87073 0
M  V30 4670 H 440.105 2.69325 -1.77943 0
M  V30 4671 H 439.157 1.13482 -3.63078 0
M  V30 4672 H 440.469 1.69601 -4.69081 0
M  V30 4673 H 439.623 4.04561 -4.52123 0
M  V30 4674 H 438.362 3.52877 -3.36644 0
M  V30 4675 H 437.367 2.02367 -5.11202 0
M  V30 4676 H 438.592 2.56889 -6.28637 0
M  V30 4677 H 436.538 4.34494 -4.91478 0
M  V30 4678 H 436.455 3.77566 -6.54966 0
M  V30 4679 H 437.723 4.87068 -6.08592 0
M  V30 4680 N 441.952 1.55251 0.271103 0
M  V30 4681 C 442.882 1.9127 1.33933 0
M  V30 4682 C 443.863 0.77478 1.5143 0
M  V30 4683 O 445.048 1.03307 1.64442 0
M  V30 4684 C 442.178 2.18627 2.69851 0
M  V30 4685 C 441.132 3.34442 2.67081 0
M  V30 4686 C 440.458 3.47284 4.06569 0
M  V30 4687 C 441.758 4.70784 2.26185 0
M  V30 4688 H 443.452 2.80744 1.04035 0
M  V30 4689 H 440.998 1.35077 0.499017 0
M  V30 4690 H 442.951 2.42413 3.44694 0
M  V30 4691 H 441.675 1.25955 3.01335 0
M  V30 4692 H 440.334 3.10627 1.94695 0
M  V30 4693 H 439.982 2.52074 4.35279 0
M  V30 4694 H 439.682 4.25152 4.0561 0
M  V30 4695 H 441.206 3.73363 4.83148 0
M  V30 4696 H 442.62 4.94102 2.90751 0
M  V30 4697 H 441.017 5.51582 2.36384 0
M  V30 4698 H 442.087 4.69478 1.21319 0
M  V30 4699 N 443.43 -0.535701 1.48216 0
M  V30 4700 C 444.846 -0.863701 1.3421 0
M  V30 4701 C 445.046 -1.98458 0.34879 0
M  V30 4702 O 444.102 -2.51432 -0.23204 0
M  V30 4703 C 445.415 -1.23662 2.74095 0
M  V30 4704 C 446.963 -1.34683 2.82541 0
M  V30 4705 C 447.438 -1.75322 4.23115 0
M  V30 4706 N 448.929 -1.82434 4.2576 0
M  V30 4707 C 449.664 -2.15252 5.31464 0
M  V30 4708 N 449.16 -2.46533 6.47452 0
M  V30 4709 N 450.953 -2.16209 5.18855 0
M  V30 4710 H 443.104 0.203965 2.11418 0
M  V30 4711 H 445.367 0.0286033 0.947568 0
M  V30 4712 H 445.073 -0.486674 3.48316 0
M  V30 4713 H 444.947 -2.18805 3.07253 0
M  V30 4714 H 447.334 -2.08756 2.08579 0
M  V30 4715 H 447.415 -0.376756 2.5301 0
M  V30 4716 H 447.059 -1.01812 4.97591 0
M  V30 4717 H 446.989 -2.7337 4.50085 0
M  V30 4718 H 449.48 -1.6056 3.42095 0
M  V30 4719 H 449.793 -2.70662 7.23852 0
M  V30 4720 H 448.138 -2.44065 6.50736 0
M  V30 4721 H 451.329 -1.91224 4.2726 0
M  V30 4722 H 451.502 -2.41453 6.01335 0
M  V30 4723 N 444.908 -1.36708 -0.784132 0
M  V30 4724 C 446.157 -1.30559 -1.53744 0
M  V30 4725 C 446.47 0.111374 -1.95283 0
M  V30 4726 O 447.676 0.29527 -2.6989 0
M  V30 4727 C 446.132 -2.29098 -2.77565 0
M  V30 4728 C 445.74 -3.76258 -2.43174 0
M  V30 4729 C 447.484 -2.31936 -3.55536 0
M  V30 4730 C 445.391 -4.6656 -3.63422 0
M  V30 4731 H 444.321 -0.48518 -0.577162 0
M  V30 4732 H 446.972 -1.62101 -0.859981 0
M  V30 4733 H 445.354 -1.90557 -3.47137 0
M  V30 4734 H 446.528 -4.23565 -1.81465 0
M  V30 4735 H 444.843 -3.76246 -1.78403 0
M  V30 4736 H 447.44 -2.9661 -4.44889 0
M  V30 4737 H 447.783 -1.3294 -3.94503 0
M  V30 4738 H 448.316 -2.6912 -2.92949 0
M  V30 4739 H 445.055 -5.66638 -3.29547 0
M  V30 4740 H 444.575 -4.23966 -4.24279 0
M  V30 4741 H 446.254 -4.8309 -4.30387 0
M  V30 4742 N 446.386 1.0089 -1.21074 0
M  V30 4743 C 447.634 1.74262 -1.02358 0
M  V30 4744 C 447.955 1.89869 0.444393 0
M  V30 4745 O 447.225 1.44677 1.32081 0
M  V30 4746 H 445.805 0.645615 -0.375754 0
M  V30 4747 H 448.467 1.21596 -1.52317 0
M  V30 4748 H 447.563 2.74328 -1.4883 0
M  V30 4749 N 447.864 1.01787 1.20321 0
M  V30 4750 C 448.794 0.609625 2.25401 0
M  V30 4751 C 449.775 -0.375951 1.65893 0
M  V30 4752 O 450.96 -0.261101 1.92437 0
M  V30 4753 C 448.09 -0.0515995 3.47262 0
M  V30 4754 C 447.044 0.855095 4.19371 0
M  V30 4755 C 446.37 0.0595757 5.34667 0
M  V30 4756 C 447.67 2.16374 4.75373 0
M  V30 4757 H 449.364 1.48803 2.59804 0
M  V30 4758 H 446.91 0.716934 1.24884 0
M  V30 4759 H 448.863 -0.348764 4.19954 0
M  V30 4760 H 447.587 -0.964726 3.12027 0
M  V30 4761 H 446.246 1.13628 3.48546 0
M  V30 4762 H 445.894 -0.85524 4.95676 0
M  V30 4763 H 445.594 0.663406 5.83843 0
M  V30 4764 H 447.118 -0.231105 6.10162 0
M  V30 4765 H 448.532 1.92885 5.39878 0
M  V30 4766 H 446.929 2.71853 5.34991 0
M  V30 4767 H 447.999 2.82589 3.94045 0
M  V30 4768 N 449.342 -1.36122 0.79427 0
M  V30 4769 C 450.567 -2.03891 0.379871 0
M  V30 4770 C 450.992 -1.59488 -0.997251 0
M  V30 4771 O 450.35 -0.765652 -1.64339 0
M  V30 4772 C 450.398 -3.57687 0.457442 0
M  V30 4773 O 449.502 -4.08931 -0.5338 0
M  V30 4774 H 448.843 -0.6443 0.160541 0
M  V30 4775 H 451.373 -1.73976 1.07673 0
M  V30 4776 H 451.383 -4.06721 0.322792 0
M  V30 4777 H 450.058 -3.89357 1.46199 0
M  V30 4778 H 448.635 -3.71154 -0.360409 0
M  V30 4779 N 450.82 -0.546701 -1.47814 0
M  V30 4780 C 451.752 0.244196 -2.27895 0
M  V30 4781 C 452.765 0.88911 -1.36377 0
M  V30 4782 O 453.954 0.764733 -1.61289 0
M  V30 4783 C 451.054 1.36252 -3.10304 0
M  V30 4784 C 450.227 0.816382 -4.29714 0
M  V30 4785 C 449.286 1.81789 -4.93801 0
M  V30 4786 O 448.312 1.36818 -5.52512 0
M  V30 4787 N 449.514 3.15085 -4.87547 0
M  V30 4788 H 452.279 -0.442694 -2.96412 0
M  V30 4789 H 449.84 -0.382095 -1.57327 0
M  V30 4790 H 451.832 2.03102 -3.50045 0
M  V30 4791 H 450.402 1.95281 -2.44099 0
M  V30 4792 H 449.622 -0.0285981 -3.9419 0
M  V30 4793 H 450.91 0.430668 -5.06974 0
M  V30 4794 H 450.308 3.54275 -4.41028 0
M  V30 4795 H 448.865 3.77522 -5.31339 0
M  V30 4796 N 452.299 1.55045 -0.282633 0
M  V30 4797 C 453.229 2.2579 0.595066 0
M  V30 4798 C 454.21 1.25074 1.15284 0
M  V30 4799 O 455.395 1.5381 1.18559 0
M  V30 4800 C 452.525 2.98472 1.77572 0
M  V30 4801 C 451.479 4.0618 1.34914 0
M  V30 4802 C 450.805 4.66477 2.6135 0
M  V30 4803 C 452.105 5.1996 0.493821 0
M  V30 4804 H 453.799 2.994 0.00505653 0
M  V30 4805 H 451.345 1.44 0.000992001 0
M  V30 4806 H 453.298 3.46677 2.39568 0
M  V30 4807 H 452.022 2.2241 2.39168 0
M  V30 4808 H 450.681 3.58797 0.752338 0
M  V30 4809 H 450.329 3.87074 3.2122 0
M  V30 4810 H 450.029 5.39207 2.33516 0
M  V30 4811 H 451.553 5.17435 3.24181 0
M  V30 4812 H 452.967 5.64172 1.01898 0
M  V30 4813 H 451.364 5.99299 0.310047 0
M  V30 4814 H 452.434 4.82462 -0.485593 0
M  V30 4815 N 453.777 0.010035 1.57597 0
M  V30 4816 C 455.025 -0.671371 1.90623 0
M  V30 4817 C 455.346 -1.73753 0.885151 0
M  V30 4818 O 454.616 -1.95752 -0.0760611 0
M  V30 4819 H 453.196 -0.250968 0.703579 0
M  V30 4820 H 455.858 0.0533325 1.94827 0
M  V30 4821 H 454.954 -1.13626 2.90681 0
M  V30 4822 N 455.255 -1.55392 -0.262866 0
M  V30 4823 C 456.185 -1.91978 -1.32917 0
M  V30 4824 C 457.166 -0.7828 -1.51017 0
M  V30 4825 O 458.351 -1.04178 -1.63892 0
M  V30 4826 C 455.481 -2.20055 -2.68687 0
M  V30 4827 C 454.435 -3.35854 -2.65304 0
M  V30 4828 C 453.761 -3.49435 -4.04721 0
M  V30 4829 C 455.061 -4.71977 -2.23685 0
M  V30 4830 H 456.755 -2.81292 -1.02544 0
M  V30 4831 H 454.301 -1.3534 -0.491846 0
M  V30 4832 H 456.254 -2.44237 -3.43404 0
M  V30 4833 H 454.978 -1.27551 -3.00663 0
M  V30 4834 H 453.637 -3.11655 -1.93045 0
M  V30 4835 H 453.285 -2.54379 -4.33936 0
M  V30 4836 H 452.985 -4.27297 -4.0335 0
M  V30 4837 H 454.509 -3.7592 -4.81161 0
M  V30 4838 H 455.923 -4.95637 -2.88127 0
M  V30 4839 H 454.32 -5.52828 -2.33456 0
M  V30 4840 H 455.39 -4.70115 -1.18827 0
M  V30 4841 N 456.733 0.527833 -1.48498 0
M  V30 4842 C 457.961 1.30823 -1.6029 0
M  V30 4843 C 458.376 1.86945 -0.263974 0
M  V30 4844 O 457.733 1.6651 0.747034 0
M  V30 4845 C 457.784 2.45756 -2.65116 0
M  V30 4846 O 457.505 1.91946 -3.93813 0
M  V30 4847 C 459.006 3.37543 -2.87367 0
M  V30 4848 H 456.226 0.397763 -0.540394 0
M  V30 4849 H 458.77 0.636529 -1.94341 0
M  V30 4850 H 456.925 3.08806 -2.33917 0
M  V30 4851 H 457.339 2.67195 -4.51339 0
M  V30 4852 H 458.813 4.14532 -3.6451 0
M  V30 4853 H 459.29 3.92905 -1.9627 0
M  V30 4854 H 459.896 2.80283 -3.19878 0
M  V30 4855 N 458.211 1.37122 0.776871 0
M  V30 4856 C 459.46 1.31373 1.53049 0
M  V30 4857 C 459.773 -0.101016 1.95339 0
M  V30 4858 O 460.979 -0.280953 2.70042 0
M  V30 4859 C 459.435 2.30567 2.76346 0
M  V30 4860 C 459.043 3.77543 2.41175 0
M  V30 4861 C 460.787 2.33818 3.54301 0
M  V30 4862 C 458.694 4.68481 3.60943 0
M  V30 4863 H 457.624 0.488234 0.574581 0
M  V30 4864 H 460.275 1.62554 0.851372 0
M  V30 4865 H 458.657 1.92396 3.46121 0
M  V30 4866 H 459.831 4.24521 1.79216 0
M  V30 4867 H 458.146 3.77187 1.76405 0
M  V30 4868 H 460.743 2.98965 4.4331 0
M  V30 4869 H 461.086 1.3503 3.93793 0
M  V30 4870 H 461.619 2.7067 2.91518 0
M  V30 4871 H 458.358 5.68378 3.26537 0
M  V30 4872 H 457.878 4.2621 4.22025 0
M  V30 4873 H 459.557 4.85366 4.27819 0
M  V30 4874 N 459.689 -1.00246 1.21608 0
M  V30 4875 C 461.105 -1.26435 0.973975 0
M  V30 4876 C 461.305 -1.98642 -0.338143 0
M  V30 4877 O 460.361 -2.29026 -1.06317 0
M  V30 4878 C 461.674 -2.08551 2.16626 0
M  V30 4879 C 463.222 -2.21769 2.20879 0
M  V30 4880 C 463.697 -3.07267 3.39633 0
M  V30 4881 N 465.188 -3.14855 3.39736 0
M  V30 4882 C 465.923 -3.81274 4.28273 0
M  V30 4883 N 465.419 -4.497 5.27012 0
M  V30 4884 N 467.212 -3.7794 4.16074 0
M  V30 4885 H 459.363 -0.518089 2.05984 0
M  V30 4886 H 461.626 -0.291368 0.902113 0
M  V30 4887 H 461.332 -1.62847 3.11727 0
M  V30 4888 H 461.206 -3.09303 2.15897 0
M  V30 4889 H 463.593 -2.66691 1.26332 0
M  V30 4890 H 463.674 -1.20478 2.25652 0
M  V30 4891 H 463.318 -2.63047 4.34475 0
M  V30 4892 H 463.248 -4.08678 3.321 0
M  V30 4893 H 465.739 -2.66147 2.6828 0
M  V30 4894 H 466.052 -4.98092 5.90867 0
M  V30 4895 H 464.397 -4.48479 5.30935 0
M  V30 4896 H 467.588 -3.23638 3.38195 0
M  V30 4897 H 467.761 -4.29424 4.85282 0
M  V30 4898 N 461.167 -1.02423 -1.1978 0
M  V30 4899 C 462.392 -0.7373 -1.93852 0
M  V30 4900 C 462.817 0.696923 -1.74713 0
M  V30 4901 O 462.175 1.48056 -1.04638 0
M  V30 4902 C 462.223 -1.08783 -3.438 0
M  V30 4903 O 461.327 -0.20383 -4.11896 0
M  V30 4904 H 460.668 -0.27284 -0.605355 0
M  V30 4905 H 463.198 -1.36966 -1.51992 0
M  V30 4906 H 463.208 -1.04276 -3.9445 0
M  V30 4907 H 461.883 -2.13274 -3.57053 0
M  V30 4908 H 460.46 -0.307091 -3.71633 0
M  V30 4909 N 462.645 1.35699 -0.801477 0
M  V30 4910 C 463.555 2.33661 -0.209691 0
M  V30 4911 C 464.571 1.6162 0.644591 0
M  V30 4912 O 465.747 1.93529 0.557545 0
M  V30 4913 C 462.812 3.40816 0.636033 0
M  V30 4914 C 461.873 4.28639 -0.238147 0
M  V30 4915 C 461.106 5.30676 0.567307 0
M  V30 4916 O 461.329 5.41174 1.8024 0
M  V30 4917 O 460.263 6.01887 -0.0391336 0
M  V30 4918 H 464.089 2.8606 -1.01996 0
M  V30 4919 H 461.674 1.38379 -0.563164 0
M  V30 4920 H 463.556 4.06301 1.11791 0
M  V30 4921 H 462.231 2.90696 1.42399 0
M  V30 4922 H 461.138 3.66152 -0.767044 0
M  V30 4923 H 462.471 4.82143 -0.989915 0
M  V30 4924 N 464.123 0.554532 1.47522 0
M  V30 4925 C 465.348 0.0322661 2.07375 0
M  V30 4926 C 465.773 -1.25079 1.40488 0
M  V30 4927 O 465.131 -1.74859 0.47896 0
M  V30 4928 C 465.179 -0.149397 3.6029 0
M  V30 4929 O 464.283 -1.21259 3.9417 0
M  V30 4930 H 463.624 0.0501228 0.662106 0
M  V30 4931 H 466.154 0.769452 1.8958 0
M  V30 4932 H 466.164 -0.364437 4.06369 0
M  V30 4933 H 464.839 0.787743 4.08372 0
M  V30 4934 H 463.416 -0.97825 3.5984 0
M  V30 4935 N 465.601 -1.54893 0.290851 0
M  V30 4936 C 466.533 -2.20564 -0.623236 0
M  V30 4937 C 467.546 -1.19519 -1.1054 0
M  V30 4938 O 468.735 -1.46165 -1.02459 0
M  V30 4939 C 465.835 -2.83033 -1.86401 0
M  V30 4940 C 465.008 -4.09916 -1.52604 0
M  V30 4941 C 464.067 -4.56284 -2.62091 0
M  V30 4942 O 463.093 -5.2171 -2.27612 0
M  V30 4943 N 464.295 -4.27746 -3.92446 0
M  V30 4944 H 467.06 -2.99638 -0.0610915 0
M  V30 4945 H 464.621 -1.61508 0.112615 0
M  V30 4946 H 466.613 -3.1099 -2.58973 0
M  V30 4947 H 465.183 -2.0786 -2.33481 0
M  V30 4948 H 464.403 -3.89078 -0.633424 0
M  V30 4949 H 465.691 -4.92554 -1.27547 0
M  V30 4950 H 465.089 -3.7531 -4.23272 0
M  V30 4951 H 463.646 -4.60437 -4.61347 0
M  V30 4952 N 467.08 -0.0183926 -1.57589 0
M  V30 4953 C 468.329 0.66185 -1.90532 0
M  V30 4954 C 468.642 1.73904 -0.895366 0
M  V30 4955 O 469.848 2.47518 -1.11566 0
M  V30 4956 C 468.304 1.22844 -3.38286 0
M  V30 4957 C 467.912 0.185103 -4.47617 0
M  V30 4958 C 469.656 1.88581 -3.80312 0
M  V30 4959 C 467.563 0.762723 -5.86461 0
M  V30 4960 H 466.493 0.250972 -0.711006 0
M  V30 4961 H 469.144 -0.0819435 -1.83317 0
M  V30 4962 H 467.526 2.0235 -3.40398 0
M  V30 4963 H 468.7 -0.58671 -4.5705 0
M  V30 4964 H 467.015 -0.372889 -4.14727 0
M  V30 4965 H 469.612 2.32735 -4.81392 0
M  V30 4966 H 469.955 2.72408 -3.14801 0
M  V30 4967 H 470.488 1.15782 -3.80578 0
M  V30 4968 H 467.227 -0.0371713 -6.55489 0
M  V30 4969 H 466.747 1.50327 -5.80656 0
M  V30 4970 H 468.426 1.25576 -6.34697 0
M  V30 4971 N 468.558 1.5553 0.254621 0
M  V30 4972 C 469.807 1.76202 0.981612 0
M  V30 4973 C 470.12 0.580883 1.86776 0
M  V30 4974 O 471.326 0.670448 2.63092 0
M  V30 4975 C 469.782 3.11921 1.79537 0
M  V30 4976 C 469.39 4.37659 0.956991 0
M  V30 4977 C 471.134 3.41936 2.51555 0
M  V30 4978 C 469.041 5.64411 1.76619 0
M  V30 4979 H 467.971 0.656841 0.370237 0
M  V30 4980 H 470.622 1.81969 0.236556 0
M  V30 4981 H 469.004 3.00241 2.58208 0
M  V30 4982 H 470.178 4.60307 0.21315 0
M  V30 4983 H 468.493 4.14922 0.350497 0
M  V30 4984 H 471.09 4.33849 3.12536 0
M  V30 4985 H 471.433 2.62905 3.22779 0
M  V30 4986 H 471.966 3.54797 1.799 0
M  V30 4987 H 468.705 6.46241 1.09783 0
M  V30 4988 H 468.225 5.45877 2.48551 0
M  V30 4989 H 469.904 6.03386 2.33527 0
M  V30 4990 N 470.036 -0.519951 1.48776 0
M  V30 4991 C 471.284 -1.2727 1.56993 0
M  V30 4992 C 471.605 -1.9339 0.25004 0
M  V30 4993 O 470.875 -1.81822 -0.729216 0
M  V30 4994 H 469.455 -0.472732 0.578389 0
M  V30 4995 H 472.117 -0.604234 1.85297 0
M  V30 4996 H 471.213 -2.04669 2.3562 0
M  V30 4997 N 471.514 -1.37532 -0.769588 0
M  V30 4998 C 472.444 -1.36172 -1.89682 0
M  V30 4999 C 473.425 -0.23001 -1.68538 0
M  V30 5000 O 474.61 -0.43069 -1.89364 0
M  V30 5001 C 471.74 -1.1701 -3.26995 0
M  V30 5002 C 470.694 -2.27216 -3.62708 0
M  V30 5003 C 470.02 -1.93174 -4.98586 0
M  V30 5004 C 471.32 -3.6941 -3.69234 0
M  V30 5005 H 473.014 -2.30499 -1.91078 0
M  V30 5006 H 470.56 -1.10953 -0.917902 0
M  V30 5007 H 472.513 -1.14688 -4.05493 0
M  V30 5008 H 471.237 -0.191395 -3.26039 0
M  V30 5009 H 469.896 -2.28697 -2.86519 0
M  V30 5010 H 469.544 -0.938281 -4.94171 0
M  V30 5011 H 469.244 -2.66973 -5.23449 0
M  V30 5012 H 470.768 -1.92443 -5.79481 0
M  V30 5013 H 472.182 -3.70047 -4.37879 0
M  V30 5014 H 470.579 -4.4228 -4.05597 0
M  V30 5015 H 471.649 -4.0288 -2.69844 0
M  V30 5016 N 472.992 0.995999 -1.22138 0
M  V30 5017 C 473.902 2.11985 -1.00496 0
M  V30 5018 C 474.918 1.7394 0.0457701 0
M  V30 5019 O 476.094 2.00868 -0.146273 0
M  V30 5020 C 473.159 3.41779 -0.582086 0
M  V30 5021 C 472.22 3.93943 -1.70608 0
M  V30 5022 C 471.453 5.17542 -1.30328 0
M  V30 5023 O 471.676 5.70114 -0.180743 0
M  V30 5024 O 470.61 5.63382 -2.11861 0
M  V30 5025 H 474.436 2.33123 -1.94647 0
M  V30 5026 H 472.021 1.10358 -1.00705 0
M  V30 5027 H 473.903 4.1989 -0.356467 0
M  V30 5028 H 472.578 3.22007 0.330592 0
M  V30 5029 H 471.485 3.17019 -1.98619 0
M  V30 5030 H 472.818 4.18141 -2.59651 0
M  V30 5031 N 474.47 1.03057 1.19235 0
M  V30 5032 C 475.698 0.747697 1.92917 0
M  V30 5033 C 476.113 -0.69372 1.75593 0
M  V30 5034 O 475.47 -1.47191 1.07894 0
M  V30 5035 C 475.521 1.09159 3.44625 0
M  V30 5036 O 475.242 2.47641 3.61394 0
M  V30 5037 C 476.743 0.831763 4.35427 0
M  V30 5038 H 473.963 0.273453 0.612751 0
M  V30 5039 H 476.507 1.37552 1.51327 0
M  V30 5040 H 474.662 0.508919 3.84043 0
M  V30 5041 H 475.076 2.60499 4.55237 0
M  V30 5042 H 476.55 1.12233 5.4047 0
M  V30 5043 H 477.027 -0.233769 4.38577 0
M  V30 5044 H 477.633 1.39725 4.01693 0
M  V30 5045 N 475.948 -1.35272 0.808662 0
M  V30 5046 C 477.196 -1.98316 0.389233 0
M  V30 5047 C 477.517 -1.64465 -1.04767 0
M  V30 5048 O 476.787 -0.928175 -1.72516 0
M  V30 5049 H 475.367 -0.733585 0.140935 0
M  V30 5050 H 478.029 -1.6515 1.03496 0
M  V30 5051 H 477.125 -3.08123 0.496631 0
M  V30 5052 N 477.426 -0.562348 -1.47226 0
M  V30 5053 C 478.703 0.0256985 -1.95583 0
M  V30 5054 C 479.083 1.48032 -1.50498 0
M  V30 5055 O 478.431 2.15973 -0.746181 0
M  V30 5056 C 478.641 -0.125129 -3.48776 0
M  V30 5057 C 479.989 0.0175728 -4.24596 0
M  V30 5058 O 481.013 -0.0529341 -3.56161 0
M  V30 5059 O 479.872 0.170145 -5.46235 0
M  V30 5060 H 476.966 0.0612565 -0.824728 0
M  V30 5061 H 479.512 -0.629233 -1.57603 0
M  V30 5062 H 478.284 -1.13715 -3.74412 0
M  V30 5063 H 477.907 0.567178 -3.93534 0
M  V30 5064 N 478.904 1.54736 -0.299062 0
M  V30 5065 C 479.814 2.27127 0.587413 0
M  V30 5066 C 480.83 1.30575 1.15005 0
M  V30 5067 O 482.006 1.63554 1.17525 0
M  V30 5068 C 479.071 2.99645 1.74395 0
M  V30 5069 C 478.132 4.11731 1.21559 0
M  V30 5070 C 477.365 4.80781 2.317 0
M  V30 5071 O 477.588 4.4918 3.51558 0
M  V30 5072 O 476.522 5.68226 1.98501 0
M  V30 5073 H 480.348 3.037 0.000250109 0
M  V30 5074 H 477.933 1.49256 -0.0655919 0
M  V30 5075 H 479.815 3.45138 2.4178 0
M  V30 5076 H 478.49 2.25969 2.31775 0
M  V30 5077 H 477.397 3.70641 0.507514 0
M  V30 5078 H 478.73 4.87379 0.687233 0
M  V30 5079 N 480.382 0.0267497 1.57577 0
M  V30 5080 C 481.798 -0.32962 1.56159 0
M  V30 5081 C 481.998 -1.73059 1.03213 0
M  V30 5082 O 481.054 -2.43233 0.677804 0
M  V30 5083 C 482.367 -0.18039 3.00158 0
M  V30 5084 C 483.915 -0.253334 3.11973 0
M  V30 5085 C 484.39 -0.132921 4.57807 0
M  V30 5086 N 485.881 -0.189979 4.6281 0
M  V30 5087 C 486.616 -0.120554 5.73273 0
M  V30 5088 N 486.112 -0.000180315 6.928 0
M  V30 5089 N 487.905 -0.174369 5.61829 0
M  V30 5090 H 480.056 0.942896 1.90324 0
M  V30 5091 H 482.319 0.3639 0.875375 0
M  V30 5092 H 482.025 0.784576 3.42837 0
M  V30 5093 H 481.899 -0.951565 3.65 0
M  V30 5094 H 484.286 -1.20876 2.69208 0
M  V30 5095 H 484.367 0.548177 2.49857 0
M  V30 5096 H 484.011 0.819073 5.01252 0
M  V30 5097 H 483.941 -0.953264 5.179 0
M  V30 5098 H 486.432 -0.283257 3.76837 0
M  V30 5099 H 486.745 0.0461666 7.72786 0
M  V30 5100 H 485.09 0.034569 6.94991 0
M  V30 5101 H 488.281 -0.266794 4.67339 0
M  V30 5102 H 488.454 -0.116802 6.47895 0
M  V30 5103 N 481.861 -1.55662 -0.24637 0
M  V30 5104 C 482.809 -1.91186 -1.3248 0
M  V30 5105 C 483.803 -0.790996 -1.49799 0
M  V30 5106 O 485.009 -0.975617 -1.51267 0
M  V30 5107 H 481.384 -0.607207 -0.443626 0
M  V30 5108 H 483.355 -2.81221 -0.997853 0
M  V30 5109 C 482.104 -2.22349 -2.67313 0
M  V30 5110 H 481.427 -3.08097 -2.54786 0
M  V30 5111 H 482.867 -2.51107 -3.41645 0
M  V30 5112 C 481.326 -1.04001 -3.20446 0
M  V30 5113 O 481.856 -0.28828 -4.00664 0
M  V30 5114 N 480.062 -0.830494 -2.7848 0
M  V30 5115 H 479.609 -1.4435 -2.13356 0
M  V30 5116 H 479.567 -0.0403258 -3.14374 0
M  V30 5117 N 483.339 0.512053 -1.4905 0
M  V30 5118 C 484.567 1.29116 -1.61669 0
M  V30 5119 C 484.982 1.86655 -0.283787 0
M  V30 5120 O 484.339 1.67293 0.729331 0
M  V30 5121 C 484.39 2.4293 -2.67707 0
M  V30 5122 O 484.111 1.87758 -3.95826 0
M  V30 5123 C 485.612 3.34476 -2.90931 0
M  V30 5124 H 482.832 0.392009 -0.544583 0
M  V30 5125 H 485.376 0.615881 -1.95006 0
M  V30 5126 H 483.531 3.06308 -2.37179 0
M  V30 5127 H 483.945 2.62393 -4.54148 0
M  V30 5128 H 485.419 4.10642 -3.68886 0
M  V30 5129 H 485.896 3.90801 -2.00427 0
M  V30 5130 H 486.502 2.76874 -3.22832 0
M  V30 5131 N 484.817 1.37938 0.762283 0
M  V30 5132 C 485.727 1.36681 1.90671 0
M  V30 5133 C 486.743 0.265078 1.71969 0
M  V30 5134 O 487.919 0.502055 1.95042 0
M  V30 5135 C 484.984 1.18211 3.25925 0
M  V30 5136 C 484.045 2.3811 3.57214 0
M  V30 5137 C 483.278 2.20512 4.86014 0
M  V30 5138 O 483.501 1.19429 5.57757 0
M  V30 5139 O 482.435 3.08911 5.16583 0
M  V30 5140 H 486.261 2.33091 1.94685 0
M  V30 5141 H 483.846 1.18767 0.906356 0
M  V30 5142 H 485.728 1.09937 4.06807 0
M  V30 5143 H 484.403 0.248807 3.22742 0
M  V30 5144 H 483.31 2.51958 2.76529 0
M  V30 5145 H 484.643 3.30041 3.65149 0
M  V30 5146 N 486.295 -0.989507 1.22664 0
M  V30 5147 C 487.242 -2.08024 0.999733 0
M  V30 5148 C 488.212 -1.65909 -0.0797047 0
M  V30 5149 O 489.397 -1.90669 0.0705715 0
M  V30 5150 C 486.537 -3.40067 0.587234 0
M  V30 5151 C 485.65 -3.95505 1.73781 0
M  V30 5152 C 484.785 -5.15722 1.27297 0
M  V30 5153 C 483.824 -5.63305 2.39488 0
M  V30 5154 N 482.961 -6.74758 1.94026 0
M  V30 5155 H 487.801 -2.26768 1.9334 0
M  V30 5156 H 485.338 -1.11171 0.963297 0
M  V30 5157 H 487.296 -4.15899 0.329227 0
M  V30 5158 H 485.926 -3.21314 -0.309426 0
M  V30 5159 H 484.978 -3.16513 2.11006 0
M  V30 5160 H 486.29 -4.26797 2.58158 0
M  V30 5161 H 485.444 -5.98854 0.972546 0
M  V30 5162 H 484.183 -4.86061 0.399445 0
M  V30 5163 H 483.188 -4.78759 2.70315 0
M  V30 5164 H 484.413 -5.94988 3.27362 0
M  V30 5165 H 482.359 -6.46874 1.09041 0
M  V30 5166 H 482.276 -7.05386 2.71968 0
M  V30 5167 H 483.544 -7.61387 1.67062 0
M  V30 5168 N 487.773 -1.03688 -1.18687 0
M  V30 5169 C 489.019 -0.739123 -1.88851 0
M  V30 5170 C 489.352 0.731042 -1.79915 0
M  V30 5171 O 488.627 1.53313 -1.19688 0
M  V30 5172 C 488.91 -1.20106 -3.3948 0
M  V30 5173 C 488.763 -2.73304 -3.57246 0
M  V30 5174 C 490.082 -0.788134 -4.32986 0
M  V30 5175 H 487.201 -0.269978 -0.68577 0
M  V30 5176 H 489.843 -1.28822 -1.3966 0
M  V30 5177 H 487.993 -0.733915 -3.81505 0
M  V30 5178 H 489.665 -3.28027 -3.24339 0
M  V30 5179 H 487.908 -3.13313 -3.00029 0
M  V30 5180 H 488.579 -3.00684 -4.62918 0
M  V30 5181 H 491.055 -1.19005 -3.98719 0
M  V30 5182 H 489.931 -1.13915 -5.36949 0
M  V30 5183 H 490.192 0.308988 -4.41019 0
M  V30 5184 N 489.251 1.34841 -0.815825 0
M  V30 5185 C 490.667 1.51543 -0.500697 0
M  V30 5186 C 490.867 1.76261 0.976444 0
M  V30 5187 O 489.923 1.8094 1.76117 0
M  V30 5188 C 491.236 2.68487 -1.35407 0
M  V30 5189 C 492.784 2.82368 -1.35046 0
M  V30 5190 C 493.259 4.02347 -2.18816 0
M  V30 5191 N 494.75 4.09542 -2.16402 0
M  V30 5192 C 495.485 5.01517 -2.77971 0
M  V30 5193 N 494.981 5.98763 -3.48503 0
M  V30 5194 N 496.774 4.94334 -2.67563 0
M  V30 5195 H 488.925 1.17055 -1.77234 0
M  V30 5196 H 491.188 0.573481 -0.754866 0
M  V30 5197 H 490.894 2.56829 -2.40274 0
M  V30 5198 H 490.768 3.63321 -1.01377 0
M  V30 5199 H 493.155 2.93471 -0.309604 0
M  V30 5200 H 493.236 1.88363 -1.73069 0
M  V30 5201 H 492.88 3.92004 -3.22948 0
M  V30 5202 H 492.81 4.95551 -1.78148 0
M  V30 5203 H 495.301 3.39932 -1.65091 0
M  V30 5204 H 495.614 6.6556 -3.92747 0
M  V30 5205 H 493.959 5.98909 -3.52609 0
M  V30 5206 H 497.15 4.1732 -2.12041 0
M  V30 5207 H 497.323 5.6582 -3.15834 0
M  V30 5208 N 490.729 0.570148 1.46925 0
M  V30 5209 C 492.006 -0.0153259 1.95594 0
M  V30 5210 C 492.386 -1.47232 1.51281 0
M  V30 5211 O 491.734 -2.15574 0.757624 0
M  V30 5212 C 491.944 0.143624 3.48704 0
M  V30 5213 C 493.292 0.00494484 4.246 0
M  V30 5214 O 494.316 0.0718214 3.56128 0
M  V30 5215 O 493.175 -0.141175 5.46318 0
M  V30 5216 H 490.269 -0.0568819 0.825041 0
M  V30 5217 H 492.815 0.637583 1.57267 0
M  V30 5218 H 491.587 1.15699 3.73804 0
M  V30 5219 H 491.21 -0.5463 3.93829 0
M  V30 5220 N 492.207 -1.54576 0.307264 0
M  V30 5221 C 493.437 -2.04378 -0.302158 0
M  V30 5222 C 493.845 -1.18381 -1.47589 0
M  V30 5223 O 493.188 -0.20352 -1.82569 0
M  V30 5224 C 493.25 -3.50133 -0.815305 0
M  V30 5225 C 492.914 -4.56401 0.233977 0
M  V30 5226 C 493.911 -5.08884 1.06456 0
M  V30 5227 C 491.596 -5.0088 0.377478 0
M  V30 5228 C 493.59 -6.04394 2.02452 0
M  V30 5229 C 491.277 -5.96208 1.34088 0
M  V30 5230 C 492.275 -6.47849 2.16288 0
M  V30 5231 O 491.963 -7.41308 3.10994 0
M  V30 5232 H 491.695 -0.672502 -0.0686839 0
M  V30 5233 H 494.249 -2.00484 0.446682 0
M  V30 5234 H 492.479 -3.51371 -1.61478 0
M  V30 5235 H 494.168 -3.83098 -1.34129 0
M  V30 5236 H 494.934 -4.75311 0.964596 0
M  V30 5237 H 490.813 -4.60309 -0.252405 0
M  V30 5238 H 494.357 -6.44626 2.66652 0
M  V30 5239 H 490.254 -6.29198 1.44154 0
M  V30 5240 H 491.022 -7.5913 3.06045 0
M  V30 5241 N 493.685 -0.035106 -1.57561 0
M  V30 5242 C 494.615 0.942993 -2.13612 0
M  V30 5243 C 495.596 1.33531 -1.05373 0
M  V30 5244 O 496.781 1.41287 -1.33235 0
M  V30 5245 C 493.911 2.22332 -2.66807 0
M  V30 5246 C 492.865 1.97156 -3.79886 0
M  V30 5247 C 492.191 3.31506 -4.19533 0
M  V30 5248 C 493.491 1.30596 -5.05709 0
M  V30 5249 H 495.185 0.476179 -2.95589 0
M  V30 5250 H 492.731 0.227602 -1.4219 0
M  V30 5251 H 494.684 2.91142 -3.04654 0
M  V30 5252 H 493.408 2.7119 -1.81999 0
M  V30 5253 H 492.067 1.30763 -3.42486 0
M  V30 5254 H 491.715 3.78134 -3.31698 0
M  V30 5255 H 491.415 3.15465 -4.95738 0
M  V30 5256 H 492.939 4.01574 -4.59968 0
M  V30 5257 H 494.353 1.89416 -5.41105 0
M  V30 5258 H 492.75 1.24934 -5.86951 0
M  V30 5259 H 493.82 0.279742 -4.84092 0
M  V30 5260 N 495.163 1.55791 0.238111 0
M  V30 5261 C 496.073 1.94196 1.31625 0
M  V30 5262 C 497.089 0.843545 1.52185 0
M  V30 5263 O 498.265 1.1457 1.65637 0
M  V30 5264 C 495.33 2.2365 2.64918 0
M  V30 5265 C 494.391 3.46971 2.52804 0
M  V30 5266 C 493.624 3.7501 3.79741 0
M  V30 5267 O 493.847 3.04982 4.82019 0
M  V30 5268 O 492.781 4.68525 3.77846 0
M  V30 5269 H 496.607 2.86044 1.02043 0
M  V30 5270 H 494.192 1.42786 0.439603 0
M  V30 5271 H 496.074 2.43863 3.4367 0
M  V30 5272 H 494.749 1.34979 2.94215 0
M  V30 5273 H 493.656 3.32055 1.72309 0
M  V30 5274 H 494.989 4.35971 2.28451 0
M  V30 5275 N 496.642 -0.504142 1.49319 0
M  V30 5276 C 497.867 -1.28729 1.62615 0
M  V30 5277 C 498.292 -1.85752 0.296309 0
M  V30 5278 O 497.65 -1.65704 -0.735649 0
M  V30 5279 C 497.698 -2.39561 2.69524 0
M  V30 5280 O 496.802 -3.43324 2.28478 0
M  V30 5281 H 496.143 -0.380172 0.544395 0
M  V30 5282 H 498.673 -0.603872 1.95485 0
M  V30 5283 H 498.683 -2.8537 2.91595 0
M  V30 5284 H 497.358 -1.97423 3.66056 0
M  V30 5285 H 495.935 -3.03455 2.16725 0
M  V30 5286 N 498.12 -1.38341 -0.754957 0
M  V30 5287 C 499.068 -1.35573 -1.89005 0
M  V30 5288 C 500.062 -0.241824 -1.67665 0
M  V30 5289 O 501.268 -0.410785 -1.7525 0
M  V30 5290 H 497.643 -0.422898 -0.621821 0
M  V30 5291 H 499.614 -2.31359 -1.88455 0
M  V30 5292 C 498.363 -1.19631 -3.26471 0
M  V30 5293 H 497.686 -2.04605 -3.43477 0
M  V30 5294 H 499.126 -1.21748 -4.06144 0
M  V30 5295 C 497.585 0.0968705 -3.36761 0
M  V30 5296 O 498.115 1.07439 -3.87066 0
M  V30 5297 N 496.321 0.153242 -2.90196 0
M  V30 5298 H 495.868 -0.642908 -2.49448 0
M  V30 5299 H 495.826 1.01807 -2.9746 0
M  V30 5300 N 499.598 0.982988 -1.23187 0
M  V30 5301 C 500.846 1.72052 -1.06031 0
M  V30 5302 C 501.167 1.90769 0.404019 0
M  V30 5303 O 500.437 1.47446 1.28982 0
M  V30 5304 H 499.017 0.637499 -0.389363 0
M  V30 5305 H 501.679 1.18338 -1.54862 0
M  V30 5306 H 500.775 2.7111 -1.54615 0
M  V30 5307 N 501.076 1.04316 1.18135 0
M  V30 5308 C 502.322 0.749128 1.88457 0
M  V30 5309 C 502.655 -0.72149 1.803 0
M  V30 5310 O 501.93 -1.52676 1.205 0
M  V30 5311 C 502.213 1.21905 3.38838 0
M  V30 5312 C 502.066 2.75195 3.55792 0
M  V30 5313 C 503.385 0.811085 4.32561 0
M  V30 5314 H 500.504 0.273611 0.684329 0
M  V30 5315 H 503.146 1.29561 1.38975 0
M  V30 5316 H 501.296 0.754137 3.8111 0
M  V30 5317 H 502.968 3.29743 3.22595 0
M  V30 5318 H 501.211 3.14899 2.98364 0
M  V30 5319 H 501.882 3.03135 4.61317 0
M  V30 5320 H 504.358 1.21118 3.98082 0
M  V30 5321 H 503.234 1.16761 5.36338 0
M  V30 5322 H 503.495 -0.285596 4.41177 0
M  V30 5323 N 502.554 -1.34406 0.822964 0
M  V30 5324 C 503.801 -1.98284 0.411057 0
M  V30 5325 C 504.129 -1.65245 -1.02588 0
M  V30 5326 O 503.384 -0.91619 -1.72929 0
M  V30 5327 C 503.683 -3.52981 0.560268 0
M  V30 5328 C 503.349 -4.05931 1.96293 0
M  V30 5329 C 502.011 -4.20103 2.34664 0
M  V30 5330 C 504.363 -4.34412 2.87985 0
M  V30 5331 C 501.691 -4.60082 3.64062 0
M  V30 5332 C 504.043 -4.75838 4.16847 0
M  V30 5333 C 502.707 -4.88215 4.55195 0
M  V30 5334 H 501.977 -0.725573 0.150416 0
M  V30 5335 H 504.624 -1.60349 1.04692 0
M  V30 5336 H 502.929 -3.91477 -0.158982 0
M  V30 5337 H 504.626 -4.00385 0.222087 0
M  V30 5338 H 501.216 -3.95363 1.65487 0
M  V30 5339 H 505.4 -4.23001 2.59584 0
M  V30 5340 H 500.656 -4.67856 3.93599 0
M  V30 5341 H 504.83 -4.96834 4.87984 0
M  V30 5342 H 502.457 -5.18952 5.55512 0
M  V30 5343 N 504.032 -0.577932 -1.46621 0
M  V30 5344 C 505.28 -0.061566 -2.02006 0
M  V30 5345 C 505.601 1.30117 -1.4524 0
M  V30 5346 O 504.871 1.85313 -0.63529 0
M  V30 5347 H 503.451 -0.0197692 -0.746738 0
M  V30 5348 H 506.113 -0.752631 -1.79782 0
M  V30 5349 H 505.209 0.0110238 -3.12098 0
M  V30 5350 N 505.51 1.54411 -0.315457 0
M  V30 5351 C 506.735 2.05299 0.294496 0
M  V30 5352 C 507.16 1.19052 1.4563 0
M  V30 5353 O 506.518 0.197804 1.80218 0
M  V30 5354 C 506.566 3.5345 0.714549 0
M  V30 5355 O 505.67 3.70175 1.81781 0
M  V30 5356 H 505.011 0.661743 0.0547019 0
M  V30 5357 H 507.541 1.99327 -0.461508 0
M  V30 5358 H 507.551 3.9557 0.999426 0
M  V30 5359 H 506.226 4.1568 -0.135244 0
M  V30 5360 H 504.803 3.3996 1.53236 0
M  V30 5361 N 506.988 0.0434614 1.5754 0
M  V30 5362 C 508.234 -0.632971 1.92669 0
M  V30 5363 C 508.567 -1.70947 0.921446 0
M  V30 5364 O 507.842 -1.94426 -0.0537202 0
M  V30 5365 C 508.125 -1.23619 3.38216 0
M  V30 5366 C 507.978 -0.168274 4.49485 0
M  V30 5367 C 509.297 -2.15008 3.84005 0
M  V30 5368 H 506.416 -0.228629 0.700641 0
M  V30 5369 H 509.058 0.103651 1.89717 0
M  V30 5370 H 507.208 -1.864 3.40863 0
M  V30 5371 H 508.88 0.463196 4.58969 0
M  V30 5372 H 507.123 0.504581 4.30855 0
M  V30 5373 H 507.794 -0.630218 5.48391 0
M  V30 5374 H 510.27 -1.62198 3.83185 0
M  V30 5375 H 509.146 -2.54161 4.86511 0
M  V30 5376 H 509.407 -3.04707 3.20322 0
M  V30 5377 N 508.466 -1.55915 -0.229846 0
M  V30 5378 C 509.713 -1.78542 -0.955452 0
M  V30 5379 C 510.041 -0.610785 -1.84661 0
M  V30 5380 O 509.296 0.405213 -1.91459 0
M  V30 5381 C 509.595 -3.06845 -1.8325 0
M  V30 5382 C 509.261 -4.37395 -1.09528 0
M  V30 5383 C 507.923 -4.72868 -0.891598 0
M  V30 5384 C 510.275 -5.18029 -0.574046 0
M  V30 5385 C 507.603 -5.86496 -0.154655 0
M  V30 5386 C 509.955 -6.32423 0.149513 0
M  V30 5387 C 508.619 -6.66504 0.364519 0
M  V30 5388 H 507.889 -0.653333 -0.349625 0
M  V30 5389 H 510.536 -1.90183 -0.224235 0
M  V30 5390 H 508.841 -2.90291 -2.63132 0
M  V30 5391 H 510.538 -3.21553 -2.39592 0
M  V30 5392 H 507.128 -4.09538 -1.26399 0
M  V30 5393 H 511.312 -4.91066 -0.718899 0
M  V30 5394 H 506.568 -6.11396 0.0222356 0
M  V30 5395 H 510.742 -6.94137 0.560947 0
M  V30 5396 H 508.369 -7.54397 0.937495 0
M  V30 5397 N 509.944 0.496216 -1.49584 0
M  V30 5398 C 511.184 1.26015 -1.60933 0
M  V30 5399 C 511.548 1.89772 -0.291646 0
M  V30 5400 O 512.749 2.67334 -0.280357 0
M  V30 5401 C 511.02 2.29506 -2.73974 0
M  V30 5402 S 512.579 3.15175 -3.05303 0
M  V30 5403 H 509.397 0.428194 -0.567601 0
M  V30 5404 H 511.999 0.561484 -1.87263 0
M  V30 5405 H 510.703 1.81205 -3.68229 0
M  V30 5406 H 510.234 3.04036 -2.49651 0
M  V30 5407 H 512.249 4.30244 -2.47193 0
M  V30 5408 N 511.423 1.38739 0.74761 0
M  V30 5409 C 512.839 1.20067 1.05148 0
M  V30 5410 C 513.039 0.0534835 2.01429 0
M  V30 5411 O 512.095 -0.59886 2.45296 0
M  V30 5412 C 513.408 2.52957 1.62584 0
M  V30 5413 C 514.956 2.59692 1.74726 0
M  V30 5414 C 515.431 3.92772 2.35573 0
M  V30 5415 N 516.922 3.94343 2.42997 0
M  V30 5416 C 517.657 4.9408 2.90985 0
M  V30 5417 N 517.153 6.04214 3.38965 0
M  V30 5418 N 518.946 4.81466 2.9008 0
M  V30 5419 H 511.097 2.12121 0.108808 0
M  V30 5420 H 513.36 0.941491 0.110899 0
M  V30 5421 H 513.066 3.37389 0.993051 0
M  V30 5422 H 512.94 2.71779 2.61565 0
M  V30 5423 H 515.327 1.75651 2.3713 0
M  V30 5424 H 515.408 2.44731 0.744326 0
M  V30 5425 H 515.052 4.77238 1.738 0
M  V30 5426 H 514.982 4.05046 3.36519 0
M  V30 5427 H 517.473 3.14799 2.0907 0
M  V30 5428 H 517.786 6.76241 3.74056 0
M  V30 5429 H 516.131 6.07825 3.37007 0
M  V30 5430 H 519.322 3.94535 2.51912 0
M  V30 5431 H 519.495 5.59344 3.27166 0
M  V30 5432 N 512.901 -0.976442 1.23707 0
M  V30 5433 C 514.312 -1.53284 1.06587 0
M  V30 5434 C 514.663 -1.92765 -0.365526 0
M  V30 5435 O 513.788 -1.7645 -1.25277 0
M  V30 5436 C 514.383 -2.78548 1.92864 0
M  V30 5437 C 512.942 -3.30574 1.79994 0
M  V30 5438 C 512.089 -2.03538 1.88328 0
M  V30 5439 H 515.04 -0.795692 1.37311 0
M  V30 5440 H 515.061 -3.5155 1.45577 0
M  V30 5441 H 514.573 -2.49782 2.97037 0
M  V30 5442 H 512.674 -3.64211 0.786202 0
M  V30 5443 H 512.787 -4.00065 2.636 0
M  V30 5444 H 511.151 -2.17853 1.31954 0
M  V30 5445 H 511.934 -1.77149 2.94063 0
M  V30 5446 N 514.379 -1.04941 -1.1758 0
M  V30 5447 C 515.342 -0.652456 -2.19717 0
M  V30 5448 C 516.342 0.294745 -1.58076 0
M  V30 5449 O 517.532 0.0789579 -1.74021 0
M  V30 5450 C 514.664 0.0420712 -3.40874 0
M  V30 5451 H 515.857 -1.55642 -2.5635 0
M  V30 5452 H 513.41 -0.842995 -1.31618 0
M  V30 5453 H 514.145 0.95943 -3.09783 0
M  V30 5454 H 513.93 -0.638844 -3.86861 0
M  V30 5455 H 515.42 0.306 -4.16477 0
M  V30 5456 N 515.857 1.33968 -0.830081 0
M  V30 5457 C 517.085 2.0228 -0.434773 0
M  V30 5458 C 517.5 1.62487 0.961419 0
M  V30 5459 O 516.857 0.833849 1.62337 0
M  V30 5460 C 516.908 3.5751 -0.535625 0
M  V30 5461 O 516.629 3.95864 -1.87679 0
M  V30 5462 C 518.13 4.43091 -0.136137 0
M  V30 5463 H 515.35 0.648151 -0.173613 0
M  V30 5464 H 517.894 1.71089 -1.12022 0
M  V30 5465 H 516.049 3.87266 0.101817 0
M  V30 5466 H 516.463 4.9056 -1.85609 0
M  V30 5467 H 517.937 5.51398 -0.257772 0
M  V30 5468 H 518.414 4.29433 0.921076 0
M  V30 5469 H 519.02 4.18677 -0.747662 0
M  V30 5470 N 517.335 0.585699 1.46312 0
M  V30 5471 C 518.56 0.0762461 2.0726 0
M  V30 5472 C 518.985 -1.22071 1.43109 0
M  V30 5473 O 518.343 -1.73804 0.515942 0
M  V30 5474 C 518.391 -0.0729404 3.60526 0
M  V30 5475 O 517.495 -1.1287 3.96654 0
M  V30 5476 H 516.836 0.0641558 0.660893 0
M  V30 5477 H 519.366 0.809492 1.87905 0
M  V30 5478 H 519.376 -0.278158 4.07051 0
M  V30 5479 H 518.051 0.874188 4.06609 0
M  V30 5480 H 516.628 -0.901703 3.61834 0
M  V30 5481 N 518.813 -1.54241 0.323641 0
M  V30 5482 C 519.76 -2.24339 -0.542277 0
M  V30 5483 C 520.73 -1.23421 -1.11159 0
M  V30 5484 O 521.915 -1.52104 -1.15192 0
M  V30 5485 C 519.055 -3.00479 -1.69725 0
M  V30 5486 C 518.168 -4.16214 -1.15716 0
M  V30 5487 C 517.303 -4.79884 -2.27783 0
M  V30 5488 C 516.342 -5.87722 -1.71023 0
M  V30 5489 N 515.479 -6.45254 -2.76752 0
M  V30 5490 H 520.319 -2.97935 0.0620613 0
M  V30 5491 H 517.856 -1.47039 0.0423993 0
M  V30 5492 H 519.814 -3.42869 -2.3769 0
M  V30 5493 H 518.444 -2.29217 -2.27288 0
M  V30 5494 H 517.496 -3.78605 -0.369063 0
M  V30 5495 H 518.808 -4.93838 -0.701832 0
M  V30 5496 H 517.962 -5.25243 -3.03651 0
M  V30 5497 H 516.701 -4.01641 -2.76652 0
M  V30 5498 H 515.706 -5.41765 -0.936518 0
M  V30 5499 H 516.931 -6.67863 -1.2303 0
M  V30 5500 H 514.877 -5.69884 -3.24912 0
M  V30 5501 H 514.794 -7.18292 -2.35782 0
M  V30 5502 H 516.062 -6.95269 -3.5245 0
M  V30 5503 N 520.291 -0.0518155 -1.57515 0
M  V30 5504 C 521.239 0.940195 -2.12751 0
M  V30 5505 C 522.233 1.3218 -1.05948 0
M  V30 5506 O 523.439 1.30138 -1.24355 0
M  V30 5507 H 519.814 0.321066 -0.680015 0
M  V30 5508 H 521.785 0.449217 -2.94999 0
M  V30 5509 C 520.534 2.2055 -2.68799 0
M  V30 5510 H 519.857 1.92066 -3.50643 0
M  V30 5511 H 521.297 2.88119 -3.11068 0
M  V30 5512 C 519.756 2.95061 -1.62605 0
M  V30 5513 O 520.286 3.88025 -1.03921 0
M  V30 5514 N 518.492 2.57804 -1.34111 0
M  V30 5515 H 518.039 1.82281 -1.8202 0
M  V30 5516 H 517.997 3.07964 -0.632872 0
M  V30 5517 N 521.769 1.56035 0.221574 0
M  V30 5518 C 522.716 1.92413 1.27459 0
M  V30 5519 C 523.686 0.781323 1.46576 0
M  V30 5520 O 524.871 1.03721 1.60145 0
M  V30 5521 C 522.011 2.24617 2.61995 0
M  V30 5522 C 521.124 3.51831 2.50677 0
M  V30 5523 C 520.259 3.73482 3.77736 0
M  V30 5524 C 519.298 4.94211 3.6114 0
M  V30 5525 N 518.435 5.12252 4.80148 0
M  V30 5526 H 523.275 2.82203 0.957355 0
M  V30 5527 H 520.812 1.39676 0.461415 0
M  V30 5528 H 522.77 2.41298 3.40339 0
M  V30 5529 H 521.4 1.38 2.91815 0
M  V30 5530 H 520.452 3.43343 1.63767 0
M  V30 5531 H 521.764 4.40328 2.34334 0
M  V30 5532 H 520.918 3.9026 4.64523 0
M  V30 5533 H 519.657 2.83266 3.97003 0
M  V30 5534 H 518.662 4.77384 2.72736 0
M  V30 5535 H 519.887 5.85912 3.43343 0
M  V30 5536 H 517.833 4.24978 4.99729 0
M  V30 5537 H 517.75 5.94881 4.66532 0
M  V30 5538 H 519.018 5.33465 5.68362 0
M  V30 5539 N 523.247 -0.488276 1.49845 0
M  V30 5540 C 524.195 -1.60917 1.67954 0
M  V30 5541 C 525.189 -1.6038 0.54539 0
M  V30 5542 O 526.395 -1.64736 0.7254 0
M  V30 5543 H 522.77 -0.533658 0.529824 0
M  V30 5544 H 524.741 -1.428 2.62013 0
M  V30 5545 C 523.49 -2.98975 1.77509 0
M  V30 5546 H 522.813 -3.00099 2.6416 0
M  V30 5547 H 524.253 -3.76906 1.9421 0
M  V30 5548 C 522.712 -3.3282 0.522745 0
M  V30 5549 O 523.242 -4.00208 -0.345866 0
M  V30 5550 N 521.448 -2.8808 0.381882 0
M  V30 5551 H 520.995 -2.33415 1.08974 0
M  V30 5552 H 520.953 -3.11091 -0.454929 0
M  V30 5553 N 524.725 -1.39134 -0.740242 0
M  V30 5554 C 525.974 -1.35384 -1.49512 0
M  V30 5555 C 526.287 0.04919 -1.95538 0
M  V30 5556 O 527.493 0.209257 -2.70692 0
M  V30 5557 C 525.949 -2.37812 -2.70136 0
M  V30 5558 C 525.557 -3.83804 -2.31081 0
M  V30 5559 C 527.301 -2.4313 -3.47977 0
M  V30 5560 C 525.208 -4.77886 -3.48395 0
M  V30 5561 H 524.138 -0.503297 -0.561434 0
M  V30 5562 H 526.789 -1.64754 -0.807974 0
M  V30 5563 H 525.171 -2.01505 -3.40899 0
M  V30 5564 H 526.345 -4.29123 -1.67898 0
M  V30 5565 H 524.66 -3.81732 -1.66343 0
M  V30 5566 H 527.257 -3.10614 -4.35228 0
M  V30 5567 H 527.6 -1.45423 -3.90074 0
M  V30 5568 H 528.133 -2.78304 -2.84239 0
M  V30 5569 H 524.872 -5.76836 -3.11353 0
M  V30 5570 H 524.392 -4.3725 -4.10576 0
M  V30 5571 H 526.071 -4.96538 -4.148 0
M  V30 5572 N 526.204 0.969867 -1.24223 0
M  V30 5573 C 527.453 1.70687 -1.07466 0
M  V30 5574 C 527.766 1.91736 0.386861 0
M  V30 5575 O 528.972 2.62986 0.674581 0
M  V30 5576 C 527.428 3.07217 -1.87472 0
M  V30 5577 C 527.036 2.94018 -3.3802 0
M  V30 5578 C 528.78 3.84804 -1.79237 0
M  V30 5579 C 526.687 4.25844 -4.10379 0
M  V30 5580 H 525.617 0.640067 -0.398536 0
M  V30 5581 H 528.268 1.08092 -1.48285 0
M  V30 5582 H 526.65 3.70628 -1.39466 0
M  V30 5583 H 527.824 2.39632 -3.9359 0
M  V30 5584 H 526.139 2.29898 -3.47183 0
M  V30 5585 H 528.736 4.82417 -2.30603 0
M  V30 5586 H 529.079 4.09356 -0.757197 0
M  V30 5587 H 529.612 3.28115 -2.24912 0
M  V30 5588 H 526.351 4.06486 -5.14246 0
M  V30 5589 H 525.871 4.80054 -3.59594 0
M  V30 5590 H 527.55 4.94475 -4.17257 0
M  V30 5591 N 527.682 1.05563 1.17022 0
M  V30 5592 C 529.098 0.777684 1.39371 0
M  V30 5593 C 529.298 -0.626269 1.91521 0
M  V30 5594 O 528.354 -1.38806 2.10924 0
M  V30 5595 C 529.667 1.83642 2.3811 0
M  V30 5596 C 531.215 1.85907 2.51809 0
M  V30 5597 C 531.69 2.90813 3.53824 0
M  V30 5598 N 533.181 2.898 3.61345 0
M  V30 5599 C 533.916 3.6762 4.40049 0
M  V30 5600 N 533.412 4.55237 5.22237 0
M  V30 5601 N 535.205 3.56044 4.34959 0
M  V30 5602 H 527.356 1.9614 0.815047 0
M  V30 5603 H 529.619 0.849527 0.420722 0
M  V30 5604 H 529.325 2.84425 2.06871 0
M  V30 5605 H 529.199 1.6812 3.37662 0
M  V30 5606 H 531.586 0.857865 2.82356 0
M  V30 5607 H 531.667 2.05506 1.52318 0
M  V30 5608 H 531.311 3.91122 3.24015 0
M  V30 5609 H 531.241 2.68465 4.53028 0
M  V30 5610 H 533.732 2.26274 3.02669 0
M  V30 5611 H 534.045 5.11291 5.79484 0
M  V30 5612 H 532.39 4.59296 5.21605 0
M  V30 5613 H 535.581 2.86986 3.69806 0
M  V30 5614 H 535.754 4.16938 4.96051 0
M  V30 5615 N 529.16 -1.33526 0.837174 0
M  V30 5616 C 530.09 -2.31764 0.284206 0
M  V30 5617 C 531.071 -1.58896 -0.607142 0
M  V30 5618 O 532.256 -1.86798 -0.531047 0
M  V30 5619 C 529.386 -3.43029 -0.542962 0
M  V30 5620 C 528.34 -4.27255 0.252451 0
M  V30 5621 C 527.666 -5.3012 -0.69836 0
M  V30 5622 C 528.966 -5.01229 1.46858 0
M  V30 5623 H 530.66 -2.78262 1.10502 0
M  V30 5624 H 528.206 -1.3378 0.532812 0
M  V30 5625 H 530.159 -4.1078 -0.940096 0
M  V30 5626 H 528.883 -2.95216 -1.39697 0
M  V30 5627 H 527.542 -3.61127 0.631124 0
M  V30 5628 H 527.19 -4.78564 -1.54872 0
M  V30 5629 H 526.89 -5.87353 -0.170274 0
M  V30 5630 H 528.414 -6.00737 -1.09305 0
M  V30 5631 H 529.828 -5.61756 1.14469 0
M  V30 5632 H 528.225 -5.68104 1.93333 0
M  V30 5633 H 529.295 -4.301 2.23924 0
M  V30 5634 N 530.638 -0.59345 -1.46 0
M  V30 5635 C 531.863 -0.0872365 -2.07216 0
M  V30 5636 C 532.288 1.2131 -1.43755 0
M  V30 5637 O 531.646 1.73528 -0.525152 0
M  V30 5638 C 531.694 0.0538197 -3.6056 0
M  V30 5639 O 530.798 1.10765 -3.97247 0
M  V30 5640 H 530.139 -0.0676598 -0.660544 0
M  V30 5641 H 532.669 -0.819445 -1.87473 0
M  V30 5642 H 532.679 0.256567 -4.07193 0
M  V30 5643 H 531.354 -0.895739 -4.0614 0
M  V30 5644 H 529.931 0.882501 -3.62307 0
M  V30 5645 N 532.116 1.54067 -0.331816 0
M  V30 5646 C 533.046 2.27569 0.522932 0
M  V30 5647 C 534.027 1.28679 1.11247 0
M  V30 5648 O 535.212 1.57504 1.13605 0
M  V30 5649 C 532.342 3.0397 1.67987 0
M  V30 5650 C 531.296 4.10267 1.21924 0
M  V30 5651 C 530.622 4.74555 2.46377 0
M  V30 5652 C 531.922 5.21268 0.32815 0
M  V30 5653 H 533.616 2.99264 -0.0901977 0
M  V30 5654 H 531.162 1.4393 -0.044821 0
M  V30 5655 H 533.115 3.54123 2.28418 0
M  V30 5656 H 531.839 2.29906 2.31971 0
M  V30 5657 H 530.498 3.61009 0.637809 0
M  V30 5658 H 530.146 3.97098 3.08743 0
M  V30 5659 H 529.846 5.46363 2.16243 0
M  V30 5660 H 531.37 5.27487 3.07555 0
M  V30 5661 H 532.784 5.67128 0.838978 0
M  V30 5662 H 531.181 5.99982 0.119228 0
M  V30 5663 H 532.251 4.80673 -0.638839 0
M  V30 5664 N 533.594 0.0601682 1.57485 0
M  V30 5665 C 534.542 -0.928899 2.13247 0
M  V30 5666 C 535.536 -1.31616 1.06647 0
M  V30 5667 O 536.742 -1.29476 1.25043 0
M  V30 5668 H 533.117 -0.317455 0.681708 0
M  V30 5669 H 535.088 -0.433566 2.95233 0
M  V30 5670 C 533.837 -2.19121 2.69965 0
M  V30 5671 H 533.16 -1.90204 3.51657 0
M  V30 5672 H 534.6 -2.86465 3.12592 0
M  V30 5673 C 533.059 -2.94195 1.64168 0
M  V30 5674 O 533.589 -3.87468 1.05978 0
M  V30 5675 N 531.795 -2.57089 1.35476 0
M  V30 5676 H 531.342 -1.81314 1.82984 0
M  V30 5677 H 531.3 -3.07624 0.649196 0
M  V30 5678 N 535.072 -1.5615 -0.213296 0
M  V30 5679 C 536.297 -1.83986 -0.957282 0
M  V30 5680 C 536.722 -0.641526 -1.76822 0
M  V30 5681 O 536.08 0.409722 -1.7661 0
M  V30 5682 C 536.128 -3.09889 -1.84393 0
M  V30 5683 O 535.232 -2.89163 -2.94038 0
M  V30 5684 H 534.573 -0.606357 -0.270605 0
M  V30 5685 H 537.103 -2.03369 -0.224111 0
M  V30 5686 H 537.113 -3.40209 -2.25215 0
M  V30 5687 H 535.788 -3.96735 -1.24795 0
M  V30 5688 H 534.365 -2.70097 -2.57103 0
M  V30 5689 N 536.55 0.480323 -1.50102 0
M  V30 5690 C 537.827 1.24159 -1.51142 0
M  V30 5691 C 538.207 2.09605 -0.250818 0
M  V30 5692 O 537.555 2.15274 0.766118 0
M  V30 5693 C 537.765 2.08057 -2.80202 0
M  V30 5694 C 539.113 2.66556 -3.30504 0
M  V30 5695 O 540.137 2.18308 -2.81461 0
M  V30 5696 O 538.996 3.54442 -4.15973 0
M  V30 5697 H 536.09 0.562928 -0.605839 0
M  V30 5698 H 538.636 0.492899 -1.62384 0
M  V30 5699 H 537.408 1.45032 -3.6343 0
M  V30 5700 H 537.031 2.90079 -2.71919 0
M  V30 5701 N 538.028 1.39524 0.732853 0
M  V30 5702 C 539.274 1.37068 1.49467 0
M  V30 5703 C 539.607 -0.0327166 1.94172 0
M  V30 5704 O 538.882 -0.998071 1.66939 0
M  V30 5705 C 539.165 2.34494 2.73285 0
M  V30 5706 C 539.018 3.83784 2.34585 0
M  V30 5707 C 540.337 2.29717 3.75391 0
M  V30 5708 H 537.456 0.499206 0.542183 0
M  V30 5709 H 540.098 1.70532 0.837783 0
M  V30 5710 H 538.248 2.06087 3.29333 0
M  V30 5711 H 539.92 4.22949 1.84151 0
M  V30 5712 H 538.163 4.00455 1.66787 0
M  V30 5713 H 538.834 4.47444 3.23262 0
M  V30 5714 H 541.31 2.54839 3.28932 0
M  V30 5715 H 540.186 2.99962 4.59689 0
M  V30 5716 H 540.447 1.30291 4.22465 0
M  V30 5717 N 539.506 -0.963266 1.24736 0
M  V30 5718 C 540.454 -2.07985 1.04139 0
M  V30 5719 C 541.448 -1.69381 -0.0250556 0
M  V30 5720 O 542.654 -1.79531 0.129863 0
M  V30 5721 H 539.029 -0.680627 0.319768 0
M  V30 5722 H 541 -2.22517 1.98818 0
M  V30 5723 C 539.749 -3.4123 0.667615 0
M  V30 5724 H 539.072 -3.71397 1.48 0
M  V30 5725 H 540.512 -4.20244 0.563136 0
M  V30 5726 C 538.971 -3.3104 -0.625647 0
M  V30 5727 O 539.501 -3.65334 -1.67016 0
M  V30 5728 N 537.707 -2.84168 -0.608033 0
M  V30 5729 H 537.254 -2.56458 0.242323 0
M  V30 5730 H 537.212 -2.77732 -1.47352 0
M  V30 5731 N 540.985 -1.06182 -1.16461 0
M  V30 5732 C 542.262 -0.691364 -1.82974 0
M  V30 5733 C 542.642 0.827377 -1.9421 0
M  V30 5734 O 541.99 1.73723 -1.48434 0
M  V30 5735 C 542.2 -1.39199 -3.20038 0
M  V30 5736 C 543.548 -1.53647 -3.95825 0
M  V30 5737 O 544.572 -1.35181 -3.29552 0
M  V30 5738 O 543.431 -1.83932 -5.14618 0
M  V30 5739 H 540.525 -0.244605 -0.789998 0
M  V30 5740 H 543.071 -1.16203 -1.23673 0
M  V30 5741 H 541.843 -2.42766 -3.06888 0
M  V30 5742 H 541.466 -0.911335 -3.87015 0
M  V30 5743 N 542.463 1.3308 -0.844243 0
M  V30 5744 C 543.373 2.32876 -0.283922 0
M  V30 5745 C 544.389 1.63589 0.592846 0
M  V30 5746 O 545.565 1.95205 0.495693 0
M  V30 5747 C 542.63 3.42667 0.527283 0
M  V30 5748 C 541.691 4.27664 -0.374394 0
M  V30 5749 C 540.924 5.32212 0.39819 0
M  V30 5750 O 541.147 5.46635 1.62932 0
M  V30 5751 O 540.081 6.01458 -0.2306 0
M  V30 5752 H 543.907 2.82671 -1.11045 0
M  V30 5753 H 541.492 1.36518 -0.606903 0
M  V30 5754 H 543.374 4.09652 0.988078 0
M  V30 5755 H 542.049 2.95079 1.33078 0
M  V30 5756 H 540.956 3.63526 -0.883144 0
M  V30 5757 H 542.289 4.78749 -1.1428 0
M  V30 5758 N 543.941 0.601185 1.45683 0
M  V30 5759 C 544.873 -0.159446 2.28645 0
M  V30 5760 C 545.886 -0.837882 1.39583 0
M  V30 5761 O 547.075 -0.704344 1.64016 0
M  V30 5762 C 544.175 -1.24641 3.15147 0
M  V30 5763 C 543.348 -0.656334 4.32448 0
M  V30 5764 C 542.407 -1.63337 5.00208 0
M  V30 5765 O 541.433 -1.16217 5.57209 0
M  V30 5766 N 542.635 -2.96773 4.98905 0
M  V30 5767 H 545.4 0.5524 2.94565 0
M  V30 5768 H 542.961 0.440223 1.558 0
M  V30 5769 H 544.953 -1.8997 3.57342 0
M  V30 5770 H 543.523 -1.86087 2.51178 0
M  V30 5771 H 542.743 0.174879 3.93812 0
M  V30 5772 H 544.031 -0.242211 5.08223 0
M  V30 5773 H 543.429 -3.37662 4.53873 0
M  V30 5774 H 541.986 -3.57541 5.44984 0
M  V30 5775 N 545.419 -1.53889 0.339982 0
M  V30 5776 C 546.668 -2.00035 -0.258604 0
M  V30 5777 C 546.981 -1.23179 -1.51942 0
M  V30 5778 O 548.187 -1.59784 -2.19503 0
M  V30 5779 C 546.643 -3.56249 -0.511359 0
M  V30 5780 C 546.251 -4.41957 0.733349 0
M  V30 5781 C 547.995 -4.1082 -1.069 0
M  V30 5782 C 545.902 -5.89673 0.451591 0
M  V30 5783 H 544.832 -0.747284 -0.10041 0
M  V30 5784 H 547.483 -1.77776 0.454758 0
M  V30 5785 H 545.865 -3.7456 -1.28533 0
M  V30 5786 H 547.039 -4.35421 1.50815 0
M  V30 5787 H 545.354 -3.9836 1.21237 0
M  V30 5788 H 547.951 -5.18789 -1.2947 0
M  V30 5789 H 548.294 -3.63817 -2.02343 0
M  V30 5790 H 548.827 -3.96205 -0.355817 0
M  V30 5791 H 545.566 -6.40903 1.37565 0
M  V30 5792 H 545.086 -5.99122 -0.285193 0
M  V30 5793 H 546.765 -6.46965 0.0675067 0
M  V30 5794 N 546.897 -0.0685191 -1.57451 0
M  V30 5795 C 547.86 0.885173 -2.11417 0
M  V30 5796 C 548.86 1.22853 -1.03748 0
M  V30 5797 O 550.05 1.16235 -1.2975 0
M  V30 5798 C 547.182 2.18964 -2.61281 0
M  V30 5799 H 548.375 0.417034 -2.96986 0
M  V30 5800 H 545.928 0.18014 -1.55258 0
M  V30 5801 H 546.663 2.70321 -1.79156 0
M  V30 5802 H 546.448 1.9534 -3.39977 0
M  V30 5803 H 547.938 2.87242 -3.0312 0
M  V30 5804 N 548.375 1.56261 0.205012 0
M  V30 5805 C 549.322 1.93754 1.25411 0
M  V30 5806 C 550.292 0.796826 1.45739 0
M  V30 5807 O 551.477 1.05414 1.59036 0
M  V30 5808 C 548.617 2.27383 2.59598 0
M  V30 5809 C 547.73 3.5447 2.46931 0
M  V30 5810 C 546.865 3.77468 3.73753 0
M  V30 5811 C 545.904 4.98014 3.55877 0
M  V30 5812 N 545.041 5.17316 4.74688 0
M  V30 5813 H 549.881 2.83203 0.92737 0
M  V30 5814 H 547.418 1.40158 0.446574 0
M  V30 5815 H 549.376 2.44895 3.37761 0
M  V30 5816 H 548.006 1.41088 2.90335 0
M  V30 5817 H 547.058 3.45061 1.60116 0
M  V30 5818 H 548.37 4.42789 2.29651 0
M  V30 5819 H 547.524 3.95165 4.60358 0
M  V30 5820 H 546.263 2.87461 3.93976 0
M  V30 5821 H 545.268 4.80249 2.67657 0
M  V30 5822 H 546.493 5.8952 3.37109 0
M  V30 5823 H 544.439 4.30255 4.95194 0
M  V30 5824 H 544.356 5.99796 4.60197 0
M  V30 5825 H 545.624 5.39463 5.62672 0
M  V30 5826 N 549.853 -0.472356 1.50355 0
M  V30 5827 C 551.102 -1.2213 1.60522 0
M  V30 5828 C 551.415 -1.9312 0.310466 0
M  V30 5829 O 552.621 -2.69936 0.291029 0
M  V30 5830 C 551.077 -2.21909 2.83345 0
M  V30 5831 C 550.685 -1.56727 4.19691 0
M  V30 5832 C 552.429 -2.97453 3.02856 0
M  V30 5833 C 550.336 -2.54785 5.33703 0
M  V30 5834 H 549.266 -0.459543 0.597776 0
M  V30 5835 H 551.917 -0.491922 1.76783 0
M  V30 5836 H 550.299 -2.98133 2.60639 0
M  V30 5837 H 551.473 -0.863007 4.52646 0
M  V30 5838 H 549.788 -0.934685 4.05774 0
M  V30 5839 H 552.385 -3.70838 3.85205 0
M  V30 5840 H 552.728 -3.56764 2.14534 0
M  V30 5841 H 553.261 -2.28342 3.25737 0
M  V30 5842 H 550 -2.00214 6.24175 0
M  V30 5843 H 549.52 -3.23367 5.05167 0
M  V30 5844 H 551.199 -3.16639 5.64224 0
M  V30 5845 N 551.331 -1.39911 -0.725443 0
M  V30 5846 C 552.58 -1.36963 -1.48068 0
M  V30 5847 C 552.893 0.0284478 -1.95579 0
M  V30 5848 O 554.099 0.180535 -2.70899 0
M  V30 5849 C 552.555 -2.40664 -2.67598 0
M  V30 5850 C 552.163 -3.86234 -2.26997 0
M  V30 5851 C 553.907 -2.46807 -3.45379 0
M  V30 5852 C 551.814 -4.81554 -3.43307 0
M  V30 5853 H 550.744 -0.509223 -0.556065 0
M  V30 5854 H 553.395 -1.65602 -0.790454 0
M  V30 5855 H 551.777 -2.05109 -3.38742 0
M  V30 5856 H 552.951 -4.3088 -1.63337 0
M  V30 5857 H 551.266 -3.83475 -1.62284 0
M  V30 5858 H 553.863 -3.15213 -4.31909 0
M  V30 5859 H 554.206 -1.49552 -3.8851 0
M  V30 5860 H 554.739 -2.81303 -2.81271 0
M  V30 5861 H 551.478 -5.80106 -3.05217 0
M  V30 5862 H 550.998 -4.4158 -4.05915 0
M  V30 5863 H 552.677 -5.0091 -4.0951 0
M  V30 5864 N 552.809 0.956637 -1.25245 0
M  V30 5865 C 553.719 2.0868 -1.0719 0
M  V30 5866 C 554.735 1.73997 -0.00959074 0
M  V30 5867 O 555.911 2.00301 -0.210104 0
M  V30 5868 C 552.976 3.39754 -0.690526 0
M  V30 5869 C 552.037 3.88316 -1.83055 0
M  V30 5870 C 551.27 5.13134 -1.46728 0
M  V30 5871 O 551.493 5.6925 -0.362029 0
M  V30 5872 O 550.427 5.56356 -2.29677 0
M  V30 5873 H 554.253 2.26813 -2.01965 0
M  V30 5874 H 551.838 1.07098 -1.04165 0
M  V30 5875 H 553.72 4.18543 -0.489871 0
M  V30 5876 H 552.395 3.22896 0.227981 0
M  V30 5877 H 551.302 3.1054 -2.08604 0
M  V30 5878 H 552.635 4.09669 -2.72822 0
M  V30 5879 N 554.287 1.06798 1.15896 0
M  V30 5880 C 555.533 0.788934 1.86825 0
M  V30 5881 C 555.866 -0.683084 1.8179 0
M  V30 5882 O 555.141 -1.50086 1.23711 0
M  V30 5883 C 555.424 1.29065 3.36176 0
M  V30 5884 C 555.277 2.8268 3.49874 0
M  V30 5885 C 556.596 0.902655 4.30744 0
M  V30 5886 H 553.715 0.288066 0.678371 0
M  V30 5887 H 556.357 1.32479 1.36195 0
M  V30 5888 H 554.507 0.834806 3.79425 0
M  V30 5889 H 556.179 3.36511 3.15528 0
M  V30 5890 H 554.422 3.21157 2.91617 0
M  V30 5891 H 555.093 3.12852 4.54783 0
M  V30 5892 H 557.569 1.29535 3.95424 0
M  V30 5893 H 556.445 1.28111 5.3374 0
M  V30 5894 H 556.706 -0.191951 4.41683 0
M  V30 5895 N 555.766 -1.3263 0.851289 0
M  V30 5896 C 557.006 -1.99174 0.459266 0
M  V30 5897 C 557.37 -1.65913 -0.966273 0
M  V30 5898 O 558.571 -2.2552 -1.46267 0
M  V30 5899 C 556.842 -3.50721 0.687698 0
M  V30 5900 S 558.401 -4.37039 0.392746 0
M  V30 5901 H 555.219 -0.689832 0.172199 0
M  V30 5902 H 557.821 -1.61395 1.10327 0
M  V30 5903 H 556.525 -3.72417 1.72435 0
M  V30 5904 H 556.056 -3.93389 0.0299949 0
M  V30 5905 H 558.071 -4.8999 -0.782578 0
M  V30 5906 N 557.244 -0.608902 -1.45362 0
M  V30 5907 C 558.469 -0.10921 -2.07112 0
M  V30 5908 C 558.894 1.19779 -1.45033 0
M  V30 5909 O 558.252 1.72961 -0.543527 0
M  V30 5910 C 558.3 0.0155745 -3.60597 0
M  V30 5911 O 557.404 1.06546 -3.98399 0
M  V30 5912 H 556.745 -0.0746619 -0.659789 0
M  V30 5913 H 559.275 -0.839283 -1.86594 0
M  V30 5914 H 559.285 0.213364 -4.07442 0
M  V30 5915 H 557.96 -0.938765 -4.05167 0
M  V30 5916 H 556.537 0.844024 -3.63223 0
M  V30 5917 N 558.722 1.53707 -0.348139 0
M  V30 5918 C 559.999 1.93247 0.302475 0
M  V30 5919 C 560.379 1.28012 1.67857 0
M  V30 5920 O 559.727 0.43274 2.24365 0
M  V30 5921 C 559.937 3.47031 0.370159 0
M  V30 5922 C 561.285 4.20066 0.61882 0
M  V30 5923 O 562.309 3.53319 0.452087 0
M  V30 5924 O 561.168 5.38318 0.94215 0
M  V30 5925 H 558.262 0.807736 0.177458 0
M  V30 5926 H 560.808 1.64927 -0.399651 0
M  V30 5927 H 559.58 3.86745 -0.59534 0
M  V30 5928 H 559.203 3.81532 1.11888 0
M  V30 5929 N 560.2 0.0768682 1.57412 0
M  V30 5930 C 561.163 -0.873949 2.11884 0
M  V30 5931 C 562.163 -1.22301 1.04398 0
M  V30 5932 O 563.353 -1.15545 1.30365 0
M  V30 5933 C 560.485 -2.17575 2.62438 0
M  V30 5934 H 561.678 -0.401278 2.97203 0
M  V30 5935 H 559.231 -0.171904 1.55352 0
M  V30 5936 H 559.966 -2.69368 1.80587 0
M  V30 5937 H 559.751 -1.93534 3.41009 0
M  V30 5938 H 561.241 -2.85631 3.04639 0
M  V30 5939 N 561.678 -1.56367 -0.196722 0
M  V30 5940 C 562.924 -1.80796 -0.918725 0
M  V30 5941 C 563.257 -0.650645 -1.82976 0
M  V30 5942 O 562.532 0.348889 -1.91345 0
M  V30 5943 C 562.815 -3.15472 -1.73636 0
M  V30 5944 C 562.668 -4.41693 -0.85015 0
M  V30 5945 C 563.987 -3.46824 -2.70927 0
M  V30 5946 H 561.106 -0.657702 -0.332561 0
M  V30 5947 H 563.748 -1.89086 -0.186186 0
M  V30 5948 H 561.898 -3.08536 -2.36088 0
M  V30 5949 H 563.57 -4.60673 -0.240459 0
M  V30 5950 H 561.813 -4.33517 -0.156785 0
M  V30 5951 H 562.484 -5.32419 -1.45719 0
M  V30 5952 H 564.96 -3.54049 -2.18607 0
M  V30 5953 H 563.836 -4.4218 -3.25219 0
M  V30 5954 H 564.097 -2.70236 -3.49893 0
M  V30 5955 N 563.156 0.464375 -1.50603 0
M  V30 5956 C 564.104 1.58224 -1.70493 0
M  V30 5957 C 565.098 1.59492 -0.570836 0
M  V30 5958 O 566.304 1.63561 -0.751517 0
M  V30 5959 H 562.679 0.525161 -0.538247 0
M  V30 5960 H 564.65 1.38613 -2.64252 0
M  V30 5961 C 563.399 2.96113 -1.82243 0
M  V30 5962 H 562.722 2.95858 -2.68901 0
M  V30 5963 H 564.162 3.73769 -2.00182 0
M  V30 5964 C 562.621 3.31946 -0.575628 0
M  V30 5965 O 563.151 4.00708 0.282152 0
M  V30 5966 N 561.357 2.87436 -0.427665 0
M  V30 5967 H 560.904 2.31652 -1.12674 0
M  V30 5968 H 560.862 3.11776 0.405379 0
M  V30 5969 N 564.634 1.40294 0.718013 0
M  V30 5970 C 565.864 1.41544 1.50495 0
M  V30 5971 C 566.272 0.0127877 1.89196 0
M  V30 5972 O 565.615 -0.97305 1.55812 0
M  V30 5973 C 565.677 2.24021 2.81167 0
M  V30 5974 C 565.341 3.72463 2.64803 0
M  V30 5975 C 566.338 4.65154 2.32223 0
M  V30 5976 C 564.023 4.1625 2.81143 0
M  V30 5977 C 566.017 5.99618 2.16189 0
M  V30 5978 C 563.704 5.50784 2.64727 0
M  V30 5979 C 564.702 6.42283 2.32297 0
M  V30 5980 O 564.39 7.74337 2.16004 0
M  V30 5981 H 564.122 0.484819 0.471091 0
M  V30 5982 H 566.676 1.84948 0.893488 0
M  V30 5983 H 564.906 1.75393 3.44636 0
M  V30 5984 H 566.595 2.17243 3.42871 0
M  V30 5985 H 567.361 4.32622 2.19234 0
M  V30 5986 H 563.24 3.45352 3.05373 0
M  V30 5987 H 566.784 6.71 1.90799 0
M  V30 5988 H 562.681 5.82902 2.773 0
M  V30 5989 H 563.449 7.85244 2.30942 0
M  V30 5990 N 566.112 -0.949982 1.2575 0
M  V30 5991 C 567.36 -1.6918 1.10555 0
M  V30 5992 C 567.681 -1.91773 -0.353298 0
M  V30 5993 O 566.951 -1.50814 -1.25027 0
M  V30 5994 H 565.531 -0.626952 0.406129 0
M  V30 5995 H 568.193 -1.1419 1.57945 0
M  V30 5996 H 567.289 -2.66915 1.61749 0
M  V30 5997 N 567.59 -1.07411 -1.15328 0
M  V30 5998 C 568.867 -0.710732 -1.82231 0
M  V30 5999 C 569.247 0.806732 -1.95077 0
M  V30 6000 O 568.595 1.72139 -1.50268 0
M  V30 6001 C 568.805 -1.42586 -3.18544 0
M  V30 6002 C 570.153 -1.57836 -3.94174 0
M  V30 6003 O 571.177 -1.38669 -3.281 0
M  V30 6004 O 570.036 -1.8938 -5.12638 0
M  V30 6005 H 567.13 -0.25297 -0.78736 0
M  V30 6006 H 569.676 -1.17508 -1.22434 0
M  V30 6007 H 568.448 -2.46008 -3.04296 0
M  V30 6008 H 568.071 -0.952332 -3.86026 0
M  V30 6009 N 569.068 1.32177 -0.85831 0
M  V30 6010 C 570.315 1.97125 -0.463484 0
M  V30 6011 C 570.643 1.67907 0.981705 0
M  V30 6012 O 569.898 0.961717 1.70439 0
M  V30 6013 C 570.197 3.51372 -0.653658 0
M  V30 6014 C 569.863 4.00584 -2.06987 0
M  V30 6015 C 568.525 4.13733 -2.4572 0
M  V30 6016 C 570.877 4.26624 -2.99402 0
M  V30 6017 C 568.205 4.50268 -3.76132 0
M  V30 6018 C 570.557 4.64618 -4.29316 0
M  V30 6019 C 569.221 4.75975 -4.67979 0
M  V30 6020 H 568.491 0.72133 -0.169601 0
M  V30 6021 H 571.138 1.57517 -1.08907 0
M  V30 6022 H 569.443 3.91761 0.0551328 0
M  V30 6023 H 571.14 3.99655 -0.328163 0
M  V30 6024 H 567.73 3.90837 -1.75911 0
M  V30 6025 H 571.914 4.1597 -2.70708 0
M  V30 6026 H 567.17 4.57256 -4.05865 0
M  V30 6027 H 571.344 4.83722 -5.00985 0
M  V30 6028 H 568.971 5.04041 -5.69076 0
M  V30 6029 N 570.547 0.616602 1.45037 0
M  V30 6030 C 571.777 0.121791 2.06241 0
M  V30 6031 C 572.185 -1.20289 1.46038 0
M  V30 6032 O 571.528 -1.7456 0.572242 0
M  V30 6033 C 571.59 -0.0827345 3.59405 0
M  V30 6034 C 571.254 1.16153 4.41993 0
M  V30 6035 C 572.251 2.08183 4.76399 0
M  V30 6036 C 569.936 1.39288 4.82601 0
M  V30 6037 C 571.93 3.21668 5.5028 0
M  V30 6038 C 569.617 2.53073 5.56235 0
M  V30 6039 C 570.615 3.44091 5.89992 0
M  V30 6040 O 570.303 4.55894 6.6213 0
M  V30 6041 H 570.035 0.0701667 0.672349 0
M  V30 6042 H 572.589 0.846877 1.87129 0
M  V30 6043 H 570.819 -0.862812 3.76952 0
M  V30 6044 H 572.508 -0.530273 4.02421 0
M  V30 6045 H 573.274 1.91538 4.45576 0
M  V30 6046 H 569.153 0.693396 4.55755 0
M  V30 6047 H 572.697 3.92733 5.76547 0
M  V30 6048 H 568.594 2.69667 5.86472 0
M  V30 6049 H 569.362 4.5469 6.80587 0
M  V30 6050 N 572.025 -1.5352 0.356285 0
M  V30 6051 C 573.272 -2.01117 -0.236303 0
M  V30 6052 C 573.6 -1.24381 -1.49531 0
M  V30 6053 O 572.855 -0.323057 -1.93015 0
M  V30 6054 C 573.154 -3.52607 -0.583369 0
M  V30 6055 C 572.82 -4.47151 0.58023 0
M  V30 6056 C 571.482 -4.72718 0.899528 0
M  V30 6057 C 573.834 -5.03137 1.36024 0
M  V30 6058 C 571.162 -5.51523 2.00098 0
M  V30 6059 C 573.514 -5.83145 2.45204 0
M  V30 6060 C 572.178 -6.07001 2.77679 0
M  V30 6061 H 571.448 -0.735938 -0.0864695 0
M  V30 6062 H 574.095 -1.85209 0.48683 0
M  V30 6063 H 572.4 -3.66413 -1.38739 0
M  V30 6064 H 574.097 -3.86901 -1.05397 0
M  V30 6065 H 570.687 -4.27394 0.321322 0
M  V30 6066 H 574.871 -4.83339 1.12682 0
M  V30 6067 H 570.127 -5.68229 2.25668 0
M  V30 6068 H 574.301 -6.25537 3.06067 0
M  V30 6069 H 571.928 -6.67851 3.63151 0
M  V30 6070 N 573.503 -0.0852151 -1.57369 0
M  V30 6071 C 574.919 0.271436 -1.57275 0
M  V30 6072 C 575.119 1.69109 -1.09565 0
M  V30 6073 O 574.175 2.40549 -0.767611 0
M  V30 6074 C 575.488 0.0688638 -3.00621 0
M  V30 6075 C 577.036 0.137373 -3.12698 0
M  V30 6076 C 577.511 -0.0370832 -4.57985 0
M  V30 6077 N 579.002 0.0180794 -4.63196 0
M  V30 6078 C 579.737 -0.0922953 -5.73326 0
M  V30 6079 N 579.233 -0.256948 -6.92323 0
M  V30 6080 N 581.026 -0.0342702 -5.6209 0
M  V30 6081 H 573.177 -1.01288 -1.86693 0
M  V30 6082 H 575.44 -0.396138 -0.861266 0
M  V30 6083 H 575.146 -0.911277 -3.39689 0
M  V30 6084 H 575.02 0.815442 -3.6828 0
M  V30 6085 H 577.407 1.10801 -2.73509 0
M  V30 6086 H 577.488 -0.640532 -2.47651 0
M  V30 6087 H 577.132 -1.00455 -4.97867 0
M  V30 6088 H 577.062 0.760392 -5.21081 0
M  V30 6089 H 579.553 0.143202 -3.77629 0
M  V30 6090 H 579.866 -0.332949 -7.72082 0
M  V30 6091 H 578.211 -0.292487 -6.94384 0
M  V30 6092 H 581.402 0.0931605 -4.68007 0
M  V30 6093 H 581.575 -0.12374 -6.47882 0
M  V30 6094 O 575.02 1.61406 0.0550718 0
M  V30 6095 H 575.711 1.81412 0.678922 0
M  V30 END ATOM
M  V30 BEGIN BOND
M  V30 END BOND
M  V30 END CTAB
M  END
$$$$
