drugbank_target|Q9KPI8 5'-methylthioadenosine/S-adenosylhomocysteine nucleosidase (DB07463)
 OpenBabel12092120433D

  0  0  0     0  0            999 V3000
M  V30 BEGIN CTAB
M  V30 COUNTS 3451 3476 0 0 0
M  V30 BEGIN ATOM
M  V30 1 H -0.908 1.98254 -0.117106 0
M  V30 2 N 0 1.576 0 0
M  V30 3 C 0.933 2.03868 1.02534 0
M  V30 4 C 1.911 0.928543 1.3348 0
M  V30 5 O 3.095 1.19667 1.45644 0
M  V30 6 C 0.222 2.43627 2.35294 0
M  V30 7 C -0.732 3.65373 2.2001 0
M  V30 8 S 0.101 5.13292 1.52614 0
M  V30 9 C 1.257 5.56322 2.86805 0
M  V30 10 H 1.49 2.90518 0.631377 0
M  V30 11 H -0.977 1.52953 0.210867 0
M  V30 12 H 0.981 2.67203 3.11629 0
M  V30 13 H -0.358 1.57376 2.7183 0
M  V30 14 H -1.165 3.90944 3.18086 0
M  V30 15 H -1.563 3.418 1.51819 0
M  V30 16 H 0.729 5.58782 3.83104 0
M  V30 17 H 1.672 6.56266 2.65933 0
M  V30 18 H 2.08 4.83886 2.90714 0
M  V30 19 N 1.4781 -0.272755 1.55222 0
M  V30 20 C 2.4251 -1.33716 1.88119 0
M  V30 21 C 3.3951 -1.49066 0.73271 0
M  V30 22 O 4.5801 -1.63469 0.984002 0
M  V30 23 C 1.7201 -2.69238 2.15882 0
M  V30 24 C 0.8331 -2.62108 3.43399 0
M  V30 25 C -0.0319 -3.89811 3.60861 0
M  V30 26 C -0.9929 -3.77193 4.8207 0
M  V30 27 N -1.8559 -4.9673 4.96189 0
M  V30 28 H 2.9841 -1.04962 2.78903 0
M  V30 29 H 0.5211 -0.507088 1.38083 0
M  V30 30 H 2.4791 -3.48089 2.29978 0
M  V30 31 H 1.1091 -2.96194 1.28331 0
M  V30 32 H 0.1611 -1.74967 3.37773 0
M  V30 33 H 1.4731 -2.48685 4.32386 0
M  V30 34 H 0.6271 -4.77103 3.74777 0
M  V30 35 H -0.6339 -4.06102 2.7006 0
M  V30 36 H -1.6289 -2.88284 4.68159 0
M  V30 37 H -0.4039 -3.62421 5.74307 0
M  V30 38 H -2.4579 -5.13431 4.08319 0
M  V30 39 H -2.5409 -4.85839 5.79221 0
M  V30 40 H -1.2729 -5.85594 5.1449 0
M  V30 41 N 2.9562 -1.48159 -0.537278 0
M  V30 42 C 4.2052 -1.5506 -1.28993 0
M  V30 43 C 4.5182 -0.226211 -1.94288 0
M  V30 44 O 5.7242 -0.173395 -2.70946 0
M  V30 45 C 4.1802 -2.73429 -2.34018 0
M  V30 46 C 3.7882 -4.1248 -1.74825 0
M  V30 47 C 5.5322 -2.89638 -3.10339 0
M  V30 48 C 3.4392 -5.22121 -2.77747 0
M  V30 49 H 2.3692 -0.577231 -0.485098 0
M  V30 50 H 5.0202 -1.74478 -0.568317 0
M  V30 51 H 3.4022 -2.47431 -3.09182 0
M  V30 52 H 4.5762 -4.48466 -1.05899 0
M  V30 53 H 2.8912 -4.01327 -1.11022 0
M  V30 54 H 5.4882 -3.68718 -3.87235 0
M  V30 55 H 5.8312 -1.9882 -3.65754 0
M  V30 56 H 6.3642 -3.15502 -2.42288 0
M  V30 57 H 3.1032 -6.1488 -2.27161 0
M  V30 58 H 2.6232 -4.90631 -3.45024 0
M  V30 59 H 4.3022 -5.49924 -3.4087 0
M  V30 60 N 4.4343 0.785586 -1.36625 0
M  V30 61 C 5.6823 1.54057 -1.30808 0
M  V30 62 C 6.0033 1.94683 0.111157 0
M  V30 63 O 5.2733 1.65241 1.05224 0
M  V30 64 H 3.8533 0.571354 -0.481211 0
M  V30 65 H 6.5153 0.935821 -1.70963 0
M  V30 66 H 5.6113 2.44637 -1.93801 0
M  V30 67 N 5.9124 1.20967 1.01018 0
M  V30 68 C 7.1614 1.01796 1.74128 0
M  V30 69 C 7.4744 -0.449691 1.90361 0
M  V30 70 O 8.6804 -0.76068 2.60626 0
M  V30 71 C 7.1364 1.7727 3.13215 0
M  V30 72 C 6.7444 3.28171 3.04972 0
M  V30 73 C 8.4884 1.66489 3.90489 0
M  V30 74 C 6.3954 3.96156 4.39107 0
M  V30 75 H 5.3254 0.377276 0.652824 0
M  V30 76 H 7.9764 1.44651 1.12909 0
M  V30 77 H 6.3584 1.27205 3.75013 0
M  V30 78 H 7.5324 3.85499 2.52443 0
M  V30 79 H 5.8474 3.39437 2.41188 0
M  V30 80 H 8.4444 2.14617 4.89738 0
M  V30 81 H 8.7874 0.6222 4.11624 0
M  V30 82 H 9.3204 2.14003 3.35332 0
M  V30 83 H 6.0594 5.00604 4.23174 0
M  V30 84 H 5.5794 3.43617 4.91617 0
M  V30 85 H 7.2584 4.00774 5.07926 0
M  V30 86 N 7.3905 -1.2043 1.01659 0
M  V30 87 C 8.6395 -1.89118 0.701237 0
M  V30 88 C 8.9525 -1.79705 -0.772358 0
M  V30 89 O 10.1585 -2.43528 -1.20026 0
M  V30 90 C 8.6145 -3.39168 1.20388 0
M  V30 91 C 8.2225 -3.57166 2.70438 0
M  V30 92 C 9.9665 -4.1341 0.963953 0
M  V30 93 C 7.8735 -5.01042 3.14183 0
M  V30 94 H 6.8035 -0.708267 0.2586 0
M  V30 95 H 9.4545 -1.36239 1.22927 0
M  V30 96 H 7.8365 -3.91369 0.603824 0
M  V30 97 H 9.0105 -3.15351 3.35992 0
M  V30 98 H 7.3255 -2.96294 2.92572 0
M  V30 99 H 9.9225 -5.19491 1.26621 0
M  V30 100 H 10.2655 -4.16181 -0.099578 0
M  V30 101 H 10.7985 -3.67309 1.52738 0
M  V30 102 H 7.5375 -5.03426 4.19812 0
M  V30 103 H 7.0575 -5.43668 2.53348 0
M  V30 104 H 8.7365 -5.69623 3.0682 0
M  V30 105 N 8.8686 -0.792821 -1.36206 0
M  V30 106 C 10.1166 -0.366062 -1.98757 0
M  V30 107 C 10.4376 1.0668 -1.63231 0
M  V30 108 O 9.7076 1.73587 -0.907978 0
M  V30 109 H 8.2876 -0.132364 -0.735179 0
M  V30 110 H 10.9496 -1.01562 -1.66347 0
M  V30 111 H 10.0456 -0.460638 -3.08682 0
M  V30 112 N 10.3467 1.47872 -0.545128 0
M  V30 113 C 11.3097 2.28337 0.198717 0
M  V30 114 C 12.3097 1.36255 0.853888 0
M  V30 115 O 13.4997 1.59003 0.711606 0
M  V30 116 C 10.6317 3.15585 1.28915 0
M  V30 117 H 11.8247 2.95567 -0.507941 0
M  V30 118 H 9.3777 1.53362 -0.301616 0
M  V30 119 H 10.1127 2.53019 2.02859 0
M  V30 120 H 9.8977 3.83337 0.824309 0
M  V30 121 H 11.3877 3.76243 1.81194 0
M  V30 122 N 11.8248 0.280983 1.55075 0
M  V30 123 C 12.7578 -0.645439 2.18882 0
M  V30 124 C 13.7358 -1.14786 1.15165 0
M  V30 125 O 14.9198 -1.21975 1.43716 0
M  V30 126 C 12.0468 -1.88088 2.81674 0
M  V30 127 C 11.0928 -1.51343 3.98745 0
M  V30 128 S 11.9258 -0.586548 5.32278 0
M  V30 129 C 13.0818 -1.83024 5.98543 0
M  V30 130 H 13.3148 -0.1033 2.9712 0
M  V30 131 H 10.8478 0.0652099 1.54262 0
M  V30 132 H 12.8058 -2.58997 3.18482 0
M  V30 133 H 11.4668 -2.39417 2.03318 0
M  V30 134 H 10.6598 -2.43289 4.41392 0
M  V30 135 H 10.2618 -0.884477 3.63391 0
M  V30 136 H 12.5538 -2.77342 6.18133 0
M  V30 137 H 13.4968 -1.44668 6.93164 0
M  V30 138 H 13.9048 -1.99785 5.27964 0
M  V30 139 N 13.3029 -1.57598 0.00835791 0
M  V30 140 C 14.2349 -2.05811 -1.00868 0
M  V30 141 C 15.2479 -0.977579 -1.30182 0
M  V30 142 O 16.4369 -1.25421 -1.27011 0
M  V30 143 C 13.5369 -2.45016 -2.34137 0
M  V30 144 C 12.7099 -3.75903 -2.23643 0
M  V30 145 C 11.7689 -4.01884 -3.3967 0
M  V30 146 O 10.7949 -4.72433 -3.17483 0
M  V30 147 N 11.9969 -3.50432 -4.62793 0
M  V30 148 H 14.7619 -2.93684 -0.597458 0
M  V30 149 H 12.3229 -1.60909 -0.178852 0
M  V30 150 H 14.3149 -2.59506 -3.10546 0
M  V30 151 H 12.8849 -1.62618 -2.66972 0
M  V30 152 H 12.1049 -3.7141 -1.32091 0
M  V30 153 H 13.3929 -4.61695 -2.13812 0
M  V30 154 H 12.7909 -2.93317 -4.83716 0
M  V30 155 H 11.3479 -3.70236 -5.3644 0
M  V30 156 N 14.781 0.264519 -1.55364 0
M  V30 157 C 15.713 1.34965 -1.85248 0
M  V30 158 C 16.726 1.45136 -0.737525 0
M  V30 159 O 17.915 1.46801 -1.01547 0
M  V30 160 C 15.015 2.73008 -2.00797 0
M  V30 161 C 14.188 2.85324 -3.31525 0
M  V30 162 C 13.247 4.04097 -3.37034 0
M  V30 163 O 12.273 3.94455 -4.10358 0
M  V30 164 N 13.475 5.16458 -2.65049 0
M  V30 165 H 16.24 1.09672 -2.78913 0
M  V30 166 H 13.801 0.454635 -1.55386 0
M  V30 167 H 15.793 3.50772 -2.01844 0
M  V30 168 H 14.363 2.91087 -1.1396 0
M  V30 169 H 13.583 1.94377 -3.42945 0
M  V30 170 H 14.871 2.9049 -4.17724 0
M  V30 171 H 14.269 5.27181 -2.05175 0
M  V30 172 H 12.826 5.92422 -2.71809 0
M  V30 173 N 16.2591 1.48442 0.529413 0
M  V30 174 C 17.1691 1.6569 1.66084 0
M  V30 175 C 18.1851 0.539432 1.65427 0
M  V30 176 O 19.3611 0.810572 1.84368 0
M  V30 177 C 16.4261 1.69315 3.02545 0
M  V30 178 C 15.4871 2.92694 3.14052 0
M  V30 179 C 14.7201 2.96137 4.44003 0
M  V30 180 O 14.9431 2.07973 5.31134 0
M  V30 181 O 13.8771 3.88312 4.59888 0
M  V30 182 H 17.7031 2.61483 1.54469 0
M  V30 183 H 15.2881 1.3185 0.702567 0
M  V30 184 H 17.1701 1.74217 3.83701 0
M  V30 185 H 15.8451 0.766966 3.14483 0
M  V30 186 H 14.7521 2.93324 2.32189 0
M  V30 187 H 16.0851 3.84699 3.0703 0
M  V30 188 N 17.7372 -0.778329 1.37039 0
M  V30 189 C 18.9832 -1.53892 1.32079 0
M  V30 190 C 19.3162 -1.9396 -0.0965386 0
M  V30 191 O 18.5912 -1.63568 -1.05242 0
M  V30 192 C 18.8742 -2.80847 2.25382 0
M  V30 193 C 18.7272 -2.47076 3.75864 0
M  V30 194 C 20.0462 -3.82741 2.1725 0
M  V30 195 H 17.1652 -0.558303 0.48111 0
M  V30 196 H 19.8072 -0.893397 1.67685 0
M  V30 197 H 17.9572 -3.35931 1.95148 0
M  V30 198 H 19.6292 -1.97957 4.16666 0
M  V30 199 H 17.8722 -1.79863 3.94755 0
M  V30 200 H 18.5432 -3.37798 4.36574 0
M  V30 201 H 21.0192 -3.37133 2.43887 0
M  V30 202 H 19.8952 -4.69303 2.84686 0
M  V30 203 H 20.1562 -4.2652 1.16331 0
M  V30 204 N 19.2153 -1.21501 -1.00376 0
M  V30 205 C 20.1783 -0.976927 -2.07337 0
M  V30 206 C 21.1783 0.0525322 -1.60714 0
M  V30 207 O 22.3683 -0.184869 -1.73216 0
M  V30 208 C 19.5003 -0.473423 -3.37597 0
M  V30 209 H 20.6933 -1.92587 -2.29892 0
M  V30 210 H 18.2463 -1.03217 -1.17371 0
M  V30 211 H 18.9813 0.480379 -3.20722 0
M  V30 212 H 18.7663 -1.216 -3.72768 0
M  V30 213 H 20.2563 -0.32675 -4.1632 0
M  V30 214 N 20.6934 1.19889 -1.02296 0
M  V30 215 C 21.9424 1.88743 -0.711257 0
M  V30 216 C 22.2554 1.80112 0.762817 0
M  V30 217 O 23.4614 2.44161 1.18733 0
M  V30 218 C 21.9174 3.38525 -1.22185 0
M  V30 219 C 21.5254 3.55727 -2.72328 0
M  V30 220 C 23.2694 4.12893 -0.985864 0
M  V30 221 C 21.1764 4.99369 -3.16835 0
M  V30 222 H 20.1064 0.706885 -0.262353 0
M  V30 223 H 22.7574 1.35586 -1.23648 0
M  V30 224 H 21.1394 3.91044 -0.624571 0
M  V30 225 H 22.3134 3.13564 -3.3766 0
M  V30 226 H 20.6284 2.94739 -2.9414 0
M  V30 227 H 23.2254 5.18813 -1.29374 0
M  V30 228 H 23.5684 4.16228 0.0775055 0
M  V30 229 H 24.1014 3.66494 -1.54684 0
M  V30 230 H 20.8404 5.01193 -4.22476 0
M  V30 231 H 20.3604 5.42317 -2.56228 0
M  V30 232 H 22.0394 5.67988 -3.09837 0
M  V30 233 N 22.1715 0.800033 1.35784 0
M  V30 234 C 23.1015 0.220184 2.3246 0
M  V30 235 C 24.0825 -0.65073 1.57161 0
M  V30 236 O 25.2675 -0.582359 1.85263 0
M  V30 237 C 22.3975 -0.637353 3.41402 0
M  V30 238 C 21.3515 0.134531 4.27789 0
M  V30 239 C 20.6775 -0.844285 5.27992 0
M  V30 240 C 21.9775 1.32979 5.05088 0
M  V30 241 H 23.6715 1.02787 2.81203 0
M  V30 242 H 21.2175 0.495717 1.35199 0
M  V30 243 H 23.1705 -1.05302 4.08031 0
M  V30 244 H 21.8945 -1.47785 2.91251 0
M  V30 245 H 20.5535 0.531296 3.6273 0
M  V30 246 H 20.2015 -1.68011 4.74111 0
M  V30 247 H 19.9015 -0.332184 5.8666 0
M  V30 248 H 21.4255 -1.2583 5.97494 0
M  V30 249 H 22.8395 0.98934 5.64699 0
M  V30 250 H 21.2365 1.77593 5.7322 0
M  V30 251 H 22.3065 2.11978 4.36111 0
M  V30 252 N 23.6496 -1.47581 0.552962 0
M  V30 253 C 24.5966 -2.29957 -0.197108 0
M  V30 254 C 25.5666 -1.38799 -0.912359 0
M  V30 255 O 26.7516 -1.67761 -0.908888 0
M  V30 256 C 23.8916 -3.22672 -1.22379 0
M  V30 257 C 23.0046 -4.28919 -0.515038 0
M  V30 258 C 22.1396 -5.0879 -1.52664 0
M  V30 259 C 21.1786 -6.06815 -0.802631 0
M  V30 260 N 20.3156 -6.7966 -1.76086 0
M  V30 261 H 25.1556 -2.93578 0.511486 0
M  V30 262 H 22.6926 -1.4471 0.264067 0
M  V30 263 H 24.6506 -3.74845 -1.83159 0
M  V30 264 H 23.2806 -2.60925 -1.90047 0
M  V30 265 H 22.3326 -3.79835 0.207192 0
M  V30 266 H 23.6446 -4.98773 0.0523425 0
M  V30 267 H 22.7986 -5.65091 -2.20809 0
M  V30 268 H 21.5376 -4.38828 -2.12794 0
M  V30 269 H 20.5426 -5.49695 -0.107238 0
M  V30 270 H 21.7676 -6.78784 -0.207135 0
M  V30 271 H 19.7136 -6.12432 -2.35081 0
M  V30 272 H 19.6306 -7.45669 -1.24552 0
M  V30 273 H 20.8986 -7.40538 -2.43359 0
M  V30 274 N 25.1277 -0.289203 -1.54924 0
M  V30 275 C 26.4047 0.376032 -1.91951 0
M  V30 276 C 26.7847 1.72622 -1.21511 0
M  V30 277 O 26.1327 2.25853 -0.346767 0
M  V30 278 C 26.3427 0.502378 -3.45365 0
M  V30 279 C 27.6907 0.778741 -4.17398 0
M  V30 280 O 28.7147 0.586647 -3.51336 0
M  V30 281 O 27.5737 1.14698 -5.34328 0
M  V30 282 H 24.6677 0.208167 -0.800372 0
M  V30 283 H 27.2137 -0.336394 -1.66332 0
M  V30 284 H 25.9857 -0.447255 -3.88736 0
M  V30 285 H 25.6087 1.26373 -3.76982 0
M  V30 286 N 26.6058 1.57591 -0.0167156 0
M  V30 287 C 27.5358 2.12496 0.967858 0
M  V30 288 C 28.5168 1.03807 1.34752 0
M  V30 289 O 29.7018 1.31577 1.42833 0
M  V30 290 C 26.8318 2.64194 2.25431 0
M  V30 291 C 25.7858 3.77559 2.01576 0
M  V30 292 C 25.1118 4.15636 3.36379 0
M  V30 293 C 26.4118 5.04151 1.36489 0
M  V30 294 H 28.1058 2.95013 0.510643 0
M  V30 295 H 25.6518 1.41915 0.244181 0
M  V30 296 H 27.6048 3.01236 2.94678 0
M  V30 297 H 26.3288 1.78821 2.73296 0
M  V30 298 H 24.9878 3.40937 1.34751 0
M  V30 299 H 24.6358 3.27263 3.81979 0
M  V30 300 H 24.3358 4.92022 3.21229 0
M  V30 301 H 25.8598 4.5525 4.06915 0
M  V30 302 H 27.2738 5.38857 1.95718 0
M  V30 303 H 25.6708 5.85453 1.31776 0
M  V30 304 H 26.7408 4.83733 0.336219 0
M  V30 305 N 28.0839 -0.256276 1.55502 0
M  V30 306 C 29.3329 -0.983486 1.76098 0
M  V30 307 C 29.6459 -1.86837 0.578896 0
M  V30 308 O 30.8519 -2.63163 0.667648 0
M  V30 309 C 29.3079 -1.79868 3.1173 0
M  V30 310 C 28.9159 -0.961648 4.37557 0
M  V30 311 C 30.6599 -2.51919 3.41668 0
M  V30 312 C 28.5669 -1.77219 5.64223 0
M  V30 313 H 27.4969 -0.370936 0.656447 0
M  V30 314 H 30.1479 -0.238492 1.81944 0
M  V30 315 H 28.5299 -2.58527 2.99966 0
M  V30 316 H 29.7039 -0.218048 4.60284 0
M  V30 317 H 28.0189 -0.354913 4.14885 0
M  V30 318 H 30.6159 -3.12998 4.33516 0
M  V30 319 H 30.9589 -3.23059 2.62562 0
M  V30 320 H 31.4919 -1.80278 3.54605 0
M  V30 321 H 28.2309 -1.10471 6.46124 0
M  V30 322 H 27.7509 -2.49132 5.45613 0
M  V30 323 H 29.4299 -2.34169 6.03137 0
M  V30 324 N 29.562 -1.4872 -0.521534 0
M  V30 325 C 30.472 -1.66569 -1.65203 0
M  V30 326 C 31.488 -0.548197 -1.65139 0
M  V30 327 O 32.664 -0.820339 -1.83936 0
M  V30 328 C 29.729 -1.70917 -3.01642 0
M  V30 329 C 28.79 -2.94356 -3.12495 0
M  V30 330 C 28.023 -2.98487 -4.42426 0
M  V30 331 O 28.246 -2.10786 -5.30024 0
M  V30 332 O 27.18 -3.90746 -4.57822 0
M  V30 333 H 31.006 -2.62298 -1.5308 0
M  V30 334 H 28.591 -1.3222 -0.695565 0
M  V30 335 H 30.473 -1.7625 -3.82771 0
M  V30 336 H 29.148 -0.783633 -3.14071 0
M  V30 337 H 28.055 -2.94552 -2.3063 0
M  V30 338 H 29.388 -3.86322 -3.04986 0
M  V30 339 N 31.0401 0.771051 -1.3745 0
M  V30 340 C 32.3171 1.519 -1.23231 0
M  V30 341 C 32.6971 2.10383 0.173809 0
M  V30 342 O 32.0451 1.95583 1.18151 0
M  V30 343 C 32.2551 2.59933 -2.32886 0
M  V30 344 C 33.6031 3.27316 -2.70461 0
M  V30 345 O 34.6271 2.70228 -2.32068 0
M  V30 346 O 33.4861 4.30531 -3.36608 0
M  V30 347 H 30.5801 0.672803 -0.480901 0
M  V30 348 H 33.1261 0.807957 -1.49232 0
M  V30 349 H 31.8981 2.14842 -3.27045 0
M  V30 350 H 31.5211 3.38637 -2.08353 0
M  V30 351 N 32.5182 1.22032 0.997298 0
M  V30 352 C 33.7642 1.04376 1.73878 0
M  V30 353 C 34.0972 -0.420716 1.89588 0
M  V30 354 O 33.3722 -1.31202 1.43583 0
M  V30 355 C 33.6552 1.75047 3.14691 0
M  V30 356 C 33.5082 3.29062 3.06656 0
M  V30 357 C 34.8272 1.49928 4.13775 0
M  V30 358 H 31.9462 0.380578 0.631133 0
M  V30 359 H 34.5882 1.50312 1.16217 0
M  V30 360 H 32.7382 1.35996 3.63919 0
M  V30 361 H 34.4102 3.7753 2.65083 0
M  V30 362 H 32.6532 3.58967 2.43568 0
M  V30 363 H 33.3242 3.73683 4.06282 0
M  V30 364 H 35.8002 1.83842 3.73285 0
M  V30 365 H 34.6762 2.01878 5.10428 0
M  V30 366 H 34.9372 0.430929 4.39995 0
M  V30 367 N 33.9963 -1.19345 1.0293 0
M  V30 368 C 34.9283 -2.22036 0.56857 0
M  V30 369 C 35.9413 -1.58865 -0.355779 0
M  V30 370 O 37.1303 -1.77851 -0.152103 0
M  V30 371 C 34.2303 -3.38363 -0.190752 0
M  V30 372 C 33.4033 -4.31118 0.738643 0
M  V30 373 C 32.4623 -5.26194 0.0246497 0
M  V30 374 O 31.4883 -5.65461 0.651354 0
M  V30 375 N 32.6903 -5.66971 -1.24594 0
M  V30 376 H 35.4553 -2.6219 1.45177 0
M  V30 377 H 33.0163 -1.34015 0.908381 0
M  V30 378 H 35.0083 -3.98981 -0.677961 0
M  V30 379 H 33.5783 -2.96994 -0.975366 0
M  V30 380 H 32.7983 -3.68276 1.40593 0
M  V30 381 H 34.0863 -4.90001 1.37029 0
M  V30 382 H 33.4843 -5.37104 -1.77583 0
M  V30 383 H 32.0413 -6.2984 -1.67764 0
M  V30 384 N 35.4744 -0.807222 -1.35358 0
M  V30 385 C 36.3844 -0.219594 -2.3357 0
M  V30 386 C 37.4004 0.637734 -1.61892 0
M  V30 387 O 38.5764 0.549336 -1.93763 0
M  V30 388 C 35.6414 0.62158 -3.41083 0
M  V30 389 C 34.7024 -0.256315 -4.28534 0
M  V30 390 C 33.9354 0.544807 -5.30912 0
M  V30 391 O 34.1584 1.77944 -5.41934 0
M  V30 392 O 33.0924 -0.0646478 -6.01865 0
M  V30 393 H 36.9184 -1.03208 -2.85625 0
M  V30 394 H 34.5034 -0.569025 -1.38139 0
M  V30 395 H 36.3854 1.10067 -4.06772 0
M  V30 396 H 35.0604 1.41165 -2.91297 0
M  V30 397 H 33.9674 -0.782559 -3.65823 0
M  V30 398 H 35.3004 -1.01034 -4.81719 0
M  V30 399 N 36.9525 1.47285 -0.560781 0
M  V30 400 C 38.1985 2.02764 -0.0381184 0
M  V30 401 C 38.5315 1.43384 1.30976 0
M  V30 402 O 37.8065 0.590733 1.85312 0
M  V30 403 C 38.0895 3.60064 0.0511427 0
M  V30 404 C 37.9425 4.2987 -1.32408 0
M  V30 405 C 39.2615 4.33439 0.762795 0
M  V30 406 H 36.3805 0.736841 -0.0153264 0
M  V30 407 H 39.0225 1.75675 -0.723759 0
M  V30 408 H 37.1725 3.83274 0.635065 0
M  V30 409 H 38.8445 4.17989 -1.95148 0
M  V30 410 H 37.0875 3.90085 -1.8978 0
M  V30 411 H 37.7585 5.38478 -1.21431 0
M  V30 412 H 40.2345 4.15243 0.266965 0
M  V30 413 H 39.1105 5.43124 0.794221 0
M  V30 414 H 39.3715 4.02915 1.81966 0
M  V30 415 N 38.4306 0.297415 1.54768 0
M  V30 416 C 39.3786 -0.596051 2.24833 0
M  V30 417 C 40.3726 -1.13992 1.25308 0
M  V30 418 O 41.5786 -1.09098 1.4317 0
M  V30 419 H 37.9536 -0.210814 0.721846 0
M  V30 420 H 39.9246 0.0174667 2.98395 0
M  V30 421 C 38.6736 -1.75818 2.99972 0
M  V30 422 H 37.9966 -1.3489 3.76357 0
M  V30 423 H 39.4366 -2.35949 3.52284 0
M  V30 424 C 37.8956 -2.66014 2.06732 0
M  V30 425 O 38.4256 -3.67009 1.63302 0
M  V30 426 N 36.6316 -2.33669 1.72763 0
M  V30 427 H 36.1786 -1.51586 2.08277 0
M  V30 428 H 36.1366 -2.94285 1.10652 0
M  V30 429 N 39.9087 -1.5758 0.0250728 0
M  V30 430 C 40.8407 -2.06869 -0.986796 0
M  V30 431 C 41.8537 -0.991332 -1.29137 0
M  V30 432 O 43.0427 -1.26761 -1.25674 0
M  V30 433 C 40.1427 -2.47486 -2.31525 0
M  V30 434 C 39.3157 -3.78253 -2.19643 0
M  V30 435 C 38.3747 -4.05464 -3.35388 0
M  V30 436 O 37.4007 -4.75774 -3.12454 0
M  V30 437 N 38.6027 -3.55321 -4.59051 0
M  V30 438 H 41.3677 -2.94302 -0.566276 0
M  V30 439 H 38.9287 -1.6109 -0.161776 0
M  V30 440 H 40.9207 -2.62785 -3.07776 0
M  V30 441 H 39.4907 -1.65441 -2.65232 0
M  V30 442 H 38.7107 -3.7279 -1.28144 0
M  V30 443 H 39.9987 -4.63936 -2.08903 0
M  V30 444 H 39.3967 -2.98431 -4.80578 0
M  V30 445 H 37.9537 -3.75905 -5.32483 0
M  V30 446 N 41.3868 0.248026 -1.55636 0
M  V30 447 C 42.3498 1.29044 -1.89421 0
M  V30 448 C 43.3498 1.41134 -0.770581 0
M  V30 449 O 44.5398 1.39854 -1.03858 0
M  V30 450 C 41.6718 2.66831 -2.12165 0
M  V30 451 H 42.8648 1.00305 -2.82629 0
M  V30 452 H 40.4178 0.487265 -1.48511 0
M  V30 453 H 41.1528 3.00711 -1.21422 0
M  V30 454 H 40.9378 2.59438 -2.93997 0
M  V30 455 H 42.4278 3.42103 -2.3949 0
M  V30 456 N 42.8649 1.48995 0.513639 0
M  V30 457 C 44.1129 1.57531 1.26604 0
M  V30 458 C 44.4339 0.258236 1.93283 0
M  V30 459 O 43.7039 -0.721502 1.8213 0
M  V30 460 H 42.2839 0.580387 0.470276 0
M  V30 461 H 44.9459 1.85552 0.596373 0
M  V30 462 H 44.0419 2.36486 2.03669 0
M  V30 463 N 44.343 -0.763751 1.37857 0
M  V30 464 C 45.583 -1.53551 1.34913 0
M  V30 465 C 45.947 -1.91895 -0.0635882 0
M  V30 466 O 47.148 -2.67916 -0.217825 0
M  V30 467 C 45.419 -2.76126 2.26912 0
M  V30 468 S 46.978 -3.66105 2.41893 0
M  V30 469 H 43.796 -0.52559 0.478828 0
M  V30 470 H 46.398 -0.897435 1.73685 0
M  V30 471 H 45.102 -2.4605 3.28463 0
M  V30 472 H 44.633 -3.44887 1.89253 0
M  V30 473 H 46.648 -4.68473 1.63545 0
M  V30 474 N 45.8211 -1.22559 -0.990812 0
M  V30 475 C 47.0491 -1.07779 -1.76611 0
M  V30 476 C 47.4641 0.371513 -1.85109 0
M  V30 477 O 46.8211 1.25737 -1.32274 0
M  V30 478 C 46.8721 -1.68512 -3.19822 0
M  V30 479 O 46.5931 -3.07774 -3.1178 0
M  V30 480 C 48.0941 -1.59035 -4.13791 0
M  V30 481 H 45.3141 -0.377729 -0.554583 0
M  V30 482 H 47.8581 -1.62195 -1.24551 0
M  V30 483 H 46.0131 -1.18154 -3.68942 0
M  V30 484 H 46.4271 -3.37062 -4.01858 0
M  V30 485 H 47.9011 -2.0625 -5.1202 0
M  V30 486 H 48.3781 -0.547273 -4.35777 0
M  V30 487 H 48.9841 -2.08709 -3.70568 0
M  V30 488 N 47.2992 1.18797 -1.03562 0
M  V30 489 C 48.5462 1.8865 -0.736023 0
M  V30 490 C 48.8742 1.80041 0.735889 0
M  V30 491 O 48.1292 1.19179 1.55225 0
M  V30 492 C 48.4282 3.38692 -1.14117 0
M  V30 493 C 48.0942 3.67504 -2.6125 0
M  V30 494 C 46.7562 3.75078 -3.01447 0
M  V30 495 C 49.1082 3.80293 -3.56408 0
M  V30 496 C 46.4362 3.92915 -4.35701 0
M  V30 497 C 48.7882 3.99645 -4.90374 0
M  V30 498 C 47.4522 4.05453 -5.30249 0
M  V30 499 H 46.7222 0.690321 -0.26933 0
M  V30 500 H 49.3692 1.40641 -1.29971 0
M  V30 501 H 47.6742 3.88645 -0.496202 0
M  V30 502 H 49.3712 3.91072 -0.886789 0
M  V30 503 H 45.9612 3.62223 -2.29113 0
M  V30 504 H 50.1452 3.73779 -3.26501 0
M  V30 505 H 45.4012 3.95653 -4.66121 0
M  V30 506 H 49.5752 4.08482 -5.64017 0
M  V30 507 H 47.2022 4.19027 -6.34288 0
M  V30 508 N 48.7773 0.814389 1.34928 0
M  V30 509 C 50.0073 0.41054 2.0248 0
M  V30 510 C 50.4153 -0.985625 1.61499 0
M  V30 511 O 49.7583 -1.64781 0.811976 0
M  V30 512 C 49.8203 0.423384 3.56998 0
M  V30 513 C 49.4843 1.77141 4.21272 0
M  V30 514 C 50.4813 2.73093 4.42398 0
M  V30 515 C 48.1663 2.05755 4.58225 0
M  V30 516 C 50.1603 3.95838 4.9959 0
M  V30 517 C 47.8473 3.28762 5.1513 0
M  V30 518 C 48.8453 4.23621 5.35755 0
M  V30 519 O 48.5333 5.44456 5.91458 0
M  V30 520 H 48.2653 0.163997 0.655806 0
M  V30 521 H 50.8193 1.10155 1.73364 0
M  V30 522 H 49.0493 -0.324276 3.85338 0
M  V30 523 H 50.7383 0.0407683 4.0588 0
M  V30 524 H 51.5043 2.5228 4.14222 0
M  V30 525 H 47.3833 1.32727 4.4148 0
M  V30 526 H 50.9273 4.69891 5.15605 0
M  V30 527 H 46.8243 3.49443 5.42734 0
M  V30 528 H 47.5923 5.4586 6.09901 0
M  V30 529 N 50.2554 -1.46986 0.568584 0
M  V30 530 C 51.4804 -2.07335 0.0520528 0
M  V30 531 C 51.9054 -1.41675 -1.23733 0
M  V30 532 O 51.2634 -0.495623 -1.74394 0
M  V30 533 C 51.3114 -3.60417 -0.11501 0
M  V30 534 O 50.4154 -3.95309 -1.17492 0
M  V30 535 H 49.7564 -0.661597 0.0564385 0
M  V30 536 H 52.2864 -1.88837 0.787507 0
M  V30 537 H 52.2964 -4.06698 -0.325644 0
M  V30 538 H 50.9714 -4.07601 0.826675 0
M  V30 539 H 49.5484 -3.60757 -0.943869 0
M  V30 540 N 51.7335 -0.305618 -1.54608 0
M  V30 541 C 52.9815 0.301701 -1.99835 0
M  V30 542 C 53.3025 1.54054 -1.19551 0
M  V30 543 O 52.5725 1.93702 -0.292658 0
M  V30 544 H 51.1525 0.114468 -0.738178 0
M  V30 545 H 53.8145 -0.418016 -1.90364 0
M  V30 546 H 52.9105 0.570548 -3.06841 0
M  V30 547 N 53.2116 1.57565 -0.0334293 0
M  V30 548 C 54.1436 2.0739 0.975811 0
M  V30 549 C 55.1566 0.998166 1.2861 0
M  V30 550 O 56.3456 1.27426 1.25 0
M  V30 551 C 53.4456 2.4871 2.30209 0
M  V30 552 C 52.6186 3.79413 2.17634 0
M  V30 553 C 51.6776 4.07237 3.33233 0
M  V30 554 O 50.7036 4.77425 3.09927 0
M  V30 555 N 51.9056 3.5775 4.5716 0
M  V30 556 H 54.6706 2.94598 0.55066 0
M  V30 557 H 52.2316 1.61173 0.15323 0
M  V30 558 H 54.2236 2.64413 3.06378 0
M  V30 559 H 52.7936 1.66845 2.64351 0
M  V30 560 H 52.0136 3.73465 1.26165 0
M  V30 561 H 53.3016 4.65038 2.0644 0
M  V30 562 H 52.6996 3.00976 4.78989 0
M  V30 563 H 51.2566 3.78724 5.30482 0
M  V30 564 N 54.6897 -0.239769 1.55765 0
M  V30 565 C 55.9387 -0.964754 1.77131 0
M  V30 566 C 56.2517 -1.86213 0.59868 0
M  V30 567 O 57.4577 -2.6244 0.695522 0
M  V30 568 C 55.9137 -1.76552 3.1362 0
M  V30 569 C 55.5217 -0.915185 4.38553 0
M  V30 570 C 57.2657 -2.48281 3.44321 0
M  V30 571 C 55.1727 -1.71225 5.66071 0
M  V30 572 H 54.1027 -0.363953 0.660344 0
M  V30 573 H 56.7537 -0.219181 1.82186 0
M  V30 574 H 55.1357 -2.55331 3.02691 0
M  V30 575 H 56.3097 -0.169217 4.60489 0
M  V30 576 H 54.6247 -0.310889 4.15238 0
M  V30 577 H 57.2217 -3.08382 4.36812 0
M  V30 578 H 57.5647 -3.20256 2.65973 0
M  V30 579 H 58.0977 -1.76507 3.56497 0
M  V30 580 H 54.8367 -1.03612 6.4726 0
M  V30 581 H 54.3567 -2.43331 5.48224 0
M  V30 582 H 56.0357 -2.27758 6.05587 0
M  V30 583 N 56.1678 -1.49265 -0.50573 0
M  V30 584 C 57.0998 -1.617 -1.62437 0
M  V30 585 C 58.1128 -0.499924 -1.54934 0
M  V30 586 O 59.3018 -0.771785 -1.60953 0
M  V30 587 C 56.4018 -1.5533 -3.01207 0
M  V30 588 C 55.5748 -2.8249 -3.33943 0
M  V30 589 C 54.6338 -2.69238 -4.52103 0
M  V30 590 O 53.6598 -3.43167 -4.5412 0
M  V30 591 N 54.8618 -1.80468 -5.51735 0
M  V30 592 H 57.6268 -2.58177 -1.52199 0
M  V30 593 H 55.1878 -1.46294 -0.693511 0
M  V30 594 H 57.1798 -1.44125 -3.78167 0
M  V30 595 H 55.7498 -0.667297 -3.05395 0
M  V30 596 H 54.9698 -3.08081 -2.45926 0
M  V30 597 H 56.2578 -3.66802 -3.5261 0
M  V30 598 H 55.6558 -1.19653 -5.52901 0
M  V30 599 H 54.2128 -1.75188 -6.27816 0
M  V30 600 N 57.6459 0.756429 -1.3826 0
M  V30 601 C 58.8939 1.51248 -1.34047 0
M  V30 602 C 59.2149 1.94875 0.0698372 0
M  V30 603 O 58.4849 1.67436 1.01696 0
M  V30 604 H 57.0649 0.561018 -0.493222 0
M  V30 605 H 59.7269 0.899347 -1.7291 0
M  V30 606 H 58.8229 2.40472 -1.98947 0
M  V30 607 N 59.124 1.23083 0.984299 0
M  V30 608 C 60.37 1.06214 1.72761 0
M  V30 609 C 60.703 -0.400584 1.90024 0
M  V30 610 O 59.978 -1.29672 1.44967 0
M  V30 611 C 60.261 1.78375 3.12817 0
M  V30 612 C 60.114 3.32296 3.03149 0
M  V30 613 C 61.433 1.54309 4.12161 0
M  V30 614 H 58.552 0.387251 0.627061 0
M  V30 615 H 61.194 1.51536 1.14616 0
M  V30 616 H 59.344 1.39848 3.62457 0
M  V30 617 H 61.016 3.8032 2.61064 0
M  V30 618 H 59.259 3.6153 2.39747 0
M  V30 619 H 59.93 3.77972 4.02295 0
M  V30 620 H 62.406 1.87791 3.71314 0
M  V30 621 H 61.282 2.07281 5.08258 0
M  V30 622 H 61.543 0.477572 4.39513 0
M  V30 623 N 60.6021 -1.18246 1.0419 0
M  V30 624 C 61.8791 -1.84121 0.660208 0
M  V30 625 C 62.2591 -1.92778 -0.860221 0
M  V30 626 O 61.6071 -1.45464 -1.76217 0
M  V30 627 C 61.8171 -3.22355 1.33747 0
M  V30 628 C 63.1651 -3.98376 1.46906 0
M  V30 629 O 64.1891 -3.31799 1.29568 0
M  V30 630 O 63.0481 -5.17665 1.75171 0
M  V30 631 H 60.1421 -0.794036 0.231161 0
M  V30 632 H 62.6881 -1.25628 1.14087 0
M  V30 633 H 61.4601 -3.10964 2.37522 0
M  V30 634 H 61.0831 -3.88506 0.845515 0
M  V30 635 N 62.0802 -0.821533 -1.34494 0
M  V30 636 C 63.3262 -0.409552 -1.98622 0
M  V30 637 C 63.6592 1.0244 -1.64984 0
M  V30 638 O 62.9342 1.71325 -0.920758 0
M  V30 639 C 63.2172 -0.610458 -3.54888 0
M  V30 640 C 63.0702 -2.09043 -3.98273 0
M  V30 641 C 64.3892 -0.0455379 -4.40076 0
M  V30 642 H 61.5082 -0.15028 -0.721516 0
M  V30 643 H 64.1502 -1.03384 -1.59411 0
M  V30 644 H 62.3002 -0.079044 -3.8842 0
M  V30 645 H 63.9722 -2.68537 -3.75081 0
M  V30 646 H 62.2152 -2.58139 -3.48635 0
M  V30 647 H 62.8862 -2.18182 -5.07051 0
M  V30 648 H 65.3622 -0.499557 -4.1309 0
M  V30 649 H 64.2382 -0.215922 -5.48475 0
M  V30 650 H 64.4992 1.04939 -4.29465 0
M  V30 651 N 63.5583 1.46682 -0.576371 0
M  V30 652 C 64.8043 2.02712 -0.0596221 0
M  V30 653 C 65.1373 1.44765 1.29448 0
M  V30 654 O 64.4123 0.610355 1.84675 0
M  V30 655 C 64.6953 3.60098 0.0129503 0
M  V30 656 C 64.5483 4.28441 -1.3696 0
M  V30 657 C 65.8673 4.34224 0.71678 0
M  V30 658 H 62.9863 0.736637 -0.0231407 0
M  V30 659 H 65.6283 1.74898 -0.742351 0
M  V30 660 H 63.7783 3.83926 0.594378 0
M  V30 661 H 65.4503 4.15896 -1.9957 0
M  V30 662 H 63.6933 3.8805 -1.93907 0
M  V30 663 H 64.3643 5.3716 -1.27135 0
M  V30 664 H 66.8403 4.15503 0.222908 0
M  V30 665 H 65.7163 5.43936 0.73657 0
M  V30 666 H 65.9773 4.04823 1.77682 0
M  V30 667 N 65.0364 0.313813 1.54444 0
M  V30 668 C 65.9664 -0.549454 2.26943 0
M  V30 669 C 66.9474 -1.12741 1.27372 0
M  V30 670 O 68.1324 -1.15436 1.56167 0
M  V30 671 C 65.2624 -1.71523 3.01989 0
M  V30 672 C 64.2164 -1.26703 4.08816 0
M  V30 673 C 63.5424 -2.51898 4.71647 0
M  V30 674 C 64.8424 -0.388962 5.2085 0
M  V30 675 H 66.5364 0.0552661 2.99349 0
M  V30 676 H 64.0824 0.0280207 1.43973 0
M  V30 677 H 66.0354 -2.32535 3.51433 0
M  V30 678 H 64.7594 -2.34639 2.27183 0
M  V30 679 H 63.4184 -0.679896 3.6024 0
M  V30 680 H 63.0664 -3.13356 3.93468 0
M  V30 681 H 62.7664 -2.22605 5.43802 0
M  V30 682 H 64.2904 -3.1369 5.23861 0
M  V30 683 H 65.7044 -0.905107 5.6611 0
M  V30 684 H 64.1014 -0.18924 5.99802 0
M  V30 685 H 65.1714 0.582699 4.81386 0
M  V30 686 N 66.5145 -1.57545 0.0417849 0
M  V30 687 C 67.4445 -2.14009 -0.933929 0
M  V30 688 C 68.4255 -1.05938 -1.33083 0
M  V30 689 O 69.6105 -1.33833 -1.40721 0
M  V30 690 C 66.7405 -2.67747 -2.21199 0
M  V30 691 C 65.6945 -3.80718 -1.95544 0
M  V30 692 C 65.0205 -4.20935 -3.29724 0
M  V30 693 C 66.3205 -5.06258 -1.28452 0
M  V30 694 H 68.0145 -2.95788 -0.463645 0
M  V30 695 H 65.5605 -1.42285 -0.221573 0
M  V30 696 H 67.5135 -3.05886 -2.89848 0
M  V30 697 H 66.2375 -1.83147 -2.70416 0
M  V30 698 H 64.8965 -3.43037 -1.2931 0
M  V30 699 H 64.5445 -3.33298 -3.76724 0
M  V30 700 H 64.2445 -4.9707 -3.13361 0
M  V30 701 H 65.7685 -4.61666 -3.9962 0
M  V30 702 H 67.1825 -5.41903 -1.8712 0
M  V30 703 H 65.5795 -5.87475 -1.22445 0
M  V30 704 H 66.6495 -4.84207 -0.259219 0
M  V30 705 N 67.9926 0.231505 -1.5589 0
M  V30 706 C 68.9246 1.31006 -1.8807 0
M  V30 707 C 69.9376 1.43539 -0.768145 0
M  V30 708 O 71.1266 1.44614 -1.04638 0
M  V30 709 C 68.2266 2.68688 -2.06543 0
M  V30 710 C 67.3996 2.78228 -3.37502 0
M  V30 711 C 66.4586 3.96857 -3.4553 0
M  V30 712 O 65.4846 3.85662 -4.18633 0
M  V30 713 N 66.6866 5.1072 -2.75944 0
M  V30 714 H 69.4516 1.03731 -2.81176 0
M  V30 715 H 67.0126 0.421573 -1.56315 0
M  V30 716 H 69.0046 3.46412 -2.09239 0
M  V30 717 H 67.5746 2.88605 -1.20109 0
M  V30 718 H 66.7946 1.87059 -3.46991 0
M  V30 719 H 68.0826 2.81564 -4.23791 0
M  V30 720 H 67.4806 5.2271 -2.16311 0
M  V30 721 H 66.0376 5.86523 -2.84314 0
M  V30 722 N 69.4707 1.49531 0.497807 0
M  V30 723 C 70.6957 1.63159 1.28039 0
M  V30 724 C 71.1207 0.30418 1.85624 0
M  V30 725 O 70.4787 -0.728618 1.66015 0
M  V30 726 C 70.5267 2.70537 2.38416 0
M  V30 727 O 69.6307 2.29931 3.42353 0
M  V30 728 H 68.9717 0.546001 0.377861 0
M  V30 729 H 71.5017 1.9574 0.59558 0
M  V30 730 H 71.5117 2.92802 2.84132 0
M  V30 731 H 70.1867 3.6689 1.95869 0
M  V30 732 H 68.7637 2.18009 3.02533 0
M  V30 733 N 70.9488 -0.749086 1.3866 0
M  V30 734 C 72.1968 -1.50535 1.34847 0
M  V30 735 C 72.5178 -1.94909 -0.0595016 0
M  V30 736 O 71.7878 -1.67973 -1.00806 0
M  V30 737 H 70.3678 -0.558395 0.49619 0
M  V30 738 H 73.0298 -0.890165 1.73384 0
M  V30 739 H 72.1258 -2.39413 2.00219 0
M  V30 740 N 72.4269 -1.23603 -0.977757 0
M  V30 741 C 73.6759 -1.06377 -1.71368 0
M  V30 742 C 73.9889 0.399062 -1.91486 0
M  V30 743 O 75.1949 0.691312 -2.62551 0
M  V30 744 C 73.6509 -1.85512 -3.08404 0
M  V30 745 C 73.2589 -3.36141 -2.96164 0
M  V30 746 C 75.0029 -1.76783 -3.85938 0
M  V30 747 C 72.9099 -4.07659 -4.28449 0
M  V30 748 H 71.8399 -0.394452 -0.642591 0
M  V30 749 H 74.4909 -1.47594 -1.09034 0
M  V30 750 H 72.8729 -1.37103 -3.71509 0
M  V30 751 H 74.0469 -3.92056 -2.42133 0
M  V30 752 H 72.3619 -3.45712 -2.32104 0
M  V30 753 H 74.9589 -2.27526 -4.83876 0
M  V30 754 H 75.3019 -0.731116 -4.0983 0
M  V30 755 H 75.8349 -2.22818 -3.2954 0
M  V30 756 H 72.5739 -5.11648 -4.09752 0
M  V30 757 H 72.0939 -3.5653 -4.82334 0
M  V30 758 H 73.7729 -4.141 -4.97122 0
M  V30 759 N 73.905 1.17692 -1.04816 0
M  V30 760 C 75.153 1.87488 -0.754497 0
M  V30 761 C 75.474 1.81205 0.720407 0
M  V30 762 O 74.744 1.23544 1.52032 0
M  V30 763 H 73.324 0.694101 -0.276102 0
M  V30 764 H 75.986 1.42793 -1.32651 0
M  V30 765 H 75.082 2.93328 -1.06606 0
M  V30 766 N 75.3831 0.828654 1.34056 0
M  V30 767 C 76.3301 0.252567 2.29414 0
M  V30 768 C 77.3001 -0.62588 1.53857 0
M  V30 769 O 78.4851 -0.566312 1.82202 0
M  V30 770 C 75.6251 -0.574831 3.40279 0
M  V30 771 C 74.7381 0.326499 4.30764 0
M  V30 772 C 73.8731 -0.511016 5.28736 0
M  V30 773 C 72.9121 0.389342 6.1086 0
M  V30 774 N 72.0491 -0.409439 7.00905 0
M  V30 775 H 76.8891 1.07108 2.78086 0
M  V30 776 H 74.4261 0.539677 1.36843 0
M  V30 777 H 76.3841 -1.06992 4.03248 0
M  V30 778 H 75.0141 -1.35841 2.92826 0
M  V30 779 H 74.0661 0.939837 3.68607 0
M  V30 780 H 75.3781 1.01857 4.88289 0
M  V30 781 H 74.5321 -1.07035 5.97184 0
M  V30 782 H 73.2711 -1.23657 4.71763 0
M  V30 783 H 72.2761 0.960769 5.4134 0
M  V30 784 H 73.5011 1.1131 6.69916 0
M  V30 785 H 71.4471 -1.11856 6.46393 0
M  V30 786 H 71.3641 0.224126 7.55668 0
M  V30 787 H 72.6321 -0.951336 7.73673 0
M  V30 788 N 76.8612 -1.46375 0.584142 0
M  V30 789 C 78.1072 -2.02678 0.0703716 0
M  V30 790 C 78.4402 -1.4545 -1.28678 0
M  V30 791 O 77.7152 -0.62014 -1.84349 0
M  V30 792 C 77.9982 -3.60099 0.00614674 0
M  V30 793 C 77.8512 -4.27709 1.3923 0
M  V30 794 C 79.1702 -4.34598 -0.693742 0
M  V30 795 H 76.2892 -0.736504 0.027047 0
M  V30 796 H 78.9312 -1.74501 0.751615 0
M  V30 797 H 77.0812 -3.84236 -0.574009 0
M  V30 798 H 78.7532 -4.14832 2.01773 0
M  V30 799 H 76.9962 -3.87016 1.95962 0
M  V30 800 H 77.6672 -5.36478 1.29982 0
M  V30 801 H 80.1432 -4.15615 -0.200869 0
M  V30 802 H 79.0192 -5.44318 -0.707714 0
M  V30 803 H 79.2802 -4.05759 -1.75533 0
M  V30 804 N 78.3393 -0.321999 -1.54275 0
M  V30 805 C 79.5643 0.285791 -2.05422 0
M  V30 806 C 79.9893 1.45124 -1.19669 0
M  V30 807 O 79.3473 1.80132 -0.205441 0
M  V30 808 C 79.3953 0.69956 -3.53749 0
M  V30 809 O 78.4993 1.8021 -3.70942 0
M  V30 810 H 77.8403 0.0518962 -0.661969 0
M  V30 811 H 80.3703 -0.469954 -1.9913 0
M  V30 812 H 80.3803 0.982649 -3.9599 0
M  V30 813 H 79.0553 -0.152864 -4.15619 0
M  V30 814 H 77.6323 1.51794 -3.40607 0
M  V30 815 N 79.8174 1.5752 -0.0501392 0
M  V30 816 C 80.7804 2.1037 0.909786 0
M  V30 817 C 81.7804 1.02308 1.24056 0
M  V30 818 O 82.9704 1.28385 1.17741 0
M  V30 819 C 80.1024 2.58708 2.21998 0
M  V30 820 H 81.2954 2.96479 0.451665 0
M  V30 821 H 78.8484 1.55038 0.198248 0
M  V30 822 H 79.5834 1.75989 2.72394 0
M  V30 823 H 79.3684 3.37675 1.99295 0
M  V30 824 H 80.8584 2.99747 2.9076 0
M  V30 825 N 81.2955 -0.223234 1.56011 0
M  V30 826 C 82.2585 -1.26014 1.9145 0
M  V30 827 C 83.2585 -1.3989 0.792937 0
M  V30 828 O 84.4485 -1.38184 1.0607 0
M  V30 829 C 81.5805 -2.63422 2.16383 0
M  V30 830 H 82.7735 -0.95796 2.84189 0
M  V30 831 H 80.3265 -0.463576 1.49267 0
M  V30 832 H 81.0615 -2.98741 1.2619 0
M  V30 833 H 80.8465 -2.54728 2.98088 0
M  V30 834 H 82.3365 -3.38249 2.44903 0
M  V30 835 N 82.7736 -1.49793 -0.48987 0
M  V30 836 C 83.7036 -1.70201 -1.59856 0
M  V30 837 C 84.6846 -0.55076 -1.60937 0
M  V30 838 O 85.8696 -0.787841 -1.77501 0
M  V30 839 C 82.9996 -1.77882 -2.98287 0
M  V30 840 C 81.9536 -2.92907 -3.12073 0
M  V30 841 C 81.2796 -2.85712 -4.51965 0
M  V30 842 C 82.5796 -4.3369 -2.91051 0
M  V30 843 H 84.2736 -2.63025 -1.43032 0
M  V30 844 H 81.8196 -1.26574 -0.686664 0
M  V30 845 H 83.7726 -1.90744 -3.75759 0
M  V30 846 H 82.4966 -0.816653 -3.16225 0
M  V30 847 H 81.1556 -2.79665 -2.37029 0
M  V30 848 H 80.8036 -1.8738 -4.66795 0
M  V30 849 H 80.5036 -3.62921 -4.62128 0
M  V30 850 H 82.0276 -3.00598 -5.31482 0
M  V30 851 H 83.4416 -4.47555 -3.58284 0
M  V30 852 H 81.8386 -5.12205 -3.12675 0
M  V30 853 H 82.9086 -4.47362 -1.87071 0
M  V30 854 N 84.2517 0.741722 -1.39055 0
M  V30 855 C 85.4997 1.49818 -1.35643 0
M  V30 856 C 85.8207 1.94938 0.0491642 0
M  V30 857 O 85.0907 1.68505 0.999141 0
M  V30 858 H 83.6707 0.555755 -0.499144 0
M  V30 859 H 86.3327 0.880957 -1.73854 0
M  V30 860 H 85.4287 2.38348 -2.01486 0
M  V30 861 N 85.7298 1.2412 0.971189 0
M  V30 862 C 86.9578 1.10575 1.74874 0
M  V30 863 C 87.3728 -0.342017 1.85676 0
M  V30 864 O 86.7298 -1.23617 1.34258 0
M  V30 865 C 86.7808 1.73579 3.171 0
M  V30 866 O 86.5018 3.12695 3.06844 0
M  V30 867 C 88.0028 1.65598 4.11208 0
M  V30 868 H 85.2228 0.386504 0.548503 0
M  V30 869 H 87.7668 1.64156 1.21955 0
M  V30 870 H 85.9218 1.24009 3.67016 0
M  V30 871 H 86.3358 3.43412 3.96445 0
M  V30 872 H 87.8098 2.1437 5.08674 0
M  V30 873 H 88.2868 0.616532 4.34851 0
M  V30 874 H 88.8928 2.14578 3.67201 0
M  V30 875 N 87.2079 -1.17134 1.05439 0
M  V30 876 C 88.1709 -2.19439 0.661764 0
M  V30 877 C 89.1709 -1.58199 -0.288042 0
M  V30 878 O 90.3609 -1.74053 -0.0715803 0
M  V30 879 C 87.4929 -3.40889 -0.0276209 0
M  V30 880 H 88.6859 -2.55688 1.56728 0
M  V30 881 H 86.2389 -1.31259 0.848567 0
M  V30 882 H 86.9739 -3.10187 -0.94629 0
M  V30 883 H 86.7589 -3.86586 0.655238 0
M  V30 884 H 88.2489 -4.16603 -0.288342 0
M  V30 885 N 88.686 -0.835752 -1.33615 0
M  V30 886 C 89.616 -0.281739 -2.31794 0
M  V30 887 C 90.597 0.608833 -1.58831 0
M  V30 888 O 91.782 0.533035 -1.86741 0
M  V30 889 C 88.912 0.546612 -3.42971 0
M  V30 890 C 87.866 -0.247904 -4.27281 0
M  V30 891 C 87.192 0.704001 -5.30045 0
M  V30 892 C 88.492 -1.46324 -5.01385 0
M  V30 893 H 90.186 -1.10206 -2.78379 0
M  V30 894 H 87.732 -0.531388 -1.33837 0
M  V30 895 H 89.685 0.944467 -4.1068 0
M  V30 896 H 88.409 1.40011 -2.95067 0
M  V30 897 H 87.068 -0.627281 -3.61194 0
M  V30 898 H 86.716 1.55381 -4.78399 0
M  V30 899 H 86.416 0.176524 -5.87335 0
M  V30 900 H 87.94 1.09944 -6.0062 0
M  V30 901 H 89.354 -1.13871 -5.61877 0
M  V30 902 H 87.751 -1.92728 -5.6831 0
M  V30 903 H 88.821 -2.23467 -4.30338 0
M  V30 904 N 90.1641 1.46063 -0.591896 0
M  V30 905 C 91.0941 2.33172 0.123673 0
M  V30 906 C 92.0751 1.45897 0.87453 0
M  V30 907 O 93.2601 1.74698 0.848181 0
M  V30 908 C 90.3901 3.28336 1.13194 0
M  V30 909 C 89.3441 4.25124 0.495324 0
M  V30 910 C 88.6701 5.09863 1.61071 0
M  V30 911 C 89.9701 5.19143 -0.573425 0
M  V30 912 H 91.6641 2.93252 -0.603646 0
M  V30 913 H 89.2101 1.41014 -0.291741 0
M  V30 914 H 91.1631 3.88137 1.64097 0
M  V30 915 H 89.8871 2.66383 1.88965 0
M  V30 916 H 88.5461 3.66599 0.00729452 0
M  V30 917 H 88.1941 4.44288 2.35832 0
M  V30 918 H 87.8941 5.75417 1.19035 0
M  V30 919 H 89.4181 5.72529 2.12233 0
M  V30 920 H 90.8321 5.73106 -0.1491 0
M  V30 921 H 89.2291 5.93089 -0.914636 0
M  V30 922 H 90.2991 4.62519 -1.45617 0
M  V30 923 N 91.6422 0.330177 1.54103 0
M  V30 924 C 92.8912 -0.271336 1.99867 0
M  V30 925 C 93.2042 -1.52723 1.22209 0
M  V30 926 O 94.4102 -2.20515 1.58383 0
M  V30 927 C 92.8662 -0.534032 3.55916 0
M  V30 928 C 92.4742 0.705193 4.42415 0
M  V30 929 C 94.2182 -1.09514 4.1013 0
M  V30 930 C 92.1252 0.414035 5.89949 0
M  V30 931 H 91.0552 -0.105166 0.74663 0
M  V30 932 H 93.7062 0.443429 1.78062 0
M  V30 933 H 92.0882 -1.30915 3.73734 0
M  V30 934 H 93.2622 1.4804 4.36372 0
M  V30 935 H 91.5772 1.18698 3.99124 0
M  V30 936 H 94.1742 -1.3277 5.17954 0
M  V30 937 H 94.5172 -2.04656 3.62521 0
M  V30 938 H 95.0502 -0.381038 3.95971 0
M  V30 939 H 91.7892 1.33481 6.41766 0
M  V30 940 H 91.3092 -0.323336 5.98928 0
M  V30 941 H 92.9882 0.0263105 6.46995 0
M  V30 942 N 93.1203 -1.57491 0.0584922 0
M  V30 943 C 94.3453 -1.97711 -0.62652 0
M  V30 944 C 94.7703 -0.936132 -1.63151 0
M  V30 945 O 94.1283 0.099811 -1.81025 0
M  V30 946 C 94.1763 -3.36989 -1.28338 0
M  V30 947 O 93.2803 -3.35433 -2.39913 0
M  V30 948 H 92.6213 -0.643868 -0.162266 0
M  V30 949 H 95.1513 -2.04193 0.129064 0
M  V30 950 H 95.1613 -3.73879 -1.63335 0
M  V30 951 H 93.8363 -4.12289 -0.546889 0
M  V30 952 H 92.4133 -3.10298 -2.06809 0
M  V30 953 N 94.5984 0.214957 -1.56127 0
M  V30 954 C 95.5304 1.29004 -1.89448 0
M  V30 955 C 96.5434 1.42716 -0.783326 0
M  V30 956 O 97.7324 1.43496 -1.06166 0
M  V30 957 C 94.8324 2.66482 -2.09381 0
M  V30 958 C 94.0054 2.74633 -3.40434 0
M  V30 959 C 93.0644 3.9317 -3.49719 0
M  V30 960 O 92.0904 3.812 -4.227 0
M  V30 961 N 93.2924 5.07765 -2.81346 0
M  V30 962 H 96.0574 1.00743 -2.82261 0
M  V30 963 H 93.6184 0.40497 -1.56753 0
M  V30 964 H 95.6104 3.44173 -2.12901 0
M  V30 965 H 94.1804 2.87314 -1.23163 0
M  V30 966 H 93.4004 1.83368 -3.48955 0
M  V30 967 H 94.6884 2.77054 -4.26754 0
M  V30 968 H 94.0864 5.20386 -2.21843 0
M  V30 969 H 92.6434 5.83474 -2.90519 0
M  V30 970 N 96.0765 1.50051 0.48192 0
M  V30 971 C 97.3065 1.63999 1.2565 0
M  V30 972 C 97.7145 0.318288 1.86504 0
M  V30 973 O 97.0575 -0.708534 1.69486 0
M  V30 974 C 97.1195 2.66504 2.4128 0
M  V30 975 C 96.7835 4.10352 2.01148 0
M  V30 976 C 97.7805 4.96562 1.54021 0
M  V30 977 C 95.4655 4.56203 2.10199 0
M  V30 978 C 97.4595 6.26668 1.16473 0
M  V30 979 C 95.1465 5.86318 1.72264 0
M  V30 980 C 96.1445 6.71375 1.25477 0
M  V30 981 O 95.8325 7.99062 0.880626 0
M  V30 982 H 95.5645 0.55456 0.386574 0
M  V30 983 H 98.1185 1.96954 0.582944 0
M  V30 984 H 96.3485 2.28769 3.11772 0
M  V30 985 H 98.0375 2.69783 3.03268 0
M  V30 986 H 98.8035 4.62358 1.46458 0
M  V30 987 H 94.6825 3.90152 2.45566 0
M  V30 988 H 98.2265 6.93011 0.798841 0
M  V30 989 H 94.1235 6.20046 1.79482 0
M  V30 990 H 94.8915 8.12239 1.01043 0
M  V30 991 N 97.5546 -0.734337 1.39446 0
M  V30 992 C 98.5176 -1.83004 1.37994 0
M  V30 993 C 99.5176 -1.58397 0.276938 0
M  V30 994 O 100.708 -1.65785 0.534875 0
M  V30 995 C 97.8396 -3.20802 1.1532 0
M  V30 996 H 99.0326 -1.85694 2.35494 0
M  V30 997 H 96.5856 -0.938059 1.25021 0
M  V30 998 H 97.3206 -3.23772 0.185036 0
M  V30 999 H 97.1056 -3.4006 1.95197 0
M  V30 1000 H 98.5956 -4.00862 1.17046 0
M  V30 1001 N 99.0327 -1.24633 -0.964593 0
M  V30 1002 C 100.444 -1.08045 -1.5226 0
M  V30 1003 C 100.795 0.347116 -1.93105 0
M  V30 1004 O 99.9197 1.23588 -1.77637 0
M  V30 1005 C 100.515 -1.95514 -2.76695 0
M  V30 1006 C 99.0737 -1.8314 -3.28841 0
M  V30 1007 C 98.2207 -1.90262 -2.01732 0
M  V30 1008 H 101.172 -1.38064 -0.782553 0
M  V30 1009 H 101.193 -1.48925 -3.50145 0
M  V30 1010 H 100.705 -2.99407 -2.46936 0
M  V30 1011 H 98.8057 -0.82092 -3.63444 0
M  V30 1012 H 98.9187 -2.67406 -3.97531 0
M  V30 1013 H 97.2827 -1.34027 -2.16584 0
M  V30 1014 H 98.0657 -2.9574 -1.74334 0
M  V30 1015 N 100.511 1.16574 -1.06058 0
M  V30 1016 C 101.788 1.83048 -0.689416 0
M  V30 1017 C 102.168 1.94122 0.829443 0
M  V30 1018 O 101.516 1.48249 1.7388 0
M  V30 1019 C 101.726 3.20186 -1.38859 0
M  V30 1020 C 103.074 3.95989 -1.53226 0
M  V30 1021 O 104.098 3.29696 -1.3483 0
M  V30 1022 O 102.957 5.14813 -1.83384 0
M  V30 1023 H 100.051 0.790258 -0.243764 0
M  V30 1024 H 102.597 1.23797 -1.16071 0
M  V30 1025 H 101.369 3.07146 -2.4244 0
M  V30 1026 H 100.992 3.87112 -0.907216 0
M  V30 1027 N 101.989 0.842826 1.3317 0
M  V30 1028 C 103.235 0.441099 1.97945 0
M  V30 1029 C 103.568 -0.998024 1.66593 0
M  V30 1030 O 102.843 -1.69839 0.947898 0
M  V30 1031 C 103.126 0.666841 3.53872 0
M  V30 1032 C 102.979 2.15352 3.94897 0
M  V30 1033 C 104.298 0.115544 4.39948 0
M  V30 1034 H 101.417 0.161739 0.719034 0
M  V30 1035 H 104.059 1.05907 1.57746 0
M  V30 1036 H 102.209 0.140828 3.88245 0
M  V30 1037 H 103.881 2.7447 3.70761 0
M  V30 1038 H 102.124 2.63653 3.44484 0
M  V30 1039 H 102.795 2.26221 5.03516 0
M  V30 1040 H 105.271 0.565213 4.12243 0
M  V30 1041 H 104.147 0.303152 5.48062 0
M  V30 1042 H 104.408 -0.980935 4.3108 0
M  V30 1043 N 103.467 -1.45747 0.599634 0
M  V30 1044 C 104.713 -2.02592 0.0918643 0
M  V30 1045 C 105.046 -1.46806 -1.27128 0
M  V30 1046 O 104.321 -0.639658 -1.83681 0
M  V30 1047 C 104.604 -3.60073 0.0443398 0
M  V30 1048 C 104.457 -4.26208 1.43759 0
M  V30 1049 C 105.776 -4.35309 -0.647608 0
M  V30 1050 H 102.895 -0.736175 0.034857 0
M  V30 1051 H 105.537 -1.73694 0.770081 0
M  V30 1052 H 103.687 -3.84823 -0.533224 0
M  V30 1053 H 105.359 -4.12668 2.06162 0
M  V30 1054 H 103.602 -3.84916 2.00056 0
M  V30 1055 H 104.273 -5.35069 1.35665 0
M  V30 1056 H 106.749 -4.15805 -0.156776 0
M  V30 1057 H 105.625 -5.45038 -0.649942 0
M  V30 1058 H 105.886 -4.07598 -1.71219 0
M  V30 1059 N 104.945 -0.338344 -1.53925 0
M  V30 1060 C 106.194 0.260732 -2.00008 0
M  V30 1061 C 106.507 1.52073 -1.23017 0
M  V30 1062 O 107.713 2.19672 -1.5955 0
M  V30 1063 C 106.169 0.51515 -3.56194 0
M  V30 1064 C 105.777 -0.728645 -4.42035 0
M  V30 1065 C 107.521 1.07337 -4.10706 0
M  V30 1066 C 105.428 -0.445315 -5.89721 0
M  V30 1067 H 104.358 0.101205 -0.747177 0
M  V30 1068 H 107.009 -0.452866 -1.77824 0
M  V30 1069 H 105.391 1.28932 -3.74423 0
M  V30 1070 H 106.565 -1.50352 -4.35581 0
M  V30 1071 H 104.88 -1.20813 -3.98489 0
M  V30 1072 H 107.477 1.30022 -5.18651 0
M  V30 1073 H 107.82 2.0273 -3.63602 0
M  V30 1074 H 108.353 0.360034 -3.96167 0
M  V30 1075 H 105.092 -1.36883 -6.41049 0
M  V30 1076 H 104.612 0.291569 -5.99091 0
M  V30 1077 H 106.291 -0.0606218 -6.46972 0
M  V30 1078 N 106.423 1.57458 -0.0668435 0
M  V30 1079 C 107.371 2.13639 0.919851 0
M  V30 1080 C 108.365 1.07204 1.31163 0
M  V30 1081 O 109.571 1.25591 1.28945 0
M  V30 1082 H 105.946 0.683048 0.314562 0
M  V30 1083 H 107.917 2.95415 0.421047 0
M  V30 1084 C 106.666 2.70892 2.17975 0
M  V30 1085 H 105.989 3.5246 1.88711 0
M  V30 1086 H 107.429 3.13803 2.85138 0
M  V30 1087 C 105.888 1.65414 2.93496 0
M  V30 1088 O 106.418 1.07619 3.87015 0
M  V30 1089 N 104.624 1.36564 2.56512 0
M  V30 1090 H 104.171 1.83751 1.80536 0
M  V30 1091 H 104.129 0.66223 3.07347 0
M  V30 1092 N 107.901 -0.206675 1.56239 0
M  V30 1093 C 109.129 -0.945345 1.8404 0
M  V30 1094 C 109.544 -1.77336 0.647885 0
M  V30 1095 O 108.901 -1.78425 -0.383511 0
M  V30 1096 C 108.952 -1.8509 3.10522 0
M  V30 1097 O 108.673 -1.05634 4.25174 0
M  V30 1098 C 110.174 -2.70222 3.51418 0
M  V30 1099 H 107.394 -0.276372 0.61144 0
M  V30 1100 H 109.938 -0.217417 2.03341 0
M  V30 1101 H 108.093 -2.53259 2.93153 0
M  V30 1102 H 108.507 -1.67238 4.97124 0
M  V30 1103 H 109.981 -3.29438 4.42916 0
M  V30 1104 H 110.458 -3.43358 2.73864 0
M  V30 1105 H 111.064 -2.07443 3.71278 0
M  V30 1106 N 109.379 -1.50304 -0.473955 0
M  V30 1107 C 110.627 -1.60832 -1.22382 0
M  V30 1108 C 110.948 -0.30939 -1.9253 0
M  V30 1109 O 110.218 0.67296 -1.83978 0
M  V30 1110 H 108.798 -0.592652 -0.454723 0
M  V30 1111 H 111.46 -1.87068 -0.546968 0
M  V30 1112 H 110.556 -2.41803 -1.97327 0
M  V30 1113 N 110.857 0.726932 -1.39834 0
M  V30 1114 C 112.082 1.52121 -1.40976 0
M  V30 1115 C 112.507 1.88098 -0.00826029 0
M  V30 1116 O 111.865 1.52479 0.980807 0
M  V30 1117 C 111.913 2.78021 -2.29644 0
M  V30 1118 O 111.017 3.74272 -1.73188 0
M  V30 1119 H 110.358 0.45908 -0.479731 0
M  V30 1120 H 112.888 0.896207 -1.83927 0
M  V30 1121 H 112.898 3.26671 -2.44438 0
M  V30 1122 H 111.573 2.51169 -3.31492 0
M  V30 1123 H 110.15 3.33073 -1.6768 0
M  V30 1124 N 112.336 1.25143 0.95797 0
M  V30 1125 C 113.299 1.05321 2.03569 0
M  V30 1126 C 114.299 0.007152 1.60798 0
M  V30 1127 O 115.489 0.24903 1.72411 0
M  V30 1128 C 112.621 0.598394 3.35607 0
M  V30 1129 H 113.814 2.00986 2.22586 0
M  V30 1130 H 111.367 1.07502 1.13459 0
M  V30 1131 H 112.102 -0.361014 3.22284 0
M  V30 1132 H 111.887 1.35351 3.67998 0
M  V30 1133 H 113.377 0.48104 4.1482 0
M  V30 1134 N 113.814 -1.1601 1.06675 0
M  V30 1135 C 115.062 -1.86264 0.784229 0
M  V30 1136 C 115.383 -1.82328 -0.691488 0
M  V30 1137 O 114.653 -1.25947 -1.50047 0
M  V30 1138 H 113.233 -0.689621 0.28711 0
M  V30 1139 H 115.895 -1.40664 1.34906 0
M  V30 1140 H 114.991 -2.91595 1.11259 0
M  V30 1141 N 115.292 -0.849877 -1.32721 0
M  V30 1142 C 116.54 -0.450032 -1.97026 0
M  V30 1143 C 116.861 0.996604 -1.67609 0
M  V30 1144 O 116.131 1.6958 -0.980786 0
M  V30 1145 H 114.711 -0.163426 -0.728904 0
M  V30 1146 H 117.373 -1.08526 -1.6189 0
M  V30 1147 H 116.469 -0.591146 -3.0645 0
M  V30 1148 N 116.77 1.45427 -0.607355 0
M  V30 1149 C 118.017 2.02241 -0.102455 0
M  V30 1150 C 118.345 1.4758 1.26691 0
M  V30 1151 O 117.6 0.640468 1.84923 0
M  V30 1152 C 117.899 3.57398 -0.0129263 0
M  V30 1153 C 117.565 4.3121 -1.31792 0
M  V30 1154 C 116.227 4.51092 -1.67539 0
M  V30 1155 C 118.579 4.73401 -2.18039 0
M  V30 1156 C 115.907 5.10422 -2.89285 0
M  V30 1157 C 118.259 5.34078 -3.39034 0
M  V30 1158 C 116.923 5.52184 -3.75033 0
M  V30 1159 H 116.193 0.740051 -0.037491 0
M  V30 1160 H 118.84 1.74494 -0.788926 0
M  V30 1161 H 117.145 3.84421 0.756806 0
M  V30 1162 H 118.842 3.99061 0.393881 0
M  V30 1163 H 115.432 4.16047 -1.02968 0
M  V30 1164 H 119.616 4.57774 -1.91721 0
M  V30 1165 H 114.872 5.22629 -3.17283 0
M  V30 1166 H 119.046 5.65724 -4.06115 0
M  V30 1167 H 116.673 5.97925 -4.69457 0
M  V30 1168 N 118.248 0.346503 1.53744 0
M  V30 1169 C 119.525 -0.304532 1.93215 0
M  V30 1170 C 119.905 -1.67993 1.27834 0
M  V30 1171 O 119.253 -2.24411 0.430352 0
M  V30 1172 C 119.463 -0.373852 3.46992 0
M  V30 1173 C 120.811 -0.62329 4.2 0
M  V30 1174 O 121.835 -0.455847 3.53271 0
M  V30 1175 O 120.694 -0.947879 5.38217 0
M  V30 1176 H 117.788 -0.178318 0.807547 0
M  V30 1177 H 120.334 0.397895 1.64969 0
M  V30 1178 H 119.106 0.591224 3.86808 0
M  V30 1179 H 118.729 -1.12294 3.81413 0
M  V30 1180 N 119.726 -1.57421 0.075193 0
M  V30 1181 C 120.689 -2.11791 -0.876203 0
M  V30 1182 C 121.689 -1.04268 -1.22412 0
M  V30 1183 O 122.879 -1.30242 -1.15684 0
M  V30 1184 C 120.011 -2.62207 -2.17854 0
M  V30 1185 H 121.204 -2.9716 -0.40444 0
M  V30 1186 H 118.757 -1.55333 -0.173557 0
M  V30 1187 H 119.492 -1.803 -2.6956 0
M  V30 1188 H 119.277 -3.40802 -1.93897 0
M  V30 1189 H 120.767 -3.04335 -2.85955 0
M  V30 1190 N 121.204 0.198386 -1.56346 0
M  V30 1191 C 122.429 0.939682 -1.84891 0
M  V30 1192 C 122.854 1.76202 -0.658369 0
M  V30 1193 O 122.212 1.76993 0.392851 0
M  V30 1194 C 122.26 1.81428 -3.11635 0
M  V30 1195 O 121.364 2.91265 -2.91956 0
M  V30 1196 H 120.705 0.264807 -0.608912 0
M  V30 1197 H 123.235 0.204695 -2.03573 0
M  V30 1198 H 123.245 2.21958 -3.42343 0
M  V30 1199 H 121.92 1.21004 -3.97908 0
M  V30 1200 H 120.497 2.54514 -2.72538 0
M  V30 1201 N 122.682 1.50554 0.465978 0
M  V30 1202 C 123.612 1.72722 1.57128 0
M  V30 1203 C 124.593 0.576294 1.6004 0
M  V30 1204 O 125.778 0.81598 1.76225 0
M  V30 1205 C 122.908 1.82605 2.95419 0
M  V30 1206 C 121.862 2.97835 3.07373 0
M  V30 1207 C 121.188 2.92867 4.47363 0
M  V30 1208 C 122.488 4.38265 2.84114 0
M  V30 1209 H 124.182 2.65267 1.38829 0
M  V30 1210 H 121.728 1.2765 0.666441 0
M  V30 1211 H 123.681 1.96698 3.72677 0
M  V30 1212 H 122.405 0.866858 3.14886 0
M  V30 1213 H 121.064 2.83401 2.3255 0
M  V30 1214 H 120.712 1.94783 4.63755 0
M  V30 1215 H 120.412 3.70227 4.56296 0
M  V30 1216 H 121.936 3.09015 5.26633 0
M  V30 1217 H 123.35 4.53198 3.51118 0
M  V30 1218 H 121.747 5.17115 3.04487 0
M  V30 1219 H 122.817 4.50281 1.7993 0
M  V30 1220 N 124.16 -0.719506 1.40217 0
M  V30 1221 C 125.108 -1.85493 1.40339 0
M  V30 1222 C 126.102 -1.66995 0.284415 0
M  V30 1223 O 127.308 -1.74148 0.455252 0
M  V30 1224 H 123.683 -0.610857 0.438586 0
M  V30 1225 H 125.654 -1.82506 2.36081 0
M  V30 1226 C 124.403 -3.23321 1.27901 0
M  V30 1227 H 123.726 -3.38159 2.1328 0
M  V30 1228 H 125.166 -4.02914 1.32045 0
M  V30 1229 C 123.625 -3.36898 -0.0111355 0
M  V30 1230 O 124.155 -3.89674 -0.975538 0
M  V30 1231 N 122.361 -2.90492 -0.0793393 0
M  V30 1232 H 121.908 -2.47731 0.706183 0
M  V30 1233 H 121.866 -2.99955 -0.942038 0
M  V30 1234 N 125.638 -1.25649 -0.95132 0
M  V30 1235 C 126.884 -1.10757 -1.69884 0
M  V30 1236 C 127.217 0.350061 -1.91019 0
M  V30 1237 O 126.492 1.25783 -1.48354 0
M  V30 1238 C 126.775 -1.86606 -3.07978 0
M  V30 1239 C 126.628 -3.40217 -2.94232 0
M  V30 1240 C 127.947 -1.65182 -4.07925 0
M  V30 1241 H 125.066 -0.40374 -0.616574 0
M  V30 1242 H 127.708 -1.54521 -1.10558 0
M  V30 1243 H 125.858 -1.49409 -3.58621 0
M  V30 1244 H 127.53 -3.87108 -2.50889 0
M  V30 1245 H 125.773 -3.67759 -2.30078 0
M  V30 1246 H 126.444 -3.88505 -3.92133 0
M  V30 1247 H 128.92 -1.9757 -3.66204 0
M  V30 1248 H 127.796 -2.20683 -5.02583 0
M  V30 1249 H 128.057 -0.593933 -4.38092 0
M  V30 1250 N 127.117 1.15442 -1.07289 0
M  V30 1251 C 128.365 1.85845 -0.794096 0
M  V30 1252 C 128.686 1.82692 0.681809 0
M  V30 1253 O 127.956 1.26741 1.49377 0
M  V30 1254 H 126.536 0.688089 -0.290763 0
M  V30 1255 H 129.198 1.39947 -1.3565 0
M  V30 1256 H 128.294 2.91001 -1.12804 0
M  V30 1257 N 128.595 0.856903 1.32268 0
M  V30 1258 C 129.872 0.382583 1.91822 0
M  V30 1259 C 130.252 -1.13407 1.78051 0
M  V30 1260 O 129.6 -1.95673 1.18001 0
M  V30 1261 C 129.81 0.849446 3.38505 0
M  V30 1262 C 131.158 0.867936 4.15634 0
M  V30 1263 O 132.182 0.794232 3.47232 0
M  V30 1264 O 131.041 0.972286 5.37781 0
M  V30 1265 H 128.135 0.112014 0.819379 0
M  V30 1266 H 130.681 0.943952 1.41024 0
M  V30 1267 H 129.453 1.89267 3.42482 0
M  V30 1268 H 129.076 0.265652 3.96712 0
M  V30 1269 N 130.073 -1.45103 0.615059 0
M  V30 1270 C 131.319 -2.02483 0.113347 0
M  V30 1271 C 131.652 -1.48146 -1.25564 0
M  V30 1272 O 130.927 -0.659104 -1.82992 0
M  V30 1273 C 131.21 -3.60005 0.0825278 0
M  V30 1274 C 131.063 -4.2466 1.48271 0
M  V30 1275 C 132.382 -4.35972 -0.601401 0
M  V30 1276 H 129.501 -0.735764 0.0426632 0
M  V30 1277 H 132.143 -1.72868 0.788461 0
M  V30 1278 H 130.293 -3.85367 -0.492378 0
M  V30 1279 H 131.965 -4.10458 2.10527 0
M  V30 1280 H 130.208 -3.82772 2.04127 0
M  V30 1281 H 130.879 -5.336 1.41332 0
M  V30 1282 H 133.355 -4.15947 -0.112666 0
M  V30 1283 H 132.231 -5.45697 -0.592097 0
M  V30 1284 H 132.492 -4.09391 -1.66887 0
M  V30 1285 N 131.551 -0.354651 -1.53558 0
M  V30 1286 C 132.797 0.238797 -2.01389 0
M  V30 1287 C 133.13 1.49309 -1.2418 0
M  V30 1288 O 132.405 1.91638 -0.332457 0
M  V30 1289 C 132.688 0.541771 -3.56001 0
M  V30 1290 C 132.541 -0.725388 -4.43912 0
M  V30 1291 C 133.86 1.34685 -4.18984 0
M  V30 1292 H 130.979 0.0853177 -0.732045 0
M  V30 1293 H 133.621 -0.477384 -1.83905 0
M  V30 1294 H 131.771 1.15189 -3.71031 0
M  V30 1295 H 133.443 -1.36313 -4.407 0
M  V30 1296 H 131.686 -1.34801 -4.12324 0
M  V30 1297 H 132.357 -0.468505 -5.50008 0
M  V30 1298 H 134.833 0.830837 -4.07721 0
M  V30 1299 H 133.709 1.52759 -5.27215 0
M  V30 1300 H 133.97 2.35221 -3.74331 0
M  V30 1301 N 133.029 1.57378 -0.0835403 0
M  V30 1302 C 134.278 1.93106 0.582498 0
M  V30 1303 C 134.591 0.96651 1.70053 0
M  V30 1304 O 135.797 1.21705 2.42693 0
M  V30 1305 C 134.253 3.43076 1.08751 0
M  V30 1306 C 133.861 4.48 -0.000146404 0
M  V30 1307 C 135.605 3.87785 1.72694 0
M  V30 1308 C 133.512 5.89113 0.519568 0
M  V30 1309 H 132.442 0.720775 0.221358 0
M  V30 1310 H 135.093 1.82821 -0.157675 0
M  V30 1311 H 133.475 3.48474 1.88101 0
M  V30 1312 H 134.649 4.54233 -0.775199 0
M  V30 1313 H 132.964 4.1283 -0.54406 0
M  V30 1314 H 135.561 4.90604 2.1263 0
M  V30 1315 H 135.904 3.25796 2.59158 0
M  V30 1316 H 136.437 3.8504 0.999457 0
M  V30 1317 H 133.176 6.54775 -0.308186 0
M  V30 1318 H 132.696 5.86376 1.26188 0
M  V30 1319 H 134.375 6.39346 0.992237 0
M  V30 1320 N 134.507 -0.190092 1.56449 0
M  V30 1321 C 135.732 -0.929864 1.85387 0
M  V30 1322 C 136.157 -1.7585 0.667704 0
M  V30 1323 O 135.515 -1.77198 -0.383459 0
M  V30 1324 C 135.563 -1.79773 3.12593 0
M  V30 1325 O 134.667 -2.89713 2.93496 0
M  V30 1326 H 134.008 -0.261574 0.610307 0
M  V30 1327 H 136.538 -0.193896 2.03679 0
M  V30 1328 H 136.548 -2.20139 3.43515 0
M  V30 1329 H 135.223 -1.18892 3.98544 0
M  V30 1330 H 133.8 -2.53065 2.73884 0
M  V30 1331 N 135.985 -1.50799 -0.457987 0
M  V30 1332 C 137.21 -1.66496 -1.23668 0
M  V30 1333 C 137.635 -0.353288 -1.84752 0
M  V30 1334 O 136.993 0.684346 -1.67888 0
M  V30 1335 C 137.041 -2.76763 -2.3116 0
M  V30 1336 O 136.145 -2.38928 -3.36136 0
M  V30 1337 H 135.486 -0.555828 -0.363252 0
M  V30 1338 H 138.016 -1.9725 -0.543474 0
M  V30 1339 H 138.026 -3.00232 -2.76269 0
M  V30 1340 H 136.701 -3.71954 -1.86073 0
M  V30 1341 H 135.278 -2.25953 -2.96647 0
M  V30 1342 N 137.463 0.71206 -1.40597 0
M  V30 1343 C 138.373 1.8562 -1.43466 0
M  V30 1344 C 139.389 1.70902 -0.326902 0
M  V30 1345 O 140.565 1.93105 -0.572043 0
M  V30 1346 C 137.63 3.21451 -1.29884 0
M  V30 1347 C 136.691 3.48398 -2.50833 0
M  V30 1348 C 135.924 4.77749 -2.3789 0
M  V30 1349 O 136.147 5.53089 -1.39459 0
M  V30 1350 O 135.081 5.05111 -3.27333 0
M  V30 1351 H 138.907 1.86155 -2.39958 0
M  V30 1352 H 136.492 0.86295 -1.21957 0
M  V30 1353 H 138.374 4.02579 -1.24531 0
M  V30 1354 H 137.049 3.21636 -0.364997 0
M  V30 1355 H 135.956 2.67265 -2.61763 0
M  V30 1356 H 137.289 3.53014 -3.4299 0
M  V30 1357 N 138.941 1.26152 0.944643 0
M  V30 1358 C 140.187 1.11657 1.69294 0
M  V30 1359 C 140.52 -0.339926 1.91202 0
M  V30 1360 O 139.795 -1.24994 1.49019 0
M  V30 1361 C 140.078 1.88236 3.06984 0
M  V30 1362 C 139.931 3.41772 2.92424 0
M  V30 1363 C 141.25 1.67343 4.07043 0
M  V30 1364 H 138.369 0.407004 0.614424 0
M  V30 1365 H 141.011 1.55106 1.09737 0
M  V30 1366 H 139.161 1.51308 3.57824 0
M  V30 1367 H 140.833 3.88433 2.48832 0
M  V30 1368 H 139.076 3.68974 2.28124 0
M  V30 1369 H 139.747 3.90579 3.90067 0
M  V30 1370 H 142.223 1.99509 3.65151 0
M  V30 1371 H 141.099 2.23346 5.01406 0
M  V30 1372 H 141.36 0.617158 4.37771 0
M  V30 1373 N 140.419 -1.14872 1.07899 0
M  V30 1374 C 141.835 -1.37776 0.805606 0
M  V30 1375 C 142.035 -1.92743 -0.587555 0
M  V30 1376 O 141.091 -2.13678 -1.34528 0
M  V30 1377 C 142.404 -2.34361 1.88402 0
M  V30 1378 C 143.952 -2.48012 1.90942 0
M  V30 1379 C 144.427 -3.47893 2.97883 0
M  V30 1380 N 145.918 -3.55433 2.97021 0
M  V30 1381 C 146.653 -4.32553 3.76412 0
M  V30 1382 N 146.149 -5.12959 4.65666 0
M  V30 1383 N 147.942 -4.27697 3.64735 0
M  V30 1384 H 140.093 -0.775365 1.97742 0
M  V30 1385 H 142.356 -0.403521 0.857831 0
M  V30 1386 H 142.062 -2.01098 2.88535 0
M  V30 1387 H 141.936 -3.34206 1.74889 0
M  V30 1388 H 144.323 -2.8057 0.914579 0
M  V30 1389 H 144.404 -1.48147 2.08534 0
M  V30 1390 H 144.048 -3.16069 3.97571 0
M  V30 1391 H 143.978 -4.47527 2.77538 0
M  V30 1392 H 146.469 -2.98048 2.32326 0
M  V30 1393 H 146.782 -5.69065 5.22862 0
M  V30 1394 H 145.127 -5.12245 4.69712 0
M  V30 1395 H 148.318 -3.63949 2.94378 0
M  V30 1396 H 148.491 -4.8755 4.26848 0
M  V30 1397 N 141.898 -0.863906 -1.31812 0
M  V30 1398 C 142.848 -0.286898 -2.26188 0
M  V30 1399 C 143.832 0.572577 -1.50367 0
M  V30 1400 O 145.024 0.420447 -1.71934 0
M  V30 1401 C 142.153 0.515849 -3.39402 0
M  V30 1402 C 141.239 -0.356531 -4.22599 0
M  V30 1403 N 141.63 -1.44716 -4.84656 0
M  V30 1404 C 139.928 -0.147898 -4.45755 0
M  V30 1405 C 140.629 -1.98462 -5.46798 0
M  V30 1406 N 139.605 -1.28247 -5.28255 0
M  V30 1407 H 143.407 -1.12055 -2.717 0
M  V30 1408 H 140.921 -0.711012 -1.46008 0
M  V30 1409 H 142.918 0.945701 -4.06032 0
M  V30 1410 H 141.578 1.34718 -2.95434 0
M  V30 1411 H 142.589 -1.83008 -4.84488 0
M  V30 1412 H 139.266 0.647973 -4.12441 0
M  V30 1413 H 140.656 -2.89932 -6.06126 0
M  V30 1414 N 143.376 1.44774 -0.622745 0
M  V30 1415 C 144.326 2.2774 0.108889 0
M  V30 1416 C 145.31 1.38189 0.824175 0
M  V30 1417 O 146.502 1.62063 0.711664 0
M  V30 1418 C 143.631 3.25353 1.09546 0
M  V30 1419 C 142.717 4.22392 0.380232 0
M  V30 1420 N 143.108 5.02388 -0.586535 0
M  V30 1421 C 141.406 4.41588 0.625792 0
M  V30 1422 C 142.107 5.72894 -1.00834 0
M  V30 1423 N 141.083 5.42479 -0.348878 0
M  V30 1424 H 144.885 2.86993 -0.63341 0
M  V30 1425 H 142.399 1.5611 -0.447589 0
M  V30 1426 H 144.396 3.83538 1.63414 0
M  V30 1427 H 143.056 2.6766 1.83815 0
M  V30 1428 H 144.067 5.0885 -0.963975 0
M  V30 1429 H 140.744 3.95003 1.352 0
M  V30 1430 H 142.134 6.47158 -1.80656 0
M  V30 1431 N 144.854 0.36279 1.53368 0
M  V30 1432 C 146.131 -0.284021 1.93527 0
M  V30 1433 C 146.511 -1.66628 1.29608 0
M  V30 1434 O 145.859 -2.23942 0.45413 0
M  V30 1435 C 146.069 -0.337028 3.47369 0
M  V30 1436 C 147.417 -0.578708 4.20638 0
M  V30 1437 O 148.441 -0.418352 3.53735 0
M  V30 1438 O 147.3 -0.89074 5.39192 0
M  V30 1439 H 144.394 -0.169743 0.809393 0
M  V30 1440 H 146.94 0.41537 1.64538 0
M  V30 1441 H 145.712 0.632217 3.86159 0
M  V30 1442 H 145.335 -1.08243 3.82582 0
M  V30 1443 N 146.332 -1.57332 0.0918853 0
M  V30 1444 C 147.295 -2.12708 -0.85369 0
M  V30 1445 C 148.295 -1.05561 -1.213 0
M  V30 1446 O 149.485 -1.31461 -1.14296 0
M  V30 1447 C 146.617 -2.64503 -2.15061 0
M  V30 1448 H 147.81 -2.97573 -0.3729 0
M  V30 1449 H 145.363 -1.55509 -0.157072 0
M  V30 1450 H 146.098 -1.83149 -2.67632 0
M  V30 1451 H 145.883 -3.4284 -1.90272 0
M  V30 1452 H 147.373 -3.07351 -2.82711 0
M  V30 1453 N 147.81 0.181792 -1.56548 0
M  V30 1454 C 149.087 0.926765 -1.72251 0
M  V30 1455 C 149.467 2.00831 -0.650386 0
M  V30 1456 O 148.815 2.26008 0.336521 0
M  V30 1457 C 149.025 1.50106 -3.1507 0
M  V30 1458 C 150.373 1.97805 -3.75711 0
M  V30 1459 O 151.397 1.59922 -3.18282 0
M  V30 1460 O 150.256 2.67555 -4.76525 0
M  V30 1461 H 147.35 0.435506 -0.703039 0
M  V30 1462 H 149.896 0.170443 -1.68842 0
M  V30 1463 H 148.668 0.72212 -3.84579 0
M  V30 1464 H 148.291 2.32186 -3.22763 0
M  V30 1465 N 149.288 1.51039 0.449983 0
M  V30 1466 C 150.534 1.63322 1.20223 0
M  V30 1467 C 150.867 0.34241 1.91158 0
M  V30 1468 O 150.142 -0.657344 1.83055 0
M  V30 1469 C 150.425 2.82801 2.22925 0
M  V30 1470 C 150.278 4.21823 1.56157 0
M  V30 1471 C 151.597 2.97807 3.24035 0
M  V30 1472 H 148.716 0.594407 0.435718 0
M  V30 1473 H 151.358 1.83489 0.493136 0
M  V30 1474 H 149.508 2.65738 2.834 0
M  V30 1475 H 151.18 4.50526 0.991162 0
M  V30 1476 H 149.423 4.25105 0.864172 0
M  V30 1477 H 150.094 5.01391 2.30891 0
M  V30 1478 H 152.57 3.13497 2.73603 0
M  V30 1479 H 151.446 3.82992 3.93202 0
M  V30 1480 H 151.707 2.09328 3.89402 0
M  V30 1481 N 150.766 -0.704594 1.40972 0
M  V30 1482 C 151.994 -1.49354 1.43182 0
M  V30 1483 C 152.409 -1.88768 0.0345508 0
M  V30 1484 O 151.766 -1.56184 -0.944081 0
M  V30 1485 C 151.817 -2.76187 2.33244 0
M  V30 1486 O 151.538 -2.38436 3.67532 0
M  V30 1487 C 153.039 -3.7 2.44162 0
M  V30 1488 H 150.259 -0.460559 0.487982 0
M  V30 1489 H 152.803 -0.868261 1.85153 0
M  V30 1490 H 150.958 -3.34974 1.94606 0
M  V30 1491 H 151.372 -3.20126 4.15475 0
M  V30 1492 H 152.846 -4.55803 3.11364 0
M  V30 1493 H 153.323 -4.13867 1.47006 0
M  V30 1494 H 153.929 -3.17121 2.83398 0
M  V30 1495 N 152.244 -1.26651 -0.937939 0
M  V30 1496 C 153.207 -1.08546 -2.01867 0
M  V30 1497 C 154.207 -0.0327327 -1.60767 0
M  V30 1498 O 155.397 -0.276427 -1.71993 0
M  V30 1499 C 152.529 -0.651711 -3.34613 0
M  V30 1500 H 153.722 -2.04502 -2.1936 0
M  V30 1501 H 151.275 -1.09294 -1.11734 0
M  V30 1502 H 152.01 0.309696 -3.22818 0
M  V30 1503 H 151.795 -1.41189 -3.65798 0
M  V30 1504 H 153.285 -0.546973 -4.14002 0
M  V30 1505 N 153.722 1.14298 -1.08507 0
M  V30 1506 C 154.969 1.85359 -0.815373 0
M  V30 1507 C 155.297 1.83001 0.658865 0
M  V30 1508 O 154.552 1.25655 1.50031 0
M  V30 1509 C 154.851 3.33547 -1.28379 0
M  V30 1510 C 154.517 3.56093 -2.76602 0
M  V30 1511 C 153.179 3.61955 -3.17084 0
M  V30 1512 C 155.531 3.64834 -3.72217 0
M  V30 1513 C 152.859 3.74082 -4.51973 0
M  V30 1514 C 155.211 3.78487 -5.06883 0
M  V30 1515 C 153.875 3.82598 -5.46969 0
M  V30 1516 H 153.145 0.678276 -0.298366 0
M  V30 1517 H 155.792 1.35002 -1.35819 0
M  V30 1518 H 154.097 3.86191 -0.660593 0
M  V30 1519 H 155.794 3.86959 -1.05186 0
M  V30 1520 H 152.384 3.52179 -2.4427 0
M  V30 1521 H 156.568 3.59595 -3.42061 0
M  V30 1522 H 151.824 3.75527 -4.82483 0
M  V30 1523 H 155.998 3.84193 -5.80834 0
M  V30 1524 H 153.625 3.91747 -6.51489 0
M  V30 1525 N 155.201 0.870884 1.31352 0
M  V30 1526 C 156.449 0.48132 1.96285 0
M  V30 1527 C 156.77 -0.969813 1.69173 0
M  V30 1528 O 156.04 -1.67998 1.00764 0
M  V30 1529 H 154.62 0.175002 0.726212 0
M  V30 1530 H 157.282 1.11087 1.60143 0
M  V30 1531 H 156.378 0.639825 3.05471 0
M  V30 1532 N 156.679 -1.44442 0.630414 0
M  V30 1533 C 157.909 -2.06115 0.141465 0
M  V30 1534 C 158.317 -1.47179 -1.1889 0
M  V30 1535 O 157.66 -0.588873 -1.74006 0
M  V30 1536 C 157.722 -3.59467 -0.0484355 0
M  V30 1537 C 157.386 -4.40864 1.20366 0
M  V30 1538 C 158.383 -4.74391 2.12719 0
M  V30 1539 C 156.068 -4.8125 1.43887 0
M  V30 1540 C 158.062 -5.47186 3.26904 0
M  V30 1541 C 155.749 -5.53795 2.5837 0
M  V30 1542 C 156.747 -5.86682 3.49705 0
M  V30 1543 O 156.435 -6.57749 4.62191 0
M  V30 1544 H 156.167 -0.671648 0.0765792 0
M  V30 1545 H 158.721 -1.86312 0.864695 0
M  V30 1546 H 156.951 -3.77758 -0.826803 0
M  V30 1547 H 158.64 -4.02909 -0.491849 0
M  V30 1548 H 159.406 -4.43728 1.95781 0
M  V30 1549 H 155.285 -4.55073 0.736853 0
M  V30 1550 H 158.829 -5.72773 3.98217 0
M  V30 1551 H 154.726 -5.83872 2.75251 0
M  V30 1552 H 155.494 -6.76217 4.61164 0
M  V30 1553 N 158.157 -0.370918 -1.53173 0
M  V30 1554 C 159.067 0.480823 -2.2962 0
M  V30 1555 C 160.083 1.08789 -1.35798 0
M  V30 1556 O 161.259 1.09768 -1.68858 0
M  V30 1557 C 158.324 1.60227 -3.07454 0
M  V30 1558 C 157.385 1.0222 -4.16953 0
M  V30 1559 C 156.618 2.0902 -4.91066 0
M  V30 1560 O 156.841 3.30222 -4.65091 0
M  V30 1561 O 155.775 1.71778 -5.76867 0
M  V30 1562 H 159.601 -0.141421 -3.03371 0
M  V30 1563 H 157.186 -0.135146 -1.48787 0
M  V30 1564 H 159.068 2.25417 -3.56041 0
M  V30 1565 H 157.743 2.20982 -2.36535 0
M  V30 1566 H 156.65 0.334064 -3.72605 0
M  V30 1567 H 157.983 0.459131 -4.90054 0
M  V30 1568 N 159.635 1.57281 -0.100228 0
M  V30 1569 C 160.884 1.93713 0.561984 0
M  V30 1570 C 161.197 0.984492 1.69018 0
M  V30 1571 O 162.403 1.24273 2.41389 0
M  V30 1572 C 160.859 3.4421 1.05106 0
M  V30 1573 C 160.467 4.47975 -0.0476628 0
M  V30 1574 C 162.211 3.89595 1.68571 0
M  V30 1575 C 160.118 5.89631 0.457055 0
M  V30 1576 H 159.048 0.723082 0.2137 0
M  V30 1577 H 161.699 1.82644 -0.177057 0
M  V30 1578 H 160.081 3.50449 1.84395 0
M  V30 1579 H 161.255 4.53385 -0.823333 0
M  V30 1580 H 159.57 4.1223 -0.587816 0
M  V30 1581 H 162.167 4.92832 2.07414 0
M  V30 1582 H 162.51 3.28526 2.55688 0
M  V30 1583 H 163.043 3.86078 0.958562 0
M  V30 1584 H 159.782 6.54411 -0.377616 0
M  V30 1585 H 159.302 5.87681 1.19962 0
M  V30 1586 H 160.981 6.40363 0.92437 0
M  V30 1587 N 161.113 -0.173488 1.56642 0
M  V30 1588 C 162.361 -0.888706 1.81512 0
M  V30 1589 C 162.682 -1.82875 0.676872 0
M  V30 1590 O 161.952 -1.93536 -0.303414 0
M  V30 1591 H 160.532 -0.331164 0.669582 0
M  V30 1592 H 163.194 -0.173823 1.94123 0
M  V30 1593 H 162.29 -1.46691 2.75478 0
M  V30 1594 N 162.591 -1.51276 -0.441967 0
M  V30 1595 C 163.523 -1.68444 -1.55433 0
M  V30 1596 C 164.536 -0.565187 -1.52674 0
M  V30 1597 O 165.725 -0.839356 -1.57534 0
M  V30 1598 C 162.825 -1.67966 -2.94348 0
M  V30 1599 C 161.998 -2.964 -3.21661 0
M  V30 1600 C 161.057 -2.88171 -4.40277 0
M  V30 1601 O 160.083 -3.62119 -4.39157 0
M  V30 1602 N 161.285 -2.03706 -5.43584 0
M  V30 1603 H 164.05 -2.644 -1.41112 0
M  V30 1604 H 161.611 -1.49104 -0.630838 0
M  V30 1605 H 163.603 -1.60035 -3.71713 0
M  V30 1606 H 162.173 -0.796225 -3.0229 0
M  V30 1607 H 161.393 -3.18234 -2.32638 0
M  V30 1608 H 162.681 -3.81427 -3.36736 0
M  V30 1609 H 162.079 -1.42995 -5.47329 0
M  V30 1610 H 160.636 -2.01658 -6.1982 0
M  V30 1611 N 164.069 0.697108 -1.41344 0
M  V30 1612 C 165.002 1.82134 -1.37486 0
M  V30 1613 C 165.98 1.60784 -0.242351 0
M  V30 1614 O 167.164 1.83553 -0.429012 0
M  V30 1615 C 164.291 3.18788 -1.14421 0
M  V30 1616 C 163.337 3.58932 -2.3037 0
M  V30 1617 S 164.17 3.63916 -3.92843 0
M  V30 1618 C 165.326 5.03298 -3.72078 0
M  V30 1619 H 165.559 1.85129 -2.32625 0
M  V30 1620 H 163.092 0.865671 -1.2785 0
M  V30 1621 H 165.05 3.97677 -1.018 0
M  V30 1622 H 163.711 3.13404 -0.20905 0
M  V30 1623 H 162.904 4.58202 -2.09922 0
M  V30 1624 H 162.506 2.87347 -2.39391 0
M  V30 1625 H 164.798 5.90753 -3.31688 0
M  V30 1626 H 165.741 5.28788 -4.70945 0
M  V30 1627 H 166.149 4.74764 -3.05384 0
M  V30 1628 N 165.547 1.27147 0.931209 0
M  V30 1629 C 166.51 1.09615 2.01289 0
M  V30 1630 C 167.51 0.0412581 1.60747 0
M  V30 1631 O 168.7 0.285545 1.71844 0
M  V30 1632 C 165.832 0.669447 3.34262 0
M  V30 1633 H 167.025 2.05662 2.18273 0
M  V30 1634 H 164.578 1.09885 1.11153 0
M  V30 1635 H 165.313 -0.292572 3.22978 0
M  V30 1636 H 165.098 1.43127 3.65044 0
M  V30 1637 H 166.588 0.568921 4.13706 0
M  V30 1638 N 167.025 -1.13721 1.09112 0
M  V30 1639 C 168.273 -1.84559 0.823562 0
M  V30 1640 C 168.594 -1.83754 -0.652658 0
M  V30 1641 O 167.864 -1.29102 -1.47342 0
M  V30 1642 H 166.444 -0.683376 0.301673 0
M  V30 1643 H 169.106 -1.37771 1.37859 0
M  V30 1644 H 168.202 -2.8917 1.17419 0
M  V30 1645 N 168.503 -0.877838 -1.30888 0
M  V30 1646 C 169.435 -0.296607 -2.27273 0
M  V30 1647 C 170.448 0.544799 -1.53414 0
M  V30 1648 O 171.637 0.365511 -1.74718 0
M  V30 1649 C 168.737 0.597481 -3.33592 0
M  V30 1650 C 167.91 -0.213251 -4.3688 0
M  V30 1651 C 166.969 0.610208 -5.2265 0
M  V30 1652 O 165.995 0.035441 -5.69189 0
M  V30 1653 N 167.197 1.92071 -5.47804 0
M  V30 1654 H 169.962 -1.12492 -2.77787 0
M  V30 1655 H 167.523 -0.740105 -1.43993 0
M  V30 1656 H 169.515 1.15425 -3.87891 0
M  V30 1657 H 168.085 1.32647 -2.83061 0
M  V30 1658 H 167.305 -0.951466 -3.82545 0
M  V30 1659 H 168.593 -0.769262 -5.02951 0
M  V30 1660 H 167.991 2.4107 -5.11763 0
M  V30 1661 H 166.548 2.42508 -6.05007 0
M  V30 1662 N 169.982 1.44106 -0.638065 0
M  V30 1663 C 171.393 1.85316 -0.226894 0
M  V30 1664 C 171.744 1.53399 1.22324 0
M  V30 1665 O 170.869 0.975463 1.93167 0
M  V30 1666 C 171.464 3.3637 -0.405013 0
M  V30 1667 C 170.023 3.76369 -0.0482902 0
M  V30 1668 C 169.17 2.67921 -0.715108 0
M  V30 1669 H 172.121 1.34474 -0.842764 0
M  V30 1670 H 172.142 3.7885 0.354 0
M  V30 1671 H 171.654 3.59569 -1.46053 0
M  V30 1672 H 169.755 3.58784 1.00522 0
M  V30 1673 H 169.868 4.76856 -0.463187 0
M  V30 1674 H 168.232 2.54259 -0.149753 0
M  V30 1675 H 169.015 2.93951 -1.77335 0
M  V30 1676 N 171.46 0.379036 1.52974 0
M  V30 1677 C 172.423 -0.448865 2.24762 0
M  V30 1678 C 173.423 -0.998689 1.26027 0
M  V30 1679 O 174.613 -0.882313 1.50203 0
M  V30 1680 C 171.745 -1.62872 2.99476 0
M  V30 1681 H 172.938 0.179491 2.99362 0
M  V30 1682 H 170.491 0.13096 1.5575 0
M  V30 1683 H 171.226 -2.29479 2.29151 0
M  V30 1684 H 171.011 -1.24128 3.71934 0
M  V30 1685 H 172.501 -2.2151 3.5401 0
M  V30 1686 N 172.938 -1.57226 0.108567 0
M  V30 1687 C 173.901 -2.13602 -0.831082 0
M  V30 1688 C 174.901 -1.06841 -1.20173 0
M  V30 1689 O 176.091 -1.32666 -1.12895 0
M  V30 1690 C 173.223 -2.66769 -2.12243 0
M  V30 1691 H 174.416 -2.97951 -0.341317 0
M  V30 1692 H 171.969 -1.55667 -0.14057 0
M  V30 1693 H 172.704 -1.85977 -2.65675 0
M  V30 1694 H 172.489 -3.44839 -1.86625 0
M  V30 1695 H 173.979 -3.10332 -2.79435 0
M  V30 1696 N 174.416 0.165178 -1.56732 0
M  V30 1697 C 175.663 0.880807 -1.8234 0
M  V30 1698 C 175.991 1.81977 -0.686621 0
M  V30 1699 O 175.246 1.92971 0.325697 0
M  V30 1700 C 175.545 1.70405 -3.1416 0
M  V30 1701 C 175.211 0.913475 -4.4155 0
M  V30 1702 C 173.873 0.695303 -4.7615 0
M  V30 1703 C 176.225 0.359349 -5.1996 0
M  V30 1704 C 173.553 -0.0879947 -5.86634 0
M  V30 1705 C 175.905 -0.410893 -6.31264 0
M  V30 1706 C 174.569 -0.639808 -6.64427 0
M  V30 1707 H 173.839 0.32231 -0.667231 0
M  V30 1708 H 176.486 0.145402 -1.90947 0
M  V30 1709 H 174.791 2.50903 -3.00923 0
M  V30 1710 H 176.488 2.26091 -3.31186 0
M  V30 1711 H 173.078 1.09357 -4.14414 0
M  V30 1712 H 177.262 0.515228 -4.93618 0
M  V30 1713 H 172.518 -0.27503 -6.10781 0
M  V30 1714 H 176.692 -0.847494 -6.91224 0
M  V30 1715 H 174.319 -1.24864 -7.49875 0
M  V30 1716 N 175.894 1.51508 0.433938 0
M  V30 1717 C 176.841 1.73068 1.52696 0
M  V30 1718 C 177.811 0.572441 1.55924 0
M  V30 1719 O 178.996 0.807253 1.72882 0
M  V30 1720 C 176.136 1.86474 2.90381 0
M  V30 1721 C 175.249 3.14037 2.96656 0
M  V30 1722 C 174.384 3.18019 4.25485 0
M  V30 1723 C 173.423 4.39882 4.2564 0
M  V30 1724 N 172.56 4.41394 5.45999 0
M  V30 1725 H 177.4 2.66366 1.33615 0
M  V30 1726 H 174.937 1.32008 0.649018 0
M  V30 1727 H 176.895 1.92229 3.70275 0
M  V30 1728 H 175.525 0.965809 3.08013 0
M  V30 1729 H 174.577 3.17575 2.09404 0
M  V30 1730 H 175.889 4.0394 2.92633 0
M  V30 1731 H 175.043 3.22708 5.13755 0
M  V30 1732 H 173.782 2.2601 4.3217 0
M  V30 1733 H 172.787 4.35366 3.35763 0
M  V30 1734 H 174.012 5.33159 4.20617 0
M  V30 1735 H 171.958 3.52258 5.53399 0
M  V30 1736 H 171.875 5.25111 5.4387 0
M  V30 1737 H 173.143 4.50281 6.36292 0
M  V30 1738 N 177.372 -0.689602 1.41712 0
M  V30 1739 C 178.335 -1.78521 1.43746 0
M  V30 1740 C 179.335 -1.57436 0.327191 0
M  V30 1741 O 180.525 -1.64 0.587348 0
M  V30 1742 C 177.657 -3.16971 1.25467 0
M  V30 1743 H 178.85 -1.78108 2.41283 0
M  V30 1744 H 176.403 -0.89781 1.27942 0
M  V30 1745 H 177.138 -3.23019 0.287948 0
M  V30 1746 H 176.923 -3.33678 2.05917 0
M  V30 1747 H 178.413 -3.96935 1.2974 0
M  V30 1748 N 178.85 -1.27639 -0.924453 0
M  V30 1749 C 180.127 -1.04887 -1.651 0
M  V30 1750 C 180.507 0.415327 -2.06974 0
M  V30 1751 O 179.855 1.39923 -1.80648 0
M  V30 1752 C 180.065 -2.01348 -2.85061 0
M  V30 1753 C 181.413 -2.30899 -3.56329 0
M  V30 1754 O 182.437 -1.99348 -2.95193 0
M  V30 1755 O 181.296 -2.84699 -4.66485 0
M  V30 1756 H 178.39 -0.400083 -0.723784 0
M  V30 1757 H 180.936 -1.38916 -0.974703 0
M  V30 1758 H 179.708 -3.0008 -2.51133 0
M  V30 1759 H 179.331 -1.679 -3.6041 0
M  V30 1760 N 180.328 1.1314 -1.09713 0
M  V30 1761 C 181.238 2.22242 -0.751367 0
M  V30 1762 C 182.254 1.72224 0.247938 0
M  V30 1763 O 183.43 2.01205 0.0885463 0
M  V30 1764 C 180.495 3.46231 -0.180274 0
M  V30 1765 C 179.556 4.11125 -1.2359 0
M  V30 1766 C 178.789 5.29195 -0.691966 0
M  V30 1767 O 179.012 5.68342 0.48414 0
M  V30 1768 O 177.946 5.84214 -1.44838 0
M  V30 1769 H 181.772 2.54197 -1.66186 0
M  V30 1770 H 179.357 1.21331 -0.871735 0
M  V30 1771 H 181.239 4.21185 0.134739 0
M  V30 1772 H 179.914 3.1597 0.703185 0
M  V30 1773 H 178.821 3.37985 -1.60366 0
M  V30 1774 H 180.154 4.45524 -2.09211 0
M  V30 1775 N 181.806 0.884767 1.30421 0
M  V30 1776 C 182.753 0.349642 2.28136 0
M  V30 1777 C 183.723 -0.560061 1.56373 0
M  V30 1778 O 184.908 -0.488524 1.8444 0
M  V30 1779 C 182.048 -0.42999 3.42411 0
M  V30 1780 C 181.161 0.508907 4.28992 0
M  V30 1781 C 180.296 -0.286301 5.30428 0
M  V30 1782 C 179.335 0.648079 6.08659 0
M  V30 1783 N 178.472 -0.111792 7.02011 0
M  V30 1784 H 183.312 1.18807 2.73293 0
M  V30 1785 H 180.849 0.597231 1.3443 0
M  V30 1786 H 182.807 -0.897923 4.07423 0
M  V30 1787 H 181.437 -1.23299 2.98324 0
M  V30 1788 H 180.489 1.09533 3.64289 0
M  V30 1789 H 181.801 1.22475 4.8353 0
M  V30 1790 H 180.955 -0.816098 6.01186 0
M  V30 1791 H 179.694 -1.03536 4.76583 0
M  V30 1792 H 178.699 1.18951 5.36778 0
M  V30 1793 H 179.924 1.39623 6.64592 0
M  V30 1794 H 177.87 -0.843395 6.50556 0
M  V30 1795 H 177.787 0.544429 7.54037 0
M  V30 1796 H 179.055 -0.622339 7.77012 0
M  V30 1797 N 183.284 -1.43765 0.645699 0
M  V30 1798 C 184.214 -2.33471 -0.0370477 0
M  V30 1799 C 185.195 -1.49042 -0.819779 0
M  V30 1800 O 186.38 -1.77726 -0.782758 0
M  V30 1801 C 183.51 -3.32311 -1.0093 0
M  V30 1802 C 182.464 -4.2667 -0.337201 0
M  V30 1803 C 181.79 -5.1549 -1.42037 0
M  V30 1804 C 183.09 -5.16657 0.765706 0
M  V30 1805 H 184.784 -2.90809 0.712069 0
M  V30 1806 H 182.33 -1.39834 0.343876 0
M  V30 1807 H 184.283 -3.9396 -1.49578 0
M  V30 1808 H 183.007 -2.73213 -1.78948 0
M  V30 1809 H 181.666 -3.66374 0.128771 0
M  V30 1810 H 181.314 -4.52735 -2.1918 0
M  V30 1811 H 181.014 -5.79438 -0.975966 0
M  V30 1812 H 182.538 -5.80012 -1.90838 0
M  V30 1813 H 183.952 -5.72158 0.361702 0
M  V30 1814 H 182.349 -5.89286 1.13413 0
M  V30 1815 H 183.419 -4.56796 1.62683 0
M  V30 1816 N 184.763 -0.387143 -1.52771 0
M  V30 1817 C 185.696 0.493123 -2.22808 0
M  V30 1818 C 186.674 1.0658 -1.22798 0
M  V30 1819 O 187.858 1.11785 -1.51777 0
M  V30 1820 C 184.985 1.68238 -2.93962 0
M  V30 1821 C 184.031 1.23515 -4.08223 0
M  V30 1822 S 184.864 0.21848 -5.35054 0
M  V30 1823 C 186.02 1.41357 -6.09729 0
M  V30 1824 H 186.253 -0.101625 -2.97126 0
M  V30 1825 H 183.786 -0.171323 -1.53447 0
M  V30 1826 H 185.744 2.36443 -3.35567 0
M  V30 1827 H 184.405 2.24842 -2.19328 0
M  V30 1828 H 183.598 2.12304 -4.57103 0
M  V30 1829 H 183.2 0.632044 -3.68621 0
M  V30 1830 H 185.492 2.34101 -6.3577 0
M  V30 1831 H 186.435 0.965736 -7.01484 0
M  V30 1832 H 186.843 1.6294 -5.40473 0
M  V30 1833 N 186.241 1.57166 -0.116904 0
M  V30 1834 C 187.469 1.99473 0.549383 0
M  V30 1835 C 187.884 0.996541 1.60357 0
M  V30 1836 O 187.241 -0.0108731 1.82497 0
M  V30 1837 C 187.292 3.41788 1.17741 0
M  V30 1838 O 187.013 4.37788 0.165362 0
M  V30 1839 C 188.514 3.99216 1.92722 0
M  V30 1840 H 185.734 0.655009 0.145616 0
M  V30 1841 H 188.278 2.03494 -0.202625 0
M  V30 1842 H 186.433 3.38713 1.88021 0
M  V30 1843 H 186.847 5.20806 0.621403 0
M  V30 1844 H 188.321 5.00882 2.31995 0
M  V30 1845 H 188.798 3.3824 2.80161 0
M  V30 1846 H 189.404 4.0583 1.27209 0
M  V30 1847 N 187.719 -0.156864 1.56817 0
M  V30 1848 C 188.965 -0.872416 1.83076 0
M  V30 1849 C 189.298 -1.81261 0.697001 0
M  V30 1850 O 188.573 -1.92171 -0.30008 0
M  V30 1851 C 188.856 -1.65551 3.19789 0
M  V30 1852 C 188.709 -0.737467 4.43713 0
M  V30 1853 C 190.028 -2.62012 3.53606 0
M  V30 1854 H 187.147 -0.315715 0.665953 0
M  V30 1855 H 189.789 -0.138004 1.89498 0
M  V30 1856 H 187.939 -2.28159 3.14445 0
M  V30 1857 H 189.611 -0.123143 4.61136 0
M  V30 1858 H 187.854 -0.0464067 4.33775 0
M  V30 1859 H 188.525 -1.32122 5.35955 0
M  V30 1860 H 191.001 -2.09525 3.59497 0
M  V30 1861 H 189.877 -3.13861 4.50314 0
M  V30 1862 H 190.138 -3.42902 2.79053 0
M  V30 1863 N 189.197 -1.51736 -0.425897 0
M  V30 1864 C 190.16 -1.73271 -1.50032 0
M  V30 1865 C 191.16 -0.602639 -1.4908 0
M  V30 1866 O 192.35 -0.87033 -1.509 0
M  V30 1867 C 189.482 -1.79969 -2.89523 0
M  V30 1868 H 190.675 -2.69172 -1.32237 0
M  V30 1869 H 188.228 -1.41899 -0.65532 0
M  V30 1870 H 188.963 -0.859241 -3.1271 0
M  V30 1871 H 188.748 -2.62109 -2.91619 0
M  V30 1872 H 190.238 -1.9843 -3.67444 0
M  V30 1873 N 190.675 0.682077 -1.42076 0
M  V30 1874 C 191.585 1.82535 -1.47371 0
M  V30 1875 C 192.601 1.7017 -0.363079 0
M  V30 1876 O 193.777 1.91848 -0.612875 0
M  V30 1877 C 190.842 3.18624 -1.36674 0
M  V30 1878 C 189.903 3.42999 -2.58167 0
M  V30 1879 C 189.136 4.72595 -2.4797 0
M  V30 1880 O 189.359 5.50006 -1.5116 0
M  V30 1881 O 188.293 4.98054 -3.37974 0
M  V30 1882 H 192.119 1.81023 -2.43853 0
M  V30 1883 H 189.704 0.836887 -1.2376 0
M  V30 1884 H 191.586 3.99847 -1.33043 0
M  V30 1885 H 190.261 3.20789 -0.433138 0
M  V30 1886 H 189.168 2.61653 -2.67373 0
M  V30 1887 H 190.501 3.45659 -3.50401 0
M  V30 1888 N 192.153 1.28127 0.917671 0
M  V30 1889 C 193.085 1.07517 2.02417 0
M  V30 1890 C 194.098 0.0281099 1.62776 0
M  V30 1891 O 195.287 0.270748 1.76435 0
M  V30 1892 C 192.387 0.610957 3.33347 0
M  V30 1893 C 191.56 1.73255 4.01624 0
M  V30 1894 C 190.619 1.26238 5.10833 0
M  V30 1895 O 189.645 1.96389 5.34247 0
M  V30 1896 N 190.847 0.123448 5.80369 0
M  V30 1897 H 193.612 2.02806 2.20658 0
M  V30 1898 H 191.173 1.19827 1.08871 0
M  V30 1899 H 193.165 0.280101 4.0373 0
M  V30 1900 H 191.735 -0.24898 3.11607 0
M  V30 1901 H 190.955 2.23319 3.24842 0
M  V30 1902 H 192.243 2.48503 4.43986 0
M  V30 1903 H 191.641 -0.461847 5.63812 0
M  V30 1904 H 190.198 -0.148158 6.51632 0
M  V30 1905 N 193.631 -1.12557 1.10312 0
M  V30 1906 C 194.594 -2.16434 0.75424 0
M  V30 1907 C 195.594 -1.59278 -0.220685 0
M  V30 1908 O 196.784 -1.742 0.00230591 0
M  V30 1909 C 193.916 -3.40699 0.116987 0
M  V30 1910 H 195.109 -2.48811 1.67431 0
M  V30 1911 H 192.662 -1.27542 0.903475 0
M  V30 1912 H 193.397 -3.13921 -0.813877 0
M  V30 1913 H 193.182 -3.83459 0.818613 0
M  V30 1914 H 194.672 -4.17451 -0.111387 0
M  V30 1915 N 195.109 -0.891671 -1.2995 0
M  V30 1916 C 196.039 -0.379797 -2.30391 0
M  V30 1917 C 197.02 0.540919 -1.6127 0
M  V30 1918 O 198.205 0.453352 -1.88834 0
M  V30 1919 C 195.335 0.400654 -3.44981 0
M  V30 1920 C 194.289 -0.428905 -4.25846 0
M  V30 1921 C 193.615 0.478557 -5.32554 0
M  V30 1922 C 194.915 -1.67458 -4.94727 0
M  V30 1923 H 196.609 -1.21914 -2.73454 0
M  V30 1924 H 194.155 -0.587675 -1.31462 0
M  V30 1925 H 196.108 0.769434 -4.14316 0
M  V30 1926 H 194.832 1.27371 -3.0074 0
M  V30 1927 H 193.491 -0.779911 -3.58208 0
M  V30 1928 H 193.139 1.34951 -4.84559 0
M  V30 1929 H 192.839 -0.0727433 -5.87555 0
M  V30 1930 H 194.363 0.843705 -6.04743 0
M  V30 1931 H 195.777 -1.376 -5.56542 0
M  V30 1932 H 194.174 -2.16659 -5.59624 0
M  V30 1933 H 195.244 -2.41518 -4.20473 0
M  V30 1934 N 196.587 1.43421 -0.653314 0
M  V30 1935 C 197.55 2.29182 0.0287951 0
M  V30 1936 C 198.55 1.42213 0.750465 0
M  V30 1937 O 199.74 1.63843 0.591701 0
M  V30 1938 C 196.872 3.24278 1.05151 0
M  V30 1939 H 198.065 2.90985 -0.725786 0
M  V30 1940 H 195.618 1.50702 -0.414545 0
M  V30 1941 H 196.353 2.6737 1.83532 0
M  V30 1942 H 196.138 3.88396 0.537687 0
M  V30 1943 H 197.628 3.88647 1.52786 0
M  V30 1944 N 198.065 0.39524 1.52563 0
M  V30 1945 C 198.997 -0.472201 2.24283 0
M  V30 1946 C 200.01 -1.02178 1.26742 0
M  V30 1947 O 201.199 -0.923097 1.52778 0
M  V30 1948 C 198.299 -1.66775 2.95024 0
M  V30 1949 C 197.472 -1.2445 4.19322 0
M  V30 1950 C 196.531 -2.30539 4.7301 0
M  V30 1951 O 195.557 -1.91702 5.35947 0
M  V30 1952 N 196.759 -3.6253 4.53379 0
M  V30 1953 H 199.524 0.142282 2.99362 0
M  V30 1954 H 197.085 0.2219 1.60372 0
M  V30 1955 H 199.077 -2.37283 3.27839 0
M  V30 1956 H 197.647 -2.18845 2.23217 0
M  V30 1957 H 196.867 -0.368069 3.92478 0
M  V30 1958 H 198.155 -0.938457 5.0007 0
M  V30 1959 H 197.553 -3.96841 4.03154 0
M  V30 1960 H 196.11 -4.29055 4.90668 0
M  V30 1961 N 199.544 -1.57102 0.125237 0
M  V30 1962 C 200.474 -2.18659 -0.819174 0
M  V30 1963 C 201.455 -1.12843 -1.27281 0
M  V30 1964 O 202.64 -1.41104 -1.33429 0
M  V30 1965 C 199.77 -2.79096 -2.06695 0
M  V30 1966 C 198.724 -3.90548 -1.75088 0
M  V30 1967 C 198.05 -4.37821 -3.06948 0
M  V30 1968 C 199.35 -5.12356 -1.01435 0
M  V30 1969 H 201.044 -2.9783 -0.306202 0
M  V30 1970 H 198.59 -1.4326 -0.145839 0
M  V30 1971 H 200.543 -3.2082 -2.73226 0
M  V30 1972 H 199.267 -1.97223 -2.60328 0
M  V30 1973 H 197.926 -3.49409 -1.10944 0
M  V30 1974 H 197.574 -3.52799 -3.58527 0
M  V30 1975 H 197.274 -5.12982 -2.86571 0
M  V30 1976 H 198.798 -4.822 -3.74587 0
M  V30 1977 H 200.212 -5.5106 -1.58132 0
M  V30 1978 H 198.609 -5.9314 -0.911319 0
M  V30 1979 H 199.679 -4.849 -0.00218681 0
M  V30 1980 N 201.022 0.148545 -1.56898 0
M  V30 1981 C 202.433 0.708766 -1.72723 0
M  V30 1982 C 202.784 1.81734 -0.739395 0
M  V30 1983 O 201.909 2.16194 0.0943169 0
M  V30 1984 C 202.504 1.29245 -3.13179 0
M  V30 1985 C 201.063 1.79925 -3.30611 0
M  V30 1986 C 200.21 0.687111 -2.68652 0
M  V30 1987 H 203.161 -0.0771063 -1.58513 0
M  V30 1988 H 203.182 2.16224 -3.13093 0
M  V30 1989 H 202.694 0.485382 -3.85053 0
M  V30 1990 H 200.795 2.63203 -2.63732 0
M  V30 1991 H 200.908 1.92903 -4.38549 0
M  V30 1992 H 199.272 1.11335 -2.29078 0
M  V30 1993 H 200.055 -0.108483 -3.43129 0
M  V30 1994 N 202.5 1.5196 0.417844 0
M  V30 1995 C 203.448 1.75278 1.52907 0
M  V30 1996 C 204.442 0.619611 1.57662 0
M  V30 1997 O 205.648 0.801457 1.61173 0
M  V30 1998 H 202.023 0.554141 0.508362 0
M  V30 1999 H 203.994 2.68389 1.30422 0
M  V30 2000 C 202.743 1.91262 2.90369 0
M  V30 2001 H 202.066 2.77872 2.8745 0
M  V30 2002 H 203.506 2.11581 3.67436 0
M  V30 2003 C 201.965 0.677431 3.30019 0
M  V30 2004 O 202.495 -0.158799 4.01386 0
M  V30 2005 N 200.701 0.515851 2.85985 0
M  V30 2006 H 200.248 1.19744 2.28077 0
M  V30 2007 H 200.206 -0.309315 3.12875 0
M  V30 2008 N 203.978 -0.674533 1.42435 0
M  V30 2009 C 205.206 -1.46283 1.46317 0
M  V30 2010 C 205.621 -1.88653 0.0745836 0
M  V30 2011 O 204.978 -1.58151 -0.91074 0
M  V30 2012 C 205.029 -2.71178 2.3905 0
M  V30 2013 O 204.75 -2.30586 3.72507 0
M  V30 2014 C 206.251 -3.64738 2.51955 0
M  V30 2015 H 203.471 -0.450104 0.497642 0
M  V30 2016 H 206.015 -0.828792 1.86953 0
M  V30 2017 H 204.17 -3.3077 2.01667 0
M  V30 2018 H 204.584 -3.11241 4.22172 0
M  V30 2019 H 206.058 -4.49096 3.20962 0
M  V30 2020 H 206.535 -4.10656 1.55752 0
M  V30 2021 H 207.141 -3.11038 2.90061 0
M  V30 2022 N 205.456 -1.28612 -0.910864 0
M  V30 2023 C 206.406 -1.09423 -2.00026 0
M  V30 2024 C 207.39 -0.0170079 -1.60891 0
M  V30 2025 O 208.582 -0.237472 -1.754 0
M  V30 2026 C 205.711 -0.76114 -3.34756 0
M  V30 2027 C 204.797 -1.87735 -3.80285 0
M  V30 2028 N 205.188 -3.11938 -3.98156 0
M  V30 2029 C 203.486 -1.76786 -4.09467 0
M  V30 2030 C 204.187 -3.84687 -4.36338 0
M  V30 2031 N 203.163 -3.12555 -4.44759 0
M  V30 2032 H 206.965 -2.03658 -2.11898 0
M  V30 2033 H 204.479 -1.19573 -1.09891 0
M  V30 2034 H 206.476 -0.604743 -4.12491 0
M  V30 2035 H 205.136 0.173403 -3.24237 0
M  V30 2036 H 206.147 -3.47516 -3.83996 0
M  V30 2037 H 202.824 -0.905284 -4.07567 0
M  V30 2038 H 204.214 -4.91518 -4.58104 0
M  V30 2039 N 206.934 1.1197 -1.10907 0
M  V30 2040 C 207.897 2.16031 -0.765707 0
M  V30 2041 C 208.897 1.59393 0.212235 0
M  V30 2042 O 210.087 1.74196 -0.0115441 0
M  V30 2043 C 207.219 3.40632 -0.135053 0
M  V30 2044 H 208.412 2.47919 -1.68748 0
M  V30 2045 H 205.965 1.27061 -0.910226 0
M  V30 2046 H 206.7 3.14348 0.797218 0
M  V30 2047 H 206.485 3.8302 -0.838937 0
M  V30 2048 H 207.975 4.17505 0.0892469 0
M  V30 2049 N 208.412 0.89855 1.29475 0
M  V30 2050 C 209.658 0.524658 1.95896 0
M  V30 2051 C 209.991 -0.926468 1.70676 0
M  V30 2052 O 209.266 -1.65665 1.01908 0
M  V30 2053 C 209.549 0.81633 3.50725 0
M  V30 2054 C 209.402 2.31907 3.85408 0
M  V30 2055 C 210.721 0.302038 4.39062 0
M  V30 2056 H 207.84 0.19209 0.711527 0
M  V30 2057 H 210.482 1.12502 1.53112 0
M  V30 2058 H 208.632 0.305369 3.87298 0
M  V30 2059 H 210.304 2.89949 3.58786 0
M  V30 2060 H 208.547 2.78027 3.32992 0
M  V30 2061 H 209.218 2.47373 4.93468 0
M  V30 2062 H 211.694 0.739551 4.09475 0
M  V30 2063 H 210.57 0.535331 5.46283 0
M  V30 2064 H 210.831 -0.797216 4.34853 0
M  V30 2065 N 209.89 -1.43072 0.660911 0
M  V30 2066 C 211.306 -1.56169 0.329173 0
M  V30 2067 C 211.506 -1.64317 -1.16629 0
M  V30 2068 O 210.562 -1.60245 -1.95135 0
M  V30 2069 C 211.875 -2.81873 1.04729 0
M  V30 2070 C 213.423 -2.95627 1.02828 0
M  V30 2071 C 213.898 -4.24174 1.72744 0
M  V30 2072 N 215.389 -4.31055 1.69545 0
M  V30 2073 C 216.124 -5.29304 2.20511 0
M  V30 2074 N 215.62 -6.33786 2.79799 0
M  V30 2075 N 217.413 -5.21008 2.10966 0
M  V30 2076 H 209.564 -1.36027 1.63127 0
M  V30 2077 H 211.827 -0.653823 0.686454 0
M  V30 2078 H 211.533 -2.81942 2.10242 0
M  V30 2079 H 211.407 -3.72338 0.603702 0
M  V30 2080 H 213.794 -2.95094 -0.0184742 0
M  V30 2081 H 213.875 -2.06431 1.51063 0
M  V30 2082 H 213.519 -4.25467 2.7738 0
M  V30 2083 H 213.449 -5.1228 1.2197 0
M  V30 2084 H 215.94 -3.56174 1.26288 0
M  V30 2085 H 216.253 -7.05086 3.16344 0
M  V30 2086 H 214.598 -6.34387 2.83863 0
M  V30 2087 H 217.789 -4.38301 1.64347 0
M  V30 2088 H 217.962 -5.97416 2.50993 0
M  V30 2089 N 211.368 -0.403325 -1.52352 0
M  V30 2090 C 212.616 0.174003 -2.0135 0
M  V30 2091 C 212.937 1.46139 -1.29106 0
M  V30 2092 O 212.207 1.91448 -0.415253 0
M  V30 2093 H 210.787 0.0672911 -0.743963 0
M  V30 2094 H 213.449 -0.538235 -1.87321 0
M  V30 2095 H 212.545 0.374254 -3.09848 0
M  V30 2096 N 212.846 1.57033 -0.133567 0
M  V30 2097 C 213.776 2.1909 0.807567 0
M  V30 2098 C 214.757 1.13517 1.26681 0
M  V30 2099 O 215.942 1.41809 1.32679 0
M  V30 2100 C 213.072 2.80188 2.05212 0
M  V30 2101 C 212.026 3.91471 1.73015 0
M  V30 2102 C 211.352 4.39443 3.04622 0
M  V30 2103 C 212.652 5.12886 0.987168 0
M  V30 2104 H 214.346 2.97988 0.290403 0
M  V30 2105 H 211.892 1.43335 0.138239 0
M  V30 2106 H 213.845 3.22264 2.71521 0
M  V30 2107 H 212.569 1.98601 2.59278 0
M  V30 2108 H 211.228 3.49993 1.0909 0
M  V30 2109 H 210.876 3.54695 3.56651 0
M  V30 2110 H 210.576 5.14495 2.83847 0
M  V30 2111 H 212.1 4.8418 3.72024 0
M  V30 2112 H 213.514 5.51891 1.55208 0
M  V30 2113 H 211.911 5.93615 0.87985 0
M  V30 2114 H 212.981 4.84894 -0.0235286 0
M  V30 2115 N 214.325 -0.140222 1.56975 0
M  V30 2116 C 215.574 -0.850152 1.82908 0
M  V30 2117 C 215.887 -1.82028 0.715892 0
M  V30 2118 O 217.093 -2.57485 0.861016 0
M  V30 2119 C 215.549 -1.5625 3.24213 0
M  V30 2120 C 215.157 -0.63443 4.43485 0
M  V30 2121 C 216.901 -2.25881 3.59413 0
M  V30 2122 C 214.808 -1.34879 5.75814 0
M  V30 2123 H 213.738 -0.321221 0.682153 0
M  V30 2124 H 216.389 -0.102874 1.83211 0
M  V30 2125 H 214.771 -2.35565 3.18316 0
M  V30 2126 H 215.945 0.12398 4.60633 0
M  V30 2127 H 214.26 -0.0461836 4.16374 0
M  V30 2128 H 216.857 -2.79978 4.5554 0
M  V30 2129 H 217.2 -3.02693 2.85802 0
M  V30 2130 H 217.733 -1.53477 3.67001 0
M  V30 2131 H 214.472 -0.622385 6.52539 0
M  V30 2132 H 213.992 -2.07974 5.6259 0
M  V30 2133 H 215.671 -1.88784 6.18845 0
M  V30 2134 N 215.803 -1.52179 -0.40978 0
M  V30 2135 C 217.043 -1.67882 -1.16597 0
M  V30 2136 C 217.407 -0.399795 -1.87791 0
M  V30 2137 O 218.608 -0.43292 -2.65291 0
M  V30 2138 C 216.879 -2.86662 -2.13448 0
M  V30 2139 S 218.438 -3.22843 -2.97183 0
M  V30 2140 H 215.256 -0.59118 -0.395002 0
M  V30 2141 H 217.858 -1.9017 -0.453373 0
M  V30 2142 H 216.562 -3.77998 -1.59831 0
M  V30 2143 H 216.093 -2.66645 -2.89247 0
M  V30 2144 H 218.108 -2.71415 -4.15389 0
M  V30 2145 N 217.281 0.66697 -1.42791 0
M  V30 2146 C 218.509 1.45505 -1.47091 0
M  V30 2147 C 218.924 1.8861 -0.0845873 0
M  V30 2148 O 218.281 1.58632 0.90234 0
M  V30 2149 C 218.332 2.69906 -2.40485 0
M  V30 2150 O 218.053 2.28608 -3.73725 0
M  V30 2151 C 219.554 3.63396 -2.53886 0
M  V30 2152 H 216.774 0.447459 -0.500022 0
M  V30 2153 H 219.318 0.818866 -1.8739 0
M  V30 2154 H 217.473 3.29696 -2.03419 0
M  V30 2155 H 217.887 3.08997 -4.23817 0
M  V30 2156 H 219.361 4.47387 -3.2334 0
M  V30 2157 H 219.838 4.09824 -1.57927 0
M  V30 2158 H 220.444 3.09495 -2.91706 0
M  V30 2159 N 218.759 1.29093 0.90403 0
M  V30 2160 C 220.007 1.16583 1.65085 0
M  V30 2161 C 220.328 -0.283933 1.92922 0
M  V30 2162 O 219.598 -1.19509 1.55224 0
M  V30 2163 H 218.178 0.428467 0.611903 0
M  V30 2164 H 220.84 1.61959 1.08422 0
M  V30 2165 H 219.936 1.71266 2.6091 0
M  V30 2166 N 220.237 -1.11381 1.11499 0
M  V30 2167 C 221.514 -1.7955 0.775965 0
M  V30 2168 C 221.894 -1.97859 -0.73588 0
M  V30 2169 O 221.242 -1.56376 -1.66609 0
M  V30 2170 C 221.452 -3.13196 1.53977 0
M  V30 2171 C 222.8 -3.88227 1.71944 0
M  V30 2172 O 223.824 -3.22887 1.50407 0
M  V30 2173 O 222.683 -5.05477 2.07738 0
M  V30 2174 H 219.777 -0.777728 0.28119 0
M  V30 2175 H 222.323 -1.18118 1.21845 0
M  V30 2176 H 221.095 -2.95229 2.56818 0
M  V30 2177 H 220.718 -3.82342 1.09088 0
M  V30 2178 N 221.715 -0.905404 -1.28997 0
M  V30 2179 C 222.678 -0.392253 -2.25819 0
M  V30 2180 C 223.678 0.476753 -1.5357 0
M  V30 2181 O 224.868 0.280994 -1.71919 0
M  V30 2182 C 222 0.438588 -3.38067 0
M  V30 2183 H 223.193 -1.24743 -2.72725 0
M  V30 2184 H 220.746 -0.684051 -1.40536 0
M  V30 2185 H 221.481 1.31352 -2.96508 0
M  V30 2186 H 221.266 -0.184167 -3.91667 0
M  V30 2187 H 222.756 0.78873 -4.10084 0
M  V30 2188 N 223.193 1.4272 -0.668489 0
M  V30 2189 C 224.44 2.01624 -0.18814 0
M  V30 2190 C 224.768 1.5282 1.20317 0
M  V30 2191 O 224.023 0.718323 1.8204 0
M  V30 2192 C 224.322 3.57021 -0.164499 0
M  V30 2193 C 223.988 4.25232 -1.49962 0
M  V30 2194 C 222.65 4.4358 -1.8652 0
M  V30 2195 C 225.002 4.63727 -2.37921 0
M  V30 2196 C 222.33 4.97694 -3.10674 0
M  V30 2197 C 224.682 5.19218 -3.6138 0
M  V30 2198 C 223.346 5.3578 -3.98115 0
M  V30 2199 H 222.616 0.737795 -0.0688454 0
M  V30 2200 H 225.263 1.70991 -0.862225 0
M  V30 2201 H 223.568 3.87285 0.593079 0
M  V30 2202 H 225.265 4.00372 0.224271 0
M  V30 2203 H 221.855 4.11306 -1.20522 0
M  V30 2204 H 226.039 4.4923 -2.10964 0
M  V30 2205 H 221.295 5.08702 -3.39164 0
M  V30 2206 H 225.469 5.4799 -4.29743 0
M  V30 2207 H 223.096 5.77475 -4.94395 0
M  V30 2208 N 224.671 0.411399 1.52136 0
M  V30 2209 C 225.917 -0.163888 2.02137 0
M  V30 2210 C 226.25 -1.44597 1.29636 0
M  V30 2211 O 225.525 -1.90272 0.403353 0
M  V30 2212 C 225.808 -0.40927 3.57767 0
M  V30 2213 C 225.661 0.889643 4.40914 0
M  V30 2214 C 226.98 -1.19042 4.23694 0
M  V30 2215 H 224.099 -0.0580896 0.734707 0
M  V30 2216 H 226.741 0.54531 1.82007 0
M  V30 2217 H 224.891 -1.0134 3.7505 0
M  V30 2218 H 226.563 1.52575 4.35337 0
M  V30 2219 H 224.806 1.50011 4.07037 0
M  V30 2220 H 225.477 0.672314 5.4789 0
M  V30 2221 H 227.953 -0.678942 4.10524 0
M  V30 2222 H 226.829 -1.33086 5.32522 0
M  V30 2223 H 227.09 -2.21166 3.82803 0
M  V30 2224 N 226.149 -1.5696 0.141893 0
M  V30 2225 C 227.389 -1.9785 -0.513304 0
M  V30 2226 C 227.753 -1.02467 -1.62371 0
M  V30 2227 O 228.954 -1.32382 -2.33941 0
M  V30 2228 C 227.225 -3.42797 -1.01118 0
M  V30 2229 S 228.784 -4.05709 -1.67169 0
M  V30 2230 H 225.602 -0.691318 -0.166135 0
M  V30 2231 H 228.204 -1.94114 0.232398 0
M  V30 2232 H 226.908 -4.0995 -0.192179 0
M  V30 2233 H 226.439 -3.50235 -1.79162 0
M  V30 2234 H 228.454 -3.98342 -2.95868 0
M  V30 2235 N 227.627 0.131896 -1.57047 0
M  V30 2236 C 228.855 0.856461 -1.88341 0
M  V30 2237 C 229.27 1.74042 -0.731757 0
M  V30 2238 O 228.627 1.80051 0.297945 0
M  V30 2239 C 228.678 1.70064 -3.18999 0
M  V30 2240 O 228.399 0.852278 -4.2973 0
M  V30 2241 C 229.9 2.53148 -3.63911 0
M  V30 2242 H 227.12 0.246885 -0.62393 0
M  V30 2243 H 229.664 0.120152 -2.04147 0
M  V30 2244 H 227.819 2.38984 -3.04902 0
M  V30 2245 H 228.233 1.43329 -5.04537 0
M  V30 2246 H 229.707 3.07931 -4.58129 0
M  V30 2247 H 230.184 3.29901 -2.89935 0
M  V30 2248 H 230.79 1.89492 -3.80753 0
M  V30 2249 N 229.106 1.52395 0.401703 0
M  V30 2250 C 230.069 1.75636 1.47257 0
M  V30 2251 C 231.069 0.62628 1.48103 0
M  V30 2252 O 232.259 0.894227 1.49497 0
M  V30 2253 C 229.391 1.84553 2.86624 0
M  V30 2254 H 230.584 2.71241 1.27938 0
M  V30 2255 H 228.137 1.42923 0.632662 0
M  V30 2256 H 228.872 0.908882 3.11303 0
M  V30 2257 H 228.657 2.66715 2.87412 0
M  V30 2258 H 230.147 2.04251 3.64241 0
M  V30 2259 N 230.584 -0.659388 1.43143 0
M  V30 2260 C 231.494 -1.80167 1.50256 0
M  V30 2261 C 232.51 -1.69571 0.390106 0
M  V30 2262 O 233.686 -1.90849 0.643319 0
M  V30 2263 C 230.751 -3.16409 1.41725 0
M  V30 2264 C 229.812 -3.38848 2.63591 0
M  V30 2265 C 229.045 -4.68591 2.55458 0
M  V30 2266 O 229.268 -5.47532 1.59891 0
M  V30 2267 O 228.202 -4.92614 3.45854 0
M  V30 2268 H 232.028 -1.77121 2.46702 0
M  V30 2269 H 229.613 -0.817092 1.25076 0
M  V30 2270 H 231.495 -3.9768 1.39387 0
M  V30 2271 H 230.17 -3.20059 0.484118 0
M  V30 2272 H 229.077 -2.57366 2.71502 0
M  V30 2273 H 230.41 -3.4004 3.55856 0
M  V30 2274 N 232.062 -1.29571 -0.897171 0
M  V30 2275 C 233.478 -1.07637 -1.17841 0
M  V30 2276 C 233.678 0.170713 -2.00776 0
M  V30 2277 O 232.734 0.867768 -2.3712 0
M  V30 2278 C 234.047 -2.3332 -1.8969 0
M  V30 2279 C 235.595 -2.38664 -2.02505 0
M  V30 2280 C 236.07 -3.64157 -2.77765 0
M  V30 2281 N 237.561 -3.64894 -2.85318 0
M  V30 2282 C 238.296 -4.58679 -3.44094 0
M  V30 2283 N 237.792 -5.62799 -4.04017 0
M  V30 2284 N 239.585 -4.46245 -3.41793 0
M  V30 2285 H 231.736 -2.09598 -0.343883 0
M  V30 2286 H 233.999 -0.923333 -0.214848 0
M  V30 2287 H 233.705 -3.24262 -1.36187 0
M  V30 2288 H 233.579 -2.41025 -2.9015 0
M  V30 2289 H 235.966 -1.48208 -2.55183 0
M  V30 2290 H 236.047 -2.34943 -1.01171 0
M  V30 2291 H 235.691 -4.54965 -2.25763 0
M  V30 2292 H 235.621 -3.65137 -3.7945 0
M  V30 2293 H 238.112 -2.89613 -2.42761 0
M  V30 2294 H 238.425 -6.3048 -4.46895 0
M  V30 2295 H 236.77 -5.66605 -4.02472 0
M  V30 2296 H 239.961 -3.64094 -2.94199 0
M  V30 2297 H 240.134 -5.19518 -3.87304 0
M  V30 2298 N 233.54 1.10788 -1.12088 0
M  V30 2299 C 234.472 2.16816 -0.743213 0
M  V30 2300 C 235.485 1.6119 0.228412 0
M  V30 2301 O 236.674 1.78497 0.0102931 0
M  V30 2302 C 233.774 3.38809 -0.0787313 0
M  V30 2303 C 232.947 4.23885 -1.0789 0
M  V30 2304 C 232.006 5.24334 -0.442713 0
M  V30 2305 O 231.032 5.58497 -1.09864 0
M  V30 2306 N 232.234 5.75079 0.791457 0
M  V30 2307 H 234.999 2.49825 -1.65552 0
M  V30 2308 H 232.56 1.26373 -1.012 0
M  V30 2309 H 234.552 4.03107 0.358766 0
M  V30 2310 H 233.122 3.03805 0.736275 0
M  V30 2311 H 232.342 3.55939 -1.69414 0
M  V30 2312 H 233.63 4.77562 -1.75533 0
M  V30 2313 H 233.028 5.49517 1.3434 0
M  V30 2314 H 231.585 6.4118 1.17183 0
M  V30 2315 N 235.018 0.912232 1.28515 0
M  V30 2316 C 235.95 0.35676 2.26406 0
M  V30 2317 C 236.963 -0.503933 1.54804 0
M  V30 2318 O 238.152 -0.319059 1.75625 0
M  V30 2319 C 235.252 -0.508825 3.35058 0
M  V30 2320 C 234.425 0.329007 4.36161 0
M  V30 2321 C 233.484 -0.471422 5.24084 0
M  V30 2322 O 232.51 0.115482 5.69083 0
M  V30 2323 N 233.712 -1.77479 5.52704 0
M  V30 2324 H 236.477 1.19818 2.74707 0
M  V30 2325 H 234.038 0.778022 1.4198 0
M  V30 2326 H 236.03 -1.051 3.90815 0
M  V30 2327 H 234.6 -1.25095 2.86478 0
M  V30 2328 H 233.82 1.05256 3.79888 0
M  V30 2329 H 235.108 0.90234 5.00735 0
M  V30 2330 H 234.506 -2.27417 5.17975 0
M  V30 2331 H 233.063 -2.26382 6.11224 0
M  V30 2332 N 236.496 -1.42363 0.676048 0
M  V30 2333 C 237.743 -2.01522 0.19883 0
M  V30 2334 C 238.071 -1.53456 -1.19505 0
M  V30 2335 O 237.326 -0.727967 -1.81657 0
M  V30 2336 C 237.625 -3.56929 0.183431 0
M  V30 2337 C 237.291 -4.24431 1.52215 0
M  V30 2338 C 235.953 -4.42585 1.8887 0
M  V30 2339 C 238.305 -4.62459 2.40377 0
M  V30 2340 C 235.633 -4.96039 3.13309 0
M  V30 2341 C 237.985 -5.17294 3.64129 0
M  V30 2342 C 236.649 -5.33661 4.00951 0
M  V30 2343 H 235.919 -0.737419 0.0727571 0
M  V30 2344 H 238.566 -1.70531 0.871281 0
M  V30 2345 H 236.871 -3.87594 -0.572532 0
M  V30 2346 H 238.568 -4.00486 -0.203035 0
M  V30 2347 H 235.158 -4.10661 1.22701 0
M  V30 2348 H 239.342 -4.48105 2.13343 0
M  V30 2349 H 234.598 -5.06896 3.41857 0
M  V30 2350 H 238.772 -5.45704 4.32644 0
M  V30 2351 H 236.399 -5.74845 4.9745 0
M  V30 2352 N 237.974 -0.419461 -1.51915 0
M  V30 2353 C 239.223 0.154346 -2.01109 0
M  V30 2354 C 239.536 1.45338 -1.30905 0
M  V30 2355 O 240.742 2.10906 -1.7097 0
M  V30 2356 C 239.198 0.325615 -3.58424 0
M  V30 2357 C 238.806 -0.961934 -4.37551 0
M  V30 2358 C 240.55 0.854155 -4.15818 0
M  V30 2359 C 238.457 -0.757287 -5.86531 0
M  V30 2360 H 237.387 0.0614563 -0.751491 0
M  V30 2361 H 240.038 -0.54649 -1.75173 0
M  V30 2362 H 238.42 1.08903 -3.80731 0
M  V30 2363 H 239.594 -1.7323 -4.26999 0
M  V30 2364 H 237.909 -1.41766 -3.91524 0
M  V30 2365 H 240.506 1.02346 -5.24814 0
M  V30 2366 H 240.849 1.83172 -3.73837 0
M  V30 2367 H 241.382 0.149528 -3.97519 0
M  V30 2368 H 238.121 -1.70671 -6.32892 0
M  V30 2369 H 237.641 -0.0264061 -5.99794 0
M  V30 2370 H 239.32 -0.403482 -6.45741 0
M  V30 2371 N 239.452 1.56882 -0.150215 0
M  V30 2372 C 240.868 1.58263 0.20617 0
M  V30 2373 C 241.068 1.16464 1.64434 0
M  V30 2374 O 240.124 0.866422 2.3717 0
M  V30 2375 C 241.437 3.00649 -0.0555025 0
M  V30 2376 C 242.985 3.12999 0.00795388 0
M  V30 2377 C 243.46 4.5744 -0.226429 0
M  V30 2378 N 244.951 4.62875 -0.173469 0
M  V30 2379 C 245.686 5.72454 -0.329288 0
M  V30 2380 N 245.182 6.90669 -0.543005 0
M  V30 2381 N 246.975 5.61467 -0.266666 0
M  V30 2382 H 239.126 1.82345 -1.08922 0
M  V30 2383 H 241.389 0.844149 -0.431413 0
M  V30 2384 H 241.095 3.3563 -1.05096 0
M  V30 2385 H 240.969 3.71337 0.66246 0
M  V30 2386 H 243.356 2.77857 0.993966 0
M  V30 2387 H 243.437 2.4479 -0.742388 0
M  V30 2388 H 243.081 4.93287 -1.20956 0
M  V30 2389 H 243.011 5.2378 0.544274 0
M  V30 2390 H 245.502 3.77898 -0.0130709 0
M  V30 2391 H 245.815 7.70045 -0.651922 0
M  V30 2392 H 244.16 6.92581 -0.579366 0
M  V30 2393 H 247.351 4.67992 -0.100441 0
M  V30 2394 H 247.524 6.46816 -0.391535 0
M  V30 2395 N 240.93 -0.123565 1.57115 0
M  V30 2396 C 241.862 -1.17739 1.96648 0
M  V30 2397 C 242.875 -1.37906 0.865201 0
M  V30 2398 O 244.064 -1.37062 1.14351 0
M  V30 2399 C 241.164 -2.53821 2.24562 0
M  V30 2400 C 240.337 -2.54317 3.55867 0
M  V30 2401 C 239.396 -3.72112 3.72047 0
M  V30 2402 O 238.422 -3.55907 4.44206 0
M  V30 2403 N 239.624 -4.90498 3.10471 0
M  V30 2404 H 242.389 -0.841147 2.87654 0
M  V30 2405 H 239.95 -0.31289 1.58848 0
M  V30 2406 H 241.942 -3.31175 2.32606 0
M  V30 2407 H 240.512 -2.79645 1.39705 0
M  V30 2408 H 239.732 -1.62711 3.59053 0
M  V30 2409 H 241.02 -2.51701 4.42181 0
M  V30 2410 H 240.418 -5.06567 2.51806 0
M  V30 2411 H 238.975 -5.65544 3.24043 0
M  V30 2412 N 242.408 -1.52605 -0.393616 0
M  V30 2413 C 243.358 -1.73436 -1.48 0
M  V30 2414 C 244.342 -0.588386 -1.49756 0
M  V30 2415 O 245.534 -0.846047 -1.5547 0
M  V30 2416 C 242.663 -1.90247 -2.85764 0
M  V30 2417 C 241.749 -3.10763 -2.88595 0
M  V30 2418 N 242.14 -4.33196 -2.61103 0
M  V30 2419 C 240.438 -3.10914 -3.19763 0
M  V30 2420 C 241.139 -5.1477 -2.70899 0
M  V30 2421 N 240.115 -4.50356 -3.04435 0
M  V30 2422 H 243.917 -2.65727 -1.25563 0
M  V30 2423 H 241.431 -1.5085 -0.601513 0
M  V30 2424 H 243.428 -2.03291 -3.63976 0
M  V30 2425 H 242.088 -0.991663 -3.09186 0
M  V30 2426 H 243.099 -4.61408 -2.35209 0
M  V30 2427 H 239.776 -2.29626 -3.4868 0
M  V30 2428 H 241.166 -6.22355 -2.53227 0
M  V30 2429 N 243.887 0.651787 -1.4349 0
M  V30 2430 C 245.134 1.41167 -1.45183 0
M  V30 2431 C 245.462 1.94349 -0.0766601 0
M  V30 2432 O 244.717 1.72804 0.918555 0
M  V30 2433 C 245.016 2.60914 -2.44251 0
M  V30 2434 C 244.682 2.26142 -3.9009 0
M  V30 2435 C 243.344 2.16371 -4.2981 0
M  V30 2436 C 245.696 1.98334 -4.81989 0
M  V30 2437 C 243.024 1.7695 -5.5938 0
M  V30 2438 C 245.376 1.6041 -6.11924 0
M  V30 2439 C 244.04 1.49166 -6.5062 0
M  V30 2440 H 243.31 0.516566 -0.531263 0
M  V30 2441 H 245.957 0.741099 -1.76579 0
M  V30 2442 H 244.262 3.3311 -2.06265 0
M  V30 2443 H 245.959 3.19127 -2.42815 0
M  V30 2444 H 242.549 2.34658 -3.58655 0
M  V30 2445 H 246.733 2.04803 -4.52072 0
M  V30 2446 H 241.989 1.66831 -5.88198 0
M  V30 2447 H 246.163 1.37925 -6.82605 0
M  V30 2448 H 243.79 1.1839 -7.50925 0
M  V30 2449 N 245.365 1.30045 0.890287 0
M  V30 2450 C 246.776 1.16738 1.45702 0
M  V30 2451 C 247.127 -0.233939 1.948 0
M  V30 2452 O 246.252 -1.13021 1.84541 0
M  V30 2453 C 246.847 2.11313 2.64825 0
M  V30 2454 C 245.406 2.02001 3.17604 0
M  V30 2455 C 244.553 2.01699 1.90296 0
M  V30 2456 H 247.504 1.42392 0.700726 0
M  V30 2457 H 247.525 1.69086 3.40867 0
M  V30 2458 H 247.037 3.13294 2.2906 0
M  V30 2459 H 245.138 1.03142 3.5804 0
M  V30 2460 H 245.251 2.90128 3.81264 0
M  V30 2461 H 243.615 1.46427 2.08402 0
M  V30 2462 H 244.398 3.05402 1.56795 0
M  V30 2463 N 246.843 -1.10192 1.12674 0
M  V30 2464 C 248.068 -1.86523 0.906853 0
M  V30 2465 C 248.493 -1.80221 -0.538711 0
M  V30 2466 O 247.851 -1.17396 -1.38158 0
M  V30 2467 C 247.899 -3.32758 1.3894 0
M  V30 2468 O 247.003 -4.08449 0.5695 0
M  V30 2469 H 246.344 -0.578678 0.325619 0
M  V30 2470 H 248.874 -1.39203 1.49946 0
M  V30 2471 H 248.884 -3.83608 1.38958 0
M  V30 2472 H 247.559 -3.36661 2.44197 0
M  V30 2473 H 246.136 -3.67427 0.636528 0
M  V30 2474 N 248.321 -0.919034 -1.28029 0
M  V30 2475 C 249.567 -0.555757 -1.95036 0
M  V30 2476 C 249.9 0.899198 -1.72128 0
M  V30 2477 O 249.175 1.64023 -1.04531 0
M  V30 2478 C 249.458 -0.872024 -3.49382 0
M  V30 2479 C 249.311 -2.3801 -3.81669 0
M  V30 2480 C 250.63 -0.37185 -4.38526 0
M  V30 2481 H 247.749 -0.203386 -0.708381 0
M  V30 2482 H 250.391 -1.14924 -1.51303 0
M  V30 2483 H 248.541 -0.366946 -3.86763 0
M  V30 2484 H 250.213 -2.9562 -3.54128 0
M  V30 2485 H 248.456 -2.83289 -3.28526 0
M  V30 2486 H 249.127 -2.55192 -4.8947 0
M  V30 2487 H 251.603 -0.804602 -4.08247 0
M  V30 2488 H 250.479 -0.622173 -5.45362 0
M  V30 2489 H 250.74 0.727934 -4.36066 0
M  V30 2490 N 249.799 1.42003 -0.683588 0
M  V30 2491 C 251.045 2.01712 -0.209825 0
M  V30 2492 C 251.378 1.53968 1.18353 0
M  V30 2493 O 250.653 0.745661 1.79639 0
M  V30 2494 C 250.936 3.59202 -0.254197 0
M  V30 2495 C 250.789 4.17102 -1.68363 0
M  V30 2496 C 252.108 4.38344 0.392709 0
M  V30 2497 H 249.227 0.732891 -0.0777189 0
M  V30 2498 H 251.869 1.68909 -0.87004 0
M  V30 2499 H 250.019 3.87278 0.307954 0
M  V30 2500 H 251.691 3.99946 -2.29871 0
M  V30 2501 H 249.934 3.72597 -2.22157 0
M  V30 2502 H 250.605 5.26249 -1.6663 0
M  V30 2503 H 253.081 4.16011 -0.0859162 0
M  V30 2504 H 251.957 5.47901 0.331063 0
M  V30 2505 H 252.218 4.16887 1.47164 0
M  V30 2506 N 251.277 0.427512 1.51691 0
M  V30 2507 C 252.24 -0.377132 2.26076 0
M  V30 2508 C 253.24 -0.958089 1.29141 0
M  V30 2509 O 254.43 -0.83408 1.52934 0
M  V30 2510 C 251.562 -1.53262 3.04506 0
M  V30 2511 H 252.755 0.27464 2.9864 0
M  V30 2512 H 250.308 0.180445 1.55255 0
M  V30 2513 H 251.043 -2.22072 2.36335 0
M  V30 2514 H 250.828 -1.12232 3.75694 0
M  V30 2515 H 252.318 -2.10135 3.60878 0
M  V30 2516 N 252.755 -1.56801 0.158532 0
M  V30 2517 C 254.001 -1.96781 -0.490405 0
M  V30 2518 C 254.334 -1.04397 -1.63753 0
M  V30 2519 O 253.609 -0.0885805 -1.94298 0
M  V30 2520 C 253.892 -3.4635 -0.985594 0
M  V30 2521 C 253.745 -4.49512 0.160824 0
M  V30 2522 C 255.064 -3.98697 -1.86355 0
M  V30 2523 H 252.183 -0.715482 -0.176788 0
M  V30 2524 H 254.825 -1.88451 0.242088 0
M  V30 2525 H 252.975 -3.53579 -1.60978 0
M  V30 2526 H 254.647 -4.54353 0.797537 0
M  V30 2527 H 252.89 -4.26013 0.818256 0
M  V30 2528 H 253.561 -5.51531 -0.227569 0
M  V30 2529 H 256.037 -3.94019 -1.33746 0
M  V30 2530 H 254.913 -5.03792 -2.17909 0
M  V30 2531 H 255.174 -3.41744 -2.8047 0
M  V30 2532 N 254.233 0.115231 -1.57178 0
M  V30 2533 C 255.143 1.15994 -2.03918 0
M  V30 2534 C 256.159 1.45103 -0.960268 0
M  V30 2535 O 257.335 1.56144 -1.27204 0
M  V30 2536 C 254.4 2.46568 -2.43732 0
M  V30 2537 C 253.461 2.24822 -3.65723 0
M  V30 2538 C 252.694 3.4917 -4.03629 0
M  V30 2539 O 252.917 4.56623 -3.41835 0
M  V30 2540 O 251.851 3.39949 -4.96708 0
M  V30 2541 H 255.677 0.793019 -2.93164 0
M  V30 2542 H 253.262 0.3263 -1.45793 0
M  V30 2543 H 255.144 3.23492 -2.70057 0
M  V30 2544 H 253.819 2.82726 -1.57631 0
M  V30 2545 H 252.726 1.45744 -3.44542 0
M  V30 2546 H 254.059 1.93566 -4.52541 0
M  V30 2547 N 255.711 1.52812 0.385517 0
M  V30 2548 C 256.644 1.72592 1.49289 0
M  V30 2549 C 257.622 0.573819 1.52138 0
M  V30 2550 O 258.806 0.80404 1.70492 0
M  V30 2551 C 255.933 1.78669 2.87741 0
M  V30 2552 C 254.979 3.00455 3.02703 0
M  V30 2553 S 255.812 4.60366 2.73538 0
M  V30 2554 C 256.968 4.69263 4.14177 0
M  V30 2555 H 257.201 2.66248 1.32285 0
M  V30 2556 H 254.734 1.43148 0.578611 0
M  V30 2557 H 256.692 1.82855 3.67524 0
M  V30 2558 H 255.353 0.861 3.02069 0
M  V30 2559 H 254.546 3.01258 4.04054 0
M  V30 2560 H 254.148 2.94278 2.30817 0
M  V30 2561 H 256.44 4.48092 5.08153 0
M  V30 2562 H 257.383 5.71276 4.18388 0
M  V30 2563 H 257.791 3.98072 4.00249 0
M  V30 2564 N 257.189 -0.644168 1.43834 0
M  V30 2565 C 258.099 -1.78563 1.52159 0
M  V30 2566 C 259.115 -1.69147 0.408069 0
M  V30 2567 O 260.291 -1.90156 0.663524 0
M  V30 2568 C 257.356 -3.14888 1.45073 0
M  V30 2569 C 256.417 -3.36034 2.6717 0
M  V30 2570 C 255.65 -4.65855 2.60413 0
M  V30 2571 O 255.873 -5.45805 1.65689 0
M  V30 2572 O 254.807 -4.88918 3.5106 0
M  V30 2573 H 258.633 -1.74494 2.48567 0
M  V30 2574 H 256.218 -0.80378 1.25935 0
M  V30 2575 H 258.1 -3.96179 1.43597 0
M  V30 2576 H 256.775 -3.19528 0.518037 0
M  V30 2577 H 255.682 -2.54472 2.74217 0
M  V30 2578 H 257.015 -3.36247 3.59442 0
M  V30 2579 N 258.668 -1.30515 -0.883378 0
M  V30 2580 C 259.631 -1.1701 -1.97082 0
M  V30 2581 C 260.631 -0.10089 -1.60483 0
M  V30 2582 O 261.821 -0.349127 -1.70666 0
M  V30 2583 C 258.953 -0.793045 -3.31547 0
M  V30 2584 H 260.146 -2.13622 -2.10489 0
M  V30 2585 H 257.699 -1.13935 -1.06998 0
M  V30 2586 H 258.434 0.172499 -3.23841 0
M  V30 2587 H 258.219 -1.56576 -3.5948 0
M  V30 2588 H 259.709 -0.722073 -4.1131 0
M  V30 2589 N 260.146 1.09593 -1.13257 0
M  V30 2590 C 261.371 1.8604 -0.916732 0
M  V30 2591 C 261.796 1.80504 0.529146 0
M  V30 2592 O 261.154 1.18127 1.37534 0
M  V30 2593 C 261.202 3.32017 -1.40703 0
M  V30 2594 O 260.306 4.08141 -0.591153 0
M  V30 2595 H 259.647 0.576943 -0.328683 0
M  V30 2596 H 262.177 1.38405 -1.50682 0
M  V30 2597 H 262.187 3.82865 -1.4099 0
M  V30 2598 H 260.862 3.35361 -2.45979 0
M  V30 2599 H 259.439 3.67084 -0.656005 0
M  V30 2600 N 261.624 0.925811 1.2754 0
M  V30 2601 C 262.587 0.428129 2.25166 0
M  V30 2602 C 263.587 -0.452261 1.54309 0
M  V30 2603 O 264.777 -0.253608 1.72344 0
M  V30 2604 C 261.909 -0.384749 3.38722 0
M  V30 2605 H 263.102 1.29066 2.70706 0
M  V30 2606 H 260.655 0.706323 1.3943 0
M  V30 2607 H 261.39 -1.26618 2.98561 0
M  V30 2608 H 261.175 0.246454 3.91325 0
M  V30 2609 H 262.665 -0.723389 4.11287 0
M  V30 2610 N 263.102 -1.41638 0.69111 0
M  V30 2611 C 264.351 -2.00526 0.217318 0
M  V30 2612 C 264.664 -1.55353 -1.18848 0
M  V30 2613 O 265.87 -2.06769 -1.75951 0
M  V30 2614 C 264.326 -3.58313 0.337639 0
M  V30 2615 C 263.934 -4.12469 1.74852 0
M  V30 2616 C 265.678 -4.24431 -0.0766066 0
M  V30 2617 C 263.585 -5.62675 1.82074 0
M  V30 2618 H 262.515 -0.750008 0.0774893 0
M  V30 2619 H 265.166 -1.6217 0.858661 0
M  V30 2620 H 263.548 -3.9425 -0.371879 0
M  V30 2621 H 264.722 -3.8796 2.48644 0
M  V30 2622 H 263.037 -3.58861 2.11205 0
M  V30 2623 H 265.634 -5.34683 -0.0430284 0
M  V30 2624 H 265.977 -4.01101 -1.1146 0
M  V30 2625 H 266.51 -3.93512 0.582476 0
M  V30 2626 H 263.249 -5.90826 2.83911 0
M  V30 2627 H 262.769 -5.89124 1.12661 0
M  V30 2628 H 264.448 -6.27371 1.58159 0
M  V30 2629 N 264.58 -0.43555 -1.51462 0
M  V30 2630 C 265.543 0.365137 -2.26273 0
M  V30 2631 C 266.543 0.951227 -1.29647 0
M  V30 2632 O 267.733 0.825958 -1.53374 0
M  V30 2633 C 264.865 1.51645 -3.05314 0
M  V30 2634 H 266.058 -0.290474 -2.9849 0
M  V30 2635 H 263.611 -0.188676 -1.55157 0
M  V30 2636 H 264.346 2.20816 -2.3751 0
M  V30 2637 H 264.131 1.10238 -3.76284 0
M  V30 2638 H 265.621 2.08218 -3.61987 0
M  V30 2639 N 266.058 1.56714 -0.166846 0
M  V30 2640 C 266.99 2.14914 0.796537 0
M  V30 2641 C 268.003 1.10357 1.19688 0
M  V30 2642 O 269.192 1.37561 1.13751 0
M  V30 2643 C 266.292 2.67326 2.08303 0
M  V30 2644 C 265.465 3.96493 1.84696 0
M  V30 2645 C 264.524 4.34014 2.97521 0
M  V30 2646 O 263.55 5.01973 2.6835 0
M  V30 2647 N 264.752 3.95208 4.25196 0
M  V30 2648 H 267.517 2.98205 0.299006 0
M  V30 2649 H 265.078 1.61892 0.0160839 0
M  V30 2650 H 267.07 2.89428 2.82867 0
M  V30 2651 H 265.64 1.88649 2.4926 0
M  V30 2652 H 264.86 3.82814 0.940602 0
M  V30 2653 H 266.148 4.8086 1.66285 0
M  V30 2654 H 265.546 3.40487 4.51758 0
M  V30 2655 H 264.103 4.2232 4.96477 0
M  V30 2656 N 267.536 -0.106894 1.57237 0
M  V30 2657 C 268.764 -0.826389 1.8968 0
M  V30 2658 C 269.179 -1.72856 0.759353 0
M  V30 2659 O 268.536 -1.80503 -0.269263 0
M  V30 2660 C 268.587 -1.64967 3.21665 0
M  V30 2661 O 268.308 -0.783804 4.31031 0
M  V30 2662 C 269.809 -2.47326 3.67892 0
M  V30 2663 H 267.029 -0.236927 0.627779 0
M  V30 2664 H 269.573 -0.0876593 2.04312 0
M  V30 2665 H 267.728 -2.34103 3.08666 0
M  V30 2666 H 268.142 -1.35284 5.06753 0
M  V30 2667 H 269.616 -3.00604 4.6297 0
M  V30 2668 H 270.093 -3.25247 2.95146 0
M  V30 2669 H 270.699 -1.83411 3.83719 0
M  V30 2670 N 269.014 -1.53014 -0.377408 0
M  V30 2671 C 270.254 -1.70318 -1.1301 0
M  V30 2672 C 270.618 -0.439538 -1.86901 0
M  V30 2673 O 271.819 -0.489095 -2.64313 0
M  V30 2674 C 270.09 -2.91125 -2.07319 0
M  V30 2675 S 271.649 -3.29075 -2.90268 0
M  V30 2676 H 268.467 -0.599426 -0.382374 0
M  V30 2677 H 271.069 -1.91089 -0.412933 0
M  V30 2678 H 269.773 -3.81303 -1.51777 0
M  V30 2679 H 269.304 -2.7272 -2.83526 0
M  V30 2680 H 271.319 -2.80165 -4.09539 0
M  V30 2681 N 270.492 0.636531 -1.44174 0
M  V30 2682 C 271.442 1.74233 -1.47061 0
M  V30 2683 C 272.426 1.57331 -0.337034 0
M  V30 2684 O 273.618 1.67159 -0.581973 0
M  V30 2685 C 270.747 3.12897 -1.41246 0
M  V30 2686 C 269.833 3.35288 -2.59698 0
M  V30 2687 N 270.224 3.2807 -3.84972 0
M  V30 2688 C 268.522 3.66065 -2.54778 0
M  V30 2689 C 269.223 3.51001 -4.63867 0
M  V30 2690 N 268.199 3.73616 -3.94857 0
M  V30 2691 H 272.001 1.67103 -2.41773 0
M  V30 2692 H 269.515 0.838806 -1.3906 0
M  V30 2693 H 271.512 3.92189 -1.41398 0
M  V30 2694 H 270.172 3.21197 -0.47569 0
M  V30 2695 H 271.183 3.07109 -4.17019 0
M  V30 2696 H 267.86 3.81379 -1.6987 0
M  V30 2697 H 269.25 3.51059 -5.72894 0
M  V30 2698 N 271.97 1.30982 0.876444 0
M  V30 2699 C 272.902 1.13902 1.98894 0
M  V30 2700 C 273.915 0.0798815 1.62604 0
M  V30 2701 O 275.104 0.326743 1.75484 0
M  V30 2702 C 272.204 0.716699 3.31235 0
M  V30 2703 C 271.377 1.85945 3.95908 0
M  V30 2704 C 270.436 1.42426 5.06558 0
M  V30 2705 O 269.462 2.13287 5.27729 0
M  V30 2706 N 270.664 0.308025 5.79682 0
M  V30 2707 H 273.429 2.09724 2.14094 0
M  V30 2708 H 270.99 1.2323 1.05004 0
M  V30 2709 H 272.982 0.408403 4.02634 0
M  V30 2710 H 271.552 -0.149719 3.12241 0
M  V30 2711 H 270.772 2.33541 3.17573 0
M  V30 2712 H 272.06 2.62503 4.35855 0
M  V30 2713 H 271.458 -0.282241 5.64995 0
M  V30 2714 H 270.015 0.0592282 6.51773 0
M  V30 2715 N 273.449 -1.08991 1.13837 0
M  V30 2716 C 274.696 -1.81258 0.902882 0
M  V30 2717 C 275.024 -1.85936 -0.570803 0
M  V30 2718 O 274.279 -1.3267 -1.43865 0
M  V30 2719 C 274.578 -3.27042 1.44147 0
M  V30 2720 C 274.244 -3.4249 2.93276 0
M  V30 2721 C 272.906 -3.46414 3.33992 0
M  V30 2722 C 275.258 -3.4666 3.892 0
M  V30 2723 C 272.586 -3.52091 4.69307 0
M  V30 2724 C 274.938 -3.53872 5.24364 0
M  V30 2725 C 273.602 -3.56066 5.646 0
M  V30 2726 H 272.872 -0.663268 0.330388 0
M  V30 2727 H 275.519 -1.28368 1.42105 0
M  V30 2728 H 273.824 -3.82599 0.844097 0
M  V30 2729 H 275.521 -3.81499 1.23528 0
M  V30 2730 H 272.111 -3.40124 2.60794 0
M  V30 2731 H 276.295 -3.42865 3.58828 0
M  V30 2732 H 271.551 -3.52079 4.9985 0
M  V30 2733 H 275.725 -3.56043 5.98503 0
M  V30 2734 H 273.352 -3.60218 6.69438 0
M  V30 2735 N 274.927 -0.932562 -1.27047 0
M  V30 2736 C 275.874 -0.434072 -2.26681 0
M  V30 2737 C 276.844 0.501639 -1.58344 0
M  V30 2738 O 278.029 0.419734 -1.86126 0
M  V30 2739 C 275.169 0.30261 -3.43771 0
M  V30 2740 C 274.282 -0.667774 -4.26808 0
M  V30 2741 C 273.417 0.0892393 -5.31125 0
M  V30 2742 C 272.456 -0.873532 -6.05835 0
M  V30 2743 N 271.593 -0.148832 -7.01942 0
M  V30 2744 H 276.433 -1.28868 -2.68695 0
M  V30 2745 H 273.97 -0.646713 -1.32121 0
M  V30 2746 H 275.928 0.746092 -4.10474 0
M  V30 2747 H 274.558 1.12142 -3.02695 0
M  V30 2748 H 273.61 -1.22978 -3.59973 0
M  V30 2749 H 274.922 -1.40337 -4.78651 0
M  V30 2750 H 274.076 0.592409 -6.03801 0
M  V30 2751 H 272.815 0.85777 -4.80097 0
M  V30 2752 H 271.82 -1.38791 -5.31994 0
M  V30 2753 H 273.045 -1.64193 -6.58952 0
M  V30 2754 H 270.991 0.601365 -6.53238 0
M  V30 2755 H 270.908 -0.82391 -7.51497 0
M  V30 2756 H 272.176 0.333527 -7.78786 0
M  V30 2757 N 276.405 1.4127 -0.698611 0
M  V30 2758 C 277.651 2.01478 -0.231207 0
M  V30 2759 C 277.984 1.55215 1.16713 0
M  V30 2760 O 277.259 0.764672 1.78838 0
M  V30 2761 C 277.542 3.58912 -0.292281 0
M  V30 2762 C 277.395 4.15293 -1.72778 0
M  V30 2763 C 278.714 4.38736 0.346194 0
M  V30 2764 H 275.833 0.732025 -0.0854878 0
M  V30 2765 H 278.475 1.67977 -0.887906 0
M  V30 2766 H 276.625 3.87582 0.26686 0
M  V30 2767 H 278.297 3.97486 -2.341 0
M  V30 2768 H 276.54 3.7022 -2.26096 0
M  V30 2769 H 277.211 5.24452 -1.72202 0
M  V30 2770 H 279.687 4.15897 -0.130035 0
M  V30 2771 H 278.563 5.48221 0.272932 0
M  V30 2772 H 278.824 4.18425 1.42734 0
M  V30 2773 N 277.883 0.443576 1.51229 0
M  V30 2774 C 279.294 -0.0180867 1.86691 0
M  V30 2775 C 279.645 -1.41384 1.36033 0
M  V30 2776 O 278.77 -2.04291 0.713722 0
M  V30 2777 C 279.365 -0.039597 3.38777 0
M  V30 2778 C 277.924 -0.445692 3.73752 0
M  V30 2779 C 277.071 0.357584 2.74985 0
M  V30 2780 H 280.022 0.659138 1.44364 0
M  V30 2781 H 280.043 -0.847761 3.70936 0
M  V30 2782 H 279.555 0.976382 3.75617 0
M  V30 2783 H 277.656 -1.46704 3.42503 0
M  V30 2784 H 277.769 -0.166155 4.78812 0
M  V30 2785 H 276.133 -0.184973 2.54027 0
M  V30 2786 H 276.916 1.37256 3.14668 0
M  V30 2787 N 279.361 -1.56624 0.175154 0
M  V30 2788 C 280.608 -1.96999 -0.468811 0
M  V30 2789 C 280.936 -1.06129 -1.62994 0
M  V30 2790 O 280.191 -0.0961771 -1.95464 0
M  V30 2791 C 280.49 -3.43419 -0.989864 0
M  V30 2792 C 280.156 -4.50866 0.0557687 0
M  V30 2793 C 278.818 -4.79975 0.343134 0
M  V30 2794 C 281.17 -5.15551 0.765308 0
M  V30 2795 C 278.498 -5.71066 1.34536 0
M  V30 2796 C 280.85 -6.07724 1.75654 0
M  V30 2797 C 279.514 -6.35199 2.05132 0
M  V30 2798 H 278.784 -0.720869 -0.17155 0
M  V30 2799 H 281.431 -1.89616 0.267924 0
M  V30 2800 H 279.736 -3.47772 -1.80449 0
M  V30 2801 H 281.433 -3.72002 -1.49719 0
M  V30 2802 H 278.023 -4.28229 -0.178381 0
M  V30 2803 H 282.207 -4.9317 0.556513 0
M  V30 2804 H 277.463 -5.90635 1.57988 0
M  V30 2805 H 281.637 -6.56912 2.31169 0
M  V30 2806 H 279.264 -7.05584 2.8294 0
M  V30 2807 N 280.839 0.0985539 -1.57292 0
M  V30 2808 C 282.085 0.803867 -1.86188 0
M  V30 2809 C 282.418 1.78549 -0.763794 0
M  V30 2810 O 281.693 1.93153 0.22855 0
M  V30 2811 C 281.976 1.53568 -3.25713 0
M  V30 2812 C 281.829 0.572277 -4.46145 0
M  V30 2813 C 283.148 2.48708 -3.63087 0
M  V30 2814 H 280.267 0.290781 -0.677211 0
M  V30 2815 H 282.909 0.0675783 -1.8988 0
M  V30 2816 H 281.059 2.16332 -3.22696 0
M  V30 2817 H 282.731 -0.0480894 -4.61275 0
M  V30 2818 H 280.974 -0.114618 -4.33649 0
M  V30 2819 H 281.645 1.12139 -5.40489 0
M  V30 2820 H 284.121 1.96039 -3.67026 0
M  V30 2821 H 282.997 2.96932 -4.61652 0
M  V30 2822 H 283.258 3.32309 -2.91588 0
M  V30 2823 N 282.317 1.53212 0.369288 0
M  V30 2824 C 283.563 1.69466 1.11397 0
M  V30 2825 C 283.896 0.443257 1.89074 0
M  V30 2826 O 283.171 -0.559386 1.86282 0
M  V30 2827 C 283.454 2.9422 2.07621 0
M  V30 2828 C 283.307 4.29508 1.33577 0
M  V30 2829 C 284.626 3.14565 3.07794 0
M  V30 2830 H 281.745 0.616667 0.403597 0
M  V30 2831 H 284.387 1.85845 0.395179 0
M  V30 2832 H 282.537 2.80387 2.68916 0
M  V30 2833 H 284.209 4.55147 0.750955 0
M  V30 2834 H 282.452 4.29088 0.637618 0
M  V30 2835 H 283.123 5.12926 2.03989 0
M  V30 2836 H 285.599 3.2756 2.56601 0
M  V30 2837 H 284.475 4.03297 3.72348 0
M  V30 2838 H 284.736 2.29675 3.77759 0
M  V30 2839 N 283.795 -0.628877 1.44509 0
M  V30 2840 C 285.041 -1.39045 1.47629 0
M  V30 2841 C 285.374 -1.93892 0.109343 0
M  V30 2842 O 284.649 -1.7379 -0.87334 0
M  V30 2843 C 284.932 -2.55408 2.53848 0
M  V30 2844 C 284.785 -2.05896 3.99909 0
M  V30 2845 C 286.104 -3.5759 2.56549 0
M  V30 2846 H 283.223 -0.504232 0.537512 0
M  V30 2847 H 285.865 -0.710854 1.76201 0
M  V30 2848 H 284.015 -3.13384 2.29615 0
M  V30 2849 H 285.687 -1.52734 4.35282 0
M  V30 2850 H 283.93 -1.37061 4.11578 0
M  V30 2851 H 284.601 -2.89681 4.69882 0
M  V30 2852 H 287.077 -3.09419 2.78207 0
M  V30 2853 H 285.953 -4.36527 3.32769 0
M  V30 2854 H 286.214 -4.11808 1.60832 0
M  V30 2855 N 285.273 -1.31445 -0.869486 0
M  V30 2856 C 286.689 -1.10113 -1.15531 0
M  V30 2857 C 286.889 0.128087 -2.01092 0
M  V30 2858 O 285.945 0.817276 -2.38908 0
M  V30 2859 C 287.258 -2.37291 -1.84698 0
M  V30 2860 C 288.806 -2.42906 -1.97397 0
M  V30 2861 C 289.281 -3.69967 -2.69979 0
M  V30 2862 N 290.772 -3.70864 -2.77514 0
M  V30 2863 C 291.507 -4.65875 -3.34287 0
M  V30 2864 N 291.003 -5.71242 -3.91988 0
M  V30 2865 N 292.796 -4.53394 -3.3225 0
M  V30 2866 H 284.947 -2.1028 -0.299347 0
M  V30 2867 H 287.21 -0.927683 -0.195214 0
M  V30 2868 H 286.916 -3.27078 -1.29278 0
M  V30 2869 H 286.79 -2.47125 -2.84972 0
M  V30 2870 H 289.177 -1.53588 -2.51982 0
M  V30 2871 H 289.258 -2.37036 -0.961643 0
M  V30 2872 H 288.902 -4.59652 -2.16062 0
M  V30 2873 H 288.832 -3.73103 -3.7162 0
M  V30 2874 H 291.323 -2.94697 -2.36563 0
M  V30 2875 H 291.636 -6.39817 -4.33421 0
M  V30 2876 H 289.981 -5.75015 -3.90362 0
M  V30 2877 H 293.172 -3.70252 -2.8641 0
M  V30 2878 H 293.345 -5.27617 -3.76197 0
M  V30 2879 N 286.751 1.08385 -1.14413 0
M  V30 2880 C 287.714 2.13486 -0.834048 0
M  V30 2881 C 288.714 1.59988 0.161418 0
M  V30 2882 O 289.904 1.74071 -0.0669575 0
M  V30 2883 C 287.036 3.4003 -0.243354 0
M  V30 2884 H 288.229 2.42425 -1.7655 0
M  V30 2885 H 285.782 1.24101 -0.950189 0
M  V30 2886 H 286.517 3.16726 0.696807 0
M  V30 2887 H 286.302 3.80157 -0.960367 0
M  V30 2888 H 287.792 4.17577 -0.0436242 0
M  V30 2889 N 288.23 0.939286 1.26551 0
M  V30 2890 C 289.479 0.581601 1.93133 0
M  V30 2891 C 289.792 -0.883224 1.74524 0
M  V30 2892 O 290.998 -1.3502 2.35546 0
M  V30 2893 C 289.454 0.989425 3.46032 0
M  V30 2894 C 289.062 2.47573 3.73379 0
M  V30 2895 C 290.806 0.703544 4.18629 0
M  V30 2896 C 288.713 2.82235 5.19709 0
M  V30 2897 H 287.643 0.213803 0.723052 0
M  V30 2898 H 290.294 1.14167 1.4366 0
M  V30 2899 H 288.676 0.357902 3.94379 0
M  V30 2900 H 289.85 3.15614 3.35744 0
M  V30 2901 H 288.165 2.73471 3.1401 0
M  V30 2902 H 290.762 0.938869 5.26393 0
M  V30 2903 H 291.105 -0.359639 4.14744 0
M  V30 2904 H 291.638 1.2947 3.76141 0
M  V30 2905 H 288.377 3.87509 5.28694 0
M  V30 2906 H 287.897 2.18854 5.58447 0
M  V30 2907 H 289.576 2.70599 5.87695 0
M  V30 2908 N 289.708 -1.40897 0.706093 0
M  V30 2909 C 290.933 -2.05895 0.249435 0
M  V30 2910 C 291.358 -1.52823 -1.09666 0
M  V30 2911 O 290.716 -0.659589 -1.68876 0
M  V30 2912 C 290.764 -3.59872 0.22904 0
M  V30 2913 O 289.868 -4.04708 -0.792784 0
M  V30 2914 H 289.209 -0.653206 0.119241 0
M  V30 2915 H 291.739 -1.80471 0.96391 0
M  V30 2916 H 291.749 -4.07951 0.0634791 0
M  V30 2917 H 290.424 -3.97866 1.21141 0
M  V30 2918 H 289.001 -3.68111 -0.59572 0
M  V30 2919 N 291.186 -0.45159 -1.50991 0
M  V30 2920 C 292.463 0.170707 -1.94854 0
M  V30 2921 C 292.843 1.58788 -1.39103 0
M  V30 2922 O 292.191 2.20913 -0.583921 0
M  V30 2923 C 292.401 0.133929 -3.48743 0
M  V30 2924 C 293.749 0.33248 -4.23296 0
M  V30 2925 O 294.773 0.211403 -3.55572 0
M  V30 2926 O 293.632 0.57486 -5.43468 0
M  V30 2927 H 290.726 0.122264 -0.817912 0
M  V30 2928 H 293.272 -0.510594 -1.61836 0
M  V30 2929 H 292.044 -0.856283 -3.81816 0
M  V30 2930 H 291.667 0.857529 -3.88242 0
M  V30 2931 N 292.664 1.56529 -0.183458 0
M  V30 2932 C 293.91 1.97537 0.459036 0
M  V30 2933 C 294.243 1.06989 1.62071 0
M  V30 2934 O 293.518 0.11948 1.94133 0
M  V30 2935 C 293.801 3.47874 0.930368 0
M  V30 2936 C 293.654 4.492 -0.232317 0
M  V30 2937 C 294.973 4.01612 1.79989 0
M  V30 2938 H 292.092 0.718204 0.165383 0
M  V30 2939 H 294.734 1.88042 -0.272038 0
M  V30 2940 H 292.884 3.56095 1.55333 0
M  V30 2941 H 294.556 4.53027 -0.86972 0
M  V30 2942 H 292.799 4.24657 -0.885928 0
M  V30 2943 H 293.47 5.51823 0.139796 0
M  V30 2944 H 295.946 3.96097 1.27461 0
M  V30 2945 H 294.822 5.07195 2.09867 0
M  V30 2946 H 295.083 3.46163 2.74998 0
M  V30 2947 N 294.142 -0.090211 1.57342 0
M  V30 2948 C 295.105 -1.09335 2.01441 0
M  V30 2949 C 296.105 -1.32666 0.908641 0
M  V30 2950 O 297.295 -1.28697 1.174 0
M  V30 2951 C 294.427 -2.44136 2.3793 0
M  V30 2952 H 295.62 -0.713662 2.91285 0
M  V30 2953 H 293.173 -0.335404 1.52659 0
M  V30 2954 H 293.908 -2.86972 1.51055 0
M  V30 2955 H 293.693 -2.28548 3.18603 0
M  V30 2956 H 295.183 -3.16277 2.72688 0
M  V30 2957 N 295.62 -1.53406 -0.361157 0
M  V30 2958 C 296.897 -1.60411 -1.11927 0
M  V30 2959 C 297.277 -0.414385 -2.06993 0
M  V30 2960 O 296.625 0.594976 -2.20618 0
M  V30 2961 C 296.835 -2.95652 -1.85448 0
M  V30 2962 C 298.183 -3.50386 -2.39823 0
M  V30 2963 O 299.207 -2.97711 -1.95568 0
M  V30 2964 O 298.066 -4.42482 -3.20737 0
M  V30 2965 H 295.16 -0.64811 -0.513695 0
M  V30 2966 H 297.706 -1.65749 -0.364065 0
M  V30 2967 H 296.478 -3.73682 -1.16091 0
M  V30 2968 H 296.101 -2.93825 -2.67866 0
M  V30 2969 N 297.098 0.621204 -1.44841 0
M  V30 2970 C 298.045 1.73267 -1.5247 0
M  V30 2971 C 299.015 1.6189 -0.371611 0
M  V30 2972 O 300.2 1.81668 -0.58321 0
M  V30 2973 C 297.34 3.11545 -1.48438 0
M  V30 2974 C 296.453 3.33827 -2.74196 0
M  V30 2975 C 295.588 4.62133 -2.61929 0
M  V30 2976 C 294.627 4.77627 -3.82804 0
M  V30 2977 N 293.764 5.97219 -3.69153 0
M  V30 2978 H 298.604 1.66082 -2.47428 0
M  V30 2979 H 296.141 0.810026 -1.22788 0
M  V30 2980 H 298.099 3.91528 -1.4409 0
M  V30 2981 H 296.729 3.1772 -0.570402 0
M  V30 2982 H 295.781 2.47715 -2.88689 0
M  V30 2983 H 297.093 3.41153 -3.6389 0
M  V30 2984 H 296.247 5.50291 -2.5547 0
M  V30 2985 H 294.986 4.57182 -1.69811 0
M  V30 2986 H 293.991 3.87896 -3.89637 0
M  V30 2987 H 295.216 4.84385 -4.75971 0
M  V30 2988 H 293.162 5.93339 -2.79794 0
M  V30 2989 H 293.079 6.05644 -4.52472 0
M  V30 2990 H 294.347 6.87912 -3.66603 0
M  V30 2991 N 298.576 1.31904 0.862503 0
M  V30 2992 C 299.486 1.22161 2.00285 0
M  V30 2993 C 300.502 0.136785 1.73462 0
M  V30 2994 O 301.678 0.355994 1.98229 0
M  V30 2995 C 298.743 0.937093 3.33796 0
M  V30 2996 C 297.804 2.10957 3.73893 0
M  V30 2997 C 297.037 1.83853 5.01033 0
M  V30 2998 O 297.26 0.777274 5.65079 0
M  V30 2999 O 296.194 2.69741 5.38074 0
M  V30 3000 H 300.02 2.18008 2.11439 0
M  V30 3001 H 297.605 1.11716 0.991957 0
M  V30 3002 H 299.487 0.794583 4.13841 0
M  V30 3003 H 298.162 0.00871894 3.23699 0
M  V30 3004 H 297.069 2.30752 2.94456 0
M  V30 3005 H 298.402 3.02046 3.88625 0
M  V30 3006 N 300.054 -1.07777 1.14986 0
M  V30 3007 C 301.279 -1.84558 0.946213 0
M  V30 3008 C 301.704 -1.81323 -0.500362 0
M  V30 3009 O 301.062 -1.20301 -1.35637 0
M  V30 3010 C 301.11 -3.29736 1.45968 0
M  V30 3011 O 300.214 -4.07149 0.65601 0
M  V30 3012 H 299.555 -0.571641 0.33782 0
M  V30 3013 H 302.085 -1.35991 1.52865 0
M  V30 3014 H 302.095 -3.80574 1.47063 0
M  V30 3015 H 300.77 -3.31406 2.51283 0
M  V30 3016 H 299.347 -3.65994 0.714322 0
M  V30 3017 N 301.532 -0.945985 -1.26051 0
M  V30 3018 C 302.943 -0.638096 -1.75457 0
M  V30 3019 C 303.294 0.846672 -1.76991 0
M  V30 3020 O 302.419 1.66262 -1.38513 0
M  V30 3021 C 303.014 -1.15157 -3.18629 0
M  V30 3022 C 301.573 -0.894004 -3.65629 0
M  V30 3023 C 300.72 -1.29967 -2.44957 0
M  V30 3024 H 303.671 -1.12376 -1.1206 0
M  V30 3025 H 303.692 -0.507615 -3.77099 0
M  V30 3026 H 303.204 -2.23222 -3.1748 0
M  V30 3027 H 301.305 0.172057 -3.72203 0
M  V30 3028 H 301.418 -1.52439 -4.54202 0
M  V30 3029 H 299.782 -0.718078 -2.44368 0
M  V30 3030 H 300.565 -2.38935 -2.46505 0
M  V30 3031 N 303.011 1.40521 -0.713556 0
M  V30 3032 C 303.941 2.33381 -0.0743864 0
M  V30 3033 C 304.922 1.52784 0.747735 0
M  V30 3034 O 306.107 1.81258 0.697071 0
M  V30 3035 C 303.237 3.36748 0.849598 0
M  V30 3036 C 302.191 4.27793 0.133247 0
M  V30 3037 C 301.517 5.21679 1.17281 0
M  V30 3038 C 302.817 5.12415 -1.01134 0
M  V30 3039 H 304.511 2.87081 -0.850007 0
M  V30 3040 H 302.057 1.38034 -0.410201 0
M  V30 3041 H 304.01 4.00648 1.30612 0
M  V30 3042 H 302.734 2.81439 1.65709 0
M  V30 3043 H 301.393 3.65342 -0.303426 0
M  V30 3044 H 301.041 4.62677 1.9733 0
M  V30 3045 H 300.741 5.83435 0.698397 0
M  V30 3046 H 302.265 5.88456 1.62947 0
M  V30 3047 H 303.679 5.69781 -0.634274 0
M  V30 3048 H 302.076 5.83203 -1.41399 0
M  V30 3049 H 303.146 4.48514 -1.84292 0
M  V30 3050 N 304.489 0.459591 1.5075 0
M  V30 3051 C 305.714 -0.0996819 2.0716 0
M  V30 3052 C 306.139 -1.33761 1.32249 0
M  V30 3053 O 305.497 -1.77551 0.366786 0
M  V30 3054 C 305.545 -0.378226 3.58611 0
M  V30 3055 O 304.649 -1.46081 3.85661 0
M  V30 3056 H 303.99 0.00791392 0.663953 0
M  V30 3057 H 306.52 0.647329 1.9409 0
M  V30 3058 H 306.53 -0.622135 4.03229 0
M  V30 3059 H 305.205 0.526439 4.12555 0
M  V30 3060 H 303.782 -1.20511 3.5289 0
M  V30 3061 N 305.967 -1.56429 0.191757 0
M  V30 3062 C 307.214 -1.97485 -0.447891 0
M  V30 3063 C 307.542 -1.07852 -1.61859 0
M  V30 3064 O 306.797 -0.116903 -1.95351 0
M  V30 3065 C 307.096 -3.44449 -0.953384 0
M  V30 3066 C 306.762 -4.50781 0.103586 0
M  V30 3067 C 305.424 -4.79584 0.394023 0
M  V30 3068 C 307.776 -5.1471 0.819946 0
M  V30 3069 C 305.104 -5.69607 1.40585 0
M  V30 3070 C 307.456 -6.05827 1.8209 0
M  V30 3071 C 306.12 -6.32987 2.11857 0
M  V30 3072 H 305.39 -0.722648 -0.163895 0
M  V30 3073 H 308.037 -1.89322 0.28802 0
M  V30 3074 H 306.342 -3.49666 -1.76751 0
M  V30 3075 H 308.039 -3.73569 -1.45765 0
M  V30 3076 H 304.629 -4.28394 -0.132951 0
M  V30 3077 H 308.813 -4.92552 0.608789 0
M  V30 3078 H 304.069 -5.88926 1.64243 0
M  V30 3079 H 308.243 -6.54424 2.38123 0
M  V30 3080 H 305.87 -7.02544 2.90407 0
M  V30 3081 N 307.445 0.0818655 -1.57387 0
M  V30 3082 C 308.355 1.11642 -2.06333 0
M  V30 3083 C 309.371 1.43033 -0.99083 0
M  V30 3084 O 310.547 1.53411 -1.30488 0
M  V30 3085 C 307.612 2.41342 -2.48907 0
M  V30 3086 C 306.673 2.17014 -3.7041 0
M  V30 3087 C 305.906 3.4053 -4.10944 0
M  V30 3088 O 306.129 4.4927 -3.51444 0
M  V30 3089 O 305.063 3.29336 -5.03807 0
M  V30 3090 H 308.889 0.730657 -2.9478 0
M  V30 3091 H 306.474 0.295301 -1.46452 0
M  V30 3092 H 308.356 3.17691 -2.76858 0
M  V30 3093 H 307.031 2.79319 -1.63593 0
M  V30 3094 H 305.938 1.38403 -3.47556 0
M  V30 3095 H 307.271 1.83923 -4.56545 0
M  V30 3096 N 308.923 1.53595 0.353017 0
M  V30 3097 C 309.833 1.83897 1.45667 0
M  V30 3098 C 310.849 0.728334 1.58023 0
M  V30 3099 O 312.025 1.01968 1.73679 0
M  V30 3100 C 309.09 2.03383 2.80778 0
M  V30 3101 C 308.151 3.27262 2.77845 0
M  V30 3102 C 307.384 3.45809 4.06512 0
M  V30 3103 O 307.607 2.68387 5.03314 0
M  V30 3104 O 306.541 4.39207 4.11559 0
M  V30 3105 H 310.367 2.77686 1.2298 0
M  V30 3106 H 307.952 1.39132 0.544308 0
M  V30 3107 H 309.834 2.17698 3.60812 0
M  V30 3108 H 308.509 1.12783 3.03417 0
M  V30 3109 H 307.416 3.18359 1.96465 0
M  V30 3110 H 308.749 4.17824 2.60161 0
M  V30 3111 N 310.401 -0.613514 1.45168 0
M  V30 3112 C 311.648 -1.37268 1.48875 0
M  V30 3113 C 311.976 -1.94077 0.128161 0
M  V30 3114 O 311.231 -1.75178 -0.872416 0
M  V30 3115 C 311.53 -2.54347 2.51083 0
M  V30 3116 C 311.196 -2.1572 3.95949 0
M  V30 3117 C 309.858 -2.04899 4.35396 0
M  V30 3118 C 312.21 -1.85485 4.87078 0
M  V30 3119 C 309.538 -1.62057 5.63875 0
M  V30 3120 C 311.89 -1.4413 6.15962 0
M  V30 3121 C 310.554 -1.31863 6.54346 0
M  V30 3122 H 309.824 -0.502299 0.544773 0
M  V30 3123 H 312.471 -0.694021 1.78481 0
M  V30 3124 H 310.776 -3.27524 2.15024 0
M  V30 3125 H 312.473 -3.12577 2.51191 0
M  V30 3126 H 309.063 -2.25066 3.64751 0
M  V30 3127 H 313.247 -1.92745 4.57343 0
M  V30 3128 H 308.503 -1.51177 5.92415 0
M  V30 3129 H 312.677 -1.19778 6.86022 0
M  V30 3130 H 310.304 -0.984392 7.538 0
M  V30 3131 N 311.879 -1.3236 -0.855495 0
M  V30 3132 C 312.809 -1.23833 -1.97958 0
M  V30 3133 C 313.79 -0.122361 -1.69659 0
M  V30 3134 O 314.975 -0.30939 -1.9172 0
M  V30 3135 C 312.105 -0.959772 -3.33775 0
M  V30 3136 C 311.059 -2.03689 -3.76424 0
M  V30 3137 C 310.385 -1.61075 -5.09862 0
M  V30 3138 C 311.685 -3.4518 -3.9198 0
M  V30 3139 H 313.379 -2.1788 -2.0535 0
M  V30 3140 H 310.925 -1.04891 -0.986605 0
M  V30 3141 H 312.878 -0.886678 -4.11966 0
M  V30 3142 H 311.602 0.0163404 -3.26596 0
M  V30 3143 H 310.261 -2.10012 -3.00484 0
M  V30 3144 H 309.909 -0.622107 -4.99138 0
M  V30 3145 H 309.609 -2.33143 -5.39368 0
M  V30 3146 H 311.133 -1.55201 -5.90546 0
M  V30 3147 H 312.547 -3.4145 -4.60526 0
M  V30 3148 H 310.944 -4.1559 -4.32903 0
M  V30 3149 H 312.014 -3.84903 -2.94919 0
M  V30 3150 N 313.357 1.07166 -1.15556 0
M  V30 3151 C 314.768 1.6127 -0.940693 0
M  V30 3152 C 315.119 1.89251 0.517551 0
M  V30 3153 O 314.244 1.65937 1.38903 0
M  V30 3154 C 314.839 2.92993 -1.7012 0
M  V30 3155 C 313.398 3.43832 -1.53156 0
M  V30 3156 C 312.545 2.1786 -1.71558 0
M  V30 3157 H 315.496 0.90229 -1.30554 0
M  V30 3158 H 315.517 3.62007 -1.17181 0
M  V30 3159 H 315.029 2.72596 -2.76248 0
M  V30 3160 H 313.13 3.69307 -0.494294 0
M  V30 3161 H 313.243 4.19747 -2.30975 0
M  V30 3162 H 311.607 2.2765 -1.14225 0
M  V30 3163 H 312.39 1.99956 -2.79056 0
M  V30 3164 N 314.835 0.952656 1.25548 0
M  V30 3165 C 315.765 0.489287 2.28316 0
M  V30 3166 C 316.746 -0.463359 1.63667 0
M  V30 3167 O 317.931 -0.36274 1.90782 0
M  V30 3168 C 315.061 -0.235603 3.465 0
M  V30 3169 C 314.015 0.631593 4.23314 0
M  V30 3170 C 313.341 -0.223923 5.34231 0
M  V30 3171 C 314.641 1.90871 4.86174 0
M  V30 3172 H 316.335 1.34822 2.67326 0
M  V30 3173 H 313.881 0.649728 1.28509 0
M  V30 3174 H 315.834 -0.570882 4.17515 0
M  V30 3175 H 314.558 -1.12877 3.06474 0
M  V30 3176 H 313.217 0.949929 3.54079 0
M  V30 3177 H 312.865 -1.11678 4.90446 0
M  V30 3178 H 312.565 0.35299 5.86539 0
M  V30 3179 H 314.089 -0.554214 6.0808 0
M  V30 3180 H 315.503 1.63997 5.49343 0
M  V30 3181 H 313.9 2.43112 5.4865 0
M  V30 3182 H 314.97 2.61304 4.08471 0
M  V30 3183 N 316.313 -1.40141 0.720998 0
M  V30 3184 C 317.276 -2.29058 0.0805834 0
M  V30 3185 C 318.276 -1.45632 -0.681758 0
M  V30 3186 O 319.466 -1.6648 -0.512856 0
M  V30 3187 C 316.598 -3.28925 -0.895593 0
M  V30 3188 H 317.791 -2.87191 0.863793 0
M  V30 3189 H 315.344 -1.48553 0.485975 0
M  V30 3190 H 316.079 -2.75822 -1.70566 0
M  V30 3191 H 315.864 -3.90519 -0.351766 0
M  V30 3192 H 317.354 -3.95494 -1.34069 0
M  V30 3193 N 317.792 -0.46758 -1.50504 0
M  V30 3194 C 318.755 0.317059 -2.26996 0
M  V30 3195 C 319.755 0.923513 -1.31635 0
M  V30 3196 O 320.945 0.793239 -1.55091 0
M  V30 3197 C 318.077 1.45134 -3.08462 0
M  V30 3198 H 319.27 -0.353723 -2.97807 0
M  V30 3199 H 316.823 -0.221545 -1.54722 0
M  V30 3200 H 317.558 2.15728 -2.4214 0
M  V30 3201 H 317.343 1.02232 -3.78538 0
M  V30 3202 H 318.833 2.00493 -3.66323 0
M  V30 3203 N 319.27 1.56325 -0.20005 0
M  V30 3204 C 320.217 2.1932 0.718833 0
M  V30 3205 C 321.187 1.14198 1.20615 0
M  V30 3206 O 322.372 1.42469 1.26914 0
M  V30 3207 C 319.512 2.86041 1.93066 0
M  V30 3208 C 318.625 4.05702 1.48425 0
M  V30 3209 C 317.76 4.60266 2.65196 0
M  V30 3210 C 316.799 5.72273 2.17185 0
M  V30 3211 N 315.936 6.21221 3.27152 0
M  V30 3212 H 320.776 2.97486 0.17489 0
M  V30 3213 H 318.313 1.46911 0.0745794 0
M  V30 3214 H 320.271 3.22897 2.64184 0
M  V30 3215 H 318.901 2.1043 2.44783 0
M  V30 3216 H 317.953 3.74475 0.668755 0
M  V30 3217 H 319.265 4.86699 1.09204 0
M  V30 3218 H 318.419 4.99453 3.4443 0
M  V30 3219 H 317.158 3.78386 3.07693 0
M  V30 3220 H 316.163 5.3261 1.36407 0
M  V30 3221 H 317.388 6.55974 1.75713 0
M  V30 3222 H 315.334 5.42263 3.69171 0
M  V30 3223 H 315.251 6.97284 2.92116 0
M  V30 3224 H 316.519 6.65063 4.06585 0
M  V30 3225 N 320.748 -0.0735177 1.57428 0
M  V30 3226 C 321.973 -0.789787 1.91774 0
M  V30 3227 C 322.398 -1.70413 0.796306 0
M  V30 3228 O 321.756 -1.79555 -0.250961 0
M  V30 3229 C 321.804 -1.5609 3.25067 0
M  V30 3230 O 320.908 -2.67144 3.14178 0
M  V30 3231 H 320.249 -0.215582 0.628029 0
M  V30 3232 H 322.779 -0.0422781 2.04556 0
M  V30 3233 H 322.789 -1.94052 3.58898 0
M  V30 3234 H 321.464 -0.890015 4.06265 0
M  V30 3235 H 320.041 -2.32052 2.91901 0
M  V30 3236 N 322.226 -1.5378 -0.344866 0
M  V30 3237 C 323.451 -1.75211 -1.10977 0
M  V30 3238 C 323.876 -0.48936 -1.81623 0
M  V30 3239 O 323.234 0.557925 -1.72502 0
M  V30 3240 C 323.282 -2.93147 -2.09993 0
M  V30 3241 O 322.386 -2.63203 -3.17487 0
M  V30 3242 H 321.727 -0.581241 -0.321021 0
M  V30 3243 H 324.257 -2.00738 -0.395661 0
M  V30 3244 H 324.267 -3.19898 -2.53237 0
M  V30 3245 H 322.942 -3.84731 -1.5797 0
M  V30 3246 H 321.519 -2.47336 -2.79069 0
M  V30 3247 N 323.704 0.605807 -1.45491 0
M  V30 3248 C 324.929 1.39625 -1.53361 0
M  V30 3249 C 325.354 1.87351 -0.167645 0
M  V30 3250 O 324.712 1.60243 0.848051 0
M  V30 3251 C 324.76 2.57559 -2.5238 0
M  V30 3252 O 323.864 3.58248 -2.04285 0
M  V30 3253 H 323.205 0.416771 -0.516912 0
M  V30 3254 H 325.735 0.737103 -1.90861 0
M  V30 3255 H 325.745 3.0478 -2.71244 0
M  V30 3256 H 324.42 2.22171 -3.51586 0
M  V30 3257 H 322.997 3.17664 -1.95305 0
M  V30 3258 N 325.182 1.32811 0.848464 0
M  V30 3259 C 326.145 1.22194 1.9391 0
M  V30 3260 C 327.145 0.143404 1.60159 0
M  V30 3261 O 328.335 0.394253 1.6968 0
M  V30 3262 C 325.467 0.88067 3.29328 0
M  V30 3263 H 326.66 2.19127 2.04752 0
M  V30 3264 H 324.213 1.16731 1.0394 0
M  V30 3265 H 324.948 -0.0865776 3.24184 0
M  V30 3266 H 324.733 1.66052 3.55203 0
M  V30 3267 H 326.223 0.830871 4.09251 0
M  V30 3268 N 326.66 -1.06551 1.16123 0
M  V30 3269 C 327.593 -2.13382 0.80892 0
M  V30 3270 C 328.571 -1.61128 -0.21827 0
M  V30 3271 O 329.755 -1.88219 -0.102952 0
M  V30 3272 C 326.882 -3.38083 0.204303 0
M  V30 3273 C 325.928 -4.09133 1.20469 0
M  V30 3274 S 326.761 -4.5948 2.75024 0
M  V30 3275 C 327.917 -5.87446 2.16005 0
M  V30 3276 H 328.15 -2.42937 1.71373 0
M  V30 3277 H 325.683 -1.18947 0.984428 0
M  V30 3278 H 327.641 -4.10268 -0.138081 0
M  V30 3279 H 326.302 -3.0669 -0.678234 0
M  V30 3280 H 325.495 -4.98685 0.730019 0
M  V30 3281 H 325.097 -3.4295 1.49202 0
M  V30 3282 H 327.389 -6.60065 1.5271 0
M  V30 3283 H 328.332 -6.39639 3.03756 0
M  V30 3284 H 328.74 -5.41354 1.59989 0
M  V30 3285 N 328.138 -0.959301 -1.25041 0
M  V30 3286 C 329.384 -0.617525 -1.9317 0
M  V30 3287 C 329.717 0.843981 -1.74902 0
M  V30 3288 O 328.992 1.60615 -1.09696 0
M  V30 3289 C 329.275 -0.982736 -3.46431 0
M  V30 3290 C 329.128 -2.50032 -3.73904 0
M  V30 3291 C 330.447 -0.511176 -4.37121 0
M  V30 3292 H 327.566 -0.22582 -0.701552 0
M  V30 3293 H 330.208 -1.19679 -1.4757 0
M  V30 3294 H 328.358 -0.489806 -3.854 0
M  V30 3295 H 330.03 -3.06737 -3.44544 0
M  V30 3296 H 328.273 -2.93598 -3.19348 0
M  V30 3297 H 328.944 -2.70635 -4.81103 0
M  V30 3298 H 331.42 -0.934075 -4.0548 0
M  V30 3299 H 330.296 -0.795361 -5.43107 0
M  V30 3300 H 330.557 0.588834 -4.38161 0
M  V30 3301 N 329.616 1.39756 -0.72842 0
M  V30 3302 C 330.546 2.33289 -0.0991354 0
M  V30 3303 C 331.527 1.53568 0.731489 0
M  V30 3304 O 332.712 1.81987 0.677807 0
M  V30 3305 C 329.842 3.3763 0.813834 0
M  V30 3306 C 328.796 4.2791 0.0878663 0
M  V30 3307 C 328.122 5.22894 1.11741 0
M  V30 3308 C 329.422 5.11314 -1.06563 0
M  V30 3309 H 331.116 2.86163 -0.880408 0
M  V30 3310 H 328.662 1.37591 -0.424819 0
M  V30 3311 H 330.615 4.0201 1.26355 0
M  V30 3312 H 329.339 2.83181 1.62715 0
M  V30 3313 H 327.998 3.65 -0.342159 0
M  V30 3314 H 327.646 4.64744 1.92412 0
M  V30 3315 H 327.346 5.84143 0.636477 0
M  V30 3316 H 328.87 5.90151 1.56697 0
M  V30 3317 H 330.284 5.69076 -0.694671 0
M  V30 3318 H 328.681 5.81671 -1.47577 0
M  V30 3319 H 329.751 4.46534 -1.89038 0
M  V30 3320 N 331.094 0.475555 1.50254 0
M  V30 3321 C 332.041 -0.316293 2.28622 0
M  V30 3322 C 333.011 -0.983227 1.33873 0
M  V30 3323 O 334.196 -0.994805 1.62814 0
M  V30 3324 C 331.336 -1.38975 3.1588 0
M  V30 3325 C 330.449 -0.737146 4.25664 0
M  V30 3326 C 329.584 -1.78887 5.00173 0
M  V30 3327 C 328.623 -1.11676 6.01826 0
M  V30 3328 N 327.76 -2.11154 6.69596 0
M  V30 3329 H 332.6 0.358297 2.95838 0
M  V30 3330 H 330.137 0.188541 1.45887 0
M  V30 3331 H 332.095 -2.02383 3.64825 0
M  V30 3332 H 330.725 -2.03344 2.50701 0
M  V30 3333 H 329.777 0.0096065 3.80399 0
M  V30 3334 H 331.089 -0.206816 4.98371 0
M  V30 3335 H 330.243 -2.49865 5.52859 0
M  V30 3336 H 328.982 -2.35302 4.27182 0
M  V30 3337 H 327.987 -0.392633 5.48396 0
M  V30 3338 H 329.212 -0.55945 6.76792 0
M  V30 3339 H 327.158 -2.66577 5.99394 0
M  V30 3340 H 327.075 -1.63118 7.38193 0
M  V30 3341 H 328.343 -2.81497 7.26897 0
M  V30 3342 N 332.573 -1.56217 0.208337 0
M  V30 3343 C 333.506 -2.15633 -0.746842 0
M  V30 3344 C 334.484 -1.09685 -1.20034 0
M  V30 3345 O 335.668 -1.3787 -1.28547 0
M  V30 3346 C 332.795 -2.72594 -2.01023 0
M  V30 3347 C 331.841 -3.91251 -1.69779 0
M  V30 3348 S 332.674 -5.28962 -0.834209 0
M  V30 3349 C 333.83 -5.89353 -2.10745 0
M  V30 3350 H 334.063 -2.96315 -0.241789 0
M  V30 3351 H 331.596 -1.54398 -0.00682183 0
M  V30 3352 H 333.554 -3.06053 -2.73572 0
M  V30 3353 H 332.215 -1.91929 -2.48641 0
M  V30 3354 H 331.408 -4.29562 -2.63614 0
M  V30 3355 H 331.01 -3.58869 -1.05303 0
M  V30 3356 H 333.302 -6.04522 -3.05875 0
M  V30 3357 H 334.245 -6.85661 -1.76845 0
M  V30 3358 H 334.653 -5.1807 -2.24196 0
M  V30 3359 N 334.051 0.0651679 -1.57465 0
M  V30 3360 C 335.297 0.764193 -1.87851 0
M  V30 3361 C 335.63 1.76889 -0.801495 0
M  V30 3362 O 334.905 1.93594 0.187528 0
M  V30 3363 C 335.188 1.46625 -3.28897 0
M  V30 3364 C 335.041 0.477515 -4.47258 0
M  V30 3365 C 336.36 2.4095 -3.68281 0
M  V30 3366 H 333.479 0.276351 -0.683227 0
M  V30 3367 H 336.121 0.0272868 -1.8998 0
M  V30 3368 H 334.271 2.09438 -3.27212 0
M  V30 3369 H 335.943 -0.145922 -4.61069 0
M  V30 3370 H 334.186 -0.206576 -4.33308 0
M  V30 3371 H 334.857 1.0065 -5.42746 0
M  V30 3372 H 337.333 1.88209 -3.71102 0
M  V30 3373 H 336.209 2.87072 -4.67847 0
M  V30 3374 H 336.47 3.26049 -2.98571 0
M  V30 3375 N 335.529 1.53961 0.336706 0
M  V30 3376 C 336.439 1.85432 1.43708 0
M  V30 3377 C 337.455 0.745053 1.57242 0
M  V30 3378 O 338.631 1.03804 1.72588 0
M  V30 3379 C 335.696 2.06349 2.78605 0
M  V30 3380 C 334.757 3.30191 2.74358 0
M  V30 3381 C 333.99 3.50101 4.02822 0
M  V30 3382 O 334.213 2.7371 5.00439 0
M  V30 3383 O 333.147 4.43547 4.06878 0
M  V30 3384 H 336.973 2.78975 1.20028 0
M  V30 3385 H 334.558 1.39701 0.52952 0
M  V30 3386 H 336.44 2.21513 3.58483 0
M  V30 3387 H 335.115 1.15995 3.02203 0
M  V30 3388 H 334.022 3.20425 1.93078 0
M  V30 3389 H 335.355 4.2056 2.55715 0
M  V30 3390 N 337.007 -0.598083 1.45811 0
M  V30 3391 C 337.937 -1.71873 1.58057 0
M  V30 3392 C 338.918 -1.64533 0.431615 0
M  V30 3393 O 340.103 -1.82787 0.65595 0
M  V30 3394 C 337.233 -3.10495 1.55597 0
M  V30 3395 C 336.187 -3.32654 2.69305 0
M  V30 3396 C 335.513 -4.71646 2.51902 0
M  V30 3397 C 336.813 -3.21981 4.11248 0
M  V30 3398 H 338.507 -1.61881 2.51863 0
M  V30 3399 H 336.053 -0.777372 1.21214 0
M  V30 3400 H 338.006 -3.88699 1.6276 0
M  V30 3401 H 336.73 -3.2135 0.583255 0
M  V30 3402 H 335.389 -2.56843 2.61586 0
M  V30 3403 H 335.037 -4.79246 1.52748 0
M  V30 3404 H 334.737 -4.87426 3.2816 0
M  V30 3405 H 336.261 -5.52038 2.60933 0
M  V30 3406 H 337.675 -3.90049 4.20161 0
M  V30 3407 H 336.072 -3.49289 4.87972 0
M  V30 3408 H 337.142 -2.1928 4.32486 0
M  V30 3409 N 338.485 -1.33259 -0.841409 0
M  V30 3410 C 339.415 -1.25926 -1.96634 0
M  V30 3411 C 340.396 -0.140349 -1.6952 0
M  V30 3412 O 341.581 -0.329707 -1.91381 0
M  V30 3413 C 338.711 -0.99512 -3.32738 0
M  V30 3414 C 337.665 -2.0767 -3.74242 0
M  V30 3415 C 336.991 -1.66474 -5.08125 0
M  V30 3416 C 338.291 -3.49318 -3.88297 0
M  V30 3417 H 339.985 -2.20046 -2.03027 0
M  V30 3418 H 337.531 -1.05931 -0.975425 0
M  V30 3419 H 339.484 -0.930323 -4.11002 0
M  V30 3420 H 338.208 -0.0183004 -3.26595 0
M  V30 3421 H 336.867 -2.13187 -2.98239 0
M  V30 3422 H 336.515 -0.675012 -4.9845 0
M  V30 3423 H 336.215 -2.3885 -5.36865 0
M  V30 3424 H 337.739 -1.61455 -5.88867 0
M  V30 3425 H 339.153 -3.46316 -4.56879 0
M  V30 3426 H 337.55 -4.20158 -4.28471 0
M  V30 3427 H 338.62 -3.8801 -2.9082 0
M  V30 3428 N 339.963 1.05934 -1.16686 0
M  V30 3429 C 340.91 2.13499 -0.876748 0
M  V30 3430 C 341.88 1.65162 0.176299 0
M  V30 3431 O 343.065 1.90757 0.0407143 0
M  V30 3432 C 340.205 3.42912 -0.387967 0
M  V30 3433 C 339.318 4.04964 -1.50426 0
M  V30 3434 C 338.453 5.22266 -0.970125 0
M  V30 3435 C 337.492 5.76309 -2.06238 0
M  V30 3436 N 336.629 6.84922 -1.54356 0
M  V30 3437 H 341.469 2.37654 -1.7979 0
M  V30 3438 H 339.006 1.16598 -0.896843 0
M  V30 3439 H 340.964 4.17111 -0.086186 0
M  V30 3440 H 339.594 3.18963 0.496235 0
M  V30 3441 H 338.646 3.28277 -1.92193 0
M  V30 3442 H 339.958 4.41122 -2.32836 0
M  V30 3443 H 339.112 6.03506 -0.621743 0
M  V30 3444 H 337.851 4.87564 -0.115377 0
M  V30 3445 H 336.856 4.93704 -2.41942 0
M  V30 3446 H 338.081 6.13062 -2.92115 0
M  V30 3447 H 336.027 6.52131 -0.711406 0
M  V30 3448 H 335.944 7.20043 -2.30379 0
M  V30 3449 H 337.212 7.69832 -1.22387 0
M  V30 3450 O 341.48 1.09547 1.18667 0
M  V30 3451 H 342.171 0.792406 1.7675 0
M  V30 END ATOM
M  V30 BEGIN BOND
M  V30 END BOND
M  V30 END CTAB
M  END
$$$$
