drugbank_target|Q9KQN0 Transcriptional regulator, HTH_3 family (DB02893)
 OpenBabel12092120253D

  0  0  0     0  0            999 V3000
M  V30 BEGIN CTAB
M  V30 COUNTS 2843 2877 0 0 0
M  V30 BEGIN ATOM
M  V30 1 H -0.908 1.98254 -0.117106 0
M  V30 2 N 0 1.576 0 0
M  V30 3 C 0.933 2.03868 1.02534 0
M  V30 4 C 1.911 0.928543 1.3348 0
M  V30 5 O 3.095 1.19667 1.45644 0
M  V30 6 C 0.222 2.43627 2.35294 0
M  V30 7 C -0.732 3.65373 2.2001 0
M  V30 8 S 0.101 5.13292 1.52614 0
M  V30 9 C 1.257 5.56322 2.86805 0
M  V30 10 H 1.49 2.90518 0.631377 0
M  V30 11 H -0.977 1.52953 0.210867 0
M  V30 12 H 0.981 2.67203 3.11629 0
M  V30 13 H -0.358 1.57376 2.7183 0
M  V30 14 H -1.165 3.90944 3.18086 0
M  V30 15 H -1.563 3.418 1.51819 0
M  V30 16 H 0.729 5.58782 3.83104 0
M  V30 17 H 1.672 6.56266 2.65933 0
M  V30 18 H 2.08 4.83886 2.90714 0
M  V30 19 N 1.4781 -0.272755 1.55222 0
M  V30 20 C 2.7061 -1.02255 1.79865 0
M  V30 21 C 3.1211 -1.79924 0.572088 0
M  V30 22 O 2.4781 -1.76638 -0.458842 0
M  V30 23 C 2.5291 -1.98094 3.02392 0
M  V30 24 O 2.2501 -1.23572 4.20311 0
M  V30 25 C 3.7511 -2.84884 3.39641 0
M  V30 26 H 0.9711 -0.302057 0.599168 0
M  V30 27 H 3.5151 -0.303465 2.02236 0
M  V30 28 H 1.6701 -2.65465 2.82147 0
M  V30 29 H 2.0841 -1.88172 4.89583 0
M  V30 30 H 3.5581 -3.47927 4.28545 0
M  V30 31 H 4.0351 -3.54665 2.59055 0
M  V30 32 H 4.6411 -2.23003 3.62146 0
M  V30 33 N 2.9562 -1.48159 -0.537278 0
M  V30 34 C 4.2332 -1.46291 -1.29839 0
M  V30 35 C 4.6132 -0.170613 -2.10409 0
M  V30 36 O 3.9612 0.847746 -2.12192 0
M  V30 37 C 4.1712 -2.72055 -2.18603 0
M  V30 38 C 5.5192 -3.20087 -2.7898 0
M  V30 39 O 6.5432 -2.72921 -2.28894 0
M  V30 40 O 5.4022 -4.02138 -3.70064 0
M  V30 41 H 2.4962 -0.583906 -0.585647 0
M  V30 42 H 5.0422 -1.60384 -0.554534 0
M  V30 43 H 3.8142 -3.57628 -1.58801 0
M  V30 44 H 3.4372 -2.60646 -3.00249 0
M  V30 45 N 4.4343 0.785586 -1.36625 0
M  V30 46 C 5.6803 1.54591 -1.31261 0
M  V30 47 C 6.0133 1.93906 0.106823 0
M  V30 48 O 5.2883 1.63007 1.06108 0
M  V30 49 C 5.5713 2.82038 -2.23889 0
M  V30 50 C 5.4243 2.49066 -3.74548 0
M  V30 51 C 6.7433 3.83887 -2.15217 0
M  V30 52 H 3.8623 0.560846 -0.478143 0
M  V30 53 H 6.5043 0.902278 -1.67209 0
M  V30 54 H 4.6543 3.36961 -1.93363 0
M  V30 55 H 6.3263 2.00164 -4.15611 0
M  V30 56 H 4.5693 1.81954 -3.93796 0
M  V30 57 H 5.2403 3.40109 -4.34776 0
M  V30 58 H 7.7163 3.38421 -2.42096 0
M  V30 59 H 6.5923 4.70806 -2.82193 0
M  V30 60 H 6.8533 4.27131 -1.14068 0
M  V30 61 N 5.9124 1.20967 1.01018 0
M  V30 62 C 6.8454 0.907578 2.09376 0
M  V30 63 C 7.8234 -0.142868 1.61971 0
M  V30 64 O 9.0074 -0.0150391 1.88494 0
M  V30 65 C 6.1344 0.361791 3.36762 0
M  V30 66 C 5.1804 1.39423 4.03068 0
M  V30 67 S 6.0134 2.96159 4.4615 0
M  V30 68 C 7.1694 2.43173 5.7673 0
M  V30 69 H 7.4024 1.82519 2.34678 0
M  V30 70 H 4.9354 1.03884 1.14225 0
M  V30 71 H 6.8934 0.0534523 4.10465 0
M  V30 72 H 5.5544 -0.53443 3.0952 0
M  V30 73 H 4.7474 0.961853 4.94737 0
M  V30 74 H 4.3494 1.65038 3.35617 0
M  V30 75 H 6.6414 1.83335 6.52223 0
M  V30 76 H 7.5844 3.33264 6.24773 0
M  V30 77 H 7.9924 1.85069 5.33301 0
M  V30 78 N 7.3905 -1.2043 1.01659 0
M  V30 79 C 8.6375 -1.89797 0.705917 0
M  V30 80 C 8.9655 -1.78848 -0.764439 0
M  V30 81 O 8.2205 -1.16694 -1.57102 0
M  V30 82 C 8.5195 -3.40464 1.08714 0
M  V30 83 C 8.1855 -3.71614 2.5537 0
M  V30 84 C 6.8475 -3.79826 2.95441 0
M  V30 85 C 9.1995 -3.85915 3.50313 0
M  V30 86 C 6.5275 -3.99797 4.29394 0
M  V30 87 C 8.8795 -4.07396 4.83954 0
M  V30 88 C 7.5435 -4.13837 5.23732 0
M  V30 89 H 6.8135 -0.694518 0.258313 0
M  V30 90 H 9.4605 -1.42691 1.27717 0
M  V30 91 H 7.7655 -3.89385 0.434309 0
M  V30 92 H 9.4625 -3.92433 0.824461 0
M  V30 93 H 6.0525 -3.65822 2.23321 0
M  V30 94 H 10.2365 -3.78926 3.20513 0
M  V30 95 H 5.4925 -4.03018 4.59768 0
M  V30 96 H 9.6665 -4.17404 5.57447 0
M  V30 97 H 7.2935 -4.29064 6.27541 0
M  V30 98 N 8.8686 -0.792821 -1.36206 0
M  V30 99 C 9.8156 -0.191653 -2.30003 0
M  V30 100 C 10.7856 0.666453 -1.52143 0
M  V30 101 O 11.9706 0.61442 -1.80636 0
M  V30 102 C 9.1106 0.664848 -3.38635 0
M  V30 103 C 8.2236 -0.212175 -4.31479 0
M  V30 104 C 7.3586 0.651022 -5.27196 0
M  V30 105 C 6.3976 -0.227247 -6.11678 0
M  V30 106 N 5.5346 0.595127 -6.99573 0
M  V30 107 H 10.3746 -0.996978 -2.80828 0
M  V30 108 H 7.9116 -0.503206 -1.38225 0
M  V30 109 H 9.8696 1.17645 -4.00269 0
M  V30 110 H 8.4996 1.43557 -2.89122 0
M  V30 111 H 7.5516 -0.841777 -3.70969 0
M  V30 112 H 8.8636 -0.888751 -4.90818 0
M  V30 113 H 8.0176 1.2283 -5.94136 0
M  V30 114 H 6.7566 1.36121 -4.68319 0
M  V30 115 H 5.7616 -0.816904 -5.43697 0
M  V30 116 H 6.9866 -0.93509 -6.72631 0
M  V30 117 H 4.9326 1.28955 -6.432 0
M  V30 118 H 4.8496 -0.0236952 -7.55996 0
M  V30 119 H 6.1176 1.15613 -7.70879 0
M  V30 120 N 10.3467 1.47872 -0.545128 0
M  V30 121 C 11.5717 2.07391 -0.0190611 0
M  V30 122 C 11.9967 1.39688 1.25971 0
M  V30 123 O 11.3547 0.467816 1.7516 0
M  V30 124 C 11.4027 3.60188 0.172335 0
M  V30 125 O 10.5067 3.9339 1.23766 0
M  V30 126 H 9.8477 0.662411 -0.0459059 0
M  V30 127 H 12.3777 1.90066 -0.757365 0
M  V30 128 H 12.3877 4.06129 0.390305 0
M  V30 129 H 11.0627 4.08865 -0.761725 0
M  V30 130 H 9.6397 3.5921 1.00114 0
M  V30 131 N 11.8248 0.280983 1.55075 0
M  V30 132 C 12.7568 -0.637268 2.20163 0
M  V30 133 C 13.7698 -1.11298 1.18813 0
M  V30 134 O 14.9588 -1.03388 1.4551 0
M  V30 135 C 12.0588 -1.88199 2.81841 0
M  V30 136 C 11.2318 -1.55211 4.08936 0
M  V30 137 C 10.2908 -2.64991 4.54606 0
M  V30 138 O 9.3168 -2.30929 5.2025 0
M  V30 139 N 10.5188 -3.95161 4.25238 0
M  V30 140 H 13.2838 -0.0801694 2.99593 0
M  V30 141 H 10.8448 0.102329 1.61576 0
M  V30 142 H 12.8368 -2.60948 3.09335 0
M  V30 143 H 11.4068 -2.34799 2.06369 0
M  V30 144 H 10.6268 -0.658185 3.88666 0
M  V30 145 H 11.9148 -1.30681 4.91732 0
M  V30 146 H 11.3128 -4.25653 3.72607 0
M  V30 147 H 9.8698 -4.6427 4.5749 0
M  V30 148 N 13.3029 -1.57598 0.00835791 0
M  V30 149 C 14.5519 -1.90107 -0.673968 0
M  V30 150 C 14.8649 -0.884275 -1.7447 0
M  V30 151 O 16.0709 -1.09987 -2.48224 0
M  V30 152 C 14.5269 -3.37497 -1.24995 0
M  V30 153 C 14.1349 -4.47491 -0.2136 0
M  V30 154 C 15.8789 -3.79104 -1.90999 0
M  V30 155 C 13.7859 -5.85963 -0.80005 0
M  V30 156 H 12.7159 -0.709393 -0.255495 0
M  V30 157 H 15.3669 -1.83365 0.0702693 0
M  V30 158 H 13.7489 -3.39102 -2.04513 0
M  V30 159 H 14.9229 -4.57414 0.557596 0
M  V30 160 H 13.2379 -4.14956 0.346474 0
M  V30 161 H 15.8349 -4.79901 -2.35795 0
M  V30 162 H 16.1779 -3.1306 -2.74407 0
M  V30 163 H 16.7109 -3.79833 -1.18203 0
M  V30 164 H 13.4499 -6.555 -0.00456708 0
M  V30 165 H 12.9699 -5.79687 -1.54021 0
M  V30 166 H 14.6489 -6.33884 -1.29615 0
M  V30 167 N 14.781 0.264519 -1.55364 0
M  V30 168 C 15.744 1.31046 -1.88042 0
M  V30 169 C 16.744 1.41943 -0.755569 0
M  V30 170 O 17.934 1.40947 -1.02369 0
M  V30 171 C 15.066 2.69067 -2.09323 0
M  V30 172 H 16.259 1.03297 -2.81549 0
M  V30 173 H 13.812 0.502989 -1.47986 0
M  V30 174 H 14.547 3.01982 -1.18226 0
M  V30 175 H 14.332 2.62542 -2.91229 0
M  V30 176 H 15.822 3.44623 -2.35848 0
M  V30 177 N 16.2591 1.48442 0.529413 0
M  V30 178 C 17.2071 1.63452 1.65487 0
M  V30 179 C 18.2011 0.500955 1.61823 0
M  V30 180 O 19.4071 0.679695 1.66674 0
M  V30 181 H 15.7821 0.514905 0.548066 0
M  V30 182 H 17.7531 2.57975 1.49971 0
M  V30 183 C 16.5021 1.69196 3.03756 0
M  V30 184 H 15.8251 2.55784 3.07269 0
M  V30 185 H 17.2651 1.83743 3.82119 0
M  V30 186 C 15.7241 0.430765 3.34135 0
M  V30 187 O 16.2541 -0.4561 3.99102 0
M  V30 188 N 14.4601 0.302293 2.89023 0
M  V30 189 H 14.0071 1.02496 2.36331 0
M  V30 190 H 13.9651 -0.540546 3.09718 0
M  V30 191 N 17.7372 -0.778329 1.37039 0
M  V30 192 C 18.6692 -1.90034 1.2814 0
M  V30 193 C 19.6822 -1.61585 0.198558 0
M  V30 194 O 20.8712 -1.72625 0.454175 0
M  V30 195 C 17.9712 -3.25108 0.956968 0
M  V30 196 C 17.1442 -3.81253 2.14394 0
M  V30 197 C 16.2032 -4.94789 1.79082 0
M  V30 198 O 15.2292 -5.10721 2.51301 0
M  V30 199 N 16.4312 -5.75878 0.731043 0
M  V30 200 H 19.1962 -1.98186 2.24816 0
M  V30 201 H 16.7572 -0.957129 1.30578 0
M  V30 202 H 18.7492 -3.9857 0.701701 0
M  V30 203 H 17.3192 -3.125 0.0789812 0
M  V30 204 H 16.5392 -2.99647 2.56135 0
M  V30 205 H 17.8272 -4.15495 2.93668 0
M  V30 206 H 17.2252 -5.65547 0.131618 0
M  V30 207 H 15.7822 -6.49596 0.535622 0
M  V30 208 N 19.2153 -1.21501 -1.00376 0
M  V30 209 C 20.1453 -0.999478 -2.11028 0
M  V30 210 C 21.1263 0.0759671 -1.6993 0
M  V30 211 O 22.3113 -0.0841106 -1.94018 0
M  V30 212 C 19.4413 -0.564709 -3.42678 0
M  V30 213 C 18.3953 -1.58486 -3.97576 0
M  V30 214 C 17.7213 -1.00628 -5.25146 0
M  V30 215 C 19.0213 -2.97204 -4.29496 0
M  V30 216 H 20.7153 -1.92495 -2.29317 0
M  V30 217 H 18.2613 -0.92693 -1.102 0
M  V30 218 H 20.2143 -0.401091 -4.19487 0
M  V30 219 H 18.9383 0.396411 -3.24185 0
M  V30 220 H 17.5973 -1.73606 -3.22888 0
M  V30 221 H 17.2453 -0.0368439 -5.02987 0
M  V30 222 H 16.9453 -1.68771 -5.62841 0
M  V30 223 H 18.4693 -0.854015 -6.04598 0
M  V30 224 H 19.8833 -2.8552 -4.97143 0
M  V30 225 H 18.2803 -3.62372 -4.78338 0
M  V30 226 H 19.3503 -3.47956 -3.3772 0
M  V30 227 N 20.6934 1.19889 -1.02296 0
M  V30 228 C 21.6404 2.22901 -0.598651 0
M  V30 229 C 22.6104 1.61588 0.384521 0
M  V30 230 O 23.7954 1.88697 0.282522 0
M  V30 231 C 20.9354 3.45063 0.0504476 0
M  V30 232 C 20.0484 4.20783 -0.978053 0
M  V30 233 C 19.1834 5.30356 -0.299338 0
M  V30 234 C 18.2224 5.97826 -1.31416 0
M  V30 235 N 17.3594 6.98975 -0.661667 0
M  V30 236 H 22.1994 2.58554 -1.48169 0
M  V30 237 H 19.7364 1.27039 -0.741584 0
M  V30 238 H 21.6944 4.14831 0.443971 0
M  V30 239 H 20.3244 3.10084 0.897097 0
M  V30 240 H 19.3764 3.50018 -1.48969 0
M  V30 241 H 20.6884 4.67109 -1.74958 0
M  V30 242 H 19.8424 6.06516 0.149347 0
M  V30 243 H 18.5814 4.85084 0.504445 0
M  V30 244 H 17.5864 5.20422 -1.77317 0
M  V30 245 H 18.8114 6.45183 -2.11933 0
M  V30 246 H 16.7574 6.55886 0.122132 0
M  V30 247 H 16.6744 7.43461 -1.37117 0
M  V30 248 H 17.9424 7.7914 -0.236785 0
M  V30 249 N 22.1715 0.800033 1.35784 0
M  V30 250 C 23.1195 0.193851 2.31791 0
M  V30 251 C 24.1135 -0.652744 1.56319 0
M  V30 252 O 25.3195 -0.546641 1.71499 0
M  V30 253 H 21.6945 0.04392 0.750716 0
M  V30 254 H 23.6655 1.01883 2.80468 0
M  V30 255 C 22.4145 -0.648338 3.41602 0
M  V30 256 H 21.7375 -0.00624665 3.998 0
M  V30 257 H 23.1775 -1.03898 4.11073 0
M  V30 258 C 21.6365 -1.8111 2.84079 0
M  V30 259 O 22.1665 -2.90825 2.77099 0
M  V30 260 N 20.3725 -1.62056 2.41218 0
M  V30 261 H 19.9195 -0.728123 2.47095 0
M  V30 262 H 19.8775 -2.40013 2.03079 0
M  V30 263 N 23.6496 -1.47581 0.552962 0
M  V30 264 C 24.5796 -2.32762 -0.185451 0
M  V30 265 C 25.5606 -1.43527 -0.912905 0
M  V30 266 O 26.7456 -1.72388 -0.894201 0
M  V30 267 C 23.8756 -3.25219 -1.21859 0
M  V30 268 C 22.8296 -4.23661 -0.607864 0
M  V30 269 C 22.1556 -5.05413 -1.74533 0
M  V30 270 C 23.4556 -5.20481 0.435582 0
M  V30 271 H 25.1496 -2.94749 0.525684 0
M  V30 272 H 22.6956 -1.41738 0.254251 0
M  V30 273 H 24.6486 -3.8365 -1.7433 0
M  V30 274 H 23.3726 -2.61279 -1.95961 0
M  V30 275 H 22.0316 -3.66451 -0.104489 0
M  V30 276 H 21.6796 -4.3788 -2.47529 0
M  V30 277 H 21.3796 -5.72059 -1.34249 0
M  V30 278 H 22.9036 -5.66701 -2.27338 0
M  V30 279 H 24.3176 -5.733 -0.00290157 0
M  V30 280 H 22.7146 -5.95305 0.757067 0
M  V30 281 H 23.7846 -4.66217 1.33303 0
M  V30 282 N 25.1277 -0.289203 -1.54924 0
M  V30 283 C 26.5437 0.0645403 -1.59469 0
M  V30 284 C 26.7437 1.53419 -1.30632 0
M  V30 285 O 25.7997 2.2852 -1.074 0
M  V30 286 C 27.1127 -0.32278 -2.98963 0
M  V30 287 C 28.6607 -0.270564 -3.11828 0
M  V30 288 C 29.1357 -0.632532 -4.53611 0
M  V30 289 N 30.6267 -0.584617 -4.59496 0
M  V30 290 C 31.3617 -0.837314 -5.67254 0
M  V30 291 N 30.8577 -1.15536 -6.83098 0
M  V30 292 N 32.6507 -0.765166 -5.56868 0
M  V30 293 H 24.8017 -1.24714 -1.71931 0
M  V30 294 H 27.0647 -0.504809 -0.802416 0
M  V30 295 H 26.7707 -1.34541 -3.24948 0
M  V30 296 H 26.6447 0.32944 -3.75759 0
M  V30 297 H 29.0317 0.742805 -2.85598 0
M  V30 298 H 29.1127 -0.957242 -2.37214 0
M  V30 299 H 28.7567 -1.64365 -4.80569 0
M  V30 300 H 28.6867 0.07609 -5.26545 0
M  V30 301 H 31.1777 -0.349248 -3.76283 0
M  V30 302 H 31.4907 -1.33447 -7.61191 0
M  V30 303 H 29.8357 -1.19328 -6.84679 0
M  V30 304 H 33.0267 -0.516432 -4.65243 0
M  V30 305 H 33.1997 -0.965477 -6.40767 0
M  V30 306 N 26.6058 1.57591 -0.0167156 0
M  V30 307 C 27.5528 2.09462 0.969251 0
M  V30 308 C 28.5228 0.99381 1.33089 0
M  V30 309 O 29.7078 1.26726 1.42636 0
M  V30 310 C 26.8478 2.61622 2.25051 0
M  V30 311 C 25.9608 3.85666 1.94642 0
M  V30 312 C 25.0958 4.26266 3.16972 0
M  V30 313 C 24.1348 5.43101 2.82326 0
M  V30 314 N 23.2718 5.78915 3.97243 0
M  V30 315 H 28.1118 2.93428 0.519997 0
M  V30 316 H 25.6488 1.45044 0.245087 0
M  V30 317 H 27.6068 2.89949 2.99976 0
M  V30 318 H 26.2368 1.80505 2.67615 0
M  V30 319 H 25.2888 3.64145 1.10013 0
M  V30 320 H 26.6008 4.70678 1.65117 0
M  V30 321 H 25.7548 4.55963 4.00228 0
M  V30 322 H 24.4938 3.39996 3.49648 0
M  V30 323 H 23.4988 5.1311 1.97479 0
M  V30 324 H 24.7238 6.3106 2.50879 0
M  V30 325 H 22.6698 4.95602 4.29785 0
M  V30 326 H 22.5868 6.58539 3.71299 0
M  V30 327 H 23.8548 6.13212 4.81239 0
M  V30 328 N 28.0839 -0.256276 1.55502 0
M  V30 329 C 29.3089 -1.00766 1.81276 0
M  V30 330 C 29.7339 -1.78524 0.59252 0
M  V30 331 O 29.0919 -1.75413 -0.45827 0
M  V30 332 C 29.1399 -1.92869 3.04687 0
M  V30 333 O 28.2439 -3.019 2.80945 0
M  V30 334 H 27.5849 -0.287224 0.598664 0
M  V30 335 H 30.1149 -0.280109 2.02674 0
M  V30 336 H 30.1249 -2.34511 3.33869 0
M  V30 337 H 28.7999 -1.35689 3.93143 0
M  V30 338 H 27.3769 -2.64454 2.62904 0
M  V30 339 N 29.562 -1.4872 -0.521534 0
M  V30 340 C 30.978 -1.35028 -0.850855 0
M  V30 341 C 31.178 -0.367712 -1.98116 0
M  V30 342 O 30.234 0.208037 -2.51642 0
M  V30 343 C 31.547 -2.75263 -1.21041 0
M  V30 344 C 33.095 -2.83813 -1.31981 0
M  V30 345 C 33.57 -4.24769 -1.71276 0
M  V30 346 N 35.061 -4.27482 -1.78363 0
M  V30 347 C 35.796 -5.33494 -2.1017 0
M  V30 348 N 35.292 -6.49775 -2.40343 0
M  V30 349 N 37.085 -5.20894 -2.11248 0
M  V30 350 H 29.236 -2.11214 0.22413 0
M  V30 351 H 31.499 -0.947252 0.0376439 0
M  V30 352 H 31.205 -3.48765 -0.453415 0
M  V30 353 H 31.079 -3.09327 -2.15863 0
M  V30 354 H 33.466 -2.10561 -2.06756 0
M  V30 355 H 33.547 -2.53358 -0.352596 0
M  V30 356 H 33.191 -4.9854 -0.970588 0
M  V30 357 H 33.121 -4.52673 -2.69062 0
M  V30 358 H 35.612 -3.43611 -1.57288 0
M  V30 359 H 35.925 -7.26402 -2.63743 0
M  V30 360 H 34.27 -6.53035 -2.37844 0
M  V30 361 H 37.461 -4.29065 -1.87139 0
M  V30 362 H 37.634 -6.03612 -2.35704 0
M  V30 363 N 31.0401 0.771051 -1.3745 0
M  V30 364 C 32.2881 1.52661 -1.32435 0
M  V30 365 C 32.6091 1.9479 0.0905024 0
M  V30 366 O 31.8791 1.66348 1.03466 0
M  V30 367 H 30.4591 0.566218 -0.487244 0
M  V30 368 H 33.1211 0.917636 -1.71946 0
M  V30 369 H 32.2171 2.42568 -1.96385 0
M  V30 370 N 32.5182 1.22032 0.997298 0
M  V30 371 C 33.4482 1.01065 2.10495 0
M  V30 372 C 34.4292 -0.0669542 1.69968 0
M  V30 373 O 35.6142 0.0943987 1.9397 0
M  V30 374 C 32.7442 0.582874 3.42374 0
M  V30 375 C 31.6982 1.60592 3.96729 0
M  V30 376 C 31.0242 1.03412 5.24605 0
M  V30 377 C 32.3242 2.99478 4.27914 0
M  V30 378 H 34.0182 1.93708 2.28292 0
M  V30 379 H 31.5642 0.932761 1.09707 0
M  V30 380 H 33.5172 0.423332 4.19268 0
M  V30 381 H 32.2412 -0.379213 3.24391 0
M  V30 382 H 30.9002 1.75316 3.21963 0
M  V30 383 H 30.5482 0.063518 5.0296 0
M  V30 384 H 30.2482 1.71754 5.61938 0
M  V30 385 H 31.7722 0.886066 6.04137 0
M  V30 386 H 33.1862 2.88153 4.95622 0
M  V30 387 H 31.5832 3.64903 4.76409 0
M  V30 388 H 32.6532 3.49742 3.3587 0
M  V30 389 N 33.9963 -1.19345 1.0293 0
M  V30 390 C 35.2213 -1.93538 0.745511 0
M  V30 391 C 35.6463 -1.75007 -0.689511 0
M  V30 392 O 35.0043 -1.05265 -1.47611 0
M  V30 393 C 35.0523 -3.43336 1.10239 0
M  V30 394 O 34.1563 -4.11806 0.221289 0
M  V30 395 H 33.4973 -0.604193 0.275404 0
M  V30 396 H 36.0273 -1.5141 1.37609 0
M  V30 397 H 36.0373 -3.94004 1.05947 0
M  V30 398 H 34.7123 -3.56146 2.14786 0
M  V30 399 H 33.2893 -3.715 0.322842 0
M  V30 400 N 35.4744 -0.807222 -1.35358 0
M  V30 401 C 36.4044 -0.232509 -2.3234 0
M  V30 402 C 37.3854 0.642386 -1.57504 0
M  V30 403 O 38.5704 0.572526 -1.85569 0
M  V30 404 C 35.7004 0.619238 -3.41735 0
M  V30 405 C 34.6544 -0.157215 -4.27711 0
M  V30 406 C 33.9804 0.816273 -5.28433 0
M  V30 407 C 35.2804 -1.35656 -5.04376 0
M  V30 408 H 36.9744 -1.04276 -2.80654 0
M  V30 409 H 34.5204 -0.50288 -1.34934 0
M  V30 410 H 36.4734 1.03137 -4.08584 0
M  V30 411 H 35.1974 1.46239 -2.92031 0
M  V30 412 H 33.8564 -0.550525 -3.62443 0
M  V30 413 H 33.5044 1.65494 -4.74996 0
M  V30 414 H 33.2044 0.301067 -5.86828 0
M  V30 415 H 34.7284 1.22659 -5.98153 0
M  V30 416 H 36.1424 -1.01927 -5.64166 0
M  V30 417 H 34.5394 -1.8063 -5.7227 0
M  V30 418 H 35.6094 -2.14288 -4.34981 0
M  V30 419 N 36.9525 1.47285 -0.560781 0
M  V30 420 C 38.2295 1.9558 0.0277798 0
M  V30 421 C 38.6095 1.5034 1.48192 0
M  V30 422 O 37.9575 0.743882 2.16052 0
M  V30 423 C 38.1675 3.48789 -0.121418 0
M  V30 424 C 39.5155 4.24594 0.0220912 0
M  V30 425 O 40.5395 3.56166 -0.0491439 0
M  V30 426 O 39.3985 5.46217 0.175958 0
M  V30 427 H 36.4925 0.824663 0.0621342 0
M  V30 428 H 39.0385 1.5767 -0.627556 0
M  V30 429 H 37.8105 3.74533 -1.13316 0
M  V30 430 H 37.4335 3.93473 0.571366 0
M  V30 431 N 38.4306 0.297415 1.54768 0
M  V30 432 C 39.3936 -0.567375 2.22066 0
M  V30 433 C 40.3936 -1.06409 1.20556 0
M  V30 434 O 41.5836 -0.960691 1.45315 0
M  V30 435 C 38.7156 -1.78517 2.90421 0
M  V30 436 H 39.9086 0.0205534 2.99893 0
M  V30 437 H 37.4616 0.0482163 1.56226 0
M  V30 438 H 38.1966 -2.41303 2.16664 0
M  V30 439 H 37.9816 -1.43669 3.64831 0
M  V30 440 H 39.4716 -2.39964 3.41771 0
M  V30 441 N 39.9087 -1.5758 0.0250728 0
M  V30 442 C 41.1367 -1.9593 -0.664747 0
M  V30 443 C 41.5517 -0.901352 -1.65895 0
M  V30 444 O 40.9087 0.117255 -1.82123 0
M  V30 445 C 40.9597 -3.34342 -1.37468 0
M  V30 446 O 40.6807 -4.36079 -0.420324 0
M  V30 447 C 42.1817 -3.873 -2.1567 0
M  V30 448 H 39.4017 -0.645405 -0.183557 0
M  V30 449 H 41.9457 -2.04329 0.0836372 0
M  V30 450 H 40.1007 -3.27175 -2.0745 0
M  V30 451 H 40.5147 -5.16297 -0.923991 0
M  V30 452 H 41.9887 -4.86504 -2.60803 0
M  V30 453 H 42.4657 -3.21331 -2.99405 0
M  V30 454 H 43.0717 -3.97723 -1.50654 0
M  V30 455 N 41.3868 0.248026 -1.55636 0
M  V30 456 C 42.3498 1.29044 -1.89421 0
M  V30 457 C 43.3498 1.41134 -0.770581 0
M  V30 458 O 44.5398 1.39854 -1.03858 0
M  V30 459 C 41.6718 2.66831 -2.12165 0
M  V30 460 H 42.8648 1.00305 -2.82629 0
M  V30 461 H 40.4178 0.487265 -1.48511 0
M  V30 462 H 41.1528 3.00711 -1.21422 0
M  V30 463 H 40.9378 2.59438 -2.93997 0
M  V30 464 H 42.4278 3.42103 -2.3949 0
M  V30 465 N 42.8649 1.48995 0.513639 0
M  V30 466 C 43.7969 1.60836 1.63293 0
M  V30 467 C 44.8099 0.491701 1.55197 0
M  V30 468 O 45.9989 0.763238 1.6136 0
M  V30 469 C 43.0989 1.53731 3.02027 0
M  V30 470 C 42.2719 2.80715 3.35437 0
M  V30 471 C 41.3309 2.66837 4.53525 0
M  V30 472 O 40.3569 3.40753 4.55934 0
M  V30 473 N 41.5589 1.77539 5.52684 0
M  V30 474 H 44.3239 2.57366 1.53566 0
M  V30 475 H 41.8849 1.45925 0.701259 0
M  V30 476 H 43.8769 1.42118 3.78926 0
M  V30 477 H 42.4469 0.651092 3.05744 0
M  V30 478 H 41.6669 3.06772 2.47557 0
M  V30 479 H 42.9549 3.64927 3.54551 0
M  V30 480 H 42.3529 1.16719 5.53528 0
M  V30 481 H 40.9099 1.71856 6.28736 0
M  V30 482 N 44.343 -0.763751 1.37857 0
M  V30 483 C 45.273 -1.89103 1.36975 0
M  V30 484 C 46.254 -1.68439 0.237152 0
M  V30 485 O 47.439 -1.8918 0.438713 0
M  V30 486 C 44.569 -3.26496 1.18395 0
M  V30 487 C 43.523 -3.61741 2.28751 0
M  V30 488 C 42.849 -4.97762 1.95286 0
M  V30 489 C 44.149 -3.67665 3.70972 0
M  V30 490 H 45.843 -1.90099 2.31307 0
M  V30 491 H 43.389 -0.91319 1.11341 0
M  V30 492 H 45.342 -4.05003 1.16406 0
M  V30 493 H 44.066 -3.25955 0.205215 0
M  V30 494 H 42.725 -2.85547 2.29909 0
M  V30 495 H 42.373 -4.93769 0.959221 0
M  V30 496 H 42.073 -5.22313 2.69189 0
M  V30 497 H 43.597 -5.7866 1.94898 0
M  V30 498 H 45.011 -4.36307 3.719 0
M  V30 499 H 43.408 -4.03718 4.43995 0
M  V30 500 H 44.478 -2.68134 4.0402 0
M  V30 501 N 45.8211 -1.22559 -0.990812 0
M  V30 502 C 47.0491 -1.07779 -1.76611 0
M  V30 503 C 47.4641 0.371513 -1.85109 0
M  V30 504 O 46.8211 1.25737 -1.32274 0
M  V30 505 C 46.8721 -1.68512 -3.19822 0
M  V30 506 O 46.5931 -3.07774 -3.1178 0
M  V30 507 C 48.0941 -1.59035 -4.13791 0
M  V30 508 H 45.3141 -0.377729 -0.554583 0
M  V30 509 H 47.8581 -1.62195 -1.24551 0
M  V30 510 H 46.0131 -1.18154 -3.68942 0
M  V30 511 H 46.4271 -3.37062 -4.01858 0
M  V30 512 H 47.9011 -2.0625 -5.1202 0
M  V30 513 H 48.3781 -0.547273 -4.35777 0
M  V30 514 H 48.9841 -2.08709 -3.70568 0
M  V30 515 N 47.2992 1.18797 -1.03562 0
M  V30 516 C 48.5472 1.88278 -0.734569 0
M  V30 517 C 48.8682 1.8043 0.739586 0
M  V30 518 O 48.1382 1.21925 1.53333 0
M  V30 519 H 46.7182 0.696991 -0.268725 0
M  V30 520 H 49.3802 1.44192 -1.31129 0
M  V30 521 H 48.4762 2.94443 -1.03489 0
M  V30 522 N 48.7773 0.814389 1.34928 0
M  V30 523 C 50.0233 0.399013 1.98836 0
M  V30 524 C 50.3563 -1.03314 1.64438 0
M  V30 525 O 49.6313 -1.71811 0.911659 0
M  V30 526 C 49.9143 0.591629 3.55207 0
M  V30 527 C 49.7673 2.06928 3.99376 0
M  V30 528 C 51.0863 0.022199 4.40094 0
M  V30 529 H 48.2053 0.146451 0.722303 0
M  V30 530 H 50.8473 1.02537 1.59957 0
M  V30 531 H 48.9973 0.0584441 3.88456 0
M  V30 532 H 50.6693 2.66544 3.76499 0
M  V30 533 H 48.9123 2.56287 3.49999 0
M  V30 534 H 49.5833 2.1549 5.08201 0
M  V30 535 H 52.0593 0.477643 4.13349 0
M  V30 536 H 50.9353 0.186832 5.48582 0
M  V30 537 H 51.1963 -1.07215 4.28902 0
M  V30 538 N 50.2554 -1.46986 0.568584 0
M  V30 539 C 51.4804 -2.07335 0.0520528 0
M  V30 540 C 51.9054 -1.41675 -1.23733 0
M  V30 541 O 51.2634 -0.495623 -1.74394 0
M  V30 542 C 51.3114 -3.60417 -0.11501 0
M  V30 543 O 50.4154 -3.95309 -1.17492 0
M  V30 544 H 49.7564 -0.661597 0.0564385 0
M  V30 545 H 52.2864 -1.88837 0.787507 0
M  V30 546 H 52.2964 -4.06698 -0.325644 0
M  V30 547 H 50.9714 -4.07601 0.826675 0
M  V30 548 H 49.5484 -3.60757 -0.943869 0
M  V30 549 N 51.7335 -0.305618 -1.54608 0
M  V30 550 C 52.6805 0.568421 -2.23691 0
M  V30 551 C 53.6505 1.12592 -1.22116 0
M  V30 552 O 54.8355 1.16959 -1.50749 0
M  V30 553 C 51.9755 1.7322 -2.98477 0
M  V30 554 C 51.0885 1.20566 -4.14835 0
M  V30 555 C 50.2235 2.33368 -4.77193 0
M  V30 556 C 49.2625 1.7787 -5.85686 0
M  V30 557 N 48.3995 2.84263 -6.4198 0
M  V30 558 H 53.2395 -0.0272867 -2.97988 0
M  V30 559 H 50.7765 -0.0252363 -1.47078 0
M  V30 560 H 52.7345 2.41675 -3.40072 0
M  V30 561 H 51.3645 2.29947 -2.26548 0
M  V30 562 H 50.4165 0.413223 -3.78149 0
M  V30 563 H 51.7285 0.759417 -4.92985 0
M  V30 564 H 50.8825 3.09761 -5.21664 0
M  V30 565 H 49.6215 2.8132 -3.98385 0
M  V30 566 H 48.6265 0.99968 -5.40635 0
M  V30 567 H 49.8515 1.30816 -6.66381 0
M  V30 568 H 47.7975 3.31541 -5.66053 0
M  V30 569 H 47.7145 2.44149 -7.15491 0
M  V30 570 H 48.9825 3.6054 -6.91109 0
M  V30 571 N 53.2116 1.57565 -0.0334293 0
M  V30 572 C 54.1746 2.09393 0.932048 0
M  V30 573 C 55.1746 1.00986 1.25134 0
M  V30 574 O 56.3646 1.27129 1.19096 0
M  V30 575 C 53.4966 2.56338 2.2473 0
M  V30 576 H 54.6896 2.95984 0.483085 0
M  V30 577 H 52.2426 1.54819 0.21468 0
M  V30 578 H 52.9776 1.7309 2.74245 0
M  V30 579 H 52.7626 3.35542 2.02865 0
M  V30 580 H 54.2526 2.96646 2.93923 0
M  V30 581 N 54.6897 -0.239769 1.55765 0
M  V30 582 C 55.6227 -1.32356 1.85895 0
M  V30 583 C 56.6007 -1.46053 0.714662 0
M  V30 584 O 57.7847 -1.62154 0.961157 0
M  V30 585 C 54.9117 -2.6962 2.04994 0
M  V30 586 C 53.9577 -2.73036 3.27648 0
M  V30 587 S 54.7907 -2.28929 4.84099 0
M  V30 588 C 55.9467 -3.68103 5.06212 0
M  V30 589 H 56.1797 -1.06601 2.77531 0
M  V30 590 H 53.7127 -0.441112 1.47965 0
M  V30 591 H 55.6707 -3.48653 2.16682 0
M  V30 592 H 54.3317 -2.92609 1.14188 0
M  V30 593 H 53.5247 -3.7386 3.38 0
M  V30 594 H 53.1267 -2.02052 3.14723 0
M  V30 595 H 55.4187 -4.63656 4.93993 0
M  V30 596 H 56.3617 -3.6268 6.08168 0
M  V30 597 H 56.7697 -3.60947 4.34025 0
M  V30 598 N 56.1678 -1.49265 -0.50573 0
M  V30 599 C 57.0978 -1.68495 -1.61653 0
M  V30 600 C 58.0788 -0.53366 -1.61512 0
M  V30 601 O 59.2638 -0.76897 -1.78327 0
M  V30 602 C 56.3938 -1.74709 -3.00157 0
M  V30 603 C 55.3478 -2.89581 -3.15162 0
M  V30 604 C 54.6738 -2.80903 -4.5497 0
M  V30 605 C 55.9738 -4.30578 -2.95634 0
M  V30 606 H 57.6678 -2.61493 -1.45814 0
M  V30 607 H 55.2138 -1.25838 -0.70005 0
M  V30 608 H 57.1668 -1.86748 -3.77761 0
M  V30 609 H 55.8908 -0.783067 -3.17074 0
M  V30 610 H 54.5498 -2.77136 -2.39982 0
M  V30 611 H 54.1978 -1.82419 -4.68756 0
M  V30 612 H 53.8978 -3.57999 -4.65951 0
M  V30 613 H 55.4218 -2.94944 -5.34641 0
M  V30 614 H 56.8358 -4.4373 -3.63011 0
M  V30 615 H 55.2328 -5.0886 -3.18091 0
M  V30 616 H 56.3028 -4.45352 -1.91806 0
M  V30 617 N 57.6459 0.756429 -1.3826 0
M  V30 618 C 58.8939 1.51248 -1.34047 0
M  V30 619 C 59.2149 1.94875 0.0698372 0
M  V30 620 O 58.4849 1.67436 1.01696 0
M  V30 621 H 57.0649 0.561018 -0.493222 0
M  V30 622 H 59.7269 0.899347 -1.7291 0
M  V30 623 H 58.8229 2.40472 -1.98947 0
M  V30 624 N 59.124 1.23083 0.984299 0
M  V30 625 C 60.056 0.96636 2.07832 0
M  V30 626 C 61.069 -0.0582135 1.62696 0
M  V30 627 O 62.258 0.176843 1.77622 0
M  V30 628 C 59.358 0.433397 3.36117 0
M  V30 629 C 58.531 1.51722 4.10243 0
M  V30 630 C 57.59 0.989821 5.16807 0
M  V30 631 O 56.616 1.67794 5.43906 0
M  V30 632 N 57.818 -0.184367 5.80207 0
M  V30 633 H 60.583 1.90824 2.31098 0
M  V30 634 H 58.144 1.13888 1.1507 0
M  V30 635 H 60.136 0.065699 4.04647 0
M  V30 636 H 58.706 -0.413806 3.09849 0
M  V30 637 H 57.926 2.05786 3.36223 0
M  V30 638 H 59.214 2.24619 4.56534 0
M  V30 639 H 58.612 -0.760062 5.60571 0
M  V30 640 H 57.169 -0.493366 6.4993 0
M  V30 641 N 60.6021 -1.18246 1.0419 0
M  V30 642 C 61.8511 -1.87588 0.741194 0
M  V30 643 C 62.1641 -1.81303 -0.734066 0
M  V30 644 O 63.3701 -2.46019 -1.14834 0
M  V30 645 C 61.8261 -3.36538 1.27555 0
M  V30 646 C 61.4341 -3.51349 2.77953 0
M  V30 647 C 63.1781 -4.11273 1.05143 0
M  V30 648 C 61.0851 -4.94265 3.2474 0
M  V30 649 H 60.0151 -0.702622 0.273565 0
M  V30 650 H 62.6661 -1.33601 1.25789 0
M  V30 651 H 61.0481 -3.9 0.686703 0
M  V30 652 H 62.2221 -3.08153 3.42605 0
M  V30 653 H 60.5371 -2.90022 2.98791 0
M  V30 654 H 63.1341 -5.16689 1.37611 0
M  V30 655 H 63.4771 -4.16298 -0.0112774 0
M  V30 656 H 64.0101 -3.63987 1.60495 0
M  V30 657 H 60.7491 -4.94408 4.30396 0
M  V30 658 H 60.2691 -5.38172 2.64823 0
M  V30 659 H 61.9481 -5.62987 3.18834 0
M  V30 660 N 62.0802 -0.821533 -1.34494 0
M  V30 661 C 62.9902 -0.244355 -2.33324 0
M  V30 662 C 64.0062 0.620527 -1.62559 0
M  V30 663 O 65.1822 0.528754 -1.94335 0
M  V30 664 C 62.2472 0.585368 -3.41723 0
M  V30 665 C 61.3082 -0.301752 -4.28238 0
M  V30 666 C 60.5412 0.488466 -5.3146 0
M  V30 667 O 60.7642 1.72186 -5.4379 0
M  V30 668 O 59.6982 -0.12848 -6.01763 0
M  V30 669 H 63.5242 -1.06231 -2.84515 0
M  V30 670 H 61.1092 -0.583645 -1.37528 0
M  V30 671 H 62.9912 1.05747 -4.07916 0
M  V30 672 H 61.6662 1.38068 -2.92778 0
M  V30 673 H 60.5732 -0.821315 -3.64973 0
M  V30 674 H 61.9062 -1.06138 -4.8062 0
M  V30 675 N 63.5583 1.46682 -0.576371 0
M  V30 676 C 64.9743 1.57822 -0.237562 0
M  V30 677 C 65.1743 1.57237 1.26011 0
M  V30 678 O 64.2303 1.48596 2.04146 0
M  V30 679 C 65.5433 2.87499 -0.881168 0
M  V30 680 C 67.0913 3.01119 -0.85417 0
M  V30 681 C 67.5663 4.33524 -1.4772 0
M  V30 682 N 69.0573 4.40207 -1.44125 0
M  V30 683 C 69.7923 5.4126 -1.89276 0
M  V30 684 N 69.2883 6.49021 -2.42371 0
M  V30 685 N 71.0813 5.32422 -1.80231 0
M  V30 686 H 63.2323 1.45306 -1.54919 0
M  V30 687 H 65.4953 0.692733 -0.647167 0
M  V30 688 H 65.2013 2.9372 -1.93447 0
M  V30 689 H 65.0753 3.75224 -0.385592 0
M  V30 690 H 67.4623 2.94485 0.190491 0
M  V30 691 H 67.5433 2.14887 -1.3877 0
M  V30 692 H 67.1873 4.40916 -2.52103 0
M  V30 693 H 67.1173 5.1852 -0.918947 0
M  V30 694 H 69.6083 3.62931 -1.05307 0
M  V30 695 H 69.9213 7.2233 -2.74698 0
M  V30 696 H 68.2663 6.49858 -2.46393 0
M  V30 697 H 71.4573 4.47137 -1.38514 0
M  V30 698 H 71.6303 6.11034 -2.15735 0
M  V30 699 N 65.0364 0.313813 1.54444 0
M  V30 700 C 66.2844 -0.291099 1.99993 0
M  V30 701 C 66.6054 -1.53418 1.20366 0
M  V30 702 O 65.8754 -1.93544 0.302927 0
M  V30 703 H 64.4554 -0.110552 0.738774 0
M  V30 704 H 67.1174 0.428106 1.9014 0
M  V30 705 H 66.2134 -0.554268 3.07139 0
M  V30 706 N 66.5145 -1.57545 0.0417849 0
M  V30 707 C 67.4245 -2.14451 -0.951213 0
M  V30 708 C 68.4405 -1.09992 -1.34825 0
M  V30 709 O 69.6165 -1.42114 -1.42708 0
M  V30 710 C 66.6815 -2.67063 -2.21084 0
M  V30 711 C 65.7425 -3.86284 -1.87304 0
M  V30 712 C 64.9755 -4.36378 -3.07261 0
M  V30 713 O 65.1985 -3.85587 -4.20332 0
M  V30 714 O 64.1325 -5.28077 -2.88822 0
M  V30 715 H 67.9585 -2.99601 -0.497287 0
M  V30 716 H 65.5435 -1.48317 -0.179567 0
M  V30 717 H 67.4255 -3.00914 -2.95006 0
M  V30 718 H 66.1005 -1.84989 -2.65633 0
M  V30 719 H 65.0075 -3.57338 -1.10727 0
M  V30 720 H 66.3405 -4.6956 -1.47562 0
M  V30 721 N 67.9926 0.231505 -1.5589 0
M  V30 722 C 69.2176 0.978689 -1.82856 0
M  V30 723 C 69.6426 1.77559 -0.620846 0
M  V30 724 O 69.0006 1.76119 0.430305 0
M  V30 725 C 69.0486 1.87997 -3.07716 0
M  V30 726 O 68.1526 2.97393 -2.85712 0
M  V30 727 H 67.4936 0.277663 -0.603158 0
M  V30 728 H 70.0236 0.24783 -2.03093 0
M  V30 729 H 70.0336 2.2917 -3.37558 0
M  V30 730 H 68.7086 1.29417 -3.95252 0
M  V30 731 H 67.2856 2.60238 -2.67078 0
M  V30 732 N 69.4707 1.49531 0.497807 0
M  V30 733 C 70.6957 1.63159 1.28039 0
M  V30 734 C 71.1207 0.30418 1.85624 0
M  V30 735 O 70.4787 -0.728618 1.66015 0
M  V30 736 C 70.5267 2.70537 2.38416 0
M  V30 737 O 69.6307 2.29931 3.42353 0
M  V30 738 H 68.9717 0.546001 0.377861 0
M  V30 739 H 71.5017 1.9574 0.59558 0
M  V30 740 H 71.5117 2.92802 2.84132 0
M  V30 741 H 70.1867 3.6689 1.95869 0
M  V30 742 H 68.7637 2.18009 3.02533 0
M  V30 743 N 70.9488 -0.749086 1.3866 0
M  V30 744 C 72.3598 -1.32664 1.31366 0
M  V30 745 C 72.7108 -1.96179 -0.028484 0
M  V30 746 O 71.8358 -1.9537 -0.93057 0
M  V30 747 C 72.4308 -2.41219 2.37905 0
M  V30 748 C 70.9898 -2.94684 2.34176 0
M  V30 749 C 70.1368 -1.68108 2.20533 0
M  V30 750 H 73.0878 -0.547628 1.48952 0
M  V30 751 H 73.1088 -3.21268 2.0388 0
M  V30 752 H 72.6208 -1.94962 3.35576 0
M  V30 753 H 70.7218 -3.45258 1.401 0
M  V30 754 H 70.8348 -3.48757 3.2849 0
M  V30 755 H 69.1988 -1.91907 1.67463 0
M  V30 756 H 69.9818 -1.23923 3.20153 0
M  V30 757 N 72.4269 -1.23603 -0.977757 0
M  V30 758 C 73.6549 -1.09646 -1.75458 0
M  V30 759 C 74.0699 0.351859 -1.85492 0
M  V30 760 O 73.4269 1.24327 -1.336 0
M  V30 761 C 73.4779 -1.71895 -3.18016 0
M  V30 762 O 73.1989 -3.11063 -3.08498 0
M  V30 763 C 74.6999 -1.63415 -4.12081 0
M  V30 764 H 71.9199 -0.38359 -0.550545 0
M  V30 765 H 74.4639 -1.63507 -1.22824 0
M  V30 766 H 72.6189 -1.22061 -3.67668 0
M  V30 767 H 73.0329 -3.41305 -3.9826 0
M  V30 768 H 74.5069 -2.11669 -5.09804 0
M  V30 769 H 74.9839 -0.593462 -4.35172 0
M  V30 770 H 75.5899 -2.12628 -3.68334 0
M  V30 771 N 73.905 1.17692 -1.04816 0
M  V30 772 C 75.154 1.87192 -0.751132 0
M  V30 773 C 75.467 1.8169 0.724441 0
M  V30 774 O 76.673 2.46625 1.13527 0
M  V30 775 C 75.129 3.35857 -1.29338 0
M  V30 776 C 74.737 3.4987 -2.79812 0
M  V30 777 C 76.481 4.10709 -1.07322 0
M  V30 778 C 74.388 4.92536 -3.27356 0
M  V30 779 H 73.318 0.701162 -0.277288 0
M  V30 780 H 75.969 1.32932 -1.26496 0
M  V30 781 H 74.351 3.89631 -0.707376 0
M  V30 782 H 75.525 3.06332 -3.44235 0
M  V30 783 H 73.84 2.88433 -3.00325 0
M  V30 784 H 76.437 5.15952 -1.4035 0
M  V30 785 H 76.78 4.16299 -0.0108001 0
M  V30 786 H 77.313 3.6313 -1.62423 0
M  V30 787 H 74.052 4.92119 -4.33012 0
M  V30 788 H 73.572 5.3676 -2.67673 0
M  V30 789 H 75.251 5.61288 -3.21815 0
M  V30 790 N 75.3831 0.828654 1.34056 0
M  V30 791 C 76.3461 0.259927 2.27721 0
M  V30 792 C 77.3461 -0.565478 1.50529 0
M  V30 793 O 78.5361 -0.38075 1.69988 0
M  V30 794 C 75.6681 -0.634944 3.34935 0
M  V30 795 H 76.8611 1.0863 2.79534 0
M  V30 796 H 74.4141 0.600951 1.44285 0
M  V30 797 H 75.1491 -1.48416 2.88346 0
M  V30 798 H 74.9341 -0.0444999 3.92075 0
M  V30 799 H 76.4241 -1.02648 4.04788 0
M  V30 800 N 76.8612 -1.46375 0.584142 0
M  V30 801 C 78.0892 -2.06761 0.0759296 0
M  V30 802 C 78.5042 -1.43266 -1.22965 0
M  V30 803 O 77.8612 -0.538458 -1.74376 0
M  V30 804 C 77.9122 -3.61375 -0.0950384 0
M  V30 805 O 77.6332 -4.22495 1.15887 0
M  V30 806 C 79.1342 -4.38693 -0.637434 0
M  V30 807 H 76.3542 -0.668479 0.0581075 0
M  V30 808 H 78.8982 -1.8798 0.805218 0
M  V30 809 H 77.0532 -3.79578 -0.774554 0
M  V30 810 H 77.4672 -5.15385 0.973598 0
M  V30 811 H 78.9412 -5.47464 -0.706237 0
M  V30 812 H 79.4182 -4.06836 -1.65472 0
M  V30 813 H 80.0242 -4.25299 0.00725967 0
M  V30 814 N 78.3393 -0.321999 -1.54275 0
M  V30 815 C 79.2693 0.537411 -2.27231 0
M  V30 816 C 80.2503 1.12064 -1.27968 0
M  V30 817 O 81.4353 1.14606 -1.56777 0
M  V30 818 C 78.5653 1.69919 -3.02894 0
M  V30 819 C 77.5193 1.24534 -4.09482 0
M  V30 820 C 76.8453 2.49394 -4.72977 0
M  V30 821 C 78.1453 0.361335 -5.21049 0
M  V30 822 H 79.8393 -0.0711406 -2.99315 0
M  V30 823 H 77.3853 -0.0356555 -1.43956 0
M  V30 824 H 79.3383 2.30668 -3.52662 0
M  V30 825 H 78.0623 2.33431 -2.28424 0
M  V30 826 H 76.7213 0.660782 -3.60596 0
M  V30 827 H 76.3693 3.11265 -3.95124 0
M  V30 828 H 76.0693 2.19718 -5.44975 0
M  V30 829 H 77.5933 3.10908 -5.25517 0
M  V30 830 H 79.0073 0.875072 -5.66582 0
M  V30 831 H 77.4043 0.157428 -5.99893 0
M  V30 832 H 78.4743 -0.60822 -4.8107 0
M  V30 833 N 79.8174 1.5752 -0.0501392 0
M  V30 834 C 81.0634 1.93755 0.618901 0
M  V30 835 C 81.4184 0.928514 1.68512 0
M  V30 836 O 80.7114 -0.0524613 1.91528 0
M  V30 837 C 80.9054 3.34467 1.25963 0
M  V30 838 C 80.7344 4.48965 0.257 0
M  V30 839 C 79.5044 5.05075 -0.150656 0
M  V30 840 C 81.7024 5.11891 -0.497166 0
M  V30 841 N 79.6844 6.03104 -1.14626 0
M  V30 842 C 81.0554 6.05216 -1.34588 0
M  V30 843 C 83.1104 4.9479 -0.55559 0
M  V30 844 C 81.8134 6.83277 -2.24778 0
M  V30 845 C 83.8394 5.73477 -1.44492 0
M  V30 846 C 83.2014 6.66433 -2.28136 0
M  V30 847 H 79.3004 0.756479 0.198149 0
M  V30 848 H 81.8844 1.94316 -0.122229 0
M  V30 849 H 80.0554 3.34685 1.97079 0
M  V30 850 H 81.7874 3.57994 1.88739 0
M  V30 851 H 78.5424 4.7305 0.228094 0
M  V30 852 H 78.9664 6.56813 -1.64092 0
M  V30 853 H 83.6084 4.2273 0.0768625 0
M  V30 854 H 81.3264 7.54629 -2.89069 0
M  V30 855 H 84.9124 5.62273 -1.49468 0
M  V30 856 H 83.7924 7.26258 -2.95835 0
M  V30 857 N 81.2955 -0.223234 1.56011 0
M  V30 858 C 82.2425 -1.27664 1.92277 0
M  V30 859 C 83.2125 -1.46659 0.779763 0
M  V30 860 O 84.3975 -1.60256 1.03551 0
M  V30 861 C 81.5375 -2.62234 2.24338 0
M  V30 862 C 80.6505 -2.51051 3.51564 0
M  V30 863 C 79.7855 -3.78133 3.7308 0
M  V30 864 C 78.8245 -3.61665 4.93827 0
M  V30 865 N 77.9615 -4.80693 5.11741 0
M  V30 866 H 82.8015 -0.960358 2.82101 0
M  V30 867 H 80.3385 -0.462901 1.39627 0
M  V30 868 H 82.2965 -3.40596 2.40936 0
M  V30 869 H 80.9265 -2.91961 1.3769 0
M  V30 870 H 79.9785 -1.64132 3.43169 0
M  V30 871 H 81.2905 -2.34803 4.40079 0
M  V30 872 H 80.4445 -4.64938 3.89766 0
M  V30 873 H 79.1835 -3.97304 2.82844 0
M  V30 874 H 78.1885 -2.73244 4.77093 0
M  V30 875 H 79.4135 -3.43966 5.85546 0
M  V30 876 H 77.3595 -5.00181 4.24446 0
M  V30 877 H 77.2765 -4.67165 5.94384 0
M  V30 878 H 78.5445 -5.6893 5.3286 0
M  V30 879 N 82.7736 -1.49793 -0.48987 0
M  V30 880 C 84.0226 -1.59085 -1.23995 0
M  V30 881 C 84.3356 -0.287907 -1.9347 0
M  V30 882 O 85.5416 -0.259506 -2.70257 0
M  V30 883 C 83.9976 -2.80736 -2.252 0
M  V30 884 C 83.6056 -4.17833 -1.61614 0
M  V30 885 C 85.3496 -2.99364 -3.00967 0
M  V30 886 C 83.2566 -5.30693 -2.60996 0
M  V30 887 H 82.1866 -0.592372 -0.466488 0
M  V30 888 H 84.8376 -1.76197 -0.51252 0
M  V30 889 H 83.2196 -2.57142 -3.01154 0
M  V30 890 H 84.3936 -4.51608 -0.915774 0
M  V30 891 H 82.7086 -4.04656 -0.981977 0
M  V30 892 H 85.3056 -3.80851 -3.75308 0
M  V30 893 H 85.6486 -2.10356 -3.59244 0
M  V30 894 H 86.1816 -3.2305 -2.32128 0
M  V30 895 H 82.9206 -6.21796 -2.07485 0
M  V30 896 H 82.4406 -5.01359 -3.2924 0
M  V30 897 H 84.1196 -5.6049 -3.23202 0
M  V30 898 N 84.2517 0.741722 -1.39055 0
M  V30 899 C 85.2147 1.83733 -1.37021 0
M  V30 900 C 86.2147 1.58542 -0.268534 0
M  V30 901 O 87.4047 1.66067 -0.526076 0
M  V30 902 C 84.5367 3.2141 -1.13617 0
M  V30 903 H 85.7297 1.86941 -2.34506 0
M  V30 904 H 83.2827 0.944676 -1.24521 0
M  V30 905 H 84.0177 3.23865 -0.167863 0
M  V30 906 H 83.8027 3.4109 -1.93391 0
M  V30 907 H 85.2927 4.01477 -1.14918 0
M  V30 908 N 85.7298 1.2412 0.971189 0
M  V30 909 C 86.9548 1.10667 1.75407 0
M  V30 910 C 87.3798 -0.337048 1.85056 0
M  V30 911 O 86.7378 -1.24396 1.31892 0
M  V30 912 C 86.7858 1.74726 3.15441 0
M  V30 913 O 85.8898 1.01566 3.99697 0
M  V30 914 H 85.2308 0.387341 0.539317 0
M  V30 915 H 87.7608 1.64358 1.2185 0
M  V30 916 H 87.7708 1.80341 3.6598 0
M  V30 917 H 86.4458 2.79773 3.07734 0
M  V30 918 H 85.0228 1.03713 3.58187 0
M  V30 919 N 87.2079 -1.17134 1.05439 0
M  V30 920 C 88.4559 -1.87085 0.764429 0
M  V30 921 C 88.7769 -1.81584 -0.710787 0
M  V30 922 O 88.0469 -1.24349 -1.51374 0
M  V30 923 H 86.6269 -0.692627 0.279779 0
M  V30 924 H 89.2889 -1.42087 1.33406 0
M  V30 925 H 88.3849 -2.92759 1.0816 0
M  V30 926 N 88.686 -0.835752 -1.33615 0
M  V30 927 C 89.616 -0.281739 -2.31794 0
M  V30 928 C 90.597 0.608833 -1.58831 0
M  V30 929 O 91.782 0.533035 -1.86741 0
M  V30 930 C 88.912 0.546612 -3.42971 0
M  V30 931 C 87.866 -0.247904 -4.27281 0
M  V30 932 C 87.192 0.704001 -5.30045 0
M  V30 933 C 88.492 -1.46324 -5.01385 0
M  V30 934 H 90.186 -1.10206 -2.78379 0
M  V30 935 H 87.732 -0.531388 -1.33837 0
M  V30 936 H 89.685 0.944467 -4.1068 0
M  V30 937 H 88.409 1.40011 -2.95067 0
M  V30 938 H 87.068 -0.627281 -3.61194 0
M  V30 939 H 86.716 1.55381 -4.78399 0
M  V30 940 H 86.416 0.176524 -5.87335 0
M  V30 941 H 87.94 1.09944 -6.0062 0
M  V30 942 H 89.354 -1.13871 -5.61877 0
M  V30 943 H 87.751 -1.92728 -5.6831 0
M  V30 944 H 88.821 -2.23467 -4.30338 0
M  V30 945 N 90.1641 1.46063 -0.591896 0
M  V30 946 C 91.0741 2.34192 0.13831 0
M  V30 947 C 92.0901 1.50305 0.876608 0
M  V30 948 O 93.2661 1.8315 0.837728 0
M  V30 949 C 90.3311 3.27656 1.13326 0
M  V30 950 C 89.3921 4.27445 0.39863 0
M  V30 951 C 88.6251 5.16443 1.34618 0
M  V30 952 O 88.8481 5.08553 2.58321 0
M  V30 953 O 87.7821 5.95843 0.851768 0
M  V30 954 H 91.6081 2.98002 -0.58552 0
M  V30 955 H 89.1931 1.45188 -0.352239 0
M  V30 956 H 91.0751 3.85291 1.70671 0
M  V30 957 H 89.7501 2.6643 1.83839 0
M  V30 958 H 88.6571 3.73471 -0.216895 0
M  V30 959 H 89.9901 4.91482 -0.265709 0
M  V30 960 N 91.6422 0.330177 1.54103 0
M  V30 961 C 92.6052 -0.520144 2.2322 0
M  V30 962 C 93.6052 -1.03828 1.22786 0
M  V30 963 O 94.7952 -0.929652 1.4732 0
M  V30 964 C 91.9272 -1.72317 2.94142 0
M  V30 965 H 93.1202 0.0841605 2.99782 0
M  V30 966 H 90.6732 0.0813433 1.56088 0
M  V30 967 H 91.4082 -2.36653 2.21734 0
M  V30 968 H 91.1932 -1.35898 3.67796 0
M  V30 969 H 92.6832 -2.3266 3.46784 0
M  V30 970 N 93.1203 -1.57491 0.0584922 0
M  V30 971 C 94.3453 -1.97711 -0.62652 0
M  V30 972 C 94.7703 -0.936132 -1.63151 0
M  V30 973 O 94.1283 0.099811 -1.81025 0
M  V30 974 C 94.1763 -3.36989 -1.28338 0
M  V30 975 O 93.2803 -3.35433 -2.39913 0
M  V30 976 H 92.6213 -0.643868 -0.162266 0
M  V30 977 H 95.1513 -2.04193 0.129064 0
M  V30 978 H 95.1613 -3.73879 -1.63335 0
M  V30 979 H 93.8363 -4.12289 -0.546889 0
M  V30 980 H 92.4133 -3.10298 -2.06809 0
M  V30 981 N 94.5984 0.214957 -1.56127 0
M  V30 982 C 95.8454 0.938372 -1.79446 0
M  V30 983 C 96.1734 1.8407 -0.628378 0
M  V30 984 O 95.4284 1.91837 0.386925 0
M  V30 985 C 95.7274 1.80314 -3.0858 0
M  V30 986 C 95.3934 1.05349 -4.3842 0
M  V30 987 C 94.0554 0.846435 -4.73697 0
M  V30 988 C 96.4074 0.524588 -5.18553 0
M  V30 989 C 93.7354 0.098683 -5.86617 0
M  V30 990 C 96.0874 -0.209853 -6.32252 0
M  V30 991 C 94.7514 -0.428102 -6.66126 0
M  V30 992 H 94.0214 0.343375 -0.656639 0
M  V30 993 H 96.6684 0.206077 -1.90388 0
M  V30 994 H 94.9734 2.6035 -2.92789 0
M  V30 995 H 96.6704 2.36513 -3.23825 0
M  V30 996 H 93.2604 1.22486 -4.10725 0
M  V30 997 H 97.4444 0.672008 -4.91729 0
M  V30 998 H 92.7004 -0.0805753 -6.11347 0
M  V30 999 H 96.8744 -0.627157 -6.9357 0
M  V30 1000 H 94.5014 -1.00944 -7.53468 0
M  V30 1001 N 96.0765 1.50051 0.48192 0
M  V30 1002 C 97.3015 1.64508 1.26301 0
M  V30 1003 C 97.7265 0.323851 1.85291 0
M  V30 1004 O 97.0845 -0.710969 1.66778 0
M  V30 1005 C 97.1325 2.7305 2.35533 0
M  V30 1006 O 96.2365 2.3355 3.39895 0
M  V30 1007 H 95.5775 0.549978 0.372048 0
M  V30 1008 H 98.1075 1.9636 0.574786 0
M  V30 1009 H 98.1175 2.95799 2.8101 0
M  V30 1010 H 96.7925 3.68946 1.91967 0
M  V30 1011 H 95.3695 2.21205 3.00204 0
M  V30 1012 N 97.5546 -0.734337 1.39446 0
M  V30 1013 C 98.5176 -1.83004 1.37994 0
M  V30 1014 C 99.5176 -1.58397 0.276938 0
M  V30 1015 O 100.708 -1.65785 0.534875 0
M  V30 1016 C 97.8396 -3.20802 1.1532 0
M  V30 1017 H 99.0326 -1.85694 2.35494 0
M  V30 1018 H 96.5856 -0.938059 1.25021 0
M  V30 1019 H 97.3206 -3.23772 0.185036 0
M  V30 1020 H 97.1056 -3.4006 1.95197 0
M  V30 1021 H 98.5956 -4.00862 1.17046 0
M  V30 1022 N 99.0327 -1.24633 -0.964593 0
M  V30 1023 C 100.28 -1.08788 -1.70796 0
M  V30 1024 C 100.608 0.372783 -1.90894 0
M  V30 1025 O 99.8627 1.29167 -1.47018 0
M  V30 1026 C 100.162 -1.7763 -3.10133 0
M  V30 1027 C 99.8277 -3.27557 -3.09866 0
M  V30 1028 C 98.4897 -3.6846 -3.09501 0
M  V30 1029 C 100.842 -4.23389 -3.03959 0
M  V30 1030 C 98.1697 -5.03624 -3.00965 0
M  V30 1031 C 100.522 -5.58565 -2.96965 0
M  V30 1032 C 99.1857 -5.98809 -2.9493 0
M  V30 1033 H 98.4557 -0.398084 -0.624988 0
M  V30 1034 H 101.103 -1.54777 -1.12767 0
M  V30 1035 H 99.4077 -1.24044 -3.71645 0
M  V30 1036 H 101.105 -1.62832 -3.66451 0
M  V30 1037 H 97.6947 -2.95006 -3.10917 0
M  V30 1038 H 101.879 -3.92787 -3.03368 0
M  V30 1039 H 97.1347 -5.33998 -2.97752 0
M  V30 1040 H 101.309 -6.32523 -2.91354 0
M  V30 1041 H 98.9357 -7.03505 -2.88071 0
M  V30 1042 N 100.511 1.16574 -1.06058 0
M  V30 1043 C 101.758 1.87047 -0.775873 0
M  V30 1044 C 102.086 1.81562 0.697534 0
M  V30 1045 O 101.341 1.22445 1.52662 0
M  V30 1046 C 101.64 3.36195 -1.21275 0
M  V30 1047 C 101.306 3.6188 -2.68986 0
M  V30 1048 C 99.9678 3.68599 -3.09335 0
M  V30 1049 C 102.32 3.72648 -3.64394 0
M  V30 1050 C 99.6478 3.83584 -4.43937 0
M  V30 1051 C 102 3.89154 -4.98741 0
M  V30 1052 C 100.664 3.94114 -5.3873 0
M  V30 1053 H 99.9338 0.684452 -0.283912 0
M  V30 1054 H 102.581 1.37853 -1.32925 0
M  V30 1055 H 100.886 3.87505 -0.578528 0
M  V30 1056 H 102.583 3.89103 -0.969542 0
M  V30 1057 H 99.1728 3.57281 -2.36744 0
M  V30 1058 H 103.357 3.66769 -3.34356 0
M  V30 1059 H 98.6128 3.85677 -4.74409 0
M  V30 1060 H 102.787 3.96427 -5.72554 0
M  V30 1061 H 100.414 4.05478 -6.43033 0
M  V30 1062 N 101.989 0.842826 1.3317 0
M  V30 1063 C 102.952 0.284065 2.27433 0
M  V30 1064 C 103.952 -0.54948 1.5112 0
M  V30 1065 O 105.142 -0.362699 1.70382 0
M  V30 1066 C 102.274 -0.599384 3.35589 0
M  V30 1067 H 103.467 1.11589 2.78366 0
M  V30 1068 H 101.02 0.616221 1.4364 0
M  V30 1069 H 101.755 -1.45349 2.89904 0
M  V30 1070 H 101.54 -0.00291266 3.921 0
M  V30 1071 H 103.03 -0.983488 4.05854 0
M  V30 1072 N 103.467 -1.45747 0.599634 0
M  V30 1073 C 104.415 -2.322 -0.136426 0
M  V30 1074 C 105.409 -1.45497 -0.867583 0
M  V30 1075 O 106.615 -1.62027 -0.78405 0
M  V30 1076 H 102.99 -0.749368 -0.0628588 0
M  V30 1077 H 104.961 -2.92072 0.611281 0
M  V30 1078 C 103.71 -3.28974 -1.12567 0
M  V30 1079 H 103.033 -3.9568 -0.572484 0
M  V30 1080 H 104.473 -3.92212 -1.61077 0
M  V30 1081 C 102.932 -2.55561 -2.19523 0
M  V30 1082 O 103.462 -2.33111 -3.27143 0
M  V30 1083 N 101.668 -2.15832 -1.94589 0
M  V30 1084 H 101.215 -2.3429 -1.07078 0
M  V30 1085 H 101.173 -1.67034 -2.66359 0
M  V30 1086 N 104.945 -0.338344 -1.53925 0
M  V30 1087 C 106.222 0.314774 -1.93051 0
M  V30 1088 C 106.602 1.68669 -1.26941 0
M  V30 1089 O 105.95 2.24636 -0.418445 0
M  V30 1090 C 106.16 0.392249 -3.46789 0
M  V30 1091 C 107.508 0.645554 -4.19664 0
M  V30 1092 O 108.532 0.474575 -3.53024 0
M  V30 1093 O 107.391 0.976408 -5.37707 0
M  V30 1094 H 104.485 0.182598 -0.80659 0
M  V30 1095 H 107.031 -0.389141 -1.65178 0
M  V30 1096 H 105.803 -0.570702 -3.87116 0
M  V30 1097 H 105.426 1.14316 -3.80812 0
M  V30 1098 N 106.423 1.57458 -0.0668435 0
M  V30 1099 C 107.834 1.80776 0.466558 0
M  V30 1100 C 108.185 0.980361 1.69951 0
M  V30 1101 O 107.31 0.201441 2.1546 0
M  V30 1102 C 107.905 3.27881 0.85321 0
M  V30 1103 C 106.464 3.52062 1.3315 0
M  V30 1104 C 105.611 2.75513 0.314264 0
M  V30 1105 H 108.562 1.5598 -0.292588 0
M  V30 1106 H 108.583 3.39659 1.715 0
M  V30 1107 H 108.095 3.88075 -0.0443439 0
M  V30 1108 H 106.196 2.97167 2.24772 0
M  V30 1109 H 106.309 4.60762 1.31285 0
M  V30 1110 H 104.673 2.42123 0.790492 0
M  V30 1111 H 105.456 3.38442 -0.575477 0
M  V30 1112 N 107.901 -0.206675 1.56239 0
M  V30 1113 C 108.833 -1.27997 1.9013 0
M  V30 1114 C 109.846 -1.42299 0.790883 0
M  V30 1115 O 111.035 -1.42931 1.06925 0
M  V30 1116 C 108.135 -2.65368 2.10792 0
M  V30 1117 C 107.308 -2.72824 3.41886 0
M  V30 1118 C 106.367 -3.9131 3.51799 0
M  V30 1119 O 105.393 -3.78953 4.24716 0
M  V30 1120 N 106.595 -5.06265 2.84035 0
M  V30 1121 H 109.36 -0.992444 2.82791 0
M  V30 1122 H 106.921 -0.396652 1.56966 0
M  V30 1123 H 108.913 -3.43039 2.14724 0
M  V30 1124 H 107.483 -2.86657 1.24685 0
M  V30 1125 H 106.703 -1.81515 3.49923 0
M  V30 1126 H 107.991 -2.74786 4.28217 0
M  V30 1127 H 107.389 -5.19203 2.246 0
M  V30 1128 H 105.946 -5.81925 2.93609 0
M  V30 1129 N 109.379 -1.50304 -0.473955 0
M  V30 1130 C 110.309 -1.71886 -1.58042 0
M  V30 1131 C 111.29 -0.567799 -1.60344 0
M  V30 1132 O 112.475 -0.806623 -1.76656 0
M  V30 1133 C 109.605 -1.81036 -2.96384 0
M  V30 1134 C 108.559 -2.962 -3.08949 0
M  V30 1135 C 107.885 -2.9049 -4.48909 0
M  V30 1136 C 109.185 -4.36752 -2.86434 0
M  V30 1137 H 110.879 -2.64527 -1.40234 0
M  V30 1138 H 108.425 -1.27295 -0.673201 0
M  V30 1139 H 110.378 -1.94719 -3.73714 0
M  V30 1140 H 109.102 -0.850147 -3.15341 0
M  V30 1141 H 107.761 -2.82164 -2.3405 0
M  V30 1142 H 107.409 -1.92321 -4.64781 0
M  V30 1143 H 107.109 -3.67802 -4.58253 0
M  V30 1144 H 108.633 -3.06218 -5.28264 0
M  V30 1145 H 110.047 -4.5133 -3.53517 0
M  V30 1146 H 108.444 -5.15493 -3.07225 0
M  V30 1147 H 109.514 -4.49321 -1.82316 0
M  V30 1148 N 110.857 0.726932 -1.39834 0
M  V30 1149 C 111.787 1.85405 -1.41941 0
M  V30 1150 C 112.768 1.67751 -0.281728 0
M  V30 1151 O 113.953 1.8795 -0.488717 0
M  V30 1152 C 111.083 3.23243 -1.2701 0
M  V30 1153 C 110.037 3.55549 -2.38262 0
M  V30 1154 C 109.363 4.9241 -2.08415 0
M  V30 1155 C 110.663 3.577 -3.80589 0
M  V30 1156 H 112.357 1.83899 -2.36266 0
M  V30 1157 H 109.903 0.883349 -1.13723 0
M  V30 1158 H 111.856 4.01775 -1.27103 0
M  V30 1159 H 110.58 3.25296 -0.291564 0
M  V30 1160 H 109.239 2.79351 -2.37399 0
M  V30 1161 H 108.887 4.91052 -1.0898 0
M  V30 1162 H 108.587 5.14992 -2.82943 0
M  V30 1163 H 110.111 5.73289 -2.10171 0
M  V30 1164 H 111.525 4.26293 -3.83337 0
M  V30 1165 H 109.922 3.91804 -4.54543 0
M  V30 1166 H 110.992 2.57328 -4.10987 0
M  V30 1167 N 112.336 1.25143 0.95797 0
M  V30 1168 C 113.561 1.12521 1.74223 0
M  V30 1169 C 113.986 -0.317402 1.85403 0
M  V30 1170 O 113.344 -1.2299 1.33204 0
M  V30 1171 C 113.392 1.78062 3.1357 0
M  V30 1172 O 112.496 1.058 3.98598 0
M  V30 1173 H 111.837 0.39304 0.535178 0
M  V30 1174 H 114.367 1.65641 1.201 0
M  V30 1175 H 114.377 1.84213 3.64046 0
M  V30 1176 H 113.052 2.83021 3.04749 0
M  V30 1177 H 111.629 1.07506 3.57067 0
M  V30 1178 N 113.814 -1.1601 1.06675 0
M  V30 1179 C 115.039 -1.91068 0.806706 0
M  V30 1180 C 115.464 -1.77112 -0.633485 0
M  V30 1181 O 114.822 -1.09908 -1.44187 0
M  V30 1182 C 114.87 -3.39655 1.21106 0
M  V30 1183 O 113.974 -4.10893 0.352189 0
M  V30 1184 H 113.315 -0.595125 0.294486 0
M  V30 1185 H 115.845 -1.46955 1.42356 0
M  V30 1186 H 115.855 -3.90434 1.18428 0
M  V30 1187 H 114.53 -3.49132 2.26008 0
M  V30 1188 H 113.107 -3.70285 0.440868 0
M  V30 1189 N 115.292 -0.849877 -1.32721 0
M  V30 1190 C 116.202 -0.293791 -2.32753 0
M  V30 1191 C 117.218 0.585906 -1.63839 0
M  V30 1192 O 118.394 0.487413 -1.95413 0
M  V30 1193 C 115.459 0.512752 -3.42887 0
M  V30 1194 C 114.52 -0.39252 -4.27502 0
M  V30 1195 C 113.753 0.375625 -5.32377 0
M  V30 1196 O 113.976 1.60613 -5.4732 0
M  V30 1197 O 112.91 -0.256094 -6.01355 0
M  V30 1198 H 116.736 -1.12242 -2.82197 0
M  V30 1199 H 114.321 -0.612685 -1.36259 0
M  V30 1200 H 116.203 0.970704 -4.10067 0
M  V30 1201 H 114.878 1.31826 -2.95641 0
M  V30 1202 H 113.785 -0.898547 -3.63149 0
M  V30 1203 H 115.118 -1.16309 -4.7826 0
M  V30 1204 N 116.77 1.45427 -0.607355 0
M  V30 1205 C 118.186 1.57283 -0.270985 0
M  V30 1206 C 118.386 1.59875 1.22647 0
M  V30 1207 O 117.442 1.52893 2.00948 0
M  V30 1208 C 118.755 2.85566 -0.941952 0
M  V30 1209 C 120.303 2.9924 -0.917849 0
M  V30 1210 C 120.778 4.30293 -1.56882 0
M  V30 1211 N 122.269 4.37051 -1.5343 0
M  V30 1212 C 123.004 5.37123 -2.00715 0
M  V30 1213 N 122.5 6.43734 -2.56084 0
M  V30 1214 N 124.293 5.28479 -1.91484 0
M  V30 1215 H 116.444 1.41988 -1.57966 0
M  V30 1216 H 118.707 0.67885 -0.661715 0
M  V30 1217 H 118.413 2.8955 -1.99633 0
M  V30 1218 H 118.287 3.74322 -0.465096 0
M  V30 1219 H 120.674 2.94822 0.127984 0
M  V30 1220 H 120.755 2.11895 -1.43297 0
M  V30 1221 H 120.399 4.35469 -2.61398 0
M  V30 1222 H 120.329 5.16454 -1.02873 0
M  V30 1223 H 122.82 3.60615 -1.12982 0
M  V30 1224 H 123.133 7.16341 -2.89958 0
M  V30 1225 H 121.478 6.44485 -2.60122 0
M  V30 1226 H 124.669 4.44098 -1.47967 0
M  V30 1227 H 124.842 6.0632 -2.28648 0
M  V30 1228 N 118.248 0.346503 1.53744 0
M  V30 1229 C 119.473 -0.253074 2.0585 0
M  V30 1230 C 119.898 -1.43202 1.21962 0
M  V30 1231 O 119.256 -1.79783 0.234073 0
M  V30 1232 C 119.304 -0.643193 3.54817 0
M  V30 1233 O 118.408 -1.74286 3.73762 0
M  V30 1234 H 117.749 -0.0413583 0.662711 0
M  V30 1235 H 120.279 0.501574 1.98357 0
M  V30 1236 H 120.289 -0.919526 3.97503 0
M  V30 1237 H 118.964 0.218966 4.15323 0
M  V30 1238 H 117.541 -1.46356 3.42979 0
M  V30 1239 N 119.726 -1.57421 0.075193 0
M  V30 1240 C 120.973 -1.93618 -0.593146 0
M  V30 1241 C 121.301 -0.955484 -1.69413 0
M  V30 1242 O 120.556 0.0283251 -1.9568 0
M  V30 1243 C 120.855 -3.36428 -1.20626 0
M  V30 1244 C 120.521 -4.50307 -0.231078 0
M  V30 1245 C 119.183 -4.81186 0.0371936 0
M  V30 1246 C 121.535 -5.19374 0.435888 0
M  V30 1247 C 118.863 -5.78466 0.979461 0
M  V30 1248 C 121.215 -6.17665 1.3665 0
M  V30 1249 C 119.879 -6.46958 1.6432 0
M  V30 1250 H 119.149 -0.708499 -0.217047 0
M  V30 1251 H 121.796 -1.90937 0.146793 0
M  V30 1252 H 120.101 -3.35592 -2.02201 0
M  V30 1253 H 121.798 -3.61727 -1.73073 0
M  V30 1254 H 118.388 -4.26227 -0.450357 0
M  V30 1255 H 122.572 -4.95711 0.241748 0
M  V30 1256 H 117.828 -5.99487 1.20106 0
M  V30 1257 H 122.002 -6.70284 1.88924 0
M  V30 1258 H 119.629 -7.2215 2.37494 0
M  V30 1259 N 121.204 0.198386 -1.56346 0
M  V30 1260 C 122.615 0.763358 -1.70381 0
M  V30 1261 C 122.966 1.83995 -0.681203 0
M  V30 1262 O 122.091 2.15785 0.16305 0
M  V30 1263 C 122.686 1.39143 -3.08909 0
M  V30 1264 C 121.245 1.90352 -3.2472 0
M  V30 1265 C 120.392 0.772233 -2.6633 0
M  V30 1266 H 123.343 -0.0266377 -1.58678 0
M  V30 1267 H 123.364 2.26076 -3.06055 0
M  V30 1268 H 122.876 0.607638 -3.83314 0
M  V30 1269 H 120.977 2.71461 -2.55225 0
M  V30 1270 H 121.09 2.06757 -4.3219 0
M  V30 1271 H 119.454 1.18566 -2.2542 0
M  V30 1272 H 120.237 0.00073556 -3.433 0
M  V30 1273 N 122.682 1.50554 0.465978 0
M  V30 1274 C 123.959 1.5232 1.22712 0
M  V30 1275 C 124.339 0.270807 2.09356 0
M  V30 1276 O 123.687 -0.745541 2.15995 0
M  V30 1277 C 123.897 2.82175 2.05374 0
M  V30 1278 C 125.245 3.33033 2.6339 0
M  V30 1279 O 126.269 2.83531 2.15612 0
M  V30 1280 O 125.128 4.19336 3.50456 0
M  V30 1281 H 122.222 0.611183 0.557122 0
M  V30 1282 H 124.768 1.62847 0.477381 0
M  V30 1283 H 123.54 3.64797 1.41558 0
M  V30 1284 H 123.163 2.74675 2.87471 0
M  V30 1285 N 124.16 -0.719506 1.40217 0
M  V30 1286 C 125.437 -1.47221 1.28784 0
M  V30 1287 C 125.817 -2.10883 -0.0956067 0
M  V30 1288 O 125.165 -1.99833 -1.10811 0
M  V30 1289 C 125.375 -2.5111 2.42373 0
M  V30 1290 C 126.723 -3.17053 2.82423 0
M  V30 1291 O 127.747 -2.61429 2.41937 0
M  V30 1292 O 126.606 -4.17742 3.52355 0
M  V30 1293 H 123.7 -0.654491 0.50554 0
M  V30 1294 H 126.246 -0.752014 1.52128 0
M  V30 1295 H 125.018 -2.02556 3.34793 0
M  V30 1296 H 124.641 -3.3067 2.20778 0
M  V30 1297 N 125.638 -1.25649 -0.95132 0
M  V30 1298 C 126.568 -1.08808 -2.06599 0
M  V30 1299 C 127.549 0.00382547 -1.701 0
M  V30 1300 O 128.734 -0.166325 -1.93486 0
M  V30 1301 C 125.864 -0.709542 -3.39975 0
M  V30 1302 C 124.818 -1.75206 -3.90496 0
M  V30 1303 C 124.144 -1.22811 -5.20405 0
M  V30 1304 C 125.444 -3.15153 -4.16504 0
M  V30 1305 H 127.138 -2.02048 -2.20946 0
M  V30 1306 H 124.684 -0.972835 -1.06169 0
M  V30 1307 H 126.637 -0.578649 -4.17408 0
M  V30 1308 H 125.361 0.258556 -3.25575 0
M  V30 1309 H 124.02 -1.87145 -3.15234 0
M  V30 1310 H 123.668 -0.250145 -5.02378 0
M  V30 1311 H 123.368 -1.92492 -5.55176 0
M  V30 1312 H 124.892 -1.10968 -6.00432 0
M  V30 1313 H 126.306 -3.06349 -4.84586 0
M  V30 1314 H 124.703 -3.82333 -4.62538 0
M  V30 1315 H 125.773 -3.61966 -3.22658 0
M  V30 1316 N 127.117 1.15442 -1.07289 0
M  V30 1317 C 128.065 2.22225 -0.686952 0
M  V30 1318 C 129.059 1.66688 0.30193 0
M  V30 1319 O 130.265 1.79236 0.165712 0
M  V30 1320 H 126.64 0.723783 -0.204064 0
M  V30 1321 H 128.611 2.52056 -1.5972 0
M  V30 1322 C 127.36 3.47556 -0.100149 0
M  V30 1323 H 126.683 3.90612 -0.852211 0
M  V30 1324 H 128.123 4.23794 0.132235 0
M  V30 1325 C 126.582 3.16337 1.159 0
M  V30 1326 O 127.112 3.33074 2.24555 0
M  V30 1327 N 125.318 2.70385 1.06491 0
M  V30 1328 H 124.865 2.56966 0.180668 0
M  V30 1329 H 124.823 2.49871 1.90819 0
M  V30 1330 N 128.595 0.856903 1.32268 0
M  V30 1331 C 129.528 0.247937 2.26849 0
M  V30 1332 C 130.506 -0.615382 1.50505 0
M  V30 1333 O 131.69 -0.571689 1.79622 0
M  V30 1334 C 128.817 -0.650093 3.32403 0
M  V30 1335 C 127.863 0.140138 4.2627 0
M  V30 1336 S 128.696 1.51004 5.13769 0
M  V30 1337 C 129.852 0.61778 6.22844 0
M  V30 1338 H 130.085 1.04971 2.78152 0
M  V30 1339 H 127.618 0.654665 1.39834 0
M  V30 1340 H 129.576 -1.16256 3.93694 0
M  V30 1341 H 128.237 -1.4257 2.7988 0
M  V30 1342 H 127.43 -0.543945 5.01056 0
M  V30 1343 H 127.032 0.584267 3.69408 0
M  V30 1344 H 129.324 -0.177053 6.77269 0
M  V30 1345 H 130.267 1.33636 6.95375 0
M  V30 1346 H 130.675 0.191124 5.64176 0
M  V30 1347 N 130.073 -1.45103 0.615059 0
M  V30 1348 C 131.02 -2.30586 -0.0993978 0
M  V30 1349 C 131.99 -1.42544 -0.852669 0
M  V30 1350 O 133.175 -1.71465 -0.836917 0
M  V30 1351 C 130.315 -3.27572 -1.08583 0
M  V30 1352 C 129.428 -4.30717 -0.332656 0
M  V30 1353 C 128.563 -5.14807 -1.30947 0
M  V30 1354 C 127.602 -6.09673 -0.544538 0
M  V30 1355 N 126.739 -6.86517 -1.47101 0
M  V30 1356 H 131.579 -2.91144 0.635542 0
M  V30 1357 H 129.116 -1.4346 0.325206 0
M  V30 1358 H 131.074 -3.82276 -1.67095 0
M  V30 1359 H 129.704 -2.68751 -1.78809 0
M  V30 1360 H 128.756 -3.78615 0.368107 0
M  V30 1361 H 130.068 -4.98102 0.263842 0
M  V30 1362 H 129.222 -5.73948 -1.96643 0
M  V30 1363 H 127.961 -4.47458 -1.9399 0
M  V30 1364 H 126.966 -5.49656 0.126003 0
M  V30 1365 H 128.191 -6.79052 0.080947 0
M  V30 1366 H 126.137 -6.21851 -2.08895 0
M  V30 1367 H 126.054 -7.50281 -0.928137 0
M  V30 1368 H 127.322 -7.50194 -2.11731 0
M  V30 1369 N 131.551 -0.354651 -1.53558 0
M  V30 1370 C 132.8 0.239504 -2.00273 0
M  V30 1371 C 133.113 1.50759 -1.24623 0
M  V30 1372 O 134.319 2.17968 -1.61871 0
M  V30 1373 C 132.775 0.477341 -3.5672 0
M  V30 1374 C 132.383 -0.775488 -4.41237 0
M  V30 1375 C 134.127 1.02975 -4.11821 0
M  V30 1376 C 132.034 -0.507838 -5.89216 0
M  V30 1377 H 130.964 0.0932743 -0.748208 0
M  V30 1378 H 133.615 -0.471701 -1.77334 0
M  V30 1379 H 131.997 1.24953 -3.7577 0
M  V30 1380 H 133.171 -1.54963 -4.33962 0
M  V30 1381 H 131.486 -1.25033 -3.97185 0
M  V30 1382 H 134.083 1.24513 -5.2 0
M  V30 1383 H 134.426 1.98862 -3.65731 0
M  V30 1384 H 134.959 0.317994 -3.96527 0
M  V30 1385 H 131.698 -1.43674 -6.39561 0
M  V30 1386 H 131.218 0.228011 -5.99366 0
M  V30 1387 H 132.897 -0.129238 -6.46871 0
M  V30 1388 N 133.029 1.57378 -0.0835403 0
M  V30 1389 C 133.979 2.09916 0.889905 0
M  V30 1390 C 134.963 1.01151 1.25129 0
M  V30 1391 O 136.155 1.27443 1.2283 0
M  V30 1392 C 133.284 2.67379 2.15322 0
M  V30 1393 C 132.37 3.83167 1.81779 0
M  V30 1394 N 132.761 4.91665 1.18739 0
M  V30 1395 C 131.059 3.92685 2.11459 0
M  V30 1396 C 131.76 5.72409 1.0355 0
M  V30 1397 N 130.736 5.21062 1.54906 0
M  V30 1398 H 134.538 2.91188 0.398378 0
M  V30 1399 H 132.052 1.61956 0.120013 0
M  V30 1400 H 134.049 3.0334 2.8599 0
M  V30 1401 H 132.709 1.87558 2.65051 0
M  V30 1402 H 133.72 5.10784 0.855604 0
M  V30 1403 H 130.397 3.23856 2.63483 0
M  V30 1404 H 131.787 6.69699 0.543425 0
M  V30 1405 N 134.507 -0.190092 1.56449 0
M  V30 1406 C 135.735 -0.925772 1.85033 0
M  V30 1407 C 136.15 -1.76638 0.666658 0
M  V30 1408 O 135.507 -1.78822 -0.364565 0
M  V30 1409 C 135.558 -1.81786 3.12468 0
M  V30 1410 O 135.279 -1.01118 4.26271 0
M  V30 1411 C 136.78 -2.6648 3.54265 0
M  V30 1412 H 134 -0.269872 0.614337 0
M  V30 1413 H 136.544 -0.195837 2.0356 0
M  V30 1414 H 134.699 -2.50136 2.95822 0
M  V30 1415 H 135.113 -1.61956 4.98869 0
M  V30 1416 H 136.587 -3.24722 4.46385 0
M  V30 1417 H 137.064 -3.40434 2.77491 0
M  V30 1418 H 137.67 -2.03493 3.73458 0
M  V30 1419 N 135.985 -1.50799 -0.457987 0
M  V30 1420 C 136.915 -1.73553 -1.5621 0
M  V30 1421 C 137.896 -0.584774 -1.59732 0
M  V30 1422 O 139.081 -0.825314 -1.7579 0
M  V30 1423 C 136.211 -1.84169 -2.94447 0
M  V30 1424 C 135.165 -2.99461 -3.0579 0
M  V30 1425 C 134.491 -2.95235 -4.45803 0
M  V30 1426 C 135.791 -4.39766 -2.81786 0
M  V30 1427 H 137.485 -2.66 -1.37421 0
M  V30 1428 H 135.031 -1.28002 -0.659662 0
M  V30 1429 H 136.984 -1.98672 -3.71628 0
M  V30 1430 H 135.708 -0.883545 -3.14422 0
M  V30 1431 H 134.367 -2.8463 -2.31044 0
M  V30 1432 H 134.015 -1.97239 -4.62715 0
M  V30 1433 H 133.715 -3.72642 -4.54326 0
M  V30 1434 H 135.239 -3.11803 -5.24987 0
M  V30 1435 H 136.653 -4.55054 -3.4871 0
M  V30 1436 H 135.05 -5.18722 -3.0174 0
M  V30 1437 H 136.12 -4.51229 -1.7754 0
M  V30 1438 N 137.463 0.71206 -1.40597 0
M  V30 1439 C 138.71 1.47197 -1.39065 0
M  V30 1440 C 139.038 1.94499 0.00583891 0
M  V30 1441 O 138.293 1.68752 0.99102 0
M  V30 1442 C 138.592 2.71039 -2.32965 0
M  V30 1443 C 138.258 2.42484 -3.80148 0
M  V30 1444 C 136.92 2.34406 -4.20247 0
M  V30 1445 C 139.272 2.18598 -4.73143 0
M  V30 1446 C 136.6 2.00516 -5.51371 0
M  V30 1447 C 138.952 1.8622 -6.0457 0
M  V30 1448 C 137.616 1.76626 -6.43708 0
M  V30 1449 H 136.886 0.538634 -0.508876 0
M  V30 1450 H 139.533 0.815325 -1.73276 0
M  V30 1451 H 137.838 3.41558 -1.91951 0
M  V30 1452 H 139.535 3.29138 -2.29061 0
M  V30 1453 H 136.125 2.49659 -3.4838 0
M  V30 1454 H 140.309 2.23793 -4.42979 0
M  V30 1455 H 135.565 1.91628 -5.80593 0
M  V30 1456 H 139.739 1.66752 -6.76141 0
M  V30 1457 H 137.366 1.50133 -7.45228 0
M  V30 1458 N 138.941 1.26152 0.944643 0
M  V30 1459 C 140.352 1.10454 1.50522 0
M  V30 1460 C 140.703 -0.31635 1.93633 0
M  V30 1461 O 139.828 -1.20746 1.79581 0
M  V30 1462 C 140.423 1.99891 2.73549 0
M  V30 1463 C 138.982 1.88348 3.25886 0
M  V30 1464 C 138.129 1.93447 1.9868 0
M  V30 1465 H 141.08 1.39292 0.760489 0
M  V30 1466 H 141.101 1.54477 3.47732 0
M  V30 1467 H 140.613 3.03297 2.42141 0
M  V30 1468 H 138.714 0.878636 3.62092 0
M  V30 1469 H 138.827 2.73696 3.93227 0
M  V30 1470 H 137.191 1.37456 2.14425 0
M  V30 1471 H 137.974 2.98476 1.69607 0
M  V30 1472 N 140.419 -1.14872 1.07899 0
M  V30 1473 C 141.649 -1.89386 0.825631 0
M  V30 1474 C 142.057 -1.78565 -0.625406 0
M  V30 1475 O 141.4 -1.13918 -1.44113 0
M  V30 1476 C 141.462 -3.40206 1.16191 0
M  V30 1477 C 141.126 -3.74812 2.61467 0
M  V30 1478 C 142.123 -3.75367 3.59716 0
M  V30 1479 C 139.808 -4.0495 2.97189 0
M  V30 1480 C 141.802 -4.05574 4.9172 0
M  V30 1481 C 139.489 -4.34821 4.29388 0
M  V30 1482 C 140.487 -4.35116 5.26463 0
M  V30 1483 O 140.175 -4.64267 6.56286 0
M  V30 1484 H 139.907 -0.606894 0.297751 0
M  V30 1485 H 142.461 -1.46438 1.44031 0
M  V30 1486 H 140.691 -3.8358 0.490214 0
M  V30 1487 H 142.38 -3.96018 0.890193 0
M  V30 1488 H 143.146 -3.52176 3.33462 0
M  V30 1489 H 139.025 -4.03876 2.22273 0
M  V30 1490 H 142.569 -4.05719 5.67484 0
M  V30 1491 H 138.466 -4.5748 4.55392 0
M  V30 1492 H 139.234 -4.82007 6.61522 0
M  V30 1493 N 141.898 -0.863906 -1.31812 0
M  V30 1494 C 142.861 -0.320212 -2.26952 0
M  V30 1495 C 143.861 0.525369 -1.51975 0
M  V30 1496 O 145.051 0.335547 -1.70938 0
M  V30 1497 C 142.183 0.545919 -3.365 0
M  V30 1498 H 143.376 -1.16004 -2.76556 0
M  V30 1499 H 140.929 -0.638995 -1.42641 0
M  V30 1500 H 141.664 1.40718 -2.92179 0
M  V30 1501 H 141.449 -0.0594674 -3.92055 0
M  V30 1502 H 142.939 0.918796 -4.07367 0
M  V30 1503 N 143.376 1.44774 -0.622745 0
M  V30 1504 C 144.339 2.29069 0.0774015 0
M  V30 1505 C 145.339 1.4059 0.780461 0
M  V30 1506 O 146.529 1.62551 0.626322 0
M  V30 1507 C 143.661 3.21974 1.12006 0
M  V30 1508 H 144.854 2.92459 -0.663901 0
M  V30 1509 H 142.407 1.51548 -0.382486 0
M  V30 1510 H 143.142 2.63417 1.89162 0
M  V30 1511 H 142.927 3.87168 0.619951 0
M  V30 1512 H 144.417 3.85318 1.60995 0
M  V30 1513 N 144.854 0.36279 1.53368 0
M  V30 1514 C 146.131 -0.284021 1.93527 0
M  V30 1515 C 146.511 -1.66628 1.29608 0
M  V30 1516 O 145.859 -2.23942 0.45413 0
M  V30 1517 C 146.069 -0.337028 3.47369 0
M  V30 1518 C 147.417 -0.578708 4.20638 0
M  V30 1519 O 148.441 -0.418352 3.53735 0
M  V30 1520 O 147.3 -0.89074 5.39192 0
M  V30 1521 H 144.394 -0.169743 0.809393 0
M  V30 1522 H 146.94 0.41537 1.64538 0
M  V30 1523 H 145.712 0.632217 3.86159 0
M  V30 1524 H 145.335 -1.08243 3.82582 0
M  V30 1525 N 146.332 -1.57332 0.0918853 0
M  V30 1526 C 147.56 -1.98574 -0.581048 0
M  V30 1527 C 147.975 -0.970903 -1.61923 0
M  V30 1528 O 147.332 0.0399054 -1.82456 0
M  V30 1529 C 147.383 -3.39872 -1.23164 0
M  V30 1530 O 147.104 -4.37469 -0.234989 0
M  V30 1531 C 148.605 -3.96099 -1.99049 0
M  V30 1532 H 145.825 -0.65261 -0.156018 0
M  V30 1533 H 148.369 -2.0379 0.170225 0
M  V30 1534 H 146.524 -3.35679 -1.93386 0
M  V30 1535 H 146.938 -5.19751 -0.70418 0
M  V30 1536 H 148.412 -4.97127 -2.39934 0
M  V30 1537 H 148.889 -3.3374 -2.85507 0
M  V30 1538 H 149.495 -4.03755 -1.3365 0
M  V30 1539 N 147.81 0.181792 -1.56548 0
M  V30 1540 C 149.058 0.89832 -1.81038 0
M  V30 1541 C 149.379 1.83232 -0.667164 0
M  V30 1542 O 148.649 1.93372 0.313673 0
M  V30 1543 H 147.229 0.33471 -0.667816 0
M  V30 1544 H 149.891 0.184116 -1.94028 0
M  V30 1545 H 148.987 1.4815 -2.74696 0
M  V30 1546 N 149.288 1.51039 0.449983 0
M  V30 1547 C 150.218 1.74379 1.55288 0
M  V30 1548 C 151.199 0.593236 1.5942 0
M  V30 1549 O 152.384 0.834625 1.7535 0
M  V30 1550 C 149.514 1.85728 2.93466 0
M  V30 1551 C 148.468 3.01078 3.04197 0
M  V30 1552 C 147.794 2.97595 4.44231 0
M  V30 1553 C 149.094 4.41254 2.7945 0
M  V30 1554 H 150.788 2.66725 1.36008 0
M  V30 1555 H 148.334 1.2835 0.652864 0
M  V30 1556 H 150.287 2.0064 3.70569 0
M  V30 1557 H 149.011 0.900207 3.13949 0
M  V30 1558 H 147.67 2.85851 2.29531 0
M  V30 1559 H 147.318 1.99691 4.61663 0
M  V30 1560 H 147.018 3.75046 4.52343 0
M  V30 1561 H 148.542 3.14583 5.23326 0
M  V30 1562 H 149.956 4.56897 3.46292 0
M  V30 1563 H 148.353 5.20315 2.98985 0
M  V30 1564 H 149.423 4.52164 1.75144 0
M  V30 1565 N 150.766 -0.704594 1.40972 0
M  V30 1566 C 151.676 -1.84856 1.44448 0
M  V30 1567 C 152.692 -1.70726 0.335961 0
M  V30 1568 O 153.868 -1.92799 0.582276 0
M  V30 1569 C 150.933 -3.20758 1.31587 0
M  V30 1570 C 149.994 -3.47063 2.52677 0
M  V30 1571 C 149.227 -4.76481 2.4042 0
M  V30 1572 O 149.45 -5.52341 1.42391 0
M  V30 1573 O 148.384 -5.03367 3.30007 0
M  V30 1574 H 152.21 -1.8488 2.40942 0
M  V30 1575 H 149.795 -0.85647 1.22413 0
M  V30 1576 H 151.677 -4.01913 1.26665 0
M  V30 1577 H 150.352 -3.21438 0.382049 0
M  V30 1578 H 149.259 -2.65873 2.63177 0
M  V30 1579 H 150.592 -3.5119 3.44858 0
M  V30 1580 N 152.244 -1.26651 -0.937939 0
M  V30 1581 C 153.493 -1.11775 -1.67897 0
M  V30 1582 C 153.806 0.33794 -1.92659 0
M  V30 1583 O 155.012 0.607434 -2.64618 0
M  V30 1584 C 153.468 -1.9523 -3.02346 0
M  V30 1585 C 153.076 -3.45393 -2.8532 0
M  V30 1586 C 154.82 -1.88972 -3.80118 0
M  V30 1587 C 152.727 -4.21083 -4.15263 0
M  V30 1588 H 151.657 -0.414696 -0.629717 0
M  V30 1589 H 154.308 -1.50988 -1.04283 0
M  V30 1590 H 152.69 -1.48853 -3.66959 0
M  V30 1591 H 153.864 -3.99561 -2.29537 0
M  V30 1592 H 152.179 -3.52921 -2.20988 0
M  V30 1593 H 154.776 -2.42805 -4.76392 0
M  V30 1594 H 155.119 -0.86113 -4.07296 0
M  V30 1595 H 155.652 -2.33189 -3.22285 0
M  V30 1596 H 152.391 -5.24425 -3.93267 0
M  V30 1597 H 151.911 -3.71695 -4.70747 0
M  V30 1598 H 153.59 -4.29706 -4.83696 0
M  V30 1599 N 153.722 1.14298 -1.08507 0
M  V30 1600 C 154.969 1.85359 -0.815373 0
M  V30 1601 C 155.297 1.83001 0.658865 0
M  V30 1602 O 154.552 1.25655 1.50031 0
M  V30 1603 C 154.851 3.33547 -1.28379 0
M  V30 1604 C 154.517 3.56093 -2.76602 0
M  V30 1605 C 153.179 3.61955 -3.17084 0
M  V30 1606 C 155.531 3.64834 -3.72217 0
M  V30 1607 C 152.859 3.74082 -4.51973 0
M  V30 1608 C 155.211 3.78487 -5.06883 0
M  V30 1609 C 153.875 3.82598 -5.46969 0
M  V30 1610 H 153.145 0.678276 -0.298366 0
M  V30 1611 H 155.792 1.35002 -1.35819 0
M  V30 1612 H 154.097 3.86191 -0.660593 0
M  V30 1613 H 155.794 3.86959 -1.05186 0
M  V30 1614 H 152.384 3.52179 -2.4427 0
M  V30 1615 H 156.568 3.59595 -3.42061 0
M  V30 1616 H 151.824 3.75527 -4.82483 0
M  V30 1617 H 155.998 3.84193 -5.80834 0
M  V30 1618 H 153.625 3.91747 -6.51489 0
M  V30 1619 N 155.201 0.870884 1.31352 0
M  V30 1620 C 156.111 0.330783 2.32256 0
M  V30 1621 C 157.127 -0.559767 1.6475 0
M  V30 1622 O 158.303 -0.456263 1.96164 0
M  V30 1623 C 155.368 -0.458137 3.4366 0
M  V30 1624 C 154.429 0.460482 4.26823 0
M  V30 1625 C 153.662 -0.290881 5.32907 0
M  V30 1626 O 153.885 -1.51885 5.49806 0
M  V30 1627 O 152.819 0.351732 6.00871 0
M  V30 1628 H 156.645 1.16718 2.80376 0
M  V30 1629 H 154.23 0.634285 1.35267 0
M  V30 1630 H 156.112 -0.905343 4.1156 0
M  V30 1631 H 154.787 -1.27106 2.97701 0
M  V30 1632 H 153.694 0.956207 3.61673 0
M  V30 1633 H 155.027 1.23903 4.7635 0
M  V30 1634 N 156.679 -1.44442 0.630414 0
M  V30 1635 C 157.928 -2.01267 0.132073 0
M  V30 1636 C 158.241 -1.50172 -1.25331 0
M  V30 1637 O 159.447 -1.9912 -1.84562 0
M  V30 1638 C 157.903 -3.59422 0.185362 0
M  V30 1639 C 157.511 -4.19514 1.57201 0
M  V30 1640 C 159.255 -4.23724 -0.256553 0
M  V30 1641 C 157.162 -5.69891 1.58045 0
M  V30 1642 H 156.092 -0.752619 0.0456092 0
M  V30 1643 H 158.743 -1.65666 0.789106 0
M  V30 1644 H 157.125 -3.92318 -0.538759 0
M  V30 1645 H 158.299 -3.98156 2.31966 0
M  V30 1646 H 156.614 -3.67496 1.95795 0
M  V30 1647 H 159.211 -5.34019 -0.269767 0
M  V30 1648 H 159.554 -3.96013 -1.28372 0
M  V30 1649 H 160.087 -3.95629 0.41505 0
M  V30 1650 H 156.826 -6.02336 2.58597 0
M  V30 1651 H 156.346 -5.93373 0.875725 0
M  V30 1652 H 158.025 -6.33515 1.31408 0
M  V30 1653 N 158.157 -0.370918 -1.53173 0
M  V30 1654 C 159.385 0.217704 -2.05751 0
M  V30 1655 C 159.8 1.42018 -1.24404 0
M  V30 1656 O 159.157 1.80245 -0.286033 0
M  V30 1657 C 159.208 0.605954 -3.56385 0
M  V30 1658 O 158.929 -0.548734 -4.3465 0
M  V30 1659 C 160.43 1.2524 -4.25241 0
M  V30 1660 H 157.65 0.0371659 -0.66997 0
M  V30 1661 H 160.194 -0.530832 -1.9749 0
M  V30 1662 H 158.349 1.3044 -3.6478 0
M  V30 1663 H 158.763 -0.23376 -5.23979 0
M  V30 1664 H 160.237 1.47458 -5.3194 0
M  V30 1665 H 160.714 2.2143 -3.79296 0
M  V30 1666 H 161.32 0.595233 -4.21114 0
M  V30 1667 N 159.635 1.57281 -0.100228 0
M  V30 1668 C 160.565 2.17328 0.853857 0
M  V30 1669 C 161.546 1.10804 1.2906 0
M  V30 1670 O 162.731 1.38963 1.35657 0
M  V30 1671 C 159.861 2.75772 2.11109 0
M  V30 1672 C 158.815 3.87713 1.81279 0
M  V30 1673 C 158.141 4.32882 3.13874 0
M  V30 1674 C 159.441 5.10677 1.09574 0
M  V30 1675 H 161.135 2.97305 0.353545 0
M  V30 1676 H 158.681 1.43009 0.168612 0
M  V30 1677 H 160.634 3.16433 2.78296 0
M  V30 1678 H 159.358 1.93057 2.63432 0
M  V30 1679 H 158.017 3.476 1.16489 0
M  V30 1680 H 157.665 3.47051 3.64095 0
M  V30 1681 H 157.365 5.08358 2.94696 0
M  V30 1682 H 158.889 4.7618 3.82211 0
M  V30 1683 H 160.303 5.48474 1.66879 0
M  V30 1684 H 158.7 5.91615 1.00557 0
M  V30 1685 H 159.77 4.84835 0.0793299 0
M  V30 1686 N 161.113 -0.173488 1.56642 0
M  V30 1687 C 162.043 -1.2171 1.99271 0
M  V30 1688 C 163.024 -1.46289 0.867959 0
M  V30 1689 O 164.209 -1.5766 1.13388 0
M  V30 1690 C 161.339 -2.55651 2.35074 0
M  V30 1691 C 160.293 -2.45645 3.50489 0
M  V30 1692 C 159.619 -3.84056 3.72028 0
M  V30 1693 C 160.919 -1.96302 4.84007 0
M  V30 1694 H 162.613 -0.86275 2.867 0
M  V30 1695 H 160.159 -0.413571 1.37933 0
M  V30 1696 H 162.112 -3.2886 2.63494 0
M  V30 1697 H 160.836 -2.92869 1.44552 0
M  V30 1698 H 159.495 -1.7489 3.22194 0
M  V30 1699 H 159.143 -4.18664 2.788 0
M  V30 1700 H 158.843 -3.7823 4.49684 0
M  V30 1701 H 160.367 -4.58854 4.02846 0
M  V30 1702 H 161.781 -2.59284 5.11317 0
M  V30 1703 H 160.178 -2.01429 5.65284 0
M  V30 1704 H 161.248 -0.917226 4.76146 0
M  V30 1705 N 162.591 -1.51276 -0.441967 0
M  V30 1706 C 163.868 -1.54252 -1.20273 0
M  V30 1707 C 164.248 -0.30408 -2.08898 0
M  V30 1708 O 163.596 0.711084 -2.17154 0
M  V30 1709 C 163.806 -2.85406 -2.00859 0
M  V30 1710 C 165.154 -3.37181 -2.58059 0
M  V30 1711 O 166.178 -2.86925 -2.11074 0
M  V30 1712 O 165.037 -4.24858 -3.43741 0
M  V30 1713 H 162.131 -0.619969 -0.547328 0
M  V30 1714 H 164.677 -1.63586 -0.451413 0
M  V30 1715 H 163.449 -3.67003 -1.35736 0
M  V30 1716 H 163.072 -2.79213 -2.83065 0
M  V30 1717 N 164.069 0.697108 -1.41344 0
M  V30 1718 C 165.019 1.80313 -1.39539 0
M  V30 1719 C 166.003 1.58618 -0.270001 0
M  V30 1720 O 167.195 1.69477 -0.510551 0
M  V30 1721 C 164.324 3.18606 -1.27848 0
M  V30 1722 C 163.41 3.46001 -2.45244 0
M  V30 1723 N 163.801 3.44103 -3.70711 0
M  V30 1724 C 162.099 3.76542 -2.39023 0
M  V30 1725 C 162.8 3.7036 -4.48563 0
M  V30 1726 N 161.776 3.90027 -3.78655 0
M  V30 1727 H 165.578 1.77207 -2.34468 0
M  V30 1728 H 163.092 0.897031 -1.35378 0
M  V30 1729 H 165.089 3.97833 -1.24637 0
M  V30 1730 H 163.749 3.22925 -0.339032 0
M  V30 1731 H 164.76 3.2452 -4.03618 0
M  V30 1732 H 161.437 3.88241 -1.53542 0
M  V30 1733 H 162.827 3.75042 -5.57488 0
M  V30 1734 N 165.547 1.27147 0.931209 0
M  V30 1735 C 166.497 1.06227 2.01742 0
M  V30 1736 C 167.481 -0.00859065 1.60898 0
M  V30 1737 O 168.673 0.209537 1.75755 0
M  V30 1738 C 165.802 0.707787 3.35924 0
M  V30 1739 C 164.888 1.81661 3.83223 0
M  V30 1740 N 165.279 3.05564 4.03069 0
M  V30 1741 C 163.577 1.70249 4.12227 0
M  V30 1742 C 164.278 3.77697 4.42403 0
M  V30 1743 N 163.254 3.0544 4.49675 0
M  V30 1744 H 167.056 2.00261 2.15111 0
M  V30 1745 H 164.57 1.1781 1.11779 0
M  V30 1746 H 166.567 0.539043 4.134 0
M  V30 1747 H 165.227 -0.224964 3.2392 0
M  V30 1748 H 166.238 3.41363 3.89476 0
M  V30 1749 H 162.915 0.840329 4.08956 0
M  V30 1750 H 164.305 4.84168 4.65866 0
M  V30 1751 N 167.025 -1.13721 1.09112 0
M  V30 1752 C 167.957 -2.1871 0.685467 0
M  V30 1753 C 168.97 -1.60527 -0.271068 0
M  V30 1754 O 170.159 -1.78407 -0.0576148 0
M  V30 1755 C 167.259 -3.38898 -0.0111255 0
M  V30 1756 C 166.432 -4.26597 0.966131 0
M  V30 1757 C 165.491 -5.25324 0.303539 0
M  V30 1758 O 164.517 -5.61213 0.950177 0
M  V30 1759 N 165.719 -5.72779 -0.943651 0
M  V30 1760 H 168.484 -2.54126 1.58871 0
M  V30 1761 H 166.045 -1.29012 0.978143 0
M  V30 1762 H 168.037 -4.02014 -0.465517 0
M  V30 1763 H 166.607 -3.01747 -0.816565 0
M  V30 1764 H 165.827 -3.60306 1.59917 0
M  V30 1765 H 167.115 -4.82048 1.6281 0
M  V30 1766 H 166.513 -5.45762 -1.48862 0
M  V30 1767 H 165.07 -6.37847 -1.34142 0
M  V30 1768 N 168.503 -0.877838 -1.30888 0
M  V30 1769 C 169.435 -0.296607 -2.27273 0
M  V30 1770 C 170.448 0.544799 -1.53414 0
M  V30 1771 O 171.637 0.365511 -1.74718 0
M  V30 1772 C 168.737 0.597481 -3.33592 0
M  V30 1773 C 167.91 -0.213251 -4.3688 0
M  V30 1774 C 166.969 0.610208 -5.2265 0
M  V30 1775 O 165.995 0.035441 -5.69189 0
M  V30 1776 N 167.197 1.92071 -5.47804 0
M  V30 1777 H 169.962 -1.12492 -2.77787 0
M  V30 1778 H 167.523 -0.740105 -1.43993 0
M  V30 1779 H 169.515 1.15425 -3.87891 0
M  V30 1780 H 168.085 1.32647 -2.83061 0
M  V30 1781 H 167.305 -0.951466 -3.82545 0
M  V30 1782 H 168.593 -0.769262 -5.02951 0
M  V30 1783 H 167.991 2.4107 -5.11763 0
M  V30 1784 H 166.548 2.42508 -6.05007 0
M  V30 1785 N 169.982 1.44106 -0.638065 0
M  V30 1786 C 170.915 2.27924 0.112161 0
M  V30 1787 C 171.893 1.38945 0.844574 0
M  V30 1788 O 173.077 1.68386 0.847248 0
M  V30 1789 C 170.204 3.18029 1.16512 0
M  V30 1790 C 169.25 4.23163 0.532458 0
M  V30 1791 S 170.083 5.31131 -0.682666 0
M  V30 1792 C 171.239 6.24805 0.37013 0
M  V30 1793 H 171.472 2.91205 -0.598887 0
M  V30 1794 H 169.005 1.48394 -0.426441 0
M  V30 1795 H 170.963 3.70492 1.76766 0
M  V30 1796 H 169.624 2.53955 1.8484 0
M  V30 1797 H 168.817 4.86252 1.32571 0
M  V30 1798 H 168.419 3.74 0.00437644 0
M  V30 1799 H 170.711 6.66042 1.24071 0
M  V30 1800 H 171.654 7.07741 -0.225349 0
M  V30 1801 H 172.062 5.60154 0.699141 0
M  V30 1802 N 171.46 0.379036 1.52974 0
M  V30 1803 C 172.685 -0.209353 2.06341 0
M  V30 1804 C 173.11 -1.40583 1.24972 0
M  V30 1805 O 172.468 -1.79246 0.272155 0
M  V30 1806 C 172.516 -0.567786 3.56102 0
M  V30 1807 O 171.62 -1.66318 3.77375 0
M  V30 1808 H 170.961 -0.0272919 0.663439 0
M  V30 1809 H 173.491 0.543536 1.97248 0
M  V30 1810 H 173.501 -0.835003 3.99364 0
M  V30 1811 H 172.176 0.307013 4.14765 0
M  V30 1812 H 170.753 -1.39048 3.46006 0
M  V30 1813 N 172.938 -1.57226 0.108567 0
M  V30 1814 C 174.163 -1.99604 -0.563303 0
M  V30 1815 C 174.588 -0.987563 -1.6009 0
M  V30 1816 O 173.946 0.0421687 -1.81251 0
M  V30 1817 C 173.994 -3.40902 -1.17552 0
M  V30 1818 O 173.098 -3.42896 -2.2912 0
M  V30 1819 H 172.439 -0.648704 -0.1417 0
M  V30 1820 H 174.969 -2.03679 0.193961 0
M  V30 1821 H 174.979 -3.78886 -1.51357 0
M  V30 1822 H 173.654 -4.1382 -0.415445 0
M  V30 1823 H 172.231 -3.1672 -1.96832 0
M  V30 1824 N 174.416 0.165178 -1.56732 0
M  V30 1825 C 175.827 0.727046 -1.71962 0
M  V30 1826 C 176.178 1.82508 -0.720078 0
M  V30 1827 O 175.303 2.16082 0.117242 0
M  V30 1828 C 175.898 1.32559 -3.11791 0
M  V30 1829 C 174.457 1.83422 -3.28684 0
M  V30 1830 C 173.604 0.715567 -2.67908 0
M  V30 1831 H 176.555 -0.0602896 -1.58585 0
M  V30 1832 H 176.576 2.19533 -3.10782 0
M  V30 1833 H 176.088 0.526195 -3.84516 0
M  V30 1834 H 174.189 2.65986 -2.60926 0
M  V30 1835 H 174.302 1.97543 -4.36478 0
M  V30 1836 H 172.666 1.13758 -2.27884 0
M  V30 1837 H 173.449 -0.0720836 -3.43224 0
M  V30 1838 N 175.894 1.51508 0.433938 0
M  V30 1839 C 176.844 1.69451 1.52546 0
M  V30 1840 C 177.828 0.548474 1.51263 0
M  V30 1841 O 179.02 0.804529 1.57659 0
M  V30 1842 C 176.149 1.82604 2.90707 0
M  V30 1843 C 175.235 3.03002 2.96733 0
M  V30 1844 N 175.626 4.26121 2.72496 0
M  V30 1845 C 173.924 3.02327 3.27894 0
M  V30 1846 C 174.625 5.07407 2.84452 0
M  V30 1847 N 173.601 4.42126 3.16269 0
M  V30 1848 H 177.403 2.62305 1.32564 0
M  V30 1849 H 174.917 1.49202 0.641297 0
M  V30 1850 H 176.914 1.93569 3.69238 0
M  V30 1851 H 175.574 0.909339 3.11707 0
M  V30 1852 H 176.585 4.55009 2.4736 0
M  V30 1853 H 173.262 2.20301 3.54646 0
M  V30 1854 H 174.652 6.15422 2.69639 0
M  V30 1855 N 177.372 -0.689602 1.41712 0
M  V30 1856 C 178.335 -1.78521 1.43746 0
M  V30 1857 C 179.335 -1.57436 0.327191 0
M  V30 1858 O 180.525 -1.64 0.587348 0
M  V30 1859 C 177.657 -3.16971 1.25467 0
M  V30 1860 H 178.85 -1.78108 2.41283 0
M  V30 1861 H 176.403 -0.89781 1.27942 0
M  V30 1862 H 177.138 -3.23019 0.287948 0
M  V30 1863 H 176.923 -3.33678 2.05917 0
M  V30 1864 H 178.413 -3.96935 1.2974 0
M  V30 1865 N 178.85 -1.27639 -0.924453 0
M  V30 1866 C 179.78 -1.13166 -2.04244 0
M  V30 1867 C 180.761 -0.032256 -1.70069 0
M  V30 1868 O 181.946 -0.207328 -1.9309 0
M  V30 1869 C 179.076 -0.781496 -3.38393 0
M  V30 1870 C 178.03 -1.83449 -3.86692 0
M  V30 1871 C 177.356 -1.33822 -5.17683 0
M  V30 1872 C 178.656 -3.23917 -4.09726 0
M  V30 1873 H 180.35 -2.06689 -2.1661 0
M  V30 1874 H 177.896 -0.995136 -1.04082 0
M  V30 1875 H 179.849 -0.667057 -4.16087 0
M  V30 1876 H 178.573 0.189439 -3.2605 0
M  V30 1877 H 177.232 -1.93789 -3.11193 0
M  V30 1878 H 176.88 -0.35665 -5.01734 0
M  V30 1879 H 176.58 -2.04224 -5.50968 0
M  V30 1880 H 178.104 -1.23679 -5.97943 0
M  V30 1881 H 179.518 -3.16559 -4.77978 0
M  V30 1882 H 177.915 -3.92059 -4.54324 0
M  V30 1883 H 178.985 -3.68729 -3.14908 0
M  V30 1884 N 180.328 1.1314 -1.09713 0
M  V30 1885 C 181.576 1.84119 -0.833338 0
M  V30 1886 C 181.897 1.84097 0.642904 0
M  V30 1887 O 181.167 1.29881 1.46655 0
M  V30 1888 H 179.747 0.681766 -0.305293 0
M  V30 1889 H 182.409 1.37038 -1.38588 0
M  V30 1890 H 181.505 2.88543 -1.18951 0
M  V30 1891 N 181.806 0.884767 1.30421 0
M  V30 1892 C 183.052 0.503851 1.96441 0
M  V30 1893 C 183.385 -0.944518 1.69684 0
M  V30 1894 O 182.66 -1.66737 1.00145 0
M  V30 1895 C 182.943 0.779085 3.51571 0
M  V30 1896 C 182.796 2.27807 3.87846 0
M  V30 1897 C 184.115 0.255452 4.39358 0
M  V30 1898 H 181.234 0.184533 0.713524 0
M  V30 1899 H 183.876 1.10872 1.54297 0
M  V30 1900 H 182.026 0.264274 3.876 0
M  V30 1901 H 183.698 2.86127 3.61841 0
M  V30 1902 H 181.941 2.74479 3.35922 0
M  V30 1903 H 182.612 2.42125 4.96064 0
M  V30 1904 H 185.088 0.696079 4.10236 0
M  V30 1905 H 183.964 0.477361 5.4682 0
M  V30 1906 H 184.225 -0.843293 4.33983 0
M  V30 1907 N 183.284 -1.43765 0.645699 0
M  V30 1908 C 184.533 -2.01116 0.153412 0
M  V30 1909 C 184.846 -1.51493 -1.23731 0
M  V30 1910 O 186.052 -2.01067 -1.8244 0
M  V30 1911 C 184.508 -3.59206 0.223473 0
M  V30 1912 C 184.116 -4.17823 1.61642 0
M  V30 1913 C 185.86 -4.23972 -0.211597 0
M  V30 1914 C 183.767 -5.68183 1.64081 0
M  V30 1915 H 182.697 -0.752093 0.0535891 0
M  V30 1916 H 185.348 -1.6482 0.806633 0
M  V30 1917 H 183.73 -3.92867 -0.497118 0
M  V30 1918 H 184.904 -3.95674 2.36176 0
M  V30 1919 H 183.219 -3.65399 1.99681 0
M  V30 1920 H 185.816 -5.34275 -0.213112 0
M  V30 1921 H 186.159 -3.97352 -1.24165 0
M  V30 1922 H 186.692 -3.95166 0.456988 0
M  V30 1923 H 183.431 -5.99559 2.64971 0
M  V30 1924 H 182.951 -5.9241 0.938611 0
M  V30 1925 H 184.63 -6.32085 1.3812 0
M  V30 1926 N 184.763 -0.387143 -1.52771 0
M  V30 1927 C 185.673 0.456442 -2.30117 0
M  V30 1928 C 186.689 1.07342 -1.36944 0
M  V30 1929 O 187.865 1.07971 -1.70013 0
M  V30 1930 C 184.93 1.56957 -3.09136 0
M  V30 1931 C 183.991 0.977916 -4.18014 0
M  V30 1932 C 183.224 2.038 -4.93256 0
M  V30 1933 O 183.447 3.25271 -4.68567 0
M  V30 1934 O 182.381 1.6565 -5.78657 0
M  V30 1935 H 186.207 -0.17359 -3.03203 0
M  V30 1936 H 183.792 -0.150919 -1.48636 0
M  V30 1937 H 185.674 2.21628 -3.58412 0
M  V30 1938 H 184.349 2.18461 -2.38865 0
M  V30 1939 H 183.256 0.294525 -3.72939 0
M  V30 1940 H 184.589 0.407128 -4.90513 0
M  V30 1941 N 186.241 1.57166 -0.116904 0
M  V30 1942 C 187.471 1.99184 0.548586 0
M  V30 1943 C 187.879 0.995436 1.60897 0
M  V30 1944 O 187.222 -0.0201293 1.83689 0
M  V30 1945 C 187.284 3.37611 1.23526 0
M  V30 1946 C 186.948 4.55857 0.323077 0
M  V30 1947 C 187.945 5.18056 -0.437476 0
M  V30 1948 C 185.63 5.01751 0.234761 0
M  V30 1949 C 187.624 6.24536 -1.2741 0
M  V30 1950 C 185.311 6.08093 -0.605496 0
M  V30 1951 C 186.309 6.69352 -1.35856 0
M  V30 1952 O 185.997 7.7364 -2.18487 0
M  V30 1953 H 185.729 0.659148 0.149999 0
M  V30 1954 H 188.283 2.0443 -0.199428 0
M  V30 1955 H 186.513 3.29113 2.0303 0
M  V30 1956 H 188.202 3.63932 1.79745 0
M  V30 1957 H 188.968 4.83516 -0.379105 0
M  V30 1958 H 184.847 4.53817 0.810601 0
M  V30 1959 H 188.391 6.72281 -1.86237 0
M  V30 1960 H 184.288 6.42063 -0.665268 0
M  V30 1961 H 185.056 7.90727 -2.11406 0
M  V30 1962 N 187.719 -0.156864 1.56817 0
M  V30 1963 C 188.968 -0.869504 1.81996 0
M  V30 1964 C 189.281 -1.82777 0.696545 0
M  V30 1965 O 190.487 -2.58384 0.833658 0
M  V30 1966 C 188.943 -1.59679 3.22538 0
M  V30 1967 C 188.551 -0.681431 4.42787 0
M  V30 1968 C 190.295 -2.2968 3.56997 0
M  V30 1969 C 188.202 -1.40978 5.74351 0
M  V30 1970 H 187.132 -0.328438 0.678708 0
M  V30 1971 H 189.783 -0.1223 1.83092 0
M  V30 1972 H 188.165 -2.38927 3.158 0
M  V30 1973 H 189.339 0.0751166 4.60739 0
M  V30 1974 H 187.654 -0.0903431 4.16302 0
M  V30 1975 H 190.251 -2.84794 4.52544 0
M  V30 1976 H 190.594 -3.05707 2.82576 0
M  V30 1977 H 191.127 -1.57361 3.65352 0
M  V30 1978 H 187.866 -0.691561 6.51842 0
M  V30 1979 H 187.386 -2.13929 5.60352 0
M  V30 1980 H 189.065 -1.95337 6.16808 0
M  V30 1981 N 189.197 -1.51736 -0.425897 0
M  V30 1982 C 190.147 -1.70258 -1.51645 0
M  V30 1983 C 191.131 -0.556488 -1.5097 0
M  V30 1984 O 192.323 -0.812879 -1.5723 0
M  V30 1985 C 189.452 -1.84143 -2.89735 0
M  V30 1986 C 188.538 -3.04572 -2.95122 0
M  V30 1987 N 188.929 -4.2756 -2.70233 0
M  V30 1988 C 187.227 -3.04061 -3.26286 0
M  V30 1989 C 187.928 -5.08908 -2.81757 0
M  V30 1990 N 186.904 -4.43797 -3.13919 0
M  V30 1991 H 190.706 -2.63004 -1.31172 0
M  V30 1992 H 188.22 -1.4954 -0.633375 0
M  V30 1993 H 190.217 -1.95525 -3.68206 0
M  V30 1994 H 188.877 -0.925857 -3.1122 0
M  V30 1995 H 189.888 -4.56315 -2.44943 0
M  V30 1996 H 186.565 -2.22179 -3.53473 0
M  V30 1997 H 187.955 -6.16843 -2.66372 0
M  V30 1998 N 190.675 0.682077 -1.42076 0
M  V30 1999 C 191.921 1.44428 -1.42367 0
M  V30 2000 C 192.254 1.94164 -0.0373056 0
M  V30 2001 O 191.529 1.70429 0.937239 0
M  V30 2002 C 191.812 2.64654 -2.44194 0
M  V30 2003 C 191.665 2.20596 -3.91991 0
M  V30 2004 C 192.984 3.66865 -2.431 0
M  V30 2005 H 190.103 0.523834 -0.518428 0
M  V30 2006 H 192.745 0.77576 -1.73442 0
M  V30 2007 H 190.895 3.2169 -2.17826 0
M  V30 2008 H 192.567 1.68783 -4.29313 0
M  V30 2009 H 190.81 1.52242 -4.06208 0
M  V30 2010 H 191.481 3.06921 -4.58807 0
M  V30 2011 H 193.957 3.19531 -2.66532 0
M  V30 2012 H 192.833 4.48577 -3.16339 0
M  V30 2013 H 193.094 4.17493 -1.45437 0
M  V30 2014 N 192.153 1.28127 0.917671 0
M  V30 2015 C 193.083 1.14248 2.03641 0
M  V30 2016 C 194.064 0.0412748 1.7005 0
M  V30 2017 O 195.249 0.217566 1.92977 0
M  V30 2018 C 192.379 0.799431 3.37974 0
M  V30 2019 C 191.333 1.85497 3.85713 0
M  V30 2020 C 190.659 1.36565 5.16966 0
M  V30 2021 C 191.959 3.26085 4.08002 0
M  V30 2022 H 193.653 2.07835 2.15511 0
M  V30 2023 H 191.199 1.00064 1.03553 0
M  V30 2024 H 193.152 0.689114 4.15727 0
M  V30 2025 H 191.876 -0.172145 3.26146 0
M  V30 2026 H 190.535 1.95437 3.10161 0
M  V30 2027 H 190.183 0.383253 5.01538 0
M  V30 2028 H 189.883 2.07143 5.49878 0
M  V30 2029 H 191.407 1.26848 5.97279 0
M  V30 2030 H 192.821 3.19089 4.76293 0
M  V30 2031 H 191.218 3.94462 4.52238 0
M  V30 2032 H 192.288 3.70394 3.12948 0
M  V30 2033 N 193.631 -1.12557 1.10312 0
M  V30 2034 C 194.541 -2.21841 0.763142 0
M  V30 2035 C 195.557 -1.72354 -0.238801 0
M  V30 2036 O 196.733 -2.01249 -0.0778746 0
M  V30 2037 C 193.798 -3.46131 0.198632 0
M  V30 2038 C 192.859 -4.10464 1.25769 0
M  V30 2039 C 192.092 -5.28821 0.72002 0
M  V30 2040 O 192.315 -5.6859 -0.453993 0
M  V30 2041 O 191.249 -5.83437 1.47935 0
M  V30 2042 H 195.075 -2.53312 1.67532 0
M  V30 2043 H 192.66 -1.20867 0.878157 0
M  V30 2044 H 194.542 -4.2125 -0.112401 0
M  V30 2045 H 193.217 -3.16338 -0.686419 0
M  V30 2046 H 192.124 -3.3713 1.62156 0
M  V30 2047 H 193.457 -4.44408 2.11571 0
M  V30 2048 N 195.109 -0.891671 -1.2995 0
M  V30 2049 C 196.357 -0.512486 -1.95494 0
M  V30 2050 C 196.678 0.942776 -1.70695 0
M  V30 2051 O 195.948 1.66374 -1.03424 0
M  V30 2052 H 194.528 -0.186533 -0.723336 0
M  V30 2053 H 197.19 -1.13621 -1.58355 0
M  V30 2054 H 196.286 -0.688342 -3.04415 0
M  V30 2055 N 196.587 1.43421 -0.653314 0
M  V30 2056 C 197.836 2.01032 -0.164076 0
M  V30 2057 C 198.149 1.52147 1.22926 0
M  V30 2058 O 199.355 2.02031 1.81371 0
M  V30 2059 C 197.811 3.59082 -0.24252 0
M  V30 2060 C 197.419 4.1696 -1.63855 0
M  V30 2061 C 199.163 4.24079 0.18911 0
M  V30 2062 C 197.07 5.67304 -1.67092 0
M  V30 2063 H 196 0.751798 -0.0575769 0
M  V30 2064 H 198.651 1.6439 -0.815362 0
M  V30 2065 H 197.033 3.93125 0.476276 0
M  V30 2066 H 198.207 3.94416 -2.38271 0
M  V30 2067 H 196.522 3.64335 -2.01616 0
M  V30 2068 H 199.119 5.34381 0.184775 0
M  V30 2069 H 199.462 3.98005 1.22056 0
M  V30 2070 H 199.995 3.94918 -0.477938 0
M  V30 2071 H 196.734 5.98145 -2.68146 0
M  V30 2072 H 196.254 5.91904 -0.970014 0
M  V30 2073 H 197.933 6.31344 -1.4147 0
M  V30 2074 N 198.065 0.39524 1.52563 0
M  V30 2075 C 198.998 -0.4813 2.23067 0
M  V30 2076 C 199.976 -1.05927 1.23362 0
M  V30 2077 O 201.16 -1.10979 1.52368 0
M  V30 2078 C 198.287 -1.66676 2.9485 0
M  V30 2079 C 197.333 -1.21348 4.08873 0
M  V30 2080 S 198.166 -0.190102 5.35162 0
M  V30 2081 C 199.322 -1.38121 6.1047 0
M  V30 2082 H 199.555 0.117381 2.97068 0
M  V30 2083 H 197.088 0.179458 1.53354 0
M  V30 2084 H 199.046 -2.3466 3.36816 0
M  V30 2085 H 197.707 -2.23676 2.20518 0
M  V30 2086 H 196.9 -2.09877 4.58222 0
M  V30 2087 H 196.502 -0.612486 3.68951 0
M  V30 2088 H 198.794 -2.30726 6.37002 0
M  V30 2089 H 199.737 -0.928521 7.01986 0
M  V30 2090 H 200.145 -1.60071 5.41329 0
M  V30 2091 N 199.544 -1.57102 0.125237 0
M  V30 2092 C 200.491 -2.15641 -0.822655 0
M  V30 2093 C 201.461 -1.08313 -1.25927 0
M  V30 2094 O 202.646 -1.36251 -1.33567 0
M  V30 2095 C 199.786 -2.76504 -2.06494 0
M  V30 2096 C 198.899 -3.98158 -1.67612 0
M  V30 2097 C 198.034 -4.47088 -2.86854 0
M  V30 2098 C 197.073 -5.6126 -2.44242 0
M  V30 2099 N 196.21 -6.04905 -3.56419 0
M  V30 2100 H 201.05 -2.96313 -0.316625 0
M  V30 2101 H 198.587 -1.46388 -0.144588 0
M  V30 2102 H 200.545 -3.09925 -2.79289 0
M  V30 2103 H 199.175 -1.98512 -2.54545 0
M  V30 2104 H 198.227 -3.70858 -0.846661 0
M  V30 2105 H 199.539 -4.80934 -1.32301 0
M  V30 2106 H 198.693 -4.82451 -3.67867 0
M  V30 2107 H 197.432 -3.63275 -3.25396 0
M  V30 2108 H 196.437 -5.25495 -1.61663 0
M  V30 2109 H 197.662 -6.46843 -2.0681 0
M  V30 2110 H 195.608 -5.24032 -3.94623 0
M  V30 2111 H 195.525 -6.82552 -3.25051 0
M  V30 2112 H 196.793 -6.44907 -4.37853 0
M  V30 2113 N 201.022 0.148545 -1.56898 0
M  V30 2114 C 202.268 0.862694 -1.83536 0
M  V30 2115 C 202.601 1.80889 -0.706604 0
M  V30 2116 O 201.876 1.92328 0.289885 0
M  V30 2117 C 202.159 1.63853 -3.20662 0
M  V30 2118 C 202.012 0.713925 -4.44098 0
M  V30 2119 C 203.331 2.60133 -3.54991 0
M  V30 2120 H 200.45 0.312179 -0.667618 0
M  V30 2121 H 203.092 0.127953 -1.89569 0
M  V30 2122 H 201.242 2.26489 -3.1565 0
M  V30 2123 H 202.914 0.098686 -4.61194 0
M  V30 2124 H 201.157 0.0234019 -4.33794 0
M  V30 2125 H 201.828 1.29278 -5.36648 0
M  V30 2126 H 204.304 2.07616 -3.60603 0
M  V30 2127 H 203.18 3.11468 -4.51972 0
M  V30 2128 H 203.441 3.41417 -2.80868 0
M  V30 2129 N 202.5 1.5196 0.417844 0
M  V30 2130 C 203.747 1.65591 1.16559 0
M  V30 2131 C 204.075 0.381565 1.90721 0
M  V30 2132 O 203.33 -0.635156 1.85106 0
M  V30 2133 C 203.629 2.82269 2.19223 0
M  V30 2134 C 203.295 4.20819 1.61933 0
M  V30 2135 C 201.957 4.58506 1.46033 0
M  V30 2136 C 204.309 5.07196 1.20008 0
M  V30 2137 C 201.637 5.80257 0.867113 0
M  V30 2138 C 203.989 6.29544 0.621086 0
M  V30 2139 C 202.653 6.65987 0.449144 0
M  V30 2140 H 201.923 0.605939 0.42652 0
M  V30 2141 H 204.57 1.86041 0.45397 0
M  V30 2142 H 202.875 2.56118 2.96498 0
M  V30 2143 H 204.572 2.90012 2.76936 0
M  V30 2144 H 201.162 3.91116 1.7529 0
M  V30 2145 H 205.346 4.7867 1.31105 0
M  V30 2146 H 200.602 6.07124 0.721833 0
M  V30 2147 H 204.776 6.95805 0.287798 0
M  V30 2148 H 202.403 7.60199 -0.012632 0
M  V30 2149 N 203.978 -0.674533 1.42435 0
M  V30 2150 C 205.225 -1.43459 1.42919 0
M  V30 2151 C 205.553 -1.94446 0.0457312 0
M  V30 2152 O 204.808 -1.7132 -0.94593 0
M  V30 2153 C 205.107 -2.64767 2.40069 0
M  V30 2154 C 204.773 -2.3232 3.86443 0
M  V30 2155 C 203.435 -2.23182 4.26314 0
M  V30 2156 C 205.787 -2.05977 4.78773 0
M  V30 2157 C 203.115 -1.85827 5.56494 0
M  V30 2158 C 205.467 -1.70125 6.09295 0
M  V30 2159 C 204.131 -1.59498 6.48164 0
M  V30 2160 H 203.401 -0.524952 0.522978 0
M  V30 2161 H 206.048 -0.769097 1.75377 0
M  V30 2162 H 204.353 -3.36349 2.00939 0
M  V30 2163 H 206.05 -3.22949 2.37707 0
M  V30 2164 H 202.64 -2.40334 3.54877 0
M  V30 2165 H 206.824 -2.11969 4.48757 0
M  V30 2166 H 202.08 -1.76168 5.8547 0
M  V30 2167 H 206.254 -1.48767 6.80324 0
M  V30 2168 H 203.881 -1.30322 7.48946 0
M  V30 2169 N 205.456 -1.28612 -0.910864 0
M  V30 2170 C 206.733 -1.06632 -1.63979 0
M  V30 2171 C 207.113 0.393351 -2.07403 0
M  V30 2172 O 206.461 1.37999 -1.82122 0
M  V30 2173 C 206.671 -2.0436 -2.8291 0
M  V30 2174 C 208.019 -2.34666 -3.5386 0
M  V30 2175 O 209.043 -2.02467 -2.93062 0
M  V30 2176 O 207.902 -2.89631 -4.63439 0
M  V30 2177 H 204.996 -0.407737 -0.7195 0
M  V30 2178 H 207.542 -1.39942 -0.959914 0
M  V30 2179 H 206.314 -3.02727 -2.47936 0
M  V30 2180 H 205.937 -1.71714 -3.58609 0
M  V30 2181 N 206.934 1.1197 -1.10907 0
M  V30 2182 C 207.844 2.21433 -0.774896 0
M  V30 2183 C 208.86 1.72478 0.229657 0
M  V30 2184 O 210.036 2.01288 0.0672008 0
M  V30 2185 C 207.101 3.4602 -0.216986 0
M  V30 2186 C 206.162 4.09791 -1.27944 0
M  V30 2187 C 205.395 5.28431 -0.748055 0
M  V30 2188 O 205.618 5.68823 0.423833 0
M  V30 2189 O 204.552 5.82644 -1.51027 0
M  V30 2190 H 208.378 2.5242 -1.68873 0
M  V30 2191 H 205.963 1.20399 -0.884555 0
M  V30 2192 H 207.845 4.21304 0.090059 0
M  V30 2193 H 206.52 3.16698 0.669633 0
M  V30 2194 H 205.427 3.36265 -1.63941 0
M  V30 2195 H 206.76 4.4328 -2.13925 0
M  V30 2196 N 208.412 0.89855 1.29475 0
M  V30 2197 C 209.344 0.332726 2.26772 0
M  V30 2198 C 210.357 -0.520323 1.54261 0
M  V30 2199 O 211.546 -0.337668 1.75277 0
M  V30 2200 C 208.646 -0.544334 3.345 0
M  V30 2201 C 207.819 0.282728 4.36485 0
M  V30 2202 C 206.878 -0.526982 5.23555 0
M  V30 2203 O 205.904 0.0551165 5.69173 0
M  V30 2204 N 207.106 -1.83331 5.5079 0
M  V30 2205 H 209.871 1.16897 2.75962 0
M  V30 2206 H 207.432 0.762919 1.42798 0
M  V30 2207 H 209.424 -1.09239 3.89678 0
M  V30 2208 H 207.994 -1.28127 2.85136 0
M  V30 2209 H 207.214 1.01221 3.80983 0
M  V30 2210 H 208.502 0.84918 5.01664 0
M  V30 2211 H 207.9 -2.32898 5.15534 0
M  V30 2212 H 206.457 -2.32852 6.08788 0
M  V30 2213 N 209.89 -1.43072 0.660911 0
M  V30 2214 C 211.136 -2.02545 0.186337 0
M  V30 2215 C 211.491 -1.51253 -1.18913 0
M  V30 2216 O 210.784 -0.699167 -1.78388 0
M  V30 2217 C 210.978 -3.57103 0.145563 0
M  V30 2218 C 210.807 -4.23393 1.51554 0
M  V30 2219 C 209.577 -4.59144 2.10984 0
M  V30 2220 C 211.775 -4.51897 2.45548 0
M  V30 2221 N 209.757 -5.10545 3.40907 0
M  V30 2222 C 211.128 -5.04698 3.6011 0
M  V30 2223 C 213.183 -4.33872 2.44253 0
M  V30 2224 C 211.886 -5.41371 4.73613 0
M  V30 2225 C 213.912 -4.71612 3.56842 0
M  V30 2226 C 213.274 -5.24553 4.70131 0
M  V30 2227 H 209.373 -0.773823 0.112792 0
M  V30 2228 H 211.957 -1.74137 0.870885 0
M  V30 2229 H 210.128 -3.85059 -0.508353 0
M  V30 2230 H 211.86 -4.03264 -0.340598 0
M  V30 2231 H 208.615 -4.4444 1.63615 0
M  V30 2232 H 209.039 -5.40689 4.07411 0
M  V30 2233 H 213.681 -3.92208 1.579 0
M  V30 2234 H 211.399 -5.81975 5.60652 0
M  V30 2235 H 214.985 -4.59354 3.57051 0
M  V30 2236 H 213.865 -5.53213 5.5581 0
M  V30 2237 N 211.368 -0.403325 -1.52352 0
M  V30 2238 C 212.318 0.442244 -2.2367 0
M  V30 2239 C 213.302 1.01823 -1.24583 0
M  V30 2240 O 214.494 0.942005 -1.49851 0
M  V30 2241 C 211.623 1.5615 -3.05732 0
M  V30 2242 C 210.709 0.996575 -4.12225 0
M  V30 2243 N 211.1 0.157804 -5.05554 0
M  V30 2244 C 209.398 1.26767 -4.27605 0
M  V30 2245 C 210.099 -0.155853 -5.81491 0
M  V30 2246 N 209.075 0.451775 -5.41719 0
M  V30 2247 H 212.877 -0.204964 -2.93184 0
M  V30 2248 H 210.391 -0.213418 -1.60992 0
M  V30 2249 H 212.388 2.17981 -3.55373 0
M  V30 2250 H 211.048 2.21139 -2.37755 0
M  V30 2251 H 212.059 -0.206049 -5.1749 0
M  V30 2252 H 208.736 1.91757 -3.70858 0
M  V30 2253 H 210.126 -0.836329 -6.66675 0
M  V30 2254 N 212.846 1.57033 -0.133567 0
M  V30 2255 C 213.756 2.19632 0.824564 0
M  V30 2256 C 214.772 1.17666 1.28182 0
M  V30 2257 O 215.948 1.50193 1.3418 0
M  V30 2258 C 213.013 2.79499 2.05137 0
M  V30 2259 C 212.074 3.96548 1.64464 0
M  V30 2260 C 211.307 4.5355 2.81297 0
M  V30 2261 O 211.53 4.09438 3.97136 0
M  V30 2262 O 210.464 5.44018 2.57542 0
M  V30 2263 H 214.29 3.01991 0.321766 0
M  V30 2264 H 211.875 1.49112 0.0927889 0
M  V30 2265 H 213.757 3.17602 2.7696 0
M  V30 2266 H 212.432 2.00162 2.54395 0
M  V30 2267 H 211.339 3.63186 0.897048 0
M  V30 2268 H 212.672 4.77364 1.19934 0
M  V30 2269 N 214.325 -0.140222 1.56975 0
M  V30 2270 C 215.255 -1.17456 2.01808 0
M  V30 2271 C 216.236 -1.44415 0.898794 0
M  V30 2272 O 217.421 -1.5522 1.16707 0
M  V30 2273 C 214.551 -2.50607 2.40444 0
M  V30 2274 C 213.505 -2.38155 3.55621 0
M  V30 2275 C 212.831 -3.76078 3.80091 0
M  V30 2276 C 214.131 -1.85991 4.88062 0
M  V30 2277 H 215.825 -0.801743 2.88466 0
M  V30 2278 H 213.371 -0.38422 1.38779 0
M  V30 2279 H 215.324 -3.23197 2.7041 0
M  V30 2280 H 214.048 -2.89737 1.50732 0
M  V30 2281 H 212.707 -1.68016 3.25832 0
M  V30 2282 H 212.355 -4.12656 2.87618 0
M  V30 2283 H 212.055 -3.68606 4.57606 0
M  V30 2284 H 213.579 -4.50206 4.12488 0
M  V30 2285 H 214.993 -2.4838 5.16701 0
M  V30 2286 H 213.39 -1.89393 5.6943 0
M  V30 2287 H 214.46 -0.816023 4.77984 0
M  V30 2288 N 215.803 -1.52179 -0.40978 0
M  V30 2289 C 216.735 -1.71703 -1.51825 0
M  V30 2290 C 217.748 -0.597445 -1.51441 0
M  V30 2291 O 218.937 -0.872582 -1.55719 0
M  V30 2292 C 216.037 -1.74171 -2.90719 0
M  V30 2293 C 215.21 -3.03156 -3.15302 0
M  V30 2294 C 214.269 -2.97445 -4.34065 0
M  V30 2295 O 213.295 -3.71352 -4.31377 0
M  V30 2296 N 214.497 -2.15191 -5.39141 0
M  V30 2297 H 217.262 -2.67334 -1.35472 0
M  V30 2298 H 214.823 -1.50409 -0.599069 0
M  V30 2299 H 216.815 -1.67884 -3.68235 0
M  V30 2300 H 215.385 -0.860166 -3.00533 0
M  V30 2301 H 214.605 -3.23097 -2.25836 0
M  V30 2302 H 215.893 -3.88484 -3.28569 0
M  V30 2303 H 215.291 -1.54573 -5.44173 0
M  V30 2304 H 213.848 -2.1476 -6.15403 0
M  V30 2305 N 217.281 0.66697 -1.42791 0
M  V30 2306 C 218.213 1.7925 -1.42836 0
M  V30 2307 C 219.226 1.59496 -0.326333 0
M  V30 2308 O 220.415 1.6847 -0.589916 0
M  V30 2309 C 217.515 3.16476 -1.21229 0
M  V30 2310 C 216.688 3.63011 -2.44013 0
M  V30 2311 C 215.747 4.78993 -2.17834 0
M  V30 2312 O 214.773 4.89137 -2.91091 0
M  V30 2313 N 215.975 5.68248 -1.18635 0
M  V30 2314 H 218.74 1.79695 -2.39854 0
M  V30 2315 H 216.301 0.850338 -1.37771 0
M  V30 2316 H 218.293 3.91734 -1.01621 0
M  V30 2317 H 216.863 3.10884 -0.32706 0
M  V30 2318 H 216.083 2.78346 -2.79137 0
M  V30 2319 H 217.371 3.90845 -3.25757 0
M  V30 2320 H 216.769 5.62712 -0.580615 0
M  V30 2321 H 215.326 6.43285 -1.05013 0
M  V30 2322 N 218.759 1.29093 0.90403 0
M  V30 2323 C 220.007 1.16583 1.65085 0
M  V30 2324 C 220.328 -0.283933 1.92922 0
M  V30 2325 O 219.598 -1.19509 1.55224 0
M  V30 2326 H 218.178 0.428467 0.611903 0
M  V30 2327 H 220.84 1.61959 1.08422 0
M  V30 2328 H 219.936 1.71266 2.6091 0
M  V30 2329 N 220.237 -1.11381 1.11499 0
M  V30 2330 C 221.147 -2.21019 0.786628 0
M  V30 2331 C 222.163 -1.72597 -0.220507 0
M  V30 2332 O 223.339 -2.01321 -0.0565251 0
M  V30 2333 C 220.404 -3.459 0.235333 0
M  V30 2334 C 219.465 -4.09107 1.30115 0
M  V30 2335 C 218.698 -5.28027 0.776068 0
M  V30 2336 O 218.921 -5.6904 -0.393661 0
M  V30 2337 O 217.855 -5.81835 1.54114 0
M  V30 2338 H 221.681 -2.51521 1.70209 0
M  V30 2339 H 219.266 -1.19928 0.890928 0
M  V30 2340 H 221.148 -4.21346 -0.067715 0
M  V30 2341 H 219.823 -3.17049 -0.652828 0
M  V30 2342 H 218.73 -3.35391 1.65722 0
M  V30 2343 H 220.063 -4.42139 2.16273 0
M  V30 2344 N 221.715 -0.905404 -1.28997 0
M  V30 2345 C 222.665 -0.358713 -2.25161 0
M  V30 2346 C 223.649 0.524449 -1.52113 0
M  V30 2347 O 224.841 0.365534 -1.73184 0
M  V30 2348 C 221.97 0.407609 -3.40872 0
M  V30 2349 C 221.056 -0.490797 -4.21251 0
M  V30 2350 N 221.447 -1.60061 -4.79806 0
M  V30 2351 C 219.745 -0.289636 -4.45059 0
M  V30 2352 C 220.446 -2.15757 -5.40207 0
M  V30 2353 N 219.422 -1.44988 -5.23908 0
M  V30 2354 H 223.224 -1.20642 -2.67998 0
M  V30 2355 H 220.738 -0.757103 -1.43672 0
M  V30 2356 H 222.735 0.816046 -4.08835 0
M  V30 2357 H 221.395 1.25251 -2.9957 0
M  V30 2358 H 222.406 -1.98329 -4.7842 0
M  V30 2359 H 219.083 0.51643 -4.14294 0
M  V30 2360 H 220.473 -3.09069 -5.96595 0
M  V30 2361 N 223.193 1.4272 -0.668489 0
M  V30 2362 C 224.442 2.00846 -0.185389 0
M  V30 2363 C 224.755 1.53442 1.21305 0
M  V30 2364 O 225.961 2.03944 1.79218 0
M  V30 2365 C 224.417 3.58805 -0.280591 0
M  V30 2366 C 224.025 4.15198 -1.68268 0
M  V30 2367 C 225.769 4.24255 0.14412 0
M  V30 2368 C 223.676 5.655 -1.73099 0
M  V30 2369 H 222.606 0.751145 -0.0655475 0
M  V30 2370 H 225.257 1.63516 -0.832752 0
M  V30 2371 H 223.639 3.93608 0.434553 0
M  V30 2372 H 224.813 3.91866 -2.42441 0
M  V30 2373 H 223.128 3.62176 -2.05469 0
M  V30 2374 H 225.725 5.34547 0.128086 0
M  V30 2375 H 226.068 3.99277 1.17827 0
M  V30 2376 H 226.601 3.94389 -0.519798 0
M  V30 2377 H 223.34 5.95268 -2.74475 0
M  V30 2378 H 222.86 5.90842 -1.03274 0
M  V30 2379 H 224.539 6.29808 -1.48158 0
M  V30 2380 N 224.671 0.411399 1.52136 0
M  V30 2381 C 226.087 0.0623865 1.59478 0
M  V30 2382 C 226.287 -1.42554 1.4241 0
M  V30 2383 O 225.343 -2.19263 1.2522 0
M  V30 2384 C 226.656 0.559331 2.95452 0
M  V30 2385 C 228.204 0.517503 3.08692 0
M  V30 2386 C 228.679 0.990994 4.4715 0
M  V30 2387 N 230.17 0.947908 4.53397 0
M  V30 2388 C 230.905 1.28544 5.58806 0
M  V30 2389 N 230.401 1.69454 6.71757 0
M  V30 2390 N 232.194 1.20526 5.49026 0
M  V30 2391 H 224.345 1.37982 1.61477 0
M  V30 2392 H 226.608 0.566977 0.759764 0
M  V30 2393 H 226.314 1.59938 3.1323 0
M  V30 2394 H 226.188 -0.0298014 3.77188 0
M  V30 2395 H 228.575 -0.513505 2.90598 0
M  V30 2396 H 228.656 1.14272 2.28857 0
M  V30 2397 H 228.3 2.02034 4.65988 0
M  V30 2398 H 228.23 0.34257 5.25485 0
M  V30 2399 H 230.721 0.647157 3.72317 0
M  V30 2400 H 231.034 1.93513 7.48179 0
M  V30 2401 H 229.379 1.73359 6.73032 0
M  V30 2402 H 232.57 0.884505 4.59667 0
M  V30 2403 H 232.743 1.47161 6.31069 0
M  V30 2404 N 226.149 -1.5696 0.141893 0
M  V30 2405 C 227.396 -1.9596 -0.510492 0
M  V30 2406 C 227.724 -1.02648 -1.65208 0
M  V30 2407 O 226.979 -0.0546947 -1.95624 0
M  V30 2408 C 227.278 -3.41242 -1.06249 0
M  V30 2409 C 226.944 -4.50882 -0.0398791 0
M  V30 2410 C 225.606 -4.80595 0.241247 0
M  V30 2411 C 227.958 -5.17058 0.65578 0
M  V30 2412 C 225.286 -5.73792 1.22393 0
M  V30 2413 C 227.638 -6.11313 1.62724 0
M  V30 2414 C 226.302 -6.39407 1.91612 0
M  V30 2415 H 225.572 -0.717068 -0.186802 0
M  V30 2416 H 228.219 -1.90142 0.227643 0
M  V30 2417 H 226.524 -3.43866 -1.87785 0
M  V30 2418 H 228.221 -3.68742 -1.57576 0
M  V30 2419 H 224.811 -4.27754 -0.269174 0
M  V30 2420 H 228.995 -4.94239 0.451779 0
M  V30 2421 H 224.251 -5.93853 1.45424 0
M  V30 2422 H 228.425 -6.61668 2.17183 0
M  V30 2423 H 226.052 -7.11427 2.6791 0
M  V30 2424 N 227.627 0.131896 -1.57047 0
M  V30 2425 C 228.874 0.841932 -1.84168 0
M  V30 2426 C 229.202 1.8048 -0.725066 0
M  V30 2427 O 228.457 1.93618 0.284692 0
M  V30 2428 C 228.756 1.63703 -3.17704 0
M  V30 2429 C 228.422 0.81961 -4.43388 0
M  V30 2430 C 227.084 0.594148 -4.77518 0
M  V30 2431 C 229.436 0.248977 -5.20605 0
M  V30 2432 C 226.764 -0.212409 -5.86315 0
M  V30 2433 C 229.116 -0.544701 -6.30251 0
M  V30 2434 C 227.78 -0.780599 -6.6292 0
M  V30 2435 H 227.05 0.308085 -0.673917 0
M  V30 2436 H 229.697 0.104867 -1.91213 0
M  V30 2437 H 228.002 2.44464 -3.06177 0
M  V30 2438 H 229.699 2.19015 -3.35907 0
M  V30 2439 H 226.289 1.00542 -4.16641 0
M  V30 2440 H 230.473 0.410408 -4.946 0
M  V30 2441 H 225.729 -0.404524 -6.1006 0
M  V30 2442 H 229.903 -0.993922 -6.89271 0
M  V30 2443 H 227.53 -1.40742 -7.47058 0
M  V30 2444 N 229.106 1.52395 0.401703 0
M  V30 2445 C 230.331 1.70972 1.17403 0
M  V30 2446 C 230.756 0.421615 1.83314 0
M  V30 2447 O 230.114 -0.621564 1.70312 0
M  V30 2448 C 230.162 2.85151 2.20728 0
M  V30 2449 O 229.266 2.51238 3.27037 0
M  V30 2450 H 228.607 0.568927 0.342372 0
M  V30 2451 H 231.137 1.99131 0.469891 0
M  V30 2452 H 231.147 3.10279 2.64936 0
M  V30 2453 H 229.822 3.78603 1.7214 0
M  V30 2454 H 228.399 2.36808 2.88057 0
M  V30 2455 N 230.584 -0.659388 1.43143 0
M  V30 2456 C 231.861 -1.41627 1.34912 0
M  V30 2457 C 232.241 -2.11099 -0.00607785 0
M  V30 2458 O 231.589 -2.04353 -1.02236 0
M  V30 2459 C 231.799 -2.40604 2.52805 0
M  V30 2460 C 233.147 -3.04789 2.95616 0
M  V30 2461 O 234.171 -2.50932 2.52807 0
M  V30 2462 O 233.03 -4.02421 3.69756 0
M  V30 2463 H 230.124 -0.63246 0.532844 0
M  V30 2464 H 232.67 -0.686814 1.5518 0
M  V30 2465 H 231.442 -1.88174 3.43083 0
M  V30 2466 H 231.065 -3.21009 2.34604 0
M  V30 2467 N 232.062 -1.29571 -0.897171 0
M  V30 2468 C 232.994 -1.10724 -2.00681 0
M  V30 2469 C 234.007 -0.0540026 -1.6271 0
M  V30 2470 O 235.196 -0.298783 -1.75982 0
M  V30 2471 C 232.296 -0.663912 -3.32333 0
M  V30 2472 C 231.469 -1.79622 -3.98816 0
M  V30 2473 C 230.528 -1.34349 -5.0876 0
M  V30 2474 O 229.554 -2.04864 -5.31055 0
M  V30 2475 N 230.756 -0.215764 -5.80099 0
M  V30 2476 H 233.521 -2.06291 -2.17403 0
M  V30 2477 H 231.082 -1.21544 -1.06951 0
M  V30 2478 H 233.074 -0.344295 -4.03233 0
M  V30 2479 H 231.644 0.199375 -3.11964 0
M  V30 2480 H 230.864 -2.28459 -3.21248 0
M  V30 2481 H 232.152 -2.55535 -4.39976 0
M  V30 2482 H 231.55 0.372091 -5.64475 0
M  V30 2483 H 230.107 0.0444707 -6.51785 0
M  V30 2484 N 233.54 1.10788 -1.12088 0
M  V30 2485 C 234.951 1.64181 -0.88891 0
M  V30 2486 C 235.302 1.87508 0.577498 0
M  V30 2487 O 234.427 1.61434 1.44112 0
M  V30 2488 C 235.022 2.98257 -1.60712 0
M  V30 2489 C 233.581 3.4853 -1.42139 0
M  V30 2490 C 232.728 2.23208 -1.6454 0
M  V30 2491 H 235.679 0.943368 -1.27618 0
M  V30 2492 H 235.7 3.65552 -1.05604 0
M  V30 2493 H 235.212 2.81246 -2.67436 0
M  V30 2494 H 233.313 3.70692 -0.376552 0
M  V30 2495 H 233.426 4.26882 -2.17505 0
M  V30 2496 H 231.79 2.31169 -1.06925 0
M  V30 2497 H 232.573 2.08733 -2.72554 0
M  V30 2498 N 235.018 0.912232 1.28515 0
M  V30 2499 C 235.968 0.370649 2.24967 0
M  V30 2500 C 236.952 -0.516375 1.52389 0
M  V30 2501 O 238.144 -0.356345 1.73376 0
M  V30 2502 C 235.273 -0.389526 3.41083 0
M  V30 2503 C 234.359 0.51313 4.20984 0
M  V30 2504 N 234.75 1.62604 4.78951 0
M  V30 2505 C 233.048 0.313235 4.44899 0
M  V30 2506 C 233.749 2.18619 5.39055 0
M  V30 2507 N 232.725 1.47765 5.23132 0
M  V30 2508 H 236.527 1.22061 2.67354 0
M  V30 2509 H 234.041 0.764712 1.43269 0
M  V30 2510 H 236.038 -0.794353 4.09262 0
M  V30 2511 H 234.698 -1.2366 3.0023 0
M  V30 2512 H 235.709 2.00864 4.77362 0
M  V30 2513 H 232.386 -0.494452 4.14562 0
M  V30 2514 H 233.776 3.12228 5.94948 0
M  V30 2515 N 236.496 -1.42363 0.676048 0
M  V30 2516 C 237.744 -2.01123 0.198437 0
M  V30 2517 C 238.065 -1.53731 -1.19966 0
M  V30 2518 O 237.335 -0.759518 -1.80577 0
M  V30 2519 H 235.915 -0.743678 0.0703721 0
M  V30 2520 H 238.577 -1.74263 0.872837 0
M  V30 2521 H 237.673 -3.11454 0.200686 0
M  V30 2522 N 237.974 -0.419461 -1.51915 0
M  V30 2523 C 239.204 0.151915 -2.06041 0
M  V30 2524 C 239.612 1.38539 -1.28855 0
M  V30 2525 O 238.955 1.80592 -0.336463 0
M  V30 2526 C 239.017 0.557119 -3.55157 0
M  V30 2527 C 238.681 -0.567054 -4.53468 0
M  V30 2528 C 239.678 -1.43379 -4.99738 0
M  V30 2529 C 237.363 -0.742693 -4.96779 0
M  V30 2530 C 239.357 -2.46102 -5.87973 0
M  V30 2531 C 237.044 -1.77322 -5.84808 0
M  V30 2532 C 238.042 -2.63078 -6.30301 0
M  V30 2533 O 237.73 -3.64364 -7.16585 0
M  V30 2534 H 237.462 0.0193293 -0.675724 0
M  V30 2535 H 240.016 -0.592073 -1.96682 0
M  V30 2536 H 238.246 1.35355 -3.62238 0
M  V30 2537 H 239.935 1.05759 -3.9188 0
M  V30 2538 H 240.701 -1.30954 -4.66986 0
M  V30 2539 H 236.58 -0.0848307 -4.60922 0
M  V30 2540 H 240.124 -3.13071 -6.23404 0
M  V30 2541 H 236.021 -1.89773 -6.16974 0
M  V30 2542 H 236.789 -3.60731 -7.34721 0
M  V30 2543 N 239.452 1.56882 -0.150215 0
M  V30 2544 C 240.415 2.1573 0.774157 0
M  V30 2545 C 241.415 1.0999 1.17298 0
M  V30 2546 O 242.605 1.35613 1.09338 0
M  V30 2547 C 239.737 2.72302 2.05096 0
M  V30 2548 H 240.93 2.98752 0.262201 0
M  V30 2549 H 238.483 1.55985 0.099248 0
M  V30 2550 H 239.218 1.92956 2.6065 0
M  V30 2551 H 239.003 3.49665 1.77416 0
M  V30 2552 H 240.493 3.17632 2.71109 0
M  V30 2553 N 240.93 -0.123565 1.57115 0
M  V30 2554 C 241.893 -1.13583 1.99076 0
M  V30 2555 C 242.893 -1.34564 0.880296 0
M  V30 2556 O 244.083 -1.31158 1.14644 0
M  V30 2557 C 241.215 -2.49128 2.32698 0
M  V30 2558 H 242.408 -0.775287 2.89706 0
M  V30 2559 H 239.961 -0.36771 1.51913 0
M  V30 2560 H 240.696 -2.90111 1.44934 0
M  V30 2561 H 240.481 -2.35255 3.13684 0
M  V30 2562 H 241.971 -3.2199 2.65918 0
M  V30 2563 N 242.408 -1.52605 -0.393616 0
M  V30 2564 C 243.654 -1.67672 -1.14079 0
M  V30 2565 C 243.987 -0.413121 -1.89755 0
M  V30 2566 O 243.262 0.588952 -1.85369 0
M  V30 2567 C 243.545 -2.9088 -2.12276 0
M  V30 2568 C 243.398 -4.27329 -1.40394 0
M  V30 2569 C 244.717 -3.09628 -3.12759 0
M  V30 2570 H 241.836 -0.610168 -0.413356 0
M  V30 2571 H 244.478 -1.85193 -0.424696 0
M  V30 2572 H 242.628 -2.76073 -2.73342 0
M  V30 2573 H 244.3 -4.53894 -0.82327 0
M  V30 2574 H 242.543 -4.2802 -0.705801 0
M  V30 2575 H 243.214 -5.09615 -2.12123 0
M  V30 2576 H 245.69 -3.23436 -2.61779 0
M  V30 2577 H 244.566 -3.97322 -3.78717 0
M  V30 2578 H 244.827 -2.23637 -3.81365 0
M  V30 2579 N 243.887 0.651787 -1.4349 0
M  V30 2580 C 245.115 1.43937 -1.48626 0
M  V30 2581 C 245.53 1.8851 -0.104587 0
M  V30 2582 O 244.887 1.5958 0.885464 0
M  V30 2583 C 244.938 2.6734 -2.43334 0
M  V30 2584 O 244.659 2.24631 -3.76128 0
M  V30 2585 C 246.16 3.60683 -2.57726 0
M  V30 2586 H 243.38 0.44213 -0.504739 0
M  V30 2587 H 245.924 0.798944 -1.88248 0
M  V30 2588 H 244.079 3.2752 -2.06904 0
M  V30 2589 H 244.493 3.04485 -4.2707 0
M  V30 2590 H 245.967 4.43933 -3.28067 0
M  V30 2591 H 246.444 4.08126 -1.62265 0
M  V30 2592 H 247.05 3.06384 -2.94973 0
M  V30 2593 N 245.365 1.30045 0.890287 0
M  V30 2594 C 246.275 1.17885 2.02831 0
M  V30 2595 C 247.291 0.0999609 1.73713 0
M  V30 2596 O 248.467 0.313867 1.98939 0
M  V30 2597 C 245.532 0.866079 3.35708 0
M  V30 2598 C 244.593 2.02979 3.78283 0
M  V30 2599 C 243.826 1.73184 5.0482 0
M  V30 2600 O 244.049 0.657237 5.66601 0
M  V30 2601 O 242.983 2.58267 5.43674 0
M  V30 2602 H 246.809 2.13474 2.16015 0
M  V30 2603 H 244.394 1.09587 1.01543 0
M  V30 2604 H 246.276 0.706623 4.15433 0
M  V30 2605 H 244.951 -0.0599443 3.23644 0
M  V30 2606 H 243.858 2.24454 2.99285 0
M  V30 2607 H 245.191 2.93734 3.94944 0
M  V30 2608 N 246.843 -1.10192 1.12674 0
M  V30 2609 C 247.79 -2.16606 0.796906 0
M  V30 2610 C 248.76 -1.64394 -0.237476 0
M  V30 2611 O 249.945 -1.90474 -0.111484 0
M  V30 2612 C 247.085 -3.44116 0.26043 0
M  V30 2613 C 246.198 -4.10268 1.35293 0
M  V30 2614 C 245.333 -5.25507 0.775621 0
M  V30 2615 C 244.372 -5.83567 1.84706 0
M  V30 2616 N 243.509 -6.90179 1.28829 0
M  V30 2617 H 248.349 -2.44163 1.70846 0
M  V30 2618 H 245.886 -1.19846 0.85295 0
M  V30 2619 H 247.844 -4.17143 -0.0686814 0
M  V30 2620 H 246.474 -3.16901 -0.614274 0
M  V30 2621 H 245.526 -3.35184 1.79877 0
M  V30 2622 H 246.838 -4.4946 2.16303 0
M  V30 2623 H 245.992 -6.05398 0.397327 0
M  V30 2624 H 244.731 -4.87656 -0.0656581 0
M  V30 2625 H 243.736 -5.02344 2.23452 0
M  V30 2626 H 244.961 -6.23482 2.69161 0
M  V30 2627 H 242.907 -6.54322 0.468881 0
M  V30 2628 H 242.824 -7.28097 2.03497 0
M  V30 2629 H 244.092 -7.73844 0.937311 0
M  V30 2630 N 248.321 -0.919034 -1.28029 0
M  V30 2631 C 249.284 -0.416182 -2.2539 0
M  V30 2632 C 250.284 0.460438 -1.54067 0
M  V30 2633 O 251.474 0.262744 -1.72207 0
M  V30 2634 C 248.606 0.402707 -3.38513 0
M  V30 2635 H 249.799 -1.27629 -2.71387 0
M  V30 2636 H 247.352 -0.698919 -1.39803 0
M  V30 2637 H 248.087 1.282 -2.97885 0
M  V30 2638 H 247.872 -0.225698 -3.9145 0
M  V30 2639 H 249.362 0.745191 -4.10897 0
M  V30 2640 N 249.799 1.42003 -0.683588 0
M  V30 2641 C 251.045 2.01712 -0.209825 0
M  V30 2642 C 251.378 1.53968 1.18353 0
M  V30 2643 O 250.653 0.745661 1.79639 0
M  V30 2644 C 250.936 3.59202 -0.254197 0
M  V30 2645 C 250.789 4.17102 -1.68363 0
M  V30 2646 C 252.108 4.38344 0.392709 0
M  V30 2647 H 249.227 0.732891 -0.0777189 0
M  V30 2648 H 251.869 1.68909 -0.87004 0
M  V30 2649 H 250.019 3.87278 0.307954 0
M  V30 2650 H 251.691 3.99946 -2.29871 0
M  V30 2651 H 249.934 3.72597 -2.22157 0
M  V30 2652 H 250.605 5.26249 -1.6663 0
M  V30 2653 H 253.081 4.16011 -0.0859162 0
M  V30 2654 H 251.957 5.47901 0.331063 0
M  V30 2655 H 252.218 4.16887 1.47164 0
M  V30 2656 N 251.277 0.427512 1.51691 0
M  V30 2657 C 252.524 -0.142229 2.02 0
M  V30 2658 C 252.852 -1.43566 1.31221 0
M  V30 2659 O 252.107 -1.91298 0.412744 0
M  V30 2660 C 252.406 -0.418249 3.54944 0
M  V30 2661 C 252.072 0.788187 4.43958 0
M  V30 2662 C 250.734 1.11906 4.68007 0
M  V30 2663 C 253.086 1.59347 4.96244 0
M  V30 2664 C 250.414 2.25608 5.41588 0
M  V30 2665 C 252.766 2.7214 5.71072 0
M  V30 2666 C 251.43 3.05692 5.93387 0
M  V30 2667 H 250.7 -0.0520451 0.73917 0
M  V30 2668 H 253.347 0.572697 1.82736 0
M  V30 2669 H 251.652 -1.21496 3.72486 0
M  V30 2670 H 253.349 -0.872339 3.91397 0
M  V30 2671 H 249.939 0.520344 4.2543 0
M  V30 2672 H 254.123 1.35106 4.77556 0
M  V30 2673 H 249.379 2.51929 5.57083 0
M  V30 2674 H 253.553 3.34914 6.10578 0
M  V30 2675 H 251.18 3.9391 6.50184 0
M  V30 2676 N 252.755 -1.56801 0.158532 0
M  V30 2677 C 253.687 -2.14488 -0.807923 0
M  V30 2678 C 254.7 -1.09721 -1.20271 0
M  V30 2679 O 255.889 -1.36956 -1.14478 0
M  V30 2680 C 252.989 -2.66217 -2.09718 0
M  V30 2681 C 252.162 -3.95507 -1.86796 0
M  V30 2682 C 251.221 -4.3243 -2.99818 0
M  V30 2683 O 250.247 -5.00543 -2.71008 0
M  V30 2684 N 251.449 -3.92947 -4.27285 0
M  V30 2685 H 254.214 -2.98042 -0.314816 0
M  V30 2686 H 251.775 -1.61881 -0.0246692 0
M  V30 2687 H 253.767 -2.87924 -2.84398 0
M  V30 2688 H 252.337 -1.87324 -2.50257 0
M  V30 2689 H 251.557 -3.82309 -0.96089 0
M  V30 2690 H 252.845 -4.79972 -1.68833 0
M  V30 2691 H 252.243 -3.38087 -4.53557 0
M  V30 2692 H 250.8 -4.19681 -4.9871 0
M  V30 2693 N 254.233 0.115231 -1.57178 0
M  V30 2694 C 255.181 1.16014 -2.01602 0
M  V30 2695 C 256.175 1.42653 -0.913587 0
M  V30 2696 O 257.381 1.42571 -1.09879 0
M  V30 2697 H 253.756 0.391252 -0.642204 0
M  V30 2698 H 255.727 0.758998 -2.88586 0
M  V30 2699 C 254.476 2.47767 -2.4394 0
M  V30 2700 H 253.799 2.28108 -3.28339 0
M  V30 2701 H 255.239 3.19432 -2.78818 0
M  V30 2702 C 253.698 3.10617 -1.30455 0
M  V30 2703 O 254.228 3.96846 -0.622585 0
M  V30 2704 N 252.434 2.70553 -1.06064 0
M  V30 2705 H 251.981 2.00527 -1.61699 0
M  V30 2706 H 251.939 3.12934 -0.303284 0
M  V30 2707 N 255.711 1.52812 0.385517 0
M  V30 2708 C 256.96 1.67249 1.12741 0
M  V30 2709 C 257.273 0.4205 1.91027 0
M  V30 2710 O 258.479 0.445064 2.67827 0
M  V30 2711 C 256.935 2.95583 2.05326 0
M  V30 2712 C 256.543 4.27974 1.32447 0
M  V30 2713 C 258.287 3.19386 2.7963 0
M  V30 2714 C 256.194 5.47412 2.23818 0
M  V30 2715 H 255.124 0.6231 0.424573 0
M  V30 2716 H 257.775 1.79309 0.389924 0
M  V30 2717 H 256.157 2.77277 2.82725 0
M  V30 2718 H 257.331 4.56844 0.602495 0
M  V30 2719 H 255.646 4.10459 0.700885 0
M  V30 2720 H 258.243 4.05801 3.48181 0
M  V30 2721 H 258.586 2.34604 3.43899 0
M  V30 2722 H 259.119 3.38274 2.09322 0
M  V30 2723 H 255.858 6.34612 1.64157 0
M  V30 2724 H 255.378 5.22849 2.93921 0
M  V30 2725 H 257.057 5.81423 2.83824 0
M  V30 2726 N 257.189 -0.644168 1.43834 0
M  V30 2727 C 258.435 -1.40603 1.46146 0
M  V30 2728 C 258.768 -1.93997 0.0887717 0
M  V30 2729 O 258.043 -1.72854 -0.891724 0
M  V30 2730 C 258.326 -2.58086 2.51124 0
M  V30 2731 C 258.179 -2.10126 3.97702 0
M  V30 2732 C 259.498 -3.60291 2.52742 0
M  V30 2733 H 256.617 -0.509905 0.532134 0
M  V30 2734 H 259.259 -0.729502 1.75437 0
M  V30 2735 H 257.409 -3.15801 2.26278 0
M  V30 2736 H 259.081 -1.57342 4.33637 0
M  V30 2737 H 257.324 -1.41419 4.10101 0
M  V30 2738 H 257.995 -2.94649 4.66783 0
M  V30 2739 H 260.471 -3.12352 2.7491 0
M  V30 2740 H 259.347 -4.40032 3.28121 0
M  V30 2741 H 259.608 -4.1349 1.56455 0
M  V30 2742 N 258.668 -1.30515 -0.883378 0
M  V30 2743 C 259.631 -1.1701 -1.97082 0
M  V30 2744 C 260.631 -0.10089 -1.60483 0
M  V30 2745 O 261.821 -0.349127 -1.70666 0
M  V30 2746 C 258.953 -0.793045 -3.31547 0
M  V30 2747 H 260.146 -2.13622 -2.10489 0
M  V30 2748 H 257.699 -1.13935 -1.06998 0
M  V30 2749 H 258.434 0.172499 -3.23841 0
M  V30 2750 H 258.219 -1.56576 -3.5948 0
M  V30 2751 H 259.709 -0.722073 -4.1131 0
M  V30 2752 N 260.146 1.09593 -1.13257 0
M  V30 2753 C 261.376 1.85231 -0.915049 0
M  V30 2754 C 261.784 1.81345 0.539498 0
M  V30 2755 O 261.127 1.20664 1.38513 0
M  V30 2756 C 261.189 3.34275 -1.3229 0
M  V30 2757 C 260.853 3.6191 -2.79052 0
M  V30 2758 C 261.85 3.57777 -3.77216 0
M  V30 2759 C 259.535 3.90309 -3.16171 0
M  V30 2760 C 261.529 3.81652 -5.1051 0
M  V30 2761 C 259.216 4.13839 -4.49644 0
M  V30 2762 C 260.214 4.09502 -5.46623 0
M  V30 2763 O 259.902 4.32426 -6.77689 0
M  V30 2764 H 259.634 0.591997 -0.326367 0
M  V30 2765 H 262.188 1.394 -1.50854 0
M  V30 2766 H 260.418 3.80805 -0.672667 0
M  V30 2767 H 262.107 3.9132 -1.07812 0
M  V30 2768 H 262.873 3.35865 -3.49885 0
M  V30 2769 H 258.752 3.92811 -2.41289 0
M  V30 2770 H 262.296 3.78182 -5.86195 0
M  V30 2771 H 258.193 4.35232 -4.767 0
M  V30 2772 H 258.961 4.49896 -6.83766 0
M  V30 2773 N 261.624 0.925811 1.2754 0
M  V30 2774 C 263.035 0.610102 1.7645 0
M  V30 2775 C 263.386 -0.874723 1.75622 0
M  V30 2776 O 262.511 -1.68444 1.35851 0
M  V30 2777 C 263.106 1.10073 3.20421 0
M  V30 2778 C 261.665 0.835723 3.67005 0
M  V30 2779 C 260.812 1.26054 2.46993 0
M  V30 2780 H 263.763 1.10579 1.13833 0
M  V30 2781 H 263.784 0.447557 3.77859 0
M  V30 2782 H 263.296 2.18143 3.20991 0
M  V30 2783 H 261.397 -0.231249 3.71882 0
M  V30 2784 H 261.51 1.45193 4.56569 0
M  V30 2785 H 259.874 0.679111 2.45479 0
M  V30 2786 H 260.657 2.34984 2.50275 0
M  V30 2787 N 263.102 -1.41638 0.69111 0
M  V30 2788 C 264.518 -1.55435 0.362224 0
M  V30 2789 C 264.718 -1.66754 -1.13117 0
M  V30 2790 O 263.774 -1.64348 -1.91692 0
M  V30 2791 C 265.087 -2.79588 1.10684 0
M  V30 2792 C 266.635 -2.9338 1.09075 0
M  V30 2793 C 267.11 -4.20414 1.81703 0
M  V30 2794 N 268.601 -4.27362 1.7865 0
M  V30 2795 C 269.336 -5.24507 2.31689 0
M  V30 2796 N 268.832 -6.27708 2.93179 0
M  V30 2797 N 270.625 -5.16416 2.2197 0
M  V30 2798 H 262.776 -1.32536 1.65976 0
M  V30 2799 H 265.039 -0.639115 0.700168 0
M  V30 2800 H 264.745 -2.77419 2.16175 0
M  V30 2801 H 264.619 -3.70973 0.682545 0
M  V30 2802 H 267.006 -2.95067 0.0441238 0
M  V30 2803 H 267.087 -2.0318 1.55407 0
M  V30 2804 H 266.731 -4.19488 2.86343 0
M  V30 2805 H 266.661 -5.09578 1.32808 0
M  V30 2806 H 269.152 -3.53415 1.33815 0
M  V30 2807 H 269.465 -6.98217 3.31229 0
M  V30 2808 H 267.81 -6.28223 2.97255 0
M  V30 2809 H 271.001 -4.34716 1.73607 0
M  V30 2810 H 271.174 -5.91958 2.63609 0
M  V30 2811 N 264.58 -0.43555 -1.51462 0
M  V30 2812 C 265.996 -0.0877501 -1.59359 0
M  V30 2813 C 266.196 1.4027 -1.4466 0
M  V30 2814 O 265.252 2.17243 -1.28693 0
M  V30 2815 C 266.565 -0.606264 -2.94525 0
M  V30 2816 C 268.113 -0.566548 -3.0783 0
M  V30 2817 C 268.588 -1.06201 -4.45517 0
M  V30 2818 N 270.079 -1.01992 -4.51832 0
M  V30 2819 C 270.814 -1.37417 -5.5669 0
M  V30 2820 N 270.31 -1.80119 -6.68976 0
M  V30 2821 N 272.103 -1.29245 -5.47039 0
M  V30 2822 H 264.254 -1.40533 -1.59261 0
M  V30 2823 H 266.517 -0.578992 -0.750648 0
M  V30 2824 H 266.223 -1.64901 -3.10645 0
M  V30 2825 H 266.097 -0.0302097 -3.77188 0
M  V30 2826 H 268.484 0.467208 -2.91378 0
M  V30 2827 H 268.565 -1.17898 -2.2701 0
M  V30 2828 H 268.209 -2.09422 -4.62715 0
M  V30 2829 H 268.139 -0.426127 -5.24873 0
M  V30 2830 H 270.63 -0.706308 -3.71241 0
M  V30 2831 H 270.943 -2.05392 -7.45006 0
M  V30 2832 H 269.288 -1.84044 -6.70189 0
M  V30 2833 H 272.479 -0.957522 -4.58202 0
M  V30 2834 H 272.652 -1.57182 -6.28648 0
M  V30 2835 N 266.058 1.56714 -0.166846 0
M  V30 2836 C 267.306 1.96358 0.478305 0
M  V30 2837 C 267.627 1.0537 1.6408 0
M  V30 2838 O 266.897 0.119154 1.95537 0
M  V30 2839 H 265.477 0.725065 0.179692 0
M  V30 2840 H 268.139 1.93329 -0.246985 0
M  V30 2841 H 267.235 3.00547 0.841292 0
M  V30 2842 O 267.575 0.0288451 1.61474 0
M  V30 2843 H 268.266 -0.583771 1.84694 0
M  V30 END ATOM
M  V30 BEGIN BOND
M  V30 END BOND
M  V30 END CTAB
M  END
$$$$
