drugbank_target|Q9KX40 Esterase EstB (DB04491)
 OpenBabel12092120293D

  0  0  0     0  0            999 V3000
M  V30 BEGIN CTAB
M  V30 COUNTS 5855 5924 0 0 0
M  V30 BEGIN ATOM
M  V30 1 H -0.908 1.98254 -0.117106 0
M  V30 2 N 0 1.576 0 0
M  V30 3 C 0.933 2.03868 1.02534 0
M  V30 4 C 1.911 0.928543 1.3348 0
M  V30 5 O 3.095 1.19667 1.45644 0
M  V30 6 C 0.222 2.43627 2.35294 0
M  V30 7 C -0.732 3.65373 2.2001 0
M  V30 8 S 0.101 5.13292 1.52614 0
M  V30 9 C 1.257 5.56322 2.86805 0
M  V30 10 H 1.49 2.90518 0.631377 0
M  V30 11 H -0.977 1.52953 0.210867 0
M  V30 12 H 0.981 2.67203 3.11629 0
M  V30 13 H -0.358 1.57376 2.7183 0
M  V30 14 H -1.165 3.90944 3.18086 0
M  V30 15 H -1.563 3.418 1.51819 0
M  V30 16 H 0.729 5.58782 3.83104 0
M  V30 17 H 1.672 6.56266 2.65933 0
M  V30 18 H 2.08 4.83886 2.90714 0
M  V30 19 N 1.4781 -0.272755 1.55222 0
M  V30 20 C 2.7061 -1.02255 1.79865 0
M  V30 21 C 3.1211 -1.79924 0.572088 0
M  V30 22 O 2.4781 -1.76638 -0.458842 0
M  V30 23 C 2.5291 -1.98094 3.02392 0
M  V30 24 O 2.2501 -1.23572 4.20311 0
M  V30 25 C 3.7511 -2.84884 3.39641 0
M  V30 26 H 0.9711 -0.302057 0.599168 0
M  V30 27 H 3.5151 -0.303465 2.02236 0
M  V30 28 H 1.6701 -2.65465 2.82147 0
M  V30 29 H 2.0841 -1.88172 4.89583 0
M  V30 30 H 3.5581 -3.47927 4.28545 0
M  V30 31 H 4.0351 -3.54665 2.59055 0
M  V30 32 H 4.6411 -2.23003 3.62146 0
M  V30 33 N 2.9562 -1.48159 -0.537278 0
M  V30 34 C 3.9192 -1.61665 -1.62472 0
M  V30 35 C 4.9192 -0.490395 -1.5314 0
M  V30 36 O 6.1092 -0.755998 -1.5694 0
M  V30 37 C 3.2412 -1.57997 -3.02076 0
M  V30 38 H 4.4342 -2.58621 -1.51839 0
M  V30 39 H 1.9872 -1.36647 -0.758771 0
M  V30 40 H 2.7222 -0.624913 -3.18222 0
M  V30 41 H 2.5072 -2.39755 -3.10258 0
M  V30 42 H 3.9972 -1.70627 -3.81151 0
M  V30 43 N 4.4343 0.785586 -1.36625 0
M  V30 44 C 5.3973 1.87999 -1.31107 0
M  V30 45 C 6.3973 1.59316 -0.217959 0
M  V30 46 O 7.5873 1.67656 -0.472977 0
M  V30 47 C 4.7193 3.24861 -1.03334 0
M  V30 48 H 5.9123 1.94307 -2.2844 0
M  V30 49 H 3.4653 0.983813 -1.21453 0
M  V30 50 H 4.2003 3.24235 -0.0647432 0
M  V30 51 H 3.9853 3.4707 -1.82441 0
M  V30 52 H 5.4753 4.04929 -1.02088 0
M  V30 53 N 5.9124 1.20967 1.01018 0
M  V30 54 C 7.1374 1.0503 1.78839 0
M  V30 55 C 7.5624 -0.395752 1.8389 0
M  V30 56 O 6.9204 -1.28529 1.27867 0
M  V30 57 C 6.9684 1.64602 3.2084 0
M  V30 58 O 6.0724 0.887988 4.02726 0
M  V30 59 H 5.4134 0.369987 0.551367 0
M  V30 60 H 7.9434 1.60399 1.27018 0
M  V30 61 H 7.9534 1.68607 3.71532 0
M  V30 62 H 6.6284 2.69841 3.16479 0
M  V30 63 H 5.2054 0.922648 3.61305 0
M  V30 64 N 7.3905 -1.2043 1.01659 0
M  V30 65 C 8.3205 -2.25466 0.607226 0
M  V30 66 C 9.3015 -1.65853 -0.377716 0
M  V30 67 O 10.4865 -1.92409 -0.263149 0
M  V30 68 C 7.6165 -3.47256 -0.0552949 0
M  V30 69 C 6.5705 -4.19462 0.850632 0
M  V30 70 C 5.8965 -5.34673 0.0538859 0
M  V30 71 C 7.1965 -4.75603 2.15868 0
M  V30 72 H 8.8905 -2.59962 1.48526 0
M  V30 73 H 6.4365 -1.2496 0.715605 0
M  V30 74 H 8.3895 -4.19917 -0.353233 0
M  V30 75 H 7.1135 -3.11924 -0.968045 0
M  V30 76 H 5.7725 -3.48667 1.13257 0
M  V30 77 H 5.4205 -4.95585 -0.860514 0
M  V30 78 H 5.1205 -5.83913 0.657192 0
M  V30 79 H 6.6445 -6.10138 -0.237598 0
M  V30 80 H 8.0585 -5.40083 1.92311 0
M  V30 81 H 6.4555 -5.3528 2.71284 0
M  V30 82 H 7.5255 -3.94346 2.82169 0
M  V30 83 N 8.8686 -0.792821 -1.36206 0
M  V30 84 C 10.1456 -0.290627 -1.93429 0
M  V30 85 C 10.5256 1.21773 -1.72437 0
M  V30 86 O 9.8736 2.0108 -1.08531 0
M  V30 87 C 10.0836 -0.686973 -3.42172 0
M  V30 88 C 11.4316 -0.668643 -4.19302 0
M  V30 89 O 12.4556 -0.627658 -3.50626 0
M  V30 90 O 11.3146 -0.714597 -5.41808 0
M  V30 91 H 8.4086 -0.0727927 -0.82379 0
M  V30 92 H 10.9546 -0.875593 -1.45367 0
M  V30 93 H 9.7266 -1.72711 -3.51122 0
M  V30 94 H 9.3496 -0.0760733 -3.97527 0
M  V30 95 N 10.3467 1.47872 -0.545128 0
M  V30 96 C 11.7577 1.86384 -0.108581 0
M  V30 97 C 12.1087 1.45309 1.31832 0
M  V30 98 O 11.2337 0.850641 1.9898 0
M  V30 99 C 11.8287 3.38265 -0.190274 0
M  V30 100 C 10.3877 3.75914 0.191164 0
M  V30 101 C 9.5347 2.71926 -0.543273 0
M  V30 102 H 12.4857 1.39561 -0.755537 0
M  V30 103 H 12.5067 3.75831 0.594217 0
M  V30 104 H 12.0187 3.6813 -1.2289 0
M  V30 105 H 10.1197 3.51665 1.23136 0
M  V30 106 H 10.2327 4.78836 -0.158987 0
M  V30 107 H 8.5967 2.54697 0.0122495 0
M  V30 108 H 9.3797 3.04634 -1.58282 0
M  V30 109 N 11.8248 0.280983 1.55075 0
M  V30 110 C 13.0528 -0.337293 2.04132 0
M  V30 111 C 13.4678 -1.4903 1.15912 0
M  V30 112 O 12.8248 -1.81606 0.180459 0
M  V30 113 C 12.8758 -0.812706 3.52246 0
M  V30 114 O 12.5968 0.294387 4.3711 0
M  V30 115 C 14.0978 -1.4982 4.17216 0
M  V30 116 H 11.3178 -0.0761638 0.666663 0
M  V30 117 H 13.8618 0.414787 2.00249 0
M  V30 118 H 12.0168 -1.51486 3.56554 0
M  V30 119 H 12.4308 -0.0721325 5.2445 0
M  V30 120 H 13.9048 -1.7822 5.22438 0
M  V30 121 H 14.3818 -2.43168 3.65741 0
M  V30 122 H 14.9878 -0.839742 4.16927 0
M  V30 123 N 13.3029 -1.57598 0.00835791 0
M  V30 124 C 14.2659 -2.07884 -0.965242 0
M  V30 125 C 15.2659 -0.989825 -1.26725 0
M  V30 126 O 16.4559 -1.25218 -1.21104 0
M  V30 127 C 13.5879 -2.52731 -2.28779 0
M  V30 128 H 14.7809 -2.95178 -0.530112 0
M  V30 129 H 12.3339 -1.54458 -0.239283 0
M  V30 130 H 13.0689 -1.68705 -2.76964 0
M  V30 131 H 12.8539 -3.32272 -2.08177 0
M  V30 132 H 14.3439 -2.91933 -2.98605 0
M  V30 133 N 14.781 0.264519 -1.55364 0
M  V30 134 C 16.028 0.994986 -1.7637 0
M  V30 135 C 16.356 1.85976 -0.5695 0
M  V30 136 O 15.611 1.90509 0.44776 0
M  V30 137 C 15.91 1.9004 -3.02687 0
M  V30 138 C 15.576 1.19243 -4.34847 0
M  V30 139 C 14.238 0.996709 -4.70764 0
M  V30 140 C 16.59 0.689296 -5.16622 0
M  V30 141 C 13.918 0.285261 -5.86006 0
M  V30 142 C 16.27 -0.00860079 -6.32599 0
M  V30 143 C 14.934 -0.215963 -6.67151 0
M  V30 144 H 14.204 0.364091 -0.645383 0
M  V30 145 H 16.851 0.266543 -1.89636 0
M  V30 146 H 15.156 2.69533 -2.84357 0
M  V30 147 H 16.853 2.46695 -3.16137 0
M  V30 148 H 13.443 1.3549 -4.06621 0
M  V30 149 H 17.627 0.828108 -4.89342 0
M  V30 150 H 12.883 0.113961 -6.11294 0
M  V30 151 H 17.057 -0.406186 -6.95214 0
M  V30 152 H 14.684 -0.769217 -7.56298 0
M  V30 153 N 16.2591 1.48442 0.529413 0
M  V30 154 C 17.4841 1.60406 1.31471 0
M  V30 155 C 17.9091 0.264738 1.86228 0
M  V30 156 O 17.2671 -0.763668 1.64432 0
M  V30 157 C 17.3151 2.65419 2.44101 0
M  V30 158 O 16.4191 2.22618 3.47153 0
M  V30 159 H 15.7601 0.537863 0.389357 0
M  V30 160 H 18.2901 1.94432 0.636965 0
M  V30 161 H 18.3001 2.86709 2.90279 0
M  V30 162 H 16.9751 3.62652 2.03608 0
M  V30 163 H 15.5521 2.11543 3.0709 0
M  V30 164 N 17.7372 -0.778329 1.37039 0
M  V30 165 C 18.6672 -1.90546 1.34962 0
M  V30 166 C 19.6482 -1.68681 0.219274 0
M  V30 167 O 20.8332 -1.89634 0.418624 0
M  V30 168 C 17.9632 -3.27734 1.14925 0
M  V30 169 C 16.9172 -3.64147 2.24902 0
M  V30 170 C 16.2432 -4.99806 1.89996 0
M  V30 171 C 17.5432 -3.71579 3.67051 0
M  V30 172 H 19.2372 -1.92541 2.29277 0
M  V30 173 H 16.7832 -0.924948 1.10366 0
M  V30 174 H 18.7362 -4.06215 1.12104 0
M  V30 175 H 17.4602 -3.26154 0.170631 0
M  V30 176 H 16.1192 -2.8797 2.26868 0
M  V30 177 H 15.7672 -4.94759 0.906796 0
M  V30 178 H 15.4672 -5.25139 2.63634 0
M  V30 179 H 16.9912 -5.80694 1.88749 0
M  V30 180 H 18.4052 -4.40227 3.67251 0
M  V30 181 H 16.8022 -4.08405 4.39688 0
M  V30 182 H 17.8722 -2.72404 4.01154 0
M  V30 183 N 19.2153 -1.21501 -1.00376 0
M  V30 184 C 20.4923 -0.941745 -1.71437 0
M  V30 185 C 20.8723 0.546114 -2.03914 0
M  V30 186 O 20.2203 1.51128 -1.71384 0
M  V30 187 C 20.4303 -1.82812 -2.97289 0
M  V30 188 C 21.7783 -2.07771 -3.70292 0
M  V30 189 O 22.8023 -1.80171 -3.07273 0
M  V30 190 O 21.6613 -2.54456 -4.83647 0
M  V30 191 H 18.7553 -0.353243 -0.747762 0
M  V30 192 H 21.3013 -1.32436 -1.06108 0
M  V30 193 H 20.0733 -2.83501 -2.69709 0
M  V30 194 H 19.6963 -1.4464 -3.70358 0
M  V30 195 N 20.6934 1.19889 -1.02296 0
M  V30 196 C 21.6564 2.21116 -0.603351 0
M  V30 197 C 22.6564 1.5738 0.329884 0
M  V30 198 O 23.8464 1.73802 0.117702 0
M  V30 199 C 20.9784 3.40696 0.117992 0
M  V30 200 H 22.1714 2.59754 -1.49893 0
M  V30 201 H 19.7244 1.33463 -0.813468 0
M  V30 202 H 20.4594 3.07569 1.0282 0
M  V30 203 H 20.2444 3.88188 -0.552511 0
M  V30 204 H 21.7344 4.15692 0.398696 0
M  V30 205 N 22.1715 0.800033 1.35784 0
M  V30 206 C 23.1345 0.211565 2.28221 0
M  V30 207 C 24.1345 -0.59728 1.49296 0
M  V30 208 O 25.3245 -0.416721 1.69142 0
M  V30 209 C 22.4565 -0.705846 3.33513 0
M  V30 210 H 23.6495 1.02677 2.81776 0
M  V30 211 H 21.2025 0.570211 1.45528 0
M  V30 212 H 21.9375 -1.54498 2.85133 0
M  V30 213 H 21.7225 -0.127655 3.91892 0
M  V30 214 H 23.2125 -1.11211 4.02519 0
M  V30 215 N 23.6496 -1.47581 0.552962 0
M  V30 216 C 24.8746 -2.07378 0.0300593 0
M  V30 217 C 25.2996 -1.40355 -1.25229 0
M  V30 218 O 24.6576 -0.477099 -1.7491 0
M  V30 219 C 24.7056 -3.60274 -0.153231 0
M  V30 220 O 23.8096 -3.94041 -1.21678 0
M  V30 221 H 23.1506 -0.662158 0.0494182 0
M  V30 222 H 25.6806 -1.89662 0.767434 0
M  V30 223 H 25.6906 -4.0633 -0.368761 0
M  V30 224 H 24.3656 -4.08455 0.783397 0
M  V30 225 H 22.9426 -3.59735 -0.982079 0
M  V30 226 N 25.1277 -0.289203 -1.54924 0
M  V30 227 C 26.0577 0.58549 -2.2604 0
M  V30 228 C 27.0387 1.14753 -1.25562 0
M  V30 229 O 28.2237 1.17906 -1.54311 0
M  V30 230 C 25.3537 1.76305 -2.99222 0
M  V30 231 C 24.3077 1.33191 -4.06748 0
M  V30 232 C 23.6337 2.5937 -4.6758 0
M  V30 233 C 24.9337 0.471775 -5.20165 0
M  V30 234 H 26.6277 -0.00763532 -2.99399 0
M  V30 235 H 24.1737 -0.00511229 -1.43999 0
M  V30 236 H 26.1267 2.38097 -3.47689 0
M  V30 237 H 24.8507 2.38223 -2.23422 0
M  V30 238 H 23.5097 0.737121 -3.59113 0
M  V30 239 H 23.1577 3.19576 -3.88433 0
M  V30 240 H 22.8577 2.31228 -5.40192 0
M  V30 241 H 24.3817 3.21985 -5.18804 0
M  V30 242 H 25.7957 0.995056 -5.64599 0
M  V30 243 H 24.1927 0.284639 -5.99425 0
M  V30 244 H 25.2627 -0.506041 -4.82252 0
M  V30 245 N 26.6058 1.57591 -0.0167156 0
M  V30 246 C 27.5688 2.08393 0.954204 0
M  V30 247 C 28.5688 0.996531 1.26198 0
M  V30 248 O 29.7588 1.25858 1.20438 0
M  V30 249 C 26.8908 2.5394 2.27436 0
M  V30 250 H 28.0838 2.95455 0.514451 0
M  V30 251 H 25.6368 1.54582 0.231089 0
M  V30 252 H 26.3718 1.70171 2.76066 0
M  V30 253 H 26.1568 3.33371 2.06412 0
M  V30 254 H 27.6468 2.93512 2.97053 0
M  V30 255 N 28.0839 -0.256276 1.55502 0
M  V30 256 C 29.0469 -1.30047 1.88734 0
M  V30 257 C 30.0469 -1.4154 0.763086 0
M  V30 258 O 31.2369 -1.40403 1.03115 0
M  V30 259 C 28.3689 -2.67953 2.10747 0
M  V30 260 H 29.5619 -1.01802 2.82093 0
M  V30 261 H 27.1149 -0.495134 1.4825 0
M  V30 262 H 27.8499 -3.01351 1.19825 0
M  V30 263 H 27.6349 -2.60993 2.92617 0
M  V30 264 H 29.1249 -3.43368 2.37673 0
M  V30 265 N 29.562 -1.4872 -0.521534 0
M  V30 266 C 30.978 -1.35028 -0.850855 0
M  V30 267 C 31.178 -0.367712 -1.98116 0
M  V30 268 O 30.234 0.208037 -2.51642 0
M  V30 269 C 31.547 -2.75263 -1.21041 0
M  V30 270 C 33.095 -2.83813 -1.31981 0
M  V30 271 C 33.57 -4.24769 -1.71276 0
M  V30 272 N 35.061 -4.27482 -1.78363 0
M  V30 273 C 35.796 -5.33494 -2.1017 0
M  V30 274 N 35.292 -6.49775 -2.40343 0
M  V30 275 N 37.085 -5.20894 -2.11248 0
M  V30 276 H 29.236 -2.11214 0.22413 0
M  V30 277 H 31.499 -0.947252 0.0376439 0
M  V30 278 H 31.205 -3.48765 -0.453415 0
M  V30 279 H 31.079 -3.09327 -2.15863 0
M  V30 280 H 33.466 -2.10561 -2.06756 0
M  V30 281 H 33.547 -2.53358 -0.352596 0
M  V30 282 H 33.191 -4.9854 -0.970588 0
M  V30 283 H 33.121 -4.52673 -2.69062 0
M  V30 284 H 35.612 -3.43611 -1.57288 0
M  V30 285 H 35.925 -7.26402 -2.63743 0
M  V30 286 H 34.27 -6.53035 -2.37844 0
M  V30 287 H 37.461 -4.29065 -1.87139 0
M  V30 288 H 37.634 -6.03612 -2.35704 0
M  V30 289 N 31.0401 0.771051 -1.3745 0
M  V30 290 C 31.9701 1.89827 -1.3597 0
M  V30 291 C 32.9511 1.68562 -0.228216 0
M  V30 292 O 34.1361 1.8941 -0.428675 0
M  V30 293 C 31.2661 3.2712 -1.16662 0
M  V30 294 C 30.2201 3.6295 -2.2683 0
M  V30 295 C 29.5461 4.98791 -1.92644 0
M  V30 296 C 30.8461 3.69627 -3.69017 0
M  V30 297 H 32.5401 1.91323 -2.30295 0
M  V30 298 H 30.0861 0.919082 -1.10855 0
M  V30 299 H 32.0391 4.05615 -1.14256 0
M  V30 300 H 30.7631 3.26059 -0.187926 0
M  V30 301 H 29.4221 2.86763 -2.28392 0
M  V30 302 H 29.0701 4.94271 -0.933021 0
M  V30 303 H 28.7701 5.23733 -2.66416 0
M  V30 304 H 30.2941 5.79685 -1.91826 0
M  V30 305 H 31.7081 4.38273 -3.69581 0
M  V30 306 H 30.1051 4.06067 -4.41848 0
M  V30 307 H 31.1751 2.70273 -4.02592 0
M  V30 308 N 32.5182 1.22032 0.997298 0
M  V30 309 C 33.7952 0.950823 1.70935 0
M  V30 310 C 34.1752 -0.535292 2.042 0
M  V30 311 O 33.5232 -1.50217 1.72183 0
M  V30 312 C 33.7332 1.84386 2.96315 0
M  V30 313 C 35.0812 2.09732 3.69185 0
M  V30 314 O 36.1052 1.81798 3.06314 0
M  V30 315 O 34.9642 2.57018 4.82291 0
M  V30 316 H 32.0582 0.357204 0.745878 0
M  V30 317 H 34.6042 1.32997 1.05404 0
M  V30 318 H 33.3762 2.84928 2.68201 0
M  V30 319 H 32.9992 1.46602 3.69586 0
M  V30 320 N 33.9963 -1.19345 1.0293 0
M  V30 321 C 34.9593 -2.20793 0.615069 0
M  V30 322 C 35.9593 -1.57553 -0.321533 0
M  V30 323 O 37.1493 -1.73862 -0.108483 0
M  V30 324 C 34.2813 -3.40754 -0.0999222 0
M  V30 325 H 35.4743 -2.58955 1.51269 0
M  V30 326 H 33.0273 -1.3303 0.820534 0
M  V30 327 H 33.7623 -3.0811 -1.01187 0
M  V30 328 H 33.5473 -3.87889 0.57309 0
M  V30 329 H 35.0373 -4.15898 -0.376645 0
M  V30 330 N 35.4744 -0.807222 -1.35358 0
M  V30 331 C 36.7204 -0.388463 -1.99045 0
M  V30 332 C 37.0534 1.04184 -1.63888 0
M  V30 333 O 36.3284 1.72292 -0.902535 0
M  V30 334 C 36.6114 -0.572783 -3.55515 0
M  V30 335 C 36.4644 -2.04807 -4.00468 0
M  V30 336 C 37.7834 0.00114064 -4.401 0
M  V30 337 H 34.9024 -0.142619 -0.723069 0
M  V30 338 H 37.5444 -1.01687 -1.60498 0
M  V30 339 H 35.6944 -0.0378425 -3.88482 0
M  V30 340 H 37.3664 -2.64544 -3.77908 0
M  V30 341 H 35.6094 -2.54427 -3.51353 0
M  V30 342 H 36.2804 -2.12792 -5.09337 0
M  V30 343 H 38.7564 -0.455716 -4.13597 0
M  V30 344 H 37.6324 -0.157737 -5.48673 0
M  V30 345 H 37.8934 1.09488 -4.28328 0
M  V30 346 N 36.9525 1.47285 -0.560781 0
M  V30 347 C 38.1995 2.02464 -0.038062 0
M  V30 348 C 38.5275 1.43474 1.31322 0
M  V30 349 O 37.7825 0.581311 1.86867 0
M  V30 350 C 38.0815 3.57258 0.100784 0
M  V30 351 C 37.7475 4.35184 -1.18007 0
M  V30 352 C 36.4095 4.56194 -1.53103 0
M  V30 353 C 38.7615 4.80098 -2.02867 0
M  V30 354 C 36.0895 5.19367 -2.729 0
M  V30 355 C 38.4415 5.44593 -3.21871 0
M  V30 356 C 37.1055 5.63835 -3.57276 0
M  V30 357 H 36.3755 0.740869 -0.0139279 0
M  V30 358 H 39.0225 1.76916 -0.733012 0
M  V30 359 H 37.3275 3.81819 0.878724 0
M  V30 360 H 39.0245 3.97606 0.520639 0
M  V30 361 H 35.6145 4.19113 -0.8968 0
M  V30 362 H 39.7985 4.63642 -1.7706 0
M  V30 363 H 35.0545 5.32459 -3.00496 0
M  V30 364 H 39.2285 5.78358 -3.87911 0
M  V30 365 H 36.8555 6.12557 -4.50197 0
M  V30 366 N 38.4306 0.297415 1.54768 0
M  V30 367 C 39.7076 -0.365847 1.92148 0
M  V30 368 C 40.0876 -1.71975 1.22424 0
M  V30 369 O 39.4356 -2.25666 0.358739 0
M  V30 370 C 39.6456 -0.484056 3.45627 0
M  V30 371 C 40.9936 -0.756594 4.17805 0
M  V30 372 O 42.0176 -0.568007 3.51642 0
M  V30 373 O 40.8766 -1.11863 5.34929 0
M  V30 374 H 37.9706 -0.203919 0.801465 0
M  V30 375 H 40.5166 0.34521 1.66152 0
M  V30 376 H 39.2886 0.467865 3.88493 0
M  V30 377 H 38.9116 -1.24372 3.77647 0
M  V30 378 N 39.9087 -1.5758 0.0250728 0
M  V30 379 C 40.8407 -2.06869 -0.986796 0
M  V30 380 C 41.8537 -0.991332 -1.29137 0
M  V30 381 O 43.0427 -1.26761 -1.25674 0
M  V30 382 C 40.1427 -2.47486 -2.31525 0
M  V30 383 C 39.3157 -3.78253 -2.19643 0
M  V30 384 C 38.3747 -4.05464 -3.35388 0
M  V30 385 O 37.4007 -4.75774 -3.12454 0
M  V30 386 N 38.6027 -3.55321 -4.59051 0
M  V30 387 H 41.3677 -2.94302 -0.566276 0
M  V30 388 H 38.9287 -1.6109 -0.161776 0
M  V30 389 H 40.9207 -2.62785 -3.07776 0
M  V30 390 H 39.4907 -1.65441 -2.65232 0
M  V30 391 H 38.7107 -3.7279 -1.28144 0
M  V30 392 H 39.9987 -4.63936 -2.08903 0
M  V30 393 H 39.3967 -2.98431 -4.80578 0
M  V30 394 H 37.9537 -3.75905 -5.32483 0
M  V30 395 N 41.3868 0.248026 -1.55636 0
M  V30 396 C 42.3498 1.29044 -1.89421 0
M  V30 397 C 43.3498 1.41134 -0.770581 0
M  V30 398 O 44.5398 1.39854 -1.03858 0
M  V30 399 C 41.6718 2.66831 -2.12165 0
M  V30 400 H 42.8648 1.00305 -2.82629 0
M  V30 401 H 40.4178 0.487265 -1.48511 0
M  V30 402 H 41.1528 3.00711 -1.21422 0
M  V30 403 H 40.9378 2.59438 -2.93997 0
M  V30 404 H 42.4278 3.42103 -2.3949 0
M  V30 405 N 42.8649 1.48995 0.513639 0
M  V30 406 C 43.7949 1.67636 1.62544 0
M  V30 407 C 44.7759 0.525087 1.61793 0
M  V30 408 O 45.9609 0.759502 1.78732 0
M  V30 409 C 43.0909 1.73114 3.01079 0
M  V30 410 C 42.0449 2.87905 3.16693 0
M  V30 411 C 41.3709 2.78486 4.56453 0
M  V30 412 C 42.6709 4.29005 2.97913 0
M  V30 413 H 44.3649 2.60716 1.47198 0
M  V30 414 H 41.9109 1.25465 0.706714 0
M  V30 415 H 43.8639 1.84742 3.78746 0
M  V30 416 H 42.5879 0.766241 3.17484 0
M  V30 417 H 41.2469 2.75859 2.41448 0
M  V30 418 H 40.8949 1.7993 4.69717 0
M  V30 419 H 40.5949 3.55523 4.67843 0
M  V30 420 H 42.1189 2.92104 5.36197 0
M  V30 421 H 43.5329 4.41798 3.65359 0
M  V30 422 H 41.9299 5.07166 3.20785 0
M  V30 423 H 42.9999 4.44329 1.94165 0
M  V30 424 N 44.343 -0.763751 1.37857 0
M  V30 425 C 45.759 -1.06542 1.18832 0
M  V30 426 C 45.959 -2.01478 0.0299722 0
M  V30 427 O 45.015 -2.4458 -0.627447 0
M  V30 428 C 46.328 -1.65525 2.51042 0
M  V30 429 C 47.876 -1.77745 2.57635 0
M  V30 430 C 48.351 -2.4014 3.89996 0
M  V30 431 N 49.842 -2.47582 3.91481 0
M  V30 432 C 50.577 -2.96732 4.9065 0
M  V30 433 N 50.073 -3.45993 6.00217 0
M  V30 434 N 51.866 -2.95679 4.78048 0
M  V30 435 H 44.017 -0.133556 2.1198 0
M  V30 436 H 46.28 -0.121879 0.940133 0
M  V30 437 H 45.986 -1.03236 3.36207 0
M  V30 438 H 45.86 -2.64719 2.68707 0
M  V30 439 H 48.247 -2.39164 1.72872 0
M  V30 440 H 48.328 -0.772836 2.43846 0
M  V30 441 H 47.972 -1.79358 4.75177 0
M  V30 442 H 47.902 -3.41223 4.01092 0
M  V30 443 H 50.393 -2.1273 3.12337 0
M  V30 444 H 50.706 -3.81922 6.7183 0
M  V30 445 H 49.051 -3.44077 6.03851 0
M  V30 446 H 52.242 -2.56499 3.91568 0
M  V30 447 H 52.415 -3.33672 5.55488 0
M  V30 448 N 45.8211 -1.22559 -0.990812 0
M  V30 449 C 46.7311 -1.01394 -2.11557 0
M  V30 450 C 47.7471 0.0383962 -1.73958 0
M  V30 451 O 48.9231 -0.154787 -2.00804 0
M  V30 452 C 45.9881 -0.596569 -3.41529 0
M  V30 453 C 45.0491 -1.72276 -3.93217 0
M  V30 454 C 44.2821 -1.32521 -5.16985 0
M  V30 455 O 44.5051 -0.204909 -5.70032 0
M  V30 456 O 43.4391 -2.14247 -5.62478 0
M  V30 457 H 47.2651 -1.95633 -2.32296 0
M  V30 458 H 44.8501 -1.01172 -1.0993 0
M  V30 459 H 46.7321 -0.374263 -4.19735 0
M  V30 460 H 45.4071 0.316939 -3.22145 0
M  V30 461 H 44.3141 -1.99961 -3.16174 0
M  V30 462 H 45.6471 -2.61421 -4.17037 0
M  V30 463 N 47.2992 1.18797 -1.03562 0
M  V30 464 C 48.7152 1.40671 -0.753917 0
M  V30 465 C 48.9152 1.9043 0.658686 0
M  V30 466 O 47.9712 2.08538 1.42366 0
M  V30 467 C 49.2842 2.41192 -1.79574 0
M  V30 468 C 50.8322 2.54928 -1.81606 0
M  V30 469 C 51.3072 3.58709 -2.84766 0
M  V30 470 N 52.7982 3.66212 -2.83625 0
M  V30 471 C 53.5332 4.46225 -3.60098 0
M  V30 472 N 53.0292 5.29888 -4.46308 0
M  V30 473 N 54.8222 4.40939 -3.4861 0
M  V30 474 H 46.9732 0.848221 -1.94728 0
M  V30 475 H 49.2362 0.435081 -0.842264 0
M  V30 476 H 48.9422 2.11669 -2.80872 0
M  V30 477 H 48.8162 3.40467 -1.62365 0
M  V30 478 H 51.2032 2.83771 -0.809817 0
M  V30 479 H 51.2842 1.55784 -2.02891 0
M  V30 480 H 50.9282 3.30607 -3.85566 0
M  V30 481 H 50.8582 4.57519 -2.60737 0
M  V30 482 H 53.3492 3.06466 -2.21105 0
M  V30 483 H 53.6622 5.88078 -5.01382 0
M  V30 484 H 52.0072 5.29326 -4.50377 0
M  V30 485 H 55.1982 3.74624 -2.80668 0
M  V30 486 H 55.3712 5.03056 -4.08459 0
M  V30 487 N 48.7773 0.814389 1.34928 0
M  V30 488 C 50.1933 0.499084 1.51596 0
M  V30 489 C 50.3933 -0.978319 1.76157 0
M  V30 490 O 49.4493 -1.76309 1.80752 0
M  V30 491 C 50.7623 1.35121 2.68631 0
M  V30 492 C 52.3103 1.34746 2.82511 0
M  V30 493 C 52.7853 2.18388 4.0258 0
M  V30 494 N 54.2763 2.15966 4.09772 0
M  V30 495 C 55.0113 2.77437 5.01813 0
M  V30 496 N 54.5073 3.47866 5.99134 0
M  V30 497 N 56.3003 2.67037 4.94619 0
M  V30 498 H 48.4513 1.7711 1.17243 0
M  V30 499 H 50.7143 0.754256 0.574284 0
M  V30 500 H 50.4203 2.40001 2.57085 0
M  V30 501 H 50.2943 1.00991 3.63429 0
M  V30 502 H 52.6813 0.30648 2.93504 0
M  V30 503 H 52.7623 1.72869 1.88547 0
M  V30 504 H 52.4063 3.2253 3.92347 0
M  V30 505 H 52.3363 1.77621 4.9574 0
M  V30 506 H 54.8273 1.64729 3.40107 0
M  V30 507 H 55.1403 3.92038 6.65977 0
M  V30 508 H 53.4853 3.51972 5.99284 0
M  V30 509 H 56.6763 2.11597 4.17546 0
M  V30 510 H 56.8493 3.15232 5.66156 0
M  V30 511 N 50.2554 -1.46986 0.568584 0
M  V30 512 C 51.1854 -2.32946 -0.160753 0
M  V30 513 C 52.1664 -1.44487 -0.897631 0
M  V30 514 O 53.3514 -1.73327 -0.875867 0
M  V30 515 C 50.4814 -3.26494 -1.18403 0
M  V30 516 C 49.4354 -4.24282 -0.562895 0
M  V30 517 C 48.7614 -5.07236 -1.69163 0
M  V30 518 C 50.0614 -5.19989 0.490761 0
M  V30 519 H 51.7554 -2.94175 0.556916 0
M  V30 520 H 49.3014 -1.4146 0.26927 0
M  V30 521 H 51.2544 -3.85477 -1.70251 0
M  V30 522 H 49.9784 -2.63343 -1.93179 0
M  V30 523 H 48.6374 -3.66541 -0.0656164 0
M  V30 524 H 48.2854 -4.4048 -2.42871 0
M  V30 525 H 47.9854 -5.7345 -1.28174 0
M  V30 526 H 49.5094 -5.6908 -2.21314 0
M  V30 527 H 50.9234 -5.73271 0.0579047 0
M  V30 528 H 49.3204 -5.94469 0.820165 0
M  V30 529 H 50.3904 -4.64777 1.3824 0
M  V30 530 N 51.7335 -0.305618 -1.54608 0
M  V30 531 C 52.9795 0.302746 -2.00528 0
M  V30 532 C 53.3125 1.53184 -1.19367 0
M  V30 533 O 52.5875 1.92598 -0.271321 0
M  V30 534 C 52.8705 0.654756 -3.54097 0
M  V30 535 C 52.7235 -0.583793 -4.45995 0
M  V30 536 C 54.0425 1.47947 -4.14487 0
M  V30 537 H 51.1615 0.108564 -0.72896 0
M  V30 538 H 53.8035 -0.418634 -1.85331 0
M  V30 539 H 51.9535 1.26935 -3.67178 0
M  V30 540 H 53.6255 -1.22224 -4.44814 0
M  V30 541 H 51.8685 -1.21615 -4.16404 0
M  V30 542 H 52.5395 -0.293287 -5.5122 0
M  V30 543 H 55.0155 0.96013 -4.04871 0
M  V30 544 H 53.8915 1.69454 -5.22088 0
M  V30 545 H 54.1525 2.47011 -3.66658 0
M  V30 546 N 53.2116 1.57565 -0.0334293 0
M  V30 547 C 54.4596 1.91598 0.642999 0
M  V30 548 C 54.7806 0.910847 1.7242 0
M  V30 549 O 54.0506 -0.0469931 1.95844 0
M  V30 550 H 52.6306 0.707228 0.240496 0
M  V30 551 H 55.2926 1.94726 -0.0822488 0
M  V30 552 H 54.3886 2.92336 1.09298 0
M  V30 553 N 54.6897 -0.239769 1.55765 0
M  V30 554 C 55.6527 -1.28038 1.90103 0
M  V30 555 C 56.6527 -1.40723 0.778055 0
M  V30 556 O 57.8427 -1.39301 1.04599 0
M  V30 557 C 54.9747 -2.65702 2.13577 0
M  V30 558 H 56.1677 -0.988048 2.83157 0
M  V30 559 H 53.7207 -0.479382 1.48767 0
M  V30 560 H 54.4557 -3.00063 1.23015 0
M  V30 561 H 54.2407 -2.57875 2.95369 0
M  V30 562 H 55.7307 -3.40828 2.41301 0
M  V30 563 N 56.1678 -1.49265 -0.50573 0
M  V30 564 C 57.4138 -1.58748 -1.26202 0
M  V30 565 C 57.7468 -0.271227 -1.92297 0
M  V30 566 O 57.0218 0.724831 -1.80489 0
M  V30 567 C 57.3048 -2.74332 -2.33268 0
M  V30 568 C 57.1578 -4.15737 -1.71705 0
M  V30 569 C 58.4768 -2.85576 -3.34865 0
M  V30 570 H 55.5958 -0.577826 -0.457478 0
M  V30 571 H 58.2378 -1.81532 -0.560897 0
M  V30 572 H 56.3878 -2.55036 -2.93068 0
M  V30 573 H 58.0598 -4.46537 -1.15769 0
M  V30 574 H 56.3028 -4.21605 -1.02135 0
M  V30 575 H 56.9738 -4.92477 -2.49341 0
M  V30 576 H 59.4498 -3.03127 -2.8505 0
M  V30 577 H 58.3258 -3.68135 -4.07146 0
M  V30 578 H 58.5868 -1.94732 -3.96903 0
M  V30 579 N 57.6459 0.756429 -1.3826 0
M  V30 580 C 58.6089 1.85176 -1.35065 0
M  V30 581 C 59.6089 1.58818 -0.251703 0
M  V30 582 O 60.7989 1.66615 -0.508433 0
M  V30 583 C 57.9309 3.22596 -1.10201 0
M  V30 584 H 59.1239 1.89417 -2.3251 0
M  V30 585 H 56.6769 0.95783 -1.23512 0
M  V30 586 H 57.4119 3.24025 -0.133504 0
M  V30 587 H 57.1969 3.43122 -1.89762 0
M  V30 588 H 58.6869 4.02673 -1.10654 0
M  V30 589 N 59.124 1.23083 0.984299 0
M  V30 590 C 60.373 1.05466 1.71929 0
M  V30 591 C 60.686 -0.409211 1.91272 0
M  V30 592 O 61.892 -0.705226 2.62181 0
M  V30 593 C 60.348 1.83874 3.09384 0
M  V30 594 C 59.956 3.34566 2.97943 0
M  V30 595 C 61.7 1.74734 3.8687 0
M  V30 596 C 59.607 4.05381 4.30605 0
M  V30 597 H 58.537 0.391039 0.644674 0
M  V30 598 H 61.188 1.47013 1.09815 0
M  V30 599 H 59.57 1.35131 3.72231 0
M  V30 600 H 60.744 3.90767 2.44209 0
M  V30 601 H 59.059 3.44476 2.33934 0
M  V30 602 H 61.656 2.24957 4.85076 0
M  V30 603 H 61.999 0.709372 4.10212 0
M  V30 604 H 62.532 2.21067 3.30717 0
M  V30 605 H 59.271 5.09467 4.1246 0
M  V30 606 H 58.791 3.53967 4.84218 0
M  V30 607 H 60.47 4.11458 4.99311 0
M  V30 608 N 60.6021 -1.18246 1.0419 0
M  V30 609 C 61.8481 -1.88536 0.747122 0
M  V30 610 C 62.1811 -1.80223 -0.723409 0
M  V30 611 O 61.4561 -1.20337 -1.52804 0
M  V30 612 C 61.7391 -3.38968 1.21544 0
M  V30 613 C 61.5921 -3.56084 2.74816 0
M  V30 614 C 62.9111 -4.32648 0.806482 0
M  V30 615 H 60.0301 -0.684619 0.272883 0
M  V30 616 H 62.6721 -1.39113 1.29413 0
M  V30 617 H 60.8221 -3.8119 0.750081 0
M  V30 618 H 62.4941 -3.22946 3.29399 0
M  V30 619 H 60.7371 -2.98699 3.14582 0
M  V30 620 H 61.4081 -4.61639 3.02644 0
M  V30 621 H 63.8841 -3.98211 1.20695 0
M  V30 622 H 62.7601 -5.36462 1.1619 0
M  V30 623 H 63.0211 -4.41146 -0.29029 0
M  V30 624 N 62.0802 -0.821533 -1.34494 0
M  V30 625 C 63.0432 -0.247847 -2.27856 0
M  V30 626 C 64.0432 0.573453 -1.50227 0
M  V30 627 O 65.2332 0.389759 -1.69784 0
M  V30 628 C 62.3652 0.652698 -3.34593 0
M  V30 629 H 63.5582 -1.07146 -2.80107 0
M  V30 630 H 61.1112 -0.593291 -1.44602 0
M  V30 631 H 61.8462 1.49943 -2.87555 0
M  V30 632 H 61.6312 0.065292 -3.92046 0
M  V30 633 H 63.1212 1.04793 -4.04238 0
M  V30 634 N 63.5583 1.46682 -0.576371 0
M  V30 635 C 64.9743 1.57822 -0.237562 0
M  V30 636 C 65.1743 1.57237 1.26011 0
M  V30 637 O 64.2303 1.48596 2.04146 0
M  V30 638 C 65.5433 2.87499 -0.881168 0
M  V30 639 C 67.0913 3.01119 -0.85417 0
M  V30 640 C 67.5663 4.33524 -1.4772 0
M  V30 641 N 69.0573 4.40207 -1.44125 0
M  V30 642 C 69.7923 5.4126 -1.89276 0
M  V30 643 N 69.2883 6.49021 -2.42371 0
M  V30 644 N 71.0813 5.32422 -1.80231 0
M  V30 645 H 63.2323 1.45306 -1.54919 0
M  V30 646 H 65.4953 0.692733 -0.647167 0
M  V30 647 H 65.2013 2.9372 -1.93447 0
M  V30 648 H 65.0753 3.75224 -0.385592 0
M  V30 649 H 67.4623 2.94485 0.190491 0
M  V30 650 H 67.5433 2.14887 -1.3877 0
M  V30 651 H 67.1873 4.40916 -2.52103 0
M  V30 652 H 67.1173 5.1852 -0.918947 0
M  V30 653 H 69.6083 3.62931 -1.05307 0
M  V30 654 H 69.9213 7.2233 -2.74698 0
M  V30 655 H 68.2663 6.49858 -2.46393 0
M  V30 656 H 71.4573 4.47137 -1.38514 0
M  V30 657 H 71.6303 6.11034 -2.15735 0
M  V30 658 N 65.0364 0.313813 1.54444 0
M  V30 659 C 65.9864 -0.571898 2.20711 0
M  V30 660 C 66.9704 -1.08913 1.18435 0
M  V30 661 O 68.1624 -1.02777 1.44104 0
M  V30 662 C 65.2914 -1.7371 2.96108 0
M  V30 663 C 64.3774 -1.23522 4.05713 0
M  V30 664 N 64.7684 -0.452288 5.03774 0
M  V30 665 C 63.0664 -1.51482 4.19487 0
M  V30 666 C 63.7674 -0.183438 5.81411 0
M  V30 667 N 62.7434 -0.766845 5.38164 0
M  V30 668 H 66.5454 0.0336802 2.93881 0
M  V30 669 H 64.0594 0.119192 1.61962 0
M  V30 670 H 66.0564 -2.38329 3.4206 0
M  V30 671 H 64.7164 -2.34625 2.24458 0
M  V30 672 H 65.7274 -0.0960131 5.17811 0
M  V30 673 H 62.4044 -2.13053 3.59047 0
M  V30 674 H 63.7944 0.446216 6.70417 0
M  V30 675 N 66.5145 -1.57545 0.0417849 0
M  V30 676 C 67.7625 -1.91937 -0.632829 0
M  V30 677 C 68.0835 -0.919978 -1.71934 0
M  V30 678 O 67.3535 0.0366064 -1.95866 0
M  V30 679 H 65.9335 -0.708493 -0.236742 0
M  V30 680 H 68.5955 -1.9468 0.0925745 0
M  V30 681 H 67.6915 -2.92912 -1.07746 0
M  V30 682 N 67.9926 0.231505 -1.5589 0
M  V30 683 C 68.9026 1.308 -1.94752 0
M  V30 684 C 69.9186 1.51826 -0.849989 0
M  V30 685 O 71.0946 1.6515 -1.15271 0
M  V30 686 C 68.1596 2.63968 -2.24771 0
M  V30 687 C 67.2206 2.51331 -3.48039 0
M  V30 688 C 66.4536 3.78148 -3.76616 0
M  V30 689 O 66.6766 4.80722 -3.07022 0
M  V30 690 O 65.6106 3.75857 -4.70123 0
M  V30 691 H 69.4366 1.0083 -2.86474 0
M  V30 692 H 67.0216 0.433547 -1.42971 0
M  V30 693 H 68.9036 3.42633 -2.45318 0
M  V30 694 H 67.5786 2.9364 -1.36225 0
M  V30 695 H 66.4856 1.709 -3.32782 0
M  V30 696 H 67.8186 2.26601 -4.36936 0
M  V30 697 N 69.4707 1.49531 0.497807 0
M  V30 698 C 70.7197 1.58426 1.24837 0
M  V30 699 C 71.0327 0.277643 1.93619 0
M  V30 700 O 72.2387 0.24517 2.70391 0
M  V30 701 C 70.6947 2.79538 2.26686 0
M  V30 702 C 70.3027 4.16971 1.63828 0
M  V30 703 C 72.0467 2.97764 3.0255 0
M  V30 704 C 69.9537 5.29301 2.63807 0
M  V30 705 H 68.8837 0.58989 0.469623 0
M  V30 706 H 71.5347 1.75923 0.521857 0
M  V30 707 H 69.9167 2.55542 3.02514 0
M  V30 708 H 71.0907 4.51116 0.939711 0
M  V30 709 H 69.4057 4.04129 1.00342 0
M  V30 710 H 72.0027 3.78856 3.77323 0
M  V30 711 H 72.3457 2.08448 3.60354 0
M  V30 712 H 72.8787 3.21815 2.33838 0
M  V30 713 H 69.6177 6.20687 2.10779 0
M  V30 714 H 69.1377 4.99606 3.31894 0
M  V30 715 H 70.8167 5.58768 3.2617 0
M  V30 716 N 70.9488 -0.749086 1.3866 0
M  V30 717 C 71.8788 -1.8764 1.38973 0
M  V30 718 C 72.8598 -1.68178 0.255004 0
M  V30 719 O 74.0448 -1.88704 0.458754 0
M  V30 720 C 71.1748 -3.25222 1.21851 0
M  V30 721 C 70.1288 -3.59295 2.32575 0
M  V30 722 C 69.4548 -4.95663 2.00555 0
M  V30 723 C 70.7548 -3.63709 3.7485 0
M  V30 724 H 72.4488 -1.87635 2.3331 0
M  V30 725 H 69.9948 -0.901329 1.12303 0
M  V30 726 H 71.9478 -4.03746 1.20695 0
M  V30 727 H 70.6718 -3.25719 0.239775 0
M  V30 728 H 69.3308 -2.83093 2.32925 0
M  V30 729 H 68.9788 -4.92724 1.01154 0
M  V30 730 H 68.6788 -5.19429 2.74714 0
M  V30 731 H 70.2028 -5.7656 2.01024 0
M  V30 732 H 71.6168 -4.32338 3.76506 0
M  V30 733 H 70.0138 -3.98986 4.48252 0
M  V30 734 H 71.0838 -2.63834 4.06841 0
M  V30 735 N 72.4269 -1.23603 -0.977757 0
M  V30 736 C 73.6569 -1.09487 -1.75203 0
M  V30 737 C 74.0649 0.356321 -1.85814 0
M  V30 738 O 73.4079 1.25816 -1.33851 0
M  V30 739 C 73.4699 -1.64905 -3.19447 0
M  V30 740 C 73.1339 -3.13688 -3.32338 0
M  V30 741 C 74.1309 -4.10953 -3.18455 0
M  V30 742 C 71.8159 -3.53449 -3.56902 0
M  V30 743 C 73.8099 -5.45962 -3.28944 0
M  V30 744 C 71.4969 -4.88602 -3.6703 0
M  V30 745 C 72.4949 -5.84668 -3.53062 0
M  V30 746 O 72.1829 -7.17365 -3.62826 0
M  V30 747 H 71.9149 -0.38367 -0.556573 0
M  V30 748 H 74.4689 -1.6398 -1.23693 0
M  V30 749 H 72.6989 -1.04835 -3.72218 0
M  V30 750 H 74.3879 -1.46226 -3.78646 0
M  V30 751 H 75.1539 -3.81577 -2.99372 0
M  V30 752 H 71.0329 -2.79188 -3.66844 0
M  V30 753 H 74.5769 -6.20925 -3.17958 0
M  V30 754 H 70.4739 -5.17653 -3.85623 0
M  V30 755 H 71.2419 -7.2515 -3.79605 0
M  V30 756 N 73.905 1.17692 -1.04816 0
M  V30 757 C 75.321 1.39863 -0.768794 0
M  V30 758 C 75.521 1.91118 0.638451 0
M  V30 759 O 74.577 2.10036 1.40146 0
M  V30 760 C 75.89 2.39274 -1.82122 0
M  V30 761 C 77.438 2.52987 -1.843 0
M  V30 762 C 77.913 3.55669 -2.88555 0
M  V30 763 N 79.404 3.63183 -2.87493 0
M  V30 764 C 80.139 4.42381 -3.64811 0
M  V30 765 N 79.635 5.25125 -4.51903 0
M  V30 766 N 81.428 4.37217 -3.53267 0
M  V30 767 H 73.579 0.82752 -1.95617 0
M  V30 768 H 75.842 0.426123 -0.846831 0
M  V30 769 H 75.548 2.08678 -2.83102 0
M  V30 770 H 75.422 3.38725 -1.65967 0
M  V30 771 H 77.809 2.82896 -0.839869 0
M  V30 772 H 77.89 1.53623 -2.04532 0
M  V30 773 H 77.534 3.26499 -3.89051 0
M  V30 774 H 77.464 4.54728 -2.65575 0
M  V30 775 H 79.955 3.04103 -2.24343 0
M  V30 776 H 80.268 5.82728 -5.07591 0
M  V30 777 H 78.613 5.24519 -4.55966 0
M  V30 778 H 81.804 3.71626 -2.84625 0
M  V30 779 H 81.977 4.98696 -4.13771 0
M  V30 780 N 75.3831 0.828654 1.34056 0
M  V30 781 C 76.7991 0.515135 1.51058 0
M  V30 782 C 76.9991 -0.959581 1.77184 0
M  V30 783 O 76.0551 -1.74382 1.82612 0
M  V30 784 C 77.3681 1.37963 2.67183 0
M  V30 785 C 78.9161 1.37735 2.81066 0
M  V30 786 C 79.3911 2.22645 4.00241 0
M  V30 787 N 80.8821 2.203 4.07458 0
M  V30 788 C 81.6171 2.82744 4.98842 0
M  V30 789 N 81.1131 3.54201 5.9541 0
M  V30 790 N 82.9061 2.72268 4.91759 0
M  V30 791 H 75.0571 1.78343 1.15358 0
M  V30 792 H 77.3201 0.760304 0.566252 0
M  V30 793 H 77.0261 2.42714 2.54525 0
M  V30 794 H 76.9001 1.0484 3.62338 0
M  V30 795 H 79.2871 0.337593 2.93163 0
M  V30 796 H 79.3681 1.74859 1.86703 0
M  V30 797 H 79.0121 3.26674 3.88905 0
M  V30 798 H 78.9421 1.82869 4.93829 0
M  V30 799 H 81.4331 1.68327 3.38341 0
M  V30 800 H 81.7461 3.9908 6.61782 0
M  V30 801 H 80.0911 3.58308 5.95517 0
M  V30 802 H 83.2821 2.16014 4.15278 0
M  V30 803 H 83.4551 3.21219 5.62781 0
M  V30 804 N 76.8612 -1.46375 0.584142 0
M  V30 805 C 77.8242 -2.28784 -0.138108 0
M  V30 806 C 78.8242 -1.38471 -0.817462 0
M  V30 807 O 80.0142 -1.60833 -0.669199 0
M  V30 808 C 77.1462 -3.18892 -1.20503 0
M  V30 809 H 78.3392 -2.94117 0.586127 0
M  V30 810 H 75.8922 -1.52509 0.342171 0
M  V30 811 H 76.6272 -2.58309 -1.96079 0
M  V30 812 H 76.4122 -3.85388 -0.722384 0
M  V30 813 H 77.9022 -3.80914 -1.71155 0
M  V30 814 N 78.3393 -0.321999 -1.54275 0
M  V30 815 C 79.2713 0.578671 -2.21775 0
M  V30 816 C 80.2843 1.08109 -1.21722 0
M  V30 817 O 81.4733 0.994938 -1.482 0
M  V30 818 C 78.5733 1.80661 -2.86731 0
M  V30 819 C 77.7463 1.44314 -4.12907 0
M  V30 820 C 76.8053 2.52845 -4.61472 0
M  V30 821 O 75.8313 2.17054 -5.2619 0
M  V30 822 N 77.0333 3.83748 -4.35566 0
M  V30 823 H 79.7983 0.000709447 -2.997 0
M  V30 824 H 77.3593 -0.145132 -1.61248 0
M  V30 825 H 79.3513 2.52655 -3.16145 0
M  V30 826 H 77.9213 2.29245 -2.12521 0
M  V30 827 H 77.1413 0.554906 -3.90275 0
M  V30 828 H 78.4293 1.17598 -4.95023 0
M  V30 829 H 77.8273 4.15625 -3.83761 0
M  V30 830 H 76.3843 4.51977 -4.69638 0
M  V30 831 N 79.8174 1.5752 -0.0501392 0
M  V30 832 C 81.0654 1.9227 0.622642 0
M  V30 833 C 81.3864 0.929083 1.71444 0
M  V30 834 O 80.6564 -0.0262186 1.95882 0
M  V30 835 H 79.2364 0.709739 0.232981 0
M  V30 836 H 81.8984 1.94628 -0.102898 0
M  V30 837 H 80.9944 2.93479 1.06191 0
M  V30 838 N 81.2955 -0.223234 1.56011 0
M  V30 839 C 82.2255 -1.27988 1.95298 0
M  V30 840 C 83.2065 -1.48976 0.820979 0
M  V30 841 O 84.3915 -1.61188 1.08315 0
M  V30 842 C 81.5215 -2.63 2.26822 0
M  V30 843 C 80.4755 -2.56671 3.42497 0
M  V30 844 C 79.8015 -3.95697 3.59622 0
M  V30 845 C 81.1015 -2.11601 4.77517 0
M  V30 846 H 82.7955 -0.953525 2.8381 0
M  V30 847 H 80.3415 -0.457244 1.36548 0
M  V30 848 H 82.2945 -3.37077 2.52898 0
M  V30 849 H 81.0185 -2.9732 1.35161 0
M  V30 850 H 79.6775 -1.85051 3.16467 0
M  V30 851 H 79.3255 -4.27322 2.6534 0
M  V30 852 H 79.0255 -3.92345 4.37424 0
M  V30 853 H 80.5495 -4.71438 3.88044 0
M  V30 854 H 81.9635 -2.7542 5.02809 0
M  V30 855 H 80.3605 -2.19311 5.5859 0
M  V30 856 H 81.4305 -1.06824 4.72987 0
M  V30 857 N 82.7736 -1.49793 -0.48987 0
M  V30 858 C 83.7366 -1.66752 -1.57246 0
M  V30 859 C 84.7366 -0.538867 -1.51502 0
M  V30 860 O 85.9266 -0.805545 -1.54456 0
M  V30 861 C 83.0586 -1.67528 -2.96896 0
M  V30 862 H 84.2516 -2.63321 -1.43534 0
M  V30 863 H 81.8046 -1.38992 -0.714914 0
M  V30 864 H 82.5396 -0.725837 -3.16073 0
M  V30 865 H 82.3246 -2.49504 -3.02473 0
M  V30 866 H 83.8146 -1.82667 -3.7553 0
M  V30 867 N 84.2517 0.741722 -1.39055 0
M  V30 868 C 85.5287 1.49252 -1.26425 0
M  V30 869 C 85.9087 2.10705 0.129144 0
M  V30 870 O 85.2567 1.98045 1.13976 0
M  V30 871 C 85.4667 2.54934 -2.38347 0
M  V30 872 C 86.8147 3.21506 -2.77343 0
M  V30 873 O 87.8387 2.65245 -2.37747 0
M  V30 874 O 86.6977 4.23294 -3.45665 0
M  V30 875 H 83.7917 0.662451 -0.495064 0
M  V30 876 H 86.3377 0.776121 -1.50912 0
M  V30 877 H 85.1097 2.07857 -3.31529 0
M  V30 878 H 84.7327 3.34141 -2.15489 0
M  V30 879 N 85.7298 1.2412 0.971189 0
M  V30 880 C 87.1458 1.00584 1.23916 0
M  V30 881 C 87.3458 -0.287481 1.99439 0
M  V30 882 O 86.4018 -1.00454 2.31658 0
M  V30 883 C 87.7148 2.21864 2.0297 0
M  V30 884 C 89.2628 2.26452 2.16076 0
M  V30 885 C 89.7378 3.47343 2.98524 0
M  V30 886 N 91.2288 3.47639 3.06107 0
M  V30 887 C 91.9638 4.37837 3.70251 0
M  V30 888 N 91.4598 5.38286 4.36142 0
M  V30 889 N 93.2528 4.25558 3.67228 0
M  V30 890 H 85.4038 2.07236 0.465499 0
M  V30 891 H 87.6668 0.909236 0.268315 0
M  V30 892 H 87.3728 3.15771 1.54861 0
M  V30 893 H 87.2468 2.23698 3.03709 0
M  V30 894 H 89.6338 1.33078 2.6339 0
M  V30 895 H 89.7148 2.28645 1.14696 0
M  V30 896 H 89.3588 4.41029 2.51905 0
M  V30 897 H 89.2888 3.42393 4.00093 0
M  V30 898 H 91.7798 2.74966 2.59233 0
M  V30 899 H 92.0928 6.03352 4.82894 0
M  V30 900 H 90.4378 5.42176 4.34822 0
M  V30 901 H 93.6288 3.46322 3.14927 0
M  V30 902 H 93.8018 4.96054 4.16935 0
M  V30 903 N 87.2079 -1.17134 1.05439 0
M  V30 904 C 88.1179 -2.24878 0.668365 0
M  V30 905 C 89.1339 -1.71186 -0.311687 0
M  V30 906 O 90.3099 -2.00738 -0.163161 0
M  V30 907 C 87.3749 -3.46662 0.051648 0
M  V30 908 C 86.4359 -4.15429 1.08246 0
M  V30 909 C 85.6689 -5.31399 0.495082 0
M  V30 910 O 85.8919 -5.66153 -0.694743 0
M  V30 911 O 84.8259 -5.89187 1.23056 0
M  V30 912 H 88.6519 -2.60189 1.56637 0
M  V30 913 H 86.2369 -1.24482 0.826104 0
M  V30 914 H 88.1189 -4.20394 -0.290966 0
M  V30 915 H 86.7939 -3.13142 -0.819971 0
M  V30 916 H 85.7009 -3.43704 1.47711 0
M  V30 917 H 87.0339 -4.52982 1.92532 0
M  V30 918 N 88.686 -0.835752 -1.33615 0
M  V30 919 C 89.649 -0.272 -2.2758 0
M  V30 920 C 90.649 0.557487 -1.50827 0
M  V30 921 O 91.839 0.37173 -1.70188 0
M  V30 922 C 88.971 0.617173 -3.35267 0
M  V30 923 H 90.164 -1.10111 -2.78954 0
M  V30 924 H 87.717 -0.608594 -1.43965 0
M  V30 925 H 88.452 1.46884 -2.89129 0
M  V30 926 H 88.237 0.0237066 -3.92093 0
M  V30 927 H 89.727 1.005 -4.05326 0
M  V30 928 N 90.1641 1.46063 -0.591896 0
M  V30 929 C 91.4121 2.01938 -0.0808391 0
M  V30 930 C 91.7331 1.46475 1.28725 0
M  V30 931 O 91.0031 0.652944 1.84698 0
M  V30 932 H 89.5831 0.746516 -0.0268938 0
M  V30 933 H 92.2451 1.79055 -0.769752 0
M  V30 934 H 91.3411 3.12094 -0.0187578 0
M  V30 935 N 91.6422 0.330177 1.54103 0
M  V30 936 C 93.0582 -0.0222371 1.59585 0
M  V30 937 C 93.2582 -1.49902 1.34654 0
M  V30 938 O 92.3142 -2.25592 1.13421 0
M  V30 939 C 93.6272 0.401932 2.98002 0
M  V30 940 C 95.1752 0.353145 3.11001 0
M  V30 941 C 95.6502 0.752576 4.51775 0
M  V30 942 N 97.1412 0.706239 4.57784 0
M  V30 943 C 97.8762 0.987417 5.64834 0
M  V30 944 N 97.3722 1.33607 6.79795 0
M  V30 945 N 99.1652 0.91254 5.54643 0
M  V30 946 H 91.3162 1.29228 1.68564 0
M  V30 947 H 93.5792 0.525906 0.78875 0
M  V30 948 H 93.2852 1.4311 3.21267 0
M  V30 949 H 93.1592 -0.229699 3.765 0
M  V30 950 H 95.5462 -0.666822 2.87467 0
M  V30 951 H 95.6272 1.0198 2.34593 0
M  V30 952 H 95.2712 1.77049 4.76042 0
M  V30 953 H 95.2012 0.0635409 5.26562 0
M  V30 954 H 97.6922 0.44889 3.75224 0
M  V30 955 H 98.0052 1.53582 7.57385 0
M  V30 956 H 96.3502 1.37439 6.81275 0
M  V30 957 H 99.5412 0.639601 4.6371 0
M  V30 958 H 99.7142 1.13503 6.37982 0
M  V30 959 N 93.1203 -1.57491 0.0584922 0
M  V30 960 C 94.5313 -1.80526 -0.476138 0
M  V30 961 C 94.8823 -0.971334 -1.70469 0
M  V30 962 O 94.0073 -0.190012 -2.15564 0
M  V30 963 C 94.6023 -3.27424 -0.870587 0
M  V30 964 C 93.1613 -3.51351 -1.35015 0
M  V30 965 C 92.3083 -2.75343 -0.32887 0
M  V30 966 H 95.2593 -1.56133 0.284312 0
M  V30 967 H 95.2803 -3.38745 -1.73299 0
M  V30 968 H 94.7923 -3.88093 0.0237627 0
M  V30 969 H 92.8933 -2.95971 -2.26345 0
M  V30 970 H 93.0063 -4.60059 -1.33726 0
M  V30 971 H 91.3703 -2.417 -0.803321 0
M  V30 972 H 92.1533 -3.38743 0.557521 0
M  V30 973 N 94.5984 0.214957 -1.56127 0
M  V30 974 C 95.5314 1.29382 -1.87977 0
M  V30 975 C 96.5094 1.44897 -0.737807 0
M  V30 976 O 97.6934 1.60605 -0.986833 0
M  V30 977 C 94.8204 2.66325 -2.09258 0
M  V30 978 C 93.8664 2.67789 -3.31951 0
M  V30 979 S 94.6994 2.21198 -4.8768 0
M  V30 980 C 95.8554 3.60003 -5.12004 0
M  V30 981 H 96.0884 1.02173 -2.79192 0
M  V30 982 H 93.6214 0.417516 -1.48648 0
M  V30 983 H 95.5794 3.45162 -2.22201 0
M  V30 984 H 94.2404 2.90755 -1.18829 0
M  V30 985 H 93.4334 3.68436 -3.43906 0
M  V30 986 H 93.0354 1.9702 -3.17898 0
M  V30 987 H 95.3274 4.55739 -5.01307 0
M  V30 988 H 96.2704 3.52959 -6.13861 0
M  V30 989 H 96.6784 3.53996 -4.39712 0
M  V30 990 N 96.0765 1.50051 0.48192 0
M  V30 991 C 97.4925 1.37237 0.814756 0
M  V30 992 C 97.6925 0.420109 1.97072 0
M  V30 993 O 96.7485 -0.141246 2.52105 0
M  V30 994 C 98.0615 2.78375 1.13701 0
M  V30 995 C 99.6095 2.87213 1.2441 0
M  V30 996 C 100.084 4.29161 1.59954 0
M  V30 997 N 101.575 4.32061 1.66967 0
M  V30 998 C 102.31 5.38879 1.95952 0
M  V30 999 N 101.806 6.55918 2.23031 0
M  V30 1000 N 103.599 5.26312 1.97363 0
M  V30 1001 H 95.7505 2.10546 -0.28005 0
M  V30 1002 H 98.0135 0.945921 -0.0627454 0
M  V30 1003 H 97.7195 3.49845 0.360787 0
M  V30 1004 H 97.5935 3.14941 2.07586 0
M  V30 1005 H 99.9805 2.15969 2.01101 0
M  V30 1006 H 100.061 2.54204 0.285299 0
M  V30 1007 H 99.7055 5.00938 0.838067 0
M  V30 1008 H 99.6355 4.59648 2.56966 0
M  V30 1009 H 102.126 3.47661 1.48123 0
M  V30 1010 H 102.439 7.33139 2.44391 0
M  V30 1011 H 100.784 6.59112 2.20447 0
M  V30 1012 H 103.975 4.33876 1.75697 0
M  V30 1013 H 104.148 6.09649 2.19618 0
M  V30 1014 N 97.5546 -0.734337 1.39446 0
M  V30 1015 C 98.4646 -1.87879 1.40495 0
M  V30 1016 C 99.4806 -1.714 0.299672 0
M  V30 1017 O 100.657 -1.93991 0.541249 0
M  V30 1018 C 97.7216 -3.23477 1.24754 0
M  V30 1019 C 96.7826 -3.52344 2.45259 0
M  V30 1020 C 96.0156 -4.81473 2.30259 0
M  V30 1021 O 96.2386 -5.55237 1.30643 0
M  V30 1022 O 95.1726 -5.10254 3.19256 0
M  V30 1023 H 98.9986 -1.89949 2.36966 0
M  V30 1024 H 96.5836 -0.882243 1.20569 0
M  V30 1025 H 98.4656 -4.04509 1.18111 0
M  V30 1026 H 97.1406 -3.22176 0.313781 0
M  V30 1027 H 96.0476 -2.71396 2.57478 0
M  V30 1028 H 97.3806 -3.58426 3.37331 0
M  V30 1029 N 99.0327 -1.24633 -0.964593 0
M  V30 1030 C 100.31 -0.995809 -1.68354 0
M  V30 1031 C 100.69 0.480964 -2.05548 0
M  V30 1032 O 100.038 1.45599 -1.76105 0
M  V30 1033 C 100.248 -1.92177 -2.91323 0
M  V30 1034 C 101.596 -2.19446 -3.63495 0
M  V30 1035 O 102.62 -1.89855 -3.01386 0
M  V30 1036 O 101.479 -2.69714 -4.75307 0
M  V30 1037 H 98.5727 -0.376854 -0.736146 0
M  V30 1038 H 101.119 -1.35745 -1.0184 0
M  V30 1039 H 99.8907 -2.91938 -2.60553 0
M  V30 1040 H 99.5137 -1.56349 -3.65569 0
M  V30 1041 N 100.511 1.16574 -1.06058 0
M  V30 1042 C 101.739 1.90952 -0.796552 0
M  V30 1043 C 102.154 1.77302 0.648808 0
M  V30 1044 O 101.511 1.11605 1.44397 0
M  V30 1045 C 101.562 3.41736 -1.17894 0
M  V30 1046 O 101.283 3.54975 -2.56758 0
M  V30 1047 C 102.784 4.33169 -0.942308 0
M  V30 1048 H 100.004 0.605594 -0.288959 0
M  V30 1049 H 102.548 1.47777 -1.41358 0
M  V30 1050 H 100.703 3.82623 -0.606491 0
M  V30 1051 H 101.117 4.4846 -2.72 0
M  V30 1052 H 102.591 5.37439 -1.25952 0
M  V30 1053 H 103.068 4.3903 0.122078 0
M  V30 1054 H 103.674 3.98007 -1.49902 0
M  V30 1055 N 101.989 0.842826 1.3317 0
M  V30 1056 C 102.919 0.294028 2.31641 0
M  V30 1057 C 103.9 -0.600401 1.59151 0
M  V30 1058 O 105.085 -0.523124 1.87022 0
M  V30 1059 C 102.215 -0.528416 3.43257 0
M  V30 1060 C 101.169 0.27056 4.27144 0
M  V30 1061 C 100.495 -0.675881 5.30411 0
M  V30 1062 C 101.795 1.48981 5.00602 0
M  V30 1063 H 103.489 1.11681 2.77791 0
M  V30 1064 H 101.035 0.538478 1.33553 0
M  V30 1065 H 102.988 -0.922674 4.11175 0
M  V30 1066 H 101.712 -1.38445 2.95805 0
M  V30 1067 H 100.371 0.646427 3.60856 0
M  V30 1068 H 100.019 -1.52842 4.79216 0
M  V30 1069 H 99.7189 -0.145374 5.8742 0
M  V30 1070 H 101.243 -1.06757 6.01195 0
M  V30 1071 H 102.657 1.16849 5.61266 0
M  V30 1072 H 101.054 1.95739 5.6728 0
M  V30 1073 H 102.124 2.25746 4.29147 0
M  V30 1074 N 103.467 -1.45747 0.599634 0
M  V30 1075 C 104.714 -2.02292 0.0917284 0
M  V30 1076 C 105.042 -1.46906 -1.27472 0
M  V30 1077 O 104.297 -0.630652 -1.8526 0
M  V30 1078 C 104.596 -3.57399 -0.00602758 0
M  V30 1079 C 104.262 -4.31902 1.29503 0
M  V30 1080 C 102.924 -4.51974 1.65144 0
M  V30 1081 C 105.276 -4.74551 2.15525 0
M  V30 1082 C 102.604 -5.11949 2.86574 0
M  V30 1083 C 104.956 -5.35868 3.36196 0
M  V30 1084 C 103.62 -5.54165 3.72099 0
M  V30 1085 H 102.89 -0.740239 0.0335658 0
M  V30 1086 H 105.537 -1.7491 0.779661 0
M  V30 1087 H 103.842 -3.84014 -0.777183 0
M  V30 1088 H 105.539 -3.98846 -0.415038 0
M  V30 1089 H 102.129 -4.16588 1.00761 0
M  V30 1090 H 106.313 -4.58784 1.8929 0
M  V30 1091 H 101.569 -5.24305 3.14507 0
M  V30 1092 H 105.743 -5.6787 4.03109 0
M  V30 1093 H 103.37 -6.00406 4.6628 0
M  V30 1094 N 104.945 -0.338344 -1.53925 0
M  V30 1095 C 106.361 0.0137736 -1.59594 0
M  V30 1096 C 106.561 1.49186 -1.35447 0
M  V30 1097 O 105.617 2.24987 -1.14616 0
M  V30 1098 C 106.93 -0.41773 -2.97784 0
M  V30 1099 C 108.478 -0.369633 -3.1081 0
M  V30 1100 C 108.953 -0.776524 -4.51369 0
M  V30 1101 N 110.444 -0.730506 -4.57403 0
M  V30 1102 C 111.179 -1.01736 -5.64303 0
M  V30 1103 N 110.675 -1.3721 -6.79077 0
M  V30 1104 N 112.468 -0.941942 -5.54151 0
M  V30 1105 H 104.619 -1.3012 -1.67876 0
M  V30 1106 H 106.882 -0.530082 -0.78595 0
M  V30 1107 H 106.588 -1.44811 -3.20504 0
M  V30 1108 H 106.462 0.209729 -3.76616 0
M  V30 1109 H 108.849 0.651568 -2.87817 0
M  V30 1110 H 108.93 -1.03223 -2.34049 0
M  V30 1111 H 108.574 -1.79571 -4.75096 0
M  V30 1112 H 108.504 -0.0914649 -5.26521 0
M  V30 1113 H 110.995 -0.468783 -3.74981 0
M  V30 1114 H 111.308 -1.57597 -7.5656 0
M  V30 1115 H 109.653 -1.4105 -6.80536 0
M  V30 1116 H 112.844 -0.664184 -4.63364 0
M  V30 1117 H 113.017 -1.16884 -6.37371 0
M  V30 1118 N 106.423 1.57458 -0.0668435 0
M  V30 1119 C 107.353 2.15468 0.899764 0
M  V30 1120 C 108.334 1.08042 1.31381 0
M  V30 1121 O 109.519 1.36054 1.38574 0
M  V30 1122 C 106.649 2.71232 2.16911 0
M  V30 1123 C 105.603 3.83781 1.89463 0
M  V30 1124 C 104.929 4.26127 3.22986 0
M  V30 1125 C 106.229 5.08238 1.20381 0
M  V30 1126 H 107.923 2.96488 0.416529 0
M  V30 1127 H 105.469 1.4262 0.198908 0
M  V30 1128 H 107.422 3.10458 2.84945 0
M  V30 1129 H 106.146 1.87426 2.67468 0
M  V30 1130 H 104.805 3.45051 1.23836 0
M  V30 1131 H 104.453 3.39249 3.71374 0
M  V30 1132 H 104.153 5.01993 3.05413 0
M  V30 1133 H 105.677 4.67966 3.92225 0
M  V30 1134 H 107.091 5.44811 1.78475 0
M  V30 1135 H 105.488 5.89349 1.13083 0
M  V30 1136 H 106.558 4.84558 0.182153 0
M  V30 1137 N 107.901 -0.206675 1.56239 0
M  V30 1138 C 108.864 -1.23976 1.92776 0
M  V30 1139 C 109.864 -1.39041 0.807729 0
M  V30 1140 O 111.054 -1.37051 1.0753 0
M  V30 1141 C 108.186 -2.61112 2.19165 0
M  V30 1142 H 109.379 -0.927764 2.85189 0
M  V30 1143 H 106.932 -0.447718 1.4975 0
M  V30 1144 H 107.667 -2.97386 1.29352 0
M  V30 1145 H 107.452 -2.51552 3.00772 0
M  V30 1146 H 108.942 -3.35633 2.48476 0
M  V30 1147 N 109.379 -1.50304 -0.473955 0
M  V30 1148 C 110.604 -1.65175 -1.25427 0
M  V30 1149 C 111.029 -0.333673 -1.85117 0
M  V30 1150 O 110.387 0.702114 -1.67153 0
M  V30 1151 C 110.435 -2.74295 -2.34082 0
M  V30 1152 O 109.539 -2.35349 -3.38651 0
M  V30 1153 H 108.88 -0.551944 -0.369126 0
M  V30 1154 H 111.41 -1.96662 -0.564364 0
M  V30 1155 H 111.42 -2.97285 -2.79438 0
M  V30 1156 H 110.095 -3.69959 -1.90008 0
M  V30 1157 H 108.672 -2.22794 -2.99027 0
M  V30 1158 N 110.857 0.726932 -1.39834 0
M  V30 1159 C 112.103 1.48884 -1.377 0
M  V30 1160 C 112.436 1.94185 0.0244852 0
M  V30 1161 O 111.711 1.67361 0.990986 0
M  V30 1162 C 111.994 2.72288 -2.3565 0
M  V30 1163 C 111.847 2.32956 -3.84775 0
M  V30 1164 C 113.166 3.74414 -2.31306 0
M  V30 1165 H 110.285 0.540062 -0.5015 0
M  V30 1166 H 112.927 0.830547 -1.70886 0
M  V30 1167 H 111.077 3.28457 -2.07481 0
M  V30 1168 H 112.749 1.82356 -4.23726 0
M  V30 1169 H 110.992 1.65088 -4.01159 0
M  V30 1170 H 111.663 3.21362 -4.4881 0
M  V30 1171 H 114.139 3.27849 -2.56231 0
M  V30 1172 H 113.015 4.58414 -3.01907 0
M  V30 1173 H 113.276 4.21909 -1.32081 0
M  V30 1174 N 112.336 1.25143 0.95797 0
M  V30 1175 C 113.564 1.12424 1.73691 0
M  V30 1176 C 113.979 -0.322304 1.86029 0
M  V30 1177 O 113.336 -1.22186 1.35561 0
M  V30 1178 C 113.387 1.76933 3.15241 0
M  V30 1179 O 113.108 3.15932 3.03511 0
M  V30 1180 C 114.609 1.6995 4.09429 0
M  V30 1181 H 111.829 0.3923 0.544373 0
M  V30 1182 H 114.373 1.6544 1.20207 0
M  V30 1183 H 112.528 1.27895 3.6568 0
M  V30 1184 H 112.942 3.47598 3.9278 0
M  V30 1185 H 114.416 2.19753 5.06372 0
M  V30 1186 H 114.893 0.662619 4.34173 0
M  V30 1187 H 115.499 2.18461 3.64904 0
M  V30 1188 N 113.814 -1.1601 1.06675 0
M  V30 1189 C 114.761 -2.20525 0.680967 0
M  V30 1190 C 115.731 -1.62904 -0.324283 0
M  V30 1191 O 116.916 -1.89615 -0.212294 0
M  V30 1192 C 114.056 -3.45013 0.0776551 0
M  V30 1193 C 113.169 -4.16863 1.13355 0
M  V30 1194 C 112.304 -5.2888 0.49597 0
M  V30 1195 C 111.343 -5.92537 1.53513 0
M  V30 1196 N 110.48 -6.96038 0.920631 0
M  V30 1197 H 115.32 -2.52876 1.57663 0
M  V30 1198 H 112.857 -1.24199 0.788223 0
M  V30 1199 H 114.815 -4.16193 -0.289704 0
M  V30 1200 H 113.445 -3.132 -0.781393 0
M  V30 1201 H 112.497 -3.44248 1.61857 0
M  V30 1202 H 113.809 -4.60294 1.92174 0
M  V30 1203 H 112.963 -6.06653 0.0758604 0
M  V30 1204 H 111.702 -4.86622 -0.324062 0
M  V30 1205 H 110.707 -5.13482 1.9651 0
M  V30 1206 H 111.932 -6.36873 2.35733 0
M  V30 1207 H 109.878 -6.55888 0.12138 0
M  V30 1208 H 109.795 -7.3786 1.64616 0
M  V30 1209 H 111.063 -7.77725 0.525795 0
M  V30 1210 N 115.292 -0.849877 -1.32721 0
M  V30 1211 C 116.703 -0.506188 -1.79707 0
M  V30 1212 C 117.054 0.975627 -1.70223 0
M  V30 1213 O 116.179 1.76078 -1.25799 0
M  V30 1214 C 116.774 -0.912044 -3.26293 0
M  V30 1215 C 115.333 -0.620326 -3.71253 0
M  V30 1216 C 114.48 -1.11439 -2.53922 0
M  V30 1217 H 117.431 -1.03754 -1.20087 0
M  V30 1218 H 117.452 -0.226493 -3.79825 0
M  V30 1219 H 116.964 -1.99057 -3.33164 0
M  V30 1220 H 115.065 0.447674 -3.69901 0
M  V30 1221 H 115.178 -1.18327 -4.64258 0
M  V30 1222 H 113.542 -0.534834 -2.49021 0
M  V30 1223 H 114.325 -2.19992 -2.6355 0
M  V30 1224 N 116.77 1.45427 -0.607355 0
M  V30 1225 C 118.019 2.01452 -0.100036 0
M  V30 1226 C 118.332 1.48159 1.27704 0
M  V30 1227 O 119.538 1.96159 1.87707 0
M  V30 1228 C 117.994 3.59672 -0.128158 0
M  V30 1229 C 117.602 4.21962 -1.50507 0
M  V30 1230 C 119.346 4.23262 0.323932 0
M  V30 1231 C 117.253 5.72333 -1.48959 0
M  V30 1232 H 116.183 0.75325 -0.0336299 0
M  V30 1233 H 118.834 1.66901 -0.76265 0
M  V30 1234 H 117.216 3.91411 0.601105 0
M  V30 1235 H 118.39 4.01796 -2.25602 0
M  V30 1236 H 116.705 3.70565 -1.89923 0
M  V30 1237 H 119.302 5.33522 0.354691 0
M  V30 1238 H 119.645 3.93921 1.34656 0
M  V30 1239 H 120.178 3.96239 -0.352056 0
M  V30 1240 H 116.917 6.06373 -2.48981 0
M  V30 1241 H 116.437 5.94691 -0.781214 0
M  V30 1242 H 118.116 6.35525 -1.21313 0
M  V30 1243 N 118.248 0.346503 1.53744 0
M  V30 1244 C 119.494 -0.249473 2.0126 0
M  V30 1245 C 119.827 -1.49965 1.23386 0
M  V30 1246 O 119.102 -1.91811 0.32229 0
M  V30 1247 C 119.385 -0.560643 3.55709 0
M  V30 1248 C 119.238 0.701836 4.44291 0
M  V30 1249 C 120.557 -1.36905 4.18264 0
M  V30 1250 H 117.676 -0.0891987 0.731582 0
M  V30 1251 H 120.318 0.467624 1.84156 0
M  V30 1252 H 118.468 -1.17156 3.70414 0
M  V30 1253 H 120.14 1.33974 4.41417 0
M  V30 1254 H 118.383 1.32612 4.13033 0
M  V30 1255 H 119.054 0.43933 5.50249 0
M  V30 1256 H 121.53 -0.852448 4.07275 0
M  V30 1257 H 120.406 -1.55553 5.26398 0
M  V30 1258 H 120.667 -2.37203 3.73078 0
M  V30 1259 N 119.726 -1.57421 0.075193 0
M  V30 1260 C 120.689 -2.11791 -0.876203 0
M  V30 1261 C 121.689 -1.04268 -1.22412 0
M  V30 1262 O 122.879 -1.30242 -1.15684 0
M  V30 1263 C 120.011 -2.62207 -2.17854 0
M  V30 1264 H 121.204 -2.9716 -0.40444 0
M  V30 1265 H 118.757 -1.55333 -0.173557 0
M  V30 1266 H 119.492 -1.803 -2.6956 0
M  V30 1267 H 119.277 -3.40802 -1.93897 0
M  V30 1268 H 120.767 -3.04335 -2.85955 0
M  V30 1269 N 121.204 0.198386 -1.56346 0
M  V30 1270 C 122.134 1.24865 -1.9731 0
M  V30 1271 C 123.115 1.47651 -0.844576 0
M  V30 1272 O 124.3 1.59444 -1.10866 0
M  V30 1273 C 121.43 2.59358 -2.30977 0
M  V30 1274 C 120.384 2.5119 -3.46537 0
M  V30 1275 C 119.71 3.89926 -3.65871 0
M  V30 1276 C 121.01 2.03977 -4.80823 0
M  V30 1277 H 122.704 0.908252 -2.85291 0
M  V30 1278 H 120.25 0.435462 -1.37258 0
M  V30 1279 H 122.203 3.33011 -2.58228 0
M  V30 1280 H 120.927 2.95132 -1.39874 0
M  V30 1281 H 119.586 1.79993 -3.19371 0
M  V30 1282 H 119.234 4.23046 -2.72105 0
M  V30 1283 H 118.934 3.85336 -4.4361 0
M  V30 1284 H 120.458 4.65205 -3.95495 0
M  V30 1285 H 121.872 2.67386 -5.07127 0
M  V30 1286 H 120.269 2.10397 -5.62008 0
M  V30 1287 H 121.339 0.992861 -4.74626 0
M  V30 1288 N 122.682 1.50554 0.465978 0
M  V30 1289 C 123.645 1.69233 1.54574 0
M  V30 1290 C 124.645 0.562901 1.50626 0
M  V30 1291 O 125.835 0.830016 1.53155 0
M  V30 1292 C 122.967 1.7223 2.94193 0
M  V30 1293 H 124.16 2.65571 1.39327 0
M  V30 1294 H 121.713 1.40111 0.692711 0
M  V30 1295 H 122.448 0.77603 3.14878 0
M  V30 1296 H 122.233 2.54285 2.98466 0
M  V30 1297 H 123.723 1.88618 3.72576 0
M  V30 1298 N 124.16 -0.719506 1.40217 0
M  V30 1299 C 125.406 -1.48152 1.38488 0
M  V30 1300 C 125.739 -1.94195 -0.0141867 0
M  V30 1301 O 125.014 -1.67884 -0.982096 0
M  V30 1302 C 125.297 -2.71035 2.37091 0
M  V30 1303 C 125.15 -2.30912 3.86005 0
M  V30 1304 C 126.469 -3.73182 2.33288 0
M  V30 1305 H 123.588 -0.537395 0.504357 0
M  V30 1306 H 126.23 -0.821472 1.71324 0
M  V30 1307 H 124.38 -3.27352 2.0922 0
M  V30 1308 H 126.052 -1.80107 4.24687 0
M  V30 1309 H 124.295 -1.62958 4.02029 0
M  V30 1310 H 124.966 -3.18978 4.50508 0
M  V30 1311 H 127.442 -3.26485 2.57966 0
M  V30 1312 H 126.318 -4.56806 3.04334 0
M  V30 1313 H 126.579 -4.21202 1.34317 0
M  V30 1314 N 125.638 -1.25649 -0.95132 0
M  V30 1315 C 126.568 -1.08808 -2.06599 0
M  V30 1316 C 127.549 0.00382547 -1.701 0
M  V30 1317 O 128.734 -0.166325 -1.93486 0
M  V30 1318 C 125.864 -0.709542 -3.39975 0
M  V30 1319 C 124.818 -1.75206 -3.90496 0
M  V30 1320 C 124.144 -1.22811 -5.20405 0
M  V30 1321 C 125.444 -3.15153 -4.16504 0
M  V30 1322 H 127.138 -2.02048 -2.20946 0
M  V30 1323 H 124.684 -0.972835 -1.06169 0
M  V30 1324 H 126.637 -0.578649 -4.17408 0
M  V30 1325 H 125.361 0.258556 -3.25575 0
M  V30 1326 H 124.02 -1.87145 -3.15234 0
M  V30 1327 H 123.668 -0.250145 -5.02378 0
M  V30 1328 H 123.368 -1.92492 -5.55176 0
M  V30 1329 H 124.892 -1.10968 -6.00432 0
M  V30 1330 H 126.306 -3.06349 -4.84586 0
M  V30 1331 H 124.703 -3.82333 -4.62538 0
M  V30 1332 H 125.773 -3.61966 -3.22658 0
M  V30 1333 N 127.117 1.15442 -1.07289 0
M  V30 1334 C 128.533 1.38201 -0.798288 0
M  V30 1335 C 128.733 1.92429 0.597769 0
M  V30 1336 O 127.789 2.12962 1.3566 0
M  V30 1337 C 129.102 2.35357 -1.87156 0
M  V30 1338 C 130.65 2.49021 -1.89624 0
M  V30 1339 C 131.125 3.49468 -2.96034 0
M  V30 1340 N 132.616 3.57003 -2.95132 0
M  V30 1341 C 133.351 4.34543 -3.74112 0
M  V30 1342 N 132.847 5.15421 -4.6294 0
M  V30 1343 N 134.64 4.29625 -3.62462 0
M  V30 1344 H 126.791 0.78584 -1.97328 0
M  V30 1345 H 129.054 0.408065 -0.855679 0
M  V30 1346 H 128.76 2.02626 -2.87464 0
M  V30 1347 H 128.634 3.35129 -1.73114 0
M  V30 1348 H 131.021 2.81051 -0.899687 0
M  V30 1349 H 131.102 1.4925 -2.07745 0
M  V30 1350 H 130.746 3.18173 -3.95889 0
M  V30 1351 H 130.676 4.48992 -2.75161 0
M  V30 1352 H 133.167 2.99276 -2.30743 0
M  V30 1353 H 133.48 5.7183 -5.19837 0
M  V30 1354 H 131.825 5.14729 -4.66989 0
M  V30 1355 H 135.016 3.65505 -2.92444 0
M  V30 1356 H 135.189 4.89807 -4.24256 0
M  V30 1357 N 128.595 0.856903 1.32268 0
M  V30 1358 C 129.525 0.31858 2.31316 0
M  V30 1359 C 130.506 -0.583487 1.59779 0
M  V30 1360 O 131.691 -0.503259 1.87566 0
M  V30 1361 C 128.821 -0.491979 3.43798 0
M  V30 1362 C 127.775 0.315849 4.26833 0
M  V30 1363 C 127.101 -0.619586 5.31098 0
M  V30 1364 C 128.401 1.54282 4.98993 0
M  V30 1365 H 130.095 1.14621 2.76591 0
M  V30 1366 H 127.641 0.552613 1.32974 0
M  V30 1367 H 129.594 -0.879012 4.1213 0
M  V30 1368 H 128.318 -1.35299 2.97257 0
M  V30 1369 H 126.977 0.684664 3.6015 0
M  V30 1370 H 126.625 -1.47751 4.8081 0
M  V30 1371 H 126.325 -0.0830621 5.87541 0
M  V30 1372 H 127.849 -1.00375 6.02293 0
M  V30 1373 H 129.263 1.22796 5.59995 0
M  V30 1374 H 127.66 2.01745 5.65172 0
M  V30 1375 H 128.73 2.30285 4.26728 0
M  V30 1376 N 130.073 -1.45103 0.615059 0
M  V30 1377 C 131.319 -2.02483 0.113347 0
M  V30 1378 C 131.652 -1.48146 -1.25564 0
M  V30 1379 O 130.927 -0.659104 -1.82992 0
M  V30 1380 C 131.21 -3.60005 0.0825278 0
M  V30 1381 C 131.063 -4.2466 1.48271 0
M  V30 1382 C 132.382 -4.35972 -0.601401 0
M  V30 1383 H 129.501 -0.735764 0.0426632 0
M  V30 1384 H 132.143 -1.72868 0.788461 0
M  V30 1385 H 130.293 -3.85367 -0.492378 0
M  V30 1386 H 131.965 -4.10458 2.10527 0
M  V30 1387 H 130.208 -3.82772 2.04127 0
M  V30 1388 H 130.879 -5.336 1.41332 0
M  V30 1389 H 133.355 -4.15947 -0.112666 0
M  V30 1390 H 132.231 -5.45697 -0.592097 0
M  V30 1391 H 132.492 -4.09391 -1.66887 0
M  V30 1392 N 131.551 -0.354651 -1.53558 0
M  V30 1393 C 132.514 0.484566 -2.24019 0
M  V30 1394 C 133.514 1.01861 -1.24422 0
M  V30 1395 O 134.704 0.906097 -1.4878 0
M  V30 1396 C 131.836 1.67615 -2.96847 0
M  V30 1397 H 133.029 -0.131843 -2.9961 0
M  V30 1398 H 130.582 -0.106165 -1.55939 0
M  V30 1399 H 131.317 2.33095 -2.25471 0
M  V30 1400 H 131.102 1.30029 -3.69912 0
M  V30 1401 H 132.592 2.27114 -3.50441 0
M  V30 1402 N 133.029 1.57378 -0.0835403 0
M  V30 1403 C 134.445 1.57246 0.273109 0
M  V30 1404 C 134.645 1.09385 1.69225 0
M  V30 1405 O 133.701 0.765051 2.40631 0
M  V30 1406 C 135.014 3.00614 0.0720628 0
M  V30 1407 C 136.562 3.12684 0.1407 0
M  V30 1408 C 137.037 4.57989 -0.0322094 0
M  V30 1409 N 138.528 4.63194 0.0230085 0
M  V30 1410 C 139.263 5.73335 -0.0861941 0
M  V30 1411 N 138.759 6.9235 -0.24958 0
M  V30 1412 N 140.552 5.62093 -0.0282886 0
M  V30 1413 H 132.703 1.86801 -1.0109 0
M  V30 1414 H 134.966 0.861687 -0.395222 0
M  V30 1415 H 134.672 3.39786 -0.907662 0
M  V30 1416 H 134.546 3.68193 0.81936 0
M  V30 1417 H 136.933 2.73391 1.11092 0
M  V30 1418 H 137.014 2.47719 -0.637896 0
M  V30 1419 H 136.658 4.97973 -0.999247 0
M  V30 1420 H 136.588 5.21 0.765937 0
M  V30 1421 H 139.079 3.77613 0.14722 0
M  V30 1422 H 139.392 7.72117 -0.324733 0
M  V30 1423 H 137.737 6.94415 -0.285097 0
M  V30 1424 H 140.928 4.67997 0.0981408 0
M  V30 1425 H 141.101 6.47895 -0.116845 0
M  V30 1426 N 134.507 -0.190092 1.56449 0
M  V30 1427 C 135.755 -0.907908 1.80559 0
M  V30 1428 C 136.076 -1.83583 0.657438 0
M  V30 1429 O 135.346 -1.93203 -0.323924 0
M  V30 1430 H 133.926 -0.338247 0.666032 0
M  V30 1431 H 136.588 -0.194403 1.93928 0
M  V30 1432 H 135.684 -1.49604 2.73907 0
M  V30 1433 N 135.985 -1.50799 -0.457987 0
M  V30 1434 C 136.895 -1.73426 -1.57989 0
M  V30 1435 C 137.911 -0.617745 -1.62665 0
M  V30 1436 O 139.087 -0.897614 -1.80291 0
M  V30 1437 C 136.152 -1.83557 -2.94122 0
M  V30 1438 C 135.213 -3.07345 -2.99729 0
M  V30 1439 C 134.446 -3.16983 -4.29368 0
M  V30 1440 O 134.669 -2.33077 -5.20607 0
M  V30 1441 O 133.603 -4.09812 -4.40837 0
M  V30 1442 H 137.429 -2.68555 -1.41817 0
M  V30 1443 H 135.014 -1.35052 -0.638859 0
M  V30 1444 H 136.896 -1.92326 -3.74952 0
M  V30 1445 H 135.571 -0.916137 -3.10465 0
M  V30 1446 H 134.478 -3.04068 -2.1793 0
M  V30 1447 H 135.811 -3.9891 -2.88326 0
M  V30 1448 N 137.463 0.71206 -1.40597 0
M  V30 1449 C 138.393 1.83889 -1.43899 0
M  V30 1450 C 139.374 1.67442 -0.299504 0
M  V30 1451 O 140.559 1.87421 -0.508624 0
M  V30 1452 C 137.689 3.21877 -1.30431 0
M  V30 1453 C 136.643 3.53002 -2.42019 0
M  V30 1454 C 135.969 4.90172 -2.13626 0
M  V30 1455 C 137.269 3.53643 -3.84362 0
M  V30 1456 H 138.963 1.81383 -2.38203 0
M  V30 1457 H 136.509 0.871237 -1.14654 0
M  V30 1458 H 138.462 4.00404 -1.31357 0
M  V30 1459 H 137.186 3.24968 -0.326049 0
M  V30 1460 H 135.845 2.76818 -2.40349 0
M  V30 1461 H 135.493 4.89869 -1.14182 0
M  V30 1462 H 135.193 5.11962 -2.88389 0
M  V30 1463 H 136.717 5.71028 -2.1624 0
M  V30 1464 H 138.131 4.22203 -3.87837 0
M  V30 1465 H 136.528 3.86961 -4.58673 0
M  V30 1466 H 137.598 2.52954 -4.13693 0
M  V30 1467 N 138.941 1.26152 0.944643 0
M  V30 1468 C 139.904 1.07474 2.0244 0
M  V30 1469 C 140.904 0.0242064 1.60782 0
M  V30 1470 O 142.094 0.267302 1.72137 0
M  V30 1471 C 139.226 0.633956 3.34953 0
M  V30 1472 H 140.419 2.03336 2.20442 0
M  V30 1473 H 137.972 1.087 1.12312 0
M  V30 1474 H 138.707 -0.326811 3.22649 0
M  V30 1475 H 138.492 1.39247 3.66542 0
M  V30 1476 H 139.982 0.52501 4.14287 0
M  V30 1477 N 140.419 -1.14872 1.07899 0
M  V30 1478 C 141.349 -2.2193 0.725887 0
M  V30 1479 C 142.33 -1.67622 -0.28927 0
M  V30 1480 O 143.515 -1.93533 -0.160787 0
M  V30 1481 C 140.645 -3.47061 0.128856 0
M  V30 1482 C 139.599 -4.14363 1.07178 0
M  V30 1483 C 138.925 -5.33636 0.337229 0
M  V30 1484 C 140.225 -4.63492 2.40775 0
M  V30 1485 H 141.919 -2.51724 1.62097 0
M  V30 1486 H 139.465 -1.20991 0.780838 0
M  V30 1487 H 141.418 -4.21199 -0.130147 0
M  V30 1488 H 140.142 -3.16617 -0.80134 0
M  V30 1489 H 138.801 -3.42173 1.3158 0
M  V30 1490 H 138.449 -4.99449 -0.596606 0
M  V30 1491 H 138.149 -5.79609 0.965788 0
M  V30 1492 H 139.673 -6.10539 0.0861567 0
M  V30 1493 H 141.087 -5.2913 2.20669 0
M  V30 1494 H 139.484 -5.20148 2.99276 0
M  V30 1495 H 140.554 -3.78834 3.02676 0
M  V30 1496 N 141.898 -0.863906 -1.31812 0
M  V30 1497 C 143.175 -0.39275 -1.91616 0
M  V30 1498 C 143.555 1.12461 -1.7865 0
M  V30 1499 O 142.903 1.95045 -1.19037 0
M  V30 1500 C 143.113 -0.867385 -3.38049 0
M  V30 1501 C 144.461 -0.889966 -4.15168 0
M  V30 1502 O 145.485 -0.812635 -3.46806 0
M  V30 1503 O 144.344 -1.00079 -5.37258 0
M  V30 1504 H 141.438 -0.116358 -0.818773 0
M  V30 1505 H 143.984 -0.951418 -1.40521 0
M  V30 1506 H 142.756 -1.91081 -3.41473 0
M  V30 1507 H 142.379 -0.286687 -3.96565 0
M  V30 1508 N 143.376 1.44774 -0.622745 0
M  V30 1509 C 144.339 2.29069 0.0774015 0
M  V30 1510 C 145.339 1.4059 0.780461 0
M  V30 1511 O 146.529 1.62551 0.626322 0
M  V30 1512 C 143.661 3.21974 1.12006 0
M  V30 1513 H 144.854 2.92459 -0.663901 0
M  V30 1514 H 142.407 1.51548 -0.382486 0
M  V30 1515 H 143.142 2.63417 1.89162 0
M  V30 1516 H 142.927 3.87168 0.619951 0
M  V30 1517 H 144.417 3.85318 1.60995 0
M  V30 1518 N 144.854 0.36279 1.53368 0
M  V30 1519 C 146.265 -0.117022 1.86333 0
M  V30 1520 C 146.616 -1.48397 1.28347 0
M  V30 1521 O 145.741 -2.07787 0.604428 0
M  V30 1522 C 146.336 -0.21912 3.38091 0
M  V30 1523 C 144.895 -0.643184 3.70864 0
M  V30 1524 C 144.042 0.211318 2.76494 0
M  V30 1525 H 146.993 0.581687 1.47655 0
M  V30 1526 H 147.014 -1.04319 3.6592 0
M  V30 1527 H 146.526 0.775902 3.80265 0
M  V30 1528 H 144.627 -1.64654 3.34245 0
M  V30 1529 H 144.74 -0.41973 4.77258 0
M  V30 1530 H 143.104 -0.319367 2.5269 0
M  V30 1531 H 143.887 1.20383 3.21501 0
M  V30 1532 N 146.332 -1.57332 0.0918853 0
M  V30 1533 C 147.578 -1.94524 -0.573425 0
M  V30 1534 C 147.911 -0.973578 -1.68033 0
M  V30 1535 O 147.186 -0.00609226 -1.94499 0
M  V30 1536 C 147.469 -3.41858 -1.13161 0
M  V30 1537 C 147.322 -4.4979 -0.0299747 0
M  V30 1538 C 148.641 -3.90435 -2.03098 0
M  V30 1539 H 145.76 -0.70734 -0.206975 0
M  V30 1540 H 148.402 -1.89309 0.161942 0
M  V30 1541 H 146.552 -3.46433 -1.7583 0
M  V30 1542 H 148.224 -4.57327 0.604112 0
M  V30 1543 H 146.467 -4.291 0.636833 0
M  V30 1544 H 147.138 -5.50069 -0.461287 0
M  V30 1545 H 149.614 -3.87992 -1.50338 0
M  V30 1546 H 148.49 -4.94097 -2.39081 0
M  V30 1547 H 148.751 -3.29541 -2.94712 0
M  V30 1548 N 147.81 0.181792 -1.56548 0
M  V30 1549 C 149.038 0.915947 -1.85521 0
M  V30 1550 C 149.453 1.76282 -0.676016 0
M  V30 1551 O 148.81 1.79012 0.355077 0
M  V30 1552 C 148.861 1.80126 -3.13427 0
M  V30 1553 O 148.582 0.988562 -4.26801 0
M  V30 1554 C 150.083 2.64597 -3.55673 0
M  V30 1555 H 147.303 0.26661 -0.61576 0
M  V30 1556 H 149.847 0.185039 -2.03661 0
M  V30 1557 H 148.002 2.48563 -2.97145 0
M  V30 1558 H 148.416 1.59308 -4.99721 0
M  V30 1559 H 149.89 3.2235 -4.48101 0
M  V30 1560 H 150.367 3.38958 -2.79292 0
M  V30 1561 H 150.973 2.0151 -3.74532 0
M  V30 1562 N 149.288 1.51039 0.449983 0
M  V30 1563 C 150.704 1.38934 0.785462 0
M  V30 1564 C 150.904 0.461817 1.96136 0
M  V30 1565 O 149.96 -0.0877389 2.52348 0
M  V30 1566 C 151.273 2.80724 1.0777 0
M  V30 1567 C 152.821 2.89787 1.1829 0
M  V30 1568 C 153.296 4.32457 1.50815 0
M  V30 1569 N 154.787 4.35505 1.57764 0
M  V30 1570 C 155.522 5.42914 1.84477 0
M  V30 1571 N 155.018 6.60502 2.09068 0
M  V30 1572 N 156.811 5.3038 1.86155 0
M  V30 1573 H 148.962 2.09904 -0.324647 0
M  V30 1574 H 151.225 0.944378 -0.0827957 0
M  V30 1575 H 150.931 3.50531 0.286498 0
M  V30 1576 H 150.805 3.19273 2.00859 0
M  V30 1577 H 153.192 2.20186 1.96474 0
M  V30 1578 H 153.273 2.54752 0.231314 0
M  V30 1579 H 152.917 5.02603 0.731622 0
M  V30 1580 H 152.847 4.64995 2.47158 0
M  V30 1581 H 155.338 3.50724 1.40715 0
M  V30 1582 H 155.651 7.38158 2.28785 0
M  V30 1583 H 153.996 6.63639 2.06416 0
M  V30 1584 H 157.187 4.37505 1.66454 0
M  V30 1585 H 157.36 6.1417 2.06637 0
M  V30 1586 N 150.766 -0.704594 1.40972 0
M  V30 1587 C 152.012 -1.46546 1.41053 0
M  V30 1588 C 152.367 -1.92393 0.0159714 0
M  V30 1589 O 151.66 -1.66017 -0.956506 0
M  V30 1590 C 151.854 -2.698 2.34399 0
M  V30 1591 C 151.683 -2.36008 3.82793 0
M  V30 1592 C 150.453 -2.26812 4.51536 0
M  V30 1593 C 152.651 -1.99565 4.74003 0
M  V30 1594 N 150.633 -1.8581 5.85105 0
M  V30 1595 C 152.004 -1.69251 5.96451 0
M  V30 1596 C 154.059 -1.86296 4.61734 0
M  V30 1597 C 152.762 -1.27003 7.07999 0
M  V30 1598 C 154.788 -1.45452 5.73234 0
M  V30 1599 C 154.15 -1.16043 6.94776 0
M  V30 1600 H 150.249 -0.533896 0.571383 0
M  V30 1601 H 152.833 -0.816061 1.76773 0
M  V30 1602 H 151.004 -3.32473 2.00789 0
M  V30 1603 H 152.736 -3.36214 2.25261 0
M  V30 1604 H 149.491 -2.44913 4.05357 0
M  V30 1605 H 149.915 -1.67817 6.55871 0
M  V30 1606 H 154.557 -2.0769 3.68273 0
M  V30 1607 H 152.275 -1.04353 8.01334 0
M  V30 1608 H 155.861 -1.35748 5.65742 0
M  V30 1609 H 154.741 -0.84915 7.79589 0
M  V30 1610 N 152.244 -1.26651 -0.937939 0
M  V30 1611 C 153.174 -1.10993 -2.05433 0
M  V30 1612 C 154.155 -0.0142161 -1.70094 0
M  V30 1613 O 155.34 -0.186837 -1.93299 0
M  V30 1614 C 152.47 -0.745561 -3.39203 0
M  V30 1615 C 151.424 -1.79337 -3.88616 0
M  V30 1616 C 150.75 -1.28324 -5.19073 0
M  V30 1617 C 152.05 -3.19553 -4.13138 0
M  V30 1618 H 153.744 -2.0438 -2.1879 0
M  V30 1619 H 151.29 -0.984041 -1.05131 0
M  V30 1620 H 153.243 -0.622888 -4.16771 0
M  V30 1621 H 151.967 0.22401 -3.25831 0
M  V30 1622 H 150.626 -1.90477 -3.13231 0
M  V30 1623 H 150.274 -0.303414 -5.02084 0
M  V30 1624 H 149.974 -1.98369 -5.53103 0
M  V30 1625 H 151.498 -1.1733 -5.99221 0
M  V30 1626 H 152.912 -3.11471 -4.81309 0
M  V30 1627 H 151.309 -3.87218 -4.58457 0
M  V30 1628 H 152.379 -3.65368 -3.18801 0
M  V30 1629 N 153.722 1.14298 -1.08507 0
M  V30 1630 C 155.133 1.66926 -0.836227 0
M  V30 1631 C 155.484 1.85576 0.63686 0
M  V30 1632 O 154.609 1.56767 1.49175 0
M  V30 1633 C 155.204 3.03219 -1.51142 0
M  V30 1634 C 153.763 3.52876 -1.30979 0
M  V30 1635 C 152.91 2.2833 -1.57356 0
M  V30 1636 H 155.861 0.983491 -1.24552 0
M  V30 1637 H 155.882 3.68726 -0.939211 0
M  V30 1638 H 155.394 2.89612 -2.58353 0
M  V30 1639 H 153.495 3.71703 -0.258429 0
M  V30 1640 H 153.608 4.33586 -2.03814 0
M  V30 1641 H 151.972 2.34454 -0.995164 0
M  V30 1642 H 152.755 2.17298 -2.65775 0
M  V30 1643 N 155.201 0.870884 1.31352 0
M  V30 1644 C 156.111 0.330783 2.32256 0
M  V30 1645 C 157.127 -0.559767 1.6475 0
M  V30 1646 O 158.303 -0.456263 1.96164 0
M  V30 1647 C 155.368 -0.458137 3.4366 0
M  V30 1648 C 154.429 0.460482 4.26823 0
M  V30 1649 C 153.662 -0.290881 5.32907 0
M  V30 1650 O 153.885 -1.51885 5.49806 0
M  V30 1651 O 152.819 0.351732 6.00871 0
M  V30 1652 H 156.645 1.16718 2.80376 0
M  V30 1653 H 154.23 0.634285 1.35267 0
M  V30 1654 H 156.112 -0.905343 4.1156 0
M  V30 1655 H 154.787 -1.27106 2.97701 0
M  V30 1656 H 153.694 0.956207 3.61673 0
M  V30 1657 H 155.027 1.23903 4.7635 0
M  V30 1658 N 156.679 -1.44442 0.630414 0
M  V30 1659 C 157.926 -2.02052 0.134617 0
M  V30 1660 C 158.254 -1.49576 -1.24327 0
M  V30 1661 O 157.509 -0.669806 -1.83881 0
M  V30 1662 C 157.808 -3.57332 0.0697835 0
M  V30 1663 C 157.474 -4.29058 1.38635 0
M  V30 1664 C 156.136 -4.4837 1.74694 0
M  V30 1665 C 158.488 -4.69872 2.25543 0
M  V30 1666 C 155.816 -5.05756 2.97369 0
M  V30 1667 C 158.168 -5.28616 3.47487 0
M  V30 1668 C 156.832 -5.46147 3.8377 0
M  V30 1669 H 156.102 -0.739361 0.0492598 0
M  V30 1670 H 158.749 -1.73217 0.816586 0
M  V30 1671 H 157.054 -3.85577 -0.695553 0
M  V30 1672 H 158.751 -3.99637 -0.330344 0
M  V30 1673 H 155.341 -4.14357 1.09574 0
M  V30 1674 H 159.525 -4.54666 1.98979 0
M  V30 1675 H 154.781 -5.17515 3.25558 0
M  V30 1676 H 158.955 -5.59192 4.15063 0
M  V30 1677 H 156.582 -5.9038 4.7891 0
M  V30 1678 N 158.157 -0.370918 -1.53173 0
M  V30 1679 C 159.573 -0.0200818 -1.59587 0
M  V30 1680 C 159.773 1.46279 -1.38581 0
M  V30 1681 O 158.829 2.22506 -1.19363 0
M  V30 1682 C 160.142 -0.4808 -2.96831 0
M  V30 1683 C 161.69 -0.435477 -3.09956 0
M  V30 1684 C 162.165 -0.872092 -4.4962 0
M  V30 1685 N 163.656 -0.827364 -4.55751 0
M  V30 1686 C 164.391 -1.13683 -5.62018 0
M  V30 1687 N 163.887 -1.51584 -6.76014 0
M  V30 1688 N 165.68 -1.05927 -5.52029 0
M  V30 1689 H 157.831 -1.33652 -1.65079 0
M  V30 1690 H 160.094 -0.546634 -0.774529 0
M  V30 1691 H 159.8 -1.51577 -3.1736 0
M  V30 1692 H 159.674 0.129796 -3.76977 0
M  V30 1693 H 162.061 0.590371 -2.89134 0
M  V30 1694 H 162.142 -1.08164 -2.31806 0
M  V30 1695 H 161.786 -1.89608 -4.71181 0
M  V30 1696 H 161.716 -0.203127 -5.26208 0
M  V30 1697 H 164.207 -0.548216 -3.73902 0
M  V30 1698 H 164.52 -1.73609 -7.53047 0
M  V30 1699 H 162.865 -1.55454 -6.77391 0
M  V30 1700 H 166.056 -0.762321 -4.61851 0
M  V30 1701 H 166.229 -1.30378 -6.34749 0
M  V30 1702 N 159.635 1.57281 -0.100228 0
M  V30 1703 C 161.046 1.81725 0.428107 0
M  V30 1704 C 161.397 1.01619 1.67833 0
M  V30 1705 O 160.522 0.247098 2.14985 0
M  V30 1706 C 161.117 3.29617 0.78347 0
M  V30 1707 C 159.676 3.54808 1.25653 0
M  V30 1708 C 158.823 2.76118 0.255752 0
M  V30 1709 H 161.774 1.55324 -0.325608 0
M  V30 1710 H 161.795 3.4322 1.64256 0
M  V30 1711 H 161.307 3.87893 -0.12665 0
M  V30 1712 H 159.408 3.01868 2.18418 0
M  V30 1713 H 159.521 4.63443 1.21482 0
M  V30 1714 H 157.885 2.43745 0.738956 0
M  V30 1715 H 158.668 3.37145 -0.647136 0
M  V30 1716 N 161.113 -0.173488 1.56642 0
M  V30 1717 C 162.529 -0.525174 1.50712 0
M  V30 1718 C 162.729 -1.8476 0.804107 0
M  V30 1719 O 161.785 -2.49869 0.363574 0
M  V30 1720 C 163.098 -0.559937 2.95441 0
M  V30 1721 C 164.646 -0.647288 3.06234 0
M  V30 1722 C 165.121 -0.712963 4.52417 0
M  V30 1723 N 166.612 -0.775911 4.56655 0
M  V30 1724 C 167.347 -0.847264 5.67106 0
M  V30 1725 N 166.843 -0.879585 6.87194 0
M  V30 1726 N 168.636 -0.886117 5.55071 0
M  V30 1727 H 160.787 0.693681 2.00753 0
M  V30 1728 H 163.05 0.249841 0.914485 0
M  V30 1729 H 162.756 0.343049 3.50023 0
M  V30 1730 H 162.63 -1.40718 3.49969 0
M  V30 1731 H 165.017 -1.5407 2.51687 0
M  V30 1732 H 165.098 0.226586 2.54794 0
M  V30 1733 H 164.742 0.176183 5.07594 0
M  V30 1734 H 164.672 -1.60295 5.0161 0
M  V30 1735 H 167.163 -0.759304 3.70193 0
M  V30 1736 H 167.476 -0.935144 7.67121 0
M  V30 1737 H 165.821 -0.847898 6.89808 0
M  V30 1738 H 169.012 -0.857853 4.60172 0
M  V30 1739 H 169.185 -0.938263 6.41171 0
M  V30 1740 N 162.591 -1.51276 -0.441967 0
M  V30 1741 C 163.521 -1.752 -1.54361 0
M  V30 1742 C 164.502 -0.601682 -1.59103 0
M  V30 1743 O 165.687 -0.843913 -1.74905 0
M  V30 1744 C 162.817 -1.87282 -2.92477 0
M  V30 1745 C 161.771 -3.02687 -3.02596 0
M  V30 1746 C 161.097 -2.99947 -4.42647 0
M  V30 1747 C 162.397 -4.4273 -2.77106 0
M  V30 1748 H 164.091 -2.67442 -1.34592 0
M  V30 1749 H 161.637 -1.28694 -0.646048 0
M  V30 1750 H 163.59 -2.02602 -3.695 0
M  V30 1751 H 162.314 -0.916844 -3.13467 0
M  V30 1752 H 160.973 -2.87065 -2.28012 0
M  V30 1753 H 160.621 -2.02136 -4.60597 0
M  V30 1754 H 160.321 -3.77439 -4.50348 0
M  V30 1755 H 161.845 -3.17354 -5.2165 0
M  V30 1756 H 163.259 -4.58727 -3.43864 0
M  V30 1757 H 161.656 -5.21893 -2.96222 0
M  V30 1758 H 162.726 -4.53087 -1.72744 0
M  V30 1759 N 164.069 0.697108 -1.41344 0
M  V30 1760 C 165.032 1.79281 -1.42797 0
M  V30 1761 C 166.032 1.57607 -0.318837 0
M  V30 1762 O 167.222 1.64309 -0.578642 0
M  V30 1763 C 164.354 3.17632 -1.23785 0
M  V30 1764 H 165.547 1.79385 -2.40335 0
M  V30 1765 H 163.1 0.904582 -1.27464 0
M  V30 1766 H 163.835 3.23167 -0.270814 0
M  V30 1767 H 163.62 3.34765 -2.04144 0
M  V30 1768 H 165.11 3.97617 -1.27633 0
M  V30 1769 N 165.547 1.27147 0.931209 0
M  V30 1770 C 166.824 1.0401 1.65654 0
M  V30 1771 C 167.204 -0.426297 2.06751 0
M  V30 1772 O 166.552 -1.40879 1.79904 0
M  V30 1773 C 166.762 1.99834 2.86125 0
M  V30 1774 C 168.11 2.29007 3.57549 0
M  V30 1775 O 169.134 1.97779 2.96246 0
M  V30 1776 O 167.993 2.82222 4.67989 0
M  V30 1777 H 165.087 0.396239 0.725895 0
M  V30 1778 H 167.633 1.38397 0.982056 0
M  V30 1779 H 166.405 2.98744 2.52721 0
M  V30 1780 H 166.028 1.65987 3.61295 0
M  V30 1781 N 167.025 -1.13721 1.09112 0
M  V30 1782 C 168.273 -1.84559 0.823562 0
M  V30 1783 C 168.594 -1.83754 -0.652658 0
M  V30 1784 O 167.864 -1.29102 -1.47342 0
M  V30 1785 H 166.444 -0.683376 0.301673 0
M  V30 1786 H 169.106 -1.37771 1.37859 0
M  V30 1787 H 168.202 -2.8917 1.17419 0
M  V30 1788 N 168.503 -0.877838 -1.30888 0
M  V30 1789 C 169.728 -0.506629 -2.01117 0
M  V30 1790 C 170.153 0.895564 -1.65412 0
M  V30 1791 O 169.511 1.5923 -0.866922 0
M  V30 1792 C 169.559 -0.680223 -3.54126 0
M  V30 1793 O 168.663 0.277033 -4.11468 0
M  V30 1794 H 168.004 -0.200518 -0.633 0
M  V30 1795 H 170.534 -1.18342 -1.66902 0
M  V30 1796 H 170.544 -0.5765 -4.03907 0
M  V30 1797 H 169.219 -1.70261 -3.79452 0
M  V30 1798 H 167.796 0.127606 -3.72682 0
M  V30 1799 N 169.982 1.44106 -0.638065 0
M  V30 1800 C 170.892 2.34513 0.0637334 0
M  V30 1801 C 171.908 1.53018 0.828346 0
M  V30 1802 O 173.084 1.85723 0.779036 0
M  V30 1803 C 170.149 3.31095 1.02844 0
M  V30 1804 C 169.21 4.28497 0.26244 0
M  V30 1805 C 168.443 5.20465 1.1812 0
M  V30 1806 O 168.666 5.16514 2.42011 0
M  V30 1807 O 167.6 5.98251 0.661774 0
M  V30 1808 H 171.426 2.95989 -0.68003 0
M  V30 1809 H 169.011 1.43994 -0.398252 0
M  V30 1810 H 170.893 3.90526 1.58327 0
M  V30 1811 H 169.568 2.72144 1.7527 0
M  V30 1812 H 168.475 3.72592 -0.335602 0
M  V30 1813 H 169.808 4.90388 -0.421936 0
M  V30 1814 N 171.46 0.379036 1.52974 0
M  V30 1815 C 172.871 -0.0972525 1.86447 0
M  V30 1816 C 173.222 -1.47027 1.29914 0
M  V30 1817 O 172.347 -2.07135 0.626433 0
M  V30 1818 C 172.942 -0.183248 3.38304 0
M  V30 1819 C 171.501 -0.603812 3.71525 0
M  V30 1820 C 170.648 0.240632 2.76254 0
M  V30 1821 H 173.599 0.597316 1.4703 0
M  V30 1822 H 173.62 -1.00432 3.67006 0
M  V30 1823 H 173.132 0.816191 3.79421 0
M  V30 1824 H 171.233 -1.61099 3.35973 0
M  V30 1825 H 171.346 -0.369086 4.77676 0
M  V30 1826 H 169.71 -0.292548 2.53014 0
M  V30 1827 H 170.493 1.23786 3.20206 0
M  V30 1828 N 172.938 -1.57226 0.108567 0
M  V30 1829 C 173.868 -2.17778 -0.84232 0
M  V30 1830 C 174.849 -1.11487 -1.2847 0
M  V30 1831 O 176.034 -1.39681 -1.34918 0
M  V30 1832 C 173.164 -2.76888 -2.09644 0
M  V30 1833 C 172.118 -3.88669 -1.79221 0
M  V30 1834 C 171.444 -4.34541 -3.11574 0
M  V30 1835 C 172.744 -5.11251 -1.06864 0
M  V30 1836 H 174.438 -2.97489 -0.337774 0
M  V30 1837 H 171.984 -1.43097 -0.161025 0
M  V30 1838 H 173.937 -3.17904 -2.76614 0
M  V30 1839 H 172.661 -1.94451 -2.62405 0
M  V30 1840 H 171.32 -3.48213 -1.14644 0
M  V30 1841 H 170.968 -3.48977 -3.62249 0
M  V30 1842 H 170.668 -5.09914 -2.91996 0
M  V30 1843 H 172.192 -4.782 -3.7968 0
M  V30 1844 H 173.606 -5.49352 -1.63968 0
M  V30 1845 H 172.003 -5.9214 -0.974178 0
M  V30 1846 H 173.073 -4.8487 -0.0536168 0
M  V30 1847 N 174.416 0.165178 -1.56732 0
M  V30 1848 C 175.662 0.882112 -1.82611 0
M  V30 1849 C 175.995 1.81628 -0.687378 0
M  V30 1850 O 175.27 1.92009 0.310267 0
M  V30 1851 C 175.553 1.67245 -3.18906 0
M  V30 1852 C 175.406 0.760987 -4.43316 0
M  V30 1853 C 176.725 2.63884 -3.52212 0
M  V30 1854 H 173.844 0.319242 -0.664269 0
M  V30 1855 H 176.486 0.148052 -1.89422 0
M  V30 1856 H 174.636 2.29824 -3.1323 0
M  V30 1857 H 176.308 0.147596 -4.61064 0
M  V30 1858 H 174.551 0.0694102 -4.33744 0
M  V30 1859 H 175.222 1.34962 -5.35247 0
M  V30 1860 H 177.698 2.11429 -3.58381 0
M  V30 1861 H 176.574 3.16245 -4.48643 0
M  V30 1862 H 176.835 3.44377 -2.77231 0
M  V30 1863 N 175.894 1.51508 0.433938 0
M  V30 1864 C 177.122 1.68157 1.20543 0
M  V30 1865 C 177.537 0.380362 1.84929 0
M  V30 1866 O 176.894 -0.641446 1.70856 0
M  V30 1867 C 176.945 2.79965 2.28696 0
M  V30 1868 O 176.666 4.05045 1.66943 0
M  V30 1869 C 178.167 3.07912 3.18912 0
M  V30 1870 H 175.387 0.56421 0.363191 0
M  V30 1871 H 177.931 1.97941 0.513754 0
M  V30 1872 H 176.086 2.5277 2.93574 0
M  V30 1873 H 176.5 4.67165 2.38448 0
M  V30 1874 H 177.974 3.89719 3.90926 0
M  V30 1875 H 178.451 2.20456 3.79863 0
M  V30 1876 H 179.057 3.36779 2.59731 0
M  V30 1877 N 177.372 -0.689602 1.41712 0
M  V30 1878 C 178.621 -1.44534 1.40686 0
M  V30 1879 C 178.934 -1.95588 0.0213352 0
M  V30 1880 O 180.14 -2.71271 -0.111534 0
M  V30 1881 C 178.596 -2.61387 2.47396 0
M  V30 1882 C 178.204 -2.17094 3.91885 0
M  V30 1883 C 179.948 -3.38986 2.55517 0
M  V30 1884 C 177.855 -3.3094 4.90135 0
M  V30 1885 H 176.785 -0.542925 0.52321 0
M  V30 1886 H 179.436 -0.748054 1.6756 0
M  V30 1887 H 177.818 -3.33412 2.13664 0
M  V30 1888 H 178.992 -1.52318 4.34897 0
M  V30 1889 H 177.307 -1.52473 3.8748 0
M  V30 1890 H 179.904 -4.23747 3.26102 0
M  V30 1891 H 180.247 -3.84578 1.59391 0
M  V30 1892 H 180.78 -2.74021 2.8837 0
M  V30 1893 H 177.519 -2.90355 5.87685 0
M  V30 1894 H 177.039 -3.94546 4.51767 0
M  V30 1895 H 178.718 -3.9663 5.11169 0
M  V30 1896 N 178.85 -1.27639 -0.924453 0
M  V30 1897 C 179.8 -1.07295 -2.01176 0
M  V30 1898 C 180.784 5.77352e-05 -1.609 0
M  V30 1899 O 181.976 -0.218855 -1.75642 0
M  V30 1900 C 179.105 -0.725592 -3.35544 0
M  V30 1901 C 178.191 -1.83691 -3.82254 0
M  V30 1902 N 178.582 -3.07697 -4.01443 0
M  V30 1903 C 176.88 -1.72433 -4.11319 0
M  V30 1904 C 177.581 -3.80037 -4.40394 0
M  V30 1905 N 176.557 -3.0782 -4.48049 0
M  V30 1906 H 180.359 -2.01399 -2.14046 0
M  V30 1907 H 177.873 -1.18401 -1.11153 0
M  V30 1908 H 179.87 -0.560959 -4.13109 0
M  V30 1909 H 178.53 0.207782 -3.24034 0
M  V30 1910 H 179.541 -3.43424 -3.8766 0
M  V30 1911 H 176.218 -0.862005 -4.08504 0
M  V30 1912 H 177.608 -4.86632 -4.63291 0
M  V30 1913 N 180.328 1.1314 -1.09713 0
M  V30 1914 C 181.278 2.16709 -0.708593 0
M  V30 1915 C 182.262 1.58471 0.278523 0
M  V30 1916 O 183.454 1.76779 0.088427 0
M  V30 1917 C 180.583 3.43039 -0.133923 0
M  V30 1918 C 179.669 4.08277 -1.14763 0
M  V30 1919 N 180.06 4.48637 -2.33577 0
M  V30 1920 C 178.358 4.34954 -0.986446 0
M  V30 1921 C 179.059 4.9952 -2.98085 0
M  V30 1922 N 178.035 4.94561 -2.25632 0
M  V30 1923 H 181.837 2.45672 -1.61315 0
M  V30 1924 H 179.351 1.29967 -0.973775 0
M  V30 1925 H 181.348 4.16583 0.162465 0
M  V30 1926 H 180.008 3.15549 0.765447 0
M  V30 1927 H 181.019 4.41246 -2.7115 0
M  V30 1928 H 177.696 4.17258 -0.142008 0
M  V30 1929 H 179.086 5.40521 -3.99108 0
M  V30 1930 N 181.806 0.884767 1.30421 0
M  V30 1931 C 182.736 0.367574 2.30589 0
M  V30 1932 C 183.717 -0.549464 1.60981 0
M  V30 1933 O 184.902 -0.46336 1.88591 0
M  V30 1934 C 182.032 -0.418944 3.44764 0
M  V30 1935 C 180.986 0.406316 4.26067 0
M  V30 1936 C 180.312 -0.506793 5.32293 0
M  V30 1937 C 181.612 1.64832 4.95608 0
M  V30 1938 H 183.306 1.20462 2.74097 0
M  V30 1939 H 180.852 0.580695 1.31772 0
M  V30 1940 H 182.805 -0.791395 4.13902 0
M  V30 1941 H 181.529 -1.28964 3.0006 0
M  V30 1942 H 180.188 0.760903 3.58617 0
M  V30 1943 H 179.836 -1.37519 4.83836 0
M  V30 1944 H 179.536 0.0415828 5.87585 0
M  V30 1945 H 181.06 -0.875764 6.04287 0
M  V30 1946 H 182.474 1.34646 5.57264 0
M  V30 1947 H 180.871 2.13688 5.60765 0
M  V30 1948 H 181.941 2.39284 4.21748 0
M  V30 1949 N 183.284 -1.43765 0.645699 0
M  V30 1950 C 184.214 -2.33471 -0.0370477 0
M  V30 1951 C 185.195 -1.49042 -0.819779 0
M  V30 1952 O 186.38 -1.77726 -0.782758 0
M  V30 1953 C 183.51 -3.32311 -1.0093 0
M  V30 1954 C 182.464 -4.2667 -0.337201 0
M  V30 1955 C 181.79 -5.1549 -1.42037 0
M  V30 1956 C 183.09 -5.16657 0.765706 0
M  V30 1957 H 184.784 -2.90809 0.712069 0
M  V30 1958 H 182.33 -1.39834 0.343876 0
M  V30 1959 H 184.283 -3.9396 -1.49578 0
M  V30 1960 H 183.007 -2.73213 -1.78948 0
M  V30 1961 H 181.666 -3.66374 0.128771 0
M  V30 1962 H 181.314 -4.52735 -2.1918 0
M  V30 1963 H 181.014 -5.79438 -0.975966 0
M  V30 1964 H 182.538 -5.80012 -1.90838 0
M  V30 1965 H 183.952 -5.72158 0.361702 0
M  V30 1966 H 182.349 -5.89286 1.13413 0
M  V30 1967 H 183.419 -4.56796 1.62683 0
M  V30 1968 N 184.763 -0.387143 -1.52771 0
M  V30 1969 C 185.991 0.195869 -2.05971 0
M  V30 1970 C 186.406 1.40691 -1.25903 0
M  V30 1971 O 185.763 1.79931 -0.305134 0
M  V30 1972 C 185.814 0.56812 -3.57008 0
M  V30 1973 O 185.535 -0.594803 -4.34043 0
M  V30 1974 C 187.036 1.20723 -4.26545 0
M  V30 1975 H 184.256 0.0300578 -0.670326 0
M  V30 1976 H 186.8 -0.551749 -1.96916 0
M  V30 1977 H 184.955 1.26564 -3.66143 0
M  V30 1978 H 185.369 -0.289322 -5.23701 0
M  V30 1979 H 186.843 1.41807 -5.33474 0
M  V30 1980 H 187.32 2.17395 -3.81623 0
M  V30 1981 H 187.926 0.550535 -4.21722 0
M  V30 1982 N 186.241 1.57166 -0.116904 0
M  V30 1983 C 187.191 2.11756 0.845178 0
M  V30 1984 C 188.175 1.03783 1.22955 0
M  V30 1985 O 189.367 1.3002 1.20099 0
M  V30 1986 C 186.496 2.71886 2.09602 0
M  V30 1987 C 185.582 3.86937 1.7361 0
M  V30 1988 N 185.973 4.94073 1.08284 0
M  V30 1989 C 184.271 3.97082 2.03082 0
M  V30 1990 C 184.972 5.74477 0.913855 0
M  V30 1991 N 183.948 5.2423 1.43818 0
M  V30 1992 H 187.75 2.91967 0.336523 0
M  V30 1993 H 185.264 1.62174 0.0856332 0
M  V30 1994 H 187.261 3.09338 2.79492 0
M  V30 1995 H 185.921 1.93138 2.61013 0
M  V30 1996 H 186.932 5.12483 0.747067 0
M  V30 1997 H 183.609 3.29372 2.56554 0
M  V30 1998 H 184.999 6.70701 0.40125 0
M  V30 1999 N 187.719 -0.156864 1.56817 0
M  V30 2000 C 188.947 -0.886316 1.86955 0
M  V30 2001 C 189.362 -1.75185 0.703975 0
M  V30 2002 O 188.719 -1.79555 -0.326552 0
M  V30 2003 C 188.77 -1.75117 3.16253 0
M  V30 2004 O 188.491 -0.920537 4.2832 0
M  V30 2005 C 189.992 -2.58905 3.59837 0
M  V30 2006 H 187.212 -0.25678 0.619923 0
M  V30 2007 H 189.756 -0.152615 2.0393 0
M  V30 2008 H 187.911 -2.43805 3.01062 0
M  V30 2009 H 188.325 -1.51337 5.02192 0
M  V30 2010 H 189.799 -3.1518 4.53172 0
M  V30 2011 H 190.276 -3.34472 2.84649 0
M  V30 2012 H 190.882 -1.95526 3.7769 0
M  V30 2013 N 189.197 -1.51736 -0.425897 0
M  V30 2014 C 190.422 -1.69082 -1.20108 0
M  V30 2015 C 190.847 -0.392398 -1.83962 0
M  V30 2016 O 190.205 0.64858 -1.69302 0
M  V30 2017 C 190.253 -2.81604 -2.25237 0
M  V30 2018 O 189.357 -2.46004 -3.30992 0
M  V30 2019 H 188.698 -0.563408 -0.35138 0
M  V30 2020 H 191.228 -1.98358 -0.501512 0
M  V30 2021 H 191.238 -3.06025 -2.69838 0
M  V30 2022 H 189.913 -3.75817 -1.78142 0
M  V30 2023 H 188.49 -2.32195 -2.91787 0
M  V30 2024 N 190.675 0.682077 -1.42076 0
M  V30 2025 C 191.923 1.4393 -1.41876 0
M  V30 2026 C 192.244 1.94971 -0.0335599 0
M  V30 2027 O 191.514 1.72591 0.926773 0
M  V30 2028 H 190.094 0.534085 -0.522267 0
M  V30 2029 H 192.756 0.806427 -1.77434 0
M  V30 2030 H 191.852 2.29588 -2.11414 0
M  V30 2031 N 192.153 1.28127 0.917671 0
M  V30 2032 C 193.083 1.14248 2.03641 0
M  V30 2033 C 194.064 0.0412748 1.7005 0
M  V30 2034 O 195.249 0.217566 1.92977 0
M  V30 2035 C 192.379 0.799431 3.37974 0
M  V30 2036 C 191.333 1.85497 3.85713 0
M  V30 2037 C 190.659 1.36565 5.16966 0
M  V30 2038 C 191.959 3.26085 4.08002 0
M  V30 2039 H 193.653 2.07835 2.15511 0
M  V30 2040 H 191.199 1.00064 1.03553 0
M  V30 2041 H 193.152 0.689114 4.15727 0
M  V30 2042 H 191.876 -0.172145 3.26146 0
M  V30 2043 H 190.535 1.95437 3.10161 0
M  V30 2044 H 190.183 0.383253 5.01538 0
M  V30 2045 H 189.883 2.07143 5.49878 0
M  V30 2046 H 191.407 1.26848 5.97279 0
M  V30 2047 H 192.821 3.19089 4.76293 0
M  V30 2048 H 191.218 3.94462 4.52238 0
M  V30 2049 H 192.288 3.70394 3.12948 0
M  V30 2050 N 193.631 -1.12557 1.10312 0
M  V30 2051 C 194.879 -1.83675 0.843091 0
M  V30 2052 C 195.2 -1.84435 -0.633131 0
M  V30 2053 O 194.47 -1.30657 -1.45964 0
M  V30 2054 H 193.05 -0.680138 0.308904 0
M  V30 2055 H 195.712 -1.36301 1.39313 0
M  V30 2056 H 194.808 -2.87908 1.2048 0
M  V30 2057 N 195.109 -0.891671 -1.2995 0
M  V30 2058 C 196.339 -0.527893 -1.99742 0
M  V30 2059 C 196.747 0.88979 -1.66971 0
M  V30 2060 O 196.09 1.59766 -0.906667 0
M  V30 2061 C 196.152 -0.630804 -3.53922 0
M  V30 2062 C 195.816 -2.01401 -4.10228 0
M  V30 2063 C 196.813 -2.98422 -4.25724 0
M  V30 2064 C 194.498 -2.32121 -4.45449 0
M  V30 2065 C 196.492 -4.24293 -4.75662 0
M  V30 2066 C 194.179 -3.58237 -4.95086 0
M  V30 2067 C 195.177 -4.54137 -5.10146 0
M  V30 2068 O 194.865 -5.78014 -5.58708 0
M  V30 2069 H 194.597 -0.201953 -0.645129 0
M  V30 2070 H 197.151 -1.20076 -1.66646 0
M  V30 2071 H 195.381 0.0990616 -3.86573 0
M  V30 2072 H 197.07 -0.277338 -4.04951 0
M  V30 2073 H 197.836 -2.76001 -3.98809 0
M  V30 2074 H 193.715 -1.5824 -4.32991 0
M  V30 2075 H 197.259 -4.99153 -4.87332 0
M  V30 2076 H 193.156 -3.80491 -5.21437 0
M  V30 2077 H 193.924 -5.8049 -5.77039 0
M  V30 2078 N 196.587 1.43421 -0.653314 0
M  V30 2079 C 197.833 2.02641 -0.175593 0
M  V30 2080 C 198.188 1.5062 1.19713 0
M  V30 2081 O 197.481 0.689697 1.78756 0
M  V30 2082 C 197.675 3.57176 -0.126623 0
M  V30 2083 C 197.504 4.24191 -1.49306 0
M  V30 2084 C 196.274 4.60257 -2.08547 0
M  V30 2085 C 198.472 4.53193 -2.43148 0
M  V30 2086 N 196.454 5.12345 -3.38194 0
M  V30 2087 C 197.825 5.06601 -3.57429 0
M  V30 2088 C 199.88 4.35161 -2.41949 0
M  V30 2089 C 198.583 5.43875 -4.70736 0
M  V30 2090 C 200.609 4.73498 -3.54336 0
M  V30 2091 C 199.971 5.27039 -4.67343 0
M  V30 2092 H 196.07 0.77441 -0.108686 0
M  V30 2093 H 198.654 1.74596 -0.861638 0
M  V30 2094 H 196.825 3.84784 0.528766 0
M  V30 2095 H 198.557 4.03078 0.36198 0
M  V30 2096 H 195.312 4.45302 -1.61255 0
M  V30 2097 H 195.736 5.42842 -4.04538 0
M  V30 2098 H 200.378 3.9304 -1.55818 0
M  V30 2099 H 198.096 5.8494 -5.57558 0
M  V30 2100 H 201.682 4.61241 -3.5461 0
M  V30 2101 H 200.562 5.56153 -5.52868 0
M  V30 2102 N 198.065 0.39524 1.52563 0
M  V30 2103 C 198.995 -0.428384 2.29537 0
M  V30 2104 C 199.976 -1.05831 1.33169 0
M  V30 2105 O 201.161 -1.06995 1.62067 0
M  V30 2106 C 198.291 -1.55274 3.10656 0
M  V30 2107 C 197.245 -1.04855 4.14957 0
M  V30 2108 C 196.571 -2.26543 4.84337 0
M  V30 2109 C 197.871 -0.112324 5.22179 0
M  V30 2110 H 199.565 0.213867 2.98635 0
M  V30 2111 H 197.111 0.104298 1.43622 0
M  V30 2112 H 199.064 -2.1358 3.63265 0
M  V30 2113 H 197.788 -2.22266 2.39302 0
M  V30 2114 H 196.447 -0.487985 3.63338 0
M  V30 2115 H 196.095 -2.92059 4.09525 0
M  V30 2116 H 195.795 -1.93466 5.54837 0
M  V30 2117 H 197.319 -2.85481 5.39753 0
M  V30 2118 H 198.733 -0.603752 5.70112 0
M  V30 2119 H 197.13 0.128968 5.99961 0
M  V30 2120 H 198.2 0.837052 4.77621 0
M  V30 2121 N 199.544 -1.57102 0.125237 0
M  V30 2122 C 200.474 -2.18659 -0.819174 0
M  V30 2123 C 201.455 -1.12843 -1.27281 0
M  V30 2124 O 202.64 -1.41104 -1.33429 0
M  V30 2125 C 199.77 -2.79096 -2.06695 0
M  V30 2126 C 198.724 -3.90548 -1.75088 0
M  V30 2127 C 198.05 -4.37821 -3.06948 0
M  V30 2128 C 199.35 -5.12356 -1.01435 0
M  V30 2129 H 201.044 -2.9783 -0.306202 0
M  V30 2130 H 198.59 -1.4326 -0.145839 0
M  V30 2131 H 200.543 -3.2082 -2.73226 0
M  V30 2132 H 199.267 -1.97223 -2.60328 0
M  V30 2133 H 197.926 -3.49409 -1.10944 0
M  V30 2134 H 197.574 -3.52799 -3.58527 0
M  V30 2135 H 197.274 -5.12982 -2.86571 0
M  V30 2136 H 198.798 -4.822 -3.74587 0
M  V30 2137 H 200.212 -5.5106 -1.58132 0
M  V30 2138 H 198.609 -5.9314 -0.911319 0
M  V30 2139 H 199.679 -4.849 -0.00218681 0
M  V30 2140 N 201.022 0.148545 -1.56898 0
M  V30 2141 C 201.932 1.20293 -2.01412 0
M  V30 2142 C 202.948 1.47107 -0.929273 0
M  V30 2143 O 204.124 1.58807 -1.23863 0
M  V30 2144 C 201.189 2.51682 -2.38447 0
M  V30 2145 C 200.25 2.32529 -3.60872 0
M  V30 2146 C 199.483 3.57653 -3.96132 0
M  V30 2147 O 199.706 4.63771 -3.32073 0
M  V30 2148 O 198.64 3.50408 -4.89385 0
M  V30 2149 H 202.466 0.855025 -2.91416 0
M  V30 2150 H 200.051 0.357151 -1.45068 0
M  V30 2151 H 201.933 3.29147 -2.63135 0
M  V30 2152 H 200.608 2.86006 -1.51599 0
M  V30 2153 H 199.515 1.53019 -3.41373 0
M  V30 2154 H 200.848 2.03121 -4.48333 0
M  V30 2155 N 202.5 1.5196 0.417844 0
M  V30 2156 C 203.748 1.65263 1.16329 0
M  V30 2157 C 204.069 0.380634 1.91249 0
M  V30 2158 O 203.339 -0.604214 1.86349 0
M  V30 2159 H 201.919 0.60912 0.432414 0
M  V30 2160 H 204.581 1.88969 0.477162 0
M  V30 2161 H 203.677 2.4896 1.88217 0
M  V30 2162 N 203.978 -0.674533 1.42435 0
M  V30 2163 C 204.941 -1.76986 1.45632 0
M  V30 2164 C 205.941 -1.5708 0.343871 0
M  V30 2165 O 207.131 -1.63367 0.604709 0
M  V30 2166 C 204.263 -3.15623 1.28822 0
M  V30 2167 H 205.456 -1.75539 2.43158 0
M  V30 2168 H 203.009 -0.884189 1.28887 0
M  V30 2169 H 203.744 -3.22696 0.322193 0
M  V30 2170 H 203.529 -3.31475 2.09444 0
M  V30 2171 H 205.019 -3.95537 1.33942 0
M  V30 2172 N 205.456 -1.28612 -0.910864 0
M  V30 2173 C 206.704 -1.15705 -1.65701 0
M  V30 2174 C 207.025 0.29416 -1.92769 0
M  V30 2175 O 206.295 1.20331 -1.54588 0
M  V30 2176 H 204.875 -0.425216 -0.614167 0
M  V30 2177 H 207.537 -1.61381 -1.0928 0
M  V30 2178 H 206.633 -1.6988 -2.61815 0
M  V30 2179 N 206.934 1.1197 -1.10907 0
M  V30 2180 C 208.159 1.87942 -0.877064 0
M  V30 2181 C 208.584 1.79341 0.567314 0
M  V30 2182 O 207.942 1.15184 1.40009 0
M  V30 2183 C 207.99 3.34926 -1.33629 0
M  V30 2184 O 207.094 4.09303 -0.504447 0
M  V30 2185 H 206.435 0.583785 -0.316371 0
M  V30 2186 H 208.965 1.4157 -1.47712 0
M  V30 2187 H 208.975 3.8577 -1.32837 0
M  V30 2188 H 207.65 3.40504 -2.3881 0
M  V30 2189 H 206.227 3.68393 -0.577993 0
M  V30 2190 N 208.412 0.89855 1.29475 0
M  V30 2191 C 209.658 0.524658 1.95896 0
M  V30 2192 C 209.991 -0.926468 1.70676 0
M  V30 2193 O 209.266 -1.65665 1.01908 0
M  V30 2194 C 209.549 0.81633 3.50725 0
M  V30 2195 C 209.402 2.31907 3.85408 0
M  V30 2196 C 210.721 0.302038 4.39062 0
M  V30 2197 H 207.84 0.19209 0.711527 0
M  V30 2198 H 210.482 1.12502 1.53112 0
M  V30 2199 H 208.632 0.305369 3.87298 0
M  V30 2200 H 210.304 2.89949 3.58786 0
M  V30 2201 H 208.547 2.78027 3.32992 0
M  V30 2202 H 209.218 2.47373 4.93468 0
M  V30 2203 H 211.694 0.739551 4.09475 0
M  V30 2204 H 210.57 0.535331 5.46283 0
M  V30 2205 H 210.831 -0.797216 4.34853 0
M  V30 2206 N 209.89 -1.43072 0.660911 0
M  V30 2207 C 211.12 -2.05769 0.185153 0
M  V30 2208 C 211.528 -1.49668 -1.15742 0
M  V30 2209 O 210.871 -0.625649 -1.72717 0
M  V30 2210 C 210.933 -3.59489 0.0278237 0
M  V30 2211 C 210.597 -4.38212 1.2969 0
M  V30 2212 C 211.594 -4.69772 2.22734 0
M  V30 2213 C 209.279 -4.7809 1.54063 0
M  V30 2214 C 211.273 -5.40129 3.38437 0
M  V30 2215 C 208.96 -5.4819 2.70058 0
M  V30 2216 C 209.958 -5.79132 3.62071 0
M  V30 2217 O 209.646 -6.47798 4.76039 0
M  V30 2218 H 209.378 -0.669873 0.0908086 0
M  V30 2219 H 211.932 -1.84436 0.90402 0
M  V30 2220 H 210.162 -3.79426 -0.746489 0
M  V30 2221 H 211.851 -4.03862 -0.406275 0
M  V30 2222 H 212.617 -4.39476 2.05149 0
M  V30 2223 H 208.496 -4.53408 0.833215 0
M  V30 2224 H 212.04 -5.64198 4.10277 0
M  V30 2225 H 207.937 -5.77902 2.87574 0
M  V30 2226 H 208.705 -6.66283 4.75404 0
M  V30 2227 N 211.368 -0.403325 -1.52352 0
M  V30 2228 C 212.645 0.232611 -1.94212 0
M  V30 2229 C 213.025 1.63133 -1.33981 0
M  V30 2230 O 212.373 2.22659 -0.513344 0
M  V30 2231 C 212.583 0.244811 -3.4814 0
M  V30 2232 C 213.931 0.46698 -4.22024 0
M  V30 2233 O 214.955 0.324419 -3.5472 0
M  V30 2234 O 213.814 0.74747 -5.41364 0
M  V30 2235 H 210.908 0.148223 -0.813609 0
M  V30 2236 H 213.454 -0.458848 -1.63379 0
M  V30 2237 H 212.226 -0.734378 -3.84347 0
M  V30 2238 H 211.849 0.980611 -3.85318 0
M  V30 2239 N 212.846 1.57033 -0.133567 0
M  V30 2240 C 214.262 1.58035 0.222944 0
M  V30 2241 C 214.462 1.14713 1.6566 0
M  V30 2242 O 213.518 0.841218 2.38075 0
M  V30 2243 C 214.831 3.00691 -0.0236116 0
M  V30 2244 C 216.379 3.12973 0.0411512 0
M  V30 2245 C 216.854 4.57654 -0.177899 0
M  V30 2246 N 218.345 4.63033 -0.124365 0
M  V30 2247 C 219.08 5.72771 -0.268553 0
M  V30 2248 N 218.576 6.91206 -0.46972 0
M  V30 2249 N 220.369 5.61718 -0.2071 0
M  V30 2250 H 212.52 1.8349 -1.06981 0
M  V30 2251 H 214.783 0.848677 -0.422436 0
M  V30 2252 H 214.489 3.36726 -1.0153 0
M  V30 2253 H 214.363 3.70614 0.701808 0
M  V30 2254 H 216.75 2.76787 1.02338 0
M  V30 2255 H 216.831 2.45564 -0.716383 0
M  V30 2256 H 216.475 4.94542 -1.15717 0
M  V30 2257 H 216.405 5.23173 0.599797 0
M  V30 2258 H 218.896 3.7789 0.027011 0
M  V30 2259 H 219.209 7.70693 -0.570212 0
M  V30 2260 H 217.554 6.93156 -0.505876 0
M  V30 2261 H 220.745 4.68072 -0.0507986 0
M  V30 2262 H 220.918 6.47195 -0.322909 0
M  V30 2263 N 214.325 -0.140222 1.56975 0
M  V30 2264 C 215.255 -1.17456 2.01808 0
M  V30 2265 C 216.236 -1.44415 0.898794 0
M  V30 2266 O 217.421 -1.5522 1.16707 0
M  V30 2267 C 214.551 -2.50607 2.40444 0
M  V30 2268 C 213.505 -2.38155 3.55621 0
M  V30 2269 C 212.831 -3.76078 3.80091 0
M  V30 2270 C 214.131 -1.85991 4.88062 0
M  V30 2271 H 215.825 -0.801743 2.88466 0
M  V30 2272 H 213.371 -0.38422 1.38779 0
M  V30 2273 H 215.324 -3.23197 2.7041 0
M  V30 2274 H 214.048 -2.89737 1.50732 0
M  V30 2275 H 212.707 -1.68016 3.25832 0
M  V30 2276 H 212.355 -4.12656 2.87618 0
M  V30 2277 H 212.055 -3.68606 4.57606 0
M  V30 2278 H 213.579 -4.50206 4.12488 0
M  V30 2279 H 214.993 -2.4838 5.16701 0
M  V30 2280 H 213.39 -1.89393 5.6943 0
M  V30 2281 H 214.46 -0.816023 4.77984 0
M  V30 2282 N 215.803 -1.52179 -0.40978 0
M  V30 2283 C 217.051 -1.65878 -1.15451 0
M  V30 2284 C 217.372 -0.390771 -1.91044 0
M  V30 2285 O 216.642 0.594323 -1.86667 0
M  V30 2286 H 215.222 -0.611405 -0.429177 0
M  V30 2287 H 217.884 -1.89219 -0.467134 0
M  V30 2288 H 216.98 -2.49954 -1.86894 0
M  V30 2289 N 217.281 0.66697 -1.42791 0
M  V30 2290 C 218.53 1.42278 -1.42968 0
M  V30 2291 C 218.843 1.9553 -0.0524489 0
M  V30 2292 O 220.049 2.71414 0.068363 0
M  V30 2293 C 218.505 2.57418 -2.51524 0
M  V30 2294 C 218.113 2.10832 -3.9529 0
M  V30 2295 C 219.857 3.34878 -2.60877 0
M  V30 2296 C 217.764 3.23101 -4.95338 0
M  V30 2297 H 216.694 0.534533 -0.531781 0
M  V30 2298 H 219.345 0.721302 -1.68729 0
M  V30 2299 H 217.727 3.29971 -2.18941 0
M  V30 2300 H 218.901 1.4538 -4.37266 0
M  V30 2301 H 217.216 1.46289 -3.89857 0
M  V30 2302 H 219.813 4.18505 -3.32802 0
M  V30 2303 H 220.156 3.81993 -1.6549 0
M  V30 2304 H 220.689 2.69398 -2.92693 0
M  V30 2305 H 217.428 2.80969 -5.9223 0
M  V30 2306 H 216.948 3.87309 -4.57987 0
M  V30 2307 H 218.627 3.88447 -5.17415 0
M  V30 2308 N 218.759 1.29093 0.90403 0
M  V30 2309 C 219.984 1.19809 1.69294 0
M  V30 2310 C 220.409 -0.238481 1.86582 0
M  V30 2311 O 219.767 -1.1723 1.383 0
M  V30 2312 C 219.815 1.91202 3.05736 0
M  V30 2313 O 218.919 1.22611 3.93752 0
M  V30 2314 H 218.26 0.415385 0.518027 0
M  V30 2315 H 220.79 1.70586 1.12967 0
M  V30 2316 H 220.8 1.99487 3.55906 0
M  V30 2317 H 219.475 2.95692 2.92471 0
M  V30 2318 H 218.052 1.22554 3.52186 0
M  V30 2319 N 220.237 -1.11381 1.11499 0
M  V30 2320 C 221.514 -1.7955 0.775965 0
M  V30 2321 C 221.894 -1.97859 -0.73588 0
M  V30 2322 O 221.242 -1.56376 -1.66609 0
M  V30 2323 C 221.452 -3.13196 1.53977 0
M  V30 2324 C 222.8 -3.88227 1.71944 0
M  V30 2325 O 223.824 -3.22887 1.50407 0
M  V30 2326 O 222.683 -5.05477 2.07738 0
M  V30 2327 H 219.777 -0.777728 0.28119 0
M  V30 2328 H 222.323 -1.18118 1.21845 0
M  V30 2329 H 221.095 -2.95229 2.56818 0
M  V30 2330 H 220.718 -3.82342 1.09088 0
M  V30 2331 N 221.715 -0.905404 -1.28997 0
M  V30 2332 C 222.963 -0.533192 -1.9494 0
M  V30 2333 C 223.284 0.924618 -1.71685 0
M  V30 2334 O 222.554 1.65268 -1.05183 0
M  V30 2335 H 221.134 -0.194194 -0.721317 0
M  V30 2336 H 223.796 -1.15294 -1.57141 0
M  V30 2337 H 222.892 -0.72059 -3.03667 0
M  V30 2338 N 223.193 1.4272 -0.668489 0
M  V30 2339 C 224.442 2.00846 -0.185389 0
M  V30 2340 C 224.755 1.53442 1.21305 0
M  V30 2341 O 225.961 2.03944 1.79218 0
M  V30 2342 C 224.417 3.58805 -0.280591 0
M  V30 2343 C 224.025 4.15198 -1.68268 0
M  V30 2344 C 225.769 4.24255 0.14412 0
M  V30 2345 C 223.676 5.655 -1.73099 0
M  V30 2346 H 222.606 0.751145 -0.0655475 0
M  V30 2347 H 225.257 1.63516 -0.832752 0
M  V30 2348 H 223.639 3.93608 0.434553 0
M  V30 2349 H 224.813 3.91866 -2.42441 0
M  V30 2350 H 223.128 3.62176 -2.05469 0
M  V30 2351 H 225.725 5.34547 0.128086 0
M  V30 2352 H 226.068 3.99277 1.17827 0
M  V30 2353 H 226.601 3.94389 -0.519798 0
M  V30 2354 H 223.34 5.95268 -2.74475 0
M  V30 2355 H 222.86 5.90842 -1.03274 0
M  V30 2356 H 224.539 6.29808 -1.48158 0
M  V30 2357 N 224.671 0.411399 1.52136 0
M  V30 2358 C 225.948 -0.222308 1.94333 0
M  V30 2359 C 226.328 -1.6242 1.34844 0
M  V30 2360 O 225.676 -2.22384 0.525145 0
M  V30 2361 C 225.886 -0.226345 3.48265 0
M  V30 2362 C 227.234 -0.444592 4.22266 0
M  V30 2363 O 228.258 -0.305602 3.54887 0
M  V30 2364 O 227.117 -0.718749 5.41753 0
M  V30 2365 H 224.211 -0.143907 0.814383 0
M  V30 2366 H 226.757 0.467506 1.63133 0
M  V30 2367 H 225.529 0.75475 3.83952 0
M  V30 2368 H 225.152 -0.960163 3.85832 0
M  V30 2369 N 226.149 -1.5696 0.141893 0
M  V30 2370 C 227.079 -2.19516 -0.795936 0
M  V30 2371 C 228.06 -1.14187 -1.26077 0
M  V30 2372 O 229.245 -1.42511 -1.31925 0
M  V30 2373 C 226.375 -2.81272 -2.03723 0
M  V30 2374 C 225.329 -3.92384 -1.70936 0
M  V30 2375 C 224.655 -4.41052 -3.02287 0
M  V30 2376 C 225.955 -5.13403 -0.959954 0
M  V30 2377 H 227.649 -2.98138 -0.274596 0
M  V30 2378 H 225.195 -1.43406 -0.130636 0
M  V30 2379 H 227.148 -3.237 -2.69808 0
M  V30 2380 H 225.872 -1.99973 -2.58221 0
M  V30 2381 H 224.531 -3.50566 -1.07232 0
M  V30 2382 H 224.179 -3.56582 -3.54765 0
M  V30 2383 H 223.879 -5.15993 -2.81114 0
M  V30 2384 H 225.403 -4.86146 -3.69451 0
M  V30 2385 H 226.817 -5.52706 -1.52279 0
M  V30 2386 H 225.214 -5.94073 -0.848357 0
M  V30 2387 H 226.284 -4.84875 0.0492434 0
M  V30 2388 N 227.627 0.131896 -1.57047 0
M  V30 2389 C 229.043 0.485031 -1.52051 0
M  V30 2390 C 229.243 1.82563 -0.85281 0
M  V30 2391 O 228.299 2.48817 -0.429694 0
M  V30 2392 C 229.612 0.481409 -2.96821 0
M  V30 2393 C 231.16 0.565868 -3.07842 0
M  V30 2394 C 231.635 0.592762 -4.54148 0
M  V30 2395 N 233.126 0.654564 -4.58552 0
M  V30 2396 C 233.861 0.696608 -5.69153 0
M  V30 2397 N 233.357 0.697078 -6.89284 0
M  V30 2398 N 235.15 0.738639 -5.57226 0
M  V30 2399 H 227.301 -0.746664 -1.98843 0
M  V30 2400 H 229.564 -0.273999 -0.90754 0
M  V30 2401 H 229.27 -0.435731 -3.4899 0
M  V30 2402 H 229.144 1.3139 -3.53577 0
M  V30 2403 H 231.531 1.47343 -2.55684 0
M  V30 2404 H 231.612 -0.29406 -2.54104 0
M  V30 2405 H 231.256 -0.310701 -5.06949 0
M  V30 2406 H 231.186 1.46939 -5.05684 0
M  V30 2407 H 233.677 0.660887 -3.72076 0
M  V30 2408 H 233.99 0.731426 -7.69331 0
M  V30 2409 H 232.335 0.66471 -6.91814 0
M  V30 2410 H 235.526 0.735545 -4.62285 0
M  V30 2411 H 235.699 0.767938 -6.43434 0
M  V30 2412 N 229.106 1.52395 0.401703 0
M  V30 2413 C 230.383 1.57387 1.16141 0
M  V30 2414 C 230.763 0.359359 2.08019 0
M  V30 2415 O 230.111 -0.65326 2.18963 0
M  V30 2416 C 230.321 2.90631 1.93221 0
M  V30 2417 C 231.669 3.43904 2.49028 0
M  V30 2418 O 232.693 2.92421 2.03393 0
M  V30 2419 O 231.552 4.33823 3.32356 0
M  V30 2420 H 228.646 0.634262 0.530698 0
M  V30 2421 H 231.192 1.64725 0.407883 0
M  V30 2422 H 229.964 3.70473 1.25958 0
M  V30 2423 H 229.587 2.8662 2.75563 0
M  V30 2424 N 230.584 -0.659388 1.43143 0
M  V30 2425 C 231.831 -1.41935 1.44433 0
M  V30 2426 C 232.159 -1.94387 0.0663522 0
M  V30 2427 O 231.414 -1.72314 -0.927706 0
M  V30 2428 C 231.713 -2.62206 2.42864 0
M  V30 2429 C 231.379 -2.28208 3.88886 0
M  V30 2430 C 230.041 -2.18647 4.28657 0
M  V30 2431 C 232.393 -2.00887 4.8093 0
M  V30 2432 C 229.721 -1.79914 5.58433 0
M  V30 2433 C 232.073 -1.63653 6.11065 0
M  V30 2434 C 230.737 -1.52614 6.49819 0
M  V30 2435 H 230.007 -0.519376 0.528517 0
M  V30 2436 H 232.654 -0.750453 1.76183 0
M  V30 2437 H 230.959 -3.34199 2.04495 0
M  V30 2438 H 232.656 -3.2041 2.41119 0
M  V30 2439 H 229.246 -2.36557 3.57406 0
M  V30 2440 H 233.43 -2.07198 4.5098 0
M  V30 2441 H 228.686 -1.69948 5.87305 0
M  V30 2442 H 232.86 -1.41543 6.81864 0
M  V30 2443 H 230.487 -1.22371 7.50286 0
M  V30 2444 N 232.062 -1.29571 -0.897171 0
M  V30 2445 C 233.339 -1.08365 -1.62839 0
M  V30 2446 C 233.719 0.371331 -2.07808 0
M  V30 2447 O 233.067 1.3606 -1.83576 0
M  V30 2448 C 233.277 -2.0735 -2.80726 0
M  V30 2449 C 234.625 -2.38406 -3.51351 0
M  V30 2450 O 235.649 -2.05564 -2.90898 0
M  V30 2451 O 234.508 -2.9453 -4.60341 0
M  V30 2452 H 231.602 -0.415345 -0.715134 0
M  V30 2453 H 234.148 -1.40952 -0.945018 0
M  V30 2454 H 232.92 -3.05339 -2.44711 0
M  V30 2455 H 232.543 -1.75507 -3.56767 0
M  V30 2456 N 233.54 1.10788 -1.12088 0
M  V30 2457 C 234.47 2.19083 -0.807755 0
M  V30 2458 C 235.451 1.6858 0.226859 0
M  V30 2459 O 236.636 1.93997 0.0888475 0
M  V30 2460 C 233.766 3.46344 -0.257576 0
M  V30 2461 C 232.72 4.101 -1.22483 0
M  V30 2462 C 232.046 5.32016 -0.535052 0
M  V30 2463 C 233.346 4.54236 -2.57811 0
M  V30 2464 H 235.04 2.45534 -1.71328 0
M  V30 2465 H 232.586 1.1801 -0.825205 0
M  V30 2466 H 234.539 4.21392 -0.0262679 0
M  V30 2467 H 233.263 3.19373 0.683278 0
M  V30 2468 H 231.922 3.37054 -1.44189 0
M  V30 2469 H 231.57 5.01319 0.410827 0
M  V30 2470 H 231.27 5.75625 -1.18024 0
M  V30 2471 H 232.794 6.09799 -0.312695 0
M  V30 2472 H 234.208 5.20575 -2.40155 0
M  V30 2473 H 232.605 5.08682 -3.18375 0
M  V30 2474 H 233.675 3.6734 -3.16528 0
M  V30 2475 N 235.018 0.912232 1.28515 0
M  V30 2476 C 236.295 0.463597 1.90027 0
M  V30 2477 C 236.675 -1.05753 1.82701 0
M  V30 2478 O 236.023 -1.90492 1.26194 0
M  V30 2479 C 236.233 0.992253 3.34597 0
M  V30 2480 C 237.581 1.04344 4.11579 0
M  V30 2481 O 238.605 0.94079 3.43551 0
M  V30 2482 O 237.464 1.1995 5.33174 0
M  V30 2483 H 234.558 0.146666 0.813891 0
M  V30 2484 H 237.104 1.00292 1.36893 0
M  V30 2485 H 235.876 2.03623 3.34146 0
M  V30 2486 H 235.499 0.433672 3.95228 0
M  V30 2487 N 236.496 -1.42363 0.676048 0
M  V30 2488 C 237.406 -2.346 -0.00153389 0
M  V30 2489 C 238.422 -1.5516 -0.787485 0
M  V30 2490 O 239.598 -1.87723 -0.729521 0
M  V30 2491 C 236.663 -3.33705 -0.940298 0
M  V30 2492 C 235.724 -4.29042 -0.148739 0
M  V30 2493 C 234.957 -5.23413 -1.04279 0
M  V30 2494 O 235.18 -5.22749 -2.28232 0
M  V30 2495 O 234.114 -5.99795 -0.502925 0
M  V30 2496 H 237.94 -2.94082 0.758268 0
M  V30 2497 H 235.525 -1.42888 0.436289 0
M  V30 2498 H 237.407 -3.94586 -1.47917 0
M  V30 2499 H 236.082 -2.76695 -1.67993 0
M  V30 2500 H 234.989 -3.71571 0.43427 0
M  V30 2501 H 236.322 -4.89097 0.551805 0
M  V30 2502 N 237.974 -0.419461 -1.51915 0
M  V30 2503 C 238.922 0.415502 -2.28859 0
M  V30 2504 C 239.916 1.03674 -1.3397 0
M  V30 2505 O 241.122 0.973757 -1.51387 0
M  V30 2506 H 237.497 0.152786 -0.736315 0
M  V30 2507 H 239.468 -0.254531 -2.97312 0
M  V30 2508 C 238.217 1.51425 -3.12995 0
M  V30 2509 H 237.54 1.04556 -3.85886 0
M  V30 2510 H 238.98 2.07208 -3.6992 0
M  V30 2511 C 237.439 2.48745 -2.27217 0
M  V30 2512 O 237.969 3.52871 -1.9195 0
M  V30 2513 N 236.175 2.19202 -1.90785 0
M  V30 2514 H 235.722 1.34556 -2.19664 0
M  V30 2515 H 235.68 2.84561 -1.33687 0
M  V30 2516 N 239.452 1.56882 -0.150215 0
M  V30 2517 C 240.382 2.19935 0.784284 0
M  V30 2518 C 241.363 1.14854 1.25469 0
M  V30 2519 O 242.548 1.43209 1.31168 0
M  V30 2520 C 239.678 2.82349 2.02229 0
M  V30 2521 C 238.632 3.93285 1.68853 0
M  V30 2522 C 237.958 4.42649 2.99944 0
M  V30 2523 C 239.258 5.13904 0.932714 0
M  V30 2524 H 240.952 2.9828 0.258781 0
M  V30 2525 H 238.498 1.43473 0.123029 0
M  V30 2526 H 240.451 3.25126 2.68088 0
M  V30 2527 H 239.175 2.0134 2.57157 0
M  V30 2528 H 237.834 3.5113 1.05371 0
M  V30 2529 H 237.482 3.58458 3.52869 0
M  V30 2530 H 237.182 5.17476 2.78374 0
M  V30 2531 H 238.706 4.88099 3.66868 0
M  V30 2532 H 240.12 5.53506 1.49345 0
M  V30 2533 H 238.517 5.94515 0.81684 0
M  V30 2534 H 239.587 4.84842 -0.0749568 0
M  V30 2535 N 240.93 -0.123565 1.57115 0
M  V30 2536 C 242.346 -0.476961 1.52306 0
M  V30 2537 C 242.546 -1.82109 0.86248 0
M  V30 2538 O 241.602 -2.48586 0.442884 0
M  V30 2539 C 242.915 -0.465661 2.97073 0
M  V30 2540 C 244.463 -0.549534 3.08138 0
M  V30 2541 C 244.938 -0.568669 4.54456 0
M  V30 2542 N 246.429 -0.630237 4.58892 0
M  V30 2543 C 247.164 -0.666415 5.69514 0
M  V30 2544 N 246.66 -0.660514 6.89644 0
M  V30 2545 N 248.453 -0.709077 5.5761 0
M  V30 2546 H 240.604 0.757198 1.98445 0
M  V30 2547 H 242.867 0.278808 0.906074 0
M  V30 2548 H 242.573 0.454232 3.48754 0
M  V30 2549 H 242.447 -1.29513 3.54269 0
M  V30 2550 H 244.834 -1.45985 2.56461 0
M  V30 2551 H 244.915 0.307532 2.53945 0
M  V30 2552 H 244.559 0.337581 5.06777 0
M  V30 2553 H 244.489 -1.44256 5.06456 0
M  V30 2554 H 246.98 -0.641146 3.72421 0
M  V30 2555 H 247.293 -0.690616 7.69708 0
M  V30 2556 H 245.638 -0.628012 6.92157 0
M  V30 2557 H 248.829 -0.711019 4.62668 0
M  V30 2558 H 249.002 -0.733804 6.43832 0
M  V30 2559 N 242.408 -1.52605 -0.393616 0
M  V30 2560 C 243.824 -1.41753 -0.733357 0
M  V30 2561 C 244.024 -0.534293 -1.94287 0
M  V30 2562 O 243.08 -0.0059787 -2.52499 0
M  V30 2563 C 244.393 -2.84531 -0.972772 0
M  V30 2564 C 245.941 -2.93978 -1.07453 0
M  V30 2565 C 246.416 -4.37756 -1.3466 0
M  V30 2566 N 247.907 -4.4106 -1.41492 0
M  V30 2567 C 248.642 -5.49387 -1.642 0
M  V30 2568 N 248.138 -6.67806 -1.8441 0
M  V30 2569 N 249.931 -5.36923 -1.66342 0
M  V30 2570 H 242.082 -2.08555 0.402328 0
M  V30 2571 H 244.345 -0.940654 0.117789 0
M  V30 2572 H 244.051 -3.51353 -0.156204 0
M  V30 2573 H 243.925 -3.26508 -1.88871 0
M  V30 2574 H 246.312 -2.27326 -1.88167 0
M  V30 2575 H 246.393 -2.55435 -0.136605 0
M  V30 2576 H 246.037 -5.04972 -0.544581 0
M  V30 2577 H 245.967 -4.73848 -2.2973 0
M  V30 2578 H 248.458 -3.55705 -1.27601 0
M  V30 2579 H 248.771 -7.46141 -2.01231 0
M  V30 2580 H 247.116 -6.70843 -1.81644 0
M  V30 2581 H 250.307 -4.43381 -1.50102 0
M  V30 2582 H 250.48 -6.21416 -1.837 0
M  V30 2583 N 243.887 0.651787 -1.4349 0
M  V30 2584 C 244.817 1.77621 -1.51569 0
M  V30 2585 C 245.798 1.66022 -0.370253 0
M  V30 2586 O 246.983 1.85095 -0.587658 0
M  V30 2587 C 244.113 3.16056 -1.43966 0
M  V30 2588 C 243.067 3.4242 -2.56774 0
M  V30 2589 C 242.393 4.8067 -2.34223 0
M  V30 2590 C 243.693 3.37023 -3.99015 0
M  V30 2591 H 245.387 1.71117 -2.45681 0
M  V30 2592 H 242.933 0.821825 -1.18246 0
M  V30 2593 H 244.886 3.94472 -1.48221 0
M  V30 2594 H 243.61 3.23293 -0.463586 0
M  V30 2595 H 242.269 2.66375 -2.51873 0
M  V30 2596 H 241.917 4.84585 -1.34856 0
M  V30 2597 H 241.617 4.9927 -3.09844 0
M  V30 2598 H 243.141 5.61342 -2.40265 0
M  V30 2599 H 244.555 4.05374 -4.05395 0
M  V30 2600 H 242.952 3.67159 -4.74673 0
M  V30 2601 H 244.022 2.3518 -4.2405 0
M  V30 2602 N 245.365 1.30045 0.890287 0
M  V30 2603 C 246.328 1.15963 1.977 0
M  V30 2604 C 247.328 0.0923777 1.60534 0
M  V30 2605 O 248.518 0.340071 1.70848 0
M  V30 2606 C 245.65 0.775451 3.31963 0
M  V30 2607 H 246.843 2.12502 2.11619 0
M  V30 2608 H 244.396 1.13366 1.07601 0
M  V30 2609 H 245.131 -0.189671 3.23745 0
M  V30 2610 H 244.916 1.54668 3.60306 0
M  V30 2611 H 246.406 0.700251 4.11687 0
M  V30 2612 N 246.843 -1.10192 1.12674 0
M  V30 2613 C 248.068 -1.86523 0.906853 0
M  V30 2614 C 248.493 -1.80221 -0.538711 0
M  V30 2615 O 247.851 -1.17396 -1.38158 0
M  V30 2616 C 247.899 -3.32758 1.3894 0
M  V30 2617 O 247.003 -4.08449 0.5695 0
M  V30 2618 H 246.344 -0.578678 0.325619 0
M  V30 2619 H 248.874 -1.39203 1.49946 0
M  V30 2620 H 248.884 -3.83608 1.38958 0
M  V30 2621 H 247.559 -3.36661 2.44197 0
M  V30 2622 H 246.136 -3.67427 0.636528 0
M  V30 2623 N 248.321 -0.919034 -1.28029 0
M  V30 2624 C 249.284 -0.416182 -2.2539 0
M  V30 2625 C 250.284 0.460438 -1.54067 0
M  V30 2626 O 251.474 0.262744 -1.72207 0
M  V30 2627 C 248.606 0.402707 -3.38513 0
M  V30 2628 H 249.799 -1.27629 -2.71387 0
M  V30 2629 H 247.352 -0.698919 -1.39803 0
M  V30 2630 H 248.087 1.282 -2.97885 0
M  V30 2631 H 247.872 -0.225698 -3.9145 0
M  V30 2632 H 249.362 0.745191 -4.10897 0
M  V30 2633 N 249.799 1.42003 -0.683588 0
M  V30 2634 C 251.21 1.84501 -0.285736 0
M  V30 2635 C 251.561 1.57213 1.17382 0
M  V30 2636 O 250.686 1.03642 1.89966 0
M  V30 2637 C 251.281 3.34912 -0.511821 0
M  V30 2638 C 249.84 3.76025 -0.168005 0
M  V30 2639 C 248.987 2.6551 -0.799983 0
M  V30 2640 H 251.938 1.31724 -0.885119 0
M  V30 2641 H 251.959 3.79784 0.233292 0
M  V30 2642 H 251.471 3.54741 -1.57418 0
M  V30 2643 H 249.572 3.61801 0.890567 0
M  V30 2644 H 249.685 4.75141 -0.614661 0
M  V30 2645 H 248.049 2.53654 -0.230568 0
M  V30 2646 H 248.832 2.8816 -1.86597 0
M  V30 2647 N 251.277 0.427512 1.51691 0
M  V30 2648 C 252.207 -0.3796 2.30394 0
M  V30 2649 C 253.188 -1.02982 1.35384 0
M  V30 2650 O 254.373 -1.03534 1.643 0
M  V30 2651 C 251.503 -1.48649 3.1388 0
M  V30 2652 C 250.457 -0.960294 4.17088 0
M  V30 2653 C 249.783 -2.16219 4.89033 0
M  V30 2654 C 251.083 -0.00153679 5.223 0
M  V30 2655 H 252.777 0.277164 2.98114 0
M  V30 2656 H 250.323 0.134739 1.43368 0
M  V30 2657 H 252.276 -2.05826 3.67714 0
M  V30 2658 H 251 -2.1714 2.43962 0
M  V30 2659 H 249.659 -0.410806 3.64291 0
M  V30 2660 H 249.307 -2.83307 4.15628 0
M  V30 2661 H 249.007 -1.81654 5.58816 0
M  V30 2662 H 250.531 -2.73968 5.45687 0
M  V30 2663 H 251.945 -0.482687 5.71264 0
M  V30 2664 H 250.342 0.256199 5.99553 0
M  V30 2665 H 251.412 0.938174 4.75738 0
M  V30 2666 N 252.755 -1.56801 0.158532 0
M  V30 2667 C 253.98 -2.01295 -0.499516 0
M  V30 2668 C 254.405 -1.03799 -1.56867 0
M  V30 2669 O 253.763 -0.0155162 -1.81293 0
M  V30 2670 C 253.811 -3.44469 -1.06647 0
M  V30 2671 O 252.915 -3.50012 -2.18095 0
M  V30 2672 H 252.256 -0.652884 -0.12099 0
M  V30 2673 H 254.786 -2.02958 0.258661 0
M  V30 2674 H 254.796 -3.8351 -1.39227 0
M  V30 2675 H 253.471 -4.14932 -0.283581 0
M  V30 2676 H 252.048 -3.22822 -1.86656 0
M  V30 2677 N 254.233 0.115231 -1.57178 0
M  V30 2678 C 255.48 0.822351 -1.8505 0
M  V30 2679 C 255.808 1.79701 -0.744168 0
M  V30 2680 O 255.063 1.93909 0.26414 0
M  V30 2681 C 255.362 1.60324 -3.19423 0
M  V30 2682 C 255.028 0.772536 -4.44233 0
M  V30 2683 C 253.69 0.543468 -4.78121 0
M  V30 2684 C 256.042 0.193746 -5.2084 0
M  V30 2685 C 253.37 -0.274583 -5.86057 0
M  V30 2686 C 255.722 -0.611517 -6.29637 0
M  V30 2687 C 254.386 -0.850867 -6.62055 0
M  V30 2688 H 253.656 0.30092 -0.677147 0
M  V30 2689 H 256.303 0.0845802 -1.91313 0
M  V30 2690 H 254.608 2.41203 -3.08753 0
M  V30 2691 H 256.305 2.1544 -3.38211 0
M  V30 2692 H 252.895 0.96117 -4.17683 0
M  V30 2693 H 257.079 0.357926 -4.95008 0
M  V30 2694 H 252.335 -0.469206 -6.09597 0
M  V30 2695 H 256.509 -1.06697 -6.88178 0
M  V30 2696 H 254.136 -1.48657 -7.45523 0
M  V30 2697 N 255.711 1.52812 0.385517 0
M  V30 2698 C 256.674 1.77188 1.45386 0
M  V30 2699 C 257.674 0.641953 1.4743 0
M  V30 2700 O 258.864 0.910033 1.4854 0
M  V30 2701 C 255.996 1.87582 2.8465 0
M  V30 2702 H 257.189 2.72583 1.25054 0
M  V30 2703 H 254.742 1.43586 0.617467 0
M  V30 2704 H 255.477 0.941849 3.10322 0
M  V30 2705 H 255.262 2.69748 2.84567 0
M  V30 2706 H 256.752 2.08102 3.62054 0
M  V30 2707 N 257.189 -0.644168 1.43834 0
M  V30 2708 C 258.6 -1.22554 1.40845 0
M  V30 2709 C 258.951 -1.9585 0.117115 0
M  V30 2710 O 258.076 -2.01734 -0.783086 0
M  V30 2711 C 258.671 -2.22907 2.55143 0
M  V30 2712 C 257.23 -2.76501 2.5539 0
M  V30 2713 C 256.377 -1.51287 2.32396 0
M  V30 2714 H 259.328 -0.43563 1.52604 0
M  V30 2715 H 259.349 -3.05259 2.2715 0
M  V30 2716 H 258.861 -1.69533 3.49114 0
M  V30 2717 H 256.962 -3.33914 1.65324 0
M  V30 2718 H 257.075 -3.23429 3.53455 0
M  V30 2719 H 255.439 -1.78957 1.81236 0
M  V30 2720 H 256.222 -0.998336 3.28463 0
M  V30 2721 N 258.668 -1.30515 -0.883378 0
M  V30 2722 C 259.916 -1.19194 -1.63209 0
M  V30 2723 C 260.237 0.253205 -1.93349 0
M  V30 2724 O 259.507 1.17025 -1.57105 0
M  V30 2725 H 258.087 -0.438148 -0.605009 0
M  V30 2726 H 260.749 -1.63663 -1.05832 0
M  V30 2727 H 259.845 -1.75396 -2.58153 0
M  V30 2728 N 260.146 1.09593 -1.13257 0
M  V30 2729 C 261.371 1.8604 -0.916732 0
M  V30 2730 C 261.796 1.80504 0.529146 0
M  V30 2731 O 261.154 1.18127 1.37534 0
M  V30 2732 C 261.202 3.32017 -1.40703 0
M  V30 2733 O 260.306 4.08141 -0.591153 0
M  V30 2734 H 259.647 0.576943 -0.328683 0
M  V30 2735 H 262.177 1.38405 -1.50682 0
M  V30 2736 H 262.187 3.82865 -1.4099 0
M  V30 2737 H 260.862 3.35361 -2.45979 0
M  V30 2738 H 259.439 3.67084 -0.656005 0
M  V30 2739 N 261.624 0.925811 1.2754 0
M  V30 2740 C 262.872 0.564138 1.94067 0
M  V30 2741 C 263.193 -0.897188 1.73134 0
M  V30 2742 O 262.463 -1.63573 1.07799 0
M  V30 2743 H 261.043 0.205645 0.718136 0
M  V30 2744 H 263.705 1.1778 1.55287 0
M  V30 2745 H 262.801 0.76881 3.02483 0
M  V30 2746 N 263.102 -1.41638 0.69111 0
M  V30 2747 C 264.348 -2.02104 0.229258 0
M  V30 2748 C 264.703 -1.53741 -1.15678 0
M  V30 2749 O 263.996 -0.736849 -1.76865 0
M  V30 2750 C 264.19 -3.56714 0.221277 0
M  V30 2751 C 264.019 -4.20083 1.605 0
M  V30 2752 C 262.789 -4.54566 2.20676 0
M  V30 2753 C 264.987 -4.46587 2.55078 0
M  V30 2754 N 262.969 -5.03199 3.5166 0
M  V30 2755 C 264.34 -4.96946 3.70735 0
M  V30 2756 C 266.395 -4.28593 2.53401 0
M  V30 2757 C 265.098 -5.31203 4.8499 0
M  V30 2758 C 267.124 -4.63936 3.66765 0
M  V30 2759 C 266.486 -5.14463 4.81152 0
M  V30 2760 H 262.585 -0.771256 0.12918 0
M  V30 2761 H 265.169 -1.72251 0.907626 0
M  V30 2762 H 263.34 -3.86051 -0.426562 0
M  V30 2763 H 265.072 -4.03896 -0.254983 0
M  V30 2764 H 261.827 -4.4087 1.73005 0
M  V30 2765 H 262.251 -5.31926 4.18789 0
M  V30 2766 H 266.893 -3.88771 1.66184 0
M  V30 2767 H 264.611 -5.69951 5.72871 0
M  V30 2768 H 268.197 -4.51677 3.66714 0
M  V30 2769 H 267.077 -5.41299 5.67419 0
M  V30 2770 N 264.58 -0.43555 -1.51462 0
M  V30 2771 C 265.512 0.41257 -2.25456 0
M  V30 2772 C 266.525 0.987822 -1.29406 0
M  V30 2773 O 267.714 0.882266 -1.55172 0
M  V30 2774 C 264.814 1.58894 -2.99342 0
M  V30 2775 C 263.987 1.13288 -4.22474 0
M  V30 2776 C 263.046 2.17917 -4.78956 0
M  V30 2777 O 262.072 1.77425 -5.40841 0
M  V30 2778 N 263.274 3.50382 -4.62832 0
M  V30 2779 H 266.039 -0.221603 -2.9888 0
M  V30 2780 H 263.6 -0.264342 -1.59727 0
M  V30 2781 H 265.592 2.28508 -3.34015 0
M  V30 2782 H 264.162 2.12849 -2.28941 0
M  V30 2783 H 263.382 0.263881 -3.93316 0
M  V30 2784 H 264.67 0.805542 -5.02383 0
M  V30 2785 H 264.068 3.86013 -4.13534 0
M  V30 2786 H 262.625 4.15895 -5.01871 0
M  V30 2787 N 266.058 1.56714 -0.166846 0
M  V30 2788 C 267.288 2.00828 0.48494 0
M  V30 2789 C 267.696 1.04612 1.57648 0
M  V30 2790 O 267.039 0.0383201 1.8366 0
M  V30 2791 C 267.101 3.4137 1.12723 0
M  V30 2792 C 266.765 4.56654 0.177886 0
M  V30 2793 C 267.762 5.16402 -0.60207 0
M  V30 2794 C 265.447 5.02244 0.0750139 0
M  V30 2795 C 267.441 6.20167 -1.47215 0
M  V30 2796 C 265.128 6.05859 -0.798649 0
M  V30 2797 C 266.126 6.64691 -1.57082 0
M  V30 2798 O 265.814 7.66297 -2.42989 0
M  V30 2799 H 265.546 0.663587 0.128953 0
M  V30 2800 H 268.1 2.03692 -0.264365 0
M  V30 2801 H 266.33 3.35406 1.92457 0
M  V30 2802 H 268.019 3.69466 1.68076 0
M  V30 2803 H 268.785 4.82065 -0.53274 0
M  V30 2804 H 264.664 4.56167 0.665812 0
M  V30 2805 H 268.208 6.66016 -2.07531 0
M  V30 2806 H 264.105 6.39621 -0.869199 0
M  V30 2807 H 264.873 7.83601 -2.36455 0
M  V30 2808 N 267.536 -0.106894 1.57237 0
M  V30 2809 C 268.761 -0.830287 1.90055 0
M  V30 2810 C 269.186 -1.72064 0.75998 0
M  V30 2811 O 268.544 -1.78982 -0.288991 0
M  V30 2812 C 268.592 -1.6295 3.21683 0
M  V30 2813 O 267.696 -2.73748 3.08441 0
M  V30 2814 H 267.037 -0.228855 0.623315 0
M  V30 2815 H 269.567 -0.085658 2.04421 0
M  V30 2816 H 269.577 -2.01621 3.54701 0
M  V30 2817 H 268.252 -0.975989 4.04286 0
M  V30 2818 H 266.829 -2.38192 2.86913 0
M  V30 2819 N 269.014 -1.53014 -0.377408 0
M  V30 2820 C 269.944 -1.81589 -1.46791 0
M  V30 2821 C 270.925 -0.668622 -1.56408 0
M  V30 2822 O 272.11 -0.917337 -1.71168 0
M  V30 2823 C 269.24 -1.99519 -2.8427 0
M  V30 2824 C 268.194 -3.15249 -2.89486 0
M  V30 2825 C 267.52 -3.18451 -4.29527 0
M  V30 2826 C 268.82 -4.54084 -2.58079 0
M  V30 2827 H 270.514 -2.7291 -1.23127 0
M  V30 2828 H 268.06 -1.31319 -0.590883 0
M  V30 2829 H 270.013 -2.18092 -3.60575 0
M  V30 2830 H 268.737 -1.04897 -3.09296 0
M  V30 2831 H 267.396 -2.96477 -2.15631 0
M  V30 2832 H 267.044 -2.2149 -4.5161 0
M  V30 2833 H 266.744 -3.962 -4.33934 0
M  V30 2834 H 268.268 -3.39193 -5.07721 0
M  V30 2835 H 269.682 -4.72899 -3.24098 0
M  V30 2836 H 268.079 -5.33987 -2.7382 0
M  V30 2837 H 269.149 -4.60006 -1.53372 0
M  V30 2838 N 270.492 0.636531 -1.44174 0
M  V30 2839 C 271.455 1.73063 -1.50273 0
M  V30 2840 C 272.455 1.56113 -0.385397 0
M  V30 2841 O 273.645 1.61707 -0.64781 0
M  V30 2842 C 270.777 3.12096 -1.37145 0
M  V30 2843 H 271.97 1.69031 -2.47727 0
M  V30 2844 H 269.523 0.849706 -1.31186 0
M  V30 2845 H 270.258 3.21728 -0.407636 0
M  V30 2846 H 270.043 3.25805 -2.18159 0
M  V30 2847 H 271.533 3.91846 -1.44382 0
M  V30 2848 N 271.97 1.30982 0.876444 0
M  V30 2849 C 272.9 1.20668 1.99903 0
M  V30 2850 C 273.881 0.095354 1.69833 0
M  V30 2851 O 275.066 0.27885 1.92188 0
M  V30 2852 C 272.196 0.90655 3.3526 0
M  V30 2853 C 271.15 1.97675 3.79617 0
M  V30 2854 C 270.476 1.52943 5.1236 0
M  V30 2855 C 271.776 3.389 3.97422 0
M  V30 2856 H 273.47 2.14586 2.0879 0
M  V30 2857 H 271.016 1.03308 1.00317 0
M  V30 2858 H 272.969 0.821025 4.13324 0
M  V30 2859 H 271.693 -0.0682969 3.26529 0
M  V30 2860 H 270.352 2.05205 3.03787 0
M  V30 2861 H 270 0.54262 5.00065 0
M  V30 2862 H 269.7 2.24532 5.43009 0
M  V30 2863 H 271.224 1.45786 5.92941 0
M  V30 2864 H 272.638 3.34081 4.659 0
M  V30 2865 H 271.035 4.0865 4.3946 0
M  V30 2866 H 272.105 3.80163 3.01006 0
M  V30 2867 N 273.449 -1.08991 1.13837 0
M  V30 2868 C 274.726 -1.77863 0.813876 0
M  V30 2869 C 275.106 -1.99375 -0.693746 0
M  V30 2870 O 274.454 -1.59875 -1.63255 0
M  V30 2871 C 274.664 -3.0986 1.60586 0
M  V30 2872 C 276.012 -3.84493 1.8014 0
M  V30 2873 O 277.036 -3.19624 1.57222 0
M  V30 2874 O 275.895 -5.00957 2.18413 0
M  V30 2875 H 272.989 -0.771589 0.297624 0
M  V30 2876 H 275.535 -1.15507 1.24323 0
M  V30 2877 H 274.307 -2.89715 2.63022 0
M  V30 2878 H 273.93 -3.79942 1.17173 0
M  V30 2879 N 274.927 -0.932562 -1.27047 0
M  V30 2880 C 276.173 -0.576412 -1.94436 0
M  V30 2881 C 276.506 0.880891 -1.73072 0
M  V30 2882 O 275.781 1.62905 -1.06264 0
M  V30 2883 C 276.064 -0.909031 -3.48437 0
M  V30 2884 C 275.917 -2.42044 -3.79123 0
M  V30 2885 C 277.236 -0.418341 -4.38107 0
M  V30 2886 H 274.355 -0.210888 -0.706184 0
M  V30 2887 H 276.997 -1.16522 -1.50075 0
M  V30 2888 H 275.147 -0.407947 -3.86352 0
M  V30 2889 H 276.819 -2.99359 -3.50973 0
M  V30 2890 H 275.062 -2.86758 -3.25503 0
M  V30 2891 H 275.733 -2.6037 -4.86736 0
M  V30 2892 H 278.209 -0.847856 -4.0737 0
M  V30 2893 H 277.085 -0.679981 -5.44672 0
M  V30 2894 H 277.346 0.681642 -4.36814 0
M  V30 2895 N 276.405 1.4127 -0.698611 0
M  V30 2896 C 277.335 2.33447 -0.049629 0
M  V30 2897 C 278.316 1.51982 0.763898 0
M  V30 2898 O 279.501 1.80509 0.716257 0
M  V30 2899 C 276.631 3.35828 0.885267 0
M  V30 2900 C 275.585 4.27627 0.178613 0
M  V30 2901 C 274.911 5.20406 1.22807 0
M  V30 2902 C 276.211 5.13459 -0.956933 0
M  V30 2903 H 277.905 2.87966 -0.81951 0
M  V30 2904 H 275.451 1.38461 -0.395538 0
M  V30 2905 H 277.404 3.9924 1.34854 0
M  V30 2906 H 276.128 2.79666 1.68685 0
M  V30 2907 H 274.787 3.65643 -0.26466 0
M  V30 2908 H 274.435 4.60558 2.02226 0
M  V30 2909 H 274.135 5.82661 0.760239 0
M  V30 2910 H 275.659 5.86695 1.69179 0
M  V30 2911 H 277.073 5.70421 -0.573805 0
M  V30 2912 H 275.47 5.8467 -1.35205 0
M  V30 2913 H 276.54 4.50443 -1.79524 0
M  V30 2914 N 277.883 0.443576 1.51229 0
M  V30 2915 C 279.131 -0.120557 2.0174 0
M  V30 2916 C 279.452 -1.42665 1.32935 0
M  V30 2917 O 278.722 -1.9028 0.465866 0
M  V30 2918 H 277.302 -0.0475426 0.745486 0
M  V30 2919 H 279.964 0.587711 1.85828 0
M  V30 2920 H 279.06 -0.291972 3.10731 0
M  V30 2921 N 279.361 -1.56624 0.175154 0
M  V30 2922 C 280.324 -2.16934 -0.739738 0
M  V30 2923 C 281.324 -1.11842 -1.15533 0
M  V30 2924 O 282.514 -1.37335 -1.07167 0
M  V30 2925 C 279.646 -2.75531 -2.00738 0
M  V30 2926 H 280.839 -2.99131 -0.214639 0
M  V30 2927 H 278.392 -1.56123 -0.0744197 0
M  V30 2928 H 279.127 -1.97078 -2.57548 0
M  V30 2929 H 278.912 -3.52444 -1.71831 0
M  V30 2930 H 280.402 -3.21904 -2.66021 0
M  V30 2931 N 280.839 0.0985539 -1.57292 0
M  V30 2932 C 282.085 0.803867 -1.86188 0
M  V30 2933 C 282.418 1.78549 -0.763794 0
M  V30 2934 O 281.693 1.93153 0.22855 0
M  V30 2935 C 281.976 1.53568 -3.25713 0
M  V30 2936 C 281.829 0.572277 -4.46145 0
M  V30 2937 C 283.148 2.48708 -3.63087 0
M  V30 2938 H 280.267 0.290781 -0.677211 0
M  V30 2939 H 282.909 0.0675783 -1.8988 0
M  V30 2940 H 281.059 2.16332 -3.22696 0
M  V30 2941 H 282.731 -0.0480894 -4.61275 0
M  V30 2942 H 280.974 -0.114618 -4.33649 0
M  V30 2943 H 281.645 1.12139 -5.40489 0
M  V30 2944 H 284.121 1.96039 -3.67026 0
M  V30 2945 H 282.997 2.96932 -4.61652 0
M  V30 2946 H 283.258 3.32309 -2.91588 0
M  V30 2947 N 282.317 1.53212 0.369288 0
M  V30 2948 C 283.563 1.69466 1.11397 0
M  V30 2949 C 283.896 0.443257 1.89074 0
M  V30 2950 O 283.171 -0.559386 1.86282 0
M  V30 2951 C 283.454 2.9422 2.07621 0
M  V30 2952 C 283.307 4.29508 1.33577 0
M  V30 2953 C 284.626 3.14565 3.07794 0
M  V30 2954 H 281.745 0.616667 0.403597 0
M  V30 2955 H 284.387 1.85845 0.395179 0
M  V30 2956 H 282.537 2.80387 2.68916 0
M  V30 2957 H 284.209 4.55147 0.750955 0
M  V30 2958 H 282.452 4.29088 0.637618 0
M  V30 2959 H 283.123 5.12926 2.03989 0
M  V30 2960 H 285.599 3.2756 2.56601 0
M  V30 2961 H 284.475 4.03297 3.72348 0
M  V30 2962 H 284.736 2.29675 3.77759 0
M  V30 2963 N 283.795 -0.628877 1.44509 0
M  V30 2964 C 284.705 -1.7694 1.54044 0
M  V30 2965 C 285.721 -1.68705 0.425987 0
M  V30 2966 O 286.897 -1.89442 0.683656 0
M  V30 2967 C 283.962 -3.13332 1.48405 0
M  V30 2968 C 283.023 -3.33181 2.70719 0
M  V30 2969 C 282.256 -4.63067 2.6534 0
M  V30 2970 O 282.479 -5.44017 1.71469 0
M  V30 2971 O 281.413 -4.85167 3.56226 0
M  V30 2972 H 285.239 -1.71848 2.50403 0
M  V30 2973 H 282.824 -0.790378 1.26781 0
M  V30 2974 H 284.706 -3.94634 1.47791 0
M  V30 2975 H 283.381 -3.1896 0.551898 0
M  V30 2976 H 282.288 -2.51549 2.769 0
M  V30 2977 H 283.621 -3.32416 3.62988 0
M  V30 2978 N 285.273 -1.31445 -0.869486 0
M  V30 2979 C 286.689 -1.10113 -1.15531 0
M  V30 2980 C 286.889 0.128087 -2.01092 0
M  V30 2981 O 285.945 0.817276 -2.38908 0
M  V30 2982 C 287.258 -2.37291 -1.84698 0
M  V30 2983 C 288.806 -2.42906 -1.97397 0
M  V30 2984 C 289.281 -3.69967 -2.69979 0
M  V30 2985 N 290.772 -3.70864 -2.77514 0
M  V30 2986 C 291.507 -4.65875 -3.34287 0
M  V30 2987 N 291.003 -5.71242 -3.91988 0
M  V30 2988 N 292.796 -4.53394 -3.3225 0
M  V30 2989 H 284.947 -2.1028 -0.299347 0
M  V30 2990 H 287.21 -0.927683 -0.195214 0
M  V30 2991 H 286.916 -3.27078 -1.29278 0
M  V30 2992 H 286.79 -2.47125 -2.84972 0
M  V30 2993 H 289.177 -1.53588 -2.51982 0
M  V30 2994 H 289.258 -2.37036 -0.961643 0
M  V30 2995 H 288.902 -4.59652 -2.16062 0
M  V30 2996 H 288.832 -3.73103 -3.7162 0
M  V30 2997 H 291.323 -2.94697 -2.36563 0
M  V30 2998 H 291.636 -6.39817 -4.33421 0
M  V30 2999 H 289.981 -5.75015 -3.90362 0
M  V30 3000 H 293.172 -3.70252 -2.8641 0
M  V30 3001 H 293.345 -5.27617 -3.76197 0
M  V30 3002 N 286.751 1.08385 -1.14413 0
M  V30 3003 C 287.714 2.13486 -0.834048 0
M  V30 3004 C 288.714 1.59988 0.161418 0
M  V30 3005 O 289.904 1.74071 -0.0669575 0
M  V30 3006 C 287.036 3.4003 -0.243354 0
M  V30 3007 H 288.229 2.42425 -1.7655 0
M  V30 3008 H 285.782 1.24101 -0.950189 0
M  V30 3009 H 286.517 3.16726 0.696807 0
M  V30 3010 H 286.302 3.80157 -0.960367 0
M  V30 3011 H 287.792 4.17577 -0.0436242 0
M  V30 3012 N 288.23 0.939286 1.26551 0
M  V30 3013 C 289.458 0.602536 1.97932 0
M  V30 3014 C 289.873 -0.82206 1.69964 0
M  V30 3015 O 289.23 -1.54789 0.966784 0
M  V30 3016 C 289.281 0.832946 3.51773 0
M  V30 3017 O 289.002 2.20151 3.78768 0
M  V30 3018 C 290.503 0.506483 4.40397 0
M  V30 3019 H 287.723 0.227248 0.631347 0
M  V30 3020 H 290.267 1.25948 1.61113 0
M  V30 3021 H 288.422 0.222644 3.8676 0
M  V30 3022 H 288.836 2.26013 4.73306 0
M  V30 3023 H 290.31 0.718333 5.47306 0
M  V30 3024 H 290.787 -0.558451 4.35635 0
M  V30 3025 H 291.393 1.09543 4.10951 0
M  V30 3026 N 289.708 -1.40897 0.706093 0
M  V30 3027 C 290.956 -2.00657 0.241054 0
M  V30 3028 C 291.277 -1.56241 -1.16678 0
M  V30 3029 O 290.547 -0.79765 -1.78926 0
M  V30 3030 H 289.127 -0.742018 0.0861308 0
M  V30 3031 H 291.789 -1.72372 0.909604 0
M  V30 3032 H 290.885 -3.10958 0.266705 0
M  V30 3033 N 291.186 -0.45159 -1.50991 0
M  V30 3034 C 292.118 0.388634 -2.25881 0
M  V30 3035 C 293.131 0.974041 -1.30446 0
M  V30 3036 O 294.32 0.865758 -1.56099 0
M  V30 3037 C 291.42 1.5571 -3.01011 0
M  V30 3038 C 290.593 1.08801 -4.23652 0
M  V30 3039 C 289.652 2.12825 -4.8124 0
M  V30 3040 O 288.678 1.71678 -5.42693 0
M  V30 3041 N 289.88 3.45453 -4.66522 0
M  V30 3042 H 292.645 -0.25329 -2.98628 0
M  V30 3043 H 290.206 -0.281268 -1.59438 0
M  V30 3044 H 292.198 2.24952 -3.3642 0
M  V30 3045 H 290.768 2.10409 -2.31186 0
M  V30 3046 H 289.988 0.22215 -3.93574 0
M  V30 3047 H 291.276 0.752213 -5.03209 0
M  V30 3048 H 290.674 3.81605 -4.17605 0
M  V30 3049 H 289.231 4.10549 -5.06254 0
M  V30 3050 N 292.664 1.56529 -0.183458 0
M  V30 3051 C 294.075 1.83739 0.331177 0
M  V30 3052 C 294.426 1.10373 1.62211 0
M  V30 3053 O 293.551 0.36071 2.13373 0
M  V30 3054 C 294.146 3.33306 0.607646 0
M  V30 3055 C 292.705 3.60969 1.06668 0
M  V30 3056 C 291.852 2.77086 0.109029 0
M  V30 3057 H 294.803 1.53379 -0.407484 0
M  V30 3058 H 294.824 3.51444 1.45832 0
M  V30 3059 H 294.336 3.86677 -0.332086 0
M  V30 3060 H 292.437 3.13021 2.0211 0
M  V30 3061 H 292.55 4.69231 0.967447 0
M  V30 3062 H 290.914 2.47319 0.608714 0
M  V30 3063 H 291.697 3.33241 -0.82494 0
M  V30 3064 N 294.142 -0.090211 1.57342 0
M  V30 3065 C 295.072 -1.10976 2.05443 0
M  V30 3066 C 296.053 -1.41482 0.944284 0
M  V30 3067 O 297.238 -1.51428 1.21586 0
M  V30 3068 C 294.368 -2.42831 2.48295 0
M  V30 3069 C 293.322 -2.26721 3.63018 0
M  V30 3070 C 292.648 -3.63796 3.91863 0
M  V30 3071 C 293.948 -1.7037 4.93732 0
M  V30 3072 H 295.642 -0.709564 2.9087 0
M  V30 3073 H 293.188 -0.339874 1.39932 0
M  V30 3074 H 295.141 -3.14431 2.80555 0
M  V30 3075 H 293.865 -2.84795 1.59873 0
M  V30 3076 H 292.524 -1.57565 3.31012 0
M  V30 3077 H 292.172 -4.03297 3.00601 0
M  V30 3078 H 291.872 -3.53861 4.69101 0
M  V30 3079 H 293.396 -4.36855 4.26603 0
M  V30 3080 H 294.81 -2.31816 5.24342 0
M  V30 3081 H 293.207 -1.71181 5.75167 0
M  V30 3082 H 294.277 -0.663542 4.80339 0
M  V30 3083 N 295.62 -1.53406 -0.361157 0
M  V30 3084 C 296.583 -1.79479 -1.42548 0
M  V30 3085 C 297.583 -0.665327 -1.4639 0
M  V30 3086 O 298.773 -0.933549 -1.47073 0
M  V30 3087 C 295.905 -1.92087 -2.8163 0
M  V30 3088 H 297.098 -2.74538 -1.20701 0
M  V30 3089 H 294.651 -1.4455 -0.594546 0
M  V30 3090 H 295.386 -0.991099 -3.08784 0
M  V30 3091 H 295.171 -2.74241 -2.80239 0
M  V30 3092 H 296.661 -2.13836 -3.58697 0
M  V30 3093 N 297.098 0.621204 -1.44841 0
M  V30 3094 C 298.061 1.71459 -1.521 0
M  V30 3095 C 299.061 1.55696 -0.401933 0
M  V30 3096 O 300.251 1.61011 -0.664925 0
M  V30 3097 C 297.383 3.10624 -1.40447 0
M  V30 3098 H 298.576 1.66394 -2.49506 0
M  V30 3099 H 296.129 0.835745 -1.3208 0
M  V30 3100 H 296.864 3.21277 -0.441737 0
M  V30 3101 H 296.649 3.23473 -2.21602 0
M  V30 3102 H 298.139 3.90293 -1.4853 0
M  V30 3103 N 298.576 1.31904 0.862503 0
M  V30 3104 C 299.539 1.20131 1.95195 0
M  V30 3105 C 300.539 0.126409 1.60302 0
M  V30 3106 O 301.729 0.376234 1.70089 0
M  V30 3107 C 298.861 0.845691 3.30244 0
M  V30 3108 H 300.054 2.16943 2.07064 0
M  V30 3109 H 297.607 1.15622 1.05172 0
M  V30 3110 H 298.342 -0.120957 3.24074 0
M  V30 3111 H 298.127 1.62276 3.56944 0
M  V30 3112 H 299.617 0.787418 4.10109 0
M  V30 3113 N 300.054 -1.07777 1.14986 0
M  V30 3114 C 301.3 -1.80557 0.923422 0
M  V30 3115 C 301.633 -1.86298 -0.548337 0
M  V30 3116 O 300.908 -1.34354 -1.40639 0
M  V30 3117 C 301.191 -3.25839 1.53299 0
M  V30 3118 C 301.044 -3.28269 3.07505 0
M  V30 3119 C 302.363 -4.22991 1.21518 0
M  V30 3120 H 299.482 -0.655493 0.336894 0
M  V30 3121 H 302.124 -1.26144 1.42083 0
M  V30 3122 H 300.274 -3.72306 1.10999 0
M  V30 3123 H 301.946 -2.90079 3.58681 0
M  V30 3124 H 300.189 -2.67355 3.4162 0
M  V30 3125 H 300.86 -4.30691 3.45266 0
M  V30 3126 H 303.336 -3.84894 1.581 0
M  V30 3127 H 302.212 -5.22945 1.66793 0
M  V30 3128 H 302.473 -4.41904 0.131505 0
M  V30 3129 N 301.532 -0.945985 -1.26051 0
M  V30 3130 C 302.809 -0.513816 -1.88731 0
M  V30 3131 C 303.189 1.00872 -1.8544 0
M  V30 3132 O 302.537 1.8708 -1.312 0
M  V30 3133 C 302.747 -1.08062 -3.31849 0
M  V30 3134 C 304.095 -1.1522 -4.08668 0
M  V30 3135 O 305.119 -1.03155 -3.40936 0
M  V30 3136 O 303.978 -1.34044 -5.29806 0
M  V30 3137 H 301.072 -0.168193 -0.809716 0
M  V30 3138 H 303.618 -1.03886 -1.34186 0
M  V30 3139 H 302.39 -2.1241 -3.2863 0
M  V30 3140 H 302.013 -0.538307 -3.93939 0
M  V30 3141 N 303.011 1.40521 -0.713556 0
M  V30 3142 C 303.974 2.29098 -0.0684347 0
M  V30 3143 C 304.974 1.45268 0.689472 0
M  V30 3144 O 306.164 1.66205 0.521677 0
M  V30 3145 C 303.296 3.28446 0.913024 0
M  V30 3146 H 304.489 2.87645 -0.84855 0
M  V30 3147 H 302.042 1.48809 -0.47809 0
M  V30 3148 H 302.777 2.74913 1.72027 0
M  V30 3149 H 302.562 3.90327 0.372472 0
M  V30 3150 H 304.052 3.94777 1.36165 0
M  V30 3151 N 304.489 0.459591 1.5075 0
M  V30 3152 C 305.419 -0.330644 2.31147 0
M  V30 3153 C 306.4 -1.00087 1.37538 0
M  V30 3154 O 307.585 -1.00025 1.66459 0
M  V30 3155 C 304.715 -1.41958 3.16962 0
M  V30 3156 C 303.669 -0.871608 4.19031 0
M  V30 3157 C 302.995 -2.05797 4.9351 0
M  V30 3158 C 304.295 0.109251 5.22186 0
M  V30 3159 H 305.989 0.340336 2.97459 0
M  V30 3160 H 303.535 0.165119 1.4305 0
M  V30 3161 H 305.488 -1.9798 3.71997 0
M  V30 3162 H 304.212 -2.11917 2.48513 0
M  V30 3163 H 302.871 -0.333442 3.6508 0
M  V30 3164 H 302.519 -2.74427 4.21544 0
M  V30 3165 H 302.219 -1.6976 5.62544 0
M  V30 3166 H 303.743 -2.62331 5.51375 0
M  V30 3167 H 305.157 -0.361405 5.7216 0
M  V30 3168 H 303.554 0.383316 5.98875 0
M  V30 3169 H 304.624 1.03887 4.73641 0
M  V30 3170 N 305.967 -1.56429 0.191757 0
M  V30 3171 C 307.213 -1.97777 -0.448554 0
M  V30 3172 C 307.546 -1.07847 -1.61501 0
M  V30 3173 O 306.821 -0.129774 -1.94067 0
M  V30 3174 C 307.104 -3.48362 -0.911906 0
M  V30 3175 C 306.957 -4.4907 0.256136 0
M  V30 3176 C 308.276 -4.02561 -1.77857 0
M  V30 3177 H 305.395 -0.719071 -0.161572 0
M  V30 3178 H 308.037 -1.87896 0.282007 0
M  V30 3179 H 306.187 -3.56914 -1.53442 0
M  V30 3180 H 307.859 -4.5256 0.893733 0
M  V30 3181 H 306.102 -4.24181 0.908436 0
M  V30 3182 H 306.773 -5.51889 -0.11053 0
M  V30 3183 H 309.249 -3.96767 -1.25359 0
M  V30 3184 H 308.125 -5.08301 -2.07174 0
M  V30 3185 H 308.386 -3.47616 -2.73158 0
M  V30 3186 N 307.445 0.0818655 -1.57387 0
M  V30 3187 C 308.408 1.08265 -2.02018 0
M  V30 3188 C 309.408 1.32183 -0.915664 0
M  V30 3189 O 310.598 1.28073 -1.18081 0
M  V30 3190 C 307.73 2.42871 -2.39221 0
M  V30 3191 H 308.923 0.698204 -2.91659 0
M  V30 3192 H 306.476 0.327303 -1.52835 0
M  V30 3193 H 307.211 2.86167 -1.52575 0
M  V30 3194 H 306.996 2.26855 -3.19811 0
M  V30 3195 H 308.486 3.14826 -2.74362 0
M  V30 3196 N 308.923 1.53595 0.353017 0
M  V30 3197 C 309.855 1.77219 1.45348 0
M  V30 3198 C 310.868 0.65324 1.49119 0
M  V30 3199 O 312.057 0.929775 1.52373 0
M  V30 3200 C 309.157 1.84841 2.84055 0
M  V30 3201 C 308.33 3.14649 3.03833 0
M  V30 3202 C 307.389 3.13351 4.22727 0
M  V30 3203 O 306.415 3.87107 4.17297 0
M  V30 3204 N 307.617 2.35052 5.30783 0
M  V30 3205 H 310.382 2.72178 1.25457 0
M  V30 3206 H 307.943 1.52528 0.542833 0
M  V30 3207 H 309.935 1.81435 3.61751 0
M  V30 3208 H 308.505 0.971114 2.97133 0
M  V30 3209 H 307.725 3.31256 2.13689 0
M  V30 3210 H 309.013 4.00411 3.13925 0
M  V30 3211 H 308.411 1.74663 5.38061 0
M  V30 3212 H 306.968 2.37453 6.07009 0
M  V30 3213 N 310.401 -0.613514 1.45168 0
M  V30 3214 C 311.812 -1.19539 1.43413 0
M  V30 3215 C 312.163 -1.95558 0.158632 0
M  V30 3216 O 311.288 -2.0335 -0.740119 0
M  V30 3217 C 311.883 -2.17445 2.59813 0
M  V30 3218 C 310.442 -2.71022 2.61197 0
M  V30 3219 C 309.589 -1.46323 2.35552 0
M  V30 3220 H 312.54 -0.403163 1.53494 0
M  V30 3221 H 312.561 -3.00373 2.33574 0
M  V30 3222 H 312.073 -1.62089 3.52631 0
M  V30 3223 H 310.174 -3.30332 1.7237 0
M  V30 3224 H 310.287 -3.15859 3.60236 0
M  V30 3225 H 308.651 -1.75072 1.84992 0
M  V30 3226 H 309.434 -0.92844 3.30507 0
M  V30 3227 N 311.879 -1.3236 -0.855495 0
M  V30 3228 C 312.809 -1.23833 -1.97958 0
M  V30 3229 C 313.79 -0.122361 -1.69659 0
M  V30 3230 O 314.975 -0.30939 -1.9172 0
M  V30 3231 C 312.105 -0.959772 -3.33775 0
M  V30 3232 C 311.059 -2.03689 -3.76424 0
M  V30 3233 C 310.385 -1.61075 -5.09862 0
M  V30 3234 C 311.685 -3.4518 -3.9198 0
M  V30 3235 H 313.379 -2.1788 -2.0535 0
M  V30 3236 H 310.925 -1.04891 -0.986605 0
M  V30 3237 H 312.878 -0.886678 -4.11966 0
M  V30 3238 H 311.602 0.0163404 -3.26596 0
M  V30 3239 H 310.261 -2.10012 -3.00484 0
M  V30 3240 H 309.909 -0.622107 -4.99138 0
M  V30 3241 H 309.609 -2.33143 -5.39368 0
M  V30 3242 H 311.133 -1.55201 -5.90546 0
M  V30 3243 H 312.547 -3.4145 -4.60526 0
M  V30 3244 H 310.944 -4.1559 -4.32903 0
M  V30 3245 H 312.014 -3.84903 -2.94919 0
M  V30 3246 N 313.357 1.07166 -1.15556 0
M  V30 3247 C 314.605 1.79443 -0.929764 0
M  V30 3248 C 314.926 1.87246 0.544414 0
M  V30 3249 O 314.196 1.37473 1.39564 0
M  V30 3250 H 312.776 0.664625 -0.341003 0
M  V30 3251 H 315.438 1.29499 -1.45657 0
M  V30 3252 H 314.534 2.81832 -1.34079 0
M  V30 3253 N 314.835 0.952656 1.25548 0
M  V30 3254 C 315.768 0.415525 2.24385 0
M  V30 3255 C 316.746 -0.502046 1.54655 0
M  V30 3256 O 317.93 -0.436875 1.83368 0
M  V30 3257 C 315.057 -0.401734 3.36309 0
M  V30 3258 C 314.103 0.455949 4.24056 0
M  V30 3259 S 314.936 1.88698 5.01152 0
M  V30 3260 C 316.092 1.07809 6.16545 0
M  V30 3261 H 316.325 1.25315 2.69599 0
M  V30 3262 H 313.858 0.756587 1.34592 0
M  V30 3263 H 315.816 -0.867329 4.01233 0
M  V30 3264 H 314.477 -1.21416 2.89684 0
M  V30 3265 H 313.67 -0.170776 5.03711 0
M  V30 3266 H 313.272 0.856675 3.64056 0
M  V30 3267 H 315.564 0.325816 6.76716 0
M  V30 3268 H 316.507 1.84849 6.83547 0
M  V30 3269 H 316.915 0.60909 5.61204 0
M  V30 3270 N 316.313 -1.40141 0.720998 0
M  V30 3271 C 317.729 -1.54632 0.395113 0
M  V30 3272 C 317.929 -1.69115 -1.09555 0
M  V30 3273 O 316.985 -1.68377 -1.88163 0
M  V30 3274 C 318.298 -2.77177 1.1659 0
M  V30 3275 C 319.846 -2.91 1.15274 0
M  V30 3276 C 320.321 -4.16465 1.90579 0
M  V30 3277 N 321.812 -4.23476 1.87675 0
M  V30 3278 C 322.547 -5.19475 2.42762 0
M  V30 3279 N 322.043 -6.21348 3.06428 0
M  V30 3280 N 323.836 -5.11592 2.32874 0
M  V30 3281 H 315.987 -1.28986 1.68749 0
M  V30 3282 H 318.25 -0.62412 0.713567 0
M  V30 3283 H 317.956 -2.72771 2.22011 0
M  V30 3284 H 317.83 -3.69442 0.76108 0
M  V30 3285 H 320.217 -2.94907 0.106702 0
M  V30 3286 H 320.298 -1.99838 1.59682 0
M  V30 3287 H 319.942 -4.1332 2.95176 0
M  V30 3288 H 319.872 -5.06646 1.43587 0
M  V30 3289 H 322.363 -3.50497 1.41281 0
M  V30 3290 H 322.676 -6.91034 3.45965 0
M  V30 3291 H 321.021 -6.21777 3.10514 0
M  V30 3292 H 324.212 -4.30936 1.82789 0
M  V30 3293 H 324.385 -5.86233 2.76106 0
M  V30 3294 N 317.792 -0.46758 -1.50504 0
M  V30 3295 C 319.069 0.15003 -1.95024 0
M  V30 3296 C 319.449 1.57304 -1.40779 0
M  V30 3297 O 318.797 2.20281 -0.607319 0
M  V30 3298 C 319.007 0.0969324 -3.48865 0
M  V30 3299 C 320.355 0.287565 -4.23625 0
M  V30 3300 O 321.379 0.173678 -3.55776 0
M  V30 3301 O 320.238 0.517186 -5.44047 0
M  V30 3302 H 317.332 0.113582 -0.819163 0
M  V30 3303 H 319.878 -0.52773 -1.61286 0
M  V30 3304 H 318.65 -0.896732 -3.80886 0
M  V30 3305 H 318.273 0.816303 -3.8913 0
M  V30 3306 N 319.27 1.56325 -0.20005 0
M  V30 3307 C 320.51 1.99619 0.439519 0
M  V30 3308 C 320.874 1.08423 1.58456 0
M  V30 3309 O 322.075 1.40973 2.28867 0
M  V30 3310 C 320.346 3.46314 0.883258 0
M  V30 3311 S 321.905 4.11634 1.51997 0
M  V30 3312 H 318.723 0.697007 0.140363 0
M  V30 3313 H 321.325 1.93118 -0.304282 0
M  V30 3314 H 320.029 4.10381 0.0398967 0
M  V30 3315 H 319.56 3.56643 1.6604 0
M  V30 3316 H 321.575 4.09049 2.8088 0
M  V30 3317 N 320.748 -0.0735177 1.57428 0
M  V30 3318 C 321.996 -0.771472 1.86796 0
M  V30 3319 C 322.317 -1.78201 0.791804 0
M  V30 3320 O 321.587 -1.95074 -0.179718 0
M  V30 3321 H 320.167 -0.28791 0.689287 0
M  V30 3322 H 322.829 -0.0500161 1.94836 0
M  V30 3323 H 321.925 -1.28874 2.8425 0
M  V30 3324 N 322.226 -1.5378 -0.344866 0
M  V30 3325 C 323.473 -1.70963 -1.08526 0
M  V30 3326 C 323.801 -0.472126 -1.88683 0
M  V30 3327 O 323.056 0.546116 -1.87926 0
M  V30 3328 C 323.355 -2.92407 -2.05506 0
M  V30 3329 C 323.021 -4.28066 -1.41671 0
M  V30 3330 C 321.683 -4.64951 -1.2399 0
M  V30 3331 C 324.035 -5.12344 -0.956726 0
M  V30 3332 C 321.363 -5.83733 -0.589277 0
M  V30 3333 C 323.715 -6.3179 -0.320015 0
M  V30 3334 C 322.379 -6.67372 -0.130881 0
M  V30 3335 H 321.649 -0.625598 -0.397124 0
M  V30 3336 H 324.296 -1.87995 -0.36469 0
M  V30 3337 H 322.601 -2.69973 -2.8394 0
M  V30 3338 H 324.298 -3.02895 -2.62784 0
M  V30 3339 H 320.888 -3.99034 -1.56429 0
M  V30 3340 H 325.072 -4.8438 -1.08118 0
M  V30 3341 H 320.328 -6.09877 -0.431344 0
M  V30 3342 H 324.502 -6.96386 0.0445072 0
M  V30 3343 H 322.129 -7.59273 0.375318 0
M  V30 3344 N 323.704 0.605807 -1.45491 0
M  V30 3345 C 324.95 1.36679 -1.49823 0
M  V30 3346 C 325.283 1.93693 -0.140175 0
M  V30 3347 O 324.558 1.75158 0.845581 0
M  V30 3348 C 324.841 2.51337 -2.57879 0
M  V30 3349 C 324.694 1.99508 -4.03134 0
M  V30 3350 C 326.013 3.53463 -2.62205 0
M  V30 3351 H 323.132 0.495617 -0.545466 0
M  V30 3352 H 325.774 0.682732 -1.7731 0
M  V30 3353 H 323.924 3.09691 -2.34571 0
M  V30 3354 H 325.596 1.45789 -4.37656 0
M  V30 3355 H 323.839 1.30496 -4.13707 0
M  V30 3356 H 324.51 2.82169 -4.74431 0
M  V30 3357 H 326.986 3.04953 -2.83095 0
M  V30 3358 H 325.862 4.31178 -3.39672 0
M  V30 3359 H 326.123 4.09197 -1.67363 0
M  V30 3360 N 325.182 1.32811 0.848464 0
M  V30 3361 C 326.407 1.26882 1.6406 0
M  V30 3362 C 326.832 -0.15913 1.87426 0
M  V30 3363 O 326.19 -1.11258 1.43148 0
M  V30 3364 C 326.238 2.03997 2.97351 0
M  V30 3365 O 325.342 1.39201 3.88197 0
M  V30 3366 H 324.683 0.436982 0.499943 0
M  V30 3367 H 327.213 1.75224 1.0563 0
M  V30 3368 H 327.223 2.14403 3.47124 0
M  V30 3369 H 325.898 3.0783 2.79666 0
M  V30 3370 H 324.475 1.37381 3.46671 0
M  V30 3371 N 326.66 -1.06551 1.16123 0
M  V30 3372 C 327.623 -2.12132 0.867906 0
M  V30 3373 C 328.623 -1.60224 -0.135944 0
M  V30 3374 O 329.813 -1.73943 0.0946422 0
M  V30 3375 C 326.945 -3.396 0.297419 0
M  V30 3376 H 328.138 -2.39586 1.80385 0
M  V30 3377 H 325.691 -1.22574 0.969812 0
M  V30 3378 H 326.426 -3.17794 -0.64633 0
M  V30 3379 H 326.211 -3.78581 1.02073 0
M  V30 3380 H 327.701 -4.17455 0.110052 0
M  V30 3381 N 328.138 -0.959301 -1.25041 0
M  V30 3382 C 329.048 -0.489994 -2.29426 0
M  V30 3383 C 330.064 0.444944 -1.68215 0
M  V30 3384 O 331.24 0.320046 -1.98841 0
M  V30 3385 C 328.305 0.220309 -3.45999 0
M  V30 3386 C 327.366 -0.753418 -4.22637 0
M  V30 3387 C 326.599 -0.076918 -5.33645 0
M  V30 3388 O 326.822 1.13649 -5.58963 0
M  V30 3389 O 325.756 -0.764824 -5.97021 0
M  V30 3390 H 329.582 -1.35755 -2.71669 0
M  V30 3391 H 327.167 -0.725961 -1.30576 0
M  V30 3392 H 329.049 0.619677 -4.16819 0
M  V30 3393 H 327.724 1.06296 -3.0575 0
M  V30 3394 H 326.631 -1.20308 -3.54227 0
M  V30 3395 H 327.964 -1.56423 -4.66683 0
M  V30 3396 N 329.616 1.39756 -0.72842 0
M  V30 3397 C 331.027 1.83498 -0.344289 0
M  V30 3398 C 331.378 1.60868 1.12321 0
M  V30 3399 O 330.503 1.09634 1.86573 0
M  V30 3400 C 331.098 3.33114 -0.618112 0
M  V30 3401 C 329.657 3.753 -0.287549 0
M  V30 3402 C 328.804 2.62831 -0.884048 0
M  V30 3403 H 331.755 1.28842 -0.926578 0
M  V30 3404 H 331.776 3.80334 0.112349 0
M  V30 3405 H 331.288 3.49553 -1.68625 0
M  V30 3406 H 329.389 3.64451 0.775012 0
M  V30 3407 H 329.502 4.72945 -0.765512 0
M  V30 3408 H 327.866 2.52792 -0.311149 0
M  V30 3409 H 328.649 2.82078 -1.95671 0
M  V30 3410 N 331.094 0.475555 1.50254 0
M  V30 3411 C 332.004 -0.321501 2.32387 0
M  V30 3412 C 333.02 -0.991755 1.42969 0
M  V30 3413 O 334.196 -0.978747 1.76018 0
M  V30 3414 C 331.261 -1.38667 3.17762 0
M  V30 3415 C 330.322 -0.732538 4.23004 0
M  V30 3416 C 329.555 -1.74695 5.04299 0
M  V30 3417 O 329.778 -2.97399 4.86734 0
M  V30 3418 O 328.712 -1.31631 5.8733 0
M  V30 3419 H 332.538 0.350071 3.01676 0
M  V30 3420 H 330.123 0.237321 1.47503 0
M  V30 3421 H 332.005 -2.00354 3.70724 0
M  V30 3422 H 330.68 -2.04163 2.51196 0
M  V30 3423 H 329.587 -0.0765902 3.74022 0
M  V30 3424 H 330.92 -0.120452 4.92053 0
M  V30 3425 N 332.573 -1.56217 0.208337 0
M  V30 3426 C 333.989 -1.58919 -0.14729 0
M  V30 3427 C 334.189 -1.22486 -1.59998 0
M  V30 3428 O 333.245 -0.953849 -2.3379 0
M  V30 3429 C 334.558 -3.00236 0.167048 0
M  V30 3430 C 336.106 -3.12813 0.108219 0
M  V30 3431 C 336.581 -4.56284 0.396049 0
M  V30 3432 N 338.072 -4.61912 0.345142 0
M  V30 3433 C 338.807 -5.70837 0.541523 0
M  V30 3434 N 338.303 -6.88178 0.798968 0
M  V30 3435 N 340.096 -5.60091 0.474867 0
M  V30 3436 H 332.247 -1.78177 1.15614 0
M  V30 3437 H 334.51 -0.827555 0.462446 0
M  V30 3438 H 334.216 -3.31499 1.1748 0
M  V30 3439 H 334.09 -3.7354 -0.524184 0
M  V30 3440 H 336.477 -2.81354 -0.890157 0
M  V30 3441 H 336.558 -2.41866 0.832729 0
M  V30 3442 H 336.202 -4.88458 1.3918 0
M  V30 3443 H 336.132 -5.25439 -0.349502 0
M  V30 3444 H 338.623 -3.77589 0.153316 0
M  V30 3445 H 338.936 -7.67095 0.93727 0
M  V30 3446 H 337.281 -6.89953 0.836013 0
M  V30 3447 H 340.472 -4.67297 0.274064 0
M  V30 3448 H 340.645 -6.44917 0.631326 0
M  V30 3449 N 334.051 0.0651679 -1.57465 0
M  V30 3450 C 335.298 0.763063 -1.87573 0
M  V30 3451 C 335.626 1.77242 -0.800961 0
M  V30 3452 O 334.881 1.94651 0.202316 0
M  V30 3453 C 335.18 1.50081 -3.24362 0
M  V30 3454 C 334.846 0.630816 -4.46466 0
M  V30 3455 C 333.508 0.391082 -4.79608 0
M  V30 3456 C 335.86 0.0279465 -5.21193 0
M  V30 3457 C 333.188 -0.460894 -5.84887 0
M  V30 3458 C 335.54 -0.811522 -6.27373 0
M  V30 3459 C 334.204 -1.06106 -6.59013 0
M  V30 3460 H 333.474 0.279224 -0.686378 0
M  V30 3461 H 336.121 0.0236726 -1.91485 0
M  V30 3462 H 334.426 2.31258 -3.16271 0
M  V30 3463 H 336.123 2.04571 -3.44894 0
M  V30 3464 H 332.713 0.8278 -4.2053 0
M  V30 3465 H 336.897 0.200262 -4.95896 0
M  V30 3466 H 332.153 -0.662907 -6.07796 0
M  V30 3467 H 336.327 -1.28537 -6.84435 0
M  V30 3468 H 333.954 -1.723 -7.40417 0
M  V30 3469 N 335.529 1.53961 0.336706 0
M  V30 3470 C 336.492 1.81724 1.39675 0
M  V30 3471 C 337.492 0.688532 1.45313 0
M  V30 3472 O 338.682 0.956829 1.45569 0
M  V30 3473 C 335.814 1.96543 2.78538 0
M  V30 3474 H 337.007 2.76424 1.16318 0
M  V30 3475 H 334.56 1.45478 0.571474 0
M  V30 3476 H 335.295 1.0401 3.07168 0
M  V30 3477 H 335.08 2.78665 2.75841 0
M  V30 3478 H 336.57 2.19516 3.5525 0
M  V30 3479 N 337.007 -0.598083 1.45811 0
M  V30 3480 C 338.253 -1.35882 1.50545 0
M  V30 3481 C 338.586 -1.93616 0.150445 0
M  V30 3482 O 337.861 -1.75604 -0.83628 0
M  V30 3483 C 338.144 -2.49966 2.59208 0
M  V30 3484 C 337.997 -1.97367 4.04186 0
M  V30 3485 C 339.316 -3.52068 2.64076 0
M  V30 3486 H 336.435 -0.492717 0.548087 0
M  V30 3487 H 339.077 -0.673319 1.77669 0
M  V30 3488 H 337.227 -3.08443 2.3621 0
M  V30 3489 H 338.899 -1.43466 4.38423 0
M  V30 3490 H 337.142 -1.283 4.14393 0
M  V30 3491 H 337.813 -2.79649 4.75921 0
M  V30 3492 H 340.289 -3.03448 2.84708 0
M  V30 3493 H 339.165 -4.2937 3.41954 0
M  V30 3494 H 339.426 -4.08304 1.69531 0
M  V30 3495 N 338.485 -1.33259 -0.841409 0
M  V30 3496 C 339.896 -1.22066 -1.41269 0
M  V30 3497 C 340.247 0.161479 -1.95534 0
M  V30 3498 O 339.372 1.06094 -1.88608 0
M  V30 3499 C 339.967 -2.20996 -2.568 0
M  V30 3500 C 338.526 -2.13649 -3.09888 0
M  V30 3501 C 337.673 -2.08623 -1.82679 0
M  V30 3502 H 340.624 -1.44895 -0.647395 0
M  V30 3503 H 340.645 -1.81621 -3.34356 0
M  V30 3504 H 340.157 -3.2158 -2.17274 0
M  V30 3505 H 338.258 -1.16359 -3.53965 0
M  V30 3506 H 338.371 -3.04079 -3.70234 0
M  V30 3507 H 336.735 -1.54061 -2.02824 0
M  V30 3508 H 337.518 -3.1101 -1.45353 0
M  V30 3509 N 339.963 1.05934 -1.16686 0
M  V30 3510 C 341.193 1.82226 -0.973515 0
M  V30 3511 C 341.601 1.8297 0.481532 0
M  V30 3512 O 340.944 1.25009 1.34604 0
M  V30 3513 C 341.006 3.29897 -1.42858 0
M  V30 3514 C 340.67 3.52849 -2.90425 0
M  V30 3515 C 341.667 3.45595 -3.88407 0
M  V30 3516 C 339.352 3.80053 -3.28428 0
M  V30 3517 C 341.346 3.65217 -5.22394 0
M  V30 3518 C 339.033 3.99325 -4.62583 0
M  V30 3519 C 340.031 3.91905 -5.59374 0
M  V30 3520 O 339.719 4.10647 -6.91104 0
M  V30 3521 H 339.451 0.581314 -0.345036 0
M  V30 3522 H 342.005 1.3453 -1.55212 0
M  V30 3523 H 340.235 3.78472 -0.793477 0
M  V30 3524 H 341.924 3.87692 -1.20207 0
M  V30 3525 H 342.69 3.24564 -3.60393 0
M  V30 3526 H 338.569 3.84936 -2.53664 0
M  V30 3527 H 342.113 3.59341 -5.9793 0
M  V30 3528 H 338.01 4.19846 -4.90306 0
M  V30 3529 H 338.778 4.27915 -6.97733 0
M  V30 3530 N 341.441 0.965919 1.2453 0
M  V30 3531 C 342.391 0.465731 2.23193 0
M  V30 3532 C 343.375 -0.451277 1.54442 0
M  V30 3533 O 344.567 -0.282489 1.74731 0
M  V30 3534 C 341.696 -0.244511 3.42428 0
M  V30 3535 C 340.782 0.691222 4.18429 0
M  V30 3536 N 341.173 1.82771 4.71623 0
M  V30 3537 C 339.471 0.501649 4.4317 0
M  V30 3538 C 340.172 2.41285 5.29298 0
M  V30 3539 N 339.148 1.69819 5.16394 0
M  V30 3540 H 342.95 1.33291 2.61937 0
M  V30 3541 H 340.464 0.824789 1.39896 0
M  V30 3542 H 342.461 -0.620056 4.12263 0
M  V30 3543 H 341.121 -1.10815 3.05205 0
M  V30 3544 H 342.132 2.20929 4.68413 0
M  V30 3545 H 338.809 -0.318177 4.16286 0
M  V30 3546 H 340.199 3.37181 5.8117 0
M  V30 3547 N 342.919 -1.39368 0.735821 0
M  V30 3548 C 344.196 -1.94465 0.210395 0
M  V30 3549 C 344.576 -1.67254 -1.28799 0
M  V30 3550 O 343.924 -1.00123 -2.05396 0
M  V30 3551 C 344.134 -3.4472 0.544897 0
M  V30 3552 C 345.482 -4.21708 0.494689 0
M  V30 3553 O 346.506 -3.52922 0.482136 0
M  V30 3554 O 345.365 -5.44299 0.489947 0
M  V30 3555 H 342.459 -0.826096 0.0386666 0
M  V30 3556 H 345.005 -1.48863 0.814735 0
M  V30 3557 H 343.777 -3.57963 1.58045 0
M  V30 3558 H 343.4 -3.97502 -0.08837 0
M  V30 3559 N 344.397 -0.483516 -1.5 0
M  V30 3560 C 345.645 0.067027 -2.01989 0
M  V30 3561 C 345.966 1.3909 -1.36671 0
M  V30 3562 O 345.236 1.88978 -0.516152 0
M  V30 3563 H 343.816 0.0277606 -0.746484 0
M  V30 3564 H 346.478 -0.636773 -1.84204 0
M  V30 3565 H 345.574 0.209484 -3.11396 0
M  V30 3566 N 345.875 1.56104 -0.216619 0
M  V30 3567 C 346.807 2.17339 0.72776 0
M  V30 3568 C 347.82 1.14109 1.16116 0
M  V30 3569 O 349.009 1.4111 1.09317 0
M  V30 3570 C 346.109 2.73818 1.99693 0
M  V30 3571 C 345.282 4.02168 1.71988 0
M  V30 3572 C 344.341 4.43259 2.83562 0
M  V30 3573 O 343.367 5.10257 2.52244 0
M  V30 3574 N 344.569 4.08535 4.12407 0
M  V30 3575 H 347.334 2.99005 0.203983 0
M  V30 3576 H 344.895 1.61861 -0.0354289 0
M  V30 3577 H 346.887 2.9828 2.73516 0
M  V30 3578 H 345.457 1.96483 2.43132 0
M  V30 3579 H 344.677 3.85612 0.818337 0
M  V30 3580 H 345.965 4.85907 1.50903 0
M  V30 3581 H 345.363 3.54687 4.40696 0
M  V30 3582 H 343.92 4.37901 4.8279 0
M  V30 3583 N 347.353 -0.0568162 1.57498 0
M  V30 3584 C 348.764 -0.606858 1.76562 0
M  V30 3585 C 349.115 -1.77114 0.844094 0
M  V30 3586 O 348.24 -2.16376 0.0318911 0
M  V30 3587 C 348.835 -1.10766 3.20182 0
M  V30 3588 C 347.394 -1.60344 3.40539 0
M  V30 3589 C 346.541 -0.529311 2.72201 0
M  V30 3590 H 349.492 0.169393 1.57793 0
M  V30 3591 H 349.513 -1.97602 3.25167 0
M  V30 3592 H 349.025 -0.26006 3.87228 0
M  V30 3593 H 347.126 -2.47379 2.78629 0
M  V30 3594 H 347.239 -1.67006 4.4905 0
M  V30 3595 H 345.603 -0.977893 2.35179 0
M  V30 3596 H 346.386 0.308352 3.41912 0
M  V30 3597 N 348.832 -1.54138 -0.328536 0
M  V30 3598 C 349.742 -1.86192 -1.42723 0
M  V30 3599 C 350.758 -0.753382 -1.56844 0
M  V30 3600 O 351.934 -1.04718 -1.72035 0
M  V30 3601 C 348.999 -2.07824 -2.77507 0
M  V30 3602 C 348.06 -3.31641 -2.72603 0
M  V30 3603 C 347.293 -3.52232 -4.00959 0
M  V30 3604 O 347.516 -2.7636 -4.9898 0
M  V30 3605 O 346.45 -4.45699 -4.0452 0
M  V30 3606 H 350.276 -2.79608 -1.18547 0
M  V30 3607 H 347.861 -1.3998 -0.522104 0
M  V30 3608 H 349.743 -2.23411 -3.57303 0
M  V30 3609 H 348.418 -1.17596 -3.01584 0
M  V30 3610 H 347.325 -3.21444 -1.91376 0
M  V30 3611 H 348.658 -4.2191 -2.53481 0
M  V30 3612 N 350.31 0.590341 -1.46126 0
M  V30 3613 C 351.721 1.17243 -1.45296 0
M  V30 3614 C 352.072 1.95281 -0.189723 0
M  V30 3615 O 351.197 2.04502 0.707674 0
M  V30 3616 C 351.792 2.13284 -2.6324 0
M  V30 3617 C 350.351 2.66832 -2.65476 0
M  V30 3618 C 349.498 1.42557 -2.3785 0
M  V30 3619 H 352.449 0.378692 -1.54116 0
M  V30 3620 H 352.47 2.96619 -2.38323 0
M  V30 3621 H 351.982 1.56459 -3.55165 0
M  V30 3622 H 350.083 3.27548 -1.77603 0
M  V30 3623 H 350.196 3.10088 -3.65215 0
M  V30 3624 H 348.56 1.72107 -1.87753 0
M  V30 3625 H 349.343 0.875741 -3.31942 0
M  V30 3626 N 351.788 1.33704 0.83433 0
M  V30 3627 C 353.034 1.25603 1.59222 0
M  V30 3628 C 353.367 -0.176659 1.93395 0
M  V30 3629 O 352.642 -1.11915 1.59076 0
M  V30 3630 C 352.925 2.13576 2.89926 0
M  V30 3631 C 352.778 3.65326 2.62406 0
M  V30 3632 C 354.097 2.01238 3.91397 0
M  V30 3633 H 351.216 0.457613 0.577719 0
M  V30 3634 H 353.858 1.63848 0.961972 0
M  V30 3635 H 352.008 1.8109 3.43713 0
M  V30 3636 H 353.68 4.08124 2.15017 0
M  V30 3637 H 351.923 3.8698 1.96033 0
M  V30 3638 H 352.594 4.22232 3.55562 0
M  V30 3639 H 355.07 2.29738 3.46929 0
M  V30 3640 H 353.946 2.65036 4.80673 0
M  V30 3641 H 354.207 0.985951 4.30966 0
M  V30 3642 N 353.266 -1.05314 1.17247 0
M  V30 3643 C 354.682 -1.30452 0.919473 0
M  V30 3644 C 354.882 -1.9703 -0.42209 0
M  V30 3645 O 353.938 -2.24311 -1.15935 0
M  V30 3646 C 355.251 -2.17551 2.07586 0
M  V30 3647 C 356.799 -2.30937 2.11275 0
M  V30 3648 C 357.274 -3.21396 3.26296 0
M  V30 3649 N 358.765 -3.28981 3.26076 0
M  V30 3650 C 359.5 -3.99095 4.11716 0
M  V30 3651 N 358.996 -4.71648 5.07465 0
M  V30 3652 N 360.789 -3.95247 3.9967 0
M  V30 3653 H 352.94 -0.604988 2.03602 0
M  V30 3654 H 355.203 -0.329368 0.888944 0
M  V30 3655 H 354.909 -1.75921 3.0454 0
M  V30 3656 H 354.783 -3.18182 2.02584 0
M  V30 3657 H 357.17 -2.71809 1.14907 0
M  V30 3658 H 357.251 -1.2994 2.20339 0
M  V30 3659 H 356.895 -2.81238 4.22927 0
M  V30 3660 H 356.825 -4.22395 3.14467 0
M  V30 3661 H 359.316 -2.77286 2.5675 0
M  V30 3662 H 359.629 -5.22705 5.6921 0
M  V30 3663 H 357.974 -4.70594 5.11435 0
M  V30 3664 H 361.165 -3.37691 3.24164 0
M  V30 3665 H 361.338 -4.4962 4.66632 0
M  V30 3666 N 354.744 -0.972509 -1.24016 0
M  V30 3667 C 355.677 -0.45117 -2.23696 0
M  V30 3668 C 356.655 0.477378 -1.55434 0
M  V30 3669 O 357.839 0.407647 -1.84039 0
M  V30 3670 C 354.966 0.34818 -3.36906 0
M  V30 3671 C 354.012 -0.523355 -4.23277 0
M  V30 3672 S 354.845 -1.96647 -4.98087 0
M  V30 3673 C 356.001 -1.17604 -6.14752 0
M  V30 3674 H 356.234 -1.29588 -2.67571 0
M  V30 3675 H 353.767 -0.777903 -1.33372 0
M  V30 3676 H 355.725 0.803387 -4.02562 0
M  V30 3677 H 354.386 1.16792 -2.91579 0
M  V30 3678 H 353.579 0.0906181 -5.03919 0
M  V30 3679 H 353.181 -0.914485 -3.62647 0
M  V30 3680 H 355.473 -0.433434 -6.76112 0
M  V30 3681 H 356.416 -1.95701 -6.8052 0
M  V30 3682 H 356.824 -0.698295 -5.60164 0
M  V30 3683 N 356.222 1.38976 -0.743202 0
M  V30 3684 C 357.638 1.53984 -0.419664 0
M  V30 3685 C 357.838 1.70837 1.0685 0
M  V30 3686 O 356.894 1.7135 1.8546 0
M  V30 3687 C 358.207 2.75287 -1.20985 0
M  V30 3688 C 359.755 2.89129 -1.19889 0
M  V30 3689 C 360.23 4.13381 -1.97181 0
M  V30 3690 N 361.721 4.20437 -1.94389 0
M  V30 3691 C 362.456 5.15547 -2.50996 0
M  V30 3692 N 361.952 6.16395 -3.16274 0
M  V30 3693 N 363.745 5.07822 -2.40984 0
M  V30 3694 H 355.896 1.26285 -1.7078 0
M  V30 3695 H 358.159 0.612689 -0.723406 0
M  V30 3696 H 357.865 2.69204 -2.26323 0
M  V30 3697 H 357.739 3.68184 -0.819759 0
M  V30 3698 H 360.126 2.947 -0.153606 0
M  V30 3699 H 360.207 1.97272 -1.62841 0
M  V30 3700 H 359.851 4.08572 -3.01714 0
M  V30 3701 H 359.781 5.04298 -1.51629 0
M  V30 3702 H 362.272 3.48205 -1.46839 0
M  V30 3703 H 362.585 6.85443 -3.56915 0
M  V30 3704 H 360.93 6.16758 -3.20367 0
M  V30 3705 H 364.121 4.27973 -1.89622 0
M  V30 3706 H 364.294 5.81767 -2.85397 0
M  V30 3707 N 357.7 0.491464 1.49741 0
M  V30 3708 C 358.977 -0.118984 1.95238 0
M  V30 3709 C 359.357 -1.55044 1.43264 0
M  V30 3710 O 358.705 -2.19287 0.642287 0
M  V30 3711 C 358.915 -0.0414187 3.48975 0
M  V30 3712 C 360.263 -0.220133 4.24029 0
M  V30 3713 O 361.287 -0.117055 3.56008 0
M  V30 3714 O 360.146 -0.430567 5.44801 0
M  V30 3715 H 357.24 -0.100536 0.820866 0
M  V30 3716 H 359.786 0.553322 1.60426 0
M  V30 3717 H 358.558 0.957214 3.79412 0
M  V30 3718 H 358.181 -0.754292 3.9038 0
M  V30 3719 N 359.178 -1.55987 0.224894 0
M  V30 3720 C 360.426 -1.97998 -0.405099 0
M  V30 3721 C 360.747 -1.11387 -1.60056 0
M  V30 3722 O 360.017 -0.191645 -1.9496 0
M  V30 3723 H 358.597 -0.731235 -0.152658 0
M  V30 3724 H 361.259 -1.92279 0.318567 0
M  V30 3725 H 360.355 -3.03463 -0.729167 0
M  V30 3726 N 360.656 0.0484629 -1.57525 0
M  V30 3727 C 361.905 0.742065 -1.87553 0
M  V30 3728 C 362.218 1.77545 -0.820802 0
M  V30 3729 O 363.424 2.52027 -1.00967 0
M  V30 3730 C 361.88 1.37081 -3.32771 0
M  V30 3731 C 361.488 0.374786 -4.4643 0
M  V30 3732 C 363.232 2.04542 -3.71972 0
M  V30 3733 C 361.139 1.01077 -5.82698 0
M  V30 3734 H 360.069 0.280903 -0.699721 0
M  V30 3735 H 362.72 -0.00411877 -1.835 0
M  V30 3736 H 361.102 2.16605 -3.31509 0
M  V30 3737 H 362.276 -0.392331 -4.59127 0
M  V30 3738 H 360.591 -0.196653 -4.15935 0
M  V30 3739 H 363.188 2.52943 -4.71088 0
M  V30 3740 H 363.531 2.85515 -3.02964 0
M  V30 3741 H 364.064 1.31819 -3.75325 0
M  V30 3742 H 360.803 0.240878 -6.55057 0
M  V30 3743 H 360.323 1.74819 -5.73758 0
M  V30 3744 H 362.002 1.52383 -6.28799 0
M  V30 3745 N 362.134 1.5431 0.320358 0
M  V30 3746 C 363.044 1.86946 1.41734 0
M  V30 3747 C 364.06 0.761689 1.56443 0
M  V30 3748 O 365.236 1.05629 1.71477 0
M  V30 3749 C 362.301 2.09293 2.76401 0
M  V30 3750 C 361.362 3.33082 2.70841 0
M  V30 3751 C 360.595 3.54353 3.99086 0
M  V30 3752 O 360.818 2.79002 4.97508 0
M  V30 3753 O 359.752 4.47838 4.0215 0
M  V30 3754 H 363.578 2.80232 1.17062 0
M  V30 3755 H 361.163 1.40255 0.514673 0
M  V30 3756 H 363.045 2.25303 3.56113 0
M  V30 3757 H 361.72 1.19194 3.00956 0
M  V30 3758 H 360.627 3.22454 1.89668 0
M  V30 3759 H 361.96 4.23249 2.5124 0
M  V30 3760 N 363.613 -0.582584 1.46437 0
M  V30 3761 C 364.859 -1.34278 1.51978 0
M  V30 3762 C 365.192 -1.93446 0.170973 0
M  V30 3763 O 364.467 -1.76481 -0.817608 0
M  V30 3764 C 364.75 -2.47203 2.61845 0
M  V30 3765 C 364.603 -1.93069 4.06257 0
M  V30 3766 C 365.922 -3.49247 2.67795 0
M  V30 3767 H 363.041 -0.486876 0.553282 0
M  V30 3768 H 365.683 -0.654437 1.78374 0
M  V30 3769 H 363.833 -3.0592 2.39469 0
M  V30 3770 H 365.505 -1.38808 4.3992 0
M  V30 3771 H 363.748 -1.23898 4.1573 0
M  V30 3772 H 364.419 -2.74586 4.7886 0
M  V30 3773 H 366.895 -3.00411 2.8791 0
M  V30 3774 H 365.771 -4.25719 3.46489 0
M  V30 3775 H 366.032 -4.06482 1.73852 0
M  V30 3776 N 365.091 -1.34144 -0.827227 0
M  V30 3777 C 366.502 -1.23557 -1.39966 0
M  V30 3778 C 366.853 0.140731 -1.95695 0
M  V30 3779 O 365.978 1.04087 -1.89723 0
M  V30 3780 C 366.573 -2.23708 -2.54441 0
M  V30 3781 C 365.132 -2.16924 -3.07605 0
M  V30 3782 C 364.279 -2.10549 -1.80456 0
M  V30 3783 H 367.23 -1.45573 -0.631991 0
M  V30 3784 H 367.251 -1.85157 -3.32411 0
M  V30 3785 H 366.763 -3.23866 -2.13851 0
M  V30 3786 H 364.864 -1.20107 -3.52711 0
M  V30 3787 H 364.977 -3.07988 -3.66988 0
M  V30 3788 H 363.341 -1.56203 -2.01178 0
M  V30 3789 H 364.124 -3.12535 -1.42046 0
M  V30 3790 N 366.569 1.04691 -1.17803 0
M  V30 3791 C 367.499 2.14494 -0.92275 0
M  V30 3792 C 368.48 1.69546 0.137179 0
M  V30 3793 O 369.665 1.94195 -0.0141108 0
M  V30 3794 C 366.795 3.44491 -0.440803 0
M  V30 3795 C 365.749 4.03031 -1.4405 0
M  V30 3796 C 365.075 5.28432 -0.81631 0
M  V30 3797 C 366.375 4.39932 -2.81527 0
M  V30 3798 H 368.069 2.36107 -1.84103 0
M  V30 3799 H 365.615 1.1347 -0.886599 0
M  V30 3800 H 367.568 4.2066 -0.249602 0
M  V30 3801 H 366.292 3.22546 0.513025 0
M  V30 3802 H 364.951 3.28937 -1.61853 0
M  V30 3803 H 364.599 5.02792 0.144511 0
M  V30 3804 H 364.299 5.68559 -1.48371 0
M  V30 3805 H 365.823 6.07284 -0.635496 0
M  V30 3806 H 367.237 5.07113 -2.67412 0
M  V30 3807 H 365.634 4.9109 -3.44892 0
M  V30 3808 H 366.704 3.50045 -3.35554 0
M  V30 3809 N 368.047 0.979072 1.23499 0
M  V30 3810 C 369.458 0.684391 1.73704 0
M  V30 3811 C 369.809 -0.799448 1.79174 0
M  V30 3812 O 368.934 -1.62531 1.42873 0
M  V30 3813 C 369.529 1.23564 3.15464 0
M  V30 3814 C 368.088 0.99063 3.6313 0
M  V30 3815 C 367.235 1.36416 2.41425 0
M  V30 3816 H 370.186 1.15307 1.09041 0
M  V30 3817 H 370.207 0.607417 3.7562 0
M  V30 3818 H 369.719 2.31561 3.1145 0
M  V30 3819 H 367.82 -0.0733136 3.72528 0
M  V30 3820 H 367.933 1.64427 4.5 0
M  V30 3821 H 366.297 0.782616 2.42378 0
M  V30 3822 H 367.08 2.45387 2.40083 0
M  V30 3823 N 369.525 -1.3858 0.750561 0
M  V30 3824 C 370.435 -2.34278 0.122825 0
M  V30 3825 C 371.451 -1.59116 -0.704131 0
M  V30 3826 O 372.627 -1.91326 -0.628987 0
M  V30 3827 C 369.692 -3.38221 -0.762086 0
M  V30 3828 C 368.753 -4.29227 0.078896 0
M  V30 3829 C 367.986 -5.28205 -0.763874 0
M  V30 3830 O 368.209 -5.34112 -2.00201 0
M  V30 3831 O 367.143 -6.01618 -0.18428 0
M  V30 3832 H 370.969 -2.89649 0.913088 0
M  V30 3833 H 368.554 -1.40374 0.511417 0
M  V30 3834 H 370.436 -4.01872 -1.26793 0
M  V30 3835 H 369.111 -2.85211 -1.5309 0
M  V30 3836 H 368.018 -3.68747 0.630621 0
M  V30 3837 H 369.351 -4.85484 0.810289 0
M  V30 3838 N 371.003 -0.499398 -1.49478 0
M  V30 3839 C 372.251 0.0455996 -2.02049 0
M  V30 3840 C 372.572 1.37633 -1.38138 0
M  V30 3841 O 371.842 1.8842 -0.536166 0
M  V30 3842 H 370.422 0.0198416 -0.746736 0
M  V30 3843 H 373.084 -0.656274 -1.83519 0
M  V30 3844 H 372.18 0.176445 -3.11601 0
M  V30 3845 N 372.481 1.55866 -0.233164 0
M  V30 3846 C 373.431 2.17442 0.685774 0
M  V30 3847 C 374.415 1.12617 1.14918 0
M  V30 3848 O 375.607 1.3857 1.10124 0
M  V30 3849 C 372.736 2.86685 1.88856 0
M  V30 3850 C 371.822 3.98749 1.4443 0
M  V30 3851 N 372.213 5.00744 0.713364 0
M  V30 3852 C 370.511 4.11052 1.73068 0
M  V30 3853 C 371.212 5.79673 0.485205 0
M  V30 3854 N 370.188 5.33454 1.04536 0
M  V30 3855 H 373.99 2.93659 0.119022 0
M  V30 3856 H 371.504 1.62362 -0.0348995 0
M  V30 3857 H 373.501 3.29218 2.55776 0
M  V30 3858 H 372.161 2.11967 2.45967 0
M  V30 3859 H 373.172 5.16613 0.364861 0
M  V30 3860 H 369.849 3.47495 2.31416 0
M  V30 3861 H 371.239 6.71829 -0.097365 0
M  V30 3862 N 373.959 -0.0401083 1.57549 0
M  V30 3863 C 375.207 -0.731677 1.8839 0
M  V30 3864 C 375.528 -1.76481 0.829425 0
M  V30 3865 O 374.798 -1.95411 -0.1383 0
M  V30 3866 H 373.378 -0.273225 0.695239 0
M  V30 3867 H 376.04 -0.00867725 1.94898 0
M  V30 3868 H 375.136 -1.22816 2.86919 0
M  V30 3869 N 375.437 -1.54477 -0.31217 0
M  V30 3870 C 376.4 -1.83923 -1.36766 0
M  V30 3871 C 377.4 -0.711563 -1.44199 0
M  V30 3872 O 378.59 -0.979866 -1.44029 0
M  V30 3873 C 375.722 -2.0095 -2.75376 0
M  V30 3874 H 376.915 -2.78239 -1.11906 0
M  V30 3875 H 374.468 -1.46369 -0.548257 0
M  V30 3876 H 375.203 -1.08883 -3.05475 0
M  V30 3877 H 374.988 -2.83018 -2.71373 0
M  V30 3878 H 376.478 -2.2514 -3.51713 0
M  V30 3879 N 376.915 0.57481 -1.46744 0
M  V30 3880 C 377.878 1.66533 -1.57478 0
M  V30 3881 C 378.878 1.54338 -0.451263 0
M  V30 3882 O 380.068 1.58814 -0.715813 0
M  V30 3883 C 377.2 3.05999 -1.50259 0
M  V30 3884 H 378.393 1.58372 -2.54673 0
M  V30 3885 H 375.946 0.793301 -1.34672 0
M  V30 3886 H 376.681 3.19709 -0.543725 0
M  V30 3887 H 376.466 3.16259 -2.31781 0
M  V30 3888 H 377.956 3.8537 -1.60872 0
M  V30 3889 N 378.394 1.34581 0.820102 0
M  V30 3890 C 379.64 1.27285 1.57881 0
M  V30 3891 C 379.973 -0.156137 1.93571 0
M  V30 3892 O 379.248 -1.10222 1.60254 0
M  V30 3893 C 379.531 2.16639 2.87645 0
M  V30 3894 C 379.384 3.68088 2.58517 0
M  V30 3895 C 380.703 2.05378 3.8924 0
M  V30 3896 H 377.822 0.463714 0.572833 0
M  V30 3897 H 380.464 1.64859 0.944539 0
M  V30 3898 H 378.614 1.84725 3.41773 0
M  V30 3899 H 380.286 4.10382 2.10676 0
M  V30 3900 H 378.529 3.89038 1.91917 0
M  V30 3901 H 379.2 4.2598 3.51063 0
M  V30 3902 H 381.676 2.33404 3.44473 0
M  V30 3903 H 380.552 2.7012 4.77835 0
M  V30 3904 H 380.813 1.0316 4.29896 0
M  V30 3905 N 379.872 -1.04064 1.18357 0
M  V30 3906 C 381.288 -1.2947 0.933258 0
M  V30 3907 C 381.488 -1.97466 -0.401169 0
M  V30 3908 O 380.544 -2.25528 -1.13549 0
M  V30 3909 C 381.857 -2.15337 2.09882 0
M  V30 3910 C 383.405 -2.28683 2.13712 0
M  V30 3911 C 383.88 -3.17917 3.29686 0
M  V30 3912 N 385.371 -3.25504 3.29547 0
M  V30 3913 C 386.106 -3.94706 4.15926 0
M  V30 3914 N 385.602 -4.66239 5.12439 0
M  V30 3915 N 387.395 -3.90986 4.0384 0
M  V30 3916 H 379.546 -0.583359 2.04232 0
M  V30 3917 H 381.809 -0.319921 0.892387 0
M  V30 3918 H 381.515 -1.72682 3.06389 0
M  V30 3919 H 381.389 -3.16015 2.05947 0
M  V30 3920 H 383.776 -2.70575 1.17784 0
M  V30 3921 H 383.857 -1.27596 2.21705 0
M  V30 3922 H 383.501 -2.76736 4.25887 0
M  V30 3923 H 383.431 -4.19036 3.1893 0
M  V30 3924 H 385.922 -2.74547 2.59677 0
M  V30 3925 H 386.235 -5.16638 5.74722 0
M  V30 3926 H 384.58 -4.65143 5.16398 0
M  V30 3927 H 387.771 -3.34234 3.27727 0
M  V30 3928 H 387.944 -4.44646 4.71375 0
M  V30 3929 N 381.35 -0.985608 -1.22978 0
M  V30 3930 C 382.597 -0.657386 -1.91532 0
M  V30 3931 C 382.925 0.809707 -1.76845 0
M  V30 3932 O 382.18 1.60021 -1.12658 0
M  V30 3933 C 382.479 -1.00014 -3.43121 0
M  V30 3934 C 382.145 -2.4583 -3.77993 0
M  V30 3935 C 380.807 -2.85679 -3.87222 0
M  V30 3936 C 383.159 -3.40378 -3.94705 0
M  V30 3937 C 380.487 -4.19081 -4.10595 0
M  V30 3938 C 382.839 -4.73429 -4.1958 0
M  V30 3939 C 381.503 -5.1303 -4.27032 0
M  V30 3940 H 380.773 -0.240555 -0.700867 0
M  V30 3941 H 383.42 -1.24044 -1.45895 0
M  V30 3942 H 381.725 -0.335072 -3.90365 0
M  V30 3943 H 383.422 -0.724322 -3.94404 0
M  V30 3944 H 380.012 -2.13939 -3.71387 0
M  V30 3945 H 384.196 -3.10766 -3.8696 0
M  V30 3946 H 379.452 -4.49362 -4.14589 0
M  V30 3947 H 383.626 -5.46644 -4.31455 0
M  V30 3948 H 381.253 -6.16418 -4.44896 0
M  V30 3949 N 382.828 1.3818 -0.7579 0
M  V30 3950 C 383.791 2.28764 -0.141286 0
M  V30 3951 C 384.791 1.47388 0.642907 0
M  V30 3952 O 385.981 1.67781 0.468536 0
M  V30 3953 C 383.113 3.31184 0.808069 0
M  V30 3954 H 384.306 2.848 -0.939633 0
M  V30 3955 H 381.859 1.47212 -0.525191 0
M  V30 3956 H 382.594 2.80247 1.63193 0
M  V30 3957 H 382.379 3.91314 0.248104 0
M  V30 3958 H 383.869 3.98909 1.23536 0
M  V30 3959 N 384.306 0.507319 1.49211 0
M  V30 3960 C 385.717 0.0611118 1.866 0
M  V30 3961 C 386.068 -1.35488 1.41907 0
M  V30 3962 O 385.193 -2.0108 0.799726 0
M  V30 3963 C 385.788 0.104125 3.3864 0
M  V30 3964 C 384.347 -0.28677 3.75306 0
M  V30 3965 C 383.494 0.473893 2.73221 0
M  V30 3966 H 386.445 0.719775 1.41439 0
M  V30 3967 H 386.466 -0.689672 3.74198 0
M  V30 3968 H 385.978 1.13482 3.71138 0
M  V30 3969 H 384.079 -1.32046 3.48417 0
M  V30 3970 H 384.192 0.0370745 4.79086 0
M  V30 3971 H 382.556 -0.0770644 2.54583 0
M  V30 3972 H 383.339 1.50478 3.08563 0
M  V30 3973 N 385.784 -1.5574 0.241426 0
M  V30 3974 C 387.009 -2.0366 -0.392111 0
M  V30 3975 C 387.434 -1.11969 -1.51144 0
M  V30 3976 O 386.792 -0.111594 -1.80956 0
M  V30 3977 C 386.84 -3.49638 -0.882371 0
M  V30 3978 O 385.944 -3.6108 -1.99235 0
M  V30 3979 H 385.285 -0.658379 -0.0862122 0
M  V30 3980 H 387.815 -2.01302 0.365881 0
M  V30 3981 H 387.825 -3.90351 -1.18702 0
M  V30 3982 H 386.5 -4.15852 -0.0632361 0
M  V30 3983 H 385.077 -3.32262 -1.69282 0
M  V30 3984 N 387.262 0.0317525 -1.57568 0
M  V30 3985 C 388.678 0.38735 -1.54828 0
M  V30 3986 C 388.878 1.7677 -0.967187 0
M  V30 3987 O 387.934 2.45581 -0.587063 0
M  V30 3988 C 389.247 0.291667 -2.99282 0
M  V30 3989 C 390.795 0.368946 -3.10818 0
M  V30 3990 C 391.27 0.302741 -4.56998 0
M  V30 3991 N 392.761 0.361617 -4.61786 0
M  V30 3992 C 393.496 0.333238 -5.72431 0
M  V30 3993 N 392.992 0.257308 -6.92322 0
M  V30 3994 N 394.785 0.382769 -5.60795 0
M  V30 3995 H 386.936 -0.871609 -1.93692 0
M  V30 3996 H 389.199 -0.331161 -0.888277 0
M  V30 3997 H 388.905 -0.656794 -3.45513 0
M  V30 3998 H 388.779 1.08638 -3.61217 0
M  V30 3999 H 391.166 1.30784 -2.64536 0
M  V30 4000 H 391.247 -0.455066 -2.5172 0
M  V30 4001 H 390.891 -0.632473 -5.03947 0
M  V30 4002 H 390.821 1.14482 -5.14005 0
M  V30 4003 H 393.312 0.422923 -3.75526 0
M  V30 4004 H 393.625 0.24068 -7.72425 0
M  V30 4005 H 391.97 0.223396 -6.94641 0
M  V30 4006 H 395.161 0.44006 -4.66027 0
M  V30 4007 H 395.334 0.357184 -6.47015 0
M  V30 4008 N 388.74 1.54641 0.303973 0
M  V30 4009 C 389.986 1.74038 1.04109 0
M  V30 4010 C 390.319 0.523051 1.87024 0
M  V30 4011 O 389.594 -0.479874 1.88487 0
M  V30 4012 C 389.877 3.02761 1.94955 0
M  V30 4013 C 389.73 4.34787 1.1524 0
M  V30 4014 C 391.049 3.27336 2.94175 0
M  V30 4015 H 388.168 0.63323 0.377079 0
M  V30 4016 H 390.81 1.87354 0.316001 0
M  V30 4017 H 388.96 2.9154 2.56782 0
M  V30 4018 H 390.632 4.57922 0.557236 0
M  V30 4019 H 388.875 4.31407 0.455053 0
M  V30 4020 H 389.546 5.21116 1.8205 0
M  V30 4021 H 392.022 3.38148 2.42477 0
M  V30 4022 H 390.898 4.18726 3.54908 0
M  V30 4023 H 391.159 2.45491 3.67677 0
M  V30 4024 N 390.218 -0.567019 1.47046 0
M  V30 4025 C 391.465 -1.32462 1.53167 0
M  V30 4026 C 391.793 -1.93571 0.189841 0
M  V30 4027 O 391.048 -1.77865 -0.816243 0
M  V30 4028 C 391.347 -2.4623 2.59047 0
M  V30 4029 C 391.013 -2.03014 4.02612 0
M  V30 4030 C 389.675 -1.90944 4.41694 0
M  V30 4031 C 392.027 -1.69895 4.92732 0
M  V30 4032 C 389.355 -1.44035 5.68745 0
M  V30 4033 C 391.707 -1.2446 6.20236 0
M  V30 4034 C 390.371 -1.10979 6.5821 0
M  V30 4035 H 389.641 -0.484713 0.560477 0
M  V30 4036 H 392.288 -0.636888 1.80599 0
M  V30 4037 H 390.593 -3.20517 2.25335 0
M  V30 4038 H 392.29 -3.04427 2.61008 0
M  V30 4039 H 388.88 -2.13348 3.71726 0
M  V30 4040 H 393.064 -1.78098 4.63244 0
M  V30 4041 H 388.32 -1.32254 5.96925 0
M  V30 4042 H 392.494 -0.978924 6.89485 0
M  V30 4043 H 390.121 -0.744078 7.5655 0
M  V30 4044 N 391.696 -1.35014 -0.812953 0
M  V30 4045 C 392.606 -1.2951 -1.95613 0
M  V30 4046 C 393.622 -0.20107 -1.72834 0
M  V30 4047 O 394.798 -0.42932 -1.96771 0
M  V30 4048 C 391.863 -1.06033 -3.30088 0
M  V30 4049 C 390.924 -2.24688 -3.65805 0
M  V30 4050 C 390.157 -2.02322 -4.93864 0
M  V30 4051 O 390.38 -0.986464 -5.61805 0
M  V30 4052 O 389.314 -2.89525 -5.27692 0
M  V30 4053 H 393.14 -2.25705 -2.03202 0
M  V30 4054 H 390.725 -1.15321 -0.949811 0
M  V30 4055 H 392.607 -0.94763 -4.10607 0
M  V30 4056 H 391.282 -0.128852 -3.23443 0
M  V30 4057 H 390.189 -2.41521 -2.85689 0
M  V30 4058 H 391.522 -3.16261 -3.77147 0
M  V30 4059 N 393.175 1.03435 -1.18907 0
M  V30 4060 C 394.586 1.58195 -0.991523 0
M  V30 4061 C 394.937 1.90801 0.457081 0
M  V30 4062 O 394.062 1.70272 1.33553 0
M  V30 4063 C 394.657 2.87432 -1.79355 0
M  V30 4064 C 393.216 3.38785 -1.64017 0
M  V30 4065 C 392.363 2.12292 -1.78402 0
M  V30 4066 H 395.314 0.860299 -1.33359 0
M  V30 4067 H 395.335 3.58096 -1.28638 0
M  V30 4068 H 394.847 2.63669 -2.84781 0
M  V30 4069 H 392.948 3.67547 -0.611536 0
M  V30 4070 H 393.061 4.12186 -2.44212 0
M  V30 4071 H 391.425 2.23901 -1.2141 0
M  V30 4072 H 392.208 1.90977 -2.85277 0
M  V30 4073 N 394.653 0.992116 1.22453 0
M  V30 4074 C 395.901 0.666215 1.90804 0
M  V30 4075 C 396.222 -0.804152 1.77647 0
M  V30 4076 O 395.492 -1.57629 1.16318 0
M  V30 4077 H 394.072 0.243423 0.706225 0
M  V30 4078 H 396.734 1.25845 1.48825 0
M  V30 4079 H 395.83 0.928069 2.97982 0
M  V30 4080 N 396.131 -1.37776 0.765217 0
M  V30 4081 C 397.094 -2.28686 0.153416 0
M  V30 4082 C 398.094 -1.47727 -0.635081 0
M  V30 4083 O 399.284 -1.68027 -0.459632 0
M  V30 4084 C 396.416 -3.31608 -0.790495 0
M  V30 4085 H 397.609 -2.84297 0.954723 0
M  V30 4086 H 395.162 -1.46932 0.53299 0
M  V30 4087 H 395.897 -2.81109 -1.61705 0
M  V30 4088 H 395.682 -3.9144 -0.227348 0
M  V30 4089 H 397.172 -3.99559 -1.21419 0
M  V30 4090 N 397.609 -0.515225 -1.4894 0
M  V30 4091 C 398.839 0.0205735 -2.0659 0
M  V30 4092 C 399.247 1.30064 -1.37405 0
M  V30 4093 O 398.59 1.78087 -0.450632 0
M  V30 4094 C 398.652 0.330124 -3.57981 0
M  V30 4095 C 398.316 -0.854295 -4.48944 0
M  V30 4096 C 399.313 -1.7487 -4.89609 0
M  V30 4097 C 396.998 -1.05712 -4.9105 0
M  V30 4098 C 398.992 -2.82996 -5.71132 0
M  V30 4099 C 396.679 -2.14154 -5.72347 0
M  V30 4100 C 397.677 -3.0263 -6.12294 0
M  V30 4101 O 397.365 -4.09198 -6.91962 0
M  V30 4102 H 397.097 -0.0236833 -0.675585 0
M  V30 4103 H 399.651 -0.715956 -1.92518 0
M  V30 4104 H 397.881 1.12044 -3.70112 0
M  V30 4105 H 399.57 0.806233 -3.97812 0
M  V30 4106 H 400.336 -1.60388 -4.57712 0
M  V30 4107 H 396.215 -0.377788 -4.59449 0
M  V30 4108 H 399.759 -3.52083 -6.02232 0
M  V30 4109 H 395.656 -2.28626 -6.03656 0
M  V30 4110 H 396.424 -4.06726 -7.10293 0
M  V30 4111 N 399.087 1.5561 -0.249682 0
M  V30 4112 C 400.498 1.84979 0.252949 0
M  V30 4113 C 400.849 1.17153 1.57384 0
M  V30 4114 O 399.974 0.450884 2.11651 0
M  V30 4115 C 400.569 3.35584 0.465732 0
M  V30 4116 C 399.128 3.65169 0.912624 0
M  V30 4117 C 398.275 2.77299 -0.00859085 0
M  V30 4118 H 401.226 1.51513 -0.47217 0
M  V30 4119 H 401.247 3.57313 1.30795 0
M  V30 4120 H 400.759 3.8492 -0.49579 0
M  V30 4121 H 398.86 3.21312 1.88652 0
M  V30 4122 H 398.973 4.72912 0.767559 0
M  V30 4123 H 397.337 2.49678 0.50327 0
M  V30 4124 H 398.12 3.29442 -0.965537 0
M  V30 4125 N 400.565 -0.0233959 1.57583 0
M  V30 4126 C 401.79 -0.728376 1.94189 0
M  V30 4127 C 402.215 -1.67793 0.850119 0
M  V30 4128 O 401.573 -1.80262 -0.19371 0
M  V30 4129 C 401.621 -1.45669 3.29868 0
M  V30 4130 O 400.725 -2.57013 3.22518 0
M  V30 4131 H 400.066 -0.195493 0.63457 0
M  V30 4132 H 402.596 0.0228214 2.04587 0
M  V30 4133 H 402.606 -1.82535 3.6489 0
M  V30 4134 H 401.281 -0.760314 4.08891 0
M  V30 4135 H 399.858 -2.22648 2.99136 0
M  V30 4136 N 402.043 -1.548 -0.295768 0
M  V30 4137 C 403.291 -1.73985 -1.02828 0
M  V30 4138 C 403.612 -0.531406 -1.87619 0
M  V30 4139 O 402.882 0.454221 -1.90561 0
M  V30 4140 H 401.462 -0.641556 -0.382642 0
M  V30 4141 H 404.124 -1.92163 -0.325489 0
M  V30 4142 H 403.22 -2.63129 -1.67838 0
M  V30 4143 N 403.521 0.559213 -1.47345 0
M  V30 4144 C 404.769 1.31388 -1.53563 0
M  V30 4145 C 405.09 1.93985 -0.198678 0
M  V30 4146 O 404.36 1.79825 0.777167 0
M  V30 4147 H 402.94 0.487901 -0.565652 0
M  V30 4148 H 405.602 0.65315 -1.8363 0
M  V30 4149 H 404.698 2.10844 -2.30111 0
M  V30 4150 N 404.999 1.35443 0.805782 0
M  V30 4151 C 405.962 1.28301 1.89925 0
M  V30 4152 C 406.962 0.194285 1.59622 0
M  V30 4153 O 408.152 0.448036 1.6834 0
M  V30 4154 C 405.284 0.984997 3.2636 0
M  V30 4155 H 406.477 2.2553 1.97677 0
M  V30 4156 H 404.03 1.19979 1.00173 0
M  V30 4157 H 404.765 0.016603 3.24296 0
M  V30 4158 H 404.55 1.77269 3.4974 0
M  V30 4159 H 406.04 0.960651 4.064 0
M  V30 4160 N 406.477 -1.02803 1.19454 0
M  V30 4161 C 407.725 -1.75869 0.995722 0
M  V30 4162 C 408.046 -1.89138 -0.474543 0
M  V30 4163 O 407.316 -1.42558 -1.34366 0
M  V30 4164 H 405.896 -0.651511 0.365435 0
M  V30 4165 H 408.558 -1.24004 1.50363 0
M  V30 4166 H 407.654 -2.76661 1.44447 0
M  V30 4167 N 407.956 -0.998596 -1.21925 0
M  V30 4168 C 408.889 -0.498517 -2.22688 0
M  V30 4169 C 409.867 0.444301 -1.56412 0
M  V30 4170 O 411.051 0.368518 -1.84863 0
M  V30 4171 C 408.178 0.276639 -3.37568 0
M  V30 4172 C 407.224 -0.61302 -4.22071 0
M  V30 4173 S 408.057 -2.07168 -4.93803 0
M  V30 4174 C 409.213 -1.30617 -6.12119 0
M  V30 4175 H 409.446 -1.35234 -2.64762 0
M  V30 4176 H 406.979 -0.806018 -1.31692 0
M  V30 4177 H 408.937 0.717817 -4.04175 0
M  V30 4178 H 407.598 1.10581 -2.93991 0
M  V30 4179 H 406.791 -0.0162909 -5.03997 0
M  V30 4180 H 406.393 -0.991202 -3.60626 0
M  V30 4181 H 408.685 -0.57675 -6.75041 0
M  V30 4182 H 409.628 -2.10091 -6.76215 0
M  V30 4183 H 410.036 -0.816957 -5.58557 0
M  V30 4184 N 409.434 1.37368 -0.772513 0
M  V30 4185 C 410.664 2.03647 -0.348082 0
M  V30 4186 C 411.072 1.58392 1.03482 0
M  V30 4187 O 410.415 0.760921 1.672 0
M  V30 4188 C 410.477 3.58131 -0.313404 0
M  V30 4189 C 410.141 4.2652 -1.64102 0
M  V30 4190 C 411.138 4.50587 -2.5936 0
M  V30 4191 C 408.823 4.64335 -1.91567 0
M  V30 4192 C 410.817 5.11526 -3.80289 0
M  V30 4193 C 408.504 5.24996 -3.12766 0
M  V30 4194 C 409.502 5.48529 -4.06946 0
M  V30 4195 O 409.19 6.07921 -5.26011 0
M  V30 4196 H 408.922 0.660538 -0.143753 0
M  V30 4197 H 411.476 1.76669 -1.04772 0
M  V30 4198 H 409.706 3.84159 0.442617 0
M  V30 4199 H 411.395 4.05813 0.0840613 0
M  V30 4200 H 412.161 4.21784 -2.39423 0
M  V30 4201 H 408.04 4.45353 -1.19088 0
M  V30 4202 H 411.584 5.29811 -4.53813 0
M  V30 4203 H 407.481 5.53223 -3.32588 0
M  V30 4204 H 408.249 6.26398 -5.26847 0
M  V30 4205 N 410.912 0.523116 1.48665 0
M  V30 4206 C 412.16 -0.0134497 2.02096 0
M  V30 4207 C 412.481 -1.35418 1.40311 0
M  V30 4208 O 411.751 -1.87543 0.566074 0
M  V30 4209 H 410.331 -0.00795915 0.746958 0
M  V30 4210 H 412.993 0.685388 1.82451 0
M  V30 4211 H 412.089 -0.126849 3.11842 0
M  V30 4212 N 412.39 -1.55475 0.257931 0
M  V30 4213 C 413.615 -2.04064 -0.370488 0
M  V30 4214 C 414.04 -1.13565 -1.49948 0
M  V30 4215 O 413.398 -0.130781 -1.80828 0
M  V30 4216 C 413.446 -3.50554 -0.845237 0
M  V30 4217 O 412.55 -3.63173 -1.95394 0
M  V30 4218 H 411.891 -0.659257 -0.0792243 0
M  V30 4219 H 414.421 -2.00903 0.387212 0
M  V30 4220 H 414.431 -3.91588 -1.14555 0
M  V30 4221 H 413.106 -4.15896 -0.0191259 0
M  V30 4222 H 411.683 -3.34039 -1.65748 0
M  V30 4223 N 413.868 0.0150385 -1.57593 0
M  V30 4224 C 414.831 0.995996 -2.06428 0
M  V30 4225 C 415.831 1.2818 -0.970903 0
M  V30 4226 O 417.021 1.22949 -1.23406 0
M  V30 4227 C 414.153 2.32506 -2.49307 0
M  V30 4228 H 415.346 0.573873 -2.94358 0
M  V30 4229 H 412.899 0.262186 -1.54085 0
M  V30 4230 H 413.634 2.79438 -1.64575 0
M  V30 4231 H 413.419 2.13087 -3.29145 0
M  V30 4232 H 414.909 3.02906 -2.87468 0
M  V30 4233 N 415.346 1.54954 0.287554 0
M  V30 4234 C 416.623 1.65569 1.04146 0
M  V30 4235 C 417.003 0.512672 2.0478 0
M  V30 4236 O 416.351 -0.489038 2.23205 0
M  V30 4237 C 416.561 3.04163 1.71131 0
M  V30 4238 C 417.909 3.61429 2.22832 0
M  V30 4239 O 418.933 3.06702 1.81141 0
M  V30 4240 O 417.792 4.57281 2.9926 0
M  V30 4241 H 414.886 0.671881 0.482188 0
M  V30 4242 H 417.432 1.67297 0.28457 0
M  V30 4243 H 416.204 3.78796 0.981303 0
M  V30 4244 H 415.827 3.06271 2.53543 0
M  V30 4245 N 416.824 -0.551391 1.4764 0
M  V30 4246 C 418.101 -1.31229 1.45046 0
M  V30 4247 C 418.481 -2.10563 0.150527 0
M  V30 4248 O 417.829 -2.11374 -0.867956 0
M  V30 4249 C 418.039 -2.21189 2.69956 0
M  V30 4250 C 419.387 -2.82021 3.1741 0
M  V30 4251 O 420.411 -2.31488 2.70724 0
M  V30 4252 O 419.27 -3.73885 3.98588 0
M  V30 4253 H 416.364 -0.591193 0.578291 0
M  V30 4254 H 418.91 -0.569813 1.59847 0
M  V30 4255 H 417.682 -1.62207 3.56096 0
M  V30 4256 H 417.305 -3.02722 2.57769 0
M  V30 4257 N 418.302 -1.35869 -0.798587 0
M  V30 4258 C 419.548 -1.2978 -1.55836 0
M  V30 4259 C 419.881 0.125322 -1.93795 0
M  V30 4260 O 419.156 1.07658 -1.61987 0
M  V30 4261 C 419.439 -2.21188 -2.84162 0
M  V30 4262 C 419.292 -3.72155 -2.52628 0
M  V30 4263 C 420.611 -2.11545 -3.85923 0
M  V30 4264 H 417.73 -0.472769 -0.565383 0
M  V30 4265 H 420.372 -1.66341 -0.918192 0
M  V30 4266 H 418.522 -1.90139 -3.38791 0
M  V30 4267 H 420.194 -4.13682 -2.04121 0
M  V30 4268 H 418.437 -3.92042 -1.85704 0
M  V30 4269 H 419.108 -4.31511 -3.44242 0
M  V30 4270 H 421.584 -2.38855 -3.40716 0
M  V30 4271 H 420.46 -2.77688 -4.73477 0
M  V30 4272 H 420.721 -1.09987 -4.282 0
M  V30 4273 N 419.78 1.02168 -1.19998 0
M  V30 4274 C 420.71 2.12488 -0.96804 0
M  V30 4275 C 421.691 1.69799 0.101185 0
M  V30 4276 O 422.876 1.94121 -0.0552993 0
M  V30 4277 C 420.006 3.43479 -0.513776 0
M  V30 4278 C 418.96 3.99884 -1.52566 0
M  V30 4279 C 418.286 5.26582 -0.928214 0
M  V30 4280 C 419.586 4.33861 -2.90795 0
M  V30 4281 H 421.28 2.32149 -1.89069 0
M  V30 4282 H 418.826 1.11564 -0.910468 0
M  V30 4283 H 420.779 4.20036 -0.338774 0
M  V30 4284 H 419.503 3.23561 0.444493 0
M  V30 4285 H 418.162 3.25429 -1.68794 0
M  V30 4286 H 417.81 5.02986 0.0378289 0
M  V30 4287 H 417.51 5.65284 -1.60397 0
M  V30 4288 H 419.034 6.05799 -0.764167 0
M  V30 4289 H 420.448 5.01327 -2.78109 0
M  V30 4290 H 418.845 4.83664 -3.55231 0
M  V30 4291 H 419.915 3.42848 -3.42904 0
M  V30 4292 N 421.258 1.00505 1.21394 0
M  V30 4293 C 422.674 0.717873 1.42544 0
M  V30 4294 C 422.874 -0.706936 1.88692 0
M  V30 4295 O 421.93 -1.47627 2.04847 0
M  V30 4296 C 423.243 1.73377 2.45684 0
M  V30 4297 C 424.791 1.75059 2.59467 0
M  V30 4298 C 425.266 2.75545 3.6584 0
M  V30 4299 N 426.757 2.74213 3.73311 0
M  V30 4300 C 427.492 3.48626 4.55245 0
M  V30 4301 N 426.988 4.32678 5.41075 0
M  V30 4302 N 428.781 3.37276 4.49668 0
M  V30 4303 H 420.932 1.92506 0.897503 0
M  V30 4304 H 423.195 0.830919 0.456375 0
M  V30 4305 H 422.901 2.75395 2.18748 0
M  V30 4306 H 422.775 1.53647 3.44489 0
M  V30 4307 H 425.162 0.737337 2.8574 0
M  V30 4308 H 425.243 1.98861 1.60897 0
M  V30 4309 H 424.887 3.77028 3.40313 0
M  V30 4310 H 424.817 2.49009 4.64007 0
M  V30 4311 H 427.308 2.13234 3.11993 0
M  V30 4312 H 427.621 4.86253 6.00648 0
M  V30 4313 H 425.966 4.3676 5.40616 0
M  V30 4314 H 429.157 2.71043 3.81646 0
M  V30 4315 H 429.33 3.95524 5.13288 0
M  V30 4316 N 422.737 -1.36956 0.779787 0
M  V30 4317 C 423.7 -2.2851 0.177662 0
M  V30 4318 C 424.7 -1.48393 -0.619377 0
M  V30 4319 O 425.89 -1.68505 -0.441785 0
M  V30 4320 C 423.022 -3.32428 -0.755279 0
M  V30 4321 H 424.215 -2.83269 0.984823 0
M  V30 4322 H 421.768 -1.46358 0.548544 0
M  V30 4323 H 422.503 -2.82808 -1.58714 0
M  V30 4324 H 422.288 -3.91659 -0.185817 0
M  V30 4325 H 423.778 -4.00824 -1.17174 0
M  V30 4326 N 424.215 -0.530993 -1.48385 0
M  V30 4327 C 425.145 0.219985 -2.32461 0
M  V30 4328 C 426.126 0.934111 -1.42156 0
M  V30 4329 O 427.311 0.919694 -1.71042 0
M  V30 4330 C 424.441 1.26674 -3.23375 0
M  V30 4331 C 423.395 0.67069 -4.22712 0
M  V30 4332 C 422.721 1.82017 -5.02766 0
M  V30 4333 C 424.021 -0.358268 -5.2107 0
M  V30 4334 H 425.715 -0.48187 -2.95497 0
M  V30 4335 H 423.261 -0.233182 -1.42099 0
M  V30 4336 H 425.214 1.80006 -3.81019 0
M  V30 4337 H 423.938 1.99818 -2.58341 0
M  V30 4338 H 422.597 0.158878 -3.66256 0
M  V30 4339 H 422.245 2.54002 -4.34157 0
M  V30 4340 H 421.945 1.42727 -5.70003 0
M  V30 4341 H 423.469 2.35725 -5.63264 0
M  V30 4342 H 424.883 0.0880081 -5.73232 0
M  V30 4343 H 423.28 -0.66861 -5.96364 0
M  V30 4344 H 424.35 -1.26367 -4.68145 0
M  V30 4345 N 425.693 1.55336 -0.266172 0
M  V30 4346 C 426.603 2.2583 0.635458 0
M  V30 4347 C 427.619 1.28106 1.17749 0
M  V30 4348 O 428.795 1.61024 1.20968 0
M  V30 4349 C 425.86 2.95879 1.80712 0
M  V30 4350 C 424.921 4.09059 1.30265 0
M  V30 4351 C 424.154 4.75759 2.41846 0
M  V30 4352 O 424.377 4.41622 3.61007 0
M  V30 4353 O 423.311 5.63888 2.1051 0
M  V30 4354 H 427.137 3.03631 0.0646693 0
M  V30 4355 H 424.722 1.49361 -0.0339177 0
M  V30 4356 H 426.604 3.39932 2.49047 0
M  V30 4357 H 425.279 2.21002 2.36516 0
M  V30 4358 H 424.186 3.69482 0.586019 0
M  V30 4359 H 425.519 4.85811 0.790458 0
M  V30 4360 N 427.171 -0.0066808 1.57599 0
M  V30 4361 C 428.134 -0.985035 2.06953 0
M  V30 4362 C 429.134 -1.27663 0.977687 0
M  V30 4363 O 430.324 -1.22293 1.24057 0
M  V30 4364 C 427.456 -2.3118 2.50536 0
M  V30 4365 H 428.649 -0.558255 2.94658 0
M  V30 4366 H 426.202 -0.254011 1.54222 0
M  V30 4367 H 426.937 -2.78561 1.66054 0
M  V30 4368 H 426.722 -2.11338 3.3027 0
M  V30 4369 H 428.212 -3.01377 2.8907 0
M  V30 4370 N 428.649 -1.55105 -0.279332 0
M  V30 4371 C 429.898 -1.74618 -1.00952 0
M  V30 4372 C 430.211 -0.551096 -1.87676 0
M  V30 4373 O 431.417 -0.628507 -2.64125 0
M  V30 4374 C 429.873 -3.09025 -1.84476 0
M  V30 4375 C 429.481 -4.36081 -1.0265 0
M  V30 4376 C 431.225 -3.37891 -2.56963 0
M  V30 4377 C 429.132 -5.6153 -1.85576 0
M  V30 4378 H 428.062 -0.650868 -0.38064 0
M  V30 4379 H 430.713 -1.81569 -0.265475 0
M  V30 4380 H 429.095 -2.96095 -2.62952 0
M  V30 4381 H 430.269 -4.59909 -0.286354 0
M  V30 4382 H 428.584 -4.14312 -0.416464 0
M  V30 4383 H 431.181 -4.28822 -3.19399 0
M  V30 4384 H 431.524 -2.57737 -3.26921 0
M  V30 4385 H 432.057 -3.5189 -1.85522 0
M  V30 4386 H 428.796 -6.44413 -1.2005 0
M  V30 4387 H 428.316 -5.41854 -2.57204 0
M  V30 4388 H 429.995 -5.99594 -2.43096 0
M  V30 4389 N 430.127 0.543554 -1.4793 0
M  V30 4390 C 431.543 0.870806 -1.3375 0
M  V30 4391 C 431.743 1.9864 -0.338261 0
M  V30 4392 O 430.799 2.51305 0.245371 0
M  V30 4393 C 432.112 1.25114 -2.73435 0
M  V30 4394 C 433.66 1.3618 -2.81823 0
M  V30 4395 C 434.135 1.77563 -4.22179 0
M  V30 4396 N 435.626 1.8469 -4.24787 0
M  V30 4397 C 436.361 2.18067 -5.30315 0
M  V30 4398 N 435.857 2.49963 -6.46135 0
M  V30 4399 N 437.65 2.18958 -5.17701 0
M  V30 4400 H 429.801 -0.19275 -2.11524 0
M  V30 4401 H 432.064 -0.0235777 -0.947707 0
M  V30 4402 H 431.77 0.50514 -3.48053 0
M  V30 4403 H 431.644 2.20431 -3.06088 0
M  V30 4404 H 434.031 2.09859 -2.07468 0
M  V30 4405 H 434.112 0.390169 -2.52807 0
M  V30 4406 H 433.756 1.04449 -4.97044 0
M  V30 4407 H 433.686 2.75753 -4.48629 0
M  V30 4408 H 436.177 1.62372 -3.41239 0
M  V30 4409 H 436.49 2.74497 -7.22406 0
M  V30 4410 H 434.835 2.47513 -6.49432 0
M  V30 4411 H 438.026 1.93488 -4.2624 0
M  V30 4412 H 438.199 2.44639 -6.00047 0
M  V30 4413 N 431.605 1.3629 0.791371 0
M  V30 4414 C 432.568 1.30309 1.88553 0
M  V30 4415 C 433.568 0.211204 1.59407 0
M  V30 4416 O 434.758 0.465865 1.67855 0
M  V30 4417 C 431.89 1.01956 3.25297 0
M  V30 4418 H 433.083 2.27614 1.95273 0
M  V30 4419 H 430.636 1.21035 0.988953 0
M  V30 4420 H 431.371 0.050998 3.2426 0
M  V30 4421 H 431.156 1.80968 3.4784 0
M  V30 4422 H 432.646 1.0037 4.05359 0
M  V30 4423 N 433.083 -1.0153 1.20538 0
M  V30 4424 C 434.031 -2.12215 0.952235 0
M  V30 4425 C 435.025 -1.69123 -0.0968735 0
M  V30 4426 O 436.231 -1.7992 0.0536006 0
M  V30 4427 H 432.606 -0.693576 0.290613 0
M  V30 4428 H 434.577 -2.3075 1.89201 0
M  V30 4429 C 433.326 -3.43755 0.522287 0
M  V30 4430 H 432.649 -3.7734 1.32115 0
M  V30 4431 H 434.089 -4.22254 0.384389 0
M  V30 4432 C 432.548 -3.28088 -0.765489 0
M  V30 4433 O 433.078 -3.57921 -1.8236 0
M  V30 4434 N 431.284 -2.81333 -0.728011 0
M  V30 4435 H 430.831 -2.57255 0.133332 0
M  V30 4436 H 430.789 -2.71232 -1.58999 0
M  V30 4437 N 434.561 -1.01147 -1.20859 0
M  V30 4438 C 435.972 -0.730205 -1.71828 0
M  V30 4439 C 436.323 0.751662 -1.8123 0
M  V30 4440 O 435.448 1.58686 -1.47132 0
M  V30 4441 C 436.043 -1.31885 -3.12077 0
M  V30 4442 C 434.602 -1.08656 -3.60376 0
M  V30 4443 C 433.749 -1.42769 -2.37723 0
M  V30 4444 H 436.7 -1.18158 -1.05945 0
M  V30 4445 H 436.721 -0.706793 -3.73878 0
M  V30 4446 H 436.233 -2.39737 -3.05201 0
M  V30 4447 H 434.334 -0.0254814 -3.72591 0
M  V30 4448 H 434.447 -1.76301 -4.45483 0
M  V30 4449 H 432.811 -0.846603 -2.40218 0
M  V30 4450 H 433.594 -2.51666 -2.33493 0
M  V30 4451 N 436.039 1.36541 -0.78704 0
M  V30 4452 C 437.287 1.98911 -0.357633 0
M  V30 4453 C 437.608 1.62778 1.07371 0
M  V30 4454 O 436.878 0.900612 1.73971 0
M  V30 4455 H 435.458 0.735734 -0.129246 0
M  V30 4456 H 438.12 1.66776 -1.00855 0
M  V30 4457 H 437.216 3.08874 -0.447549 0
M  V30 4458 N 437.518 0.538854 1.48102 0
M  V30 4459 C 438.765 0.0080018 2.02498 0
M  V30 4460 C 439.093 -1.33437 1.41509 0
M  V30 4461 O 438.348 -1.87709 0.553507 0
M  V30 4462 C 438.647 -0.153808 3.57069 0
M  V30 4463 C 438.313 1.11533 4.36888 0
M  V30 4464 C 436.975 1.46314 4.58417 0
M  V30 4465 C 439.327 1.95718 4.83057 0
M  V30 4466 C 436.655 2.6516 5.23361 0
M  V30 4467 C 439.007 3.13751 5.49312 0
M  V30 4468 C 437.671 3.48866 5.69077 0
M  V30 4469 H 436.941 0.00292807 0.740994 0
M  V30 4470 H 439.588 0.706668 1.77984 0
M  V30 4471 H 437.893 -0.935309 3.80472 0
M  V30 4472 H 439.59 -0.579607 3.96789 0
M  V30 4473 H 436.18 0.834484 4.20398 0
M  V30 4474 H 440.364 1.70158 4.66219 0
M  V30 4475 H 435.62 2.92558 5.36861 0
M  V30 4476 H 439.794 3.79282 5.84053 0
M  V30 4477 H 437.421 4.41054 6.19173 0
M  V30 4478 N 438.996 -1.55193 0.274407 0
M  V30 4479 C 439.926 -2.25471 -0.607032 0
M  V30 4480 C 440.907 -1.24461 -1.15946 0
M  V30 4481 O 442.092 -1.53179 -1.19373 0
M  V30 4482 C 439.222 -2.97526 -1.79153 0
M  V30 4483 C 438.176 -4.05459 -1.37067 0
M  V30 4484 C 437.502 -4.65084 -2.6382 0
M  V30 4485 C 438.802 -5.19691 -0.521389 0
M  V30 4486 H 440.496 -2.99393 -0.0209343 0
M  V30 4487 H 438.042 -1.43997 -0.00862866 0
M  V30 4488 H 439.995 -3.45402 -2.41404 0
M  V30 4489 H 438.719 -2.21138 -2.40344 0
M  V30 4490 H 437.378 -3.58393 -0.771355 0
M  V30 4491 H 437.026 -3.85365 -3.23268 0
M  V30 4492 H 436.726 -5.37961 -2.36372 0
M  V30 4493 H 438.25 -5.15708 -3.26921 0
M  V30 4494 H 439.664 -5.63623 -1.04889 0
M  V30 4495 H 438.061 -5.99126 -0.341825 0
M  V30 4496 H 439.131 -4.82713 0.46 0
M  V30 4497 N 440.474 -0.00167713 -1.576 0
M  V30 4498 C 441.885 0.54091 -1.78693 0
M  V30 4499 C 442.236 1.7386 -0.909247 0
M  V30 4500 O 441.361 2.16109 -0.112176 0
M  V30 4501 C 441.956 0.98806 -3.24072 0
M  V30 4502 C 440.515 1.47594 -3.46256 0
M  V30 4503 C 439.662 0.42792 -2.73978 0
M  V30 4504 H 442.613 -0.22784 -1.57056 0
M  V30 4505 H 442.634 1.85398 -3.32277 0
M  V30 4506 H 442.146 0.116164 -3.87926 0
M  V30 4507 H 440.247 2.36868 -2.87618 0
M  V30 4508 H 440.36 1.50225 -4.54939 0
M  V30 4509 H 438.724 0.889934 -2.38647 0
M  V30 4510 H 439.507 -0.435038 -3.40532 0
M  V30 4511 N 441.952 1.55251 0.271103 0
M  V30 4512 C 442.862 1.9136 1.35714 0
M  V30 4513 C 443.878 0.811075 1.5394 0
M  V30 4514 O 445.054 1.11031 1.6803 0
M  V30 4515 C 442.119 2.1798 2.69603 0
M  V30 4516 C 441.18 3.4153 2.60107 0
M  V30 4517 C 440.413 3.66871 3.8761 0
M  V30 4518 O 440.636 2.94689 4.8838 0
M  V30 4519 O 439.57 4.60405 3.87699 0
M  V30 4520 H 443.396 2.83815 1.08088 0
M  V30 4521 H 440.981 1.41821 0.469792 0
M  V30 4522 H 442.863 2.36518 3.48765 0
M  V30 4523 H 441.538 1.28708 2.97012 0
M  V30 4524 H 440.445 3.28325 1.79314 0
M  V30 4525 H 441.778 4.31027 2.37647 0
M  V30 4526 N 443.43 -0.535701 1.48216 0
M  V30 4527 C 444.658 -1.31671 1.59594 0
M  V30 4528 C 445.073 -1.87083 0.254056 0
M  V30 4529 O 444.43 -1.66112 -0.755854 0
M  V30 4530 C 444.481 -2.47158 2.63809 0
M  V30 4531 O 444.202 -1.94032 3.92789 0
M  V30 4532 C 445.703 -3.39062 2.85573 0
M  V30 4533 H 442.923 -0.400623 0.538277 0
M  V30 4534 H 445.467 -0.646827 1.94001 0
M  V30 4535 H 443.622 -3.10043 2.32276 0
M  V30 4536 H 444.036 -2.69585 4.49916 0
M  V30 4537 H 445.51 -4.16459 3.62306 0
M  V30 4538 H 445.987 -3.93941 1.94184 0
M  V30 4539 H 446.593 -2.81975 3.18387 0
M  V30 4540 N 444.908 -1.36708 -0.784132 0
M  V30 4541 C 445.838 -1.34153 -1.91116 0
M  V30 4542 C 446.819 -0.212121 -1.68772 0
M  V30 4543 O 448.004 -0.410581 -1.8981 0
M  V30 4544 C 445.134 -1.13535 -3.28218 0
M  V30 4545 C 444.088 -2.23356 -3.65097 0
M  V30 4546 C 443.414 -1.87875 -5.00607 0
M  V30 4547 C 444.714 -3.65473 -3.73131 0
M  V30 4548 H 446.408 -2.28459 -1.93512 0
M  V30 4549 H 443.954 -1.09973 -0.929618 0
M  V30 4550 H 445.907 -1.10381 -4.06687 0
M  V30 4551 H 444.631 -0.156804 -3.26223 0
M  V30 4552 H 443.29 -2.25645 -2.88929 0
M  V30 4553 H 442.938 -0.885814 -4.95139 0
M  V30 4554 H 442.638 -2.61406 -5.26252 0
M  V30 4555 H 444.162 -1.86286 -5.81489 0
M  V30 4556 H 445.576 -3.65382 -4.41779 0
M  V30 4557 H 443.973 -4.37953 -4.10265 0
M  V30 4558 H 445.043 -3.99995 -2.74102 0
M  V30 4559 N 446.386 1.0089 -1.21074 0
M  V30 4560 C 447.349 2.0775 -0.968129 0
M  V30 4561 C 448.349 1.6069 0.0593445 0
M  V30 4562 O 449.539 1.73293 -0.177525 0
M  V30 4563 C 446.671 3.37794 -0.459108 0
M  V30 4564 H 447.864 2.30707 -1.9161 0
M  V30 4565 H 445.417 1.17807 -1.02719 0
M  V30 4566 H 446.152 3.20516 0.49397 0
M  V30 4567 H 445.937 3.7328 -1.20019 0
M  V30 4568 H 447.427 4.16454 -0.309099 0
M  V30 4569 N 447.864 1.01787 1.20321 0
M  V30 4570 C 449.141 0.622978 1.85414 0
M  V30 4571 C 449.521 -0.898887 1.91006 0
M  V30 4572 O 448.869 -1.79112 1.41884 0
M  V30 4573 C 449.079 1.27226 3.24984 0
M  V30 4574 C 450.427 1.3885 4.01255 0
M  V30 4575 O 451.451 1.22857 3.34342 0
M  V30 4576 O 450.31 1.64705 5.2109 0
M  V30 4577 H 447.404 0.215116 0.798533 0
M  V30 4578 H 449.95 1.11533 1.27901 0
M  V30 4579 H 448.722 2.31209 3.15687 0
M  V30 4580 H 448.345 0.767069 3.90131 0
M  V30 4581 N 449.342 -1.36122 0.79427 0
M  V30 4582 C 450.305 -2.28309 0.201889 0
M  V30 4583 C 451.305 -1.49041 -0.603603 0
M  V30 4584 O 452.495 -1.68964 -0.423888 0
M  V30 4585 C 449.627 -3.3321 -0.719978 0
M  V30 4586 H 450.82 -2.82208 1.01481 0
M  V30 4587 H 448.373 -1.45768 0.564037 0
M  V30 4588 H 449.108 -2.84475 -1.55706 0
M  V30 4589 H 448.893 -3.91835 -0.144266 0
M  V30 4590 H 450.383 -4.02044 -1.12916 0
M  V30 4591 N 450.82 -0.546701 -1.47814 0
M  V30 4592 C 451.783 0.196287 -2.28358 0
M  V30 4593 C 452.783 0.852437 -1.36346 0
M  V30 4594 O 453.973 0.709913 -1.59078 0
M  V30 4595 C 451.105 1.28579 -3.15722 0
M  V30 4596 H 452.298 -0.511086 -2.95513 0
M  V30 4597 H 449.851 -0.303248 -1.5333 0
M  V30 4598 H 450.586 2.0259 -2.53235 0
M  V30 4599 H 450.371 0.820229 -3.83425 0
M  V30 4600 H 451.861 1.80793 -3.76435 0
M  V30 4601 N 452.299 1.55045 -0.282633 0
M  V30 4602 C 453.715 1.59441 0.0712997 0
M  V30 4603 C 453.915 1.2998 1.53972 0
M  V30 4604 O 452.971 1.06431 2.28973 0
M  V30 4605 C 454.284 2.99097 -0.310104 0
M  V30 4606 C 455.832 3.1194 -0.257343 0
M  V30 4607 C 456.307 4.53875 -0.613297 0
M  V30 4608 N 457.798 4.5974 -0.565134 0
M  V30 4609 C 458.533 5.67603 -0.81326 0
M  V30 4610 N 458.029 6.83582 -1.1264 0
M  V30 4611 N 459.822 5.57187 -0.741553 0
M  V30 4612 H 451.973 1.72458 -1.23984 0
M  V30 4613 H 454.236 0.804549 -0.501403 0
M  V30 4614 H 453.942 3.25516 -1.33163 0
M  V30 4615 H 453.816 3.75616 0.345366 0
M  V30 4616 H 456.203 2.85281 0.754905 0
M  V30 4617 H 456.284 2.37618 -0.947178 0
M  V30 4618 H 455.928 4.81261 -1.62327 0
M  V30 4619 H 455.858 5.26508 0.09841 0
M  V30 4620 H 458.349 3.76427 -0.333294 0
M  V30 4621 H 458.662 7.6175 -1.30219 0
M  V30 4622 H 457.007 6.85179 -1.16425 0
M  V30 4623 H 460.198 4.65457 -0.496705 0
M  V30 4624 H 460.371 6.41171 -0.938306 0
M  V30 4625 N 453.777 0.010035 1.57597 0
M  V30 4626 C 455.193 -0.346164 1.55801 0
M  V30 4627 C 455.393 -1.74144 1.01371 0
M  V30 4628 O 454.449 -2.43938 0.651968 0
M  V30 4629 C 455.762 -0.212216 2.9995 0
M  V30 4630 C 457.31 -0.286409 3.11687 0
M  V30 4631 C 457.785 -0.18147 4.5764 0
M  V30 4632 N 459.276 -0.239056 4.62583 0
M  V30 4633 C 460.011 -0.181351 5.73113 0
M  V30 4634 N 459.507 -0.073661 6.92761 0
M  V30 4635 N 461.3 -0.233949 5.61613 0
M  V30 4636 H 453.451 0.922657 1.91313 0
M  V30 4637 H 455.714 0.354595 0.879185 0
M  V30 4638 H 455.42 0.748169 3.4365 0
M  V30 4639 H 455.294 -0.990224 3.6397 0
M  V30 4640 H 457.681 -1.23724 2.67911 0
M  V30 4641 H 457.762 0.521645 2.50425 0
M  V30 4642 H 457.406 0.765863 5.02093 0
M  V30 4643 H 457.336 -1.00814 5.1686 0
M  V30 4644 H 459.827 -0.32321 3.76515 0
M  V30 4645 H 460.14 -0.0358003 7.72792 0
M  V30 4646 H 458.485 -0.0391461 6.94989 0
M  V30 4647 H 461.676 -0.316347 4.6703 0
M  V30 4648 H 461.849 -0.185514 6.47734 0
M  V30 4649 N 455.255 -1.55392 -0.262866 0
M  V30 4650 C 456.532 -1.67204 -1.01499 0
M  V30 4651 C 456.912 -0.545186 -2.03939 0
M  V30 4652 O 456.26 0.453467 -2.23955 0
M  V30 4653 C 456.47 -3.06847 -1.6627 0
M  V30 4654 C 457.818 -3.64928 -2.17054 0
M  V30 4655 O 458.842 -3.09545 -1.76239 0
M  V30 4656 O 457.701 -4.61984 -2.91947 0
M  V30 4657 H 454.795 -0.679467 -0.471438 0
M  V30 4658 H 457.341 -1.67729 -0.257918 0
M  V30 4659 H 456.113 -3.80309 -0.920915 0
M  V30 4660 H 455.736 -3.10266 -2.48638 0
M  V30 4661 N 456.733 0.527833 -1.48498 0
M  V30 4662 C 457.665 1.6482 -1.5927 0
M  V30 4663 C 458.678 1.55659 -0.476869 0
M  V30 4664 O 459.867 1.62081 -0.747806 0
M  V30 4665 C 456.967 3.0348 -1.50842 0
M  V30 4666 C 456.14 3.381 -2.77502 0
M  V30 4667 C 455.199 4.5605 -2.62497 0
M  V30 4668 O 454.225 4.59165 -3.36387 0
M  V30 4669 N 455.427 5.54353 -1.72257 0
M  V30 4670 H 458.192 1.56015 -2.55889 0
M  V30 4671 H 455.753 0.715152 -1.45249 0
M  V30 4672 H 457.745 3.80264 -1.38496 0
M  V30 4673 H 456.315 3.06352 -0.621887 0
M  V30 4674 H 455.535 2.50473 -3.04396 0
M  V30 4675 H 456.823 3.58017 -3.61527 0
M  V30 4676 H 456.221 5.54617 -1.11431 0
M  V30 4677 H 454.778 6.30347 -1.65849 0
M  V30 4678 N 458.211 1.37122 0.776871 0
M  V30 4679 C 459.174 1.32301 1.8716 0
M  V30 4680 C 460.174 0.228099 1.59174 0
M  V30 4681 O 461.364 0.483642 1.67352 0
M  V30 4682 C 458.496 1.054 3.24197 0
M  V30 4683 H 459.689 2.29673 1.92848 0
M  V30 4684 H 457.242 1.22077 0.97606 0
M  V30 4685 H 457.977 0.0853872 3.24188 0
M  V30 4686 H 457.762 1.84648 3.45901 0
M  V30 4687 H 459.252 1.04664 4.04271 0
M  V30 4688 N 459.689 -1.00246 1.21608 0
M  V30 4689 C 460.937 -1.73717 1.0328 0
M  V30 4690 C 461.258 -1.90102 -0.434318 0
M  V30 4691 O 460.528 -1.45376 -1.31311 0
M  V30 4692 H 459.108 -0.643613 0.379172 0
M  V30 4693 H 461.77 -1.20787 1.52959 0
M  V30 4694 H 460.866 -2.73535 1.50283 0
M  V30 4695 N 461.167 -1.02423 -1.1978 0
M  V30 4696 C 462.413 -0.719051 -1.89625 0
M  V30 4697 C 462.746 0.750083 -1.7913 0
M  V30 4698 O 462.021 1.54574 -1.18056 0
M  V30 4699 C 462.304 -1.16499 -3.40735 0
M  V30 4700 C 462.157 -2.695 -3.60125 0
M  V30 4701 C 463.476 -0.742166 -4.33797 0
M  V30 4702 H 460.595 -0.26269 -0.688595 0
M  V30 4703 H 463.237 -1.27333 -1.41018 0
M  V30 4704 H 461.387 -0.69341 -3.82262 0
M  V30 4705 H 463.059 -3.24569 -3.278 0
M  V30 4706 H 461.302 -3.10113 -3.03336 0
M  V30 4707 H 461.973 -2.95757 -4.66081 0
M  V30 4708 H 464.449 -1.1477 -3.99959 0
M  V30 4709 H 463.325 -1.08213 -5.38127 0
M  V30 4710 H 463.586 0.355747 -4.40666 0
M  V30 4711 N 462.645 1.35699 -0.801477 0
M  V30 4712 C 463.893 1.9852 -0.37871 0
M  V30 4713 C 464.214 1.63907 1.05638 0
M  V30 4714 O 463.484 0.919013 1.73006 0
M  V30 4715 H 462.064 0.734322 -0.137042 0
M  V30 4716 H 464.726 1.65697 -1.02619 0
M  V30 4717 H 463.822 3.08382 -0.480284 0
M  V30 4718 N 464.123 0.554532 1.47522 0
M  V30 4719 C 465.086 -0.184174 2.28459 0
M  V30 4720 C 466.086 -0.845195 1.36796 0
M  V30 4721 O 467.276 -0.701467 1.59452 0
M  V30 4722 C 464.408 -1.26903 3.16399 0
M  V30 4723 H 465.601 0.526751 2.95238 0
M  V30 4724 H 463.154 0.311375 1.53167 0
M  V30 4725 H 463.889 -2.01244 2.54306 0
M  V30 4726 H 463.674 -0.799883 3.83854 0
M  V30 4727 H 465.164 -1.78794 3.77389 0
M  V30 4728 N 465.601 -1.54893 0.290851 0
M  V30 4729 C 466.511 -2.26812 -0.59945 0
M  V30 4730 C 467.527 -1.29963 -1.15696 0
M  V30 4731 O 468.703 -1.62928 -1.18391 0
M  V30 4732 C 465.768 -2.98716 -1.75982 0
M  V30 4733 C 464.829 -4.1108 -1.2374 0
M  V30 4734 C 464.062 -4.79546 -2.34246 0
M  V30 4735 O 464.285 -4.47309 -3.53936 0
M  V30 4736 O 463.219 -5.67165 -2.01512 0
M  V30 4737 H 467.045 -3.03696 -0.0163561 0
M  V30 4738 H 464.63 -1.49289 0.0576755 0
M  V30 4739 H 466.512 -3.43851 -2.43607 0
M  V30 4740 H 465.187 -2.24737 -2.3297 0
M  V30 4741 H 464.094 -3.70367 -0.527163 0
M  V30 4742 H 465.427 -4.87007 -0.71307 0
M  V30 4743 N 467.08 -0.0183926 -1.57589 0
M  V30 4744 C 468.308 0.673046 -1.95647 0
M  V30 4745 C 468.723 1.66275 -0.894312 0
M  V30 4746 O 468.08 1.82072 0.124975 0
M  V30 4747 C 468.131 1.38884 -3.33756 0
M  V30 4748 O 467.852 0.438806 -4.35897 0
M  V30 4749 C 469.353 2.1731 -3.86383 0
M  V30 4750 H 466.573 0.186292 -0.644621 0
M  V30 4751 H 469.117 -0.0749748 -2.04363 0
M  V30 4752 H 467.272 2.08835 -3.26293 0
M  V30 4753 H 467.686 0.945869 -5.15901 0
M  V30 4754 H 469.16 2.62863 -4.85394 0
M  V30 4755 H 469.637 3.00764 -3.20059 0
M  V30 4756 H 470.243 1.52339 -3.97081 0
M  V30 4757 N 468.558 1.5553 0.254621 0
M  V30 4758 C 469.974 1.4778 0.602753 0
M  V30 4759 C 470.174 0.707047 1.88688 0
M  V30 4760 O 469.23 0.233288 2.5142 0
M  V30 4761 C 470.543 2.92133 0.712648 0
M  V30 4762 C 472.091 3.02458 0.805488 0
M  V30 4763 C 472.566 4.48102 0.947009 0
M  V30 4764 N 474.057 4.52008 1.01207 0
M  V30 4765 C 474.792 5.61939 1.1407 0
M  V30 4766 N 474.288 6.81697 1.23536 0
M  V30 4767 N 476.081 5.49719 1.17325 0
M  V30 4768 H 468.232 2.04085 -0.588463 0
M  V30 4769 H 470.495 0.926229 -0.202001 0
M  V30 4770 H 470.201 3.51332 -0.160766 0
M  V30 4771 H 470.075 3.42187 1.58707 0
M  V30 4772 H 472.462 2.43344 1.66936 0
M  V30 4773 H 472.543 2.55627 -0.0939266 0
M  V30 4774 H 472.187 5.07824 0.087725 0
M  V30 4775 H 472.117 4.92607 1.86135 0
M  V30 4776 H 474.608 3.65749 0.950577 0
M  V30 4777 H 474.921 7.61228 1.33236 0
M  V30 4778 H 473.266 6.84473 1.20508 0
M  V30 4779 H 476.457 4.55095 1.09573 0
M  V30 4780 H 476.63 6.35432 1.27005 0
M  V30 4781 N 470.036 -0.519951 1.48776 0
M  V30 4782 C 471.284 -1.2727 1.56993 0
M  V30 4783 C 471.605 -1.9339 0.25004 0
M  V30 4784 O 470.875 -1.81822 -0.729216 0
M  V30 4785 H 469.455 -0.472732 0.578389 0
M  V30 4786 H 472.117 -0.604234 1.85297 0
M  V30 4787 H 471.213 -2.04669 2.3562 0
M  V30 4788 N 471.514 -1.37532 -0.769588 0
M  V30 4789 C 472.925 -1.29382 -1.346 0
M  V30 4790 C 473.276 0.0576039 -1.96115 0
M  V30 4791 O 472.401 0.95947 -1.93967 0
M  V30 4792 C 472.996 -2.34298 -2.44724 0
M  V30 4793 C 471.555 -2.29776 -2.98128 0
M  V30 4794 C 470.702 -2.18013 -1.71364 0
M  V30 4795 H 473.653 -1.48123 -0.56968 0
M  V30 4796 H 473.674 -1.99089 -3.24259 0
M  V30 4797 H 473.186 -3.32645 -1.99922 0
M  V30 4798 H 471.287 -1.34959 -3.47299 0
M  V30 4799 H 471.4 -3.23276 -3.53595 0
M  V30 4800 H 469.764 -1.64595 -1.94372 0
M  V30 4801 H 470.547 -3.18278 -1.28662 0
M  V30 4802 N 472.992 0.995999 -1.22138 0
M  V30 4803 C 474.24 1.73167 -1.042 0
M  V30 4804 C 474.561 1.90329 0.42423 0
M  V30 4805 O 473.831 1.4607 1.30539 0
M  V30 4806 H 472.411 0.641593 -0.38258 0
M  V30 4807 H 475.073 1.19974 -1.53598 0
M  V30 4808 H 474.169 2.72734 -1.51731 0
M  V30 4809 N 474.47 1.03057 1.19235 0
M  V30 4810 C 475.716 0.738841 1.89506 0
M  V30 4811 C 476.071 -0.724807 1.78225 0
M  V30 4812 O 475.364 -1.52118 1.16494 0
M  V30 4813 C 475.558 1.1268 3.39172 0
M  V30 4814 C 475.387 2.62662 3.65019 0
M  V30 4815 C 474.157 3.29658 3.82954 0
M  V30 4816 C 476.355 3.60873 3.66436 0
M  V30 4817 N 474.337 4.68726 3.96446 0
M  V30 4818 C 475.708 4.85566 3.8552 0
M  V30 4819 C 477.763 3.54647 3.49471 0
M  V30 4820 C 476.466 6.04783 3.89397 0
M  V30 4821 C 478.492 4.73281 3.54625 0
M  V30 4822 C 477.854 5.96789 3.74196 0
M  V30 4823 H 473.953 0.322256 0.712513 0
M  V30 4824 H 476.537 1.31822 1.43287 0
M  V30 4825 H 474.708 0.575612 3.84111 0
M  V30 4826 H 476.44 0.787145 3.96971 0
M  V30 4827 H 473.195 2.8007 3.81913 0
M  V30 4828 H 473.619 5.40971 4.07037 0
M  V30 4829 H 478.261 2.60143 3.33295 0
M  V30 4830 H 475.979 6.99654 4.04364 0
M  V30 4831 H 479.565 4.70094 3.42787 0
M  V30 4832 H 478.445 6.87051 3.78061 0
M  V30 4833 N 475.948 -1.35272 0.808662 0
M  V30 4834 C 477.196 -1.98316 0.389233 0
M  V30 4835 C 477.517 -1.64465 -1.04767 0
M  V30 4836 O 476.787 -0.928175 -1.72516 0
M  V30 4837 H 475.367 -0.733585 0.140935 0
M  V30 4838 H 478.029 -1.6515 1.03496 0
M  V30 4839 H 477.125 -3.08123 0.496631 0
M  V30 4840 N 477.426 -0.562348 -1.47226 0
M  V30 4841 C 478.673 -0.0402165 -2.0246 0
M  V30 4842 C 479.001 1.31169 -1.43614 0
M  V30 4843 O 478.256 1.86805 -0.5833 0
M  V30 4844 C 478.555 0.0969817 -3.57268 0
M  V30 4845 C 478.221 -1.1847 -4.35058 0
M  V30 4846 C 476.883 -1.53588 -4.56031 0
M  V30 4847 C 479.235 -2.03378 -4.79882 0
M  V30 4848 C 476.563 -2.73452 -5.19077 0
M  V30 4849 C 478.915 -3.2245 -5.44251 0
M  V30 4850 C 477.579 -3.57876 -5.63455 0
M  V30 4851 H 476.849 -0.0147163 -0.740854 0
M  V30 4852 H 479.496 -0.734895 -1.76838 0
M  V30 4853 H 477.801 0.87466 -3.81912 0
M  V30 4854 H 479.498 0.516408 -3.97661 0
M  V30 4855 H 476.088 -0.90126 -4.19017 0
M  V30 4856 H 480.272 -1.77553 -4.63453 0
M  V30 4857 H 475.528 -3.01062 -5.32139 0
M  V30 4858 H 479.702 -3.88526 -5.77945 0
M  V30 4859 H 477.329 -4.50849 -6.12078 0
M  V30 4860 N 478.904 1.54736 -0.299062 0
M  V30 4861 C 480.152 1.99706 0.31017 0
M  V30 4862 C 480.473 1.18896 1.54559 0
M  V30 4863 O 479.743 0.284445 1.93824 0
M  V30 4864 H 478.323 0.737686 0.117596 0
M  V30 4865 H 480.985 1.9054 -0.409943 0
M  V30 4866 H 480.081 3.06596 0.58355 0
M  V30 4867 N 480.382 0.0267497 1.57577 0
M  V30 4868 C 481.612 -0.6617 1.95717 0
M  V30 4869 C 482.02 -1.66331 0.901706 0
M  V30 4870 O 481.363 -1.83273 -0.125241 0
M  V30 4871 C 481.425 -1.42649 3.29987 0
M  V30 4872 C 481.089 -0.583482 4.5326 0
M  V30 4873 C 482.086 0.140221 5.19711 0
M  V30 4874 C 479.771 -0.521581 4.99585 0
M  V30 4875 C 481.765 0.914523 6.30805 0
M  V30 4876 C 479.452 0.256428 6.10562 0
M  V30 4877 C 480.45 0.973189 6.76031 0
M  V30 4878 O 480.138 1.73845 7.84878 0
M  V30 4879 H 479.87 -0.187483 0.649481 0
M  V30 4880 H 482.424 0.0820847 2.05236 0
M  V30 4881 H 480.654 -2.21536 3.16952 0
M  V30 4882 H 482.343 -2.00282 3.53047 0
M  V30 4883 H 483.109 0.101716 4.84893 0
M  V30 4884 H 478.988 -1.06904 4.48433 0
M  V30 4885 H 482.532 1.4745 6.81839 0
M  V30 4886 H 478.429 0.296657 6.44818 0
M  V30 4887 H 479.197 1.65797 8.01532 0
M  V30 4888 N 481.861 -1.55662 -0.24637 0
M  V30 4889 C 482.791 -1.93377 -1.30873 0
M  V30 4890 C 483.772 -0.798773 -1.50179 0
M  V30 4891 O 484.957 -1.0591 -1.62778 0
M  V30 4892 C 482.087 -2.22893 -2.66338 0
M  V30 4893 C 481.041 -3.38649 -2.61727 0
M  V30 4894 C 480.367 -3.53708 -4.00992 0
M  V30 4895 C 481.667 -4.74323 -2.18666 0
M  V30 4896 H 483.361 -2.82363 -0.995552 0
M  V30 4897 H 480.907 -1.35854 -0.477464 0
M  V30 4898 H 482.86 -2.47866 -3.40794 0
M  V30 4899 H 481.584 -1.30733 -2.99293 0
M  V30 4900 H 480.243 -3.13685 -1.89729 0
M  V30 4901 H 479.891 -2.58967 -4.31214 0
M  V30 4902 H 479.591 -4.31551 -3.98795 0
M  V30 4903 H 481.115 -3.81003 -4.77147 0
M  V30 4904 H 482.529 -4.98665 -2.82854 0
M  V30 4905 H 480.926 -5.55273 -2.27579 0
M  V30 4906 H 481.996 -4.71349 -1.13834 0
M  V30 4907 N 483.339 0.512053 -1.4905 0
M  V30 4908 C 484.564 1.2959 -1.6193 0
M  V30 4909 C 484.989 1.85906 -0.286454 0
M  V30 4910 O 484.347 1.65312 0.744426 0
M  V30 4911 C 484.395 2.40987 -2.68249 0
M  V30 4912 O 483.499 3.44531 -2.26654 0
M  V30 4913 H 482.84 0.383053 -0.542371 0
M  V30 4914 H 485.37 0.614231 -1.95162 0
M  V30 4915 H 485.38 2.86913 -2.90078 0
M  V30 4916 H 484.055 1.99361 -3.65004 0
M  V30 4917 H 482.632 3.046 -2.15112 0
M  V30 4918 N 484.817 1.37938 0.762283 0
M  V30 4919 C 485.78 1.34279 1.85747 0
M  V30 4920 C 486.78 0.244969 1.58923 0
M  V30 4921 O 487.97 0.501365 1.66829 0
M  V30 4922 C 485.102 1.08833 3.23061 0
M  V30 4923 H 486.295 2.31705 1.90401 0
M  V30 4924 H 483.848 1.23105 0.963057 0
M  V30 4925 H 484.583 0.119767 3.24079 0
M  V30 4926 H 484.368 1.88306 3.43923 0
M  V30 4927 H 485.858 1.08946 4.03138 0
M  V30 4928 N 486.295 -0.989507 1.22664 0
M  V30 4929 C 487.541 -1.7321 1.05481 0
M  V30 4930 C 487.874 -1.89852 -0.408635 0
M  V30 4931 O 487.149 -1.44416 -1.30285 0
M  V30 4932 C 487.432 -3.1357 1.77047 0
M  V30 4933 C 487.285 -3.04555 3.31008 0
M  V30 4934 C 488.604 -4.12812 1.5256 0
M  V30 4935 H 485.723 -0.628697 0.384589 0
M  V30 4936 H 488.365 -1.15258 1.51049 0
M  V30 4937 H 486.515 -3.63046 1.3831 0
M  V30 4938 H 488.187 -2.62674 3.7921 0
M  V30 4939 H 486.43 -2.41278 3.6051 0
M  V30 4940 H 487.101 -4.03894 3.76263 0
M  V30 4941 H 489.577 -3.72106 1.86215 0
M  V30 4942 H 488.453 -5.09132 2.05124 0
M  V30 4943 H 488.714 -4.39711 0.458936 0
M  V30 4944 N 487.773 -1.03688 -1.18687 0
M  V30 4945 C 488.703 -0.645407 -2.24403 0
M  V30 4946 C 489.684 0.349511 -1.66471 0
M  V30 4947 O 490.869 0.230453 -1.92828 0
M  V30 4948 C 487.999 -0.00365337 -3.473 0
M  V30 4949 C 486.953 -0.921705 -4.17958 0
M  V30 4950 C 486.279 -0.144629 -5.34504 0
M  V30 4951 C 487.579 -2.23909 -4.71871 0
M  V30 4952 H 489.273 -1.52917 -2.57404 0
M  V30 4953 H 486.819 -0.736711 -1.23728 0
M  V30 4954 H 488.772 0.281908 -4.20456 0
M  V30 4955 H 487.496 0.914963 -3.13522 0
M  V30 4956 H 486.155 -1.19159 -3.46694 0
M  V30 4957 H 485.803 0.776274 -4.96974 0
M  V30 4958 H 485.503 -0.756206 -5.82714 0
M  V30 4959 H 487.027 0.134004 -6.10453 0
M  V30 4960 H 488.441 -2.0145 -5.36741 0
M  V30 4961 H 486.838 -2.8033 -5.30599 0
M  V30 4962 H 487.908 -2.88822 -3.895 0
M  V30 4963 N 489.251 1.34841 -0.815825 0
M  V30 4964 C 490.528 1.92908 -0.323416 0
M  V30 4965 C 490.908 1.74479 1.18828 0
M  V30 4966 O 490.256 1.11928 1.99209 0
M  V30 4967 C 490.466 3.40957 -0.744952 0
M  V30 4968 C 491.814 4.18107 -0.739716 0
M  V30 4969 O 492.838 3.49511 -0.68708 0
M  V30 4970 O 491.697 5.40517 -0.806456 0
M  V30 4971 H 488.791 0.822436 -0.0867646 0
M  V30 4972 H 491.337 1.4386 -0.90014 0
M  V30 4973 H 490.109 3.4814 -1.78646 0
M  V30 4974 H 489.732 3.97341 -0.143535 0
M  V30 4975 N 490.729 0.570148 1.46925 0
M  V30 4976 C 492.006 -0.0153259 1.95594 0
M  V30 4977 C 492.386 -1.47232 1.51281 0
M  V30 4978 O 491.734 -2.15574 0.757624 0
M  V30 4979 C 491.944 0.143624 3.48704 0
M  V30 4980 C 493.292 0.00494484 4.246 0
M  V30 4981 O 494.316 0.0718214 3.56128 0
M  V30 4982 O 493.175 -0.141175 5.46318 0
M  V30 4983 H 490.269 -0.0568819 0.825041 0
M  V30 4984 H 492.815 0.637583 1.57267 0
M  V30 4985 H 491.587 1.15699 3.73804 0
M  V30 4986 H 491.21 -0.5463 3.93829 0
M  V30 4987 N 492.207 -1.54576 0.307264 0
M  V30 4988 C 493.618 -1.8579 -0.184121 0
M  V30 4989 C 493.969 -1.22914 -1.52927 0
M  V30 4990 O 493.094 -0.529126 -2.09831 0
M  V30 4991 C 493.689 -3.37081 -0.340862 0
M  V30 4992 C 492.248 -3.68304 -0.776465 0
M  V30 4993 C 491.395 -2.77076 0.111503 0
M  V30 4994 H 494.346 -1.49656 0.528078 0
M  V30 4995 H 494.367 -3.61922 -1.17443 0
M  V30 4996 H 493.879 -3.82815 0.638309 0
M  V30 4997 H 491.98 -3.28092 -1.76596 0
M  V30 4998 H 492.093 -4.75434 -0.591512 0
M  V30 4999 H 490.457 -2.51374 -0.410256 0
M  V30 5000 H 491.24 -3.25632 1.08714 0
M  V30 5001 N 493.685 -0.035106 -1.57561 0
M  V30 5002 C 494.648 0.929819 -2.09492 0
M  V30 5003 C 495.648 1.25026 -1.01119 0
M  V30 5004 O 496.838 1.18961 -1.27255 0
M  V30 5005 C 493.97 2.24457 -2.56577 0
M  V30 5006 H 495.163 0.479935 -2.96035 0
M  V30 5007 H 492.716 0.213033 -1.54841 0
M  V30 5008 H 493.451 2.74061 -1.73382 0
M  V30 5009 H 493.236 2.02508 -3.35757 0
M  V30 5010 H 494.726 2.93607 -2.96959 0
M  V30 5011 N 495.163 1.55791 0.238111 0
M  V30 5012 C 496.126 1.90239 1.27835 0
M  V30 5013 C 497.126 0.779552 1.4064 0
M  V30 5014 O 498.316 1.04747 1.3919 0
M  V30 5015 C 495.448 2.13859 2.65475 0
M  V30 5016 H 496.641 2.83262 0.985034 0
M  V30 5017 H 494.194 1.48818 0.477799 0
M  V30 5018 H 494.929 1.23334 2.99932 0
M  V30 5019 H 494.714 2.95643 2.57561 0
M  V30 5020 H 496.204 2.41664 3.40571 0
M  V30 5021 N 496.642 -0.504142 1.49319 0
M  V30 5022 C 497.605 -1.5883 1.65244 0
M  V30 5023 C 498.605 -1.52009 0.524386 0
M  V30 5024 O 499.795 -1.55218 0.79077 0
M  V30 5025 C 496.927 -2.98481 1.64687 0
M  V30 5026 H 498.12 -1.4604 2.61939 0
M  V30 5027 H 495.673 -0.728144 1.38303 0
M  V30 5028 H 496.408 -3.16751 0.695644 0
M  V30 5029 H 496.193 -3.0484 2.46607 0
M  V30 5030 H 497.683 -3.77256 1.79075 0
M  V30 5031 N 498.12 -1.38341 -0.754957 0
M  V30 5032 C 499.368 -1.34208 -1.51105 0
M  V30 5033 C 499.689 0.0677634 -1.94882 0
M  V30 5034 O 498.959 1.01517 -1.67544 0
M  V30 5035 H 497.539 -0.493819 -0.560493 0
M  V30 5036 H 500.201 -1.73005 -0.897507 0
M  V30 5037 H 499.297 -1.99203 -2.4026 0
M  V30 5038 N 499.598 0.982988 -1.23187 0
M  V30 5039 C 500.826 1.75921 -1.08901 0
M  V30 5040 C 501.241 1.85341 0.359719 0
M  V30 5041 O 500.598 1.33072 1.24892 0
M  V30 5042 C 500.649 3.18742 -1.70545 0
M  V30 5043 O 500.37 3.09814 -3.09753 0
M  V30 5044 C 501.871 4.1277 -1.61667 0
M  V30 5045 H 499.091 0.552166 -0.381252 0
M  V30 5046 H 501.635 1.23516 -1.62985 0
M  V30 5047 H 499.79 3.68182 -1.20501 0
M  V30 5048 H 500.204 3.99703 -3.39614 0
M  V30 5049 H 501.678 5.10697 -2.09506 0
M  V30 5050 H 502.155 4.3542 -0.575009 0
M  V30 5051 H 502.761 3.69232 -2.11064 0
M  V30 5052 N 501.076 1.04316 1.18135 0
M  V30 5053 C 502.487 0.775505 1.69832 0
M  V30 5054 C 502.838 -0.703348 1.8316 0
M  V30 5055 O 501.963 -1.54729 1.51287 0
M  V30 5056 C 502.558 1.40112 3.0847 0
M  V30 5057 C 501.117 1.18172 3.57368 0
M  V30 5058 C 500.264 1.49022 2.33854 0
M  V30 5059 H 503.215 1.20925 1.02775 0
M  V30 5060 H 503.236 0.805672 3.71873 0
M  V30 5061 H 502.748 2.47744 2.98738 0
M  V30 5062 H 500.849 0.124258 3.72393 0
M  V30 5063 H 500.962 1.8805 4.40652 0
M  V30 5064 H 499.326 0.909995 2.37889 0
M  V30 5065 H 500.109 2.57768 2.26738 0
M  V30 5066 N 502.554 -1.34406 0.822964 0
M  V30 5067 C 503.486 -2.28305 0.202375 0
M  V30 5068 C 504.499 -1.5103 -0.60777 0
M  V30 5069 O 505.688 -1.73057 -0.437444 0
M  V30 5070 C 502.788 -3.30836 -0.734911 0
M  V30 5071 C 501.961 -4.37388 0.0324177 0
M  V30 5072 C 501.02 -5.1968 -0.825803 0
M  V30 5073 O 500.046 -5.68556 -0.270771 0
M  V30 5074 N 501.248 -5.39393 -2.14558 0
M  V30 5075 H 504.013 -2.82201 1.00909 0
M  V30 5076 H 501.574 -1.4693 0.67993 0
M  V30 5077 H 503.566 -3.82786 -1.31365 0
M  V30 5078 H 502.136 -2.77334 -1.44238 0
M  V30 5079 H 501.356 -3.86152 0.792469 0
M  V30 5080 H 502.644 -5.05702 0.560633 0
M  V30 5081 H 502.042 -5.01357 -2.62025 0
M  V30 5082 H 500.599 -5.94461 -2.67318 0
M  V30 5083 N 504.032 -0.577932 -1.46621 0
M  V30 5084 C 504.982 0.178869 -2.27297 0
M  V30 5085 C 505.966 0.866279 -1.35589 0
M  V30 5086 O 507.158 0.761163 -1.59798 0
M  V30 5087 C 504.287 1.19499 -3.2183 0
M  V30 5088 C 503.373 0.50994 -4.21023 0
M  V30 5089 N 503.764 -0.43177 -5.03954 0
M  V30 5090 C 502.062 0.761287 -4.39455 0
M  V30 5091 C 502.763 -0.831693 -5.75724 0
M  V30 5092 N 501.739 -0.181897 -5.43296 0
M  V30 5093 H 505.541 -0.544859 -2.88805 0
M  V30 5094 H 503.055 -0.399373 -1.57413 0
M  V30 5095 H 505.052 1.75131 -3.78332 0
M  V30 5096 H 503.712 1.91959 -2.61881 0
M  V30 5097 H 504.723 -0.807045 -5.11573 0
M  V30 5098 H 501.4 1.47282 -3.90659 0
M  V30 5099 H 502.79 -1.6067 -6.52407 0
M  V30 5100 N 505.51 1.54411 -0.315457 0
M  V30 5101 C 506.473 2.22713 0.54142 0
M  V30 5102 C 507.473 1.2179 1.04995 0
M  V30 5103 O 508.663 1.46426 0.943667 0
M  V30 5104 C 505.795 2.92485 1.75116 0
M  V30 5105 H 506.988 2.99849 -0.0555508 0
M  V30 5106 H 504.541 1.56159 -0.0664453 0
M  V30 5107 H 505.276 2.19466 2.38758 0
M  V30 5108 H 505.061 3.66483 1.39401 0
M  V30 5109 H 506.551 3.44548 2.35959 0
M  V30 5110 N 506.988 0.0434614 1.5754 0
M  V30 5111 C 508.236 -0.630786 1.92004 0
M  V30 5112 C 508.557 -1.71836 0.921807 0
M  V30 5113 O 507.827 -1.9587 -0.034522 0
M  V30 5114 H 506.407 -0.235988 0.708745 0
M  V30 5115 H 509.069 0.0946462 1.9467 0
M  V30 5116 H 508.165 -1.07434 2.93026 0
M  V30 5117 N 508.466 -1.55915 -0.229846 0
M  V30 5118 C 509.694 -1.82617 -0.972562 0
M  V30 5119 C 510.109 -0.621488 -1.78278 0
M  V30 5120 O 509.466 0.409956 -1.77836 0
M  V30 5121 C 509.517 -3.0774 -1.89679 0
M  V30 5122 O 509.238 -4.23559 -1.11934 0
M  V30 5123 C 510.739 -3.47368 -2.75409 0
M  V30 5124 H 507.959 -0.60727 -0.285419 0
M  V30 5125 H 510.503 -2.02996 -0.247579 0
M  V30 5126 H 508.658 -2.89361 -2.57583 0
M  V30 5127 H 509.072 -4.94586 -1.74599 0
M  V30 5128 H 510.546 -4.37977 -3.35977 0
M  V30 5129 H 511.023 -2.68737 -3.47386 0
M  V30 5130 H 511.629 -3.68158 -2.12931 0
M  V30 5131 N 509.944 0.496216 -1.49584 0
M  V30 5132 C 510.874 1.60576 -1.69521 0
M  V30 5133 C 511.855 1.61169 -0.543933 0
M  V30 5134 O 513.04 1.77834 -0.78031 0
M  V30 5135 C 510.17 2.99038 -1.76616 0
M  V30 5136 C 509.124 3.13312 -2.91581 0
M  V30 5137 C 508.45 4.53172 -2.83794 0
M  V30 5138 C 509.75 2.92886 -4.32452 0
M  V30 5139 H 511.444 1.44146 -2.62416 0
M  V30 5140 H 508.99 0.692024 -1.26282 0
M  V30 5141 H 510.943 3.76564 -1.8915 0
M  V30 5142 H 509.667 3.16568 -0.80324 0
M  V30 5143 H 508.326 2.38213 -2.78658 0
M  V30 5144 H 507.974 4.67585 -1.854 0
M  V30 5145 H 507.674 4.63662 -3.60958 0
M  V30 5146 H 509.198 5.32752 -2.98342 0
M  V30 5147 H 510.612 3.60178 -4.46032 0
M  V30 5148 H 509.009 3.14844 -5.10875 0
M  V30 5149 H 510.079 1.88966 -4.46565 0
M  V30 5150 N 511.423 1.38739 0.74761 0
M  V30 5151 C 512.355 1.32341 1.87132 0
M  V30 5152 C 513.368 0.234502 1.61102 0
M  V30 5153 O 514.557 0.492516 1.71571 0
M  V30 5154 C 511.657 1.02915 3.22896 0
M  V30 5155 C 510.83 2.22834 3.76383 0
M  V30 5156 C 509.889 1.90059 4.90677 0
M  V30 5157 O 508.915 2.62615 5.04997 0
M  V30 5158 N 510.117 0.859141 5.74107 0
M  V30 5159 H 512.882 2.29175 1.93129 0
M  V30 5160 H 510.443 1.32678 0.927805 0
M  V30 5161 H 512.435 0.79031 3.96908 0
M  V30 5162 H 511.005 0.148572 3.12247 0
M  V30 5163 H 510.225 2.62747 2.93867 0
M  V30 5164 H 511.513 3.02851 4.08851 0
M  V30 5165 H 510.911 0.257564 5.65113 0
M  V30 5166 H 509.468 0.680189 6.48241 0
M  V30 5167 N 512.901 -0.976442 1.23707 0
M  V30 5168 C 514.147 -1.72158 1.08319 0
M  V30 5169 C 514.502 -1.88701 -0.375445 0
M  V30 5170 O 513.795 -1.43107 -1.274 0
M  V30 5171 C 513.989 -3.11814 1.74662 0
M  V30 5172 C 513.818 -3.08892 3.26827 0
M  V30 5173 C 512.588 -3.13861 3.96004 0
M  V30 5174 C 514.786 -2.9175 4.2354 0
M  V30 5175 N 512.768 -3.00867 5.35119 0
M  V30 5176 C 514.139 -2.8696 5.49595 0
M  V30 5177 C 516.194 -2.76265 4.14225 0
M  V30 5178 C 514.897 -2.68268 6.67401 0
M  V30 5179 C 516.923 -2.58938 5.317 0
M  V30 5180 C 516.285 -2.54849 6.56682 0
M  V30 5181 H 512.384 -0.638896 0.450927 0
M  V30 5182 H 514.968 -1.15835 1.56494 0
M  V30 5183 H 513.139 -3.66347 1.29014 0
M  V30 5184 H 514.871 -3.74984 1.52215 0
M  V30 5185 H 511.626 -3.22198 3.4711 0
M  V30 5186 H 512.05 -2.97634 6.08065 0
M  V30 5187 H 516.692 -2.78213 3.18366 0
M  V30 5188 H 514.41 -2.65063 7.63392 0
M  V30 5189 H 517.996 -2.47914 5.26336 0
M  V30 5190 H 516.876 -2.41611 7.46052 0
M  V30 5191 N 514.379 -1.04941 -1.1758 0
M  V30 5192 C 515.627 -0.756492 -1.87408 0
M  V30 5193 C 515.948 0.718478 -1.81281 0
M  V30 5194 O 515.218 1.519 -1.23706 0
M  V30 5195 H 513.798 -0.276841 -0.693807 0
M  V30 5196 H 516.46 -1.32803 -1.42652 0
M  V30 5197 H 515.556 -1.06918 -2.93215 0
M  V30 5198 N 515.857 1.33968 -0.830081 0
M  V30 5199 C 517.105 1.97672 -0.420734 0
M  V30 5200 C 517.426 1.66111 1.02138 0
M  V30 5201 O 516.696 0.955503 1.71017 0
M  V30 5202 H 515.276 0.73125 -0.152587 0
M  V30 5203 H 517.938 1.63483 -1.0611 0
M  V30 5204 H 517.034 3.07294 -0.545588 0
M  V30 5205 N 517.335 0.585699 1.46312 0
M  V30 5206 C 518.581 0.0725284 2.0267 0
M  V30 5207 C 518.914 -1.28523 1.45586 0
M  V30 5208 O 518.189 -1.84283 0.622101 0
M  V30 5209 C 518.472 0.0099788 3.60099 0
M  V30 5210 C 518.325 1.39685 4.27561 0
M  V30 5211 C 519.644 -0.689117 4.34671 0
M  V30 5212 H 516.763 0.0278307 0.736474 0
M  V30 5213 H 519.405 0.753472 1.74421 0
M  V30 5214 H 517.555 -0.56992 3.84297 0
M  V30 5215 H 519.227 2.02215 4.14617 0
M  V30 5216 H 517.47 1.96374 3.86807 0
M  V30 5217 H 518.141 1.30553 5.36339 0
M  V30 5218 H 520.617 -0.196446 4.15636 0
M  V30 5219 H 519.493 -0.701921 5.44393 0
M  V30 5220 H 519.754 -1.75101 4.05946 0
M  V30 5221 N 518.813 -1.54241 0.323641 0
M  V30 5222 C 520.043 -2.04687 -0.280464 0
M  V30 5223 C 520.451 -1.19939 -1.46326 0
M  V30 5224 O 519.794 -0.222872 -1.82343 0
M  V30 5225 C 519.856 -3.50978 -0.778123 0
M  V30 5226 C 519.52 -4.56127 0.282371 0
M  V30 5227 C 520.517 -5.07726 1.11847 0
M  V30 5228 C 518.202 -5.00451 0.430582 0
M  V30 5229 C 520.196 -6.02212 2.08851 0
M  V30 5230 C 517.883 -5.94752 1.40404 0
M  V30 5231 C 518.881 -6.45519 2.23147 0
M  V30 5232 O 518.569 -7.37968 3.1884 0
M  V30 5233 H 518.301 -0.673192 -0.0615473 0
M  V30 5234 H 520.855 -1.99999 0.467921 0
M  V30 5235 H 519.085 -3.53064 -1.57742 0
M  V30 5236 H 520.774 -3.84499 -1.30058 0
M  V30 5237 H 521.54 -4.74261 1.01496 0
M  V30 5238 H 517.419 -4.6055 -0.203569 0
M  V30 5239 H 520.963 -6.41761 2.73474 0
M  V30 5240 H 516.86 -6.27633 1.5082 0
M  V30 5241 H 517.628 -7.55841 3.14079 0
M  V30 5242 N 520.291 -0.0518155 -1.57515 0
M  V30 5243 C 521.539 0.620595 -1.92336 0
M  V30 5244 C 521.86 1.71345 -0.930907 0
M  V30 5245 O 521.13 1.95885 0.0241341 0
M  V30 5246 H 519.71 0.232226 -0.709986 0
M  V30 5247 H 522.372 -0.104969 -1.94617 0
M  V30 5248 H 521.468 1.05879 -2.93592 0
M  V30 5249 N 521.769 1.56035 0.221574 0
M  V30 5250 C 522.719 1.8881 1.27807 0
M  V30 5251 C 523.703 0.751177 1.42289 0
M  V30 5252 O 524.895 1.01359 1.45104 0
M  V30 5253 C 522.024 2.20828 2.6285 0
M  V30 5254 C 521.11 3.40912 2.52269 0
M  V30 5255 N 521.501 4.59531 2.1134 0
M  V30 5256 C 519.799 3.44526 2.83228 0
M  V30 5257 C 520.5 5.41689 2.1201 0
M  V30 5258 N 519.476 4.814 2.52497 0
M  V30 5259 H 523.278 2.78036 0.952529 0
M  V30 5260 H 520.792 1.566 0.430134 0
M  V30 5261 H 522.789 2.42483 3.39127 0
M  V30 5262 H 521.449 1.32914 2.9625 0
M  V30 5263 H 522.46 4.8469 1.82472 0
M  V30 5264 H 519.137 2.66956 3.21 0
M  V30 5265 H 520.527 6.46643 1.82491 0
M  V30 5266 N 523.247 -0.488276 1.49845 0
M  V30 5267 C 524.472 -1.26997 1.63971 0
M  V30 5268 C 524.897 -1.85427 0.315994 0
M  V30 5269 O 524.255 -1.66475 -0.718032 0
M  V30 5270 C 524.303 -2.36689 2.72049 0
M  V30 5271 O 523.407 -3.40882 2.32107 0
M  V30 5272 H 522.748 -0.374376 0.548396 0
M  V30 5273 H 525.278 -0.583104 1.96115 0
M  V30 5274 H 525.288 -2.82262 2.94605 0
M  V30 5275 H 523.963 -1.93529 3.68129 0
M  V30 5276 H 522.54 -3.01139 2.19931 0
M  V30 5277 N 524.725 -1.39134 -0.740242 0
M  V30 5278 C 525.971 -1.37278 -1.50088 0
M  V30 5279 C 526.326 0.0329967 -1.92372 0
M  V30 5280 O 525.619 0.998447 -1.63529 0
M  V30 5281 C 525.813 -2.27457 -2.75678 0
M  V30 5282 C 525.642 -3.76662 -2.45674 0
M  V30 5283 C 524.412 -4.45617 -2.38229 0
M  V30 5284 C 526.61 -4.6877 -2.11563 0
M  V30 5285 N 524.592 -5.80187 -2.00641 0
M  V30 5286 C 525.963 -5.91951 -1.84376 0
M  V30 5287 C 528.018 -4.56843 -1.97987 0
M  V30 5288 C 526.721 -7.04538 -1.4498 0
M  V30 5289 C 528.747 -5.69347 -1.59994 0
M  V30 5290 C 528.109 -6.91597 -1.33687 0
M  V30 5291 H 524.208 -0.557611 -0.548265 0
M  V30 5292 H 526.792 -1.74638 -0.860784 0
M  V30 5293 H 524.963 -1.92263 -3.37475 0
M  V30 5294 H 526.695 -2.16631 -3.41838 0
M  V30 5295 H 523.45 -3.98993 -2.5515 0
M  V30 5296 H 523.874 -6.51387 -1.84454 0
M  V30 5297 H 528.516 -3.62868 -2.16995 0
M  V30 5298 H 526.234 -7.98419 -1.24712 0
M  V30 5299 H 529.82 -5.62104 -1.50102 0
M  V30 5300 H 528.7 -7.77176 -1.04728 0
M  V30 5301 N 526.204 0.969867 -1.24223 0
M  V30 5302 C 527.451 1.71256 -1.08063 0
M  V30 5303 C 527.779 1.90734 0.380872 0
M  V30 5304 O 527.034 1.46469 1.29789 0
M  V30 5305 C 527.333 3.10883 -1.76314 0
M  V30 5306 C 526.999 3.11252 -3.26241 0
M  V30 5307 C 525.661 3.1106 -3.67144 0
M  V30 5308 C 528.013 3.05751 -4.22097 0
M  V30 5309 C 525.341 3.03097 -5.02344 0
M  V30 5310 C 527.693 2.9933 -5.57301 0
M  V30 5311 C 526.357 2.97466 -5.97554 0
M  V30 5312 H 525.627 0.62667 -0.395431 0
M  V30 5313 H 528.274 1.13422 -1.54297 0
M  V30 5314 H 526.579 3.72168 -1.22468 0
M  V30 5315 H 528.276 3.67138 -1.61277 0
M  V30 5316 H 524.866 3.12165 -2.93685 0
M  V30 5317 H 529.05 3.05031 -3.91497 0
M  V30 5318 H 524.306 3.00013 -5.32731 0
M  V30 5319 H 528.48 2.94033 -6.31283 0
M  V30 5320 H 526.107 2.91051 -7.02277 0
M  V30 5321 N 527.682 1.05563 1.17022 0
M  V30 5322 C 528.928 0.769074 1.87652 0
M  V30 5323 C 529.261 -0.702326 1.81055 0
M  V30 5324 O 528.536 -1.5139 1.22112 0
M  V30 5325 C 528.819 1.25492 3.37526 0
M  V30 5326 C 528.672 2.78953 3.52853 0
M  V30 5327 C 529.991 0.856919 4.31677 0
M  V30 5328 H 527.11 0.280854 0.681388 0
M  V30 5329 H 529.752 1.31027 1.37593 0
M  V30 5330 H 527.902 0.794516 3.80289 0
M  V30 5331 H 529.574 3.33146 3.19079 0
M  V30 5332 H 527.817 3.18046 2.95007 0
M  V30 5333 H 528.488 3.08011 4.58076 0
M  V30 5334 H 530.964 1.25334 3.96775 0
M  V30 5335 H 529.84 1.22443 5.35069 0
M  V30 5336 H 530.101 -0.238787 4.41455 0
M  V30 5337 N 529.16 -1.33526 0.837174 0
M  V30 5338 C 530.437 -1.92369 0.354065 0
M  V30 5339 C 530.817 -1.76348 -1.16038 0
M  V30 5340 O 530.165 -1.15083 -1.97403 0
M  V30 5341 C 530.375 -3.39728 0.799101 0
M  V30 5342 C 531.723 -4.16877 0.806139 0
M  V30 5343 O 532.747 -3.48373 0.742597 0
M  V30 5344 O 531.606 -5.39166 0.892345 0
M  V30 5345 H 528.7 -0.820952 0.0998378 0
M  V30 5346 H 531.246 -1.42409 0.922913 0
M  V30 5347 H 530.018 -3.45254 1.84162 0
M  V30 5348 H 529.641 -3.97062 0.206731 0
M  V30 5349 N 530.638 -0.59345 -1.46 0
M  V30 5350 C 532.054 -0.255965 -1.57534 0
M  V30 5351 C 532.254 1.24167 -1.58697 0
M  V30 5352 O 531.31 2.02398 -1.50968 0
M  V30 5353 C 532.623 -0.91466 -2.86451 0
M  V30 5354 C 534.171 -0.889253 -3.00102 0
M  V30 5355 C 534.646 -1.52769 -4.3177 0
M  V30 5356 N 536.137 -1.49253 -4.38495 0
M  V30 5357 C 536.872 -1.9558 -5.39014 0
M  V30 5358 N 536.368 -2.49929 -6.46148 0
M  V30 5359 N 538.161 -1.86432 -5.30282 0
M  V30 5360 H 530.312 -1.56604 -1.43489 0
M  V30 5361 H 532.575 -0.655207 -0.685133 0
M  V30 5362 H 532.281 -1.96861 -2.91442 0
M  V30 5363 H 532.155 -0.429356 -3.74748 0
M  V30 5364 H 534.542 0.156111 -2.94687 0
M  V30 5365 H 534.623 -1.41268 -2.13253 0
M  V30 5366 H 534.267 -2.57231 -4.37944 0
M  V30 5367 H 534.197 -0.979398 -5.17412 0
M  V30 5368 H 536.688 -1.09536 -3.61677 0
M  V30 5369 H 537.001 -2.83109 -7.19075 0
M  V30 5370 H 535.346 -2.53961 -6.46938 0
M  V30 5371 H 538.537 -1.43722 -4.4549 0
M  V30 5372 H 538.71 -2.22852 -6.08474 0
M  V30 5373 N 532.116 1.54067 -0.331816 0
M  V30 5374 C 533.079 2.23275 0.517768 0
M  V30 5375 C 534.079 1.22897 1.03697 0
M  V30 5376 O 535.269 1.47419 0.928084 0
M  V30 5377 C 532.401 2.94326 1.72004 0
M  V30 5378 H 533.594 2.99773 -0.0873507 0
M  V30 5379 H 531.147 1.56079 -0.0830042 0
M  V30 5380 H 531.882 2.21986 2.36417 0
M  V30 5381 H 531.667 3.67941 1.35507 0
M  V30 5382 H 533.157 3.47031 2.32291 0
M  V30 5383 N 533.594 0.0601682 1.57485 0
M  V30 5384 C 534.524 -0.90889 2.15085 0
M  V30 5385 C 535.505 -1.31838 1.07484 0
M  V30 5386 O 536.69 -1.3915 1.35466 0
M  V30 5387 C 533.82 -2.18059 2.7031 0
M  V30 5388 C 532.774 -1.91088 3.82974 0
M  V30 5389 C 532.1 -3.24789 4.24754 0
M  V30 5390 C 533.4 -1.22535 5.07723 0
M  V30 5391 H 535.094 -0.429093 2.96309 0
M  V30 5392 H 532.64 -0.204952 1.42534 0
M  V30 5393 H 534.593 -2.86258 3.09248 0
M  V30 5394 H 533.317 -2.6826 1.8629 0
M  V30 5395 H 531.976 -1.25297 3.44523 0
M  V30 5396 H 531.624 -3.72809 3.37672 0
M  V30 5397 H 531.324 -3.07538 5.00694 0
M  V30 5398 H 532.848 -3.94205 4.66299 0
M  V30 5399 H 534.262 -1.80783 5.4405 0
M  V30 5400 H 532.659 -1.1558 5.88864 0
M  V30 5401 H 533.729 -0.202692 4.84476 0
M  V30 5402 N 535.072 -1.5615 -0.213296 0
M  V30 5403 C 536.32 -1.79191 -0.934612 0
M  V30 5404 C 536.641 -0.630112 -1.84539 0
M  V30 5405 O 535.911 0.35257 -1.92701 0
M  V30 5406 H 534.491 -0.660937 -0.348097 0
M  V30 5407 H 537.153 -1.93618 -0.22317 0
M  V30 5408 H 536.249 -2.71656 -1.53654 0
M  V30 5409 N 536.55 0.480323 -1.50102 0
M  V30 5410 C 537.48 1.58769 -1.71215 0
M  V30 5411 C 538.461 1.60583 -0.560997 0
M  V30 5412 O 539.646 1.76996 -0.799127 0
M  V30 5413 C 536.776 2.97148 -1.79778 0
M  V30 5414 C 535.73 3.10201 -2.94888 0
M  V30 5415 C 535.056 4.50137 -2.88584 0
M  V30 5416 C 536.356 2.88283 -4.35534 0
M  V30 5417 H 538.05 1.41354 -2.6393 0
M  V30 5418 H 535.596 0.678591 -1.27008 0
M  V30 5419 H 537.549 3.74536 -1.93133 0
M  V30 5420 H 536.273 3.15699 -0.836772 0
M  V30 5421 H 534.932 2.35244 -2.81169 0
M  V30 5422 H 534.58 4.65593 -1.90349 0
M  V30 5423 H 534.28 4.59808 -3.65856 0
M  V30 5424 H 535.804 5.29558 -3.03976 0
M  V30 5425 H 537.218 3.55427 -4.49827 0
M  V30 5426 H 535.615 3.09408 -5.14186 0
M  V30 5427 H 536.685 1.84219 -4.48544 0
M  V30 5428 N 538.028 1.39524 0.732853 0
M  V30 5429 C 539.253 1.40329 1.52717 0
M  V30 5430 C 539.678 0.000286574 1.881 0
M  V30 5431 O 539.036 -0.987262 1.52062 0
M  V30 5432 C 539.084 2.28464 2.78992 0
M  V30 5433 O 538.188 1.716 3.75003 0
M  V30 5434 H 537.529 0.47778 0.461109 0
M  V30 5435 H 540.059 1.83546 0.903996 0
M  V30 5436 H 540.069 2.43051 3.27705 0
M  V30 5437 H 538.744 3.30425 2.52572 0
M  V30 5438 H 537.321 1.66267 3.33781 0
M  V30 5439 N 539.506 -0.963266 1.24736 0
M  V30 5440 C 540.752 -1.70933 1.09131 0
M  V30 5441 C 541.085 -1.90676 -0.368273 0
M  V30 5442 O 540.36 -1.47147 -1.27193 0
M  V30 5443 C 540.643 -3.09744 1.83658 0
M  V30 5444 C 540.496 -2.97465 3.37394 0
M  V30 5445 C 541.815 -4.09483 1.61282 0
M  V30 5446 H 538.934 -0.620398 0.397838 0
M  V30 5447 H 541.576 -1.12028 1.53459 0
M  V30 5448 H 539.726 -3.60031 1.4598 0
M  V30 5449 H 541.398 -2.54571 3.84696 0
M  V30 5450 H 539.641 -2.33576 3.65547 0
M  V30 5451 H 540.312 -3.95822 3.84745 0
M  V30 5452 H 542.788 -3.68073 1.94066 0
M  V30 5453 H 541.664 -5.04666 2.15878 0
M  V30 5454 H 541.925 -4.38639 0.552102 0
M  V30 5455 N 540.985 -1.06182 -1.16461 0
M  V30 5456 C 541.915 -0.692861 -2.22984 0
M  V30 5457 C 542.896 0.314122 -1.67174 0
M  V30 5458 O 544.081 0.189499 -1.93273 0
M  V30 5459 C 541.211 -0.07732 -3.47214 0
M  V30 5460 C 540.165 -1.01015 -4.15909 0
M  V30 5461 C 539.491 -0.257973 -5.34077 0
M  V30 5462 C 540.791 -2.33868 -4.67015 0
M  V30 5463 H 542.485 -1.58343 -2.54102 0
M  V30 5464 H 540.031 -0.76279 -1.22137 0
M  V30 5465 H 541.984 0.19266 -4.20959 0
M  V30 5466 H 540.708 0.848254 -3.15392 0
M  V30 5467 H 539.367 -1.26486 -3.44088 0
M  V30 5468 H 539.015 0.670684 -4.98509 0
M  V30 5469 H 538.715 -0.879638 -5.80979 0
M  V30 5470 H 540.239 0.00448788 -6.106 0
M  V30 5471 H 541.653 -2.1279 -5.32347 0
M  V30 5472 H 540.05 -2.91522 -5.24533 0
M  V30 5473 H 541.12 -2.97019 -3.83286 0
M  V30 5474 N 542.463 1.3308 -0.844243 0
M  V30 5475 C 543.393 2.3161 -0.296493 0
M  V30 5476 C 544.374 1.59215 0.598707 0
M  V30 5477 O 545.559 1.87077 0.521134 0
M  V30 5478 C 542.689 3.43313 0.524762 0
M  V30 5479 C 541.643 4.27115 -0.275106 0
M  V30 5480 C 540.969 5.30483 0.670236 0
M  V30 5481 C 542.269 5.00443 -1.49514 0
M  V30 5482 H 543.963 2.77672 -1.11976 0
M  V30 5483 H 541.509 1.33496 -0.539899 0
M  V30 5484 H 543.462 4.11273 0.918298 0
M  V30 5485 H 542.186 2.95952 1.3813 0
M  V30 5486 H 540.845 3.60787 -0.650267 0
M  V30 5487 H 540.493 4.79379 1.52332 0
M  V30 5488 H 540.193 5.87435 0.139123 0
M  V30 5489 H 541.717 6.01308 1.06117 0
M  V30 5490 H 543.131 5.61141 -1.17447 0
M  V30 5491 H 541.528 5.67071 -1.96343 0
M  V30 5492 H 542.598 4.28906 -2.26202 0
M  V30 5493 N 543.941 0.601185 1.45683 0
M  V30 5494 C 544.871 -0.108824 2.33246 0
M  V30 5495 C 545.852 -0.865223 1.46451 0
M  V30 5496 O 547.037 -0.83704 1.75235 0
M  V30 5497 C 544.167 -1.11101 3.2905 0
M  V30 5498 C 543.121 -0.468244 4.25431 0
M  V30 5499 C 542.447 -1.57822 5.10878 0
M  V30 5500 C 543.747 0.606469 5.18767 0
M  V30 5501 H 545.441 0.622306 2.92861 0
M  V30 5502 H 542.987 0.300714 1.40825 0
M  V30 5503 H 544.94 -1.61622 3.89174 0
M  V30 5504 H 543.664 -1.87265 2.67581 0
M  V30 5505 H 542.323 0.0160484 3.66596 0
M  V30 5506 H 541.971 -2.32998 4.45781 0
M  V30 5507 H 541.671 -1.15369 5.76163 0
M  V30 5508 H 543.195 -2.08583 5.73869 0
M  V30 5509 H 544.609 0.185589 5.73 0
M  V30 5510 H 543.006 0.952381 5.92494 0
M  V30 5511 H 544.076 1.48559 4.61582 0
M  V30 5512 N 545.419 -1.53889 0.339982 0
M  V30 5513 C 546.647 -2.05271 -0.259114 0
M  V30 5514 C 547.062 -1.21517 -1.44496 0
M  V30 5515 O 546.419 -0.24966 -1.80784 0
M  V30 5516 C 546.47 -3.55092 -0.677634 0
M  V30 5517 O 546.191 -4.35667 0.461051 0
M  V30 5518 C 547.692 -4.22631 -1.33782 0
M  V30 5519 H 544.912 -0.669085 -0.0506566 0
M  V30 5520 H 547.456 -1.9852 0.490935 0
M  V30 5521 H 545.611 -3.62077 -1.37763 0
M  V30 5522 H 546.025 -5.24343 0.128144 0
M  V30 5523 H 547.499 -5.28861 -1.58145 0
M  V30 5524 H 547.976 -3.74758 -2.29027 0
M  V30 5525 H 548.582 -4.19829 -0.679957 0
M  V30 5526 N 546.897 -0.0685191 -1.57451 0
M  V30 5527 C 547.845 0.917577 -2.13736 0
M  V30 5528 C 548.839 1.31049 -1.07344 0
M  V30 5529 O 550.045 1.28811 -1.25728 0
M  V30 5530 H 546.42 0.313835 -0.683382 0
M  V30 5531 H 548.391 0.417903 -2.95459 0
M  V30 5532 C 547.14 2.17686 -2.71123 0
M  V30 5533 H 546.463 1.88336 -3.52661 0
M  V30 5534 H 547.903 2.84803 -3.14107 0
M  V30 5535 C 546.362 2.9332 -1.65726 0
M  V30 5536 O 546.892 3.86901 -1.08031 0
M  V30 5537 N 545.098 2.56367 -1.36837 0
M  V30 5538 H 544.645 1.80341 -1.83943 0
M  V30 5539 H 544.603 3.07276 -0.665501 0
M  V30 5540 N 548.375 1.56261 0.205012 0
M  V30 5541 C 549.603 1.84141 0.943386 0
M  V30 5542 C 550.018 0.649772 1.77266 0
M  V30 5543 O 549.375 -0.381612 1.78466 0
M  V30 5544 C 549.426 3.10719 1.84759 0
M  V30 5545 O 549.147 4.25286 1.05181 0
M  V30 5546 C 550.648 3.51706 2.69848 0
M  V30 5547 H 547.868 0.611734 0.275721 0
M  V30 5548 H 550.412 2.03364 0.215253 0
M  V30 5549 H 548.567 2.93422 2.52947 0
M  V30 5550 H 548.981 4.97301 1.66709 0
M  V30 5551 H 550.455 4.43266 3.28967 0
M  V30 5552 H 550.932 2.7423 3.43067 0
M  V30 5553 H 551.538 3.71499 2.07047 0
M  V30 5554 N 549.853 -0.472356 1.50355 0
M  V30 5555 C 550.816 -1.5529 1.68576 0
M  V30 5556 C 551.816 -1.50863 0.556511 0
M  V30 5557 O 553.006 -1.53505 0.823516 0
M  V30 5558 C 550.138 -2.94921 1.70981 0
M  V30 5559 H 551.331 -1.40451 2.64978 0
M  V30 5560 H 548.884 -0.698645 1.39816 0
M  V30 5561 H 549.619 -3.15204 0.762675 0
M  V30 5562 H 549.404 -2.99541 2.53017 0
M  V30 5563 H 550.894 -3.73372 1.87037 0
M  V30 5564 N 551.331 -1.39911 -0.725443 0
M  V30 5565 C 552.561 -1.40744 -1.51244 0
M  V30 5566 C 552.969 -0.00275403 -1.892 0
M  V30 5567 O 552.312 0.981299 -1.55294 0
M  V30 5568 C 552.374 -2.22527 -2.82351 0
M  V30 5569 C 552.038 -3.71053 -2.66774 0
M  V30 5570 C 553.035 -4.63916 -2.34686 0
M  V30 5571 C 550.72 -4.14753 -2.83347 0
M  V30 5572 C 552.714 -5.98463 -2.19366 0
M  V30 5573 C 550.401 -5.49372 -2.67644 0
M  V30 5574 C 551.399 -6.41042 -2.357 0
M  V30 5575 O 551.087 -7.73181 -2.20107 0
M  V30 5576 H 550.819 -0.482314 -0.473655 0
M  V30 5577 H 553.373 -1.84472 -0.903284 0
M  V30 5578 H 551.603 -1.73563 -3.45562 0
M  V30 5579 H 553.292 -2.15421 -3.44018 0
M  V30 5580 H 554.058 -4.31453 -2.21525 0
M  V30 5581 H 549.937 -3.43728 -3.072 0
M  V30 5582 H 553.481 -6.69979 -1.94354 0
M  V30 5583 H 549.378 -5.81424 -2.80387 0
M  V30 5584 H 550.146 -7.84008 -2.35103 0
M  V30 5585 N 552.809 0.956637 -1.25245 0
M  V30 5586 C 553.719 2.0868 -1.0719 0
M  V30 5587 C 554.735 1.73997 -0.00959074 0
M  V30 5588 O 555.911 2.00301 -0.210104 0
M  V30 5589 C 552.976 3.39754 -0.690526 0
M  V30 5590 C 552.037 3.88316 -1.83055 0
M  V30 5591 C 551.27 5.13134 -1.46728 0
M  V30 5592 O 551.493 5.6925 -0.362029 0
M  V30 5593 O 550.427 5.56356 -2.29677 0
M  V30 5594 H 554.253 2.26813 -2.01965 0
M  V30 5595 H 551.838 1.07098 -1.04165 0
M  V30 5596 H 553.72 4.18543 -0.489871 0
M  V30 5597 H 552.395 3.22896 0.227981 0
M  V30 5598 H 551.302 3.1054 -2.08604 0
M  V30 5599 H 552.635 4.09669 -2.72822 0
M  V30 5600 N 554.287 1.06798 1.15896 0
M  V30 5601 C 555.535 0.786211 1.8618 0
M  V30 5602 C 555.856 -0.689547 1.82401 0
M  V30 5603 O 555.126 -1.49913 1.26107 0
M  V30 5604 H 553.706 0.287843 0.689315 0
M  V30 5605 H 556.368 1.35055 1.40521 0
M  V30 5606 H 555.464 1.1157 2.91477 0
M  V30 5607 N 555.766 -1.3263 0.851289 0
M  V30 5608 C 556.699 -2.26952 0.238318 0
M  V30 5609 C 557.677 -1.50243 -0.621757 0
M  V30 5610 O 558.861 -1.79378 -0.579298 0
M  V30 5611 C 555.988 -3.32124 -0.664178 0
M  V30 5612 C 555.034 -4.26325 0.122067 0
M  V30 5613 S 555.867 -5.14404 1.48824 0
M  V30 5614 C 557.023 -6.231 0.591372 0
M  V30 5615 H 557.256 -2.78594 1.03791 0
M  V30 5616 H 554.789 -1.4011 0.648731 0
M  V30 5617 H 556.747 -3.93197 -1.17924 0
M  V30 5618 H 555.408 -2.79273 -1.43755 0
M  V30 5619 H 554.601 -5.00821 -0.565181 0
M  V30 5620 H 554.203 -3.69652 0.568602 0
M  V30 5621 H 556.495 -6.77187 -0.205762 0
M  V30 5622 H 557.438 -6.95936 1.30687 0
M  V30 5623 H 557.846 -5.64252 0.167206 0
M  V30 5624 N 557.244 -0.608902 -1.45362 0
M  V30 5625 C 558.469 -0.10921 -2.07112 0
M  V30 5626 C 558.894 1.19779 -1.45033 0
M  V30 5627 O 558.252 1.72961 -0.543527 0
M  V30 5628 C 558.3 0.0155745 -3.60597 0
M  V30 5629 O 557.404 1.06546 -3.98399 0
M  V30 5630 H 556.745 -0.0746619 -0.659789 0
M  V30 5631 H 559.275 -0.839283 -1.86594 0
M  V30 5632 H 559.285 0.213364 -4.07442 0
M  V30 5633 H 557.96 -0.938765 -4.05167 0
M  V30 5634 H 556.537 0.844024 -3.63223 0
M  V30 5635 N 558.722 1.53707 -0.348139 0
M  V30 5636 C 559.97 2.00591 0.246478 0
M  V30 5637 C 560.291 1.23753 1.50699 0
M  V30 5638 O 559.561 0.345964 1.92821 0
M  V30 5639 H 558.141 0.741053 0.0940679 0
M  V30 5640 H 560.803 1.89139 -0.470354 0
M  V30 5641 H 559.899 3.08297 0.485714 0
M  V30 5642 N 560.2 0.0768682 1.57412 0
M  V30 5643 C 561.611 -0.455037 1.8107 0
M  V30 5644 C 561.962 -1.69323 0.991162 0
M  V30 5645 O 561.087 -2.15328 0.215156 0
M  V30 5646 C 561.682 -0.832316 3.28417 0
M  V30 5647 C 560.241 -1.30906 3.52903 0
M  V30 5648 C 559.388 -0.296714 2.75708 0
M  V30 5649 H 562.339 0.302514 1.5579 0
M  V30 5650 H 562.36 -1.69333 3.40744 0
M  V30 5651 H 561.872 0.0690532 3.88039 0
M  V30 5652 H 559.973 -2.22875 2.98592 0
M  V30 5653 H 560.086 -1.28348 4.61588 0
M  V30 5654 H 558.45 -0.775059 2.42621 0
M  V30 5655 H 559.233 0.597015 3.38069 0
M  V30 5656 N 561.678 -1.56367 -0.196722 0
M  V30 5657 C 562.608 -1.97442 -1.24655 0
M  V30 5658 C 563.589 -0.846147 -1.47561 0
M  V30 5659 O 564.774 -1.11035 -1.59326 0
M  V30 5660 C 561.904 -2.31253 -2.59112 0
M  V30 5661 C 560.858 -3.46804 -2.50821 0
M  V30 5662 C 560.184 -3.66286 -3.89536 0
M  V30 5663 C 561.484 -4.8104 -2.03465 0
M  V30 5664 H 563.178 -2.85388 -0.905216 0
M  V30 5665 H 560.724 -1.37304 -0.434002 0
M  V30 5666 H 562.677 -2.58583 -3.32736 0
M  V30 5667 H 561.401 -1.40188 -2.94983 0
M  V30 5668 H 560.06 -3.19563 -1.79653 0
M  V30 5669 H 559.708 -2.72555 -4.22756 0
M  V30 5670 H 559.408 -4.4402 -3.84864 0
M  V30 5671 H 560.932 -3.9599 -4.64784 0
M  V30 5672 H 562.346 -5.07411 -2.66846 0
M  V30 5673 H 560.743 -5.62232 -2.09798 0
M  V30 5674 H 561.813 -4.74732 -0.98781 0
M  V30 5675 N 563.156 0.464375 -1.50603 0
M  V30 5676 C 564.384 1.23907 -1.65695 0
M  V30 5677 C 564.799 1.85658 -0.343027 0
M  V30 5678 O 564.156 1.69529 0.675739 0
M  V30 5679 C 564.207 2.3429 -2.75301 0
M  V30 5680 O 563.928 1.7507 -4.01599 0
M  V30 5681 C 565.429 3.25051 -3.01424 0
M  V30 5682 H 562.649 0.374485 -0.556778 0
M  V30 5683 H 565.193 0.55353 -1.96866 0
M  V30 5684 H 563.348 2.98607 -2.46804 0
M  V30 5685 H 563.762 2.47812 -4.62266 0
M  V30 5686 H 565.236 3.98699 -3.81763 0
M  V30 5687 H 565.713 3.84227 -2.12758 0
M  V30 5688 H 566.319 2.66463 -3.31477 0
M  V30 5689 N 564.634 1.40294 0.718013 0
M  V30 5690 C 565.883 1.37746 1.4734 0
M  V30 5691 C 566.196 -0.0180754 1.95592 0
M  V30 5692 O 567.402 -0.166166 2.70991 0
M  V30 5693 C 565.858 2.4208 2.66318 0
M  V30 5694 C 565.466 3.87432 2.24945 0
M  V30 5695 C 567.21 2.48635 3.44065 0
M  V30 5696 C 565.117 4.83368 3.40748 0
M  V30 5697 H 564.047 0.512165 0.553356 0
M  V30 5698 H 566.698 1.66019 0.781661 0
M  V30 5699 H 565.08 2.06903 3.3765 0
M  V30 5700 H 566.254 4.3174 1.6105 0
M  V30 5701 H 564.569 3.8433 1.60249 0
M  V30 5702 H 567.166 3.17499 4.30231 0
M  V30 5703 H 567.509 1.51611 3.87711 0
M  V30 5704 H 568.042 2.82791 2.79775 0
M  V30 5705 H 564.781 5.81716 3.02136 0
M  V30 5706 H 564.301 4.43726 4.03568 0
M  V30 5707 H 565.98 5.03074 4.06848 0
M  V30 5708 N 566.112 -0.949982 1.2575 0
M  V30 5709 C 567.075 -2.02894 1.06615 0
M  V30 5710 C 568.075 -1.60791 0.0173905 0
M  V30 5711 O 569.265 -1.72249 0.260003 0
M  V30 5712 C 566.397 -3.35219 0.619751 0
M  V30 5713 H 567.59 -2.21302 2.02399 0
M  V30 5714 H 565.143 -1.12772 1.08223 0
M  V30 5715 H 565.878 -3.22508 -0.340486 0
M  V30 5716 H 565.663 -3.67129 1.37692 0
M  V30 5717 H 567.153 -4.14505 0.507443 0
M  V30 5718 N 567.59 -1.07411 -1.15328 0
M  V30 5719 C 568.52 -0.716472 -2.22236 0
M  V30 5720 C 569.501 0.296373 -1.67498 0
M  V30 5721 O 570.686 0.168989 -1.93463 0
M  V30 5722 C 567.816 -0.114142 -3.47112 0
M  V30 5723 C 566.77 -1.05421 -4.14814 0
M  V30 5724 C 566.096 -0.314604 -5.33774 0
M  V30 5725 C 567.396 -2.38808 -4.64508 0
M  V30 5726 H 569.09 -1.61029 -2.52408 0
M  V30 5727 H 566.636 -0.775702 -1.21321 0
M  V30 5728 H 568.589 0.148001 -4.2114 0
M  V30 5729 H 567.313 0.814755 -3.16274 0
M  V30 5730 H 565.972 -1.30128 -3.42728 0
M  V30 5731 H 565.62 0.617772 -4.99192 0
M  V30 5732 H 565.32 -0.941209 -5.80013 0
M  V30 5733 H 566.844 -0.0602747 -6.1057 0
M  V30 5734 H 568.258 -2.18424 -5.3006 0
M  V30 5735 H 566.655 -2.97069 -5.21412 0
M  V30 5736 H 567.725 -3.01067 -3.80114 0
M  V30 5737 N 569.068 1.32177 -0.85831 0
M  V30 5738 C 570.484 1.49873 -0.548656 0
M  V30 5739 C 570.684 1.79278 0.919874 0
M  V30 5740 O 569.74 1.86451 1.70271 0
M  V30 5741 C 571.053 2.64043 -1.4388 0
M  V30 5742 C 572.601 2.77928 -1.43961 0
M  V30 5743 C 573.076 3.95182 -2.31506 0
M  V30 5744 N 574.567 4.0245 -2.29321 0
M  V30 5745 C 575.302 4.9242 -2.93786 0
M  V30 5746 N 574.798 5.87373 -3.67376 0
M  V30 5747 N 576.591 4.85572 -2.83155 0
M  V30 5748 H 568.742 1.11357 -1.80868 0
M  V30 5749 H 571.005 0.549175 -0.772729 0
M  V30 5750 H 570.711 2.49055 -2.48324 0
M  V30 5751 H 570.585 3.59912 -1.12885 0
M  V30 5752 H 572.972 2.92338 -0.402813 0
M  V30 5753 H 573.053 1.82762 -1.78974 0
M  V30 5754 H 572.697 3.81531 -3.35256 0
M  V30 5755 H 572.627 4.89633 -1.93823 0
M  V30 5756 H 575.118 3.34507 -1.75822 0
M  V30 5757 H 575.431 6.52728 -4.13722 0
M  V30 5758 H 573.776 5.87388 -3.71484 0
M  V30 5759 H 576.967 4.10363 -2.25211 0
M  V30 5760 H 577.14 5.55486 -3.33676 0
M  V30 5761 N 570.547 0.616602 1.45037 0
M  V30 5762 C 571.824 0.0469086 1.95544 0
M  V30 5763 C 572.204 -1.42345 1.55888 0
M  V30 5764 O 571.552 -2.13055 0.825824 0
M  V30 5765 C 571.762 0.254489 3.48071 0
M  V30 5766 C 573.11 0.140025 4.24369 0
M  V30 5767 O 574.134 0.185084 3.55719 0
M  V30 5768 O 572.993 0.0327034 5.4649 0
M  V30 5769 H 570.087 -0.0306051 0.826433 0
M  V30 5770 H 572.633 0.687293 1.55159 0
M  V30 5771 H 571.405 1.27532 3.69934 0
M  V30 5772 H 571.028 -0.42073 3.95368 0
M  V30 5773 N 572.025 -1.5352 0.356285 0
M  V30 5774 C 572.988 -2.24071 -0.482182 0
M  V30 5775 C 573.988 -1.24531 -1.01729 0
M  V30 5776 O 575.178 -1.48876 -0.904513 0
M  V30 5777 C 572.31 -2.97025 -1.67299 0
M  V30 5778 H 573.503 -2.99596 0.135031 0
M  V30 5779 H 571.056 -1.55928 0.107825 0
M  V30 5780 H 571.791 -2.25719 -2.32855 0
M  V30 5781 H 571.576 -3.7005 -1.29636 0
M  V30 5782 H 573.066 -3.50683 -2.26741 0
M  V30 5783 N 573.503 -0.0852151 -1.57369 0
M  V30 5784 C 574.749 0.581666 -1.94279 0
M  V30 5785 C 575.082 1.68444 -0.966446 0
M  V30 5786 O 574.357 1.945 0.00215277 0
M  V30 5787 C 574.64 1.14609 -3.41375 0
M  V30 5788 C 574.493 0.0490414 -4.49773 0
M  V30 5789 C 575.812 2.04751 -3.8957 0
M  V30 5790 H 572.931 0.209972 -0.706456 0
M  V30 5791 H 575.573 -0.153915 -1.89376 0
M  V30 5792 H 573.723 1.77297 -3.45685 0
M  V30 5793 H 575.395 -0.584721 -4.57579 0
M  V30 5794 H 573.638 -0.618638 -4.29366 0
M  V30 5795 H 574.309 0.484601 -5.49869 0
M  V30 5796 H 576.785 1.51981 -3.87351 0
M  V30 5797 H 575.661 2.41173 -4.93079 0
M  V30 5798 H 575.922 2.96107 -3.28288 0
M  V30 5799 N 574.981 1.5647 0.188427 0
M  V30 5800 C 576.211 1.84863 0.922463 0
M  V30 5801 C 576.619 0.666413 1.77075 0
M  V30 5802 O 575.962 -0.374044 1.79852 0
M  V30 5803 C 576.024 3.07447 1.86324 0
M  V30 5804 C 575.688 4.41066 1.19625 0
M  V30 5805 C 576.685 5.16767 0.569946 0
M  V30 5806 C 574.37 4.87802 1.19811 0
M  V30 5807 C 576.364 6.37384 -0.045594 0
M  V30 5808 C 574.051 6.08353 0.57874 0
M  V30 5809 C 575.049 6.82987 -0.0420259 0
M  V30 5810 O 574.737 8.01254 -0.651675 0
M  V30 5811 H 574.469 0.61784 0.274316 0
M  V30 5812 H 577.023 2.04437 0.198613 0
M  V30 5813 H 575.253 2.83774 2.62696 0
M  V30 5814 H 576.942 3.2243 2.46564 0
M  V30 5815 H 577.708 4.81749 0.560601 0
M  V30 5816 H 573.587 4.29662 1.67069 0
M  V30 5817 H 577.131 6.95578 -0.530731 0
M  V30 5818 H 573.028 6.42838 0.58561 0
M  V30 5819 H 573.796 8.16655 -0.549236 0
M  V30 5820 N 576.459 -0.456382 1.50847 0
M  V30 5821 C 577.422 -1.53493 1.70213 0
M  V30 5822 C 578.422 -1.50264 0.572481 0
M  V30 5823 O 579.612 -1.52623 0.839751 0
M  V30 5824 C 576.744 -2.93091 1.741 0
M  V30 5825 H 577.937 -1.37633 2.66453 0
M  V30 5826 H 575.49 -0.683776 1.4055 0
M  V30 5827 H 576.225 -3.14378 0.796063 0
M  V30 5828 H 576.01 -2.9684 2.5618 0
M  V30 5829 H 577.5 -3.71368 1.90987 0
M  V30 5830 N 577.937 -1.40673 -0.710563 0
M  V30 5831 C 579.353 -1.22813 -1.01928 0
M  V30 5832 C 579.553 -0.10687 -2.01216 0
M  V30 5833 O 578.609 0.533614 -2.46797 0
M  V30 5834 C 579.922 -2.57178 -1.5582 0
M  V30 5835 C 581.47 -2.64233 -1.67779 0
M  V30 5836 C 581.945 -3.98879 -2.25076 0
M  V30 5837 N 583.436 -4.00647 -2.32456 0
M  V30 5838 C 584.171 -5.01621 -2.77784 0
M  V30 5839 N 583.667 -6.12989 -3.22826 0
M  V30 5840 N 585.46 -4.88988 -2.77213 0
M  V30 5841 H 577.611 -2.12335 -0.05253 0
M  V30 5842 H 579.874 -0.9441 -0.085898 0
M  V30 5843 H 579.58 -3.39903 -0.903249 0
M  V30 5844 H 579.454 -2.78618 -2.54267 0
M  V30 5845 H 581.841 -1.81876 -2.3239 0
M  V30 5846 H 581.922 -2.46619 -0.679178 0
M  V30 5847 H 581.566 -4.81678 -1.61086 0
M  V30 5848 H 581.496 -4.13826 -3.25661 0
M  V30 5849 H 583.987 -3.20231 -2.0065 0
M  V30 5850 H 584.3 -6.85921 -3.55995 0
M  V30 5851 H 582.645 -6.16547 -3.20773 0
M  V30 5852 H 585.836 -4.01075 -2.41363 0
M  V30 5853 H 586.009 -5.67822 -3.12221 0
M  V30 5854 O 579.454 0.8523 -1.37179 0
M  V30 5855 H 580.145 1.49284 -1.23425 0
M  V30 END ATOM
M  V30 BEGIN BOND
M  V30 END BOND
M  V30 END CTAB
M  END
$$$$
