drugbank_target|Q9L9D7 Cocaine esterase (DB01795; DB03793)
 OpenBabel12092119533D

  0  0  0     0  0            999 V3000
M  V30 BEGIN CTAB
M  V30 COUNTS 8614 8722 0 0 0
M  V30 BEGIN ATOM
M  V30 1 H -0.908 1.98254 -0.117106 0
M  V30 2 N 0 1.576 0 0
M  V30 3 C 0.933 2.03868 1.02534 0
M  V30 4 C 1.911 0.928543 1.3348 0
M  V30 5 O 3.095 1.19667 1.45644 0
M  V30 6 C 0.222 2.43627 2.35294 0
M  V30 7 C -0.732 3.65373 2.2001 0
M  V30 8 S 0.101 5.13292 1.52614 0
M  V30 9 C 1.257 5.56322 2.86805 0
M  V30 10 H 1.49 2.90518 0.631377 0
M  V30 11 H -0.977 1.52953 0.210867 0
M  V30 12 H 0.981 2.67203 3.11629 0
M  V30 13 H -0.358 1.57376 2.7183 0
M  V30 14 H -1.165 3.90944 3.18086 0
M  V30 15 H -1.563 3.418 1.51819 0
M  V30 16 H 0.729 5.58782 3.83104 0
M  V30 17 H 1.672 6.56266 2.65933 0
M  V30 18 H 2.08 4.83886 2.90714 0
M  V30 19 N 1.4781 -0.272755 1.55222 0
M  V30 20 C 2.7241 -1.00581 1.761 0
M  V30 21 C 3.0571 -1.85932 0.560625 0
M  V30 22 O 2.3321 -1.89416 -0.441801 0
M  V30 23 C 2.6151 -1.88816 3.06628 0
M  V30 24 C 2.4681 -1.06457 4.37021 0
M  V30 25 C 3.7871 -2.8752 3.33197 0
M  V30 26 H 0.9061 -0.364244 0.640699 0
M  V30 27 H 3.5481 -0.278189 1.87952 0
M  V30 28 H 1.6981 -2.50856 2.96654 0
M  V30 29 H 3.3701 -0.464863 4.58952 0
M  V30 30 H 1.6131 -0.368043 4.32236 0
M  V30 31 H 2.2841 -1.71514 5.24678 0
M  V30 32 H 4.7601 -2.35615 3.42965 0
M  V30 33 H 3.6361 -3.46399 4.25792 0
M  V30 34 H 3.8971 -3.62657 2.52849 0
M  V30 35 N 2.9562 -1.48159 -0.537278 0
M  V30 36 C 4.2332 -1.46291 -1.29839 0
M  V30 37 C 4.6132 -0.170613 -2.10409 0
M  V30 38 O 3.9612 0.847746 -2.12192 0
M  V30 39 C 4.1712 -2.72055 -2.18603 0
M  V30 40 C 5.5192 -3.20087 -2.7898 0
M  V30 41 O 6.5432 -2.72921 -2.28894 0
M  V30 42 O 5.4022 -4.02138 -3.70064 0
M  V30 43 H 2.4962 -0.583906 -0.585647 0
M  V30 44 H 5.0422 -1.60384 -0.554534 0
M  V30 45 H 3.8142 -3.57628 -1.58801 0
M  V30 46 H 3.4372 -2.60646 -3.00249 0
M  V30 47 N 4.4343 0.785586 -1.36625 0
M  V30 48 C 5.6823 1.54057 -1.30808 0
M  V30 49 C 6.0033 1.94683 0.111157 0
M  V30 50 O 5.2733 1.65241 1.05224 0
M  V30 51 H 3.8533 0.571354 -0.481211 0
M  V30 52 H 6.5153 0.935821 -1.70963 0
M  V30 53 H 5.6113 2.44637 -1.93801 0
M  V30 54 N 5.9124 1.20967 1.01018 0
M  V30 55 C 6.8604 0.961223 2.1181 0
M  V30 56 C 7.8544 -0.0897034 1.69162 0
M  V30 57 O 9.0604 0.0612271 1.79896 0
M  V30 58 H 5.4354 0.29355 0.692338 0
M  V30 59 H 7.4064 1.90178 2.29946 0
M  V30 60 C 6.1554 0.536854 3.4353 0
M  V30 61 H 5.4784 1.33713 3.76777 0
M  V30 62 H 6.9184 0.402286 4.22087 0
M  V30 63 C 5.3774 -0.751574 3.2841 0
M  V30 64 O 5.9074 -1.80841 3.58691 0
M  V30 65 N 4.1134 -0.716079 2.81639 0
M  V30 66 H 3.6604 0.144236 2.57196 0
M  V30 67 H 3.6184 -1.57847 2.71904 0
M  V30 68 N 7.3905 -1.2043 1.01659 0
M  V30 69 C 8.6205 -1.93496 0.724081 0
M  V30 70 C 9.0285 -1.74998 -0.71918 0
M  V30 71 O 8.3715 -1.06118 -1.49949 0
M  V30 72 C 8.4335 -3.45886 0.97994 0
M  V30 73 C 8.0975 -3.88145 2.41232 0
M  V30 74 C 9.0945 -3.93907 3.39313 0
M  V30 75 C 6.7795 -4.20134 2.75305 0
M  V30 76 C 8.7735 -4.31069 4.6953 0
M  V30 77 C 6.4605 -4.56971 4.05735 0
M  V30 78 C 7.4585 -4.62411 5.02658 0
M  V30 79 O 7.1465 -4.98403 6.30754 0
M  V30 80 H 6.8785 -0.621824 0.265162 0
M  V30 81 H 9.4325 -1.53867 1.36066 0
M  V30 82 H 7.6625 -3.85639 0.286198 0
M  V30 83 H 9.3515 -4.0018 0.679021 0
M  V30 84 H 10.1175 -3.69357 3.14325 0
M  V30 85 H 5.9965 -4.1509 2.00551 0
M  V30 86 H 9.5405 -4.3523 5.45179 0
M  V30 87 H 5.4375 -4.80977 4.30502 0
M  V30 88 H 6.2055 -5.16395 6.35042 0
M  V30 89 N 8.8686 -0.792821 -1.36206 0
M  V30 90 C 10.0936 -0.377701 -2.03932 0
M  V30 91 C 10.5186 0.998947 -1.59382 0
M  V30 92 O 9.8766 1.64421 -0.763903 0
M  V30 93 C 9.9246 -0.453635 -3.57735 0
M  V30 94 O 9.0286 0.538151 -4.08874 0
M  V30 95 H 8.3696 -0.159855 -0.644471 0
M  V30 96 H 10.8996 -1.07488 -1.7409 0
M  V30 97 H 10.9096 -0.318464 -4.06755 0
M  V30 98 H 9.5846 -1.45784 -3.89512 0
M  V30 99 H 8.1616 0.364359 -3.71116 0
M  V30 100 N 10.3467 1.47872 -0.545128 0
M  V30 101 C 11.5927 2.02793 -0.0166104 0
M  V30 102 C 11.9257 1.41987 1.32489 0
M  V30 103 O 11.2007 0.571045 1.85928 0
M  V30 104 C 11.4837 3.59989 0.0893294 0
M  V30 105 C 11.3367 4.3125 -1.27841 0
M  V30 106 C 12.6557 4.32606 0.808724 0
M  V30 107 H 9.7747 0.736962 -0.00751035 0
M  V30 108 H 12.4167 1.76433 -0.705085 0
M  V30 109 H 10.5667 3.82579 0.675681 0
M  V30 110 H 12.2387 4.20035 -1.90704 0
M  V30 111 H 10.4817 3.92076 -1.85632 0
M  V30 112 H 11.1527 5.39736 -1.15713 0
M  V30 113 H 13.6287 4.14936 0.310992 0
M  V30 114 H 12.5047 5.42251 0.851782 0
M  V30 115 H 12.7657 4.00963 1.86229 0
M  V30 116 N 11.8248 0.280983 1.55075 0
M  V30 117 C 12.7878 -0.590896 2.21452 0
M  V30 118 C 13.7878 -1.07682 1.19421 0
M  V30 119 O 14.9778 -0.97605 1.44288 0
M  V30 120 C 12.1098 -1.81587 2.88511 0
M  V30 121 H 13.3028 -0.0112554 2.99898 0
M  V30 122 H 10.8558 0.0316438 1.56268 0
M  V30 123 H 11.5908 -2.43587 2.14093 0
M  V30 124 H 11.3758 -1.4753 3.63287 0
M  V30 125 H 12.8658 -2.43575 3.39206 0
M  V30 126 N 13.3029 -1.57598 0.00835791 0
M  V30 127 C 14.5279 -1.95617 -0.689103 0
M  V30 128 C 14.9529 -0.883753 -1.66046 0
M  V30 129 O 14.3109 0.157352 -1.80616 0
M  V30 130 C 14.3589 -3.32736 -1.38994 0
M  V30 131 O 13.4629 -3.27631 -2.50463 0
M  V30 132 H 12.8039 -0.638379 -0.182668 0
M  V30 133 H 15.3339 -2.045 0.064036 0
M  V30 134 H 15.3439 -3.68494 -1.75147 0
M  V30 135 H 14.0189 -4.1034 -0.677778 0
M  V30 136 H 12.5959 -3.03561 -2.16576 0
M  V30 137 N 14.781 0.264519 -1.55364 0
M  V30 138 C 15.729 1.34702 -1.89626 0
M  V30 139 C 16.723 1.50712 -0.773459 0
M  V30 140 O 17.929 1.52395 -0.957897 0
M  V30 141 H 14.304 0.450682 -0.601988 0
M  V30 142 H 16.275 1.0306 -2.80038 0
M  V30 143 C 15.024 2.6989 -2.19214 0
M  V30 144 H 14.347 2.58365 -3.05103 0
M  V30 145 H 15.787 3.44553 -2.47102 0
M  V30 146 C 14.246 3.21637 -1.00254 0
M  V30 147 O 14.776 4.00973 -0.241501 0
M  V30 148 N 12.982 2.7943 -0.797938 0
M  V30 149 H 12.529 2.15026 -1.4185 0
M  V30 150 H 12.487 3.144 -0.00363422 0
M  V30 151 N 16.2591 1.48442 0.529413 0
M  V30 152 C 17.5051 1.5672 1.28711 0
M  V30 153 C 17.8381 0.2406 1.92704 0
M  V30 154 O 17.1131 -0.753454 1.79313 0
M  V30 155 C 17.3961 2.70587 2.37603 0
M  V30 156 C 17.2491 4.12953 1.78297 0
M  V30 157 C 18.5681 2.80212 3.39366 0
M  V30 158 H 15.6871 0.570474 0.466613 0
M  V30 159 H 18.3291 1.80617 0.589706 0
M  V30 160 H 16.4791 2.50342 2.97088 0
M  V30 161 H 18.1511 4.44639 1.22858 0
M  V30 162 H 16.3941 4.19927 1.0883 0
M  V30 163 H 17.0651 4.88448 2.57144 0
M  V30 164 H 19.5411 2.98553 2.89836 0
M  V30 165 H 18.4171 3.61611 4.12951 0
M  V30 166 H 18.6781 1.88393 3.99951 0
M  V30 167 N 17.7372 -0.778329 1.37039 0
M  V30 168 C 18.6702 -1.8984 1.26633 0
M  V30 169 C 19.6482 -1.61923 0.148197 0
M  V30 170 O 20.8322 -1.85742 0.321265 0
M  V30 171 C 17.9592 -3.24916 0.956403 0
M  V30 172 C 17.0052 -3.71752 2.09051 0
M  V30 173 S 17.8382 -3.86201 3.70957 0
M  V30 174 C 18.9942 -5.24135 3.42101 0
M  V30 175 H 19.2272 -1.98377 2.21436 0
M  V30 176 H 16.7602 -0.938738 1.22585 0
M  V30 177 H 18.7182 -4.02936 0.784409 0
M  V30 178 H 17.3792 -3.14089 0.0259713 0
M  V30 179 H 16.5722 -4.69661 1.8285 0
M  V30 180 H 16.1742 -3.00815 2.2223 0
M  V30 181 H 18.4662 -6.09086 2.96682 0
M  V30 182 H 19.4092 -5.55346 4.39314 0
M  V30 183 H 19.8172 -4.91761 2.77185 0
M  V30 184 N 19.2153 -1.21501 -1.00376 0
M  V30 185 C 20.4613 -1.03452 -1.74429 0
M  V30 186 C 20.7943 0.430764 -1.89362 0
M  V30 187 O 20.0693 1.31962 -1.42886 0
M  V30 188 C 20.3523 -1.73375 -3.15615 0
M  V30 189 C 20.2053 -3.27431 -3.08397 0
M  V30 190 C 21.5243 -1.47732 -4.14564 0
M  V30 191 H 18.6433 -0.377226 -0.633143 0
M  V30 192 H 21.2853 -1.49693 -1.17013 0
M  V30 193 H 19.4353 -1.34064 -3.64636 0
M  V30 194 H 21.1073 -3.76119 -2.67081 0
M  V30 195 H 19.3503 -3.5767 -2.45468 0
M  V30 196 H 20.0213 -3.71524 -4.08258 0
M  V30 197 H 22.4973 -1.8186 -3.74254 0
M  V30 198 H 21.3733 -1.99169 -5.11491 0
M  V30 199 H 21.6343 -0.407589 -4.40217 0
M  V30 200 N 20.6934 1.19889 -1.02296 0
M  V30 201 C 22.1044 1.71124 -0.746568 0
M  V30 202 C 22.4554 1.81939 0.734335 0
M  V30 203 O 21.5804 1.48639 1.57275 0
M  V30 204 C 22.1754 3.10804 -1.34857 0
M  V30 205 C 20.7344 3.59323 -1.1209 0
M  V30 206 C 19.8814 2.3635 -1.45031 0
M  V30 207 H 22.8324 1.04813 -1.19163 0
M  V30 208 H 22.8534 3.73186 -0.742437 0
M  V30 209 H 22.3654 3.029 -2.42638 0
M  V30 210 H 20.4664 3.7255 -0.0610337 0
M  V30 211 H 20.5794 4.4378 -1.80544 0
M  V30 212 H 18.9434 2.39399 -0.869487 0
M  V30 213 H 19.7264 2.31081 -2.53883 0
M  V30 214 N 22.1715 0.800033 1.35784 0
M  V30 215 C 23.1045 0.151499 2.27697 0
M  V30 216 C 24.0825 -0.678663 1.4776 0
M  V30 217 O 25.2665 -0.647358 1.77035 0
M  V30 218 C 22.3935 -0.790492 3.29346 0
M  V30 219 C 21.4395 -0.0407832 4.26481 0
M  V30 220 S 22.2725 1.29077 5.19711 0
M  V30 221 C 23.4285 0.353055 6.24903 0
M  V30 222 H 23.6615 0.930796 2.82353 0
M  V30 223 H 21.1945 0.594767 1.42485 0
M  V30 224 H 23.1525 -1.3285 3.88409 0
M  V30 225 H 21.8135 -1.54312 2.73581 0
M  V30 226 H 21.0065 -0.755971 4.98298 0
M  V30 227 H 20.6085 0.427063 3.71554 0
M  V30 228 H 22.9005 -0.464147 6.75908 0
M  V30 229 H 23.8435 1.04023 7.00418 0
M  V30 230 H 24.2515 -0.0483344 5.64479 0
M  V30 231 N 23.6496 -1.47581 0.552962 0
M  V30 232 C 25.0656 -1.5818 0.212424 0
M  V30 233 C 25.2656 -1.55213 -1.28496 0
M  V30 234 O 24.3216 -1.45329 -2.06484 0
M  V30 235 C 25.6346 -2.88865 0.835318 0
M  V30 236 C 27.1826 -3.0244 0.806156 0
M  V30 237 C 27.6576 -4.35819 1.40804 0
M  V30 238 N 29.1486 -4.42444 1.37103 0
M  V30 239 C 29.8836 -5.44202 1.80641 0
M  V30 240 N 29.3796 -6.52795 2.32015 0
M  V30 241 N 31.1726 -5.35222 1.71738 0
M  V30 242 H 23.3236 -1.47753 1.52587 0
M  V30 243 H 25.5866 -0.702941 0.636064 0
M  V30 244 H 25.2926 -2.9676 1.88749 0
M  V30 245 H 25.1666 -3.7579 0.325848 0
M  V30 246 H 27.5536 -2.94144 -0.237317 0
M  V30 247 H 27.6346 -2.17068 1.35334 0
M  V30 248 H 27.2786 -4.44871 2.45056 0
M  V30 249 H 27.2086 -5.19916 0.836338 0
M  V30 250 H 29.6996 -3.6456 0.995202 0
M  V30 251 H 30.0126 -7.26609 2.63171 0
M  V30 252 H 28.3576 -6.53696 2.36023 0
M  V30 253 H 31.5486 -4.49284 1.31382 0
M  V30 254 H 31.7216 -6.14389 2.05987 0
M  V30 255 N 25.1277 -0.289203 -1.54924 0
M  V30 256 C 26.4047 0.376032 -1.91951 0
M  V30 257 C 26.7847 1.72622 -1.21511 0
M  V30 258 O 26.1327 2.25853 -0.346767 0
M  V30 259 C 26.3427 0.502378 -3.45365 0
M  V30 260 C 27.6907 0.778741 -4.17398 0
M  V30 261 O 28.7147 0.586647 -3.51336 0
M  V30 262 O 27.5737 1.14698 -5.34328 0
M  V30 263 H 24.6677 0.208167 -0.800372 0
M  V30 264 H 27.2137 -0.336394 -1.66332 0
M  V30 265 H 25.9857 -0.447255 -3.88736 0
M  V30 266 H 25.6087 1.26373 -3.76982 0
M  V30 267 N 26.6058 1.57591 -0.0167156 0
M  V30 268 C 27.8538 1.90906 0.663285 0
M  V30 269 C 28.1748 0.892509 1.73376 0
M  V30 270 O 27.4448 -0.0677623 1.95783 0
M  V30 271 H 26.0248 0.704637 0.247983 0
M  V30 272 H 28.6868 1.94803 -0.0615909 0
M  V30 273 H 27.7828 2.9116 1.12393 0
M  V30 274 N 28.0839 -0.256276 1.55502 0
M  V30 275 C 29.3299 -0.987079 1.77157 0
M  V30 276 C 29.6629 -1.85327 0.580315 0
M  V30 277 O 28.9379 -1.89874 -0.421686 0
M  V30 278 C 29.2209 -1.85553 3.08613 0
M  V30 279 C 29.0739 -1.01816 4.38125 0
M  V30 280 C 30.3929 -2.8397 3.36228 0
M  V30 281 H 27.5119 -0.357428 0.644526 0
M  V30 282 H 30.1539 -0.258239 1.88237 0
M  V30 283 H 28.3039 -2.47695 2.99298 0
M  V30 284 H 29.9759 -0.416159 4.59419 0
M  V30 285 H 28.2189 -0.322178 4.32602 0
M  V30 286 H 28.8899 -1.65939 5.26468 0
M  V30 287 H 31.3659 -2.31964 3.45445 0
M  V30 288 H 30.2419 -3.41864 4.29442 0
M  V30 289 H 30.5029 -3.59955 2.56681 0
M  V30 290 N 29.562 -1.4872 -0.521534 0
M  V30 291 C 30.978 -1.35028 -0.850855 0
M  V30 292 C 31.178 -0.367712 -1.98116 0
M  V30 293 O 30.234 0.208037 -2.51642 0
M  V30 294 C 31.547 -2.75263 -1.21041 0
M  V30 295 C 33.095 -2.83813 -1.31981 0
M  V30 296 C 33.57 -4.24769 -1.71276 0
M  V30 297 N 35.061 -4.27482 -1.78363 0
M  V30 298 C 35.796 -5.33494 -2.1017 0
M  V30 299 N 35.292 -6.49775 -2.40343 0
M  V30 300 N 37.085 -5.20894 -2.11248 0
M  V30 301 H 29.236 -2.11214 0.22413 0
M  V30 302 H 31.499 -0.947252 0.0376439 0
M  V30 303 H 31.205 -3.48765 -0.453415 0
M  V30 304 H 31.079 -3.09327 -2.15863 0
M  V30 305 H 33.466 -2.10561 -2.06756 0
M  V30 306 H 33.547 -2.53358 -0.352596 0
M  V30 307 H 33.191 -4.9854 -0.970588 0
M  V30 308 H 33.121 -4.52673 -2.69062 0
M  V30 309 H 35.612 -3.43611 -1.57288 0
M  V30 310 H 35.925 -7.26402 -2.63743 0
M  V30 311 H 34.27 -6.53035 -2.37844 0
M  V30 312 H 37.461 -4.29065 -1.87139 0
M  V30 313 H 37.634 -6.03612 -2.35704 0
M  V30 314 N 31.0401 0.771051 -1.3745 0
M  V30 315 C 31.9701 1.89827 -1.3597 0
M  V30 316 C 32.9511 1.68562 -0.228216 0
M  V30 317 O 34.1361 1.8941 -0.428675 0
M  V30 318 C 31.2661 3.2712 -1.16662 0
M  V30 319 C 30.2201 3.6295 -2.2683 0
M  V30 320 C 29.5461 4.98791 -1.92644 0
M  V30 321 C 30.8461 3.69627 -3.69017 0
M  V30 322 H 32.5401 1.91323 -2.30295 0
M  V30 323 H 30.0861 0.919082 -1.10855 0
M  V30 324 H 32.0391 4.05615 -1.14256 0
M  V30 325 H 30.7631 3.26059 -0.187926 0
M  V30 326 H 29.4221 2.86763 -2.28392 0
M  V30 327 H 29.0701 4.94271 -0.933021 0
M  V30 328 H 28.7701 5.23733 -2.66416 0
M  V30 329 H 30.2941 5.79685 -1.91826 0
M  V30 330 H 31.7081 4.38273 -3.69581 0
M  V30 331 H 30.1051 4.06067 -4.41848 0
M  V30 332 H 31.1751 2.70273 -4.02592 0
M  V30 333 N 32.5182 1.22032 0.997298 0
M  V30 334 C 33.4812 0.987909 2.06816 0
M  V30 335 C 34.4812 -0.0440084 1.6074 0
M  V30 336 O 35.6712 0.194053 1.73116 0
M  V30 337 C 32.8032 0.49132 3.37341 0
M  V30 338 H 33.9962 1.93803 2.28868 0
M  V30 339 H 31.5492 1.03838 1.16822 0
M  V30 340 H 32.2842 -0.463364 3.20973 0
M  V30 341 H 32.0692 1.23575 3.72118 0
M  V30 342 H 33.5592 0.348824 4.16141 0
M  V30 343 N 33.9963 -1.19345 1.0293 0
M  V30 344 C 35.2423 -1.89318 0.727083 0
M  V30 345 C 35.5753 -1.79446 -0.742483 0
M  V30 346 O 34.8503 -1.1871 -1.54072 0
M  V30 347 C 35.1333 -3.40238 1.17942 0
M  V30 348 C 34.9863 -3.58979 2.71024 0
M  V30 349 C 36.3053 -4.33479 0.760548 0
M  V30 350 H 33.4243 -0.687475 0.265606 0
M  V30 351 H 36.0663 -1.40477 1.2793 0
M  V30 352 H 34.2163 -3.81964 0.709608 0
M  V30 353 H 35.8883 -3.26421 3.25955 0
M  V30 354 H 34.1313 -3.02018 3.11396 0
M  V30 355 H 34.8023 -4.64823 2.9773 0
M  V30 356 H 37.2783 -3.99469 1.16464 0
M  V30 357 H 36.1543 -5.37664 1.10493 0
M  V30 358 H 36.4153 -4.40813 -0.337063 0
M  V30 359 N 35.4744 -0.807222 -1.35358 0
M  V30 360 C 36.7514 -0.311126 -1.9311 0
M  V30 361 C 37.1314 1.19937 -1.73719 0
M  V30 362 O 36.4794 1.99918 -1.10657 0
M  V30 363 C 36.6894 -0.723226 -3.41424 0
M  V30 364 C 38.0374 -0.713078 -4.18569 0
M  V30 365 O 39.0614 -0.664811 -3.49941 0
M  V30 366 O 37.9204 -0.772022 -5.41019 0
M  V30 367 H 35.0144 -0.081526 -0.822972 0
M  V30 368 H 37.5604 -0.890962 -1.4443 0
M  V30 369 H 36.3324 -1.76426 -3.4927 0
M  V30 370 H 35.9554 -0.118232 -3.97424 0
M  V30 371 N 36.9525 1.47285 -0.560781 0
M  V30 372 C 37.8825 2.32857 0.173105 0
M  V30 373 C 38.8635 1.44009 0.905281 0
M  V30 374 O 40.0485 1.7286 0.885046 0
M  V30 375 C 37.1785 3.25861 1.20133 0
M  V30 376 C 36.1325 4.23978 0.585388 0
M  V30 377 C 35.4585 5.06332 1.7185 0
M  V30 378 C 36.7585 5.20242 -0.463178 0
M  V30 379 H 38.4525 2.94466 -0.541307 0
M  V30 380 H 35.9985 1.41601 -0.261764 0
M  V30 381 H 37.9515 3.84569 1.72293 0
M  V30 382 H 36.6755 2.62315 1.94573 0
M  V30 383 H 35.3345 3.66501 0.085054 0
M  V30 384 H 34.9825 4.39186 2.45203 0
M  V30 385 H 34.6825 5.72762 1.31213 0
M  V30 386 H 36.2065 5.67899 2.24329 0
M  V30 387 H 37.6205 5.73293 -0.027502 0
M  V30 388 H 36.0175 5.94896 -0.788627 0
M  V30 389 H 37.0875 4.65504 -1.35773 0
M  V30 390 N 38.4306 0.297415 1.54768 0
M  V30 391 C 39.6606 -0.315165 2.04182 0
M  V30 392 C 40.0686 -1.4834 1.17439 0
M  V30 393 O 39.4116 -1.82695 0.191891 0
M  V30 394 C 39.4736 -0.837583 3.49607 0
M  V30 395 C 39.1376 0.204912 4.5654 0
M  V30 396 C 40.1346 1.03214 5.09552 0
M  V30 397 C 37.8196 0.345578 5.0111 0
M  V30 398 C 39.8136 1.986 6.05671 0
M  V30 399 C 37.5006 1.30289 5.97049 0
M  V30 400 C 38.4986 2.12159 6.49213 0
M  V30 401 O 38.1866 3.06268 7.43273 0
M  V30 402 H 37.9186 -0.0729646 0.672051 0
M  V30 403 H 40.4726 0.433907 2.00765 0
M  V30 404 H 38.7026 -1.63712 3.50336 0
M  V30 405 H 40.3916 -1.36566 3.82236 0
M  V30 406 H 41.1576 0.934312 4.75916 0
M  V30 407 H 37.0366 -0.28171 4.60138 0
M  V30 408 H 40.5806 2.62542 6.46311 0
M  V30 409 H 36.4776 1.40145 6.30103 0
M  V30 410 H 37.2456 3.01205 7.61064 0
M  V30 411 N 39.9087 -1.5758 0.0250728 0
M  V30 412 C 41.3247 -1.56124 -0.331282 0
M  V30 413 C 41.5247 -1.03029 -1.73169 0
M  V30 414 O 40.5807 -0.675215 -2.43305 0
M  V30 415 C 41.8937 -3.00139 -0.183584 0
M  V30 416 C 43.4417 -3.11946 -0.256654 0
M  V30 417 C 43.9167 -4.57793 -0.137792 0
M  V30 418 N 45.4077 -4.6279 -0.194904 0
M  V30 419 C 46.1427 -5.7326 -0.126655 0
M  V30 420 N 45.6387 -6.928 -0.00755288 0
M  V30 421 N 47.4317 -5.61811 -0.180348 0
M  V30 422 H 39.5827 -1.90424 0.94087 0
M  V30 423 H 41.8457 -0.875761 0.362968 0
M  V30 424 H 41.5517 -3.4292 0.780927 0
M  V30 425 H 41.4257 -3.64899 -0.955448 0
M  V30 426 H 43.8127 -2.69079 -1.21162 0
M  V30 427 H 43.8937 -2.49915 0.545517 0
M  V30 428 H 43.5377 -5.01339 0.813739 0
M  V30 429 H 43.4677 -5.17798 -0.958775 0
M  V30 430 H 45.9587 -3.76807 -0.287267 0
M  V30 431 H 46.2717 -7.72791 0.0379428 0
M  V30 432 H 44.6167 -6.94995 0.0271731 0
M  V30 433 H 47.8077 -4.6731 -0.271767 0
M  V30 434 H 47.9807 -6.47882 -0.123697 0
M  V30 435 N 41.3868 0.248026 -1.55636 0
M  V30 436 C 42.7978 0.817177 -1.67866 0
M  V30 437 C 43.1488 1.86069 -0.622322 0
M  V30 438 O 42.2738 2.15157 0.231618 0
M  V30 439 C 42.8688 1.489 -3.04326 0
M  V30 440 C 41.4278 2.00587 -3.185 0
M  V30 441 C 40.5748 0.856573 -2.63739 0
M  V30 442 H 43.5258 0.0238579 -1.58682 0
M  V30 443 H 43.5468 2.35698 -2.98708 0
M  V30 444 H 43.0588 0.729279 -3.81186 0
M  V30 445 H 41.1598 2.79443 -2.4646 0
M  V30 446 H 41.2728 2.20402 -4.25393 0
M  V30 447 H 39.6368 1.25678 -2.21534 0
M  V30 448 H 40.4198 0.109953 -3.43124 0
M  V30 449 N 42.8649 1.48995 0.513639 0
M  V30 450 C 44.1419 1.48338 1.27495 0
M  V30 451 C 44.5219 0.204065 2.10111 0
M  V30 452 O 43.8699 -0.813881 2.13514 0
M  V30 453 C 44.0799 2.75498 2.14247 0
M  V30 454 C 45.4279 3.24484 2.73852 0
M  V30 455 O 46.4519 2.76528 2.24523 0
M  V30 456 O 45.3109 4.07974 3.6362 0
M  V30 457 H 42.4049 0.593149 0.576284 0
M  V30 458 H 44.9509 1.61246 0.528948 0
M  V30 459 H 43.7229 3.60109 1.53092 0
M  V30 460 H 43.3459 2.6539 2.96064 0
M  V30 461 N 44.343 -0.763751 1.37857 0
M  V30 462 C 45.306 -1.85889 1.34081 0
M  V30 463 C 46.306 -1.58949 0.243277 0
M  V30 464 O 47.496 -1.66882 0.499589 0
M  V30 465 C 44.628 -3.23176 1.08489 0
M  V30 466 H 45.821 -1.90648 2.31502 0
M  V30 467 H 43.374 -0.964367 1.23003 0
M  V30 468 H 44.109 -3.24091 0.116318 0
M  V30 469 H 43.894 -3.44124 1.8794 0
M  V30 470 H 45.384 -4.03254 1.08517 0
M  V30 471 N 45.8211 -1.22559 -0.990812 0
M  V30 472 C 47.0981 -0.959875 -1.70428 0
M  V30 473 C 47.4781 0.524455 -2.04481 0
M  V30 474 O 46.8261 1.49302 -1.72977 0
M  V30 475 C 47.0361 -1.85955 -2.95333 0
M  V30 476 C 48.3841 -2.11687 -3.68068 0
M  V30 477 O 49.4081 -1.8342 -3.05345 0
M  V30 478 O 48.2671 -2.59572 -4.80921 0
M  V30 479 H 45.3611 -0.361154 -0.743974 0
M  V30 480 H 47.9071 -1.33554 -1.04697 0
M  V30 481 H 46.6791 -2.86346 -2.66687 0
M  V30 482 H 46.3021 -1.4856 -3.68803 0
M  V30 483 N 47.2992 1.18797 -1.03562 0
M  V30 484 C 48.5472 1.88278 -0.734569 0
M  V30 485 C 48.8682 1.8043 0.739586 0
M  V30 486 O 48.1382 1.21925 1.53333 0
M  V30 487 H 46.7182 0.696991 -0.268725 0
M  V30 488 H 49.3802 1.44192 -1.31129 0
M  V30 489 H 48.4762 2.94443 -1.03489 0
M  V30 490 N 48.7773 0.814389 1.34928 0
M  V30 491 C 50.1883 0.458364 1.80986 0
M  V30 492 C 50.5393 -1.02042 1.67577 0
M  V30 493 O 49.6643 -1.79352 1.21086 0
M  V30 494 C 50.2593 0.825212 3.28597 0
M  V30 495 C 48.8183 0.521677 3.72767 0
M  V30 496 C 47.9653 1.04668 2.56788 0
M  V30 497 H 50.9163 1.00533 1.22795 0
M  V30 498 H 50.9373 0.12571 3.80292 0
M  V30 499 H 50.4493 1.90154 3.38324 0
M  V30 500 H 48.5503 -0.545589 3.68584 0
M  V30 501 H 48.6633 1.05977 4.67232 0
M  V30 502 H 47.0273 0.468622 2.50352 0
M  V30 503 H 47.8103 2.12927 2.6929 0
M  V30 504 N 50.2554 -1.46986 0.568584 0
M  V30 505 C 51.5014 -2.02741 0.0488709 0
M  V30 506 C 51.8344 -1.44077 -1.30214 0
M  V30 507 O 51.1094 -0.600552 -1.84996 0
M  V30 508 C 51.3924 -3.60086 -0.032047 0
M  V30 509 C 51.2454 -4.29162 1.34686 0
M  V30 510 C 52.5644 -4.33838 -0.739798 0
M  V30 511 H 49.6834 -0.736749 0.0192338 0
M  V30 512 H 52.3254 -1.75289 0.733065 0
M  V30 513 H 50.4754 -3.83606 -0.61473 0
M  V30 514 H 52.1474 -4.16948 1.97362 0
M  V30 515 H 50.3904 -3.89073 1.91846 0
M  V30 516 H 51.0614 -5.37826 1.24285 0
M  V30 517 H 53.5374 -4.15378 -0.244939 0
M  V30 518 H 52.4134 -5.43537 -0.765406 0
M  V30 519 H 52.6744 -4.03875 -1.79827 0
M  V30 520 N 51.7335 -0.305618 -1.54608 0
M  V30 521 C 53.1445 0.186098 -1.8577 0
M  V30 522 C 53.4955 1.53058 -1.22751 0
M  V30 523 O 52.6205 2.09888 -0.526893 0
M  V30 524 C 53.2155 0.344449 -3.37044 0
M  V30 525 C 51.7745 0.780384 -3.68221 0
M  V30 526 C 50.9215 -0.108554 -2.77087 0
M  V30 527 H 53.8725 -0.526485 -1.49712 0
M  V30 528 H 53.8935 1.17828 -3.61796 0
M  V30 529 H 53.4055 -0.634235 -3.82883 0
M  V30 530 H 51.5065 1.76945 -3.27904 0
M  V30 531 H 51.6195 0.596572 -4.75371 0
M  V30 532 H 49.9835 0.412931 -2.5133 0
M  V30 533 H 50.7665 -1.08368 -3.25747 0
M  V30 534 N 53.2116 1.57565 -0.0334293 0
M  V30 535 C 54.4576 1.92262 0.645226 0
M  V30 536 C 54.7906 0.910543 1.71531 0
M  V30 537 O 54.0656 -0.066099 1.94388 0
M  V30 538 C 54.3486 3.37422 1.2577 0
M  V30 539 C 54.2016 4.49369 0.196891 0
M  V30 540 C 55.5206 3.82628 2.17449 0
M  V30 541 H 52.6396 0.699171 0.233085 0
M  V30 542 H 55.2816 1.89779 -0.0915694 0
M  V30 543 H 53.4316 3.39669 1.88566 0
M  V30 544 H 55.1036 4.59254 -0.433962 0
M  V30 545 H 53.3466 4.31168 -0.477137 0
M  V30 546 H 54.0176 5.47978 0.665124 0
M  V30 547 H 56.4936 3.82145 1.64634 0
M  V30 548 H 55.3696 4.84883 2.57254 0
M  V30 549 H 55.6306 3.18376 3.0674 0
M  V30 550 N 54.6897 -0.239769 1.55765 0
M  V30 551 C 55.6197 -1.30052 1.9393 0
M  V30 552 C 56.6007 -1.49839 0.805132 0
M  V30 553 O 57.7857 -1.62328 1.06599 0
M  V30 554 C 54.9157 -2.65391 2.2402 0
M  V30 555 C 53.8697 -2.60289 3.39755 0
M  V30 556 C 53.1957 -3.99489 3.55405 0
M  V30 557 C 54.4957 -2.16654 4.75246 0
M  V30 558 H 56.1897 -0.983573 2.82783 0
M  V30 559 H 53.7357 -0.471701 1.36055 0
M  V30 560 H 55.6887 -3.3974 2.49308 0
M  V30 561 H 54.4127 -2.98736 1.32 0
M  V30 562 H 53.0717 -1.88398 3.14487 0
M  V30 563 H 52.7197 -4.30112 2.60793 0
M  V30 564 H 52.4197 -3.96962 4.33238 0
M  V30 565 H 53.9437 -4.75528 3.83022 0
M  V30 566 H 55.3577 -2.80737 4.99859 0
M  V30 567 H 53.7547 -2.25223 5.56232 0
M  V30 568 H 54.8247 -1.11835 4.71827 0
M  V30 569 N 56.1678 -1.49265 -0.50573 0
M  V30 570 C 57.0978 -1.68495 -1.61653 0
M  V30 571 C 58.0788 -0.53366 -1.61512 0
M  V30 572 O 59.2638 -0.76897 -1.78327 0
M  V30 573 C 56.3938 -1.74709 -3.00157 0
M  V30 574 C 55.3478 -2.89581 -3.15162 0
M  V30 575 C 54.6738 -2.80903 -4.5497 0
M  V30 576 C 55.9738 -4.30578 -2.95634 0
M  V30 577 H 57.6678 -2.61493 -1.45814 0
M  V30 578 H 55.2138 -1.25838 -0.70005 0
M  V30 579 H 57.1668 -1.86748 -3.77761 0
M  V30 580 H 55.8908 -0.783067 -3.17074 0
M  V30 581 H 54.5498 -2.77136 -2.39982 0
M  V30 582 H 54.1978 -1.82419 -4.68756 0
M  V30 583 H 53.8978 -3.57999 -4.65951 0
M  V30 584 H 55.4218 -2.94944 -5.34641 0
M  V30 585 H 56.8358 -4.4373 -3.63011 0
M  V30 586 H 55.2328 -5.0886 -3.18091 0
M  V30 587 H 56.3028 -4.45352 -1.91806 0
M  V30 588 N 57.6459 0.756429 -1.3826 0
M  V30 589 C 58.8919 1.51772 -1.34511 0
M  V30 590 C 59.2249 1.94089 0.0656691 0
M  V30 591 O 58.4999 1.65221 1.02626 0
M  V30 592 C 58.7829 2.77226 -2.29821 0
M  V30 593 C 58.6359 2.41065 -3.79747 0
M  V30 594 C 59.9549 3.79236 -2.23312 0
M  V30 595 H 57.0739 0.550578 -0.489931 0
M  V30 596 H 59.7159 0.866607 -1.69086 0
M  V30 597 H 57.8659 3.32784 -2.00467 0
M  V30 598 H 59.5379 1.91303 -4.19763 0
M  V30 599 H 57.7809 1.7356 -3.97567 0
M  V30 600 H 58.4519 3.3081 -4.41892 0
M  V30 601 H 60.9279 3.3321 -2.49219 0
M  V30 602 H 59.8039 4.64714 -2.92116 0
M  V30 603 H 60.0649 4.24615 -1.23102 0
M  V30 604 N 59.124 1.23083 0.984299 0
M  V30 605 C 60.54 0.992637 1.24975 0
M  V30 606 C 60.74 -0.308618 1.99123 0
M  V30 607 O 59.796 -1.02905 2.30579 0
M  V30 608 C 61.109 2.19698 2.05312 0
M  V30 609 C 62.657 2.24147 2.18465 0
M  V30 610 C 63.132 3.44157 3.02192 0
M  V30 611 N 64.623 3.44372 3.09777 0
M  V30 612 C 65.358 4.33886 3.74874 0
M  V30 613 N 64.854 5.3363 4.41827 0
M  V30 614 N 66.647 4.21639 3.71721 0
M  V30 615 H 58.798 2.06731 0.487453 0
M  V30 616 H 61.061 0.906339 0.277944 0
M  V30 617 H 60.767 3.1411 1.58201 0
M  V30 618 H 60.641 2.20465 3.06064 0
M  V30 619 H 63.028 1.30277 2.64786 0
M  V30 620 H 63.109 2.27415 1.17115 0
M  V30 621 H 62.753 4.38332 2.56568 0
M  V30 622 H 62.683 3.3813 4.03702 0
M  V30 623 H 65.174 2.72201 2.62135 0
M  V30 624 H 65.487 5.98196 4.89266 0
M  V30 625 H 63.832 5.37534 4.40548 0
M  V30 626 H 67.023 3.42962 3.18582 0
M  V30 627 H 67.196 4.91604 4.22173 0
M  V30 628 N 60.6021 -1.18246 1.0419 0
M  V30 629 C 61.5501 -2.23968 0.627792 0
M  V30 630 C 62.5441 -1.65828 -0.346019 0
M  V30 631 O 63.7501 -1.78733 -0.213175 0
M  V30 632 H 60.1251 -0.728939 0.184802 0
M  V30 633 H 62.0961 -2.56202 1.52981 0
M  V30 634 C 60.8451 -3.47699 0.00796591 0
M  V30 635 H 60.1681 -3.92734 0.748347 0
M  V30 636 H 61.6081 -4.23294 -0.24455 0
M  V30 637 C 60.0671 -3.13153 -1.24246 0
M  V30 638 O 60.5971 -3.27003 -2.33307 0
M  V30 639 N 58.8031 -2.67467 -1.13622 0
M  V30 640 H 58.3501 -2.56396 -0.248734 0
M  V30 641 H 58.3081 -2.44724 -1.97377 0
M  V30 642 N 62.0802 -0.821533 -1.34494 0
M  V30 643 C 63.4912 -0.467956 -1.8074 0
M  V30 644 C 63.8422 1.01151 -1.68116 0
M  V30 645 O 62.9672 1.78707 -1.22036 0
M  V30 646 C 63.5622 -0.842627 -3.28154 0
M  V30 647 C 62.1212 -0.541439 -3.72485 0
M  V30 648 C 61.2682 -1.06028 -2.56229 0
M  V30 649 H 64.2192 -1.01183 -1.22261 0
M  V30 650 H 64.2402 -0.145876 -3.8022 0
M  V30 651 H 63.7522 -1.91945 -3.37311 0
M  V30 652 H 61.8532 0.526034 -3.68868 0
M  V30 653 H 61.9662 -1.08453 -4.66663 0
M  V30 654 H 60.3302 -0.481892 -2.501 0
M  V30 655 H 61.1132 -2.14352 -2.68157 0
M  V30 656 N 63.5583 1.46682 -0.576371 0
M  V30 657 C 64.7883 2.06498 -0.0648694 0
M  V30 658 C 65.1963 1.42665 1.24271 0
M  V30 659 O 64.5393 0.523886 1.76071 0
M  V30 660 C 64.6013 3.5904 0.181816 0
M  V30 661 C 64.2653 4.45028 -1.0392 0
M  V30 662 C 65.2623 4.81959 -1.94966 0
M  V30 663 C 62.9473 4.86259 -1.25927 0
M  V30 664 C 64.9413 5.58942 -3.06371 0
M  V30 665 C 62.6283 5.63002 -2.37638 0
M  V30 666 C 63.6263 5.99257 -3.2769 0
M  V30 667 O 63.3143 6.7445 -4.37461 0
M  V30 668 H 63.0463 0.674028 -0.0515987 0
M  V30 669 H 65.6003 1.89393 -0.794951 0
M  V30 670 H 63.8303 3.74429 0.966436 0
M  V30 671 H 65.5193 4.00806 0.641047 0
M  V30 672 H 66.2853 4.50689 -1.79177 0
M  V30 673 H 62.1643 4.57494 -0.567448 0
M  V30 674 H 65.7083 5.87158 -3.76684 0
M  V30 675 H 61.6053 5.93686 -2.53392 0
M  V30 676 H 62.3733 6.92867 -4.35749 0
M  V30 677 N 65.0364 0.313813 1.54444 0
M  V30 678 C 66.3134 -0.345447 1.92525 0
M  V30 679 C 66.6934 -1.70667 1.24242 0
M  V30 680 O 66.0414 -2.25273 0.382654 0
M  V30 681 C 66.2514 -0.44737 3.46121 0
M  V30 682 C 67.5994 -0.712238 4.18584 0
M  V30 683 O 68.6234 -0.530678 3.52225 0
M  V30 684 O 67.4824 -1.06183 5.36085 0
M  V30 685 H 64.5764 -0.195407 0.803583 0
M  V30 686 H 67.1224 0.362813 1.65776 0
M  V30 687 H 65.8944 0.509043 3.87975 0
M  V30 688 H 65.5174 -1.20359 3.78945 0
M  V30 689 N 66.5145 -1.57545 0.0417849 0
M  V30 690 C 67.4615 -2.10977 -0.935805 0
M  V30 691 C 68.4315 -1.01486 -1.31491 0
M  V30 692 O 69.6165 -1.2898 -1.40602 0
M  V30 693 C 66.7565 -2.65169 -2.2086 0
M  V30 694 C 65.8695 -3.88714 -1.88482 0
M  V30 695 C 65.0045 -4.31254 -3.1015 0
M  V30 696 C 64.0435 -5.47524 -2.7365 0
M  V30 697 N 63.1805 -5.85162 -3.87982 0
M  V30 698 H 68.0205 -2.94218 -0.473249 0
M  V30 699 H 65.5575 -1.45415 -0.221981 0
M  V30 700 H 67.5155 -2.94685 -2.95325 0
M  V30 701 H 66.1455 -1.8474 -2.64709 0
M  V30 702 H 65.1975 -3.65849 -1.04205 0
M  V30 703 H 66.5095 -4.73245 -1.57608 0
M  V30 704 H 65.6635 -4.62273 -3.92923 0
M  V30 705 H 64.4025 -3.45516 -3.44195 0
M  V30 706 H 63.4075 -5.16187 -1.89291 0
M  V30 707 H 64.6325 -6.34971 -2.40807 0
M  V30 708 H 62.5785 -5.02377 -4.21846 0
M  V30 709 H 62.4955 -6.64362 -3.60775 0
M  V30 710 H 63.7635 -6.20791 -4.71422 0
M  V30 711 N 67.9926 0.231505 -1.5589 0
M  V30 712 C 69.2396 0.957352 -1.78441 0
M  V30 713 C 69.5676 1.84726 -0.60882 0
M  V30 714 O 68.8226 1.91416 0.40725 0
M  V30 715 C 69.1216 1.83577 -3.0665 0
M  V30 716 C 68.7876 1.09993 -4.37278 0
M  V30 717 C 67.4496 0.896629 -4.72773 0
M  V30 718 C 69.8016 0.579558 -5.17968 0
M  V30 719 C 67.1296 0.160896 -5.86479 0
M  V30 720 C 69.4816 -0.142783 -6.32439 0
M  V30 721 C 68.1456 -0.357427 -6.66542 0
M  V30 722 H 67.4156 0.35032 -0.65296 0
M  V30 723 H 70.0626 0.226259 -1.90159 0
M  V30 724 H 68.3676 2.63441 -2.90011 0
M  V30 725 H 70.0646 2.39934 -3.21298 0
M  V30 726 H 66.6546 1.26835 -4.09403 0
M  V30 727 H 70.8386 0.724125 -4.90989 0
M  V30 728 H 66.0946 -0.0157293 -6.11398 0
M  V30 729 H 70.2686 -0.553559 -6.94196 0
M  V30 730 H 67.8956 -0.929466 -7.54497 0
M  V30 731 N 69.4707 1.49531 0.497807 0
M  V30 732 C 70.7477 1.49682 1.25915 0
M  V30 733 C 71.1277 0.226339 2.09883 0
M  V30 734 O 70.4757 -0.791189 2.14365 0
M  V30 735 C 70.6857 2.77755 2.11313 0
M  V30 736 C 72.0337 3.27371 2.70395 0
M  V30 737 O 73.0577 2.78894 2.21578 0
M  V30 738 O 71.9167 4.11808 3.59272 0
M  V30 739 H 69.0107 0.599228 0.56996 0
M  V30 740 H 71.5567 1.61798 0.511816 0
M  V30 741 H 70.3287 3.61713 1.49264 0
M  V30 742 H 69.9517 2.68515 2.93233 0
M  V30 743 N 70.9488 -0.749086 1.3866 0
M  V30 744 C 72.1948 -1.51056 1.35314 0
M  V30 745 C 72.5278 -1.94121 -0.0553751 0
M  V30 746 O 71.8028 -1.65763 -1.01749 0
M  V30 747 C 72.0858 -2.76003 2.31288 0
M  V30 748 C 71.9388 -2.39047 3.8102 0
M  V30 749 C 73.2578 -3.78046 2.2532 0
M  V30 750 H 70.3768 -0.547972 0.492844 0
M  V30 751 H 73.0188 -0.857628 1.69543 0
M  V30 752 H 71.1688 -3.31716 2.02229 0
M  V30 753 H 72.8408 -1.89074 4.20771 0
M  V30 754 H 71.0838 -1.71449 3.98482 0
M  V30 755 H 71.7548 -3.28462 4.4364 0
M  V30 756 H 74.2308 -3.31884 2.50983 0
M  V30 757 H 73.1068 -4.63159 2.94576 0
M  V30 758 H 73.3678 -4.23957 1.25352 0
M  V30 759 N 72.4269 -1.23603 -0.977757 0
M  V30 760 C 73.6739 -1.06971 -1.71941 0
M  V30 761 C 74.0019 0.393009 -1.90488 0
M  V30 762 O 73.2569 1.30719 -1.4564 0
M  V30 763 C 73.5559 -1.7433 -3.11999 0
M  V30 764 C 73.2219 -3.24252 -3.13323 0
M  V30 765 C 71.8839 -3.65156 -3.13392 0
M  V30 766 C 74.2359 -4.20141 -3.08433 0
M  V30 767 C 71.5639 -5.00403 -3.0629 0
M  V30 768 C 73.9159 -5.55384 -3.02873 0
M  V30 769 C 72.5799 -5.95647 -3.01265 0
M  V30 770 H 71.8499 -0.391433 -0.629175 0
M  V30 771 H 74.4969 -1.53572 -1.14403 0
M  V30 772 H 72.8019 -1.20096 -3.7294 0
M  V30 773 H 74.4989 -1.58936 -3.68158 0
M  V30 774 H 71.0889 -2.91692 -3.14029 0
M  V30 775 H 75.2729 -3.89547 -3.07517 0
M  V30 776 H 70.5289 -5.3081 -3.03399 0
M  V30 777 H 74.7029 -6.29398 -2.98046 0
M  V30 778 H 72.3299 -7.0041 -2.95516 0
M  V30 779 N 73.905 1.17692 -1.04816 0
M  V30 780 C 74.868 2.19787 -0.650117 0
M  V30 781 C 75.868 1.58044 0.296427 0
M  V30 782 O 77.058 1.74012 0.0808097 0
M  V30 783 C 74.19 3.40869 0.0456987 0
M  V30 784 H 75.383 2.56516 -1.5537 0
M  V30 785 H 72.936 1.31708 -0.841594 0
M  V30 786 H 73.671 3.09681 0.962726 0
M  V30 787 H 73.456 3.86928 -0.634727 0
M  V30 788 H 74.946 4.16445 0.310432 0
M  V30 789 N 75.3831 0.828654 1.34056 0
M  V30 790 C 76.6291 0.429279 1.98818 0
M  V30 791 C 76.9841 -0.998011 1.64492 0
M  V30 792 O 76.2771 -1.68652 0.909228 0
M  V30 793 C 76.4711 0.575226 3.52741 0
M  V30 794 C 76.3001 2.01515 4.02022 0
M  V30 795 C 75.0701 2.64825 4.30344 0
M  V30 796 C 77.2681 2.98261 4.18981 0
M  V30 797 N 75.2501 3.99998 4.65698 0
M  V30 798 C 76.6211 4.18356 4.57578 0
M  V30 799 C 78.6761 2.94802 4.01243 0
M  V30 800 C 77.3791 5.35454 4.80293 0
M  V30 801 C 79.4051 4.11121 4.25128 0
M  V30 802 C 78.7671 5.29969 4.64018 0
M  V30 803 H 74.8661 0.205304 0.754569 0
M  V30 804 H 77.4501 1.07457 1.62361 0
M  V30 805 H 75.6211 -0.0401962 3.88379 0
M  V30 806 H 77.3531 0.148292 4.04428 0
M  V30 807 H 74.1081 2.16027 4.21461 0
M  V30 808 H 74.5321 4.69653 4.87601 0
M  V30 809 H 79.1741 2.04054 3.70299 0
M  V30 810 H 76.8921 6.26755 5.10102 0
M  V30 811 H 80.4781 4.0985 4.12934 0
M  V30 812 H 79.3581 6.18479 4.82134 0
M  V30 813 N 76.8612 -1.46375 0.584142 0
M  V30 814 C 78.0862 -2.07268 0.0740405 0
M  V30 815 C 78.5112 -1.42979 -1.22223 0
M  V30 816 O 77.8692 -0.514092 -1.73859 0
M  V30 817 C 77.9172 -3.60518 -0.0767769 0
M  V30 818 O 77.0212 -3.96533 -1.13292 0
M  V30 819 H 76.3622 -0.660961 0.0634524 0
M  V30 820 H 78.8922 -1.87991 0.807492 0
M  V30 821 H 78.9022 -4.07021 -0.282489 0
M  V30 822 H 77.5772 -4.06702 0.86986 0
M  V30 823 H 76.1542 -3.61738 -0.905553 0
M  V30 824 N 78.3393 -0.321999 -1.54275 0
M  V30 825 C 79.5673 0.283052 -2.04955 0
M  V30 826 C 79.9823 1.45904 -1.19823 0
M  V30 827 O 79.3393 1.81063 -0.228545 0
M  V30 828 C 79.3903 0.719028 -3.54277 0
M  V30 829 O 79.1113 -0.410175 -4.36176 0
M  V30 830 C 80.6123 1.38705 -4.21041 0
M  V30 831 H 77.8323 0.0584616 -0.668448 0
M  V30 832 H 80.3763 -0.467734 -1.99079 0
M  V30 833 H 78.5313 1.41979 -3.60445 0
M  V30 834 H 78.9453 -0.0669416 -5.24457 0
M  V30 835 H 80.4193 1.64306 -5.2698 0
M  V30 836 H 80.8963 2.33385 -3.72059 0
M  V30 837 H 81.5023 0.728906 -4.19007 0
M  V30 838 N 79.8174 1.5752 -0.0501392 0
M  V30 839 C 80.7494 2.08413 0.95376 0
M  V30 840 C 81.7624 1.01175 1.27544 0
M  V30 841 O 82.9514 1.28744 1.23641 0
M  V30 842 C 80.0514 2.51138 2.27559 0
M  V30 843 C 79.2244 3.817 2.13598 0
M  V30 844 C 78.2834 4.10749 3.28895 0
M  V30 845 O 77.3094 4.80685 3.04845 0
M  V30 846 N 78.5114 3.62579 4.5334 0
M  V30 847 H 81.2764 2.95165 0.519383 0
M  V30 848 H 78.8374 1.61327 0.136127 0
M  V30 849 H 80.8294 2.67648 3.03557 0
M  V30 850 H 79.3994 1.6964 2.62567 0
M  V30 851 H 78.6194 3.74782 1.22197 0
M  V30 852 H 79.9074 4.67201 2.01496 0
M  V30 853 H 79.3054 3.06039 4.75769 0
M  V30 854 H 77.8624 3.84329 5.26436 0
M  V30 855 N 81.2955 -0.223234 1.56011 0
M  V30 856 C 82.5205 -0.968978 1.83373 0
M  V30 857 C 82.9455 -1.77227 0.630254 0
M  V30 858 O 82.3035 -1.76345 -0.420959 0
M  V30 859 C 82.3515 -1.86363 3.08709 0
M  V30 860 O 81.4555 -2.95873 2.87285 0
M  V30 861 H 80.7965 -0.274461 0.604622 0
M  V30 862 H 83.3265 -0.237056 2.03222 0
M  V30 863 H 83.3365 -2.27376 3.38768 0
M  V30 864 H 82.0115 -1.27319 3.95933 0
M  V30 865 H 80.5885 -2.58818 2.68454 0
M  V30 866 N 82.7736 -1.49793 -0.48987 0
M  V30 867 C 84.0016 -1.63568 -1.26701 0
M  V30 868 C 84.4166 -0.311465 -1.86213 0
M  V30 869 O 83.7736 0.704416 -1.68357 0
M  V30 870 C 83.8246 -2.71284 -2.38929 0
M  V30 871 O 83.5456 -3.9857 -1.81861 0
M  V30 872 C 85.0466 -2.95864 -3.3012 0
M  V30 873 H 82.2666 -0.550342 -0.383881 0
M  V30 874 H 84.8106 -1.95898 -0.586864 0
M  V30 875 H 82.9656 -2.417 -3.02753 0
M  V30 876 H 83.3796 -4.57993 -2.55622 0
M  V30 877 H 84.8536 -3.74941 -4.05121 0
M  V30 878 H 85.3306 -2.06206 -3.87783 0
M  V30 879 H 85.9366 -3.26907 -2.72051 0
M  V30 880 N 84.2517 0.741722 -1.39055 0
M  V30 881 C 85.1997 1.87702 -1.3737 0
M  V30 882 C 86.1937 1.67427 -0.257812 0
M  V30 883 O 87.3997 1.7485 -0.427489 0
M  V30 884 H 83.7747 0.617757 -0.428812 0
M  V30 885 H 85.7457 1.86239 -2.33147 0
M  V30 886 C 84.4947 3.25315 -1.22741 0
M  V30 887 H 83.8177 3.41509 -2.07873 0
M  V30 888 H 85.2577 4.04964 -1.25618 0
M  V30 889 C 83.7167 3.36838 0.0647316 0
M  V30 890 O 84.2467 3.88073 1.03741 0
M  V30 891 N 82.4527 2.90329 0.125544 0
M  V30 892 H 81.9997 2.48823 -0.666682 0
M  V30 893 H 81.9577 2.98418 0.989639 0
M  V30 894 N 85.7298 1.2412 0.971189 0
M  V30 895 C 86.9758 1.09048 1.71698 0
M  V30 896 C 87.3308 -0.367442 1.88859 0
M  V30 897 O 86.6238 -1.26792 1.43646 0
M  V30 898 C 86.8178 1.75983 3.11071 0
M  V30 899 C 86.6468 3.28133 3.07504 0
M  V30 900 C 85.4168 3.97331 3.1218 0
M  V30 901 C 87.6148 4.24773 2.89952 0
M  V30 902 N 85.5968 5.3639 2.98596 0
M  V30 903 C 86.9678 5.50806 2.84627 0
M  V30 904 C 89.0228 4.15392 2.74506 0
M  V30 905 C 87.7258 6.68533 2.65437 0
M  V30 906 C 89.7518 5.32793 2.56682 0
M  V30 907 C 89.1138 6.57756 2.52063 0
M  V30 908 H 85.2128 0.453632 0.636979 0
M  V30 909 H 87.7968 1.56983 1.15171 0
M  V30 910 H 85.9678 1.30566 3.65796 0
M  V30 911 H 87.6998 1.53803 3.74335 0
M  V30 912 H 84.4548 3.48473 3.20724 0
M  V30 913 H 84.8788 6.09321 2.95054 0
M  V30 914 H 89.5208 3.19543 2.76861 0
M  V30 915 H 87.2388 7.64509 2.61825 0
M  V30 916 H 90.8248 5.27383 2.4568 0
M  V30 917 H 89.7048 7.4707 2.38446 0
M  V30 918 N 87.2079 -1.17134 1.05439 0
M  V30 919 C 88.1379 -2.2342 0.678649 0
M  V30 920 C 89.1189 -1.66971 -0.32476 0
M  V30 921 O 90.3039 -1.93149 -0.201802 0
M  V30 922 C 87.4339 -3.47256 0.0552099 0
M  V30 923 C 86.3879 -4.16543 0.98365 0
M  V30 924 C 85.7139 -5.34231 0.223961 0
M  V30 925 C 87.0139 -4.68495 2.3089 0
M  V30 926 H 88.7079 -2.55105 1.56722 0
M  V30 927 H 86.2539 -1.2262 0.754998 0
M  V30 928 H 88.2069 -4.20828 -0.21946 0
M  V30 929 H 86.9309 -3.14846 -0.868319 0
M  V30 930 H 85.5899 -3.44887 1.24293 0
M  V30 931 H 85.2379 -4.98071 -0.702412 0
M  V30 932 H 84.9379 -5.81527 0.842627 0
M  V30 933 H 86.4619 -6.10585 -0.0433671 0
M  V30 934 H 87.8759 -5.33691 2.09396 0
M  V30 935 H 86.2729 -5.26379 2.88176 0
M  V30 936 H 87.3429 -3.85169 2.94572 0
M  V30 937 N 88.686 -0.835752 -1.33615 0
M  V30 938 C 89.596 -0.269088 -2.33052 0
M  V30 939 C 90.612 0.603251 -1.63208 0
M  V30 940 O 91.788 0.508112 -1.94885 0
M  V30 941 C 88.853 0.549091 -3.42324 0
M  V30 942 C 87.914 -0.347156 -4.27894 0
M  V30 943 C 87.147 0.43207 -5.31948 0
M  V30 944 O 87.37 1.66409 -5.45586 0
M  V30 945 O 86.304 -0.192298 -6.01593 0
M  V30 946 H 90.13 -1.09243 -2.83372 0
M  V30 947 H 87.715 -0.598198 -1.36901 0
M  V30 948 H 89.597 1.01414 -4.09015 0
M  V30 949 H 88.272 1.34955 -2.94226 0
M  V30 950 H 87.179 -0.859979 -3.64081 0
M  V30 951 H 88.512 -1.1123 -4.79467 0
M  V30 952 N 90.1641 1.46063 -0.591896 0
M  V30 953 C 91.4111 2.02338 -0.0809991 0
M  V30 954 C 91.7391 1.46228 1.28249 0
M  V30 955 O 90.9941 0.620818 1.85592 0
M  V30 956 C 91.2931 3.57391 0.0249813 0
M  V30 957 C 90.9591 4.32583 -1.27211 0
M  V30 958 C 89.6211 4.52844 -1.62745 0
M  V30 959 C 91.9731 4.75687 -2.13005 0
M  V30 960 C 89.3011 5.13462 -2.83855 0
M  V30 961 C 91.6531 5.37644 -3.3335 0
M  V30 962 C 90.3171 5.5613 -3.69155 0
M  V30 963 H 89.5871 0.740407 -0.0296397 0
M  V30 964 H 92.2341 1.75321 -0.770374 0
M  V30 965 H 90.5391 3.83597 0.797537 0
M  V30 966 H 92.2361 3.98621 0.436184 0
M  V30 967 H 88.8261 4.17116 -0.985499 0
M  V30 968 H 93.0101 4.59782 -1.86855 0
M  V30 969 H 88.2661 5.25965 -3.11722 0
M  V30 970 H 92.4401 5.7 -4.00092 0
M  V30 971 H 90.0671 6.0287 -4.63089 0
M  V30 972 N 91.6422 0.330177 1.54103 0
M  V30 973 C 92.8882 -0.270806 2.00984 0
M  V30 974 C 93.2212 -1.51265 1.21789 0
M  V30 975 O 92.4962 -1.92142 0.301927 0
M  V30 976 C 92.7792 -0.598339 3.55094 0
M  V30 977 C 92.6322 0.654674 4.4501 0
M  V30 978 C 93.9512 -1.41334 4.16789 0
M  V30 979 H 91.0702 -0.0969531 0.730595 0
M  V30 980 H 93.7122 0.448066 1.84641 0
M  V30 981 H 91.8622 -1.21078 3.69151 0
M  V30 982 H 93.5342 1.29285 4.42813 0
M  V30 983 H 91.7772 1.28224 4.14416 0
M  V30 984 H 92.4482 0.380944 5.50684 0
M  V30 985 H 94.9242 -0.895597 4.06347 0
M  V30 986 H 93.8002 -1.61127 5.24718 0
M  V30 987 H 94.0612 -2.41146 3.70541 0
M  V30 988 N 93.1203 -1.57491 0.0584922 0
M  V30 989 C 94.5363 -1.56792 -0.298091 0
M  V30 990 C 94.7363 -1.06679 -1.70944 0
M  V30 991 O 93.7923 -0.726672 -2.41818 0
M  V30 992 C 95.1053 -3.00461 -0.119879 0
M  V30 993 C 96.6533 -3.1242 -0.190428 0
M  V30 994 C 97.1283 -4.57982 -0.0406567 0
M  V30 995 N 98.6193 -4.63099 -0.0966958 0
M  V30 996 C 99.3543 -5.734 -0.00502943 0
M  V30 997 N 98.8503 -6.9266 0.139402 0
M  V30 998 N 100.643 -5.62067 -0.0611391 0
M  V30 999 H 92.7943 -1.88386 0.98105 0
M  V30 1000 H 95.0573 -0.867865 0.381463 0
M  V30 1001 H 94.7633 -3.41187 0.85349 0
M  V30 1002 H 94.6373 -3.66843 -0.877833 0
M  V30 1003 H 97.0243 -2.71589 -1.15427 0
M  V30 1004 H 97.1053 -2.48702 0.598405 0
M  V30 1005 H 96.7493 -4.995 0.919897 0
M  V30 1006 H 96.6793 -5.19715 -0.848727 0
M  V30 1007 H 99.1703 -3.77331 -0.207277 0
M  V30 1008 H 99.4833 -7.72536 0.201855 0
M  V30 1009 H 97.8283 -6.94781 0.174586 0
M  V30 1010 H 101.019 -4.67782 -0.172583 0
M  V30 1011 H 101.192 -6.47999 0.0137562 0
M  V30 1012 N 94.5984 0.214957 -1.56127 0
M  V30 1013 C 95.8754 0.963093 -1.70247 0
M  V30 1014 C 96.2554 2.02166 -0.60764 0
M  V30 1015 O 95.6034 2.25244 0.384385 0
M  V30 1016 C 95.8134 1.56756 -3.11815 0
M  V30 1017 C 97.1614 2.0573 -3.7143 0
M  V30 1018 O 98.1854 1.66637 -3.14818 0
M  V30 1019 O 97.0444 2.77603 -4.70743 0
M  V30 1020 H 94.1384 0.450321 -0.693643 0
M  V30 1021 H 96.6844 0.206219 -1.68442 0
M  V30 1022 H 95.4564 0.803533 -3.82961 0
M  V30 1023 H 95.0794 2.3898 -3.17765 0
M  V30 1024 N 96.0765 1.50051 0.48192 0
M  V30 1025 C 97.3245 1.60181 1.23234 0
M  V30 1026 C 97.6455 0.299176 1.92691 0
M  V30 1027 O 96.9155 -0.682708 1.83619 0
M  V30 1028 H 95.4955 0.590232 0.457859 0
M  V30 1029 H 98.1575 1.86775 0.556881 0
M  V30 1030 H 97.2535 2.40753 1.98607 0
M  V30 1031 N 97.5546 -0.734337 1.39446 0
M  V30 1032 C 98.7846 -1.52137 1.39778 0
M  V30 1033 C 99.1926 -1.89198 -0.00929312 0
M  V30 1034 O 98.5356 -1.54666 -0.991168 0
M  V30 1035 C 98.5976 -2.83762 2.20724 0
M  V30 1036 C 98.2616 -2.69131 3.69347 0
M  V30 1037 C 99.2586 -2.37635 4.62413 0
M  V30 1038 C 96.9436 -2.85982 4.1294 0
M  V30 1039 C 98.9376 -2.23172 5.97054 0
M  V30 1040 C 96.6246 -2.71137 5.47657 0
M  V30 1041 C 97.6226 -2.39777 6.39528 0
M  V30 1042 O 97.3106 -2.25026 7.71763 0
M  V30 1043 H 97.0426 -0.476717 0.479288 0
M  V30 1044 H 99.5966 -0.915012 1.83893 0
M  V30 1045 H 97.8266 -3.4666 1.71359 0
M  V30 1046 H 99.5156 -3.45383 2.13226 0
M  V30 1047 H 100.282 -2.24267 4.30034 0
M  V30 1048 H 96.1606 -3.09383 3.41765 0
M  V30 1049 H 99.7046 -1.98617 6.68728 0
M  V30 1050 H 95.6016 -2.84083 5.79626 0
M  V30 1051 H 96.3696 -2.40091 7.82495 0
M  V30 1052 N 99.0327 -1.24633 -0.964593 0
M  V30 1053 C 99.9957 -1.0424 -2.04124 0
M  V30 1054 C 100.996 0.00137563 -1.608 0
M  V30 1055 O 102.186 -0.239883 -1.7254 0
M  V30 1056 C 99.3177 -0.580588 -3.3592 0
M  V30 1057 H 100.511 -1.99803 -2.23649 0
M  V30 1058 H 98.0637 -1.06899 -1.14027 0
M  V30 1059 H 98.7987 0.3781 -3.22088 0
M  V30 1060 H 98.5837 -1.33398 -3.6871 0
M  V30 1061 H 100.074 -0.459034 -4.15069 0
M  V30 1062 N 100.511 1.16574 -1.06058 0
M  V30 1063 C 101.757 1.87324 -0.777022 0
M  V30 1064 C 102.09 1.81351 0.694645 0
M  V30 1065 O 101.365 1.22753 1.50871 0
M  V30 1066 C 101.648 3.36991 -1.26922 0
M  V30 1067 C 101.501 3.51667 -2.80447 0
M  V30 1068 C 102.82 4.3131 -0.87521 0
M  V30 1069 H 99.9388 0.680191 -0.28374 0
M  V30 1070 H 102.581 1.37036 -1.3161 0
M  V30 1071 H 100.731 3.79949 -0.81063 0
M  V30 1072 H 102.403 3.17664 -3.34495 0
M  V30 1073 H 100.646 2.93656 -3.19294 0
M  V30 1074 H 101.317 4.56766 -3.0995 0
M  V30 1075 H 103.793 3.9624 -1.27014 0
M  V30 1076 H 102.669 5.34545 -1.2471 0
M  V30 1077 H 102.93 4.41552 0.220071 0
M  V30 1078 N 101.989 0.842826 1.3317 0
M  V30 1079 C 103.235 0.441099 1.97945 0
M  V30 1080 C 103.568 -0.998024 1.66593 0
M  V30 1081 O 102.843 -1.69839 0.947898 0
M  V30 1082 C 103.126 0.666841 3.53872 0
M  V30 1083 C 102.979 2.15352 3.94897 0
M  V30 1084 C 104.298 0.115544 4.39948 0
M  V30 1085 H 101.417 0.161739 0.719034 0
M  V30 1086 H 104.059 1.05907 1.57746 0
M  V30 1087 H 102.209 0.140828 3.88245 0
M  V30 1088 H 103.881 2.7447 3.70761 0
M  V30 1089 H 102.124 2.63653 3.44484 0
M  V30 1090 H 102.795 2.26221 5.03516 0
M  V30 1091 H 105.271 0.565213 4.12243 0
M  V30 1092 H 104.147 0.303152 5.48062 0
M  V30 1093 H 104.408 -0.980935 4.3108 0
M  V30 1094 N 103.467 -1.45747 0.599634 0
M  V30 1095 C 104.716 -2.01502 0.0893511 0
M  V30 1096 C 105.029 -1.4748 -1.28488 0
M  V30 1097 O 106.235 -1.95161 -1.88745 0
M  V30 1098 C 104.691 -3.59735 0.109082 0
M  V30 1099 C 104.299 -4.22754 1.48267 0
M  V30 1100 C 106.043 -4.23085 -0.346374 0
M  V30 1101 C 103.95 -5.73115 1.45921 0
M  V30 1102 H 102.88 -0.753417 0.0296347 0
M  V30 1103 H 105.531 -1.67303 0.753788 0
M  V30 1104 H 103.913 -3.91087 -0.621854 0
M  V30 1105 H 105.087 -4.02987 2.23468 0
M  V30 1106 H 103.402 -3.71567 1.87955 0
M  V30 1107 H 105.999 -5.33327 -0.38298 0
M  V30 1108 H 106.342 -3.93201 -1.36743 0
M  V30 1109 H 106.875 -3.9642 0.331038 0
M  V30 1110 H 103.614 -6.07685 2.45762 0
M  V30 1111 H 103.134 -5.95097 0.749665 0
M  V30 1112 H 104.813 -6.3616 1.17941 0
M  V30 1113 N 104.945 -0.338344 -1.53925 0
M  V30 1114 C 105.877 0.555117 -2.22376 0
M  V30 1115 C 106.89 1.06812 -1.22862 0
M  V30 1116 O 108.079 0.979163 -1.49247 0
M  V30 1117 C 105.179 1.77609 -2.88631 0
M  V30 1118 C 104.352 1.39927 -4.14414 0
M  V30 1119 C 103.411 2.47936 -4.64127 0
M  V30 1120 O 102.437 2.11461 -5.28463 0
M  V30 1121 N 103.639 3.79107 -4.39612 0
M  V30 1122 H 106.404 -0.0310778 -2.99684 0
M  V30 1123 H 103.965 -0.162226 -1.61085 0
M  V30 1124 H 105.957 2.49287 -3.18807 0
M  V30 1125 H 104.527 2.26978 -2.14941 0
M  V30 1126 H 103.747 0.513481 -3.90841 0
M  V30 1127 H 105.035 1.12341 -4.96243 0
M  V30 1128 H 104.433 4.11531 -3.88148 0
M  V30 1129 H 102.99 4.4697 -4.74406 0
M  V30 1130 N 106.423 1.57458 -0.0668435 0
M  V30 1131 C 107.7 1.8469 0.644132 0
M  V30 1132 C 108.08 0.958343 1.88093 0
M  V30 1133 O 107.428 0.0233579 2.28488 0
M  V30 1134 C 107.638 3.34767 0.986509 0
M  V30 1135 C 108.986 4.02159 1.36212 0
M  V30 1136 O 110.01 3.39484 1.07839 0
M  V30 1137 O 108.869 5.12694 1.89227 0
M  V30 1138 H 105.963 0.762816 0.319437 0
M  V30 1139 H 108.509 1.6942 -0.0973986 0
M  V30 1140 H 107.281 3.91151 0.107883 0
M  V30 1141 H 106.904 3.55281 1.78497 0
M  V30 1142 N 107.901 -0.206675 1.56239 0
M  V30 1143 C 109.129 -0.945345 1.8404 0
M  V30 1144 C 109.544 -1.77336 0.647885 0
M  V30 1145 O 108.901 -1.78425 -0.383511 0
M  V30 1146 C 108.952 -1.8509 3.10522 0
M  V30 1147 O 108.673 -1.05634 4.25174 0
M  V30 1148 C 110.174 -2.70222 3.51418 0
M  V30 1149 H 107.394 -0.276372 0.61144 0
M  V30 1150 H 109.938 -0.217417 2.03341 0
M  V30 1151 H 108.093 -2.53259 2.93153 0
M  V30 1152 H 108.507 -1.67238 4.97124 0
M  V30 1153 H 109.981 -3.29438 4.42916 0
M  V30 1154 H 110.458 -3.43358 2.73864 0
M  V30 1155 H 111.064 -2.07443 3.71278 0
M  V30 1156 N 109.379 -1.50304 -0.473955 0
M  V30 1157 C 110.795 -1.37667 -0.807466 0
M  V30 1158 C 110.995 -0.430555 -1.96846 0
M  V30 1159 O 110.051 0.127874 -2.52176 0
M  V30 1160 C 111.364 -2.78974 -1.12223 0
M  V30 1161 C 112.912 -2.87868 -1.22885 0
M  V30 1162 C 113.387 -4.30003 -1.57676 0
M  V30 1163 N 114.878 -4.3294 -1.64673 0
M  V30 1164 C 115.613 -5.3991 -1.93091 0
M  V30 1165 N 115.109 -6.57092 -2.1955 0
M  V30 1166 N 116.902 -5.27351 -1.94569 0
M  V30 1167 H 109.053 -2.10394 0.291212 0
M  V30 1168 H 111.316 -0.945575 0.0677609 0
M  V30 1169 H 111.022 -3.50031 -0.342229 0
M  V30 1170 H 110.896 -3.16038 -2.05913 0
M  V30 1171 H 113.283 -2.17032 -1.99953 0
M  V30 1172 H 113.364 -2.54352 -0.271814 0
M  V30 1173 H 113.008 -5.01375 -0.81149 0
M  V30 1174 H 112.938 -4.61004 -2.54525 0
M  V30 1175 H 115.429 -3.48441 -1.46277 0
M  V30 1176 H 115.742 -7.34425 -2.405 0
M  V30 1177 H 114.087 -6.60272 -2.16948 0
M  V30 1178 H 117.278 -4.34801 -1.73394 0
M  V30 1179 H 117.451 -6.10805 -2.16381 0
M  V30 1180 N 110.857 0.726932 -1.39834 0
M  V30 1181 C 112.105 1.4837 -1.37225 0
M  V30 1182 C 112.426 1.94979 0.0284857 0
M  V30 1183 O 111.696 1.69555 0.981213 0
M  V30 1184 H 110.276 0.55043 -0.505011 0
M  V30 1185 H 112.938 0.862468 -1.74778 0
M  V30 1186 H 112.034 2.36198 -2.04003 0
M  V30 1187 N 112.336 1.25143 0.95797 0
M  V30 1188 C 113.266 1.07711 2.07173 0
M  V30 1189 C 114.247 -0.0128462 1.70095 0
M  V30 1190 O 115.432 0.156061 1.93572 0
M  V30 1191 C 112.562 0.691503 3.40346 0
M  V30 1192 C 111.516 1.73132 3.9142 0
M  V30 1193 C 110.842 1.20049 5.21049 0
M  V30 1194 C 112.142 3.1294 4.1817 0
M  V30 1195 H 113.836 2.00873 2.22014 0
M  V30 1196 H 111.382 0.967191 1.06684 0
M  V30 1197 H 113.335 0.556505 4.17709 0
M  V30 1198 H 112.059 -0.275819 3.25433 0
M  V30 1199 H 110.718 1.8547 3.16222 0
M  V30 1200 H 110.366 0.223499 5.02503 0
M  V30 1201 H 110.066 1.89545 5.56189 0
M  V30 1202 H 111.59 1.07782 6.01012 0
M  V30 1203 H 113.004 3.03775 4.86203 0
M  V30 1204 H 111.401 3.79875 4.64559 0
M  V30 1205 H 112.471 3.6025 3.24573 0
M  V30 1206 N 113.814 -1.1601 1.06675 0
M  V30 1207 C 115.061 -1.86633 0.785781 0
M  V30 1208 C 115.389 -1.81929 -0.687896 0
M  V30 1209 O 114.644 -1.23253 -1.52011 0
M  V30 1210 C 114.943 -3.35547 1.23057 0
M  V30 1211 C 114.609 -3.60448 2.70902 0
M  V30 1212 C 113.271 -3.66954 3.11285 0
M  V30 1213 C 115.623 -3.7071 3.66365 0
M  V30 1214 C 112.951 -3.81225 4.45965 0
M  V30 1215 C 115.303 -3.86503 5.00797 0
M  V30 1216 C 113.967 -3.91252 5.40813 0
M  V30 1217 H 113.237 -0.682937 0.287538 0
M  V30 1218 H 115.884 -1.37146 1.33654 0
M  V30 1219 H 114.189 -3.87193 0.59907 0
M  V30 1220 H 115.886 -3.88583 0.990163 0
M  V30 1221 H 112.476 -3.56021 2.38636 0
M  V30 1222 H 116.66 -3.64991 3.36296 0
M  V30 1223 H 111.916 -3.83155 4.76447 0
M  V30 1224 H 116.09 -3.93385 5.74649 0
M  V30 1225 H 113.717 -4.02062 6.45174 0
M  V30 1226 N 115.292 -0.849877 -1.32721 0
M  V30 1227 C 116.255 -0.296122 -2.27279 0
M  V30 1228 C 117.255 0.541458 -1.5141 0
M  V30 1229 O 118.445 0.353658 -1.70572 0
M  V30 1230 C 115.577 0.581579 -3.35902 0
M  V30 1231 H 116.77 -1.13064 -2.77771 0
M  V30 1232 H 114.323 -0.62383 -1.43311 0
M  V30 1233 H 115.058 1.43809 -2.9067 0
M  V30 1234 H 114.843 -0.0178814 -3.92096 0
M  V30 1235 H 116.333 0.961951 -4.0637 0
M  V30 1236 N 116.77 1.45427 -0.607355 0
M  V30 1237 C 117.995 2.07124 -0.107006 0
M  V30 1238 C 118.42 1.44906 1.19933 0
M  V30 1239 O 117.778 0.541687 1.73019 0
M  V30 1240 C 117.826 3.60595 0.0194119 0
M  V30 1241 O 116.93 3.98285 1.0697 0
M  V30 1242 H 116.271 0.659868 -0.0739597 0
M  V30 1243 H 118.801 1.86683 -0.837297 0
M  V30 1244 H 118.811 4.07419 0.2177 0
M  V30 1245 H 117.486 4.05266 -0.934453 0
M  V30 1246 H 116.063 3.63133 0.847889 0
M  V30 1247 N 118.248 0.346503 1.53744 0
M  V30 1248 C 119.158 -0.517293 2.28826 0
M  V30 1249 C 120.174 -1.10935 1.3405 0
M  V30 1250 O 121.35 -1.1244 1.6709 0
M  V30 1251 C 118.415 -1.65098 3.04866 0
M  V30 1252 C 117.476 -1.0884 4.15274 0
M  V30 1253 C 116.709 -2.16806 4.87679 0
M  V30 1254 O 116.932 -3.3758 4.59778 0
M  V30 1255 O 115.866 -1.80934 5.74061 0
M  V30 1256 H 119.692 0.0931396 3.03557 0
M  V30 1257 H 117.277 0.111458 1.48984 0
M  V30 1258 H 119.159 -2.31053 3.5241 0
M  V30 1259 H 117.834 -2.24717 2.32989 0
M  V30 1260 H 116.741 -0.3933 3.72027 0
M  V30 1261 H 118.074 -0.537036 4.89261 0
M  V30 1262 N 119.726 -1.57421 0.075193 0
M  V30 1263 C 120.974 -1.93236 -0.591974 0
M  V30 1264 C 121.295 -0.956241 -1.69944 0
M  V30 1265 O 120.565 -0.00494792 -1.95899 0
M  V30 1266 H 119.145 -0.713355 -0.22166 0
M  V30 1267 H 121.807 -1.9444 0.133848 0
M  V30 1268 H 120.903 -2.95131 -1.01509 0
M  V30 1269 N 121.204 0.198386 -1.56346 0
M  V30 1270 C 122.114 1.2664 -1.97483 0
M  V30 1271 C 123.13 1.49989 -0.882002 0
M  V30 1272 O 124.306 1.62668 -1.18748 0
M  V30 1273 C 121.371 2.59141 -2.30319 0
M  V30 1274 C 120.432 2.43892 -3.53292 0
M  V30 1275 C 119.665 3.70074 -3.84553 0
M  V30 1276 O 119.888 4.74101 -3.1715 0
M  V30 1277 O 118.822 3.658 -4.7799 0
M  V30 1278 H 122.648 0.947304 -2.88548 0
M  V30 1279 H 120.233 0.403123 -1.43859 0
M  V30 1280 H 122.115 3.37352 -2.5253 0
M  V30 1281 H 120.79 2.90684 -1.42423 0
M  V30 1282 H 119.697 1.63803 -3.36332 0
M  V30 1283 H 121.03 2.17282 -4.41644 0
M  V30 1284 N 122.682 1.50554 0.465978 0
M  V30 1285 C 123.929 1.61798 1.21768 0
M  V30 1286 C 124.257 0.320696 1.91838 0
M  V30 1287 O 123.512 -0.693724 1.82992 0
M  V30 1288 C 123.811 2.75152 2.28093 0
M  V30 1289 C 123.477 4.15454 1.75239 0
M  V30 1290 C 122.139 4.53628 1.60546 0
M  V30 1291 C 124.491 5.03121 1.36083 0
M  V30 1292 C 121.819 5.77204 1.05128 0
M  V30 1293 C 124.171 6.27249 0.821056 0
M  V30 1294 C 122.835 6.64221 0.660795 0
M  V30 1295 H 122.105 0.592063 0.445582 0
M  V30 1296 H 124.752 1.84503 0.512927 0
M  V30 1297 H 123.057 2.46556 3.04496 0
M  V30 1298 H 124.754 2.81055 2.86023 0
M  V30 1299 H 121.344 3.85341 1.87644 0
M  V30 1300 H 125.528 4.74257 1.46267 0
M  V30 1301 H 120.784 6.0452 0.91462 0
M  V30 1302 H 124.958 6.94537 0.509018 0
M  V30 1303 H 122.585 7.59854 0.229226 0
M  V30 1304 N 124.16 -0.719506 1.40217 0
M  V30 1305 C 125.406 -1.48152 1.38488 0
M  V30 1306 C 125.739 -1.94195 -0.0141867 0
M  V30 1307 O 125.014 -1.67884 -0.982096 0
M  V30 1308 C 125.297 -2.71035 2.37091 0
M  V30 1309 C 125.15 -2.30912 3.86005 0
M  V30 1310 C 126.469 -3.73182 2.33288 0
M  V30 1311 H 123.588 -0.537395 0.504357 0
M  V30 1312 H 126.23 -0.821472 1.71324 0
M  V30 1313 H 124.38 -3.27352 2.0922 0
M  V30 1314 H 126.052 -1.80107 4.24687 0
M  V30 1315 H 124.295 -1.62958 4.02029 0
M  V30 1316 H 124.966 -3.18978 4.50508 0
M  V30 1317 H 127.442 -3.26485 2.57966 0
M  V30 1318 H 126.318 -4.56806 3.04334 0
M  V30 1319 H 126.579 -4.21202 1.34317 0
M  V30 1320 N 125.638 -1.25649 -0.95132 0
M  V30 1321 C 127.049 -1.09654 -1.51106 0
M  V30 1322 C 127.4 0.326615 -1.93462 0
M  V30 1323 O 126.525 1.21697 -1.78938 0
M  V30 1324 C 127.12 -1.98437 -2.74605 0
M  V30 1325 C 125.679 -1.86618 -3.2688 0
M  V30 1326 C 124.826 -1.9239 -1.99703 0
M  V30 1327 H 127.777 -1.38887 -0.767865 0
M  V30 1328 H 127.798 -1.5263 -3.48546 0
M  V30 1329 H 127.31 -3.02009 -2.43746 0
M  V30 1330 H 125.411 -0.859421 -3.62553 0
M  V30 1331 H 125.524 -2.71607 -3.94673 0
M  V30 1332 H 123.888 -1.36317 -2.15151 0
M  V30 1333 H 124.671 -2.97573 -1.71188 0
M  V30 1334 N 127.117 1.15442 -1.07289 0
M  V30 1335 C 128.067 2.18164 -0.662467 0
M  V30 1336 C 129.051 1.57845 0.312074 0
M  V30 1337 O 130.243 1.76552 0.125905 0
M  V30 1338 C 127.372 3.43246 -0.0611295 0
M  V30 1339 C 126.458 4.1062 -1.06077 0
M  V30 1340 N 126.849 4.53491 -2.24008 0
M  V30 1341 C 125.147 4.36949 -0.893964 0
M  V30 1342 C 125.848 5.05731 -2.87422 0
M  V30 1343 N 124.824 4.99236 -2.15091 0
M  V30 1344 H 128.626 2.49038 -1.56068 0
M  V30 1345 H 126.14 1.32003 -0.945988 0
M  V30 1346 H 128.137 4.16145 0.250792 0
M  V30 1347 H 126.797 3.13854 0.832207 0
M  V30 1348 H 127.808 4.46898 -2.6173 0
M  V30 1349 H 124.485 4.17466 -0.0534693 0
M  V30 1350 H 125.875 5.48865 -3.87553 0
M  V30 1351 N 128.595 0.856903 1.32268 0
M  V30 1352 C 129.841 0.462069 1.97466 0
M  V30 1353 C 130.174 -0.980298 1.67642 0
M  V30 1354 O 129.449 -1.68824 0.965858 0
M  V30 1355 C 129.732 0.704336 3.53145 0
M  V30 1356 C 129.585 2.19529 3.9259 0
M  V30 1357 C 130.904 0.1622 4.39801 0
M  V30 1358 H 128.023 0.169357 0.717278 0
M  V30 1359 H 130.665 1.07574 1.56614 0
M  V30 1360 H 128.815 0.181999 3.88073 0
M  V30 1361 H 130.487 2.78387 3.67829 0
M  V30 1362 H 128.73 2.67292 3.41668 0
M  V30 1363 H 129.401 2.31549 5.01088 0
M  V30 1364 H 131.877 0.608905 4.11621 0
M  V30 1365 H 130.753 0.361265 5.4771 0
M  V30 1366 H 131.014 -0.935158 4.32096 0
M  V30 1367 N 130.073 -1.45103 0.615059 0
M  V30 1368 C 131.35 -1.95549 0.0448276 0
M  V30 1369 C 131.73 -1.55737 -1.4251 0
M  V30 1370 O 131.078 -0.823556 -2.13143 0
M  V30 1371 C 131.288 -3.48098 0.250785 0
M  V30 1372 C 132.636 -4.24384 0.135509 0
M  V30 1373 O 133.66 -3.55738 0.181299 0
M  V30 1374 O 132.519 -5.46493 0.0268878 0
M  V30 1375 H 129.613 -0.8264 -0.0314845 0
M  V30 1376 H 132.159 -1.55232 0.685642 0
M  V30 1377 H 130.931 -3.7007 1.27139 0
M  V30 1378 H 130.554 -3.95323 -0.424937 0
M  V30 1379 N 131.551 -0.354651 -1.53558 0
M  V30 1380 C 132.828 0.294281 -1.93374 0
M  V30 1381 C 133.208 1.67313 -1.28723 0
M  V30 1382 O 132.556 2.24179 -0.442247 0
M  V30 1383 C 132.766 0.355445 -3.47185 0
M  V30 1384 C 134.114 0.601007 -4.20325 0
M  V30 1385 O 135.138 0.437106 -3.53508 0
M  V30 1386 O 133.997 0.919322 -5.38712 0
M  V30 1387 H 131.091 0.174033 -0.808481 0
M  V30 1388 H 133.637 -0.406638 -1.64756 0
M  V30 1389 H 132.409 -0.611729 -3.86489 0
M  V30 1390 H 132.032 1.1027 -3.82003 0
M  V30 1391 N 133.029 1.57378 -0.0835403 0
M  V30 1392 C 133.939 2.16897 0.894021 0
M  V30 1393 C 134.955 1.13528 1.31861 0
M  V30 1394 O 136.131 1.45848 1.3889 0
M  V30 1395 C 133.196 2.72831 2.13925 0
M  V30 1396 C 132.257 3.91115 1.76997 0
M  V30 1397 C 131.49 4.44371 2.95584 0
M  V30 1398 O 131.713 3.96596 4.09961 0
M  V30 1399 O 130.647 5.35549 2.74719 0
M  V30 1400 H 134.473 3.00814 0.417679 0
M  V30 1401 H 132.058 1.48741 0.140181 0
M  V30 1402 H 133.94 3.0863 2.86924 0
M  V30 1403 H 132.615 1.91967 2.60635 0
M  V30 1404 H 131.522 3.60148 1.01214 0
M  V30 1405 H 132.855 4.73307 1.3506 0
M  V30 1406 N 134.507 -0.190092 1.56449 0
M  V30 1407 C 135.47 -1.21925 1.9408 0
M  V30 1408 C 136.47 -1.38176 0.822431 0
M  V30 1409 O 137.66 -1.35903 1.08977 0
M  V30 1410 C 134.792 -2.58773 2.21922 0
M  V30 1411 H 135.985 -0.897464 2.86157 0
M  V30 1412 H 133.538 -0.43181 1.50217 0
M  V30 1413 H 134.273 -2.95998 1.32499 0
M  V30 1414 H 134.058 -2.48348 3.03424 0
M  V30 1415 H 135.548 -3.32978 2.52022 0
M  V30 1416 N 135.985 -1.50799 -0.457987 0
M  V30 1417 C 137.262 -1.52968 -1.21902 0
M  V30 1418 C 137.642 -0.281906 -2.09209 0
M  V30 1419 O 136.99 0.734076 -2.16388 0
M  V30 1420 C 137.2 -2.8326 -2.03875 0
M  V30 1421 C 138.548 -3.34425 -2.6162 0
M  V30 1422 O 139.572 -2.8467 -2.14106 0
M  V30 1423 O 138.431 -4.21188 -3.48228 0
M  V30 1424 H 135.525 -0.614129 -0.553873 0
M  V30 1425 H 138.071 -1.63098 -0.468739 0
M  V30 1426 H 136.843 -3.65543 -1.39621 0
M  V30 1427 H 136.466 -2.76195 -2.8601 0
M  V30 1428 N 137.463 0.71206 -1.40597 0
M  V30 1429 C 138.426 1.80785 -1.40888 0
M  V30 1430 C 139.426 1.57937 -0.302103 0
M  V30 1431 O 140.616 1.64913 -0.561182 0
M  V30 1432 C 137.748 3.18927 -1.20409 0
M  V30 1433 H 138.941 1.81924 -2.38419 0
M  V30 1434 H 136.494 0.91805 -1.26497 0
M  V30 1435 H 137.229 3.23436 -0.236522 0
M  V30 1436 H 137.014 3.36911 -2.00582 0
M  V30 1437 H 138.504 3.98949 -1.23408 0
M  V30 1438 N 138.941 1.26152 0.944643 0
M  V30 1439 C 139.851 1.09176 2.07648 0
M  V30 1440 C 140.867 0.0261935 1.7398 0
M  V30 1441 O 142.043 0.229208 2.00091 0
M  V30 1442 C 139.108 0.722915 3.39079 0
M  V30 1443 C 138.169 1.86752 3.86552 0
M  V30 1444 C 137.402 1.51617 5.11711 0
M  V30 1445 O 137.625 0.416331 5.68879 0
M  V30 1446 O 136.559 2.34975 5.54139 0
M  V30 1447 H 140.385 2.0412 2.24875 0
M  V30 1448 H 137.97 1.05182 1.061 0
M  V30 1449 H 139.852 0.529787 4.18056 0
M  V30 1450 H 138.527 -0.197159 3.23099 0
M  V30 1451 H 137.434 2.11558 3.08535 0
M  V30 1452 H 138.767 2.76719 4.07047 0
M  V30 1453 N 140.419 -1.14872 1.07899 0
M  V30 1454 C 141.696 -1.81928 0.71845 0
M  V30 1455 C 142.076 -1.95417 -0.798455 0
M  V30 1456 O 141.424 -1.50997 -1.715 0
M  V30 1457 C 141.634 -3.17937 1.43935 0
M  V30 1458 C 142.982 -3.93501 1.59506 0
M  V30 1459 O 144.006 -3.27509 1.40058 0
M  V30 1460 O 142.865 -5.1183 1.91551 0
M  V30 1461 H 139.959 -0.78628 0.256305 0
M  V30 1462 H 142.505 -1.21934 1.18026 0
M  V30 1463 H 141.277 -3.0325 2.47295 0
M  V30 1464 H 140.9 -3.85619 0.968687 0
M  V30 1465 N 141.898 -0.863906 -1.31812 0
M  V30 1466 C 143.126 -0.486111 -2.01108 0
M  V30 1467 C 143.541 0.919755 -1.64882 0
M  V30 1468 O 142.898 1.60162 -0.874893 0
M  V30 1469 C 142.949 -0.626435 -3.56031 0
M  V30 1470 O 142.67 -1.97693 -3.90959 0
M  V30 1471 C 144.171 -0.248857 -4.42601 0
M  V30 1472 H 141.391 -0.190052 -0.643523 0
M  V30 1473 H 143.935 -1.1634 -1.68182 0
M  V30 1474 H 142.09 0.00322717 -3.874 0
M  V30 1475 H 142.504 -1.98034 -4.85678 0
M  V30 1476 H 143.978 -0.398016 -5.50563 0
M  V30 1477 H 144.455 0.811489 -4.31638 0
M  V30 1478 H 145.061 -0.853971 -4.16638 0
M  V30 1479 N 143.376 1.44774 -0.622745 0
M  V30 1480 C 144.306 2.33382 0.0741861 0
M  V30 1481 C 145.287 1.47719 0.843387 0
M  V30 1482 O 146.472 1.76458 0.810934 0
M  V30 1483 C 143.602 3.30663 1.06204 0
M  V30 1484 C 142.556 4.26079 0.405037 0
M  V30 1485 C 141.882 5.13165 1.5022 0
M  V30 1486 C 143.182 5.1781 -0.683414 0
M  V30 1487 H 144.876 2.91905 -0.665713 0
M  V30 1488 H 142.422 1.40363 -0.321587 0
M  V30 1489 H 144.375 3.9153 1.55827 0
M  V30 1490 H 143.099 2.70331 1.83272 0
M  V30 1491 H 141.758 3.66532 -0.0704683 0
M  V30 1492 H 141.406 4.49191 2.26355 0
M  V30 1493 H 141.106 5.77812 1.06803 0
M  V30 1494 H 142.63 5.76902 2.00041 0
M  V30 1495 H 144.044 5.72661 -0.270631 0
M  V30 1496 H 142.441 5.91015 -1.04023 0
M  V30 1497 H 143.511 4.59326 -1.55395 0
M  V30 1498 N 144.854 0.36279 1.53368 0
M  V30 1499 C 146.079 -0.231226 2.06107 0
M  V30 1500 C 146.504 -1.419 1.23474 0
M  V30 1501 O 145.862 -1.79524 0.253128 0
M  V30 1502 C 145.91 -0.605523 3.5548 0
M  V30 1503 O 145.014 -1.70312 3.7559 0
M  V30 1504 H 144.355 -0.034327 0.663112 0
M  V30 1505 H 146.885 0.522584 1.97814 0
M  V30 1506 H 146.895 -0.877314 3.98456 0
M  V30 1507 H 145.57 0.263004 4.15068 0
M  V30 1508 H 144.147 -1.4271 3.44512 0
M  V30 1509 N 146.332 -1.57332 0.0918853 0
M  V30 1510 C 147.578 -1.95328 -0.567313 0
M  V30 1511 C 147.933 -0.972866 -1.65991 0
M  V30 1512 O 147.226 0.00166256 -1.916 0
M  V30 1513 C 147.42 -3.37689 -1.17051 0
M  V30 1514 C 147.249 -4.49489 -0.137875 0
M  V30 1515 C 146.019 -5.04498 0.284515 0
M  V30 1516 C 148.217 -5.10393 0.63271 0
M  V30 1517 N 146.199 -5.99853 1.30576 0
M  V30 1518 C 147.57 -6.01435 1.50587 0
M  V30 1519 C 149.625 -4.93143 0.68658 0
M  V30 1520 C 148.328 -6.77077 2.42815 0
M  V30 1521 C 150.354 -5.69445 1.59645 0
M  V30 1522 C 149.716 -6.60151 2.45725 0
M  V30 1523 H 145.815 -0.761467 -0.178023 0
M  V30 1524 H 148.399 -1.93924 0.173706 0
M  V30 1525 H 146.57 -3.39793 -1.88136 0
M  V30 1526 H 148.302 -3.62872 -1.79181 0
M  V30 1527 H 145.057 -4.73489 -0.102593 0
M  V30 1528 H 145.481 -6.52231 1.81449 0
M  V30 1529 H 150.123 -4.22785 0.035244 0
M  V30 1530 H 147.841 -7.46699 3.08975 0
M  V30 1531 H 151.427 -5.58112 1.64323 0
M  V30 1532 H 150.307 -7.18159 3.14987 0
M  V30 1533 N 147.81 0.181792 -1.56548 0
M  V30 1534 C 149.059 0.898348 -1.8059 0
M  V30 1535 C 149.372 1.83862 -0.667379 0
M  V30 1536 O 150.578 2.59678 -0.792446 0
M  V30 1537 C 149.034 1.64791 -3.19956 0
M  V30 1538 C 148.642 0.751789 -4.41647 0
M  V30 1539 C 150.386 2.35331 -3.53298 0
M  V30 1540 C 148.293 1.50098 -5.72035 0
M  V30 1541 H 147.223 0.339194 -0.673397 0
M  V30 1542 H 149.874 0.151413 -1.82874 0
M  V30 1543 H 148.256 2.43921 -3.11959 0
M  V30 1544 H 149.43 -0.0018076 -4.608 0
M  V30 1545 H 147.745 0.156562 -4.16106 0
M  V30 1546 H 150.342 2.91958 -4.47956 0
M  V30 1547 H 150.685 3.10164 -2.77676 0
M  V30 1548 H 151.218 1.63154 -3.62803 0
M  V30 1549 H 147.957 0.795175 -6.50659 0
M  V30 1550 H 147.477 2.22817 -5.56878 0
M  V30 1551 H 149.156 2.05125 -6.13622 0
M  V30 1552 N 149.288 1.51039 0.449983 0
M  V30 1553 C 150.218 1.74379 1.55288 0
M  V30 1554 C 151.199 0.593236 1.5942 0
M  V30 1555 O 152.384 0.834625 1.7535 0
M  V30 1556 C 149.514 1.85728 2.93466 0
M  V30 1557 C 148.468 3.01078 3.04197 0
M  V30 1558 C 147.794 2.97595 4.44231 0
M  V30 1559 C 149.094 4.41254 2.7945 0
M  V30 1560 H 150.788 2.66725 1.36008 0
M  V30 1561 H 148.334 1.2835 0.652864 0
M  V30 1562 H 150.287 2.0064 3.70569 0
M  V30 1563 H 149.011 0.900207 3.13949 0
M  V30 1564 H 147.67 2.85851 2.29531 0
M  V30 1565 H 147.318 1.99691 4.61663 0
M  V30 1566 H 147.018 3.75046 4.52343 0
M  V30 1567 H 148.542 3.14583 5.23326 0
M  V30 1568 H 149.956 4.56897 3.46292 0
M  V30 1569 H 148.353 5.20315 2.98985 0
M  V30 1570 H 149.423 4.52164 1.75144 0
M  V30 1571 N 150.766 -0.704594 1.40972 0
M  V30 1572 C 151.676 -1.84856 1.44448 0
M  V30 1573 C 152.692 -1.70726 0.335961 0
M  V30 1574 O 153.868 -1.92799 0.582276 0
M  V30 1575 C 150.933 -3.20758 1.31587 0
M  V30 1576 C 149.994 -3.47063 2.52677 0
M  V30 1577 C 149.227 -4.76481 2.4042 0
M  V30 1578 O 149.45 -5.52341 1.42391 0
M  V30 1579 O 148.384 -5.03367 3.30007 0
M  V30 1580 H 152.21 -1.8488 2.40942 0
M  V30 1581 H 149.795 -0.85647 1.22413 0
M  V30 1582 H 151.677 -4.01913 1.26665 0
M  V30 1583 H 150.352 -3.21438 0.382049 0
M  V30 1584 H 149.259 -2.65873 2.63177 0
M  V30 1585 H 150.592 -3.5119 3.44858 0
M  V30 1586 N 152.244 -1.26651 -0.937939 0
M  V30 1587 C 153.176 -1.04283 -2.04102 0
M  V30 1588 C 154.189 -0.00221014 -1.628 0
M  V30 1589 O 155.378 -0.242645 -1.76843 0
M  V30 1590 C 152.478 -0.557846 -3.34277 0
M  V30 1591 C 151.651 -1.66843 -4.04329 0
M  V30 1592 C 150.71 -1.18095 -5.12777 0
M  V30 1593 O 149.736 -1.87865 -5.37304 0
M  V30 1594 N 150.938 -0.0311006 -5.80492 0
M  V30 1595 H 153.703 -1.9927 -2.23856 0
M  V30 1596 H 151.264 -1.1808 -1.10764 0
M  V30 1597 H 153.256 -0.215836 -4.04124 0
M  V30 1598 H 151.826 0.298523 -3.11171 0
M  V30 1599 H 151.046 -2.18123 -3.28353 0
M  V30 1600 H 152.334 -2.41408 -4.47883 0
M  V30 1601 H 151.732 0.551486 -5.63005 0
M  V30 1602 H 150.289 0.251809 -6.51313 0
M  V30 1603 N 153.722 1.14298 -1.08507 0
M  V30 1604 C 154.685 2.17607 -0.719711 0
M  V30 1605 C 155.685 1.58907 0.245997 0
M  V30 1606 O 156.875 1.74181 0.0254081 0
M  V30 1607 C 154.007 3.40842 -0.0627695 0
M  V30 1608 H 155.2 2.51443 -1.63452 0
M  V30 1609 H 152.753 1.28963 -0.88307 0
M  V30 1610 H 153.488 3.12587 0.863716 0
M  V30 1611 H 153.273 3.84713 -0.757504 0
M  V30 1612 H 154.763 4.17221 0.177786 0
M  V30 1613 N 155.201 0.870884 1.31352 0
M  V30 1614 C 156.447 0.492314 1.97352 0
M  V30 1615 C 156.802 -0.945174 1.67583 0
M  V30 1616 O 156.095 -1.65674 0.962423 0
M  V30 1617 C 156.289 0.687157 3.50732 0
M  V30 1618 C 156.118 2.14203 3.95407 0
M  V30 1619 C 154.888 2.78382 4.21701 0
M  V30 1620 C 157.086 3.1144 4.09279 0
M  V30 1621 N 155.068 4.14611 4.52737 0
M  V30 1622 C 156.439 4.32702 4.44037 0
M  V30 1623 C 158.494 3.07418 3.91661 0
M  V30 1624 C 157.197 5.50463 4.63015 0
M  V30 1625 C 159.223 4.24438 4.11833 0
M  V30 1626 C 158.585 5.44463 4.46923 0
M  V30 1627 H 154.684 0.229206 0.747655 0
M  V30 1628 H 157.268 1.12568 1.5886 0
M  V30 1629 H 155.439 0.083384 3.8831 0
M  V30 1630 H 157.171 0.276883 4.03752 0
M  V30 1631 H 153.926 2.29326 4.14375 0
M  V30 1632 H 154.35 4.84928 4.72413 0
M  V30 1633 H 158.992 2.15732 3.6362 0
M  V30 1634 H 156.71 6.42666 4.89904 0
M  V30 1635 H 160.296 4.2278 3.99685 0
M  V30 1636 H 159.176 6.33504 4.62214 0
M  V30 1637 N 156.679 -1.44442 0.630414 0
M  V30 1638 C 157.919 -2.03934 0.137919 0
M  V30 1639 C 158.283 -1.48509 -1.21692 0
M  V30 1640 O 159.484 -1.99499 -1.80149 0
M  V30 1641 C 157.755 -3.57187 0.123373 0
M  V30 1642 S 159.314 -4.37741 -0.304604 0
M  V30 1643 H 156.132 -0.708401 0.0607353 0
M  V30 1644 H 158.734 -1.76835 0.833643 0
M  V30 1645 H 157.438 -3.95032 1.11256 0
M  V30 1646 H 156.969 -3.88895 -0.59362 0
M  V30 1647 H 158.984 -4.71403 -1.54897 0
M  V30 1648 N 158.157 -0.370918 -1.53173 0
M  V30 1649 C 159.434 0.273754 -1.93675 0
M  V30 1650 C 159.814 1.65938 -1.3049 0
M  V30 1651 O 159.162 2.23698 -0.465999 0
M  V30 1652 C 159.372 0.318602 -3.47543 0
M  V30 1653 C 160.72 0.556392 -4.20939 0
M  V30 1654 O 161.744 0.399587 -3.53952 0
M  V30 1655 O 160.603 0.862133 -5.39657 0
M  V30 1656 H 157.697 0.165448 -0.810281 0
M  V30 1657 H 160.243 -0.42409 -1.64315 0
M  V30 1658 H 159.015 -0.652687 -3.85818 0
M  V30 1659 H 158.638 1.06212 -3.83151 0
M  V30 1660 N 159.635 1.57281 -0.100228 0
M  V30 1661 C 160.883 1.94153 0.561157 0
M  V30 1662 C 161.204 0.983157 1.68401 0
M  V30 1663 O 160.474 0.0361132 1.95867 0
M  V30 1664 H 159.054 0.716791 0.210283 0
M  V30 1665 H 161.716 1.94202 -0.164765 0
M  V30 1666 H 160.812 2.96709 0.968008 0
M  V30 1667 N 161.113 -0.173488 1.56642 0
M  V30 1668 C 162.061 -1.23417 1.97157 0
M  V30 1669 C 163.055 -1.45946 0.860013 0
M  V30 1670 O 164.261 -1.46551 1.04512 0
M  V30 1671 H 160.636 -0.414818 0.62724 0
M  V30 1672 H 162.607 -0.865582 2.8557 0
M  V30 1673 C 161.356 -2.5665 2.34576 0
M  V30 1674 H 160.679 -2.40137 3.19647 0
M  V30 1675 H 162.119 -3.2956 2.6677 0
M  V30 1676 C 160.578 -3.15245 1.18836 0
M  V30 1677 O 161.108 -3.98883 0.474869 0
M  V30 1678 N 159.314 -2.74303 0.959497 0
M  V30 1679 H 158.861 -2.0639 1.54146 0
M  V30 1680 H 158.819 -3.13844 0.186932 0
M  V30 1681 N 162.591 -1.51276 -0.441967 0
M  V30 1682 C 163.837 -1.63958 -1.19355 0
M  V30 1683 C 164.17 -0.352543 -1.90973 0
M  V30 1684 O 163.445 0.647627 -1.83401 0
M  V30 1685 C 163.728 -2.83979 -2.21422 0
M  V30 1686 C 163.581 -4.22646 -1.53918 0
M  V30 1687 C 164.9 -2.99521 -3.22451 0
M  V30 1688 H 162.019 -0.596709 -0.432559 0
M  V30 1689 H 164.661 -1.83748 -0.483398 0
M  V30 1690 H 162.811 -2.67237 -2.81987 0
M  V30 1691 H 164.483 -4.51045 -0.967256 0
M  V30 1692 H 162.726 -4.25558 -0.841615 0
M  V30 1693 H 163.397 -5.02609 -2.28229 0
M  V30 1694 H 165.873 -3.14944 -2.71937 0
M  V30 1695 H 164.749 -3.85072 -3.91166 0
M  V30 1696 H 165.01 -2.11391 -3.88287 0
M  V30 1697 N 164.069 0.697108 -1.41344 0
M  V30 1698 C 165.317 1.45426 -1.40341 0
M  V30 1699 C 165.638 1.94996 -0.0128787 0
M  V30 1700 O 164.908 1.71599 0.945027 0
M  V30 1701 H 163.488 0.539594 -0.516573 0
M  V30 1702 H 166.15 0.825201 -1.76569 0
M  V30 1703 H 165.246 2.31817 -2.08967 0
M  V30 1704 N 165.547 1.27147 0.931209 0
M  V30 1705 C 166.48 1.0389 2.0318 0
M  V30 1706 C 167.458 -0.0395716 1.62552 0
M  V30 1707 O 168.642 0.104867 1.88208 0
M  V30 1708 C 165.769 0.575227 3.3378 0
M  V30 1709 C 164.815 1.64774 3.93385 0
M  V30 1710 S 165.648 3.23933 4.26413 0
M  V30 1711 C 166.804 2.79358 5.60098 0
M  V30 1712 H 167.037 1.97075 2.22596 0
M  V30 1713 H 164.57 1.10938 1.07387 0
M  V30 1714 H 166.528 0.314385 4.09294 0
M  V30 1715 H 165.189 -0.336505 3.12292 0
M  V30 1716 H 164.382 1.27454 4.87618 0
M  V30 1717 H 163.984 1.86048 3.24441 0
M  V30 1718 H 166.276 2.24443 6.39243 0
M  V30 1719 H 167.219 3.72322 6.02314 0
M  V30 1720 H 167.627 2.1861 5.20452 0
M  V30 1721 N 167.025 -1.13721 1.09112 0
M  V30 1722 C 168.272 -1.84924 0.825192 0
M  V30 1723 C 168.6 -1.83347 -0.649151 0
M  V30 1724 O 167.855 -1.26449 -1.49362 0
M  V30 1725 C 168.154 -3.32861 1.30146 0
M  V30 1726 C 167.82 -3.54621 2.78486 0
M  V30 1727 C 166.482 -3.60268 3.18999 0
M  V30 1728 C 168.834 -3.62855 3.74146 0
M  V30 1729 C 166.162 -3.71679 4.53951 0
M  V30 1730 C 168.514 -3.75793 5.08883 0
M  V30 1731 C 167.178 -3.79692 5.4899 0
M  V30 1732 H 166.448 -0.676684 0.301959 0
M  V30 1733 H 169.095 -1.3428 1.36533 0
M  V30 1734 H 167.4 -3.85835 0.681064 0
M  V30 1735 H 169.097 -3.86395 1.07236 0
M  V30 1736 H 165.687 -3.50879 2.46134 0
M  V30 1737 H 169.871 -3.57775 3.43963 0
M  V30 1738 H 165.127 -3.72963 4.84467 0
M  V30 1739 H 169.301 -3.81107 5.82864 0
M  V30 1740 H 166.928 -3.88287 6.53558 0
M  V30 1741 N 168.503 -0.877838 -1.30888 0
M  V30 1742 C 169.751 -0.491723 -1.96027 0
M  V30 1743 C 170.072 0.960827 -1.69685 0
M  V30 1744 O 169.342 1.67462 -1.01654 0
M  V30 1745 H 167.922 -0.17885 -0.725273 0
M  V30 1746 H 170.584 -1.11935 -1.59551 0
M  V30 1747 H 169.68 -0.656016 -3.05128 0
M  V30 1748 N 169.982 1.44106 -0.638065 0
M  V30 1749 C 171.228 2.02277 -0.145546 0
M  V30 1750 C 171.561 1.50125 1.23191 0
M  V30 1751 O 170.836 0.688133 1.8192 0
M  V30 1752 C 171.119 3.59829 -0.139791 0
M  V30 1753 C 170.972 4.22247 -1.55008 0
M  V30 1754 C 172.291 4.36873 0.531966 0
M  V30 1755 H 169.41 0.734992 -0.0543632 0
M  V30 1756 H 172.052 1.71592 -0.815863 0
M  V30 1757 H 170.202 3.86102 0.431007 0
M  V30 1758 H 171.874 4.07057 -2.1703 0
M  V30 1759 H 170.117 3.79476 -2.10191 0
M  V30 1760 H 170.788 5.31284 -1.49804 0
M  V30 1761 H 173.264 4.16074 0.0464781 0
M  V30 1762 H 172.14 5.4657 0.505206 0
M  V30 1763 H 172.401 4.11995 1.60352 0
M  V30 1764 N 171.46 0.379036 1.52974 0
M  V30 1765 C 172.685 -0.209353 2.06341 0
M  V30 1766 C 173.11 -1.40583 1.24972 0
M  V30 1767 O 172.468 -1.79246 0.272155 0
M  V30 1768 C 172.516 -0.567786 3.56102 0
M  V30 1769 O 171.62 -1.66318 3.77375 0
M  V30 1770 H 170.961 -0.0272919 0.663439 0
M  V30 1771 H 173.491 0.543536 1.97248 0
M  V30 1772 H 173.501 -0.835003 3.99364 0
M  V30 1773 H 172.176 0.307013 4.14765 0
M  V30 1774 H 170.753 -1.39048 3.46006 0
M  V30 1775 N 172.938 -1.57226 0.108567 0
M  V30 1776 C 174.168 -1.9889 -0.559142 0
M  V30 1777 C 174.576 -0.986889 -1.61422 0
M  V30 1778 O 173.919 0.0298705 -1.83676 0
M  V30 1779 C 173.981 -3.36952 -1.25315 0
M  V30 1780 C 173.645 -4.55679 -0.347248 0
M  V30 1781 C 174.642 -5.18281 0.409996 0
M  V30 1782 C 172.327 -5.0162 -0.261367 0
M  V30 1783 C 174.321 -6.25203 1.24096 0
M  V30 1784 C 172.008 -6.08405 0.573238 0
M  V30 1785 C 173.006 -6.70063 1.32304 0
M  V30 1786 O 172.694 -7.74788 2.14381 0
M  V30 1787 H 172.426 -0.658343 -0.153492 0
M  V30 1788 H 174.98 -2.04532 0.188584 0
M  V30 1789 H 173.21 -3.28032 -2.04773 0
M  V30 1790 H 174.899 -3.62974 -1.81673 0
M  V30 1791 H 175.665 -4.8371 0.353457 0
M  V30 1792 H 171.544 -4.53381 -0.834656 0
M  V30 1793 H 175.088 -6.73259 1.82669 0
M  V30 1794 H 170.985 -6.42406 0.631208 0
M  V30 1795 H 171.753 -7.91837 2.07209 0
M  V30 1796 N 174.416 0.165178 -1.56732 0
M  V30 1797 C 175.346 1.20651 -1.99914 0
M  V30 1798 C 176.327 1.45827 -0.875705 0
M  V30 1799 O 177.512 1.57057 -1.14223 0
M  V30 1800 C 174.642 2.54401 -2.36427 0
M  V30 1801 C 173.596 2.43782 -3.51787 0
M  V30 1802 C 172.922 3.82078 -3.7406 0
M  V30 1803 C 174.222 1.93732 -4.85041 0
M  V30 1804 H 175.916 0.847534 -2.87154 0
M  V30 1805 H 173.462 0.40625 -1.38151 0
M  V30 1806 H 175.415 3.27458 -2.65234 0
M  V30 1807 H 174.139 2.92098 -1.46103 0
M  V30 1808 H 172.798 1.73178 -3.23117 0
M  V30 1809 H 172.446 4.17179 -2.81017 0
M  V30 1810 H 172.146 3.7584 -4.51684 0
M  V30 1811 H 173.67 4.56712 -4.05274 0
M  V30 1812 H 175.084 2.56569 -5.12684 0
M  V30 1813 H 173.481 1.98428 -5.66345 0
M  V30 1814 H 174.551 0.891962 -4.76626 0
M  V30 1815 N 175.894 1.51508 0.433938 0
M  V30 1816 C 177.142 1.6402 1.18075 0
M  V30 1817 C 177.463 0.360328 1.91642 0
M  V30 1818 O 176.733 -0.623945 1.85698 0
M  V30 1819 H 175.313 0.6045 0.43885 0
M  V30 1820 H 177.975 1.88452 0.497178 0
M  V30 1821 H 177.071 2.46949 1.90847 0
M  V30 1822 N 177.372 -0.689602 1.41712 0
M  V30 1823 C 178.618 -1.45181 1.41599 0
M  V30 1824 C 178.951 -1.94181 0.0270081 0
M  V30 1825 O 178.226 -1.6993 -0.946265 0
M  V30 1826 C 178.509 -2.65945 2.42787 0
M  V30 1827 C 178.362 -2.22672 3.90816 0
M  V30 1828 C 179.681 -3.68149 2.41151 0
M  V30 1829 H 176.8 -0.526576 0.515642 0
M  V30 1830 H 179.442 -0.784947 1.73028 0
M  V30 1831 H 177.592 -3.2284 2.16116 0
M  V30 1832 H 179.264 -1.71058 4.28412 0
M  V30 1833 H 177.507 -1.54394 4.05395 0
M  V30 1834 H 178.178 -3.0935 4.57172 0
M  V30 1835 H 180.654 -3.2094 2.64834 0
M  V30 1836 H 179.53 -4.50248 3.13955 0
M  V30 1837 H 179.791 -4.18259 1.43221 0
M  V30 1838 N 178.85 -1.27639 -0.924453 0
M  V30 1839 C 180.078 -1.16989 -1.70649 0
M  V30 1840 C 180.493 0.272869 -1.86818 0
M  V30 1841 O 179.85 1.18549 -1.38753 0
M  V30 1842 C 179.901 -1.85229 -3.10439 0
M  V30 1843 O 179.622 -3.23868 -2.95028 0
M  V30 1844 C 181.123 -1.80746 -4.04779 0
M  V30 1845 H 178.343 -0.406595 -0.53378 0
M  V30 1846 H 180.887 -1.68569 -1.15778 0
M  V30 1847 H 179.042 -1.37545 -3.6216 0
M  V30 1848 H 179.456 -3.57889 -3.83426 0
M  V30 1849 H 180.93 -2.33101 -5.00368 0
M  V30 1850 H 181.407 -0.777499 -4.32263 0
M  V30 1851 H 182.013 -2.28059 -3.58984 0
M  V30 1852 N 180.328 1.1314 -1.09713 0
M  V30 1853 C 181.26 2.18343 -0.697056 0
M  V30 1854 C 182.273 1.60669 0.262551 0
M  V30 1855 O 183.462 1.78435 0.0481527 0
M  V30 1856 C 180.562 3.38899 -0.00684728 0
M  V30 1857 C 179.735 4.26078 -0.988741 0
M  V30 1858 C 178.794 5.25155 -0.331394 0
M  V30 1859 O 177.82 5.60701 -0.979926 0
M  V30 1860 N 179.022 5.73271 0.913261 0
M  V30 1861 H 181.787 2.5328 -1.60216 0
M  V30 1862 H 179.348 1.28491 -0.984971 0
M  V30 1863 H 181.34 4.02255 0.444191 0
M  V30 1864 H 179.91 3.02175 0.800551 0
M  V30 1865 H 179.13 3.59453 -1.61826 0
M  V30 1866 H 180.418 4.81178 -1.65364 0
M  V30 1867 H 179.816 5.46544 1.45966 0
M  V30 1868 H 178.373 6.3855 1.30757 0
M  V30 1869 N 181.806 0.884767 1.30421 0
M  V30 1870 C 183.052 0.513218 1.96819 0
M  V30 1871 C 183.407 -0.927347 1.68577 0
M  V30 1872 O 182.7 -1.64644 0.979941 0
M  V30 1873 C 182.894 0.724318 3.49983 0
M  V30 1874 C 182.723 2.18385 3.93113 0
M  V30 1875 C 181.493 2.82839 4.18725 0
M  V30 1876 C 183.691 3.15763 4.05953 0
M  V30 1877 N 181.673 4.1939 4.48314 0
M  V30 1878 C 183.044 4.37387 4.39423 0
M  V30 1879 C 185.099 3.11555 3.88379 0
M  V30 1880 C 183.802 5.55343 4.5715 0
M  V30 1881 C 185.828 4.28782 4.07308 0
M  V30 1882 C 185.19 5.49172 4.41123 0
M  V30 1883 H 181.289 0.237123 0.745182 0
M  V30 1884 H 183.873 1.14246 1.57658 0
M  V30 1885 H 182.044 0.124565 3.882 0
M  V30 1886 H 183.776 0.31969 4.03435 0
M  V30 1887 H 180.531 2.33708 4.11919 0
M  V30 1888 H 180.955 4.89911 4.67243 0
M  V30 1889 H 185.597 2.19576 3.61312 0
M  V30 1890 H 183.315 6.47826 4.8306 0
M  V30 1891 H 186.901 4.26995 3.95179 0
M  V30 1892 H 185.781 6.38371 4.55469 0
M  V30 1893 N 183.284 -1.43765 0.645699 0
M  V30 1894 C 184.216 -2.29027 -0.0890605 0
M  V30 1895 C 185.229 -1.42093 -0.794563 0
M  V30 1896 O 186.418 -1.66104 -0.653575 0
M  V30 1897 C 183.518 -3.18831 -1.14891 0
M  V30 1898 C 182.691 -4.34261 -0.523043 0
M  V30 1899 C 181.75 -5.04994 -1.47878 0
M  V30 1900 O 180.776 -5.6052 -0.990277 0
M  V30 1901 N 181.978 -5.07795 -2.81291 0
M  V30 1902 H 184.743 -2.92727 0.64272 0
M  V30 1903 H 182.304 -1.54373 0.487924 0
M  V30 1904 H 184.296 -3.63015 -1.78892 0
M  V30 1905 H 182.866 -2.56782 -1.78275 0
M  V30 1906 H 182.086 -3.93088 0.295896 0
M  V30 1907 H 183.374 -5.08728 -0.0858147 0
M  V30 1908 H 182.772 -4.64042 -3.23546 0
M  V30 1909 H 181.329 -5.55721 -3.40614 0
M  V30 1910 N 184.763 -0.387143 -1.52771 0
M  V30 1911 C 185.726 0.436939 -2.24997 0
M  V30 1912 C 186.726 0.991991 -1.26555 0
M  V30 1913 O 187.916 0.874335 -1.50669 0
M  V30 1914 C 185.048 1.61281 -3.00335 0
M  V30 1915 H 186.241 -0.195365 -2.99263 0
M  V30 1916 H 183.794 -0.139218 -1.55679 0
M  V30 1917 H 184.529 2.2826 -2.30364 0
M  V30 1918 H 184.314 1.22154 -3.72587 0
M  V30 1919 H 185.804 2.19629 -3.5518 0
M  V30 1920 N 186.241 1.57166 -0.116904 0
M  V30 1921 C 187.204 2.14039 0.819742 0
M  V30 1922 C 188.204 1.07477 1.19605 0
M  V30 1923 O 189.394 1.33263 1.1219 0
M  V30 1924 C 186.526 2.67891 2.10826 0
M  V30 1925 H 187.719 2.98128 0.325511 0
M  V30 1926 H 185.272 1.55739 0.132312 0
M  V30 1927 H 186.007 1.87384 2.64685 0
M  V30 1928 H 185.792 3.45823 1.84793 0
M  V30 1929 H 187.282 3.11809 2.77785 0
M  V30 1930 N 187.719 -0.156864 1.56817 0
M  V30 1931 C 188.965 -0.872416 1.83076 0
M  V30 1932 C 189.298 -1.81261 0.697001 0
M  V30 1933 O 188.573 -1.92171 -0.30008 0
M  V30 1934 C 188.856 -1.65551 3.19789 0
M  V30 1935 C 188.709 -0.737467 4.43713 0
M  V30 1936 C 190.028 -2.62012 3.53606 0
M  V30 1937 H 187.147 -0.315715 0.665953 0
M  V30 1938 H 189.789 -0.138004 1.89498 0
M  V30 1939 H 187.939 -2.28159 3.14445 0
M  V30 1940 H 189.611 -0.123143 4.61136 0
M  V30 1941 H 187.854 -0.0464067 4.33775 0
M  V30 1942 H 188.525 -1.32122 5.35955 0
M  V30 1943 H 191.001 -2.09525 3.59497 0
M  V30 1944 H 189.877 -3.13861 4.50314 0
M  V30 1945 H 190.138 -3.42902 2.79053 0
M  V30 1946 N 189.197 -1.51736 -0.425897 0
M  V30 1947 C 190.422 -1.69082 -1.20108 0
M  V30 1948 C 190.847 -0.392398 -1.83962 0
M  V30 1949 O 190.205 0.64858 -1.69302 0
M  V30 1950 C 190.253 -2.81604 -2.25237 0
M  V30 1951 O 189.357 -2.46004 -3.30992 0
M  V30 1952 H 188.698 -0.563408 -0.35138 0
M  V30 1953 H 191.228 -1.98358 -0.501512 0
M  V30 1954 H 191.238 -3.06025 -2.69838 0
M  V30 1955 H 189.913 -3.75817 -1.78142 0
M  V30 1956 H 188.49 -2.32195 -2.91787 0
M  V30 1957 N 190.675 0.682077 -1.42076 0
M  V30 1958 C 191.923 1.4393 -1.41876 0
M  V30 1959 C 192.244 1.94971 -0.0335599 0
M  V30 1960 O 191.514 1.72591 0.926773 0
M  V30 1961 H 190.094 0.534085 -0.522267 0
M  V30 1962 H 192.756 0.806427 -1.77434 0
M  V30 1963 H 191.852 2.29588 -2.11414 0
M  V30 1964 N 192.153 1.28127 0.917671 0
M  V30 1965 C 193.399 1.15223 1.66888 0
M  V30 1966 C 193.732 -0.299293 1.9188 0
M  V30 1967 O 193.007 -1.21805 1.51637 0
M  V30 1968 C 193.29 1.94706 3.02922 0
M  V30 1969 C 193.143 3.47898 2.85109 0
M  V30 1970 C 194.462 1.75939 4.03402 0
M  V30 1971 H 191.581 0.419946 0.605652 0
M  V30 1972 H 194.223 1.57398 1.06423 0
M  V30 1973 H 192.373 1.58864 3.54534 0
M  V30 1974 H 194.045 3.93624 2.40537 0
M  V30 1975 H 192.288 3.7373 2.20246 0
M  V30 1976 H 192.959 3.98765 3.81694 0
M  V30 1977 H 195.435 2.07209 3.60837 0
M  V30 1978 H 194.311 2.33931 4.96556 0
M  V30 1979 H 194.572 0.709877 4.36364 0
M  V30 1980 N 193.631 -1.12557 1.10312 0
M  V30 1981 C 194.879 -1.83675 0.843091 0
M  V30 1982 C 195.2 -1.84435 -0.633131 0
M  V30 1983 O 194.47 -1.30657 -1.45964 0
M  V30 1984 H 193.05 -0.680138 0.308904 0
M  V30 1985 H 195.712 -1.36301 1.39313 0
M  V30 1986 H 194.808 -2.87908 1.2048 0
M  V30 1987 N 195.109 -0.891671 -1.2995 0
M  V30 1988 C 196.357 -0.512486 -1.95494 0
M  V30 1989 C 196.678 0.942776 -1.70695 0
M  V30 1990 O 195.948 1.66374 -1.03424 0
M  V30 1991 H 194.528 -0.186533 -0.723336 0
M  V30 1992 H 197.19 -1.13621 -1.58355 0
M  V30 1993 H 196.286 -0.688342 -3.04415 0
M  V30 1994 N 196.587 1.43421 -0.653314 0
M  V30 1995 C 197.517 2.33487 0.0246656 0
M  V30 1996 C 198.498 1.49475 0.811863 0
M  V30 1997 O 199.683 1.78139 0.773322 0
M  V30 1998 C 196.813 3.32841 0.99166 0
M  V30 1999 C 195.767 4.26842 0.314568 0
M  V30 2000 C 195.093 5.16236 1.39302 0
M  V30 2001 C 196.393 5.16243 -0.793095 0
M  V30 2002 H 198.087 2.90427 -0.727481 0
M  V30 2003 H 195.633 1.39649 -0.351287 0
M  V30 2004 H 197.586 3.94747 1.47487 0
M  V30 2005 H 196.31 2.74158 1.77497 0
M  V30 2006 H 194.969 3.663 -0.148199 0
M  V30 2007 H 194.617 4.53891 2.16776 0
M  V30 2008 H 194.317 5.79948 0.945223 0
M  V30 2009 H 195.841 5.81015 1.87759 0
M  V30 2010 H 197.255 5.71958 -0.392039 0
M  V30 2011 H 195.652 5.88676 -1.16536 0
M  V30 2012 H 196.722 4.55927 -1.65103 0
M  V30 2013 N 198.065 0.39524 1.52563 0
M  V30 2014 C 199.012 -0.437036 2.26624 0
M  V30 2015 C 199.982 -1.05281 1.28472 0
M  V30 2016 O 201.167 -1.07971 1.57311 0
M  V30 2017 C 198.307 -1.55524 3.08069 0
M  V30 2018 C 197.42 -0.961745 4.21158 0
M  V30 2019 C 196.555 -2.05149 4.89987 0
M  V30 2020 C 195.594 -1.4342 5.95061 0
M  V30 2021 N 194.731 -2.46351 6.57462 0
M  V30 2022 H 199.571 0.200976 2.97322 0
M  V30 2023 H 197.108 0.110944 1.46681 0
M  V30 2024 H 199.066 -2.21437 3.53584 0
M  V30 2025 H 197.696 -2.16348 2.3957 0
M  V30 2026 H 196.748 -0.192048 3.79915 0
M  V30 2027 H 198.06 -0.470701 4.96574 0
M  V30 2028 H 197.214 -2.78819 5.38837 0
M  V30 2029 H 195.953 -2.57615 4.14109 0
M  V30 2030 H 194.958 -0.682774 5.45544 0
M  V30 2031 H 196.183 -0.917416 6.72875 0
M  V30 2032 H 194.129 -2.97975 5.8442 0
M  V30 2033 H 194.046 -2.02019 7.28508 0
M  V30 2034 H 195.314 -3.19633 7.10954 0
M  V30 2035 N 199.544 -1.57102 0.125237 0
M  V30 2036 C 200.507 -2.14471 -0.80838 0
M  V30 2037 C 201.507 -1.0811 -1.19033 0
M  V30 2038 O 202.697 -1.33856 -1.11482 0
M  V30 2039 C 199.829 -2.69005 -2.09402 0
M  V30 2040 H 201.022 -2.98297 -0.309696 0
M  V30 2041 H 198.575 -1.55807 -0.124051 0
M  V30 2042 H 199.31 -1.88785 -2.63687 0
M  V30 2043 H 199.095 -3.46799 -1.82957 0
M  V30 2044 H 200.585 -3.13278 -2.76128 0
M  V30 2045 N 201.022 0.148545 -1.56898 0
M  V30 2046 C 202.271 0.85984 -1.82454 0
M  V30 2047 C 202.584 1.82406 -0.706229 0
M  V30 2048 O 203.79 2.57938 -0.847349 0
M  V30 2049 C 202.246 1.57967 -3.2338 0
M  V30 2050 C 201.854 0.65794 -4.43142 0
M  V30 2051 C 203.598 2.27784 -3.58211 0
M  V30 2052 C 201.505 1.3793 -5.75091 0
M  V30 2053 H 200.435 0.324834 -0.68044 0
M  V30 2054 H 203.086 0.112588 -1.83154 0
M  V30 2055 H 201.468 2.37249 -3.17063 0
M  V30 2056 H 202.642 -0.0995497 -4.60692 0
M  V30 2057 H 200.957 0.0682643 -4.16344 0
M  V30 2058 H 203.554 2.8239 -4.54048 0
M  V30 2059 H 203.897 3.04204 -2.84193 0
M  V30 2060 H 204.43 1.55421 -3.66182 0
M  V30 2061 H 201.169 0.656982 -6.52199 0
M  V30 2062 H 200.689 2.10954 -5.61479 0
M  V30 2063 H 202.368 1.92063 -6.17835 0
M  V30 2064 N 202.5 1.5196 0.417844 0
M  V30 2065 C 203.463 1.74065 1.49111 0
M  V30 2066 C 204.463 0.610537 1.48758 0
M  V30 2067 O 205.653 0.87832 1.50437 0
M  V30 2068 C 202.785 1.81502 2.88565 0
M  V30 2069 H 203.978 2.69869 1.30807 0
M  V30 2070 H 201.531 1.42244 0.647785 0
M  V30 2071 H 202.266 0.875813 3.1225 0
M  V30 2072 H 202.051 2.63651 2.90225 0
M  V30 2073 H 203.541 2.00376 3.66387 0
M  V30 2074 N 203.978 -0.674533 1.42435 0
M  V30 2075 C 205.389 -1.25514 1.38214 0
M  V30 2076 C 205.74 -1.96055 0.0755464 0
M  V30 2077 O 204.865 -2.00028 -0.8257 0
M  V30 2078 C 205.46 -2.28269 2.50357 0
M  V30 2079 C 204.019 -2.81856 2.49467 0
M  V30 2080 C 203.166 -1.56182 2.29134 0
M  V30 2081 H 206.117 -0.467902 1.51646 0
M  V30 2082 H 206.138 -3.10009 2.20624 0
M  V30 2083 H 205.65 -1.769 3.45439 0
M  V30 2084 H 203.751 -3.37346 1.58204 0
M  V30 2085 H 203.864 -3.30854 3.46515 0
M  V30 2086 H 202.228 -1.82761 1.774 0
M  V30 2087 H 203.011 -1.06778 3.26272 0
M  V30 2088 N 205.456 -1.28612 -0.910864 0
M  V30 2089 C 206.681 -1.1891 -1.69927 0
M  V30 2090 C 207.106 0.248372 -1.86453 0
M  V30 2091 O 206.464 1.17961 -1.37676 0
M  V30 2092 C 206.512 -1.89578 -3.06745 0
M  V30 2093 O 205.616 -1.20521 -3.94396 0
M  V30 2094 H 204.957 -0.412632 -0.520222 0
M  V30 2095 H 207.487 -1.69985 -1.1387 0
M  V30 2096 H 207.497 -1.97597 -3.56958 0
M  V30 2097 H 206.172 -2.94136 -2.94035 0
M  V30 2098 H 204.749 -1.20684 -3.52831 0
M  V30 2099 N 206.934 1.1197 -1.10907 0
M  V30 2100 C 207.867 2.16998 -0.706192 0
M  V30 2101 C 208.845 1.59903 0.294897 0
M  V30 2102 O 210.029 1.87513 0.192636 0
M  V30 2103 C 207.156 3.38673 -0.0427664 0
M  V30 2104 C 206.202 4.14414 -1.00811 0
M  V30 2105 S 207.035 4.72079 -2.52789 0
M  V30 2106 C 208.191 5.97083 -1.87731 0
M  V30 2107 H 208.424 2.50837 -1.59587 0
M  V30 2108 H 205.957 1.23508 -0.926555 0
M  V30 2109 H 207.915 4.09142 0.333668 0
M  V30 2110 H 206.576 3.03105 0.823788 0
M  V30 2111 H 205.769 5.016 -0.491259 0
M  V30 2112 H 205.371 3.49678 -1.3267 0
M  V30 2113 H 207.663 6.66599 -1.21044 0
M  V30 2114 H 208.606 6.53403 -2.72892 0
M  V30 2115 H 209.014 5.4837 -1.33979 0
M  V30 2116 N 208.412 0.89855 1.29475 0
M  V30 2117 C 209.375 0.380272 2.26023 0
M  V30 2118 C 210.375 -0.484891 1.53315 0
M  V30 2119 O 211.565 -0.290108 1.71767 0
M  V30 2120 C 208.697 -0.45651 3.3783 0
M  V30 2121 H 209.89 1.23295 2.73383 0
M  V30 2122 H 207.443 0.676589 1.40897 0
M  V30 2123 H 208.178 -1.32922 2.95808 0
M  V30 2124 H 207.963 0.163393 3.91759 0
M  V30 2125 H 209.453 -0.810466 4.0966 0
M  V30 2126 N 209.89 -1.43072 0.660911 0
M  V30 2127 C 211.115 -2.06584 0.183805 0
M  V30 2128 C 211.54 -1.49257 -1.14472 0
M  V30 2129 O 210.898 -0.605528 -1.70889 0
M  V30 2130 C 210.946 -3.60418 0.114434 0
M  V30 2131 O 210.05 -4.01981 -0.921137 0
M  V30 2132 H 209.391 -0.656669 0.0983994 0
M  V30 2133 H 211.921 -1.83447 0.906006 0
M  V30 2134 H 211.931 -4.07946 -0.0663394 0
M  V30 2135 H 210.606 -4.01519 1.08422 0
M  V30 2136 H 209.183 -3.66029 -0.71253 0
M  V30 2137 N 211.368 -0.403325 -1.52352 0
M  V30 2138 C 212.331 0.413051 -2.25447 0
M  V30 2139 C 213.331 0.978513 -1.276 0
M  V30 2140 O 214.521 0.858305 -1.51587 0
M  V30 2141 C 211.653 1.58087 -3.02029 0
M  V30 2142 H 212.846 -0.227094 -2.99039 0
M  V30 2143 H 210.399 -0.155722 -1.55522 0
M  V30 2144 H 211.134 2.25804 -2.32772 0
M  V30 2145 H 210.919 1.18195 -3.73861 0
M  V30 2146 H 212.409 2.1585 -3.57489 0
M  V30 2147 N 212.846 1.57033 -0.133567 0
M  V30 2148 C 214.123 1.87256 0.56522 0
M  V30 2149 C 214.503 1.03726 1.83859 0
M  V30 2150 O 213.851 0.120247 2.28183 0
M  V30 2151 C 214.061 3.3865 0.843636 0
M  V30 2152 C 215.409 4.07574 1.19032 0
M  V30 2153 O 216.433 3.43752 0.933429 0
M  V30 2154 O 215.292 5.20259 1.67312 0
M  V30 2155 H 212.386 0.775678 0.286796 0
M  V30 2156 H 214.932 1.68855 -0.169168 0
M  V30 2157 H 213.704 3.91257 -0.0581149 0
M  V30 2158 H 213.327 3.62532 1.63268 0
M  V30 2159 N 214.325 -0.140222 1.56975 0
M  V30 2160 C 215.255 -1.17456 2.01808 0
M  V30 2161 C 216.236 -1.44415 0.898794 0
M  V30 2162 O 217.421 -1.5522 1.16707 0
M  V30 2163 C 214.551 -2.50607 2.40444 0
M  V30 2164 C 213.505 -2.38155 3.55621 0
M  V30 2165 C 212.831 -3.76078 3.80091 0
M  V30 2166 C 214.131 -1.85991 4.88062 0
M  V30 2167 H 215.825 -0.801743 2.88466 0
M  V30 2168 H 213.371 -0.38422 1.38779 0
M  V30 2169 H 215.324 -3.23197 2.7041 0
M  V30 2170 H 214.048 -2.89737 1.50732 0
M  V30 2171 H 212.707 -1.68016 3.25832 0
M  V30 2172 H 212.355 -4.12656 2.87618 0
M  V30 2173 H 212.055 -3.68606 4.57606 0
M  V30 2174 H 213.579 -4.50206 4.12488 0
M  V30 2175 H 214.993 -2.4838 5.16701 0
M  V30 2176 H 213.39 -1.89393 5.6943 0
M  V30 2177 H 214.46 -0.816023 4.77984 0
M  V30 2178 N 215.803 -1.52179 -0.40978 0
M  V30 2179 C 217.033 -1.69807 -1.17682 0
M  V30 2180 C 217.441 -0.406908 -1.84773 0
M  V30 2181 O 216.784 0.626863 -1.72673 0
M  V30 2182 C 216.846 -2.77712 -2.2829 0
M  V30 2183 C 216.51 -4.19481 -1.81341 0
M  V30 2184 C 217.507 -5.03345 -1.30154 0
M  V30 2185 C 215.192 -4.65713 -1.88194 0
M  V30 2186 C 217.186 -6.31511 -0.864416 0
M  V30 2187 C 214.873 -5.93869 -1.44093 0
M  V30 2188 C 215.871 -6.76597 -0.933023 0
M  V30 2189 O 215.559 -8.02354 -0.49838 0
M  V30 2190 H 215.291 -0.572372 -0.359675 0
M  V30 2191 H 217.845 -1.99511 -0.488311 0
M  V30 2192 H 216.075 -2.43383 -3.00502 0
M  V30 2193 H 217.764 -2.83946 -2.90051 0
M  V30 2194 H 218.53 -4.68819 -1.24232 0
M  V30 2195 H 214.409 -4.01424 -2.26671 0
M  V30 2196 H 217.953 -6.96033 -0.467286 0
M  V30 2197 H 213.85 -6.27903 -1.49694 0
M  V30 2198 H 214.618 -8.16135 -0.621747 0
M  V30 2199 N 217.281 0.66697 -1.42791 0
M  V30 2200 C 218.697 0.981027 -1.25889 0
M  V30 2201 C 218.897 2.00793 -0.168695 0
M  V30 2202 O 217.953 2.48321 0.45747 0
M  V30 2203 C 219.266 1.47838 -2.61848 0
M  V30 2204 C 220.814 1.59575 -2.69267 0
M  V30 2205 C 221.289 2.12704 -4.05612 0
M  V30 2206 N 222.78 2.20026 -4.07606 0
M  V30 2207 C 223.515 2.62227 -5.09926 0
M  V30 2208 N 223.011 3.03824 -6.22626 0
M  V30 2209 N 224.804 2.62045 -4.97281 0
M  V30 2210 H 216.955 -0.0127891 -2.12396 0
M  V30 2211 H 219.218 0.0568258 -0.946295 0
M  V30 2212 H 218.924 0.798299 -3.4252 0
M  V30 2213 H 218.798 2.45579 -2.86305 0
M  V30 2214 H 221.185 2.26687 -1.88936 0
M  V30 2215 H 221.266 0.60302 -2.48591 0
M  V30 2216 H 220.91 1.46198 -4.86404 0
M  V30 2217 H 220.84 3.12782 -4.23645 0
M  V30 2218 H 223.331 1.90708 -3.2625 0
M  V30 2219 H 223.644 3.34734 -6.96544 0
M  V30 2220 H 221.989 3.01662 -6.26119 0
M  V30 2221 H 225.18 2.28916 -4.08308 0
M  V30 2222 H 225.353 2.94613 -5.77154 0
M  V30 2223 N 218.759 1.29093 0.90403 0
M  V30 2224 C 219.722 1.1386 1.98919 0
M  V30 2225 C 220.722 0.0753457 1.60623 0
M  V30 2226 O 221.912 0.321931 1.71199 0
M  V30 2227 C 219.044 0.740198 3.32767 0
M  V30 2228 H 220.237 2.10246 2.13861 0
M  V30 2229 H 217.79 1.12218 1.08797 0
M  V30 2230 H 218.525 -0.223997 3.23525 0
M  V30 2231 H 218.31 1.50838 3.61926 0
M  V30 2232 H 219.8 0.656546 4.12407 0
M  V30 2233 N 220.237 -1.11381 1.11499 0
M  V30 2234 C 221.648 -1.6465 0.880191 0
M  V30 2235 C 221.999 -1.87199 -0.587434 0
M  V30 2236 O 221.124 -1.60667 -1.44966 0
M  V30 2237 C 221.719 -2.99105 1.59128 0
M  V30 2238 C 220.278 -3.49279 1.40289 0
M  V30 2239 C 219.425 -2.24077 1.63354 0
M  V30 2240 H 222.376 -0.950123 1.27116 0
M  V30 2241 H 222.397 -3.66107 1.03664 0
M  V30 2242 H 221.909 -2.82661 2.65941 0
M  V30 2243 H 220.01 -3.70887 0.356888 0
M  V30 2244 H 220.123 -4.2803 2.15238 0
M  V30 2245 H 218.487 -2.31733 1.05698 0
M  V30 2246 H 219.27 -2.10175 2.71443 0
M  V30 2247 N 221.715 -0.905404 -1.28997 0
M  V30 2248 C 222.961 -0.544465 -1.95977 0
M  V30 2249 C 223.316 0.90041 -1.70031 0
M  V30 2250 O 222.609 1.63064 -1.00601 0
M  V30 2251 C 222.803 -0.779906 -3.48787 0
M  V30 2252 C 222.632 -2.24612 -3.89589 0
M  V30 2253 C 221.402 -2.89464 -4.14172 0
M  V30 2254 C 223.6 -3.22182 -4.00878 0
M  V30 2255 N 221.582 -4.26469 -4.41585 0
M  V30 2256 C 222.953 -4.44323 -4.32409 0
M  V30 2257 C 225.008 -3.17694 -3.83373 0
M  V30 2258 C 223.711 -5.62546 -4.48258 0
M  V30 2259 C 225.737 -4.35208 -4.00435 0
M  V30 2260 C 225.099 -5.56121 -4.3233 0
M  V30 2261 H 221.198 -0.248948 -0.741316 0
M  V30 2262 H 223.782 -1.1674 -1.5582 0
M  V30 2263 H 221.953 -0.186308 -3.87953 0
M  V30 2264 H 223.685 -0.383833 -4.02876 0
M  V30 2265 H 220.44 -2.40232 -4.08149 0
M  V30 2266 H 220.864 -4.97283 -4.5939 0
M  V30 2267 H 225.506 -2.25297 -3.57773 0
M  V30 2268 H 223.224 -6.55429 -4.72692 0
M  V30 2269 H 226.81 -4.33228 -3.88336 0
M  V30 2270 H 225.69 -6.45537 -4.45255 0
M  V30 2271 N 223.193 1.4272 -0.668489 0
M  V30 2272 C 224.423 2.05668 -0.196063 0
M  V30 2273 C 224.831 1.5028 1.14946 0
M  V30 2274 O 224.174 0.6348 1.72383 0
M  V30 2275 C 224.236 3.59469 -0.0468879 0
M  V30 2276 C 223.9 4.37518 -1.32012 0
M  V30 2277 C 224.897 4.68584 -2.25222 0
M  V30 2278 C 222.582 4.77266 -1.56596 0
M  V30 2279 C 224.576 5.38326 -3.41297 0
M  V30 2280 C 222.263 5.4675 -2.72962 0
M  V30 2281 C 223.261 5.77204 -3.65137 0
M  V30 2282 O 222.949 6.45264 -4.79468 0
M  V30 2283 H 222.681 0.669382 -0.0943599 0
M  V30 2284 H 225.235 1.83954 -0.913788 0
M  V30 2285 H 223.465 3.79817 0.726357 0
M  V30 2286 H 225.154 4.04071 0.384852 0
M  V30 2287 H 225.92 4.38382 -2.07477 0
M  V30 2288 H 221.799 4.52959 -0.857249 0
M  V30 2289 H 225.343 5.62014 -4.13263 0
M  V30 2290 H 221.24 5.76369 -2.90635 0
M  V30 2291 H 222.008 6.63753 -4.78931 0
M  V30 2292 N 224.671 0.411399 1.52136 0
M  V30 2293 C 225.919 -0.163322 2.01439 0
M  V30 2294 C 226.24 -1.45453 1.29879 0
M  V30 2295 O 225.51 -1.91225 0.4254 0
M  V30 2296 H 224.09 -0.0633447 0.744309 0
M  V30 2297 H 226.752 0.548161 1.87033 0
M  V30 2298 H 225.848 -0.357817 3.10042 0
M  V30 2299 N 226.149 -1.5696 0.141893 0
M  V30 2300 C 227.56 -1.82797 -0.379776 0
M  V30 2301 C 227.911 -1.06033 -1.6508 0
M  V30 2302 O 227.036 -0.304011 -2.14254 0
M  V30 2303 C 227.631 -3.31578 -0.695802 0
M  V30 2304 C 226.19 -3.58014 -1.16201 0
M  V30 2305 C 225.337 -2.76699 -0.182455 0
M  V30 2306 H 228.288 -1.54406 0.366675 0
M  V30 2307 H 228.309 -3.47454 -1.55099 0
M  V30 2308 H 227.821 -3.87421 0.229449 0
M  V30 2309 H 225.922 -3.07553 -2.10338 0
M  V30 2310 H 226.035 -4.66501 -1.09151 0
M  V30 2311 H 224.399 -2.45618 -0.674072 0
M  V30 2312 H 225.182 -3.35311 0.736297 0
M  V30 2313 N 227.627 0.131896 -1.57047 0
M  V30 2314 C 228.875 0.840269 -1.83804 0
M  V30 2315 C 229.196 1.81017 -0.72512 0
M  V30 2316 O 228.466 1.94272 0.251995 0
M  V30 2317 H 227.046 0.313294 -0.678127 0
M  V30 2318 H 229.708 0.122294 -1.94516 0
M  V30 2319 H 228.804 1.39335 -2.79271 0
M  V30 2320 N 229.106 1.52395 0.401703 0
M  V30 2321 C 230.354 1.66488 1.14569 0
M  V30 2322 C 230.675 0.400897 1.90835 0
M  V30 2323 O 229.945 -0.584415 1.8698 0
M  V30 2324 H 228.525 0.613672 0.425929 0
M  V30 2325 H 231.187 1.89464 0.457093 0
M  V30 2326 H 230.283 2.50942 1.85566 0
M  V30 2327 N 230.584 -0.659388 1.43143 0
M  V30 2328 C 231.547 -1.75432 1.47501 0
M  V30 2329 C 232.547 -1.56707 0.360512 0
M  V30 2330 O 233.737 -1.62717 0.622002 0
M  V30 2331 C 230.869 -3.14239 1.32162 0
M  V30 2332 H 232.062 -1.7295 2.45006 0
M  V30 2333 H 229.615 -0.870469 1.29817 0
M  V30 2334 H 230.35 -3.22336 0.356401 0
M  V30 2335 H 230.135 -3.29235 2.12948 0
M  V30 2336 H 231.625 -3.94094 1.3813 0
M  V30 2337 N 232.062 -1.29571 -0.897171 0
M  V30 2338 C 232.992 -1.17473 -2.01798 0
M  V30 2339 C 233.973 -0.068323 -1.69963 0
M  V30 2340 O 235.158 -0.248239 -1.92607 0
M  V30 2341 C 232.288 -0.853099 -3.36659 0
M  V30 2342 C 231.242 -1.9161 -3.82713 0
M  V30 2343 C 230.568 -1.44773 -5.14728 0
M  V30 2344 C 231.868 -3.32535 -4.02763 0
M  V30 2345 H 233.562 -2.11237 -2.12177 0
M  V30 2346 H 231.108 -1.01699 -1.01948 0
M  V30 2347 H 233.061 -0.755165 -4.14578 0
M  V30 2348 H 231.785 0.120236 -3.26379 0
M  V30 2349 H 230.444 -2.00346 -3.07013 0
M  V30 2350 H 230.092 -0.462995 -5.00865 0
M  V30 2351 H 229.792 -2.15865 -5.46513 0
M  V30 2352 H 231.316 -1.36334 -5.95185 0
M  V30 2353 H 232.73 -3.26626 -4.71156 0
M  V30 2354 H 231.127 -4.01607 -4.45905 0
M  V30 2355 H 232.197 -3.75326 -3.07016 0
M  V30 2356 N 233.54 1.10788 -1.12088 0
M  V30 2357 C 234.765 1.87002 -0.896949 0
M  V30 2358 C 235.19 1.79933 0.548261 0
M  V30 2359 O 234.548 1.16662 1.38779 0
M  V30 2360 C 234.596 3.3349 -1.37174 0
M  V30 2361 O 233.7 4.08745 -0.547831 0
M  V30 2362 H 233.041 0.580397 -0.322545 0
M  V30 2363 H 235.571 1.39996 -1.49206 0
M  V30 2364 H 235.581 3.84339 -1.36922 0
M  V30 2365 H 234.256 3.37951 -2.42408 0
M  V30 2366 H 232.833 3.6776 -0.617034 0
M  V30 2367 N 235.018 0.912232 1.28515 0
M  V30 2368 C 236.264 0.545405 1.95328 0
M  V30 2369 C 236.597 -0.908313 1.71649 0
M  V30 2370 O 235.872 -1.64575 1.03659 0
M  V30 2371 C 236.155 0.853483 3.4984 0
M  V30 2372 C 236.008 2.35982 3.82926 0
M  V30 2373 C 237.327 0.348589 4.38717 0
M  V30 2374 H 234.446 0.199626 0.709449 0
M  V30 2375 H 237.088 1.1412 1.5191 0
M  V30 2376 H 235.238 0.34643 3.86952 0
M  V30 2377 H 236.91 2.93738 3.55691 0
M  V30 2378 H 235.153 2.81543 3.30024 0
M  V30 2379 H 235.824 2.52593 4.90816 0
M  V30 2380 H 238.3 0.78294 4.08668 0
M  V30 2381 H 237.176 0.593242 5.45685 0
M  V30 2382 H 237.437 -0.751049 4.35674 0
M  V30 2383 N 236.496 -1.42363 0.676048 0
M  V30 2384 C 237.406 -2.346 -0.00153389 0
M  V30 2385 C 238.422 -1.5516 -0.787485 0
M  V30 2386 O 239.598 -1.87723 -0.729521 0
M  V30 2387 C 236.663 -3.33705 -0.940298 0
M  V30 2388 C 235.724 -4.29042 -0.148739 0
M  V30 2389 C 234.957 -5.23413 -1.04279 0
M  V30 2390 O 235.18 -5.22749 -2.28232 0
M  V30 2391 O 234.114 -5.99795 -0.502925 0
M  V30 2392 H 237.94 -2.94082 0.758268 0
M  V30 2393 H 235.525 -1.42888 0.436289 0
M  V30 2394 H 237.407 -3.94586 -1.47917 0
M  V30 2395 H 236.082 -2.76695 -1.67993 0
M  V30 2396 H 234.989 -3.71571 0.43427 0
M  V30 2397 H 236.322 -4.89097 0.551805 0
M  V30 2398 N 237.974 -0.419461 -1.51915 0
M  V30 2399 C 238.937 0.389116 -2.25873 0
M  V30 2400 C 239.937 0.964924 -1.28631 0
M  V30 2401 O 241.127 0.842179 -1.52489 0
M  V30 2402 C 238.259 1.54874 -3.03689 0
M  V30 2403 H 239.452 -0.258799 -2.98781 0
M  V30 2404 H 237.005 -0.172209 -1.55348 0
M  V30 2405 H 237.74 2.23323 -2.35154 0
M  V30 2406 H 237.525 1.14223 -3.75094 0
M  V30 2407 H 239.015 2.12046 -3.59759 0
M  V30 2408 N 239.452 1.56882 -0.150215 0
M  V30 2409 C 240.382 2.19935 0.784284 0
M  V30 2410 C 241.363 1.14854 1.25469 0
M  V30 2411 O 242.548 1.43209 1.31168 0
M  V30 2412 C 239.678 2.82349 2.02229 0
M  V30 2413 C 238.632 3.93285 1.68853 0
M  V30 2414 C 237.958 4.42649 2.99944 0
M  V30 2415 C 239.258 5.13904 0.932714 0
M  V30 2416 H 240.952 2.9828 0.258781 0
M  V30 2417 H 238.498 1.43473 0.123029 0
M  V30 2418 H 240.451 3.25126 2.68088 0
M  V30 2419 H 239.175 2.0134 2.57157 0
M  V30 2420 H 237.834 3.5113 1.05371 0
M  V30 2421 H 237.482 3.58458 3.52869 0
M  V30 2422 H 237.182 5.17476 2.78374 0
M  V30 2423 H 238.706 4.88099 3.66868 0
M  V30 2424 H 240.12 5.53506 1.49345 0
M  V30 2425 H 238.517 5.94515 0.81684 0
M  V30 2426 H 239.587 4.84842 -0.0749568 0
M  V30 2427 N 240.93 -0.123565 1.57115 0
M  V30 2428 C 241.86 -1.15309 2.03042 0
M  V30 2429 C 242.841 -1.43454 0.914061 0
M  V30 2430 O 244.026 -1.53973 1.18347 0
M  V30 2431 C 241.156 -2.48043 2.43089 0
M  V30 2432 C 240.11 -2.3437 3.58127 0
M  V30 2433 C 239.436 -3.72026 3.84059 0
M  V30 2434 C 240.736 -1.80804 4.90007 0
M  V30 2435 H 242.43 -0.771102 2.893 0
M  V30 2436 H 239.976 -0.369479 1.39179 0
M  V30 2437 H 241.929 -3.20311 2.73823 0
M  V30 2438 H 240.653 -2.88122 1.53796 0
M  V30 2439 H 239.312 -1.64551 3.27595 0
M  V30 2440 H 238.96 -4.09582 2.91979 0
M  V30 2441 H 238.66 -3.63732 4.6149 0
M  V30 2442 H 240.184 -4.45806 4.1724 0
M  V30 2443 H 241.598 -2.42886 5.19307 0
M  V30 2444 H 239.995 -1.83343 5.71407 0
M  V30 2445 H 241.065 -0.76528 4.78823 0
M  V30 2446 N 242.408 -1.52605 -0.393616 0
M  V30 2447 C 243.656 -1.67093 -1.13685 0
M  V30 2448 C 243.977 -0.411011 -1.90619 0
M  V30 2449 O 243.247 0.574491 -1.87287 0
M  V30 2450 H 241.827 -0.615923 -0.422668 0
M  V30 2451 H 244.489 -1.89704 -0.447039 0
M  V30 2452 H 243.585 -2.51922 -1.84232 0
M  V30 2453 N 243.887 0.651787 -1.4349 0
M  V30 2454 C 245.133 1.4121 -1.46395 0
M  V30 2455 C 245.488 1.92202 -0.087366 0
M  V30 2456 O 244.781 1.69452 0.894231 0
M  V30 2457 C 244.975 2.60914 -2.44251 0
M  V30 2458 C 244.804 2.21639 -3.91288 0
M  V30 2459 C 243.574 2.09897 -4.59643 0
M  V30 2460 C 245.772 1.81835 -4.81083 0
M  V30 2461 N 243.754 1.63967 -5.91598 0
M  V30 2462 C 245.125 1.46998 -6.02322 0
M  V30 2463 C 247.18 1.69031 -4.6833 0
M  V30 2464 C 245.883 1.00638 -7.12225 0
M  V30 2465 C 247.909 1.24077 -5.78238 0
M  V30 2466 C 247.271 0.901772 -6.98604 0
M  V30 2467 H 243.37 0.512322 -0.590805 0
M  V30 2468 H 245.954 0.74989 -1.7968 0
M  V30 2469 H 244.125 3.24792 -2.1299 0
M  V30 2470 H 245.857 3.27622 -2.37584 0
M  V30 2471 H 242.612 2.297 -4.14168 0
M  V30 2472 H 243.036 1.43359 -6.61647 0
M  V30 2473 H 247.678 1.93878 -3.75727 0
M  V30 2474 H 245.396 0.745399 -8.04655 0
M  V30 2475 H 248.982 1.14657 -5.7039 0
M  V30 2476 H 247.862 0.559226 -7.82203 0
M  V30 2477 N 245.365 1.30045 0.890287 0
M  V30 2478 C 246.59 1.21598 1.68014 0
M  V30 2479 C 247.015 -0.218678 1.86825 0
M  V30 2480 O 246.373 -1.15756 1.39536 0
M  V30 2481 C 246.421 1.94434 3.03691 0
M  V30 2482 O 245.525 1.2678 3.92429 0
M  V30 2483 H 244.866 0.420856 0.513592 0
M  V30 2484 H 247.396 1.71775 1.11151 0
M  V30 2485 H 247.406 2.03251 3.5377 0
M  V30 2486 H 246.081 2.98777 2.89318 0
M  V30 2487 H 244.658 1.26282 3.50866 0
M  V30 2488 N 246.843 -1.10192 1.12674 0
M  V30 2489 C 247.806 -2.14786 0.799979 0
M  V30 2490 C 248.806 -1.59711 -0.18685 0
M  V30 2491 O 249.996 -1.74156 0.0392558 0
M  V30 2492 C 247.128 -3.40374 0.189228 0
M  V30 2493 H 248.321 -2.45203 1.72671 0
M  V30 2494 H 245.874 -1.25597 0.930326 0
M  V30 2495 H 246.609 -3.15577 -0.747107 0
M  V30 2496 H 246.394 -3.81637 0.899766 0
M  V30 2497 H 247.884 -4.17594 -0.0228143 0
M  V30 2498 N 248.321 -0.919034 -1.28029 0
M  V30 2499 C 249.251 -0.428581 -2.29533 0
M  V30 2500 C 250.232 0.50659 -1.62381 0
M  V30 2501 O 251.417 0.413195 -1.89753 0
M  V30 2502 C 248.547 0.327388 -3.45753 0
M  V30 2503 C 247.501 -0.519137 -4.2484 0
M  V30 2504 C 246.827 0.365486 -5.33449 0
M  V30 2505 C 248.127 -1.77914 -4.91064 0
M  V30 2506 H 249.821 -1.27687 -2.70807 0
M  V30 2507 H 247.367 -0.615428 -1.30186 0
M  V30 2508 H 249.32 0.681378 -4.15855 0
M  V30 2509 H 248.044 1.20963 -3.03374 0
M  V30 2510 H 246.703 -0.855717 -3.56473 0
M  V30 2511 H 246.351 1.24642 -4.87312 0
M  V30 2512 H 246.051 -0.197356 -5.87268 0
M  V30 2513 H 247.575 0.715241 -6.06396 0
M  V30 2514 H 248.989 -1.49374 -5.53498 0
M  V30 2515 H 247.386 -2.2848 -5.54903 0
M  V30 2516 H 248.456 -2.50382 -4.15255 0
M  V30 2517 N 249.799 1.42003 -0.683588 0
M  V30 2518 C 251.048 2.00638 -0.206681 0
M  V30 2519 C 251.361 1.5472 1.19671 0
M  V30 2520 O 252.567 2.05833 1.77045 0
M  V30 2521 C 251.023 3.58487 -0.318632 0
M  V30 2522 C 250.631 4.1339 -1.72663 0
M  V30 2523 C 252.375 4.24384 0.0991141 0
M  V30 2524 C 250.282 5.63633 -1.79087 0
M  V30 2525 H 249.212 0.750408 -0.0735107 0
M  V30 2526 H 251.863 1.62624 -0.850048 0
M  V30 2527 H 250.245 3.94047 0.392781 0
M  V30 2528 H 251.419 3.89273 -2.46583 0
M  V30 2529 H 249.734 3.59976 -2.09299 0
M  V30 2530 H 252.331 5.34652 0.0713833 0
M  V30 2531 H 252.674 4.00505 1.13586 0
M  V30 2532 H 253.207 3.93816 -0.561599 0
M  V30 2533 H 249.946 5.92323 -2.80774 0
M  V30 2534 H 249.466 5.89714 -1.09535 0
M  V30 2535 H 251.145 6.28201 -1.5483 0
M  V30 2536 N 251.277 0.427512 1.51691 0
M  V30 2537 C 252.525 -0.141948 2.01601 0
M  V30 2538 C 252.846 -1.44067 1.31414 0
M  V30 2539 O 252.116 -1.90763 0.445658 0
M  V30 2540 H 250.696 -0.0554468 0.744939 0
M  V30 2541 H 253.358 0.567968 1.86441 0
M  V30 2542 H 252.454 -0.324913 3.10404 0
M  V30 2543 N 252.755 -1.56801 0.158532 0
M  V30 2544 C 253.983 -2.00859 -0.496303 0
M  V30 2545 C 254.398 -1.03871 -1.57659 0
M  V30 2546 O 253.755 -0.0375165 -1.82461 0
M  V30 2547 C 253.806 -3.4479 -1.08638 0
M  V30 2548 O 253.527 -4.38072 -0.0492322 0
M  V30 2549 C 255.028 -4.04185 -1.8207 0
M  V30 2550 H 252.248 -0.65864 -0.128199 0
M  V30 2551 H 254.792 -2.02885 0.256506 0
M  V30 2552 H 252.947 -3.43579 -1.78975 0
M  V30 2553 H 253.361 -5.2227 -0.483102 0
M  V30 2554 H 254.835 -5.06857 -2.18633 0
M  V30 2555 H 255.312 -3.45549 -2.71095 0
M  V30 2556 H 255.918 -4.0906 -1.16405 0
M  V30 2557 N 254.233 0.115231 -1.57178 0
M  V30 2558 C 255.481 0.820727 -1.84685 0
M  V30 2559 C 255.802 1.80237 -0.744279 0
M  V30 2560 O 255.072 1.94529 0.231375 0
M  V30 2561 H 253.652 0.306084 -0.681411 0
M  V30 2562 H 256.314 0.101656 -1.94635 0
M  V30 2563 H 255.41 1.36366 -2.80733 0
M  V30 2564 N 255.711 1.52812 0.385517 0
M  V30 2565 C 256.641 1.80808 1.47752 0
M  V30 2566 C 257.622 0.660318 1.5676 0
M  V30 2567 O 258.807 0.908246 1.71652 0
M  V30 2568 C 255.937 1.98008 2.85324 0
M  V30 2569 C 254.891 3.13709 2.91154 0
M  V30 2570 C 254.217 3.16169 4.31209 0
M  V30 2571 C 255.517 4.52709 2.60483 0
M  V30 2572 H 257.211 2.72253 1.24573 0
M  V30 2573 H 254.757 1.31003 0.597839 0
M  V30 2574 H 256.71 2.16176 3.61726 0
M  V30 2575 H 255.434 1.03255 3.09848 0
M  V30 2576 H 254.093 2.95329 2.17201 0
M  V30 2577 H 253.741 2.19092 4.52778 0
M  V30 2578 H 253.441 3.93894 4.36029 0
M  V30 2579 H 254.965 3.36496 5.09512 0
M  V30 2580 H 256.379 4.71173 3.26602 0
M  V30 2581 H 254.776 5.32528 2.76648 0
M  V30 2582 H 255.846 4.59186 1.55809 0
M  V30 2583 N 257.189 -0.644168 1.43834 0
M  V30 2584 C 258.438 -1.39985 1.45214 0
M  V30 2585 C 258.751 -1.95421 0.0835494 0
M  V30 2586 O 259.957 -2.71488 -0.0251748 0
M  V30 2587 C 258.413 -2.53384 2.55587 0
M  V30 2588 C 258.021 -2.04517 3.98594 0
M  V30 2589 C 259.765 -3.30685 2.66172 0
M  V30 2590 C 257.672 -3.1518 5.00416 0
M  V30 2591 H 256.602 -0.526005 0.540218 0
M  V30 2592 H 259.253 -0.694367 1.69855 0
M  V30 2593 H 257.635 -3.26446 2.24163 0
M  V30 2594 H 258.809 -1.38405 4.39523 0
M  V30 2595 H 257.124 -1.40068 3.92135 0
M  V30 2596 H 259.721 -4.13158 3.39418 0
M  V30 2597 H 260.064 -3.79312 1.71546 0
M  V30 2598 H 260.597 -2.64708 2.96942 0
M  V30 2599 H 257.336 -2.71511 5.96625 0
M  V30 2600 H 256.856 -3.79974 4.64091 0
M  V30 2601 H 258.535 -3.80166 5.23529 0
M  V30 2602 N 258.668 -1.30515 -0.883378 0
M  V30 2603 C 259.896 -1.22359 -1.66841 0
M  V30 2604 C 260.311 0.213296 -1.87591 0
M  V30 2605 O 259.668 1.14075 -1.42454 0
M  V30 2606 C 259.719 -1.95011 -3.04389 0
M  V30 2607 O 259.44 -3.3309 -2.84575 0
M  V30 2608 C 260.941 -1.93532 -3.98824 0
M  V30 2609 H 258.161 -0.423371 -0.520575 0
M  V30 2610 H 260.705 -1.72167 -1.10357 0
M  V30 2611 H 258.86 -1.48997 -3.57601 0
M  V30 2612 H 259.274 -3.69907 -3.71846 0
M  V30 2613 H 260.748 -2.48902 -4.92699 0
M  V30 2614 H 261.225 -0.914627 -4.29571 0
M  V30 2615 H 261.831 -2.39364 -3.51547 0
M  V30 2616 N 260.146 1.09593 -1.13257 0
M  V30 2617 C 261.371 1.8604 -0.916732 0
M  V30 2618 C 261.796 1.80504 0.529146 0
M  V30 2619 O 261.154 1.18127 1.37534 0
M  V30 2620 C 261.202 3.32017 -1.40703 0
M  V30 2621 O 260.306 4.08141 -0.591153 0
M  V30 2622 H 259.647 0.576943 -0.328683 0
M  V30 2623 H 262.177 1.38405 -1.50682 0
M  V30 2624 H 262.187 3.82865 -1.4099 0
M  V30 2625 H 260.862 3.35361 -2.45979 0
M  V30 2626 H 259.439 3.67084 -0.656005 0
M  V30 2627 N 261.624 0.925811 1.2754 0
M  V30 2628 C 263.04 0.625767 1.46821 0
M  V30 2629 C 263.24 -0.825506 1.83814 0
M  V30 2630 O 262.296 -1.60356 1.95044 0
M  V30 2631 C 263.609 1.57402 2.56213 0
M  V30 2632 C 265.157 1.58204 2.70075 0
M  V30 2633 C 265.632 2.51721 3.82623 0
M  V30 2634 N 267.123 2.49917 3.89994 0
M  V30 2635 C 267.858 3.18968 4.76494 0
M  V30 2636 N 267.354 3.97391 5.67496 0
M  V30 2637 N 269.147 3.07996 4.70208 0
M  V30 2638 H 261.298 1.86409 1.01811 0
M  V30 2639 H 263.561 0.800213 0.508295 0
M  V30 2640 H 263.267 2.60925 2.35819 0
M  V30 2641 H 263.141 1.31428 3.53563 0
M  V30 2642 H 265.528 0.554124 2.89851 0
M  V30 2643 H 265.609 1.88226 1.73218 0
M  V30 2644 H 265.253 3.54622 3.63601 0
M  V30 2645 H 265.183 2.18996 4.78903 0
M  V30 2646 H 267.674 1.9296 3.24923 0
M  V30 2647 H 267.987 4.4707 6.30356 0
M  V30 2648 H 266.332 4.01495 5.67298 0
M  V30 2649 H 269.523 2.46223 3.9811 0
M  V30 2650 H 269.696 3.6208 5.37403 0
M  V30 2651 N 263.102 -1.41638 0.69111 0
M  V30 2652 C 264.327 -2.06148 0.227583 0
M  V30 2653 C 264.752 -1.51652 -1.11281 0
M  V30 2654 O 264.11 -0.64164 -1.69566 0
M  V30 2655 C 264.158 -3.60095 0.190858 0
M  V30 2656 O 263.262 -4.03845 -0.835664 0
M  V30 2657 H 262.603 -0.654434 0.112306 0
M  V30 2658 H 265.133 -1.81484 0.944714 0
M  V30 2659 H 265.143 -4.07995 0.020207 0
M  V30 2660 H 263.818 -3.99129 1.16915 0
M  V30 2661 H 262.395 -3.67458 -0.63473 0
M  V30 2662 N 264.58 -0.43555 -1.51462 0
M  V30 2663 C 265.857 0.191364 -1.94662 0
M  V30 2664 C 266.237 1.60254 -1.37411 0
M  V30 2665 O 265.585 2.2152 -0.560458 0
M  V30 2666 C 265.795 0.17091 -3.48581 0
M  V30 2667 C 267.143 0.377357 -4.2292 0
M  V30 2668 O 268.167 0.249104 -3.55328 0
M  V30 2669 O 267.026 0.63247 -5.42828 0
M  V30 2670 H 264.12 0.130932 -0.816569 0
M  V30 2671 H 266.666 -0.4934 -1.62369 0
M  V30 2672 H 265.438 -0.815738 -3.82703 0
M  V30 2673 H 265.061 0.898659 -3.87311 0
M  V30 2674 N 266.058 1.56714 -0.166846 0
M  V30 2675 C 267.021 2.16539 0.751232 0
M  V30 2676 C 268.021 1.11228 1.16125 0
M  V30 2677 O 269.211 1.36765 1.07894 0
M  V30 2678 C 266.343 2.74462 2.02196 0
M  V30 2679 H 267.536 2.99013 0.230499 0
M  V30 2680 H 265.089 1.56081 0.0826982 0
M  V30 2681 H 265.824 1.95709 2.58589 0
M  V30 2682 H 265.609 3.51527 1.73698 0
M  V30 2683 H 267.099 3.20489 2.67725 0
M  V30 2684 N 267.536 -0.106894 1.57237 0
M  V30 2685 C 268.952 -0.46078 1.52804 0
M  V30 2686 C 269.152 -1.81184 0.881746 0
M  V30 2687 O 268.208 -2.48102 0.469224 0
M  V30 2688 C 269.521 -0.434127 2.9755 0
M  V30 2689 C 271.069 -0.516821 3.08704 0
M  V30 2690 C 271.544 -0.520436 4.55033 0
M  V30 2691 N 273.035 -0.58153 4.59535 0
M  V30 2692 C 273.77 -0.605973 5.70189 0
M  V30 2693 N 273.266 -0.587331 6.90306 0
M  V30 2694 N 275.059 -0.649895 5.5833 0
M  V30 2695 H 267.21 0.778203 1.9763 0
M  V30 2696 H 269.473 0.288403 0.903066 0
M  V30 2697 H 269.179 0.491197 3.48253 0
M  V30 2698 H 269.053 -1.25748 3.55622 0
M  V30 2699 H 271.44 -1.43256 2.57995 0
M  V30 2700 H 271.521 0.334449 2.53604 0
M  V30 2701 H 271.165 0.391313 5.0639 0
M  V30 2702 H 271.095 -1.38876 5.07958 0
M  V30 2703 H 273.586 -0.60161 3.73081 0
M  V30 2704 H 273.899 -0.60894 7.70397 0
M  V30 2705 H 272.244 -0.554564 6.92784 0
M  V30 2706 H 275.435 -0.661907 4.63397 0
M  V30 2707 H 275.608 -0.665476 6.44574 0
M  V30 2708 N 269.014 -1.53014 -0.377408 0
M  V30 2709 C 270.425 -1.60438 -0.954798 0
M  V30 2710 C 270.776 -0.464418 -1.90624 0
M  V30 2711 O 269.901 0.41087 -2.12464 0
M  V30 2712 C 270.496 -2.90797 -1.73847 0
M  V30 2713 C 269.055 -3.00595 -2.26538 0
M  V30 2714 C 268.202 -2.55645 -1.07429 0
M  V30 2715 H 271.153 -1.57926 -0.156575 0
M  V30 2716 H 271.174 -2.77935 -2.5987 0
M  V30 2717 H 270.686 -3.73746 -1.04574 0
M  V30 2718 H 268.787 -2.22208 -2.99089 0
M  V30 2719 H 268.9 -4.05456 -2.5523 0
M  V30 2720 H 267.264 -2.10239 -1.43777 0
M  V30 2721 H 268.047 -3.41 -0.396728 0
M  V30 2722 N 270.492 0.636531 -1.44174 0
M  V30 2723 C 271.402 1.77754 -1.53103 0
M  V30 2724 C 272.418 1.68928 -0.417034 0
M  V30 2725 O 273.594 1.89801 -0.6736 0
M  V30 2726 C 270.659 3.14115 -1.46741 0
M  V30 2727 C 269.72 3.34612 -2.68948 0
M  V30 2728 C 268.953 4.64467 -2.6288 0
M  V30 2729 O 269.176 5.44919 -1.68581 0
M  V30 2730 O 268.11 4.87049 -3.53648 0
M  V30 2731 H 271.936 1.73174 -2.49489 0
M  V30 2732 H 269.521 0.79709 -1.2636 0
M  V30 2733 H 271.403 3.95412 -1.45696 0
M  V30 2734 H 270.078 3.19249 -0.534975 0
M  V30 2735 H 268.985 2.53014 -2.75562 0
M  V30 2736 H 270.318 3.34336 -3.61221 0
M  V30 2737 N 271.97 1.30982 0.876444 0
M  V30 2738 C 273.247 1.10942 1.61094 0
M  V30 2739 C 273.627 -0.338223 2.08373 0
M  V30 2740 O 272.975 -1.33122 1.85717 0
M  V30 2741 C 273.185 2.11789 2.77392 0
M  V30 2742 C 274.533 2.43965 3.47514 0
M  V30 2743 O 275.557 2.10166 2.87591 0
M  V30 2744 O 274.416 3.01817 4.55597 0
M  V30 2745 H 271.51 0.42667 0.708436 0
M  V30 2746 H 274.056 1.42438 0.922474 0
M  V30 2747 H 272.828 3.09194 2.39823 0
M  V30 2748 H 272.451 1.81161 3.5393 0
M  V30 2749 N 273.449 -1.08991 1.13837 0
M  V30 2750 C 274.412 -2.13925 0.822715 0
M  V30 2751 C 275.412 -1.599 -0.1699 0
M  V30 2752 O 276.602 -1.74104 0.0577251 0
M  V30 2753 C 273.734 -3.40155 0.225318 0
M  V30 2754 H 274.927 -2.43358 1.75262 0
M  V30 2755 H 272.48 -1.24603 0.943594 0
M  V30 2756 H 273.215 -3.16352 -0.713594 0
M  V30 2757 H 273 -3.80661 0.940193 0
M  V30 2758 H 274.49 -4.17594 0.0214784 0
M  V30 2759 N 274.927 -0.932562 -1.27047 0
M  V30 2760 C 275.89 -0.440064 -2.24936 0
M  V30 2761 C 276.89 0.444071 -1.54547 0
M  V30 2762 O 278.08 0.244465 -1.72476 0
M  V30 2763 C 275.212 0.36678 -3.38921 0
M  V30 2764 H 276.405 -1.305 -2.70018 0
M  V30 2765 H 273.958 -0.713707 -1.39054 0
M  V30 2766 H 274.693 1.25033 -2.99228 0
M  V30 2767 H 274.478 -0.267204 -3.91188 0
M  V30 2768 H 275.968 0.701567 -4.11665 0
M  V30 2769 N 276.405 1.4127 -0.698611 0
M  V30 2770 C 277.682 1.94955 -0.158762 0
M  V30 2771 C 278.062 1.63781 1.33188 0
M  V30 2772 O 277.41 0.946423 2.07979 0
M  V30 2773 C 277.62 3.46044 -0.453309 0
M  V30 2774 C 278.968 4.22872 -0.382707 0
M  V30 2775 O 279.992 3.54076 -0.388396 0
M  V30 2776 O 278.851 5.45407 -0.345463 0
M  V30 2777 H 275.945 0.82683 -0.0167505 0
M  V30 2778 H 278.491 1.50971 -0.77498 0
M  V30 2779 H 277.263 3.62028 -1.48498 0
M  V30 2780 H 276.886 3.97128 0.19373 0
M  V30 2781 N 277.883 0.443576 1.51229 0
M  V30 2782 C 279.13 -0.120796 2.02139 0
M  V30 2783 C 279.458 -1.42166 1.32736 0
M  V30 2784 O 278.713 -1.90849 0.43301 0
M  V30 2785 C 279.012 -0.380579 3.55368 0
M  V30 2786 C 278.678 0.83523 4.43097 0
M  V30 2787 C 277.34 1.16864 4.66794 0
M  V30 2788 C 279.692 1.64601 4.94526 0
M  V30 2789 C 277.02 2.31339 5.39165 0
M  V30 2790 C 279.372 2.78181 5.68153 0
M  V30 2791 C 278.036 3.11969 5.90112 0
M  V30 2792 H 277.306 -0.0442023 0.73968 0
M  V30 2793 H 279.953 0.592046 1.82118 0
M  V30 2794 H 278.258 -1.17538 3.73754 0
M  V30 2795 H 279.955 -0.830777 3.923 0
M  V30 2796 H 276.545 0.565437 4.24854 0
M  V30 2797 H 280.729 1.40163 4.76097 0
M  V30 2798 H 275.985 2.57823 5.5438 0
M  V30 2799 H 280.159 3.41371 6.06992 0
M  V30 2800 H 277.786 4.00784 6.45969 0
M  V30 2801 N 279.361 -1.56624 0.175154 0
M  V30 2802 C 280.607 -1.9729 -0.469506 0
M  V30 2803 C 280.94 -1.06128 -1.62636 0
M  V30 2804 O 280.215 -0.109183 -1.94193 0
M  V30 2805 C 280.498 -3.47375 -0.948804 0
M  V30 2806 C 280.351 -4.49317 0.208491 0
M  V30 2807 C 281.67 -4.00652 -1.82116 0
M  V30 2808 H 278.789 -0.717317 -0.16919 0
M  V30 2809 H 281.431 -1.88184 0.262062 0
M  V30 2810 H 279.581 -3.55267 -1.57219 0
M  V30 2811 H 281.253 -4.53482 0.845682 0
M  V30 2812 H 279.496 -4.25121 0.863395 0
M  V30 2813 H 280.167 -5.51741 -0.169059 0
M  V30 2814 H 282.643 -3.95416 -1.2956 0
M  V30 2815 H 281.519 -5.06075 -2.12554 0
M  V30 2816 H 281.78 -3.44699 -2.7683 0
M  V30 2817 N 280.839 0.0985539 -1.57292 0
M  V30 2818 C 281.771 1.14595 -1.98496 0
M  V30 2819 C 282.784 1.36512 -0.887031 0
M  V30 2820 O 283.973 1.35225 -1.16518 0
M  V30 2821 C 281.073 2.50216 -2.28572 0
M  V30 2822 C 280.246 2.48624 -3.59868 0
M  V30 2823 C 279.305 3.66146 -3.7792 0
M  V30 2824 O 278.331 3.48795 -4.49812 0
M  V30 2825 N 279.533 4.85496 -3.18235 0
M  V30 2826 H 282.298 0.795277 -2.88956 0
M  V30 2827 H 279.859 0.287579 -1.59325 0
M  V30 2828 H 281.851 3.27432 -2.37845 0
M  V30 2829 H 280.421 2.77387 -1.44136 0
M  V30 2830 H 279.641 1.56978 -3.61596 0
M  V30 2831 H 280.929 2.44635 -4.46129 0
M  V30 2832 H 280.327 5.02497 -2.59833 0
M  V30 2833 H 278.884 5.60317 -3.32999 0
M  V30 2834 N 282.317 1.53212 0.369288 0
M  V30 2835 C 283.247 1.82365 1.45826 0
M  V30 2836 C 284.228 0.676907 1.56051 0
M  V30 2837 O 285.413 0.926401 1.70679 0
M  V30 2838 C 282.543 2.01023 2.83208 0
M  V30 2839 C 281.497 3.1678 2.8781 0
M  V30 2840 C 280.823 3.20724 4.27832 0
M  V30 2841 C 282.123 4.55447 2.55667 0
M  V30 2842 H 283.817 2.73559 1.21678 0
M  V30 2843 H 281.363 1.3163 0.583911 0
M  V30 2844 H 283.316 2.20001 3.59413 0
M  V30 2845 H 282.04 1.06536 3.08736 0
M  V30 2846 H 280.699 2.97616 2.14056 0
M  V30 2847 H 280.347 2.23882 4.50429 0
M  V30 2848 H 280.047 3.98496 4.31827 0
M  V30 2849 H 281.571 3.41881 5.05915 0
M  V30 2850 H 282.985 4.74611 3.21586 0
M  V30 2851 H 281.382 5.35432 2.70984 0
M  V30 2852 H 282.452 4.60812 1.5093 0
M  V30 2853 N 283.795 -0.628877 1.44509 0
M  V30 2854 C 284.758 -1.72263 1.51188 0
M  V30 2855 C 285.758 -1.55907 0.39367 0
M  V30 2856 O 286.948 -1.61361 0.656377 0
M  V30 2857 C 284.08 -3.11365 1.38798 0
M  V30 2858 H 285.273 -1.67714 2.4862 0
M  V30 2859 H 282.826 -0.842737 1.31634 0
M  V30 2860 H 283.561 -3.21507 0.424693 0
M  V30 2861 H 283.346 -3.24644 2.19884 0
M  V30 2862 H 284.836 -3.91075 1.46458 0
M  V30 2863 N 285.273 -1.31445 -0.869486 0
M  V30 2864 C 286.236 -1.19094 -1.9583 0
M  V30 2865 C 287.236 -0.117906 -1.60367 0
M  V30 2866 O 288.426 -0.367208 -1.70286 0
M  V30 2867 C 285.558 -0.828165 -3.30688 0
M  V30 2868 H 286.751 -2.15842 -2.08212 0
M  V30 2869 H 284.304 -1.15063 -1.05784 0
M  V30 2870 H 285.039 0.138142 -3.24006 0
M  V30 2871 H 284.824 -1.6038 -3.578 0
M  V30 2872 H 286.314 -0.765658 -4.10521 0
M  V30 2873 N 286.751 1.08385 -1.14413 0
M  V30 2874 C 288 1.80153 -0.907076 0
M  V30 2875 C 288.313 1.87176 0.567851 0
M  V30 2876 O 289.519 2.55359 0.922172 0
M  V30 2877 C 287.975 3.23687 -1.57336 0
M  V30 2878 C 287.583 3.24897 -3.08457 0
M  V30 2879 C 289.327 4.00136 -1.41744 0
M  V30 2880 C 287.234 4.6302 -3.67921 0
M  V30 2881 H 286.164 0.675139 -0.335714 0
M  V30 2882 H 288.815 1.21733 -1.37307 0
M  V30 2883 H 287.197 3.82234 -1.03505 0
M  V30 2884 H 288.371 2.76055 -3.68958 0
M  V30 2885 H 286.686 2.61943 -3.2369 0
M  V30 2886 H 289.283 5.02201 -1.83572 0
M  V30 2887 H 289.626 4.14709 -0.363576 0
M  V30 2888 H 290.159 3.48058 -1.92614 0
M  V30 2889 H 286.898 4.5365 -4.73161 0
M  V30 2890 H 286.418 5.12143 -3.12201 0
M  V30 2891 H 288.097 5.31994 -3.68227 0
M  V30 2892 N 288.23 0.939286 1.26551 0
M  V30 2893 C 289.16 0.465044 2.28822 0
M  V30 2894 C 290.141 -0.480692 1.63167 0
M  V30 2895 O 291.326 -0.382955 1.90387 0
M  V30 2896 C 288.456 -0.27234 3.46231 0
M  V30 2897 C 287.41 0.58666 4.2396 0
M  V30 2898 C 286.736 -0.280573 5.33963 0
M  V30 2899 C 288.036 1.85704 4.88171 0
M  V30 2900 H 289.73 1.31979 2.68741 0
M  V30 2901 H 287.276 0.636061 1.29191 0
M  V30 2902 H 289.229 -0.615133 4.16886 0
M  V30 2903 H 287.953 -1.16121 3.0526 0
M  V30 2904 H 286.612 0.91232 3.55067 0
M  V30 2905 H 286.26 -1.16874 4.89234 0
M  V30 2906 H 285.96 0.29076 5.8688 0
M  V30 2907 H 287.484 -0.618678 6.07458 0
M  V30 2908 H 288.898 1.58161 5.51052 0
M  V30 2909 H 287.295 2.37279 5.51197 0
M  V30 2910 H 288.365 2.56957 4.11219 0
M  V30 2911 N 289.708 -1.40897 0.706093 0
M  V30 2912 C 290.656 -2.32572 0.0361893 0
M  V30 2913 C 291.65 -1.51532 -0.757266 0
M  V30 2914 O 292.856 -1.67396 -0.661703 0
M  V30 2915 H 289.231 -0.751966 -0.00709935 0
M  V30 2916 H 291.202 -2.86733 0.826249 0
M  V30 2917 C 289.951 -3.36418 -0.87854 0
M  V30 2918 H 289.274 -3.98836 -0.277401 0
M  V30 2919 H 290.714 -4.0308 -1.3154 0
M  V30 2920 C 289.173 -2.71141 -1.99961 0
M  V30 2921 O 289.703 -2.56735 -3.0895 0
M  V30 2922 N 287.909 -2.29671 -1.78043 0
M  V30 2923 H 287.456 -2.41588 -0.894042 0
M  V30 2924 H 287.414 -1.86332 -2.53235 0
M  V30 2925 N 291.186 -0.45159 -1.50991 0
M  V30 2926 C 292.463 0.170707 -1.94854 0
M  V30 2927 C 292.843 1.58788 -1.39103 0
M  V30 2928 O 292.191 2.20913 -0.583921 0
M  V30 2929 C 292.401 0.133929 -3.48743 0
M  V30 2930 C 293.749 0.33248 -4.23296 0
M  V30 2931 O 294.773 0.211403 -3.55572 0
M  V30 2932 O 293.632 0.57486 -5.43468 0
M  V30 2933 H 290.726 0.122264 -0.817912 0
M  V30 2934 H 293.272 -0.510594 -1.61836 0
M  V30 2935 H 292.044 -0.856283 -3.81816 0
M  V30 2936 H 291.667 0.857529 -3.88242 0
M  V30 2937 N 292.664 1.56529 -0.183458 0
M  V30 2938 C 293.91 1.97537 0.459036 0
M  V30 2939 C 294.243 1.06989 1.62071 0
M  V30 2940 O 293.518 0.11948 1.94133 0
M  V30 2941 C 293.801 3.47874 0.930368 0
M  V30 2942 C 293.654 4.492 -0.232317 0
M  V30 2943 C 294.973 4.01612 1.79989 0
M  V30 2944 H 292.092 0.718204 0.165383 0
M  V30 2945 H 294.734 1.88042 -0.272038 0
M  V30 2946 H 292.884 3.56095 1.55333 0
M  V30 2947 H 294.556 4.53027 -0.86972 0
M  V30 2948 H 292.799 4.24657 -0.885928 0
M  V30 2949 H 293.47 5.51823 0.139796 0
M  V30 2950 H 295.946 3.96097 1.27461 0
M  V30 2951 H 294.822 5.07195 2.09867 0
M  V30 2952 H 295.083 3.46163 2.74998 0
M  V30 2953 N 294.142 -0.090211 1.57342 0
M  V30 2954 C 295.105 -1.09335 2.01441 0
M  V30 2955 C 296.105 -1.32666 0.908641 0
M  V30 2956 O 297.295 -1.28697 1.174 0
M  V30 2957 C 294.427 -2.44136 2.3793 0
M  V30 2958 H 295.62 -0.713662 2.91285 0
M  V30 2959 H 293.173 -0.335404 1.52659 0
M  V30 2960 H 293.908 -2.86972 1.51055 0
M  V30 2961 H 293.693 -2.28548 3.18603 0
M  V30 2962 H 295.183 -3.16277 2.72688 0
M  V30 2963 N 295.62 -1.53406 -0.361157 0
M  V30 2964 C 296.868 -1.69467 -1.10115 0
M  V30 2965 C 297.189 -0.451352 -1.89705 0
M  V30 2966 O 296.459 0.534636 -1.88463 0
M  V30 2967 H 295.039 -0.624749 -0.409508 0
M  V30 2968 H 297.701 -1.90609 -0.406699 0
M  V30 2969 H 296.797 -2.55774 -1.78847 0
M  V30 2970 N 297.098 0.621204 -1.44841 0
M  V30 2971 C 298.061 1.71459 -1.521 0
M  V30 2972 C 299.061 1.55696 -0.401933 0
M  V30 2973 O 300.251 1.61011 -0.664925 0
M  V30 2974 C 297.383 3.10624 -1.40447 0
M  V30 2975 H 298.576 1.66394 -2.49506 0
M  V30 2976 H 296.129 0.835745 -1.3208 0
M  V30 2977 H 296.864 3.21277 -0.441737 0
M  V30 2978 H 296.649 3.23473 -2.21602 0
M  V30 2979 H 298.139 3.90293 -1.4853 0
M  V30 2980 N 298.576 1.31904 0.862503 0
M  V30 2981 C 299.539 1.20131 1.95195 0
M  V30 2982 C 300.539 0.126409 1.60302 0
M  V30 2983 O 301.729 0.376234 1.70089 0
M  V30 2984 C 298.861 0.845691 3.30244 0
M  V30 2985 H 300.054 2.16943 2.07064 0
M  V30 2986 H 297.607 1.15622 1.05172 0
M  V30 2987 H 298.342 -0.120957 3.24074 0
M  V30 2988 H 298.127 1.62276 3.56944 0
M  V30 2989 H 299.617 0.787418 4.10109 0
M  V30 2990 N 300.054 -1.07777 1.14986 0
M  V30 2991 C 301.279 -1.84558 0.946213 0
M  V30 2992 C 301.704 -1.81323 -0.500362 0
M  V30 2993 O 301.062 -1.20301 -1.35637 0
M  V30 2994 C 301.11 -3.29736 1.45968 0
M  V30 2995 O 300.214 -4.07149 0.65601 0
M  V30 2996 H 299.555 -0.571641 0.33782 0
M  V30 2997 H 302.085 -1.35991 1.52865 0
M  V30 2998 H 302.095 -3.80574 1.47063 0
M  V30 2999 H 300.77 -3.31406 2.51283 0
M  V30 3000 H 299.347 -3.65994 0.714322 0
M  V30 3001 N 301.532 -0.945985 -1.26051 0
M  V30 3002 C 302.778 -0.597002 -1.93814 0
M  V30 3003 C 303.111 0.862484 -1.73997 0
M  V30 3004 O 302.386 1.61769 -1.07986 0
M  V30 3005 C 302.669 -0.945937 -3.47454 0
M  V30 3006 C 302.522 -2.46052 -3.76535 0
M  V30 3007 C 303.841 -0.464785 -4.37639 0
M  V30 3008 H 300.96 -0.218366 -0.703907 0
M  V30 3009 H 303.602 -1.18107 -1.48831 0
M  V30 3010 H 301.752 -0.448902 -3.85898 0
M  V30 3011 H 303.424 -3.03065 -3.47778 0
M  V30 3012 H 301.667 -2.90194 -3.22444 0
M  V30 3013 H 302.338 -2.65517 -4.83947 0
M  V30 3014 H 304.814 -0.891016 -4.06448 0
M  V30 3015 H 303.69 -0.737712 -5.4392 0
M  V30 3016 H 303.951 0.635274 -4.37512 0
M  V30 3017 N 303.011 1.40521 -0.713556 0
M  V30 3018 C 304.239 2.05237 -0.261775 0
M  V30 3019 C 304.654 1.53755 1.09567 0
M  V30 3020 O 304.011 0.693268 1.6882 0
M  V30 3021 C 304.062 3.60763 -0.230706 0
M  V30 3022 O 303.783 4.10345 -1.53455 0
M  V30 3023 C 305.284 4.42651 0.239874 0
M  V30 3024 H 302.504 0.660533 -0.118057 0
M  V30 3025 H 305.048 1.79967 -0.971192 0
M  V30 3026 H 303.203 3.8501 0.429661 0
M  V30 3027 H 303.617 5.04526 -1.43366 0
M  V30 3028 H 305.091 5.51599 0.210468 0
M  V30 3029 H 305.568 4.20082 1.28171 0
M  V30 3030 H 306.174 4.23507 -0.390142 0
M  V30 3031 N 304.489 0.459591 1.5075 0
M  V30 3032 C 305.9 0.00171547 1.867 0
M  V30 3033 C 306.251 -1.39934 1.37525 0
M  V30 3034 O 305.376 -2.03523 0.735349 0
M  V30 3035 C 305.971 -0.00366298 3.388 0
M  V30 3036 C 304.53 -0.406026 3.74204 0
M  V30 3037 C 303.677 0.38673 2.7459 0
M  V30 3038 H 306.628 0.674413 1.43657 0
M  V30 3039 H 306.649 -0.808371 3.71814 0
M  V30 3040 H 306.161 1.01617 3.74561 0
M  V30 3041 H 304.262 -1.43063 3.4404 0
M  V30 3042 H 304.375 -0.115362 4.78961 0
M  V30 3043 H 302.739 -0.158019 2.54209 0
M  V30 3044 H 303.522 1.40585 3.13194 0
M  V30 3045 N 305.967 -1.56429 0.191757 0
M  V30 3046 C 306.897 -2.21937 -0.725696 0
M  V30 3047 C 307.878 -1.1814 -1.2238 0
M  V30 3048 O 309.063 -1.46636 -1.27325 0
M  V30 3049 C 306.193 -2.87611 -1.94672 0
M  V30 3050 C 305.147 -3.97623 -1.58366 0
M  V30 3051 C 304.473 -4.50446 -2.88102 0
M  V30 3052 C 305.773 -5.16197 -0.796133 0
M  V30 3053 H 307.467 -2.98861 -0.179606 0
M  V30 3054 H 305.013 -1.43749 -0.0849464 0
M  V30 3055 H 306.966 -3.3212 -2.59373 0
M  V30 3056 H 305.69 -2.08087 -2.51728 0
M  V30 3057 H 304.349 -3.53801 -0.960247 0
M  V30 3058 H 303.997 -3.67688 -3.43241 0
M  V30 3059 H 303.697 -5.24675 -2.64556 0
M  V30 3060 H 305.221 -4.97654 -3.53798 0
M  V30 3061 H 306.635 -5.57271 -1.34618 0
M  V30 3062 H 305.032 -5.96471 -0.658928 0
M  V30 3063 H 306.102 -4.84473 0.203478 0
M  V30 3064 N 307.445 0.0818655 -1.57387 0
M  V30 3065 C 308.408 1.08265 -2.02018 0
M  V30 3066 C 309.408 1.32183 -0.915664 0
M  V30 3067 O 310.598 1.28073 -1.18081 0
M  V30 3068 C 307.73 2.42871 -2.39221 0
M  V30 3069 H 308.923 0.698204 -2.91659 0
M  V30 3070 H 306.476 0.327303 -1.52835 0
M  V30 3071 H 307.211 2.86167 -1.52575 0
M  V30 3072 H 306.996 2.26855 -3.19811 0
M  V30 3073 H 308.486 3.14826 -2.74362 0
M  V30 3074 N 308.923 1.53595 0.353017 0
M  V30 3075 C 309.833 1.83897 1.45667 0
M  V30 3076 C 310.849 0.728334 1.58023 0
M  V30 3077 O 312.025 1.01968 1.73679 0
M  V30 3078 C 309.09 2.03383 2.80778 0
M  V30 3079 C 308.151 3.27262 2.77845 0
M  V30 3080 C 307.384 3.45809 4.06512 0
M  V30 3081 O 307.607 2.68387 5.03314 0
M  V30 3082 O 306.541 4.39207 4.11559 0
M  V30 3083 H 310.367 2.77686 1.2298 0
M  V30 3084 H 307.952 1.39132 0.544308 0
M  V30 3085 H 309.834 2.17698 3.60812 0
M  V30 3086 H 308.509 1.12783 3.03417 0
M  V30 3087 H 307.416 3.18359 1.96465 0
M  V30 3088 H 308.749 4.17824 2.60161 0
M  V30 3089 N 310.401 -0.613514 1.45168 0
M  V30 3090 C 311.333 -1.73825 1.4939 0
M  V30 3091 C 312.346 -1.58175 0.385304 0
M  V30 3092 O 313.535 -1.66165 0.652036 0
M  V30 3093 C 310.635 -3.11758 1.32891 0
M  V30 3094 C 309.808 -3.53704 2.57317 0
M  V30 3095 C 308.867 -4.70579 2.35462 0
M  V30 3096 O 307.893 -4.77996 3.09044 0
M  V30 3097 N 309.095 -5.63454 1.39644 0
M  V30 3098 H 311.86 -1.70669 2.46358 0
M  V30 3099 H 309.421 -0.79862 1.40832 0
M  V30 3100 H 311.413 -3.87692 1.1609 0
M  V30 3101 H 309.983 -3.09456 0.442218 0
M  V30 3102 H 309.203 -2.67794 2.89275 0
M  V30 3103 H 310.491 -3.78486 3.40038 0
M  V30 3104 H 309.889 -5.6017 0.789062 0
M  V30 3105 H 308.446 -6.38944 1.28816 0
M  V30 3106 N 311.879 -1.3236 -0.855495 0
M  V30 3107 C 313.29 -1.2056 -1.42556 0
M  V30 3108 C 313.641 0.182209 -1.95352 0
M  V30 3109 O 312.766 1.08088 -1.87472 0
M  V30 3110 C 313.361 -2.1826 -2.59129 0
M  V30 3111 C 311.92 -2.10351 -3.12137 0
M  V30 3112 C 311.067 -2.06674 -1.84882 0
M  V30 3113 H 314.018 -1.442 -0.662727 0
M  V30 3114 H 314.039 -1.78064 -3.36264 0
M  V30 3115 H 313.551 -3.19257 -2.20673 0
M  V30 3116 H 311.652 -1.12599 -3.55179 0
M  V30 3117 H 311.765 -3.00135 -3.73438 0
M  V30 3118 H 310.129 -1.51901 -2.04446 0
M  V30 3119 H 310.912 -3.09451 -1.48643 0
M  V30 3120 N 313.357 1.07166 -1.15556 0
M  V30 3121 C 314.287 2.16403 -0.877046 0
M  V30 3122 C 315.268 1.69217 0.173111 0
M  V30 3123 O 316.453 1.94181 0.027084 0
M  V30 3124 C 313.583 3.45349 -0.367632 0
M  V30 3125 C 312.537 4.05995 -1.35468 0
M  V30 3126 C 311.863 5.30045 -0.704038 0
M  V30 3127 C 313.163 4.45804 -2.72132 0
M  V30 3128 H 314.857 2.39959 -1.79053 0
M  V30 3129 H 312.403 1.15325 -0.862331 0
M  V30 3130 H 314.356 4.21095 -0.160317 0
M  V30 3131 H 313.08 3.21385 0.581326 0
M  V30 3132 H 311.739 3.32296 -1.54839 0
M  V30 3133 H 311.387 5.02373 0.251128 0
M  V30 3134 H 311.087 5.71579 -1.36277 0
M  V30 3135 H 312.611 6.08495 -0.50654 0
M  V30 3136 H 314.025 5.12671 -2.56595 0
M  V30 3137 H 312.422 4.98296 -3.34397 0
M  V30 3138 H 313.492 3.57083 -3.28054 0
M  V30 3139 N 314.835 0.952656 1.25548 0
M  V30 3140 C 315.765 0.489287 2.28316 0
M  V30 3141 C 316.746 -0.463359 1.63667 0
M  V30 3142 O 317.931 -0.36274 1.90782 0
M  V30 3143 C 315.061 -0.235603 3.465 0
M  V30 3144 C 314.015 0.631593 4.23314 0
M  V30 3145 C 313.341 -0.223923 5.34231 0
M  V30 3146 C 314.641 1.90871 4.86174 0
M  V30 3147 H 316.335 1.34822 2.67326 0
M  V30 3148 H 313.881 0.649728 1.28509 0
M  V30 3149 H 315.834 -0.570882 4.17515 0
M  V30 3150 H 314.558 -1.12877 3.06474 0
M  V30 3151 H 313.217 0.949929 3.54079 0
M  V30 3152 H 312.865 -1.11678 4.90446 0
M  V30 3153 H 312.565 0.35299 5.86539 0
M  V30 3154 H 314.089 -0.554214 6.0808 0
M  V30 3155 H 315.503 1.63997 5.49343 0
M  V30 3156 H 313.9 2.43112 5.4865 0
M  V30 3157 H 314.97 2.61304 4.08471 0
M  V30 3158 N 316.313 -1.40141 0.720998 0
M  V30 3159 C 317.561 -2.0039 0.262323 0
M  V30 3160 C 317.882 -1.57469 -1.15015 0
M  V30 3161 O 317.152 -0.816582 -1.78069 0
M  V30 3162 H 315.732 -0.741063 0.093996 0
M  V30 3163 H 318.394 -1.71398 0.927835 0
M  V30 3164 H 317.49 -3.10658 0.299671 0
M  V30 3165 N 317.792 -0.46758 -1.50504 0
M  V30 3166 C 319.208 -0.121533 -1.59137 0
M  V30 3167 C 319.408 1.3717 -1.47603 0
M  V30 3168 O 318.464 2.14464 -1.33272 0
M  V30 3169 C 319.777 -0.6686 -2.93173 0
M  V30 3170 C 321.325 -0.631716 -3.06559 0
M  V30 3171 C 321.8 -1.15627 -4.43164 0
M  V30 3172 N 323.291 -1.11553 -4.49567 0
M  V30 3173 C 324.026 -1.49195 -5.5365 0
M  V30 3174 N 323.522 -1.94269 -6.65005 0
M  V30 3175 N 325.315 -1.4082 -5.44175 0
M  V30 3176 H 317.466 -1.4388 -1.56245 0
M  V30 3177 H 319.729 -0.594784 -0.738198 0
M  V30 3178 H 319.435 -1.71453 -3.07078 0
M  V30 3179 H 319.309 -0.11021 -3.77039 0
M  V30 3180 H 321.696 0.405297 -2.92304 0
M  V30 3181 H 321.777 -1.22687 -2.24458 0
M  V30 3182 H 321.421 -2.1919 -4.58168 0
M  V30 3183 H 321.351 -0.537365 -5.23851 0
M  V30 3184 H 323.842 -0.784895 -3.69659 0
M  V30 3185 H 324.155 -2.21148 -7.40482 0
M  V30 3186 H 322.5 -1.98219 -6.66134 0
M  V30 3187 H 325.691 -1.0545 -4.56068 0
M  V30 3188 H 325.864 -1.70481 -6.25172 0
M  V30 3189 N 319.27 1.56325 -0.20005 0
M  V30 3190 C 320.2 2.22318 0.713916 0
M  V30 3191 C 321.181 1.18788 1.21752 0
M  V30 3192 O 322.366 1.47309 1.26545 0
M  V30 3193 C 319.496 2.88639 1.93144 0
M  V30 3194 C 318.45 3.98457 1.56255 0
M  V30 3195 C 317.776 4.51967 2.85709 0
M  V30 3196 C 319.076 5.16612 0.768747 0
M  V30 3197 H 320.77 2.98952 0.163755 0
M  V30 3198 H 318.316 1.43792 0.0773219 0
M  V30 3199 H 320.269 3.33491 2.57608 0
M  V30 3200 H 318.993 2.09419 2.50621 0
M  V30 3201 H 317.652 3.54305 0.941471 0
M  V30 3202 H 317.3 3.69503 3.41287 0
M  V30 3203 H 317 5.26071 2.6177 0
M  V30 3204 H 318.524 4.99523 3.51154 0
M  V30 3205 H 319.938 5.57977 1.3166 0
M  V30 3206 H 318.335 5.96812 0.627286 0
M  V30 3207 H 319.405 4.84358 -0.229168 0
M  V30 3208 N 320.748 -0.0735177 1.57428 0
M  V30 3209 C 321.997 -0.771809 1.86349 0
M  V30 3210 C 322.31 -1.78828 0.792452 0
M  V30 3211 O 323.516 -2.53602 0.96945 0
M  V30 3212 C 321.972 -1.42358 3.30548 0
M  V30 3213 C 321.58 -0.445761 4.45777 0
M  V30 3214 C 323.324 -2.10434 3.6867 0
M  V30 3215 C 321.231 -1.10335 5.81016 0
M  V30 3216 H 320.161 -0.291999 0.695164 0
M  V30 3217 H 322.812 -0.0250749 1.83483 0
M  V30 3218 H 321.194 -2.21852 3.28021 0
M  V30 3219 H 322.368 0.319239 4.59693 0
M  V30 3220 H 320.683 0.130457 4.16196 0
M  V30 3221 H 323.28 -2.60405 4.67004 0
M  V30 3222 H 323.623 -2.90298 2.98383 0
M  V30 3223 H 324.156 -1.37773 3.7318 0
M  V30 3224 H 320.895 -0.345061 6.54591 0
M  V30 3225 H 320.415 -1.83925 5.70904 0
M  V30 3226 H 322.094 -1.62367 6.26295 0
M  V30 3227 N 322.226 -1.5378 -0.344866 0
M  V30 3228 C 323.637 -1.62428 -0.920552 0
M  V30 3229 C 323.988 -0.504747 -1.89596 0
M  V30 3230 O 323.113 0.365711 -2.13287 0
M  V30 3231 C 323.708 -2.94419 -1.67639 0
M  V30 3232 C 322.267 -3.05333 -2.20111 0
M  V30 3233 C 321.414 -2.57866 -1.01982 0
M  V30 3234 H 324.365 -1.58222 -0.123042 0
M  V30 3235 H 324.386 -2.83384 -2.53917 0
M  V30 3236 H 323.898 -3.7588 -0.966224 0
M  V30 3237 H 321.999 -2.28502 -2.94308 0
M  V30 3238 H 322.112 -4.10778 -2.46573 0
M  V30 3239 H 320.476 -2.13241 -1.39285 0
M  V30 3240 H 321.259 -3.41765 -0.324308 0
M  V30 3241 N 323.704 0.605807 -1.45491 0
M  V30 3242 C 324.95 1.36481 -1.50813 0
M  V30 3243 C 325.305 1.91826 -0.148469 0
M  V30 3244 O 324.598 1.72211 0.839869 0
M  V30 3245 C 324.792 2.53012 -2.52428 0
M  V30 3246 C 324.621 2.09078 -3.98141 0
M  V30 3247 C 323.391 1.95167 -4.66088 0
M  V30 3248 C 325.589 1.66438 -4.86624 0
M  V30 3249 N 323.571 1.45062 -5.96515 0
M  V30 3250 C 324.942 1.27761 -6.06694 0
M  V30 3251 C 326.997 1.54046 -4.7347 0
M  V30 3252 C 325.7 0.779286 -7.15066 0
M  V30 3253 C 327.726 1.05618 -5.81892 0
M  V30 3254 C 327.088 0.67906 -7.01119 0
M  V30 3255 H 323.187 0.493267 -0.606805 0
M  V30 3256 H 325.771 0.692347 -1.81974 0
M  V30 3257 H 323.942 3.17851 -2.23215 0
M  V30 3258 H 325.674 3.19897 -2.47887 0
M  V30 3259 H 322.429 2.16407 -4.21266 0
M  V30 3260 H 322.853 1.22237 -6.65873 0
M  V30 3261 H 327.495 1.81827 -3.81705 0
M  V30 3262 H 325.213 0.489026 -8.06619 0
M  V30 3263 H 328.799 0.964529 -5.73749 0
M  V30 3264 H 327.679 0.310091 -7.83587 0
M  V30 3265 N 325.182 1.32811 0.848464 0
M  V30 3266 C 326.428 1.23907 1.60546 0
M  V30 3267 C 326.761 -0.197161 1.93197 0
M  V30 3268 O 326.036 -1.13596 1.5788 0
M  V30 3269 C 326.319 2.10489 2.92175 0
M  V30 3270 C 326.172 3.62522 2.66266 0
M  V30 3271 C 327.491 1.97075 3.93509 0
M  V30 3272 H 324.61 0.451459 0.58254 0
M  V30 3273 H 327.252 1.62818 0.979296 0
M  V30 3274 H 325.402 1.77434 3.45614 0
M  V30 3275 H 327.074 4.05821 2.19334 0
M  V30 3276 H 325.317 3.84879 2.00126 0
M  V30 3277 H 325.988 4.18437 3.6002 0
M  V30 3278 H 328.464 2.26045 3.49346 0
M  V30 3279 H 327.34 2.59923 4.83457 0
M  V30 3280 H 327.601 0.940186 4.31987 0
M  V30 3281 N 326.66 -1.06551 1.16123 0
M  V30 3282 C 327.909 -1.78687 0.935622 0
M  V30 3283 C 328.222 -1.88056 -0.538001 0
M  V30 3284 O 329.428 -2.56794 -0.88143 0
M  V30 3285 C 327.884 -3.21143 1.62466 0
M  V30 3286 C 327.492 -3.19949 3.13587 0
M  V30 3287 C 329.236 -3.9783 1.48092 0
M  V30 3288 C 327.143 -4.57108 3.75241 0
M  V30 3289 H 326.073 -0.669712 0.346412 0
M  V30 3290 H 328.724 -1.19534 1.39226 0
M  V30 3291 H 327.106 -3.80539 1.09572 0
M  V30 3292 H 328.28 -2.70151 3.73303 0
M  V30 3293 H 326.595 -2.5676 3.27816 0
M  V30 3294 H 329.192 -4.99217 1.91538 0
M  V30 3295 H 329.535 -4.14078 0.429507 0
M  V30 3296 H 330.068 -3.4495 1.98127 0
M  V30 3297 H 326.807 -4.46065 4.80319 0
M  V30 3298 H 326.327 -5.07111 3.20309 0
M  V30 3299 H 328.006 -5.26069 3.76644 0
M  V30 3300 N 328.138 -0.959301 -1.25041 0
M  V30 3301 C 329.415 -0.533805 -1.88175 0
M  V30 3302 C 329.795 0.988994 -1.865 0
M  V30 3303 O 329.143 1.85677 -1.33177 0
M  V30 3304 C 329.353 -1.11575 -3.30684 0
M  V30 3305 C 330.701 -1.19548 -4.07423 0
M  V30 3306 O 331.725 -1.06765 -3.39823 0
M  V30 3307 O 330.584 -1.39656 -5.28354 0
M  V30 3308 H 327.678 -0.176772 -0.807887 0
M  V30 3309 H 330.224 -1.05303 -1.33076 0
M  V30 3310 H 328.996 -2.15884 -3.26358 0
M  V30 3311 H 328.619 -0.580059 -3.93346 0
M  V30 3312 N 329.616 1.39756 -0.72842 0
M  V30 3313 C 330.548 2.29157 -0.0446202 0
M  V30 3314 C 331.561 1.46484 0.710367 0
M  V30 3315 O 332.75 1.69632 0.55562 0
M  V30 3316 C 329.85 3.24987 0.961071 0
M  V30 3317 C 329.023 4.36572 0.268967 0
M  V30 3318 C 328.082 5.12756 1.18184 0
M  V30 3319 O 327.108 5.6534 0.661794 0
M  V30 3320 N 328.31 5.23331 2.51206 0
M  V30 3321 H 331.075 2.88482 -0.812295 0
M  V30 3322 H 328.636 1.51265 -0.577098 0
M  V30 3323 H 330.628 3.72827 1.57423 0
M  V30 3324 H 329.198 2.66739 1.63 0
M  V30 3325 H 328.418 3.90694 -0.524574 0
M  V30 3326 H 329.706 5.08363 -0.210934 0
M  V30 3327 H 329.104 4.82116 2.9594 0
M  V30 3328 H 327.661 5.74634 3.07634 0
M  V30 3329 N 331.094 0.475555 1.50254 0
M  V30 3330 C 332.34 -0.0780073 2.0265 0
M  V30 3331 C 332.673 -1.38968 1.35652 0
M  V30 3332 O 331.948 -1.8839 0.483691 0
M  V30 3333 C 332.231 -0.257161 3.59181 0
M  V30 3334 C 332.084 1.07585 4.36744 0
M  V30 3335 C 333.403 -1.00965 4.28362 0
M  V30 3336 H 330.522 -0.0268758 0.73651 0
M  V30 3337 H 333.164 0.622015 1.7953 0
M  V30 3338 H 331.314 -0.853412 3.79011 0
M  V30 3339 H 332.986 1.70902 4.28474 0
M  V30 3340 H 331.229 1.6714 4.00308 0
M  V30 3341 H 331.9 0.904088 5.44546 0
M  V30 3342 H 334.376 -0.504214 4.13034 0
M  V30 3343 H 333.252 -1.10381 5.37687 0
M  V30 3344 H 333.513 -2.04731 3.91839 0
M  V30 3345 N 332.573 -1.56217 0.208337 0
M  V30 3346 C 333.819 -1.98242 -0.427552 0
M  V30 3347 C 334.152 -1.09554 -1.60348 0
M  V30 3348 O 333.427 -0.15035 -1.93918 0
M  V30 3349 C 333.71 -3.4931 -0.874907 0
M  V30 3350 C 333.563 -4.48773 0.303751 0
M  V30 3351 C 334.882 -4.04424 -1.73577 0
M  V30 3352 H 332.001 -0.720744 -0.153936 0
M  V30 3353 H 334.643 -1.87586 0.30192 0
M  V30 3354 H 332.793 -3.58522 -1.49648 0
M  V30 3355 H 334.465 -4.51586 0.941682 0
M  V30 3356 H 332.708 -4.23194 0.953375 0
M  V30 3357 H 333.379 -5.51976 -0.0519883 0
M  V30 3358 H 335.855 -3.98075 -1.21143 0
M  V30 3359 H 334.731 -5.1047 -2.01771 0
M  V30 3360 H 334.992 -3.50494 -2.69456 0
M  V30 3361 N 334.051 0.0651679 -1.57465 0
M  V30 3362 C 335.328 0.79644 -1.78651 0
M  V30 3363 C 335.708 1.95454 -0.797566 0
M  V30 3364 O 335.056 2.27882 0.167946 0
M  V30 3365 C 335.266 1.26322 -3.25337 0
M  V30 3366 C 336.614 1.6939 -3.89348 0
M  V30 3367 O 337.638 1.35872 -3.29268 0
M  V30 3368 O 336.497 2.31471 -4.95059 0
M  V30 3369 H 333.591 0.382157 -0.733407 0
M  V30 3370 H 336.137 0.0447311 -1.69641 0
M  V30 3371 H 334.909 0.434859 -3.88876 0
M  V30 3372 H 334.532 2.07604 -3.39096 0
M  V30 3373 N 335.529 1.53961 0.336706 0
M  V30 3374 C 336.479 1.7881 1.41461 0
M  V30 3375 C 337.463 0.643561 1.47469 0
M  V30 3376 O 338.655 0.903166 1.52223 0
M  V30 3377 C 335.784 2.00722 2.78506 0
M  V30 3378 C 334.87 3.2126 2.76862 0
M  V30 3379 N 335.261 4.42588 2.44845 0
M  V30 3380 C 333.559 3.22568 3.08004 0
M  V30 3381 C 334.26 5.2447 2.51607 0
M  V30 3382 N 333.236 4.61344 2.87511 0
M  V30 3383 H 337.038 2.70205 1.15615 0
M  V30 3384 H 334.552 1.52978 0.545112 0
M  V30 3385 H 336.549 2.1666 3.5618 0
M  V30 3386 H 335.209 1.10573 3.05293 0
M  V30 3387 H 336.22 4.69819 2.17922 0
M  V30 3388 H 332.897 2.42409 3.39918 0
M  V30 3389 H 334.287 6.31324 2.29955 0
M  V30 3390 N 337.007 -0.598083 1.45811 0
M  V30 3391 C 338.418 -1.18011 1.44673 0
M  V30 3392 C 338.769 -1.95378 0.179364 0
M  V30 3393 O 337.894 -2.04124 -0.718509 0
M  V30 3394 C 338.489 -2.14677 2.62105 0
M  V30 3395 C 337.048 -2.68236 2.64057 0
M  V30 3396 C 336.195 -1.43816 2.37091 0
M  V30 3397 H 339.146 -0.38686 1.53913 0
M  V30 3398 H 339.167 -2.97878 2.36746 0
M  V30 3399 H 338.679 -1.5834 3.5433 0
M  V30 3400 H 336.78 -3.28486 1.75864 0
M  V30 3401 H 336.893 -3.12021 3.63566 0
M  V30 3402 H 335.257 -1.731 1.86838 0
M  V30 3403 H 336.04 -0.893333 3.31473 0
M  V30 3404 N 338.485 -1.33259 -0.841409 0
M  V30 3405 C 339.762 -1.15174 -1.58096 0
M  V30 3406 C 340.142 0.282858 -2.09196 0
M  V30 3407 O 339.49 1.28151 -1.89181 0
M  V30 3408 C 339.7 -2.1907 -2.71679 0
M  V30 3409 C 341.048 -2.53093 -3.40924 0
M  V30 3410 O 342.072 -2.17717 -2.81918 0
M  V30 3411 O 340.931 -3.1379 -4.47435 0
M  V30 3412 H 338.025 -0.445303 -0.696875 0
M  V30 3413 H 340.571 -1.44833 -0.884385 0
M  V30 3414 H 339.343 -3.15443 -2.31541 0
M  V30 3415 H 338.966 -1.90481 -3.49002 0
M  V30 3416 N 339.963 1.05934 -1.16686 0
M  V30 3417 C 340.911 2.15603 -0.872817 0
M  V30 3418 C 341.905 1.68647 0.159576 0
M  V30 3419 O 343.111 1.79995 0.0132125 0
M  V30 3420 H 339.486 0.703885 -0.264671 0
M  V30 3421 H 341.457 2.37613 -1.80507 0
M  V30 3422 C 340.206 3.45457 -0.394344 0
M  V30 3423 H 339.529 3.81984 -1.18019 0
M  V30 3424 H 340.969 4.2339 -0.227408 0
M  V30 3425 C 339.428 3.25021 0.88673 0
M  V30 3426 O 339.958 3.50906 1.95519 0
M  V30 3427 N 338.164 2.78437 0.831925 0
M  V30 3428 H 337.711 2.57572 -0.0377619 0
M  V30 3429 H 337.669 2.65144 1.68956 0
M  V30 3430 N 341.441 0.965919 1.2453 0
M  V30 3431 C 342.718 0.543777 1.87889 0
M  V30 3432 C 343.098 -0.97909 1.87021 0
M  V30 3433 O 342.446 -1.84969 1.3416 0
M  V30 3434 C 342.656 1.13327 3.30088 0
M  V30 3435 C 344.004 1.21707 4.06783 0
M  V30 3436 O 345.028 1.08566 3.39252 0
M  V30 3437 O 343.887 1.42456 5.27606 0
M  V30 3438 H 340.981 0.181054 0.806938 0
M  V30 3439 H 343.527 1.06007 1.32516 0
M  V30 3440 H 342.299 2.17612 3.25209 0
M  V30 3441 H 341.922 0.600911 3.93033 0
M  V30 3442 N 342.919 -1.39368 0.735821 0
M  V30 3443 C 343.829 -2.34395 0.0979693 0
M  V30 3444 C 344.845 -1.58361 -0.720968 0
M  V30 3445 O 346.021 -1.90648 -0.649245 0
M  V30 3446 C 343.086 -3.37393 -0.797916 0
M  V30 3447 C 342.147 -4.29287 0.0333662 0
M  V30 3448 C 341.38 -5.27365 -0.819854 0
M  V30 3449 O 341.603 -5.31959 -2.05855 0
M  V30 3450 O 340.537 -6.01389 -0.248079 0
M  V30 3451 H 344.363 -2.90601 0.882315 0
M  V30 3452 H 341.948 -1.40909 0.4965 0
M  V30 3453 H 343.83 -4.00505 -1.31048 0
M  V30 3454 H 342.505 -2.83571 -1.56106 0
M  V30 3455 H 341.412 -3.69395 0.591475 0
M  V30 3456 H 342.745 -4.86317 0.758752 0
M  V30 3457 N 344.397 -0.483516 -1.5 0
M  V30 3458 C 345.622 0.0667119 -2.07293 0
M  V30 3459 C 346.047 1.3164 -1.3436 0
M  V30 3460 O 345.405 1.76945 -0.394987 0
M  V30 3461 C 345.453 0.321126 -3.59167 0
M  V30 3462 O 344.557 1.39927 -3.87936 0
M  V30 3463 H 343.898 -0.0184758 -0.663743 0
M  V30 3464 H 346.428 -0.678125 -1.93035 0
M  V30 3465 H 346.438 0.557906 -4.04168 0
M  V30 3466 H 345.113 -0.592007 -4.11665 0
M  V30 3467 H 343.69 1.14882 -3.54763 0
M  V30 3468 N 345.875 1.56104 -0.216619 0
M  V30 3469 C 347.121 1.99219 0.410301 0
M  V30 3470 C 347.476 1.10169 1.57735 0
M  V30 3471 O 346.769 0.150598 1.91007 0
M  V30 3472 C 346.963 3.45923 0.898464 0
M  V30 3473 C 346.792 4.49163 -0.219748 0
M  V30 3474 C 345.562 5.00642 -0.684516 0
M  V30 3475 C 347.76 5.03751 -1.03629 0
M  V30 3476 N 345.742 5.87579 -1.7783 0
M  V30 3477 C 347.113 5.87566 -1.97904 0
M  V30 3478 C 349.168 4.86128 -1.07629 0
M  V30 3479 C 347.871 6.5564 -2.95851 0
M  V30 3480 C 349.897 5.54958 -2.04392 0
M  V30 3481 C 349.259 6.38536 -2.97407 0
M  V30 3482 H 345.358 0.773206 0.11695 0
M  V30 3483 H 347.942 1.9193 -0.327258 0
M  V30 3484 H 346.113 3.53669 1.6054 0
M  V30 3485 H 347.845 3.75963 1.49779 0
M  V30 3486 H 344.6 4.72807 -0.27399 0
M  V30 3487 H 345.024 6.3575 -2.32705 0
M  V30 3488 H 349.666 4.21168 -0.371099 0
M  V30 3489 H 347.384 7.19785 -3.67335 0
M  V30 3490 H 350.97 5.43289 -2.08154 0
M  V30 3491 H 349.85 6.90858 -3.71059 0
M  V30 3492 N 347.353 -0.0568162 1.57498 0
M  V30 3493 C 348.285 -1.09292 2.01464 0
M  V30 3494 C 349.298 -1.34112 0.922913 0
M  V30 3495 O 350.487 -1.32089 1.20062 0
M  V30 3496 C 347.587 -2.44068 2.35125 0
M  V30 3497 C 346.76 -2.38995 3.66333 0
M  V30 3498 C 345.819 -3.55997 3.87495 0
M  V30 3499 O 344.845 -3.36746 4.58901 0
M  V30 3500 N 346.047 -4.76888 3.30996 0
M  V30 3501 H 348.812 -0.718386 2.90963 0
M  V30 3502 H 346.373 -0.245235 1.60032 0
M  V30 3503 H 348.365 -3.21011 2.46443 0
M  V30 3504 H 346.935 -2.73468 1.5144 0
M  V30 3505 H 346.155 -1.47336 3.65631 0
M  V30 3506 H 347.443 -2.3272 4.52458 0
M  V30 3507 H 346.841 -4.95431 2.73065 0
M  V30 3508 H 345.398 -5.51291 3.47738 0
M  V30 3509 N 348.832 -1.54138 -0.328536 0
M  V30 3510 C 350.057 -1.76378 -1.09112 0
M  V30 3511 C 350.482 -0.508596 -1.81094 0
M  V30 3512 O 349.84 0.539598 -1.73084 0
M  V30 3513 C 349.888 -2.95358 -2.06872 0
M  V30 3514 O 348.992 -2.66556 -3.14677 0
M  V30 3515 H 348.333 -0.584614 -0.314838 0
M  V30 3516 H 350.863 -2.01146 -0.374348 0
M  V30 3517 H 350.873 -3.22566 -2.4983 0
M  V30 3518 H 349.548 -3.86385 -1.5388 0
M  V30 3519 H 348.125 -2.50282 -2.7643 0
M  V30 3520 N 350.31 0.590341 -1.46126 0
M  V30 3521 C 351.559 1.34499 -1.50309 0
M  V30 3522 C 351.872 1.94977 -0.156021 0
M  V30 3523 O 353.078 2.71395 -0.0756037 0
M  V30 3524 C 351.534 2.43723 -2.64815 0
M  V30 3525 C 351.142 1.89582 -4.0591 0
M  V30 3526 C 352.886 3.20579 -2.78262 0
M  V30 3527 C 350.793 2.9639 -5.11769 0
M  V30 3528 H 349.723 0.505593 -0.559368 0
M  V30 3529 H 352.374 0.630848 -1.72315 0
M  V30 3530 H 350.756 3.17902 -2.36124 0
M  V30 3531 H 351.93 1.21997 -4.44357 0
M  V30 3532 H 350.245 1.25418 -3.97063 0
M  V30 3533 H 352.842 4.00276 -3.54519 0
M  V30 3534 H 353.185 3.72684 -1.85505 0
M  V30 3535 H 353.718 2.53505 -3.06562 0
M  V30 3536 H 350.457 2.49181 -6.06291 0
M  V30 3537 H 349.977 3.62487 -4.77873 0
M  V30 3538 H 351.656 3.60474 -5.37278 0
M  V30 3539 N 351.788 1.33704 0.83433 0
M  V30 3540 C 353.013 1.28615 1.62705 0
M  V30 3541 C 353.438 -0.139242 1.87584 0
M  V30 3542 O 352.796 -1.09734 1.4432 0
M  V30 3543 C 352.844 2.07139 2.95171 0
M  V30 3544 O 351.948 1.4331 3.86699 0
M  V30 3545 H 351.289 0.44226 0.49528 0
M  V30 3546 H 353.819 1.76335 1.03766 0
M  V30 3547 H 353.829 2.18073 3.44831 0
M  V30 3548 H 352.504 3.10779 2.76386 0
M  V30 3549 H 351.081 1.4105 3.45195 0
M  V30 3550 N 353.266 -1.05314 1.17247 0
M  V30 3551 C 354.196 -2.1498 0.911362 0
M  V30 3552 C 355.177 -1.69471 -0.146169 0
M  V30 3553 O 356.362 -1.942 0.003812 0
M  V30 3554 C 353.492 -3.4472 0.422528 0
M  V30 3555 C 352.446 -4.03789 1.4191 0
M  V30 3556 C 351.772 -5.28858 0.788274 0
M  V30 3557 C 353.072 -4.41418 2.7919 0
M  V30 3558 H 354.766 -2.3708 1.82848 0
M  V30 3559 H 352.312 -1.13938 0.880569 0
M  V30 3560 H 354.265 -4.20787 0.227289 0
M  V30 3561 H 352.989 -3.22269 -0.530123 0
M  V30 3562 H 351.648 -3.2979 1.60106 0
M  V30 3563 H 351.296 -5.02709 -0.171173 0
M  V30 3564 H 350.996 -5.69338 1.45353 0
M  V30 3565 H 352.52 -6.07612 0.603282 0
M  V30 3566 H 353.934 -5.08524 2.64719 0
M  V30 3567 H 352.331 -4.92913 3.42282 0
M  V30 3568 H 353.401 -3.51819 3.33693 0
M  V30 3569 N 354.744 -0.972509 -1.24016 0
M  V30 3570 C 355.991 -0.637034 -1.92219 0
M  V30 3571 C 356.319 0.828418 -1.75976 0
M  V30 3572 O 355.574 1.61206 -1.10955 0
M  V30 3573 C 355.873 -0.963694 -3.44162 0
M  V30 3574 C 355.539 -2.41807 -3.80579 0
M  V30 3575 C 354.201 -2.81556 -3.9023 0
M  V30 3576 C 356.553 -3.36172 -3.98293 0
M  V30 3577 C 353.881 -4.14702 -4.15017 0
M  V30 3578 C 356.233 -4.68952 -4.24578 0
M  V30 3579 C 354.897 -5.08472 -4.32449 0
M  V30 3580 H 354.167 -0.233107 -0.703379 0
M  V30 3581 H 356.814 -1.2249 -1.47202 0
M  V30 3582 H 355.119 -0.29365 -3.90698 0
M  V30 3583 H 356.816 -0.682449 -3.9515 0
M  V30 3584 H 353.406 -2.09988 -3.73635 0
M  V30 3585 H 357.59 -3.06644 -3.90234 0
M  V30 3586 H 352.846 -4.4494 -4.19331 0
M  V30 3587 H 357.02 -5.42037 -4.37229 0
M  V30 3588 H 354.647 -6.11665 -4.51409 0
M  V30 3589 N 356.222 1.38976 -0.743202 0
M  V30 3590 C 357.132 2.3434 -0.110399 0
M  V30 3591 C 358.148 1.58741 0.712559 0
M  V30 3592 O 359.324 1.9099 0.639125 0
M  V30 3593 C 356.389 3.37812 0.780012 0
M  V30 3594 C 355.45 4.29263 -0.0561319 0
M  V30 3595 C 354.683 5.27793 0.791875 0
M  V30 3596 O 354.906 5.33043 2.03031 0
M  V30 3597 O 353.84 6.01512 0.216183 0
M  V30 3598 H 357.666 2.90129 -0.897714 0
M  V30 3599 H 355.251 1.40643 -0.503966 0
M  V30 3600 H 357.133 4.01194 1.28923 0
M  V30 3601 H 355.808 2.84395 1.546 0
M  V30 3602 H 354.715 3.69076 -0.611056 0
M  V30 3603 H 356.048 4.85907 -0.784531 0
M  V30 3604 N 357.7 0.491464 1.49741 0
M  V30 3605 C 359.116 0.146835 1.58923 0
M  V30 3606 C 359.316 -1.34804 1.49767 0
M  V30 3607 O 358.372 -2.12317 1.36667 0
M  V30 3608 C 359.685 0.715157 2.92072 0
M  V30 3609 C 361.233 0.680407 3.05515 0
M  V30 3610 C 361.708 1.22663 4.41269 0
M  V30 3611 N 363.199 1.18691 4.47735 0
M  V30 3612 C 363.934 1.57984 5.51207 0
M  V30 3613 N 363.43 2.04824 6.6183 0
M  V30 3614 N 365.223 1.49459 5.41866 0
M  V30 3615 H 357.374 1.46347 1.53936 0
M  V30 3616 H 359.637 0.606453 0.728642 0
M  V30 3617 H 359.343 1.76317 3.04311 0
M  V30 3618 H 359.217 0.17018 3.76816 0
M  V30 3619 H 361.604 -0.358743 2.92911 0
M  V30 3620 H 361.685 1.26242 2.22478 0
M  V30 3621 H 361.329 2.26451 4.54623 0
M  V30 3622 H 361.259 0.620637 5.2293 0
M  V30 3623 H 363.75 0.843605 3.68364 0
M  V30 3624 H 364.063 2.32901 7.3687 0
M  V30 3625 H 362.408 2.08791 6.62896 0
M  V30 3626 H 365.599 1.12692 4.54333 0
M  V30 3627 H 365.772 1.80406 6.22381 0
M  V30 3628 N 359.178 -1.55987 0.224894 0
M  V30 3629 C 360.108 -2.23426 -0.678457 0
M  V30 3630 C 361.089 -1.20709 -1.19847 0
M  V30 3631 O 362.274 -1.49304 -1.24186 0
M  V30 3632 C 359.404 -2.91676 -1.88527 0
M  V30 3633 C 358.358 -4.00893 -1.49896 0
M  V30 3634 C 357.684 -4.56455 -2.78483 0
M  V30 3635 C 358.984 -5.17769 -0.686461 0
M  V30 3636 H 360.678 -2.99175 -0.116173 0
M  V30 3637 H 358.224 -1.43897 -0.054436 0
M  V30 3638 H 360.177 -3.37547 -2.5227 0
M  V30 3639 H 358.901 -2.1338 -2.47258 0
M  V30 3640 H 357.56 -3.55758 -0.884985 0
M  V30 3641 H 357.208 -3.74886 -3.35365 0
M  V30 3642 H 356.908 -5.30169 -2.53368 0
M  V30 3643 H 358.432 -5.05047 -3.43162 0
M  V30 3644 H 359.846 -5.60001 -1.22767 0
M  V30 3645 H 358.243 -5.97735 -0.532259 0
M  V30 3646 H 359.313 -4.83932 0.306196 0
M  V30 3647 N 360.656 0.0484629 -1.57525 0
M  V30 3648 C 361.904 0.741657 -1.88 0
M  V30 3649 C 362.225 1.76918 -0.820054 0
M  V30 3650 O 361.495 1.95335 0.148661 0
M  V30 3651 H 360.075 0.276908 -0.69378 0
M  V30 3652 H 362.737 0.019013 -1.94891 0
M  V30 3653 H 361.833 1.24336 -2.86264 0
M  V30 3654 N 362.134 1.5431 0.320358 0
M  V30 3655 C 363.382 1.72327 1.05583 0
M  V30 3656 C 363.703 0.50149 1.88441 0
M  V30 3657 O 362.973 -0.48448 1.89815 0
M  V30 3658 H 361.553 0.635387 0.3928 0
M  V30 3659 H 364.215 1.91621 0.356019 0
M  V30 3660 H 363.311 2.60426 1.72003 0
M  V30 3661 N 363.613 -0.582584 1.46437 0
M  V30 3662 C 364.543 -1.70187 1.59871 0
M  V30 3663 C 365.524 -1.64066 0.449042 0
M  V30 3664 O 366.709 -1.82081 0.6753 0
M  V30 3665 C 363.839 -3.08827 1.58881 0
M  V30 3666 C 362.793 -3.29779 2.72819 0
M  V30 3667 C 362.119 -4.68947 2.5689 0
M  V30 3668 C 363.419 -3.17601 4.1464 0
M  V30 3669 H 365.113 -1.592 2.53566 0
M  V30 3670 H 362.659 -0.764472 1.22032 0
M  V30 3671 H 364.612 -3.86951 1.66873 0
M  V30 3672 H 363.336 -3.20713 0.617306 0
M  V30 3673 H 361.995 -2.54054 2.64296 0
M  V30 3674 H 361.643 -4.77599 1.57823 0
M  V30 3675 H 361.343 -4.83919 3.33312 0
M  V30 3676 H 362.867 -5.4924 2.66773 0
M  V30 3677 H 364.281 -3.8557 4.24274 0
M  V30 3678 H 362.678 -3.44094 4.9165 0
M  V30 3679 H 363.748 -2.14681 4.34788 0
M  V30 3680 N 365.091 -1.34144 -0.827227 0
M  V30 3681 C 366.054 -1.25264 -1.91942 0
M  V30 3682 C 367.054 -0.168866 -1.59911 0
M  V30 3683 O 368.244 -0.421198 -1.69031 0
M  V30 3684 C 365.376 -0.932952 -3.27885 0
M  V30 3685 H 366.569 -2.22357 -2.0124 0
M  V30 3686 H 364.122 -1.1837 -1.0207 0
M  V30 3687 H 364.857 0.0349917 -3.24281 0
M  V30 3688 H 364.642 -1.71682 -3.52516 0
M  V30 3689 H 366.132 -0.895874 -4.07877 0
M  V30 3690 N 366.569 1.04691 -1.17803 0
M  V30 3691 C 367.797 1.81446 -0.99423 0
M  V30 3692 C 368.212 1.83174 0.457459 0
M  V30 3693 O 367.569 1.26265 1.31771 0
M  V30 3694 C 367.62 3.27334 -1.5341 0
M  V30 3695 O 367.341 3.25798 -2.92895 0
M  V30 3696 C 368.842 4.20759 -1.39559 0
M  V30 3697 H 366.062 0.571599 -0.351447 0
M  V30 3698 H 368.606 1.31982 -1.56208 0
M  V30 3699 H 366.761 3.74052 -1.00815 0
M  V30 3700 H 367.175 4.17144 -3.17949 0
M  V30 3701 H 368.649 5.21084 -1.82141 0
M  V30 3702 H 369.126 4.37856 -0.343394 0
M  V30 3703 H 369.732 3.79901 -1.91195 0
M  V30 3704 N 368.047 0.979072 1.23499 0
M  V30 3705 C 369.458 0.684391 1.73704 0
M  V30 3706 C 369.809 -0.799448 1.79174 0
M  V30 3707 O 368.934 -1.62531 1.42873 0
M  V30 3708 C 369.529 1.23564 3.15464 0
M  V30 3709 C 368.088 0.99063 3.6313 0
M  V30 3710 C 367.235 1.36416 2.41425 0
M  V30 3711 H 370.186 1.15307 1.09041 0
M  V30 3712 H 370.207 0.607417 3.7562 0
M  V30 3713 H 369.719 2.31561 3.1145 0
M  V30 3714 H 367.82 -0.0733136 3.72528 0
M  V30 3715 H 367.933 1.64427 4.5 0
M  V30 3716 H 366.297 0.782616 2.42378 0
M  V30 3717 H 367.08 2.45387 2.40083 0
M  V30 3718 N 369.525 -1.3858 0.750561 0
M  V30 3719 C 370.488 -2.28836 0.129152 0
M  V30 3720 C 371.488 -1.47045 -0.650714 0
M  V30 3721 O 372.678 -1.6753 -0.477428 0
M  V30 3722 C 369.81 -3.30751 -0.825622 0
M  V30 3723 H 371.003 -2.85294 0.924516 0
M  V30 3724 H 368.556 -1.47489 0.517376 0
M  V30 3725 H 369.291 -2.79378 -1.64677 0
M  V30 3726 H 369.076 -3.91177 -0.268852 0
M  V30 3727 H 370.566 -3.98249 -1.2565 0
M  V30 3728 N 371.003 -0.499398 -1.49478 0
M  V30 3729 C 371.933 0.269244 -2.31943 0
M  V30 3730 C 372.914 0.964054 -1.40143 0
M  V30 3731 O 374.099 0.955767 -1.69052 0
M  V30 3732 C 371.229 1.33504 -3.20615 0
M  V30 3733 C 370.183 0.760202 -4.21195 0
M  V30 3734 C 369.509 1.9264 -4.98792 0
M  V30 3735 C 370.809 -0.247661 -5.21712 0
M  V30 3736 H 372.503 -0.419082 -2.96452 0
M  V30 3737 H 370.049 -0.202988 -1.42562 0
M  V30 3738 H 372.002 1.88048 -3.77115 0
M  V30 3739 H 370.726 2.05253 -2.54045 0
M  V30 3740 H 369.385 0.23653 -3.65836 0
M  V30 3741 H 369.033 2.63154 -4.28671 0
M  V30 3742 H 368.733 1.54785 -5.66847 0
M  V30 3743 H 370.257 2.4762 -5.58137 0
M  V30 3744 H 371.671 0.209579 -5.72917 0
M  V30 3745 H 370.068 -0.541962 -5.97648 0
M  V30 3746 H 371.138 -1.16409 -4.7072 0
M  V30 3747 N 372.481 1.55866 -0.233164 0
M  V30 3748 C 373.73 1.97779 0.39579 0
M  V30 3749 C 374.043 1.12419 1.60066 0
M  V30 3750 O 375.249 1.44283 2.29988 0
M  V30 3751 C 373.705 3.5188 0.755556 0
M  V30 3752 C 373.313 4.45959 -0.427152 0
M  V30 3753 C 375.057 4.02479 1.34946 0
M  V30 3754 C 372.964 5.91383 -0.0443043 0
M  V30 3755 H 371.894 0.738592 0.15165 0
M  V30 3756 H 374.545 1.80486 -0.331212 0
M  V30 3757 H 372.927 3.64816 1.5403 0
M  V30 3758 H 374.101 4.44776 -1.20462 0
M  V30 3759 H 372.416 4.05765 -0.935068 0
M  V30 3760 H 375.013 5.08637 1.649 0
M  V30 3761 H 375.356 3.49014 2.26925 0
M  V30 3762 H 375.889 3.92813 0.62791 0
M  V30 3763 H 372.628 6.48857 -0.930874 0
M  V30 3764 H 372.148 5.95734 0.697238 0
M  V30 3765 H 373.827 6.45893 0.378334 0
M  V30 3766 N 373.959 -0.0401083 1.57549 0
M  V30 3767 C 375.187 -0.745196 1.93014 0
M  V30 3768 C 375.602 -1.6948 0.831984 0
M  V30 3769 O 374.959 -1.81482 -0.192463 0
M  V30 3770 C 375.01 -1.51176 3.28372 0
M  V30 3771 O 374.731 -0.600284 4.33968 0
M  V30 3772 C 376.232 -2.315 3.78051 0
M  V30 3773 H 373.452 -0.210088 0.637263 0
M  V30 3774 H 375.996 -0.000924689 2.045 0
M  V30 3775 H 374.151 -2.20801 3.18317 0
M  V30 3776 H 374.565 -1.13669 5.12035 0
M  V30 3777 H 376.039 -2.80697 4.75303 0
M  V30 3778 H 376.516 -3.12436 3.08675 0
M  V30 3779 H 377.122 -1.66971 3.91153 0
M  V30 3780 N 375.437 -1.54477 -0.31217 0
M  V30 3781 C 376.4 -1.83923 -1.36766 0
M  V30 3782 C 377.4 -0.711563 -1.44199 0
M  V30 3783 O 378.59 -0.979866 -1.44029 0
M  V30 3784 C 375.722 -2.0095 -2.75376 0
M  V30 3785 H 376.915 -2.78239 -1.11906 0
M  V30 3786 H 374.468 -1.46369 -0.548257 0
M  V30 3787 H 375.203 -1.08883 -3.05475 0
M  V30 3788 H 374.988 -2.83018 -2.71373 0
M  V30 3789 H 376.478 -2.2514 -3.51713 0
M  V30 3790 N 376.915 0.57481 -1.46744 0
M  V30 3791 C 378.163 1.33009 -1.52161 0
M  V30 3792 C 378.484 1.94185 -0.178092 0
M  V30 3793 O 377.754 1.7899 0.796196 0
M  V30 3794 H 376.334 0.493873 -0.560445 0
M  V30 3795 H 378.996 0.672589 -1.82927 0
M  V30 3796 H 378.092 2.13273 -2.27862 0
M  V30 3797 N 378.394 1.34581 0.820102 0
M  V30 3798 C 379.64 1.28294 1.57836 0
M  V30 3799 C 379.995 -0.145099 1.91852 0
M  V30 3800 O 379.288 -1.09209 1.57429 0
M  V30 3801 C 379.482 2.10997 2.8847 0
M  V30 3802 C 379.311 3.61698 2.67216 0
M  V30 3803 C 378.081 4.3097 2.63805 0
M  V30 3804 C 380.279 4.55638 2.38534 0
M  V30 3805 N 378.261 5.67502 2.34126 0
M  V30 3806 C 379.632 5.80194 2.18574 0
M  V30 3807 C 381.687 4.44523 2.24285 0
M  V30 3808 C 380.39 6.94886 1.8581 0
M  V30 3809 C 382.416 5.5905 1.92916 0
M  V30 3810 C 381.778 6.82627 1.73782 0
M  V30 3811 H 377.877 0.524697 0.579842 0
M  V30 3812 H 380.461 1.69323 0.961139 0
M  V30 3813 H 378.632 1.7226 3.48111 0
M  V30 3814 H 380.364 1.96333 3.53886 0
M  V30 3815 H 377.119 3.83438 2.77978 0
M  V30 3816 H 377.543 6.39525 2.22118 0
M  V30 3817 H 382.185 3.49599 2.37782 0
M  V30 3818 H 379.903 7.89789 1.7105 0
M  V30 3819 H 383.489 5.52396 1.82619 0
M  V30 3820 H 382.369 7.69748 1.49861 0
M  V30 3821 N 379.872 -1.04064 1.18357 0
M  V30 3822 C 381.102 -1.80654 1.00238 0
M  V30 3823 C 381.51 -1.83713 -0.452362 0
M  V30 3824 O 380.853 -1.27135 -1.32599 0
M  V30 3825 C 380.915 -3.27582 1.48088 0
M  V30 3826 C 380.579 -3.48184 2.96002 0
M  V30 3827 C 381.576 -3.39372 3.93856 0
M  V30 3828 C 379.261 -3.7478 3.34433 0
M  V30 3829 C 381.255 -3.5686 5.28138 0
M  V30 3830 C 378.942 -3.91915 4.68877 0
M  V30 3831 C 379.94 -3.82956 5.65539 0
M  V30 3832 O 379.628 -3.996 6.97549 0
M  V30 3833 H 379.36 -0.575751 0.354241 0
M  V30 3834 H 381.914 -1.32044 1.57333 0
M  V30 3835 H 380.144 -3.77161 0.853588 0
M  V30 3836 H 381.833 -3.8573 1.2636 0
M  V30 3837 H 382.599 -3.18789 3.65511 0
M  V30 3838 H 378.478 -3.80852 2.59756 0
M  V30 3839 H 382.022 -3.49783 6.03571 0
M  V30 3840 H 377.919 -4.11992 4.96923 0
M  V30 3841 H 378.687 -4.1676 7.04452 0
M  V30 3842 N 381.35 -0.985608 -1.22978 0
M  V30 3843 C 382.627 -0.573599 -1.87001 0
M  V30 3844 C 383.007 0.949213 -1.88555 0
M  V30 3845 O 382.355 1.82811 -1.37086 0
M  V30 3846 C 382.565 -1.18564 -3.28243 0
M  V30 3847 C 383.913 -1.28163 -4.04796 0
M  V30 3848 O 384.937 -1.13949 -3.37482 0
M  V30 3849 O 383.796 -1.50832 -5.25273 0
M  V30 3850 H 380.89 -0.193868 -0.803955 0
M  V30 3851 H 383.436 -1.08102 -1.30813 0
M  V30 3852 H 382.208 -2.22758 -3.21706 0
M  V30 3853 H 381.831 -0.663363 -3.92027 0
M  V30 3854 N 382.828 1.3818 -0.7579 0
M  V30 3855 C 384.076 1.99624 -0.315361 0
M  V30 3856 C 384.397 1.60464 1.10799 0
M  V30 3857 O 383.667 0.863507 1.75842 0
M  V30 3858 H 382.247 0.73831 -0.113611 0
M  V30 3859 H 384.909 1.68878 -0.972952 0
M  V30 3860 H 384.005 3.09754 -0.381931 0
M  V30 3861 N 384.306 0.507319 1.49211 0
M  V30 3862 C 385.553 -0.0349529 2.0247 0
M  V30 3863 C 385.881 -1.36409 1.38647 0
M  V30 3864 O 385.136 -1.88841 0.513566 0
M  V30 3865 C 385.435 -0.229513 3.56662 0
M  V30 3866 C 385.101 1.02241 4.39156 0
M  V30 3867 C 383.763 1.36557 4.61417 0
M  V30 3868 C 386.115 1.85428 4.871 0
M  V30 3869 C 383.443 2.53999 5.28868 0
M  V30 3870 C 385.795 3.02028 5.55843 0
M  V30 3871 C 384.459 3.36717 5.76349 0
M  V30 3872 H 383.729 -0.0127902 0.74089 0
M  V30 3873 H 386.376 0.668756 1.79443 0
M  V30 3874 H 384.681 -1.0158 3.78403 0
M  V30 3875 H 386.378 -0.663641 3.9547 0
M  V30 3876 H 382.968 0.745124 4.22073 0
M  V30 3877 H 387.152 1.6023 4.69723 0
M  V30 3878 H 382.408 2.81105 5.42946 0
M  V30 3879 H 386.582 3.66808 5.91967 0
M  V30 3880 H 384.209 4.27821 6.28389 0
M  V30 3881 N 385.784 -1.5574 0.241426 0
M  V30 3882 C 387.03 -1.99104 -0.385406 0
M  V30 3883 C 387.363 -1.1293 -1.57988 0
M  V30 3884 O 386.638 -0.191449 -1.93555 0
M  V30 3885 C 386.921 -3.51087 -0.800616 0
M  V30 3886 C 386.774 -4.48028 0.398874 0
M  V30 3887 C 388.093 -4.08015 -1.64959 0
M  V30 3888 H 385.212 -0.723848 -0.138614 0
M  V30 3889 H 387.854 -1.86903 0.341642 0
M  V30 3890 H 386.004 -3.61615 -1.4201 0
M  V30 3891 H 387.676 -4.49487 1.03726 0
M  V30 3892 H 385.919 -4.21077 1.04293 0
M  V30 3893 H 386.59 -5.51962 0.0651056 0
M  V30 3894 H 389.066 -4.00555 -1.12672 0
M  V30 3895 H 387.942 -5.14635 -1.90898 0
M  V30 3896 H 388.203 -3.56131 -2.61961 0
M  V30 3897 N 387.262 0.0317525 -1.57568 0
M  V30 3898 C 388.51 0.721676 -1.88776 0
M  V30 3899 C 388.831 1.76039 -0.838772 0
M  V30 3900 O 388.101 1.95482 0.127935 0
M  V30 3901 H 386.681 0.269534 -0.696678 0
M  V30 3902 H 389.343 -0.00165879 -1.949 0
M  V30 3903 H 388.439 1.21293 -2.87566 0
M  V30 3904 N 388.74 1.54641 0.303973 0
M  V30 3905 C 389.65 1.88439 1.39743 0
M  V30 3906 C 390.666 0.778239 1.55626 0
M  V30 3907 O 391.842 1.07442 1.70347 0
M  V30 3908 C 388.907 2.12212 2.74166 0
M  V30 3909 C 387.968 3.35936 2.67293 0
M  V30 3910 C 387.201 3.58566 3.95305 0
M  V30 3911 O 387.424 2.84263 4.9452 0
M  V30 3912 O 386.358 4.52078 3.97378 0
M  V30 3913 H 390.184 2.81458 1.14083 0
M  V30 3914 H 387.769 1.40793 0.499768 0
M  V30 3915 H 389.651 2.29067 3.53704 0
M  V30 3916 H 388.326 1.22379 2.99675 0
M  V30 3917 H 387.233 3.24448 1.86237 0
M  V30 3918 H 388.566 4.2589 2.46736 0
M  V30 3919 N 390.218 -0.567019 1.47046 0
M  V30 3920 C 391.443 -1.3551 1.57009 0
M  V30 3921 C 391.868 -1.86841 0.217259 0
M  V30 3922 O 391.226 -1.62435 -0.805268 0
M  V30 3923 C 391.274 -2.50777 2.5912 0
M  V30 3924 O 390.378 -3.52706 2.13711 0
M  V30 3925 H 389.719 -0.402919 0.52778 0
M  V30 3926 H 392.249 -0.686241 1.92748 0
M  V30 3927 H 392.259 -2.97481 2.79229 0
M  V30 3928 H 390.934 -2.12771 3.57353 0
M  V30 3929 H 389.511 -3.12374 2.03659 0
M  V30 3930 N 391.696 -1.35014 -0.812953 0
M  V30 3931 C 392.626 -1.30069 -1.93919 0
M  V30 3932 C 393.607 -0.176275 -1.69184 0
M  V30 3933 O 394.792 -0.370227 -1.90638 0
M  V30 3934 C 391.922 -1.06547 -3.30552 0
M  V30 3935 C 390.876 -2.15561 -3.69753 0
M  V30 3936 C 390.202 -1.77214 -5.04479 0
M  V30 3937 C 391.502 -3.57476 -3.808 0
M  V30 3938 H 393.196 -2.24303 -1.98314 0
M  V30 3939 H 390.742 -1.07977 -0.952736 0
M  V30 3940 H 392.695 -1.01729 -4.08937 0
M  V30 3941 H 391.419 -0.0875719 -3.26483 0
M  V30 3942 H 390.078 -2.19466 -2.9365 0
M  V30 3943 H 389.726 -0.780589 -4.96906 0
M  V30 3944 H 389.426 -2.50184 -5.31678 0
M  V30 3945 H 390.95 -1.7391 -5.8531 0
M  V30 3946 H 392.364 -3.55929 -4.4943 0
M  V30 3947 H 390.761 -4.29152 -4.19462 0
M  V30 3948 H 391.831 -3.94091 -2.82525 0
M  V30 3949 N 393.175 1.03435 -1.18907 0
M  V30 3950 C 394.591 1.28973 -0.940111 0
M  V30 3951 C 394.791 1.97676 0.390691 0
M  V30 3952 O 393.847 2.26127 1.12352 0
M  V30 3953 C 395.16 2.14221 -2.11021 0
M  V30 3954 C 396.708 2.27547 -2.14922 0
M  V30 3955 C 397.183 3.16164 -3.31367 0
M  V30 3956 N 398.674 3.23752 -3.31269 0
M  V30 3957 C 399.409 3.92495 -4.18014 0
M  V30 3958 N 398.905 4.63515 -5.14904 0
M  V30 3959 N 400.698 3.88838 -4.05908 0
M  V30 3960 H 392.849 0.57252 -2.04538 0
M  V30 3961 H 395.112 0.315184 -0.894071 0
M  V30 3962 H 394.818 1.71054 -3.073 0
M  V30 3963 H 394.692 3.14919 -2.0762 0
M  V30 3964 H 397.079 2.69947 -1.19217 0
M  V30 3965 H 397.16 1.26418 -2.22378 0
M  V30 3966 H 396.804 2.74474 -4.27348 0
M  V30 3967 H 396.734 4.17339 -3.21148 0
M  V30 3968 H 399.225 2.73167 -2.61129 0
M  V30 3969 H 399.538 5.13583 -5.77453 0
M  V30 3970 H 397.883 4.62398 -5.18857 0
M  V30 3971 H 401.074 3.32491 -3.29495 0
M  V30 3972 H 401.247 4.4214 -4.73726 0
M  V30 3973 N 394.653 0.992116 1.22453 0
M  V30 3974 C 395.881 0.685944 1.95198 0
M  V30 3975 C 396.296 -0.749233 1.73297 0
M  V30 3976 O 395.653 -1.50549 1.03156 0
M  V30 3977 C 395.704 0.981395 3.47924 0
M  V30 3978 O 395.425 2.36018 3.6909 0
M  V30 3979 C 396.926 0.692815 4.37853 0
M  V30 3980 H 394.146 0.253821 0.621141 0
M  V30 3981 H 396.69 1.32668 1.55626 0
M  V30 3982 H 394.845 0.386481 3.85467 0
M  V30 3983 H 395.259 2.45884 4.63294 0
M  V30 3984 H 396.733 0.949818 5.43767 0
M  V30 3985 H 397.21 -0.373181 4.37612 0
M  V30 3986 H 397.816 1.26874 4.05935 0
M  V30 3987 N 396.131 -1.37776 0.765217 0
M  V30 3988 C 397.378 -1.99849 0.326588 0
M  V30 3989 C 397.706 -1.60746 -1.09504 0
M  V30 3990 O 396.961 -0.84202 -1.76659 0
M  V30 3991 C 397.26 -3.5504 0.410053 0
M  V30 3992 C 396.926 -4.13891 1.78899 0
M  V30 3993 C 395.588 -4.29678 2.16635 0
M  V30 3994 C 397.94 -4.46236 2.69301 0
M  V30 3995 C 395.268 -4.7511 3.44221 0
M  V30 3996 C 397.62 -4.93089 3.9629 0
M  V30 3997 C 396.284 -5.07082 4.34078 0
M  V30 3998 H 395.554 -0.7313 0.119507 0
M  V30 3999 H 398.201 -1.64645 0.977968 0
M  V30 4000 H 396.506 -3.90451 -0.324878 0
M  V30 4001 H 398.203 -4.00966 0.0520699 0
M  V30 4002 H 394.793 -4.02026 1.48569 0
M  V30 4003 H 398.977 -4.3363 2.41409 0
M  V30 4004 H 394.233 -4.84129 3.73402 0
M  V30 4005 H 398.407 -5.17084 4.66472 0
M  V30 4006 H 396.034 -5.42046 5.33001 0
M  V30 4007 N 397.609 -0.515225 -1.4894 0
M  V30 4008 C 398.855 0.0242508 -2.02785 0
M  V30 4009 C 399.188 1.35323 -1.39289 0
M  V30 4010 O 398.463 1.87041 -0.533469 0
M  V30 4011 C 398.746 0.16184 -3.59736 0
M  V30 4012 C 398.599 -1.19127 -4.33738 0
M  V30 4013 C 399.918 0.895719 -4.30888 0
M  V30 4014 H 397.037 0.00733914 -0.736963 0
M  V30 4015 H 399.679 -0.669395 -1.77818 0
M  V30 4016 H 397.829 0.752624 -3.8114 0
M  V30 4017 H 399.501 -1.82202 -4.23792 0
M  V30 4018 H 397.744 -1.77695 -3.95736 0
M  V30 4019 H 398.415 -1.04815 -5.41957 0
M  V30 4020 H 400.891 0.394528 -4.14225 0
M  V30 4021 H 399.767 0.960859 -5.40425 0
M  V30 4022 H 400.028 1.9427 -3.97129 0
M  V30 4023 N 399.087 1.5561 -0.249682 0
M  V30 4024 C 400.05 2.20217 0.635394 0
M  V30 4025 C 401.05 1.17227 1.10066 0
M  V30 4026 O 402.24 1.42292 1.00492 0
M  V30 4027 C 399.372 2.84794 1.87363 0
M  V30 4028 H 400.565 2.99814 0.0716752 0
M  V30 4029 H 398.118 1.563 -0.000153234 0
M  V30 4030 H 398.853 2.09142 2.47851 0
M  V30 4031 H 398.638 3.60241 1.5482 0
M  V30 4032 H 400.128 3.3423 2.5036 0
M  V30 4033 N 400.565 -0.0233959 1.57583 0
M  V30 4034 C 401.811 -0.714119 1.89811 0
M  V30 4035 C 402.144 -1.74702 0.848113 0
M  V30 4036 O 401.419 -1.94023 -0.136135 0
M  V30 4037 C 401.702 -1.37853 3.32669 0
M  V30 4038 C 401.555 -0.358764 4.48367 0
M  V30 4039 C 402.874 -2.31101 3.7454 0
M  V30 4040 H 399.993 -0.25814 0.690314 0
M  V30 4041 H 402.635 0.0230927 1.89986 0
M  V30 4042 H 400.785 -2.00689 3.3265 0
M  V30 4043 H 402.457 0.268115 4.6052 0
M  V30 4044 H 400.7 0.321387 4.32608 0
M  V30 4045 H 401.371 -0.862242 5.45224 0
M  V30 4046 H 403.847 -1.78304 3.75961 0
M  V30 4047 H 402.723 -2.74567 4.75294 0
M  V30 4048 H 402.984 -3.18018 3.0711 0
M  V30 4049 N 402.043 -1.548 -0.295768 0
M  V30 4050 C 402.99 -1.86113 -1.36494 0
M  V30 4051 C 403.96 -0.7105 -1.50137 0
M  V30 4052 O 405.145 -0.959626 -1.64912 0
M  V30 4053 C 402.285 -2.11861 -2.72413 0
M  V30 4054 C 401.398 -3.39471 -2.67177 0
M  V30 4055 C 400.533 -3.55035 -3.95125 0
M  V30 4056 C 399.572 -4.76418 -3.84308 0
M  V30 4057 N 398.709 -4.8876 -5.04042 0
M  V30 4058 H 403.549 -2.77314 -1.09091 0
M  V30 4059 H 401.086 -1.37315 -0.52753 0
M  V30 4060 H 403.044 -2.24786 -3.51464 0
M  V30 4061 H 401.674 -1.2392 -2.98066 0
M  V30 4062 H 400.726 -3.35139 -1.79962 0
M  V30 4063 H 402.038 -4.28646 -2.55076 0
M  V30 4064 H 401.192 -3.67653 -4.82614 0
M  V30 4065 H 399.931 -2.64002 -4.10066 0
M  V30 4066 H 398.936 -4.63827 -2.95202 0
M  V30 4067 H 400.161 -5.68863 -3.70906 0
M  V30 4068 H 398.107 -4.00652 -5.19436 0
M  V30 4069 H 398.024 -5.71945 -4.94384 0
M  V30 4070 H 399.292 -5.0574 -5.93167 0
M  V30 4071 N 403.521 0.559213 -1.47345 0
M  V30 4072 C 404.798 1.31997 -1.44348 0
M  V30 4073 C 405.178 2.1064 -0.139358 0
M  V30 4074 O 404.526 2.1091 0.879153 0
M  V30 4075 C 404.736 2.22618 -2.68779 0
M  V30 4076 C 406.084 2.83701 -3.1591 0
M  V30 4077 O 407.108 2.32921 -2.69493 0
M  V30 4078 O 405.967 3.75993 -3.966 0
M  V30 4079 H 403.061 0.594251 -0.575147 0
M  V30 4080 H 405.607 0.578282 -1.59543 0
M  V30 4081 H 404.379 1.64093 -3.55231 0
M  V30 4082 H 404.002 3.04085 -2.5616 0
M  V30 4083 N 404.999 1.35443 0.805782 0
M  V30 4084 C 405.947 1.28465 1.93906 0
M  V30 4085 C 406.941 0.17943 1.68447 0
M  V30 4086 O 408.147 0.345459 1.76654 0
M  V30 4087 H 404.522 0.399528 0.637088 0
M  V30 4088 H 406.493 2.24206 1.96912 0
M  V30 4089 C 405.242 1.07432 3.30687 0
M  V30 4090 H 404.565 1.91716 3.50835 0
M  V30 4091 H 406.005 1.06591 4.10383 0
M  V30 4092 C 404.464 -0.22179 3.36169 0
M  V30 4093 O 404.994 -1.21731 3.82811 0
M  V30 4094 N 403.2 -0.260841 2.89427 0
M  V30 4095 H 402.747 0.549884 2.51663 0
M  V30 4096 H 402.705 -1.12777 2.93477 0
M  V30 4097 N 406.477 -1.02803 1.19454 0
M  V30 4098 C 407.44 -2.09264 0.934955 0
M  V30 4099 C 408.44 -1.60576 -0.0849015 0
M  V30 4100 O 409.63 -1.73554 0.149933 0
M  V30 4101 C 406.762 -3.38482 0.40531 0
M  V30 4102 H 407.955 -2.33726 1.87916 0
M  V30 4103 H 405.508 -1.19426 1.00832 0
M  V30 4104 H 406.243 -3.19689 -0.544899 0
M  V30 4105 H 406.028 -3.75142 1.14065 0
M  V30 4106 H 407.518 -4.16894 0.242806 0
M  V30 4107 N 407.956 -0.998596 -1.21925 0
M  V30 4108 C 409.233 -0.593401 -1.86382 0
M  V30 4109 C 409.613 0.92916 -1.89552 0
M  V30 4110 O 408.961 1.81347 -1.39017 0
M  V30 4111 C 409.171 -1.22039 -3.26967 0
M  V30 4112 C 410.519 -1.32449 -4.03413 0
M  V30 4113 O 411.543 -1.17522 -3.36254 0
M  V30 4114 O 410.402 -1.56395 -5.23644 0
M  V30 4115 H 407.496 -0.202385 -0.801854 0
M  V30 4116 H 410.042 -1.09484 -1.29659 0
M  V30 4117 H 408.814 -2.26158 -3.19325 0
M  V30 4118 H 408.437 -0.704906 -3.91301 0
M  V30 4119 N 409.434 1.37368 -0.772513 0
M  V30 4120 C 410.397 2.28601 -0.165541 0
M  V30 4121 C 411.397 1.48062 0.627238 0
M  V30 4122 O 412.587 1.68268 0.450715 0
M  V30 4123 C 409.719 3.32023 0.772897 0
M  V30 4124 H 410.912 2.83787 -0.969787 0
M  V30 4125 H 408.465 1.46647 -0.540775 0
M  V30 4126 H 409.2 2.81962 1.60212 0
M  V30 4127 H 408.985 3.91555 0.206585 0
M  V30 4128 H 410.475 4.00197 1.19298 0
M  V30 4129 N 410.912 0.523116 1.48665 0
M  V30 4130 C 412.328 0.180511 1.58576 0
M  V30 4131 C 412.528 -1.31597 1.52592 0
M  V30 4132 O 411.584 -2.0937 1.4114 0
M  V30 4133 C 412.897 0.776949 2.90489 0
M  V30 4134 C 414.445 0.745058 3.04003 0
M  V30 4135 C 414.92 1.31995 4.38567 0
M  V30 4136 N 416.411 1.28162 4.45117 0
M  V30 4137 C 417.146 1.6964 5.47731 0
M  V30 4138 N 416.642 2.18816 6.57337 0
M  V30 4139 N 418.435 1.6092 5.38573 0
M  V30 4140 H 410.586 1.4958 1.50797 0
M  V30 4141 H 412.849 0.621772 0.715614 0
M  V30 4142 H 412.555 1.82732 3.00503 0
M  V30 4143 H 412.429 0.25007 3.7637 0
M  V30 4144 H 414.816 -0.296532 2.93606 0
M  V30 4145 H 414.897 1.30933 2.1975 0
M  V30 4146 H 414.541 2.36043 4.49718 0
M  V30 4147 H 414.471 0.731418 5.21496 0
M  V30 4148 H 416.962 0.92155 3.66491 0
M  V30 4149 H 417.275 2.48478 7.31764 0
M  V30 4150 H 415.62 2.22805 6.58318 0
M  V30 4151 H 418.811 1.22304 4.5184 0
M  V30 4152 H 418.984 1.93567 6.18414 0
M  V30 4153 N 412.39 -1.55475 0.257931 0
M  V30 4154 C 413.32 -2.24815 -0.630912 0
M  V30 4155 C 414.301 -1.23224 -1.17259 0
M  V30 4156 O 415.486 -1.51904 -1.20991 0
M  V30 4157 C 412.616 -2.95609 -1.82298 0
M  V30 4158 C 411.57 -4.03982 -1.41359 0
M  V30 4159 C 410.896 -4.6226 -2.68738 0
M  V30 4160 C 412.196 -5.19109 -0.57648 0
M  V30 4161 H 413.89 -2.99354 -0.0526878 0
M  V30 4162 H 411.436 -1.4398 -0.023901 0
M  V30 4163 H 413.389 -3.42822 -2.45054 0
M  V30 4164 H 412.113 -2.18577 -2.42676 0
M  V30 4165 H 410.772 -3.57555 -0.809324 0
M  V30 4166 H 410.42 -3.81915 -3.27338 0
M  V30 4167 H 410.12 -5.35424 -2.42065 0
M  V30 4168 H 411.644 -5.12212 -3.32372 0
M  V30 4169 H 413.058 -5.62479 -1.10861 0
M  V30 4170 H 411.455 -5.98729 -0.405351 0
M  V30 4171 H 412.525 -4.83174 0.408776 0
M  V30 4172 N 413.868 0.0150385 -1.57593 0
M  V30 4173 C 415.114 0.704043 -1.90187 0
M  V30 4174 C 415.447 1.74249 -0.857366 0
M  V30 4175 O 414.722 1.94092 0.125843 0
M  V30 4176 C 415.005 1.36087 -3.33395 0
M  V30 4177 C 414.858 0.334981 -4.48551 0
M  V30 4178 C 416.177 2.29112 -3.7576 0
M  V30 4179 H 413.296 0.254475 -0.691673 0
M  V30 4180 H 415.938 -0.0331678 -1.89971 0
M  V30 4181 H 414.088 1.98922 -3.3371 0
M  V30 4182 H 415.76 -0.292534 -4.60372 0
M  V30 4183 H 414.003 -0.344325 -4.32431 0
M  V30 4184 H 414.674 0.833316 -5.45674 0
M  V30 4185 H 417.15 1.76308 -3.76902 0
M  V30 4186 H 416.026 2.72043 -4.76743 0
M  V30 4187 H 416.287 3.16385 -3.08793 0
M  V30 4188 N 415.346 1.54954 0.287554 0
M  V30 4189 C 416.592 1.75132 1.02257 0
M  V30 4190 C 416.925 0.542858 1.86458 0
M  V30 4191 O 416.2 -0.459856 1.88986 0
M  V30 4192 C 416.483 3.04812 1.91733 0
M  V30 4193 C 416.336 4.35985 1.10622 0
M  V30 4194 C 417.655 3.30438 2.90687 0
M  V30 4195 H 414.774 0.637194 0.370341 0
M  V30 4196 H 417.416 1.87678 0.296111 0
M  V30 4197 H 415.566 2.94247 2.53675 0
M  V30 4198 H 417.238 4.58487 0.508636 0
M  V30 4199 H 415.481 4.31865 0.409271 0
M  V30 4200 H 416.152 5.23017 1.76513 0
M  V30 4201 H 418.628 3.40701 2.38877 0
M  V30 4202 H 417.504 4.22467 3.50447 0
M  V30 4203 H 417.765 2.49377 3.65053 0
M  V30 4204 N 416.824 -0.551391 1.4764 0
M  V30 4205 C 418.072 -1.30572 1.54258 0
M  V30 4206 C 418.393 -1.93877 0.208963 0
M  V30 4207 O 417.663 -1.80234 -0.767619 0
M  V30 4208 H 416.243 -0.484894 0.568231 0
M  V30 4209 H 418.905 -0.643402 1.83974 0
M  V30 4210 H 418.001 -2.09621 2.31226 0
M  V30 4211 N 418.302 -1.35869 -0.798587 0
M  V30 4212 C 419.713 -1.26498 -1.37314 0
M  V30 4213 C 420.064 0.0991899 -1.95949 0
M  V30 4214 O 419.189 1.0004 -1.91888 0
M  V30 4215 C 419.784 -2.29054 -2.49639 0
M  V30 4216 C 418.343 -2.234 -3.02935 0
M  V30 4217 C 417.49 -2.14329 -1.75949 0
M  V30 4218 H 420.441 -1.46881 -0.600971 0
M  V30 4219 H 420.462 -1.92166 -3.28409 0
M  V30 4220 H 419.974 -3.2833 -2.06933 0
M  V30 4221 H 418.075 -1.27562 -3.50084 0
M  V30 4222 H 418.188 -3.15703 -3.60372 0
M  V30 4223 H 416.552 -1.60435 -1.9782 0
M  V30 4224 H 417.335 -3.15477 -1.35384 0
M  V30 4225 N 419.78 1.02168 -1.19998 0
M  V30 4226 C 421.026 1.7606 -1.01855 0
M  V30 4227 C 421.381 1.87178 0.445222 0
M  V30 4228 O 420.674 1.3828 1.32624 0
M  V30 4229 C 420.868 3.18081 -1.62969 0
M  V30 4230 C 420.697 3.20809 -3.15137 0
M  V30 4231 C 419.467 3.28342 -3.84083 0
M  V30 4232 C 421.665 3.07268 -4.1242 0
M  V30 4233 N 419.647 3.2052 -5.23584 0
M  V30 4234 C 421.018 3.0716 -5.38566 0
M  V30 4235 C 423.073 2.91448 -4.03686 0
M  V30 4236 C 421.776 2.92853 -6.56985 0
M  V30 4237 C 423.802 2.78494 -5.21723 0
M  V30 4238 C 423.164 2.79046 -6.46771 0
M  V30 4239 H 419.263 0.655192 -0.426905 0
M  V30 4240 H 421.847 1.21564 -1.52087 0
M  V30 4241 H 420.018 3.70882 -1.15329 0
M  V30 4242 H 421.75 3.80375 -1.38192 0
M  V30 4243 H 418.505 3.34859 -3.34913 0
M  V30 4244 H 418.929 3.19997 -5.96599 0
M  V30 4245 H 423.571 2.89838 -3.07821 0
M  V30 4246 H 421.289 2.93213 -7.53028 0
M  V30 4247 H 424.875 2.67278 -5.16773 0
M  V30 4248 H 423.755 2.69134 -7.36571 0
M  V30 4249 N 421.258 1.00505 1.21394 0
M  V30 4250 C 422.483 0.706367 1.95001 0
M  V30 4251 C 422.908 -0.72463 1.73582 0
M  V30 4252 O 422.266 -1.49702 1.0227 0
M  V30 4253 C 422.314 1.03299 3.45487 0
M  V30 4254 O 421.418 0.138275 4.12168 0
M  V30 4255 H 420.759 0.263175 0.609619 0
M  V30 4256 H 423.289 1.34531 1.54151 0
M  V30 4257 H 423.299 0.979872 3.96059 0
M  V30 4258 H 421.974 2.07567 3.60401 0
M  V30 4259 H 420.551 0.247928 3.72075 0
M  V30 4260 N 422.737 -1.36956 0.779787 0
M  V30 4261 C 423.687 -2.27539 0.144892 0
M  V30 4262 C 424.671 -1.46493 -0.665488 0
M  V30 4263 O 425.863 -1.68968 -0.527141 0
M  V30 4264 C 422.992 -3.35512 -0.727082 0
M  V30 4265 C 422.078 -4.24001 0.0915642 0
M  V30 4266 N 422.469 -4.92757 1.14125 0
M  V30 4267 C 420.767 -4.45807 -0.131141 0
M  V30 4268 C 421.468 -5.58138 1.6388 0
M  V30 4269 N 420.444 -5.35241 0.94962 0
M  V30 4270 H 424.246 -2.78176 0.948446 0
M  V30 4271 H 421.76 -1.50169 0.618315 0
M  V30 4272 H 423.757 -3.99324 -1.19776 0
M  V30 4273 H 422.417 -2.86431 -1.52929 0
M  V30 4274 H 423.428 -4.94984 1.52353 0
M  V30 4275 H 420.105 -4.07582 -0.904621 0
M  V30 4276 H 421.495 -6.23071 2.51461 0
M  V30 4277 N 424.215 -0.530993 -1.48385 0
M  V30 4278 C 425.44 0.000729535 -2.074 0
M  V30 4279 C 425.865 1.27298 -1.3848 0
M  V30 4280 O 425.223 1.75599 -0.451081 0
M  V30 4281 C 425.271 0.206697 -3.60007 0
M  V30 4282 O 424.375 1.27514 -3.92191 0
M  V30 4283 H 423.716 -0.039583 -0.662819 0
M  V30 4284 H 426.246 -0.739194 -1.9078 0
M  V30 4285 H 426.256 0.42904 -4.05738 0
M  V30 4286 H 424.931 -0.722675 -4.09573 0
M  V30 4287 H 423.508 1.03537 -3.58238 0
M  V30 4288 N 425.693 1.55336 -0.266172 0
M  V30 4289 C 426.641 2.23587 0.641228 0
M  V30 4290 C 427.635 1.22986 1.16494 0
M  V30 4291 O 428.841 1.40943 1.1196 0
M  V30 4292 H 425.216 0.717452 0.225315 0
M  V30 4293 H 427.187 2.9837 0.0426561 0
M  V30 4294 C 425.936 2.96369 1.81826 0
M  V30 4295 H 425.259 3.73563 1.42445 0
M  V30 4296 H 426.699 3.47459 2.42998 0
M  V30 4297 C 425.158 2.0133 2.70125 0
M  V30 4298 O 425.688 1.55875 3.70224 0
M  V30 4299 N 423.894 1.6802 2.37102 0
M  V30 4300 H 423.441 2.05181 1.55751 0
M  V30 4301 H 423.399 1.047 2.96454 0
M  V30 4302 N 427.171 -0.0066808 1.57599 0
M  V30 4303 C 428.101 -0.999296 2.11036 0
M  V30 4304 C 429.082 -1.36278 1.01795 0
M  V30 4305 O 430.267 -1.4477 1.29442 0
M  V30 4306 C 427.397 -2.29328 2.60818 0
M  V30 4307 C 426.351 -2.07159 3.74525 0
M  V30 4308 C 425.677 -3.42512 4.10596 0
M  V30 4309 C 426.977 -1.43959 5.02069 0
M  V30 4310 H 428.671 -0.554382 2.94223 0
M  V30 4311 H 426.217 -0.265221 1.41536 0
M  V30 4312 H 428.17 -2.99117 2.96828 0
M  V30 4313 H 426.894 -2.7592 1.74745 0
M  V30 4314 H 425.553 -1.39797 3.38899 0
M  V30 4315 H 425.201 -3.86795 3.21556 0
M  V30 4316 H 424.901 -3.28498 4.87199 0
M  V30 4317 H 426.425 -4.13628 4.4916 0
M  V30 4318 H 427.839 -2.03696 5.35893 0
M  V30 4319 H 426.236 -1.40452 5.83432 0
M  V30 4320 H 427.306 -0.407992 4.83181 0
M  V30 4321 N 428.649 -1.55105 -0.279332 0
M  V30 4322 C 429.877 -1.7943 -1.03017 0
M  V30 4323 C 430.292 -0.564456 -1.80165 0
M  V30 4324 O 429.649 0.466326 -1.76442 0
M  V30 4325 C 429.7 -3.0155 -1.99374 0
M  V30 4326 O 429.421 -4.19784 -1.25352 0
M  V30 4327 C 430.922 -3.3843 -2.86321 0
M  V30 4328 H 428.142 -0.597882 -0.304594 0
M  V30 4329 H 430.686 -2.02105 -0.312035 0
M  V30 4330 H 428.841 -2.81019 -2.66659 0
M  V30 4331 H 429.255 -4.88781 -1.90246 0
M  V30 4332 H 430.729 -4.27066 -3.49741 0
M  V30 4333 H 431.206 -2.57549 -3.5576 0
M  V30 4334 H 431.812 -3.61197 -2.24536 0
M  V30 4335 N 430.127 0.543554 -1.4793 0
M  V30 4336 C 431.375 1.29752 -1.54948 0
M  V30 4337 C 431.696 1.93764 -0.219242 0
M  V30 4338 O 430.966 1.80639 0.75805 0
M  V30 4339 H 429.546 0.481874 -0.570795 0
M  V30 4340 H 432.208 0.633636 -1.84312 0
M  V30 4341 H 431.304 2.08392 -2.32334 0
M  V30 4342 N 431.605 1.3629 0.791371 0
M  V30 4343 C 433.021 1.16661 1.08914 0
M  V30 4344 C 433.221 -0.0106266 2.01497 0
M  V30 4345 O 432.277 -0.676596 2.43266 0
M  V30 4346 C 433.59 2.47656 1.70549 0
M  V30 4347 C 435.138 2.54002 1.82899 0
M  V30 4348 C 435.613 3.85078 2.47949 0
M  V30 4349 N 437.104 3.86413 2.5542 0
M  V30 4350 C 437.839 4.84572 3.06557 0
M  V30 4351 N 437.335 5.93124 3.58016 0
M  V30 4352 N 439.128 4.71994 3.05251 0
M  V30 4353 H 431.279 2.11668 0.176238 0
M  V30 4354 H 433.542 0.937486 0.140796 0
M  V30 4355 H 433.248 3.34059 1.09989 0
M  V30 4356 H 433.122 2.63319 2.70079 0
M  V30 4357 H 435.509 1.68018 2.42598 0
M  V30 4358 H 435.59 2.42239 0.821808 0
M  V30 4359 H 435.234 4.71467 1.88895 0
M  V30 4360 H 435.164 3.94135 3.49235 0
M  V30 4361 H 437.655 3.07988 2.18979 0
M  V30 4362 H 437.968 6.63999 3.95381 0
M  V30 4363 H 436.313 5.96796 3.56173 0
M  V30 4364 H 439.504 3.86321 2.64336 0
M  V30 4365 H 439.677 5.48653 3.44796 0
M  V30 4366 N 433.083 -1.0153 1.20538 0
M  V30 4367 C 434.031 -2.12215 0.952235 0
M  V30 4368 C 435.025 -1.69123 -0.0968735 0
M  V30 4369 O 436.231 -1.7992 0.0536006 0
M  V30 4370 H 432.606 -0.693576 0.290613 0
M  V30 4371 H 434.577 -2.3075 1.89201 0
M  V30 4372 C 433.326 -3.43755 0.522287 0
M  V30 4373 H 432.649 -3.7734 1.32115 0
M  V30 4374 H 434.089 -4.22254 0.384389 0
M  V30 4375 C 432.548 -3.28088 -0.765489 0
M  V30 4376 O 433.078 -3.57921 -1.8236 0
M  V30 4377 N 431.284 -2.81333 -0.728011 0
M  V30 4378 H 430.831 -2.57255 0.133332 0
M  V30 4379 H 430.789 -2.71232 -1.58999 0
M  V30 4380 N 434.561 -1.01147 -1.20859 0
M  V30 4381 C 435.524 -0.582224 -2.21682 0
M  V30 4382 C 436.524 0.344887 -1.57058 0
M  V30 4383 O 437.714 0.134281 -1.73682 0
M  V30 4384 C 434.846 0.150496 -3.40568 0
M  V30 4385 H 436.039 -1.47408 -2.61172 0
M  V30 4386 H 433.592 -0.800695 -1.34233 0
M  V30 4387 H 434.327 1.0575 -3.06574 0
M  V30 4388 H 434.112 -0.515444 -3.88697 0
M  V30 4389 H 435.602 0.438344 -4.15293 0
M  V30 4390 N 436.039 1.36541 -0.78704 0
M  V30 4391 C 437.316 1.9355 -0.282424 0
M  V30 4392 C 437.696 1.71919 1.22503 0
M  V30 4393 O 437.044 1.07677 2.01539 0
M  V30 4394 C 437.254 3.4246 -0.672462 0
M  V30 4395 C 438.602 4.19582 -0.650863 0
M  V30 4396 O 439.626 3.50889 -0.612789 0
M  V30 4397 O 438.485 5.42106 -0.691623 0
M  V30 4398 H 435.579 0.824091 -0.0693 0
M  V30 4399 H 438.125 1.45736 -0.869423 0
M  V30 4400 H 436.897 3.51851 -1.71221 0
M  V30 4401 H 436.52 3.97556 -0.0592211 0
M  V30 4402 N 437.518 0.538854 1.48102 0
M  V30 4403 C 438.934 0.19732 1.58376 0
M  V30 4404 C 439.134 -1.29971 1.5398 0
M  V30 4405 O 438.19 -2.07861 1.43352 0
M  V30 4406 C 439.503 0.807716 2.89649 0
M  V30 4407 C 441.051 0.77726 3.03196 0
M  V30 4408 C 441.526 1.36639 4.37143 0
M  V30 4409 N 443.017 1.32875 4.43732 0
M  V30 4410 C 443.752 1.7544 5.45901 0
M  V30 4411 N 443.248 2.25776 6.54979 0
M  V30 4412 N 445.041 1.66623 5.36836 0
M  V30 4413 H 437.192 1.5117 1.49202 0
M  V30 4414 H 439.455 0.629327 0.708979 0
M  V30 4415 H 439.161 1.85909 2.98548 0
M  V30 4416 H 439.035 0.289975 3.76084 0
M  V30 4417 H 441.422 -0.265374 2.93904 0
M  V30 4418 H 441.503 1.33256 2.18349 0
M  V30 4419 H 441.147 2.408 4.47189 0
M  V30 4420 H 441.077 0.786689 5.20691 0
M  V30 4421 H 443.568 0.96037 3.65493 0
M  V30 4422 H 443.881 2.56226 7.29087 0
M  V30 4423 H 442.226 2.29775 6.55918 0
M  V30 4424 H 445.417 1.27089 4.50517 0
M  V30 4425 H 445.59 2.00115 6.16326 0
M  V30 4426 N 438.996 -1.55193 0.274407 0
M  V30 4427 C 439.943 -2.225 -0.613374 0
M  V30 4428 C 440.913 -1.19823 -1.15029 0
M  V30 4429 O 442.098 -1.48362 -1.19973 0
M  V30 4430 C 439.238 -2.94927 -1.79199 0
M  V30 4431 C 438.351 -4.12322 -1.28899 0
M  V30 4432 C 437.486 -4.72394 -2.42934 0
M  V30 4433 C 436.525 -5.81984 -1.89634 0
M  V30 4434 N 435.662 -6.36123 -2.9714 0
M  V30 4435 H 440.502 -2.97982 -0.032756 0
M  V30 4436 H 438.039 -1.47099 -0.00440146 0
M  V30 4437 H 439.997 -3.35134 -2.48478 0
M  V30 4438 H 438.627 -2.2187 -2.34465 0
M  V30 4439 H 437.679 -3.7724 -0.489327 0
M  V30 4440 H 438.991 -4.91355 -0.858587 0
M  V30 4441 H 438.145 -5.15317 -3.20208 0
M  V30 4442 H 436.884 -3.92636 -2.8929 0
M  V30 4443 H 435.889 -5.38511 -1.1084 0
M  V30 4444 H 437.114 -6.6361 -1.44215 0
M  V30 4445 H 435.06 -5.59259 -3.42878 0
M  V30 4446 H 434.977 -7.10427 -2.58515 0
M  V30 4447 H 436.245 -6.83704 -3.74391 0
M  V30 4448 N 440.474 -0.00167713 -1.576 0
M  V30 4449 C 441.721 0.68282 -1.90641 0
M  V30 4450 C 442.049 1.73686 -0.875415 0
M  V30 4451 O 441.304 1.95334 0.119575 0
M  V30 4452 C 441.603 1.36189 -3.30435 0
M  V30 4453 C 441.269 0.440887 -4.48739 0
M  V30 4454 C 439.931 0.187312 -4.80835 0
M  V30 4455 C 442.283 -0.193134 -5.20842 0
M  V30 4456 C 439.611 -0.70855 -5.82406 0
M  V30 4457 C 441.963 -1.07688 -6.23367 0
M  V30 4458 C 440.627 -1.33962 -6.53919 0
M  V30 4459 H 439.897 0.249862 -0.697603 0
M  V30 4460 H 442.544 -0.0575642 -1.91413 0
M  V30 4461 H 440.849 2.17636 -3.25794 0
M  V30 4462 H 442.546 1.89759 -3.5326 0
M  V30 4463 H 439.136 0.648694 -4.23663 0
M  V30 4464 H 443.32 -0.0102445 -4.96299 0
M  V30 4465 H 438.576 -0.920097 -6.04437 0
M  V30 4466 H 442.75 -1.57451 -6.78367 0
M  V30 4467 H 440.377 -2.03549 -7.32442 0
M  V30 4468 N 441.952 1.55251 0.271103 0
M  V30 4469 C 443.2 1.75599 1.00047 0
M  V30 4470 C 443.521 0.561188 1.8675 0
M  V30 4471 O 442.791 -0.423846 1.9126 0
M  V30 4472 H 441.371 0.647562 0.372387 0
M  V30 4473 H 444.033 1.92656 0.294876 0
M  V30 4474 H 443.129 2.65766 1.6363 0
M  V30 4475 N 443.43 -0.535701 1.48216 0
M  V30 4476 C 444.679 -1.28828 1.55197 0
M  V30 4477 C 444.992 -1.94263 0.228278 0
M  V30 4478 O 446.198 -2.70927 0.176278 0
M  V30 4479 C 444.654 -2.33727 2.73678 0
M  V30 4480 C 444.262 -1.74386 4.12666 0
M  V30 4481 C 446.006 -3.1003 2.89968 0
M  V30 4482 C 443.913 -2.77192 5.22416 0
M  V30 4483 H 442.843 -0.484484 0.577747 0
M  V30 4484 H 445.494 -0.56646 1.74538 0
M  V30 4485 H 443.876 -3.08919 2.4776 0
M  V30 4486 H 445.05 -1.05421 4.48579 0
M  V30 4487 H 443.365 -1.10595 4.01445 0
M  V30 4488 H 445.962 -3.86842 3.6913 0
M  V30 4489 H 446.305 -3.65542 1.9921 0
M  V30 4490 H 446.838 -2.41952 3.15759 0
M  V30 4491 H 443.577 -2.26507 6.15122 0
M  V30 4492 H 443.097 -3.44502 4.90998 0
M  V30 4493 H 444.776 -3.40285 5.50286 0
M  V30 4494 N 444.908 -1.36708 -0.784132 0
M  V30 4495 C 445.871 -1.31307 -1.87859 0
M  V30 4496 C 446.871 -0.219654 -1.59293 0
M  V30 4497 O 448.061 -0.47476 -1.67606 0
M  V30 4498 C 445.193 -1.03679 -3.24751 0
M  V30 4499 H 446.386 -2.28647 -1.94064 0
M  V30 4500 H 443.939 -1.21558 -0.98252 0
M  V30 4501 H 444.674 -0.0681936 -3.24228 0
M  V30 4502 H 444.459 -1.82811 -3.46876 0
M  V30 4503 H 445.949 -1.02518 -4.04821 0
M  V30 4504 N 446.386 1.0089 -1.21074 0
M  V30 4505 C 447.349 2.0775 -0.968129 0
M  V30 4506 C 448.349 1.6069 0.0593445 0
M  V30 4507 O 449.539 1.73293 -0.177525 0
M  V30 4508 C 446.671 3.37794 -0.459108 0
M  V30 4509 H 447.864 2.30707 -1.9161 0
M  V30 4510 H 445.417 1.17807 -1.02719 0
M  V30 4511 H 446.152 3.20516 0.49397 0
M  V30 4512 H 445.937 3.7328 -1.20019 0
M  V30 4513 H 447.427 4.16454 -0.309099 0
M  V30 4514 N 447.864 1.01787 1.20321 0
M  V30 4515 C 449.092 0.727194 1.937 0
M  V30 4516 C 449.507 -0.712305 1.74848 0
M  V30 4517 O 448.864 -1.48327 1.06327 0
M  V30 4518 C 448.915 1.05497 3.45764 0
M  V30 4519 O 448.636 2.43794 3.64 0
M  V30 4520 C 450.137 0.785534 4.36285 0
M  V30 4521 H 447.357 0.266939 0.615617 0
M  V30 4522 H 449.901 1.35939 1.52777 0
M  V30 4523 H 448.056 0.468158 3.84561 0
M  V30 4524 H 448.47 2.55656 4.57974 0
M  V30 4525 H 449.944 1.06495 5.4163 0
M  V30 4526 H 450.421 -0.280273 4.38305 0
M  V30 4527 H 451.027 1.35456 4.03152 0
M  V30 4528 N 449.342 -1.36122 0.79427 0
M  V30 4529 C 450.572 -2.03067 0.380437 0
M  V30 4530 C 450.98 -1.60018 -1.00949 0
M  V30 4531 O 450.323 -0.787425 -1.65968 0
M  V30 4532 C 450.385 -3.57587 0.37034 0
M  V30 4533 C 450.049 -4.23855 1.70867 0
M  V30 4534 C 451.046 -4.46404 2.66496 0
M  V30 4535 C 448.731 -4.61229 1.9893 0
M  V30 4536 C 450.725 -5.05412 3.88378 0
M  V30 4537 C 448.412 -5.19953 3.21079 0
M  V30 4538 C 449.41 -5.41985 4.15621 0
M  V30 4539 O 449.098 -5.99475 5.35616 0
M  V30 4540 H 448.83 -0.658168 0.154243 0
M  V30 4541 H 451.384 -1.7498 1.0757 0
M  V30 4542 H 449.614 -3.84814 -0.381444 0
M  V30 4543 H 451.303 -4.05895 -0.0194894 0
M  V30 4544 H 452.069 -4.17921 2.46103 0
M  V30 4545 H 447.948 -4.43402 1.26158 0
M  V30 4546 H 451.492 -5.22524 4.62185 0
M  V30 4547 H 447.389 -5.47862 3.41347 0
M  V30 4548 H 448.157 -6.17937 5.36745 0
M  V30 4549 N 450.82 -0.546701 -1.47814 0
M  V30 4550 C 452.231 -0.110564 -1.86372 0
M  V30 4551 C 452.582 1.31678 -1.45449 0
M  V30 4552 O 451.707 1.98889 -0.852758 0
M  V30 4553 C 452.302 -0.193873 -3.38245 0
M  V30 4554 C 450.861 0.187164 -3.75934 0
M  V30 4555 C 450.008 -0.546166 -2.71868 0
M  V30 4556 H 452.959 -0.757022 -1.39481 0
M  V30 4557 H 452.98 0.590218 -3.75895 0
M  V30 4558 H 452.492 -1.23282 -3.67999 0
M  V30 4559 H 450.593 1.22762 -3.51796 0
M  V30 4560 H 450.706 -0.164083 -4.78819 0
M  V30 4561 H 449.07 0.00953904 -2.54698 0
M  V30 4562 H 449.853 -1.58606 -3.04465 0
M  V30 4563 N 452.299 1.55045 -0.282633 0
M  V30 4564 C 453.548 1.98938 0.332667 0
M  V30 4565 C 453.861 1.17455 1.56409 0
M  V30 4566 O 455.067 1.51527 2.25282 0
M  V30 4567 C 453.523 3.54105 0.643226 0
M  V30 4568 C 453.131 4.44374 -0.568814 0
M  V30 4569 C 454.875 4.06569 1.22074 0
M  V30 4570 C 452.782 5.90943 -0.232426 0
M  V30 4571 H 451.712 0.743043 0.128075 0
M  V30 4572 H 454.363 1.79341 -0.388464 0
M  V30 4573 H 452.745 3.69532 1.42346 0
M  V30 4574 H 453.919 4.40718 -1.34551 0
M  V30 4575 H 452.234 4.02585 -1.06369 0
M  V30 4576 H 454.831 5.13626 1.48635 0
M  V30 4577 H 455.174 3.56057 2.15707 0
M  V30 4578 H 455.707 3.94612 0.502621 0
M  V30 4579 H 452.446 6.45567 -1.13683 0
M  V30 4580 H 451.966 5.9765 0.507357 0
M  V30 4581 H 453.645 6.4677 0.172657 0
M  V30 4582 N 453.777 0.010035 1.57597 0
M  V30 4583 C 454.709 -1.00649 2.05918 0
M  V30 4584 C 455.722 -1.30077 0.978964 0
M  V30 4585 O 456.911 -1.26878 1.25556 0
M  V30 4586 C 454.011 -2.33876 2.45265 0
M  V30 4587 C 453.184 -2.23242 3.7614 0
M  V30 4588 C 452.243 -3.39242 4.02245 0
M  V30 4589 O 451.269 -3.1698 4.72771 0
M  V30 4590 N 452.471 -4.6242 3.50924 0
M  V30 4591 H 455.236 -0.594333 2.93748 0
M  V30 4592 H 452.797 -0.17714 1.60928 0
M  V30 4593 H 454.789 -3.1027 2.59836 0
M  V30 4594 H 453.359 -2.66799 1.62902 0
M  V30 4595 H 452.579 -1.31696 3.71551 0
M  V30 4596 H 453.867 -2.13321 4.61922 0
M  V30 4597 H 453.265 -4.83404 2.93832 0
M  V30 4598 H 451.822 -5.36046 3.70807 0
M  V30 4599 N 455.255 -1.55392 -0.262866 0
M  V30 4600 C 456.165 -1.92077 -1.34698 0
M  V30 4601 C 457.181 -0.819227 -1.53508 0
M  V30 4602 O 458.357 -1.11921 -1.67439 0
M  V30 4603 C 455.422 -2.19407 -2.68443 0
M  V30 4604 C 454.483 -3.42905 -2.58292 0
M  V30 4605 C 453.716 -3.68921 -3.85659 0
M  V30 4606 O 453.939 -2.97275 -4.8681 0
M  V30 4607 O 452.873 -4.62455 -3.85252 0
M  V30 4608 H 456.699 -2.84384 -1.06581 0
M  V30 4609 H 454.284 -1.42069 -0.462264 0
M  V30 4610 H 456.166 -2.38365 -3.47506 0
M  V30 4611 H 454.841 -1.30282 -2.96325 0
M  V30 4612 H 453.748 -3.29272 -1.7757 0
M  V30 4613 H 455.081 -4.32282 -2.35358 0
M  V30 4614 N 456.733 0.527833 -1.48498 0
M  V30 4615 C 457.696 1.61439 -1.62696 0
M  V30 4616 C 458.696 1.52824 -0.500136 0
M  V30 4617 O 459.886 1.56456 -0.765976 0
M  V30 4618 C 457.018 3.01063 -1.59918 0
M  V30 4619 H 458.211 1.50189 -2.59583 0
M  V30 4620 H 455.764 0.750055 -1.37127 0
M  V30 4621 H 456.499 3.17818 -0.645163 0
M  V30 4622 H 456.284 3.08725 -2.41726 0
M  V30 4623 H 457.774 3.80057 -1.73051 0
M  V30 4624 N 458.211 1.37122 0.776871 0
M  V30 4625 C 459.439 1.3523 1.5659 0
M  V30 4626 C 459.854 -0.0635518 1.88693 0
M  V30 4627 O 459.211 -1.02394 1.51069 0
M  V30 4628 C 459.262 2.18583 2.8793 0
M  V30 4629 O 458.983 3.5465 2.57206 0
M  V30 4630 C 460.484 2.24612 3.82183 0
M  V30 4631 H 457.704 0.4634 0.485285 0
M  V30 4632 H 460.248 1.80392 0.963266 0
M  V30 4633 H 458.403 1.76943 3.4463 0
M  V30 4634 H 458.817 3.98286 3.41275 0
M  V30 4635 H 460.291 2.87267 4.71361 0
M  V30 4636 H 460.768 1.25309 4.20944 0
M  V30 4637 H 461.374 2.66543 3.31414 0
M  V30 4638 N 459.689 -1.00246 1.21608 0
M  V30 4639 C 460.917 -1.77631 1.06089 0
M  V30 4640 C 461.332 -1.84746 -0.38916 0
M  V30 4641 O 460.689 -1.31068 -1.26994 0
M  V30 4642 C 460.74 -3.21415 1.65453 0
M  V30 4643 O 460.461 -3.14703 3.04785 0
M  V30 4644 C 461.962 -4.15289 1.55079 0
M  V30 4645 H 459.182 -0.558162 0.37242 0
M  V30 4646 H 461.726 -1.26093 1.60999 0
M  V30 4647 H 459.881 -3.70053 1.14629 0
M  V30 4648 H 460.295 -4.05056 3.33212 0
M  V30 4649 H 461.769 -5.13965 2.01355 0
M  V30 4650 H 462.246 -4.36279 0.505665 0
M  V30 4651 H 462.852 -3.72543 2.05163 0
M  V30 4652 N 461.167 -1.02423 -1.1978 0
M  V30 4653 C 462.1 -0.545641 -2.21581 0
M  V30 4654 C 463.078 0.411024 -1.57319 0
M  V30 4655 O 464.262 0.329223 -1.85603 0
M  V30 4656 C 461.389 0.204973 -3.38079 0
M  V30 4657 C 460.435 -0.70241 -4.20676 0
M  V30 4658 S 461.268 -2.17595 -4.89298 0
M  V30 4659 C 462.424 -1.43572 -6.09211 0
M  V30 4660 H 462.657 -1.4082 -2.61834 0
M  V30 4661 H 460.19 -0.833771 -1.29952 0
M  V30 4662 H 462.148 0.631924 -4.05607 0
M  V30 4663 H 460.809 1.0432 -2.9627 0
M  V30 4664 H 460.002 -0.123193 -5.03849 0
M  V30 4665 H 459.604 -1.06747 -3.58442 0
M  V30 4666 H 461.896 -0.719806 -6.73665 0
M  V30 4667 H 462.839 -2.24388 -6.71607 0
M  V30 4668 H 463.247 -0.935252 -5.56699 0
M  V30 4669 N 462.645 1.35699 -0.801477 0
M  V30 4670 C 463.595 2.2728 -0.181073 0
M  V30 4671 C 464.579 1.47533 0.642098 0
M  V30 4672 O 465.771 1.69785 0.500193 0
M  V30 4673 C 462.9 3.36626 0.673612 0
M  V30 4674 C 461.986 4.23802 -0.159008 0
M  V30 4675 N 462.377 4.90879 -1.2195 0
M  V30 4676 C 460.675 4.45959 0.0602005 0
M  V30 4677 C 461.376 5.5546 -1.72738 0
M  V30 4678 N 460.352 5.33663 -1.03465 0
M  V30 4679 H 464.154 2.76632 -0.992582 0
M  V30 4680 H 461.668 1.49166 -0.642127 0
M  V30 4681 H 463.665 4.01179 1.13408 0
M  V30 4682 H 462.325 2.88828 1.48353 0
M  V30 4683 H 463.336 4.92497 -1.60209 0
M  V30 4684 H 460.013 4.08969 0.839664 0
M  V30 4685 H 461.403 6.18991 -2.61342 0
M  V30 4686 N 464.123 0.554532 1.47522 0
M  V30 4687 C 465.07 -0.19466 2.29978 0
M  V30 4688 C 466.04 -0.910882 1.38896 0
M  V30 4689 O 467.225 -0.907102 1.67858 0
M  V30 4690 C 464.365 -1.22035 3.22802 0
M  V30 4691 C 463.478 -0.510474 4.28973 0
M  V30 4692 C 462.613 -1.52123 5.08952 0
M  V30 4693 C 461.652 -0.796173 6.069 0
M  V30 4694 N 460.789 -1.75363 6.79847 0
M  V30 4695 H 465.629 0.51461 2.93523 0
M  V30 4696 H 463.166 0.265607 1.44682 0
M  V30 4697 H 465.124 -1.8276 3.7504 0
M  V30 4698 H 463.754 -1.89769 2.61127 0
M  V30 4699 H 462.806 0.211234 3.79813 0
M  V30 4700 H 464.118 0.0576503 4.98767 0
M  V30 4701 H 463.272 -2.20207 5.65326 0
M  V30 4702 H 462.011 -2.12327 4.39054 0
M  V30 4703 H 461.016 -0.101388 5.49707 0
M  V30 4704 H 462.241 -0.199911 6.78806 0
M  V30 4705 H 460.187 -2.3443 6.12682 0
M  V30 4706 H 460.104 -1.23759 7.45801 0
M  V30 4707 H 461.372 -2.4257 7.40797 0
M  V30 4708 N 465.601 -1.54893 0.290851 0
M  V30 4709 C 466.564 -2.21824 -0.576784 0
M  V30 4710 C 467.564 -1.20104 -1.06919 0
M  V30 4711 O 468.754 -1.44906 -0.966843 0
M  V30 4712 C 465.886 -2.89662 -1.79747 0
M  V30 4713 H 467.079 -2.99899 0.00784051 0
M  V30 4714 H 464.632 -1.56245 0.0415934 0
M  V30 4715 H 465.367 -2.15639 -2.42219 0
M  V30 4716 H 465.152 -3.64219 -1.45214 0
M  V30 4717 H 466.642 -3.4075 -2.4141 0
M  V30 4718 N 467.08 -0.0183926 -1.57589 0
M  V30 4719 C 468.327 0.662562 -1.91354 0
M  V30 4720 C 468.655 1.72747 -0.893788 0
M  V30 4721 O 467.91 1.9545 0.0988509 0
M  V30 4722 C 468.209 1.32676 -3.31861 0
M  V30 4723 C 467.875 0.393267 -4.49182 0
M  V30 4724 C 466.537 0.136302 -4.81007 0
M  V30 4725 C 468.889 -0.248366 -5.20608 0
M  V30 4726 C 466.217 -0.770282 -5.81621 0
M  V30 4727 C 468.569 -1.14294 -6.22189 0
M  V30 4728 C 467.233 -1.4089 -6.52462 0
M  V30 4729 H 466.503 0.242448 -0.700214 0
M  V30 4730 H 469.15 -0.0778629 -1.91342 0
M  V30 4731 H 467.455 2.14168 -3.28084 0
M  V30 4732 H 469.152 1.86001 -3.55253 0
M  V30 4733 H 465.742 0.603723 -4.24327 0
M  V30 4734 H 469.926 -0.062883 -4.9626 0
M  V30 4735 H 465.182 -0.984154 -6.03427 0
M  V30 4736 H 469.356 -1.64637 -6.76659 0
M  V30 4737 H 466.983 -2.11306 -7.30242 0
M  V30 4738 N 468.558 1.5553 0.254621 0
M  V30 4739 C 469.805 1.77 0.983736 0
M  V30 4740 C 470.133 0.58133 1.85609 0
M  V30 4741 O 469.388 -0.435621 1.9079 0
M  V30 4742 C 469.687 3.03891 1.88109 0
M  V30 4743 C 469.353 4.35597 1.16472 0
M  V30 4744 C 468.015 4.7139 0.966714 0
M  V30 4745 C 470.367 5.1705 0.656387 0
M  V30 4746 C 467.695 5.86176 0.247942 0
M  V30 4747 C 470.047 6.32581 -0.0488807 0
M  V30 4748 C 468.711 6.67 -0.258438 0
M  V30 4749 H 467.981 0.647688 0.359974 0
M  V30 4750 H 470.628 1.89802 0.254463 0
M  V30 4751 H 468.933 2.86068 2.67717 0
M  V30 4752 H 470.63 3.17701 2.44677 0
M  V30 4753 H 467.22 4.07475 1.32899 0
M  V30 4754 H 471.404 4.8986 0.796933 0
M  V30 4755 H 466.66 6.11354 0.075035 0
M  V30 4756 H 470.834 6.94942 -0.450444 0
M  V30 4757 H 468.461 7.55793 -0.817358 0
M  V30 4758 N 470.036 -0.519951 1.48776 0
M  V30 4759 C 471.313 -1.28123 1.47797 0
M  V30 4760 C 471.693 -2.10196 0.195157 0
M  V30 4761 O 471.041 -2.13167 -0.822925 0
M  V30 4762 C 471.251 -2.15413 2.74587 0
M  V30 4763 C 472.599 -2.75225 3.23321 0
M  V30 4764 O 473.623 -2.25694 2.75574 0
M  V30 4765 O 472.482 -3.65346 4.06429 0
M  V30 4766 H 469.576 -0.578793 0.590701 0
M  V30 4767 H 472.122 -0.535779 1.6102 0
M  V30 4768 H 470.894 -1.54617 3.59457 0
M  V30 4769 H 470.517 -2.97186 2.64132 0
M  V30 4770 N 471.514 -1.37532 -0.769588 0
M  V30 4771 C 472.93 -1.18379 -1.07045 0
M  V30 4772 C 473.13 -0.0214312 -2.01489 0
M  V30 4773 O 472.186 0.637809 -2.44312 0
M  V30 4774 C 473.499 -2.50338 -1.66588 0
M  V30 4775 C 475.047 -2.56879 -1.78835 0
M  V30 4776 C 475.522 -3.88974 -2.41792 0
M  V30 4777 N 477.013 -3.90428 -2.4924 0
M  V30 4778 C 477.748 -4.89388 -2.98809 0
M  V30 4779 N 477.244 -5.98745 -3.48535 0
M  V30 4780 N 479.037 -4.76791 -2.97703 0
M  V30 4781 H 471.188 -2.11921 -0.142541 0
M  V30 4782 H 473.451 -0.939608 -0.125863 0
M  V30 4783 H 473.157 -3.35767 -1.0466 0
M  V30 4784 H 473.031 -2.67583 -2.65856 0
M  V30 4785 H 475.418 -1.71856 -2.39895 0
M  V30 4786 H 475.499 -2.43516 -0.783166 0
M  V30 4787 H 475.143 -4.74412 -1.81371 0
M  V30 4788 H 475.073 -3.99641 -3.4292 0
M  V30 4789 H 477.564 -3.11433 -2.14052 0
M  V30 4790 H 477.877 -6.70205 -3.84767 0
M  V30 4791 H 476.222 -6.02387 -3.46634 0
M  V30 4792 H 479.413 -3.90478 -2.58157 0
M  V30 4793 H 479.586 -5.54069 -3.36024 0
M  V30 4794 N 472.992 0.995999 -1.22138 0
M  V30 4795 C 473.942 2.06988 -0.956042 0
M  V30 4796 C 474.926 1.60636 0.0921576 0
M  V30 4797 O 476.118 1.76607 -0.117958 0
M  V30 4798 C 473.247 3.39148 -0.532335 0
M  V30 4799 C 472.333 3.92142 -1.61509 0
M  V30 4800 N 472.724 4.18397 -2.84214 0
M  V30 4801 C 471.022 4.20514 -1.48606 0
M  V30 4802 C 471.723 4.61425 -3.54206 0
M  V30 4803 N 470.699 4.64934 -2.81669 0
M  V30 4804 H 474.501 2.25223 -1.88816 0
M  V30 4805 H 472.015 1.17748 -1.11845 0
M  V30 4806 H 474.012 4.15642 -0.323574 0
M  V30 4807 H 472.672 3.22314 0.392921 0
M  V30 4808 H 473.683 4.06682 -3.20671 0
M  V30 4809 H 470.36 4.12769 -0.626762 0
M  V30 4810 H 471.75 4.90387 -4.59315 0
M  V30 4811 N 474.47 1.03057 1.19235 0
M  V30 4812 C 475.4 0.633497 2.24742 0
M  V30 4813 C 476.381 -0.358335 1.66283 0
M  V30 4814 O 477.566 -0.240676 1.92703 0
M  V30 4815 C 474.696 -0.0147648 3.47297 0
M  V30 4816 C 473.65 0.899527 4.18441 0
M  V30 4817 C 472.976 0.116281 5.34574 0
M  V30 4818 C 474.276 2.21404 4.73051 0
M  V30 4819 H 475.97 1.5155 2.58211 0
M  V30 4820 H 473.516 0.73014 1.24117 0
M  V30 4821 H 475.469 -0.304202 4.20301 0
M  V30 4822 H 474.193 -0.931577 3.13032 0
M  V30 4823 H 472.852 1.17319 3.47321 0
M  V30 4824 H 472.5 -0.802619 4.96555 0
M  V30 4825 H 472.2 0.725293 5.83107 0
M  V30 4826 H 473.724 -0.166376 6.10373 0
M  V30 4827 H 475.138 1.98601 5.37802 0
M  V30 4828 H 473.535 2.77512 5.32078 0
M  V30 4829 H 474.605 2.86752 3.91026 0
M  V30 4830 N 475.948 -1.35272 0.808662 0
M  V30 4831 C 477.364 -1.51806 0.492653 0
M  V30 4832 C 477.564 -1.7574 -0.985778 0
M  V30 4833 O 476.62 -1.80003 -1.77074 0
M  V30 4834 C 477.933 -2.69202 1.33981 0
M  V30 4835 C 479.481 -2.8308 1.33547 0
M  V30 4836 C 479.956 -4.03502 2.16679 0
M  V30 4837 N 481.447 -4.10684 2.14227 0
M  V30 4838 C 482.182 -5.02984 2.75308 0
M  V30 4839 N 481.678 -6.00603 3.45323 0
M  V30 4840 N 483.471 -4.95746 2.64938 0
M  V30 4841 H 475.622 -1.17993 1.76611 0
M  V30 4842 H 477.885 -0.577476 0.751814 0
M  V30 4843 H 477.591 -2.581 2.38909 0
M  V30 4844 H 477.465 -3.63854 0.994491 0
M  V30 4845 H 479.852 -2.93631 0.294036 0
M  V30 4846 H 479.933 -1.89278 1.72068 0
M  V30 4847 H 479.577 -3.93711 3.20864 0
M  V30 4848 H 479.507 -4.96489 1.75517 0
M  V30 4849 H 481.998 -3.40802 1.63285 0
M  V30 4850 H 482.311 -6.67633 3.89212 0
M  V30 4851 H 480.656 -6.0077 3.49428 0
M  V30 4852 H 483.847 -4.18439 2.09825 0
M  V30 4853 H 484.02 -5.67487 3.12829 0
M  V30 4854 N 477.426 -0.562348 -1.47226 0
M  V30 4855 C 478.674 -0.0401371 -2.0206 0
M  V30 4856 C 478.995 1.3165 -1.43852 0
M  V30 4857 O 478.265 1.85976 -0.615599 0
M  V30 4858 H 476.845 -0.0118479 -0.746906 0
M  V30 4859 H 479.507 -0.73352 -1.8057 0
M  V30 4860 H 478.603 0.0441254 -3.12069 0
M  V30 4861 N 478.904 1.54736 -0.299062 0
M  V30 4862 C 479.814 2.27127 0.587413 0
M  V30 4863 C 480.83 1.30575 1.15005 0
M  V30 4864 O 482.006 1.63554 1.17525 0
M  V30 4865 C 479.071 2.99645 1.74395 0
M  V30 4866 C 478.132 4.11731 1.21559 0
M  V30 4867 C 477.365 4.80781 2.317 0
M  V30 4868 O 477.588 4.4918 3.51558 0
M  V30 4869 O 476.522 5.68226 1.98501 0
M  V30 4870 H 480.348 3.037 0.000250109 0
M  V30 4871 H 477.933 1.49256 -0.0655919 0
M  V30 4872 H 479.815 3.45138 2.4178 0
M  V30 4873 H 478.49 2.25969 2.31775 0
M  V30 4874 H 477.397 3.70641 0.507514 0
M  V30 4875 H 478.73 4.87379 0.687233 0
M  V30 4876 N 480.382 0.0267497 1.57577 0
M  V30 4877 C 481.61 -0.662661 1.96001 0
M  V30 4878 C 482.025 -1.65799 0.903117 0
M  V30 4879 O 481.382 -1.82135 -0.115317 0
M  V30 4880 C 481.433 -1.37112 3.34488 0
M  V30 4881 O 481.154 -0.415683 4.36123 0
M  V30 4882 C 482.655 -2.15257 3.8753 0
M  V30 4883 H 479.875 -0.18287 0.6456 0
M  V30 4884 H 482.419 0.0858116 2.0432 0
M  V30 4885 H 480.574 -2.07101 3.27395 0
M  V30 4886 H 480.988 -0.918496 5.16395 0
M  V30 4887 H 482.462 -2.60285 4.86781 0
M  V30 4888 H 482.939 -2.99063 3.21649 0
M  V30 4889 H 483.545 -1.50231 3.97883 0
M  V30 4890 N 481.861 -1.55662 -0.24637 0
M  V30 4891 C 483.138 -1.68272 -0.997198 0
M  V30 4892 C 483.518 -0.566785 -2.03349 0
M  V30 4893 O 482.866 0.429688 -2.24424 0
M  V30 4894 C 483.076 -3.08594 -1.63006 0
M  V30 4895 C 484.424 -3.6721 -2.13171 0
M  V30 4896 O 485.448 -3.11397 -1.72946 0
M  V30 4897 O 484.307 -4.65054 -2.87031 0
M  V30 4898 H 481.401 -0.684429 -0.464205 0
M  V30 4899 H 483.947 -1.67993 -0.240114 0
M  V30 4900 H 482.719 -3.81264 -0.880527 0
M  V30 4901 H 482.342 -3.12886 -2.45333 0
M  V30 4902 N 483.339 0.512053 -1.4905 0
M  V30 4903 C 484.302 1.59704 -1.64399 0
M  V30 4904 C 485.302 1.52285 -0.516317 0
M  V30 4905 O 486.492 1.55635 -0.782527 0
M  V30 4906 C 483.624 2.9935 -1.63102 0
M  V30 4907 H 484.817 1.47428 -2.61161 0
M  V30 4908 H 482.37 0.735469 -1.37915 0
M  V30 4909 H 483.105 3.17116 -0.678836 0
M  V30 4910 H 482.89 3.06144 -2.44986 0
M  V30 4911 H 484.38 3.782 -1.77072 0
M  V30 4912 N 484.817 1.37938 0.762283 0
M  V30 4913 C 485.747 1.37176 1.88958 0
M  V30 4914 C 486.728 0.238945 1.68413 0
M  V30 4915 O 487.913 0.440726 1.89133 0
M  V30 4916 C 485.043 1.18742 3.2637 0
M  V30 4917 C 483.997 2.29136 3.61498 0
M  V30 4918 C 483.323 1.95816 4.97554 0
M  V30 4919 C 484.623 3.71363 3.6727 0
M  V30 4920 H 486.317 2.31509 1.89853 0
M  V30 4921 H 483.863 1.11438 0.912005 0
M  V30 4922 H 485.816 1.16837 4.04879 0
M  V30 4923 H 484.54 0.208683 3.25933 0
M  V30 4924 H 483.199 2.30213 2.85303 0
M  V30 4925 H 482.847 0.964475 4.93667 0
M  V30 4926 H 482.547 2.69745 5.22026 0
M  V30 4927 H 484.071 1.95513 5.78452 0
M  V30 4928 H 485.485 3.72364 4.35911 0
M  V30 4929 H 483.882 4.44425 4.03245 0
M  V30 4930 H 484.952 4.04305 2.67704 0
M  V30 4931 N 486.295 -0.989507 1.22664 0
M  V30 4932 C 487.258 -2.06183 1.00106 0
M  V30 4933 C 488.258 -1.60765 -0.0337726 0
M  V30 4934 O 489.448 -1.72989 0.205072 0
M  V30 4935 C 486.58 -3.37021 0.51279 0
M  V30 4936 H 487.773 -2.27629 1.95256 0
M  V30 4937 H 485.326 -1.16158 1.0458 0
M  V30 4938 H 486.061 -3.21261 -0.442917 0
M  V30 4939 H 485.846 -3.71323 1.25942 0
M  V30 4940 H 487.336 -4.1591 0.375315 0
M  V30 4941 N 487.773 -1.03688 -1.18687 0
M  V30 4942 C 489.021 -0.736572 -1.88199 0
M  V30 4943 C 489.342 0.737665 -1.80509 0
M  V30 4944 O 488.612 1.53204 -1.22088 0
M  V30 4945 H 487.192 -0.269466 -0.696704 0
M  V30 4946 H 489.854 -1.31282 -1.44052 0
M  V30 4947 H 488.95 -1.03802 -2.94332 0
M  V30 4948 N 489.251 1.34841 -0.815825 0
M  V30 4949 C 490.497 1.98793 -0.401129 0
M  V30 4950 C 490.83 1.64548 1.03139 0
M  V30 4951 O 490.105 0.913487 1.71714 0
M  V30 4952 C 490.388 3.55143 -0.595409 0
M  V30 4953 C 490.241 3.99155 -2.07352 0
M  V30 4954 C 491.56 4.40092 -0.0268823 0
M  V30 4955 H 488.679 0.722146 -0.14722 0
M  V30 4956 H 491.321 1.59847 -1.02707 0
M  V30 4957 H 489.471 3.8845 -0.0625779 0
M  V30 4958 H 491.143 3.76216 -2.66945 0
M  V30 4959 H 489.386 3.49726 -2.56659 0
M  V30 4960 H 490.057 5.07971 -2.1603 0
M  V30 4961 H 492.533 4.13298 -0.482042 0
M  V30 4962 H 491.409 5.48562 -0.19267 0
M  V30 4963 H 491.67 4.29016 1.06759 0
M  V30 4964 N 490.729 0.570148 1.46925 0
M  V30 4965 C 492.14 0.1402 1.86173 0
M  V30 4966 C 492.491 -1.29347 1.47526 0
M  V30 4967 O 491.616 -1.97508 0.884292 0
M  V30 4968 C 492.211 0.247661 3.37894 0
M  V30 4969 C 490.77 -0.127332 3.76185 0
M  V30 4970 C 489.917 0.589349 2.70965 0
M  V30 4971 H 492.868 0.779117 1.38259 0
M  V30 4972 H 492.889 -0.530341 3.76786 0
M  V30 4973 H 492.401 1.29121 3.65991 0
M  V30 4974 H 490.502 -1.17149 3.53704 0
M  V30 4975 H 490.615 0.240238 4.78497 0
M  V30 4976 H 488.979 0.0309824 2.54681 0
M  V30 4977 H 489.762 1.6343 3.01903 0
M  V30 4978 N 492.207 -1.54576 0.307264 0
M  V30 4979 C 493.154 -2.23751 -0.56604 0
M  V30 4980 C 494.124 -1.22235 -1.12462 0
M  V30 4981 O 495.309 -1.50873 -1.16799 0
M  V30 4982 C 492.449 -2.98661 -1.72903 0
M  V30 4983 C 491.562 -4.14963 -1.20124 0
M  V30 4984 C 490.697 -4.77441 -2.3286 0
M  V30 4985 C 489.736 -5.85875 -1.77247 0
M  V30 4986 N 488.873 -6.42282 -2.8358 0
M  V30 4987 H 493.713 -2.97984 0.0304578 0
M  V30 4988 H 491.25 -1.47076 0.0268015 0
M  V30 4989 H 493.208 -3.40329 -2.41313 0
M  V30 4990 H 491.838 -2.26793 -2.29706 0
M  V30 4991 H 490.89 -3.78193 -0.409198 0
M  V30 4992 H 492.202 -4.93066 -0.754171 0
M  V30 4993 H 491.356 -5.21993 -3.09205 0
M  V30 4994 H 490.095 -3.98684 -2.80896 0
M  V30 4995 H 489.1 -5.40741 -0.993926 0
M  V30 4996 H 490.325 -6.6652 -1.30107 0
M  V30 4997 H 488.271 -5.66406 -3.30939 0
M  V30 4998 H 488.188 -7.1575 -2.43388 0
M  V30 4999 H 489.456 -6.91492 -3.59804 0
M  V30 5000 N 493.685 -0.035106 -1.57561 0
M  V30 5001 C 494.931 0.64318 -1.92331 0
M  V30 5002 C 495.264 1.71434 -0.912368 0
M  V30 5003 O 494.539 1.94395 0.0640303 0
M  V30 5004 C 494.822 1.25411 -3.37556 0
M  V30 5005 C 494.675 0.192109 -4.4939 0
M  V30 5006 C 495.994 2.17041 -3.82859 0
M  V30 5007 H 493.113 0.232341 -0.699419 0
M  V30 5008 H 495.755 -0.0935889 -1.89769 0
M  V30 5009 H 493.905 1.88205 -3.39869 0
M  V30 5010 H 495.577 -0.438849 -4.59208 0
M  V30 5011 H 493.82 -0.481725 -4.31117 0
M  V30 5012 H 494.491 0.659292 -5.48049 0
M  V30 5013 H 496.967 1.64228 -3.8232 0
M  V30 5014 H 495.843 2.56738 -4.85157 0
M  V30 5015 H 496.104 3.06401 -3.18702 0
M  V30 5016 N 495.163 1.55791 0.238111 0
M  V30 5017 C 496.579 1.48411 0.587045 0
M  V30 5018 C 496.779 0.72702 1.87927 0
M  V30 5019 O 495.835 0.259942 2.51158 0
M  V30 5020 C 497.148 2.92873 0.681623 0
M  V30 5021 C 498.696 3.03295 0.773363 0
M  V30 5022 C 499.171 4.49082 0.899428 0
M  V30 5023 N 500.662 4.53056 0.964075 0
M  V30 5024 C 501.397 5.63117 1.08104 0
M  V30 5025 N 500.893 6.82969 1.16299 0
M  V30 5026 N 502.686 5.50933 1.11488 0
M  V30 5027 H 494.837 2.0345 -0.610076 0
M  V30 5028 H 497.1 0.924034 -0.211813 0
M  V30 5029 H 496.806 3.51142 -0.19802 0
M  V30 5030 H 496.68 3.43851 1.55069 0
M  V30 5031 H 499.067 2.45101 1.64346 0
M  V30 5032 H 499.148 2.55513 -0.121034 0
M  V30 5033 H 498.792 5.07889 0.0338586 0
M  V30 5034 H 498.722 4.94553 1.809 0
M  V30 5035 H 501.213 3.66737 0.91173 0
M  V30 5036 H 501.526 7.62598 1.25155 0
M  V30 5037 H 499.871 6.85712 1.13241 0
M  V30 5038 H 503.062 4.56231 1.0474 0
M  V30 5039 H 503.235 6.36743 1.20259 0
M  V30 5040 N 496.642 -0.504142 1.49319 0
M  V30 5041 C 497.572 -1.61473 1.68667 0
M  V30 5042 C 498.553 -1.61455 0.535378 0
M  V30 5043 O 499.738 -1.78245 0.770868 0
M  V30 5044 C 496.868 -2.99971 1.75028 0
M  V30 5045 C 495.822 -3.14854 2.89916 0
M  V30 5046 C 495.148 -4.54671 2.81387 0
M  V30 5047 C 496.448 -2.95176 4.30893 0
M  V30 5048 H 498.142 -1.45535 2.61648 0
M  V30 5049 H 495.688 -0.698711 1.25913 0
M  V30 5050 H 497.641 -3.77562 1.8715 0
M  V30 5051 H 496.365 -3.1699 0.786441 0
M  V30 5052 H 495.024 -2.39687 2.77391 0
M  V30 5053 H 494.672 -4.68562 1.82917 0
M  V30 5054 H 494.372 -4.6557 3.58494 0
M  V30 5055 H 495.896 -5.34327 2.95512 0
M  V30 5056 H 497.31 -3.62538 4.44116 0
M  V30 5057 H 495.707 -3.17549 5.09198 0
M  V30 5058 H 496.777 -1.91332 4.45556 0
M  V30 5059 N 498.12 -1.38341 -0.754957 0
M  V30 5060 C 499.367 -1.34473 -1.51404 0
M  V30 5061 C 499.695 0.0656458 -1.94389 0
M  V30 5062 O 498.95 1.04244 -1.65625 0
M  V30 5063 C 499.249 -2.2452 -2.78075 0
M  V30 5064 C 498.915 -3.72512 -2.54059 0
M  V30 5065 C 497.577 -4.1284 -2.47218 0
M  V30 5066 C 499.929 -4.66197 -2.33044 0
M  V30 5067 C 497.257 -5.44945 -2.17376 0
M  V30 5068 C 499.609 -5.98558 -2.04723 0
M  V30 5069 C 498.273 -6.37972 -1.96337 0
M  V30 5070 H 497.543 -0.492072 -0.554027 0
M  V30 5071 H 500.19 -1.70687 -0.868223 0
M  V30 5072 H 498.495 -1.81357 -3.473 0
M  V30 5073 H 500.192 -2.18832 -3.36026 0
M  V30 5074 H 496.782 -3.40538 -2.60253 0
M  V30 5075 H 500.966 -4.35888 -2.37309 0
M  V30 5076 H 496.222 -5.74426 -2.09391 0
M  V30 5077 H 500.396 -6.70693 -1.87465 0
M  V30 5078 H 498.023 -7.40258 -1.72978 0
M  V30 5079 N 499.598 0.982988 -1.23187 0
M  V30 5080 C 500.844 1.72648 -1.06398 0
M  V30 5081 C 501.177 1.90066 0.398561 0
M  V30 5082 O 500.452 1.45105 1.29518 0
M  V30 5083 C 500.735 3.12627 -1.78707 0
M  V30 5084 C 500.588 3.02795 -3.32618 0
M  V30 5085 C 501.907 4.11997 -1.54747 0
M  V30 5086 H 499.026 0.626649 -0.387918 0
M  V30 5087 H 501.668 1.14455 -1.51658 0
M  V30 5088 H 499.818 3.62308 -1.40234 0
M  V30 5089 H 501.49 2.60659 -3.80598 0
M  V30 5090 H 499.733 2.39362 -3.61785 0
M  V30 5091 H 500.404 4.01893 -3.78399 0
M  V30 5092 H 502.88 3.71114 -1.88186 0
M  V30 5093 H 501.756 5.08037 -2.07821 0
M  V30 5094 H 502.017 4.39462 -0.482249 0
M  V30 5095 N 501.076 1.04316 1.18135 0
M  V30 5096 C 502.009 0.580823 2.20685 0
M  V30 5097 C 502.987 -0.385943 1.57953 0
M  V30 5098 O 504.171 -0.299654 1.86103 0
M  V30 5099 C 501.298 -0.151162 3.38363 0
M  V30 5100 C 500.344 0.769247 4.19505 0
M  V30 5101 S 501.177 2.25352 4.85774 0
M  V30 5102 C 502.333 1.53246 6.0685 0
M  V30 5103 H 502.566 1.44968 2.5956 0
M  V30 5104 H 500.099 0.85434 1.28609 0
M  V30 5105 H 502.057 -0.567315 4.06561 0
M  V30 5106 H 500.718 -0.995936 2.97892 0
M  V30 5107 H 499.911 0.203335 5.0359 0
M  V30 5108 H 499.513 1.12436 3.56699 0
M  V30 5109 H 501.805 0.82689 6.72435 0
M  V30 5110 H 502.748 2.35044 6.67952 0
M  V30 5111 H 503.156 1.0237 5.5514 0
M  V30 5112 N 502.554 -1.34406 0.822964 0
M  V30 5113 C 503.802 -1.97892 0.410245 0
M  V30 5114 C 504.123 -1.65567 -1.03017 0
M  V30 5115 O 503.393 -0.94642 -1.71522 0
M  V30 5116 H 501.973 -0.732049 0.148707 0
M  V30 5117 H 504.635 -1.64043 1.05242 0
M  V30 5118 H 503.731 -3.07579 0.529284 0
M  V30 5119 N 504.032 -0.577932 -1.46621 0
M  V30 5120 C 505.281 -0.0594281 -2.01612 0
M  V30 5121 C 505.594 1.30663 -1.45556 0
M  V30 5122 O 506.8 1.91621 -1.92337 0
M  V30 5123 C 505.256 -0.0556666 -3.59857 0
M  V30 5124 C 504.864 -1.41975 -4.24908 0
M  V30 5125 C 506.608 0.409143 -4.22524 0
M  V30 5126 C 504.515 -1.37397 -5.75218 0
M  V30 5127 H 503.445 -0.0184469 -0.753774 0
M  V30 5128 H 506.096 -0.728869 -1.68404 0
M  V30 5129 H 504.478 0.679843 -3.90121 0
M  V30 5130 H 505.652 -2.17461 -4.0626 0
M  V30 5131 H 503.967 -1.82419 -3.74316 0
M  V30 5132 H 506.564 0.46211 -5.32699 0
M  V30 5133 H 506.907 1.42565 -3.91128 0
M  V30 5134 H 507.44 -0.272152 -3.96868 0
M  V30 5135 H 504.179 -2.36714 -6.11267 0
M  V30 5136 H 503.699 -0.661239 -5.96144 0
M  V30 5137 H 505.378 -1.08484 -6.3784 0
M  V30 5138 N 505.51 1.54411 -0.315457 0
M  V30 5139 C 506.787 1.92562 0.343398 0
M  V30 5140 C 507.167 1.24423 1.70535 0
M  V30 5141 O 506.515 0.385051 2.25232 0
M  V30 5142 C 506.725 3.46168 0.443687 0
M  V30 5143 C 508.073 4.18659 0.707783 0
M  V30 5144 O 509.097 3.52281 0.52693 0
M  V30 5145 O 507.956 5.36198 1.05612 0
M  V30 5146 H 505.05 0.80379 0.194552 0
M  V30 5147 H 507.596 1.65738 -0.364577 0
M  V30 5148 H 506.368 3.8792 -0.513172 0
M  V30 5149 H 505.991 3.79073 1.19956 0
M  V30 5150 N 506.988 0.0434614 1.5754 0
M  V30 5151 C 507.898 -0.94893 2.14552 0
M  V30 5152 C 508.914 -1.34707 1.10136 0
M  V30 5153 O 510.09 -1.42557 1.42266 0
M  V30 5154 C 507.155 -2.208 2.67298 0
M  V30 5155 C 506.216 -1.86893 3.86484 0
M  V30 5156 C 505.449 -3.06797 4.36705 0
M  V30 5157 O 505.672 -4.19921 3.86034 0
M  V30 5158 O 504.606 -2.8826 5.28384 0
M  V30 5159 H 508.432 -0.494099 2.99654 0
M  V30 5160 H 506.017 -0.177989 1.48336 0
M  V30 5161 H 507.899 -2.94686 3.01228 0
M  V30 5162 H 506.574 -2.65436 1.85272 0
M  V30 5163 H 505.481 -1.10347 3.57455 0
M  V30 5164 H 506.814 -1.47062 4.69716 0
M  V30 5165 N 508.466 -1.55915 -0.229846 0
M  V30 5166 C 509.712 -1.79718 -0.952517 0
M  V30 5167 C 510.067 -0.61514 -1.82301 0
M  V30 5168 O 509.36 0.391098 -1.87566 0
M  V30 5169 C 509.554 -3.06845 -1.8325 0
M  V30 5170 C 509.383 -4.37302 -1.04868 0
M  V30 5171 C 508.153 -4.99749 -0.746932 0
M  V30 5172 C 510.351 -5.12599 -0.417989 0
M  V30 5173 N 508.333 -6.13871 0.0591596 0
M  V30 5174 C 509.704 -6.19488 0.251879 0
M  V30 5175 C 511.759 -4.96804 -0.33018 0
M  V30 5176 C 510.462 -7.12299 1.00115 0
M  V30 5177 C 512.488 -5.90007 0.4056 0
M  V30 5178 C 511.85 -6.96317 1.06404 0
M  V30 5179 H 507.949 -0.709382 -0.329091 0
M  V30 5180 H 510.533 -1.93406 -0.224114 0
M  V30 5181 H 508.704 -2.94456 -2.53279 0
M  V30 5182 H 510.436 -3.18874 -2.49202 0
M  V30 5183 H 507.191 -4.61518 -1.06292 0
M  V30 5184 H 507.615 -6.75497 0.450798 0
M  V30 5185 H 512.257 -4.14675 -0.824898 0
M  V30 5186 H 509.975 -7.93916 1.50741 0
M  V30 5187 H 513.561 -5.79862 0.474436 0
M  V30 5188 H 512.441 -7.67194 1.62429 0
M  V30 5189 N 509.944 0.496216 -1.49584 0
M  V30 5190 C 511.36 0.827814 -1.36453 0
M  V30 5191 C 511.56 1.97464 -0.401285 0
M  V30 5192 O 510.616 2.51958 0.165296 0
M  V30 5193 C 511.929 1.16352 -2.77277 0
M  V30 5194 C 513.477 1.27145 -2.86013 0
M  V30 5195 C 513.952 1.64042 -4.27615 0
M  V30 5196 N 515.443 1.71082 -4.30448 0
M  V30 5197 C 516.178 2.01085 -5.36984 0
M  V30 5198 N 515.674 2.2928 -6.5376 0
M  V30 5199 N 517.467 2.02376 -5.24405 0
M  V30 5200 H 509.618 -0.259947 -2.10803 0
M  V30 5201 H 511.881 -0.0537163 -0.946477 0
M  V30 5202 H 511.587 0.394153 -3.49484 0
M  V30 5203 H 511.461 2.10582 -3.12946 0
M  V30 5204 H 513.848 2.03152 -2.1404 0
M  V30 5205 H 513.929 0.309542 -2.5392 0
M  V30 5206 H 513.573 0.88583 -5.00115 0
M  V30 5207 H 513.503 2.6134 -4.57175 0
M  V30 5208 H 515.994 1.51434 -3.46232 0
M  V30 5209 H 516.307 2.51376 -7.30774 0
M  V30 5210 H 514.652 2.26726 -6.56978 0
M  V30 5211 H 517.843 1.79829 -4.32179 0
M  V30 5212 H 518.016 2.25425 -6.07526 0
M  V30 5213 N 511.423 1.38739 0.74761 0
M  V30 5214 C 512.7 1.25791 1.49786 0
M  V30 5215 C 513.08 -0.138075 2.10648 0
M  V30 5216 O 512.428 -1.14815 1.9756 0
M  V30 5217 C 512.638 2.37265 2.55942 0
M  V30 5218 C 513.986 2.75978 3.22679 0
M  V30 5219 O 515.01 2.36621 2.6625 0
M  V30 5220 O 513.869 3.43867 4.24756 0
M  V30 5221 H 510.963 0.492251 0.664543 0
M  V30 5222 H 513.509 1.50582 0.782511 0
M  V30 5223 H 512.281 3.30644 2.0926 0
M  V30 5224 H 511.904 2.14071 3.35051 0
M  V30 5225 N 512.901 -0.976442 1.23707 0
M  V30 5226 C 513.811 -2.10359 1.03856 0
M  V30 5227 C 514.827 -1.73991 -0.0180919 0
M  V30 5228 O 516.003 -2.0061 0.178211 0
M  V30 5229 C 513.068 -3.40809 0.636387 0
M  V30 5230 C 512.129 -3.91179 1.76854 0
M  V30 5231 C 511.362 -5.15404 1.38546 0
M  V30 5232 O 511.585 -5.69754 0.27142 0
M  V30 5233 O 510.519 -5.5994 2.20797 0
M  V30 5234 H 514.345 -2.29997 1.98331 0
M  V30 5235 H 511.93 -1.08742 1.02448 0
M  V30 5236 H 513.812 -4.19269 0.423223 0
M  V30 5237 H 512.487 -3.22493 -0.279322 0
M  V30 5238 H 511.394 -3.13819 2.03638 0
M  V30 5239 H 512.727 -4.13958 2.6627 0
M  V30 5240 N 514.379 -1.04941 -1.1758 0
M  V30 5241 C 515.607 -0.778294 -1.91703 0
M  V30 5242 C 516.022 0.665697 -1.76675 0
M  V30 5243 O 515.379 1.45456 -1.10222 0
M  V30 5244 C 515.43 -1.14628 -3.42845 0
M  V30 5245 O 515.151 -2.53359 -3.57409 0
M  V30 5246 C 516.652 -0.900931 -4.34049 0
M  V30 5247 H 513.872 -0.283167 -0.608323 0
M  V30 5248 H 516.416 -1.39942 -1.49119 0
M  V30 5249 H 514.571 -0.569953 -3.83184 0
M  V30 5250 H 514.985 -2.67709 -4.51035 0
M  V30 5251 H 516.459 -1.20817 -5.38616 0
M  V30 5252 H 516.936 0.163966 -4.38894 0
M  V30 5253 H 517.542 -1.46097 -3.99419 0
M  V30 5254 N 515.857 1.33968 -0.830081 0
M  V30 5255 C 517.134 1.92554 -0.343858 0
M  V30 5256 C 517.514 1.7573 1.16971 0
M  V30 5257 O 516.862 1.14035 1.98011 0
M  V30 5258 C 517.072 3.40147 -0.781073 0
M  V30 5259 C 518.42 4.17299 -0.78402 0
M  V30 5260 O 519.444 3.48762 -0.724112 0
M  V30 5261 O 518.303 5.39631 -0.863739 0
M  V30 5262 H 515.397 0.821469 -0.0954827 0
M  V30 5263 H 517.943 1.42897 -0.915348 0
M  V30 5264 H 516.715 3.46225 -1.82329 0
M  V30 5265 H 516.338 3.97166 -0.18567 0
M  V30 5266 N 517.335 0.585699 1.46312 0
M  V30 5267 C 518.581 0.0808731 2.03239 0
M  V30 5268 C 518.936 -1.26609 1.44872 0
M  V30 5269 O 518.229 -1.81779 0.60556 0
M  V30 5270 C 518.423 -0.0401312 3.57377 0
M  V30 5271 C 518.252 1.29356 4.30694 0
M  V30 5272 C 517.022 1.86849 4.69484 0
M  V30 5273 C 519.22 2.21742 4.64042 0
M  V30 5274 N 517.202 3.13926 5.27564 0
M  V30 5275 C 518.573 3.33408 5.22723 0
M  V30 5276 C 520.628 2.21386 4.45974 0
M  V30 5277 C 519.331 4.44852 5.65242 0
M  V30 5278 C 521.357 3.31862 4.89511 0
M  V30 5279 C 520.719 4.42248 5.48266 0
M  V30 5280 H 516.818 0.072443 0.778637 0
M  V30 5281 H 519.402 0.779254 1.78426 0
M  V30 5282 H 517.573 -0.707686 3.81898 0
M  V30 5283 H 519.305 -0.549615 4.00951 0
M  V30 5284 H 516.06 1.40307 4.52339 0
M  V30 5285 H 516.484 3.78775 5.61122 0
M  V30 5286 H 521.126 1.37314 3.99881 0
M  V30 5287 H 518.844 5.29665 6.10312 0
M  V30 5288 H 522.43 3.32708 4.7728 0
M  V30 5289 H 521.31 5.26323 5.81338 0
M  V30 5290 N 518.813 -1.54241 0.323641 0
M  V30 5291 C 520.224 -1.85975 -0.164405 0
M  V30 5292 C 520.575 -1.24529 -1.51615 0
M  V30 5293 O 519.7 -0.551351 -2.09258 0
M  V30 5294 C 520.295 -3.37424 -0.305091 0
M  V30 5295 C 518.854 -3.69107 -0.737358 0
M  V30 5296 C 518.001 -2.76942 0.140884 0
M  V30 5297 H 520.952 -1.49088 0.543922 0
M  V30 5298 H 520.973 -3.63147 -1.13598 0
M  V30 5299 H 520.485 -3.82116 0.678876 0
M  V30 5300 H 518.586 -3.29947 -1.73107 0
M  V30 5301 H 518.699 -4.76035 -0.541053 0
M  V30 5302 H 517.063 -2.51795 -0.383572 0
M  V30 5303 H 517.846 -3.24461 1.12162 0
M  V30 5304 N 520.291 -0.0518155 -1.57515 0
M  V30 5305 C 521.221 0.920283 -2.146 0
M  V30 5306 C 522.202 1.32406 -1.06783 0
M  V30 5307 O 523.387 1.39866 -1.34726 0
M  V30 5308 C 520.517 2.1949 -2.6915 0
M  V30 5309 C 519.471 1.93116 -3.81956 0
M  V30 5310 C 518.797 3.27037 -4.23026 0
M  V30 5311 C 520.097 1.25225 -5.07066 0
M  V30 5312 H 521.791 0.444801 -2.96077 0
M  V30 5313 H 519.337 0.212508 -1.42423 0
M  V30 5314 H 521.29 2.87894 -3.07725 0
M  V30 5315 H 520.014 2.69244 -1.84865 0
M  V30 5316 H 518.673 1.27123 -3.43854 0
M  V30 5317 H 518.321 3.74595 -3.3569 0
M  V30 5318 H 518.021 3.10189 -4.99056 0
M  V30 5319 H 519.545 3.96673 -4.64202 0
M  V30 5320 H 520.959 1.83666 -5.43083 0
M  V30 5321 H 519.356 1.18702 -5.88243 0
M  V30 5322 H 520.426 0.228382 -4.84362 0
M  V30 5323 N 521.769 1.56035 0.221574 0
M  V30 5324 C 523.18 1.69229 0.788567 0
M  V30 5325 C 523.531 0.653814 1.84986 0
M  V30 5326 O 522.656 -0.195065 2.15519 0
M  V30 5327 C 523.251 3.06809 1.43713 0
M  V30 5328 C 521.81 3.21858 1.95152 0
M  V30 5329 C 520.957 2.65155 0.811685 0
M  V30 5330 H 523.908 1.587 -0.00307894 0
M  V30 5331 H 523.929 3.02666 2.30594 0
M  V30 5332 H 523.441 3.82369 0.664475 0
M  V30 5333 H 521.542 2.51167 2.7522 0
M  V30 5334 H 521.655 4.29073 2.1315 0
M  V30 5335 H 520.019 2.23635 1.21899 0
M  V30 5336 H 520.802 3.43261 0.0516987 0
M  V30 5337 N 523.247 -0.488276 1.49845 0
M  V30 5338 C 524.524 -1.24959 1.50481 0
M  V30 5339 C 524.904 -2.09735 0.239698 0
M  V30 5340 O 524.252 -2.14865 -0.777524 0
M  V30 5341 C 524.462 -2.0954 2.79095 0
M  V30 5342 C 525.81 -2.68305 3.29086 0
M  V30 5343 O 526.834 -2.19797 2.80299 0
M  V30 5344 O 525.693 -3.56643 4.14087 0
M  V30 5345 H 522.787 -0.566133 0.602845 0
M  V30 5346 H 525.333 -0.501504 1.6212 0
M  V30 5347 H 524.105 -1.46958 3.62656 0
M  V30 5348 H 523.728 -2.91517 2.70377 0
M  V30 5349 N 524.725 -1.39134 -0.740242 0
M  V30 5350 C 525.953 -1.39334 -1.5295 0
M  V30 5351 C 526.368 0.0135008 -1.88795 0
M  V30 5352 O 525.725 0.983524 -1.5373 0
M  V30 5353 C 525.776 -2.2614 -2.82034 0
M  V30 5354 O 525.497 -3.61345 -2.47712 0
M  V30 5355 C 526.998 -2.34666 -3.76094 0
M  V30 5356 H 524.218 -0.476103 -0.472828 0
M  V30 5357 H 526.762 -1.82883 -0.9151 0
M  V30 5358 H 524.917 -1.86018 -3.39818 0
M  V30 5359 H 525.331 -4.07194 -3.30595 0
M  V30 5360 H 526.805 -2.99663 -4.63579 0
M  V30 5361 H 527.282 -1.36426 -4.17474 0
M  V30 5362 H 527.888 -2.75236 -3.2423 0
M  V30 5363 N 526.204 0.969867 -1.24223 0
M  V30 5364 C 527.167 2.04564 -1.03373 0
M  V30 5365 C 528.167 1.60798 0.00819206 0
M  V30 5366 O 529.357 1.72641 -0.232567 0
M  V30 5367 C 526.489 3.36163 -0.566343 0
M  V30 5368 H 527.682 2.24494 -1.98853 0
M  V30 5369 H 525.235 1.1448 -1.06415 0
M  V30 5370 H 525.97 3.21925 0.391751 0
M  V30 5371 H 525.755 3.69273 -1.31834 0
M  V30 5372 H 527.245 4.1526 -0.441435 0
M  V30 5373 N 527.682 1.05563 1.17022 0
M  V30 5374 C 528.912 0.787307 1.91011 0
M  V30 5375 C 529.32 -0.661256 1.77268 0
M  V30 5376 O 528.663 -1.46379 1.10991 0
M  V30 5377 C 528.725 1.09313 3.42478 0
M  V30 5378 C 528.389 2.53863 3.80004 0
M  V30 5379 C 529.386 3.52081 3.82538 0
M  V30 5380 C 527.071 2.88969 4.10855 0
M  V30 5381 C 529.065 4.83449 4.15399 0
M  V30 5382 C 526.752 4.2054 4.43384 0
M  V30 5383 C 527.75 5.17589 4.45635 0
M  V30 5384 O 527.438 6.46799 4.77395 0
M  V30 5385 H 527.17 0.285463 0.61277 0
M  V30 5386 H 529.724 1.41051 1.49311 0
M  V30 5387 H 527.954 0.412833 3.8449 0
M  V30 5388 H 529.643 0.810224 3.97731 0
M  V30 5389 H 530.409 3.26299 3.58823 0
M  V30 5390 H 526.288 2.1409 4.08272 0
M  V30 5391 H 529.832 5.59194 4.1707 0
M  V30 5392 H 525.729 4.46083 4.66563 0
M  V30 5393 H 526.497 6.51677 4.95237 0
M  V30 5394 N 529.16 -1.33526 0.837174 0
M  V30 5395 C 530.388 -2.02047 0.445494 0
M  V30 5396 C 530.803 -1.62995 -0.952788 0
M  V30 5397 O 530.16 -0.842447 -1.61892 0
M  V30 5398 C 530.211 -3.57221 0.554577 0
M  V30 5399 O 529.932 -3.94863 1.89776 0
M  V30 5400 C 531.433 -4.43012 0.159634 0
M  V30 5401 H 528.653 -0.647221 0.177048 0
M  V30 5402 H 531.197 -1.70492 1.12928 0
M  V30 5403 H 529.352 -3.87315 -0.0812781 0
M  V30 5404 H 529.766 -4.89569 1.88208 0
M  V30 5405 H 531.24 -5.51253 0.28701 0
M  V30 5406 H 531.717 -4.29916 -0.898289 0
M  V30 5407 H 532.323 -4.18274 0.769855 0
M  V30 5408 N 530.638 -0.59345 -1.46 0
M  V30 5409 C 532.049 -0.169801 -1.85926 0
M  V30 5410 C 532.4 1.26984 -1.49565 0
M  V30 5411 O 531.525 1.96076 -0.915602 0
M  V30 5412 C 532.12 -0.301385 -3.37457 0
M  V30 5413 C 530.679 0.0674684 -3.7634 0
M  V30 5414 C 529.826 -0.632383 -2.69993 0
M  V30 5415 H 532.777 -0.801014 -1.37002 0
M  V30 5416 H 532.798 0.470331 -3.77582 0
M  V30 5417 H 532.31 -1.34927 -3.63891 0
M  V30 5418 H 530.411 1.11507 -3.55523 0
M  V30 5419 H 530.524 -0.316332 -4.78055 0
M  V30 5420 H 528.888 -0.0714961 -2.546 0
M  V30 5421 H 529.671 -1.68212 -2.99265 0
M  V30 5422 N 532.116 1.54067 -0.331816 0
M  V30 5423 C 533.363 2.00715 0.268269 0
M  V30 5424 C 533.691 1.21986 1.51491 0
M  V30 5425 O 532.946 0.292309 1.93505 0
M  V30 5426 C 533.245 3.51634 0.639392 0
M  V30 5427 C 532.911 4.48018 -0.509019 0
M  V30 5428 C 531.573 4.74089 -0.824209 0
M  V30 5429 C 533.925 5.05237 -1.28003 0
M  V30 5430 C 531.253 5.54637 -1.91298 0
M  V30 5431 C 533.605 5.86972 -2.35895 0
M  V30 5432 C 532.269 6.11342 -2.67987 0
M  V30 5433 H 531.539 0.734469 0.0981667 0
M  V30 5434 H 534.186 1.8596 -0.457304 0
M  V30 5435 H 532.491 3.6416 1.44551 0
M  V30 5436 H 534.188 3.85175 1.11539 0
M  V30 5437 H 530.778 4.27851 -0.253287 0
M  V30 5438 H 534.962 4.8507 -1.04978 0
M  V30 5439 H 530.218 5.71747 -2.16599 0
M  V30 5440 H 534.392 6.30327 -2.96076 0
M  V30 5441 H 532.019 6.73544 -3.5248 0
M  V30 5442 N 533.594 0.0601682 1.57485 0
M  V30 5443 C 534.824 -0.620037 1.97076 0
M  V30 5444 C 535.232 -1.64381 0.936784 0
M  V30 5445 O 534.575 -1.83497 -0.0863377 0
M  V30 5446 C 534.637 -1.35617 3.32939 0
M  V30 5447 C 534.301 -0.487208 4.54396 0
M  V30 5448 C 535.298 0.250428 5.19297 0
M  V30 5449 C 532.983 -0.415494 5.00579 0
M  V30 5450 C 534.977 1.04812 6.28723 0
M  V30 5451 C 532.664 0.385879 6.0988 0
M  V30 5452 C 533.662 1.11637 6.73815 0
M  V30 5453 O 533.35 1.90454 7.81014 0
M  V30 5454 H 533.082 -0.173664 0.653312 0
M  V30 5455 H 535.636 0.1256 2.05016 0
M  V30 5456 H 533.866 -2.14763 3.2158 0
M  V30 5457 H 535.555 -1.92749 3.57215 0
M  V30 5458 H 536.321 0.204546 4.84568 0
M  V30 5459 H 532.2 -0.973679 4.506 0
M  V30 5460 H 535.744 1.6188 6.78558 0
M  V30 5461 H 531.641 0.433366 6.44044 0
M  V30 5462 H 532.409 1.82762 7.97835 0
M  V30 5463 N 535.072 -1.5615 -0.213296 0
M  V30 5464 C 536.002 -1.96109 -1.26742 0
M  V30 5465 C 536.983 -0.830448 -1.48451 0
M  V30 5466 O 538.168 -1.09339 -1.60495 0
M  V30 5467 C 535.298 -2.28492 -2.61551 0
M  V30 5468 C 534.252 -3.44124 -2.54485 0
M  V30 5469 C 533.578 -3.62134 -3.93399 0
M  V30 5470 C 534.878 -4.78855 -2.08556 0
M  V30 5471 H 536.572 -2.84412 -0.935434 0
M  V30 5472 H 534.118 -1.36836 -0.44854 0
M  V30 5473 H 536.071 -2.55039 -3.3546 0
M  V30 5474 H 534.795 -1.37052 -2.96453 0
M  V30 5475 H 533.454 -3.17639 -1.83033 0
M  V30 5476 H 533.102 -2.68055 -4.25623 0
M  V30 5477 H 532.802 -4.39913 -3.89551 0
M  V30 5478 H 534.326 -3.91038 -4.68958 0
M  V30 5479 H 535.74 -5.04552 -2.72213 0
M  V30 5480 H 534.137 -5.59975 -2.1575 0
M  V30 5481 H 535.207 -4.73657 -1.03811 0
M  V30 5482 N 536.55 0.480323 -1.50102 0
M  V30 5483 C 537.798 1.23063 -1.60312 0
M  V30 5484 C 538.119 1.92659 -0.301226 0
M  V30 5485 O 537.389 1.83691 0.680753 0
M  V30 5486 H 535.969 0.457231 -0.590719 0
M  V30 5487 H 538.631 0.554893 -1.86834 0
M  V30 5488 H 537.727 1.9835 -2.40964 0
M  V30 5489 N 538.028 1.39524 0.732853 0
M  V30 5490 C 539.276 1.36594 1.48951 0
M  V30 5491 C 539.597 -0.0367507 1.94965 0
M  V30 5492 O 538.867 -0.988391 1.69138 0
M  V30 5493 H 537.447 0.502673 0.552566 0
M  V30 5494 H 540.109 1.74411 0.869869 0
M  V30 5495 H 539.205 2.03 2.3706 0
M  V30 5496 N 539.506 -0.963266 1.24736 0
M  V30 5497 C 540.731 -1.74699 1.11781 0
M  V30 5498 C 541.156 -1.85267 -0.325258 0
M  V30 5499 O 540.514 -1.32681 -1.23553 0
M  V30 5500 C 540.562 -3.14322 1.76731 0
M  V30 5501 O 539.666 -3.99043 1.04109 0
M  V30 5502 H 539.007 -0.53684 0.390767 0
M  V30 5503 H 541.537 -1.20801 1.65131 0
M  V30 5504 H 541.547 -3.64824 1.82668 0
M  V30 5505 H 540.222 -3.05946 2.81726 0
M  V30 5506 H 538.799 -3.5752 1.05991 0
M  V30 5507 N 540.985 -1.06182 -1.16461 0
M  V30 5508 C 542.233 -0.776326 -1.86595 0
M  V30 5509 C 542.554 0.69921 -1.82033 0
M  V30 5510 O 541.824 1.50579 -1.2531 0
M  V30 5511 H 540.404 -0.284184 -0.690832 0
M  V30 5512 H 543.066 -1.34308 -1.41235 0
M  V30 5513 H 542.162 -1.10022 -2.92064 0
M  V30 5514 N 542.463 1.3308 -0.844243 0
M  V30 5515 C 543.426 2.27403 -0.286485 0
M  V30 5516 C 544.426 1.51179 0.547872 0
M  V30 5517 O 545.616 1.70421 0.360886 0
M  V30 5518 C 542.748 3.35653 0.595813 0
M  V30 5519 H 543.941 2.78248 -1.11885 0
M  V30 5520 H 541.494 1.43574 -0.617749 0
M  V30 5521 H 542.229 2.90058 1.4504 0
M  V30 5522 H 542.014 3.921 -0.00125994 0
M  V30 5523 H 543.504 4.05958 0.979168 0
M  V30 5524 N 543.941 0.601185 1.45683 0
M  V30 5525 C 544.904 -0.111398 2.28929 0
M  V30 5526 C 545.904 -0.801246 1.39416 0
M  V30 5527 O 547.094 -0.650383 1.61603 0
M  V30 5528 C 544.226 -1.16773 3.20276 0
M  V30 5529 H 545.419 0.620412 2.93413 0
M  V30 5530 H 542.972 0.359946 1.52099 0
M  V30 5531 H 543.707 -1.93051 2.60579 0
M  V30 5532 H 543.492 -0.677358 3.86205 0
M  V30 5533 H 544.982 -1.66698 3.82886 0
M  V30 5534 N 545.419 -1.53889 0.339982 0
M  V30 5535 C 546.367 -2.26391 -0.533822 0
M  V30 5536 C 547.361 -1.28404 -1.10493 0
M  V30 5537 O 548.567 -1.46124 -1.05108 0
M  V30 5538 H 544.942 -0.727385 -0.190828 0
M  V30 5539 H 546.913 -2.98233 0.0997484 0
M  V30 5540 C 545.662 -3.04707 -1.67479 0
M  V30 5541 H 544.985 -3.79934 -1.2446 0
M  V30 5542 H 546.425 -3.58657 -2.26144 0
M  V30 5543 C 544.884 -2.13989 -2.60212 0
M  V30 5544 O 545.414 -1.73361 -3.62366 0
M  V30 5545 N 543.62 -1.79141 -2.28816 0
M  V30 5546 H 543.167 -2.12378 -1.45785 0
M  V30 5547 H 543.125 -1.18725 -2.91121 0
M  V30 5548 N 546.897 -0.0685191 -1.57451 0
M  V30 5549 C 548.125 0.610462 -1.97689 0
M  V30 5550 C 548.54 1.63346 -0.946758 0
M  V30 5551 O 547.897 1.82377 0.0669868 0
M  V30 5552 C 547.948 1.28196 -3.38006 0
M  V30 5553 O 547.669 0.299906 -4.37072 0
M  V30 5554 C 549.17 2.04907 -3.931 0
M  V30 5555 H 546.39 0.165689 -0.650222 0
M  V30 5556 H 548.934 -0.139953 -2.04021 0
M  V30 5557 H 547.089 1.98348 -3.32771 0
M  V30 5558 H 547.503 0.78126 -5.18649 0
M  V30 5559 H 548.977 2.47287 -4.93511 0
M  V30 5560 H 549.454 2.9043 -3.29465 0
M  V30 5561 H 550.06 1.39629 -4.01726 0
M  V30 5562 N 548.375 1.56261 0.205012 0
M  V30 5563 C 549.6 1.84491 0.947512 0
M  V30 5564 C 550.025 0.650894 1.76479 0
M  V30 5565 O 549.383 -0.40035 1.76824 0
M  V30 5566 C 549.431 3.10863 1.82747 0
M  V30 5567 O 548.535 2.90719 2.925 0
M  V30 5568 H 547.876 0.607783 0.267386 0
M  V30 5569 H 550.406 2.03485 0.213323 0
M  V30 5570 H 550.416 3.41399 2.23407 0
M  V30 5571 H 549.091 3.97392 1.2269 0
M  V30 5572 H 547.668 2.71457 2.55667 0
M  V30 5573 N 549.853 -0.472356 1.50355 0
M  V30 5574 C 551.081 -1.24784 1.65035 0
M  V30 5575 C 551.496 -1.85837 0.333176 0
M  V30 5576 O 550.853 -1.69168 -0.68472 0
M  V30 5577 C 550.904 -2.35747 2.74054 0
M  V30 5578 O 550.625 -1.77197 4.00665 0
M  V30 5579 C 552.126 -3.26645 2.99696 0
M  V30 5580 H 549.346 -0.377432 0.554785 0
M  V30 5581 H 551.89 -0.563962 1.9657 0
M  V30 5582 H 550.045 -2.99912 2.45217 0
M  V30 5583 H 550.459 -2.5026 4.60945 0
M  V30 5584 H 551.933 -4.00718 3.79644 0
M  V30 5585 H 552.41 -3.8535 2.10718 0
M  V30 5586 H 553.016 -2.68218 3.3006 0
M  V30 5587 N 551.331 -1.39911 -0.725443 0
M  V30 5588 C 552.579 -1.37382 -1.48224 0
M  V30 5589 C 552.9 0.0264107 -1.94982 0
M  V30 5590 O 552.17 0.979408 -1.6966 0
M  V30 5591 H 550.75 -0.505596 -0.549892 0
M  V30 5592 H 553.412 -1.7487 -0.860608 0
M  V30 5593 H 552.508 -2.04254 -2.3598 0
M  V30 5594 N 552.809 0.956637 -1.25245 0
M  V30 5595 C 554.057 1.69764 -1.09657 0
M  V30 5596 C 554.378 1.91583 0.363464 0
M  V30 5597 O 553.648 1.50149 1.25825 0
M  V30 5598 H 552.228 0.629097 -0.402798 0
M  V30 5599 H 554.89 1.15026 -1.57337 0
M  V30 5600 H 553.986 2.67769 -1.60331 0
M  V30 5601 N 554.287 1.06798 1.15896 0
M  V30 5602 C 555.535 0.786211 1.8618 0
M  V30 5603 C 555.856 -0.689547 1.82401 0
M  V30 5604 O 555.126 -1.49913 1.26107 0
M  V30 5605 H 553.706 0.287843 0.689315 0
M  V30 5606 H 556.368 1.35055 1.40521 0
M  V30 5607 H 555.464 1.1157 2.91477 0
M  V30 5608 N 555.766 -1.3263 0.851289 0
M  V30 5609 C 556.994 -2.01563 0.466899 0
M  V30 5610 C 557.409 -1.63996 -0.935447 0
M  V30 5611 O 556.766 -0.85957 -1.6099 0
M  V30 5612 C 556.817 -3.56613 0.592433 0
M  V30 5613 O 556.538 -3.92828 1.93954 0
M  V30 5614 C 558.039 -4.42818 0.206612 0
M  V30 5615 H 555.259 -0.645307 0.183902 0
M  V30 5616 H 557.803 -1.69285 1.1473 0
M  V30 5617 H 555.958 -3.87379 -0.0401936 0
M  V30 5618 H 556.372 -4.87545 1.9339 0
M  V30 5619 H 557.846 -5.50918 0.345462 0
M  V30 5620 H 558.323 -4.30844 -0.85264 0
M  V30 5621 H 558.929 -4.17434 0.814176 0
M  V30 5622 N 557.244 -0.608902 -1.45362 0
M  V30 5623 C 558.174 0.0964526 -2.33301 0
M  V30 5624 C 559.155 0.857444 -1.46908 0
M  V30 5625 O 560.34 0.827735 -1.75676 0
M  V30 5626 C 557.47 1.09354 -3.29635 0
M  V30 5627 C 556.424 0.445676 -4.25673 0
M  V30 5628 C 555.75 1.5511 -5.11708 0
M  V30 5629 C 557.05 -0.633972 -5.18438 0
M  V30 5630 H 558.744 -0.637829 -2.92527 0
M  V30 5631 H 556.29 -0.308178 -1.40664 0
M  V30 5632 H 558.243 1.59556 -3.90025 0
M  V30 5633 H 556.967 1.85843 -2.6857 0
M  V30 5634 H 555.626 -0.0354897 -3.66583 0
M  V30 5635 H 555.274 2.30631 -4.4701 0
M  V30 5636 H 554.974 1.12311 -5.76767 0
M  V30 5637 H 556.498 2.05537 -5.74967 0
M  V30 5638 H 557.912 -0.215974 -5.72893 0
M  V30 5639 H 556.309 -0.983789 -5.91981 0
M  V30 5640 H 557.379 -1.51005 -4.60788 0
M  V30 5641 N 558.722 1.53707 -0.348139 0
M  V30 5642 C 559.947 2.05877 0.250883 0
M  V30 5643 C 560.372 1.22115 1.43072 0
M  V30 5644 O 559.73 0.235986 1.79758 0
M  V30 5645 C 559.778 3.54886 0.639416 0
M  V30 5646 O 558.882 3.73948 1.73888 0
M  V30 5647 H 558.223 0.662754 0.040653 0
M  V30 5648 H 560.753 1.98303 -0.503685 0
M  V30 5649 H 560.763 3.97601 0.915295 0
M  V30 5650 H 559.438 4.153 -0.223386 0
M  V30 5651 H 558.015 3.43134 1.45991 0
M  V30 5652 N 560.2 0.0768682 1.57412 0
M  V30 5653 C 561.428 -0.59997 1.9801 0
M  V30 5654 C 561.843 -1.62842 0.955408 0
M  V30 5655 O 561.2 -1.8241 -0.057314 0
M  V30 5656 C 561.251 -1.26401 3.38681 0
M  V30 5657 O 560.972 -0.276723 4.37225 0
M  V30 5658 C 562.473 -2.0282 3.94182 0
M  V30 5659 H 559.693 -0.162239 0.651091 0
M  V30 5660 H 562.237 0.150771 2.03943 0
M  V30 5661 H 560.392 -1.96581 3.33819 0
M  V30 5662 H 560.806 -0.753744 5.19056 0
M  V30 5663 H 562.28 -2.44667 4.94815 0
M  V30 5664 H 562.757 -2.88678 3.31001 0
M  V30 5665 H 563.363 -1.37496 4.02461 0
M  V30 5666 N 561.678 -1.56367 -0.196722 0
M  V30 5667 C 562.903 -1.84991 -0.937714 0
M  V30 5668 C 563.328 -0.660244 -1.76132 0
M  V30 5669 O 562.686 0.390967 -1.77034 0
M  V30 5670 C 562.734 -3.11828 -1.81096 0
M  V30 5671 O 561.838 -2.92266 -2.90955 0
M  V30 5672 H 561.179 -0.609193 -0.264159 0
M  V30 5673 H 563.709 -2.03595 -0.202529 0
M  V30 5674 H 563.719 -3.42579 -2.21594 0
M  V30 5675 H 562.394 -3.98037 -1.2058 0
M  V30 5676 H 560.971 -2.72809 -2.54224 0
M  V30 5677 N 563.156 0.464375 -1.50603 0
M  V30 5678 C 564.405 1.21277 -1.61167 0
M  V30 5679 C 564.718 1.92953 -0.320704 0
M  V30 5680 O 565.924 2.69778 -0.30534 0
M  V30 5681 C 564.38 2.20403 -2.84518 0
M  V30 5682 C 563.988 1.54499 -4.20516 0
M  V30 5683 C 565.732 2.95843 -3.0443 0
M  V30 5684 C 563.639 2.51951 -5.35047 0
M  V30 5685 H 562.569 0.456367 -0.600204 0
M  V30 5686 H 565.22 0.48254 -1.77042 0
M  V30 5687 H 563.602 2.96746 -2.62217 0
M  V30 5688 H 564.776 0.83899 -4.53098 0
M  V30 5689 H 563.091 0.913152 -4.06264 0
M  V30 5690 H 565.688 3.6879 -3.87167 0
M  V30 5691 H 566.031 3.55622 -2.16423 0
M  V30 5692 H 566.564 2.26611 -3.26944 0
M  V30 5693 H 563.303 1.96901 -6.25228 0
M  V30 5694 H 562.823 3.20683 -5.06875 0
M  V30 5695 H 564.502 3.13643 -5.65895 0
M  V30 5696 N 564.634 1.40294 0.718013 0
M  V30 5697 C 565.859 1.41941 1.5122 0
M  V30 5698 C 566.284 0.0202371 1.88089 0
M  V30 5699 O 565.642 -0.971078 1.53101 0
M  V30 5700 C 565.69 2.3141 2.76554 0
M  V30 5701 O 564.794 1.75567 3.73162 0
M  V30 5702 H 564.135 0.482644 0.456016 0
M  V30 5703 H 566.665 1.84494 0.884478 0
M  V30 5704 H 566.675 2.46513 3.25108 0
M  V30 5705 H 565.35 3.33085 2.49053 0
M  V30 5706 H 563.927 1.69798 3.31999 0
M  V30 5707 N 566.112 -0.949982 1.2575 0
M  V30 5708 C 567.36 -1.6918 1.10555 0
M  V30 5709 C 567.681 -1.91773 -0.353298 0
M  V30 5710 O 566.951 -1.50814 -1.25027 0
M  V30 5711 H 565.531 -0.626952 0.406129 0
M  V30 5712 H 568.193 -1.1419 1.57945 0
M  V30 5713 H 567.289 -2.66915 1.61749 0
M  V30 5714 N 567.59 -1.07411 -1.15328 0
M  V30 5715 C 568.818 -0.818782 -1.90009 0
M  V30 5716 C 569.233 0.628072 -1.78047 0
M  V30 5717 O 568.59 1.43085 -1.13282 0
M  V30 5718 C 568.641 -1.21874 -3.40337 0
M  V30 5719 O 568.362 -2.60883 -3.51954 0
M  V30 5720 C 569.863 -0.992796 -4.3204 0
M  V30 5721 H 567.083 -0.296007 -0.60218 0
M  V30 5722 H 569.627 -1.43073 -1.46117 0
M  V30 5723 H 567.782 -0.651103 -3.81889 0
M  V30 5724 H 568.196 -2.77216 -4.45255 0
M  V30 5725 H 569.67 -1.32215 -5.35932 0
M  V30 5726 H 570.147 0.0708331 -4.39143 0
M  V30 5727 H 570.753 -1.54537 -3.9623 0
M  V30 5728 N 569.068 1.32177 -0.85831 0
M  V30 5729 C 569.978 2.32561 -0.308606 0
M  V30 5730 C 570.994 1.64209 0.575462 0
M  V30 5731 O 572.17 1.95719 0.474961 0
M  V30 5732 C 569.235 3.43207 0.490909 0
M  V30 5733 C 568.296 4.27243 -0.419733 0
M  V30 5734 C 567.529 5.32605 0.341719 0
M  V30 5735 O 567.752 5.48332 1.57125 0
M  V30 5736 O 566.686 6.0118 -0.294379 0
M  V30 5737 H 570.512 2.81477 -1.14037 0
M  V30 5738 H 568.097 1.35866 -0.621349 0
M  V30 5739 H 569.979 4.10677 0.944574 0
M  V30 5740 H 568.654 2.96474 1.29941 0
M  V30 5741 H 567.561 3.62569 -0.921652 0
M  V30 5742 H 568.894 4.7751 -1.19352 0
M  V30 5743 N 570.547 0.616602 1.45037 0
M  V30 5744 C 571.772 0.120192 2.07051 0
M  V30 5745 C 572.197 -1.19008 1.45666 0
M  V30 5746 O 571.555 -1.7267 0.552692 0
M  V30 5747 C 571.603 0.00354901 3.606 0
M  V30 5748 O 570.707 -1.04431 3.98958 0
M  V30 5749 H 570.048 0.0781599 0.659384 0
M  V30 5750 H 572.578 0.849167 1.86146 0
M  V30 5751 H 572.588 -0.191754 4.07549 0
M  V30 5752 H 571.263 0.960239 4.04663 0
M  V30 5753 H 569.84 -0.824749 3.63665 0
M  V30 5754 N 572.025 -1.5352 0.356285 0
M  V30 5755 C 572.988 -2.24071 -0.482182 0
M  V30 5756 C 573.988 -1.24531 -1.01729 0
M  V30 5757 O 575.178 -1.48876 -0.904513 0
M  V30 5758 C 572.31 -2.97025 -1.67299 0
M  V30 5759 H 573.503 -2.99596 0.135031 0
M  V30 5760 H 571.056 -1.55928 0.107825 0
M  V30 5761 H 571.791 -2.25719 -2.32855 0
M  V30 5762 H 571.576 -3.7005 -1.29636 0
M  V30 5763 H 573.066 -3.50683 -2.26741 0
M  V30 5764 N 573.503 -0.0852151 -1.57369 0
M  V30 5765 C 574.78 0.622534 -1.85429 0
M  V30 5766 C 575.16 1.86962 -0.980229 0
M  V30 5767 O 574.508 2.28445 -0.0500219 0
M  V30 5768 C 574.718 0.947374 -3.35896 0
M  V30 5769 C 576.066 1.31509 -4.03721 0
M  V30 5770 O 577.09 1.03869 -3.40719 0
M  V30 5771 O 575.949 1.83231 -5.14868 0
M  V30 5772 H 573.043 0.310513 -0.766492 0
M  V30 5773 H 575.589 -0.117164 -1.69295 0
M  V30 5774 H 574.361 0.0622264 -3.91251 0
M  V30 5775 H 573.984 1.74338 -3.5734 0
M  V30 5776 N 574.981 1.5647 0.188427 0
M  V30 5777 C 576.209 1.85131 0.923803 0
M  V30 5778 C 576.624 0.668537 1.76567 0
M  V30 5779 O 575.981 -0.362662 1.7886 0
M  V30 5780 C 576.032 3.12661 1.81453 0
M  V30 5781 O 575.753 4.26378 1.00665 0
M  V30 5782 C 577.254 3.54548 2.66103 0
M  V30 5783 H 574.474 0.614624 0.269218 0
M  V30 5784 H 577.018 2.03581 0.193671 0
M  V30 5785 H 575.173 2.96088 2.49821 0
M  V30 5786 H 575.587 4.99041 1.61425 0
M  V30 5787 H 577.061 4.4673 3.24247 0
M  V30 5788 H 577.538 2.77853 3.40139 0
M  V30 5789 H 578.144 3.73674 2.03096 0
M  V30 5790 N 576.459 -0.456382 1.50847 0
M  V30 5791 C 577.689 -1.22848 1.66108 0
M  V30 5792 C 578.097 -1.85936 0.349897 0
M  V30 5793 O 577.44 -1.70664 -0.679665 0
M  V30 5794 C 577.502 -2.36722 2.70561 0
M  V30 5795 C 577.166 -1.94154 4.13707 0
M  V30 5796 C 578.163 -1.4557 4.99105 0
M  V30 5797 C 575.848 -2.02426 4.59705 0
M  V30 5798 C 577.842 -1.0582 6.28555 0
M  V30 5799 C 575.529 -1.62287 5.89157 0
M  V30 5800 C 576.527 -1.14064 6.73408 0
M  V30 5801 O 576.215 -0.744873 8.00442 0
M  V30 5802 H 575.947 -0.377105 0.561042 0
M  V30 5803 H 578.501 -0.549431 1.97915 0
M  V30 5804 H 576.731 -3.07844 2.34027 0
M  V30 5805 H 578.42 -2.98646 2.74892 0
M  V30 5806 H 579.186 -1.38589 4.64777 0
M  V30 5807 H 575.065 -2.38908 3.94264 0
M  V30 5808 H 578.609 -0.6811 6.94267 0
M  V30 5809 H 574.506 -1.68932 6.23003 0
M  V30 5810 H 575.274 -0.87242 8.13837 0
M  V30 5811 N 577.937 -1.40673 -0.710563 0
M  V30 5812 C 578.867 -1.44095 -1.83736 0
M  V30 5813 C 579.848 -0.301286 -1.67411 0
M  V30 5814 O 581.033 -0.510618 -1.87367 0
M  V30 5815 C 578.163 -1.30773 -3.21738 0
M  V30 5816 C 577.117 -2.42395 -3.52745 0
M  V30 5817 C 576.443 -2.14147 -4.89944 0
M  V30 5818 C 577.743 -3.84738 -3.53234 0
M  V30 5819 H 579.437 -2.38396 -1.81129 0
M  V30 5820 H 576.983 -1.14746 -0.870017 0
M  V30 5821 H 578.936 -1.31783 -4.00264 0
M  V30 5822 H 577.66 -0.329507 -3.24934 0
M  V30 5823 H 576.319 -2.40643 -2.76562 0
M  V30 5824 H 575.967 -1.14703 -4.89747 0
M  V30 5825 H 575.667 -2.88934 -5.11655 0
M  V30 5826 H 577.191 -2.16848 -5.70797 0
M  V30 5827 H 578.605 -3.88286 -4.2179 0
M  V30 5828 H 577.002 -4.59085 -3.86473 0
M  V30 5829 H 578.072 -4.13962 -2.52514 0
M  V30 5830 N 579.415 0.9433 -1.26252 0
M  V30 5831 C 580.645 1.72117 -1.14277 0
M  V30 5832 C 581.053 1.86726 0.304944 0
M  V30 5833 O 580.396 1.3727 1.22076 0
M  V30 5834 C 580.458 3.14778 -1.73651 0
M  V30 5835 C 580.122 3.23561 -3.22734 0
M  V30 5836 C 581.119 3.07001 -4.19579 0
M  V30 5837 C 578.804 3.47019 -3.63157 0
M  V30 5838 C 580.798 3.13763 -5.54826 0
M  V30 5839 C 578.485 3.53416 -4.98538 0
M  V30 5840 C 579.483 3.36804 -5.94182 0
M  V30 5841 O 579.171 3.42906 -7.27098 0
M  V30 5842 H 578.903 0.545781 -0.398873 0
M  V30 5843 H 581.457 1.19123 -1.67328 0
M  V30 5844 H 579.687 3.69186 -1.1506 0
M  V30 5845 H 581.376 3.74469 -1.56613 0
M  V30 5846 H 582.142 2.88736 -3.89688 0
M  V30 5847 H 578.021 3.59006 -2.89199 0
M  V30 5848 H 581.565 3.00714 -6.29458 0
M  V30 5849 H 577.462 3.71201 -5.28091 0
M  V30 5850 H 578.23 3.59463 -7.35342 0
M  V30 5851 N 580.893 1.08022 1.14757 0
M  V30 5852 C 582.17 0.720386 1.81851 0
M  V30 5853 C 582.55 -0.796375 1.95502 0
M  V30 5854 O 581.898 -1.71339 1.51179 0
M  V30 5855 C 582.108 1.44273 3.17783 0
M  V30 5856 C 583.456 1.59925 3.93331 0
M  V30 5857 O 584.48 1.40407 3.2736 0
M  V30 5858 O 583.339 1.92096 5.11626 0
M  V30 5859 H 580.433 0.257142 0.786007 0
M  V30 5860 H 582.979 1.18155 1.21809 0
M  V30 5861 H 581.751 2.47618 3.02987 0
M  V30 5862 H 581.374 0.97279 3.85516 0
M  V30 5863 N 582.371 -1.3172 0.865308 0
M  V30 5864 C 583.782 -1.79104 0.527126 0
M  V30 5865 C 584.133 -1.7135 -0.955695 0
M  V30 5866 O 583.258 -1.27845 -1.74598 0
M  V30 5867 C 583.853 -3.25207 0.950061 0
M  V30 5868 C 582.412 -3.70504 0.663611 0
M  V30 5869 C 581.559 -2.52605 1.14395 0
M  V30 5870 H 584.51 -1.18868 1.05148 0
M  V30 5871 H 584.531 -3.79535 0.270805 0
M  V30 5872 H 584.043 -3.30818 2.02931 0
M  V30 5873 H 582.144 -3.70398 -0.404474 0
M  V30 5874 H 582.257 -4.62845 1.23737 0
M  V30 5875 H 580.621 -2.4838 0.563859 0
M  V30 5876 H 581.404 -2.60964 2.23053 0
M  V30 5877 N 583.85 -0.624285 -1.44708 0
M  V30 5878 C 584.812 0.0749638 -2.29077 0
M  V30 5879 C 585.812 0.778965 -1.40673 0
M  V30 5880 O 587.003 0.624591 -1.62618 0
M  V30 5881 C 584.135 1.11663 -3.22094 0
M  V30 5882 H 585.327 -0.667013 -2.92388 0
M  V30 5883 H 582.88 -0.384098 -1.51507 0
M  V30 5884 H 583.615 1.88881 -2.63618 0
M  V30 5885 H 583.401 0.61583 -3.87234 0
M  V30 5886 H 584.891 1.60585 -3.8549 0
M  V30 5887 N 585.328 1.53329 -0.364422 0
M  V30 5888 C 586.605 1.93557 0.281962 0
M  V30 5889 C 586.985 1.29786 1.6649 0
M  V30 5890 O 586.333 0.456512 2.23893 0
M  V30 5891 C 586.543 3.47405 0.333331 0
M  V30 5892 C 587.891 4.20699 0.574231 0
M  V30 5893 O 588.915 3.53779 0.414588 0
M  V30 5894 O 587.774 5.39287 0.885002 0
M  V30 5895 H 584.868 0.809573 0.168881 0
M  V30 5896 H 587.414 1.64494 -0.417121 0
M  V30 5897 H 586.186 3.86091 -0.636326 0
M  V30 5898 H 585.809 3.82697 1.07836 0
M  V30 5899 N 586.806 0.0935595 1.57322 0
M  V30 5900 C 588.217 -0.435807 1.81542 0
M  V30 5901 C 588.568 -1.68263 1.00907 0
M  V30 5902 O 587.693 -2.15087 0.237983 0
M  V30 5903 C 588.288 -0.797436 3.29282 0
M  V30 5904 C 586.847 -1.27155 3.54272 0
M  V30 5905 C 585.994 -0.267455 2.76007 0
M  V30 5906 H 588.945 0.31902 1.5546 0
M  V30 5907 H 588.966 -1.6571 3.42521 0
M  V30 5908 H 588.478 0.110206 3.87943 0
M  V30 5909 H 586.579 -2.19696 3.00939 0
M  V30 5910 H 586.692 -1.23445 4.62923 0
M  V30 5911 H 585.056 -0.749282 2.43429 0
M  V30 5912 H 585.839 0.632839 3.37417 0
M  V30 5913 N 588.284 -1.56567 -0.180126 0
M  V30 5914 C 589.53 -1.81761 -0.899497 0
M  V30 5915 C 589.863 -0.670015 -1.82276 0
M  V30 5916 O 589.138 0.328575 -1.91705 0
M  V30 5917 C 589.421 -3.17296 -1.7028 0
M  V30 5918 C 589.274 -4.4257 -0.803255 0
M  V30 5919 C 590.593 -3.49678 -2.67233 0
M  V30 5920 H 587.712 -0.661192 -0.325567 0
M  V30 5921 H 590.354 -1.89272 -0.16612 0
M  V30 5922 H 588.504 -3.11023 -2.32802 0
M  V30 5923 H 590.176 -4.60902 -0.191585 0
M  V30 5924 H 588.419 -4.33658 -0.110796 0
M  V30 5925 H 589.09 -5.33935 -1.40064 0
M  V30 5926 H 591.566 -3.56347 -2.14839 0
M  V30 5927 H 590.442 -4.45605 -3.20511 0
M  V30 5928 H 590.703 -2.73932 -3.47007 0
M  V30 5929 N 589.762 0.448376 -1.51087 0
M  V30 5930 C 591.173 1.0286 -1.5581 0
M  V30 5931 C 591.524 1.92583 -0.374989 0
M  V30 5932 O 590.649 2.10316 0.509533 0
M  V30 5933 C 591.244 1.87223 -2.8237 0
M  V30 5934 C 589.803 2.40314 -2.897 0
M  V30 5935 C 588.95 1.19238 -2.50355 0
M  V30 5936 H 591.901 0.230075 -1.57023 0
M  V30 5937 H 591.922 2.72553 -2.6551 0
M  V30 5938 H 591.434 1.21894 -3.68461 0
M  V30 5939 H 589.535 3.09129 -2.08014 0
M  V30 5940 H 589.648 2.73866 -3.93108 0
M  V30 5941 H 588.012 1.53428 -2.03303 0
M  V30 5942 H 588.795 0.555367 -3.38778 0
M  V30 5943 N 591.24 1.41047 0.703093 0
M  V30 5944 C 592.465 1.43537 1.49706 0
M  V30 5945 C 592.89 0.0401853 1.88057 0
M  V30 5946 O 592.248 -0.954785 1.54122 0
M  V30 5947 C 592.296 2.3433 2.74084 0
M  V30 5948 O 591.4 1.79515 3.71279 0
M  V30 5949 H 590.741 0.487454 0.450871 0
M  V30 5950 H 593.271 1.85422 0.86486 0
M  V30 5951 H 593.281 2.49947 3.22476 0
M  V30 5952 H 591.956 3.35708 2.45506 0
M  V30 5953 H 590.533 1.7331 3.30179 0
M  V30 5954 N 592.718 -0.936591 1.26751 0
M  V30 5955 C 593.648 -2.05315 1.11212 0
M  V30 5956 C 594.629 -1.70092 0.0160262 0
M  V30 5957 O 595.814 -1.93279 0.188894 0
M  V30 5958 C 592.944 -3.39123 0.749171 0
M  V30 5959 C 591.898 -3.88425 1.79751 0
M  V30 5960 C 591.224 -5.18936 1.28876 0
M  V30 5961 C 592.524 -4.12798 3.19992 0
M  V30 5962 H 594.218 -2.18573 2.04613 0
M  V30 5963 H 591.764 -1.05027 0.985159 0
M  V30 5964 H 593.717 -4.16704 0.627323 0
M  V30 5965 H 592.441 -3.25855 -0.220543 0
M  V30 5966 H 591.1 -3.13028 1.90811 0
M  V30 5967 H 590.748 -5.02051 0.308757 0
M  V30 5968 H 590.448 -5.52892 1.98958 0
M  V30 5969 H 591.972 -5.99096 1.17967 0
M  V30 5970 H 593.386 -4.80977 3.11983 0
M  V30 5971 H 591.783 -4.58044 3.87705 0
M  V30 5972 H 592.853 -3.18412 3.65707 0
M  V30 5973 N 594.196 -1.08629 -1.14182 0
M  V30 5974 C 595.444 -0.815731 -1.84906 0
M  V30 5975 C 595.765 0.660441 -1.83475 0
M  V30 5976 O 595.035 1.47888 -1.28476 0
M  V30 5977 H 593.615 -0.298773 -0.684648 0
M  V30 5978 H 596.277 -1.37274 -1.38354 0
M  V30 5979 H 595.373 -1.16193 -2.89665 0
M  V30 5980 N 595.674 1.31259 -0.872281 0
M  V30 5981 C 596.922 1.96233 -0.483409 0
M  V30 5982 C 597.243 1.69276 0.968012 0
M  V30 5983 O 596.513 1.00943 1.67891 0
M  V30 5984 H 595.093 0.726025 -0.175774 0
M  V30 5985 H 597.755 1.60024 -1.11258 0
M  V30 5986 H 596.851 3.05403 -0.643075 0
M  V30 5987 N 597.152 0.631951 1.44375 0
M  V30 5988 C 598.38 0.143867 2.06399 0
M  V30 5989 C 598.795 -1.18188 1.47231 0
M  V30 5990 O 598.152 -1.72511 0.595498 0
M  V30 5991 C 598.203 0.0238253 3.61492 0
M  V30 5992 O 597.924 1.29715 4.18456 0
M  V30 5993 C 599.425 -0.492856 4.40552 0
M  V30 5994 H 596.645 0.0800542 0.666207 0
M  V30 5995 H 599.189 0.866586 1.85231 0
M  V30 5996 H 597.344 -0.649338 3.81919 0
M  V30 5997 H 597.758 1.14252 5.11905 0
M  V30 5998 H 599.232 -0.525861 5.49489 0
M  V30 5999 H 599.709 -1.52006 4.12057 0
M  V30 6000 H 600.315 0.147085 4.25046 0
M  V30 6001 N 598.631 -1.53133 0.372548 0
M  V30 6002 C 599.561 -2.28876 -0.462412 0
M  V30 6003 C 600.542 -1.31583 -1.07796 0
M  V30 6004 O 601.727 -1.60461 -1.09389 0
M  V30 6005 C 598.857 -3.08317 -1.59868 0
M  V30 6006 C 597.811 -4.13355 -1.11003 0
M  V30 6007 C 597.137 -4.8092 -2.33708 0
M  V30 6008 C 598.437 -5.21955 -0.18983 0
M  V30 6009 H 600.131 -2.9892 0.169511 0
M  V30 6010 H 597.677 -1.43761 0.0829658 0
M  V30 6011 H 599.63 -3.60055 -2.18949 0
M  V30 6012 H 598.354 -2.35976 -2.25794 0
M  V30 6013 H 597.013 -3.62573 -0.541869 0
M  V30 6014 H 596.661 -4.05144 -2.98106 0
M  V30 6015 H 596.361 -5.51904 -2.01682 0
M  V30 6016 H 597.885 -5.35455 -2.93462 0
M  V30 6017 H 599.299 -5.69153 -0.688319 0
M  V30 6018 H 597.696 -6.00087 0.0398887 0
M  V30 6019 H 598.766 -4.78811 0.766057 0
M  V30 6020 N 600.109 -0.101901 -1.5727 0
M  V30 6021 C 601.039 0.851544 -2.17419 0
M  V30 6022 C 602.02 1.28942 -1.10941 0
M  V30 6023 O 603.205 1.35509 -1.39107 0
M  V30 6024 C 600.335 2.10816 -2.75996 0
M  V30 6025 C 599.289 1.80867 -3.87906 0
M  V30 6026 C 598.615 3.13413 -4.33216 0
M  V30 6027 C 599.915 1.0903 -5.10793 0
M  V30 6028 H 601.609 0.350381 -2.97343 0
M  V30 6029 H 599.155 0.16709 -1.43027 0
M  V30 6030 H 601.108 2.77959 -3.16729 0
M  V30 6031 H 599.832 2.63227 -1.93337 0
M  V30 6032 H 598.491 1.16119 -3.47724 0
M  V30 6033 H 598.139 3.63725 -3.47438 0
M  V30 6034 H 597.839 2.94155 -5.08671 0
M  V30 6035 H 599.363 3.81704 -4.76586 0
M  V30 6036 H 600.777 1.66295 -5.48652 0
M  V30 6037 H 599.174 0.99927 -5.91722 0
M  V30 6038 H 600.244 0.0741704 -4.84843 0
M  V30 6039 N 601.587 1.56661 0.17182 0
M  V30 6040 C 602.834 1.81965 0.888529 0
M  V30 6041 C 603.162 0.6789 1.82267 0
M  V30 6042 O 602.417 -0.333875 1.92831 0
M  V30 6043 C 602.716 3.13435 1.71736 0
M  V30 6044 C 602.382 4.41159 0.932184 0
M  V30 6045 C 601.044 4.75851 0.715481 0
M  V30 6046 C 603.396 5.19803 0.381387 0
M  V30 6047 C 600.724 5.86666 -0.063126 0
M  V30 6048 C 603.076 6.31433 -0.384129 0
M  V30 6049 C 601.74 6.64692 -0.611637 0
M  V30 6050 H 601.01 0.665859 0.325136 0
M  V30 6051 H 603.657 1.90884 0.153495 0
M  V30 6052 H 601.962 2.99857 2.52177 0
M  V30 6053 H 603.659 3.30224 2.27493 0
M  V30 6054 H 600.249 4.13947 1.11112 0
M  V30 6055 H 604.433 4.93396 0.536148 0
M  V30 6056 H 599.689 6.10892 -0.249136 0
M  V30 6057 H 603.863 6.91577 -0.818185 0
M  V30 6058 H 601.49 7.50398 -1.21684 0
M  V30 6059 N 603.065 -0.440357 1.51323 0
M  V30 6060 C 604.015 -1.53263 1.68803 0
M  V30 6061 C 604.999 -1.51494 0.542057 0
M  V30 6062 O 606.191 -1.57999 0.797839 0
M  V30 6063 C 603.32 -2.91479 1.8137 0
M  V30 6064 C 602.406 -2.98015 3.01742 0
M  V30 6065 N 602.797 -2.743 4.24962 0
M  V30 6066 C 601.095 -3.29173 3.00934 0
M  V30 6067 C 601.796 -2.86601 5.06197 0
M  V30 6068 N 600.772 -3.1814 4.40781 0
M  V30 6069 H 604.574 -1.33675 2.61741 0
M  V30 6070 H 602.088 -0.647616 1.48929 0
M  V30 6071 H 604.085 -3.70055 1.92002 0
M  V30 6072 H 602.745 -3.12089 0.896117 0
M  V30 6073 H 603.756 -2.49287 4.53957 0
M  V30 6074 H 600.433 -3.55577 2.18796 0
M  V30 6075 H 601.823 -2.72246 6.14274 0
M  V30 6076 N 604.543 -1.41418 -0.695603 0
M  V30 6077 C 605.491 -1.43467 -1.83084 0
M  V30 6078 C 606.485 -0.312719 -1.66489 0
M  V30 6079 O 607.691 -0.484744 -1.7335 0
M  V30 6080 H 604.066 -0.448891 -0.603325 0
M  V30 6081 H 606.037 -2.39144 -1.78473 0
M  V30 6082 C 604.786 -1.3337 -3.21104 0
M  V30 6083 H 604.109 -2.18989 -3.3449 0
M  V30 6084 H 605.549 -1.38865 -4.00615 0
M  V30 6085 C 604.008 -0.0460484 -3.36869 0
M  V30 6086 O 604.538 0.909258 -3.91274 0
M  V30 6087 N 602.744 0.0300222 -2.90584 0
M  V30 6088 H 602.291 -0.748129 -2.46497 0
M  V30 6089 H 602.249 0.890991 -3.01511 0
M  V30 6090 N 606.021 0.929856 -1.27246 0
M  V30 6091 C 607.269 1.674 -1.13233 0
M  V30 6092 C 607.59 1.92311 0.322744 0
M  V30 6093 O 606.86 1.52784 1.22612 0
M  V30 6094 H 605.44 0.620411 -0.416052 0
M  V30 6095 H 608.102 1.11663 -1.59741 0
M  V30 6096 H 607.198 2.64308 -1.65975 0
M  V30 6097 N 607.499 1.09233 1.13605 0
M  V30 6098 C 608.776 0.739633 1.81077 0
M  V30 6099 C 609.156 -0.775595 1.96336 0
M  V30 6100 O 608.504 -1.69726 1.52988 0
M  V30 6101 C 608.714 1.47636 3.16235 0
M  V30 6102 C 610.062 1.64087 3.91613 0
M  V30 6103 O 611.086 1.43871 3.25852 0
M  V30 6104 O 609.945 1.97511 5.0956 0
M  V30 6105 H 607.039 0.265464 0.783236 0
M  V30 6106 H 609.585 1.19441 1.20549 0
M  V30 6107 H 608.357 2.50818 3.00344 0
M  V30 6108 H 607.98 1.01362 3.84462 0
M  V30 6109 N 608.977 -1.30795 0.87923 0
M  V30 6110 C 609.925 -2.30231 0.331112 0
M  V30 6111 C 610.919 -1.59918 -0.558794 0
M  V30 6112 O 612.125 -1.74441 -0.443866 0
M  V30 6113 H 608.5 -0.746785 0.088409 0
M  V30 6114 H 610.471 -2.73925 1.18353 0
M  V30 6115 C 609.22 -3.44848 -0.444401 0
M  V30 6116 H 608.543 -3.99131 0.231106 0
M  V30 6117 H 609.983 -4.16516 -0.793109 0
M  V30 6118 C 608.442 -2.94329 -1.63926 0
M  V30 6119 O 608.972 -2.93875 -2.73862 0
M  V30 6120 N 607.178 -2.50413 -1.4745 0
M  V30 6121 H 606.725 -2.50982 -0.58015 0
M  V30 6122 H 606.683 -2.16969 -2.27534 0
M  V30 6123 N 610.455 -0.639598 -1.44038 0
M  V30 6124 C 611.703 -0.147188 -2.01563 0
M  V30 6125 C 612.024 1.2384 -1.50628 0
M  V30 6126 O 611.294 1.82452 -0.713316 0
M  V30 6127 H 609.874 -0.0514231 -0.745228 0
M  V30 6128 H 612.536 -0.828205 -1.76428 0
M  V30 6129 H 611.632 -0.121358 -3.11864 0
M  V30 6130 N 611.933 1.52934 -0.380664 0
M  V30 6131 C 613.344 1.86457 0.0952684 0
M  V30 6132 C 613.695 1.3007 1.46889 0
M  V30 6133 O 612.82 0.628636 2.07068 0
M  V30 6134 C 613.415 3.38323 0.179648 0
M  V30 6135 C 611.974 3.71589 0.599858 0
M  V30 6136 C 611.121 2.76228 -0.243572 0
M  V30 6137 H 614.072 1.46966 -0.59888 0
M  V30 6138 H 614.093 3.67113 1.00042 0
M  V30 6139 H 613.605 3.79333 -0.820228 0
M  V30 6140 H 611.706 3.36144 1.60742 0
M  V30 6141 H 611.819 4.77715 0.364003 0
M  V30 6142 H 610.183 2.53045 0.289855 0
M  V30 6143 H 610.966 3.20074 -1.24127 0
M  V30 6144 N 613.412 0.11024 1.57214 0
M  V30 6145 C 614.375 -0.828808 2.1369 0
M  V30 6146 C 615.375 -1.20059 1.06969 0
M  V30 6147 O 616.565 -1.12754 1.32786 0
M  V30 6148 C 613.697 -2.11959 2.66994 0
M  V30 6149 H 614.89 -0.338146 2.97988 0
M  V30 6150 H 612.443 -0.138913 1.55681 0
M  V30 6151 H 613.178 -2.65476 1.8626 0
M  V30 6152 H 612.963 -1.86258 3.45037 0
M  V30 6153 H 614.453 -2.79105 3.10629 0
M  V30 6154 N 614.89 -1.56749 -0.16351 0
M  V30 6155 C 616.167 -1.73321 -0.906599 0
M  V30 6156 C 616.547 -0.673779 -2.00059 0
M  V30 6157 O 615.895 0.310121 -2.26386 0
M  V30 6158 C 616.105 -3.168 -1.46419 0
M  V30 6159 C 617.453 -3.77993 -1.93407 0
M  V30 6160 O 618.477 -3.20127 -1.56196 0
M  V30 6161 O 617.336 -4.79615 -2.61976 0
M  V30 6162 H 614.43 -0.708073 -0.427272 0
M  V30 6163 H 616.976 -1.69029 -0.150727 0
M  V30 6164 H 615.748 -3.85396 -0.677189 0
M  V30 6165 H 615.371 -3.2545 -2.28403 0
M  V30 6166 N 616.368 0.432326 -1.51554 0
M  V30 6167 C 617.3 1.54357 -1.6943 0
M  V30 6168 C 618.313 1.52311 -0.574897 0
M  V30 6169 O 619.502 1.56997 -0.849369 0
M  V30 6170 C 616.602 2.93273 -1.69836 0
M  V30 6171 C 615.775 3.19768 -2.98442 0
M  V30 6172 C 614.834 4.38433 -2.90969 0
M  V30 6173 O 613.86 4.36842 -3.64908 0
M  V30 6174 N 615.062 5.42276 -2.07163 0
M  V30 6175 H 617.827 1.39426 -2.65293 0
M  V30 6176 H 615.388 0.621331 -1.49503 0
M  V30 6177 H 617.38 3.70687 -1.62399 0
M  V30 6178 H 615.95 3.01777 -0.815456 0
M  V30 6179 H 615.17 2.30607 -3.19709 0
M  V30 6180 H 616.458 3.343 -3.83563 0
M  V30 6181 H 615.856 5.46407 -1.46477 0
M  V30 6182 H 614.413 6.18524 -2.05601 0
M  V30 6183 N 617.846 1.41785 0.688094 0
M  V30 6184 C 619.262 1.24419 0.999608 0
M  V30 6185 C 619.462 0.138868 2.01021 0
M  V30 6186 O 618.518 -0.494283 2.47615 0
M  V30 6187 C 619.831 2.59625 1.51709 0
M  V30 6188 C 621.379 2.66869 1.63554 0
M  V30 6189 C 621.854 4.0241 2.18702 0
M  V30 6190 N 623.345 4.04295 2.26053 0
M  V30 6191 C 624.08 5.05977 2.69768 0
M  V30 6192 N 623.576 6.18047 3.13033 0
M  V30 6193 N 625.369 4.93336 2.69398 0
M  V30 6194 H 617.52 2.12392 0.0187427 0
M  V30 6195 H 619.783 0.945347 0.0708673 0
M  V30 6196 H 619.489 3.41297 0.849059 0
M  V30 6197 H 619.363 2.82628 2.49803 0
M  V30 6198 H 621.75 1.8555 2.29467 0
M  V30 6199 H 621.831 2.47668 0.639857 0
M  V30 6200 H 621.475 4.8418 1.53402 0
M  V30 6201 H 621.405 4.18955 3.19037 0
M  V30 6202 H 623.896 3.23383 1.9553 0
M  V30 6203 H 624.209 6.91498 3.45038 0
M  V30 6204 H 622.554 6.21572 3.10923 0
M  V30 6205 H 625.745 4.04865 2.34952 0
M  V30 6206 H 625.918 5.72717 3.03148 0
M  V30 6207 N 619.324 -0.923095 1.27737 0
M  V30 6208 C 620.735 -1.48626 1.12993 0
M  V30 6209 C 621.086 -1.94142 -0.283439 0
M  V30 6210 O 620.211 -1.81605 -1.17681 0
M  V30 6211 C 620.806 -2.70117 2.04505 0
M  V30 6212 C 619.365 -3.22642 1.93853 0
M  V30 6213 C 618.512 -1.95368 1.96791 0
M  V30 6214 H 621.463 -0.736737 1.40563 0
M  V30 6215 H 621.484 -3.4506 1.60356 0
M  V30 6216 H 620.996 -2.36959 3.07363 0
M  V30 6217 H 619.097 -3.60549 0.939968 0
M  V30 6218 H 619.21 -3.88525 2.80331 0
M  V30 6219 H 617.574 -2.12061 1.41076 0
M  V30 6220 H 618.357 -1.64517 3.01312 0
M  V30 6221 N 620.802 -1.09834 -1.13024 0
M  V30 6222 C 622.051 -0.831806 -1.83749 0
M  V30 6223 C 622.364 0.644763 -1.84668 0
M  V30 6224 O 623.57 1.02697 -2.51327 0
M  V30 6225 C 622.026 -1.43817 -3.29916 0
M  V30 6226 C 621.634 -2.94759 -3.37374 0
M  V30 6227 C 623.378 -1.25077 -4.05655 0
M  V30 6228 C 621.285 -3.48461 -4.77838 0
M  V30 6229 H 620.215 -0.30751 -0.688443 0
M  V30 6230 H 622.866 -1.32156 -1.27307 0
M  V30 6231 H 621.248 -0.876106 -3.86187 0
M  V30 6232 H 622.422 -3.57228 -2.91076 0
M  V30 6233 H 620.737 -3.12581 -2.75103 0
M  V30 6234 H 623.334 -1.62649 -5.09362 0
M  V30 6235 H 623.677 -0.191782 -4.15858 0
M  V30 6236 H 624.21 -1.78057 -3.55725 0
M  V30 6237 H 620.949 -4.53998 -4.72828 0
M  V30 6238 H 620.469 -2.90757 -5.24615 0
M  V30 6239 H 622.148 -3.45914 -5.46766 0
M  V30 6240 N 622.28 1.30327 -0.886154 0
M  V30 6241 C 623.23 2.25668 -0.325248 0
M  V30 6242 C 624.214 1.51318 0.546972 0
M  V30 6243 O 625.406 1.72623 0.391203 0
M  V30 6244 C 622.535 3.40229 0.458167 0
M  V30 6245 C 621.621 4.21933 -0.428208 0
M  V30 6246 N 622.012 4.82129 -1.52921 0
M  V30 6247 C 620.31 4.45439 -0.223535 0
M  V30 6248 C 621.011 5.43351 -2.07714 0
M  V30 6249 N 619.987 5.26002 -1.37195 0
M  V30 6250 H 623.789 2.69759 -1.1665 0
M  V30 6251 H 621.303 1.4478 -0.735691 0
M  V30 6252 H 623.3 4.07579 0.876648 0
M  V30 6253 H 621.96 2.97678 1.29684 0
M  V30 6254 H 622.971 4.81312 -1.91205 0
M  V30 6255 H 619.648 4.13481 0.577875 0
M  V30 6256 H 621.038 6.01118 -3.00178 0
M  V30 6257 N 623.758 0.647228 1.43697 0
M  V30 6258 C 625.035 0.0883758 1.954 0
M  V30 6259 C 625.415 -1.39006 1.58873 0
M  V30 6260 O 624.763 -2.11255 0.87083 0
M  V30 6261 C 624.973 0.328263 3.47453 0
M  V30 6262 C 626.321 0.230009 4.23977 0
M  V30 6263 O 627.345 0.260496 3.55246 0
M  V30 6264 O 626.204 0.148615 5.46298 0
M  V30 6265 H 623.298 -0.0130683 0.826897 0
M  V30 6266 H 625.844 0.72005 1.53666 0
M  V30 6267 H 624.616 1.3535 3.67146 0
M  V30 6268 H 624.239 -0.336772 3.96171 0
M  V30 6269 N 625.236 -1.5273 0.388769 0
M  V30 6270 C 626.652 -1.59553 0.0387049 0
M  V30 6271 C 626.852 -1.40278 -1.44652 0
M  V30 6272 O 625.908 -1.21951 -2.21098 0
M  V30 6273 C 627.221 -2.9625 0.515409 0
M  V30 6274 C 628.769 -3.09426 0.471621 0
M  V30 6275 C 629.244 -4.48572 0.924505 0
M  V30 6276 N 630.735 -4.54754 0.880496 0
M  V30 6277 C 631.47 -5.60653 1.20234 0
M  V30 6278 N 630.966 -6.74198 1.59463 0
M  V30 6279 N 632.759 -5.50755 1.12363 0
M  V30 6280 H 624.91 -1.63508 1.35569 0
M  V30 6281 H 627.173 -0.768097 0.555636 0
M  V30 6282 H 626.879 -3.15569 1.5527 0
M  V30 6283 H 626.753 -3.77102 -0.085792 0
M  V30 6284 H 629.14 -2.89804 -0.556588 0
M  V30 6285 H 629.221 -2.30528 1.10862 0
M  V30 6286 H 628.865 -4.68936 1.95094 0
M  V30 6287 H 628.795 -5.25935 0.264524 0
M  V30 6288 H 631.286 -3.73237 0.591815 0
M  V30 6289 H 631.599 -7.5097 1.82385 0
M  V30 6290 H 629.944 -6.75531 1.63349 0
M  V30 6291 H 633.135 -4.6093 0.816169 0
M  V30 6292 H 633.308 -6.33184 1.37777 0
M  V30 6293 N 626.714 -0.118576 -1.57153 0
M  V30 6294 C 627.991 0.583062 -1.86708 0
M  V30 6295 C 628.371 1.84841 -1.01967 0
M  V30 6296 O 627.719 2.28288 -0.0984673 0
M  V30 6297 C 627.929 0.875912 -3.3783 0
M  V30 6298 C 629.277 1.22916 -4.0642 0
M  V30 6299 O 630.301 0.966188 -3.42846 0
M  V30 6300 O 629.16 1.72269 -5.18638 0
M  V30 6301 H 626.254 0.294185 -0.772906 0
M  V30 6302 H 628.8 -0.153048 -1.69008 0
M  V30 6303 H 627.572 -0.0207776 -3.91294 0
M  V30 6304 H 627.195 1.66719 -3.60958 0
M  V30 6305 N 628.193 1.56834 0.155195 0
M  V30 6306 C 629.47 1.73799 0.897395 0
M  V30 6307 C 629.85 0.684379 1.99698 0
M  V30 6308 O 629.198 -0.298111 2.26547 0
M  V30 6309 C 629.408 3.17572 1.44737 0
M  V30 6310 C 630.756 3.79014 1.91399 0
M  V30 6311 O 631.78 3.20951 1.54496 0
M  V30 6312 O 630.639 4.80998 2.59429 0
M  V30 6313 H 627.733 0.710329 0.423511 0
M  V30 6314 H 630.279 1.69107 0.141761 0
M  V30 6315 H 629.051 3.85749 0.656741 0
M  V30 6316 H 628.674 3.26657 2.26674 0
M  V30 6317 N 629.671 -0.424282 1.51781 0
M  V30 6318 C 630.917 -1.17434 1.6534 0
M  V30 6319 C 631.25 -1.90549 0.374806 0
M  V30 6320 O 630.525 -1.84145 -0.626179 0
M  V30 6321 C 630.808 -2.18093 2.86544 0
M  V30 6322 C 630.661 -1.48975 4.24413 0
M  V30 6323 C 631.98 -3.18934 3.03264 0
M  V30 6324 H 629.099 -0.425566 0.601716 0
M  V30 6325 H 631.741 -0.461921 1.84299 0
M  V30 6326 H 629.891 -2.78849 2.7051 0
M  V30 6327 H 631.563 -0.914551 4.52143 0
M  V30 6328 H 629.806 -0.791893 4.26511 0
M  V30 6329 H 630.477 -2.22347 5.05238 0
M  V30 6330 H 632.953 -2.68243 3.18096 0
M  V30 6331 H 631.829 -3.86645 3.89611 0
M  V30 6332 H 632.09 -3.85793 2.15908 0
M  V30 6333 N 631.149 -1.42148 -0.680565 0
M  V30 6334 C 632.079 -1.4796 -1.80638 0
M  V30 6335 C 633.06 -0.336728 -1.66734 0
M  V30 6336 O 634.245 -0.550247 -1.86242 0
M  V30 6337 C 631.375 -1.37569 -3.18892 0
M  V30 6338 C 630.329 -2.49823 -3.47524 0
M  V30 6339 C 629.655 -2.24491 -4.85291 0
M  V30 6340 C 630.955 -3.92144 -3.44994 0
M  V30 6341 H 632.649 -2.42184 -1.76032 0
M  V30 6342 H 630.195 -1.16566 -0.845481 0
M  V30 6343 H 632.148 -1.40243 -3.97379 0
M  V30 6344 H 630.872 -0.398357 -3.24162 0
M  V30 6345 H 629.531 -2.46455 -2.71395 0
M  V30 6346 H 629.179 -1.25066 -4.87204 0
M  V30 6347 H 628.879 -2.99722 -5.05411 0
M  V30 6348 H 630.403 -2.28906 -5.66069 0
M  V30 6349 H 631.817 -3.97145 -4.13459 0
M  V30 6350 H 630.214 -4.67179 -3.76648 0
M  V30 6351 H 631.284 -4.19225 -2.43676 0
M  V30 6352 N 632.627 0.916307 -1.28225 0
M  V30 6353 C 633.867 1.67964 -1.16479 0
M  V30 6354 C 634.231 1.8991 0.282494 0
M  V30 6355 O 635.432 2.63671 0.522607 0
M  V30 6356 C 633.703 3.00251 -1.93866 0
M  V30 6357 S 635.262 3.91353 -1.98465 0
M  V30 6358 H 632.08 0.576873 -0.415619 0
M  V30 6359 H 634.682 1.09006 -1.62289 0
M  V30 6360 H 633.386 2.81978 -2.98189 0
M  V30 6361 H 632.917 3.64257 -1.48595 0
M  V30 6362 H 634.932 4.84096 -1.0893 0
M  V30 6363 N 634.105 1.10431 1.1244 0
M  V30 6364 C 635.335 0.867612 1.87499 0
M  V30 6365 C 635.743 -0.585475 1.79913 0
M  V30 6366 O 635.086 -1.41539 1.171 0
M  V30 6367 C 635.148 1.2374 3.37533 0
M  V30 6368 C 634.812 2.69751 3.68895 0
M  V30 6369 C 635.809 3.67988 3.67261 0
M  V30 6370 C 633.494 3.06135 3.98229 0
M  V30 6371 C 635.488 5.00632 3.9452 0
M  V30 6372 C 633.175 4.38967 4.25149 0
M  V30 6373 C 634.173 5.36025 4.23281 0
M  V30 6374 O 633.861 6.66465 4.49533 0
M  V30 6375 H 633.593 0.311196 0.600111 0
M  V30 6376 H 636.147 1.47257 1.43194 0
M  V30 6377 H 634.377 0.575537 3.82393 0
M  V30 6378 H 636.066 0.978187 3.93937 0
M  V30 6379 H 636.832 3.41224 3.44661 0
M  V30 6380 H 632.711 2.31214 3.98825 0
M  V30 6381 H 636.255 5.7638 3.92978 0
M  V30 6382 H 632.152 4.6547 4.47223 0
M  V30 6383 H 632.92 6.72095 4.67152 0
M  V30 6384 N 635.583 -1.29855 0.893053 0
M  V30 6385 C 636.808 -2.00512 0.530066 0
M  V30 6386 C 637.233 -1.66446 -0.876199 0
M  V30 6387 O 636.591 -0.885446 -1.58207 0
M  V30 6388 C 636.639 -3.53308 0.721505 0
M  V30 6389 O 635.743 -4.11764 -0.228994 0
M  V30 6390 H 635.084 -0.630617 0.207891 0
M  V30 6391 H 637.614 -1.6551 1.20282 0
M  V30 6392 H 637.624 -4.03206 0.623599 0
M  V30 6393 H 636.299 -3.77439 1.74678 0
M  V30 6394 H 634.876 -3.72805 -0.0841034 0
M  V30 6395 N 637.061 -0.65484 -1.43351 0
M  V30 6396 C 638.289 -0.176685 -2.06144 0
M  V30 6397 C 638.704 1.15831 -1.49093 0
M  V30 6398 O 638.061 1.71542 -0.622868 0
M  V30 6399 C 638.112 -0.0813326 -3.61408 0
M  V30 6400 O 637.833 -1.36355 -4.1634 0
M  V30 6401 C 639.334 0.422706 -4.4128 0
M  V30 6402 H 636.554 -0.0906429 -0.66485 0
M  V30 6403 H 639.098 -0.895945 -1.83829 0
M  V30 6404 H 637.253 0.588496 -3.82904 0
M  V30 6405 H 637.667 -1.22381 -5.10023 0
M  V30 6406 H 639.141 0.438375 -5.50257 0
M  V30 6407 H 639.618 1.45432 -4.14423 0
M  V30 6408 H 640.224 -0.214687 -4.24758 0
M  V30 6409 N 638.539 1.52521 -0.396863 0
M  V30 6410 C 639.449 2.30403 0.44178 0
M  V30 6411 C 640.465 1.37625 1.06468 0
M  V30 6412 O 641.641 1.70697 1.06886 0
M  V30 6413 C 638.706 3.1013 1.54986 0
M  V30 6414 C 637.767 4.18628 0.951279 0
M  V30 6415 C 637 4.94543 2.00655 0
M  V30 6416 O 637.223 4.70629 3.22281 0
M  V30 6417 O 636.157 5.797 1.61962 0
M  V30 6418 H 639.983 3.03087 -0.192892 0
M  V30 6419 H 637.568 1.48537 -0.16038 0
M  V30 6420 H 639.45 3.59816 2.19341 0
M  V30 6421 H 638.125 2.40251 2.16935 0
M  V30 6422 H 637.032 3.73119 0.270773 0
M  V30 6423 H 638.365 4.90763 0.375887 0
M  V30 6424 N 640.017 0.126909 1.57088 0
M  V30 6425 C 641.263 -0.529952 1.95753 0
M  V30 6426 C 641.596 -1.65823 1.01077 0
M  V30 6427 O 640.871 -1.94437 0.0494162 0
M  V30 6428 C 641.154 -1.05517 3.44294 0
M  V30 6429 C 641.007 0.0702253 4.49745 0
M  V30 6430 C 642.326 -1.9435 3.94862 0
M  V30 6431 H 639.445 -0.191168 0.711775 0
M  V30 6432 H 642.087 0.204071 1.88901 0
M  V30 6433 H 640.237 -1.68069 3.50264 0
M  V30 6434 H 641.909 0.705834 4.55868 0
M  V30 6435 H 640.152 0.732259 4.27575 0
M  V30 6436 H 640.823 -0.338642 5.5096 0
M  V30 6437 H 643.299 -1.41658 3.91244 0
M  V30 6438 H 642.175 -2.28015 4.993 0
M  V30 6439 H 642.436 -2.87299 3.36024 0
M  V30 6440 N 641.495 -1.56914 -0.146875 0
M  V30 6441 C 642.425 -2.01308 -1.1831 0
M  V30 6442 C 643.406 -0.892664 -1.44795 0
M  V30 6443 O 644.591 -1.16048 -1.55713 0
M  V30 6444 C 641.721 -2.3938 -2.51624 0
M  V30 6445 C 640.675 -3.54608 -2.3966 0
M  V30 6446 C 640.001 -3.78493 -3.77686 0
M  V30 6447 C 641.301 -4.87269 -1.88058 0
M  V30 6448 H 642.995 -2.88123 -0.813964 0
M  V30 6449 H 640.541 -1.38615 -0.3901 0
M  V30 6450 H 642.494 -2.69037 -3.24341 0
M  V30 6451 H 641.218 -1.49502 -2.90373 0
M  V30 6452 H 639.877 -3.25116 -1.69396 0
M  V30 6453 H 639.525 -2.85866 -4.13871 0
M  V30 6454 H 639.225 -4.56039 -3.70543 0
M  V30 6455 H 640.749 -4.10576 -4.51951 0
M  V30 6456 H 642.163 -5.15644 -2.50568 0
M  V30 6457 H 640.56 -5.68622 -1.91805 0
M  V30 6458 H 641.63 -4.77634 -0.836277 0
M  V30 6459 N 642.974 0.416227 -1.52004 0
M  V30 6460 C 644.202 1.18573 -1.69553 0
M  V30 6461 C 644.617 1.84472 -0.401919 0
M  V30 6462 O 643.974 1.71593 0.621463 0
M  V30 6463 C 644.025 2.25413 -2.82615 0
M  V30 6464 O 643.746 1.62205 -4.06966 0
M  V30 6465 C 645.247 3.15297 -3.11613 0
M  V30 6466 H 642.467 0.356582 -0.56841 0
M  V30 6467 H 645.011 0.490618 -1.98528 0
M  V30 6468 H 643.166 2.90604 -2.56179 0
M  V30 6469 H 643.58 2.3298 -4.69916 0
M  V30 6470 H 645.054 3.86351 -3.94255 0
M  V30 6471 H 645.531 3.77264 -2.24874 0
M  V30 6472 H 646.137 2.55783 -3.39787 0
M  V30 6473 N 644.452 1.42507 0.673017 0
M  V30 6474 C 645.729 1.33554 1.42908 0
M  V30 6475 C 646.109 -0.0262211 2.11084 0
M  V30 6476 O 645.457 -1.04181 2.03368 0
M  V30 6477 C 645.667 2.50498 2.43006 0
M  V30 6478 C 647.015 2.92694 3.07596 0
M  V30 6479 O 648.039 2.50401 2.53333 0
M  V30 6480 O 646.898 3.65899 4.05931 0
M  V30 6481 H 643.992 0.526785 0.637516 0
M  V30 6482 H 646.538 1.54518 0.701591 0
M  V30 6483 H 645.31 3.41272 1.9144 0
M  V30 6484 H 644.933 2.3153 3.23233 0
M  V30 6485 N 645.93 -0.909495 1.28709 0
M  V30 6486 C 647.341 -1.47419 1.14563 0
M  V30 6487 C 647.692 -1.94432 -0.262832 0
M  V30 6488 O 646.817 -1.82842 -1.15748 0
M  V30 6489 C 647.412 -2.67933 2.07358 0
M  V30 6490 C 645.971 -3.20568 1.97264 0
M  V30 6491 C 645.118 -1.93269 1.98852 0
M  V30 6492 H 648.069 -0.721787 1.41336 0
M  V30 6493 H 648.09 -3.43339 1.64007 0
M  V30 6494 H 647.602 -2.33685 3.09859 0
M  V30 6495 H 645.703 -3.59531 0.978157 0
M  V30 6496 H 645.816 -3.85529 2.84436 0
M  V30 6497 H 644.18 -2.10553 1.43317 0
M  V30 6498 H 644.963 -1.61312 3.0304 0
M  V30 6499 N 647.408 -1.11026 -1.11852 0
M  V30 6500 C 648.654 -0.857729 -1.83768 0
M  V30 6501 C 648.987 0.615143 -1.842 0
M  V30 6502 O 648.262 1.45391 -1.29196 0
M  V30 6503 C 648.545 -1.41453 -3.31154 0
M  V30 6504 C 648.398 -2.95471 -3.39142 0
M  V30 6505 C 649.717 -1.0619 -4.27097 0
M  V30 6506 H 646.836 -0.313044 -0.667212 0
M  V30 6507 H 649.478 -1.37443 -1.31185 0
M  V30 6508 H 647.628 -0.975052 -3.76065 0
M  V30 6509 H 649.3 -3.4799 -3.02821 0
M  V30 6510 H 647.543 -3.31759 -2.79497 0
M  V30 6511 H 648.214 -3.29515 -4.42859 0
M  V30 6512 H 650.69 -1.44122 -3.90344 0
M  V30 6513 H 649.566 -1.47832 -5.28618 0
M  V30 6514 H 649.827 0.0278912 -4.42091 0
M  V30 6515 N 648.886 1.2938 -0.899927 0
M  V30 6516 C 649.796 2.31462 -0.382437 0
M  V30 6517 C 650.812 1.65956 0.522929 0
M  V30 6518 O 651.988 1.97131 0.412454 0
M  V30 6519 C 649.053 3.44595 0.381472 0
M  V30 6520 C 648.114 4.25692 -0.555444 0
M  V30 6521 C 647.347 5.33422 0.172102 0
M  V30 6522 O 647.57 5.53053 1.396 0
M  V30 6523 O 646.504 5.99939 -0.485491 0
M  V30 6524 H 650.33 2.77706 -1.22934 0
M  V30 6525 H 647.915 1.33821 -0.664259 0
M  V30 6526 H 649.797 4.13474 0.813442 0
M  V30 6527 H 648.472 3.00458 1.20443 0
M  V30 6528 H 647.379 3.59453 -1.03653 0
M  V30 6529 H 648.712 4.73471 -1.34483 0
M  V30 6530 N 650.364 0.662433 1.43002 0
M  V30 6531 C 651.61 0.179857 2.02001 0
M  V30 6532 C 651.943 -1.20625 1.52195 0
M  V30 6533 O 651.218 -1.80726 0.718911 0
M  V30 6534 C 651.501 0.200845 3.59539 0
M  V30 6535 C 651.354 1.62153 4.19555 0
M  V30 6536 C 652.673 -0.457738 4.37713 0
M  V30 6537 H 649.792 0.0668305 0.733964 0
M  V30 6538 H 652.434 0.84487 1.70182 0
M  V30 6539 H 650.584 -0.365411 3.86778 0
M  V30 6540 H 652.256 2.23908 4.03315 0
M  V30 6541 H 650.499 2.16601 3.75854 0
M  V30 6542 H 651.17 1.58799 5.28665 0
M  V30 6543 H 653.646 0.0241495 4.16093 0
M  V30 6544 H 652.522 -0.412363 5.47349 0
M  V30 6545 H 652.783 -1.53336 4.14657 0
M  V30 6546 N 651.842 -1.52309 0.404946 0
M  V30 6547 C 653.07 -2.06185 -0.171818 0
M  V30 6548 C 653.485 -1.27536 -1.39212 0
M  V30 6549 O 652.842 -0.326112 -1.79563 0
M  V30 6550 C 652.893 -3.57647 -0.526417 0
M  V30 6551 O 652.614 -4.3332 0.645417 0
M  V30 6552 C 654.115 -4.27925 -1.15736 0
M  V30 6553 H 651.335 -0.670632 -0.0222328 0
M  V30 6554 H 653.879 -1.96259 0.574692 0
M  V30 6555 H 652.034 -3.67595 -1.22282 0
M  V30 6556 H 652.448 -5.23328 0.35042 0
M  V30 6557 H 653.922 -5.35093 -1.35572 0
M  V30 6558 H 654.399 -3.84134 -2.12926 0
M  V30 6559 H 655.005 -4.22335 -0.501281 0
M  V30 6560 N 653.32 -0.135238 -1.57019 0
M  V30 6561 C 654.568 0.51777 -1.95355 0
M  V30 6562 C 654.889 1.6617 -1.02042 0
M  V30 6563 O 654.159 1.95738 -0.0797343 0
M  V30 6564 H 652.739 0.194264 -0.721298 0
M  V30 6565 H 655.401 -0.207983 -1.93787 0
M  V30 6566 H 654.497 0.901675 -2.98791 0
M  V30 6567 N 654.798 1.5699 0.138552 0
M  V30 6568 C 656.026 1.87976 0.864437 0
M  V30 6569 C 656.441 0.724372 1.74351 0
M  V30 6570 O 655.798 -0.305575 1.79924 0
M  V30 6571 C 655.849 3.18276 1.71414 0
M  V30 6572 O 655.57 4.29365 0.870487 0
M  V30 6573 C 657.071 3.62834 2.54688 0
M  V30 6574 H 654.291 0.622878 0.249528 0
M  V30 6575 H 656.835 2.04094 0.128805 0
M  V30 6576 H 654.99 3.03886 2.40274 0
M  V30 6577 H 655.404 5.03924 1.45466 0
M  V30 6578 H 656.878 4.5682 3.0987 0
M  V30 6579 H 657.355 2.88533 3.31127 0
M  V30 6580 H 657.961 3.79946 1.91105 0
M  V30 6581 N 656.276 -0.40816 1.52223 0
M  V30 6582 C 657.522 -1.15673 1.66576 0
M  V30 6583 C 657.855 -1.90141 0.394996 0
M  V30 6584 O 657.13 -1.84798 -0.606613 0
M  V30 6585 C 657.413 -2.15042 2.88841 0
M  V30 6586 C 657.266 -1.44465 4.25969 0
M  V30 6587 C 658.585 -3.15699 3.0663 0
M  V30 6588 H 655.704 -0.41916 0.606196 0
M  V30 6589 H 658.346 -0.442348 1.84779 0
M  V30 6590 H 656.496 -2.75964 2.73452 0
M  V30 6591 H 658.168 -0.866544 4.53088 0
M  V30 6592 H 656.411 -0.746612 4.27327 0
M  V30 6593 H 657.082 -2.16976 5.07568 0
M  V30 6594 H 659.558 -2.64854 3.20923 0
M  V30 6595 H 658.434 -3.82491 3.9369 0
M  V30 6596 H 658.695 -3.83481 2.19987 0
M  V30 6597 N 657.755 -1.42862 -0.66545 0
M  V30 6598 C 658.98 -1.47456 -1.45848 0
M  V30 6599 C 659.405 -0.0900312 -1.87884 0
M  V30 6600 O 658.763 0.913587 -1.56599 0
M  V30 6601 C 658.811 -2.41514 -2.67774 0
M  V30 6602 O 657.915 -1.89296 -3.66389 0
M  V30 6603 H 657.256 -0.499236 -0.437789 0
M  V30 6604 H 659.786 -1.8765 -0.815394 0
M  V30 6605 H 659.796 -2.58409 -3.15735 0
M  V30 6606 H 658.471 -3.42099 -2.36519 0
M  V30 6607 H 657.048 -1.82003 -3.25468 0
M  V30 6608 N 659.233 0.902656 -1.29189 0
M  V30 6609 C 660.196 1.98797 -1.14071 0
M  V30 6610 C 661.196 1.60615 -0.0770549 0
M  V30 6611 O 662.386 1.71165 -0.323753 0
M  V30 6612 C 659.518 3.32688 -0.743739 0
M  V30 6613 H 660.711 2.13637 -2.10473 0
M  V30 6614 H 658.264 1.08678 -1.12334 0
M  V30 6615 H 658.999 3.23549 0.220554 0
M  V30 6616 H 658.784 3.61765 -1.51223 0
M  V30 6617 H 660.274 4.12337 -0.660935 0
M  V30 6618 N 660.711 1.11618 1.11262 0
M  V30 6619 C 662.127 0.850468 1.35053 0
M  V30 6620 C 662.327 -0.523868 1.94571 0
M  V30 6621 O 661.383 -1.2743 2.17986 0
M  V30 6622 C 662.696 1.96005 2.28041 0
M  V30 6623 C 664.244 1.98993 2.416 0
M  V30 6624 C 664.719 3.0916 3.37911 0
M  V30 6625 N 666.21 3.08547 3.45475 0
M  V30 6626 C 666.945 3.9043 4.19943 0
M  V30 6627 N 666.441 4.8228 4.97371 0
M  V30 6628 N 668.234 3.786 4.15474 0
M  V30 6629 H 660.385 2.00184 0.709932 0
M  V30 6630 H 662.648 0.870635 0.375099 0
M  V30 6631 H 662.354 2.9499 1.91503 0
M  V30 6632 H 662.228 1.85782 3.28275 0
M  V30 6633 H 664.615 1.00633 2.77411 0
M  V30 6634 H 664.696 2.13292 1.4121 0
M  V30 6635 H 664.34 4.07748 3.02827 0
M  V30 6636 H 664.27 2.92102 4.3816 0
M  V30 6637 H 666.761 2.42 2.90249 0
M  V30 6638 H 667.074 5.41289 5.51567 0
M  V30 6639 H 665.419 4.863 4.96525 0
M  V30 6640 H 668.61 3.06185 3.54074 0
M  V30 6641 H 668.783 4.42647 4.73253 0
M  V30 6642 N 662.189 -1.289 0.906776 0
M  V30 6643 C 663.119 -2.29932 0.406659 0
M  V30 6644 C 664.1 -1.6189 -0.522061 0
M  V30 6645 O 665.285 -1.8935 -0.431283 0
M  V30 6646 C 662.415 -3.45425 -0.360366 0
M  V30 6647 C 661.369 -4.25316 0.478574 0
M  V30 6648 C 660.695 -5.33076 -0.416373 0
M  V30 6649 C 661.995 -4.92739 1.7322 0
M  V30 6650 H 663.689 -2.72013 1.25097 0
M  V30 6651 H 661.235 -1.30768 0.602977 0
M  V30 6652 H 663.188 -4.15186 -0.721029 0
M  V30 6653 H 661.912 -3.02206 -1.23852 0
M  V30 6654 H 660.571 -3.57273 0.821662 0
M  V30 6655 H 660.219 -4.86101 -1.29287 0
M  V30 6656 H 659.919 -5.8743 0.141309 0
M  V30 6657 H 661.443 -6.05686 -0.773072 0
M  V30 6658 H 662.857 -5.54898 1.44086 0
M  V30 6659 H 661.254 -5.57057 2.23175 0
M  V30 6660 H 662.324 -4.17625 2.46408 0
M  V30 6661 N 663.667 -0.670007 -1.42649 0
M  V30 6662 C 664.914 -0.190286 -2.01604 0
M  V30 6663 C 665.242 1.20155 -1.52948 0
M  V30 6664 O 664.497 1.81964 -0.72026 0
M  V30 6665 C 664.796 -0.168298 -3.57004 0
M  V30 6666 C 664.462 -1.50415 -4.25072 0
M  V30 6667 C 663.124 -1.86992 -4.43382 0
M  V30 6668 C 665.476 -2.38414 -4.63474 0
M  V30 6669 C 662.804 -3.11203 -4.97363 0
M  V30 6670 C 665.156 -3.61933 -5.18833 0
M  V30 6671 C 663.82 -3.98685 -5.35356 0
M  V30 6672 H 663.09 -0.0696305 -0.737721 0
M  V30 6673 H 665.737 -0.864044 -1.70899 0
M  V30 6674 H 664.042 0.588958 -3.87348 0
M  V30 6675 H 665.739 0.22001 -4.00396 0
M  V30 6676 H 662.329 -1.20959 -4.11177 0
M  V30 6677 H 666.513 -2.11442 -4.49006 0
M  V30 6678 H 661.769 -3.39705 -5.08341 0
M  V30 6679 H 665.943 -4.30326 -5.47533 0
M  V30 6680 H 663.57 -4.95009 -5.76949 0
M  V30 6681 N 665.145 1.52092 -0.413018 0
M  V30 6682 C 666.391 2.02154 0.161737 0
M  V30 6683 C 666.724 1.29789 1.44459 0
M  V30 6684 O 665.999 0.405378 1.90229 0
M  V30 6685 C 666.282 3.5781 0.405463 0
M  V30 6686 C 666.135 4.40819 -0.894335 0
M  V30 6687 C 667.454 4.23821 1.18591 0
M  V30 6688 H 664.573 0.734769 0.0573077 0
M  V30 6689 H 667.215 1.81948 -0.547247 0
M  V30 6690 H 665.365 3.75158 1.0094 0
M  V30 6691 H 667.037 4.35175 -1.53039 0
M  V30 6692 H 665.28 4.06877 -1.50444 0
M  V30 6693 H 665.951 5.47819 -0.678144 0
M  V30 6694 H 668.427 4.10596 0.674573 0
M  V30 6695 H 667.303 5.32663 1.3252 0
M  V30 6696 H 667.564 3.83038 2.20758 0
M  V30 6697 N 666.623 0.143563 1.56945 0
M  V30 6698 C 667.848 -0.518701 2.00809 0
M  V30 6699 C 668.273 -1.5785 1.02298 0
M  V30 6700 O 667.631 -1.813 -0.0017839 0
M  V30 6701 C 667.679 -1.09929 3.43436 0
M  V30 6702 O 666.783 -2.21425 3.47915 0
M  V30 6703 H 666.124 -0.127215 0.6517 0
M  V30 6704 H 668.654 0.239283 2.03196 0
M  V30 6705 H 668.664 -1.4288 3.82164 0
M  V30 6706 H 667.339 -0.323162 4.14643 0
M  V30 6707 H 665.916 -1.89728 3.21026 0
M  V30 6708 N 668.101 -1.57061 -0.130224 0
M  V30 6709 C 669.326 -1.88802 -0.858409 0
M  V30 6710 C 669.751 -0.734353 -1.73173 0
M  V30 6711 O 669.109 0.315529 -1.78533 0
M  V30 6712 C 669.157 -3.19228 -1.67708 0
M  V30 6713 O 668.261 -3.04343 -2.78297 0
M  V30 6714 H 667.602 -0.619849 -0.238083 0
M  V30 6715 H 670.132 -2.04271 -0.115995 0
M  V30 6716 H 670.142 -3.51669 -2.06864 0
M  V30 6717 H 668.817 -4.02793 -1.0359 0
M  V30 6718 H 667.394 -2.83346 -2.42425 0
M  V30 6719 N 669.579 0.400081 -1.52437 0
M  V30 6720 C 670.804 1.17221 -1.71096 0
M  V30 6721 C 671.229 1.83269 -0.423565 0
M  V30 6722 O 670.587 1.70378 0.619751 0
M  V30 6723 C 670.635 2.20425 -2.85386 0
M  V30 6724 O 669.739 3.26769 -2.51586 0
M  V30 6725 H 669.08 0.341766 -0.569291 0
M  V30 6726 H 671.61 0.467772 -1.99181 0
M  V30 6727 H 671.62 2.64605 -3.10561 0
M  V30 6728 H 670.295 1.71737 -3.78786 0
M  V30 6729 H 668.872 2.87804 -2.37114 0
M  V30 6730 N 671.057 1.43213 0.657864 0
M  V30 6731 C 672.02 1.47687 1.75275 0
M  V30 6732 C 673.02 0.362179 1.56668 0
M  V30 6733 O 674.21 0.623734 1.62651 0
M  V30 6734 C 671.342 1.32497 3.14098 0
M  V30 6735 H 672.535 2.4519 1.7269 0
M  V30 6736 H 670.088 1.2991 0.869087 0
M  V30 6737 H 670.823 0.359831 3.22298 0
M  V30 6738 H 670.608 2.13299 3.29008 0
M  V30 6739 H 672.098 1.38549 3.93946 0
M  V30 6740 N 672.536 -0.895792 1.29666 0
M  V30 6741 C 673.782 -1.64908 1.18039 0
M  V30 6742 C 674.115 -1.9236 -0.266682 0
M  V30 6743 O 673.39 -1.53682 -1.19214 0
M  V30 6744 C 673.673 -2.99574 1.99819 0
M  V30 6745 C 673.526 -2.79163 3.52687 0
M  V30 6746 C 674.845 -4.00358 1.82761 0
M  V30 6747 H 671.964 -0.598437 0.430165 0
M  V30 6748 H 674.606 -1.03736 1.59182 0
M  V30 6749 H 672.756 -3.51786 1.64859 0
M  V30 6750 H 674.428 -2.33821 3.9765 0
M  V30 6751 H 672.671 -2.13871 3.77414 0
M  V30 6752 H 673.342 -3.74871 4.05186 0
M  V30 6753 H 675.818 -3.57268 2.13304 0
M  V30 6754 H 674.694 -4.92514 2.42325 0
M  V30 6755 H 674.955 -4.35096 0.783839 0
M  V30 6756 N 674.014 -1.12206 -1.10668 0
M  V30 6757 C 675.291 -0.787382 -1.79052 0
M  V30 6758 C 675.671 0.723267 -1.98323 0
M  V30 6759 O 675.019 1.6561 -1.57434 0
M  V30 6760 C 675.229 -1.55968 -3.1221 0
M  V30 6761 C 676.577 -1.74413 -3.87125 0
M  V30 6762 O 677.601 -1.5246 -3.21923 0
M  V30 6763 O 676.46 -2.10952 -5.04144 0
M  V30 6764 H 673.554 -0.286137 -0.775922 0
M  V30 6765 H 676.1 -1.22595 -1.1734 0
M  V30 6766 H 674.872 -2.58692 -2.93588 0
M  V30 6767 H 674.495 -1.1152 -3.8164 0
M  V30 6768 N 675.492 1.28418 -0.913599 0
M  V30 6769 C 676.72 1.99106 -0.562536 0
M  V30 6770 C 677.135 1.68273 0.856137 0
M  V30 6771 O 676.492 0.935401 1.56705 0
M  V30 6772 C 676.543 3.5338 -0.761903 0
M  V30 6773 O 676.264 3.83127 -2.12475 0
M  V30 6774 C 677.765 4.41328 -0.417651 0
M  V30 6775 H 674.985 0.635798 -0.214481 0
M  V30 6776 H 677.529 1.63618 -1.22676 0
M  V30 6777 H 675.684 3.8713 -0.144676 0
M  V30 6778 H 676.098 4.77763 -2.16431 0
M  V30 6779 H 677.572 5.48642 -0.607919 0
M  V30 6780 H 678.049 4.34422 0.646108 0
M  V30 6781 H 678.655 4.13074 -1.01241 0
M  V30 6782 N 676.97 0.677563 1.42291 0
M  V30 6783 C 678.247 0.129803 1.95169 0
M  V30 6784 C 678.627 -1.35605 1.61786 0
M  V30 6785 O 677.975 -2.09361 0.915444 0
M  V30 6786 C 678.185 0.401889 3.46678 0
M  V30 6787 C 679.533 0.319889 4.23393 0
M  V30 6788 O 680.557 0.33579 3.54614 0
M  V30 6789 O 679.416 0.264459 5.4586 0
M  V30 6790 H 676.51 0.00447433 0.826988 0
M  V30 6791 H 679.056 0.752483 1.52105 0
M  V30 6792 H 677.828 1.43108 3.64192 0
M  V30 6793 H 677.451 -0.252662 3.96796 0
M  V30 6794 N 678.448 -1.51871 0.421078 0
M  V30 6795 C 679.695 -2.01938 -0.15079 0
M  V30 6796 C 680.023 -1.30611 -1.44121 0
M  V30 6797 O 679.278 -0.404631 -1.91471 0
M  V30 6798 C 679.577 -3.54764 -0.433292 0
M  V30 6799 C 679.243 -4.44288 0.76936 0
M  V30 6800 C 677.905 -4.68477 1.09921 0
M  V30 6801 C 680.257 -4.96915 1.57242 0
M  V30 6802 C 677.585 -5.4254 2.2331 0
M  V30 6803 C 679.937 -5.7222 2.69716 0
M  V30 6804 C 678.601 -5.94678 3.03174 0
M  V30 6805 H 677.871 -0.738943 -0.0551781 0
M  V30 6806 H 680.518 -1.82977 0.564945 0
M  V30 6807 H 678.823 -3.71968 -1.23074 0
M  V30 6808 H 680.52 -3.91023 -0.888922 0
M  V30 6809 H 677.11 -4.25646 0.502305 0
M  V30 6810 H 681.294 -4.78125 1.3308 0
M  V30 6811 H 676.55 -5.58146 2.49565 0
M  V30 6812 H 680.724 -6.11992 3.32323 0
M  V30 6813 H 678.351 -6.51848 3.9115 0
M  V30 6814 N 679.926 -0.151884 -1.56866 0
M  V30 6815 C 681.154 0.504813 -2.00647 0
M  V30 6816 C 681.569 1.58098 -1.03201 0
M  V30 6817 O 680.926 1.82476 -0.0297814 0
M  V30 6818 C 680.977 1.10099 -3.44326 0
M  V30 6819 O 680.698 0.0678021 -4.38048 0
M  V30 6820 C 682.199 1.83782 -4.03409 0
M  V30 6821 H 679.419 0.130989 -0.65809 0
M  V30 6822 H 681.963 -0.247903 -2.02992 0
M  V30 6823 H 680.118 1.8043 -3.42817 0
M  V30 6824 H 680.532 0.505237 -5.22061 0
M  V30 6825 H 682.006 2.2078 -5.05925 0
M  V30 6826 H 682.483 2.72557 -3.44397 0
M  V30 6827 H 683.089 1.18138 -4.08563 0
M  V30 6828 N 681.404 1.57128 0.121893 0
M  V30 6829 C 682.367 1.99197 1.13372 0
M  V30 6830 C 683.367 0.881728 1.3447 0
M  V30 6831 O 684.557 1.14783 1.31036 0
M  V30 6832 C 681.689 2.32963 2.4888 0
M  V30 6833 H 682.882 2.89788 0.772204 0
M  V30 6834 H 680.435 1.51952 0.366093 0
M  V30 6835 H 681.17 1.45243 2.89957 0
M  V30 6836 H 680.955 3.13934 2.34921 0
M  V30 6837 H 682.445 2.66261 3.21706 0
M  V30 6838 N 682.882 -0.391992 1.52647 0
M  V30 6839 C 683.829 -1.47866 1.77213 0
M  V30 6840 C 684.799 -1.54286 0.615223 0
M  V30 6841 O 685.984 -1.7059 0.854622 0
M  V30 6842 C 683.124 -2.85129 1.94411 0
M  V30 6843 C 682.237 -2.87883 3.22098 0
M  V30 6844 C 681.372 -4.16553 3.29631 0
M  V30 6845 C 680.411 -4.13348 4.51453 0
M  V30 6846 N 679.548 -5.33619 4.56284 0
M  V30 6847 H 684.388 -1.26219 2.6995 0
M  V30 6848 H 681.925 -0.612367 1.33748 0
M  V30 6849 H 683.883 -3.64833 2.02367 0
M  V30 6850 H 682.513 -3.05232 1.05038 0
M  V30 6851 H 681.565 -2.00567 3.23229 0
M  V30 6852 H 682.877 -2.81382 4.11856 0
M  V30 6853 H 682.031 -5.0466 3.36753 0
M  V30 6854 H 680.77 -4.25773 2.37842 0
M  V30 6855 H 679.775 -3.23629 4.44459 0
M  V30 6856 H 681 -4.05754 5.44555 0
M  V30 6857 H 678.946 -5.43474 3.67385 0
M  V30 6858 H 678.863 -5.29182 5.3991 0
M  V30 6859 H 680.131 -6.23632 4.67657 0
M  V30 6860 N 684.36 -1.4356 -0.65026 0
M  V30 6861 C 685.29 -1.51758 -1.77459 0
M  V30 6862 C 686.271 -0.372019 -1.65982 0
M  V30 6863 O 687.456 -0.589627 -1.85033 0
M  V30 6864 C 684.586 -1.44302 -3.15902 0
M  V30 6865 C 683.54 -2.57138 -3.42146 0
M  V30 6866 C 682.866 -2.34735 -4.8042 0
M  V30 6867 C 684.166 -3.99373 -3.36598 0
M  V30 6868 H 685.86 -2.45863 -1.70855 0
M  V30 6869 H 683.406 -1.18333 -0.820566 0
M  V30 6870 H 685.359 -1.48641 -3.94314 0
M  V30 6871 H 684.083 -0.467026 -3.23244 0
M  V30 6872 H 682.742 -2.52157 -2.66106 0
M  V30 6873 H 682.39 -1.35372 -4.84441 0
M  V30 6874 H 682.09 -3.10375 -4.9894 0
M  V30 6875 H 683.614 -2.40862 -5.61086 0
M  V30 6876 H 685.028 -4.05826 -4.04942 0
M  V30 6877 H 683.425 -4.75063 -3.66654 0
M  V30 6878 H 684.495 -4.243 -2.34729 0
M  V30 6879 N 685.838 0.888903 -1.30139 0
M  V30 6880 C 687.084 1.6428 -1.18912 0
M  V30 6881 C 687.417 1.92499 0.256477 0
M  V30 6882 O 686.692 1.54312 1.18397 0
M  V30 6883 C 686.975 2.9851 -2.01405 0
M  V30 6884 C 686.828 2.77288 -3.54163 0
M  V30 6885 C 688.147 3.99383 -1.84882 0
M  V30 6886 H 685.266 0.596148 -0.433333 0
M  V30 6887 H 687.908 1.0289 -1.5973 0
M  V30 6888 H 686.058 3.50907 -1.66722 0
M  V30 6889 H 687.73 2.31709 -3.98884 0
M  V30 6890 H 685.973 2.11867 -3.78543 0
M  V30 6891 H 686.644 3.72717 -4.07168 0
M  V30 6892 H 689.12 3.56132 -2.15196 0
M  V30 6893 H 687.996 4.91222 -2.44934 0
M  V30 6894 H 688.257 4.34674 -0.806902 0
M  V30 6895 N 687.317 1.12792 1.10072 0
M  V30 6896 C 688.594 0.796867 1.78632 0
M  V30 6897 C 688.974 -0.712739 1.98704 0
M  V30 6898 O 688.322 -1.64773 1.5831 0
M  V30 6899 C 688.532 1.57622 3.11378 0
M  V30 6900 C 689.88 1.76463 3.86194 0
M  V30 6901 O 690.904 1.54165 3.2111 0
M  V30 6902 O 689.763 2.13623 5.03018 0
M  V30 6903 H 686.857 0.290248 0.774394 0
M  V30 6904 H 689.403 1.23215 1.16688 0
M  V30 6905 H 688.175 2.60246 2.92212 0
M  V30 6906 H 687.798 1.13543 3.81043 0
M  V30 6907 N 688.795 -1.27931 0.920396 0
M  V30 6908 C 690.041 -1.94977 0.557832 0
M  V30 6909 C 690.374 -1.72224 -0.897365 0
M  V30 6910 O 689.649 -1.04705 -1.63912 0
M  V30 6911 C 689.932 -3.49289 0.875741 0
M  V30 6912 C 689.785 -3.81416 2.38416 0
M  V30 6913 C 691.104 -4.38486 0.376517 0
M  V30 6914 H 688.223 -0.708164 0.20414 0
M  V30 6915 H 690.865 -1.5118 1.15085 0
M  V30 6916 H 689.015 -3.86724 0.371062 0
M  V30 6917 H 690.687 -3.53813 2.95997 0
M  V30 6918 H 688.93 -3.28225 2.83639 0
M  V30 6919 H 689.601 -4.89198 2.55713 0
M  V30 6920 H 692.077 -4.08161 0.808945 0
M  V30 6921 H 690.953 -5.45296 0.627976 0
M  V30 6922 H 691.214 -4.36143 -0.723293 0
M  V30 6923 N 690.273 -0.685099 -1.4193 0
M  V30 6924 C 691.52 -0.211658 -2.01391 0
M  V30 6925 C 691.848 1.18526 -1.54214 0
M  V30 6926 O 691.103 1.81189 -0.739519 0
M  V30 6927 C 691.402 -0.206154 -3.56805 0
M  V30 6928 C 691.068 -1.54915 -4.23453 0
M  V30 6929 C 689.73 -1.91684 -4.41373 0
M  V30 6930 C 692.082 -2.43317 -4.60919 0
M  V30 6931 C 689.41 -3.16461 -4.94034 0
M  V30 6932 C 691.762 -3.67415 -5.14965 0
M  V30 6933 C 690.426 -4.04341 -5.31098 0
M  V30 6934 H 689.696 -0.0774511 -0.736941 0
M  V30 6935 H 692.343 -0.882121 -1.69973 0
M  V30 6936 H 690.648 0.547841 -3.87951 0
M  V30 6937 H 692.345 0.17753 -4.00607 0
M  V30 6938 H 688.935 -1.25314 -4.09871 0
M  V30 6939 H 693.119 -2.16192 -4.46738 0
M  V30 6940 H 688.375 -3.45078 -5.04709 0
M  V30 6941 H 692.549 -4.3611 -5.42938 0
M  V30 6942 H 690.176 -5.01101 -5.71666 0
M  V30 6943 N 691.751 1.51645 -0.429126 0
M  V30 6944 C 693.162 1.86665 0.0359003 0
M  V30 6945 C 693.513 1.34677 1.42676 0
M  V30 6946 O 692.638 0.694195 2.04963 0
M  V30 6947 C 693.233 3.38724 0.0719221 0
M  V30 6948 C 691.792 3.7331 0.481336 0
M  V30 6949 C 690.939 2.75313 -0.331329 0
M  V30 6950 H 693.89 1.44987 -0.645333 0
M  V30 6951 H 693.911 3.7011 0.883118 0
M  V30 6952 H 693.423 3.76532 -0.940495 0
M  V30 6953 H 691.524 3.41088 1.49966 0
M  V30 6954 H 691.637 4.78631 0.211837 0
M  V30 6955 H 690.001 2.53839 0.209204 0
M  V30 6956 H 690.784 3.15963 -1.34247 0
M  V30 6957 N 693.229 0.160201 1.56784 0
M  V30 6958 C 694.506 -0.533355 1.88188 0
M  V30 6959 C 694.886 -1.82072 1.06831 0
M  V30 6960 O 694.234 -2.27946 0.158959 0
M  V30 6961 C 694.444 -0.786034 3.40033 0
M  V30 6962 C 695.792 -1.12097 4.09536 0
M  V30 6963 O 696.816 -0.874949 3.45287 0
M  V30 6964 O 695.675 -1.58457 5.23023 0
M  V30 6965 H 692.769 -0.273589 0.780434 0
M  V30 6966 H 695.315 0.197803 1.68543 0
M  V30 6967 H 694.087 0.124515 3.91102 0
M  V30 6968 H 693.71 -1.57091 3.65251 0
M  V30 6969 N 694.707 -1.5719 -0.113559 0
M  V30 6970 C 695.955 -1.84772 -0.818761 0
M  V30 6971 C 696.276 -0.746196 -1.80158 0
M  V30 6972 O 695.546 0.229305 -1.94553 0
M  V30 6973 H 694.126 -0.681737 -0.305359 0
M  V30 6974 H 696.788 -1.94645 -0.0995845 0
M  V30 6975 H 695.884 -2.80878 -1.36067 0
M  V30 6976 N 696.185 0.383891 -1.52853 0
M  V30 6977 C 697.601 0.724316 -1.42218 0
M  V30 6978 C 697.801 1.93943 -0.546654 0
M  V30 6979 O 696.857 2.5249 -0.0220562 0
M  V30 6980 C 698.17 0.954635 -2.85144 0
M  V30 6981 C 699.718 1.05579 -2.94656 0
M  V30 6982 C 700.193 1.3187 -4.38605 0
M  V30 6983 N 701.684 1.38681 -4.41952 0
M  V30 6984 C 702.419 1.60699 -5.50421 0
M  V30 6985 N 701.915 1.80154 -6.68967 0
M  V30 6986 N 703.708 1.6292 -5.37972 0
M  V30 6987 H 695.859 -0.4156 -2.08294 0
M  V30 6988 H 698.122 -0.123776 -0.939885 0
M  V30 6989 H 697.828 0.133829 -3.51445 0
M  V30 6990 H 697.702 1.86788 -3.27704 0
M  V30 6991 H 700.089 1.86716 -2.2852 0
M  V30 6992 H 700.17 0.120338 -2.55517 0
M  V30 6993 H 699.814 0.512416 -5.05309 0
M  V30 6994 H 699.744 2.26708 -4.75301 0
M  V30 6995 H 702.235 1.25334 -3.56511 0
M  V30 6996 H 702.548 1.96476 -7.47407 0
M  V30 6997 H 700.893 1.77368 -6.71986 0
M  V30 6998 H 704.084 1.47276 -4.44328 0
M  V30 6999 H 704.257 1.79739 -6.22574 0
M  V30 7000 N 697.663 1.43903 0.642637 0
M  V30 7001 C 698.626 1.49538 1.73698 0
M  V30 7002 C 699.626 0.378776 1.56275 0
M  V30 7003 O 700.816 0.64095 1.6198 0
M  V30 7004 C 697.948 1.35821 3.12675 0
M  V30 7005 H 699.141 2.47008 1.70079 0
M  V30 7006 H 696.694 1.30824 0.85526 0
M  V30 7007 H 697.429 0.393994 3.21898 0
M  V30 7008 H 697.214 2.16776 3.26727 0
M  V30 7009 H 698.704 1.4272 3.92455 0
M  V30 7010 N 699.141 -0.881989 1.30609 0
M  V30 7011 C 700.39 -1.62878 1.18969 0
M  V30 7012 C 700.703 -1.93946 -0.253859 0
M  V30 7013 O 701.909 -2.67008 -0.491813 0
M  V30 7014 C 700.365 -2.93573 2.0819 0
M  V30 7015 C 699.973 -2.70034 3.57471 0
M  V30 7016 C 701.717 -3.71543 2.0532 0
M  V30 7017 C 699.624 -3.96563 4.38739 0
M  V30 7018 H 698.554 -0.611092 0.441682 0
M  V30 7019 H 701.205 -0.976201 1.55379 0
M  V30 7020 H 699.587 -3.6014 1.64666 0
M  V30 7021 H 700.761 -2.11949 4.09163 0
M  V30 7022 H 699.076 -2.05435 3.62195 0
M  V30 7023 H 701.673 -4.65386 2.63288 0
M  V30 7024 H 702.016 -4.03167 1.03739 0
M  V30 7025 H 702.549 -3.11842 2.46981 0
M  V30 7026 H 699.288 -3.70095 5.41027 0
M  V30 7027 H 698.808 -4.54142 3.9181 0
M  V30 7028 H 700.487 -4.64557 4.50329 0
M  V30 7029 N 700.619 -1.13374 -1.09472 0
M  V30 7030 C 701.582 -0.813639 -2.14272 0
M  V30 7031 C 702.582 0.176677 -1.59826 0
M  V30 7032 O 703.772 -0.0503441 -1.74127 0
M  V30 7033 C 700.904 -0.210897 -3.40247 0
M  V30 7034 H 702.097 -1.74229 -2.44099 0
M  V30 7035 H 699.65 -0.938304 -1.25002 0
M  V30 7036 H 700.385 0.726998 -3.16046 0
M  V30 7037 H 700.17 -0.924048 -3.81056 0
M  V30 7038 H 701.66 -0.00377603 -4.176 0
M  V30 7039 N 702.098 1.27442 -0.927168 0
M  V30 7040 C 703.028 2.29256 -0.443188 0
M  V30 7041 C 704.009 1.62701 0.49624 0
M  V30 7042 O 705.194 1.90013 0.401105 0
M  V30 7043 C 702.324 3.45955 0.305366 0
M  V30 7044 C 701.278 4.24501 -0.546178 0
M  V30 7045 C 700.604 5.33671 0.331512 0
M  V30 7046 C 701.904 4.89921 -1.81037 0
M  V30 7047 H 703.598 2.69988 -1.29409 0
M  V30 7048 H 701.144 1.29792 -0.623705 0
M  V30 7049 H 703.097 4.1628 0.654885 0
M  V30 7050 H 701.821 3.04138 1.19029 0
M  V30 7051 H 700.48 3.55921 -0.878398 0
M  V30 7052 H 700.128 4.88096 1.21537 0
M  V30 7053 H 699.828 5.87131 -0.234746 0
M  V30 7054 H 701.352 6.0684 0.676614 0
M  V30 7055 H 702.766 5.52536 -1.52895 0
M  V30 7056 H 701.163 5.53436 -2.32009 0
M  V30 7057 H 702.233 4.13652 -2.53021 0
M  V30 7058 N 703.576 0.692616 1.41565 0
M  V30 7059 C 704.816 0.226453 2.03142 0
M  V30 7060 C 705.18 -1.1512 1.5366 0
M  V30 7061 O 706.381 -1.71305 2.07143 0
M  V30 7062 C 704.652 0.27855 3.56313 0
M  V30 7063 S 706.211 -0.114001 4.38652 0
M  V30 7064 H 703.029 0.0914767 0.705091 0
M  V30 7065 H 705.631 0.909737 1.73043 0
M  V30 7066 H 704.335 1.28325 3.89821 0
M  V30 7067 H 703.866 -0.423981 3.91109 0
M  V30 7068 H 705.881 -1.34256 4.77692 0
M  V30 7069 N 705.054 -1.51416 0.437162 0
M  V30 7070 C 706.331 -1.94682 -0.189292 0
M  V30 7071 C 706.711 -1.37581 -1.60108 0
M  V30 7072 O 706.059 -0.562815 -2.2146 0
M  V30 7073 C 706.269 -3.48599 -0.167201 0
M  V30 7074 C 707.617 -4.2296 -0.372856 0
M  V30 7075 O 708.641 -3.55354 -0.245323 0
M  V30 7076 O 707.5 -5.42895 -0.626693 0
M  V30 7077 H 704.594 -0.816708 -0.130063 0
M  V30 7078 H 707.14 -1.62316 0.495128 0
M  V30 7079 H 705.912 -3.82616 0.81981 0
M  V30 7080 H 705.535 -3.87406 -0.894537 0
M  V30 7081 N 706.532 -0.168513 -1.56696 0
M  V30 7082 C 707.78 0.476216 -1.96409 0
M  V30 7083 C 708.101 1.63968 -1.05544 0
M  V30 7084 O 707.371 1.95525 -0.121235 0
M  V30 7085 H 705.951 0.178921 -0.725256 0
M  V30 7086 H 708.613 -0.249042 -1.93302 0
M  V30 7087 H 707.709 0.838094 -3.00637 0
M  V30 7088 N 708.01 1.57248 0.105221 0
M  V30 7089 C 709.259 1.84756 0.809198 0
M  V30 7090 C 709.572 0.756262 1.80389 0
M  V30 7091 O 710.778 0.918158 2.55504 0
M  V30 7092 C 709.234 3.27613 1.48989 0
M  V30 7093 C 708.842 4.44788 0.535484 0
M  V30 7094 C 710.586 3.64356 2.17819 0
M  V30 7095 C 708.493 5.78676 1.22019 0
M  V30 7096 H 707.423 0.689139 0.305946 0
M  V30 7097 H 710.074 1.83395 0.0620371 0
M  V30 7098 H 708.456 3.23485 2.28415 0
M  V30 7099 H 709.63 4.60243 -0.226557 0
M  V30 7100 H 707.945 4.16374 -0.0465769 0
M  V30 7101 H 710.542 4.61663 2.69761 0
M  V30 7102 H 710.885 2.92474 2.96251 0
M  V30 7103 H 711.418 3.70328 1.45264 0
M  V30 7104 H 708.157 6.53763 0.476875 0
M  V30 7105 H 707.677 5.67083 1.9539 0
M  V30 7106 H 709.356 6.22897 1.74952 0
M  V30 7107 N 709.488 -0.375779 1.53054 0
M  V30 7108 C 710.734 -1.12114 1.68992 0
M  V30 7109 C 711.067 -1.8926 0.435238 0
M  V30 7110 O 710.342 -1.86044 -0.567278 0
M  V30 7111 C 710.625 -2.08867 2.93337 0
M  V30 7112 C 710.478 -1.35397 4.28938 0
M  V30 7113 C 711.797 -3.09124 3.13257 0
M  V30 7114 H 708.916 -0.406207 0.614951 0
M  V30 7115 H 711.558 -0.403054 1.85676 0
M  V30 7116 H 709.708 -2.70102 2.79244 0
M  V30 7117 H 711.38 -0.770242 4.54824 0
M  V30 7118 H 709.623 -0.655801 4.28814 0
M  V30 7119 H 710.294 -2.06161 5.12056 0
M  V30 7120 H 712.77 -2.57987 3.26469 0
M  V30 7121 H 711.646 -3.74054 4.01715 0
M  V30 7122 H 711.907 -3.78729 2.28072 0
M  V30 7123 N 710.966 -1.44241 -0.634997 0
M  V30 7124 C 712.382 -1.28043 -0.952742 0
M  V30 7125 C 712.582 -0.21338 -2.00367 0
M  V30 7126 O 711.638 0.402042 -2.49279 0
M  V30 7127 C 712.951 -2.65076 -1.41968 0
M  V30 7128 C 714.499 -2.72755 -1.53537 0
M  V30 7129 C 714.974 -4.10249 -2.03616 0
M  V30 7130 N 716.465 -4.12406 -2.10892 0
M  V30 7131 C 717.2 -5.15641 -2.50803 0
M  V30 7132 N 716.696 -6.29239 -2.89879 0
M  V30 7133 N 718.489 -5.02995 -2.50903 0
M  V30 7134 H 710.64 -2.12315 0.060098 0
M  V30 7135 H 712.903 -0.947326 -0.0357325 0
M  V30 7136 H 712.609 -3.44213 -0.721804 0
M  V30 7137 H 712.483 -2.91704 -2.39141 0
M  V30 7138 H 714.87 -1.93939 -2.22422 0
M  V30 7139 H 714.951 -2.49872 -0.547496 0
M  V30 7140 H 714.595 -4.8954 -1.35327 0
M  V30 7141 H 714.525 -4.30507 -3.03268 0
M  V30 7142 H 717.016 -3.30417 -1.83393 0
M  V30 7143 H 717.329 -7.03827 -3.19135 0
M  V30 7144 H 715.674 -6.32683 -2.8764 0
M  V30 7145 H 718.865 -4.13306 -2.19763 0
M  V30 7146 H 719.038 -5.83574 -2.81683 0
M  V30 7147 N 712.444 0.87505 -1.31075 0
M  V30 7148 C 713.377 1.98471 -1.12625 0
M  V30 7149 C 714.355 1.6257 -0.0311379 0
M  V30 7150 O 715.539 1.87574 -0.186594 0
M  V30 7151 C 712.666 3.30963 -0.719799 0
M  V30 7152 C 711.712 3.85849 -1.81722 0
M  V30 7153 S 712.545 4.11926 -3.42165 0
M  V30 7154 C 713.701 5.47423 -3.03445 0
M  V30 7155 H 713.934 2.13817 -2.06566 0
M  V30 7156 H 711.467 1.02463 -1.15502 0
M  V30 7157 H 713.425 4.07541 -0.492035 0
M  V30 7158 H 712.086 3.1346 0.200413 0
M  V30 7159 H 711.279 4.81616 -1.48533 0
M  V30 7160 H 710.881 3.16046 -1.99977 0
M  V30 7161 H 713.173 6.28881 -2.52023 0
M  V30 7162 H 714.116 5.85557 -3.98157 0
M  V30 7163 H 714.524 5.10455 -2.41031 0
M  V30 7164 N 713.922 1.13953 1.08869 0
M  V30 7165 C 715.338 0.878924 1.33218 0
M  V30 7166 C 715.538 -0.482478 1.95638 0
M  V30 7167 O 714.594 -1.22778 2.2064 0
M  V30 7168 C 715.907 2.00798 2.23832 0
M  V30 7169 C 717.455 2.04073 2.37325 0
M  V30 7170 C 717.93 3.16258 3.31278 0
M  V30 7171 N 719.421 3.15805 3.38853 0
M  V30 7172 C 720.156 3.99249 4.11567 0
M  V30 7173 N 719.652 4.92721 4.87029 0
M  V30 7174 N 721.445 3.87327 4.0735 0
M  V30 7175 H 713.596 2.01645 0.66731 0
M  V30 7176 H 715.859 0.878395 0.356547 0
M  V30 7177 H 715.565 2.98986 1.85203 0
M  V30 7178 H 715.439 1.92704 3.24261 0
M  V30 7179 H 717.826 1.06495 2.75214 0
M  V30 7180 H 717.907 2.16239 1.36654 0
M  V30 7181 H 717.551 4.14079 2.9411 0
M  V30 7182 H 717.481 3.0133 4.31866 0
M  V30 7183 H 719.972 2.48102 2.8505 0
M  V30 7184 H 720.285 5.52867 5.39961 0
M  V30 7185 H 718.63 4.96723 4.86098 0
M  V30 7186 H 721.821 3.13627 3.475 0
M  V30 7187 H 721.994 4.52585 4.63757 0
M  V30 7188 N 715.4 -1.26948 0.933913 0
M  V30 7189 C 716.63 -1.97898 0.593279 0
M  V30 7190 C 717.038 -1.69806 -0.834412 0
M  V30 7191 O 716.381 -0.958704 -1.56699 0
M  V30 7192 C 716.443 -3.51657 0.746825 0
M  V30 7193 C 716.107 -4.03384 2.14779 0
M  V30 7194 C 717.104 -4.15682 3.12257 0
M  V30 7195 C 714.789 -4.37577 2.46641 0
M  V30 7196 C 716.783 -4.61455 4.39702 0
M  V30 7197 C 714.47 -4.8304 3.7432 0
M  V30 7198 C 715.468 -4.94939 4.70664 0
M  V30 7199 O 715.156 -5.39403 5.96071 0
M  V30 7200 H 714.888 -0.63814 0.223055 0
M  V30 7201 H 717.442 -1.62608 1.2549 0
M  V30 7202 H 715.672 -3.8669 0.0280889 0
M  V30 7203 H 717.361 -4.03821 0.410328 0
M  V30 7204 H 718.127 -3.89519 2.88964 0
M  V30 7205 H 714.006 -4.27554 1.72391 0
M  V30 7206 H 717.55 -4.70658 5.14905 0
M  V30 7207 H 713.447 -5.08646 3.97429 0
M  V30 7208 H 714.215 -5.57641 5.99148 0
M  V30 7209 N 716.879 -0.700114 -1.41195 0
M  V30 7210 C 718.295 -0.372114 -1.55201 0
M  V30 7211 C 718.495 1.12053 -1.6747 0
M  V30 7212 O 717.551 1.90642 -1.65566 0
M  V30 7213 C 718.864 -1.12462 -2.78878 0
M  V30 7214 C 720.412 -1.10941 -2.92679 0
M  V30 7215 C 720.887 -1.84376 -4.19249 0
M  V30 7216 N 722.378 -1.81368 -4.26216 0
M  V30 7217 C 723.113 -2.35024 -5.23021 0
M  V30 7218 N 722.609 -2.9717 -6.25829 0
M  V30 7219 N 724.402 -2.25254 -5.14992 0
M  V30 7220 H 716.553 -1.66816 -1.31477 0
M  V30 7221 H 718.816 -0.704223 -0.634644 0
M  V30 7222 H 718.522 -2.17937 -2.76037 0
M  V30 7223 H 718.396 -0.706152 -3.70531 0
M  V30 7224 H 720.783 -0.062911 -2.95033 0
M  V30 7225 H 720.864 -1.56698 -2.02187 0
M  V30 7226 H 720.508 -2.89008 -4.17656 0
M  V30 7227 H 720.438 -1.3605 -5.08722 0
M  V30 7228 H 722.929 -1.36062 -3.52556 0
M  V30 7229 H 723.242 -3.35668 -6.96094 0
M  V30 7230 H 721.587 -3.01249 -6.26318 0
M  V30 7231 H 724.778 -1.76372 -4.33602 0
M  V30 7232 H 724.951 -2.67373 -5.90268 0
M  V30 7233 N 718.357 1.51182 -0.445186 0
M  V30 7234 C 719.267 2.31692 0.368255 0
M  V30 7235 C 720.283 1.40942 1.02036 0
M  V30 7236 O 721.459 1.74011 1.01401 0
M  V30 7237 C 718.524 3.14903 1.45041 0
M  V30 7238 C 717.585 4.21442 0.817615 0
M  V30 7239 C 716.818 5.00677 1.8482 0
M  V30 7240 O 717.041 4.80644 3.07145 0
M  V30 7241 O 715.975 5.84559 1.43438 0
M  V30 7242 H 719.801 3.0232 -0.289219 0
M  V30 7243 H 717.386 1.47951 -0.207555 0
M  V30 7244 H 719.268 3.66612 2.07783 0
M  V30 7245 H 717.943 2.47031 2.09182 0
M  V30 7246 H 716.85 3.73791 0.151931 0
M  V30 7247 H 718.183 4.9171 0.219564 0
M  V30 7248 N 719.835 0.176821 1.56605 0
M  V30 7249 C 721.063 -0.472828 2.01425 0
M  V30 7250 C 721.478 -1.56436 1.05703 0
M  V30 7251 O 720.835 -1.82405 0.058808 0
M  V30 7252 C 720.886 -1.04607 3.46034 0
M  V30 7253 O 720.607 0.00189608 4.381 0
M  V30 7254 C 722.108 -1.7734 4.06282 0
M  V30 7255 H 719.328 -0.120503 0.660091 0
M  V30 7256 H 721.872 0.280166 2.02572 0
M  V30 7257 H 720.027 -1.74953 3.45645 0
M  V30 7258 H 720.441 -0.422118 5.22799 0
M  V30 7259 H 721.915 -2.12703 5.09374 0
M  V30 7260 H 722.392 -2.67043 3.4869 0
M  V30 7261 H 722.998 -1.11623 4.10391 0
M  V30 7262 N 721.313 -1.57302 -0.09688 0
M  V30 7263 C 722.243 -2.0497 -1.11846 0
M  V30 7264 C 723.224 -0.938278 -1.41882 0
M  V30 7265 O 724.409 -1.20943 -1.51942 0
M  V30 7266 C 721.539 -2.47264 -2.43881 0
M  V30 7267 C 720.493 -3.62053 -2.28257 0
M  V30 7268 C 719.819 -3.90318 -3.65453 0
M  V30 7269 C 721.119 -4.93005 -1.72461 0
M  V30 7270 H 722.813 -2.90567 -0.721888 0
M  V30 7271 H 720.359 -1.39786 -0.345803 0
M  V30 7272 H 722.312 -2.7922 -3.15617 0
M  V30 7273 H 721.036 -1.58664 -2.8547 0
M  V30 7274 H 719.695 -3.30341 -1.58967 0
M  V30 7275 H 719.343 -2.98889 -4.04567 0
M  V30 7276 H 719.043 -4.67597 -3.55846 0
M  V30 7277 H 720.567 -4.24747 -4.3866 0
M  V30 7278 H 721.981 -5.23354 -2.34036 0
M  V30 7279 H 720.378 -5.74436 -1.73618 0
M  V30 7280 H 721.448 -4.80053 -0.683898 0
M  V30 7281 N 722.791 0.367657 -1.53252 0
M  V30 7282 C 724.037 1.11216 -1.69584 0
M  V30 7283 C 724.37 1.89026 -0.445269 0
M  V30 7284 O 723.645 1.86342 0.557404 0
M  V30 7285 C 723.928 2.07308 -2.94441 0
M  V30 7286 C 723.781 1.3312 -4.2965 0
M  V30 7287 C 725.1 3.07459 -3.14892 0
M  V30 7288 H 722.219 0.40294 -0.617096 0
M  V30 7289 H 724.861 0.393201 -1.85887 0
M  V30 7290 H 723.011 2.68617 -2.80673 0
M  V30 7291 H 724.683 0.746111 -4.55226 0
M  V30 7292 H 722.926 0.633051 -4.29156 0
M  V30 7293 H 723.597 2.03443 -5.13142 0
M  V30 7294 H 726.073 2.56252 -3.27832 0
M  V30 7295 H 724.949 3.71919 -4.03693 0
M  V30 7296 H 725.21 3.77514 -2.30077 0
M  V30 7297 N 724.269 1.44576 0.627338 0
M  V30 7298 C 725.217 1.52039 1.76031 0
M  V30 7299 C 726.211 0.391796 1.64807 0
M  V30 7300 O 727.417 0.5669 1.7084 0
M  V30 7301 H 723.792 0.477165 0.581221 0
M  V30 7302 H 725.763 2.47387 1.6686 0
M  V30 7303 C 724.512 1.48539 3.14375 0
M  V30 7304 H 723.835 2.34699 3.23661 0
M  V30 7305 H 725.275 1.57821 3.93534 0
M  V30 7306 C 723.734 0.20672 3.36265 0
M  V30 7307 O 724.264 -0.72154 3.95167 0
M  V30 7308 N 722.47 0.108654 2.90397 0
M  V30 7309 H 722.017 0.864884 2.42647 0
M  V30 7310 H 721.975 -0.746121 3.05418 0
M  V30 7311 N 725.747 -0.868086 1.31537 0
M  V30 7312 C 727.158 -1.437 1.19195 0
M  V30 7313 C 727.509 -1.95169 -0.200842 0
M  V30 7314 O 726.634 -1.86432 -1.09872 0
M  V30 7315 C 727.229 -2.612 2.15778 0
M  V30 7316 C 725.788 -3.1413 2.07363 0
M  V30 7317 C 724.935 -1.86845 2.049 0
M  V30 7318 H 727.886 -0.676457 1.43561 0
M  V30 7319 H 727.907 -3.37948 1.74847 0
M  V30 7320 H 727.419 -2.23709 3.17137 0
M  V30 7321 H 725.52 -3.56238 1.09204 0
M  V30 7322 H 725.633 -3.76285 2.96557 0
M  V30 7323 H 723.997 -2.05886 1.49943 0
M  V30 7324 H 724.78 -1.51589 3.08019 0
M  V30 7325 N 727.225 -1.14528 -1.08264 0
M  V30 7326 C 728.453 -0.937964 -1.84418 0
M  V30 7327 C 728.868 0.51357 -1.81681 0
M  V30 7328 O 728.225 1.35591 -1.22153 0
M  V30 7329 C 728.276 -1.43272 -3.31897 0
M  V30 7330 O 727.997 -2.82738 -3.34651 0
M  V30 7331 C 729.498 -1.26555 -4.24851 0
M  V30 7332 H 726.718 -0.333704 -0.582136 0
M  V30 7333 H 729.262 -1.52076 -1.36723 0
M  V30 7334 H 727.417 -0.892653 -3.76975 0
M  V30 7335 H 727.831 -3.04971 -4.26724 0
M  V30 7336 H 729.305 -1.66031 -5.26439 0
M  V30 7337 H 729.782 -0.208589 -4.38704 0
M  V30 7338 H 730.388 -1.79423 -3.856 0
M  V30 7339 N 728.703 1.26451 -0.940633 0
M  V30 7340 C 729.633 2.28773 -0.467479 0
M  V30 7341 C 730.614 1.63218 0.478955 0
M  V30 7342 O 731.799 1.90427 0.380929 0
M  V30 7343 C 728.929 3.46259 0.268656 0
M  V30 7344 C 727.883 4.23898 -0.591171 0
M  V30 7345 C 727.209 5.33993 0.274891 0
M  V30 7346 C 728.509 4.87974 -1.86223 0
M  V30 7347 H 730.203 2.68601 -1.32265 0
M  V30 7348 H 727.749 1.29123 -0.637436 0
M  V30 7349 H 729.702 4.16951 0.610696 0
M  V30 7350 H 728.426 3.05383 1.15796 0
M  V30 7351 H 727.085 3.54969 -0.916098 0
M  V30 7352 H 726.733 4.89358 1.16353 0
M  V30 7353 H 726.433 5.86849 -0.297006 0
M  V30 7354 H 727.957 6.07523 0.612213 0
M  V30 7355 H 729.371 5.50883 -1.58747 0
M  V30 7356 H 727.768 5.50945 -2.37866 0
M  V30 7357 H 728.838 4.10945 -2.57394 0
M  V30 7358 N 730.181 0.707592 1.40822 0
M  V30 7359 C 731.43 0.240705 2.00259 0
M  V30 7360 C 731.743 -1.17027 1.56729 0
M  V30 7361 O 732.949 -1.73526 2.08809 0
M  V30 7362 C 731.405 0.379432 3.57894 0
M  V30 7363 C 731.013 1.79654 4.104 0
M  V30 7364 C 732.757 -0.0270684 4.24491 0
M  V30 7365 C 730.664 1.88628 5.60512 0
M  V30 7366 H 729.594 0.0862369 0.749052 0
M  V30 7367 H 732.245 0.877528 1.61157 0
M  V30 7368 H 730.627 -0.325842 3.94657 0
M  V30 7369 H 731.801 2.53155 3.85032 0
M  V30 7370 H 730.116 2.15379 3.56372 0
M  V30 7371 H 732.713 0.0193743 5.34696 0
M  V30 7372 H 733.056 -1.06772 4.02375 0
M  V30 7373 H 733.589 0.628361 3.92806 0
M  V30 7374 H 730.328 2.90787 5.87472 0
M  V30 7375 H 729.848 1.19528 5.8777 0
M  V30 7376 H 731.527 1.6547 6.25483 0
M  V30 7377 N 731.66 -1.50943 0.453197 0
M  V30 7378 C 732.57 -2.31884 -0.355963 0
M  V30 7379 C 733.586 -1.41481 -1.01287 0
M  V30 7380 O 734.762 -1.74546 -1.00477 0
M  V30 7381 C 731.827 -3.15668 -1.43369 0
M  V30 7382 C 730.888 -4.2187 -0.795253 0
M  V30 7383 C 730.121 -5.0165 -1.82162 0
M  V30 7384 O 730.344 -4.82266 -3.04592 0
M  V30 7385 O 729.278 -5.85311 -1.40336 0
M  V30 7386 H 733.104 -3.02162 0.305248 0
M  V30 7387 H 730.689 -1.47839 0.215398 0
M  V30 7388 H 732.571 -3.67709 -2.05836 0
M  V30 7389 H 731.246 -2.48137 -2.07869 0
M  V30 7390 H 730.153 -3.73867 -0.132106 0
M  V30 7391 H 731.486 -4.9182 -0.193484 0
M  V30 7392 N 733.138 -0.185124 -1.56509 0
M  V30 7393 C 734.101 0.72591 -2.17401 0
M  V30 7394 C 735.101 1.14819 -1.12575 0
M  V30 7395 O 736.291 1.0629 -1.38015 0
M  V30 7396 C 733.423 1.98979 -2.76803 0
M  V30 7397 H 734.616 0.195588 -2.99262 0
M  V30 7398 H 732.169 0.0644772 -1.56167 0
M  V30 7399 H 732.904 2.56287 -1.98714 0
M  V30 7400 H 732.689 1.69583 -3.53531 0
M  V30 7401 H 734.179 2.63966 -3.23592 0
M  V30 7402 N 734.616 1.57351 0.0885366 0
M  V30 7403 C 735.864 1.86051 0.789262 0
M  V30 7404 C 736.185 0.774763 1.78948 0
M  V30 7405 O 735.455 -0.198324 1.94894 0
M  V30 7406 H 734.035 0.686508 0.294475 0
M  V30 7407 H 736.697 1.94779 0.0686055 0
M  V30 7408 H 735.793 2.83007 1.31581 0
M  V30 7409 N 736.094 -0.359525 1.53444 0
M  V30 7410 C 737.004 -1.46445 1.83278 0
M  V30 7411 C 738.02 -1.5833 0.721629 0
M  V30 7412 O 739.196 -1.7411 1.01231 0
M  V30 7413 C 736.261 -2.81638 2.02191 0
M  V30 7414 C 735.322 -2.7923 3.26082 0
M  V30 7415 C 734.555 -4.07974 3.44082 0
M  V30 7416 O 734.778 -5.04447 2.66251 0
M  V30 7417 O 733.712 -4.13417 4.37458 0
M  V30 7418 H 737.538 -1.24156 2.77162 0
M  V30 7419 H 735.123 -0.550201 1.389 0
M  V30 7420 H 737.005 -3.61732 2.16167 0
M  V30 7421 H 735.68 -3.03892 1.11496 0
M  V30 7422 H 734.587 -1.97813 3.17523 0
M  V30 7423 H 735.92 -2.6193 4.16718 0
M  V30 7424 N 737.572 -1.44907 -0.619662 0
M  V30 7425 C 738.821 -1.47569 -1.37501 0
M  V30 7426 C 739.134 -0.116707 -1.95252 0
M  V30 7427 O 740.34 -0.020909 -2.71492 0
M  V30 7428 C 738.796 -2.59851 -2.49009 0
M  V30 7429 C 738.404 -4.02008 -1.97722 0
M  V30 7430 C 740.148 -2.71746 -3.2612 0
M  V30 7431 C 738.055 -5.05693 -3.0664 0
M  V30 7432 H 736.985 -0.549068 -0.51676 0
M  V30 7433 H 739.636 -1.71009 -0.665437 0
M  V30 7434 H 738.018 -2.29671 -3.22594 0
M  V30 7435 H 739.192 -4.41809 -1.30925 0
M  V30 7436 H 737.507 -3.94456 -1.33392 0
M  V30 7437 H 740.104 -3.46382 -4.07337 0
M  V30 7438 H 740.447 -1.77959 -3.76346 0
M  V30 7439 H 740.98 -3.01392 -2.5963 0
M  V30 7440 H 737.719 -6.01148 -2.61345 0
M  V30 7441 H 737.239 -4.70473 -3.72042 0
M  V30 7442 H 738.918 -5.29906 -3.71226 0
M  V30 7443 N 739.05 0.861098 -1.31996 0
M  V30 7444 C 740.28 1.64501 -1.24992 0
M  V30 7445 C 740.688 1.88288 0.185576 0
M  V30 7446 O 740.031 1.44756 1.131 0
M  V30 7447 C 740.093 3.03098 -1.93319 0
M  V30 7448 C 739.757 3.02381 -3.42658 0
M  V30 7449 C 740.754 2.79696 -4.38254 0
M  V30 7450 C 738.439 3.23221 -3.84491 0
M  V30 7451 C 740.433 2.77843 -5.73657 0
M  V30 7452 C 738.12 3.20996 -5.20005 0
M  V30 7453 C 739.118 2.98335 -6.14398 0
M  V30 7454 O 738.806 2.95971 -7.47433 0
M  V30 7455 H 738.538 0.519309 -0.432775 0
M  V30 7456 H 741.092 1.08241 -1.74565 0
M  V30 7457 H 739.322 3.61121 -1.38306 0
M  V30 7458 H 741.011 3.63751 -1.8011 0
M  V30 7459 H 741.777 2.63368 -4.07262 0
M  V30 7460 H 737.656 3.39887 -3.11445 0
M  V30 7461 H 741.2 2.60074 -6.47308 0
M  V30 7462 H 737.097 3.36865 -5.50629 0
M  V30 7463 H 737.865 3.1197 -7.56714 0
M  V30 7464 N 740.528 1.15101 1.07655 0
M  V30 7465 C 741.438 0.858869 2.18313 0
M  V30 7466 C 742.454 -0.163641 1.73229 0
M  V30 7467 O 743.63 0.00969541 2.01398 0
M  V30 7468 C 740.695 0.34893 3.4494 0
M  V30 7469 C 739.756 1.43495 4.04608 0
M  V30 7470 C 738.989 0.949253 5.2519 0
M  V30 7471 O 739.212 -0.20636 5.70027 0
M  V30 7472 O 738.146 1.73161 5.76454 0
M  V30 7473 H 741.972 1.78386 2.45788 0
M  V30 7474 H 739.557 0.929876 1.16934 0
M  V30 7475 H 741.439 0.070851 4.2134 0
M  V30 7476 H 740.114 -0.548237 3.19024 0
M  V30 7477 H 739.021 1.7666 3.29761 0
M  V30 7478 H 740.354 2.30692 4.3479 0
M  V30 7479 N 742.006 -1.2595 0.947325 0
M  V30 7480 C 743.252 -1.9375 0.599064 0
M  V30 7481 C 743.585 -1.74088 -0.860632 0
M  V30 7482 O 742.86 -1.08158 -1.61654 0
M  V30 7483 C 743.143 -3.47353 0.949634 0
M  V30 7484 C 742.996 -3.76273 2.46452 0
M  V30 7485 C 744.315 -4.37589 0.469442 0
M  V30 7486 H 741.434 -0.703674 0.219115 0
M  V30 7487 H 744.076 -1.48705 1.18266 0
M  V30 7488 H 742.226 -3.8585 0.453008 0
M  V30 7489 H 743.898 -3.47455 3.03435 0
M  V30 7490 H 742.141 -3.22135 2.90537 0
M  V30 7491 H 742.812 -4.83664 2.66032 0
M  V30 7492 H 745.288 -4.06353 0.89534 0
M  V30 7493 H 744.164 -5.43841 0.7435 0
M  V30 7494 H 744.425 -4.37579 -0.630618 0
M  V30 7495 N 743.484 -0.715051 -1.40445 0
M  V30 7496 C 744.447 -0.0708726 -2.2909 0
M  V30 7497 C 745.447 0.687926 -1.45342 0
M  V30 7498 O 746.637 0.519908 -1.66261 0
M  V30 7499 C 743.769 0.909528 -3.28543 0
M  V30 7500 H 744.962 -0.851611 -2.87555 0
M  V30 7501 H 742.515 -0.479674 -1.48758 0
M  V30 7502 H 743.25 1.71734 -2.75096 0
M  V30 7503 H 743.035 0.368318 -3.90366 0
M  V30 7504 H 744.525 1.35744 -3.94922 0
M  V30 7505 N 744.962 1.50701 -0.461195 0
M  V30 7506 C 746.211 2.01458 0.0988277 0
M  V30 7507 C 746.524 1.34863 1.41673 0
M  V30 7508 O 747.73 1.76721 2.06111 0
M  V30 7509 C 746.186 3.59186 0.226648 0
M  V30 7510 C 745.794 4.34732 -1.08223 0
M  V30 7511 C 747.538 4.18015 0.73916 0
M  V30 7512 C 745.445 5.8422 -0.918747 0
M  V30 7513 H 744.375 0.7529 0.040709 0
M  V30 7514 H 747.026 1.736 -0.594589 0
M  V30 7515 H 745.408 3.83589 0.983621 0
M  V30 7516 H 746.582 4.22059 -1.84939 0
M  V30 7517 H 744.897 3.87466 -1.52509 0
M  V30 7518 H 747.494 5.27436 0.878347 0
M  V30 7519 H 747.837 3.78746 1.72793 0
M  V30 7520 H 748.37 3.9778 0.0398469 0
M  V30 7521 H 745.109 6.27944 -1.88059 0
M  V30 7522 H 744.629 5.99493 -0.191801 0
M  V30 7523 H 746.308 6.44382 -0.581405 0
M  V30 7524 N 746.441 0.193421 1.56409 0
M  V30 7525 C 747.718 -0.493318 1.89277 0
M  V30 7526 C 748.098 -1.79765 1.10669 0
M  V30 7527 O 747.446 -2.27558 0.207274 0
M  V30 7528 C 747.656 -0.713732 3.41624 0
M  V30 7529 C 749.004 -1.03385 4.11821 0
M  V30 7530 O 750.028 -0.801511 3.47065 0
M  V30 7531 O 748.887 -1.47327 5.26267 0
M  V30 7532 H 745.981 -0.256973 0.786062 0
M  V30 7533 H 748.527 0.23351 1.68086 0
M  V30 7534 H 747.299 0.207446 3.9075 0
M  V30 7535 H 746.922 -1.49308 3.68501 0
M  V30 7536 N 747.919 -1.57396 -0.0801906 0
M  V30 7537 C 748.852 -1.98386 -1.12774 0
M  V30 7538 C 749.83 -0.859423 -1.38031 0
M  V30 7539 O 751.014 -1.12101 -1.51544 0
M  V30 7540 C 748.141 -2.3134 -2.47386 0
M  V30 7541 C 747.187 -3.53706 -2.38316 0
M  V30 7542 S 748.02 -5.04862 -1.78534 0
M  V30 7543 C 749.176 -5.41008 -3.1474 0
M  V30 7544 H 749.409 -2.86929 -0.778382 0
M  V30 7545 H 746.942 -1.51682 -0.28842 0
M  V30 7546 H 748.9 -2.51 -3.24822 0
M  V30 7547 H 747.561 -1.4334 -2.79486 0
M  V30 7548 H 746.754 -3.74253 -3.37566 0
M  V30 7549 H 746.356 -3.33632 -1.69014 0
M  V30 7550 H 748.648 -5.38565 -4.1104 0
M  V30 7551 H 749.591 -6.41885 -2.98981 0
M  V30 7552 H 749.999 -4.68467 -3.14958 0
M  V30 7553 N 749.397 0.351382 -1.53633 0
M  V30 7554 C 750.327 1.43688 -1.84055 0
M  V30 7555 C 751.308 1.55251 -0.695073 0
M  V30 7556 O 752.493 1.69587 -0.946257 0
M  V30 7557 C 749.623 2.80843 -2.04315 0
M  V30 7558 C 748.577 2.84094 -3.20117 0
M  V30 7559 C 747.903 4.2406 -3.25696 0
M  V30 7560 C 749.203 2.50334 -4.58399 0
M  V30 7561 H 750.897 1.18478 -2.74961 0
M  V30 7562 H 748.443 0.568509 -1.32303 0
M  V30 7563 H 750.396 3.56821 -2.2418 0
M  V30 7564 H 749.12 3.07471 -1.10132 0
M  V30 7565 H 747.779 2.10568 -3.00094 0
M  V30 7566 H 747.427 4.47785 -2.29123 0
M  V30 7567 H 747.127 4.27147 -4.03509 0
M  V30 7568 H 748.651 5.0189 -3.47762 0
M  V30 7569 H 750.065 3.16025 -4.78332 0
M  V30 7570 H 748.462 2.64717 -5.38558 0
M  V30 7571 H 749.532 1.45542 -4.62543 0
M  V30 7572 N 750.875 1.45233 0.611969 0
M  V30 7573 C 751.838 1.53189 1.70487 0
M  V30 7574 C 752.838 0.411839 1.55437 0
M  V30 7575 O 754.028 0.675164 1.60584 0
M  V30 7576 C 751.16 1.42422 3.09723 0
M  V30 7577 H 752.353 2.5056 1.64802 0
M  V30 7578 H 749.906 1.32609 0.827318 0
M  V30 7579 H 750.641 0.462185 3.2099 0
M  V30 7580 H 750.426 2.23658 3.22055 0
M  V30 7581 H 751.916 1.51012 3.89339 0
M  V30 7582 N 752.353 -0.854086 1.3245 0
M  V30 7583 C 753.581 -1.64074 1.26045 0
M  V30 7584 C 753.996 -1.8802 -0.171456 0
M  V30 7585 O 753.353 -1.4496 -1.10873 0
M  V30 7586 C 753.404 -2.9997 2.01743 0
M  V30 7587 O 753.125 -2.77084 3.39346 0
M  V30 7588 C 754.626 -3.94414 2.02368 0
M  V30 7589 H 751.846 -0.511015 0.434862 0
M  V30 7590 H 754.39 -1.06494 1.74583 0
M  V30 7591 H 752.545 -3.54193 1.56926 0
M  V30 7592 H 752.959 -3.63514 3.78098 0
M  V30 7593 H 754.433 -4.87032 2.59815 0
M  V30 7594 H 754.91 -4.27427 1.01009 0
M  V30 7595 H 755.516 -3.46127 2.47135 0
M  V30 7596 N 753.831 -1.1567 -1.07043 0
M  V30 7597 C 755.056 -0.957946 -1.83952 0
M  V30 7598 C 755.481 0.488807 -1.81638 0
M  V30 7599 O 754.839 1.34869 -1.21162 0
M  V30 7600 C 754.887 -1.48064 -3.288 0
M  V30 7601 O 753.991 -0.681921 -4.06723 0
M  V30 7602 H 753.332 -0.341453 -0.569479 0
M  V30 7603 H 755.862 -1.53728 -1.35015 0
M  V30 7604 H 755.872 -1.49484 -3.7963 0
M  V30 7605 H 754.547 -2.53388 -3.29799 0
M  V30 7606 H 753.124 -0.737612 -3.65532 0
M  V30 7607 N 755.309 1.25446 -0.953992 0
M  V30 7608 C 756.257 2.27909 -0.46478 0
M  V30 7609 C 757.251 1.62904 0.464607 0
M  V30 7610 O 758.457 1.76733 0.341407 0
M  V30 7611 H 754.832 0.74036 -0.131798 0
M  V30 7612 H 756.803 2.66559 -1.34122 0
M  V30 7613 C 755.552 3.46853 0.242589 0
M  V30 7614 H 754.875 3.97105 -0.463418 0
M  V30 7615 H 756.315 4.20432 0.548919 0
M  V30 7616 C 754.774 3.03386 1.46487 0
M  V30 7617 O 755.304 3.09342 2.56262 0
M  V30 7618 N 753.51 2.58584 1.32599 0
M  V30 7619 H 753.057 2.53938 0.432834 0
M  V30 7620 H 753.015 2.29866 2.14497 0
M  V30 7621 N 756.787 0.722489 1.40064 0
M  V30 7622 C 758.033 0.265371 2.01056 0
M  V30 7623 C 758.366 -1.14062 1.57174 0
M  V30 7624 O 757.641 -1.77514 0.794916 0
M  V30 7625 C 757.924 0.353157 3.58364 0
M  V30 7626 C 757.777 1.79802 4.123 0
M  V30 7627 C 759.096 -0.271677 4.39261 0
M  V30 7628 H 756.215 0.0979002 0.730469 0
M  V30 7629 H 758.857 0.916289 1.66446 0
M  V30 7630 H 757.007 -0.201037 3.87979 0
M  V30 7631 H 758.679 2.40813 3.93455 0
M  V30 7632 H 756.922 2.32348 3.66329 0
M  V30 7633 H 757.593 1.81079 5.21454 0
M  V30 7634 H 760.069 0.200607 4.15616 0
M  V30 7635 H 758.945 -0.179843 5.48605 0
M  V30 7636 H 759.206 -1.35611 4.20787 0
M  V30 7637 N 758.265 -1.50454 0.469181 0
M  V30 7638 C 759.512 -2.02315 -0.086469 0
M  V30 7639 C 759.84 -1.3513 -1.39893 0
M  V30 7640 O 759.095 -0.465341 -1.90087 0
M  V30 7641 C 759.394 -3.55963 -0.320207 0
M  V30 7642 C 759.06 -4.41615 0.910318 0
M  V30 7643 C 757.722 -4.64743 1.2477 0
M  V30 7644 C 760.074 -4.91661 1.72971 0
M  V30 7645 C 757.402 -5.35161 2.40457 0
M  V30 7646 C 759.754 -5.6335 2.87785 0
M  V30 7647 C 758.418 -5.84732 3.2194 0
M  V30 7648 H 757.688 -0.740324 -0.0316412 0
M  V30 7649 H 760.335 -1.81087 0.622872 0
M  V30 7650 H 758.64 -3.75695 -1.11177 0
M  V30 7651 H 760.337 -3.93653 -0.764071 0
M  V30 7652 H 756.927 -4.23833 0.637467 0
M  V30 7653 H 761.111 -4.73649 1.48224 0
M  V30 7654 H 756.367 -5.49924 2.67196 0
M  V30 7655 H 760.541 -6.0111 3.51624 0
M  V30 7656 H 758.168 -6.39074 4.1169 0
M  V30 7657 N 759.743 -0.201713 -1.56304 0
M  V30 7658 C 760.673 0.71155 -2.22394 0
M  V30 7659 C 761.654 1.21625 -1.18917 0
M  V30 7660 O 762.839 1.26388 -1.47444 0
M  V30 7661 C 759.969 1.92837 -2.88845 0
M  V30 7662 C 758.923 1.55831 -3.98623 0
M  V30 7663 C 758.249 2.85228 -4.52271 0
M  V30 7664 C 759.549 0.763249 -5.16693 0
M  V30 7665 H 761.243 0.160573 -2.98969 0
M  V30 7666 H 758.789 0.0757916 -1.438 0
M  V30 7667 H 760.742 2.57253 -3.33764 0
M  V30 7668 H 759.466 2.50398 -2.09686 0
M  V30 7669 H 758.125 0.9377 -3.54405 0
M  V30 7670 H 757.773 3.40893 -3.69866 0
M  V30 7671 H 757.473 2.6121 -5.26349 0
M  V30 7672 H 758.997 3.50622 -4.99897 0
M  V30 7673 H 760.411 1.31066 -5.58117 0
M  V30 7674 H 758.808 0.620935 -5.96879 0
M  V30 7675 H 759.878 -0.234322 -4.84334 0
M  V30 7676 N 761.222 1.57436 0.0718424 0
M  V30 7677 C 762.633 1.75975 0.623678 0
M  V30 7678 C 762.984 0.827155 1.77912 0
M  V30 7679 O 762.109 0.0112425 2.16397 0
M  V30 7680 C 762.704 3.1911 1.13816 0
M  V30 7681 C 761.263 3.38994 1.63586 0
M  V30 7682 C 760.41 2.71684 0.555261 0
M  V30 7683 H 763.361 1.57948 -0.154328 0
M  V30 7684 H 763.382 3.23267 2.00696 0
M  V30 7685 H 762.894 3.86962 0.296998 0
M  V30 7686 H 760.995 2.76256 2.50027 0
M  V30 7687 H 761.108 4.47436 1.71283 0
M  V30 7688 H 759.472 2.34236 1.00029 0
M  V30 7689 H 760.255 3.42191 -0.275712 0
M  V30 7690 N 762.7 -0.34323 1.53817 0
M  V30 7691 C 763.948 -1.0813 1.70741 0
M  V30 7692 C 764.269 -1.89165 0.473461 0
M  V30 7693 O 763.539 -1.89075 -0.512605 0
M  V30 7694 H 762.119 -0.40219 0.629486 0
M  V30 7695 H 764.781 -0.384426 1.91071 0
M  V30 7696 H 763.877 -1.7585 2.57843 0
M  V30 7697 N 764.178 -1.45556 -0.604258 0
M  V30 7698 C 765.128 -1.50906 -1.70913 0
M  V30 7699 C 766.112 -0.371996 -1.56541 0
M  V30 7700 O 767.304 -0.619064 -1.65821 0
M  V30 7701 C 764.433 -1.48181 -3.09673 0
M  V30 7702 C 763.519 -2.67102 -3.2942 0
M  V30 7703 N 763.91 -3.92184 -3.19414 0
M  V30 7704 C 762.208 -2.6287 -3.60299 0
M  V30 7705 C 762.909 -4.71571 -3.40581 0
M  V30 7706 N 761.885 -4.03081 -3.64728 0
M  V30 7707 H 765.687 -2.45435 -1.61675 0
M  V30 7708 H 763.201 -1.40894 -0.807622 0
M  V30 7709 H 765.198 -1.501 -3.88942 0
M  V30 7710 H 763.858 -0.54712 -3.20057 0
M  V30 7711 H 764.869 -4.23756 -2.97743 0
M  V30 7712 H 761.546 -1.78324 -3.77501 0
M  V30 7713 H 762.936 -5.80571 -3.38211 0
M  V30 7714 N 765.656 0.84705 -1.32902 0
M  V30 7715 C 767.072 1.13645 -1.12058 0
M  V30 7716 C 767.272 2.01281 0.093937 0
M  V30 7717 O 766.328 2.4026 0.776608 0
M  V30 7718 C 767.641 1.80644 -2.40392 0
M  V30 7719 C 769.189 1.93246 -2.46221 0
M  V30 7720 C 769.664 2.6366 -3.74496 0
M  V30 7721 N 771.155 2.71179 -3.75521 0
M  V30 7722 C 771.89 3.26332 -4.71482 0
M  V30 7723 N 771.386 3.82236 -5.77813 0
M  V30 7724 N 773.179 3.24507 -4.58968 0
M  V30 7725 H 765.33 0.263612 -2.10758 0
M  V30 7726 H 767.593 0.17944 -0.930863 0
M  V30 7727 H 767.299 1.23708 -3.29225 0
M  V30 7728 H 767.173 2.80736 -2.51926 0
M  V30 7729 H 769.56 2.49338 -1.57843 0
M  V30 7730 H 769.641 0.921272 -2.38634 0
M  V30 7731 H 769.285 2.08229 -4.63253 0
M  V30 7732 H 769.215 3.65234 -3.79357 0
M  V30 7733 H 771.706 2.31527 -2.9867 0
M  V30 7734 H 772.019 4.22499 -6.47082 0
M  V30 7735 H 770.364 3.80546 -5.81558 0
M  V30 7736 H 773.555 2.80085 -3.7506 0
M  V30 7737 H 773.728 3.67188 -5.33926 0
M  V30 7738 N 767.134 1.16236 1.06428 0
M  V30 7739 C 768.383 0.937523 1.78587 0
M  V30 7740 C 768.696 -0.536 1.88113 0
M  V30 7741 O 769.902 -0.878697 2.56887 0
M  V30 7742 C 768.358 1.62808 3.2097 0
M  V30 7743 C 767.966 3.13927 3.19615 0
M  V30 7744 C 769.71 1.48515 3.97673 0
M  V30 7745 C 767.617 3.75727 4.56709 0
M  V30 7746 H 766.547 0.347125 0.669343 0
M  V30 7747 H 769.198 1.39353 1.19385 0
M  V30 7748 H 767.58 1.09977 3.80422 0
M  V30 7749 H 768.754 3.7359 2.69753 0
M  V30 7750 H 767.069 3.28089 2.56411 0
M  V30 7751 H 769.666 1.92069 4.99013 0
M  V30 7752 H 770.009 0.433913 4.14032 0
M  V30 7753 H 770.542 1.98494 3.44739 0
M  V30 7754 H 767.281 4.80793 4.45554 0
M  V30 7755 H 766.801 3.20849 5.0677 0
M  V30 7756 H 768.48 3.77203 5.25668 0
M  V30 7757 N 768.612 -1.24939 0.960631 0
M  V30 7758 C 769.545 -2.24116 0.429804 0
M  V30 7759 C 770.523 -1.54972 -0.492188 0
M  V30 7760 O 771.707 -1.83642 -0.42519 0
M  V30 7761 C 768.834 -3.36558 -0.380312 0
M  V30 7762 C 767.88 -4.23757 0.482941 0
M  V30 7763 S 768.713 -4.9994 1.91885 0
M  V30 7764 C 769.869 -6.15846 1.11732 0
M  V30 7765 H 770.102 -2.68795 1.27029 0
M  V30 7766 H 767.635 -1.34108 0.765141 0
M  V30 7767 H 769.593 -4.01777 -0.841764 0
M  V30 7768 H 768.254 -2.90451 -1.19569 0
M  V30 7769 H 767.447 -5.03809 -0.138699 0
M  V30 7770 H 767.049 -3.63504 0.879839 0
M  V30 7771 H 769.341 -6.76495 0.368898 0
M  V30 7772 H 770.284 -6.82356 1.89198 0
M  V30 7773 H 770.692 -5.60805 0.644812 0
M  V30 7774 N 770.09 -0.729906 -1.39679 0
M  V30 7775 C 771.336 -0.27603 -2.00913 0
M  V30 7776 C 771.669 1.13227 -1.57776 0
M  V30 7777 O 770.944 1.7709 -0.804319 0
M  V30 7778 C 771.227 -0.372157 -3.58172 0
M  V30 7779 C 771.08 -1.81986 -4.11341 0
M  V30 7780 C 772.399 0.248378 -4.39399 0
M  V30 7781 H 769.518 -0.101773 -0.729939 0
M  V30 7782 H 772.16 -0.925104 -1.65957 0
M  V30 7783 H 770.31 0.180459 -3.88081 0
M  V30 7784 H 771.982 -2.42896 -3.92172 0
M  V30 7785 H 770.225 -2.34287 -3.65092 0
M  V30 7786 H 770.896 -1.83842 -5.20486 0
M  V30 7787 H 773.372 -0.222645 -4.15504 0
M  V30 7788 H 772.248 0.150746 -5.48693 0
M  V30 7789 H 772.509 1.33378 -4.21501 0
M  V30 7790 N 771.568 1.50203 -0.477153 0
M  V30 7791 C 772.5 2.26508 0.350239 0
M  V30 7792 C 773.513 1.32081 0.95176 0
M  V30 7793 O 774.702 1.57546 0.839139 0
M  V30 7794 C 771.802 3.0361 1.50579 0
M  V30 7795 C 770.975 4.25438 1.01595 0
M  V30 7796 C 770.034 4.84783 2.04626 0
M  V30 7797 O 769.06 5.45528 1.62442 0
M  V30 7798 N 770.262 4.72318 3.37485 0
M  V30 7799 H 773.027 2.98155 -0.30394 0
M  V30 7800 H 770.588 1.58938 -0.308289 0
M  V30 7801 H 772.58 3.4019 2.1921 0
M  V30 7802 H 771.15 2.34724 2.06455 0
M  V30 7803 H 770.37 3.93894 0.155316 0
M  V30 7804 H 771.658 5.04413 0.666694 0
M  V30 7805 H 771.056 4.24022 3.74462 0
M  V30 7806 H 769.613 5.13149 4.01897 0
M  V30 7807 N 773.046 0.209999 1.56195 0
M  V30 7808 C 774.292 -0.425442 1.98287 0
M  V30 7809 C 774.625 -1.60232 1.09724 0
M  V30 7810 O 773.9 -1.93902 0.152414 0
M  V30 7811 C 774.183 -0.871189 3.49403 0
M  V30 7812 C 774.036 0.308527 4.48741 0
M  V30 7813 C 775.355 -1.73146 4.04609 0
M  V30 7814 H 772.474 -0.153169 0.720908 0
M  V30 7815 H 775.116 0.303916 1.87554 0
M  V30 7816 H 773.266 -1.49266 3.58681 0
M  V30 7817 H 774.938 0.946487 4.51486 0
M  V30 7818 H 773.181 0.957878 4.23092 0
M  V30 7819 H 773.852 -0.0461143 5.51981 0
M  V30 7820 H 776.328 -1.2072 3.98203 0
M  V30 7821 H 775.204 -2.01228 5.10684 0
M  V30 7822 H 775.465 -2.69083 3.5078 0
M  V30 7823 N 774.524 -1.57472 -0.0634922 0
M  V30 7824 C 775.749 -1.92273 -0.77756 0
M  V30 7825 C 776.174 -0.807141 -1.69902 0
M  V30 7826 O 775.532 0.239523 -1.79711 0
M  V30 7827 C 775.58 -3.26054 -1.54017 0
M  V30 7828 O 774.684 -3.15873 -2.65138 0
M  V30 7829 H 774.025 -0.629389 -0.211579 0
M  V30 7830 H 776.555 -2.04579 -0.0292523 0
M  V30 7831 H 776.565 -3.60127 -1.91763 0
M  V30 7832 H 775.24 -4.06824 -0.864128 0
M  V30 7833 H 773.817 -2.93373 -2.30189 0
M  V30 7834 N 776.003 0.335068 -1.53997 0
M  V30 7835 C 777.228 1.09859 -1.75914 0
M  V30 7836 C 777.653 1.81308 -0.500915 0
M  V30 7837 O 777.011 1.72854 0.54693 0
M  V30 7838 C 777.059 2.08122 -2.94478 0
M  V30 7839 O 776.163 3.15805 -2.65219 0
M  V30 7840 H 775.504 0.317313 -0.583274 0
M  V30 7841 H 778.034 0.382872 -2.00986 0
M  V30 7842 H 778.044 2.51195 -3.21504 0
M  V30 7843 H 776.719 1.55517 -3.8573 0
M  V30 7844 H 775.296 2.77489 -2.49107 0
M  V30 7845 N 777.481 1.45874 0.596531 0
M  V30 7846 C 778.706 1.54247 1.38646 0
M  V30 7847 C 779.131 0.179571 1.87241 0
M  V30 7848 O 778.489 -0.837831 1.6078 0
M  V30 7849 C 778.537 2.54015 2.55946 0
M  V30 7850 O 777.641 2.06561 3.5694 0
M  V30 7851 H 776.982 0.519555 0.413471 0
M  V30 7852 H 779.512 1.91327 0.724936 0
M  V30 7853 H 779.522 2.73179 3.03047 0
M  V30 7854 H 778.197 3.52994 2.19928 0
M  V30 7855 H 776.774 1.97324 3.16414 0
M  V30 7856 N 778.959 -0.83999 1.33349 0
M  V30 7857 C 779.907 -1.97113 1.23488 0
M  V30 7858 C 780.901 -1.68849 0.136503 0
M  V30 7859 O 782.107 -1.77476 0.300389 0
M  V30 7860 H 778.482 -0.647049 0.383185 0
M  V30 7861 H 780.453 -2.02554 2.19122 0
M  V30 7862 C 779.202 -3.33314 0.989815 0
M  V30 7863 H 778.525 -3.556 1.82726 0
M  V30 7864 H 779.965 -4.12963 0.961123 0
M  V30 7865 C 778.424 -3.35496 -0.307272 0
M  V30 7866 O 778.954 -3.79589 -1.31434 0
M  V30 7867 N 777.16 -2.88669 -0.334414 0
M  V30 7868 H 776.707 -2.5298 0.485659 0
M  V30 7869 H 776.665 -2.90512 -1.20209 0
M  V30 7870 N 780.437 -1.16799 -1.0581 0
M  V30 7871 C 781.684 -0.952524 -1.78699 0
M  V30 7872 C 782.012 0.51931 -1.87439 0
M  V30 7873 O 781.267 1.40151 -1.36587 0
M  V30 7874 C 781.566 -1.53111 -3.22942 0
M  V30 7875 C 781.232 -3.0261 -3.34273 0
M  V30 7876 C 779.894 -3.43418 -3.37072 0
M  V30 7877 C 782.246 -3.98611 -3.35795 0
M  V30 7878 C 779.574 -4.78838 -3.39015 0
M  V30 7879 C 781.926 -5.33923 -3.39277 0
M  V30 7880 C 780.59 -5.74205 -3.40361 0
M  V30 7881 H 779.86 -0.348553 -0.653905 0
M  V30 7882 H 782.507 -1.45591 -1.244 0
M  V30 7883 H 780.812 -0.949286 -3.80126 0
M  V30 7884 H 782.509 -1.34002 -3.77948 0
M  V30 7885 H 779.099 -2.70075 -3.32803 0
M  V30 7886 H 783.283 -3.68146 -3.32839 0
M  V30 7887 H 778.539 -5.09369 -3.38161 0
M  V30 7888 H 782.713 -6.08094 -3.39403 0
M  V30 7889 H 780.34 -6.79117 -3.4162 0
M  V30 7890 N 781.915 1.24427 -0.967243 0
M  V30 7891 C 783.326 1.74349 -0.667785 0
M  V30 7892 C 783.677 1.78403 0.816509 0
M  V30 7893 O 782.802 1.41315 1.63887 0
M  V30 7894 C 783.397 3.16628 -1.20548 0
M  V30 7895 C 781.956 3.64059 -0.955934 0
M  V30 7896 C 781.103 2.42715 -1.34106 0
M  V30 7897 H 784.054 1.10136 -1.14262 0
M  V30 7898 H 784.075 3.76183 -0.571547 0
M  V30 7899 H 783.587 3.13646 -2.28578 0
M  V30 7900 H 781.688 3.72441 0.108858 0
M  V30 7901 H 781.801 4.51549 -1.60126 0
M  V30 7902 H 780.165 2.43114 -0.759452 0
M  V30 7903 H 780.948 2.42414 -2.43085 0
M  V30 7904 N 783.393 0.737304 1.3929 0
M  V30 7905 C 784.34 0.0988364 2.30588 0
M  V30 7906 C 785.31 -0.727206 1.49335 0
M  V30 7907 O 786.495 -0.686694 1.78014 0
M  V30 7908 C 783.635 -0.800734 3.35682 0
M  V30 7909 C 782.748 0.0381731 4.31983 0
M  V30 7910 C 781.883 -0.862884 5.24145 0
M  V30 7911 C 780.922 -0.0193639 6.12097 0
M  V30 7912 N 780.059 -0.87648 6.96608 0
M  V30 7913 H 784.899 0.883031 2.84617 0
M  V30 7914 H 782.436 0.447111 1.4014 0
M  V30 7915 H 784.394 -1.33676 3.95205 0
M  V30 7916 H 783.024 -1.55088 2.83103 0
M  V30 7917 H 782.076 0.691641 3.74059 0
M  V30 7918 H 783.388 0.690294 4.94 0
M  V30 7919 H 782.542 -1.46667 5.88705 0
M  V30 7920 H 781.281 -1.54878 4.62454 0
M  V30 7921 H 780.286 0.597202 5.46547 0
M  V30 7922 H 781.511 0.663348 6.75852 0
M  V30 7923 H 779.457 -1.54762 6.37483 0
M  V30 7924 H 779.374 -0.280892 7.55478 0
M  V30 7925 H 780.642 -1.46575 7.65595 0
M  V30 7926 N 784.871 -1.49948 0.485112 0
M  V30 7927 C 786.101 -2.06506 -0.0621921 0
M  V30 7928 C 786.509 -1.34756 -1.32806 0
M  V30 7929 O 785.852 -0.41466 -1.78959 0
M  V30 7930 C 785.914 -3.57243 -0.402182 0
M  V30 7931 C 785.578 -4.50574 0.763671 0
M  V30 7932 C 786.575 -4.93032 1.6497 0
M  V30 7933 C 784.26 -4.9308 0.957973 0
M  V30 7934 C 786.254 -5.76718 2.71432 0
M  V30 7935 C 783.941 -5.76546 2.0258 0
M  V30 7936 C 784.939 -6.18267 2.90232 0
M  V30 7937 O 784.627 -7.00066 3.95174 0
M  V30 7938 H 784.359 -0.675925 0.0100672 0
M  V30 7939 H 786.913 -1.93922 0.677023 0
M  V30 7940 H 785.143 -3.6778 -1.19478 0
M  V30 7941 H 786.832 -3.96107 -0.886219 0
M  V30 7942 H 787.598 -4.60851 1.51134 0
M  V30 7943 H 783.477 -4.60117 0.285144 0
M  V30 7944 H 787.021 -6.09203 3.39878 0
M  V30 7945 H 782.918 -6.0814 2.16417 0
M  V30 7946 H 783.686 -7.18343 3.92333 0
M  V30 7947 N 786.349 -0.21828 -1.56081 0
M  V30 7948 C 787.626 0.463143 -1.90038 0
M  V30 7949 C 788.006 1.77982 -1.13515 0
M  V30 7950 O 787.354 2.27199 -0.24345 0
M  V30 7951 C 787.564 0.659292 -3.42716 0
M  V30 7952 C 788.912 0.968203 -4.13414 0
M  V30 7953 O 789.936 0.746195 -3.48296 0
M  V30 7954 O 788.795 1.38936 -5.28544 0
M  V30 7955 H 785.889 0.244435 -0.790051 0
M  V30 7956 H 788.435 -0.260221 -1.67693 0
M  V30 7957 H 787.207 -0.269584 -3.9037 0
M  V30 7958 H 786.83 1.43426 -3.7083 0
M  V30 7959 N 787.827 1.57504 0.0551401 0
M  V30 7960 C 789.243 1.54236 0.410292 0
M  V30 7961 C 789.443 0.940839 1.78187 0
M  V30 7962 O 788.499 0.550541 2.46425 0
M  V30 7963 C 789.812 2.98816 0.336064 0
M  V30 7964 C 791.36 3.10236 0.415047 0
M  V30 7965 C 791.835 4.56499 0.37055 0
M  V30 7966 N 793.326 4.61199 0.43013 0
M  V30 7967 C 794.061 5.71873 0.418179 0
M  V30 7968 N 793.557 6.91864 0.360056 0
M  V30 7969 N 795.35 5.60165 0.465977 0
M  V30 7970 H 787.501 1.94965 -0.842759 0
M  V30 7971 H 789.764 0.893096 -0.317937 0
M  V30 7972 H 789.47 3.4645 -0.605429 0
M  V30 7973 H 789.344 3.59564 1.13988 0
M  V30 7974 H 791.731 2.62566 1.34697 0
M  V30 7975 H 791.812 2.52367 -0.417648 0
M  V30 7976 H 791.456 5.0483 -0.557592 0
M  V30 7977 H 791.386 5.12249 1.221 0
M  V30 7978 H 793.877 3.74857 0.478623 0
M  V30 7979 H 794.19 7.71983 0.35532 0
M  V30 7980 H 792.535 6.94233 0.326492 0
M  V30 7981 H 795.726 4.65322 0.509194 0
M  V30 7982 H 795.899 6.46413 0.453194 0
M  V30 7983 N 789.305 -0.326896 1.54172 0
M  V30 7984 C 790.253 -1.42232 1.84046 0
M  V30 7985 C 791.247 -1.53705 0.712115 0
M  V30 7986 O 792.453 -1.56131 0.895724 0
M  V30 7987 H 788.828 -0.474568 0.583343 0
M  V30 7988 H 790.799 -1.14259 2.75658 0
M  V30 7989 C 789.548 -2.78502 2.08163 0
M  V30 7990 H 788.871 -2.70447 2.94446 0
M  V30 7991 H 790.311 -3.54228 2.33021 0
M  V30 7992 C 788.77 -3.25415 0.872152 0
M  V30 7993 O 789.3 -4.01621 0.0797648 0
M  V30 7994 N 787.506 -2.82418 0.684716 0
M  V30 7995 H 787.053 -2.20566 1.33072 0
M  V30 7996 H 787.011 -3.14159 -0.123031 0
M  V30 7997 N 790.784 -1.46188 -0.588786 0
M  V30 7998 C 792.009 -1.5498 -1.37826 0
M  V30 7999 C 792.434 -0.189498 -1.87143 0
M  V30 8000 O 791.792 0.829293 -1.61222 0
M  V30 8001 C 791.84 -2.55369 -2.54596 0
M  V30 8002 O 790.944 -2.08452 -3.55839 0
M  V30 8003 H 790.285 -0.521741 -0.41071 0
M  V30 8004 H 792.815 -1.91708 -0.714779 0
M  V30 8005 H 792.825 -2.74782 -3.01594 0
M  V30 8006 H 791.5 -3.54155 -2.18052 0
M  V30 8007 H 790.077 -1.98999 -3.15363 0
M  V30 8008 N 792.262 0.832906 -1.33792 0
M  V30 8009 C 793.21 1.96455 -1.24532 0
M  V30 8010 C 794.204 1.68774 -0.145455 0
M  V30 8011 O 795.41 1.77314 -0.309797 0
M  V30 8012 H 791.785 0.645008 -0.386611 0
M  V30 8013 H 793.756 2.01389 -2.20193 0
M  V30 8014 C 792.505 3.32784 -1.00748 0
M  V30 8015 H 791.828 3.54626 -1.84609 0
M  V30 8016 H 793.268 4.12447 -0.98301 0
M  V30 8017 C 791.727 3.35654 0.289475 0
M  V30 8018 O 792.257 3.80281 1.29419 0
M  V30 8019 N 790.463 2.88843 0.3191 0
M  V30 8020 H 790.01 2.52719 -0.499069 0
M  V30 8021 H 789.968 2.91145 1.18667 0
M  V30 8022 N 793.74 1.17359 1.05189 0
M  V30 8023 C 794.968 0.986529 1.81866 0
M  V30 8024 C 795.383 -0.46522 1.82979 0
M  V30 8025 O 794.74 -1.32305 1.25705 0
M  V30 8026 C 794.791 1.52021 3.27982 0
M  V30 8027 O 794.512 2.91511 3.27037 0
M  V30 8028 C 796.013 1.37774 4.21347 0
M  V30 8029 H 793.233 0.349021 0.573084 0
M  V30 8030 H 795.777 1.55648 1.32643 0
M  V30 8031 H 793.932 0.992287 3.74476 0
M  V30 8032 H 794.346 3.16178 4.18488 0
M  V30 8033 H 795.82 1.7993 5.21852 0
M  V30 8034 H 796.297 0.32483 4.37997 0
M  V30 8035 H 796.903 1.89583 3.80708 0
M  V30 8036 N 795.218 -1.23913 0.973828 0
M  V30 8037 C 796.466 -1.91771 0.637817 0
M  V30 8038 C 796.787 -1.76434 -0.830435 0
M  V30 8039 O 796.057 -1.13965 -1.59339 0
M  V30 8040 H 794.637 -0.709761 0.232912 0
M  V30 8041 H 797.299 -1.50677 1.23622 0
M  V30 8042 H 796.395 -2.99327 0.883731 0
M  V30 8043 N 796.696 -0.74468 -1.38897 0
M  V30 8044 C 797.944 -0.296298 -1.99916 0
M  V30 8045 C 798.265 1.12325 -1.59399 0
M  V30 8046 O 797.535 1.76658 -0.846689 0
M  V30 8047 H 796.115 -0.106561 -0.73936 0
M  V30 8048 H 798.777 -0.956793 -1.69798 0
M  V30 8049 H 797.873 -0.352356 -3.10105 0
M  V30 8050 N 798.174 1.49689 -0.493057 0
M  V30 8051 C 799.42 2.02727 0.0543518 0
M  V30 8052 C 799.753 1.37264 1.37376 0
M  V30 8053 O 799.028 0.505644 1.87812 0
M  V30 8054 C 799.311 3.59456 0.215226 0
M  V30 8055 C 799.164 4.35459 -1.12675 0
M  V30 8056 C 800.483 4.29511 0.959586 0
M  V30 8057 H 797.602 0.736773 0.0182786 0
M  V30 8058 H 800.244 1.78792 -0.642924 0
M  V30 8059 H 798.394 3.79981 0.809122 0
M  V30 8060 H 800.066 4.2645 -1.75891 0
M  V30 8061 H 798.309 3.9833 -1.71801 0
M  V30 8062 H 798.98 5.43454 -0.967578 0
M  V30 8063 H 801.456 4.13594 0.455977 0
M  V30 8064 H 800.332 5.38939 1.04098 0
M  V30 8065 H 800.593 3.94202 2.00144 0
M  V30 8066 N 799.652 0.226554 1.55963 0
M  V30 8067 C 800.901 -0.40417 1.97609 0
M  V30 8068 C 801.214 -1.60541 1.1174 0
M  V30 8069 O 802.42 -2.30598 1.43307 0
M  V30 8070 C 800.876 -0.770466 3.51556 0
M  V30 8071 C 800.484 0.408244 4.46136 0
M  V30 8072 C 802.228 -1.36651 4.01904 0
M  V30 8073 C 800.135 0.0192347 5.91397 0
M  V30 8074 H 799.065 -0.15478 0.737943 0
M  V30 8075 H 801.716 0.323558 1.80625 0
M  V30 8076 H 800.098 -1.55575 3.6416 0
M  V30 8077 H 801.272 1.18575 4.45283 0
M  V30 8078 H 799.587 0.917859 4.06158 0
M  V30 8079 H 802.184 -1.67055 5.07934 0
M  V30 8080 H 802.527 -2.28403 3.48049 0
M  V30 8081 H 803.06 -0.644556 3.92543 0
M  V30 8082 H 799.799 0.90336 6.49245 0
M  V30 8083 H 799.319 -0.722485 5.95433 0
M  V30 8084 H 800.998 -0.405711 6.45727 0
M  V30 8085 N 801.13 -1.57531 -0.0467866 0
M  V30 8086 C 802.093 -2.04379 -1.03738 0
M  V30 8087 C 803.093 -0.944881 -1.3011 0
M  V30 8088 O 804.283 -1.20904 -1.25411 0
M  V30 8089 C 801.415 -2.44572 -2.37482 0
M  V30 8090 H 802.608 -2.93142 -0.633063 0
M  V30 8091 H 800.161 -1.53526 -0.293177 0
M  V30 8092 H 800.896 -1.58911 -2.82697 0
M  V30 8093 H 800.681 -3.24785 -2.19675 0
M  V30 8094 H 802.171 -2.81307 -3.08636 0
M  V30 8095 N 802.608 0.318715 -1.54344 0
M  V30 8096 C 804.024 0.663345 -1.45162 0
M  V30 8097 C 804.224 1.9145 -0.62842 0
M  V30 8098 O 803.28 2.5217 -0.129126 0
M  V30 8099 C 804.593 0.832836 -2.88937 0
M  V30 8100 C 806.141 0.929866 -2.98869 0
M  V30 8101 C 806.616 1.13149 -4.43803 0
M  V30 8102 N 808.107 1.19811 -4.47437 0
M  V30 8103 C 808.842 1.37209 -5.56742 0
M  V30 8104 N 808.338 1.51619 -6.76006 0
M  V30 8105 N 810.131 1.39956 -5.44398 0
M  V30 8106 H 802.282 -0.50357 -2.06344 0
M  V30 8107 H 804.545 -0.163528 -0.933789 0
M  V30 8108 H 804.251 -0.0153519 -3.51697 0
M  V30 8109 H 804.125 1.72721 -3.35332 0
M  V30 8110 H 806.512 1.76855 -2.36233 0
M  V30 8111 H 806.593 0.0118561 -2.55797 0
M  V30 8112 H 806.237 0.297636 -5.07027 0
M  V30 8113 H 806.167 2.06345 -4.84489 0
M  V30 8114 H 808.658 1.101 -3.61506 0
M  V30 8115 H 808.971 1.64599 -7.55067 0
M  V30 8116 H 807.316 1.48708 -6.78904 0
M  V30 8117 H 810.507 1.28298 -4.50175 0
M  V30 8118 H 810.68 1.53172 -6.29637 0
M  V30 8119 N 804.086 1.46499 0.581025 0
M  V30 8120 C 804.996 1.59778 1.71779 0
M  V30 8121 C 806.012 0.481223 1.67213 0
M  V30 8122 O 807.188 0.74557 1.87091 0
M  V30 8123 C 804.253 1.58626 3.08283 0
M  V30 8124 C 803.314 2.81527 3.241 0
M  V30 8125 C 802.547 2.80421 4.54092 0
M  V30 8126 O 802.77 1.89262 5.38085 0
M  V30 8127 O 801.704 3.71984 4.73193 0
M  V30 8128 H 805.53 2.55918 1.63523 0
M  V30 8129 H 803.115 1.29311 0.748267 0
M  V30 8130 H 804.997 1.60686 3.89561 0
M  V30 8131 H 803.672 0.656467 3.16973 0
M  V30 8132 H 802.579 2.85021 2.42309 0
M  V30 8133 H 803.912 3.73721 3.20302 0
M  V30 8134 N 805.565 -0.825799 1.34232 0
M  V30 8135 C 806.497 -1.94401 1.21413 0
M  V30 8136 C 807.51 -1.6218 0.141902 0
M  V30 8137 O 808.699 -1.74109 0.3935 0
M  V30 8138 C 805.799 -3.28257 0.842635 0
M  V30 8139 C 804.972 -3.88521 2.00924 0
M  V30 8140 C 804.031 -5.00752 1.61661 0
M  V30 8141 O 803.057 -5.19201 2.33279 0
M  V30 8142 N 804.259 -5.78084 0.52911 0
M  V30 8143 H 807.024 -2.05931 2.17744 0
M  V30 8144 H 804.585 -1.00223 1.27149 0
M  V30 8145 H 806.577 -4.00781 0.561822 0
M  V30 8146 H 805.147 -3.12585 -0.0304029 0
M  V30 8147 H 804.367 -3.08425 2.45495 0
M  V30 8148 H 805.655 -4.25516 2.78951 0
M  V30 8149 H 805.053 -5.65661 -0.0663322 0
M  V30 8150 H 803.61 -6.51072 0.308017 0
M  V30 8151 N 807.043 -1.17915 -1.04565 0
M  V30 8152 C 807.973 -0.925033 -2.14395 0
M  V30 8153 C 808.954 0.135375 -1.6956 0
M  V30 8154 O 810.139 -0.0161774 -1.94193 0
M  V30 8155 C 807.269 -0.444469 -3.44444 0
M  V30 8156 C 806.223 -1.44478 -4.02877 0
M  V30 8157 C 805.549 -0.821933 -5.28345 0
M  V30 8158 C 806.849 -2.81995 -4.39632 0
M  V30 8159 H 808.543 -1.84354 -2.35911 0
M  V30 8160 H 806.089 -0.887806 -1.13375 0
M  V30 8161 H 808.042 -0.254078 -4.20633 0
M  V30 8162 H 806.766 0.509592 -3.226 0
M  V30 8163 H 805.425 -1.62203 -3.28764 0
M  V30 8164 H 805.073 0.139161 -5.02807 0
M  V30 8165 H 804.773 -1.48976 -5.68401 0
M  V30 8166 H 806.297 -0.641959 -6.07216 0
M  V30 8167 H 807.711 -2.67952 -5.06828 0
M  V30 8168 H 806.108 -3.45414 -4.90723 0
M  V30 8169 H 807.178 -3.35927 -3.49687 0
M  V30 8170 N 808.521 1.23394 -0.980386 0
M  V30 8171 C 809.431 2.28561 -0.528864 0
M  V30 8172 C 810.447 1.68946 0.416329 0
M  V30 8173 O 811.623 1.99355 0.286251 0
M  V30 8174 C 808.688 3.46323 0.16155 0
M  V30 8175 C 807.749 4.21297 -0.825044 0
M  V30 8176 C 806.982 5.33437 -0.167483 0
M  V30 8177 O 807.205 5.60812 1.04146 0
M  V30 8178 O 806.139 5.95637 -0.866047 0
M  V30 8179 H 809.965 2.69326 -1.40346 0
M  V30 8180 H 807.55 1.29325 -0.748019 0
M  V30 8181 H 809.432 4.17811 0.548841 0
M  V30 8182 H 808.107 3.0751 1.01092 0
M  V30 8183 H 807.014 3.52134 -1.26303 0
M  V30 8184 H 808.347 4.6396 -1.64322 0
M  V30 8185 N 809.999 0.752036 1.385 0
M  V30 8186 C 810.909 0.125318 2.34265 0
M  V30 8187 C 811.925 -0.702437 1.59191 0
M  V30 8188 O 813.101 -0.626951 1.91393 0
M  V30 8189 C 810.166 -0.758486 3.38301 0
M  V30 8190 C 809.227 0.0834636 4.29219 0
M  V30 8191 C 808.46 -0.758252 5.28286 0
M  V30 8192 O 808.683 -1.99632 5.34325 0
M  V30 8193 O 807.617 -0.177878 6.01637 0
M  V30 8194 H 811.443 0.91617 2.89551 0
M  V30 8195 H 809.028 0.512911 1.4032 0
M  V30 8196 H 810.91 -1.26365 4.02007 0
M  V30 8197 H 809.585 -1.52786 2.85374 0
M  V30 8198 H 808.492 0.634545 3.68679 0
M  V30 8199 H 809.825 0.815455 4.85398 0
M  V30 8200 N 811.477 -1.49425 0.500989 0
M  V30 8201 C 812.41 -2.25887 -0.324087 0
M  V30 8202 C 813.388 -1.30469 -0.970388 0
M  V30 8203 O 814.572 -1.59758 -1.00049 0
M  V30 8204 C 811.699 -3.05787 -1.45643 0
M  V30 8205 C 810.745 -4.16359 -0.924508 0
M  V30 8206 S 811.578 -5.35181 0.184707 0
M  V30 8207 C 812.734 -6.18636 -0.950806 0
M  V30 8208 H 812.967 -2.95519 0.324891 0
M  V30 8209 H 810.5 -1.51723 0.286289 0
M  V30 8210 H 812.458 -3.52405 -2.10525 0
M  V30 8211 H 811.119 -2.35624 -2.07703 0
M  V30 8212 H 810.312 -4.71781 -1.77311 0
M  V30 8213 H 809.914 -3.72331 -0.352907 0
M  V30 8214 H 812.206 -6.51581 -1.85603 0
M  V30 8215 H 813.149 -7.06761 -0.435212 0
M  V30 8216 H 813.557 -5.512 -1.21813 0
M  V30 8217 N 812.955 -0.234822 -1.55841 0
M  V30 8218 C 814.195 0.394944 -2.00548 0
M  V30 8219 C 814.559 1.56002 -1.11926 0
M  V30 8220 O 815.76 2.2567 -1.46037 0
M  V30 8221 C 814.031 0.805896 -3.48195 0
M  V30 8222 S 815.59 1.4279 -4.14918 0
M  V30 8223 H 812.408 0.124802 -0.699961 0
M  V30 8224 H 815.01 -0.347224 -1.92392 0
M  V30 8225 H 813.714 -0.0515271 -4.10368 0
M  V30 8226 H 813.245 1.58055 -3.60253 0
M  V30 8227 H 815.26 2.71699 -4.15204 0
M  V30 8228 N 814.433 1.57553 0.0384317 0
M  V30 8229 C 815.661 1.93093 0.743141 0
M  V30 8230 C 816.076 0.833787 1.69391 0
M  V30 8231 O 815.433 -0.190532 1.81503 0
M  V30 8232 C 815.484 3.28533 1.50826 0
M  V30 8233 O 815.205 4.34032 0.595665 0
M  V30 8234 C 816.706 3.78297 2.31098 0
M  V30 8235 H 813.926 0.637486 0.20941 0
M  V30 8236 H 816.47 2.045 -0.00125154 0
M  V30 8237 H 814.625 3.18552 2.20462 0
M  V30 8238 H 815.039 5.12155 1.13124 0
M  V30 8239 H 816.513 4.75602 2.80191 0
M  V30 8240 H 816.99 3.09008 3.12107 0
M  V30 8241 H 817.596 3.91331 1.66555 0
M  V30 8242 N 815.911 -0.310526 1.54511 0
M  V30 8243 C 816.874 -1.3657 1.84068 0
M  V30 8244 C 817.874 -1.44123 0.713097 0
M  V30 8245 O 819.064 -1.43924 0.981399 0
M  V30 8246 C 816.196 -2.75162 2.01243 0
M  V30 8247 H 817.389 -1.1161 2.78358 0
M  V30 8248 H 814.942 -0.546699 1.46427 0
M  V30 8249 H 815.677 -3.05359 1.09208 0
M  V30 8250 H 815.462 -2.71071 2.83307 0
M  V30 8251 H 816.952 -3.51473 2.25514 0
M  V30 8252 N 817.389 -1.46805 -0.573248 0
M  V30 8253 C 818.635 -1.5283 -1.33307 0
M  V30 8254 C 818.968 -0.183287 -1.93333 0
M  V30 8255 O 818.243 0.806354 -1.76998 0
M  V30 8256 C 818.526 -2.63414 -2.45531 0
M  V30 8257 C 818.379 -4.07478 -1.90478 0
M  V30 8258 C 819.698 -2.70014 -3.47535 0
M  V30 8259 H 816.817 -0.556371 -0.483343 0
M  V30 8260 H 819.459 -1.78787 -0.643066 0
M  V30 8261 H 817.609 -2.41412 -3.04389 0
M  V30 8262 H 819.281 -4.40795 -1.36004 0
M  V30 8263 H 817.524 -4.16511 -1.21248 0
M  V30 8264 H 818.195 -4.80598 -2.71531 0
M  V30 8265 H 820.671 -2.89817 -2.98572 0
M  V30 8266 H 819.547 -3.49192 -4.23504 0
M  V30 8267 H 819.808 -1.76436 -4.05367 0
M  V30 8268 N 818.867 0.818669 -1.34668 0
M  V30 8269 C 819.815 1.95123 -1.26609 0
M  V30 8270 C 820.809 1.68611 -0.163348 0
M  V30 8271 O 822.015 1.76975 -0.328586 0
M  V30 8272 H 818.39 0.640871 -0.393431 0
M  V30 8273 H 820.361 1.99043 -2.22316 0
M  V30 8274 C 819.11 3.31697 -1.04272 0
M  V30 8275 H 818.433 3.52648 -1.8836 0
M  V30 8276 H 819.873 4.11382 -1.0267 0
M  V30 8277 C 818.332 3.35942 0.253858 0
M  V30 8278 O 818.862 3.81632 1.25378 0
M  V30 8279 N 817.068 2.89165 0.288447 0
M  V30 8280 H 816.615 2.52176 -0.525845 0
M  V30 8281 H 816.573 2.92387 1.15572 0
M  V30 8282 N 820.346 1.18468 1.03938 0
M  V30 8283 C 821.762 0.934635 1.29371 0
M  V30 8284 C 821.962 -0.399067 1.97509 0
M  V30 8285 O 821.018 -1.13309 2.25648 0
M  V30 8286 C 822.331 2.10111 2.15114 0
M  V30 8287 C 823.879 2.13955 2.28456 0
M  V30 8288 C 824.354 3.30024 3.17566 0
M  V30 8289 N 825.845 3.29893 3.25153 0
M  V30 8290 C 826.58 4.16346 3.94263 0
M  V30 8291 N 826.076 5.12934 4.65693 0
M  V30 8292 N 827.869 4.04256 3.90556 0
M  V30 8293 H 820.02 2.04294 0.581185 0
M  V30 8294 H 822.283 0.892727 0.318971 0
M  V30 8295 H 821.989 3.06572 1.72355 0
M  V30 8296 H 821.863 2.06283 3.15796 0
M  V30 8297 H 824.25 1.18072 2.7045 0
M  V30 8298 H 824.331 2.2184 1.2736 0
M  V30 8299 H 823.975 4.26181 2.76283 0
M  V30 8300 H 823.905 3.19376 4.18697 0
M  V30 8301 H 826.396 2.59969 2.74271 0
M  V30 8302 H 826.709 5.75271 5.16026 0
M  V30 8303 H 825.054 5.16893 4.64593 0
M  V30 8304 H 828.245 3.28083 3.33885 0
M  V30 8305 H 828.418 4.71848 4.44144 0
M  V30 8306 N 821.824 -1.22873 0.986916 0
M  V30 8307 C 823.073 -1.90772 0.654911 0
M  V30 8308 C 823.386 -1.77768 -0.81595 0
M  V30 8309 O 824.592 -2.40529 -1.25929 0
M  V30 8310 C 823.048 -3.42003 1.12081 0
M  V30 8311 C 822.656 -3.63655 2.61647 0
M  V30 8312 C 824.4 -4.15638 0.862854 0
M  V30 8313 C 822.307 -5.08555 3.01871 0
M  V30 8314 H 821.237 -0.714362 0.241252 0
M  V30 8315 H 823.888 -1.39196 1.19568 0
M  V30 8316 H 822.27 -3.92725 0.508207 0
M  V30 8317 H 823.444 -3.2345 3.28202 0
M  V30 8318 H 821.759 -3.03341 2.8526 0
M  V30 8319 H 824.356 -5.22425 1.13915 0
M  V30 8320 H 824.699 -4.15814 -0.201036 0
M  V30 8321 H 825.232 -3.70924 1.43736 0
M  V30 8322 H 821.971 -5.13514 4.07411 0
M  V30 8323 H 821.491 -5.49684 2.40015 0
M  V30 8324 H 823.17 -5.76936 2.92839 0
M  V30 8325 N 823.302 -0.75937 -1.38099 0
M  V30 8326 C 824.252 -0.111098 -2.27729 0
M  V30 8327 C 825.236 0.687161 -1.45489 0
M  V30 8328 O 826.428 0.552167 -1.68167 0
M  V30 8329 C 823.557 0.776809 -3.34396 0
M  V30 8330 C 822.643 -0.0286108 -4.2409 0
M  V30 8331 N 823.034 -1.06797 -4.94397 0
M  V30 8332 C 821.332 0.197307 -4.45563 0
M  V30 8333 C 822.033 -1.55576 -5.6051 0
M  V30 8334 N 821.009 -0.870059 -5.36592 0
M  V30 8335 H 824.811 -0.907047 -2.79553 0
M  V30 8336 H 822.325 -0.595954 -1.5107 0
M  V30 8337 H 824.322 1.25691 -3.97502 0
M  V30 8338 H 822.982 1.57164 -2.84129 0
M  V30 8339 H 823.993 -1.44988 -4.97191 0
M  V30 8340 H 820.67 0.965028 -4.06194 0
M  V30 8341 H 822.06 -2.42184 -6.26735 0
M  V30 8342 N 824.78 1.49157 -0.508906 0
M  V30 8343 C 826.196 1.58741 -0.165372 0
M  V30 8344 C 826.396 1.5133 1.33047 0
M  V30 8345 O 825.452 1.39135 2.10707 0
M  V30 8346 C 826.765 2.91217 -0.749194 0
M  V30 8347 C 828.313 3.047 -0.716015 0
M  V30 8348 C 828.788 4.39807 -1.27804 0
M  V30 8349 N 830.279 4.46319 -1.23908 0
M  V30 8350 C 831.014 5.49325 -1.64406 0
M  V30 8351 N 830.51 6.59395 -2.12534 0
M  V30 8352 N 832.303 5.40084 -1.55773 0
M  V30 8353 H 824.454 1.52217 -1.48134 0
M  V30 8354 H 826.717 0.721514 -0.614915 0
M  V30 8355 H 826.423 3.02233 -1.79856 0
M  V30 8356 H 826.297 3.76592 -0.214144 0
M  V30 8357 H 828.684 2.9331 0.324535 0
M  V30 8358 H 828.765 2.2099 -1.2883 0
M  V30 8359 H 828.409 4.5195 -2.31741 0
M  V30 8360 H 828.339 5.2217 -0.681623 0
M  V30 8361 H 830.83 3.67354 -0.886537 0
M  V30 8362 H 831.143 7.34102 -2.41485 0
M  V30 8363 H 829.488 6.60414 -2.16513 0
M  V30 8364 H 832.679 4.52986 -1.17987 0
M  V30 8365 H 832.852 6.20233 -1.87657 0
M  V30 8366 N 826.258 0.243083 1.55714 0
M  V30 8367 C 827.506 -0.381964 1.98458 0
M  V30 8368 C 827.827 -1.58745 1.13247 0
M  V30 8369 O 827.097 -1.94723 0.214384 0
M  V30 8370 H 825.677 -0.144114 0.732967 0
M  V30 8371 H 828.339 0.340985 1.91894 0
M  V30 8372 H 827.435 -0.693702 3.04293 0
M  V30 8373 N 827.736 -1.57571 -0.0300757 0
M  V30 8374 C 829.147 -1.77567 -0.576802 0
M  V30 8375 C 829.498 -0.874034 -1.75656 0
M  V30 8376 O 828.623 -0.0686124 -2.16291 0
M  V30 8377 C 829.218 -3.22016 -1.05315 0
M  V30 8378 C 827.777 -3.43212 -1.5454 0
M  V30 8379 C 826.924 -2.73061 -0.483033 0
M  V30 8380 H 829.875 -1.57483 0.196151 0
M  V30 8381 H 829.896 -3.28474 -1.92055 0
M  V30 8382 H 829.408 -3.87613 -0.194298 0
M  V30 8383 H 827.509 -2.82788 -2.42615 0
M  V30 8384 H 827.622 -4.5182 -1.5936 0
M  V30 8385 H 825.986 -2.36805 -0.937835 0
M  V30 8386 H 826.769 -3.4134 0.366341 0
M  V30 8387 N 829.214 0.302327 -1.54673 0
M  V30 8388 C 830.124 1.39542 -1.88587 0
M  V30 8389 C 831.14 1.55543 -0.779895 0
M  V30 8390 O 832.316 1.70233 -1.07623 0
M  V30 8391 C 829.381 2.7394 -2.12504 0
M  V30 8392 C 828.442 2.66935 -3.3622 0
M  V30 8393 C 827.675 3.94923 -3.58987 0
M  V30 8394 O 827.898 4.94218 -2.84789 0
M  V30 8395 O 826.832 3.96896 -4.52501 0
M  V30 8396 H 830.658 1.13784 -2.81579 0
M  V30 8397 H 828.243 0.49827 -1.40846 0
M  V30 8398 H 830.125 3.5346 -2.29443 0
M  V30 8399 H 828.8 2.99544 -1.22698 0
M  V30 8400 H 827.707 1.85892 -3.24646 0
M  V30 8401 H 829.04 2.46283 -4.26152 0
M  V30 8402 N 830.692 1.47107 0.565454 0
M  V30 8403 C 831.642 1.55384 1.66852 0
M  V30 8404 C 832.626 0.413369 1.55499 0
M  V30 8405 O 833.818 0.66281 1.64121 0
M  V30 8406 C 830.947 1.5634 3.05635 0
M  V30 8407 C 830.033 2.75742 3.22222 0
M  V30 8408 N 830.424 4.00515 3.08903 0
M  V30 8409 C 828.722 2.7233 3.53203 0
M  V30 8410 C 829.423 4.80435 3.27959 0
M  V30 8411 N 828.399 4.1261 3.53913 0
M  V30 8412 H 832.201 2.49635 1.55111 0
M  V30 8413 H 829.715 1.42986 0.769982 0
M  V30 8414 H 831.712 1.60359 3.84825 0
M  V30 8415 H 830.372 0.631785 3.18494 0
M  V30 8416 H 831.383 4.31501 2.86404 0
M  V30 8417 H 828.06 1.8827 3.7264 0
M  V30 8418 H 829.45 5.89334 3.22699 0
M  V30 8419 N 832.17 -0.811516 1.35101 0
M  V30 8420 C 833.581 -1.38515 1.25182 0
M  V30 8421 C 833.932 -1.95846 -0.117883 0
M  V30 8422 O 833.057 -1.90925 -1.01866 0
M  V30 8423 C 833.652 -2.51813 2.26662 0
M  V30 8424 C 832.211 -3.05052 2.20499 0
M  V30 8425 C 831.358 -1.77987 2.12641 0
M  V30 8426 H 834.309 -0.614959 1.46301 0
M  V30 8427 H 834.33 -3.30228 1.89023 0
M  V30 8428 H 833.842 -2.10057 3.2634 0
M  V30 8429 H 831.943 -3.51285 1.24215 0
M  V30 8430 H 832.056 -3.63368 3.1225 0
M  V30 8431 H 830.42 -1.99342 1.5854 0
M  V30 8432 H 831.203 -1.38389 3.14171 0
M  V30 8433 N 833.648 -1.19017 -1.03309 0
M  V30 8434 C 834.873 -1.01598 -1.80811 0
M  V30 8435 C 835.298 0.430773 -1.83101 0
M  V30 8436 O 834.656 1.30946 -1.25391 0
M  V30 8437 C 834.704 -1.5845 -3.23923 0
M  V30 8438 O 833.808 -0.810972 -4.04348 0
M  V30 8439 H 833.149 -0.359398 -0.558327 0
M  V30 8440 H 835.679 -1.57945 -1.30055 0
M  V30 8441 H 835.689 -1.61486 -3.74682 0
M  V30 8442 H 834.364 -2.63752 -3.21571 0
M  V30 8443 H 832.941 -0.85353 -3.63 0
M  V30 8444 N 835.127 1.22348 -0.993418 0
M  V30 8445 C 836.077 2.221 -0.515333 0
M  V30 8446 C 837.061 1.55409 0.416762 0
M  V30 8447 O 838.253 1.75317 0.243497 0
M  V30 8448 C 835.382 3.42888 0.168173 0
M  V30 8449 C 834.468 4.16786 -0.784257 0
M  V30 8450 N 834.859 4.67435 -1.93231 0
M  V30 8451 C 833.157 4.41942 -0.600243 0
M  V30 8452 C 833.858 5.23792 -2.53016 0
M  V30 8453 N 832.834 5.12483 -1.8128 0
M  V30 8454 H 836.636 2.58902 -1.39093 0
M  V30 8455 H 834.15 1.38024 -0.855747 0
M  V30 8456 H 836.147 4.13542 0.528069 0
M  V30 8457 H 834.807 3.07598 1.03989 0
M  V30 8458 H 835.818 4.63375 -2.31309 0
M  V30 8459 H 832.495 4.16891 0.225369 0
M  V30 8460 H 833.885 5.73515 -3.50043 0
M  V30 8461 N 836.605 0.766683 1.37694 0
M  V30 8462 C 837.854 0.325425 1.99057 0
M  V30 8463 C 838.167 -1.10275 1.61551 0
M  V30 8464 O 839.373 -1.64513 2.1598 0
M  V30 8465 C 837.829 0.530886 3.55963 0
M  V30 8466 C 837.437 1.96899 4.02411 0
M  V30 8467 C 839.181 0.152997 4.24224 0
M  V30 8468 C 837.088 2.12232 5.52007 0
M  V30 8469 H 836.018 0.117929 0.744721 0
M  V30 8470 H 838.669 0.945091 1.5729 0
M  V30 8471 H 837.051 -0.158162 3.95684 0
M  V30 8472 H 838.225 2.69258 3.73948 0
M  V30 8473 H 836.54 2.303 3.46916 0
M  V30 8474 H 839.137 0.24614 5.34133 0
M  V30 8475 H 839.48 -0.896096 4.06541 0
M  V30 8476 H 840.013 0.794398 3.89787 0
M  V30 8477 H 836.752 3.15442 5.7461 0
M  V30 8478 H 836.272 1.4435 5.82171 0
M  V30 8479 H 837.951 1.9185 6.17902 0
M  V30 8480 N 838.083 -1.48885 0.516809 0
M  V30 8481 C 839.329 -2.02788 -0.0220928 0
M  V30 8482 C 839.662 -1.39433 -1.35175 0
M  V30 8483 O 838.937 -0.535459 -1.86984 0
M  V30 8484 C 839.22 -3.59753 -0.158012 0
M  V30 8485 C 839.073 -4.33611 1.19588 0
M  V30 8486 C 840.392 -4.30984 -0.891133 0
M  V30 8487 H 837.511 -0.736971 -0.00655488 0
M  V30 8488 H 840.153 -1.77746 0.671287 0
M  V30 8489 H 838.303 -3.8122 -0.748568 0
M  V30 8490 H 839.975 -4.23598 1.82653 0
M  V30 8491 H 838.218 -3.95547 1.78116 0
M  V30 8492 H 838.889 -5.41846 1.05391 0
M  V30 8493 H 841.365 -4.14267 -0.39012 0
M  V30 8494 H 840.241 -5.40527 -0.955107 0
M  V30 8495 H 840.502 -3.97336 -1.93847 0
M  V30 8496 N 839.561 -0.251338 -1.55583 0
M  V30 8497 C 840.491 0.640437 -2.24545 0
M  V30 8498 C 841.472 1.17781 -1.22726 0
M  V30 8499 O 842.657 1.21633 -1.5139 0
M  V30 8500 C 839.787 1.8355 -2.94834 0
M  V30 8501 C 838.741 1.4307 -4.03379 0
M  V30 8502 C 838.067 2.70695 -4.61116 0
M  V30 8503 C 839.367 0.59848 -5.1886 0
M  V30 8504 H 841.061 0.0653772 -2.99329 0
M  V30 8505 H 838.607 0.0300042 -1.43969 0
M  V30 8506 H 840.56 2.46505 -3.4178 0
M  V30 8507 H 839.284 2.43601 -2.17546 0
M  V30 8508 H 837.943 0.824474 -3.57209 0
M  V30 8509 H 837.591 3.28954 -3.80524 0
M  V30 8510 H 837.291 2.44332 -5.34393 0
M  V30 8511 H 838.815 3.34541 -5.10798 0
M  V30 8512 H 840.229 1.13244 -5.62004 0
M  V30 8513 H 838.626 0.430728 -5.98552 0
M  V30 8514 H 839.696 -0.38829 -4.83343 0
M  V30 8515 N 841.039 1.57585 0.0217189 0
M  V30 8516 C 842.45 1.7787 0.567377 0
M  V30 8517 C 842.801 0.883337 1.7519 0
M  V30 8518 O 841.926 0.0800819 2.16252 0
M  V30 8519 C 842.521 3.2257 1.03606 0
M  V30 8520 C 841.08 3.44026 1.52718 0
M  V30 8521 C 840.227 2.73313 0.468545 0
M  V30 8522 H 843.178 1.57377 -0.2045 0
M  V30 8523 H 843.199 3.29488 1.9031 0
M  V30 8524 H 842.711 3.87711 0.173739 0
M  V30 8525 H 840.812 2.8407 2.41111 0
M  V30 8526 H 840.925 4.52659 1.56962 0
M  V30 8527 H 839.289 2.37299 0.925263 0
M  V30 8528 H 840.072 3.41141 -0.384438 0
M  V30 8529 N 842.517 -0.29412 1.54831 0
M  V30 8530 C 843.766 -1.02614 1.73647 0
M  V30 8531 C 844.079 -1.88193 0.533162 0
M  V30 8532 O 845.285 -2.64713 0.603275 0
M  V30 8533 C 843.741 -1.87417 3.07251 0
M  V30 8534 C 843.349 -1.06806 4.35082 0
M  V30 8535 C 845.093 -2.60176 3.35423 0
M  V30 8536 C 843 -1.90926 5.59733 0
M  V30 8537 H 841.93 -0.386834 0.647206 0
M  V30 8538 H 844.581 -0.282789 1.81308 0
M  V30 8539 H 842.963 -2.65765 2.93572 0
M  V30 8540 H 844.137 -0.330226 4.59615 0
M  V30 8541 H 842.452 -0.455979 4.13896 0
M  V30 8542 H 845.049 -3.23476 4.25755 0
M  V30 8543 H 845.392 -3.29365 2.54606 0
M  V30 8544 H 845.925 -1.88871 3.50103 0
M  V30 8545 H 842.664 -1.26194 6.43238 0
M  V30 8546 H 842.184 -2.62363 5.39375 0
M  V30 8547 H 843.863 -2.48807 5.97247 0
M  V30 8548 N 843.995 -1.47404 -0.557645 0
M  V30 8549 C 845.244 -1.53268 -1.31118 0
M  V30 8550 C 845.557 -0.199414 -1.94581 0
M  V30 8551 O 846.763 -0.136039 -2.71159 0
M  V30 8552 C 845.219 -2.70178 -2.37764 0
M  V30 8553 C 844.827 -4.10032 -1.80493 0
M  V30 8554 C 846.571 -2.85334 -3.14301 0
M  V30 8555 C 844.478 -5.18244 -2.84916 0
M  V30 8556 H 843.408 -0.570491 -0.493007 0
M  V30 8557 H 846.059 -1.73678 -0.592308 0
M  V30 8558 H 844.441 -2.43147 -3.12563 0
M  V30 8559 H 845.615 -4.46964 -1.12069 0
M  V30 8560 H 843.93 -3.99759 -1.16542 0
M  V30 8561 H 846.527 -3.63347 -3.92279 0
M  V30 8562 H 846.87 -1.93761 -3.68459 0
M  V30 8563 H 847.403 -3.12133 -2.46613 0
M  V30 8564 H 844.142 -6.11691 -2.35614 0
M  V30 8565 H 843.662 -4.85829 -3.51753 0
M  V30 8566 H 845.341 -5.45174 -3.48417 0
M  V30 8567 N 845.473 0.80434 -1.35529 0
M  V30 8568 C 846.42 1.91629 -1.28635 0
M  V30 8569 C 847.39 1.65348 -0.157862 0
M  V30 8570 O 848.575 1.87711 -0.341934 0
M  V30 8571 C 845.715 3.28207 -1.0665 0
M  V30 8572 C 844.828 3.66659 -2.28441 0
M  V30 8573 C 843.963 4.92279 -1.99588 0
M  V30 8574 C 843.002 5.23365 -3.1742 0
M  V30 8575 N 842.139 6.40165 -2.88328 0
M  V30 8576 H 846.979 1.96858 -2.23721 0
M  V30 8577 H 844.516 0.962871 -1.11208 0
M  V30 8578 H 846.474 4.06945 -0.919343 0
M  V30 8579 H 845.104 3.22441 -0.152253 0
M  V30 8580 H 844.156 2.83164 -2.54013 0
M  V30 8581 H 845.468 3.8559 -3.1642 0
M  V30 8582 H 844.622 5.78847 -1.81715 0
M  V30 8583 H 843.361 4.75387 -1.08896 0
M  V30 8584 H 842.366 4.35285 -3.35867 0
M  V30 8585 H 843.591 5.42185 -4.08916 0
M  V30 8586 H 841.537 6.24694 -2.00233 0
M  V30 8587 H 841.454 6.59357 -3.69843 0
M  V30 8588 H 842.722 7.29755 -2.74002 0
M  V30 8589 N 846.951 1.19563 1.02676 0
M  V30 8590 C 848.367 0.948304 1.28372 0
M  V30 8591 C 848.567 -0.378096 1.97921 0
M  V30 8592 O 847.623 -1.1091 2.26838 0
M  V30 8593 C 848.936 2.12381 2.12873 0
M  V30 8594 C 850.484 2.16366 2.26174 0
M  V30 8595 C 850.959 3.33374 3.14048 0
M  V30 8596 N 852.45 3.33323 3.21636 0
M  V30 8597 C 853.185 4.20504 3.89825 0
M  V30 8598 N 852.681 5.17845 4.60227 0
M  V30 8599 N 854.474 4.08375 3.86246 0
M  V30 8600 H 846.625 2.04899 0.559485 0
M  V30 8601 H 848.888 0.89606 0.309484 0
M  V30 8602 H 848.594 3.08383 1.69094 0
M  V30 8603 H 848.468 2.09621 3.1359 0
M  V30 8604 H 850.855 1.20933 2.69182 0
M  V30 8605 H 850.936 2.23179 1.25 0
M  V30 8606 H 850.58 4.29087 2.71747 0
M  V30 8607 H 850.51 3.23798 4.15286 0
M  V30 8608 H 853.001 2.62863 2.71498 0
M  V30 8609 H 853.314 5.80712 5.09896 0
M  V30 8610 H 851.659 5.21791 4.59085 0
M  V30 8611 H 854.85 3.31606 3.30386 0
M  V30 8612 H 855.023 4.76532 4.39114 0
M  V30 8613 O 848.468 -1.15601 1.12777 0
M  V30 8614 H 849.159 -1.74498 0.840847 0
M  V30 END ATOM
M  V30 BEGIN BOND
M  V30 END BOND
M  V30 END CTAB
M  END
$$$$
