drugbank_target|Q9L915 Cytochrome c3 (DB03317)
 OpenBabel12092120263D

  0  0  0     0  0            999 V3000
M  V30 BEGIN CTAB
M  V30 COUNTS 1951 1972 0 0 0
M  V30 BEGIN ATOM
M  V30 1 H -0.908 1.98254 -0.117106 0
M  V30 2 N 0 1.576 0 0
M  V30 3 C 0.933 2.03868 1.02534 0
M  V30 4 C 1.911 0.928543 1.3348 0
M  V30 5 O 3.095 1.19667 1.45644 0
M  V30 6 C 0.222 2.43627 2.35294 0
M  V30 7 C -0.732 3.65373 2.2001 0
M  V30 8 S 0.101 5.13292 1.52614 0
M  V30 9 C 1.257 5.56322 2.86805 0
M  V30 10 H 1.49 2.90518 0.631377 0
M  V30 11 H -0.977 1.52953 0.210867 0
M  V30 12 H 0.981 2.67203 3.11629 0
M  V30 13 H -0.358 1.57376 2.7183 0
M  V30 14 H -1.165 3.90944 3.18086 0
M  V30 15 H -1.563 3.418 1.51819 0
M  V30 16 H 0.729 5.58782 3.83104 0
M  V30 17 H 1.672 6.56266 2.65933 0
M  V30 18 H 2.08 4.83886 2.90714 0
M  V30 19 N 1.4781 -0.272755 1.55222 0
M  V30 20 C 2.4251 -1.33716 1.88119 0
M  V30 21 C 3.3951 -1.49066 0.73271 0
M  V30 22 O 4.5801 -1.63469 0.984002 0
M  V30 23 C 1.7201 -2.69238 2.15882 0
M  V30 24 C 0.8331 -2.62108 3.43399 0
M  V30 25 C -0.0319 -3.89811 3.60861 0
M  V30 26 C -0.9929 -3.77193 4.8207 0
M  V30 27 N -1.8559 -4.9673 4.96189 0
M  V30 28 H 2.9841 -1.04962 2.78903 0
M  V30 29 H 0.5211 -0.507088 1.38083 0
M  V30 30 H 2.4791 -3.48089 2.29978 0
M  V30 31 H 1.1091 -2.96194 1.28331 0
M  V30 32 H 0.1611 -1.74967 3.37773 0
M  V30 33 H 1.4731 -2.48685 4.32386 0
M  V30 34 H 0.6271 -4.77103 3.74777 0
M  V30 35 H -0.6339 -4.06102 2.7006 0
M  V30 36 H -1.6289 -2.88284 4.68159 0
M  V30 37 H -0.4039 -3.62421 5.74307 0
M  V30 38 H -2.4579 -5.13431 4.08319 0
M  V30 39 H -2.5409 -4.85839 5.79221 0
M  V30 40 H -1.2729 -5.85594 5.1449 0
M  V30 41 N 2.9562 -1.48159 -0.537278 0
M  V30 42 C 3.9032 -1.62138 -1.64256 0
M  V30 43 C 4.8732 -0.463668 -1.59497 0
M  V30 44 O 6.0582 -0.686241 -1.78032 0
M  V30 45 C 3.1982 -1.66028 -3.02537 0
M  V30 46 C 2.3112 -2.92855 -3.17585 0
M  V30 47 C 1.4462 -2.87952 -4.46382 0
M  V30 48 C 0.4852 -4.09516 -4.54932 0
M  V30 49 N -0.3778 -4.02733 -5.75109 0
M  V30 50 H 4.4622 -2.56529 -1.51647 0
M  V30 51 H 1.9992 -1.27224 -0.738414 0
M  V30 52 H 3.9572 -1.66265 -3.82638 0
M  V30 53 H 2.5872 -0.751331 -3.13934 0
M  V30 54 H 1.6392 -3.02395 -2.30784 0
M  V30 55 H 2.9512 -3.82822 -3.19764 0
M  V30 56 H 2.1052 -2.8655 -5.34765 0
M  V30 57 H 0.8442 -1.95702 -4.46712 0
M  V30 58 H -0.1508 -4.11201 -3.64957 0
M  V30 59 H 1.0742 -5.02917 -4.56346 0
M  V30 60 H -0.9798 -3.13299 -5.76351 0
M  V30 61 H -1.0628 -4.86397 -5.78752 0
M  V30 62 H 0.2052 -4.05379 -6.65799 0
M  V30 63 N 4.4343 0.785586 -1.36625 0
M  V30 64 C 5.6623 1.57448 -1.3423 0
M  V30 65 C 6.0773 1.88649 0.0755653 0
M  V30 66 O 5.4343 1.50414 1.03354 0
M  V30 67 C 5.4853 2.89316 -2.16745 0
M  V30 68 O 5.2063 2.59459 -3.53005 0
M  V30 69 C 6.7073 3.83606 -2.22174 0
M  V30 70 H 3.9273 0.488226 -0.4603 0
M  V30 71 H 6.4713 0.974733 -1.79775 0
M  V30 72 H 4.6263 3.4575 -1.74745 0
M  V30 73 H 5.0403 3.43804 -3.96105 0
M  V30 74 H 6.5143 4.73181 -2.8426 0
M  V30 75 H 6.9913 4.21734 -1.22627 0
M  V30 76 H 7.5973 3.33104 -2.64427 0
M  V30 77 N 5.9124 1.20967 1.01018 0
M  V30 78 C 6.8424 0.988272 2.11555 0
M  V30 79 C 7.8234 -0.0849778 1.69888 0
M  V30 80 O 9.0084 0.0738202 1.9406 0
M  V30 81 C 6.1384 0.546528 3.42973 0
M  V30 82 C 5.0924 1.56375 3.9841 0
M  V30 83 C 4.4184 0.97842 5.25672 0
M  V30 84 C 5.7184 2.94922 4.31066 0
M  V30 85 H 7.4124 1.91276 2.30334 0
M  V30 86 H 4.9584 0.921073 1.1069 0
M  V30 87 H 6.9114 0.378839 4.19694 0
M  V30 88 H 5.6354 -0.413598 3.23971 0
M  V30 89 H 4.2944 1.71891 3.23804 0
M  V30 90 H 3.9424 0.0101688 5.02999 0
M  V30 91 H 3.6424 1.65784 5.63728 0
M  V30 92 H 5.1664 0.821939 6.05043 0
M  V30 93 H 6.5804 2.8288 4.9865 0
M  V30 94 H 4.9774 3.5983 4.80253 0
M  V30 95 H 6.0474 3.4616 3.39561 0
M  V30 96 N 7.3905 -1.2043 1.01659 0
M  V30 97 C 8.3535 -2.21433 0.591616 0
M  V30 98 C 9.3535 -1.57203 -0.338226 0
M  V30 99 O 10.5435 -1.73737 -0.126918 0
M  V30 100 C 7.6755 -3.40628 -0.136058 0
M  V30 101 H 8.8685 -2.60545 1.48514 0
M  V30 102 H 6.4215 -1.33893 0.806379 0
M  V30 103 H 7.1565 -3.07019 -1.04449 0
M  V30 104 H 6.9415 -3.88475 0.531917 0
M  V30 105 H 8.4315 -4.15475 -0.420735 0
M  V30 106 N 8.8686 -0.792821 -1.36206 0
M  V30 107 C 9.7986 -0.207853 -2.32573 0
M  V30 108 C 10.7796 0.659055 -1.56813 0
M  V30 109 O 11.9646 0.592176 -1.84951 0
M  V30 110 C 9.0946 0.655449 -3.41059 0
M  V30 111 C 8.0486 -0.111842 -4.27854 0
M  V30 112 C 7.3746 0.872274 -5.27537 0
M  V30 113 C 8.6746 -1.30299 -5.05786 0
M  V30 114 H 10.3686 -1.01294 -2.81744 0
M  V30 115 H 7.9146 -0.48854 -1.3546 0
M  V30 116 H 9.8676 1.07464 -4.07467 0
M  V30 117 H 8.5916 1.49328 -2.90463 0
M  V30 118 H 7.2506 -0.512053 -3.63006 0
M  V30 119 H 6.8986 1.70523 -4.73214 0
M  V30 120 H 6.5986 0.363291 -5.86476 0
M  V30 121 H 8.1226 1.28996 -5.96818 0
M  V30 122 H 9.5366 -0.959379 -5.65216 0
M  V30 123 H 7.9336 -1.7455 -5.74154 0
M  V30 124 H 9.0036 -2.09663 -4.37229 0
M  V30 125 N 10.3467 1.47872 -0.545128 0
M  V30 126 C 11.5747 2.06889 -0.021084 0
M  V30 127 C 11.9897 1.39955 1.2672 0
M  V30 128 O 11.3467 0.492036 1.75742 0
M  V30 129 C 11.3977 3.60996 0.190817 0
M  V30 130 O 11.1187 4.25419 -1.04644 0
M  V30 131 C 12.6197 4.36849 0.753521 0
M  V30 132 H 9.8397 0.669785 -0.0403635 0
M  V30 133 H 12.3837 1.90049 -0.755095 0
M  V30 134 H 10.5387 3.77391 0.87492 0
M  V30 135 H 10.9527 5.17785 -0.836611 0
M  V30 136 H 12.4267 5.45399 0.851139 0
M  V30 137 H 12.9037 4.02306 1.762 0
M  V30 138 H 13.5097 4.25169 0.105503 0
M  V30 139 N 11.8248 0.280983 1.55075 0
M  V30 140 C 13.0648 -0.335234 2.01632 0
M  V30 141 C 13.4288 -1.5261 1.16508 0
M  V30 142 O 14.6298 -2.21235 1.52672 0
M  V30 143 C 12.9008 -0.702172 3.50434 0
M  V30 144 S 14.4598 -1.30409 4.18974 0
M  V30 145 H 11.2778 -0.103967 0.703358 0
M  V30 146 H 13.8798 0.404187 1.91276 0
M  V30 147 H 12.5838 0.17333 4.10034 0
M  V30 148 H 12.1148 -1.4729 3.64786 0
M  V30 149 H 14.1298 -2.59253 4.23087 0
M  V30 150 N 13.3029 -1.57598 0.00835791 0
M  V30 151 C 14.2359 -2.04409 -1.01451 0
M  V30 152 C 15.2139 -0.935609 -1.32985 0
M  V30 153 O 16.3979 -1.20437 -1.45007 0
M  V30 154 C 13.5249 -2.44872 -2.33999 0
M  V30 155 C 12.5709 -3.66535 -2.18069 0
M  V30 156 S 13.4039 -5.14095 -1.4989 0
M  V30 157 C 14.5599 -5.57835 -2.8385 0
M  V30 158 H 14.7929 -2.90849 -0.615961 0
M  V30 159 H 12.3259 -1.53063 -0.202752 0
M  V30 160 H 14.2839 -2.68852 -3.10208 0
M  V30 161 H 12.9449 -1.58815 -2.70992 0
M  V30 162 H 12.1379 -3.92626 -3.16008 0
M  V30 163 H 11.7399 -3.426 -1.50004 0
M  V30 164 H 14.0319 -5.60806 -3.80136 0
M  V30 165 H 14.9749 -6.57667 -2.62449 0
M  V30 166 H 15.3829 -4.85421 -2.88144 0
M  V30 167 N 14.781 0.264519 -1.55364 0
M  V30 168 C 15.711 1.33121 -1.91836 0
M  V30 169 C 16.692 1.51101 -0.781192 0
M  V30 170 O 17.877 1.64003 -1.04003 0
M  V30 171 C 15.007 2.68921 -2.19769 0
M  V30 172 C 13.961 2.65661 -3.35571 0
M  V30 173 C 13.287 4.05093 -3.49004 0
M  V30 174 C 14.587 2.24187 -4.71739 0
M  V30 175 H 16.281 1.02844 -2.81182 0
M  V30 176 H 13.827 0.493286 -1.35287 0
M  V30 177 H 15.78 3.43663 -2.43872 0
M  V30 178 H 14.504 3.00799 -1.27231 0
M  V30 179 H 13.163 1.93377 -3.1145 0
M  V30 180 H 12.811 4.34206 -2.53917 0
M  V30 181 H 12.511 4.03804 -4.26868 0
M  V30 182 H 14.035 4.81561 -3.75408 0
M  V30 183 H 15.449 2.88654 -4.9533 0
M  V30 184 H 13.846 2.34044 -5.52579 0
M  V30 185 H 14.916 1.19327 -4.69988 0
M  V30 186 N 16.2591 1.48442 0.529413 0
M  V30 187 C 17.2221 1.62524 1.61612 0
M  V30 188 C 18.2221 0.498509 1.52877 0
M  V30 189 O 19.4121 0.76431 1.56537 0
M  V30 190 C 16.5441 1.59597 3.01233 0
M  V30 191 H 17.7371 2.59423 1.50465 0
M  V30 192 H 15.2901 1.37047 0.751514 0
M  V30 193 H 16.0251 0.641781 3.17886 0
M  V30 194 H 15.8101 2.41397 3.08982 0
M  V30 195 H 17.3001 1.72646 3.80241 0
M  V30 196 N 17.7372 -0.778329 1.37039 0
M  V30 197 C 18.6672 -1.90546 1.34962 0
M  V30 198 C 19.6482 -1.68681 0.219274 0
M  V30 199 O 20.8332 -1.89634 0.418624 0
M  V30 200 C 17.9632 -3.27734 1.14925 0
M  V30 201 C 16.9172 -3.64147 2.24902 0
M  V30 202 C 16.2432 -4.99806 1.89996 0
M  V30 203 C 17.5432 -3.71579 3.67051 0
M  V30 204 H 19.2372 -1.92541 2.29277 0
M  V30 205 H 16.7832 -0.924948 1.10366 0
M  V30 206 H 18.7362 -4.06215 1.12104 0
M  V30 207 H 17.4602 -3.26154 0.170631 0
M  V30 208 H 16.1192 -2.8797 2.26868 0
M  V30 209 H 15.7672 -4.94759 0.906796 0
M  V30 210 H 15.4672 -5.25139 2.63634 0
M  V30 211 H 16.9912 -5.80694 1.88749 0
M  V30 212 H 18.4052 -4.40227 3.67251 0
M  V30 213 H 16.8022 -4.08405 4.39688 0
M  V30 214 H 17.8722 -2.72404 4.01154 0
M  V30 215 N 19.2153 -1.21501 -1.00376 0
M  V30 216 C 20.1453 -0.999478 -2.11028 0
M  V30 217 C 21.1263 0.0759671 -1.6993 0
M  V30 218 O 22.3113 -0.0841106 -1.94018 0
M  V30 219 C 19.4413 -0.564709 -3.42678 0
M  V30 220 C 18.3953 -1.58486 -3.97576 0
M  V30 221 C 17.7213 -1.00628 -5.25146 0
M  V30 222 C 19.0213 -2.97204 -4.29496 0
M  V30 223 H 20.7153 -1.92495 -2.29317 0
M  V30 224 H 18.2613 -0.92693 -1.102 0
M  V30 225 H 20.2143 -0.401091 -4.19487 0
M  V30 226 H 18.9383 0.396411 -3.24185 0
M  V30 227 H 17.5973 -1.73606 -3.22888 0
M  V30 228 H 17.2453 -0.0368439 -5.02987 0
M  V30 229 H 16.9453 -1.68771 -5.62841 0
M  V30 230 H 18.4693 -0.854015 -6.04598 0
M  V30 231 H 19.8833 -2.8552 -4.97143 0
M  V30 232 H 18.2803 -3.62372 -4.78338 0
M  V30 233 H 19.3503 -3.47956 -3.3772 0
M  V30 234 N 20.6934 1.19889 -1.02296 0
M  V30 235 C 21.6234 2.25141 -0.619174 0
M  V30 236 C 22.6044 1.66051 0.368915 0
M  V30 237 O 23.7894 1.92546 0.252941 0
M  V30 238 C 20.9194 3.4728 0.0368783 0
M  V30 239 C 19.8734 4.19005 -0.872865 0
M  V30 240 C 19.1994 5.34637 -0.0822402 0
M  V30 241 C 20.4994 4.74452 -2.18387 0
M  V30 242 H 22.1934 2.59171 -1.49903 0
M  V30 243 H 19.7394 1.24579 -0.722222 0
M  V30 244 H 21.6924 4.20098 0.330958 0
M  V30 245 H 20.4164 3.12433 0.95149 0
M  V30 246 H 19.0754 3.48061 -1.15105 0
M  V30 247 H 18.7234 4.96034 0.83422 0
M  V30 248 H 18.4234 5.83557 -0.688149 0
M  V30 249 H 19.9474 6.10255 0.205238 0
M  V30 250 H 21.3614 5.39055 -1.95172 0
M  V30 251 H 19.7584 5.33834 -2.74119 0
M  V30 252 H 20.8284 3.92844 -2.84257 0
M  V30 253 N 22.1715 0.800033 1.35784 0
M  V30 254 C 23.1345 0.211565 2.28221 0
M  V30 255 C 24.1345 -0.59728 1.49296 0
M  V30 256 O 25.3245 -0.416721 1.69142 0
M  V30 257 C 22.4565 -0.705846 3.33513 0
M  V30 258 H 23.6495 1.02677 2.81776 0
M  V30 259 H 21.2025 0.570211 1.45528 0
M  V30 260 H 21.9375 -1.54498 2.85133 0
M  V30 261 H 21.7225 -0.127655 3.91892 0
M  V30 262 H 23.2125 -1.11211 4.02519 0
M  V30 263 N 23.6496 -1.47581 0.552962 0
M  V30 264 C 24.8956 -2.02782 0.0273648 0
M  V30 265 C 25.2286 -1.42687 -1.31734 0
M  V30 266 O 24.5036 -0.580897 -1.85623 0
M  V30 267 C 24.7866 -3.60031 -0.0702371 0
M  V30 268 C 24.6396 -4.30566 1.30126 0
M  V30 269 C 25.9586 -4.33028 -0.785771 0
M  V30 270 H 23.0776 -0.736912 0.0114185 0
M  V30 271 H 25.7196 -1.76056 0.714432 0
M  V30 272 H 23.8696 -3.82932 -0.655382 0
M  V30 273 H 25.5416 -4.19018 1.92929 0
M  V30 274 H 23.7846 -3.91086 1.87709 0
M  V30 275 H 24.4556 -5.39114 1.18573 0
M  V30 276 H 26.9316 -4.15095 -0.288982 0
M  V30 277 H 25.8076 -5.42695 -0.823013 0
M  V30 278 H 26.0686 -4.01945 -1.841 0
M  V30 279 N 25.1277 -0.289203 -1.54924 0
M  V30 280 C 26.3527 0.329299 -2.04769 0
M  V30 281 C 26.7777 1.4763 -1.16564 0
M  V30 282 O 26.1357 1.80527 -0.167186 0
M  V30 283 C 26.1837 0.774438 -3.52186 0
M  V30 284 O 25.2877 1.88038 -3.67036 0
M  V30 285 H 24.6287 0.0659259 -0.660719 0
M  V30 286 H 27.1587 -0.42761 -2.00082 0
M  V30 287 H 27.1687 1.06642 -3.93816 0
M  V30 288 H 25.8437 -0.0646707 -4.1585 0
M  V30 289 H 24.4207 1.58985 -3.3731 0
M  V30 290 N 26.6058 1.57591 -0.0167156 0
M  V30 291 C 27.5688 2.08393 0.954204 0
M  V30 292 C 28.5688 0.996531 1.26198 0
M  V30 293 O 29.7588 1.25858 1.20438 0
M  V30 294 C 26.8908 2.5394 2.27436 0
M  V30 295 H 28.0838 2.95455 0.514451 0
M  V30 296 H 25.6368 1.54582 0.231089 0
M  V30 297 H 26.3718 1.70171 2.76066 0
M  V30 298 H 26.1568 3.33371 2.06412 0
M  V30 299 H 27.6468 2.93512 2.97053 0
M  V30 300 N 28.0839 -0.256276 1.55502 0
M  V30 301 C 29.3299 -0.982884 1.78076 0
M  V30 302 C 29.6849 -1.83319 0.584109 0
M  V30 303 O 28.9779 -1.86875 -0.422877 0
M  V30 304 C 29.1719 -1.88432 3.03691 0
M  V30 305 C 29.0009 -1.12276 4.35459 0
M  V30 306 C 27.7709 -0.831647 4.98409 0
M  V30 307 C 29.9689 -0.504933 5.11815 0
M  V30 308 N 27.9509 -0.0450423 6.13883 0
M  V30 309 C 29.3219 0.146696 6.19826 0
M  V30 310 C 31.3769 -0.414455 4.96172 0
M  V30 311 C 30.0799 0.880103 7.13895 0
M  V30 312 C 32.1059 0.305398 5.90611 0
M  V30 313 C 31.4679 0.945701 6.98023 0
M  V30 314 H 27.5669 -0.341084 0.703694 0
M  V30 315 H 30.1509 -0.256909 1.92998 0
M  V30 316 H 28.3219 -2.58241 2.90114 0
M  V30 317 H 30.0539 -2.54579 3.14598 0
M  V30 318 H 26.8089 -1.14111 4.59647 0
M  V30 319 H 27.2329 0.336079 6.76165 0
M  V30 320 H 31.8749 -0.895163 4.13215 0
M  V30 321 H 29.5929 1.37244 7.9636 0
M  V30 322 H 33.1789 0.375946 5.80584 0
M  V30 323 H 32.0589 1.49383 7.6984 0
M  V30 324 N 29.562 -1.4872 -0.521534 0
M  V30 325 C 30.525 -1.63379 -1.60748 0
M  V30 326 C 31.525 -0.50661 -1.52611 0
M  V30 327 O 32.715 -0.772601 -1.5613 0
M  V30 328 C 29.847 -1.61192 -3.00383 0
M  V30 329 H 31.04 -2.60217 -1.49087 0
M  V30 330 H 28.593 -1.37444 -0.744235 0
M  V30 331 H 29.328 -0.65863 -3.17541 0
M  V30 332 H 29.113 -2.43032 -3.07698 0
M  V30 333 H 30.603 -1.7466 -3.7932 0
M  V30 334 N 31.0401 0.771051 -1.3745 0
M  V30 335 C 32.0031 1.86598 -1.33093 0
M  V30 336 C 33.0031 1.59076 -0.234845 0
M  V30 337 O 34.1931 1.67145 -0.490732 0
M  V30 338 C 31.3251 3.23747 -1.06773 0
M  V30 339 H 32.5181 1.91873 -2.30488 0
M  V30 340 H 30.0711 0.970876 -1.2249 0
M  V30 341 H 30.8061 3.24148 -0.099129 0
M  V30 342 H 30.5911 3.45115 -1.86112 0
M  V30 343 H 32.0811 4.03824 -1.06377 0
M  V30 344 N 32.5182 1.22032 0.997298 0
M  V30 345 C 33.9292 1.0397 1.55071 0
M  V30 346 C 34.2802 -0.398192 1.92117 0
M  V30 347 O 33.4052 -1.28254 1.74298 0
M  V30 348 C 34.0002 1.88109 2.81781 0
M  V30 349 C 32.5592 1.74357 3.33581 0
M  V30 350 C 31.7062 1.84846 2.06706 0
M  V30 351 H 34.6572 1.35941 0.818883 0
M  V30 352 H 34.6782 1.39589 3.53971 0
M  V30 353 H 34.1902 2.92754 2.54787 0
M  V30 354 H 32.2912 0.72427 3.65493 0
M  V30 355 H 32.4042 2.56772 4.04481 0
M  V30 356 H 30.7682 1.28238 2.20062 0
M  V30 357 H 31.5512 2.91014 1.82114 0
M  V30 358 N 33.9963 -1.19345 1.0293 0
M  V30 359 C 34.9593 -2.20793 0.615069 0
M  V30 360 C 35.9593 -1.57553 -0.321533 0
M  V30 361 O 37.1493 -1.73862 -0.108483 0
M  V30 362 C 34.2813 -3.40754 -0.0999222 0
M  V30 363 H 35.4743 -2.58955 1.51269 0
M  V30 364 H 33.0273 -1.3303 0.820534 0
M  V30 365 H 33.7623 -3.0811 -1.01187 0
M  V30 366 H 33.5473 -3.87889 0.57309 0
M  V30 367 H 35.0373 -4.15898 -0.376645 0
M  V30 368 N 35.4744 -0.807222 -1.35358 0
M  V30 369 C 36.7204 -0.388463 -1.99045 0
M  V30 370 C 37.0534 1.04184 -1.63888 0
M  V30 371 O 36.3284 1.72292 -0.902535 0
M  V30 372 C 36.6114 -0.572783 -3.55515 0
M  V30 373 C 36.4644 -2.04807 -4.00468 0
M  V30 374 C 37.7834 0.00114064 -4.401 0
M  V30 375 H 34.9024 -0.142619 -0.723069 0
M  V30 376 H 37.5444 -1.01687 -1.60498 0
M  V30 377 H 35.6944 -0.0378425 -3.88482 0
M  V30 378 H 37.3664 -2.64544 -3.77908 0
M  V30 379 H 35.6094 -2.54427 -3.51353 0
M  V30 380 H 36.2804 -2.12792 -5.09337 0
M  V30 381 H 38.7564 -0.455716 -4.13597 0
M  V30 382 H 37.6324 -0.157737 -5.48673 0
M  V30 383 H 37.8934 1.09488 -4.28328 0
M  V30 384 N 36.9525 1.47285 -0.560781 0
M  V30 385 C 38.3635 1.86258 -0.128343 0
M  V30 386 C 38.7145 1.46699 1.30284 0
M  V30 387 O 37.8395 0.871698 1.98067 0
M  V30 388 C 38.4345 3.38044 -0.22614 0
M  V30 389 C 36.9935 3.76096 0.151283 0
M  V30 390 C 36.1405 2.71335 -0.572084 0
M  V30 391 H 39.0915 1.38752 -0.770297 0
M  V30 392 H 39.1125 3.76441 0.554322 0
M  V30 393 H 38.6245 3.66806 -1.26788 0
M  V30 394 H 36.7255 3.52951 1.19399 0
M  V30 395 H 36.8385 4.78641 -0.209765 0
M  V30 396 H 35.2025 2.54696 -0.0147653 0
M  V30 397 H 35.9855 3.02938 -1.61504 0
M  V30 398 N 38.4306 0.297415 1.54768 0
M  V30 399 C 39.7076 -0.365847 1.92148 0
M  V30 400 C 40.0876 -1.71975 1.22424 0
M  V30 401 O 39.4356 -2.25666 0.358739 0
M  V30 402 C 39.6456 -0.484056 3.45627 0
M  V30 403 C 40.9936 -0.756594 4.17805 0
M  V30 404 O 42.0176 -0.568007 3.51642 0
M  V30 405 O 40.8766 -1.11863 5.34929 0
M  V30 406 H 37.9706 -0.203919 0.801465 0
M  V30 407 H 40.5166 0.34521 1.66152 0
M  V30 408 H 39.2886 0.467865 3.88493 0
M  V30 409 H 38.9116 -1.24372 3.77647 0
M  V30 410 N 39.9087 -1.5758 0.0250728 0
M  V30 411 C 40.8557 -2.09973 -0.958129 0
M  V30 412 C 41.8257 -1.00085 -1.3256 0
M  V30 413 O 43.0107 -1.27481 -1.41962 0
M  V30 414 C 40.1507 -2.62812 -2.2366 0
M  V30 415 C 39.2637 -3.86693 -1.92594 0
M  V30 416 C 38.3987 -4.27941 -3.14707 0
M  V30 417 C 37.4377 -5.44591 -2.79442 0
M  V30 418 N 36.5747 -5.81014 -3.94167 0
M  V30 419 H 41.4147 -2.937 -0.504428 0
M  V30 420 H 38.9517 -1.45172 -0.237392 0
M  V30 421 H 40.9097 -2.91536 -2.98434 0
M  V30 422 H 39.5397 -1.81922 -2.66654 0
M  V30 423 H 38.5917 -3.64723 -1.0808 0
M  V30 424 H 39.9037 -4.71547 -1.62619 0
M  V30 425 H 39.0577 -4.58079 -3.97804 0
M  V30 426 H 37.7967 -3.41845 -3.4784 0
M  V30 427 H 36.8017 -5.1415 -1.94755 0
M  V30 428 H 38.0267 -6.32382 -2.47528 0
M  V30 429 H 35.9727 -4.97874 -4.2715 0
M  V30 430 H 35.8897 -6.60498 -3.67801 0
M  V30 431 H 37.1577 -6.15756 -4.7798 0
M  V30 432 N 41.3868 0.248026 -1.55636 0
M  V30 433 C 42.7978 0.817177 -1.67866 0
M  V30 434 C 43.1488 1.86069 -0.622322 0
M  V30 435 O 42.2738 2.15157 0.231618 0
M  V30 436 C 42.8688 1.489 -3.04326 0
M  V30 437 C 41.4278 2.00587 -3.185 0
M  V30 438 C 40.5748 0.856573 -2.63739 0
M  V30 439 H 43.5258 0.0238579 -1.58682 0
M  V30 440 H 43.5468 2.35698 -2.98708 0
M  V30 441 H 43.0588 0.729279 -3.81186 0
M  V30 442 H 41.1598 2.79443 -2.4646 0
M  V30 443 H 41.2728 2.20402 -4.25393 0
M  V30 444 H 39.6368 1.25678 -2.21534 0
M  V30 445 H 40.4198 0.109953 -3.43124 0
M  V30 446 N 42.8649 1.48995 0.513639 0
M  V30 447 C 44.1109 1.58076 1.27042 0
M  V30 448 C 44.4439 0.261026 1.92438 0
M  V30 449 O 43.7189 -0.734393 1.80103 0
M  V30 450 C 44.0019 2.73091 2.34719 0
M  V30 451 C 43.8549 4.14821 1.73907 0
M  V30 452 C 45.1739 2.83796 3.36375 0
M  V30 453 H 42.2929 0.575391 0.460536 0
M  V30 454 H 44.9349 1.81232 0.570516 0
M  V30 455 H 43.0849 2.53479 2.94416 0
M  V30 456 H 44.7569 4.45917 1.18135 0
M  V30 457 H 42.9999 4.21058 1.0437 0
M  V30 458 H 43.6709 4.91147 2.51949 0
M  V30 459 H 46.1469 3.01611 2.86653 0
M  V30 460 H 45.0229 3.65971 4.09093 0
M  V30 461 H 45.2839 1.92624 3.9793 0
M  V30 462 N 44.343 -0.763751 1.37857 0
M  V30 463 C 45.253 -1.90817 1.36478 0
M  V30 464 C 46.269 -1.71997 0.263248 0
M  V30 465 O 47.445 -1.95095 0.499979 0
M  V30 466 C 44.51 -3.2605 1.17864 0
M  V30 467 C 43.571 -3.57467 2.3773 0
M  V30 468 C 42.804 -4.86249 2.19995 0
M  V30 469 O 43.027 -5.57884 1.18836 0
M  V30 470 O 41.961 -5.16911 3.08361 0
M  V30 471 H 45.787 -1.94933 2.32884 0
M  V30 472 H 43.372 -0.907619 1.1867 0
M  V30 473 H 45.254 -4.06924 1.09504 0
M  V30 474 H 43.929 -3.22769 0.245372 0
M  V30 475 H 42.836 -2.76796 2.51664 0
M  V30 476 H 44.169 -3.655 3.29652 0
M  V30 477 N 45.8211 -1.22559 -0.990812 0
M  V30 478 C 47.0671 -1.05297 -1.73322 0
M  V30 479 C 47.4001 0.410655 -1.89808 0
M  V30 480 O 46.6751 1.30439 -1.44277 0
M  V30 481 C 46.9581 -1.76713 -3.13759 0
M  V30 482 C 46.8111 -3.30684 -3.04907 0
M  V30 483 C 48.1301 -1.52121 -4.12974 0
M  V30 484 H 45.2491 -0.38392 -0.629106 0
M  V30 485 H 47.8911 -1.50926 -1.15418 0
M  V30 486 H 46.0411 -1.37924 -3.63193 0
M  V30 487 H 47.7131 -3.7893 -2.63077 0
M  V30 488 H 45.9561 -3.60253 -2.41661 0
M  V30 489 H 46.6271 -3.75833 -4.04294 0
M  V30 490 H 49.1031 -1.85819 -3.72304 0
M  V30 491 H 47.9791 -2.04582 -5.0935 0
M  V30 492 H 48.2401 -0.454257 -4.3976 0
M  V30 493 N 47.2992 1.18797 -1.03562 0
M  V30 494 C 48.2462 2.22253 -0.622259 0
M  V30 495 C 49.2162 1.61987 0.36736 0
M  V30 496 O 50.4012 1.88986 0.262492 0
M  V30 497 C 47.5412 3.45097 0.0138462 0
M  V30 498 C 46.6542 4.19722 -1.02263 0
M  V30 499 C 45.7892 5.30009 -0.355573 0
M  V30 500 C 44.8282 5.96399 -1.37749 0
M  V30 501 N 43.9652 6.98234 -0.735766 0
M  V30 502 H 48.8052 2.56968 -1.50903 0
M  V30 503 H 46.3422 1.26245 -0.755017 0
M  V30 504 H 48.3002 4.15279 0.399948 0
M  V30 505 H 46.9302 3.11018 0.864158 0
M  V30 506 H 45.9822 3.48418 -1.52673 0
M  V30 507 H 47.2942 4.65227 -1.79903 0
M  V30 508 H 46.4482 6.0664 0.0850095 0
M  V30 509 H 45.1872 4.85592 0.452967 0
M  V30 510 H 44.1922 5.18512 -1.82826 0
M  V30 511 H 45.4172 6.42899 -2.18764 0
M  V30 512 H 43.3632 6.55979 0.0525597 0
M  V30 513 H 43.2802 7.41965 -1.44995 0
M  V30 514 H 44.5482 7.78845 -0.31941 0
M  V30 515 N 48.7773 0.814389 1.34928 0
M  V30 516 C 50.0253 0.397636 1.9815 0
M  V30 517 C 50.3463 -1.04069 1.64908 0
M  V30 518 O 49.6163 -1.72121 0.93548 0
M  V30 519 H 48.1963 0.144043 0.732981 0
M  V30 520 H 50.8583 1.04195 1.6471 0
M  V30 521 H 49.9543 0.509688 3.0791 0
M  V30 522 N 50.2554 -1.46986 0.568584 0
M  V30 523 C 51.4804 -2.07335 0.0520528 0
M  V30 524 C 51.9054 -1.41675 -1.23733 0
M  V30 525 O 51.2634 -0.495623 -1.74394 0
M  V30 526 C 51.3114 -3.60417 -0.11501 0
M  V30 527 O 50.4154 -3.95309 -1.17492 0
M  V30 528 H 49.7564 -0.661597 0.0564385 0
M  V30 529 H 52.2864 -1.88837 0.787507 0
M  V30 530 H 52.2964 -4.06698 -0.325644 0
M  V30 531 H 50.9714 -4.07601 0.826675 0
M  V30 532 H 49.5484 -3.60757 -0.943869 0
M  V30 533 N 51.7335 -0.305618 -1.54608 0
M  V30 534 C 52.6655 0.602161 -2.21149 0
M  V30 535 C 53.6785 1.09394 -1.20569 0
M  V30 536 O 54.8675 1.0106 -1.47136 0
M  V30 537 C 51.9675 1.83692 -2.84799 0
M  V30 538 C 51.1405 1.48686 -4.11353 0
M  V30 539 C 50.1995 2.57725 -4.58764 0
M  V30 540 O 49.2255 2.22623 -5.23858 0
M  V30 541 N 50.4275 3.88346 -4.31471 0
M  V30 542 H 53.1925 0.0324966 -2.99682 0
M  V30 543 H 50.7535 -0.128021 -1.61393 0
M  V30 544 H 52.7455 2.55994 -3.13448 0
M  V30 545 H 51.3155 2.31486 -2.10078 0
M  V30 546 H 50.5355 0.596269 -3.89664 0
M  V30 547 H 51.8235 1.22842 -4.93748 0
M  V30 548 H 51.2215 4.19671 -3.79331 0
M  V30 549 H 49.7785 4.56932 -4.64818 0
M  V30 550 N 53.2116 1.57565 -0.0334293 0
M  V30 551 C 54.1586 2.10478 0.946981 0
M  V30 552 C 55.1286 1.00787 1.32027 0
M  V30 553 O 56.3136 1.28232 1.41284 0
M  V30 554 C 53.4536 2.63994 2.22263 0
M  V30 555 C 52.5666 3.87709 1.90541 0
M  V30 556 C 51.7016 4.29604 3.12433 0
M  V30 557 C 50.7406 5.46065 2.76549 0
M  V30 558 N 49.8776 5.83096 3.9108 0
M  V30 559 H 54.7176 2.93963 0.488846 0
M  V30 560 H 52.2546 1.45296 0.22969 0
M  V30 561 H 54.2126 2.93114 2.96884 0
M  V30 562 H 52.8426 1.83333 2.65685 0
M  V30 563 H 51.8946 3.65291 1.06144 0
M  V30 564 H 53.2066 4.72403 1.60116 0
M  V30 565 H 52.3606 4.60182 3.9537 0
M  V30 566 H 51.0996 3.43685 3.46023 0
M  V30 567 H 50.1046 5.15176 1.92026 0
M  V30 568 H 51.3296 6.33685 2.44171 0
M  V30 569 H 49.2756 5.00132 4.24504 0
M  V30 570 H 49.1926 6.6244 3.64293 0
M  V30 571 H 50.4606 6.18282 4.74708 0
M  V30 572 N 54.6897 -0.239769 1.55765 0
M  V30 573 C 55.9177 -0.98417 1.81994 0
M  V30 574 C 56.3327 -1.7867 0.610124 0
M  V30 575 O 55.6897 -1.77571 -0.421271 0
M  V30 576 C 55.7407 -1.91635 3.06526 0
M  V30 577 O 55.4617 -1.14629 4.22838 0
M  V30 578 C 56.9627 -2.77616 3.45607 0
M  V30 579 H 54.1827 -0.28928 0.605441 0
M  V30 580 H 56.7267 -0.260499 2.02834 0
M  V30 581 H 54.8817 -2.5942 2.87715 0
M  V30 582 H 55.2957 -1.77745 4.93464 0
M  V30 583 H 56.7697 -3.38759 4.35828 0
M  V30 584 H 57.2467 -3.4909 2.6652 0
M  V30 585 H 57.8527 -2.15271 3.66795 0
M  V30 586 N 56.1678 -1.49265 -0.50573 0
M  V30 587 C 57.4138 -1.58748 -1.26202 0
M  V30 588 C 57.7468 -0.271227 -1.92297 0
M  V30 589 O 57.0218 0.724831 -1.80489 0
M  V30 590 C 57.3048 -2.74332 -2.33268 0
M  V30 591 C 57.1578 -4.15737 -1.71705 0
M  V30 592 C 58.4768 -2.85576 -3.34865 0
M  V30 593 H 55.5958 -0.577826 -0.457478 0
M  V30 594 H 58.2378 -1.81532 -0.560897 0
M  V30 595 H 56.3878 -2.55036 -2.93068 0
M  V30 596 H 58.0598 -4.46537 -1.15769 0
M  V30 597 H 56.3028 -4.21605 -1.02135 0
M  V30 598 H 56.9738 -4.92477 -2.49341 0
M  V30 599 H 59.4498 -3.03127 -2.8505 0
M  V30 600 H 58.3258 -3.68135 -4.07146 0
M  V30 601 H 58.5868 -1.94732 -3.96903 0
M  V30 602 N 57.6459 0.756429 -1.3826 0
M  V30 603 C 58.5789 1.87802 -1.29637 0
M  V30 604 C 59.5569 1.61667 -0.173939 0
M  V30 605 O 60.7409 1.85208 -0.350775 0
M  V30 606 C 57.8679 3.23354 -1.00797 0
M  V30 607 C 56.9139 3.68379 -2.14939 0
M  V30 608 S 57.7469 3.8025 -3.77054 0
M  V30 609 C 58.9029 5.18626 -3.50396 0
M  V30 610 H 59.1359 1.94829 -2.24564 0
M  V30 611 H 56.6689 0.919117 -1.24063 0
M  V30 612 H 58.6269 4.01637 -0.848413 0
M  V30 613 H 57.2879 3.14008 -0.0759369 0
M  V30 614 H 56.4809 4.66693 -1.90299 0
M  V30 615 H 56.0829 2.97242 -2.26988 0
M  V30 616 H 58.3749 6.04289 -3.06334 0
M  V30 617 H 59.3179 5.48286 -4.48094 0
M  V30 618 H 59.7259 4.87289 -2.84973 0
M  V30 619 N 59.124 1.23083 0.984299 0
M  V30 620 C 60.371 1.06057 1.72505 0
M  V30 621 C 60.699 -0.403105 1.90277 0
M  V30 622 O 59.954 -1.3149 1.44944 0
M  V30 623 C 60.253 1.72673 3.1292 0
M  V30 624 C 59.919 3.22586 3.15038 0
M  V30 625 C 58.581 3.63489 3.15324 0
M  V30 626 C 60.933 4.185 3.10657 0
M  V30 627 C 58.261 4.98772 3.08939 0
M  V30 628 C 60.613 5.53769 3.05814 0
M  V30 629 C 59.277 5.94041 3.04419 0
M  V30 630 H 58.547 0.388091 0.631242 0
M  V30 631 H 61.194 1.52963 1.15215 0
M  V30 632 H 59.499 1.18116 3.73572 0
M  V30 633 H 61.196 1.56982 3.68996 0
M  V30 634 H 57.786 2.90022 3.15571 0
M  V30 635 H 61.97 3.87911 3.09579 0
M  V30 636 H 57.226 5.29193 3.0621 0
M  V30 637 H 61.4 6.27808 3.0138 0
M  V30 638 H 59.027 6.98833 2.99227 0
M  V30 639 N 60.6021 -1.18246 1.0419 0
M  V30 640 C 62.0131 -1.69914 0.773698 0
M  V30 641 C 62.3641 -1.83085 -0.705297 0
M  V30 642 O 61.4891 -1.51123 -1.5489 0
M  V30 643 C 62.0841 -3.08619 1.39784 0
M  V30 644 C 60.6431 -3.57494 1.17792 0
M  V30 645 C 59.7901 -2.34013 1.48773 0
M  V30 646 H 62.7411 -1.02904 1.20816 0
M  V30 647 H 62.7621 -3.71958 0.801714 0
M  V30 648 H 62.2741 -2.99001 2.47426 0
M  V30 649 H 60.3751 -3.72406 0.120295 0
M  V30 650 H 60.4881 -4.40852 1.87581 0
M  V30 651 H 58.8521 -2.37986 0.907463 0
M  V30 652 H 59.6351 -2.27013 2.57527 0
M  V30 653 N 62.0802 -0.821533 -1.34494 0
M  V30 654 C 63.0302 -0.214793 -2.26986 0
M  V30 655 C 64.0142 0.620125 -1.4847 0
M  V30 656 O 65.2062 0.474933 -1.70509 0
M  V30 657 C 62.3352 0.623566 -3.37589 0
M  V30 658 C 61.4212 -0.221904 -4.23519 0
M  V30 659 N 61.8122 -1.29223 -4.89014 0
M  V30 660 C 60.1102 -0.00600922 -4.46 0
M  V30 661 C 60.8112 -1.80965 -5.52835 0
M  V30 662 N 59.7872 -1.11376 -5.32068 0
M  V30 663 H 63.5892 -1.03354 -2.75128 0
M  V30 664 H 61.1032 -0.6642 -1.48196 0
M  V30 665 H 63.1002 1.0744 -4.02818 0
M  V30 666 H 61.7602 1.44049 -2.90998 0
M  V30 667 H 62.7712 -1.67502 -4.90065 0
M  V30 668 H 59.4482 0.77886 -4.10171 0
M  V30 669 H 60.8382 -2.70502 -6.15043 0
M  V30 670 N 63.5583 1.46682 -0.576371 0
M  V30 671 C 64.5213 2.28707 0.150239 0
M  V30 672 C 65.5213 1.38035 0.824794 0
M  V30 673 O 66.7113 1.60476 0.677719 0
M  V30 674 C 63.8433 3.18248 1.22192 0
M  V30 675 H 65.0363 2.94423 -0.570521 0
M  V30 676 H 62.5893 1.52688 -0.334078 0
M  V30 677 H 63.3243 2.57265 1.97447 0
M  V30 678 H 63.1093 3.85 0.742812 0
M  V30 679 H 64.5993 3.80001 1.73172 0
M  V30 680 N 65.0364 0.313813 1.54444 0
M  V30 681 C 66.4474 -0.176243 1.85866 0
M  V30 682 C 66.7984 -1.52405 1.23561 0
M  V30 683 O 65.9234 -2.09605 0.538016 0
M  V30 684 C 66.5184 -0.32657 3.37222 0
M  V30 685 C 65.0774 -0.760846 3.6863 0
M  V30 686 C 64.2244 0.123247 2.77026 0
M  V30 687 H 67.1754 0.534418 1.49431 0
M  V30 688 H 67.1964 -1.15908 3.62416 0
M  V30 689 H 66.7084 0.654531 3.82541 0
M  V30 690 H 64.8094 -1.75204 3.28838 0
M  V30 691 H 64.9224 -0.571353 4.75681 0
M  V30 692 H 63.2864 -0.399597 2.51546 0
M  V30 693 H 64.0694 1.10094 3.25168 0
M  V30 694 N 66.5145 -1.57545 0.0417849 0
M  V30 695 C 67.4645 -2.07483 -0.945247 0
M  V30 696 C 68.4485 -0.977983 -1.27767 0
M  V30 697 O 69.6405 -1.24142 -1.26166 0
M  V30 698 C 66.7695 -2.61576 -2.22335 0
M  V30 699 C 65.8555 -3.78213 -1.91874 0
M  V30 700 N 66.2465 -4.88344 -1.31733 0
M  V30 701 C 64.5445 -3.8694 -2.21796 0
M  V30 702 C 65.2455 -5.69462 -1.1869 0
M  V30 703 N 64.2215 -5.16771 -1.68666 0
M  V30 704 H 68.0235 -2.90029 -0.475441 0
M  V30 705 H 65.5375 -1.61581 -0.162911 0
M  V30 706 H 67.5345 -2.95651 -2.93932 0
M  V30 707 H 66.1945 -1.80465 -2.69931 0
M  V30 708 H 67.2055 -5.08335 -0.990729 0
M  V30 709 H 63.8825 -3.16757 -2.71977 0
M  V30 710 H 65.2725 -6.68023 -0.720793 0
M  V30 711 N 67.9926 0.231505 -1.5589 0
M  V30 712 C 68.9026 1.308 -1.94752 0
M  V30 713 C 69.9186 1.51826 -0.849989 0
M  V30 714 O 71.0946 1.6515 -1.15271 0
M  V30 715 C 68.1596 2.63968 -2.24771 0
M  V30 716 C 67.2206 2.51331 -3.48039 0
M  V30 717 C 66.4536 3.78148 -3.76616 0
M  V30 718 O 66.6766 4.80722 -3.07022 0
M  V30 719 O 65.6106 3.75857 -4.70123 0
M  V30 720 H 69.4366 1.0083 -2.86474 0
M  V30 721 H 67.0216 0.433547 -1.42971 0
M  V30 722 H 68.9036 3.42633 -2.45318 0
M  V30 723 H 67.5786 2.9364 -1.36225 0
M  V30 724 H 66.4856 1.709 -3.32782 0
M  V30 725 H 67.8186 2.26601 -4.36936 0
M  V30 726 N 69.4707 1.49531 0.497807 0
M  V30 727 C 70.4177 1.66436 1.59899 0
M  V30 728 C 71.3877 0.505793 1.58212 0
M  V30 729 O 72.5727 0.733202 1.7615 0
M  V30 730 C 69.7127 1.7399 2.98029 0
M  V30 731 C 68.8257 3.01172 3.09708 0
M  V30 732 C 67.9607 2.99686 4.38591 0
M  V30 733 C 66.9997 4.21434 4.43914 0
M  V30 734 N 66.1367 4.1784 5.64229 0
M  V30 735 H 70.9767 2.60459 1.44793 0
M  V30 736 H 68.5137 1.29137 0.704423 0
M  V30 737 H 70.4717 1.76352 3.78095 0
M  V30 738 H 69.1017 0.834301 3.11832 0
M  V30 739 H 68.1537 3.08408 2.22685 0
M  V30 740 H 69.4657 3.91165 3.09502 0
M  V30 741 H 68.6197 3.00628 5.2698 0
M  V30 742 H 67.3587 2.07477 4.41367 0
M  V30 743 H 66.3637 4.20733 3.53926 0
M  V30 744 H 67.5887 5.14839 4.42851 0
M  V30 745 H 65.5347 3.28469 5.67841 0
M  V30 746 H 65.4517 5.01571 5.65652 0
M  V30 747 H 66.7197 4.22889 6.54817 0
M  V30 748 N 70.9488 -0.749086 1.3866 0
M  V30 749 C 72.1948 -1.51056 1.35314 0
M  V30 750 C 72.5278 -1.94121 -0.0553751 0
M  V30 751 O 71.8028 -1.65763 -1.01749 0
M  V30 752 C 72.0858 -2.76003 2.31288 0
M  V30 753 C 71.9388 -2.39047 3.8102 0
M  V30 754 C 73.2578 -3.78046 2.2532 0
M  V30 755 H 70.3768 -0.547972 0.492844 0
M  V30 756 H 73.0188 -0.857628 1.69543 0
M  V30 757 H 71.1688 -3.31716 2.02229 0
M  V30 758 H 72.8408 -1.89074 4.20771 0
M  V30 759 H 71.0838 -1.71449 3.98482 0
M  V30 760 H 71.7548 -3.28462 4.4364 0
M  V30 761 H 74.2308 -3.31884 2.50983 0
M  V30 762 H 73.1068 -4.63159 2.94576 0
M  V30 763 H 73.3678 -4.23957 1.25352 0
M  V30 764 N 72.4269 -1.23603 -0.977757 0
M  V30 765 C 73.3369 -1.03632 -2.1047 0
M  V30 766 C 74.3529 0.0199435 -1.73989 0
M  V30 767 O 75.5289 -0.176076 -2.00629 0
M  V30 768 C 72.5939 -0.63276 -3.40877 0
M  V30 769 C 71.6549 -1.76437 -3.91367 0
M  V30 770 C 70.8879 -1.37997 -5.15551 0
M  V30 771 O 71.1109 -0.265357 -5.69782 0
M  V30 772 O 70.0449 -2.20201 -5.60174 0
M  V30 773 H 73.8709 -1.98086 -2.30208 0
M  V30 774 H 71.4559 -1.02332 -1.08851 0
M  V30 775 H 73.3379 -0.418761 -4.19314 0
M  V30 776 H 72.0129 0.282754 -3.22463 0
M  V30 777 H 70.9199 -2.03304 -3.14036 0
M  V30 778 H 72.2529 -2.6583 -4.14241 0
M  V30 779 N 73.905 1.17692 -1.04816 0
M  V30 780 C 75.145 1.89545 -0.764979 0
M  V30 781 C 75.509 1.78979 0.695028 0
M  V30 782 O 76.71 2.45613 1.09215 0
M  V30 783 C 74.981 3.35659 -1.22751 0
M  V30 784 S 76.54 4.25526 -1.07112 0
M  V30 785 H 73.358 0.654432 -0.27792 0
M  V30 786 H 75.96 1.42163 -1.34201 0
M  V30 787 H 74.664 3.40882 -2.28533 0
M  V30 788 H 74.195 3.88083 -0.644594 0
M  V30 789 H 76.21 4.962 0.00697508 0
M  V30 790 N 75.3831 0.828654 1.34056 0
M  V30 791 C 76.6291 0.42008 1.98402 0
M  V30 792 C 76.9621 -1.01564 1.65525 0
M  V30 793 O 76.2371 -1.70834 0.929831 0
M  V30 794 C 76.5201 0.62927 3.54559 0
M  V30 795 C 76.3731 2.11152 3.97159 0
M  V30 796 C 77.6921 0.0688756 4.40046 0
M  V30 797 H 74.8111 0.154104 0.720709 0
M  V30 798 H 77.4531 1.04228 1.5886 0
M  V30 799 H 75.6031 0.0996418 3.88372 0
M  V30 800 H 77.2751 2.70522 3.73651 0
M  V30 801 H 75.5181 2.59985 3.47261 0
M  V30 802 H 76.1891 2.20868 5.05887 0
M  V30 803 H 78.6651 0.521458 4.1282 0
M  V30 804 H 77.5411 0.245006 5.48353 0
M  V30 805 H 77.8021 -1.0266 4.30015 0
M  V30 806 N 76.8612 -1.46375 0.584142 0
M  V30 807 C 78.0892 -2.06761 0.0759296 0
M  V30 808 C 78.5042 -1.43266 -1.22965 0
M  V30 809 O 77.8612 -0.538458 -1.74376 0
M  V30 810 C 77.9122 -3.61375 -0.0950384 0
M  V30 811 O 77.6332 -4.22495 1.15887 0
M  V30 812 C 79.1342 -4.38693 -0.637434 0
M  V30 813 H 76.3542 -0.668479 0.0581075 0
M  V30 814 H 78.8982 -1.8798 0.805218 0
M  V30 815 H 77.0532 -3.79578 -0.774554 0
M  V30 816 H 77.4672 -5.15385 0.973598 0
M  V30 817 H 78.9412 -5.47464 -0.706237 0
M  V30 818 H 79.4182 -4.06836 -1.65472 0
M  V30 819 H 80.0242 -4.25299 0.00725967 0
M  V30 820 N 78.3393 -0.321999 -1.54275 0
M  V30 821 C 79.5793 0.281657 -2.0245 0
M  V30 822 C 79.9433 1.49468 -1.20513 0
M  V30 823 O 81.1443 2.17109 -1.58484 0
M  V30 824 C 79.4153 0.609014 -3.52173 0
M  V30 825 S 80.9743 1.19255 -4.22284 0
M  V30 826 H 77.7923 0.0852825 -0.705867 0
M  V30 827 H 80.3943 -0.454758 -1.90137 0
M  V30 828 H 79.0983 -0.281982 -4.0943 0
M  V30 829 H 78.6293 1.37567 -3.68563 0
M  V30 830 H 80.6443 2.47944 -4.29812 0
M  V30 831 N 79.8174 1.5752 -0.0501392 0
M  V30 832 C 80.7674 2.07981 0.934231 0
M  V30 833 C 81.7514 0.984745 1.27246 0
M  V30 834 O 82.9434 1.24809 1.25506 0
M  V30 835 C 80.0724 2.62751 2.20945 0
M  V30 836 C 79.1584 3.79225 1.89865 0
M  V30 837 N 79.5494 4.89036 1.29142 0
M  V30 838 C 77.8474 3.88111 2.19741 0
M  V30 839 C 78.5484 5.70084 1.15669 0
M  V30 840 N 77.5244 5.17659 1.65923 0
M  V30 841 H 81.3264 2.90277 0.460053 0
M  V30 842 H 78.8404 1.61665 0.15434 0
M  V30 843 H 80.8374 2.97205 2.9236 0
M  V30 844 H 79.4974 1.81894 2.6897 0
M  V30 845 H 80.5084 5.08854 0.963756 0
M  V30 846 H 77.1854 3.18194 2.70293 0
M  V30 847 H 78.5754 6.68395 0.685356 0
M  V30 848 N 81.2955 -0.223234 1.56011 0
M  V30 849 C 82.2455 -1.28008 1.88674 0
M  V30 850 C 83.2295 -1.42369 0.749663 0
M  V30 851 O 84.4215 -1.45212 1.01205 0
M  V30 852 C 81.5505 -2.63084 2.20548 0
M  V30 853 C 80.6365 -2.52632 3.40643 0
M  V30 854 N 81.0275 -2.11829 4.59306 0
M  V30 855 C 79.3255 -2.83594 3.44224 0
M  V30 856 C 80.0265 -2.12587 5.41463 0
M  V30 857 N 79.0025 -2.5301 4.81131 0
M  V30 858 H 82.8045 -0.955487 2.77935 0
M  V30 859 H 80.3185 -0.431801 1.56554 0
M  V30 860 H 82.3155 -3.39385 2.42122 0
M  V30 861 H 80.9755 -2.96391 1.32599 0
M  V30 862 H 81.9865 -1.82988 4.84496 0
M  V30 863 H 78.6635 -3.21284 2.66614 0
M  V30 864 H 80.0535 -1.83179 6.46448 0
M  V30 865 N 82.7736 -1.49793 -0.48987 0
M  V30 866 C 83.7036 -1.70201 -1.59856 0
M  V30 867 C 84.6846 -0.55076 -1.60937 0
M  V30 868 O 85.8696 -0.787841 -1.77501 0
M  V30 869 C 82.9996 -1.77882 -2.98287 0
M  V30 870 C 81.9536 -2.92907 -3.12073 0
M  V30 871 C 81.2796 -2.85712 -4.51965 0
M  V30 872 C 82.5796 -4.3369 -2.91051 0
M  V30 873 H 84.2736 -2.63025 -1.43032 0
M  V30 874 H 81.8196 -1.26574 -0.686664 0
M  V30 875 H 83.7726 -1.90744 -3.75759 0
M  V30 876 H 82.4966 -0.816653 -3.16225 0
M  V30 877 H 81.1556 -2.79665 -2.37029 0
M  V30 878 H 80.8036 -1.8738 -4.66795 0
M  V30 879 H 80.5036 -3.62921 -4.62128 0
M  V30 880 H 82.0276 -3.00598 -5.31482 0
M  V30 881 H 83.4416 -4.47555 -3.58284 0
M  V30 882 H 81.8386 -5.12205 -3.12675 0
M  V30 883 H 82.9086 -4.47362 -1.87071 0
M  V30 884 N 84.2517 0.741722 -1.39055 0
M  V30 885 C 85.4977 1.50336 -1.36113 0
M  V30 886 C 85.8307 1.94148 0.0450796 0
M  V30 887 O 85.1057 1.66301 1.00868 0
M  V30 888 C 85.3887 2.74773 -2.32749 0
M  V30 889 C 85.2417 2.37023 -3.82283 0
M  V30 890 C 86.5607 3.76846 -2.27322 0
M  V30 891 H 83.6797 0.545351 -0.495743 0
M  V30 892 H 86.3217 0.848624 -1.69995 0
M  V30 893 H 84.4717 3.30639 -2.03986 0
M  V30 894 H 86.1437 1.8684 -4.21768 0
M  V30 895 H 84.3867 1.69334 -3.99385 0
M  V30 896 H 85.0577 3.26104 -4.45376 0
M  V30 897 H 87.5337 3.30548 -2.5274 0
M  V30 898 H 86.4097 4.6159 -2.97028 0
M  V30 899 H 86.6707 4.23286 -1.27599 0
M  V30 900 N 85.7298 1.2412 0.971189 0
M  V30 901 C 87.0068 0.986867 1.6888 0
M  V30 902 C 87.3868 -0.491857 2.0529 0
M  V30 903 O 86.7348 -1.46531 1.75331 0
M  V30 904 C 86.9448 1.9063 2.92338 0
M  V30 905 C 88.2928 2.17515 3.64654 0
M  V30 906 O 89.3168 1.88254 3.02388 0
M  V30 907 O 88.1758 2.6719 4.7673 0
M  V30 908 H 85.2698 0.372944 0.738134 0
M  V30 909 H 87.8158 1.35203 1.02559 0
M  V30 910 H 86.5878 2.90552 2.62097 0
M  V30 911 H 86.2108 1.54408 3.66393 0
M  V30 912 N 87.2079 -1.17134 1.05439 0
M  V30 913 C 88.4559 -1.87085 0.764429 0
M  V30 914 C 88.7769 -1.81584 -0.710787 0
M  V30 915 O 88.0469 -1.24349 -1.51374 0
M  V30 916 H 86.6269 -0.692627 0.279779 0
M  V30 917 H 89.2889 -1.42087 1.33406 0
M  V30 918 H 88.3849 -2.92759 1.0816 0
M  V30 919 N 88.686 -0.835752 -1.33615 0
M  V30 920 C 89.633 -0.26473 -2.29277 0
M  V30 921 C 90.603 0.617712 -1.54187 0
M  V30 922 O 91.788 0.556641 -1.825 0
M  V30 923 C 88.928 0.556777 -3.40579 0
M  V30 924 C 88.041 -0.349339 -4.30585 0
M  V30 925 C 87.176 0.482969 -5.29 0
M  V30 926 C 86.215 -0.421732 -6.10645 0
M  V30 927 N 85.352 0.372262 -7.01112 0
M  V30 928 H 90.192 -1.08582 -2.77514 0
M  V30 929 H 87.729 -0.546927 -1.36554 0
M  V30 930 H 89.687 1.04852 -4.03809 0
M  V30 931 H 88.317 1.34286 -2.93542 0
M  V30 932 H 87.369 -0.959372 -3.68104 0
M  V30 933 H 88.681 -1.04445 -4.87742 0
M  V30 934 H 87.835 1.03866 -5.97743 0
M  V30 935 H 86.574 1.21153 -4.72412 0
M  V30 936 H 85.579 -0.989464 -5.40823 0
M  V30 937 H 86.804 -1.14861 -6.69316 0
M  V30 938 H 84.75 1.08426 -6.46977 0
M  V30 939 H 84.667 -0.264198 -7.55538 0
M  V30 940 H 85.935 0.910293 -7.74167 0
M  V30 941 N 90.1641 1.46063 -0.591896 0
M  V30 942 C 91.0741 2.34192 0.13831 0
M  V30 943 C 92.0901 1.50305 0.876608 0
M  V30 944 O 93.2661 1.8315 0.837728 0
M  V30 945 C 90.3311 3.27656 1.13326 0
M  V30 946 C 89.3921 4.27445 0.39863 0
M  V30 947 C 88.6251 5.16443 1.34618 0
M  V30 948 O 88.8481 5.08553 2.58321 0
M  V30 949 O 87.7821 5.95843 0.851768 0
M  V30 950 H 91.6081 2.98002 -0.58552 0
M  V30 951 H 89.1931 1.45188 -0.352239 0
M  V30 952 H 91.0751 3.85291 1.70671 0
M  V30 953 H 89.7501 2.6643 1.83839 0
M  V30 954 H 88.6571 3.73471 -0.216895 0
M  V30 955 H 89.9901 4.91482 -0.265709 0
M  V30 956 N 91.6422 0.330177 1.54103 0
M  V30 957 C 92.8672 -0.274893 2.0557 0
M  V30 958 C 93.2922 -1.44487 1.20437 0
M  V30 959 O 92.6502 -1.80021 0.214991 0
M  V30 960 C 92.6982 -0.68079 3.54115 0
M  V30 961 O 91.8022 -1.7824 3.71893 0
M  V30 962 H 91.1432 -0.0483849 0.662235 0
M  V30 963 H 93.6732 0.480508 1.98878 0
M  V30 964 H 93.6832 -0.961635 3.96505 0
M  V30 965 H 92.3582 0.174903 4.15532 0
M  V30 966 H 90.9352 -1.49985 3.41407 0
M  V30 967 N 93.1203 -1.57491 0.0584922 0
M  V30 968 C 94.3503 -1.9701 -0.622134 0
M  V30 969 C 94.7583 -0.935034 -1.6448 0
M  V30 970 O 94.1013 0.0882904 -1.83488 0
M  V30 971 C 94.1633 -3.32794 -1.35972 0
M  V30 972 C 93.8273 -4.54343 -0.492043 0
M  V30 973 C 94.8243 -5.19323 0.244901 0
M  V30 974 C 92.5093 -5.00534 -0.420821 0
M  V30 975 C 94.5033 -6.28835 1.04143 0
M  V30 976 C 92.1903 -6.09921 0.379389 0
M  V30 977 C 93.1883 -6.73933 1.10919 0
M  V30 978 O 92.8763 -7.81216 1.89623 0
M  V30 979 H 92.6083 -0.653127 -0.174359 0
M  V30 980 H 95.1623 -2.05029 0.123418 0
M  V30 981 H 93.3923 -3.21351 -2.15105 0
M  V30 982 H 95.0813 -3.5701 -1.93129 0
M  V30 983 H 95.8473 -4.8459 0.19939 0
M  V30 984 H 91.7263 -4.50496 -0.978474 0
M  V30 985 H 95.2703 -6.7873 1.61157 0
M  V30 986 H 91.1673 -6.44089 0.426512 0
M  V30 987 H 91.9353 -7.98029 1.81913 0
M  V30 988 N 94.5984 0.214957 -1.56127 0
M  V30 989 C 95.5614 1.24997 -1.92116 0
M  V30 990 C 96.5614 1.39467 -0.800344 0
M  V30 991 O 97.7514 1.37619 -1.06802 0
M  V30 992 C 94.8834 2.62271 -2.17777 0
M  V30 993 H 96.0764 0.942875 -2.84693 0
M  V30 994 H 93.6294 0.455654 -1.49511 0
M  V30 995 H 94.3644 2.98068 -1.27773 0
M  V30 996 H 94.1494 2.53143 -2.99434 0
M  V30 997 H 95.6394 3.36946 -2.46693 0
M  V30 998 N 96.0765 1.50051 0.48192 0
M  V30 999 C 97.0235 1.68122 1.58125 0
M  V30 1000 C 97.9935 0.522545 1.57666 0
M  V30 1001 O 99.1785 0.751844 1.75362 0
M  V30 1002 C 96.3185 1.77142 2.96167 0
M  V30 1003 C 95.4315 3.0444 3.06497 0
M  V30 1004 C 94.5665 3.04321 4.35387 0
M  V30 1005 C 93.6055 4.26118 4.3942 0
M  V30 1006 N 92.7425 4.238 5.59766 0
M  V30 1007 H 97.5825 2.6198 1.42022 0
M  V30 1008 H 95.1195 1.29877 0.690687 0
M  V30 1009 H 97.0775 1.80352 3.76203 0
M  V30 1010 H 95.7075 0.867329 3.1093 0
M  V30 1011 H 94.7595 3.10752 2.19402 0
M  V30 1012 H 96.0715 3.94426 3.05336 0
M  V30 1013 H 95.2255 3.062 5.23762 0
M  V30 1014 H 93.9645 2.12147 4.39141 0
M  V30 1015 H 92.9695 4.24463 3.49444 0
M  V30 1016 H 94.1945 5.19507 4.37366 0
M  V30 1017 H 92.1405 3.34474 5.64326 0
M  V30 1018 H 92.0575 5.07542 5.60301 0
M  V30 1019 H 93.3255 4.2981 6.50295 0
M  V30 1020 N 97.5546 -0.734337 1.39446 0
M  V30 1021 C 98.7946 -1.50655 1.38139 0
M  V30 1022 C 99.1586 -1.91986 -0.0228701 0
M  V30 1023 O 100.36 -2.68318 -0.160947 0
M  V30 1024 C 98.6306 -2.71251 2.32718 0
M  V30 1025 S 100.19 -3.60892 2.49605 0
M  V30 1026 H 97.0076 -0.515315 0.489869 0
M  V30 1027 H 99.6096 -0.860392 1.75549 0
M  V30 1028 H 98.3136 -2.39027 3.33608 0
M  V30 1029 H 97.8446 -3.40795 1.96526 0
M  V30 1030 H 99.8596 -4.64899 1.73446 0
M  V30 1031 N 99.0327 -1.24633 -0.964593 0
M  V30 1032 C 100.281 -1.08573 -1.70459 0
M  V30 1033 C 100.602 0.375655 -1.91347 0
M  V30 1034 O 99.8717 1.26779 -1.49345 0
M  V30 1035 H 98.4517 -0.398784 -0.631649 0
M  V30 1036 H 101.114 -1.56601 -1.16026 0
M  V30 1037 H 100.21 -1.58623 -2.68785 0
M  V30 1038 N 100.511 1.16574 -1.06058 0
M  V30 1039 C 101.736 1.91493 -0.796562 0
M  V30 1040 C 102.161 1.76773 0.642868 0
M  V30 1041 O 101.519 1.09142 1.44768 0
M  V30 1042 C 101.567 3.40293 -1.19303 0
M  V30 1043 O 100.671 4.11074 -0.330394 0
M  V30 1044 H 100.012 0.596678 -0.291326 0
M  V30 1045 H 102.542 1.47708 -1.41575 0
M  V30 1046 H 102.552 3.91057 -1.16356 0
M  V30 1047 H 101.227 3.50326 -2.24153 0
M  V30 1048 H 99.8038 3.70513 -0.421225 0
M  V30 1049 N 101.989 0.842826 1.3317 0
M  V30 1050 C 103.214 0.453129 2.02389 0
M  V30 1051 C 103.639 -0.939105 1.6298 0
M  V30 1052 O 102.997 -1.61472 0.8244 0
M  V30 1053 C 103.045 0.586094 3.55805 0
M  V30 1054 O 102.149 -0.386029 4.10589 0
M  V30 1055 H 101.49 0.183664 0.638094 0
M  V30 1056 H 104.02 1.13875 1.69981 0
M  V30 1057 H 104.03 0.469209 4.05293 0
M  V30 1058 H 102.705 1.6014 3.83833 0
M  V30 1059 H 101.282 -0.226371 3.72212 0
M  V30 1060 N 103.467 -1.45747 0.599634 0
M  V30 1061 C 104.715 -2.01893 0.0915472 0
M  V30 1062 C 105.036 -1.47155 -1.27946 0
M  V30 1063 O 104.306 -0.66273 -1.84349 0
M  V30 1064 H 102.886 -0.746363 0.0308524 0
M  V30 1065 H 105.548 -1.78645 0.779237 0
M  V30 1066 H 104.644 -3.1208 0.0353086 0
M  V30 1067 N 104.945 -0.338344 -1.53925 0
M  V30 1068 C 106.185 0.260168 -2.02737 0
M  V30 1069 C 106.549 1.48181 -1.22092 0
M  V30 1070 O 107.75 2.15416 -1.60777 0
M  V30 1071 C 106.021 0.571627 -3.52799 0
M  V30 1072 S 107.58 1.14769 -4.23525 0
M  V30 1073 H 104.398 0.077791 -0.706732 0
M  V30 1074 H 107 -0.474899 -1.89644 0
M  V30 1075 H 105.704 -0.325392 -4.09108 0
M  V30 1076 H 105.235 1.3365 -3.70002 0
M  V30 1077 H 107.25 2.43372 -4.32417 0
M  V30 1078 N 106.423 1.57458 -0.0668435 0
M  V30 1079 C 107.373 2.0896 0.912119 0
M  V30 1080 C 108.357 0.998186 1.26195 0
M  V30 1081 O 109.549 1.26133 1.24175 0
M  V30 1082 C 106.678 2.6508 2.18145 0
M  V30 1083 C 105.764 3.81218 1.85832 0
M  V30 1084 N 106.155 4.90378 1.23948 0
M  V30 1085 C 104.453 3.9042 2.15612 0
M  V30 1086 C 105.154 5.71279 1.09616 0
M  V30 1087 N 104.13 5.19389 1.60423 0
M  V30 1088 H 107.932 2.90749 0.42924 0
M  V30 1089 H 105.446 1.6182 0.137184 0
M  V30 1090 H 107.443 3.0029 2.89192 0
M  V30 1091 H 106.103 1.84736 2.67025 0
M  V30 1092 H 107.114 5.09847 0.909731 0
M  V30 1093 H 103.791 3.21043 2.66903 0
M  V30 1094 H 105.181 6.69085 0.614425 0
M  V30 1095 N 107.901 -0.206675 1.56239 0
M  V30 1096 C 109.178 -0.954051 1.70755 0
M  V30 1097 C 109.558 -2.01841 0.618353 0
M  V30 1098 O 108.906 -2.25444 -0.372434 0
M  V30 1099 C 109.116 -1.551 3.12642 0
M  V30 1100 C 110.464 -2.03757 3.72516 0
M  V30 1101 O 111.488 -1.64965 3.15698 0
M  V30 1102 O 110.347 -2.75103 4.72208 0
M  V30 1103 H 107.441 -0.446636 0.696021 0
M  V30 1104 H 109.987 -0.197283 1.68549 0
M  V30 1105 H 108.759 -0.783212 3.83382 0
M  V30 1106 H 108.382 -2.37291 3.19028 0
M  V30 1107 N 109.379 -1.50304 -0.473955 0
M  V30 1108 C 110.656 -1.51667 -1.23518 0
M  V30 1109 C 111.036 -0.259701 -2.09496 0
M  V30 1110 O 110.384 0.756986 -2.15597 0
M  V30 1111 C 110.594 -2.81082 -2.06868 0
M  V30 1112 C 111.942 -3.31631 -2.65153 0
M  V30 1113 O 112.966 -2.82384 -2.17113 0
M  V30 1114 O 111.825 -4.17471 -3.52675 0
M  V30 1115 H 108.919 -0.60822 -0.560355 0
M  V30 1116 H 111.465 -1.62592 -0.486011 0
M  V30 1117 H 110.237 -3.64041 -1.4349 0
M  V30 1118 H 109.86 -2.73146 -2.88924 0
M  V30 1119 N 110.857 0.726932 -1.39834 0
M  V30 1120 C 111.787 1.85405 -1.41941 0
M  V30 1121 C 112.768 1.67751 -0.281728 0
M  V30 1122 O 113.953 1.8795 -0.488717 0
M  V30 1123 C 111.083 3.23243 -1.2701 0
M  V30 1124 C 110.037 3.55549 -2.38262 0
M  V30 1125 C 109.363 4.9241 -2.08415 0
M  V30 1126 C 110.663 3.577 -3.80589 0
M  V30 1127 H 112.357 1.83899 -2.36266 0
M  V30 1128 H 109.903 0.883349 -1.13723 0
M  V30 1129 H 111.856 4.01775 -1.27103 0
M  V30 1130 H 110.58 3.25296 -0.291564 0
M  V30 1131 H 109.239 2.79351 -2.37399 0
M  V30 1132 H 108.887 4.91052 -1.0898 0
M  V30 1133 H 108.587 5.14992 -2.82943 0
M  V30 1134 H 110.111 5.73289 -2.10171 0
M  V30 1135 H 111.525 4.26293 -3.83337 0
M  V30 1136 H 109.922 3.91804 -4.54543 0
M  V30 1137 H 110.992 2.57328 -4.10987 0
M  V30 1138 N 112.336 1.25143 0.95797 0
M  V30 1139 C 113.564 1.12424 1.73691 0
M  V30 1140 C 113.979 -0.322304 1.86029 0
M  V30 1141 O 113.336 -1.22186 1.35561 0
M  V30 1142 C 113.387 1.76933 3.15241 0
M  V30 1143 O 113.108 3.15932 3.03511 0
M  V30 1144 C 114.609 1.6995 4.09429 0
M  V30 1145 H 111.829 0.3923 0.544373 0
M  V30 1146 H 114.373 1.6544 1.20207 0
M  V30 1147 H 112.528 1.27895 3.6568 0
M  V30 1148 H 112.942 3.47598 3.9278 0
M  V30 1149 H 114.416 2.19753 5.06372 0
M  V30 1150 H 114.893 0.662619 4.34173 0
M  V30 1151 H 115.499 2.18461 3.64904 0
M  V30 1152 N 113.814 -1.1601 1.06675 0
M  V30 1153 C 114.777 -2.18724 0.685001 0
M  V30 1154 C 115.777 -1.58496 -0.271246 0
M  V30 1155 O 116.967 -1.74119 -0.0531156 0
M  V30 1156 C 114.099 -3.40899 0.00853648 0
M  V30 1157 H 115.292 -2.54011 1.59431 0
M  V30 1158 H 112.845 -1.30352 0.862441 0
M  V30 1159 H 113.58 -3.11173 -0.913337 0
M  V30 1160 H 113.365 -3.8587 0.696204 0
M  V30 1161 H 114.855 -4.16886 -0.24414 0
M  V30 1162 N 115.292 -0.849877 -1.32721 0
M  V30 1163 C 116.239 -0.289033 -2.28983 0
M  V30 1164 C 117.209 0.601324 -1.54833 0
M  V30 1165 O 118.394 0.537253 -1.8308 0
M  V30 1166 C 115.534 0.520623 -3.4115 0
M  V30 1167 C 114.647 -0.394989 -4.3019 0
M  V30 1168 C 113.782 0.426834 -5.29482 0
M  V30 1169 C 112.821 -0.486476 -6.10164 0
M  V30 1170 N 111.958 0.297879 -7.01468 0
M  V30 1171 H 116.798 -1.11519 -2.76347 0
M  V30 1172 H 114.335 -0.56138 -1.35967 0
M  V30 1173 H 116.293 1.00563 -4.04899 0
M  V30 1174 H 114.923 1.31165 -2.9495 0
M  V30 1175 H 113.975 -0.99836 -3.67065 0
M  V30 1176 H 115.287 -1.09612 -4.86607 0
M  V30 1177 H 114.441 0.975205 -5.98811 0
M  V30 1178 H 113.18 1.16136 -4.73671 0
M  V30 1179 H 112.185 -1.04677 -5.39743 0
M  V30 1180 H 113.41 -1.21953 -6.6806 0
M  V30 1181 H 111.356 1.01558 -6.48091 0
M  V30 1182 H 111.273 -0.344318 -7.55216 0
M  V30 1183 H 112.541 0.828131 -7.75089 0
M  V30 1184 N 116.77 1.45427 -0.607355 0
M  V30 1185 C 117.717 2.3053 0.111625 0
M  V30 1186 C 118.687 1.4209 0.860216 0
M  V30 1187 O 119.872 1.71019 0.845998 0
M  V30 1188 C 117.012 3.26992 1.10319 0
M  V30 1189 C 116.125 4.30535 0.355493 0
M  V30 1190 C 115.26 5.14105 1.33676 0
M  V30 1191 C 114.299 6.09376 0.576862 0
M  V30 1192 N 113.436 6.85727 1.5074 0
M  V30 1193 H 118.276 2.91477 -0.620093 0
M  V30 1194 H 115.813 1.43631 -0.317594 0
M  V30 1195 H 117.771 3.81385 1.6912 0
M  V30 1196 H 116.401 2.67799 1.80232 0
M  V30 1197 H 115.453 3.78805 -0.348023 0
M  V30 1198 H 116.765 4.98235 -0.237423 0
M  V30 1199 H 115.919 5.72897 1.99684 0
M  V30 1200 H 114.658 4.46423 1.9636 0
M  V30 1201 H 113.663 5.49715 -0.0968519 0
M  V30 1202 H 114.888 6.79085 -0.0449341 0
M  V30 1203 H 112.834 6.20735 2.12189 0
M  V30 1204 H 112.751 7.49778 0.967913 0
M  V30 1205 H 114.019 7.4906 2.15706 0
M  V30 1206 N 118.248 0.346503 1.53744 0
M  V30 1207 C 119.496 -0.248612 2.00565 0
M  V30 1208 C 119.817 -1.5083 1.23593 0
M  V30 1209 O 119.087 -1.92858 0.343912 0
M  V30 1210 H 117.667 -0.0948564 0.740953 0
M  V30 1211 H 120.329 0.468341 1.89189 0
M  V30 1212 H 119.425 -0.488994 3.08245 0
M  V30 1213 N 119.726 -1.57421 0.075193 0
M  V30 1214 C 120.636 -2.1642 -0.905511 0
M  V30 1215 C 121.652 -1.12828 -1.32461 0
M  V30 1216 O 122.828 -1.45109 -1.39661 0
M  V30 1217 C 119.893 -2.71693 -2.15369 0
M  V30 1218 C 118.954 -3.90171 -1.79068 0
M  V30 1219 C 118.187 -4.42798 -2.97936 0
M  V30 1220 O 118.41 -3.94416 -4.12058 0
M  V30 1221 O 117.344 -5.34085 -2.77555 0
M  V30 1222 H 121.17 -3.00588 -0.433626 0
M  V30 1223 H 118.755 -1.48664 -0.148067 0
M  V30 1224 H 120.637 -3.07104 -2.88557 0
M  V30 1225 H 119.312 -1.90582 -2.61649 0
M  V30 1226 H 118.219 -3.59606 -1.03122 0
M  V30 1227 H 119.552 -4.72584 -1.37569 0
M  V30 1228 N 121.204 0.198386 -1.56346 0
M  V30 1229 C 122.151 1.24589 -1.94284 0
M  V30 1230 C 123.121 1.454 -0.802997 0
M  V30 1231 O 124.306 1.58588 -1.06087 0
M  V30 1232 C 121.446 2.58631 -2.28482 0
M  V30 1233 C 120.559 2.45426 -3.55514 0
M  V30 1234 C 119.694 3.7215 -3.79049 0
M  V30 1235 C 118.733 3.53763 -4.99518 0
M  V30 1236 N 117.87 4.72491 -5.19323 0
M  V30 1237 H 122.71 0.915356 -2.83593 0
M  V30 1238 H 120.247 0.440629 -1.40346 0
M  V30 1239 H 122.205 3.3672 -2.46324 0
M  V30 1240 H 120.835 2.89734 -1.42317 0
M  V30 1241 H 119.887 1.58652 -3.45737 0
M  V30 1242 H 121.199 2.27772 -4.43758 0
M  V30 1243 H 120.353 4.58679 -3.97113 0
M  V30 1244 H 119.092 3.92754 -2.89129 0
M  V30 1245 H 118.097 2.65619 -4.8138 0
M  V30 1246 H 119.322 3.34607 -5.90944 0
M  V30 1247 H 117.268 4.93365 -4.3235 0
M  V30 1248 H 117.185 4.5765 -6.01741 0
M  V30 1249 H 118.453 5.6038 -5.41843 0
M  V30 1250 N 122.682 1.50554 0.465978 0
M  V30 1251 C 123.907 1.65838 1.24549 0
M  V30 1252 C 124.332 0.343486 1.84937 0
M  V30 1253 O 123.69 -0.69324 1.67523 0
M  V30 1254 C 123.738 2.75533 2.32624 0
M  V30 1255 O 122.842 2.37142 3.37398 0
M  V30 1256 H 122.183 0.553893 0.366194 0
M  V30 1257 H 124.713 1.96959 0.553927 0
M  V30 1258 H 124.723 2.98763 2.77857 0
M  V30 1259 H 123.398 3.70962 1.88043 0
M  V30 1260 H 121.975 2.24377 2.97841 0
M  V30 1261 N 124.16 -0.719506 1.40217 0
M  V30 1262 C 125.09 -1.8465 1.42922 0
M  V30 1263 C 126.071 -1.67599 0.29062 0
M  V30 1264 O 127.256 -1.87688 0.498677 0
M  V30 1265 C 124.386 -3.22565 1.28722 0
M  V30 1266 C 123.34 -3.54281 2.40144 0
M  V30 1267 C 122.666 -4.91298 2.11023 0
M  V30 1268 C 123.966 -3.55676 3.82481 0
M  V30 1269 H 125.66 -1.82644 2.37237 0
M  V30 1270 H 123.206 -0.877305 1.1419 0
M  V30 1271 H 125.159 -4.01095 1.29232 0
M  V30 1272 H 123.883 -3.25137 0.308811 0
M  V30 1273 H 122.542 -2.78088 2.38877 0
M  V30 1274 H 122.19 -4.90468 1.11582 0
M  V30 1275 H 121.89 -5.13485 2.8567 0
M  V30 1276 H 123.414 -5.72166 2.13209 0
M  V30 1277 H 124.828 -4.24254 3.85592 0
M  V30 1278 H 123.225 -3.89388 4.56614 0
M  V30 1279 H 124.295 -2.55144 4.12346 0
M  V30 1280 N 125.638 -1.25649 -0.95132 0
M  V30 1281 C 126.868 -1.13179 -1.72841 0
M  V30 1282 C 127.276 0.316827 -1.86528 0
M  V30 1283 O 126.619 1.22948 -1.3649 0
M  V30 1284 C 126.681 -1.71644 -3.15878 0
M  V30 1285 C 126.345 -3.20667 -3.25609 0
M  V30 1286 C 127.342 -4.17616 -3.09666 0
M  V30 1287 C 125.027 -3.6094 -3.49324 0
M  V30 1288 C 127.021 -5.52817 -3.17289 0
M  V30 1289 C 124.708 -4.96278 -3.56584 0
M  V30 1290 C 125.706 -5.92025 -3.40581 0
M  V30 1291 O 125.394 -7.24899 -3.47528 0
M  V30 1292 H 125.126 -0.395389 -0.54831 0
M  V30 1293 H 127.68 -1.66566 -1.20187 0
M  V30 1294 H 125.91 -1.12707 -3.69911 0
M  V30 1295 H 127.599 -1.54225 -3.75459 0
M  V30 1296 H 128.365 -3.87842 -2.91211 0
M  V30 1297 H 124.244 -2.86907 -3.6084 0
M  V30 1298 H 127.788 -6.2753 -3.04716 0
M  V30 1299 H 123.685 -5.25716 -3.74556 0
M  V30 1300 H 124.453 -7.33039 -3.64138 0
M  V30 1301 N 127.117 1.15442 -1.07289 0
M  V30 1302 C 128.347 1.89821 -0.815576 0
M  V30 1303 C 128.755 1.7823 0.634867 0
M  V30 1304 O 128.098 1.13152 1.44715 0
M  V30 1305 C 128.16 3.40817 -1.14385 0
M  V30 1306 C 127.824 3.76193 -2.59476 0
M  V30 1307 C 128.821 3.77269 -3.57721 0
M  V30 1308 C 126.506 4.0652 -2.95037 0
M  V30 1309 C 128.5 4.08176 -4.89562 0
M  V30 1310 C 126.187 4.37092 -4.27076 0
M  V30 1311 C 127.185 4.37902 -5.24148 0
M  V30 1312 O 126.873 4.67741 -6.53815 0
M  V30 1313 H 126.605 0.608465 -0.294528 0
M  V30 1314 H 129.159 1.472 -1.43252 0
M  V30 1315 H 127.389 3.83835 -0.469865 0
M  V30 1316 H 129.078 3.96485 -0.869179 0
M  V30 1317 H 129.844 3.5394 -3.3159 0
M  V30 1318 H 125.723 4.05049 -2.20128 0
M  V30 1319 H 129.267 4.08723 -5.65324 0
M  V30 1320 H 125.164 4.59889 -4.5296 0
M  V30 1321 H 125.932 4.85509 -6.58957 0
M  V30 1322 N 128.595 0.856903 1.32268 0
M  V30 1323 C 129.841 0.462069 1.97466 0
M  V30 1324 C 130.174 -0.980298 1.67642 0
M  V30 1325 O 129.449 -1.68824 0.965858 0
M  V30 1326 C 129.732 0.704336 3.53145 0
M  V30 1327 C 129.585 2.19529 3.9259 0
M  V30 1328 C 130.904 0.1622 4.39801 0
M  V30 1329 H 128.023 0.169357 0.717278 0
M  V30 1330 H 130.665 1.07574 1.56614 0
M  V30 1331 H 128.815 0.181999 3.88073 0
M  V30 1332 H 130.487 2.78387 3.67829 0
M  V30 1333 H 128.73 2.67292 3.41668 0
M  V30 1334 H 129.401 2.31549 5.01088 0
M  V30 1335 H 131.877 0.608905 4.11621 0
M  V30 1336 H 130.753 0.361265 5.4771 0
M  V30 1337 H 131.014 -0.935158 4.32096 0
M  V30 1338 N 130.073 -1.45103 0.615059 0
M  V30 1339 C 131.319 -2.02483 0.113347 0
M  V30 1340 C 131.652 -1.48146 -1.25564 0
M  V30 1341 O 130.927 -0.659104 -1.82992 0
M  V30 1342 C 131.21 -3.60005 0.0825278 0
M  V30 1343 C 131.063 -4.2466 1.48271 0
M  V30 1344 C 132.382 -4.35972 -0.601401 0
M  V30 1345 H 129.501 -0.735764 0.0426632 0
M  V30 1346 H 132.143 -1.72868 0.788461 0
M  V30 1347 H 130.293 -3.85367 -0.492378 0
M  V30 1348 H 131.965 -4.10458 2.10527 0
M  V30 1349 H 130.208 -3.82772 2.04127 0
M  V30 1350 H 130.879 -5.336 1.41332 0
M  V30 1351 H 133.355 -4.15947 -0.112666 0
M  V30 1352 H 132.231 -5.45697 -0.592097 0
M  V30 1353 H 132.492 -4.09391 -1.66887 0
M  V30 1354 N 131.551 -0.354651 -1.53558 0
M  V30 1355 C 132.501 0.513179 -2.2215 0
M  V30 1356 C 133.485 1.05734 -1.21281 0
M  V30 1357 O 134.677 0.989202 -1.46778 0
M  V30 1358 C 131.806 1.65798 -3.00609 0
M  V30 1359 C 130.892 1.12722 -4.08845 0
M  V30 1360 N 131.283 0.318563 -5.04796 0
M  V30 1361 C 129.581 1.40307 -4.23356 0
M  V30 1362 C 130.282 0.0292224 -5.81693 0
M  V30 1363 N 129.258 0.623891 -5.40008 0
M  V30 1364 H 133.06 -0.111586 -2.93688 0
M  V30 1365 H 130.574 -0.162091 -1.61589 0
M  V30 1366 H 132.571 2.29176 -3.48258 0
M  V30 1367 H 131.231 2.28591 -2.306 0
M  V30 1368 H 132.242 -0.0413091 -5.17884 0
M  V30 1369 H 128.919 2.03458 -3.6457 0
M  V30 1370 H 130.309 -0.623808 -6.68998 0
M  V30 1371 N 133.029 1.57378 -0.0835403 0
M  V30 1372 C 133.992 2.12252 0.864959 0
M  V30 1373 C 134.992 1.04916 1.21858 0
M  V30 1374 O 136.182 1.30853 1.14991 0
M  V30 1375 C 133.314 2.63358 2.16461 0
M  V30 1376 H 134.507 2.97371 0.388676 0
M  V30 1377 H 132.06 1.55423 0.165317 0
M  V30 1378 H 132.795 1.81727 2.686 0
M  V30 1379 H 132.58 3.41826 1.92087 0
M  V30 1380 H 134.07 3.05847 2.84337 0
M  V30 1381 N 134.507 -0.190092 1.56449 0
M  V30 1382 C 135.454 -1.23557 1.94942 0
M  V30 1383 C 136.424 -1.44972 0.810696 0
M  V30 1384 O 137.609 -1.58023 1.06927 0
M  V30 1385 C 134.749 -2.57416 2.2985 0
M  V30 1386 C 133.862 -2.43537 3.5681 0
M  V30 1387 C 132.997 -3.70134 3.81017 0
M  V30 1388 C 132.036 -3.51109 5.01387 0
M  V30 1389 N 131.173 -4.6973 5.21822 0
M  V30 1390 H 136.013 -0.900304 2.84075 0
M  V30 1391 H 133.55 -0.43318 1.40577 0
M  V30 1392 H 135.508 -3.35409 2.48106 0
M  V30 1393 H 134.138 -2.88975 1.43852 0
M  V30 1394 H 133.19 -1.56816 3.46573 0
M  V30 1395 H 134.502 -2.25415 4.4496 0
M  V30 1396 H 133.656 -4.56566 3.9954 0
M  V30 1397 H 132.395 -3.91215 2.91207 0
M  V30 1398 H 131.4 -2.63063 4.82782 0
M  V30 1399 H 132.625 -3.31468 5.9271 0
M  V30 1400 H 130.571 -4.91065 4.34961 0
M  V30 1401 H 130.488 -4.54452 6.0416 0
M  V30 1402 H 131.756 -5.57499 5.44808 0
M  V30 1403 N 135.985 -1.50799 -0.457987 0
M  V30 1404 C 137.233 -1.62121 -1.2067 0
M  V30 1405 C 137.554 -0.329793 -1.92191 0
M  V30 1406 O 136.824 0.653409 -1.84682 0
M  V30 1407 H 135.404 -0.597441 -0.448411 0
M  V30 1408 H 138.066 -1.87637 -0.527096 0
M  V30 1409 H 137.162 -2.43882 -1.94751 0
M  V30 1410 N 137.463 0.71206 -1.40597 0
M  V30 1411 C 138.373 1.8562 -1.43466 0
M  V30 1412 C 139.389 1.70902 -0.326902 0
M  V30 1413 O 140.565 1.93105 -0.572043 0
M  V30 1414 C 137.63 3.21451 -1.29884 0
M  V30 1415 C 136.691 3.48398 -2.50833 0
M  V30 1416 C 135.924 4.77749 -2.3789 0
M  V30 1417 O 136.147 5.53089 -1.39459 0
M  V30 1418 O 135.081 5.05111 -3.27333 0
M  V30 1419 H 138.907 1.86155 -2.39958 0
M  V30 1420 H 136.492 0.86295 -1.21957 0
M  V30 1421 H 138.374 4.02579 -1.24531 0
M  V30 1422 H 137.049 3.21636 -0.364997 0
M  V30 1423 H 135.956 2.67265 -2.61763 0
M  V30 1424 H 137.289 3.53014 -3.4299 0
M  V30 1425 N 138.941 1.26152 0.944643 0
M  V30 1426 C 139.871 1.09902 2.06019 0
M  V30 1427 C 140.852 0.00519538 1.70099 0
M  V30 1428 O 142.037 0.176583 1.93396 0
M  V30 1429 C 139.167 0.727562 3.39594 0
M  V30 1430 C 138.121 1.77274 3.89561 0
M  V30 1431 C 137.447 1.25569 5.19747 0
M  V30 1432 C 138.747 3.17357 4.14827 0
M  V30 1433 H 140.441 2.03217 2.19871 0
M  V30 1434 H 137.987 0.978452 1.05652 0
M  V30 1435 H 139.94 0.600777 4.17095 0
M  V30 1436 H 138.664 -0.241287 3.25707 0
M  V30 1437 H 137.323 1.88814 3.14237 0
M  V30 1438 H 136.971 0.276783 5.02238 0
M  V30 1439 H 136.671 1.95433 5.54148 0
M  V30 1440 H 138.195 1.1415 5.99835 0
M  V30 1441 H 139.609 3.08914 4.82954 0
M  V30 1442 H 138.006 3.84781 4.60504 0
M  V30 1443 H 139.076 3.63673 3.20734 0
M  V30 1444 N 140.419 -1.14872 1.07899 0
M  V30 1445 C 141.366 -2.19791 0.704319 0
M  V30 1446 C 142.336 -1.63238 -0.306987 0
M  V30 1447 O 143.521 -1.8983 -0.192171 0
M  V30 1448 C 140.661 -3.44911 0.114244 0
M  V30 1449 C 139.774 -4.15637 1.1777 0
M  V30 1450 C 138.909 -5.28324 0.552037 0
M  V30 1451 C 137.948 -5.90875 1.59789 0
M  V30 1452 N 137.085 -6.95022 0.994404 0
M  V30 1453 H 141.925 -2.5119 1.60336 0
M  V30 1454 H 139.462 -1.23356 0.801352 0
M  V30 1455 H 141.42 -4.16477 -0.245544 0
M  V30 1456 H 140.05 -3.14011 -0.74813 0
M  V30 1457 H 139.102 -3.42512 1.65499 0
M  V30 1458 H 140.414 -4.5823 1.97046 0
M  V30 1459 H 139.568 -6.06538 0.1402 0
M  V30 1460 H 138.307 -4.86939 -0.272431 0
M  V30 1461 H 137.312 -5.11369 2.01945 0
M  V30 1462 H 138.537 -6.34337 2.42474 0
M  V30 1463 H 136.483 -6.55722 0.190939 0
M  V30 1464 H 136.4 -7.36073 1.72432 0
M  V30 1465 H 137.668 -7.77123 0.608253 0
M  V30 1466 N 141.898 -0.863906 -1.31812 0
M  V30 1467 C 142.848 -0.286898 -2.26188 0
M  V30 1468 C 143.832 0.572577 -1.50367 0
M  V30 1469 O 145.024 0.420447 -1.71934 0
M  V30 1470 C 142.153 0.515849 -3.39402 0
M  V30 1471 C 141.239 -0.356531 -4.22599 0
M  V30 1472 N 141.63 -1.44716 -4.84656 0
M  V30 1473 C 139.928 -0.147898 -4.45755 0
M  V30 1474 C 140.629 -1.98462 -5.46798 0
M  V30 1475 N 139.605 -1.28247 -5.28255 0
M  V30 1476 H 143.407 -1.12055 -2.717 0
M  V30 1477 H 140.921 -0.711012 -1.46008 0
M  V30 1478 H 142.918 0.945701 -4.06032 0
M  V30 1479 H 141.578 1.34718 -2.95434 0
M  V30 1480 H 142.589 -1.83008 -4.84488 0
M  V30 1481 H 139.266 0.647973 -4.12441 0
M  V30 1482 H 140.656 -2.89932 -6.06126 0
M  V30 1483 N 143.376 1.44774 -0.622745 0
M  V30 1484 C 144.604 2.06487 -0.130722 0
M  V30 1485 C 145.019 1.46476 1.19123 0
M  V30 1486 O 144.376 0.584502 1.72887 0
M  V30 1487 C 144.427 3.615 -0.000807207 0
M  V30 1488 O 144.148 4.19274 -1.27048 0
M  V30 1489 C 145.649 4.40229 0.520898 0
M  V30 1490 H 142.869 0.666704 -0.0758106 0
M  V30 1491 H 145.413 1.85779 -0.854774 0
M  V30 1492 H 143.568 3.81498 0.673643 0
M  V30 1493 H 143.982 5.12622 -1.1099 0
M  V30 1494 H 145.456 5.49144 0.560838 0
M  V30 1495 H 145.933 4.1108 1.54627 0
M  V30 1496 H 146.539 4.25131 -0.120018 0
M  V30 1497 N 144.854 0.36279 1.53368 0
M  V30 1498 C 146.079 -0.231226 2.06107 0
M  V30 1499 C 146.504 -1.419 1.23474 0
M  V30 1500 O 145.862 -1.79524 0.253128 0
M  V30 1501 C 145.91 -0.605523 3.5548 0
M  V30 1502 O 145.014 -1.70312 3.7559 0
M  V30 1503 H 144.355 -0.034327 0.663112 0
M  V30 1504 H 146.885 0.522584 1.97814 0
M  V30 1505 H 146.895 -0.877314 3.98456 0
M  V30 1506 H 145.57 0.263004 4.15068 0
M  V30 1507 H 144.147 -1.4271 3.44512 0
M  V30 1508 N 146.332 -1.57332 0.0918853 0
M  V30 1509 C 147.572 -1.96117 -0.575988 0
M  V30 1510 C 147.936 -0.972499 -1.65549 0
M  V30 1511 O 149.137 -1.24872 -2.38034 0
M  V30 1512 C 147.408 -3.39407 -1.11973 0
M  V30 1513 S 148.967 -4.00185 -1.79992 0
M  V30 1514 H 145.785 -0.685682 -0.188045 0
M  V30 1515 H 148.387 -1.94755 0.170525 0
M  V30 1516 H 147.091 -4.09131 -0.322504 0
M  V30 1517 H 146.622 -3.44358 -1.90214 0
M  V30 1518 H 148.637 -3.88728 -3.08391 0
M  V30 1519 N 147.81 0.181792 -1.56548 0
M  V30 1520 C 148.74 1.22765 -1.98623 0
M  V30 1521 C 149.721 1.46747 -0.860189 0
M  V30 1522 O 150.906 1.58259 -1.12551 0
M  V30 1523 C 148.036 2.56894 -2.33715 0
M  V30 1524 C 146.99 2.475 -3.49182 0
M  V30 1525 C 146.316 3.86023 -3.69986 0
M  V30 1526 C 147.616 1.98866 -4.82959 0
M  V30 1527 H 149.31 0.877942 -2.86239 0
M  V30 1528 H 146.856 0.42088 -1.37712 0
M  V30 1529 H 148.809 3.30253 -2.61746 0
M  V30 1530 H 147.533 2.93632 -1.42997 0
M  V30 1531 H 146.192 1.76596 -3.21262 0
M  V30 1532 H 145.84 4.20136 -2.76576 0
M  V30 1533 H 145.54 3.80609 -4.47672 0
M  V30 1534 H 147.064 4.60984 -4.00407 0
M  V30 1535 H 148.478 2.61992 -5.09934 0
M  V30 1536 H 146.875 2.04424 -5.64208 0
M  V30 1537 H 147.945 0.942465 -4.75653 0
M  V30 1538 N 149.288 1.51039 0.449983 0
M  V30 1539 C 150.251 1.70863 1.5277 0
M  V30 1540 C 151.251 0.578846 1.5002 0
M  V30 1541 O 152.441 0.846213 1.52266 0
M  V30 1542 C 149.573 1.75341 2.9235 0
M  V30 1543 H 150.766 2.67034 1.36502 0
M  V30 1544 H 148.319 1.40838 0.677812 0
M  V30 1545 H 149.054 0.809383 3.14037 0
M  V30 1546 H 148.839 2.57436 2.95752 0
M  V30 1547 H 150.329 1.92559 3.70555 0
M  V30 1548 N 150.766 -0.704594 1.40972 0
M  V30 1549 C 152.006 -1.47691 1.41304 0
M  V30 1550 C 152.37 -1.91992 0.0178582 0
M  V30 1551 O 153.571 -2.68599 -0.103996 0
M  V30 1552 C 151.842 -2.66254 2.38419 0
M  V30 1553 S 153.401 -3.55516 2.57204 0
M  V30 1554 H 150.219 -0.504808 0.500689 0
M  V30 1555 H 152.821 -0.822962 1.77335 0
M  V30 1556 H 151.525 -2.31897 3.38603 0
M  V30 1557 H 151.056 -3.3655 2.03711 0
M  V30 1558 H 153.071 -4.61115 1.83268 0
M  V30 1559 N 152.244 -1.26651 -0.937939 0
M  V30 1560 C 153.194 -1.05156 -2.02302 0
M  V30 1561 C 154.178 0.0171233 -1.60891 0
M  V30 1562 O 155.37 -0.200213 -1.75864 0
M  V30 1563 C 152.499 -0.689962 -3.36295 0
M  V30 1564 C 151.585 -1.79626 -3.84181 0
M  V30 1565 N 151.976 -3.03422 -4.04684 0
M  V30 1566 C 150.274 -1.6806 -4.13124 0
M  V30 1567 C 150.975 -3.75345 -4.444 0
M  V30 1568 N 149.951 -3.03051 -4.51288 0
M  V30 1569 H 153.753 -1.99117 -2.1617 0
M  V30 1570 H 151.267 -1.17216 -1.12402 0
M  V30 1571 H 153.264 -0.517112 -4.13681 0
M  V30 1572 H 151.924 0.242139 -3.23796 0
M  V30 1573 H 152.935 -3.39293 -3.91281 0
M  V30 1574 H 149.612 -0.818629 -4.09396 0
M  V30 1575 H 151.002 -4.81691 -4.68427 0
M  V30 1576 N 153.722 1.14298 -1.08507 0
M  V30 1577 C 154.947 1.8976 -0.837001 0
M  V30 1578 C 155.372 1.78097 0.605228 0
M  V30 1579 O 154.73 1.12188 1.4242 0
M  V30 1580 C 154.778 3.37685 -1.26495 0
M  V30 1581 O 153.882 4.10281 -0.417514 0
M  V30 1582 H 153.223 0.590365 -0.303917 0
M  V30 1583 H 155.753 1.44672 -1.44676 0
M  V30 1584 H 155.763 3.88501 -1.24625 0
M  V30 1585 H 154.438 3.45492 -2.31534 0
M  V30 1586 H 153.015 3.69536 -0.499722 0
M  V30 1587 N 155.201 0.870884 1.31352 0
M  V30 1588 C 156.148 0.325425 2.28494 0
M  V30 1589 C 157.118 -0.576615 1.5577 0
M  V30 1590 O 158.303 -0.508059 1.83911 0
M  V30 1591 C 155.443 -0.466283 3.41935 0
M  V30 1592 C 154.556 0.463378 4.29508 0
M  V30 1593 C 153.691 -0.342544 5.30094 0
M  V30 1594 C 152.73 0.583486 6.09313 0
M  V30 1595 N 151.867 -0.186244 7.01853 0
M  V30 1596 H 156.707 1.15901 2.74538 0
M  V30 1597 H 154.244 0.58294 1.35056 0
M  V30 1598 H 156.202 -0.941085 4.06447 0
M  V30 1599 H 154.832 -1.26456 2.97 0
M  V30 1600 H 153.884 1.05663 3.65431 0
M  V30 1601 H 155.196 1.1734 4.84802 0
M  V30 1602 H 154.35 -0.879816 6.00287 0
M  V30 1603 H 153.089 -1.08585 4.75458 0
M  V30 1604 H 152.094 1.13251 5.3801 0
M  V30 1605 H 153.319 1.32566 6.66035 0
M  V30 1606 H 151.265 -0.912348 6.49625 0
M  V30 1607 H 151.182 0.464422 7.54572 0
M  V30 1608 H 152.45 -0.704716 7.76308 0
M  V30 1609 N 156.679 -1.44442 0.630414 0
M  V30 1610 C 157.925 -2.02351 0.134816 0
M  V30 1611 C 158.258 -1.4947 -1.23986 0
M  V30 1612 O 157.533 -0.678475 -1.82283 0
M  V30 1613 C 157.816 -3.59898 0.120707 0
M  V30 1614 C 157.669 -4.23063 1.52767 0
M  V30 1615 C 158.988 -4.36585 -0.555127 0
M  V30 1616 H 156.107 -0.73527 0.0504646 0
M  V30 1617 H 158.749 -1.72022 0.806751 0
M  V30 1618 H 156.899 -3.85868 -0.451477 0
M  V30 1619 H 158.571 -4.08202 2.14869 0
M  V30 1620 H 156.814 -3.80586 2.08175 0
M  V30 1621 H 157.485 -5.32071 1.46984 0
M  V30 1622 H 159.961 -4.16044 -0.0685429 0
M  V30 1623 H 158.837 -5.46294 -0.534185 0
M  V30 1624 H 159.098 -4.11138 -1.62535 0
M  V30 1625 N 158.157 -0.370918 -1.53173 0
M  V30 1626 C 159.403 0.217423 -2.01631 0
M  V30 1627 C 159.736 1.47983 -1.25756 0
M  V30 1628 O 159.011 1.91274 -0.352764 0
M  V30 1629 C 159.294 0.503982 -3.56556 0
M  V30 1630 C 159.147 -0.77243 -4.43118 0
M  V30 1631 C 160.466 1.30234 -4.20389 0
M  V30 1632 H 157.585 0.0775486 -0.732909 0
M  V30 1633 H 160.227 -0.496863 -1.83388 0
M  V30 1634 H 158.377 1.11248 -3.72231 0
M  V30 1635 H 160.049 -1.4098 -4.39229 0
M  V30 1636 H 158.292 -1.39167 -4.10871 0
M  V30 1637 H 158.963 -0.526815 -5.4948 0
M  V30 1638 H 161.439 0.787546 -4.08579 0
M  V30 1639 H 160.315 1.47158 -5.28806 0
M  V30 1640 H 160.576 2.31237 -3.76805 0
M  V30 1641 N 159.635 1.57281 -0.100228 0
M  V30 1642 C 160.598 2.13158 0.842398 0
M  V30 1643 C 161.598 1.06202 1.20738 0
M  V30 1644 O 162.788 1.32066 1.13597 0
M  V30 1645 C 159.92 2.65639 2.13655 0
M  V30 1646 H 161.113 2.97766 0.357114 0
M  V30 1647 H 158.666 1.5559 0.148823 0
M  V30 1648 H 159.401 1.84566 2.66657 0
M  V30 1649 H 159.186 3.43844 1.88451 0
M  V30 1650 H 160.676 3.08846 2.81077 0
M  V30 1651 N 161.113 -0.173488 1.56642 0
M  V30 1652 C 162.023 -1.23482 1.99473 0
M  V30 1653 C 163.039 -1.48567 0.905752 0
M  V30 1654 O 164.215 -1.60758 1.21321 0
M  V30 1655 C 161.28 -2.55444 2.34413 0
M  V30 1656 C 160.341 -2.38241 3.57127 0
M  V30 1657 C 159.574 -3.63909 3.90392 0
M  V30 1658 O 159.797 -4.68996 3.24653 0
M  V30 1659 O 158.731 -3.58149 4.83749 0
M  V30 1660 H 162.557 -0.901279 2.90018 0
M  V30 1661 H 160.142 -0.380185 1.44482 0
M  V30 1662 H 162.024 -3.33292 2.57865 0
M  V30 1663 H 160.699 -2.88382 1.4703 0
M  V30 1664 H 159.606 -1.58431 3.38896 0
M  V30 1665 H 160.939 -2.10228 4.45045 0
M  V30 1666 N 162.591 -1.51276 -0.441967 0
M  V30 1667 C 163.538 -1.72256 -1.53612 0
M  V30 1668 C 164.508 -0.564164 -1.56225 0
M  V30 1669 O 165.693 -0.798074 -1.73307 0
M  V30 1670 C 162.833 -1.84932 -2.91366 0
M  V30 1671 C 161.946 -3.12459 -2.98317 0
M  V30 1672 C 161.081 -3.15758 -4.27166 0
M  V30 1673 C 160.12 -4.37619 -4.27967 0
M  V30 1674 N 159.257 -4.38493 -5.48333 0
M  V30 1675 H 164.097 -2.65654 -1.35026 0
M  V30 1676 H 161.634 -1.31662 -0.656009 0
M  V30 1677 H 163.592 -1.90263 -3.7129 0
M  V30 1678 H 162.222 -0.949461 -3.08521 0
M  V30 1679 H 161.274 -3.1646 -2.11086 0
M  V30 1680 H 162.586 -4.02382 -2.94771 0
M  V30 1681 H 161.74 -3.19979 -5.15459 0
M  V30 1682 H 160.479 -2.23715 -4.33362 0
M  V30 1683 H 159.484 -4.33579 -3.38067 0
M  V30 1684 H 160.709 -5.30921 -4.23438 0
M  V30 1685 H 158.655 -3.49318 -5.55259 0
M  V30 1686 H 158.572 -5.22219 -5.46647 0
M  V30 1687 H 159.84 -4.469 -6.38671 0
M  V30 1688 N 164.069 0.697108 -1.41344 0
M  V30 1689 C 165.48 1.27697 -1.36199 0
M  V30 1690 C 165.831 1.9615 -0.0443463 0
M  V30 1691 O 164.956 1.98689 0.857419 0
M  V30 1692 C 165.551 2.32223 -2.46694 0
M  V30 1693 C 164.11 2.8579 -2.44952 0
M  V30 1694 C 163.257 1.59807 -2.26621 0
M  V30 1695 H 166.208 0.491968 -1.50882 0
M  V30 1696 H 166.229 3.1348 -2.15664 0
M  V30 1697 H 165.741 1.82373 -3.42581 0
M  V30 1698 H 163.842 3.3982 -1.52817 0
M  V30 1699 H 163.955 3.36325 -3.41207 0
M  V30 1700 H 162.319 1.8556 -1.7447 0
M  V30 1701 H 163.102 1.11956 -3.24532 0
M  V30 1702 N 165.547 1.27147 0.931209 0
M  V30 1703 C 166.457 1.11372 2.06478 0
M  V30 1704 C 167.473 0.044645 1.73943 0
M  V30 1705 O 168.649 0.250417 1.99837 0
M  V30 1706 C 165.714 0.758838 3.38294 0
M  V30 1707 C 164.775 1.90841 3.84549 0
M  V30 1708 C 164.008 1.57036 5.10074 0
M  V30 1709 O 164.231 0.476645 5.68405 0
M  V30 1710 O 163.165 2.40839 5.51616 0
M  V30 1711 H 166.991 2.06493 2.22698 0
M  V30 1712 H 164.576 1.06301 1.04978 0
M  V30 1713 H 166.458 0.574098 4.17471 0
M  V30 1714 H 165.133 -0.162879 3.2329 0
M  V30 1715 H 164.04 2.14819 3.06274 0
M  V30 1716 H 165.373 2.81021 4.04089 0
M  V30 1717 N 167.025 -1.13721 1.09112 0
M  V30 1718 C 167.955 -2.21148 0.749385 0
M  V30 1719 C 168.936 -1.6792 -0.271475 0
M  V30 1720 O 170.121 -1.93693 -0.140251 0
M  V30 1721 C 167.251 -3.46905 0.165659 0
M  V30 1722 C 166.205 -4.13203 1.11567 0
M  V30 1723 C 165.531 -5.33248 0.393809 0
M  V30 1724 C 166.831 -4.60912 2.45678 0
M  V30 1725 H 168.525 -2.4999 1.64758 0
M  V30 1726 H 166.071 -1.20156 0.793626 0
M  V30 1727 H 168.024 -4.21313 -0.085466 0
M  V30 1728 H 166.748 -3.17449 -0.767714 0
M  V30 1729 H 165.407 -3.40758 1.35202 0
M  V30 1730 H 165.055 -5.00054 -0.543599 0
M  V30 1731 H 164.755 -5.78552 1.02721 0
M  V30 1732 H 166.279 -6.10413 0.150908 0
M  V30 1733 H 167.693 -5.26759 2.26269 0
M  V30 1734 H 166.09 -5.16944 3.04776 0
M  V30 1735 H 167.16 -3.75603 3.06677 0
M  V30 1736 N 168.503 -0.877838 -1.30888 0
M  V30 1737 C 169.45 -0.337538 -2.28318 0
M  V30 1738 C 170.42 0.568346 -1.56074 0
M  V30 1739 O 171.605 0.498298 -1.84178 0
M  V30 1740 C 168.745 0.448142 -3.42178 0
M  V30 1741 C 167.858 -0.48615 -4.29256 0
M  V30 1742 C 166.993 0.314427 -5.30269 0
M  V30 1743 C 166.032 -0.615791 -6.08995 0
M  V30 1744 N 165.169 0.14902 -7.01942 0
M  V30 1745 H 170.009 -1.17356 -2.73919 0
M  V30 1746 H 167.546 -0.590094 -1.34745 0
M  V30 1747 H 169.504 0.919517 -4.06941 0
M  V30 1748 H 168.134 1.24879 -2.97666 0
M  V30 1749 H 167.186 -1.076 -3.64865 0
M  V30 1750 H 168.498 -1.19909 -4.84173 0
M  V30 1751 H 167.652 0.847969 -6.00745 0
M  V30 1752 H 166.391 1.06062 -4.76027 0
M  V30 1753 H 165.396 -1.16102 -5.37401 0
M  V30 1754 H 166.621 -1.36097 -6.65323 0
M  V30 1755 H 164.567 0.877884 -6.50099 0
M  V30 1756 H 164.484 -0.504433 -7.54315 0
M  V30 1757 H 165.752 0.663537 -7.76671 0
M  V30 1758 N 169.982 1.44106 -0.638065 0
M  V30 1759 C 170.929 2.30715 0.062701 0
M  V30 1760 C 171.899 1.43882 0.829883 0
M  V30 1761 O 173.084 1.72775 0.809532 0
M  V30 1762 C 170.224 3.29258 1.03358 0
M  V30 1763 C 169.337 4.31192 0.26409 0
M  V30 1764 C 168.472 5.16825 1.22741 0
M  V30 1765 C 167.511 6.10462 0.447475 0
M  V30 1766 N 166.648 6.8877 1.36161 0
M  V30 1767 H 171.488 2.90096 -0.681781 0
M  V30 1768 H 169.025 1.42925 -0.347988 0
M  V30 1769 H 170.983 3.84886 1.60992 0
M  V30 1770 H 169.613 2.71562 1.74511 0
M  V30 1771 H 168.665 3.77981 -0.428295 0
M  V30 1772 H 169.977 4.97619 -0.343052 0
M  V30 1773 H 169.131 5.77004 1.87487 0
M  V30 1774 H 167.87 4.50488 1.86847 0
M  V30 1775 H 166.875 5.49386 -0.213433 0
M  V30 1776 H 168.1 6.78837 -0.188968 0
M  V30 1777 H 166.046 6.25096 1.98975 0
M  V30 1778 H 165.963 7.51663 0.808656 0
M  V30 1779 H 167.231 7.53467 1.99769 0
M  V30 1780 N 171.46 0.379036 1.52974 0
M  V30 1781 C 172.737 -0.263479 1.93817 0
M  V30 1782 C 173.117 -1.65244 1.31368 0
M  V30 1783 O 172.465 -2.23448 0.477856 0
M  V30 1784 C 172.675 -0.300166 3.47707 0
M  V30 1785 C 174.023 -0.534061 4.21228 0
M  V30 1786 O 175.047 -0.38081 3.54159 0
M  V30 1787 O 173.906 -0.833501 5.40106 0
M  V30 1788 H 171 -0.161149 0.811147 0
M  V30 1789 H 173.546 0.432798 1.64088 0
M  V30 1790 H 172.318 0.673138 3.85467 0
M  V30 1791 H 171.941 -1.04179 3.83709 0
M  V30 1792 N 172.938 -1.57226 0.108567 0
M  V30 1793 C 173.868 -2.17778 -0.84232 0
M  V30 1794 C 174.849 -1.11487 -1.2847 0
M  V30 1795 O 176.034 -1.39681 -1.34918 0
M  V30 1796 C 173.164 -2.76888 -2.09644 0
M  V30 1797 C 172.118 -3.88669 -1.79221 0
M  V30 1798 C 171.444 -4.34541 -3.11574 0
M  V30 1799 C 172.744 -5.11251 -1.06864 0
M  V30 1800 H 174.438 -2.97489 -0.337774 0
M  V30 1801 H 171.984 -1.43097 -0.161025 0
M  V30 1802 H 173.937 -3.17904 -2.76614 0
M  V30 1803 H 172.661 -1.94451 -2.62405 0
M  V30 1804 H 171.32 -3.48213 -1.14644 0
M  V30 1805 H 170.968 -3.48977 -3.62249 0
M  V30 1806 H 170.668 -5.09914 -2.91996 0
M  V30 1807 H 172.192 -4.782 -3.7968 0
M  V30 1808 H 173.606 -5.49352 -1.63968 0
M  V30 1809 H 172.003 -5.9214 -0.974178 0
M  V30 1810 H 173.073 -4.8487 -0.0536168 0
M  V30 1811 N 174.416 0.165178 -1.56732 0
M  V30 1812 C 175.644 0.896218 -1.86482 0
M  V30 1813 C 176.059 1.75555 -0.694675 0
M  V30 1814 O 175.416 1.79379 0.33607 0
M  V30 1815 C 175.467 1.76792 -3.1532 0
M  V30 1816 O 175.188 0.943239 -4.27825 0
M  V30 1817 C 176.689 2.6081 -3.58459 0
M  V30 1818 H 173.909 0.260064 -0.618553 0
M  V30 1819 H 176.453 0.163428 -2.03846 0
M  V30 1820 H 174.608 2.45398 -2.99764 0
M  V30 1821 H 175.022 1.53998 -5.01383 0
M  V30 1822 H 176.496 3.17579 -4.51495 0
M  V30 1823 H 176.973 3.35977 -2.82872 0
M  V30 1824 H 177.579 1.97526 -3.76648 0
M  V30 1825 N 175.894 1.51508 0.433938 0
M  V30 1826 C 177.142 1.6402 1.18075 0
M  V30 1827 C 177.463 0.360328 1.91642 0
M  V30 1828 O 176.733 -0.623945 1.85698 0
M  V30 1829 H 175.313 0.6045 0.43885 0
M  V30 1830 H 177.975 1.88452 0.497178 0
M  V30 1831 H 177.071 2.46949 1.90847 0
M  V30 1832 N 177.372 -0.689602 1.41712 0
M  V30 1833 C 178.612 -1.46184 1.42862 0
M  V30 1834 C 178.976 -1.91962 0.0382204 0
M  V30 1835 O 180.177 -2.68694 -0.0755019 0
M  V30 1836 C 178.448 -2.6371 2.4123 0
M  V30 1837 S 180.007 -3.52768 2.6096 0
M  V30 1838 H 176.825 -0.49947 0.506015 0
M  V30 1839 H 179.427 -0.804107 1.78198 0
M  V30 1840 H 178.131 -2.28293 3.41044 0
M  V30 1841 H 177.662 -3.3437 2.07269 0
M  V30 1842 H 179.677 -4.59146 1.88148 0
M  V30 1843 N 178.85 -1.27639 -0.924453 0
M  V30 1844 C 179.813 -1.10681 -2.00705 0
M  V30 1845 C 180.813 -0.0497823 -1.60723 0
M  V30 1846 O 182.003 -0.294654 -1.7169 0
M  V30 1847 C 179.135 -0.687164 -3.33902 0
M  V30 1848 H 180.328 -2.06817 -2.17179 0
M  V30 1849 H 177.881 -1.10473 -1.10569 0
M  V30 1850 H 178.616 0.275439 -3.23128 0
M  V30 1851 H 178.401 -1.45061 -3.6428 0
M  V30 1852 H 179.891 -0.590853 -4.13399 0
M  V30 1853 N 180.328 1.1314 -1.09713 0
M  V30 1854 C 181.275 2.18642 -0.739196 0
M  V30 1855 C 182.245 1.63706 0.280978 0
M  V30 1856 O 183.43 1.90111 0.161946 0
M  V30 1857 C 180.57 3.44685 -0.169102 0
M  V30 1858 C 179.683 4.13711 -1.24367 0
M  V30 1859 C 178.818 5.27379 -0.636019 0
M  V30 1860 C 177.857 5.88259 -1.69169 0
M  V30 1861 N 176.994 6.93352 -1.10485 0
M  V30 1862 H 181.834 2.48607 -1.64312 0
M  V30 1863 H 179.371 1.22066 -0.820875 0
M  V30 1864 H 181.329 4.16815 0.179256 0
M  V30 1865 H 179.959 3.15161 0.698079 0
M  V30 1866 H 179.011 3.39835 -1.70927 0
M  V30 1867 H 180.323 4.55037 -2.04311 0
M  V30 1868 H 179.477 6.06238 -0.236677 0
M  V30 1869 H 178.216 4.8731 0.194928 0
M  V30 1870 H 177.221 5.08092 -2.10055 0
M  V30 1871 H 178.446 6.30399 -2.52536 0
M  V30 1872 H 176.392 6.55335 -0.295234 0
M  V30 1873 H 176.309 7.33236 -1.84121 0
M  V30 1874 H 177.577 7.76057 -0.73181 0
M  V30 1875 N 181.806 0.884767 1.30421 0
M  V30 1876 C 183.031 0.517288 2.00845 0
M  V30 1877 C 183.456 -0.886779 1.65885 0
M  V30 1878 O 182.814 -1.58768 0.875354 0
M  V30 1879 C 182.862 0.698994 3.5376 0
M  V30 1880 O 181.966 -0.255208 4.1161 0
M  V30 1881 H 181.307 0.203872 0.631927 0
M  V30 1882 H 183.837 1.19225 1.66272 0
M  V30 1883 H 183.847 0.597912 4.03595 0
M  V30 1884 H 182.522 1.72271 3.78544 0
M  V30 1885 H 181.099 -0.10784 3.72744 0
M  V30 1886 N 183.284 -1.43765 0.645699 0
M  V30 1887 C 184.231 -2.30745 -0.0504648 0
M  V30 1888 C 185.201 -1.4432 -0.822241 0
M  V30 1889 O 186.386 -1.73202 -0.800358 0
M  V30 1890 C 183.526 -3.29802 -1.0161 0
M  V30 1891 C 182.639 -4.31326 -0.241219 0
M  V30 1892 C 181.774 -5.17469 -1.19998 0
M  V30 1893 C 180.813 -6.10691 -0.415094 0
M  V30 1894 N 179.95 -6.89483 -1.32506 0
M  V30 1895 H 184.79 -2.8973 0.697155 0
M  V30 1896 H 182.327 -1.42738 0.355563 0
M  V30 1897 H 184.285 -3.85734 -1.58949 0
M  V30 1898 H 182.915 -2.72483 -1.73069 0
M  V30 1899 H 181.967 -3.77749 0.448334 0
M  V30 1900 H 183.279 -4.9743 0.369437 0
M  V30 1901 H 182.433 -5.7799 -1.84424 0
M  V30 1902 H 181.172 -4.51473 -1.84455 0
M  V30 1903 H 180.177 -5.49265 0.242565 0
M  V30 1904 H 181.402 -6.78727 0.224966 0
M  V30 1905 H 179.348 -6.26142 -1.95657 0
M  V30 1906 H 179.265 -7.52081 -0.768783 0
M  V30 1907 H 180.533 -7.54516 -1.9577 0
M  V30 1908 N 184.763 -0.387143 -1.52771 0
M  V30 1909 C 186.003 0.195537 -2.03463 0
M  V30 1910 C 186.367 1.44222 -1.26744 0
M  V30 1911 O 187.568 2.10192 -1.67549 0
M  V30 1912 C 185.839 0.459097 -3.54439 0
M  V30 1913 S 187.398 1.01237 -4.26962 0
M  V30 1914 H 184.216 0.0552675 -0.708849 0
M  V30 1915 H 186.818 -0.534992 -1.88037 0
M  V30 1916 H 185.522 -0.455382 -4.07866 0
M  V30 1917 H 185.053 1.21811 -3.74066 0
M  V30 1918 H 187.068 2.29492 -4.39941 0
M  V30 1919 N 186.241 1.57166 -0.116904 0
M  V30 1920 C 187.191 2.11756 0.845178 0
M  V30 1921 C 188.175 1.03783 1.22955 0
M  V30 1922 O 189.367 1.3002 1.20099 0
M  V30 1923 C 186.496 2.71886 2.09602 0
M  V30 1924 C 185.582 3.86937 1.7361 0
M  V30 1925 N 185.973 4.94073 1.08284 0
M  V30 1926 C 184.271 3.97082 2.03082 0
M  V30 1927 C 184.972 5.74477 0.913855 0
M  V30 1928 N 183.948 5.2423 1.43818 0
M  V30 1929 H 187.75 2.91967 0.336523 0
M  V30 1930 H 185.264 1.62174 0.0856332 0
M  V30 1931 H 187.261 3.09338 2.79492 0
M  V30 1932 H 185.921 1.93138 2.61013 0
M  V30 1933 H 186.932 5.12483 0.747067 0
M  V30 1934 H 183.609 3.29372 2.56554 0
M  V30 1935 H 184.999 6.70701 0.40125 0
M  V30 1936 N 187.719 -0.156864 1.56817 0
M  V30 1937 C 189.13 -0.717916 1.72345 0
M  V30 1938 C 189.481 -1.82124 0.729747 0
M  V30 1939 O 188.606 -2.16141 -0.105781 0
M  V30 1940 C 189.201 -1.30904 3.12489 0
M  V30 1941 C 187.76 -1.81676 3.29653 0
M  V30 1942 C 186.907 -0.701349 2.68284 0
M  V30 1943 H 189.858 0.0686989 1.58551 0
M  V30 1944 H 189.879 -2.17882 3.11942 0
M  V30 1945 H 189.391 -0.505796 3.8479 0
M  V30 1946 H 187.492 -2.64598 2.62333 0
M  V30 1947 H 187.605 -1.95226 4.3752 0
M  V30 1948 H 185.969 -1.12548 2.28484 0
M  V30 1949 H 186.752 0.0902846 3.43181 0
M  V30 1950 O 189.236 -1.58657 -0.301679 0
M  V30 1951 H 189.927 -1.6887 -0.948812 0
M  V30 END ATOM
M  V30 BEGIN BOND
M  V30 END BOND
M  V30 END CTAB
M  END
$$$$
