drugbank_target|Q9LAK3 Alpha-2,3-/2,8-sialyltransferase (DB03403)
 OpenBabel12092120043D

  0  0  0     0  0            999 V3000
M  V30 BEGIN CTAB
M  V30 COUNTS 4863 4930 0 0 0
M  V30 BEGIN ATOM
M  V30 1 H -0.908 1.98254 -0.117106 0
M  V30 2 N 0 1.576 0 0
M  V30 3 C 0.933 2.03868 1.02534 0
M  V30 4 C 1.911 0.928543 1.3348 0
M  V30 5 O 3.095 1.19667 1.45644 0
M  V30 6 C 0.222 2.43627 2.35294 0
M  V30 7 C -0.732 3.65373 2.2001 0
M  V30 8 S 0.101 5.13292 1.52614 0
M  V30 9 C 1.257 5.56322 2.86805 0
M  V30 10 H 1.49 2.90518 0.631377 0
M  V30 11 H -0.977 1.52953 0.210867 0
M  V30 12 H 0.981 2.67203 3.11629 0
M  V30 13 H -0.358 1.57376 2.7183 0
M  V30 14 H -1.165 3.90944 3.18086 0
M  V30 15 H -1.563 3.418 1.51819 0
M  V30 16 H 0.729 5.58782 3.83104 0
M  V30 17 H 1.672 6.56266 2.65933 0
M  V30 18 H 2.08 4.83886 2.90714 0
M  V30 19 N 1.4781 -0.272755 1.55222 0
M  V30 20 C 2.4251 -1.33716 1.88119 0
M  V30 21 C 3.3951 -1.49066 0.73271 0
M  V30 22 O 4.5801 -1.63469 0.984002 0
M  V30 23 C 1.7201 -2.69238 2.15882 0
M  V30 24 C 0.8331 -2.62108 3.43399 0
M  V30 25 C -0.0319 -3.89811 3.60861 0
M  V30 26 C -0.9929 -3.77193 4.8207 0
M  V30 27 N -1.8559 -4.9673 4.96189 0
M  V30 28 H 2.9841 -1.04962 2.78903 0
M  V30 29 H 0.5211 -0.507088 1.38083 0
M  V30 30 H 2.4791 -3.48089 2.29978 0
M  V30 31 H 1.1091 -2.96194 1.28331 0
M  V30 32 H 0.1611 -1.74967 3.37773 0
M  V30 33 H 1.4731 -2.48685 4.32386 0
M  V30 34 H 0.6271 -4.77103 3.74777 0
M  V30 35 H -0.6339 -4.06102 2.7006 0
M  V30 36 H -1.6289 -2.88284 4.68159 0
M  V30 37 H -0.4039 -3.62421 5.74307 0
M  V30 38 H -2.4579 -5.13431 4.08319 0
M  V30 39 H -2.5409 -4.85839 5.79221 0
M  V30 40 H -1.2729 -5.85594 5.1449 0
M  V30 41 N 2.9562 -1.48159 -0.537278 0
M  V30 42 C 3.9032 -1.62138 -1.64256 0
M  V30 43 C 4.8732 -0.463668 -1.59497 0
M  V30 44 O 6.0582 -0.686241 -1.78032 0
M  V30 45 C 3.1982 -1.66028 -3.02537 0
M  V30 46 C 2.3112 -2.92855 -3.17585 0
M  V30 47 C 1.4462 -2.87952 -4.46382 0
M  V30 48 C 0.4852 -4.09516 -4.54932 0
M  V30 49 N -0.3778 -4.02733 -5.75109 0
M  V30 50 H 4.4622 -2.56529 -1.51647 0
M  V30 51 H 1.9992 -1.27224 -0.738414 0
M  V30 52 H 3.9572 -1.66265 -3.82638 0
M  V30 53 H 2.5872 -0.751331 -3.13934 0
M  V30 54 H 1.6392 -3.02395 -2.30784 0
M  V30 55 H 2.9512 -3.82822 -3.19764 0
M  V30 56 H 2.1052 -2.8655 -5.34765 0
M  V30 57 H 0.8442 -1.95702 -4.46712 0
M  V30 58 H -0.1508 -4.11201 -3.64957 0
M  V30 59 H 1.0742 -5.02917 -4.56346 0
M  V30 60 H -0.9798 -3.13299 -5.76351 0
M  V30 61 H -1.0628 -4.86397 -5.78752 0
M  V30 62 H 0.2052 -4.05379 -6.65799 0
M  V30 63 N 4.4343 0.785586 -1.36625 0
M  V30 64 C 5.6803 1.54591 -1.31261 0
M  V30 65 C 6.0133 1.93906 0.106823 0
M  V30 66 O 5.2883 1.63007 1.06108 0
M  V30 67 C 5.5713 2.82038 -2.23889 0
M  V30 68 C 5.4243 2.49066 -3.74548 0
M  V30 69 C 6.7433 3.83887 -2.15217 0
M  V30 70 H 3.8623 0.560846 -0.478143 0
M  V30 71 H 6.5043 0.902278 -1.67209 0
M  V30 72 H 4.6543 3.36961 -1.93363 0
M  V30 73 H 6.3263 2.00164 -4.15611 0
M  V30 74 H 4.5693 1.81954 -3.93796 0
M  V30 75 H 5.2403 3.40109 -4.34776 0
M  V30 76 H 7.7163 3.38421 -2.42096 0
M  V30 77 H 6.5923 4.70806 -2.82193 0
M  V30 78 H 6.8533 4.27131 -1.14068 0
M  V30 79 N 5.9124 1.20967 1.01018 0
M  V30 80 C 7.1614 1.01796 1.74128 0
M  V30 81 C 7.4744 -0.449691 1.90361 0
M  V30 82 O 8.6804 -0.76068 2.60626 0
M  V30 83 C 7.1364 1.7727 3.13215 0
M  V30 84 C 6.7444 3.28171 3.04972 0
M  V30 85 C 8.4884 1.66489 3.90489 0
M  V30 86 C 6.3954 3.96156 4.39107 0
M  V30 87 H 5.3254 0.377276 0.652824 0
M  V30 88 H 7.9764 1.44651 1.12909 0
M  V30 89 H 6.3584 1.27205 3.75013 0
M  V30 90 H 7.5324 3.85499 2.52443 0
M  V30 91 H 5.8474 3.39437 2.41188 0
M  V30 92 H 8.4444 2.14617 4.89738 0
M  V30 93 H 8.7874 0.6222 4.11624 0
M  V30 94 H 9.3204 2.14003 3.35332 0
M  V30 95 H 6.0594 5.00604 4.23174 0
M  V30 96 H 5.5794 3.43617 4.91617 0
M  V30 97 H 7.2584 4.00774 5.07926 0
M  V30 98 N 7.3905 -1.2043 1.01659 0
M  V30 99 C 8.6395 -1.89118 0.701237 0
M  V30 100 C 8.9525 -1.79705 -0.772358 0
M  V30 101 O 10.1585 -2.43528 -1.20026 0
M  V30 102 C 8.6145 -3.39168 1.20388 0
M  V30 103 C 8.2225 -3.57166 2.70438 0
M  V30 104 C 9.9665 -4.1341 0.963953 0
M  V30 105 C 7.8735 -5.01042 3.14183 0
M  V30 106 H 6.8035 -0.708267 0.2586 0
M  V30 107 H 9.4545 -1.36239 1.22927 0
M  V30 108 H 7.8365 -3.91369 0.603824 0
M  V30 109 H 9.0105 -3.15351 3.35992 0
M  V30 110 H 7.3255 -2.96294 2.92572 0
M  V30 111 H 9.9225 -5.19491 1.26621 0
M  V30 112 H 10.2655 -4.16181 -0.099578 0
M  V30 113 H 10.7985 -3.67309 1.52738 0
M  V30 114 H 7.5375 -5.03426 4.19812 0
M  V30 115 H 7.0575 -5.43668 2.53348 0
M  V30 116 H 8.7365 -5.69623 3.0682 0
M  V30 117 N 8.8686 -0.792821 -1.36206 0
M  V30 118 C 9.8316 -0.199459 -2.2833 0
M  V30 119 C 10.8316 0.605189 -1.48977 0
M  V30 120 O 12.0216 0.425685 -1.68919 0
M  V30 121 C 9.1536 0.723523 -3.33134 0
M  V30 122 H 10.3466 -1.01181 -2.82316 0
M  V30 123 H 7.8996 -0.562485 -1.45828 0
M  V30 124 H 8.6346 1.56008 -2.84309 0
M  V30 125 H 8.4196 0.148436 -3.91819 0
M  V30 126 H 9.9096 1.13344 -4.01924 0
M  V30 127 N 10.3467 1.47872 -0.545128 0
M  V30 128 C 11.5947 2.02093 -0.016553 0
M  V30 129 C 11.9157 1.42305 1.3332 0
M  V30 130 O 11.1857 0.593853 1.86682 0
M  V30 131 H 9.7657 0.746993 -0.00313038 0
M  V30 132 H 12.4277 1.81414 -0.712397 0
M  V30 133 H 11.5237 3.11996 0.0805422 0
M  V30 134 N 11.8248 0.280983 1.55075 0
M  V30 135 C 12.7728 -0.619864 2.24188 0
M  V30 136 C 13.7668 -1.15315 1.24092 0
M  V30 137 O 14.9728 -1.1061 1.42005 0
M  V30 138 H 11.3478 -0.218459 0.719569 0
M  V30 139 H 13.3188 -0.0141831 2.98397 0
M  V30 140 C 12.0678 -1.7899 2.98091 0
M  V30 141 H 11.3908 -1.38874 3.74905 0
M  V30 142 H 12.8308 -2.39672 3.49762 0
M  V30 143 C 11.2898 -2.68192 2.03899 0
M  V30 144 O 11.8198 -3.6872 1.594 0
M  V30 145 N 10.0258 -2.35488 1.70275 0
M  V30 146 H 9.5728 -1.53787 2.06658 0
M  V30 147 H 9.5308 -2.95442 1.07524 0
M  V30 148 N 13.3029 -1.57598 0.00835791 0
M  V30 149 C 14.5509 -1.90551 -0.6734 0
M  V30 150 C 14.8719 -0.883301 -1.73847 0
M  V30 151 O 14.1419 0.0781442 -1.95744 0
M  V30 152 H 12.7219 -0.703312 -0.251717 0
M  V30 153 H 15.3839 -1.94833 0.0512592 0
M  V30 154 H 14.4799 -2.9056 -1.13935 0
M  V30 155 N 14.781 0.264519 -1.55364 0
M  V30 156 C 16.192 0.834936 -1.6699 0
M  V30 157 C 16.543 1.86718 -0.602552 0
M  V30 158 O 15.668 2.14899 0.254425 0
M  V30 159 C 16.263 1.5212 -3.02729 0
M  V30 160 C 14.822 2.03954 -3.16354 0
M  V30 161 C 13.969 0.884498 -2.62815 0
M  V30 162 H 16.92 0.0406869 -1.58648 0
M  V30 163 H 16.941 2.38853 -2.96191 0
M  V30 164 H 16.453 0.769668 -3.80392 0
M  V30 165 H 14.554 2.82041 -2.43482 0
M  V30 166 H 14.667 2.24902 -4.23032 0
M  V30 167 H 13.031 1.2802 -2.20188 0
M  V30 168 H 13.814 0.14634 -3.42988 0
M  V30 169 N 16.2591 1.48442 0.529413 0
M  V30 170 C 17.4841 1.60406 1.31471 0
M  V30 171 C 17.9091 0.264738 1.86228 0
M  V30 172 O 17.2671 -0.763668 1.64432 0
M  V30 173 C 17.3151 2.65419 2.44101 0
M  V30 174 O 16.4191 2.22618 3.47153 0
M  V30 175 H 15.7601 0.537863 0.389357 0
M  V30 176 H 18.2901 1.94432 0.636965 0
M  V30 177 H 18.3001 2.86709 2.90279 0
M  V30 178 H 16.9751 3.62652 2.03608 0
M  V30 179 H 15.5521 2.11543 3.0709 0
M  V30 180 N 17.7372 -0.778329 1.37039 0
M  V30 181 C 18.6672 -1.90546 1.34962 0
M  V30 182 C 19.6482 -1.68681 0.219274 0
M  V30 183 O 20.8332 -1.89634 0.418624 0
M  V30 184 C 17.9632 -3.27734 1.14925 0
M  V30 185 C 16.9172 -3.64147 2.24902 0
M  V30 186 C 16.2432 -4.99806 1.89996 0
M  V30 187 C 17.5432 -3.71579 3.67051 0
M  V30 188 H 19.2372 -1.92541 2.29277 0
M  V30 189 H 16.7832 -0.924948 1.10366 0
M  V30 190 H 18.7362 -4.06215 1.12104 0
M  V30 191 H 17.4602 -3.26154 0.170631 0
M  V30 192 H 16.1192 -2.8797 2.26868 0
M  V30 193 H 15.7672 -4.94759 0.906796 0
M  V30 194 H 15.4672 -5.25139 2.63634 0
M  V30 195 H 16.9912 -5.80694 1.88749 0
M  V30 196 H 18.4052 -4.40227 3.67251 0
M  V30 197 H 16.8022 -4.08405 4.39688 0
M  V30 198 H 17.8722 -2.72404 4.01154 0
M  V30 199 N 19.2153 -1.21501 -1.00376 0
M  V30 200 C 20.1623 -0.975387 -2.09177 0
M  V30 201 C 21.1323 0.0990615 -1.65804 0
M  V30 202 O 22.3173 -0.0483147 -1.90739 0
M  V30 203 C 19.4573 -0.547507 -3.40729 0
M  V30 204 C 18.5703 -1.69153 -3.97506 0
M  V30 205 C 17.7053 -1.2127 -5.17172 0
M  V30 206 C 16.7443 -2.32897 -5.66061 0
M  V30 207 N 15.8813 -1.86138 -6.76976 0
M  V30 208 H 20.7213 -1.9068 -2.29009 0
M  V30 209 H 18.2583 -0.950257 -1.12288 0
M  V30 210 H 20.2163 -0.280667 -4.16255 0
M  V30 211 H 18.8463 0.346904 -3.20931 0
M  V30 212 H 17.8983 -2.07298 -3.18954 0
M  V30 213 H 19.2103 -2.5316 -4.29781 0
M  V30 214 H 18.3643 -0.902591 -5.99948 0
M  V30 215 H 17.1033 -0.342692 -4.86495 0
M  V30 216 H 16.1083 -2.64709 -4.81881 0
M  V30 217 H 17.3333 -3.20396 -5.98768 0
M  V30 218 H 15.2793 -1.01484 -6.48103 0
M  V30 219 H 15.1963 -2.63717 -7.08512 0
M  V30 220 H 16.4643 -1.58165 -7.63285 0
M  V30 221 N 20.6934 1.19889 -1.02296 0
M  V30 222 C 21.6034 2.26571 -0.608508 0
M  V30 223 C 22.6194 1.70299 0.356964 0
M  V30 224 O 23.7954 2.00235 0.216326 0
M  V30 225 C 20.8604 3.46677 0.0402814 0
M  V30 226 C 19.9214 4.18153 -0.97194 0
M  V30 227 C 19.1544 5.32525 -0.354016 0
M  V30 228 O 19.3774 5.64112 0.844604 0
M  V30 229 O 18.3114 5.92242 -1.07391 0
M  V30 230 H 22.1374 2.64251 -1.49684 0
M  V30 231 H 19.7224 1.26629 -0.792809 0
M  V30 232 H 21.6044 4.19475 0.402324 0
M  V30 233 H 20.2794 3.10858 0.902707 0
M  V30 234 H 19.1864 3.47499 -1.38546 0
M  V30 235 H 20.5194 4.57927 -1.80454 0
M  V30 236 N 22.1715 0.800033 1.35784 0
M  V30 237 C 23.4205 0.37387 1.98205 0
M  V30 238 C 23.7335 -1.06302 1.64193 0
M  V30 239 O 24.9395 -1.59198 2.19928 0
M  V30 240 C 23.3955 0.617532 3.54562 0
M  V30 241 C 23.0035 2.06654 3.9749 0
M  V30 242 C 24.7475 0.256401 4.23725 0
M  V30 243 C 22.6545 2.2563 5.46667 0
M  V30 244 H 21.5845 0.136055 0.741623 0
M  V30 245 H 24.2355 0.983166 1.54939 0
M  V30 246 H 22.6175 -0.0616248 3.95952 0
M  V30 247 H 23.7915 2.78296 3.67271 0
M  V30 248 H 22.1065 2.38691 3.41197 0
M  V30 249 H 24.7035 0.376318 5.33374 0
M  V30 250 H 25.0465 -0.796692 4.08606 0
M  V30 251 H 25.5795 0.889214 3.87734 0
M  V30 252 H 22.3185 3.2936 5.66747 0
M  V30 253 H 21.8385 1.58504 5.78478 0
M  V30 254 H 23.5175 2.06861 6.1304 0
M  V30 255 N 23.6496 -1.47581 0.552962 0
M  V30 256 C 24.9266 -1.95563 -0.0381515 0
M  V30 257 C 25.3066 -1.49552 -1.48988 0
M  V30 258 O 24.6546 -0.732414 -2.16444 0
M  V30 259 C 24.8646 -3.48848 0.102919 0
M  V30 260 C 26.2126 -4.24577 -0.0446082 0
M  V30 261 O 27.2366 -3.56187 0.0302548 0
M  V30 262 O 26.0956 -5.46116 -0.204923 0
M  V30 263 H 23.1896 -0.824321 -0.0665067 0
M  V30 264 H 25.7356 -1.58001 0.619186 0
M  V30 265 H 24.5076 -3.75129 1.11328 0
M  V30 266 H 24.1306 -3.93165 -0.592224 0
M  V30 267 N 25.1277 -0.289203 -1.54924 0
M  V30 268 C 26.3577 0.325989 -2.04012 0
M  V30 269 C 26.7657 1.48961 -1.1665 0
M  V30 270 O 26.1087 1.82794 -0.1822 0
M  V30 271 C 26.1707 0.856112 -3.49158 0
M  V30 272 C 25.8347 -0.180697 -4.56643 0
M  V30 273 C 26.8317 -1.0051 -5.10092 0
M  V30 274 C 24.5167 -0.318998 -5.01286 0
M  V30 275 C 26.5107 -1.95385 -6.06715 0
M  V30 276 C 24.1977 -1.27121 -5.97732 0
M  V30 277 C 25.1957 -2.08713 -6.50329 0
M  V30 278 O 24.8837 -3.02322 -7.44887 0
M  V30 279 H 24.6157 0.0765276 -0.671654 0
M  V30 280 H 27.1697 -0.423254 -2.00992 0
M  V30 281 H 25.3997 1.65567 -3.49463 0
M  V30 282 H 27.0887 1.38591 -3.81507 0
M  V30 283 H 27.8547 -0.90906 -4.76404 0
M  V30 284 H 23.7337 0.306108 -4.59983 0
M  V30 285 H 27.2777 -2.59111 -6.47694 0
M  V30 286 H 23.1747 -1.36801 -6.30837 0
M  V30 287 H 23.9427 -2.97165 -7.6265 0
M  V30 288 N 26.6058 1.57591 -0.0167156 0
M  V30 289 C 27.8308 1.9598 0.67872 0
M  V30 290 C 28.2558 0.892546 1.65575 0
M  V30 291 O 27.6138 -0.147772 1.80697 0
M  V30 292 C 27.6618 3.33468 1.37227 0
M  V30 293 O 26.7658 3.28954 2.48722 0
M  V30 294 H 26.1068 0.639339 0.17928 0
M  V30 295 H 28.6368 2.04463 -0.0748802 0
M  V30 296 H 28.6468 3.69417 1.7319 0
M  V30 297 H 27.3218 4.10694 0.656007 0
M  V30 298 H 25.8988 3.04705 2.14963 0
M  V30 299 N 28.0839 -0.256276 1.55502 0
M  V30 300 C 29.4999 -0.604325 1.47716 0
M  V30 301 C 29.6999 -1.88763 0.705039 0
M  V30 302 O 28.7559 -2.51445 0.230613 0
M  V30 303 C 30.0689 -0.715756 2.92057 0
M  V30 304 C 31.6169 -0.808706 3.02372 0
M  V30 305 C 32.0919 -0.951777 4.48001 0
M  V30 306 N 33.5829 -1.01688 4.519 0
M  V30 307 C 34.3179 -1.14668 5.61817 0
M  V30 308 N 33.8139 -1.24261 6.81565 0
M  V30 309 N 35.6069 -1.1791 5.49594 0
M  V30 310 H 27.7579 0.586291 2.04148 0
M  V30 311 H 30.0209 0.201015 0.926443 0
M  V30 312 H 29.7269 0.157027 3.51349 0
M  V30 313 H 29.6009 -1.59071 3.42018 0
M  V30 314 H 31.9879 -1.67195 2.43166 0
M  V30 315 H 32.0689 0.0912063 2.55637 0
M  V30 316 H 31.7129 -0.0931291 5.07815 0
M  V30 317 H 31.6429 -1.86659 4.92408 0
M  V30 318 H 34.1339 -0.954468 3.65648 0
M  V30 319 H 34.4469 -1.34046 7.61086 0
M  V30 320 H 32.7919 -1.21236 6.84344 0
M  V30 321 H 35.9829 -1.10057 4.54978 0
M  V30 322 H 36.1559 -1.27681 6.35296 0
M  V30 323 N 29.562 -1.4872 -0.521534 0
M  V30 324 C 30.492 -1.66771 -1.63431 0
M  V30 325 C 31.473 -0.516499 -1.62069 0
M  V30 326 O 32.658 -0.750013 -1.79132 0
M  V30 327 C 29.788 -1.71515 -3.01993 0
M  V30 328 C 28.742 -2.86222 -3.18216 0
M  V30 329 C 28.068 -2.76061 -4.57924 0
M  V30 330 C 29.368 -4.27419 -3.00184 0
M  V30 331 H 31.062 -2.59932 -1.48579 0
M  V30 332 H 28.608 -1.25089 -0.713358 0
M  V30 333 H 30.561 -1.82731 -3.7972 0
M  V30 334 H 29.285 -0.749393 -3.17886 0
M  V30 335 H 27.944 -2.74575 -2.42908 0
M  V30 336 H 27.592 -1.77437 -4.70665 0
M  V30 337 H 27.292 -3.53037 -4.69722 0
M  V30 338 H 28.816 -2.89256 -5.37739 0
M  V30 339 H 30.23 -4.39855 -3.67697 0
M  V30 340 H 28.627 -5.05458 -3.2347 0
M  V30 341 H 29.697 -4.43293 -1.96518 0
M  V30 342 N 31.0401 0.771051 -1.3745 0
M  V30 343 C 32.4511 1.34737 -1.29239 0
M  V30 344 C 32.8021 1.96109 0.0596908 0
M  V30 345 O 31.9271 1.93865 0.961534 0
M  V30 346 C 32.5221 2.44973 -2.34037 0
M  V30 347 C 31.0811 2.98372 -2.29458 0
M  V30 348 C 30.2281 1.71595 -2.17831 0
M  V30 349 H 33.1791 0.571256 -1.48062 0
M  V30 350 H 33.2001 3.24471 -1.98744 0
M  V30 351 H 32.7121 2.00276 -3.32432 0
M  V30 352 H 30.8131 3.47443 -1.34589 0
M  V30 353 H 30.9261 3.53939 -3.229 0
M  V30 354 H 29.2901 1.94547 -1.64388 0
M  V30 355 H 30.0731 1.29001 -3.18141 0
M  V30 356 N 32.5182 1.22032 0.997298 0
M  V30 357 C 33.4662 0.983634 2.10778 0
M  V30 358 C 34.4602 -0.0717564 1.69248 0
M  V30 359 O 35.6662 0.080304 1.79821 0
M  V30 360 H 32.0412 0.300877 0.689186 0
M  V30 361 H 34.0122 1.92606 2.27916 0
M  V30 362 C 32.7612 0.57326 3.42942 0
M  V30 363 H 32.0842 1.37702 3.75338 0
M  V30 364 H 33.5242 0.447031 4.21637 0
M  V30 365 C 31.9832 -0.7167 3.29188 0
M  V30 366 O 32.5132 -1.77027 3.60589 0
M  V30 367 N 30.7192 -0.686167 2.82383 0
M  V30 368 H 30.2662 0.171507 2.57028 0
M  V30 369 H 30.2242 -1.54955 2.73562 0
M  V30 370 N 33.9963 -1.19345 1.0293 0
M  V30 371 C 35.2733 -1.84811 0.640642 0
M  V30 372 C 35.6533 -1.91855 -0.88062 0
M  V30 373 O 35.0013 -1.43587 -1.7775 0
M  V30 374 C 35.2113 -3.23755 1.30321 0
M  V30 375 C 36.5593 -3.99912 1.42673 0
M  V30 376 O 37.5833 -3.33155 1.26041 0
M  V30 377 O 36.4423 -5.19494 1.6967 0
M  V30 378 H 33.5363 -0.796443 0.222726 0
M  V30 379 H 36.0823 -1.26831 1.12748 0
M  V30 380 H 34.8543 -3.13466 2.34211 0
M  V30 381 H 34.4773 -3.89381 0.804261 0
M  V30 382 N 35.4744 -0.807222 -1.35358 0
M  V30 383 C 36.7214 -0.387888 -1.9875 0
M  V30 384 C 37.0494 1.04509 -1.64037 0
M  V30 385 O 36.3044 1.73986 -0.895946 0
M  V30 386 C 36.6034 -0.519036 -3.53611 0
M  V30 387 C 36.2694 -1.91542 -4.08194 0
M  V30 388 C 34.9314 -2.29745 -4.22813 0
M  V30 389 C 37.2834 -2.82896 -4.37744 0
M  V30 390 C 34.6114 -3.58668 -4.643 0
M  V30 391 C 36.9634 -4.11265 -4.8067 0
M  V30 392 C 35.6274 -4.49466 -4.93494 0
M  V30 393 H 34.8974 -0.141938 -0.727279 0
M  V30 394 H 37.5444 -1.02814 -1.6156 0
M  V30 395 H 35.8494 0.204658 -3.91265 0
M  V30 396 H 37.5464 -0.175345 -4.00616 0
M  V30 397 H 34.1364 -1.60862 -3.97268 0
M  V30 398 H 38.3204 -2.54629 -4.26002 0
M  V30 399 H 33.5764 -3.88113 -4.72418 0
M  V30 400 H 37.7504 -4.82153 -5.02496 0
M  V30 401 H 35.3774 -5.49418 -5.25399 0
M  V30 402 N 36.9525 1.47285 -0.560781 0
M  V30 403 C 38.2295 1.9558 0.0277798 0
M  V30 404 C 38.6095 1.5034 1.48192 0
M  V30 405 O 37.9575 0.743882 2.16052 0
M  V30 406 C 38.1675 3.48789 -0.121418 0
M  V30 407 C 39.5155 4.24594 0.0220912 0
M  V30 408 O 40.5395 3.56166 -0.0491439 0
M  V30 409 O 39.3985 5.46217 0.175958 0
M  V30 410 H 36.4925 0.824663 0.0621342 0
M  V30 411 H 39.0385 1.5767 -0.627556 0
M  V30 412 H 37.8105 3.74533 -1.13316 0
M  V30 413 H 37.4335 3.93473 0.571366 0
M  V30 414 N 38.4306 0.297415 1.54768 0
M  V30 415 C 39.6766 -0.313376 2.00364 0
M  V30 416 C 40.0096 -1.53815 1.18553 0
M  V30 417 O 39.2846 -1.92739 0.261103 0
M  V30 418 C 39.5676 -0.673525 3.53745 0
M  V30 419 C 39.4206 0.560133 4.46299 0
M  V30 420 C 40.7396 -1.50143 4.13697 0
M  V30 421 H 37.8586 -0.112428 0.728374 0
M  V30 422 H 40.5006 0.4088 1.8555 0
M  V30 423 H 38.6506 -1.28881 3.665 0
M  V30 424 H 40.3226 1.19863 4.45455 0
M  V30 425 H 38.5656 1.19405 4.17043 0
M  V30 426 H 39.2366 0.26405 5.51368 0
M  V30 427 H 41.7126 -0.981588 4.04356 0
M  V30 428 H 40.5886 -1.72221 5.21182 0
M  V30 429 H 40.8496 -2.48952 3.65343 0
M  V30 430 N 39.9087 -1.5758 0.0250728 0
M  V30 431 C 41.1557 -1.91633 -0.654444 0
M  V30 432 C 41.4837 -0.901103 -1.72367 0
M  V30 433 O 40.7387 0.0905647 -1.9549 0
M  V30 434 C 41.0377 -3.32421 -1.31268 0
M  V30 435 C 40.7037 -4.49344 -0.374223 0
M  V30 436 C 39.3657 -4.8106 -0.115911 0
M  V30 437 C 41.7177 -5.20498 0.270432 0
M  V30 438 C 39.0457 -5.8129 0.79493 0
M  V30 439 C 41.3977 -6.21699 1.1693 0
M  V30 440 C 40.0617 -6.51859 1.43655 0
M  V30 441 H 39.3317 -0.701236 -0.239478 0
M  V30 442 H 41.9787 -1.91307 0.0859734 0
M  V30 443 H 40.2837 -3.28989 -2.12775 0
M  V30 444 H 41.9807 -3.56038 -1.84494 0
M  V30 445 H 38.5707 -4.24579 -0.58573 0
M  V30 446 H 42.7547 -4.96229 0.0839194 0
M  V30 447 H 38.0107 -6.03005 1.00973 0
M  V30 448 H 42.1847 -6.75955 1.67504 0
M  V30 449 H 39.8117 -7.2934 2.144 0
M  V30 450 N 41.3868 0.248026 -1.55636 0
M  V30 451 C 42.8028 0.596483 -1.48035 0
M  V30 452 C 43.0028 1.88386 -0.715039 0
M  V30 453 O 42.0588 2.51319 -0.243944 0
M  V30 454 C 43.3718 0.700258 -2.92433 0
M  V30 455 C 44.9198 0.792659 -3.02797 0
M  V30 456 C 45.3948 0.928005 -4.485 0
M  V30 457 N 46.8858 0.992903 -4.52433 0
M  V30 458 C 47.6208 1.11687 -5.62418 0
M  V30 459 N 47.1168 1.20645 -6.82214 0
M  V30 460 N 48.9098 1.14994 -5.50212 0
M  V30 461 H 41.0608 -0.597109 -2.03834 0
M  V30 462 H 43.3238 -0.205925 -0.925364 0
M  V30 463 H 43.0298 -0.175658 -3.51261 0
M  V30 464 H 42.9038 1.57255 -3.42857 0
M  V30 465 H 45.2908 1.65903 -2.4405 0
M  V30 466 H 45.3718 -0.104762 -2.55585 0
M  V30 467 H 45.0158 0.0661971 -5.07857 0
M  V30 468 H 44.9458 1.84045 -4.93391 0
M  V30 469 H 47.4368 0.935064 -3.66149 0
M  V30 470 H 47.7498 1.30008 -7.61786 0
M  V30 471 H 46.0948 1.17605 -6.84977 0
M  V30 472 H 49.2858 1.07643 -4.55555 0
M  V30 473 H 49.4588 1.24311 -6.35965 0
M  V30 474 N 42.8649 1.48995 0.513639 0
M  V30 475 C 44.1049 1.59452 1.27885 0
M  V30 476 C 44.4689 0.269479 1.90099 0
M  V30 477 O 45.6699 0.249139 2.67643 0
M  V30 478 C 43.9409 2.71277 2.32688 0
M  V30 479 S 45.4999 3.01604 3.18717 0
M  V30 480 H 42.3179 0.562565 0.434789 0
M  V30 481 H 44.9199 1.86595 0.583301 0
M  V30 482 H 43.6239 3.66089 1.8549 0
M  V30 483 H 43.1549 2.46086 3.06929 0
M  V30 484 H 45.1699 2.42155 4.331 0
M  V30 485 N 44.343 -0.763751 1.37857 0
M  V30 486 C 45.291 -1.89864 1.34367 0
M  V30 487 C 46.285 -1.67816 0.231143 0
M  V30 488 O 47.491 -1.75508 0.399617 0
M  V30 489 H 43.866 -0.624501 0.41893 0
M  V30 490 H 45.837 -1.89925 2.30155 0
M  V30 491 C 44.586 -3.27227 1.1755 0
M  V30 492 H 43.909 -3.44773 2.02414 0
M  V30 493 H 45.349 -4.06911 1.1916 0
M  V30 494 C 43.808 -3.36692 -0.118311 0
M  V30 495 O 44.338 -3.86374 -1.09902 0
M  V30 496 N 42.544 -2.90092 -0.171717 0
M  V30 497 H 42.091 -2.49853 0.627012 0
M  V30 498 H 42.049 -2.96806 -1.03699 0
M  V30 499 N 45.8211 -1.22559 -0.990812 0
M  V30 500 C 46.7531 -0.955325 -2.08342 0
M  V30 501 C 47.7661 0.0668408 -1.62663 0
M  V30 502 O 48.9551 -0.167421 -1.77713 0
M  V30 503 C 46.0551 -0.415566 -3.36342 0
M  V30 504 C 45.2281 -1.49544 -4.11042 0
M  V30 505 C 44.2871 -0.962399 -5.17324 0
M  V30 506 O 43.3131 -1.64907 -5.44788 0
M  V30 507 N 44.5151 0.215134 -5.80101 0
M  V30 508 H 47.2801 -1.89596 -2.32106 0
M  V30 509 H 44.8411 -1.13276 -1.15673 0
M  V30 510 H 46.8331 -0.0442386 -4.04676 0
M  V30 511 H 45.4031 0.430232 -3.09625 0
M  V30 512 H 44.6231 -2.04 -3.37309 0
M  V30 513 H 45.9111 -2.22195 -4.57719 0
M  V30 514 H 45.3091 0.789779 -5.6016 0
M  V30 515 H 43.8661 0.527826 -6.49659 0
M  V30 516 N 47.2992 1.18797 -1.03562 0
M  V30 517 C 48.5462 1.8865 -0.736023 0
M  V30 518 C 48.8742 1.80041 0.735889 0
M  V30 519 O 48.1292 1.19179 1.55225 0
M  V30 520 C 48.4282 3.38692 -1.14117 0
M  V30 521 C 48.0942 3.67504 -2.6125 0
M  V30 522 C 46.7562 3.75078 -3.01447 0
M  V30 523 C 49.1082 3.80293 -3.56408 0
M  V30 524 C 46.4362 3.92915 -4.35701 0
M  V30 525 C 48.7882 3.99645 -4.90374 0
M  V30 526 C 47.4522 4.05453 -5.30249 0
M  V30 527 H 46.7222 0.690321 -0.26933 0
M  V30 528 H 49.3692 1.40641 -1.29971 0
M  V30 529 H 47.6742 3.88645 -0.496202 0
M  V30 530 H 49.3712 3.91072 -0.886789 0
M  V30 531 H 45.9612 3.62223 -2.29113 0
M  V30 532 H 50.1452 3.73779 -3.26501 0
M  V30 533 H 45.4012 3.95653 -4.66121 0
M  V30 534 H 49.5752 4.08482 -5.64017 0
M  V30 535 H 47.2022 4.19027 -6.34288 0
M  V30 536 N 48.7773 0.814389 1.34928 0
M  V30 537 C 50.0073 0.41054 2.0248 0
M  V30 538 C 50.4153 -0.985625 1.61499 0
M  V30 539 O 49.7583 -1.64781 0.811976 0
M  V30 540 C 49.8203 0.423384 3.56998 0
M  V30 541 C 49.4843 1.77141 4.21272 0
M  V30 542 C 50.4813 2.73093 4.42398 0
M  V30 543 C 48.1663 2.05755 4.58225 0
M  V30 544 C 50.1603 3.95838 4.9959 0
M  V30 545 C 47.8473 3.28762 5.1513 0
M  V30 546 C 48.8453 4.23621 5.35755 0
M  V30 547 O 48.5333 5.44456 5.91458 0
M  V30 548 H 48.2653 0.163997 0.655806 0
M  V30 549 H 50.8193 1.10155 1.73364 0
M  V30 550 H 49.0493 -0.324276 3.85338 0
M  V30 551 H 50.7383 0.0407683 4.0588 0
M  V30 552 H 51.5043 2.5228 4.14222 0
M  V30 553 H 47.3833 1.32727 4.4148 0
M  V30 554 H 50.9273 4.69891 5.15605 0
M  V30 555 H 46.8243 3.49443 5.42734 0
M  V30 556 H 47.5923 5.4586 6.09901 0
M  V30 557 N 50.2554 -1.46986 0.568584 0
M  V30 558 C 51.5024 -2.02441 0.0487986 0
M  V30 559 C 51.8304 -1.44169 -1.30559 0
M  V30 560 O 51.0854 -0.591213 -1.86556 0
M  V30 561 C 51.3844 -3.57306 -0.081836 0
M  V30 562 C 51.0504 -4.34552 1.20313 0
M  V30 563 C 49.7124 -4.55376 1.5552 0
M  V30 564 C 52.0644 -4.79016 2.05411 0
M  V30 565 C 49.3924 -5.17913 2.7565 0
M  V30 566 C 51.7444 -5.42879 3.24754 0
M  V30 567 C 50.4084 -5.61933 3.60261 0
M  V30 568 H 49.6784 -0.740785 0.0178567 0
M  V30 569 H 52.3254 -1.76525 0.742384 0
M  V30 570 H 50.6304 -3.8228 -0.858463 0
M  V30 571 H 52.3274 -3.97876 -0.499546 0
M  V30 572 H 48.9174 -4.18631 0.919014 0
M  V30 573 H 53.1014 -4.62696 1.79516 0
M  V30 574 H 48.3574 -5.30858 3.03315 0
M  V30 575 H 52.5314 -5.76293 3.90973 0
M  V30 576 H 50.1584 -6.10161 4.53439 0
M  V30 577 N 51.7335 -0.305618 -1.54608 0
M  V30 578 C 52.6435 0.57778 -2.27374 0
M  V30 579 C 53.6595 1.14451 -1.31061 0
M  V30 580 O 54.8355 1.16831 -1.6405 0
M  V30 581 C 51.9005 1.73123 -3.00382 0
M  V30 582 C 50.9615 1.19812 -4.12242 0
M  V30 583 C 50.1945 2.2966 -4.81759 0
M  V30 584 O 50.4175 3.49651 -4.50666 0
M  V30 585 O 49.3515 1.96091 -5.69062 0
M  V30 586 H 53.1775 -0.012624 -3.03697 0
M  V30 587 H 50.7625 -0.0719184 -1.49227 0
M  V30 588 H 52.6445 2.40315 -3.4616 0
M  V30 589 H 51.3195 2.30815 -2.26949 0
M  V30 590 H 50.2265 0.491798 -3.70853 0
M  V30 591 H 51.5595 0.666566 -4.87666 0
M  V30 592 N 53.2116 1.57565 -0.0334293 0
M  V30 593 C 54.4886 1.83282 0.683163 0
M  V30 594 C 54.8686 0.91823 1.90084 0
M  V30 595 O 54.2166 -0.025113 2.28486 0
M  V30 596 C 54.4266 3.32599 1.0573 0
M  V30 597 C 55.7746 3.99179 1.44711 0
M  V30 598 O 56.7986 3.3712 1.15015 0
M  V30 599 O 55.6576 5.08565 2.0006 0
M  V30 600 H 52.7516 0.755869 0.335546 0
M  V30 601 H 55.2976 1.69589 -0.0614402 0
M  V30 602 H 54.0696 3.90834 0.190828 0
M  V30 603 H 53.6926 3.51415 1.85993 0
M  V30 604 N 54.6897 -0.239769 1.55765 0
M  V30 605 C 55.6367 -1.29696 1.90913 0
M  V30 606 C 56.6067 -1.47478 0.764164 0
M  V30 607 O 57.7917 -1.61345 1.01845 0
M  V30 608 C 54.9317 -2.64598 2.21544 0
M  V30 609 C 54.0447 -2.54765 3.48882 0
M  V30 610 C 53.1797 -3.82069 3.69049 0
M  V30 611 C 52.2187 -3.66883 4.89963 0
M  V30 612 N 51.3557 -4.86094 5.06614 0
M  V30 613 H 56.1957 -0.990224 2.81067 0
M  V30 614 H 53.7327 -0.477684 1.39128 0
M  V30 615 H 55.6907 -3.43132 2.3731 0
M  V30 616 H 54.3207 -2.93405 1.34585 0
M  V30 617 H 53.3727 -1.67763 3.41409 0
M  V30 618 H 54.6847 -2.39457 4.37563 0
M  V30 619 H 53.8387 -4.69046 3.84812 0
M  V30 620 H 52.5777 -4.00282 2.78614 0
M  V30 621 H 51.5827 -2.78289 4.74168 0
M  V30 622 H 52.8077 -3.50157 5.81865 0
M  V30 623 H 50.7537 -5.04655 4.19117 0
M  V30 624 H 50.6707 -4.73443 5.89396 0
M  V30 625 H 51.9387 -5.74549 5.26795 0
M  V30 626 N 56.1678 -1.49265 -0.50573 0
M  V30 627 C 57.3978 -1.61979 -1.28243 0
M  V30 628 C 57.8058 -0.288576 -1.86986 0
M  V30 629 O 57.1488 0.735408 -1.68337 0
M  V30 630 C 57.2108 -2.62632 -2.45489 0
M  V30 631 C 56.8748 -4.071 -2.07651 0
M  V30 632 C 57.8718 -4.94049 -1.61901 0
M  V30 633 C 55.5568 -4.52801 -2.17431 0
M  V30 634 C 57.5508 -6.24736 -1.26428 0
M  V30 635 C 55.2378 -5.83503 -1.8157 0
M  V30 636 C 56.2358 -6.69294 -1.36142 0
M  V30 637 O 55.9238 -7.9756 -1.00764 0
M  V30 638 H 55.6558 -0.54834 -0.395347 0
M  V30 639 H 58.2098 -1.96002 -0.614204 0
M  V30 640 H 56.4398 -2.2378 -3.15372 0
M  V30 641 H 58.1288 -2.64925 -3.07522 0
M  V30 642 H 58.8948 -4.5997 -1.53795 0
M  V30 643 H 54.7738 -3.86196 -2.51742 0
M  V30 644 H 58.3178 -6.91652 -0.908992 0
M  V30 645 H 54.2148 -6.17112 -1.89324 0
M  V30 646 H 54.9828 -8.10529 -1.13952 0
M  V30 647 N 57.6459 0.756429 -1.3826 0
M  V30 648 C 58.8759 1.54341 -1.3734 0
M  V30 649 C 59.2839 1.89159 0.0393917 0
M  V30 650 O 58.6269 1.5307 1.01565 0
M  V30 651 C 58.6889 2.87238 -2.16182 0
M  V30 652 C 58.3529 2.74973 -3.65019 0
M  V30 653 C 59.3499 2.44962 -4.58574 0
M  V30 654 C 57.0349 2.92515 -4.08338 0
M  V30 655 C 59.0289 2.32642 -5.93428 0
M  V30 656 C 56.7159 2.79815 -5.43274 0
M  V30 657 C 57.7139 2.49921 -6.35632 0
M  V30 658 O 57.4019 2.37275 -7.68086 0
M  V30 659 H 57.1339 0.484281 -0.471643 0
M  V30 660 H 59.6879 0.944152 -1.82414 0
M  V30 661 H 57.9179 3.49342 -1.65822 0
M  V30 662 H 59.6069 3.48731 -2.07705 0
M  V30 663 H 60.3729 2.31081 -4.26412 0
M  V30 664 H 56.2519 3.14781 -3.368 0
M  V30 665 H 59.7959 2.0923 -6.65484 0
M  V30 666 H 55.6929 2.93269 -5.75034 0
M  V30 667 H 56.4609 2.52509 -7.78577 0
M  V30 668 N 59.124 1.23083 0.984299 0
M  V30 669 C 60.054 1.03292 2.09411 0
M  V30 670 C 61.035 -0.048923 1.7003 0
M  V30 671 O 62.22 0.114967 1.93859 0
M  V30 672 C 59.35 0.619155 3.41736 0
M  V30 673 C 58.304 1.64791 3.95004 0
M  V30 674 C 57.63 1.0897 5.23478 0
M  V30 675 C 58.93 3.03999 4.24714 0
M  V30 676 H 60.624 1.96119 2.26225 0
M  V30 677 H 58.17 0.944344 1.08711 0
M  V30 678 H 60.123 0.467777 4.18796 0
M  V30 679 H 58.847 -0.344786 3.24775 0
M  V30 680 H 57.506 1.78721 3.20085 0
M  V30 681 H 57.154 0.11686 5.02864 0
M  V30 682 H 56.854 1.77704 5.60085 0
M  V30 683 H 58.378 0.950093 6.03163 0
M  V30 684 H 59.792 2.93393 4.92538 0
M  V30 685 H 58.189 3.69936 4.72512 0
M  V30 686 H 59.259 3.53285 3.32142 0
M  V30 687 N 60.6021 -1.18246 1.0419 0
M  V30 688 C 61.8501 -1.87886 0.744543 0
M  V30 689 C 62.1711 -1.8082 -0.730006 0
M  V30 690 O 61.4411 -1.22736 -1.52685 0
M  V30 691 H 60.0211 -0.695556 0.272417 0
M  V30 692 H 62.6831 -1.43494 1.31892 0
M  V30 693 H 61.7791 -2.9389 1.05049 0
M  V30 694 N 62.0802 -0.821533 -1.34494 0
M  V30 695 C 63.0272 -0.240397 -2.29545 0
M  V30 696 C 63.9972 0.634031 -1.53523 0
M  V30 697 O 65.1822 0.575966 -1.81899 0
M  V30 698 C 62.3222 0.592869 -3.39969 0
M  V30 699 C 61.4352 -0.30365 -4.30932 0
M  V30 700 C 60.5702 0.539049 -5.28458 0
M  V30 701 C 59.6092 -0.356942 -6.11058 0
M  V30 702 N 58.7462 0.446603 -7.00678 0
M  V30 703 H 63.5862 -1.05632 -2.7865 0
M  V30 704 H 61.1232 -0.532413 -1.37127 0
M  V30 705 H 63.0812 1.09129 -4.02675 0
M  V30 706 H 61.7112 1.37392 -2.92102 0
M  V30 707 H 60.7632 -0.920276 -3.691 0
M  V30 708 H 62.0752 -0.992661 -4.88823 0
M  V30 709 H 61.2292 1.102 -5.96608 0
M  V30 710 H 59.9682 1.26157 -4.71101 0
M  V30 711 H 58.9732 -0.932047 -5.41842 0
M  V30 712 H 60.1982 -1.07755 -6.70497 0
M  V30 713 H 58.1442 1.15282 -6.45791 0
M  V30 714 H 58.0612 -0.184048 -7.55776 0
M  V30 715 H 59.3292 0.992352 -7.73158 0
M  V30 716 N 63.5583 1.46682 -0.576371 0
M  V30 717 C 64.5053 2.30241 0.160499 0
M  V30 718 C 65.4753 1.40233 0.890162 0
M  V30 719 O 66.6603 1.69186 0.882084 0
M  V30 720 C 63.8003 3.24578 1.1723 0
M  V30 721 C 62.9133 4.29684 0.446736 0
M  V30 722 C 62.0483 5.11154 1.44551 0
M  V30 723 C 61.0873 6.08015 0.70599 0
M  V30 724 N 60.2243 6.82376 1.65251 0
M  V30 725 H 65.0643 2.92727 -0.558127 0
M  V30 726 H 62.6013 1.44272 -0.287056 0
M  V30 727 H 64.5593 3.77711 1.77172 0
M  V30 728 H 63.1893 2.63916 1.85872 0
M  V30 729 H 62.2413 3.79458 -0.267594 0
M  V30 730 H 63.5533 4.98626 -0.131686 0
M  V30 731 H 62.7073 5.68533 2.11791 0
M  V30 732 H 61.4463 4.42158 2.05786 0
M  V30 733 H 60.4513 5.49796 0.0197725 0
M  V30 734 H 61.6763 6.79028 0.09912 0
M  V30 735 H 59.6223 6.16094 2.25308 0
M  V30 736 H 59.5393 7.47556 1.12673 0
M  V30 737 H 60.8073 7.44316 2.31546 0
M  V30 738 N 65.0364 0.313813 1.54444 0
M  V30 739 C 66.2764 -0.292389 2.02298 0
M  V30 740 C 66.6404 -1.50105 1.19719 0
M  V30 741 O 67.8414 -2.17947 1.5733 0
M  V30 742 C 66.1124 -0.627682 3.51845 0
M  V30 743 S 67.6714 -1.21493 4.21646 0
M  V30 744 H 64.4894 -0.0890247 0.705405 0
M  V30 745 H 67.0914 0.444668 1.90376 0
M  V30 746 H 65.7954 0.260265 4.09574 0
M  V30 747 H 65.3264 -1.39519 3.67829 0
M  V30 748 H 67.3414 -2.5022 4.28491 0
M  V30 749 N 66.5145 -1.57545 0.0417849 0
M  V30 750 C 67.4615 -2.10977 -0.935805 0
M  V30 751 C 68.4315 -1.01486 -1.31491 0
M  V30 752 O 69.6165 -1.2898 -1.40602 0
M  V30 753 C 66.7565 -2.65169 -2.2086 0
M  V30 754 C 65.8695 -3.88714 -1.88482 0
M  V30 755 C 65.0045 -4.31254 -3.1015 0
M  V30 756 C 64.0435 -5.47524 -2.7365 0
M  V30 757 N 63.1805 -5.85162 -3.87982 0
M  V30 758 H 68.0205 -2.94218 -0.473249 0
M  V30 759 H 65.5575 -1.45415 -0.221981 0
M  V30 760 H 67.5155 -2.94685 -2.95325 0
M  V30 761 H 66.1455 -1.8474 -2.64709 0
M  V30 762 H 65.1975 -3.65849 -1.04205 0
M  V30 763 H 66.5095 -4.73245 -1.57608 0
M  V30 764 H 65.6635 -4.62273 -3.92923 0
M  V30 765 H 64.4025 -3.45516 -3.44195 0
M  V30 766 H 63.4075 -5.16187 -1.89291 0
M  V30 767 H 64.6325 -6.34971 -2.40807 0
M  V30 768 H 62.5785 -5.02377 -4.21846 0
M  V30 769 H 62.4955 -6.64362 -3.60775 0
M  V30 770 H 63.7635 -6.20791 -4.71422 0
M  V30 771 N 67.9926 0.231505 -1.5589 0
M  V30 772 C 68.9556 1.27028 -1.90779 0
M  V30 773 C 69.9556 1.40308 -0.785507 0
M  V30 774 O 71.1456 1.38744 -1.05336 0
M  V30 775 C 68.2776 2.64566 -2.14983 0
M  V30 776 H 69.4706 0.973017 -2.83677 0
M  V30 777 H 67.0236 0.471486 -1.49019 0
M  V30 778 H 67.7586 2.99406 -1.24604 0
M  V30 779 H 67.5436 2.56305 -2.96732 0
M  V30 780 H 69.0336 3.39543 -2.43105 0
M  V30 781 N 69.4707 1.49531 0.497807 0
M  V30 782 C 70.7167 1.59415 1.25358 0
M  V30 783 C 71.0497 0.281422 1.9215 0
M  V30 784 O 70.3247 -0.715249 1.80871 0
M  V30 785 C 70.6077 2.75566 2.3181 0
M  V30 786 C 70.4607 4.16642 1.69498 0
M  V30 787 C 71.7797 2.87347 3.33346 0
M  V30 788 H 68.8987 0.580244 0.454408 0
M  V30 789 H 71.5407 1.81827 0.551262 0
M  V30 790 H 69.6907 2.56587 2.91711 0
M  V30 791 H 71.3627 4.47145 1.13399 0
M  V30 792 H 69.6057 4.22141 0.998978 0
M  V30 793 H 70.2767 4.93792 2.46725 0
M  V30 794 H 72.7527 3.04634 2.83438 0
M  V30 795 H 71.6287 3.70289 4.05188 0
M  V30 796 H 71.8897 1.96834 3.95865 0
M  V30 797 N 70.9488 -0.749086 1.3866 0
M  V30 798 C 72.1958 -1.50833 1.35114 0
M  V30 799 C 72.5238 -1.94415 -0.0574049 0
M  V30 800 O 71.7788 -1.66065 -1.03541 0
M  V30 801 C 72.0778 -2.7712 2.25697 0
M  V30 802 C 71.7438 -2.52477 3.73585 0
M  V30 803 C 70.4058 -2.45466 4.13884 0
M  V30 804 C 72.7578 -2.31066 4.67181 0
M  V30 805 C 70.0858 -2.15064 5.45861 0
M  V30 806 C 72.4378 -2.02183 5.9942 0
M  V30 807 C 71.1018 -1.93631 6.38798 0
M  V30 808 H 70.3718 -0.551936 0.494416 0
M  V30 809 H 73.0188 -0.860979 1.71054 0
M  V30 810 H 71.3238 -3.46528 1.82827 0
M  V30 811 H 73.0208 -3.35096 2.20254 0
M  V30 812 H 69.6108 -2.58807 3.41638 0
M  V30 813 H 73.7948 -2.35459 4.3689 0
M  V30 814 H 69.0508 -2.06954 5.75308 0
M  V30 815 H 73.2248 -1.8462 6.71482 0
M  V30 816 H 70.8518 -1.69839 7.40985 0
M  V30 817 N 72.4269 -1.23603 -0.977757 0
M  V30 818 C 73.6569 -1.09487 -1.75203 0
M  V30 819 C 74.0649 0.356321 -1.85814 0
M  V30 820 O 73.4079 1.25816 -1.33851 0
M  V30 821 C 73.4699 -1.64905 -3.19447 0
M  V30 822 C 73.1339 -3.13688 -3.32338 0
M  V30 823 C 74.1309 -4.10953 -3.18455 0
M  V30 824 C 71.8159 -3.53449 -3.56902 0
M  V30 825 C 73.8099 -5.45962 -3.28944 0
M  V30 826 C 71.4969 -4.88602 -3.6703 0
M  V30 827 C 72.4949 -5.84668 -3.53062 0
M  V30 828 O 72.1829 -7.17365 -3.62826 0
M  V30 829 H 71.9149 -0.38367 -0.556573 0
M  V30 830 H 74.4689 -1.6398 -1.23693 0
M  V30 831 H 72.6989 -1.04835 -3.72218 0
M  V30 832 H 74.3879 -1.46226 -3.78646 0
M  V30 833 H 75.1539 -3.81577 -2.99372 0
M  V30 834 H 71.0329 -2.79188 -3.66844 0
M  V30 835 H 74.5769 -6.20925 -3.17958 0
M  V30 836 H 70.4739 -5.17653 -3.85623 0
M  V30 837 H 71.2419 -7.2515 -3.79605 0
M  V30 838 N 73.905 1.17692 -1.04816 0
M  V30 839 C 74.853 2.23632 -0.63966 0
M  V30 840 C 75.847 1.6601 0.337219 0
M  V30 841 O 77.053 1.78844 0.203693 0
M  V30 842 H 73.428 0.727949 -0.188665 0
M  V30 843 H 75.399 2.55387 -1.54337 0
M  V30 844 C 74.148 3.4769 -0.0264051 0
M  V30 845 H 73.471 3.92331 -0.769164 0
M  V30 846 H 74.911 4.23418 0.222098 0
M  V30 847 C 73.37 3.13807 1.22584 0
M  V30 848 O 73.9 3.28236 2.31569 0
M  V30 849 N 72.106 2.68065 1.12202 0
M  V30 850 H 71.653 2.56525 0.235133 0
M  V30 851 H 71.611 2.45767 1.96076 0
M  V30 852 N 75.3831 0.828654 1.34056 0
M  V30 853 C 76.7941 0.477534 1.8049 0
M  V30 854 C 77.1451 -1.00258 1.6865 0
M  V30 855 O 76.2701 -1.78057 1.22982 0
M  V30 856 C 76.8651 0.860018 3.27703 0
M  V30 857 C 75.4241 0.561185 3.72193 0
M  V30 858 C 74.5711 1.07385 2.55663 0
M  V30 859 H 77.5221 1.0183 1.21722 0
M  V30 860 H 77.5431 0.166038 3.80138 0
M  V30 861 H 77.0551 1.93731 3.36288 0
M  V30 862 H 75.1561 -0.506465 3.69142 0
M  V30 863 H 75.2691 1.10926 4.66082 0
M  V30 864 H 73.6331 0.495149 2.49841 0
M  V30 865 H 74.4161 2.15771 2.67016 0
M  V30 866 N 76.8612 -1.46375 0.584142 0
M  V30 867 C 78.1102 -2.01585 0.0679741 0
M  V30 868 C 78.4232 -1.46109 -1.30045 0
M  V30 869 O 79.6292 -1.93148 -1.90804 0
M  V30 870 C 78.0852 -3.5983 0.0709207 0
M  V30 871 C 77.6932 -4.24303 1.43775 0
M  V30 872 C 79.4372 -4.22693 -0.391228 0
M  V30 873 C 77.3442 -5.74631 1.39834 0
M  V30 874 H 76.2742 -0.753689 0.0216421 0
M  V30 875 H 78.9252 -1.68093 0.736001 0
M  V30 876 H 77.3072 -3.90405 -0.663299 0
M  V30 877 H 78.4812 -4.05335 2.19181 0
M  V30 878 H 76.7962 -3.73539 1.84004 0
M  V30 879 H 79.3932 -5.3289 -0.439524 0
M  V30 880 H 79.7362 -3.91728 -1.40906 0
M  V30 881 H 80.2692 -3.96749 0.288974 0
M  V30 882 H 77.0082 -6.10258 2.39303 0
M  V30 883 H 76.5282 -5.95858 0.686505 0
M  V30 884 H 78.2072 -6.37375 1.11187 0
M  V30 885 N 78.3393 -0.321999 -1.54275 0
M  V30 886 C 79.2693 0.537411 -2.27231 0
M  V30 887 C 80.2503 1.12064 -1.27968 0
M  V30 888 O 81.4353 1.14606 -1.56777 0
M  V30 889 C 78.5653 1.69919 -3.02894 0
M  V30 890 C 77.5193 1.24534 -4.09482 0
M  V30 891 C 76.8453 2.49394 -4.72977 0
M  V30 892 C 78.1453 0.361335 -5.21049 0
M  V30 893 H 79.8393 -0.0711406 -2.99315 0
M  V30 894 H 77.3853 -0.0356555 -1.43956 0
M  V30 895 H 79.3383 2.30668 -3.52662 0
M  V30 896 H 78.0623 2.33431 -2.28424 0
M  V30 897 H 76.7213 0.660782 -3.60596 0
M  V30 898 H 76.3693 3.11265 -3.95124 0
M  V30 899 H 76.0693 2.19718 -5.44975 0
M  V30 900 H 77.5933 3.10908 -5.25517 0
M  V30 901 H 79.0073 0.875072 -5.66582 0
M  V30 902 H 77.4043 0.157428 -5.99893 0
M  V30 903 H 78.4743 -0.60822 -4.8107 0
M  V30 904 N 79.8174 1.5752 -0.0501392 0
M  V30 905 C 81.0644 1.9265 0.623874 0
M  V30 906 C 81.3924 0.928411 1.70912 0
M  V30 907 O 80.6474 -0.0594525 1.9561 0
M  V30 908 C 80.9464 3.34467 1.25963 0
M  V30 909 C 80.6124 4.49883 0.302689 0
M  V30 910 C 79.2744 4.81184 0.0393636 0
M  V30 911 C 81.6264 5.20002 -0.353205 0
M  V30 912 C 78.9544 5.79951 -0.887308 0
M  V30 913 C 81.3064 6.1976 -1.26806 0
M  V30 914 C 79.9704 6.49491 -1.54007 0
M  V30 915 H 79.2404 0.704957 0.228292 0
M  V30 916 H 81.8874 1.91146 -0.116398 0
M  V30 917 H 80.1924 3.32333 2.07514 0
M  V30 918 H 81.8894 3.58928 1.78806 0
M  V30 919 H 78.4794 4.25457 0.518109 0
M  V30 920 H 82.6634 4.96033 -0.162854 0
M  V30 921 H 77.9194 6.01322 -1.10553 0
M  V30 922 H 82.0934 6.73205 -1.78236 0
M  V30 923 H 79.7204 7.25837 -2.25976 0
M  V30 924 N 81.2955 -0.223234 1.56011 0
M  V30 925 C 82.5425 -0.947875 1.78946 0
M  V30 926 C 82.8705 -1.844 0.618608 0
M  V30 927 O 82.1255 -1.91629 -0.397093 0
M  V30 928 C 82.4245 -1.81948 3.0762 0
M  V30 929 C 82.0905 -1.07672 4.37856 0
M  V30 930 C 80.7525 -0.871544 4.73242 0
M  V30 931 C 83.1045 -0.552081 5.18268 0
M  V30 932 C 80.4325 -0.129791 5.86556 0
M  V30 933 C 82.7845 0.17632 6.32354 0
M  V30 934 C 81.4485 0.39277 6.66343 0
M  V30 935 H 80.7185 -0.346852 0.654809 0
M  V30 936 H 83.3655 -0.216171 1.90276 0
M  V30 937 H 81.6705 -2.61899 2.91404 0
M  V30 938 H 83.3675 -2.38227 3.22566 0
M  V30 939 H 79.9575 -1.24662 4.1007 0
M  V30 940 H 84.1415 -0.698076 4.91366 0
M  V30 941 H 79.3975 0.048153 6.11381 0
M  V30 942 H 83.5715 0.590367 6.93893 0
M  V30 943 H 81.1985 0.969466 7.53993 0
M  V30 944 N 82.7736 -1.49793 -0.48987 0
M  V30 945 C 83.6836 -1.70036 -1.61632 0
M  V30 946 C 84.6996 -0.583102 -1.63939 0
M  V30 947 O 85.8756 -0.859169 -1.82154 0
M  V30 948 C 82.9406 -1.77277 -2.97949 0
M  V30 949 C 82.0016 -3.00918 -3.06181 0
M  V30 950 C 81.2346 -3.07804 -4.35996 0
M  V30 951 O 81.4576 -2.21982 -5.25433 0
M  V30 952 O 80.3916 -4.00369 -4.49431 0
M  V30 953 H 84.2176 -2.65486 -1.47482 0
M  V30 954 H 81.8026 -1.33666 -0.667362 0
M  V30 955 H 83.6846 -1.84329 -3.78947 0
M  V30 956 H 82.3596 -0.850076 -3.12339 0
M  V30 957 H 81.2666 -2.99377 -2.2433 0
M  V30 958 H 82.5996 -3.92704 -2.96723 0
M  V30 959 N 84.2517 0.741722 -1.39055 0
M  V30 960 C 85.1837 1.8657 -1.33133 0
M  V30 961 C 86.1967 1.61001 -0.241329 0
M  V30 962 O 87.3857 1.7136 -0.499784 0
M  V30 963 C 84.4857 3.22457 -1.04283 0
M  V30 964 C 83.6587 3.75435 -2.24427 0
M  V30 965 C 82.7177 4.89867 -1.92138 0
M  V30 966 O 81.7437 5.03879 -2.64754 0
M  V30 967 N 82.9457 5.73738 -0.88347 0
M  V30 968 H 85.7107 1.92156 -2.29991 0
M  V30 969 H 83.2717 0.922172 -1.3307 0
M  V30 970 H 85.2637 3.9657 -0.807128 0
M  V30 971 H 83.8337 3.12181 -0.161807 0
M  V30 972 H 83.0537 2.92751 -2.6399 0
M  V30 973 H 84.3417 4.07563 -3.04581 0
M  V30 974 H 83.7397 5.64999 -0.281517 0
M  V30 975 H 82.2967 6.47947 -0.707662 0
M  V30 976 N 85.7298 1.2412 0.971189 0
M  V30 977 C 86.9598 1.10415 1.7462 0
M  V30 978 C 87.3678 -0.346462 1.86001 0
M  V30 979 O 86.7108 -1.25104 1.34517 0
M  V30 980 C 86.7728 1.66596 3.18568 0
M  V30 981 C 86.4368 3.15446 3.3067 0
M  V30 982 C 87.4338 4.12636 3.16271 0
M  V30 983 C 85.1188 3.55337 3.55022 0
M  V30 984 C 87.1128 5.47699 3.26044 0
M  V30 985 C 84.7998 4.90542 3.64434 0
M  V30 986 C 85.7978 5.86532 3.49956 0
M  V30 987 O 85.4858 7.19279 3.59017 0
M  V30 988 H 85.2178 0.386616 0.55453 0
M  V30 989 H 87.7718 1.64633 1.22821 0
M  V30 990 H 86.0018 1.06808 3.71657 0
M  V30 991 H 87.6908 1.48232 3.77865 0
M  V30 992 H 88.4568 3.8316 2.97344 0
M  V30 993 H 84.3358 2.8113 3.65359 0
M  V30 994 H 87.8798 6.22603 3.14661 0
M  V30 995 H 83.7768 5.19691 3.82873 0
M  V30 996 H 84.5448 7.27153 3.75754 0
M  V30 997 N 87.2079 -1.17134 1.05439 0
M  V30 998 C 88.4379 -1.91094 0.785274 0
M  V30 999 C 88.8459 -1.77198 -0.663142 0
M  V30 1000 O 88.1889 -1.10835 -1.46497 0
M  V30 1001 C 88.2509 -3.42594 1.08949 0
M  V30 1002 C 87.9149 -3.80274 2.53458 0
M  V30 1003 C 88.9119 -3.82912 3.51673 0
M  V30 1004 C 86.5969 -4.11162 2.88532 0
M  V30 1005 C 88.5909 -4.15913 4.83006 0
M  V30 1006 C 86.2779 -4.43831 4.20068 0
M  V30 1007 C 87.2759 -4.46185 5.17115 0
M  V30 1008 O 86.9639 -4.78083 6.46291 0
M  V30 1009 H 86.6959 -0.613073 0.284811 0
M  V30 1010 H 89.2499 -1.49461 1.40893 0
M  V30 1011 H 87.4799 -3.84534 0.408741 0
M  V30 1012 H 89.1689 -3.97817 0.805991 0
M  V30 1013 H 89.9349 -3.5917 3.25917 0
M  V30 1014 H 85.8139 -4.085 2.13656 0
M  V30 1015 H 89.3579 -4.17665 5.5875 0
M  V30 1016 H 85.2549 -4.67037 4.45586 0
M  V30 1017 H 86.0229 -4.9593 6.51149 0
M  V30 1018 N 88.686 -0.835752 -1.33615 0
M  V30 1019 C 89.914 -0.443344 -2.02094 0
M  V30 1020 C 90.329 0.954522 -1.62894 0
M  V30 1021 O 89.686 1.61982 -0.840723 0
M  V30 1022 C 89.737 -0.550775 -3.5728 0
M  V30 1023 O 89.458 -1.89356 -3.95065 0
M  V30 1024 C 90.959 -0.154919 -4.43029 0
M  V30 1025 H 88.179 -0.176359 -0.647409 0
M  V30 1026 H 90.723 -1.12746 -1.70612 0
M  V30 1027 H 88.878 0.0853997 -3.87306 0
M  V30 1028 H 89.292 -1.87687 -4.89769 0
M  V30 1029 H 90.766 -0.281144 -5.51284 0
M  V30 1030 H 91.243 0.902863 -4.2982 0
M  V30 1031 H 91.849 -0.765404 -4.18356 0
M  V30 1032 N 90.1641 1.46063 -0.591896 0
M  V30 1033 C 91.0941 2.33172 0.123673 0
M  V30 1034 C 92.0751 1.45897 0.87453 0
M  V30 1035 O 93.2601 1.74698 0.848181 0
M  V30 1036 C 90.3901 3.28336 1.13194 0
M  V30 1037 C 89.3441 4.25124 0.495324 0
M  V30 1038 C 88.6701 5.09863 1.61071 0
M  V30 1039 C 89.9701 5.19143 -0.573425 0
M  V30 1040 H 91.6641 2.93252 -0.603646 0
M  V30 1041 H 89.2101 1.41014 -0.291741 0
M  V30 1042 H 91.1631 3.88137 1.64097 0
M  V30 1043 H 89.8871 2.66383 1.88965 0
M  V30 1044 H 88.5461 3.66599 0.00729452 0
M  V30 1045 H 88.1941 4.44288 2.35832 0
M  V30 1046 H 87.8941 5.75417 1.19035 0
M  V30 1047 H 89.4181 5.72529 2.12233 0
M  V30 1048 H 90.8321 5.73106 -0.1491 0
M  V30 1049 H 89.2291 5.93089 -0.914636 0
M  V30 1050 H 90.2991 4.62519 -1.45617 0
M  V30 1051 N 91.6422 0.330177 1.54103 0
M  V30 1052 C 92.5892 -0.532762 2.24567 0
M  V30 1053 C 93.5592 -1.10635 1.23892 0
M  V30 1054 O 94.7442 -1.14546 1.5259 0
M  V30 1055 C 91.8842 -1.6845 3.01195 0
M  V30 1056 C 90.9972 -1.13951 4.167 0
M  V30 1057 C 90.1322 -2.25746 4.80845 0
M  V30 1058 C 89.1712 -1.6853 5.88442 0
M  V30 1059 N 88.3082 -2.74014 6.46421 0
M  V30 1060 H 93.1482 0.0746905 2.97906 0
M  V30 1061 H 90.6852 0.048632 1.4702 0
M  V30 1062 H 92.6432 -2.36234 3.43874 0
M  V30 1063 H 91.2732 -2.26314 2.30178 0
M  V30 1064 H 90.3252 -0.35301 3.78758 0
M  V30 1065 H 91.6372 -0.680892 4.94131 0
M  V30 1066 H 90.7912 -3.01422 5.26526 0
M  V30 1067 H 89.5302 -2.74947 4.0281 0
M  V30 1068 H 88.5352 -0.913543 5.42157 0
M  V30 1069 H 89.7602 -1.20198 6.68378 0
M  V30 1070 H 87.7062 -3.22494 5.71256 0
M  V30 1071 H 87.6232 -2.32735 7.19285 0
M  V30 1072 H 88.8912 -3.49499 6.96757 0
M  V30 1073 N 93.1203 -1.57491 0.0584922 0
M  V30 1074 C 94.0703 -2.08474 -0.923188 0
M  V30 1075 C 95.0543 -0.991479 -1.26722 0
M  V30 1076 O 96.2463 -1.25473 -1.24842 0
M  V30 1077 C 93.3753 -2.6392 -2.19548 0
M  V30 1078 C 92.4613 -3.80227 -1.87852 0
M  V30 1079 N 92.8523 -4.89714 -1.26546 0
M  V30 1080 C 91.1503 -3.89271 -2.17679 0
M  V30 1081 C 91.8513 -5.70689 -1.12644 0
M  V30 1082 N 90.8273 -5.18531 -1.63176 0
M  V30 1083 H 94.6293 -2.90517 -0.444653 0
M  V30 1084 H 92.1433 -1.61745 -0.145764 0
M  V30 1085 H 94.1403 -2.98752 -2.9078 0
M  V30 1086 H 92.8003 -1.83318 -2.68001 0
M  V30 1087 H 93.8113 -5.09358 -0.936757 0
M  V30 1088 H 90.4883 -3.19623 -2.68602 0
M  V30 1089 H 91.8783 -6.6875 -0.6499 0
M  V30 1090 N 94.5984 0.214957 -1.56127 0
M  V30 1091 C 95.5284 1.2695 -1.95974 0
M  V30 1092 C 96.5094 1.48539 -0.828868 0
M  V30 1093 O 97.6944 1.60611 -1.09168 0
M  V30 1094 C 94.8244 2.61794 -2.28214 0
M  V30 1095 C 93.7784 2.54851 -3.43853 0
M  V30 1096 C 93.1044 3.93785 -3.61715 0
M  V30 1097 C 94.4044 2.09065 -4.78632 0
M  V30 1098 H 96.0984 0.93846 -2.84312 0
M  V30 1099 H 93.6444 0.449996 -1.36788 0
M  V30 1100 H 95.5974 3.35731 -2.54682 0
M  V30 1101 H 94.3214 2.96599 -1.36736 0
M  V30 1102 H 92.9804 1.8337 -3.17444 0
M  V30 1103 H 92.6284 4.25908 -2.67602 0
M  V30 1104 H 92.3284 3.90019 -4.39498 0
M  V30 1105 H 93.8524 4.69374 -3.90539 0
M  V30 1106 H 95.2664 2.7275 -5.04262 0
M  V30 1107 H 93.6634 2.16346 -5.59745 0
M  V30 1108 H 94.7334 1.04315 -4.73547 0
M  V30 1109 N 96.0765 1.50051 0.48192 0
M  V30 1110 C 97.3255 1.59741 1.23149 0
M  V30 1111 C 97.6385 0.298163 1.93314 0
M  V30 1112 O 98.8445 0.273835 2.70116 0
M  V30 1113 C 97.3005 2.81926 2.23708 0
M  V30 1114 C 96.9085 4.18685 1.59396 0
M  V30 1115 C 98.6525 3.00956 2.99375 0
M  V30 1116 C 96.5595 5.3207 2.58178 0
M  V30 1117 H 95.4895 0.594838 0.46334 0
M  V30 1118 H 98.1405 1.76467 0.503169 0
M  V30 1119 H 96.5225 2.58736 2.99786 0
M  V30 1120 H 97.6965 4.52088 0.891811 0
M  V30 1121 H 96.0115 4.05171 0.960503 0
M  V30 1122 H 98.6085 3.82836 3.73283 0
M  V30 1123 H 98.9515 2.12258 3.58123 0
M  V30 1124 H 99.4845 3.24277 2.30411 0
M  V30 1125 H 96.2235 6.22888 2.04184 0
M  V30 1126 H 95.7435 5.03098 3.26577 0
M  V30 1127 H 97.4225 5.62196 3.20225 0
M  V30 1128 N 97.5546 -0.734337 1.39446 0
M  V30 1129 C 98.4866 -1.85861 1.34121 0
M  V30 1130 C 99.4996 -1.60871 0.249864 0
M  V30 1131 O 100.689 -1.71093 0.508865 0
M  V30 1132 C 97.7886 -3.21899 1.05991 0
M  V30 1133 C 96.9616 -3.74239 2.26415 0
M  V30 1134 C 96.0206 -4.88841 1.94733 0
M  V30 1135 O 95.0466 -5.02468 2.67422 0
M  V30 1136 N 96.2486 -5.73261 0.913884 0
M  V30 1137 H 99.0136 -1.90934 2.31007 0
M  V30 1138 H 96.5746 -0.915102 1.33557 0
M  V30 1139 H 98.5666 -3.96136 0.828147 0
M  V30 1140 H 97.1366 -3.12091 0.178361 0
M  V30 1141 H 96.3566 -2.91347 2.65539 0
M  V30 1142 H 97.6446 -4.05942 3.06738 0
M  V30 1143 H 97.0426 -5.64842 0.311476 0
M  V30 1144 H 95.5996 -6.47563 0.742015 0
M  V30 1145 N 99.0327 -1.24633 -0.964593 0
M  V30 1146 C 99.9807 -1.03917 -2.08096 0
M  V30 1147 C 100.975 0.0268581 -1.69379 0
M  V30 1148 O 102.181 -0.127952 -1.79545 0
M  V30 1149 H 98.5557 -0.319044 -0.680966 0
M  V30 1150 H 100.527 -1.98581 -2.22729 0
M  V30 1151 C 99.2757 -0.663983 -3.41301 0
M  V30 1152 H 98.5987 -1.47605 -3.71555 0
M  V30 1153 H 100.039 -0.558663 -4.20303 0
M  V30 1154 C 98.4977 0.629169 -3.30973 0
M  V30 1155 O 99.0277 1.67404 -3.65156 0
M  V30 1156 N 97.2337 0.611057 -2.84103 0
M  V30 1157 H 96.7807 -0.239593 -2.56483 0
M  V30 1158 H 96.7387 1.47647 -2.77575 0
M  V30 1159 N 100.511 1.16574 -1.06058 0
M  V30 1160 C 101.443 2.2045 -0.627239 0
M  V30 1161 C 102.456 1.59752 0.313534 0
M  V30 1162 O 103.645 1.78192 0.104896 0
M  V30 1163 C 100.745 3.3875 0.100974 0
M  V30 1164 C 99.9178 4.29008 -0.852687 0
M  V30 1165 C 98.9768 5.25944 -0.164152 0
M  V30 1166 O 98.0028 5.63535 -0.801047 0
M  V30 1167 N 99.2048 5.70075 1.09518 0
M  V30 1168 H 101.97 2.58249 -1.52077 0
M  V30 1169 H 99.5308 1.3156 -0.943594 0
M  V30 1170 H 101.523 4.00638 0.57194 0
M  V30 1171 H 100.093 2.99476 0.89628 0
M  V30 1172 H 99.3128 3.64419 -1.50308 0
M  V30 1173 H 100.601 4.86195 -1.49972 0
M  V30 1174 H 99.9988 5.41624 1.6328 0
M  V30 1175 H 98.5558 6.34067 1.51006 0
M  V30 1176 N 101.989 0.842826 1.3317 0
M  V30 1177 C 102.899 0.281444 2.32906 0
M  V30 1178 C 103.915 -0.594587 1.63526 0
M  V30 1179 O 105.091 -0.49777 1.95152 0
M  V30 1180 C 102.156 -0.530929 3.42611 0
M  V30 1181 C 101.217 0.369843 4.27704 0
M  V30 1182 C 100.45 -0.403853 5.3217 0
M  V30 1183 O 100.673 -1.63513 5.46461 0
M  V30 1184 O 99.6069 0.224199 6.01482 0
M  V30 1185 H 103.433 1.10744 2.82789 0
M  V30 1186 H 101.018 0.60545 1.36582 0
M  V30 1187 H 102.9 -0.992437 4.09547 0
M  V30 1188 H 101.575 -1.33392 2.94938 0
M  V30 1189 H 100.482 0.879275 3.6362 0
M  V30 1190 H 101.815 1.13771 4.78871 0
M  V30 1191 N 103.467 -1.45747 0.599634 0
M  V30 1192 C 104.697 -2.06369 0.0977132 0
M  V30 1193 C 105.105 -1.44624 -1.21985 0
M  V30 1194 O 104.448 -0.551831 -1.75216 0
M  V30 1195 C 104.51 -3.59284 -0.124673 0
M  V30 1196 C 104.174 -4.43318 1.10987 0
M  V30 1197 C 105.171 -4.78796 2.02609 0
M  V30 1198 C 102.856 -4.84194 1.33647 0
M  V30 1199 C 104.85 -5.53997 3.15224 0
M  V30 1200 C 102.537 -5.5915 2.46565 0
M  V30 1201 C 103.535 -5.93968 3.37182 0
M  V30 1202 O 103.223 -6.67405 4.48136 0
M  V30 1203 H 102.955 -0.673122 0.0623153 0
M  V30 1204 H 105.509 -1.88104 0.824981 0
M  V30 1205 H 103.739 -3.75919 -0.906745 0
M  V30 1206 H 105.428 -4.01775 -0.577201 0
M  V30 1207 H 106.194 -4.47781 1.86325 0
M  V30 1208 H 102.073 -4.56534 0.64016 0
M  V30 1209 H 105.617 -5.81091 3.85978 0
M  V30 1210 H 101.514 -5.89579 2.62805 0
M  V30 1211 H 102.282 -6.85847 4.46717 0
M  V30 1212 N 104.945 -0.338344 -1.53925 0
M  V30 1213 C 105.855 0.529421 -2.28548 0
M  V30 1214 C 106.871 1.11645 -1.3346 0
M  V30 1215 O 108.047 1.13325 -1.66492 0
M  V30 1216 C 105.112 1.66713 -3.03987 0
M  V30 1217 C 104.173 1.11041 -4.14691 0
M  V30 1218 C 103.406 2.19389 -4.86522 0
M  V30 1219 O 103.629 3.40013 -4.57982 0
M  V30 1220 O 102.563 1.83976 -5.73094 0
M  V30 1221 H 106.389 -0.0770399 -3.03602 0
M  V30 1222 H 103.974 -0.103555 -1.49041 0
M  V30 1223 H 105.856 2.32918 -3.5118 0
M  V30 1224 H 104.531 2.25949 -2.31794 0
M  V30 1225 H 103.438 0.413024 -3.71813 0
M  V30 1226 H 104.771 0.562975 -4.8897 0
M  V30 1227 N 106.423 1.57458 -0.0668435 0
M  V30 1228 C 107.651 1.97624 0.612565 0
M  V30 1229 C 108.066 0.94502 1.63447 0
M  V30 1230 O 107.423 -0.0689276 1.8237 0
M  V30 1231 C 107.474 3.37869 1.28555 0
M  V30 1232 O 107.195 4.3704 0.304557 0
M  V30 1233 C 108.696 3.92882 2.05325 0
M  V30 1234 H 105.916 0.650045 0.166381 0
M  V30 1235 H 108.46 2.04035 -0.137782 0
M  V30 1236 H 106.615 3.3256 1.98702 0
M  V30 1237 H 107.029 5.18565 0.786779 0
M  V30 1238 H 108.503 4.93247 2.47812 0
M  V30 1239 H 108.98 3.29156 2.9078 0
M  V30 1240 H 109.586 4.01577 1.40056 0
M  V30 1241 N 107.901 -0.206675 1.56239 0
M  V30 1242 C 108.811 -1.27686 1.96808 0
M  V30 1243 C 109.827 -1.50455 0.874035 0
M  V30 1244 O 111.003 -1.63295 1.17884 0
M  V30 1245 C 108.068 -2.60358 2.28942 0
M  V30 1246 C 107.129 -2.45762 3.51994 0
M  V30 1247 C 106.362 -3.72108 3.82585 0
M  V30 1248 O 106.585 -4.75776 3.14631 0
M  V30 1249 O 105.519 -3.6833 4.76043 0
M  V30 1250 H 109.345 -0.962593 2.88041 0
M  V30 1251 H 106.93 -0.410746 1.43643 0
M  V30 1252 H 108.812 -3.38687 2.50737 0
M  V30 1253 H 107.487 -2.91435 1.4088 0
M  V30 1254 H 106.394 -1.65584 3.35459 0
M  V30 1255 H 107.727 -2.19621 4.40486 0
M  V30 1256 N 109.379 -1.50304 -0.473955 0
M  V30 1257 C 110.309 -1.71886 -1.58042 0
M  V30 1258 C 111.29 -0.567799 -1.60344 0
M  V30 1259 O 112.475 -0.806623 -1.76656 0
M  V30 1260 C 109.605 -1.81036 -2.96384 0
M  V30 1261 C 108.559 -2.962 -3.08949 0
M  V30 1262 C 107.885 -2.9049 -4.48909 0
M  V30 1263 C 109.185 -4.36752 -2.86434 0
M  V30 1264 H 110.879 -2.64527 -1.40234 0
M  V30 1265 H 108.425 -1.27295 -0.673201 0
M  V30 1266 H 110.378 -1.94719 -3.73714 0
M  V30 1267 H 109.102 -0.850147 -3.15341 0
M  V30 1268 H 107.761 -2.82164 -2.3405 0
M  V30 1269 H 107.409 -1.92321 -4.64781 0
M  V30 1270 H 107.109 -3.67802 -4.58253 0
M  V30 1271 H 108.633 -3.06218 -5.28264 0
M  V30 1272 H 110.047 -4.5133 -3.53517 0
M  V30 1273 H 108.444 -5.15493 -3.07225 0
M  V30 1274 H 109.514 -4.49321 -1.82316 0
M  V30 1275 N 110.857 0.726932 -1.39834 0
M  V30 1276 C 112.106 1.48214 -1.36805 0
M  V30 1277 C 112.419 1.95576 0.0305291 0
M  V30 1278 O 113.625 2.7088 0.183417 0
M  V30 1279 C 112.081 2.67854 -2.40379 0
M  V30 1280 C 111.689 2.27408 -3.85992 0
M  V30 1281 C 113.433 3.45641 -2.46439 0
M  V30 1282 C 111.34 3.43819 -4.81189 0
M  V30 1283 H 110.27 0.556606 -0.508631 0
M  V30 1284 H 112.921 0.792216 -1.65518 0
M  V30 1285 H 111.303 3.3896 -2.04749 0
M  V30 1286 H 112.477 1.63795 -4.30706 0
M  V30 1287 H 110.792 1.62692 -3.83302 0
M  V30 1288 H 113.389 4.32244 -3.14753 0
M  V30 1289 H 113.732 3.88669 -1.49139 0
M  V30 1290 H 114.265 2.8157 -2.81004 0
M  V30 1291 H 111.004 3.05834 -5.79781 0
M  V30 1292 H 110.524 4.06385 -4.41148 0
M  V30 1293 H 112.203 4.10043 -5.00474 0
M  V30 1294 N 112.336 1.25143 0.95797 0
M  V30 1295 C 113.269 0.995565 2.05338 0
M  V30 1296 C 114.247 -0.0740423 1.62431 0
M  V30 1297 O 115.431 0.0649212 1.88388 0
M  V30 1298 C 112.558 0.504298 3.34925 0
M  V30 1299 C 111.604 1.56393 3.96792 0
M  V30 1300 S 112.437 3.14815 4.33188 0
M  V30 1301 C 113.593 2.67415 5.65898 0
M  V30 1302 H 113.826 1.92309 2.26726 0
M  V30 1303 H 111.359 1.08635 1.09716 0
M  V30 1304 H 113.317 0.227497 4.09869 0
M  V30 1305 H 111.978 -0.402671 3.11508 0
M  V30 1306 H 111.171 1.17082 4.90212 0
M  V30 1307 H 110.773 1.79124 3.28315 0
M  V30 1308 H 113.065 2.10833 6.4386 0
M  V30 1309 H 114.008 3.59463 6.10076 0
M  V30 1310 H 114.416 2.07521 5.24972 0
M  V30 1311 N 113.814 -1.1601 1.06675 0
M  V30 1312 C 115.054 -1.88304 0.795037 0
M  V30 1313 C 115.418 -1.80062 -0.666466 0
M  V30 1314 O 116.619 -2.47319 -1.05293 0
M  V30 1315 C 114.89 -3.33664 1.28076 0
M  V30 1316 S 116.449 -4.23768 1.13868 0
M  V30 1317 H 113.267 -0.649928 0.288296 0
M  V30 1318 H 115.869 -1.4001 1.36445 0
M  V30 1319 H 114.573 -3.37203 2.33927 0
M  V30 1320 H 114.104 -3.87009 0.706253 0
M  V30 1321 H 116.119 -4.96148 0.0719668 0
M  V30 1322 N 115.292 -0.849877 -1.32721 0
M  V30 1323 C 116.517 -0.463856 -2.02146 0
M  V30 1324 C 116.942 0.930449 -1.63476 0
M  V30 1325 O 116.3 1.61033 -0.832952 0
M  V30 1326 C 116.348 -0.604955 -3.55489 0
M  V30 1327 O 115.452 0.36425 -4.10788 0
M  V30 1328 H 114.793 -0.187046 -0.637111 0
M  V30 1329 H 117.323 -1.14775 -1.69375 0
M  V30 1330 H 117.333 -0.490696 -4.05038 0
M  V30 1331 H 116.008 -1.62174 -3.82978 0
M  V30 1332 H 114.585 0.206628 -3.72327 0
M  V30 1333 N 116.77 1.45427 -0.607355 0
M  V30 1334 C 117.718 2.32269 0.12411 0
M  V30 1335 C 118.712 1.45955 0.859854 0
M  V30 1336 O 119.918 1.6244 0.775447 0
M  V30 1337 H 116.293 0.749691 0.0588839 0
M  V30 1338 H 118.264 2.91743 -0.626762 0
M  V30 1339 C 117.013 3.29567 1.1082 0
M  V30 1340 H 116.336 3.95978 0.551492 0
M  V30 1341 H 117.776 3.93061 1.58995 0
M  V30 1342 C 116.235 2.56722 2.18164 0
M  V30 1343 O 116.765 2.34842 3.25902 0
M  V30 1344 N 114.971 2.16861 1.93442 0
M  V30 1345 H 114.518 2.34855 1.05834 0
M  V30 1346 H 114.476 1.68444 2.65469 0
M  V30 1347 N 118.248 0.346503 1.53744 0
M  V30 1348 C 119.478 -0.250047 2.05081 0
M  V30 1349 C 119.886 -1.44529 1.22098 0
M  V30 1350 O 119.229 -1.81992 0.249917 0
M  V30 1351 C 119.291 -0.725934 3.52094 0
M  V30 1352 C 118.955 0.350053 4.55657 0
M  V30 1353 C 119.952 1.19372 5.0601 0
M  V30 1354 C 117.637 0.504827 4.99757 0
M  V30 1355 C 119.631 2.17768 5.99046 0
M  V30 1356 C 117.318 1.49218 5.92602 0
M  V30 1357 C 118.316 2.32706 6.42135 0
M  V30 1358 O 118.004 3.2976 7.33153 0
M  V30 1359 H 117.736 -0.0515469 0.674032 0
M  V30 1360 H 120.29 0.497559 1.99282 0
M  V30 1361 H 118.52 -1.52483 3.55367 0
M  V30 1362 H 120.209 -1.24336 3.86388 0
M  V30 1363 H 120.975 1.08525 4.72702 0
M  V30 1364 H 116.854 -0.135178 4.60802 0
M  V30 1365 H 120.398 2.82971 6.37631 0
M  V30 1366 H 116.295 1.6012 6.25325 0
M  V30 1367 H 117.063 3.25265 7.51096 0
M  V30 1368 N 119.726 -1.57421 0.075193 0
M  V30 1369 C 120.674 -2.14124 -0.908508 0
M  V30 1370 C 121.668 -1.07898 -1.30592 0
M  V30 1371 O 122.874 -1.26273 -1.28277 0
M  V30 1372 H 119.249 -0.684707 -0.310935 0
M  V30 1373 H 121.22 -2.95634 -0.405374 0
M  V30 1374 C 119.969 -2.72044 -2.16535 0
M  V30 1375 H 119.292 -3.53456 -1.86839 0
M  V30 1376 H 120.732 -3.15311 -2.83469 0
M  V30 1377 C 119.191 -1.66968 -2.92615 0
M  V30 1378 O 119.721 -1.0967 -3.86439 0
M  V30 1379 N 117.927 -1.37923 -2.55784 0
M  V30 1380 H 117.474 -1.84706 -1.79559 0
M  V30 1381 H 117.432 -0.67852 -3.06991 0
M  V30 1382 N 121.204 0.198386 -1.56346 0
M  V30 1383 C 122.136 1.26987 -1.90806 0
M  V30 1384 C 123.149 1.41877 -0.798419 0
M  V30 1385 O 124.338 1.42362 -1.07682 0
M  V30 1386 C 121.438 2.64246 -2.12196 0
M  V30 1387 C 120.611 2.71007 -3.43328 0
M  V30 1388 C 119.67 3.89439 -3.5387 0
M  V30 1389 O 118.696 3.76695 -4.26719 0
M  V30 1390 N 119.898 5.04752 -2.86715 0
M  V30 1391 H 122.663 0.977433 -2.83313 0
M  V30 1392 H 120.224 0.388322 -1.57174 0
M  V30 1393 H 122.216 3.41896 -2.1654 0
M  V30 1394 H 120.786 2.85992 -1.26204 0
M  V30 1395 H 120.006 1.79657 -3.50881 0
M  V30 1396 H 121.294 2.72512 -4.29668 0
M  V30 1397 H 120.692 5.18004 -2.2735 0
M  V30 1398 H 119.249 5.8036 -2.96691 0
M  V30 1399 N 122.682 1.50554 0.465978 0
M  V30 1400 C 123.645 1.69233 1.54574 0
M  V30 1401 C 124.645 0.562901 1.50626 0
M  V30 1402 O 125.835 0.830016 1.53155 0
M  V30 1403 C 122.967 1.7223 2.94193 0
M  V30 1404 H 124.16 2.65571 1.39327 0
M  V30 1405 H 121.713 1.40111 0.692711 0
M  V30 1406 H 122.448 0.77603 3.14878 0
M  V30 1407 H 122.233 2.54285 2.98466 0
M  V30 1408 H 123.723 1.88618 3.72576 0
M  V30 1409 N 124.16 -0.719506 1.40217 0
M  V30 1410 C 125.11 -1.8251 1.36653 0
M  V30 1411 C 126.094 -1.59028 0.244732 0
M  V30 1412 O 127.286 -1.70268 0.483524 0
M  V30 1413 C 124.415 -3.20599 1.22763 0
M  V30 1414 C 123.501 -3.49858 2.39708 0
M  V30 1415 N 123.892 -3.49957 3.6519 0
M  V30 1416 C 122.19 -3.80297 2.33002 0
M  V30 1417 C 122.891 -3.77449 4.42614 0
M  V30 1418 N 121.867 -3.96002 3.72402 0
M  V30 1419 H 125.669 -1.80914 2.31619 0
M  V30 1420 H 123.183 -0.918455 1.33933 0
M  V30 1421 H 125.18 -3.99766 1.18292 0
M  V30 1422 H 123.84 -3.23424 0.287614 0
M  V30 1423 H 124.851 -3.309 3.98404 0
M  V30 1424 H 121.528 -3.90635 1.47346 0
M  V30 1425 H 122.918 -3.83863 5.51451 0
M  V30 1426 N 125.638 -1.25649 -0.95132 0
M  V30 1427 C 126.568 -1.08808 -2.06599 0
M  V30 1428 C 127.549 0.00382547 -1.701 0
M  V30 1429 O 128.734 -0.166325 -1.93486 0
M  V30 1430 C 125.864 -0.709542 -3.39975 0
M  V30 1431 C 124.818 -1.75206 -3.90496 0
M  V30 1432 C 124.144 -1.22811 -5.20405 0
M  V30 1433 C 125.444 -3.15153 -4.16504 0
M  V30 1434 H 127.138 -2.02048 -2.20946 0
M  V30 1435 H 124.684 -0.972835 -1.06169 0
M  V30 1436 H 126.637 -0.578649 -4.17408 0
M  V30 1437 H 125.361 0.258556 -3.25575 0
M  V30 1438 H 124.02 -1.87145 -3.15234 0
M  V30 1439 H 123.668 -0.250145 -5.02378 0
M  V30 1440 H 123.368 -1.92492 -5.55176 0
M  V30 1441 H 124.892 -1.10968 -6.00432 0
M  V30 1442 H 126.306 -3.06349 -4.84586 0
M  V30 1443 H 124.703 -3.82333 -4.62538 0
M  V30 1444 H 125.773 -3.61966 -3.22658 0
M  V30 1445 N 127.117 1.15442 -1.07289 0
M  V30 1446 C 128.027 2.23786 -0.704057 0
M  V30 1447 C 129.043 1.7166 0.284413 0
M  V30 1448 O 130.219 2.00972 0.131205 0
M  V30 1449 C 127.284 3.46535 -0.106792 0
M  V30 1450 C 126.345 4.13654 -1.14842 0
M  V30 1451 C 125.578 5.30544 -0.57956 0
M  V30 1452 O 125.801 5.67187 0.604585 0
M  V30 1453 O 124.735 5.87154 -1.32414 0
M  V30 1454 H 128.561 2.57664 -1.60757 0
M  V30 1455 H 126.146 1.23152 -0.845803 0
M  V30 1456 H 128.028 4.20804 0.224048 0
M  V30 1457 H 126.703 3.14407 0.770049 0
M  V30 1458 H 125.61 3.4131 -1.5316 0
M  V30 1459 H 126.943 4.49861 -1.99714 0
M  V30 1460 N 128.595 0.856903 1.32268 0
M  V30 1461 C 129.543 0.291987 2.3076 0
M  V30 1462 C 130.537 -0.585857 1.58947 0
M  V30 1463 O 131.743 -0.47341 1.73663 0
M  V30 1464 H 128.118 0.075721 0.748178 0
M  V30 1465 H 130.089 1.13687 2.75895 0
M  V30 1466 C 128.838 -0.502869 3.44044 0
M  V30 1467 H 128.161 0.163328 3.99466 0
M  V30 1468 H 129.601 -0.863691 4.1511 0
M  V30 1469 C 128.06 -1.68898 2.91505 0
M  V30 1470 O 128.59 -2.78811 2.89184 0
M  V30 1471 N 126.796 -1.51679 2.47875 0
M  V30 1472 H 126.343 -0.622666 2.49961 0
M  V30 1473 H 126.301 -2.31184 2.13076 0
M  V30 1474 N 130.073 -1.45103 0.615059 0
M  V30 1475 C 130.983 -2.34382 -0.101034 0
M  V30 1476 C 131.999 -1.51681 -0.852585 0
M  V30 1477 O 133.175 -1.8446 -0.808484 0
M  V30 1478 C 130.24 -3.29417 -1.08099 0
M  V30 1479 C 129.301 -4.28025 -0.330577 0
M  V30 1480 C 128.534 -5.1852 -1.26385 0
M  V30 1481 O 128.757 -5.12598 -2.50198 0
M  V30 1482 O 127.691 -5.97122 -0.756866 0
M  V30 1483 H 131.517 -2.97033 0.632855 0
M  V30 1484 H 129.102 -1.4461 0.375293 0
M  V30 1485 H 130.984 -3.87958 -1.6452 0
M  V30 1486 H 129.659 -2.69321 -1.79577 0
M  V30 1487 H 128.566 -3.73078 0.276283 0
M  V30 1488 H 129.899 -4.90997 0.343866 0
M  V30 1489 N 131.551 -0.354651 -1.53558 0
M  V30 1490 C 132.499 0.512195 -2.26891 0
M  V30 1491 C 133.493 1.09263 -1.29452 0
M  V30 1492 O 134.699 1.03709 -1.47121 0
M  V30 1493 H 131.074 0.183878 -0.729173 0
M  V30 1494 H 133.045 -0.128202 -2.98124 0
M  V30 1495 C 131.794 1.64563 -3.06291 0
M  V30 1496 H 131.117 1.20829 -3.81104 0
M  V30 1497 H 132.557 2.22711 -3.60799 0
M  V30 1498 C 131.016 2.58158 -2.16462 0
M  V30 1499 O 131.546 3.60695 -1.76811 0
M  V30 1500 N 129.752 2.27096 -1.81317 0
M  V30 1501 H 129.299 1.43751 -2.1376 0
M  V30 1502 H 129.257 2.89975 -1.21498 0
M  V30 1503 N 133.029 1.57378 -0.0835403 0
M  V30 1504 C 134.276 1.9393 0.58287 0
M  V30 1505 C 134.604 0.964455 1.68904 0
M  V30 1506 O 133.859 -0.0179474 1.95692 0
M  V30 1507 C 134.158 3.37063 1.1884 0
M  V30 1508 C 133.824 4.50424 0.207194 0
M  V30 1509 C 132.486 4.81159 -0.0627115 0
M  V30 1510 C 134.838 5.19136 -0.463426 0
M  V30 1511 C 132.166 5.77939 -1.01012 0
M  V30 1512 C 134.518 6.16931 -1.39924 0
M  V30 1513 C 133.182 6.46078 -1.67749 0
M  V30 1514 H 132.452 0.70964 0.213287 0
M  V30 1515 H 135.099 1.90856 -0.156916 0
M  V30 1516 H 133.404 3.3666 2.00418 0
M  V30 1517 H 135.101 3.6264 1.71153 0
M  V30 1518 H 131.691 4.2646 0.427747 0
M  V30 1519 H 135.875 4.95576 -0.268034 0
M  V30 1520 H 131.131 5.98842 -1.23283 0
M  V30 1521 H 135.305 6.69273 -1.92476 0
M  V30 1522 H 132.932 7.2088 -2.41321 0
M  V30 1523 N 134.507 -0.190092 1.56449 0
M  V30 1524 C 135.753 -0.911052 1.81184 0
M  V30 1525 C 136.086 -1.82699 0.658396 0
M  V30 1526 O 135.361 -1.91491 -0.340775 0
M  V30 1527 C 135.644 -1.72297 3.16205 0
M  V30 1528 C 135.497 -0.831419 4.42049 0
M  V30 1529 C 136.816 -2.69454 3.47969 0
M  V30 1530 H 133.935 -0.32977 0.659106 0
M  V30 1531 H 136.577 -0.178169 1.89163 0
M  V30 1532 H 134.727 -2.34778 3.09534 0
M  V30 1533 H 136.399 -0.220929 4.60771 0
M  V30 1534 H 134.642 -0.138406 4.33579 0
M  V30 1535 H 135.313 -1.43461 5.33032 0
M  V30 1536 H 137.789 -2.17104 3.54972 0
M  V30 1537 H 136.665 -3.23342 4.43555 0
M  V30 1538 H 136.926 -3.48744 2.71717 0
M  V30 1539 N 135.985 -1.50799 -0.457987 0
M  V30 1540 C 136.932 -1.70617 -1.5543 0
M  V30 1541 C 137.902 -0.547562 -1.56815 0
M  V30 1542 O 139.087 -0.779647 -1.74144 0
M  V30 1543 C 136.227 -1.81831 -2.93311 0
M  V30 1544 C 135.34 -3.09278 -3.01615 0
M  V30 1545 C 134.475 -3.11209 -4.30491 0
M  V30 1546 C 133.514 -4.33055 -4.32585 0
M  V30 1547 N 132.651 -4.32652 -5.52952 0
M  V30 1548 H 137.491 -2.64207 -1.37836 0
M  V30 1549 H 135.028 -1.30959 -0.669937 0
M  V30 1550 H 136.986 -1.86314 -3.73287 0
M  V30 1551 H 135.616 -0.916685 -3.0951 0
M  V30 1552 H 134.668 -3.14203 -2.1443 0
M  V30 1553 H 135.98 -3.99233 -2.99022 0
M  V30 1554 H 135.134 -3.14494 -5.18824 0
M  V30 1555 H 133.873 -2.19106 -4.35711 0
M  V30 1556 H 132.878 -4.29969 -3.42647 0
M  V30 1557 H 134.103 -5.264 -4.29046 0
M  V30 1558 H 132.049 -3.43409 -5.58933 0
M  V30 1559 H 131.966 -5.16392 -5.52155 0
M  V30 1560 H 133.234 -4.40101 -6.43375 0
M  V30 1561 N 137.463 0.71206 -1.40597 0
M  V30 1562 C 138.691 1.50111 -1.42388 0
M  V30 1563 C 139.106 1.88784 -0.0245395 0
M  V30 1564 O 138.463 1.55681 0.952351 0
M  V30 1565 C 138.514 2.7742 -2.31776 0
M  V30 1566 O 138.235 2.40382 -3.66262 0
M  V30 1567 C 139.736 3.7129 -2.42196 0
M  V30 1568 H 136.956 0.46314 -0.485533 0
M  V30 1569 H 139.5 0.878068 -1.8469 0
M  V30 1570 H 137.655 3.36001 -1.92827 0
M  V30 1571 H 138.069 3.22324 -4.13772 0
M  V30 1572 H 139.543 4.57448 -3.08943 0
M  V30 1573 H 140.02 4.14641 -1.44809 0
M  V30 1574 H 140.626 3.18619 -2.81712 0
M  V30 1575 N 138.941 1.26152 0.944643 0
M  V30 1576 C 140.188 1.11492 1.69044 0
M  V30 1577 C 140.516 -0.342366 1.91463 0
M  V30 1578 O 139.771 -1.26812 1.49054 0
M  V30 1579 C 140.07 1.82541 3.07268 0
M  V30 1580 C 139.736 3.32445 3.04616 0
M  V30 1581 C 138.398 3.73337 3.036 0
M  V30 1582 C 140.75 4.28171 2.97185 0
M  V30 1583 C 138.078 5.08348 2.92915 0
M  V30 1584 C 140.43 5.63218 2.88041 0
M  V30 1585 C 139.094 6.03426 2.85366 0
M  V30 1586 H 138.364 0.407977 0.618576 0
M  V30 1587 H 141.011 1.56551 1.10291 0
M  V30 1588 H 139.316 1.29941 3.69625 0
M  V30 1589 H 141.013 1.68642 3.63815 0
M  V30 1590 H 137.603 2.99915 3.06185 0
M  V30 1591 H 141.787 3.97563 2.97081 0
M  V30 1592 H 137.043 5.38667 2.89219 0
M  V30 1593 H 141.217 6.37078 2.81254 0
M  V30 1594 H 138.844 7.07999 2.76842 0
M  V30 1595 N 140.419 -1.14872 1.07899 0
M  V30 1596 C 141.649 -1.89386 0.825631 0
M  V30 1597 C 142.057 -1.78565 -0.625406 0
M  V30 1598 O 141.4 -1.13918 -1.44113 0
M  V30 1599 C 141.462 -3.40206 1.16191 0
M  V30 1600 C 141.126 -3.74812 2.61467 0
M  V30 1601 C 142.123 -3.75367 3.59716 0
M  V30 1602 C 139.808 -4.0495 2.97189 0
M  V30 1603 C 141.802 -4.05574 4.9172 0
M  V30 1604 C 139.489 -4.34821 4.29388 0
M  V30 1605 C 140.487 -4.35116 5.26463 0
M  V30 1606 O 140.175 -4.64267 6.56286 0
M  V30 1607 H 139.907 -0.606894 0.297751 0
M  V30 1608 H 142.461 -1.46438 1.44031 0
M  V30 1609 H 140.691 -3.8358 0.490214 0
M  V30 1610 H 142.38 -3.96018 0.890193 0
M  V30 1611 H 143.146 -3.52176 3.33462 0
M  V30 1612 H 139.025 -4.03876 2.22273 0
M  V30 1613 H 142.569 -4.05719 5.67484 0
M  V30 1614 H 138.466 -4.5748 4.55392 0
M  V30 1615 H 139.234 -4.82007 6.61522 0
M  V30 1616 N 141.898 -0.863906 -1.31812 0
M  V30 1617 C 143.175 -0.39275 -1.91616 0
M  V30 1618 C 143.555 1.12461 -1.7865 0
M  V30 1619 O 142.903 1.95045 -1.19037 0
M  V30 1620 C 143.113 -0.867385 -3.38049 0
M  V30 1621 C 144.461 -0.889966 -4.15168 0
M  V30 1622 O 145.485 -0.812635 -3.46806 0
M  V30 1623 O 144.344 -1.00079 -5.37258 0
M  V30 1624 H 141.438 -0.116358 -0.818773 0
M  V30 1625 H 143.984 -0.951418 -1.40521 0
M  V30 1626 H 142.756 -1.91081 -3.41473 0
M  V30 1627 H 142.379 -0.286687 -3.96565 0
M  V30 1628 N 143.376 1.44774 -0.622745 0
M  V30 1629 C 144.606 2.06187 -0.130532 0
M  V30 1630 C 145.014 1.46547 1.19669 0
M  V30 1631 O 144.357 0.579636 1.74316 0
M  V30 1632 C 144.419 3.59437 0.0674983 0
M  V30 1633 C 144.083 4.41496 -1.18026 0
M  V30 1634 C 145.08 4.75512 -2.102 0
M  V30 1635 C 142.765 4.82007 -1.41333 0
M  V30 1636 C 144.759 5.48912 -3.23998 0
M  V30 1637 C 142.446 5.55157 -2.55429 0
M  V30 1638 C 143.444 5.88528 -3.46589 0
M  V30 1639 O 143.132 6.60191 -4.58697 0
M  V30 1640 H 142.864 0.672045 -0.0730162 0
M  V30 1641 H 145.418 1.86768 -0.854802 0
M  V30 1642 H 143.648 3.77314 0.846825 0
M  V30 1643 H 145.337 4.02642 0.513209 0
M  V30 1644 H 146.103 4.4476 -1.93425 0
M  V30 1645 H 141.982 4.55457 -0.712709 0
M  V30 1646 H 145.526 5.74877 -3.95174 0
M  V30 1647 H 141.423 5.85324 -2.72151 0
M  V30 1648 H 142.191 6.78654 -4.57571 0
M  V30 1649 N 144.854 0.36279 1.53368 0
M  V30 1650 C 146.101 -0.227776 2.01215 0
M  V30 1651 C 146.429 -1.49003 1.25014 0
M  V30 1652 O 145.684 -1.92876 0.331236 0
M  V30 1653 C 145.983 -0.568417 3.52851 0
M  V30 1654 C 145.649 0.59918 4.46901 0
M  V30 1655 C 144.311 0.919559 4.72332 0
M  V30 1656 C 146.663 1.38156 5.02556 0
M  V30 1657 C 143.991 2.02434 5.5067 0
M  V30 1658 C 146.343 2.47674 5.821 0
M  V30 1659 C 145.007 2.8025 6.05819 0
M  V30 1660 H 144.277 -0.083349 0.736297 0
M  V30 1661 H 146.924 0.494677 1.85001 0
M  V30 1662 H 145.229 -1.37185 3.66998 0
M  V30 1663 H 146.926 -1.03756 3.87344 0
M  V30 1664 H 143.516 0.339437 4.27254 0
M  V30 1665 H 147.7 1.14729 4.82857 0
M  V30 1666 H 142.956 2.28075 5.67267 0
M  V30 1667 H 147.13 3.08716 6.24234 0
M  V30 1668 H 144.757 3.65979 6.66306 0
M  V30 1669 N 146.332 -1.57332 0.0918853 0
M  V30 1670 C 147.743 -1.81496 -0.437739 0
M  V30 1671 C 148.094 -1.00727 -1.6837 0
M  V30 1672 O 147.219 -0.235694 -2.15113 0
M  V30 1673 C 147.814 -3.29197 -0.800939 0
M  V30 1674 C 146.373 -3.54136 -1.27532 0
M  V30 1675 C 145.52 -2.75979 -0.270392 0
M  V30 1676 H 148.471 -1.55494 0.317366 0
M  V30 1677 H 148.492 -3.42344 -1.66074 0
M  V30 1678 H 148.004 -3.87955 0.106078 0
M  V30 1679 H 146.105 -3.00705 -2.20016 0
M  V30 1680 H 146.218 -4.62792 -1.23938 0
M  V30 1681 H 144.582 -2.43349 -0.751872 0
M  V30 1682 H 145.365 -3.37484 0.629248 0
M  V30 1683 N 147.81 0.181792 -1.56548 0
M  V30 1684 C 149.087 0.926765 -1.72251 0
M  V30 1685 C 149.467 2.00831 -0.650386 0
M  V30 1686 O 148.815 2.26008 0.336521 0
M  V30 1687 C 149.025 1.50106 -3.1507 0
M  V30 1688 C 150.373 1.97805 -3.75711 0
M  V30 1689 O 151.397 1.59922 -3.18282 0
M  V30 1690 O 150.256 2.67555 -4.76525 0
M  V30 1691 H 147.35 0.435506 -0.703039 0
M  V30 1692 H 149.896 0.170443 -1.68842 0
M  V30 1693 H 148.668 0.72212 -3.84579 0
M  V30 1694 H 148.291 2.32186 -3.22763 0
M  V30 1695 N 149.288 1.51039 0.449983 0
M  V30 1696 C 150.251 1.70863 1.5277 0
M  V30 1697 C 151.251 0.578846 1.5002 0
M  V30 1698 O 152.441 0.846213 1.52266 0
M  V30 1699 C 149.573 1.75341 2.9235 0
M  V30 1700 H 150.766 2.67034 1.36502 0
M  V30 1701 H 148.319 1.40838 0.677812 0
M  V30 1702 H 149.054 0.809383 3.14037 0
M  V30 1703 H 148.839 2.57436 2.95752 0
M  V30 1704 H 150.329 1.92559 3.70555 0
M  V30 1705 N 150.766 -0.704594 1.40972 0
M  V30 1706 C 151.716 -1.81051 1.38581 0
M  V30 1707 C 152.7 -1.58759 0.261585 0
M  V30 1708 O 153.892 -1.69745 0.501556 0
M  V30 1709 C 151.021 -3.19279 1.26157 0
M  V30 1710 C 150.107 -3.47296 2.43405 0
M  V30 1711 N 150.498 -3.46064 3.68881 0
M  V30 1712 C 148.796 -3.77804 2.37023 0
M  V30 1713 C 149.497 -3.72733 4.46592 0
M  V30 1714 N 148.473 -3.9203 3.76581 0
M  V30 1715 H 152.275 -1.78448 2.33525 0
M  V30 1716 H 149.789 -0.904198 1.349 0
M  V30 1717 H 151.786 -3.98488 1.22526 0
M  V30 1718 H 150.446 -3.231 0.321902 0
M  V30 1719 H 151.457 -3.26656 4.01891 0
M  V30 1720 H 148.134 -3.8905 1.51481 0
M  V30 1721 H 149.524 -3.77993 5.55492 0
M  V30 1722 N 152.244 -1.26651 -0.937939 0
M  V30 1723 C 153.174 -1.10993 -2.05433 0
M  V30 1724 C 154.155 -0.0142161 -1.70094 0
M  V30 1725 O 155.34 -0.186837 -1.93299 0
M  V30 1726 C 152.47 -0.745561 -3.39203 0
M  V30 1727 C 151.424 -1.79337 -3.88616 0
M  V30 1728 C 150.75 -1.28324 -5.19073 0
M  V30 1729 C 152.05 -3.19553 -4.13138 0
M  V30 1730 H 153.744 -2.0438 -2.1879 0
M  V30 1731 H 151.29 -0.984041 -1.05131 0
M  V30 1732 H 153.243 -0.622888 -4.16771 0
M  V30 1733 H 151.967 0.22401 -3.25831 0
M  V30 1734 H 150.626 -1.90477 -3.13231 0
M  V30 1735 H 150.274 -0.303414 -5.02084 0
M  V30 1736 H 149.974 -1.98369 -5.53103 0
M  V30 1737 H 151.498 -1.1733 -5.99221 0
M  V30 1738 H 152.912 -3.11471 -4.81309 0
M  V30 1739 H 151.309 -3.87218 -4.58457 0
M  V30 1740 H 152.379 -3.65368 -3.18801 0
M  V30 1741 N 153.722 1.14298 -1.08507 0
M  V30 1742 C 154.97 1.84993 -0.813763 0
M  V30 1743 C 155.291 1.83405 0.662393 0
M  V30 1744 O 154.561 1.28319 1.48024 0
M  V30 1745 H 153.141 0.684966 -0.298045 0
M  V30 1746 H 155.803 1.385 -1.37126 0
M  V30 1747 H 154.899 2.89788 -1.15884 0
M  V30 1748 N 155.201 0.870884 1.31352 0
M  V30 1749 C 156.431 0.496049 2.00557 0
M  V30 1750 C 156.839 -0.916241 1.65534 0
M  V30 1751 O 156.182 -1.61188 0.881134 0
M  V30 1752 C 156.244 0.574418 3.54881 0
M  V30 1753 C 155.908 1.94849 4.1338 0
M  V30 1754 C 156.905 2.91611 4.30417 0
M  V30 1755 C 154.59 2.25005 4.49086 0
M  V30 1756 C 156.584 4.16672 4.82352 0
M  V30 1757 C 154.271 3.50315 5.00722 0
M  V30 1758 C 155.269 4.45964 5.17306 0
M  V30 1759 O 154.957 5.69052 5.67833 0
M  V30 1760 H 154.689 0.191664 0.64826 0
M  V30 1761 H 157.243 1.17409 1.68536 0
M  V30 1762 H 155.473 -0.160549 3.86367 0
M  V30 1763 H 157.162 0.212879 4.05341 0
M  V30 1764 H 157.928 2.69622 4.03149 0
M  V30 1765 H 153.807 1.51332 4.35453 0
M  V30 1766 H 157.351 4.91336 4.95211 0
M  V30 1767 H 153.248 3.72147 5.27424 0
M  V30 1768 H 154.016 5.71236 5.86201 0
M  V30 1769 N 156.679 -1.44442 0.630414 0
M  V30 1770 C 157.956 -1.9549 0.0655657 0
M  V30 1771 C 158.336 -1.5724 -1.40851 0
M  V30 1772 O 157.684 -0.846116 -2.12257 0
M  V30 1773 C 157.894 -3.47812 0.287691 0
M  V30 1774 C 159.242 -4.24216 0.180513 0
M  V30 1775 O 160.266 -3.55526 0.219019 0
M  V30 1776 O 159.125 -5.46434 0.0848493 0
M  V30 1777 H 156.219 -0.826688 -0.0227177 0
M  V30 1778 H 158.765 -1.54496 0.702068 0
M  V30 1779 H 157.537 -3.687 1.31056 0
M  V30 1780 H 157.16 -3.95751 -0.382984 0
M  V30 1781 N 158.157 -0.370918 -1.53173 0
M  V30 1782 C 159.404 0.217102 -2.01333 0
M  V30 1783 C 159.732 1.48338 -1.25802 0
M  V30 1784 O 158.987 1.92698 -0.34146 0
M  V30 1785 C 159.286 0.549696 -3.53147 0
M  V30 1786 C 158.952 -0.622872 -4.46577 0
M  V30 1787 C 157.614 -0.944595 -4.71838 0
M  V30 1788 C 159.966 -1.40819 -5.01816 0
M  V30 1789 C 157.294 -2.05351 -5.49589 0
M  V30 1790 C 159.646 -2.50757 -5.80778 0
M  V30 1791 C 158.31 -2.83458 -6.04324 0
M  V30 1792 H 157.58 0.0794431 -0.736729 0
M  V30 1793 H 160.227 -0.504481 -1.84736 0
M  V30 1794 H 158.532 1.35237 -3.6772 0
M  V30 1795 H 160.229 1.017 -3.87889 0
M  V30 1796 H 156.819 -0.36209 -4.27068 0
M  V30 1797 H 161.003 -1.17289 -4.82242 0
M  V30 1798 H 156.259 -2.3108 -5.6605 0
M  V30 1799 H 160.433 -3.12022 -6.22588 0
M  V30 1800 H 158.06 -3.69508 -6.64355 0
M  V30 1801 N 159.635 1.57281 -0.100228 0
M  V30 1802 C 160.882 1.94537 0.562268 0
M  V30 1803 C 161.21 0.982315 1.67871 0
M  V30 1804 O 160.465 0.00280936 1.957 0
M  V30 1805 C 160.764 3.38305 1.15259 0
M  V30 1806 C 160.43 4.50618 0.159409 0
M  V30 1807 C 159.092 4.81066 -0.113741 0
M  V30 1808 C 161.444 5.18615 -0.518461 0
M  V30 1809 C 158.772 5.76835 -1.07137 0
M  V30 1810 C 161.124 6.15412 -1.46459 0
M  V30 1811 C 159.788 6.44262 -1.74592 0
M  V30 1812 H 159.058 0.711863 0.205748 0
M  V30 1813 H 161.705 1.90679 -0.17715 0
M  V30 1814 H 160.01 3.38766 1.96836 0
M  V30 1815 H 161.707 3.64435 1.67297 0
M  V30 1816 H 158.297 4.2689 0.382491 0
M  V30 1817 H 162.481 4.95264 -0.320581 0
M  V30 1818 H 157.737 5.975 -1.29628 0
M  V30 1819 H 161.911 6.67194 -1.99564 0
M  V30 1820 H 159.538 7.1828 -2.48953 0
M  V30 1821 N 161.113 -0.173488 1.56642 0
M  V30 1822 C 162.06 -1.21482 1.96242 0
M  V30 1823 C 163.03 -1.44104 0.826027 0
M  V30 1824 O 164.215 -1.5688 1.08597 0
M  V30 1825 C 161.355 -2.54964 2.32567 0
M  V30 1826 C 160.468 -2.39739 3.59373 0
M  V30 1827 C 159.603 -3.66072 3.84921 0
M  V30 1828 C 158.642 -3.45771 5.05083 0
M  V30 1829 N 157.779 -4.64169 5.26775 0
M  V30 1830 H 162.619 -0.870123 2.85014 0
M  V30 1831 H 160.156 -0.418245 1.41029 0
M  V30 1832 H 162.114 -3.32758 2.5165 0
M  V30 1833 H 160.744 -2.87433 1.46908 0
M  V30 1834 H 159.796 -1.53131 3.48217 0
M  V30 1835 H 161.108 -2.20683 4.47326 0
M  V30 1836 H 160.262 -4.52303 4.0436 0
M  V30 1837 H 159.001 -3.88105 2.9534 0
M  V30 1838 H 158.006 -2.57927 4.85545 0
M  V30 1839 H 159.231 -3.25163 5.96193 0
M  V30 1840 H 157.177 -4.86425 4.40144 0
M  V30 1841 H 157.094 -4.48019 6.08946 0
M  V30 1842 H 158.362 -5.51689 5.5069 0
M  V30 1843 N 162.591 -1.51276 -0.441967 0
M  V30 1844 C 163.523 -1.68444 -1.55433 0
M  V30 1845 C 164.536 -0.565187 -1.52674 0
M  V30 1846 O 165.725 -0.839356 -1.57534 0
M  V30 1847 C 162.825 -1.67966 -2.94348 0
M  V30 1848 C 161.998 -2.964 -3.21661 0
M  V30 1849 C 161.057 -2.88171 -4.40277 0
M  V30 1850 O 160.083 -3.62119 -4.39157 0
M  V30 1851 N 161.285 -2.03706 -5.43584 0
M  V30 1852 H 164.05 -2.644 -1.41112 0
M  V30 1853 H 161.611 -1.49104 -0.630838 0
M  V30 1854 H 163.603 -1.60035 -3.71713 0
M  V30 1855 H 162.173 -0.796225 -3.0229 0
M  V30 1856 H 161.393 -3.18234 -2.32638 0
M  V30 1857 H 162.681 -3.81427 -3.36736 0
M  V30 1858 H 162.079 -1.42995 -5.47329 0
M  V30 1859 H 160.636 -2.01658 -6.1982 0
M  V30 1860 N 164.069 0.697108 -1.41344 0
M  V30 1861 C 164.999 1.82353 -1.45841 0
M  V30 1862 C 165.98 1.67115 -0.317247 0
M  V30 1863 O 167.165 1.86871 -0.528474 0
M  V30 1864 C 164.295 3.20476 -1.33838 0
M  V30 1865 C 163.249 3.50415 -2.4575 0
M  V30 1866 C 162.575 4.87878 -2.18813 0
M  V30 1867 C 163.875 3.49546 -3.88091 0
M  V30 1868 H 165.569 1.78846 -2.40113 0
M  V30 1869 H 163.115 0.859028 -1.15571 0
M  V30 1870 H 165.068 3.98988 -1.35596 0
M  V30 1871 H 163.792 3.24604 -0.360498 0
M  V30 1872 H 162.451 2.74253 -2.43271 0
M  V30 1873 H 162.099 4.8863 -1.19371 0
M  V30 1874 H 161.799 5.08875 -2.93803 0
M  V30 1875 H 163.323 5.68702 -2.22284 0
M  V30 1876 H 164.737 4.18066 -3.92293 0
M  V30 1877 H 163.134 3.82075 -4.62751 0
M  V30 1878 H 164.204 2.48552 -4.16353 0
M  V30 1879 N 165.547 1.27147 0.931209 0
M  V30 1880 C 166.494 1.09568 2.03134 0
M  V30 1881 C 167.464 -0.00222433 1.661 0
M  V30 1882 O 168.649 0.159439 1.90133 0
M  V30 1883 C 165.789 0.745231 3.36957 0
M  V30 1884 C 164.902 1.92041 3.86968 0
M  V30 1885 C 164.037 1.51216 5.09222 0
M  V30 1886 C 163.076 2.65504 5.5152 0
M  V30 1887 N 162.213 2.25291 6.64972 0
M  V30 1888 H 167.053 2.03708 2.17502 0
M  V30 1889 H 164.59 1.01411 1.06556 0
M  V30 1890 H 166.548 0.522878 4.1391 0
M  V30 1891 H 165.178 -0.159202 3.22407 0
M  V30 1892 H 164.23 2.25541 3.06326 0
M  V30 1893 H 165.542 2.77787 4.1429 0
M  V30 1894 H 164.696 1.25084 5.93666 0
M  V30 1895 H 163.435 0.625749 4.83669 0
M  V30 1896 H 162.44 2.92354 4.65628 0
M  V30 1897 H 163.665 3.54761 5.7907 0
M  V30 1898 H 161.611 1.39098 6.41083 0
M  V30 1899 H 161.528 3.04577 6.91931 0
M  V30 1900 H 162.796 2.02398 7.52765 0
M  V30 1901 N 167.025 -1.13721 1.09112 0
M  V30 1902 C 168.302 -1.81155 0.737706 0
M  V30 1903 C 168.682 -1.96253 -0.777683 0
M  V30 1904 O 168.03 -1.52807 -1.69889 0
M  V30 1905 C 168.24 -3.16392 1.47299 0
M  V30 1906 C 169.588 -3.91787 1.63671 0
M  V30 1907 O 170.612 -3.26005 1.43524 0
M  V30 1908 O 169.471 -5.0977 1.96969 0
M  V30 1909 H 166.565 -0.783518 0.26463 0
M  V30 1910 H 169.111 -1.20676 1.19312 0
M  V30 1911 H 167.883 -3.0061 2.50498 0
M  V30 1912 H 167.506 -3.8457 1.00953 0
M  V30 1913 N 168.503 -0.877838 -1.30888 0
M  V30 1914 C 169.75 -0.492696 -1.96415 0
M  V30 1915 C 170.078 0.956671 -1.69346 0
M  V30 1916 O 169.333 1.68993 -0.986913 0
M  V30 1917 C 169.632 -0.705748 -3.50363 0
M  V30 1918 C 169.298 -2.1291 -3.97467 0
M  V30 1919 C 167.96 -2.51834 -4.1004 0
M  V30 1920 C 170.312 -3.05702 -4.22132 0
M  V30 1921 C 167.64 -3.82775 -4.44635 0
M  V30 1922 C 169.992 -4.36166 -4.58194 0
M  V30 1923 C 168.656 -4.74993 -4.68975 0
M  V30 1924 H 167.926 -0.18029 -0.718733 0
M  V30 1925 H 170.573 -1.11233 -1.55883 0
M  V30 1926 H 168.878 -0.00303058 -3.918 0
M  V30 1927 H 170.575 -0.387456 -3.99124 0
M  V30 1928 H 167.165 -1.81694 -3.88182 0
M  V30 1929 H 171.349 -2.76853 -4.11906 0
M  V30 1930 H 166.605 -4.12609 -4.51181 0
M  V30 1931 H 170.779 -5.08111 -4.76231 0
M  V30 1932 H 168.406 -5.76495 -4.95537 0
M  V30 1933 N 169.982 1.44106 -0.638065 0
M  V30 1934 C 170.93 2.3248 0.0748149 0
M  V30 1935 C 171.924 1.47746 0.828702 0
M  V30 1936 O 173.13 1.64049 0.740816 0
M  V30 1937 H 169.505 0.750771 0.0429686 0
M  V30 1938 H 171.476 2.90348 -0.688504 0
M  V30 1939 C 170.225 3.31843 1.03805 0
M  V30 1940 H 169.548 3.97059 0.467375 0
M  V30 1941 H 170.988 3.96345 1.50622 0
M  V30 1942 C 169.447 2.61291 2.1267 0
M  V30 1943 O 169.977 2.41702 3.20847 0
M  V30 1944 N 168.183 2.20915 1.88798 0
M  V30 1945 H 167.73 2.37047 1.00829 0
M  V30 1946 H 167.688 1.74038 2.61836 0
M  V30 1947 N 171.46 0.379036 1.52974 0
M  V30 1948 C 172.423 -0.448865 2.24762 0
M  V30 1949 C 173.423 -0.998689 1.26027 0
M  V30 1950 O 174.613 -0.882313 1.50203 0
M  V30 1951 C 171.745 -1.62872 2.99476 0
M  V30 1952 H 172.938 0.179491 2.99362 0
M  V30 1953 H 170.491 0.13096 1.5575 0
M  V30 1954 H 171.226 -2.29479 2.29151 0
M  V30 1955 H 171.011 -1.24128 3.71934 0
M  V30 1956 H 172.501 -2.2151 3.5401 0
M  V30 1957 N 172.938 -1.57226 0.108567 0
M  V30 1958 C 174.168 -1.9889 -0.559142 0
M  V30 1959 C 174.576 -0.986889 -1.61422 0
M  V30 1960 O 173.919 0.0298705 -1.83676 0
M  V30 1961 C 173.981 -3.36952 -1.25315 0
M  V30 1962 C 173.645 -4.55679 -0.347248 0
M  V30 1963 C 174.642 -5.18281 0.409996 0
M  V30 1964 C 172.327 -5.0162 -0.261367 0
M  V30 1965 C 174.321 -6.25203 1.24096 0
M  V30 1966 C 172.008 -6.08405 0.573238 0
M  V30 1967 C 173.006 -6.70063 1.32304 0
M  V30 1968 O 172.694 -7.74788 2.14381 0
M  V30 1969 H 172.426 -0.658343 -0.153492 0
M  V30 1970 H 174.98 -2.04532 0.188584 0
M  V30 1971 H 173.21 -3.28032 -2.04773 0
M  V30 1972 H 174.899 -3.62974 -1.81673 0
M  V30 1973 H 175.665 -4.8371 0.353457 0
M  V30 1974 H 171.544 -4.53381 -0.834656 0
M  V30 1975 H 175.088 -6.73259 1.82669 0
M  V30 1976 H 170.985 -6.42406 0.631208 0
M  V30 1977 H 171.753 -7.91837 2.07209 0
M  V30 1978 N 174.416 0.165178 -1.56732 0
M  V30 1979 C 175.663 0.880807 -1.8234 0
M  V30 1980 C 175.991 1.81977 -0.686621 0
M  V30 1981 O 175.246 1.92971 0.325697 0
M  V30 1982 C 175.545 1.70405 -3.1416 0
M  V30 1983 C 175.211 0.913475 -4.4155 0
M  V30 1984 C 173.873 0.695303 -4.7615 0
M  V30 1985 C 176.225 0.359349 -5.1996 0
M  V30 1986 C 173.553 -0.0879947 -5.86634 0
M  V30 1987 C 175.905 -0.410893 -6.31264 0
M  V30 1988 C 174.569 -0.639808 -6.64427 0
M  V30 1989 H 173.839 0.32231 -0.667231 0
M  V30 1990 H 176.486 0.145402 -1.90947 0
M  V30 1991 H 174.791 2.50903 -3.00923 0
M  V30 1992 H 176.488 2.26091 -3.31186 0
M  V30 1993 H 173.078 1.09357 -4.14414 0
M  V30 1994 H 177.262 0.515228 -4.93618 0
M  V30 1995 H 172.518 -0.27503 -6.10781 0
M  V30 1996 H 176.692 -0.847494 -6.91224 0
M  V30 1997 H 174.319 -1.24864 -7.49875 0
M  V30 1998 N 175.894 1.51508 0.433938 0
M  V30 1999 C 176.841 1.73068 1.52696 0
M  V30 2000 C 177.811 0.572441 1.55924 0
M  V30 2001 O 178.996 0.807253 1.72882 0
M  V30 2002 C 176.136 1.86474 2.90381 0
M  V30 2003 C 175.249 3.14037 2.96656 0
M  V30 2004 C 174.384 3.18019 4.25485 0
M  V30 2005 C 173.423 4.39882 4.2564 0
M  V30 2006 N 172.56 4.41394 5.45999 0
M  V30 2007 H 177.4 2.66366 1.33615 0
M  V30 2008 H 174.937 1.32008 0.649018 0
M  V30 2009 H 176.895 1.92229 3.70275 0
M  V30 2010 H 175.525 0.965809 3.08013 0
M  V30 2011 H 174.577 3.17575 2.09404 0
M  V30 2012 H 175.889 4.0394 2.92633 0
M  V30 2013 H 175.043 3.22708 5.13755 0
M  V30 2014 H 173.782 2.2601 4.3217 0
M  V30 2015 H 172.787 4.35366 3.35763 0
M  V30 2016 H 174.012 5.33159 4.20617 0
M  V30 2017 H 171.958 3.52258 5.53399 0
M  V30 2018 H 171.875 5.25111 5.4387 0
M  V30 2019 H 173.143 4.50281 6.36292 0
M  V30 2020 N 177.372 -0.689602 1.41712 0
M  V30 2021 C 178.619 -1.44966 1.4139 0
M  V30 2022 C 178.947 -1.94484 0.025105 0
M  V30 2023 O 178.202 -1.70307 -0.964048 0
M  V30 2024 C 178.501 -2.67298 2.37247 0
M  V30 2025 C 178.167 -2.36405 3.83958 0
M  V30 2026 C 176.829 -2.27691 4.23923 0
M  V30 2027 C 179.181 -2.11043 4.76561 0
M  V30 2028 C 176.509 -1.91719 5.54492 0
M  V30 2029 C 178.861 -1.76578 6.07456 0
M  V30 2030 C 177.525 -1.66363 6.46436 0
M  V30 2031 H 176.795 -0.53047 0.517381 0
M  V30 2032 H 179.442 -0.787655 1.74552 0
M  V30 2033 H 177.747 -3.38461 1.9736 0
M  V30 2034 H 179.444 -3.25452 2.34269 0
M  V30 2035 H 176.034 -2.44085 3.52308 0
M  V30 2036 H 180.218 -2.16717 4.46483 0
M  V30 2037 H 175.474 -1.82367 5.83568 0
M  V30 2038 H 179.648 -1.55974 6.78708 0
M  V30 2039 H 177.275 -1.38258 7.47522 0
M  V30 2040 N 178.85 -1.27639 -0.924453 0
M  V30 2041 C 179.8 -1.07295 -2.01176 0
M  V30 2042 C 180.784 5.77352e-05 -1.609 0
M  V30 2043 O 181.976 -0.218855 -1.75642 0
M  V30 2044 C 179.105 -0.725592 -3.35544 0
M  V30 2045 C 178.191 -1.83691 -3.82254 0
M  V30 2046 N 178.582 -3.07697 -4.01443 0
M  V30 2047 C 176.88 -1.72433 -4.11319 0
M  V30 2048 C 177.581 -3.80037 -4.40394 0
M  V30 2049 N 176.557 -3.0782 -4.48049 0
M  V30 2050 H 180.359 -2.01399 -2.14046 0
M  V30 2051 H 177.873 -1.18401 -1.11153 0
M  V30 2052 H 179.87 -0.560959 -4.13109 0
M  V30 2053 H 178.53 0.207782 -3.24034 0
M  V30 2054 H 179.541 -3.43424 -3.8766 0
M  V30 2055 H 176.218 -0.862005 -4.08504 0
M  V30 2056 H 177.608 -4.86632 -4.63291 0
M  V30 2057 N 180.328 1.1314 -1.09713 0
M  V30 2058 C 181.238 2.22242 -0.751367 0
M  V30 2059 C 182.254 1.72224 0.247938 0
M  V30 2060 O 183.43 2.01205 0.0885463 0
M  V30 2061 C 180.495 3.46231 -0.180274 0
M  V30 2062 C 179.556 4.11125 -1.2359 0
M  V30 2063 C 178.789 5.29195 -0.691966 0
M  V30 2064 O 179.012 5.68342 0.48414 0
M  V30 2065 O 177.946 5.84214 -1.44838 0
M  V30 2066 H 181.772 2.54197 -1.66186 0
M  V30 2067 H 179.357 1.21331 -0.871735 0
M  V30 2068 H 181.239 4.21185 0.134739 0
M  V30 2069 H 179.914 3.1597 0.703185 0
M  V30 2070 H 178.821 3.37985 -1.60366 0
M  V30 2071 H 180.154 4.45524 -2.09211 0
M  V30 2072 N 181.806 0.884767 1.30421 0
M  V30 2073 C 183.055 0.499164 1.95426 0
M  V30 2074 C 183.368 -0.95645 1.70621 0
M  V30 2075 O 184.574 -1.44889 2.29607 0
M  V30 2076 C 183.03 0.84177 3.49917 0
M  V30 2077 C 182.638 2.31514 3.83543 0
M  V30 2078 C 184.382 0.525355 4.21237 0
M  V30 2079 C 182.289 2.59939 5.31212 0
M  V30 2080 H 181.219 0.182944 0.73147 0
M  V30 2081 H 183.87 1.07971 1.48373 0
M  V30 2082 H 182.252 0.190311 3.95542 0
M  V30 2083 H 183.426 3.0109 3.48829 0
M  V30 2084 H 181.741 2.59907 3.25326 0
M  V30 2085 H 184.338 0.714762 5.29901 0
M  V30 2086 H 184.681 -0.535222 4.12845 0
M  V30 2087 H 185.214 1.134 3.81294 0
M  V30 2088 H 181.953 3.64736 5.44654 0
M  V30 2089 H 181.473 1.94972 5.67227 0
M  V30 2090 H 183.152 2.45429 5.98643 0
M  V30 2091 N 183.284 -1.43765 0.645699 0
M  V30 2092 C 184.514 -2.05953 0.163318 0
M  V30 2093 C 184.922 -1.48432 -1.17322 0
M  V30 2094 O 184.265 -0.607295 -1.73371 0
M  V30 2095 C 184.327 -3.59499 -0.0103065 0
M  V30 2096 C 183.991 -4.39563 1.25035 0
M  V30 2097 C 184.988 -4.72108 2.17739 0
M  V30 2098 C 182.673 -4.79697 1.48983 0
M  V30 2099 C 184.667 -5.43688 3.3269 0
M  V30 2100 C 182.354 -5.51023 2.64229 0
M  V30 2101 C 183.352 -5.8294 3.55908 0
M  V30 2102 O 183.04 -6.5281 4.69142 0
M  V30 2103 H 182.772 -0.670798 0.0836986 0
M  V30 2104 H 185.326 -1.85384 0.884407 0
M  V30 2105 H 183.556 -3.78613 -0.78669 0
M  V30 2106 H 185.245 -4.03408 -0.449087 0
M  V30 2107 H 186.011 -4.41627 2.00476 0
M  V30 2108 H 181.89 -4.54266 0.785078 0
M  V30 2109 H 185.434 -5.68517 4.04269 0
M  V30 2110 H 181.331 -5.8092 2.81429 0
M  V30 2111 H 182.099 -6.71288 4.6831 0
M  V30 2112 N 184.763 -0.387143 -1.52771 0
M  V30 2113 C 186.01 0.195735 -2.01552 0
M  V30 2114 C 186.338 1.46995 -1.27369 0
M  V30 2115 O 185.593 1.92325 -0.361879 0
M  V30 2116 C 185.892 0.512209 -3.53711 0
M  V30 2117 C 185.558 -0.670202 -4.45891 0
M  V30 2118 C 184.22 -0.994586 -4.70809 0
M  V30 2119 C 186.572 -1.46134 -5.00294 0
M  V30 2120 C 183.9 -2.11169 -5.4738 0
M  V30 2121 C 186.252 -2.56903 -5.78086 0
M  V30 2122 C 184.916 -2.89852 -6.01284 0
M  V30 2123 H 184.186 0.0716246 -0.73753 0
M  V30 2124 H 186.833 -0.524046 -1.8419 0
M  V30 2125 H 185.138 1.31329 -3.69134 0
M  V30 2126 H 186.835 0.975804 -3.88946 0
M  V30 2127 H 183.425 -0.407366 -4.2666 0
M  V30 2128 H 187.609 -1.22397 -4.80971 0
M  V30 2129 H 182.865 -2.3707 -5.63567 0
M  V30 2130 H 187.039 -3.18608 -6.19243 0
M  V30 2131 H 184.666 -3.76533 -6.60399 0
M  V30 2132 N 186.241 1.57166 -0.116904 0
M  V30 2133 C 187.189 2.16457 0.851418 0
M  V30 2134 C 188.183 1.11323 1.27686 0
M  V30 2135 O 189.389 1.2963 1.24884 0
M  V30 2136 H 185.764 0.69271 0.292672 0
M  V30 2137 H 187.735 2.96605 0.32685 0
M  V30 2138 C 186.484 2.77689 2.09246 0
M  V30 2139 H 185.807 3.58285 1.77402 0
M  V30 2140 H 187.247 3.22716 2.7501 0
M  V30 2141 C 185.706 1.74667 2.88085 0
M  V30 2142 O 186.236 1.19877 3.83396 0
M  V30 2143 N 184.442 1.44656 2.52038 0
M  V30 2144 H 183.989 1.89402 1.74599 0
M  V30 2145 H 183.947 0.759675 3.05084 0
M  V30 2146 N 187.719 -0.156864 1.56817 0
M  V30 2147 C 188.651 -1.21883 1.94106 0
M  V30 2148 C 189.664 -1.3971 0.835754 0
M  V30 2149 O 190.853 -1.39457 1.11418 0
M  V30 2150 C 187.953 -2.58527 2.19127 0
M  V30 2151 C 187.126 -2.61809 3.50393 0
M  V30 2152 C 186.185 -3.7992 3.64071 0
M  V30 2153 O 185.211 -3.65249 4.36557 0
M  V30 2154 N 186.413 -4.96973 2.99997 0
M  V30 2155 H 189.178 -0.901974 2.85805 0
M  V30 2156 H 186.739 -0.346513 1.58148 0
M  V30 2157 H 188.731 -3.36034 2.25529 0
M  V30 2158 H 187.301 -2.82545 1.33742 0
M  V30 2159 H 186.521 -1.7029 3.5552 0
M  V30 2160 H 187.809 -2.61024 4.36742 0
M  V30 2161 H 187.207 -5.11794 2.41004 0
M  V30 2162 H 185.764 -5.7229 3.11974 0
M  V30 2163 N 189.197 -1.51736 -0.425897 0
M  V30 2164 C 190.613 -1.40166 -0.76326 0
M  V30 2165 C 190.813 -0.492962 -1.95377 0
M  V30 2166 O 189.869 0.0475815 -2.52455 0
M  V30 2167 C 191.182 -2.82403 -1.03291 0
M  V30 2168 C 192.73 -2.91632 -1.13665 0
M  V30 2169 C 193.205 -4.34801 -1.43916 0
M  V30 2170 N 194.696 -4.3796 -1.50816 0
M  V30 2171 C 195.431 -5.4578 -1.75817 0
M  V30 2172 N 194.927 -6.63744 -1.98534 0
M  V30 2173 N 196.72 -5.33274 -1.77694 0
M  V30 2174 H 188.871 -2.09361 0.358 0
M  V30 2175 H 191.134 -0.942941 0.0978094 0
M  V30 2176 H 190.84 -3.50943 -0.230696 0
M  V30 2177 H 190.714 -3.22428 -1.95754 0
M  V30 2178 H 193.101 -2.23284 -1.92947 0
M  V30 2179 H 193.182 -2.55088 -0.190756 0
M  V30 2180 H 192.826 -5.03703 -0.65157 0
M  V30 2181 H 192.756 -4.68868 -2.39729 0
M  V30 2182 H 195.247 -3.52919 -1.35118 0
M  V30 2183 H 195.56 -7.41704 -2.17013 0
M  V30 2184 H 193.905 -6.66839 -1.95832 0
M  V30 2185 H 197.096 -4.40098 -1.59473 0
M  V30 2186 H 197.269 -6.1738 -1.9684 0
M  V30 2187 N 190.675 0.682077 -1.42076 0
M  V30 2188 C 191.924 1.43786 -1.41451 0
M  V30 2189 C 192.237 1.95574 -0.0317074 0
M  V30 2190 O 193.443 2.71326 0.0971462 0
M  V30 2191 C 191.899 2.60071 -2.48779 0
M  V30 2192 C 191.507 2.15013 -3.93031 0
M  V30 2193 C 193.251 3.37626 -2.57311 0
M  V30 2194 C 191.158 3.28336 -4.91883 0
M  V30 2195 H 190.088 0.540143 -0.526082 0
M  V30 2196 H 192.739 0.739157 -1.67955 0
M  V30 2197 H 191.121 3.32275 -2.15429 0
M  V30 2198 H 192.295 1.5001 -4.35699 0
M  V30 2199 H 190.61 1.50416 -3.88284 0
M  V30 2200 H 193.207 4.22012 -3.28345 0
M  V30 2201 H 193.55 3.83727 -1.61429 0
M  V30 2202 H 194.083 2.72488 -2.89819 0
M  V30 2203 H 190.822 2.87234 -5.89217 0
M  V30 2204 H 190.342 3.92145 -4.53853 0
M  V30 2205 H 192.021 3.93913 -5.13265 0
M  V30 2206 N 192.153 1.28127 0.917671 0
M  V30 2207 C 193.381 1.17892 1.70026 0
M  V30 2208 C 193.796 -0.262958 1.8696 0
M  V30 2209 O 193.153 -1.17811 1.3938 0
M  V30 2210 C 193.204 1.86872 3.09453 0
M  V30 2211 O 192.925 3.25428 2.93306 0
M  V30 2212 C 194.426 1.8289 4.03815 0
M  V30 2213 H 191.646 0.40942 0.531617 0
M  V30 2214 H 194.19 1.69181 1.14883 0
M  V30 2215 H 192.345 1.39464 3.61426 0
M  V30 2216 H 192.759 3.59918 3.81523 0
M  V30 2217 H 194.233 2.35751 4.99125 0
M  V30 2218 H 194.71 0.800412 4.31845 0
M  V30 2219 H 195.316 2.29959 3.57769 0
M  V30 2220 N 193.631 -1.12557 1.10312 0
M  V30 2221 C 194.856 -1.88405 0.867085 0
M  V30 2222 C 195.281 -1.79038 -0.576817 0
M  V30 2223 O 194.639 -1.14439 -1.40618 0
M  V30 2224 C 194.687 -3.3563 1.31851 0
M  V30 2225 O 193.791 -4.09565 0.482734 0
M  V30 2226 H 193.132 -0.585455 0.313271 0
M  V30 2227 H 195.662 -1.42352 1.4696 0
M  V30 2228 H 195.672 -3.86469 1.3079 0
M  V30 2229 H 194.347 -3.41765 2.37001 0
M  V30 2230 H 192.924 -3.68695 0.558448 0
M  V30 2231 N 195.109 -0.891671 -1.2995 0
M  V30 2232 C 196.357 -0.512486 -1.95494 0
M  V30 2233 C 196.678 0.942776 -1.70695 0
M  V30 2234 O 195.948 1.66374 -1.03424 0
M  V30 2235 H 194.528 -0.186533 -0.723336 0
M  V30 2236 H 197.19 -1.13621 -1.58355 0
M  V30 2237 H 196.286 -0.688342 -3.04415 0
M  V30 2238 N 196.587 1.43421 -0.653314 0
M  V30 2239 C 197.833 2.02111 -0.166992 0
M  V30 2240 C 198.166 1.51423 1.21592 0
M  V30 2241 O 197.441 0.707389 1.8118 0
M  V30 2242 C 197.724 3.5966 -0.177948 0
M  V30 2243 C 197.577 4.20579 -1.59478 0
M  V30 2244 C 198.896 4.37413 0.4856 0
M  V30 2245 H 196.015 0.734374 -0.0621557 0
M  V30 2246 H 198.657 1.70717 -0.834016 0
M  V30 2247 H 196.807 3.86537 0.390032 0
M  V30 2248 H 198.479 4.04732 -2.21336 0
M  V30 2249 H 196.722 3.77226 -2.14204 0
M  V30 2250 H 197.393 5.29665 -1.5543 0
M  V30 2251 H 199.869 4.161 0.00234528 0
M  V30 2252 H 198.745 5.47075 0.447207 0
M  V30 2253 H 199.006 4.13672 1.55974 0
M  V30 2254 N 198.065 0.39524 1.52563 0
M  V30 2255 C 199.295 -0.184675 2.05773 0
M  V30 2256 C 199.703 -1.40571 1.26635 0
M  V30 2257 O 199.046 -1.81105 0.30769 0
M  V30 2258 C 199.108 -0.613551 3.54226 0
M  V30 2259 C 198.772 0.49484 4.54313 0
M  V30 2260 C 199.769 1.3541 5.01956 0
M  V30 2261 C 197.454 0.663565 4.97898 0
M  V30 2262 C 199.448 2.36716 5.91814 0
M  V30 2263 C 197.135 1.67996 5.87555 0
M  V30 2264 C 198.133 2.53017 6.34406 0
M  V30 2265 O 197.821 3.52917 7.22291 0
M  V30 2266 H 197.553 -0.030077 0.675331 0
M  V30 2267 H 200.107 0.560708 1.97599 0
M  V30 2268 H 198.337 -1.411 3.60038 0
M  V30 2269 H 200.026 -1.11981 3.90148 0
M  V30 2270 H 200.792 1.23509 4.6901 0
M  V30 2271 H 196.671 0.0114913 4.60999 0
M  V30 2272 H 200.215 3.03113 6.28306 0
M  V30 2273 H 196.112 1.79933 6.19915 0
M  V30 2274 H 196.88 3.48996 7.40367 0
M  V30 2275 N 199.544 -1.57102 0.125237 0
M  V30 2276 C 200.477 -2.11371 -0.860094 0
M  V30 2277 C 201.455 -1.03168 -1.25679 0
M  V30 2278 O 202.639 -1.30862 -1.35674 0
M  V30 2279 C 199.766 -2.61555 -2.1519 0
M  V30 2280 C 198.812 -3.81701 -1.9028 0
M  V30 2281 S 199.645 -5.23797 -1.11343 0
M  V30 2282 C 200.801 -5.77353 -2.41689 0
M  V30 2283 H 201.034 -2.94617 -0.39852 0
M  V30 2284 H 198.567 -1.54145 -0.0886555 0
M  V30 2285 H 200.525 -2.91122 -2.89411 0
M  V30 2286 H 199.186 -1.78479 -2.58465 0
M  V30 2287 H 198.379 -4.14985 -2.86014 0
M  V30 2288 H 197.981 -3.52783 -1.24178 0
M  V30 2289 H 200.273 -5.87458 -3.37489 0
M  V30 2290 H 201.216 -6.75323 -2.12942 0
M  V30 2291 H 201.624 -5.05457 -2.51342 0
M  V30 2292 N 201.022 0.148545 -1.56898 0
M  V30 2293 C 202.262 0.86765 -1.85071 0
M  V30 2294 C 202.626 1.78417 -0.709317 0
M  V30 2295 O 203.827 2.54261 -0.872049 0
M  V30 2296 C 202.098 1.62306 -3.1842 0
M  V30 2297 S 203.657 2.3878 -3.68143 0
M  V30 2298 H 200.475 0.290174 -0.649092 0
M  V30 2299 H 203.077 0.127755 -1.95082 0
M  V30 2300 H 201.781 0.941192 -3.99462 0
M  V30 2301 H 201.312 2.4039 -3.1141 0
M  V30 2302 H 203.327 3.63942 -3.37285 0
M  V30 2303 N 202.5 1.5196 0.417844 0
M  V30 2304 C 203.463 1.74065 1.49111 0
M  V30 2305 C 204.463 0.610537 1.48758 0
M  V30 2306 O 205.653 0.87832 1.50437 0
M  V30 2307 C 202.785 1.81502 2.88565 0
M  V30 2308 H 203.978 2.69869 1.30807 0
M  V30 2309 H 201.531 1.42244 0.647785 0
M  V30 2310 H 202.266 0.875813 3.1225 0
M  V30 2311 H 202.051 2.63651 2.90225 0
M  V30 2312 H 203.541 2.00376 3.66387 0
M  V30 2313 N 203.978 -0.674533 1.42435 0
M  V30 2314 C 205.224 -1.43671 1.43131 0
M  V30 2315 C 205.557 -1.94142 0.0476021 0
M  V30 2316 O 204.832 -1.70924 -0.928188 0
M  V30 2317 C 205.115 -2.63355 2.45594 0
M  V30 2318 C 204.968 -2.18514 3.93156 0
M  V30 2319 C 206.287 -3.65571 2.45043 0
M  V30 2320 H 203.406 -0.521077 0.521198 0
M  V30 2321 H 206.048 -0.766551 1.7385 0
M  V30 2322 H 204.198 -3.2053 2.19528 0
M  V30 2323 H 205.87 -1.66504 4.30202 0
M  V30 2324 H 204.113 -1.50086 4.07009 0
M  V30 2325 H 204.784 -3.04484 4.60428 0
M  V30 2326 H 207.26 -3.18113 2.68223 0
M  V30 2327 H 206.136 -4.46893 3.18713 0
M  V30 2328 H 206.397 -4.16716 1.47649 0
M  V30 2329 N 205.456 -1.28612 -0.910864 0
M  V30 2330 C 206.419 -1.12803 -1.9952 0
M  V30 2331 C 207.419 -0.0668264 -1.60661 0
M  V30 2332 O 208.609 -0.312847 -1.71368 0
M  V30 2333 C 205.741 -0.72254 -3.33155 0
M  V30 2334 H 206.934 -2.09109 -2.14973 0
M  V30 2335 H 204.487 -1.11639 -1.09391 0
M  V30 2336 H 205.222 0.241152 -3.23402 0
M  V30 2337 H 205.007 -1.48916 -3.62721 0
M  V30 2338 H 206.497 -0.634666 -4.12749 0
M  V30 2339 N 206.934 1.1197 -1.10907 0
M  V30 2340 C 208.183 1.82947 -0.849302 0
M  V30 2341 C 208.496 1.85275 0.627112 0
M  V30 2342 O 209.702 2.52296 1.00295 0
M  V30 2343 C 208.158 3.28529 -1.46959 0
M  V30 2344 C 207.766 3.34546 -2.97965 0
M  V30 2345 C 209.51 4.04443 -1.28942 0
M  V30 2346 C 207.417 4.74491 -3.53004 0
M  V30 2347 H 206.347 0.685477 -0.314065 0
M  V30 2348 H 208.998 1.2604 -1.33365 0
M  V30 2349 H 207.38 3.85333 -0.912917 0
M  V30 2350 H 208.554 2.87654 -3.59989 0
M  V30 2351 H 206.869 2.72108 -3.15192 0
M  V30 2352 H 209.466 5.07787 -1.67502 0
M  V30 2353 H 209.809 4.15656 -0.231456 0
M  V30 2354 H 210.342 3.5401 -1.81443 0
M  V30 2355 H 207.081 4.68474 -4.58489 0
M  V30 2356 H 206.601 5.21816 -2.9575 0
M  V30 2357 H 208.28 5.4344 -3.51115 0
M  V30 2358 N 208.412 0.89855 1.29475 0
M  V30 2359 C 209.375 0.380272 2.26023 0
M  V30 2360 C 210.375 -0.484891 1.53315 0
M  V30 2361 O 211.565 -0.290108 1.71767 0
M  V30 2362 C 208.697 -0.45651 3.3783 0
M  V30 2363 H 209.89 1.23295 2.73383 0
M  V30 2364 H 207.443 0.676589 1.40897 0
M  V30 2365 H 208.178 -1.32922 2.95808 0
M  V30 2366 H 207.963 0.163393 3.91759 0
M  V30 2367 H 209.453 -0.810466 4.0966 0
M  V30 2368 N 209.89 -1.43072 0.660911 0
M  V30 2369 C 210.82 -2.33497 -0.0122829 0
M  V30 2370 C 211.801 -1.49903 -0.803925 0
M  V30 2371 O 212.986 -1.78546 -0.763864 0
M  V30 2372 C 210.116 -3.33363 -0.973994 0
M  V30 2373 C 209.07 -4.27003 -0.291928 0
M  V30 2374 C 208.396 -5.16967 -1.36562 0
M  V30 2375 C 209.696 -5.15816 0.820462 0
M  V30 2376 H 211.39 -2.90038 0.742873 0
M  V30 2377 H 208.936 -1.39461 0.358688 0
M  V30 2378 H 210.889 -3.95524 -1.45392 0
M  V30 2379 H 209.613 -2.75095 -1.7604 0
M  V30 2380 H 208.272 -3.66217 0.167623 0
M  V30 2381 H 207.92 -4.55034 -2.14366 0
M  V30 2382 H 207.62 -5.80441 -0.914454 0
M  V30 2383 H 209.144 -5.82003 -1.84675 0
M  V30 2384 H 210.558 -5.71742 0.422366 0
M  V30 2385 H 208.955 -5.8805 1.19656 0
M  V30 2386 H 210.025 -4.55045 1.67518 0
M  V30 2387 N 211.368 -0.403325 -1.52352 0
M  V30 2388 C 212.616 0.174003 -2.0135 0
M  V30 2389 C 212.937 1.46139 -1.29106 0
M  V30 2390 O 212.207 1.91448 -0.415253 0
M  V30 2391 H 210.787 0.0672911 -0.743963 0
M  V30 2392 H 213.449 -0.538235 -1.87321 0
M  V30 2393 H 212.545 0.374254 -3.09848 0
M  V30 2394 N 212.846 1.57033 -0.133567 0
M  V30 2395 C 214.076 1.99754 0.527429 0
M  V30 2396 C 214.484 1.01245 1.59832 0
M  V30 2397 O 213.827 -0.000645496 1.837 0
M  V30 2398 C 213.889 3.38903 1.19939 0
M  V30 2399 C 213.553 4.56174 0.274709 0
M  V30 2400 C 214.55 5.17563 -0.492398 0
M  V30 2401 C 212.235 5.01972 0.18153 0
M  V30 2402 C 214.229 6.2315 -1.34027 0
M  V30 2403 C 211.916 6.07416 -0.669958 0
M  V30 2404 C 212.914 6.67874 -1.42947 0
M  V30 2405 O 212.602 7.71279 -2.2668 0
M  V30 2406 H 212.334 0.660702 0.142999 0
M  V30 2407 H 214.888 2.04207 -0.221099 0
M  V30 2408 H 213.118 3.31248 1.99528 0
M  V30 2409 H 214.807 3.65818 1.75875 0
M  V30 2410 H 215.573 4.83087 -0.430367 0
M  V30 2411 H 211.452 4.54652 0.762422 0
M  V30 2412 H 214.996 6.70268 -1.93357 0
M  V30 2413 H 210.893 6.41321 -0.73333 0
M  V30 2414 H 211.661 7.88441 -2.1978 0
M  V30 2415 N 214.325 -0.140222 1.56975 0
M  V30 2416 C 215.272 -1.17292 1.98774 0
M  V30 2417 C 216.242 -1.4232 0.856408 0
M  V30 2418 O 217.427 -1.54541 1.119 0
M  V30 2419 C 214.567 -2.49973 2.37923 0
M  V30 2420 C 213.68 -2.32062 3.64378 0
M  V30 2421 C 212.815 -3.57825 3.926 0
M  V30 2422 C 211.854 -3.3498 5.12303 0
M  V30 2423 N 210.991 -4.52891 5.36502 0
M  V30 2424 H 215.831 -0.809472 2.86795 0
M  V30 2425 H 213.368 -0.388237 1.41884 0
M  V30 2426 H 215.326 -3.27346 2.58652 0
M  V30 2427 H 213.956 -2.84252 1.52972 0
M  V30 2428 H 213.008 -1.45711 3.51387 0
M  V30 2429 H 214.32 -2.11145 4.51906 0
M  V30 2430 H 213.474 -4.43624 4.13863 0
M  V30 2431 H 212.213 -3.81753 3.03506 0
M  V30 2432 H 211.218 -2.4757 4.90906 0
M  V30 2433 H 212.443 -3.12444 6.02956 0
M  V30 2434 H 210.389 -4.76979 4.50363 0
M  V30 2435 H 210.306 -4.35001 6.18312 0
M  V30 2436 H 211.574 -5.39884 5.62268 0
M  V30 2437 N 215.803 -1.52179 -0.40978 0
M  V30 2438 C 216.713 -1.78364 -1.52392 0
M  V30 2439 C 217.729 -0.669183 -1.60617 0
M  V30 2440 O 218.905 -0.954518 -1.77344 0
M  V30 2441 C 215.97 -1.92822 -2.88133 0
M  V30 2442 C 215.031 -3.16725 -2.898 0
M  V30 2443 C 214.264 -3.30483 -4.19067 0
M  V30 2444 O 214.487 -2.49522 -5.12928 0
M  V30 2445 O 213.421 -4.2363 -4.27576 0
M  V30 2446 H 217.247 -2.72931 -1.33201 0
M  V30 2447 H 214.832 -1.37016 -0.59557 0
M  V30 2448 H 216.714 -2.04157 -3.68643 0
M  V30 2449 H 215.389 -1.01444 -3.07393 0
M  V30 2450 H 214.296 -3.10848 -2.08146 0
M  V30 2451 H 215.629 -4.07881 -2.75489 0
M  V30 2452 N 217.281 0.66697 -1.42791 0
M  V30 2453 C 218.53 1.42278 -1.42968 0
M  V30 2454 C 218.843 1.9553 -0.0524489 0
M  V30 2455 O 220.049 2.71414 0.068363 0
M  V30 2456 C 218.505 2.57418 -2.51524 0
M  V30 2457 C 218.113 2.10832 -3.9529 0
M  V30 2458 C 219.857 3.34878 -2.60877 0
M  V30 2459 C 217.764 3.23101 -4.95338 0
M  V30 2460 H 216.694 0.534533 -0.531781 0
M  V30 2461 H 219.345 0.721302 -1.68729 0
M  V30 2462 H 217.727 3.29971 -2.18941 0
M  V30 2463 H 218.901 1.4538 -4.37266 0
M  V30 2464 H 217.216 1.46289 -3.89857 0
M  V30 2465 H 219.813 4.18505 -3.32802 0
M  V30 2466 H 220.156 3.81993 -1.6549 0
M  V30 2467 H 220.689 2.69398 -2.92693 0
M  V30 2468 H 217.428 2.80969 -5.9223 0
M  V30 2469 H 216.948 3.87309 -4.57987 0
M  V30 2470 H 218.627 3.88447 -5.17415 0
M  V30 2471 N 218.759 1.29093 0.90403 0
M  V30 2472 C 219.989 1.19516 1.68522 0
M  V30 2473 C 220.397 -0.24738 1.87576 0
M  V30 2474 O 219.74 -1.17798 1.40959 0
M  V30 2475 C 219.802 1.83249 3.0929 0
M  V30 2476 C 219.466 3.32531 3.13484 0
M  V30 2477 C 220.463 4.28821 2.93953 0
M  V30 2478 C 218.148 3.73656 3.35688 0
M  V30 2479 C 220.142 5.64212 2.96553 0
M  V30 2480 C 217.829 5.0917 3.37919 0
M  V30 2481 C 218.827 6.04258 3.18373 0
M  V30 2482 O 218.515 7.37298 3.20385 0
M  V30 2483 H 218.247 0.415467 0.533257 0
M  V30 2484 H 220.801 1.70912 1.13922 0
M  V30 2485 H 219.031 1.26358 3.65473 0
M  V30 2486 H 220.72 1.68054 3.69476 0
M  V30 2487 H 221.486 3.98382 2.76616 0
M  V30 2488 H 217.365 3.00101 3.49943 0
M  V30 2489 H 220.909 6.38407 2.81216 0
M  V30 2490 H 216.806 5.39256 3.54787 0
M  V30 2491 H 217.574 7.46048 3.36681 0
M  V30 2492 N 220.237 -1.11381 1.11499 0
M  V30 2493 C 221.167 -2.19509 0.796125 0
M  V30 2494 C 222.148 -1.68458 -0.235796 0
M  V30 2495 O 223.333 -1.93947 -0.0991344 0
M  V30 2496 C 220.463 -3.46475 0.239205 0
M  V30 2497 C 219.417 -4.10744 1.20307 0
M  V30 2498 C 218.743 -5.32293 0.50683 0
M  V30 2499 C 220.043 -4.55597 2.55399 0
M  V30 2500 H 221.737 -2.46439 1.70024 0
M  V30 2501 H 219.283 -1.18446 0.818935 0
M  V30 2502 H 221.236 -4.214 0.00392006 0
M  V30 2503 H 219.96 -3.19006 -0.700206 0
M  V30 2504 H 218.619 -3.37813 1.42399 0
M  V30 2505 H 218.267 -5.01095 -0.437408 0
M  V30 2506 H 217.967 -5.76243 1.1497 0
M  V30 2507 H 219.491 -6.09956 0.280351 0
M  V30 2508 H 220.905 -5.21841 2.37391 0
M  V30 2509 H 219.302 -5.10363 3.15673 0
M  V30 2510 H 220.372 -3.69013 3.14575 0
M  V30 2511 N 221.715 -0.905404 -1.28997 0
M  V30 2512 C 222.94 -0.549175 -1.99997 0
M  V30 2513 C 223.365 0.860276 -1.67275 0
M  V30 2514 O 222.723 1.57355 -0.900502 0
M  V30 2515 C 222.771 -0.755185 -3.52604 0
M  V30 2516 O 221.875 0.189692 -4.11964 0
M  V30 2517 H 221.216 -0.213899 -0.628604 0
M  V30 2518 H 223.746 -1.21856 -1.64354 0
M  V30 2519 H 223.756 -0.662045 -4.02593 0
M  V30 2520 H 222.431 -1.78271 -3.75755 0
M  V30 2521 H 221.008 0.0485257 -3.72868 0
M  V30 2522 N 223.193 1.4272 -0.668489 0
M  V30 2523 C 224.441 2.01226 -0.187769 0
M  V30 2524 C 224.762 1.53092 1.2078 0
M  V30 2525 O 224.032 0.74993 1.80977 0
M  V30 2526 H 222.612 0.744041 -0.0664272 0
M  V30 2527 H 225.274 1.74723 -0.863583 0
M  V30 2528 H 224.37 3.11556 -0.184166 0
M  V30 2529 N 224.671 0.411399 1.52136 0
M  V30 2530 C 225.92 -0.165009 2.01024 0
M  V30 2531 C 226.233 -1.4603 1.30133 0
M  V30 2532 O 227.439 -2.1181 1.69849 0
M  V30 2533 C 225.895 -0.344618 3.58246 0
M  V30 2534 C 225.503 0.938716 4.38055 0
M  V30 2535 C 227.247 -0.876195 4.15359 0
M  V30 2536 C 225.154 0.726172 5.86925 0
M  V30 2537 H 224.084 -0.0654407 0.751155 0
M  V30 2538 H 226.735 0.537192 1.75461 0
M  V30 2539 H 225.117 -1.10921 3.80148 0
M  V30 2540 H 226.291 1.70963 4.27912 0
M  V30 2541 H 224.606 1.39688 3.92271 0
M  V30 2542 H 227.203 -1.05128 5.24263 0
M  V30 2543 H 227.546 -1.85152 3.7286 0
M  V30 2544 H 228.079 -0.170607 3.97434 0
M  V30 2545 H 224.818 1.67312 6.33788 0
M  V30 2546 H 224.338 -0.00540283 5.998 0
M  V30 2547 H 226.017 0.369231 6.45946 0
M  V30 2548 N 226.149 -1.5696 0.141893 0
M  V30 2549 C 227.426 -1.87553 -0.555281 0
M  V30 2550 C 227.806 -1.04699 -1.83306 0
M  V30 2551 O 227.154 -0.132346 -2.28116 0
M  V30 2552 C 227.364 -3.39093 -0.825664 0
M  V30 2553 C 228.712 -4.08199 -1.16869 0
M  V30 2554 O 229.736 -3.44242 -0.915185 0
M  V30 2555 O 228.595 -5.21139 -1.6455 0
M  V30 2556 H 225.689 -0.777188 -0.282679 0
M  V30 2557 H 228.235 -1.68763 0.17812 0
M  V30 2558 H 227.007 -3.91221 0.0788633 0
M  V30 2559 H 226.63 -3.63393 -1.61343 0
M  V30 2560 N 227.627 0.131896 -1.57047 0
M  V30 2561 C 228.874 0.841932 -1.84168 0
M  V30 2562 C 229.202 1.8048 -0.725066 0
M  V30 2563 O 228.457 1.93618 0.284692 0
M  V30 2564 C 228.756 1.63703 -3.17704 0
M  V30 2565 C 228.422 0.81961 -4.43388 0
M  V30 2566 C 227.084 0.594148 -4.77518 0
M  V30 2567 C 229.436 0.248977 -5.20605 0
M  V30 2568 C 226.764 -0.212409 -5.86315 0
M  V30 2569 C 229.116 -0.544701 -6.30251 0
M  V30 2570 C 227.78 -0.780599 -6.6292 0
M  V30 2571 H 227.05 0.308085 -0.673917 0
M  V30 2572 H 229.697 0.104867 -1.91213 0
M  V30 2573 H 228.002 2.44464 -3.06177 0
M  V30 2574 H 229.699 2.19015 -3.35907 0
M  V30 2575 H 226.289 1.00542 -4.16641 0
M  V30 2576 H 230.473 0.410408 -4.946 0
M  V30 2577 H 225.729 -0.404524 -6.1006 0
M  V30 2578 H 229.903 -0.993922 -6.89271 0
M  V30 2579 H 227.53 -1.40742 -7.47058 0
M  V30 2580 N 229.106 1.52395 0.401703 0
M  V30 2581 C 230.336 1.70429 1.1678 0
M  V30 2582 C 230.744 0.416702 1.84554 0
M  V30 2583 O 230.087 -0.617697 1.73003 0
M  V30 2584 C 230.149 2.78919 2.26814 0
M  V30 2585 C 229.813 4.20437 1.79113 0
M  V30 2586 C 230.81 5.04028 1.27482 0
M  V30 2587 C 228.495 4.66704 1.85722 0
M  V30 2588 C 230.489 6.31961 0.830913 0
M  V30 2589 C 228.176 5.94625 1.40942 0
M  V30 2590 C 229.174 6.77082 0.897128 0
M  V30 2591 O 228.862 8.02607 0.455822 0
M  V30 2592 H 228.594 0.574272 0.356634 0
M  V30 2593 H 231.148 1.99767 0.477724 0
M  V30 2594 H 229.378 2.44973 2.99207 0
M  V30 2595 H 231.067 2.8548 2.88541 0
M  V30 2596 H 231.833 4.69471 1.21744 0
M  V30 2597 H 227.712 4.0262 2.24539 0
M  V30 2598 H 231.256 6.96271 0.430368 0
M  V30 2599 H 227.153 6.28688 1.46362 0
M  V30 2600 H 227.921 8.16453 0.578457 0
M  V30 2601 N 230.584 -0.659388 1.43143 0
M  V30 2602 C 231.516 -1.7849 1.43784 0
M  V30 2603 C 232.529 -1.5932 0.334787 0
M  V30 2604 O 233.718 -1.68155 0.598842 0
M  V30 2605 C 230.818 -3.15828 1.22906 0
M  V30 2606 C 229.991 -3.61711 2.45934 0
M  V30 2607 C 229.05 -4.77831 2.20371 0
M  V30 2608 O 228.076 -4.87586 2.93681 0
M  V30 2609 N 229.278 -5.67611 1.21647 0
M  V30 2610 H 232.043 -1.7842 2.40803 0
M  V30 2611 H 229.604 -0.84302 1.3822 0
M  V30 2612 H 231.596 -3.91189 1.03697 0
M  V30 2613 H 230.166 -3.10707 0.343542 0
M  V30 2614 H 229.386 -2.76861 2.80609 0
M  V30 2615 H 230.674 -3.89112 3.27825 0
M  V30 2616 H 230.072 -5.62397 0.610449 0
M  V30 2617 H 228.629 -6.42719 1.08423 0
M  V30 2618 N 232.062 -1.29571 -0.897171 0
M  V30 2619 C 233.01 -1.14802 -2.02295 0
M  V30 2620 C 234.004 -0.0629637 -1.69283 0
M  V30 2621 O 235.21 -0.222945 -1.78614 0
M  V30 2622 H 231.585 -0.354692 -0.663097 0
M  V30 2623 H 233.556 -2.10108 -2.11889 0
M  V30 2624 C 232.305 -0.843966 -3.37302 0
M  V30 2625 H 231.628 -1.67093 -3.63208 0
M  V30 2626 H 233.068 -0.780672 -4.16751 0
M  V30 2627 C 231.527 0.452843 -3.33843 0
M  V30 2628 O 232.057 1.47813 -3.73516 0
M  V30 2629 N 230.263 0.459601 -2.86943 0
M  V30 2630 H 229.81 -0.375213 -2.54853 0
M  V30 2631 H 229.768 1.32726 -2.85011 0
M  V30 2632 N 233.54 1.10788 -1.12088 0
M  V30 2633 C 234.788 1.8231 -0.872205 0
M  V30 2634 C 235.109 1.85419 0.603709 0
M  V30 2635 O 234.379 1.32963 1.43867 0
M  V30 2636 H 232.959 0.675137 -0.319686 0
M  V30 2637 H 235.621 1.34068 -1.41463 0
M  V30 2638 H 234.717 2.85955 -1.25045 0
M  V30 2639 N 235.018 0.912232 1.28515 0
M  V30 2640 C 236.243 0.559774 1.99703 0
M  V30 2641 C 236.668 -0.851393 1.67729 0
M  V30 2642 O 236.026 -1.56875 0.908834 0
M  V30 2643 C 236.074 0.773874 3.52198 0
M  V30 2644 O 235.178 -0.167842 4.12058 0
M  V30 2645 H 234.519 0.21723 0.627461 0
M  V30 2646 H 237.049 1.22725 1.63706 0
M  V30 2647 H 237.059 0.683386 4.02236 0
M  V30 2648 H 235.734 1.80261 3.74805 0
M  V30 2649 H 234.311 -0.0287509 3.72889 0
M  V30 2650 N 236.496 -1.42363 0.676048 0
M  V30 2651 C 237.721 -2.06377 0.205705 0
M  V30 2652 C 238.146 -1.50463 -1.12883 0
M  V30 2653 O 237.504 -0.623619 -1.70237 0
M  V30 2654 C 237.552 -3.60277 0.152655 0
M  V30 2655 O 236.656 -4.02935 -0.87845 0
M  V30 2656 H 235.997 -0.655588 0.105359 0
M  V30 2657 H 238.527 -1.82475 0.925412 0
M  V30 2658 H 238.537 -4.07993 -0.0230675 0
M  V30 2659 H 237.212 -4.00346 1.12675 0
M  V30 2660 H 235.789 -3.66764 -0.673668 0
M  V30 2661 N 237.974 -0.419461 -1.51915 0
M  V30 2662 C 239.204 0.151915 -2.06041 0
M  V30 2663 C 239.612 1.38539 -1.28855 0
M  V30 2664 O 238.955 1.80592 -0.336463 0
M  V30 2665 C 239.017 0.557119 -3.55157 0
M  V30 2666 C 238.681 -0.567054 -4.53468 0
M  V30 2667 C 239.678 -1.43379 -4.99738 0
M  V30 2668 C 237.363 -0.742693 -4.96779 0
M  V30 2669 C 239.357 -2.46102 -5.87973 0
M  V30 2670 C 237.044 -1.77322 -5.84808 0
M  V30 2671 C 238.042 -2.63078 -6.30301 0
M  V30 2672 O 237.73 -3.64364 -7.16585 0
M  V30 2673 H 237.462 0.0193293 -0.675724 0
M  V30 2674 H 240.016 -0.592073 -1.96682 0
M  V30 2675 H 238.246 1.35355 -3.62238 0
M  V30 2676 H 239.935 1.05759 -3.9188 0
M  V30 2677 H 240.701 -1.30954 -4.66986 0
M  V30 2678 H 236.58 -0.0848307 -4.60922 0
M  V30 2679 H 240.124 -3.13071 -6.23404 0
M  V30 2680 H 236.021 -1.89773 -6.16974 0
M  V30 2681 H 236.789 -3.60731 -7.34721 0
M  V30 2682 N 239.452 1.56882 -0.150215 0
M  V30 2683 C 240.415 2.1573 0.774157 0
M  V30 2684 C 241.415 1.0999 1.17298 0
M  V30 2685 O 242.605 1.35613 1.09338 0
M  V30 2686 C 239.737 2.72302 2.05096 0
M  V30 2687 H 240.93 2.98752 0.262201 0
M  V30 2688 H 238.483 1.55985 0.099248 0
M  V30 2689 H 239.218 1.92956 2.6065 0
M  V30 2690 H 239.003 3.49665 1.77416 0
M  V30 2691 H 240.493 3.17632 2.71109 0
M  V30 2692 N 240.93 -0.123565 1.57115 0
M  V30 2693 C 242.177 -0.832153 1.84612 0
M  V30 2694 C 242.505 -1.80093 0.734627 0
M  V30 2695 O 241.76 -1.93766 -0.27442 0
M  V30 2696 C 242.059 -1.62016 3.18568 0
M  V30 2697 C 241.725 -0.796084 4.43817 0
M  V30 2698 C 240.387 -0.568816 4.77826 0
M  V30 2699 C 242.739 -0.221364 5.2073 0
M  V30 2700 C 240.067 0.243499 5.86194 0
M  V30 2701 C 242.419 0.578117 6.29953 0
M  V30 2702 C 241.083 0.815744 6.62497 0
M  V30 2703 H 240.353 -0.304507 0.675542 0
M  V30 2704 H 243 -0.0947248 1.91266 0
M  V30 2705 H 241.305 -2.42837 3.0747 0
M  V30 2706 H 243.002 -2.17231 3.37064 0
M  V30 2707 H 239.592 -0.983307 4.17168 0
M  V30 2708 H 243.776 -0.384173 4.94811 0
M  V30 2709 H 239.032 0.436871 6.09837 0
M  V30 2710 H 243.206 1.03046 6.88734 0
M  V30 2711 H 240.833 1.44701 7.46301 0
M  V30 2712 N 242.408 -1.52605 -0.393616 0
M  V30 2713 C 243.685 -1.58001 -1.15304 0
M  V30 2714 C 244.065 -0.370385 -2.07825 0
M  V30 2715 O 243.413 0.641638 -2.19306 0
M  V30 2716 C 243.623 -2.91652 -1.91677 0
M  V30 2717 C 244.971 -3.4522 -2.47201 0
M  V30 2718 O 245.995 -2.93495 -2.01839 0
M  V30 2719 O 244.854 -4.35579 -3.3005 0
M  V30 2720 H 241.948 -0.637068 -0.527327 0
M  V30 2721 H 244.494 -1.64939 -0.399141 0
M  V30 2722 H 243.266 -3.71136 -1.23992 0
M  V30 2723 H 242.889 -2.88077 -2.74039 0
M  V30 2724 N 243.887 0.651787 -1.4349 0
M  V30 2725 C 245.115 1.43937 -1.48626 0
M  V30 2726 C 245.53 1.8851 -0.104587 0
M  V30 2727 O 244.887 1.5958 0.885464 0
M  V30 2728 C 244.938 2.6734 -2.43334 0
M  V30 2729 O 244.659 2.24631 -3.76128 0
M  V30 2730 C 246.16 3.60683 -2.57726 0
M  V30 2731 H 243.38 0.44213 -0.504739 0
M  V30 2732 H 245.924 0.798944 -1.88248 0
M  V30 2733 H 244.079 3.2752 -2.06904 0
M  V30 2734 H 244.493 3.04485 -4.2707 0
M  V30 2735 H 245.967 4.43933 -3.28067 0
M  V30 2736 H 246.444 4.08126 -1.62265 0
M  V30 2737 H 247.05 3.06384 -2.94973 0
M  V30 2738 N 245.365 1.30045 0.890287 0
M  V30 2739 C 246.312 1.15976 1.99545 0
M  V30 2740 C 247.282 0.0506202 1.66023 0
M  V30 2741 O 248.467 0.219847 1.89529 0
M  V30 2742 C 245.607 0.852054 3.34416 0
M  V30 2743 C 244.72 2.04255 3.80662 0
M  V30 2744 C 243.855 1.6734 5.04154 0
M  V30 2745 C 242.894 2.82916 5.42794 0
M  V30 2746 N 242.031 2.46333 6.57468 0
M  V30 2747 H 246.871 2.10524 2.10911 0
M  V30 2748 H 244.408 1.04749 1.03276 0
M  V30 2749 H 246.366 0.654296 4.12037 0
M  V30 2750 H 244.996 -0.0565502 3.2275 0
M  V30 2751 H 244.048 2.35172 2.98995 0
M  V30 2752 H 245.36 2.90826 4.05242 0
M  V30 2753 H 244.514 1.43908 5.89386 0
M  V30 2754 H 243.253 0.779308 4.81433 0
M  V30 2755 H 242.258 3.0702 4.56091 0
M  V30 2756 H 243.483 3.73004 5.6749 0
M  V30 2757 H 241.429 1.59423 6.36334 0
M  V30 2758 H 241.346 3.26436 6.81891 0
M  V30 2759 H 242.614 2.26244 7.45945 0
M  V30 2760 N 246.843 -1.10192 1.12674 0
M  V30 2761 C 247.775 -2.16418 0.754701 0
M  V30 2762 C 248.788 -1.61309 -0.21986 0
M  V30 2763 O 249.977 -1.785 -0.000826841 0
M  V30 2764 C 247.077 -3.38762 0.096698 0
M  V30 2765 C 246.25 -4.23307 1.10136 0
M  V30 2766 C 245.309 -5.24092 0.470513 0
M  V30 2767 O 244.335 -5.57906 1.12824 0
M  V30 2768 N 245.537 -5.75491 -0.760948 0
M  V30 2769 H 248.302 -2.48943 1.66875 0
M  V30 2770 H 245.863 -1.25834 1.01869 0
M  V30 2771 H 247.855 -4.03291 -0.337384 0
M  V30 2772 H 246.425 -3.04192 -0.720153 0
M  V30 2773 H 245.645 -3.55036 1.71299 0
M  V30 2774 H 246.933 -4.76624 1.78064 0
M  V30 2775 H 246.331 -5.50222 -1.31424 0
M  V30 2776 H 244.888 -6.41792 -1.13781 0
M  V30 2777 N 248.321 -0.919034 -1.28029 0
M  V30 2778 C 249.268 -0.410005 -2.27129 0
M  V30 2779 C 250.238 0.518405 -1.57803 0
M  V30 2780 O 251.423 0.439451 -1.8567 0
M  V30 2781 C 248.563 0.339054 -3.4343 0
M  V30 2782 C 247.676 -0.622468 -4.27492 0
M  V30 2783 C 246.811 0.145567 -5.31001 0
M  V30 2784 C 245.85 -0.809226 -6.06727 0
M  V30 2785 N 244.987 -0.0743728 -7.02061 0
M  V30 2786 H 249.827 -1.26011 -2.70047 0
M  V30 2787 H 247.364 -0.632663 -1.328 0
M  V30 2788 H 249.322 0.789586 -4.0966 0
M  V30 2789 H 247.952 1.15346 -3.01488 0
M  V30 2790 H 247.004 -1.19153 -3.61257 0
M  V30 2791 H 248.316 -1.35252 -4.80113 0
M  V30 2792 H 247.47 0.656417 -6.03139 0
M  V30 2793 H 246.209 0.908643 -4.79161 0
M  V30 2794 H 245.214 -1.3314 -5.33436 0
M  V30 2795 H 246.439 -1.57194 -6.60656 0
M  V30 2796 H 244.385 0.670616 -6.52563 0
M  V30 2797 H 244.302 -0.744157 -7.52329 0
M  V30 2798 H 245.57 0.416109 -7.78389 0
M  V30 2799 N 249.799 1.42003 -0.683588 0
M  V30 2800 C 250.747 2.326 0.000815408 0
M  V30 2801 C 251.741 1.50308 0.781278 0
M  V30 2802 O 252.947 1.66322 0.688251 0
M  V30 2803 H 249.322 0.751758 0.0190616 0
M  V30 2804 H 251.293 2.88011 -0.780528 0
M  V30 2805 C 250.042 3.34978 0.93195 0
M  V30 2806 H 249.365 3.98345 0.340817 0
M  V30 2807 H 250.805 4.00936 1.37936 0
M  V30 2808 C 249.264 2.67925 2.04249 0
M  V30 2809 O 249.794 2.51788 3.12995 0
M  V30 2810 N 248 2.2681 1.81675 0
M  V30 2811 H 247.547 2.40135 0.932363 0
M  V30 2812 H 247.505 1.8228 2.56167 0
M  V30 2813 N 251.277 0.427512 1.51691 0
M  V30 2814 C 252.207 -0.3796 2.30394 0
M  V30 2815 C 253.188 -1.02982 1.35384 0
M  V30 2816 O 254.373 -1.03534 1.643 0
M  V30 2817 C 251.503 -1.48649 3.1388 0
M  V30 2818 C 250.457 -0.960294 4.17088 0
M  V30 2819 C 249.783 -2.16219 4.89033 0
M  V30 2820 C 251.083 -0.00153679 5.223 0
M  V30 2821 H 252.777 0.277164 2.98114 0
M  V30 2822 H 250.323 0.134739 1.43368 0
M  V30 2823 H 252.276 -2.05826 3.67714 0
M  V30 2824 H 251 -2.1714 2.43962 0
M  V30 2825 H 249.659 -0.410806 3.64291 0
M  V30 2826 H 249.307 -2.83307 4.15628 0
M  V30 2827 H 249.007 -1.81654 5.58816 0
M  V30 2828 H 250.531 -2.73968 5.45687 0
M  V30 2829 H 251.945 -0.482687 5.71264 0
M  V30 2830 H 250.342 0.256199 5.99553 0
M  V30 2831 H 251.412 0.938174 4.75738 0
M  V30 2832 N 252.755 -1.56801 0.158532 0
M  V30 2833 C 253.685 -2.20347 -0.772609 0
M  V30 2834 C 254.666 -1.15518 -1.24859 0
M  V30 2835 O 255.851 -1.43902 -1.30406 0
M  V30 2836 C 252.981 -2.83417 -2.00729 0
M  V30 2837 C 251.935 -3.94174 -1.66765 0
M  V30 2838 C 251.261 -4.44233 -2.97592 0
M  V30 2839 C 252.561 -5.14392 -0.905447 0
M  V30 2840 H 254.255 -2.98413 -0.242959 0
M  V30 2841 H 251.801 -1.43537 -0.115419 0
M  V30 2842 H 253.754 -3.26543 -2.6636 0
M  V30 2843 H 252.478 -2.02701 -2.56086 0
M  V30 2844 H 251.137 -3.51684 -1.03508 0
M  V30 2845 H 250.785 -3.60325 -3.50963 0
M  V30 2846 H 250.485 -5.18945 -2.75626 0
M  V30 2847 H 252.009 -4.90037 -3.64274 0
M  V30 2848 H 253.423 -5.5429 -1.46408 0
M  V30 2849 H 251.82 -5.9494 -0.7853 0
M  V30 2850 H 252.89 -4.84795 0.100668 0
M  V30 2851 N 254.233 0.115231 -1.57178 0
M  V30 2852 C 255.18 1.14115 -2.00615 0
M  V30 2853 C 256.15 1.40939 -0.878941 0
M  V30 2854 O 257.335 1.52741 -1.14345 0
M  V30 2855 C 254.475 2.46156 -2.4187 0
M  V30 2856 C 253.588 2.26236 -3.68024 0
M  V30 2857 C 252.723 3.51534 -3.98243 0
M  V30 2858 C 251.762 3.26787 -5.17568 0
M  V30 2859 N 250.899 4.44298 -5.43639 0
M  V30 2860 H 255.739 0.763743 -2.88047 0
M  V30 2861 H 253.276 0.365615 -1.42484 0
M  V30 2862 H 255.234 3.23189 -2.63827 0
M  V30 2863 H 253.864 2.81783 -1.57475 0
M  V30 2864 H 252.916 1.40102 -3.5366 0
M  V30 2865 H 254.228 2.03929 -4.55208 0
M  V30 2866 H 253.382 4.36984 -4.20868 0
M  V30 2867 H 252.121 3.76876 -3.09541 0
M  V30 2868 H 251.126 2.39729 -4.94783 0
M  V30 2869 H 252.351 3.02812 -6.0785 0
M  V30 2870 H 250.297 4.69754 -4.57895 0
M  V30 2871 H 250.214 4.25109 -6.25154 0
M  V30 2872 H 251.482 5.3087 -5.70786 0
M  V30 2873 N 255.711 1.52812 0.385517 0
M  V30 2874 C 256.641 1.80808 1.47752 0
M  V30 2875 C 257.622 0.660318 1.5676 0
M  V30 2876 O 258.807 0.908246 1.71652 0
M  V30 2877 C 255.937 1.98008 2.85324 0
M  V30 2878 C 254.891 3.13709 2.91154 0
M  V30 2879 C 254.217 3.16169 4.31209 0
M  V30 2880 C 255.517 4.52709 2.60483 0
M  V30 2881 H 257.211 2.72253 1.24573 0
M  V30 2882 H 254.757 1.31003 0.597839 0
M  V30 2883 H 256.71 2.16176 3.61726 0
M  V30 2884 H 255.434 1.03255 3.09848 0
M  V30 2885 H 254.093 2.95329 2.17201 0
M  V30 2886 H 253.741 2.19092 4.52778 0
M  V30 2887 H 253.441 3.93894 4.36029 0
M  V30 2888 H 254.965 3.36496 5.09512 0
M  V30 2889 H 256.379 4.71173 3.26602 0
M  V30 2890 H 254.776 5.32528 2.76648 0
M  V30 2891 H 255.846 4.59186 1.55809 0
M  V30 2892 N 257.189 -0.644168 1.43834 0
M  V30 2893 C 258.152 -1.73857 1.49353 0
M  V30 2894 C 259.152 -1.56315 0.377112 0
M  V30 2895 O 260.342 -1.62048 0.639226 0
M  V30 2896 C 257.474 -3.12819 1.35488 0
M  V30 2897 H 258.667 -1.70342 2.46827 0
M  V30 2898 H 256.22 -0.856652 1.30733 0
M  V30 2899 H 256.955 -3.2194 0.390569 0
M  V30 2900 H 256.74 -3.26958 2.16428 0
M  V30 2901 H 258.23 -3.92606 1.42302 0
M  V30 2902 N 258.668 -1.30515 -0.883378 0
M  V30 2903 C 260.079 -1.17509 -1.45081 0
M  V30 2904 C 260.43 0.223605 -1.94922 0
M  V30 2905 O 259.555 1.12041 -1.85137 0
M  V30 2906 C 260.15 -2.12715 -2.63701 0
M  V30 2907 C 258.709 -2.03682 -3.16529 0
M  V30 2908 C 257.856 -2.02706 -1.89224 0
M  V30 2909 H 260.807 -1.42762 -0.693165 0
M  V30 2910 H 260.828 -1.70891 -3.39965 0
M  V30 2911 H 260.34 -3.14505 -2.27395 0
M  V30 2912 H 258.441 -1.05039 -3.57488 0
M  V30 2913 H 258.554 -2.92146 -3.7972 0
M  V30 2914 H 256.918 -1.4753 -2.07622 0
M  V30 2915 H 257.701 -3.06229 -1.55174 0
M  V30 2916 N 260.146 1.09593 -1.13257 0
M  V30 2917 C 261.094 2.18271 -0.803783 0
M  V30 2918 C 262.088 1.68054 0.213148 0
M  V30 2919 O 263.294 1.79862 0.0704699 0
M  V30 2920 H 259.669 0.711949 -0.242143 0
M  V30 2921 H 261.64 2.43235 -1.72856 0
M  V30 2922 C 260.389 3.46536 -0.28424 0
M  V30 2923 H 259.712 3.85545 -1.05807 0
M  V30 2924 H 261.152 4.23899 -0.0925945 0
M  V30 2925 C 259.611 3.22036 0.989684 0
M  V30 2926 O 260.141 3.44509 2.06584 0
M  V30 2927 N 258.347 2.7565 0.920086 0
M  V30 2928 H 257.894 2.57562 0.0442019 0
M  V30 2929 H 257.852 2.59635 1.77306 0
M  V30 2930 N 261.624 0.925811 1.2754 0
M  V30 2931 C 262.871 0.565255 1.94451 0
M  V30 2932 C 263.199 -0.89316 1.7278 0
M  V30 2933 O 262.454 -1.65213 1.04895 0
M  V30 2934 C 262.753 0.835296 3.47502 0
M  V30 2935 C 262.419 2.27515 3.89291 0
M  V30 2936 C 261.081 2.66879 4.00411 0
M  V30 2937 C 263.433 3.21158 4.10496 0
M  V30 2938 C 260.761 3.99014 4.30122 0
M  V30 2939 C 263.113 4.52871 4.4169 0
M  V30 2940 C 261.777 4.92072 4.51023 0
M  V30 2941 H 261.047 0.206841 0.711546 0
M  V30 2942 H 263.694 1.16942 1.51647 0
M  V30 2943 H 261.999 0.148442 3.91519 0
M  V30 2944 H 263.696 0.535322 3.97411 0
M  V30 2945 H 260.286 1.95976 3.81171 0
M  V30 2946 H 264.47 2.9195 4.01346 0
M  V30 2947 H 259.726 4.2907 4.35556 0
M  V30 2948 H 263.9 5.25436 4.57045 0
M  V30 2949 H 261.527 5.9449 4.738 0
M  V30 2950 N 263.102 -1.41638 0.69111 0
M  V30 2951 C 264.049 -2.30789 0.0229705 0
M  V30 2952 C 265.019 -1.46863 -0.775911 0
M  V30 2953 O 266.204 -1.75661 -0.74485 0
M  V30 2954 C 263.344 -3.32868 -0.910666 0
M  V30 2955 C 262.457 -4.31875 -0.103874 0
M  V30 2956 C 261.592 -5.21024 -1.03475 0
M  V30 2957 C 260.631 -6.11702 -0.220598 0
M  V30 2958 N 259.768 -6.93349 -1.10504 0
M  V30 2959 H 264.608 -2.87366 0.788978 0
M  V30 2960 H 262.145 -1.41535 0.400794 0
M  V30 2961 H 264.103 -3.90596 -1.46597 0
M  V30 2962 H 262.733 -2.77851 -1.64312 0
M  V30 2963 H 261.785 -3.76131 0.568285 0
M  V30 2964 H 263.097 -4.96003 0.527504 0
M  V30 2965 H 262.251 -5.83565 -1.65943 0
M  V30 2966 H 260.99 -4.57112 -1.69999 0
M  V30 2967 H 259.995 -5.48215 0.417187 0
M  V30 2968 H 261.22 -6.77668 0.440784 0
M  V30 2969 H 259.166 -6.3205 -1.75638 0
M  V30 2970 H 259.083 -7.54146 -0.529125 0
M  V30 2971 H 260.351 -7.60362 -1.71667 0
M  V30 2972 N 264.58 -0.43555 -1.51462 0
M  V30 2973 C 265.528 0.391205 -2.29287 0
M  V30 2974 C 266.522 1.02247 -1.35062 0
M  V30 2975 O 267.728 0.957646 -1.52411 0
M  V30 2976 H 264.103 0.144968 -0.737895 0
M  V30 2977 H 266.074 -0.286051 -2.97026 0
M  V30 2978 C 264.823 1.48096 -3.14583 0
M  V30 2979 H 264.146 1.00457 -3.86973 0
M  V30 2980 H 265.586 2.03273 -3.72097 0
M  V30 2981 C 264.045 2.46321 -2.29843 0
M  V30 2982 O 264.575 3.50815 -1.95682 0
M  V30 2983 N 262.781 2.17166 -1.931 0
M  V30 2984 H 262.328 1.32218 -2.21079 0
M  V30 2985 H 262.286 2.83127 -1.36698 0
M  V30 2986 N 266.058 1.56714 -0.166846 0
M  V30 2987 C 267.335 1.88412 0.525373 0
M  V30 2988 C 267.715 1.07602 1.81618 0
M  V30 2989 O 267.063 0.168621 2.27877 0
M  V30 2990 C 267.273 3.40363 0.771613 0
M  V30 2991 C 268.621 4.10007 1.1036 0
M  V30 2992 O 269.645 3.45655 0.860304 0
M  V30 2993 O 268.504 5.2369 1.56239 0
M  V30 2994 H 265.598 0.781587 0.270278 0
M  V30 2995 H 268.144 1.68458 -0.204946 0
M  V30 2996 H 266.916 3.91046 -0.141093 0
M  V30 2997 H 266.539 3.65914 1.55541 0
M  V30 2998 N 267.536 -0.106894 1.57237 0
M  V30 2999 C 268.484 -1.14944 2.02215 0
M  V30 3000 C 269.478 -1.42167 0.92114 0
M  V30 3001 O 270.684 -1.41987 1.10634 0
M  V30 3002 H 267.059 -0.387841 0.64427 0
M  V30 3003 H 269.03 -0.743683 2.88984 0
M  V30 3004 C 267.779 -2.4647 2.4525 0
M  V30 3005 H 267.102 -2.26363 3.29545 0
M  V30 3006 H 268.542 -3.17948 2.80508 0
M  V30 3007 C 267.001 -3.09921 1.321 0
M  V30 3008 O 267.531 -3.9651 0.643622 0
M  V30 3009 N 265.737 -2.69986 1.07497 0
M  V30 3010 H 265.284 -1.99667 1.62761 0
M  V30 3011 H 265.242 -3.12769 0.319876 0
M  V30 3012 N 269.014 -1.53014 -0.377408 0
M  V30 3013 C 270.239 -1.72818 -1.14668 0
M  V30 3014 C 270.664 -0.450725 -1.8262 0
M  V30 3015 O 270.022 0.59439 -1.7128 0
M  V30 3016 C 270.07 -2.88627 -2.16164 0
M  V30 3017 O 269.174 -2.56409 -3.22998 0
M  V30 3018 H 268.515 -0.574301 -0.333278 0
M  V30 3019 H 271.045 -1.99853 -0.438152 0
M  V30 3020 H 271.055 -3.14455 -2.59966 0
M  V30 3021 H 269.73 -3.81294 -1.66095 0
M  V30 3022 H 268.307 -2.4136 -2.84253 0
M  V30 3023 N 270.492 0.636531 -1.44174 0
M  V30 3024 C 271.442 1.74233 -1.47061 0
M  V30 3025 C 272.426 1.57331 -0.337034 0
M  V30 3026 O 273.618 1.67159 -0.581973 0
M  V30 3027 C 270.747 3.12897 -1.41246 0
M  V30 3028 C 269.833 3.35288 -2.59698 0
M  V30 3029 N 270.224 3.2807 -3.84972 0
M  V30 3030 C 268.522 3.66065 -2.54778 0
M  V30 3031 C 269.223 3.51001 -4.63867 0
M  V30 3032 N 268.199 3.73616 -3.94857 0
M  V30 3033 H 272.001 1.67103 -2.41773 0
M  V30 3034 H 269.515 0.838806 -1.3906 0
M  V30 3035 H 271.512 3.92189 -1.41398 0
M  V30 3036 H 270.172 3.21197 -0.47569 0
M  V30 3037 H 271.183 3.07109 -4.17019 0
M  V30 3038 H 267.86 3.81379 -1.6987 0
M  V30 3039 H 269.25 3.51059 -5.72894 0
M  V30 3040 N 271.97 1.30982 0.876444 0
M  V30 3041 C 273.2 1.23063 1.65949 0
M  V30 3042 C 273.608 -0.207537 1.88058 0
M  V30 3043 O 272.951 -1.14781 1.43426 0
M  V30 3044 C 273.013 1.89768 3.05333 0
M  V30 3045 C 272.677 3.39106 3.0636 0
M  V30 3046 C 273.674 4.3496 2.84791 0
M  V30 3047 C 271.359 3.80693 3.27686 0
M  V30 3048 C 273.353 5.70375 2.84519 0
M  V30 3049 C 271.04 5.16223 3.27043 0
M  V30 3050 C 272.038 6.10875 3.05485 0
M  V30 3051 O 271.726 7.43928 3.04674 0
M  V30 3052 H 271.458 0.426685 0.524324 0
M  V30 3053 H 274.012 1.7329 1.10271 0
M  V30 3054 H 272.242 1.34082 3.6271 0
M  V30 3055 H 273.931 1.75853 3.65829 0
M  V30 3056 H 274.697 4.0416 2.68103 0
M  V30 3057 H 270.576 3.07457 3.43499 0
M  V30 3058 H 274.12 6.44228 2.67611 0
M  V30 3059 H 270.017 5.4666 3.43269 0
M  V30 3060 H 270.785 7.53022 3.2078 0
M  V30 3061 N 273.449 -1.08991 1.13837 0
M  V30 3062 C 274.698 -1.80631 0.897509 0
M  V30 3063 C 275.011 -1.86872 -0.57777 0
M  V30 3064 O 276.217 -2.54866 -0.935701 0
M  V30 3065 C 274.673 -3.24517 1.55618 0
M  V30 3066 C 274.281 -3.26529 3.0673 0
M  V30 3067 C 276.025 -4.00882 1.3962 0
M  V30 3068 C 273.932 -4.64965 3.65461 0
M  V30 3069 H 272.862 -0.67691 0.332129 0
M  V30 3070 H 275.513 -1.2246 1.3666 0
M  V30 3071 H 273.895 -3.82778 1.01476 0
M  V30 3072 H 275.069 -2.78008 3.67489 0
M  V30 3073 H 273.384 -2.63656 3.22296 0
M  V30 3074 H 275.981 -5.03167 1.80906 0
M  V30 3075 H 276.324 -4.14896 0.341578 0
M  V30 3076 H 276.857 -3.49075 1.90766 0
M  V30 3077 H 273.596 -4.56153 4.70749 0
M  V30 3078 H 273.116 -5.13792 3.09481 0
M  V30 3079 H 274.795 -5.3394 3.654 0
M  V30 3080 N 274.927 -0.932562 -1.27047 0
M  V30 3081 C 276.175 -0.574422 -1.93765 0
M  V30 3082 C 276.496 0.887993 -1.73608 0
M  V30 3083 O 275.766 1.62999 -1.08665 0
M  V30 3084 H 274.346 -0.209451 -0.717035 0
M  V30 3085 H 277.008 -1.18601 -1.5466 0
M  V30 3086 H 276.104 -0.784841 -3.02071 0
M  V30 3087 N 276.405 1.4127 -0.698611 0
M  V30 3088 C 277.355 2.27997 -0.0119836 0
M  V30 3089 C 278.339 1.42363 0.749765 0
M  V30 3090 O 279.531 1.65607 0.624758 0
M  V30 3091 C 276.66 3.30702 0.921458 0
M  V30 3092 C 275.746 4.23814 0.155796 0
M  V30 3093 N 276.137 4.98572 -0.852015 0
M  V30 3094 C 274.435 4.44284 0.390836 0
M  V30 3095 C 275.136 5.66744 -1.3106 0
M  V30 3096 N 274.112 5.39867 -0.635944 0
M  V30 3097 H 277.914 2.83232 -0.784649 0
M  V30 3098 H 275.428 1.53518 -0.529711 0
M  V30 3099 H 277.425 3.91661 1.42854 0
M  V30 3100 H 276.085 2.77028 1.69369 0
M  V30 3101 H 277.096 5.03024 -1.23235 0
M  V30 3102 H 273.773 4.01614 1.14071 0
M  V30 3103 H 275.163 6.36672 -2.14707 0
M  V30 3104 N 277.883 0.443576 1.51229 0
M  V30 3105 C 279.108 -0.121648 2.07043 0
M  V30 3106 C 279.533 -1.35156 1.30823 0
M  V30 3107 O 278.891 -1.7793 0.347934 0
M  V30 3108 C 278.939 -0.41624 3.5819 0
M  V30 3109 O 278.043 -1.50163 3.8409 0
M  V30 3110 H 277.384 0.000871367 0.663999 0
M  V30 3111 H 279.914 0.626706 1.94765 0
M  V30 3112 H 279.924 -0.664867 4.02546 0
M  V30 3113 H 278.599 0.482653 4.1309 0
M  V30 3114 H 277.176 -1.24248 3.51592 0
M  V30 3115 N 279.361 -1.56624 0.175154 0
M  V30 3116 C 280.308 -2.18149 -0.753634 0
M  V30 3117 C 281.278 -1.12265 -1.22417 0
M  V30 3118 O 282.463 -1.40432 -1.29165 0
M  V30 3119 C 279.603 -2.82933 -1.97592 0
M  V30 3120 C 278.716 -4.03289 -1.5486 0
M  V30 3121 C 277.851 -4.55988 -2.72485 0
M  V30 3122 C 276.89 -5.68746 -2.26262 0
M  V30 3123 N 276.027 -6.15938 -3.36994 0
M  V30 3124 H 280.867 -2.9717 -0.222195 0
M  V30 3125 H 278.404 -1.46774 -0.0979422 0
M  V30 3126 H 280.362 -3.18653 -2.69288 0
M  V30 3127 H 278.992 -2.06509 -2.481 0
M  V30 3128 H 278.044 -3.73364 -0.728246 0
M  V30 3129 H 279.356 -4.849 -1.16933 0
M  V30 3130 H 278.51 -4.9391 -3.52332 0
M  V30 3131 H 277.249 -3.73443 -3.13674 0
M  V30 3132 H 276.254 -5.30372 -1.44863 0
M  V30 3133 H 277.479 -6.53095 -1.86127 0
M  V30 3134 H 275.425 -5.36321 -3.77751 0
M  V30 3135 H 275.342 -6.92548 -3.03172 0
M  V30 3136 H 276.61 -6.58511 -4.17114 0
M  V30 3137 N 280.839 0.0985539 -1.57292 0
M  V30 3138 C 281.787 1.1387 -2.02821 0
M  V30 3139 C 282.781 1.41676 -0.928666 0
M  V30 3140 O 283.987 1.41398 -1.11385 0
M  V30 3141 H 280.362 0.384419 -0.646317 0
M  V30 3142 H 282.333 0.728347 -2.89375 0
M  V30 3143 C 281.082 2.45166 -2.46554 0
M  V30 3144 H 280.405 2.24613 -3.3074 0
M  V30 3145 H 281.845 3.16456 -2.8219 0
M  V30 3146 C 280.304 3.09216 -1.33742 0
M  V30 3147 O 280.834 3.96163 -0.66464 0
M  V30 3148 N 279.04 2.69413 -1.08928 0
M  V30 3149 H 278.587 1.98801 -1.63817 0
M  V30 3150 H 278.545 3.12594 -0.336458 0
M  V30 3151 N 282.317 1.53212 0.369288 0
M  V30 3152 C 283.545 1.73119 1.13303 0
M  V30 3153 C 283.96 0.458455 1.83149 0
M  V30 3154 O 283.317 -0.568403 1.73423 0
M  V30 3155 C 283.368 2.89413 2.16616 0
M  V30 3156 O 283.089 4.11761 1.49614 0
M  V30 3157 C 284.59 3.21161 3.05566 0
M  V30 3158 H 281.81 0.579107 0.338934 0
M  V30 3159 H 284.354 1.99942 0.429338 0
M  V30 3160 H 282.509 2.64994 2.82589 0
M  V30 3161 H 282.923 4.76858 2.18419 0
M  V30 3162 H 284.397 4.05949 3.74045 0
M  V30 3163 H 284.874 2.36369 3.70171 0
M  V30 3164 H 285.48 3.47492 2.45213 0
M  V30 3165 N 283.795 -0.628877 1.44509 0
M  V30 3166 C 285.072 -1.38733 1.37886 0
M  V30 3167 C 285.452 -2.11065 0.0387008 0
M  V30 3168 O 284.8 -2.06476 -0.97878 0
M  V30 3169 C 285.01 -2.35188 2.57852 0
M  V30 3170 C 286.358 -2.9845 3.02014 0
M  V30 3171 O 287.382 -2.45513 2.58073 0
M  V30 3172 O 286.241 -3.94487 3.78209 0
M  V30 3173 H 283.335 -0.621015 0.54614 0
M  V30 3174 H 285.881 -0.653744 1.56602 0
M  V30 3175 H 284.653 -1.80855 3.46998 0
M  V30 3176 H 284.276 -3.1596 2.4136 0
M  V30 3177 N 285.273 -1.31445 -0.869486 0
M  V30 3178 C 286.522 -1.20517 -1.61736 0
M  V30 3179 C 286.835 0.235341 -1.94179 0
M  V30 3180 O 288.041 0.466312 -2.67465 0
M  V30 3181 C 286.497 -2.10982 -2.91573 0
M  V30 3182 C 286.105 -3.60032 -2.66611 0
M  V30 3183 C 287.849 -2.08856 -3.69567 0
M  V30 3184 C 285.756 -4.42503 -3.92358 0
M  V30 3185 H 284.686 -0.447493 -0.606849 0
M  V30 3186 H 287.337 -1.56303 -0.96133 0
M  V30 3187 H 285.719 -1.68095 -3.58553 0
M  V30 3188 H 286.893 -4.11167 -2.08035 0
M  V30 3189 H 285.208 -3.64139 -2.0197 0
M  V30 3190 H 287.805 -2.67716 -4.62852 0
M  V30 3191 H 288.148 -1.07582 -4.02159 0
M  V30 3192 H 288.681 -2.49945 -3.09471 0
M  V30 3193 H 285.42 -5.44533 -3.64916 0
M  V30 3194 H 284.94 -3.96125 -4.50383 0
M  V30 3195 H 286.619 -4.54741 -4.60238 0
M  V30 3196 N 286.751 1.08385 -1.14413 0
M  V30 3197 C 287.698 2.15311 -0.831265 0
M  V30 3198 C 288.668 1.64751 0.211292 0
M  V30 3199 O 289.853 1.90627 0.0811674 0
M  V30 3200 C 286.993 3.43658 -0.315143 0
M  V30 3201 C 286.106 4.08064 -1.41802 0
M  V30 3202 C 285.241 5.24207 -0.859126 0
M  V30 3203 C 284.28 5.80554 -1.93967 0
M  V30 3204 N 283.417 6.88042 -1.39793 0
M  V30 3205 H 288.257 2.41415 -1.74708 0
M  V30 3206 H 285.794 1.18474 -0.871909 0
M  V30 3207 H 287.752 4.172 0.00230884 0
M  V30 3208 H 286.382 3.17839 0.56378 0
M  V30 3209 H 285.434 3.3228 -1.85187 0
M  V30 3210 H 286.746 4.45962 -2.23427 0
M  V30 3211 H 285.9 6.04689 -0.49359 0
M  V30 3212 H 284.639 4.87699 -0.011932 0
M  V30 3213 H 283.644 4.98725 -2.31415 0
M  V30 3214 H 284.869 6.19121 -2.79046 0
M  V30 3215 H 282.815 6.53493 -0.572919 0
M  V30 3216 H 282.732 7.24767 -2.15054 0
M  V30 3217 H 284 7.72255 -1.0603 0
M  V30 3218 N 288.23 0.939286 1.26551 0
M  V30 3219 C 289.193 0.451987 2.24699 0
M  V30 3220 C 290.193 -0.435869 1.5478 0
M  V30 3221 O 291.383 -0.235314 1.72603 0
M  V30 3222 C 288.515 -0.348801 3.39111 0
M  V30 3223 H 289.708 1.3193 2.69322 0
M  V30 3224 H 287.261 0.721072 1.38673 0
M  V30 3225 H 287.996 -1.23444 2.99887 0
M  V30 3226 H 287.781 0.287945 3.91041 0
M  V30 3227 H 289.271 -0.679726 4.12031 0
M  V30 3228 N 289.708 -1.40897 0.706093 0
M  V30 3229 C 290.638 -2.33418 0.0620085 0
M  V30 3230 C 291.619 -1.52385 -0.755827 0
M  V30 3231 O 292.804 -1.80886 -0.706674 0
M  V30 3232 C 289.934 -3.36293 -0.867445 0
M  V30 3233 C 288.888 -4.27716 -0.155932 0
M  V30 3234 C 288.214 -5.2105 -1.20046 0
M  V30 3235 C 289.514 -5.12944 0.984149 0
M  V30 3236 H 291.208 -2.87527 0.83477 0
M  V30 3237 H 288.754 -1.38249 0.402875 0
M  V30 3238 H 290.707 -3.99949 -1.32735 0
M  V30 3239 H 289.431 -2.80556 -1.67199 0
M  V30 3240 H 288.09 -3.65498 0.284047 0
M  V30 3241 H 287.738 -4.61624 -1.99781 0
M  V30 3242 H 287.438 -5.83056 -0.729328 0
M  V30 3243 H 288.962 -5.87584 -1.66066 0
M  V30 3244 H 290.376 -5.70109 0.604048 0
M  V30 3245 H 288.773 -5.83945 1.38304 0
M  V30 3246 H 289.843 -4.49485 1.81911 0
M  V30 3247 N 291.186 -0.45159 -1.50991 0
M  V30 3248 C 292.096 0.358431 -2.31846 0
M  V30 3249 C 293.112 1.01438 -1.41373 0
M  V30 3250 O 294.288 1.00663 -1.74439 0
M  V30 3251 C 291.353 1.43704 -3.15515 0
M  V30 3252 C 290.414 0.799742 -4.21785 0
M  V30 3253 C 289.647 1.82696 -5.01456 0
M  V30 3254 O 289.87 3.05105 -4.81941 0
M  V30 3255 O 288.804 1.40958 -5.85162 0
M  V30 3256 H 292.63 -0.302032 -3.02194 0
M  V30 3257 H 290.215 -0.213825 -1.47862 0
M  V30 3258 H 292.097 2.06227 -3.67489 0
M  V30 3259 H 290.772 2.08133 -2.47916 0
M  V30 3260 H 289.679 0.136084 -3.73852 0
M  V30 3261 H 291.012 0.198718 -4.91799 0
M  V30 3262 N 292.664 1.56529 -0.183458 0
M  V30 3263 C 293.911 1.97244 0.458357 0
M  V30 3264 C 294.239 1.06992 1.62428 0
M  V30 3265 O 293.494 0.106542 1.9541 0
M  V30 3266 C 293.793 3.43939 0.971637 0
M  V30 3267 C 293.459 4.5083 -0.0796784 0
M  V30 3268 C 292.121 4.79786 -0.368584 0
M  V30 3269 C 294.473 5.15138 -0.792638 0
M  V30 3270 C 291.801 5.70345 -1.37563 0
M  V30 3271 C 294.153 6.06784 -1.78875 0
M  V30 3272 C 292.817 6.34102 -2.08497 0
M  V30 3273 H 292.087 0.721768 0.167725 0
M  V30 3274 H 294.734 1.89472 -0.277976 0
M  V30 3275 H 293.039 3.48724 1.78602 0
M  V30 3276 H 294.736 3.72791 1.47744 0
M  V30 3277 H 291.326 4.28317 0.155668 0
M  V30 3278 H 295.51 4.92868 -0.582659 0
M  V30 3279 H 290.766 5.89789 -1.61118 0
M  V30 3280 H 294.94 6.55677 -2.3465 0
M  V30 3281 H 292.567 7.04074 -2.86678 0
M  V30 3282 N 294.142 -0.090211 1.57342 0
M  V30 3283 C 295.072 -1.10976 2.05443 0
M  V30 3284 C 296.053 -1.41482 0.944284 0
M  V30 3285 O 297.238 -1.51428 1.21586 0
M  V30 3286 C 294.368 -2.42831 2.48295 0
M  V30 3287 C 293.322 -2.26721 3.63018 0
M  V30 3288 C 292.648 -3.63796 3.91863 0
M  V30 3289 C 293.948 -1.7037 4.93732 0
M  V30 3290 H 295.642 -0.709564 2.9087 0
M  V30 3291 H 293.188 -0.339874 1.39932 0
M  V30 3292 H 295.141 -3.14431 2.80555 0
M  V30 3293 H 293.865 -2.84795 1.59873 0
M  V30 3294 H 292.524 -1.57565 3.31012 0
M  V30 3295 H 292.172 -4.03297 3.00601 0
M  V30 3296 H 291.872 -3.53861 4.69101 0
M  V30 3297 H 293.396 -4.36855 4.26603 0
M  V30 3298 H 294.81 -2.31816 5.24342 0
M  V30 3299 H 293.207 -1.71181 5.75167 0
M  V30 3300 H 294.277 -0.663542 4.80339 0
M  V30 3301 N 295.62 -1.53406 -0.361157 0
M  V30 3302 C 296.53 -1.83122 -1.4664 0
M  V30 3303 C 297.546 -0.719943 -1.58407 0
M  V30 3304 O 298.722 -1.01046 -1.74218 0
M  V30 3305 C 295.787 -2.01891 -2.81853 0
M  V30 3306 C 294.848 -3.25784 -2.79577 0
M  V30 3307 C 294.081 -3.43648 -4.0834 0
M  V30 3308 O 294.304 -2.65714 -5.0473 0
M  V30 3309 O 293.238 -4.37018 -4.13883 0
M  V30 3310 H 297.064 -2.7703 -1.24451 0
M  V30 3311 H 294.649 -1.38841 -0.551678 0
M  V30 3312 H 296.531 -2.15782 -3.61962 0
M  V30 3313 H 295.206 -1.11173 -3.0401 0
M  V30 3314 H 294.113 -3.17312 -1.98151 0
M  V30 3315 H 295.446 -4.16439 -2.62373 0
M  V30 3316 N 297.098 0.621204 -1.44841 0
M  V30 3317 C 298.045 1.73267 -1.5247 0
M  V30 3318 C 299.015 1.6189 -0.371611 0
M  V30 3319 O 300.2 1.81668 -0.58321 0
M  V30 3320 C 297.34 3.11545 -1.48438 0
M  V30 3321 C 296.453 3.33827 -2.74196 0
M  V30 3322 C 295.588 4.62133 -2.61929 0
M  V30 3323 C 294.627 4.77627 -3.82804 0
M  V30 3324 N 293.764 5.97219 -3.69153 0
M  V30 3325 H 298.604 1.66082 -2.47428 0
M  V30 3326 H 296.141 0.810026 -1.22788 0
M  V30 3327 H 298.099 3.91528 -1.4409 0
M  V30 3328 H 296.729 3.1772 -0.570402 0
M  V30 3329 H 295.781 2.47715 -2.88689 0
M  V30 3330 H 297.093 3.41153 -3.6389 0
M  V30 3331 H 296.247 5.50291 -2.5547 0
M  V30 3332 H 294.986 4.57182 -1.69811 0
M  V30 3333 H 293.991 3.87896 -3.89637 0
M  V30 3334 H 295.216 4.84385 -4.75971 0
M  V30 3335 H 293.162 5.93339 -2.79794 0
M  V30 3336 H 293.079 6.05644 -4.52472 0
M  V30 3337 H 294.347 6.87912 -3.66603 0
M  V30 3338 N 298.576 1.31904 0.862503 0
M  V30 3339 C 299.804 1.24998 1.64873 0
M  V30 3340 C 300.219 -0.183425 1.87907 0
M  V30 3341 O 299.576 -1.11794 1.44251 0
M  V30 3342 C 299.627 1.99829 3.01248 0
M  V30 3343 O 299.348 3.37575 2.79239 0
M  V30 3344 C 300.849 1.99852 3.95694 0
M  V30 3345 H 298.069 0.431599 0.513773 0
M  V30 3346 H 300.613 1.73901 1.07604 0
M  V30 3347 H 298.768 1.54668 3.55185 0
M  V30 3348 H 299.182 3.75776 3.65914 0
M  V30 3349 H 300.656 2.56709 4.88676 0
M  V30 3350 H 301.133 0.982852 4.28062 0
M  V30 3351 H 301.739 2.44926 3.47694 0
M  V30 3352 N 300.054 -1.07777 1.14986 0
M  V30 3353 C 301.284 -1.83752 0.944402 0
M  V30 3354 C 301.692 -1.8218 -0.51058 0
M  V30 3355 O 301.035 -1.22852 -1.36576 0
M  V30 3356 C 301.097 -3.32128 1.37592 0
M  V30 3357 C 300.761 -3.57425 2.84775 0
M  V30 3358 C 301.758 -3.5173 3.8286 0
M  V30 3359 C 299.443 -3.8523 3.2234 0
M  V30 3360 C 301.437 -3.73482 5.16517 0
M  V30 3361 C 299.124 -4.06634 4.56171 0
M  V30 3362 C 300.122 -4.00754 5.53069 0
M  V30 3363 O 299.81 -4.2159 6.84483 0
M  V30 3364 H 299.542 -0.58673 0.335744 0
M  V30 3365 H 302.096 -1.36982 1.53052 0
M  V30 3366 H 300.326 -3.79686 0.733165 0
M  V30 3367 H 302.015 -3.89555 1.14024 0
M  V30 3368 H 302.781 -3.30256 3.55184 0
M  V30 3369 H 298.66 -3.88923 2.47508 0
M  V30 3370 H 302.204 -3.68808 5.92137 0
M  V30 3371 H 298.101 -4.27593 4.83564 0
M  V30 3372 H 298.869 -4.38961 6.90837 0
M  V30 3373 N 301.532 -0.945985 -1.26051 0
M  V30 3374 C 302.479 -0.45809 -2.26208 0
M  V30 3375 C 303.449 0.484816 -1.58867 0
M  V30 3376 O 304.634 0.399969 -1.86561 0
M  V30 3377 C 301.774 0.266131 -3.44072 0
M  V30 3378 C 300.887 -0.713005 -4.26075 0
M  V30 3379 C 300.022 0.0329013 -5.3119 0
M  V30 3380 C 299.061 -0.93774 -6.04874 0
M  V30 3381 N 298.198 -0.223274 -7.01745 0
M  V30 3382 H 303.038 -1.3171 -2.67313 0
M  V30 3383 H 300.575 -0.66069 -1.31428 0
M  V30 3384 H 302.533 0.702514 -4.11243 0
M  V30 3385 H 301.163 1.08925 -3.03867 0
M  V30 3386 H 300.215 -1.26789 -3.58648 0
M  V30 3387 H 301.527 -1.45406 -4.77136 0
M  V30 3388 H 300.681 0.528335 -6.04395 0
M  V30 3389 H 299.42 0.806801 -4.8098 0
M  V30 3390 H 298.425 -1.44425 -5.30492 0
M  V30 3391 H 299.65 -1.71172 -6.57173 0
M  V30 3392 H 297.596 0.532046 -6.53839 0
M  V30 3393 H 297.513 -0.90357 -7.50581 0
M  V30 3394 H 298.781 0.250907 -7.79096 0
M  V30 3395 N 303.011 1.40521 -0.713556 0
M  V30 3396 C 304.26 2.00155 -0.249192 0
M  V30 3397 C 304.573 1.57224 1.16362 0
M  V30 3398 O 305.779 2.09542 1.72639 0
M  V30 3399 C 304.235 3.5773 -0.3946 0
M  V30 3400 C 303.843 4.09635 -1.81392 0
M  V30 3401 C 305.587 4.24499 0.00907364 0
M  V30 3402 C 303.494 5.59707 -1.91003 0
M  V30 3403 H 302.424 0.74868 -0.0894114 0
M  V30 3404 H 305.075 1.60784 -0.884352 0
M  V30 3405 H 303.457 3.94792 0.30911 0
M  V30 3406 H 304.631 3.83955 -2.54785 0
M  V30 3407 H 302.946 3.55456 -2.16888 0
M  V30 3408 H 305.543 5.34683 -0.0420404 0
M  V30 3409 H 305.886 4.02824 1.05065 0
M  V30 3410 H 306.419 3.92536 -0.645007 0
M  V30 3411 H 303.158 5.86234 -2.93275 0
M  V30 3412 H 302.678 5.87258 -1.22019 0
M  V30 3413 H 304.357 6.24776 -1.6812 0
M  V30 3414 N 304.489 0.459591 1.5075 0
M  V30 3415 C 305.436 -0.340524 2.28274 0
M  V30 3416 C 306.406 -0.997371 1.32822 0
M  V30 3417 O 307.591 -1.01202 1.61749 0
M  V30 3418 C 304.731 -1.42317 3.14388 0
M  V30 3419 C 303.844 -0.782251 4.24859 0
M  V30 3420 C 302.979 -1.84182 4.98247 0
M  V30 3421 C 302.018 -1.18053 6.00608 0
M  V30 3422 N 301.155 -2.18244 6.67319 0
M  V30 3423 H 305.995 0.326899 2.96202 0
M  V30 3424 H 303.532 0.173057 1.46078 0
M  V30 3425 H 305.49 -2.06241 3.62658 0
M  V30 3426 H 304.12 -2.05992 2.4853 0
M  V30 3427 H 303.172 -0.0307404 3.80388 0
M  V30 3428 H 304.484 -0.259663 4.98124 0
M  V30 3429 H 303.638 -2.55714 5.50177 0
M  V30 3430 H 302.377 -2.39819 4.24662 0
M  V30 3431 H 301.382 -0.450776 5.47949 0
M  V30 3432 H 302.607 -0.631202 6.7616 0
M  V30 3433 H 300.553 -2.72919 5.96533 0
M  V30 3434 H 300.47 -1.70938 7.36421 0
M  V30 3435 H 301.738 -2.89191 7.23871 0
M  V30 3436 N 305.967 -1.56429 0.191757 0
M  V30 3437 C 306.897 -2.21937 -0.725696 0
M  V30 3438 C 307.878 -1.1814 -1.2238 0
M  V30 3439 O 309.063 -1.46636 -1.27325 0
M  V30 3440 C 306.193 -2.87611 -1.94672 0
M  V30 3441 C 305.147 -3.97623 -1.58366 0
M  V30 3442 C 304.473 -4.50446 -2.88102 0
M  V30 3443 C 305.773 -5.16197 -0.796133 0
M  V30 3444 H 307.467 -2.98861 -0.179606 0
M  V30 3445 H 305.013 -1.43749 -0.0849464 0
M  V30 3446 H 306.966 -3.3212 -2.59373 0
M  V30 3447 H 305.69 -2.08087 -2.51728 0
M  V30 3448 H 304.349 -3.53801 -0.960247 0
M  V30 3449 H 303.997 -3.67688 -3.43241 0
M  V30 3450 H 303.697 -5.24675 -2.64556 0
M  V30 3451 H 305.221 -4.97654 -3.53798 0
M  V30 3452 H 306.635 -5.57271 -1.34618 0
M  V30 3453 H 305.032 -5.96471 -0.658928 0
M  V30 3454 H 306.102 -4.84473 0.203478 0
M  V30 3455 N 307.445 0.0818655 -1.57387 0
M  V30 3456 C 308.675 0.794954 -1.90694 0
M  V30 3457 C 309.083 1.72147 -0.784982 0
M  V30 3458 O 308.426 1.81974 0.251196 0
M  V30 3459 C 308.488 1.65042 -3.19376 0
M  V30 3460 C 308.152 0.894337 -4.48164 0
M  V30 3461 C 309.149 0.21813 -5.19442 0
M  V30 3462 C 306.834 0.864495 -4.94805 0
M  V30 3463 C 308.828 -0.477802 -6.35607 0
M  V30 3464 C 306.515 0.164785 -6.10878 0
M  V30 3465 C 307.513 -0.505173 -6.81129 0
M  V30 3466 O 307.201 -1.19363 -7.94989 0
M  V30 3467 H 306.933 0.231779 -0.635023 0
M  V30 3468 H 309.487 0.059493 -2.05314 0
M  V30 3469 H 307.717 2.42844 -3.00938 0
M  V30 3470 H 309.406 2.24127 -3.38411 0
M  V30 3471 H 310.172 0.232558 -4.84442 0
M  V30 3472 H 306.051 1.37542 -4.40004 0
M  V30 3473 H 309.595 -1.00129 -6.90377 0
M  V30 3474 H 305.492 0.148249 -6.4533 0
M  V30 3475 H 306.26 -1.10188 -8.11049 0
M  V30 3476 N 308.923 1.53595 0.353017 0
M  V30 3477 C 310.163 1.72094 1.10286 0
M  V30 3478 C 310.527 0.469217 1.86178 0
M  V30 3479 O 311.728 0.531083 2.63501 0
M  V30 3480 C 309.999 2.94386 2.02661 0
M  V30 3481 S 311.558 3.33651 2.84996 0
M  V30 3482 H 308.376 0.605433 0.372789 0
M  V30 3483 H 310.978 1.91722 0.38248 0
M  V30 3484 H 309.682 3.83669 1.45691 0
M  V30 3485 H 309.213 2.77197 2.79152 0
M  V30 3486 H 311.228 2.86645 4.0503 0
M  V30 3487 N 310.401 -0.613514 1.45168 0
M  V30 3488 C 311.331 -1.7354 1.56225 0
M  V30 3489 C 312.312 -1.64981 0.41414 0
M  V30 3490 O 313.497 -1.83472 0.636526 0
M  V30 3491 C 310.627 -3.12128 1.52295 0
M  V30 3492 C 309.581 -3.35491 2.65762 0
M  V30 3493 C 308.907 -4.74291 2.46885 0
M  V30 3494 C 310.207 -3.26325 4.0781 0
M  V30 3495 H 311.901 -1.64543 2.50132 0
M  V30 3496 H 309.447 -0.790185 1.20383 0
M  V30 3497 H 311.4 -3.90404 1.58628 0
M  V30 3498 H 310.124 -3.2195 0.549139 0
M  V30 3499 H 308.783 -2.59603 2.58847 0
M  V30 3500 H 308.431 -4.80839 1.47657 0
M  V30 3501 H 308.131 -4.9088 3.22972 0
M  V30 3502 H 309.655 -5.54775 2.55063 0
M  V30 3503 H 311.069 -3.94483 4.16 0
M  V30 3504 H 309.466 -3.54445 4.8424 0
M  V30 3505 H 310.536 -2.23855 4.30136 0
M  V30 3506 N 311.879 -1.3236 -0.855495 0
M  V30 3507 C 313.119 -1.24187 -1.62348 0
M  V30 3508 C 313.483 0.193597 -1.91021 0
M  V30 3509 O 314.684 0.39904 -2.65822 0
M  V30 3510 C 312.955 -2.07661 -2.90881 0
M  V30 3511 S 314.514 -2.16505 -3.81669 0
M  V30 3512 H 311.332 -0.442076 -0.556857 0
M  V30 3513 H 313.934 -1.67198 -1.01317 0
M  V30 3514 H 312.638 -3.11018 -2.67761 0
M  V30 3515 H 312.169 -1.65425 -3.56929 0
M  V30 3516 H 314.184 -1.31394 -4.78487 0
M  V30 3517 N 313.357 1.07166 -1.15556 0
M  V30 3518 C 314.768 1.6127 -0.940693 0
M  V30 3519 C 315.119 1.89251 0.517551 0
M  V30 3520 O 314.244 1.65937 1.38903 0
M  V30 3521 C 314.839 2.92993 -1.7012 0
M  V30 3522 C 313.398 3.43832 -1.53156 0
M  V30 3523 C 312.545 2.1786 -1.71558 0
M  V30 3524 H 315.496 0.90229 -1.30554 0
M  V30 3525 H 315.517 3.62007 -1.17181 0
M  V30 3526 H 315.029 2.72596 -2.76248 0
M  V30 3527 H 313.13 3.69307 -0.494294 0
M  V30 3528 H 313.243 4.19747 -2.30975 0
M  V30 3529 H 311.607 2.2765 -1.14225 0
M  V30 3530 H 312.39 1.99956 -2.79056 0
M  V30 3531 N 314.835 0.952656 1.25548 0
M  V30 3532 C 315.783 0.462354 2.27958 0
M  V30 3533 C 316.777 -0.46634 1.62855 0
M  V30 3534 O 317.983 -0.343287 1.76696 0
M  V30 3535 H 314.358 0.13101 0.7405 0
M  V30 3536 H 316.329 1.33839 2.66702 0
M  V30 3537 C 315.078 -0.24628 3.46827 0
M  V30 3538 H 314.401 0.459192 3.97154 0
M  V30 3539 H 315.841 -0.553393 4.20373 0
M  V30 3540 C 314.3 -1.4681 3.0323 0
M  V30 3541 O 314.83 -2.56591 3.09069 0
M  V30 3542 N 313.036 -1.32874 2.58443 0
M  V30 3543 H 312.583 -0.435536 2.53891 0
M  V30 3544 H 312.541 -2.14742 2.29637 0
M  V30 3545 N 316.313 -1.40141 0.720998 0
M  V30 3546 C 317.538 -2.05618 0.271258 0
M  V30 3547 C 317.963 -1.53978 -1.08039 0
M  V30 3548 O 317.321 -0.677463 -1.68167 0
M  V30 3549 C 317.369 -3.59609 0.267197 0
M  V30 3550 O 316.473 -4.05526 -0.749814 0
M  V30 3551 H 315.814 -0.651904 0.126162 0
M  V30 3552 H 318.344 -1.79439 0.982997 0
M  V30 3553 H 318.354 -4.0786 0.106744 0
M  V30 3554 H 317.029 -3.96559 1.25354 0
M  V30 3555 H 315.606 -3.68722 -0.556644 0
M  V30 3556 N 317.792 -0.46758 -1.50504 0
M  V30 3557 C 318.722 0.318381 -2.31319 0
M  V30 3558 C 319.703 0.993564 -1.38066 0
M  V30 3559 O 320.888 0.991411 -1.66987 0
M  V30 3560 C 318.018 1.40275 -3.17711 0
M  V30 3561 C 316.972 0.849373 -4.19487 0
M  V30 3562 C 316.298 2.03177 -4.94594 0
M  V30 3563 C 317.598 -0.136942 -5.2212 0
M  V30 3564 H 319.292 -0.356106 -2.97275 0
M  V30 3565 H 316.838 -0.172703 -1.42961 0
M  V30 3566 H 318.791 1.96004 -3.73042 0
M  V30 3567 H 317.515 2.10596 -2.49634 0
M  V30 3568 H 316.174 0.314076 -3.65252 0
M  V30 3569 H 315.822 2.72187 -4.22993 0
M  V30 3570 H 315.522 1.66774 -5.63436 0
M  V30 3571 H 317.046 2.59403 -5.52759 0
M  V30 3572 H 318.46 0.331056 -5.72343 0
M  V30 3573 H 316.857 -0.41507 -5.98663 0
M  V30 3574 H 317.927 -1.06398 -4.73083 0
M  V30 3575 N 319.27 1.56325 -0.20005 0
M  V30 3576 C 320.2 2.22318 0.713916 0
M  V30 3577 C 321.181 1.18788 1.21752 0
M  V30 3578 O 322.366 1.47309 1.26545 0
M  V30 3579 C 319.496 2.88639 1.93144 0
M  V30 3580 C 318.45 3.98457 1.56255 0
M  V30 3581 C 317.776 4.51967 2.85709 0
M  V30 3582 C 319.076 5.16612 0.768747 0
M  V30 3583 H 320.77 2.98952 0.163755 0
M  V30 3584 H 318.316 1.43792 0.0773219 0
M  V30 3585 H 320.269 3.33491 2.57608 0
M  V30 3586 H 318.993 2.09419 2.50621 0
M  V30 3587 H 317.652 3.54305 0.941471 0
M  V30 3588 H 317.3 3.69503 3.41287 0
M  V30 3589 H 317 5.26071 2.6177 0
M  V30 3590 H 318.524 4.99523 3.51154 0
M  V30 3591 H 319.938 5.57977 1.3166 0
M  V30 3592 H 318.335 5.96812 0.627286 0
M  V30 3593 H 319.405 4.84358 -0.229168 0
M  V30 3594 N 320.748 -0.0735177 1.57428 0
M  V30 3595 C 321.711 -1.07192 2.02589 0
M  V30 3596 C 322.711 -1.31695 0.922661 0
M  V30 3597 O 323.901 -1.27445 1.18758 0
M  V30 3598 C 321.033 -2.41599 2.40506 0
M  V30 3599 H 322.226 -0.682727 2.92025 0
M  V30 3600 H 319.779 -0.319193 1.53006 0
M  V30 3601 H 320.514 -2.85354 1.5409 0
M  V30 3602 H 320.299 -2.25156 3.21009 0
M  V30 3603 H 321.789 -3.13367 2.76027 0
M  V30 3604 N 322.226 -1.5378 -0.344866 0
M  V30 3605 C 323.174 -1.82373 -1.4437 0
M  V30 3606 C 324.168 -0.694128 -1.54526 0
M  V30 3607 O 325.374 -0.877442 -1.57165 0
M  V30 3608 H 321.749 -0.577765 -0.481344 0
M  V30 3609 H 323.72 -2.74306 -1.17468 0
M  V30 3610 C 322.469 -2.04898 -2.80913 0
M  V30 3611 H 321.792 -2.9127 -2.73865 0
M  V30 3612 H 323.232 -2.28871 -3.56923 0
M  V30 3613 C 321.691 -0.834116 -3.26411 0
M  V30 3614 O 322.221 -0.0328885 -4.01687 0
M  V30 3615 N 320.427 -0.65171 -2.83198 0
M  V30 3616 H 319.974 -1.30489 -2.22104 0
M  V30 3617 H 319.932 0.159686 -3.13994 0
M  V30 3618 N 323.704 0.605807 -1.45491 0
M  V30 3619 C 324.951 1.36476 -1.49601 0
M  V30 3620 C 325.279 1.94007 -0.138452 0
M  V30 3621 O 324.534 1.75638 0.863114 0
M  V30 3622 C 324.833 2.53012 -2.52428 0
M  V30 3623 C 324.499 2.13617 -3.97087 0
M  V30 3624 C 323.161 2.02587 -4.36477 0
M  V30 3625 C 325.513 1.82899 -4.88055 0
M  V30 3626 C 322.841 1.59064 -5.64726 0
M  V30 3627 C 325.193 1.40861 -6.16718 0
M  V30 3628 C 323.857 1.28391 -6.55036 0
M  V30 3629 H 323.127 0.499402 -0.547429 0
M  V30 3630 H 325.774 0.684546 -1.78847 0
M  V30 3631 H 324.079 3.26379 -2.16758 0
M  V30 3632 H 325.776 3.1124 -2.52845 0
M  V30 3633 H 322.366 2.23129 -3.65939 0
M  V30 3634 H 326.55 1.90317 -4.58359 0
M  V30 3635 H 321.806 1.48034 -5.93208 0
M  V30 3636 H 325.98 1.16138 -6.86648 0
M  V30 3637 H 323.607 0.944403 -7.54311 0
M  V30 3638 N 325.182 1.32811 0.848464 0
M  V30 3639 C 326.431 1.23075 1.59798 0
M  V30 3640 C 326.744 -0.204419 1.94529 0
M  V30 3641 O 327.95 -0.423701 2.68173 0
M  V30 3642 C 326.406 2.15594 2.88179 0
M  V30 3643 C 326.014 3.64228 2.60849 0
M  V30 3644 C 327.758 2.14709 3.66197 0
M  V30 3645 C 325.665 4.48689 3.85269 0
M  V30 3646 H 324.595 0.457091 0.599653 0
M  V30 3647 H 327.246 1.57813 0.936342 0
M  V30 3648 H 325.628 1.73778 3.55833 0
M  V30 3649 H 326.802 4.14424 2.01467 0
M  V30 3650 H 325.117 3.67306 1.96151 0
M  V30 3651 H 327.714 2.75046 4.58534 0
M  V30 3652 H 328.057 1.13966 4.00397 0
M  V30 3653 H 328.59 2.54837 3.05455 0
M  V30 3654 H 325.329 5.5027 3.56207 0
M  V30 3655 H 324.849 4.03241 4.44024 0
M  V30 3656 H 326.528 4.62006 4.52946 0
M  V30 3657 N 326.66 -1.06551 1.16123 0
M  V30 3658 C 327.57 -2.17484 0.879662 0
M  V30 3659 C 328.586 -1.73377 -0.147104 0
M  V30 3660 O 329.762 -2.01379 0.0289128 0
M  V30 3661 C 326.827 -3.44591 0.381829 0
M  V30 3662 C 325.888 -4.0322 1.4735 0
M  V30 3663 C 325.121 -5.24261 0.999324 0
M  V30 3664 O 325.344 -5.70198 -0.151957 0
M  V30 3665 O 324.278 -5.74775 1.78653 0
M  V30 3666 H 328.104 -2.44075 1.80724 0
M  V30 3667 H 325.689 -1.16042 0.940992 0
M  V30 3668 H 327.571 -4.21254 0.111053 0
M  V30 3669 H 326.246 -3.19532 -0.51777 0
M  V30 3670 H 325.153 -3.2806 1.79798 0
M  V30 3671 H 326.486 -4.32568 2.34831 0
M  V30 3672 N 328.138 -0.959301 -1.25041 0
M  V30 3673 C 329.068 -0.501388 -2.28053 0
M  V30 3674 C 330.049 0.454673 -1.63911 0
M  V30 3675 O 331.234 0.352618 -1.90972 0
M  V30 3676 C 328.364 0.217224 -3.4662 0
M  V30 3677 C 327.318 -0.654034 -4.22973 0
M  V30 3678 C 326.644 0.195589 -5.34342 0
M  V30 3679 C 327.944 -1.93447 -4.85155 0
M  V30 3680 H 329.638 -1.36238 -2.66608 0
M  V30 3681 H 327.184 -0.656534 -1.28163 0
M  V30 3682 H 329.137 0.548732 -4.17812 0
M  V30 3683 H 327.861 1.1125 -3.07068 0
M  V30 3684 H 326.52 -0.968693 -3.5357 0
M  V30 3685 H 326.168 1.09076 -4.91031 0
M  V30 3686 H 325.868 -0.384091 -5.86343 0
M  V30 3687 H 327.392 0.521958 -6.08365 0
M  V30 3688 H 328.806 -1.66908 -5.48466 0
M  V30 3689 H 327.203 -2.46018 -5.47353 0
M  V30 3690 H 328.273 -2.63466 -4.07079 0
M  V30 3691 N 329.616 1.39756 -0.72842 0
M  V30 3692 C 330.579 2.29012 -0.0927297 0
M  V30 3693 C 331.579 1.45992 0.674025 0
M  V30 3694 O 332.769 1.66749 0.50402 0
M  V30 3695 C 329.901 3.29396 0.878137 0
M  V30 3696 H 331.094 2.86729 -0.879011 0
M  V30 3697 H 328.647 1.48293 -0.493847 0
M  V30 3698 H 329.382 2.76722 1.69101 0
M  V30 3699 H 329.167 3.907 0.331051 0
M  V30 3700 H 330.657 3.96199 1.3197 0
M  V30 3701 N 331.094 0.475555 1.50254 0
M  V30 3702 C 332.505 0.0215174 1.86688 0
M  V30 3703 C 332.856 -1.38467 1.39001 0
M  V30 3704 O 331.981 -2.02732 0.756894 0
M  V30 3705 C 332.576 0.0322715 3.38785 0
M  V30 3706 C 331.135 -0.366314 3.74613 0
M  V30 3707 C 330.282 0.415832 2.74164 0
M  V30 3708 H 333.233 0.689612 1.42934 0
M  V30 3709 H 333.254 -0.76889 3.7265 0
M  V30 3710 H 332.766 1.05584 3.73462 0
M  V30 3711 H 330.867 -1.39406 3.45538 0
M  V30 3712 H 330.98 -0.064555 4.79057 0
M  V30 3713 H 329.344 -0.131048 2.54363 0
M  V30 3714 H 330.127 1.43899 3.11686 0
M  V30 3715 N 332.573 -1.56217 0.208337 0
M  V30 3716 C 333.521 -2.21053 -0.723769 0
M  V30 3717 C 334.515 -1.18578 -1.20978 0
M  V30 3718 O 335.721 -1.36691 -1.17114 0
M  V30 3719 H 332.096 -0.708595 -0.251788 0
M  V30 3720 H 334.067 -2.98006 -0.153365 0
M  V30 3721 C 332.816 -2.89417 -1.927 0
M  V30 3722 H 332.139 -3.68019 -1.56212 0
M  V30 3723 H 333.579 -3.38201 -2.55727 0
M  V30 3724 C 332.038 -1.91166 -2.77411 0
M  V30 3725 O 332.568 -1.42026 -3.75754 0
M  V30 3726 N 330.774 -1.59105 -2.43175 0
M  V30 3727 H 330.321 -1.99259 -1.63259 0
M  V30 3728 H 330.279 -0.936255 -3.00136 0
M  V30 3729 N 334.051 0.0651679 -1.57465 0
M  V30 3730 C 334.981 1.07693 -2.07182 0
M  V30 3731 C 335.962 1.39962 -0.966673 0
M  V30 3732 O 337.147 1.49475 -1.2398 0
M  V30 3733 C 334.277 2.3885 -2.52127 0
M  V30 3734 C 333.231 2.20917 -3.66579 0
M  V30 3735 C 332.557 3.57515 -3.97601 0
M  V30 3736 C 333.857 1.62493 -4.9638 0
M  V30 3737 H 335.551 0.663199 -2.91962 0
M  V30 3738 H 333.097 0.317569 -1.40455 0
M  V30 3739 H 335.05 3.09928 -2.85522 0
M  V30 3740 H 333.774 2.82215 -1.64384 0
M  V30 3741 H 332.433 1.52279 -3.33477 0
M  V30 3742 H 332.081 3.98463 -3.06979 0
M  V30 3743 H 331.781 3.46353 -4.74672 0
M  V30 3744 H 333.305 4.30013 -4.33499 0
M  V30 3745 H 334.719 2.23445 -5.27963 0
M  V30 3746 H 333.116 1.62009 -5.77818 0
M  V30 3747 H 334.186 0.587041 -4.81333 0
M  V30 3748 N 335.529 1.53961 0.336706 0
M  V30 3749 C 336.477 1.83136 1.43401 0
M  V30 3750 C 337.471 0.702313 1.54156 0
M  V30 3751 O 338.677 0.885765 1.56698 0
M  V30 3752 H 335.052 0.580309 0.478273 0
M  V30 3753 H 337.023 2.74925 1.16012 0
M  V30 3754 C 335.772 2.06385 2.79822 0
M  V30 3755 H 335.095 2.92718 2.72316 0
M  V30 3756 H 336.535 2.30761 3.55704 0
M  V30 3757 C 334.994 0.851414 3.25964 0
M  V30 3758 O 335.524 0.0541904 4.01663 0
M  V30 3759 N 333.73 0.66672 2.82848 0
M  V30 3760 H 333.277 1.31665 2.21409 0
M  V30 3761 H 333.235 -0.143032 3.14074 0
M  V30 3762 N 337.007 -0.598083 1.45811 0
M  V30 3763 C 338.232 -1.3881 1.54099 0
M  V30 3764 C 338.657 -1.8726 0.177578 0
M  V30 3765 O 338.015 -1.6069 -0.839541 0
M  V30 3766 C 338.063 -2.56217 2.53743 0
M  V30 3767 O 337.167 -3.5716 2.06182 0
M  V30 3768 H 336.508 -0.414024 0.519115 0
M  V30 3769 H 339.038 -0.726971 1.91249 0
M  V30 3770 H 339.048 -3.03337 2.72856 0
M  V30 3771 H 337.723 -2.20303 3.5276 0
M  V30 3772 H 336.3 -3.16624 1.96987 0
M  V30 3773 N 338.485 -1.33259 -0.841409 0
M  V30 3774 C 339.433 -1.23279 -1.97244 0
M  V30 3775 C 340.427 -0.134706 -1.68864 0
M  V30 3776 O 341.633 -0.298501 -1.77508 0
M  V30 3777 H 338.008 -0.382497 -0.647457 0
M  V30 3778 H 339.979 -2.18906 -2.02787 0
M  V30 3779 C 338.728 -0.986268 -3.33419 0
M  V30 3780 H 338.051 -1.82347 -3.55794 0
M  V30 3781 H 339.491 -0.956728 -4.13065 0
M  V30 3782 C 337.95 0.310842 -3.35463 0
M  V30 3783 O 338.48 1.31838 -3.79449 0
M  V30 3784 N 336.686 0.337485 -2.88634 0
M  V30 3785 H 336.233 -0.482967 -2.53032 0
M  V30 3786 H 336.191 1.20518 -2.90384 0
M  V30 3787 N 339.963 1.05934 -1.16686 0
M  V30 3788 C 341.21 1.788 -0.950622 0
M  V30 3789 C 341.538 1.87384 0.521305 0
M  V30 3790 O 340.793 1.36438 1.40297 0
M  V30 3791 C 341.092 3.23105 -1.52767 0
M  V30 3792 C 340.758 3.34594 -3.02254 0
M  V30 3793 C 339.42 3.37437 -3.43059 0
M  V30 3794 C 341.772 3.36219 -3.98254 0
M  V30 3795 C 339.1 3.39525 -4.78477 0
M  V30 3796 C 341.452 3.39845 -5.33562 0
M  V30 3797 C 340.116 3.40971 -5.73842 0
M  V30 3798 H 339.386 0.654275 -0.347857 0
M  V30 3799 H 342.033 1.24555 -1.45459 0
M  V30 3800 H 340.338 3.80227 -0.94524 0
M  V30 3801 H 342.035 3.7809 -1.336 0
M  V30 3802 H 338.625 3.3309 -2.6972 0
M  V30 3803 H 342.809 3.33231 -3.67792 0
M  V30 3804 H 338.065 3.38703 -5.09009 0
M  V30 3805 H 342.239 3.4005 -6.07733 0
M  V30 3806 H 339.866 3.42342 -6.78753 0
M  V30 3807 N 341.441 0.965919 1.2453 0
M  V30 3808 C 342.69 0.622437 1.91856 0
M  V30 3809 C 343.003 -0.846006 1.76358 0
M  V30 3810 O 344.209 -1.29993 2.38357 0
M  V30 3811 C 342.665 1.0626 3.43856 0
M  V30 3812 C 342.273 2.55437 3.68043 0
M  V30 3813 C 344.017 0.792183 4.17043 0
M  V30 3814 C 341.924 2.93196 5.13605 0
M  V30 3815 H 340.854 0.229092 0.718354 0
M  V30 3816 H 343.505 1.17189 1.41206 0
M  V30 3817 H 341.887 0.441476 3.93531 0
M  V30 3818 H 343.061 3.22665 3.28974 0
M  V30 3819 H 341.376 2.8007 3.08139 0
M  V30 3820 H 343.973 1.05031 5.24283 0
M  V30 3821 H 344.316 -0.271584 4.15413 0
M  V30 3822 H 344.849 1.37419 3.73311 0
M  V30 3823 H 341.588 3.98636 5.20355 0
M  V30 3824 H 341.108 2.30651 5.53679 0
M  V30 3825 H 342.787 2.83004 5.81823 0
M  V30 3826 N 342.919 -1.39368 0.735821 0
M  V30 3827 C 344.168 -1.99733 0.281004 0
M  V30 3828 C 344.481 -1.59055 -1.13846 0
M  V30 3829 O 345.687 -2.12262 -1.69284 0
M  V30 3830 C 344.143 -3.57057 0.451462 0
M  V30 3831 C 343.751 -4.06697 1.87886 0
M  V30 3832 C 345.495 -4.2446 0.0584616 0
M  V30 3833 C 343.402 -5.56598 1.99883 0
M  V30 3834 H 342.332 -0.747163 0.101311 0
M  V30 3835 H 344.983 -1.59357 0.909819 0
M  V30 3836 H 343.365 -3.95234 -0.246263 0
M  V30 3837 H 344.539 -3.79853 2.60861 0
M  V30 3838 H 342.854 -3.5196 2.22515 0
M  V30 3839 H 345.451 -5.34549 0.127099 0
M  V30 3840 H 345.794 -4.04444 -0.986433 0
M  V30 3841 H 346.327 -3.9146 0.707374 0
M  V30 3842 H 343.066 -5.81494 3.02564 0
M  V30 3843 H 342.586 -5.85242 1.31346 0
M  V30 3844 H 344.265 -6.22022 1.78039 0
M  V30 3845 N 344.397 -0.483516 -1.5 0
M  V30 3846 C 345.329 0.340634 -2.26655 0
M  V30 3847 C 346.342 0.946152 -1.32483 0
M  V30 3848 O 347.531 0.832453 -1.579 0
M  V30 3849 C 344.631 1.4929 -3.04246 0
M  V30 3850 C 343.804 0.997903 -4.25865 0
M  V30 3851 C 342.863 2.02569 -4.85646 0
M  V30 3852 O 341.889 1.60128 -5.46212 0
M  V30 3853 N 343.091 3.3548 -4.73744 0
M  V30 3854 H 345.856 -0.316577 -2.98023 0
M  V30 3855 H 343.417 -0.315024 -1.58806 0
M  V30 3856 H 345.409 2.17766 -3.41116 0
M  V30 3857 H 343.979 2.05458 -2.35597 0
M  V30 3858 H 343.199 0.138617 -3.93956 0
M  V30 3859 H 344.487 0.645305 -5.04691 0
M  V30 3860 H 343.885 3.72661 -4.25605 0
M  V30 3861 H 342.442 3.99718 -5.14848 0
M  V30 3862 N 345.875 1.56104 -0.216619 0
M  V30 3863 C 346.785 2.23694 0.706982 0
M  V30 3864 C 347.801 1.24295 1.21765 0
M  V30 3865 O 348.977 1.57094 1.2603 0
M  V30 3866 C 346.042 2.8998 1.90033 0
M  V30 3867 C 345.103 4.04708 1.43213 0
M  V30 3868 C 344.336 4.67824 2.56859 0
M  V30 3869 O 344.559 4.29913 3.74874 0
M  V30 3870 O 343.493 5.56905 2.28343 0
M  V30 3871 H 347.319 3.03272 0.161235 0
M  V30 3872 H 344.904 1.49394 0.0136177 0
M  V30 3873 H 346.786 3.31837 2.59735 0
M  V30 3874 H 345.461 2.13365 2.43428 0
M  V30 3875 H 344.368 3.6743 0.70327 0
M  V30 3876 H 345.701 4.83051 0.944615 0
M  V30 3877 N 347.353 -0.0568162 1.57498 0
M  V30 3878 C 348.3 -1.06591 2.04712 0
M  V30 3879 C 349.27 -1.3758 0.930644 0
M  V30 3880 O 350.455 -1.48392 1.19935 0
M  V30 3881 C 347.595 -2.3701 2.50839 0
M  V30 3882 C 346.708 -2.12421 3.76167 0
M  V30 3883 C 345.843 -3.36511 4.11015 0
M  V30 3884 C 344.882 -3.07353 5.2934 0
M  V30 3885 N 344.019 -4.23816 5.59754 0
M  V30 3886 H 348.859 -0.65631 2.90683 0
M  V30 3887 H 346.396 -0.312481 1.43743 0
M  V30 3888 H 348.354 -3.13175 2.7564 0
M  V30 3889 H 346.984 -2.75744 1.67825 0
M  V30 3890 H 346.036 -1.2688 3.58616 0
M  V30 3891 H 347.348 -1.86894 4.62463 0
M  V30 3892 H 346.502 -4.21062 4.36797 0
M  V30 3893 H 345.241 -3.65128 3.23315 0
M  V30 3894 H 344.246 -2.212 5.03339 0
M  V30 3895 H 345.471 -2.80043 6.1867 0
M  V30 3896 H 343.417 -4.52436 4.75014 0
M  V30 3897 H 343.334 -4.01614 6.40501 0
M  V30 3898 H 344.602 -5.0932 5.90096 0
M  V30 3899 N 348.832 -1.54138 -0.328536 0
M  V30 3900 C 349.78 -1.83894 -1.42428 0
M  V30 3901 C 350.774 -0.710478 -1.53781 0
M  V30 3902 O 351.98 -0.894062 -1.56226 0
M  V30 3903 H 348.355 -0.582837 -0.475189 0
M  V30 3904 H 350.326 -2.75537 -1.14552 0
M  V30 3905 C 349.075 -2.07866 -2.78724 0
M  V30 3906 H 348.398 -2.94158 -2.7076 0
M  V30 3907 H 349.838 -2.32644 -3.54476 0
M  V30 3908 C 348.297 -0.868689 -3.25508 0
M  V30 3909 O 348.827 -0.0754908 -4.01629 0
M  V30 3910 N 347.033 -0.681711 -2.82491 0
M  V30 3911 H 346.58 -1.32838 -2.20708 0
M  V30 3912 H 346.538 0.126374 -3.14146 0
M  V30 3913 N 350.31 0.590341 -1.46126 0
M  V30 3914 C 351.258 1.72105 -1.5647 0
M  V30 3915 C 352.252 1.63756 -0.433612 0
M  V30 3916 O 353.458 1.69342 -0.610194 0
M  V30 3917 H 349.833 0.568889 -0.491802 0
M  V30 3918 H 351.804 1.6051 -2.51553 0
M  V30 3919 C 350.553 3.10493 -1.56491 0
M  V30 3920 H 349.876 3.17583 -2.4286 0
M  V30 3921 H 351.316 3.8939 -1.67785 0
M  V30 3922 C 349.775 3.3563 -0.292231 0
M  V30 3923 O 350.305 3.96875 0.620739 0
M  V30 3924 N 348.511 2.90026 -0.182523 0
M  V30 3925 H 348.058 2.40367 -0.926356 0
M  V30 3926 H 348.016 3.07218 0.668152 0
M  V30 3927 N 351.788 1.33704 0.83433 0
M  V30 3928 C 353.018 1.28281 1.6195 0
M  V30 3929 C 353.426 -0.147603 1.88623 0
M  V30 3930 O 352.769 -1.1016 1.47005 0
M  V30 3931 C 352.831 1.99386 2.99141 0
M  V30 3932 C 352.495 3.48681 2.95416 0
M  V30 3933 C 353.492 4.438 2.70809 0
M  V30 3934 C 351.177 3.90925 3.15409 0
M  V30 3935 C 353.171 5.79138 2.66229 0
M  V30 3936 C 350.858 5.26366 3.10454 0
M  V30 3937 C 351.856 6.20284 2.85895 0
M  V30 3938 O 351.544 7.53245 2.80852 0
M  V30 3939 H 351.276 0.44315 0.510484 0
M  V30 3940 H 353.83 1.76711 1.04702 0
M  V30 3941 H 352.06 1.45554 3.58261 0
M  V30 3942 H 353.749 1.87403 3.60049 0
M  V30 3943 H 354.515 4.12485 2.5511 0
M  V30 3944 H 350.394 3.18229 3.33543 0
M  V30 3945 H 353.938 6.52416 2.4698 0
M  V30 3946 H 349.835 5.57304 3.25703 0
M  V30 3947 H 350.603 7.62846 2.96661 0
M  V30 3948 N 353.266 -1.05314 1.17247 0
M  V30 3949 C 354.494 -1.81971 0.984593 0
M  V30 3950 C 354.909 -1.82929 -0.467166 0
M  V30 3951 O 354.266 -1.25564 -1.32438 0
M  V30 3952 C 354.317 -3.28143 1.51672 0
M  V30 3953 O 354.038 -3.27347 2.91163 0
M  V30 3954 C 355.539 -4.21493 1.37326 0
M  V30 3955 H 352.759 -0.573455 0.348411 0
M  V30 3956 H 355.303 -1.32808 1.55506 0
M  V30 3957 H 353.458 -3.74582 0.988302 0
M  V30 3958 H 353.872 -4.18824 3.15732 0
M  V30 3959 H 355.346 -5.22043 1.79375 0
M  V30 3960 H 355.823 -4.38031 0.320169 0
M  V30 3961 H 356.429 -3.80909 1.89178 0
M  V30 3962 N 354.744 -0.972509 -1.24016 0
M  V30 3963 C 355.691 -0.505969 -2.25186 0
M  V30 3964 C 356.661 0.451009 -1.5986 0
M  V30 3965 O 357.846 0.360307 -1.87367 0
M  V30 3966 C 354.986 0.193089 -3.44559 0
M  V30 3967 C 354.099 -0.803222 -4.24467 0
M  V30 3968 C 353.234 -0.0797793 -5.3114 0
M  V30 3969 C 352.273 -1.06583 -6.02749 0
M  V30 3970 N 351.41 -0.372074 -7.01113 0
M  V30 3971 H 356.25 -1.37351 -2.64459 0
M  V30 3972 H 353.787 -0.688419 -1.29997 0
M  V30 3973 H 355.745 0.615125 -4.1264 0
M  V30 3974 H 354.375 1.02455 -3.06109 0
M  V30 3975 H 353.427 -1.34368 -3.55878 0
M  V30 3976 H 354.739 -1.55494 -4.73944 0
M  V30 3977 H 353.893 0.400015 -6.0538 0
M  V30 3978 H 352.632 0.704597 -4.82583 0
M  V30 3979 H 351.637 -1.55645 -5.27309 0
M  V30 3980 H 352.862 -1.85074 -6.53395 0
M  V30 3981 H 350.808 0.393238 -6.5482 0
M  V30 3982 H 350.725 -1.06258 -7.48495 0
M  V30 3983 H 351.993 0.0855932 -7.79453 0
M  V30 3984 N 356.222 1.38976 -0.743202 0
M  V30 3985 C 357.499 1.94351 -0.220705 0
M  V30 3986 C 357.879 1.67935 1.2791 0
M  V30 3987 O 357.227 1.01211 2.04862 0
M  V30 3988 C 357.437 3.44426 -0.563171 0
M  V30 3989 C 358.785 4.2144 -0.517046 0
M  V30 3990 O 359.809 3.52661 -0.500846 0
M  V30 3991 O 358.668 5.44032 -0.518806 0
M  V30 3992 H 355.762 0.825879 -0.043047 0
M  V30 3993 H 358.308 1.48429 -0.822618 0
M  V30 3994 H 357.08 3.5712 -1.59941 0
M  V30 3995 H 356.703 3.97543 0.0672883 0
M  V30 3996 N 357.7 0.491464 1.49741 0
M  V30 3997 C 358.949 -0.0582189 2.01616 0
M  V30 3998 C 359.262 -1.38927 1.3769 0
M  V30 3999 O 360.468 -2.02509 1.80838 0
M  V30 4000 C 358.924 -0.154235 3.59569 0
M  V30 4001 C 358.532 1.1696 4.32463 0
M  V30 4002 C 360.276 -0.65479 4.1942 0
M  V30 4003 C 358.183 1.03627 5.8225 0
M  V30 4004 H 357.113 -0.0255317 0.753568 0
M  V30 4005 H 359.764 0.629445 1.72367 0
M  V30 4006 H 358.146 -0.906138 3.85493 0
M  V30 4007 H 359.32 1.93405 4.18248 0
M  V30 4008 H 357.635 1.60285 3.84315 0
M  V30 4009 H 360.232 -0.771903 5.29099 0
M  V30 4010 H 360.575 -1.65127 3.8215 0
M  V30 4011 H 361.108 0.040304 3.9778 0
M  V30 4012 H 357.847 2.00672 6.24028 0
M  V30 4013 H 357.367 0.312546 5.98985 0
M  V30 4014 H 359.046 0.711114 6.4308 0
M  V30 4015 N 359.178 -1.55987 0.224894 0
M  V30 4016 C 360.108 -2.23426 -0.678457 0
M  V30 4017 C 361.089 -1.20709 -1.19847 0
M  V30 4018 O 362.274 -1.49304 -1.24186 0
M  V30 4019 C 359.404 -2.91676 -1.88527 0
M  V30 4020 C 358.358 -4.00893 -1.49896 0
M  V30 4021 C 357.684 -4.56455 -2.78483 0
M  V30 4022 C 358.984 -5.17769 -0.686461 0
M  V30 4023 H 360.678 -2.99175 -0.116173 0
M  V30 4024 H 358.224 -1.43897 -0.054436 0
M  V30 4025 H 360.177 -3.37547 -2.5227 0
M  V30 4026 H 358.901 -2.1338 -2.47258 0
M  V30 4027 H 357.56 -3.55758 -0.884985 0
M  V30 4028 H 357.208 -3.74886 -3.35365 0
M  V30 4029 H 356.908 -5.30169 -2.53368 0
M  V30 4030 H 358.432 -5.05047 -3.43162 0
M  V30 4031 H 359.846 -5.60001 -1.22767 0
M  V30 4032 H 358.243 -5.97735 -0.532259 0
M  V30 4033 H 359.313 -4.83932 0.306196 0
M  V30 4034 N 360.656 0.0484629 -1.57525 0
M  V30 4035 C 361.905 0.742065 -1.87553 0
M  V30 4036 C 362.218 1.77545 -0.820802 0
M  V30 4037 O 363.424 2.52027 -1.00967 0
M  V30 4038 C 361.88 1.37081 -3.32771 0
M  V30 4039 C 361.488 0.374786 -4.4643 0
M  V30 4040 C 363.232 2.04542 -3.71972 0
M  V30 4041 C 361.139 1.01077 -5.82698 0
M  V30 4042 H 360.069 0.280903 -0.699721 0
M  V30 4043 H 362.72 -0.00411877 -1.835 0
M  V30 4044 H 361.102 2.16605 -3.31509 0
M  V30 4045 H 362.276 -0.392331 -4.59127 0
M  V30 4046 H 360.591 -0.196653 -4.15935 0
M  V30 4047 H 363.188 2.52943 -4.71088 0
M  V30 4048 H 363.531 2.85515 -3.02964 0
M  V30 4049 H 364.064 1.31819 -3.75325 0
M  V30 4050 H 360.803 0.240878 -6.55057 0
M  V30 4051 H 360.323 1.74819 -5.73758 0
M  V30 4052 H 362.002 1.52383 -6.28799 0
M  V30 4053 N 362.134 1.5431 0.320358 0
M  V30 4054 C 363.545 1.63872 0.894594 0
M  V30 4055 C 363.896 0.534847 1.88769 0
M  V30 4056 O 363.021 -0.331732 2.13842 0
M  V30 4057 C 363.616 2.97049 1.62934 0
M  V30 4058 C 362.175 3.08796 2.15226 0
M  V30 4059 C 361.322 2.59456 0.978671 0
M  V30 4060 H 364.273 1.58398 0.0978544 0
M  V30 4061 H 364.294 2.87388 2.49376 0
M  V30 4062 H 363.806 3.7737 0.906302 0
M  V30 4063 H 361.907 2.33156 2.90636 0
M  V30 4064 H 362.02 4.14649 2.40006 0
M  V30 4065 H 360.384 2.1543 1.35875 0
M  V30 4066 H 361.167 3.42237 0.269895 0
M  V30 4067 N 363.613 -0.582584 1.46437 0
M  V30 4068 C 364.838 -1.37168 1.55563 0
M  V30 4069 C 365.263 -1.87061 0.19743 0
M  V30 4070 O 364.621 -1.61572 -0.822451 0
M  V30 4071 C 364.669 -2.53511 2.56446 0
M  V30 4072 O 363.773 -3.54953 2.09958 0
M  V30 4073 H 363.114 -0.408494 0.523477 0
M  V30 4074 H 365.644 -0.706646 1.9201 0
M  V30 4075 H 365.654 -3.00426 2.76058 0
M  V30 4076 H 364.329 -2.16549 3.55076 0
M  V30 4077 H 362.906 -3.14516 2.00334 0
M  V30 4078 N 365.091 -1.34144 -0.827227 0
M  V30 4079 C 366.316 -1.29476 -1.62021 0
M  V30 4080 C 366.741 0.129292 -1.87655 0
M  V30 4081 O 366.099 1.08967 -1.449 0
M  V30 4082 C 366.147 -2.08702 -2.94068 0
M  V30 4083 O 365.251 -1.45359 -3.85933 0
M  V30 4084 H 364.592 -0.444881 -0.492927 0
M  V30 4085 H 367.122 -1.76882 -1.02829 0
M  V30 4086 H 367.132 -2.19898 -3.43669 0
M  V30 4087 H 365.807 -3.12241 -2.74734 0
M  V30 4088 H 364.384 -1.42879 -3.44442 0
M  V30 4089 N 366.569 1.04691 -1.17803 0
M  V30 4090 C 367.479 2.16057 -0.914151 0
M  V30 4091 C 368.495 1.73589 0.119503 0
M  V30 4092 O 369.671 2.01308 -0.0609468 0
M  V30 4093 C 366.736 3.4394 -0.436603 0
M  V30 4094 C 365.797 4.00825 -1.53746 0
M  V30 4095 C 365.03 5.22604 -1.0826 0
M  V30 4096 O 365.253 5.70367 0.0612244 0
M  V30 4097 O 364.187 5.7186 -1.87775 0
M  V30 4098 H 368.013 2.41169 -1.84584 0
M  V30 4099 H 365.598 1.1453 -0.959334 0
M  V30 4100 H 367.48 4.21024 -0.178057 0
M  V30 4101 H 366.155 3.20316 0.466869 0
M  V30 4102 H 365.062 3.25158 -1.84995 0
M  V30 4103 H 366.395 4.28778 -2.41683 0
M  V30 4104 N 368.047 0.979072 1.23499 0
M  V30 4105 C 369.01 0.523244 2.23147 0
M  V30 4106 C 370.01 -0.386406 1.56088 0
M  V30 4107 O 371.2 -0.180283 1.73265 0
M  V30 4108 C 368.332 -0.240739 3.40049 0
M  V30 4109 H 369.525 1.40432 2.64989 0
M  V30 4110 H 367.078 0.764824 1.36309 0
M  V30 4111 H 367.813 -1.13841 3.03662 0
M  V30 4112 H 367.598 0.412207 3.89927 0
M  V30 4113 H 369.088 -0.548297 4.13985 0
M  V30 4114 N 369.525 -1.3858 0.750561 0
M  V30 4115 C 370.755 -2.04175 0.31564 0
M  V30 4116 C 371.163 -1.56726 -1.05989 0
M  V30 4117 O 370.506 -0.734225 -1.68389 0
M  V30 4118 C 370.568 -3.58585 0.256389 0
M  V30 4119 C 370.232 -4.29077 1.57296 0
M  V30 4120 C 371.229 -4.54656 2.52159 0
M  V30 4121 C 368.914 -4.67324 1.84156 0
M  V30 4122 C 370.908 -5.17512 3.72103 0
M  V30 4123 C 368.595 -5.29905 3.04374 0
M  V30 4124 C 369.593 -5.54933 3.98168 0
M  V30 4125 O 369.281 -6.16212 5.16273 0
M  V30 4126 H 369.013 -0.662742 0.133226 0
M  V30 4127 H 371.567 -1.78313 1.01948 0
M  V30 4128 H 369.797 -3.83406 -0.503677 0
M  V30 4129 H 371.486 -4.05628 -0.148612 0
M  V30 4130 H 372.252 -4.25539 2.32683 0
M  V30 4131 H 368.131 -4.47191 1.11988 0
M  V30 4132 H 371.675 -5.36963 4.45327 0
M  V30 4133 H 367.572 -5.58444 3.23745 0
M  V30 4134 H 368.34 -6.34701 5.16815 0
M  V30 4135 N 371.003 -0.499398 -1.49478 0
M  V30 4136 C 372.251 0.0455996 -2.02049 0
M  V30 4137 C 372.572 1.37633 -1.38138 0
M  V30 4138 O 371.842 1.8842 -0.536166 0
M  V30 4139 H 370.422 0.0198416 -0.746736 0
M  V30 4140 H 373.084 -0.656274 -1.83519 0
M  V30 4141 H 372.18 0.176445 -3.11601 0
M  V30 4142 N 372.481 1.55866 -0.233164 0
M  V30 4143 C 373.428 2.20796 0.67215 0
M  V30 4144 C 374.398 1.16731 1.18166 0
M  V30 4145 O 375.583 1.45129 1.23864 0
M  V30 4146 C 372.723 2.90072 1.86955 0
M  V30 4147 C 371.836 4.08759 1.39786 0
M  V30 4148 C 370.971 4.65787 2.55374 0
M  V30 4149 C 370.01 5.76752 2.04998 0
M  V30 4150 N 369.147 6.28021 3.13901 0
M  V30 4151 H 373.987 2.9779 0.111749 0
M  V30 4152 H 371.524 1.47036 0.0434007 0
M  V30 4153 H 373.482 3.28428 2.57276 0
M  V30 4154 H 372.112 2.15575 2.40265 0
M  V30 4155 H 371.164 3.7581 0.589173 0
M  V30 4156 H 372.476 4.88906 0.98856 0
M  V30 4157 H 371.63 5.06646 3.33758 0
M  V30 4158 H 370.369 3.84828 2.99598 0
M  V30 4159 H 369.374 5.35383 1.25079 0
M  V30 4160 H 370.599 6.59553 1.61759 0
M  V30 4161 H 368.545 5.49971 3.57586 0
M  V30 4162 H 368.462 7.03323 2.7726 0
M  V30 4163 H 369.73 6.73538 3.92386 0
M  V30 4164 N 373.959 -0.0401083 1.57549 0
M  V30 4165 C 375.206 -0.733125 1.88763 0
M  V30 4166 C 375.534 -1.75946 0.829058 0
M  V30 4167 O 374.789 -1.94949 -0.171323 0
M  V30 4168 C 375.088 -1.44902 3.26708 0
M  V30 4169 C 374.754 -0.559707 4.47413 0
M  V30 4170 C 373.416 -0.314731 4.8017 0
M  V30 4171 C 375.768 0.0549743 5.21171 0
M  V30 4172 C 373.096 0.553886 5.8408 0
M  V30 4173 C 375.448 0.911229 6.26003 0
M  V30 4174 C 374.112 1.16577 6.57241 0
M  V30 4175 H 373.382 -0.268269 0.690733 0
M  V30 4176 H 376.029 0.00679408 1.91499 0
M  V30 4177 H 374.334 -2.26197 3.1991 0
M  V30 4178 H 376.031 -1.99058 3.48105 0
M  V30 4179 H 372.621 -0.760793 4.21794 0
M  V30 4180 H 376.805 -0.121344 4.96152 0
M  V30 4181 H 372.061 0.759518 6.06664 0
M  V30 4182 H 376.235 1.3941 6.82303 0
M  V30 4183 H 373.862 1.84058 7.37582 0
M  V30 4184 N 375.437 -1.54477 -0.31217 0
M  V30 4185 C 376.662 -1.77526 -1.07235 0
M  V30 4186 C 377.087 -0.527775 -1.80544 0
M  V30 4187 O 376.445 0.52121 -1.73646 0
M  V30 4188 C 376.493 -2.97535 -2.03728 0
M  V30 4189 O 375.597 -2.69878 -3.11833 0
M  V30 4190 H 374.938 -0.58792 -0.30862 0
M  V30 4191 H 377.468 -2.01532 -0.352993 0
M  V30 4192 H 377.478 -3.25198 -2.46395 0
M  V30 4193 H 376.153 -3.87996 -1.49774 0
M  V30 4194 H 374.73 -2.53199 -2.7376 0
M  V30 4195 N 376.915 0.57481 -1.46744 0
M  V30 4196 C 377.862 1.68329 -1.57905 0
M  V30 4197 C 378.832 1.60625 -0.422927 0
M  V30 4198 O 380.017 1.79721 -0.640711 0
M  V30 4199 C 377.157 3.06665 -1.58274 0
M  V30 4200 C 376.27 3.24935 -2.84678 0
M  V30 4201 C 375.405 4.53566 -2.76499 0
M  V30 4202 C 374.444 4.65207 -3.97806 0
M  V30 4203 N 373.581 5.85172 -3.87967 0
M  V30 4204 H 378.421 1.58127 -2.52587 0
M  V30 4205 H 375.958 0.770552 -1.25303 0
M  V30 4206 H 377.916 3.86745 -1.56473 0
M  V30 4207 H 376.546 3.15745 -0.671194 0
M  V30 4208 H 375.598 2.38405 -2.96424 0
M  V30 4209 H 376.91 3.29403 -3.7456 0
M  V30 4210 H 376.064 5.41885 -2.72848 0
M  V30 4211 H 374.803 4.51548 -1.8427 0
M  V30 4212 H 373.808 3.75304 -4.0178 0
M  V30 4213 H 375.033 4.68997 -4.9114 0
M  V30 4214 H 372.979 5.84137 -2.98529 0
M  V30 4215 H 372.896 5.90943 -4.71511 0
M  V30 4216 H 374.164 6.759 -3.88303 0
M  V30 4217 N 378.394 1.34581 0.820102 0
M  V30 4218 C 379.342 1.26401 1.95258 0
M  V30 4219 C 380.336 0.161553 1.68628 0
M  V30 4220 O 381.542 0.326703 1.7701 0
M  V30 4221 H 377.917 0.392749 0.64129 0
M  V30 4222 H 379.888 2.22105 1.99279 0
M  V30 4223 C 378.637 1.03919 3.31807 0
M  V30 4224 H 377.96 1.87984 3.52848 0
M  V30 4225 H 379.4 1.02232 4.11491 0
M  V30 4226 C 377.859 -0.257433 3.35915 0
M  V30 4227 O 378.389 -1.25784 3.81499 0
M  V30 4228 N 376.595 -0.291524 2.89134 0
M  V30 4229 H 376.142 0.523161 2.52232 0
M  V30 4230 H 376.1 -1.15883 2.92264 0
M  V30 4231 N 379.872 -1.04064 1.18357 0
M  V30 4232 C 381.121 -1.76662 0.973313 0
M  V30 4233 C 381.434 -1.89154 -0.497991 0
M  V30 4234 O 382.64 -2.58606 -0.826762 0
M  V30 4235 C 381.096 -3.17624 1.69242 0
M  V30 4236 C 380.704 -3.13225 3.20303 0
M  V30 4237 C 382.448 -3.946 1.56497 0
M  V30 4238 C 380.355 -4.49046 3.84853 0
M  V30 4239 H 379.285 -0.662214 0.36054 0
M  V30 4240 H 381.936 -1.16553 1.41731 0
M  V30 4241 H 380.318 -3.78129 1.1762 0
M  V30 4242 H 381.492 -2.62172 3.78949 0
M  V30 4243 H 379.807 -2.49749 3.33189 0
M  V30 4244 H 382.404 -4.95042 2.02084 0
M  V30 4245 H 382.747 -4.13074 0.517243 0
M  V30 4246 H 383.28 -3.4067 2.05399 0
M  V30 4247 H 380.019 -4.35777 4.89672 0
M  V30 4248 H 379.539 -5.00203 3.30994 0
M  V30 4249 H 381.218 -5.17961 3.87718 0
M  V30 4250 N 381.35 -0.985608 -1.22978 0
M  V30 4251 C 382.298 -0.522631 -2.26652 0
M  V30 4252 C 383.292 0.422998 -1.64034 0
M  V30 4253 O 384.498 0.296319 -1.77544 0
M  V30 4254 H 380.873 -0.150597 -0.736766 0
M  V30 4255 H 382.844 -1.40863 -2.63059 0
M  V30 4256 C 381.593 0.154238 -3.47358 0
M  V30 4257 H 380.916 -0.564329 -3.95797 0
M  V30 4258 H 382.356 0.441744 -4.21693 0
M  V30 4259 C 380.815 1.38719 -3.07016 0
M  V30 4260 O 381.345 2.48307 -3.15764 0
M  V30 4261 N 379.551 1.25975 -2.61875 0
M  V30 4262 H 379.098 0.368068 -2.54957 0
M  V30 4263 H 379.056 2.08578 -2.3525 0
M  V30 4264 N 382.828 1.3818 -0.7579 0
M  V30 4265 C 384.075 2.00019 -0.315985 0
M  V30 4266 C 384.403 1.60163 1.10355 0
M  V30 4267 O 383.658 0.83264 1.77103 0
M  V30 4268 C 383.957 3.55252 -0.391218 0
M  V30 4269 C 383.623 4.14834 -1.76702 0
M  V30 4270 C 382.285 4.30821 -2.14353 0
M  V30 4271 C 384.637 4.47658 -2.66931 0
M  V30 4272 C 381.965 4.76928 -3.41696 0
M  V30 4273 C 384.317 4.95184 -3.93669 0
M  V30 4274 C 382.981 5.09377 -4.31383 0
M  V30 4275 H 382.251 0.731923 -0.115627 0
M  V30 4276 H 384.898 1.65161 -0.969223 0
M  V30 4277 H 383.203 3.90273 0.34558 0
M  V30 4278 H 384.9 4.00988 -0.030805 0
M  V30 4279 H 381.49 4.02808 -1.46435 0
M  V30 4280 H 385.674 4.34904 -2.39106 0
M  V30 4281 H 380.93 4.86103 -3.70829 0
M  V30 4282 H 385.104 5.19551 -4.63724 0
M  V30 4283 H 382.731 5.44865 -5.30119 0
M  V30 4284 N 384.306 0.507319 1.49211 0
M  V30 4285 C 385.253 -0.267728 2.29242 0
M  V30 4286 C 386.223 -0.954609 1.35928 0
M  V30 4287 O 387.408 -0.960046 1.64887 0
M  V30 4288 C 384.548 -1.32243 3.18756 0
M  V30 4289 C 383.661 -0.64669 4.27132 0
M  V30 4290 C 382.796 -1.68238 5.03855 0
M  V30 4291 C 381.835 -0.98885 6.0406 0
M  V30 4292 N 380.972 -1.96903 6.73924 0
M  V30 4293 H 385.812 0.420968 2.95012 0
M  V30 4294 H 383.349 0.219443 1.45454 0
M  V30 4295 H 385.307 -1.94599 3.69036 0
M  V30 4296 H 383.937 -1.97981 2.54958 0
M  V30 4297 H 382.989 0.0902926 3.80293 0
M  V30 4298 H 384.301 -0.101058 4.98698 0
M  V30 4299 H 383.455 -2.38081 5.58034 0
M  V30 4300 H 382.194 -2.26187 4.32077 0
M  V30 4301 H 381.199 -0.276222 5.49106 0
M  V30 4302 H 382.424 -0.415767 6.77826 0
M  V30 4303 H 380.37 -2.53803 6.04913 0
M  V30 4304 H 380.287 -1.47423 7.41487 0
M  V30 4305 H 381.555 -2.66015 7.32705 0
M  V30 4306 N 385.784 -1.5574 0.241426 0
M  V30 4307 C 386.731 -2.21149 -0.660432 0
M  V30 4308 C 387.701 -1.17356 -1.17545 0
M  V30 4309 O 388.886 -1.45784 -1.23093 0
M  V30 4310 C 386.026 -2.91059 -1.85414 0
M  V30 4311 C 385.139 -4.09495 -1.37616 0
M  V30 4312 C 384.274 -4.67135 -2.529 0
M  V30 4313 C 383.313 -5.77831 -2.01936 0
M  V30 4314 N 382.45 -6.29677 -3.10566 0
M  V30 4315 H 387.29 -2.97845 -0.095955 0
M  V30 4316 H 384.827 -1.47057 -0.0356024 0
M  V30 4317 H 386.785 -3.29788 -2.5553 0
M  V30 4318 H 385.415 -2.16846 -2.39118 0
M  V30 4319 H 384.467 -3.76117 -0.569235 0
M  V30 4320 H 385.779 -4.89423 -0.962618 0
M  V30 4321 H 384.933 -5.08409 -3.31067 0
M  V30 4322 H 383.672 -3.86411 -2.97553 0
M  V30 4323 H 382.677 -5.36039 -1.22238 0
M  V30 4324 H 383.902 -6.60402 -1.58259 0
M  V30 4325 H 381.848 -5.5186 -3.54664 0
M  V30 4326 H 381.765 -7.04783 -2.73526 0
M  V30 4327 H 383.033 -6.75609 -3.88809 0
M  V30 4328 N 387.262 0.0317525 -1.57568 0
M  V30 4329 C 388.511 0.722131 -1.8833 0
M  V30 4330 C 388.824 1.76664 -0.839587 0
M  V30 4331 O 390.03 2.50942 -1.03635 0
M  V30 4332 C 388.486 1.33544 -3.34207 0
M  V30 4333 C 388.094 0.327415 -4.46802 0
M  V30 4334 C 389.838 2.00585 -3.7412 0
M  V30 4335 C 387.745 0.948915 -5.83738 0
M  V30 4336 H 386.675 0.273466 -0.702661 0
M  V30 4337 H 389.326 -0.0235811 -1.83485 0
M  V30 4338 H 387.708 2.13077 -3.33788 0
M  V30 4339 H 388.882 -0.441006 -4.58685 0
M  V30 4340 H 387.197 -0.240758 -4.15703 0
M  V30 4341 H 389.794 2.47932 -4.73744 0
M  V30 4342 H 390.137 2.82285 -3.05975 0
M  V30 4343 H 390.67 1.27831 -3.76702 0
M  V30 4344 H 387.409 0.171387 -6.55276 0
M  V30 4345 H 386.929 1.68724 -5.7558 0
M  V30 4346 H 388.608 1.45705 -6.3038 0
M  V30 4347 N 388.74 1.54641 0.303973 0
M  V30 4348 C 389.687 1.85386 1.37479 0
M  V30 4349 C 390.657 0.702528 1.50512 0
M  V30 4350 O 391.842 0.950867 1.65418 0
M  V30 4351 C 388.982 2.10413 2.73533 0
M  V30 4352 C 388.095 3.38049 2.68974 0
M  V30 4353 C 387.23 3.52934 3.97002 0
M  V30 4354 C 386.269 4.74373 3.86829 0
M  V30 4355 N 385.406 4.8608 5.06627 0
M  V30 4356 H 390.246 2.76732 1.1056 0
M  V30 4357 H 387.783 1.37034 0.534805 0
M  V30 4358 H 389.741 2.22919 3.52652 0
M  V30 4359 H 388.371 1.22338 2.98719 0
M  V30 4360 H 387.423 3.3418 1.81736 0
M  V30 4361 H 388.735 4.27288 2.57346 0
M  V30 4362 H 387.889 3.65088 4.84557 0
M  V30 4363 H 386.628 2.61824 4.1146 0
M  V30 4364 H 385.633 4.62255 2.97658 0
M  V30 4365 H 386.858 5.66888 3.73918 0
M  V30 4366 H 384.804 3.97891 5.21554 0
M  V30 4367 H 384.721 5.69315 4.9741 0
M  V30 4368 H 385.989 5.02587 5.95841 0
M  V30 4369 N 390.218 -0.567019 1.47046 0
M  V30 4370 C 391.467 -1.32091 1.5243 0
M  V30 4371 C 391.78 -1.94704 0.187021 0
M  V30 4372 O 392.986 -2.7124 0.118771 0
M  V30 4373 C 391.442 -2.39479 2.68659 0
M  V30 4374 C 391.05 -1.831 4.08874 0
M  V30 4375 C 392.794 -3.16111 2.83327 0
M  V30 4376 C 390.701 -2.8821 5.16419 0
M  V30 4377 H 389.631 -0.496629 0.56734 0
M  V30 4378 H 392.282 -0.603354 1.73297 0
M  V30 4379 H 390.664 -3.14105 2.41152 0
M  V30 4380 H 391.838 -1.14913 4.46242 0
M  V30 4381 H 390.153 -1.19085 3.99008 0
M  V30 4382 H 392.75 -3.94585 3.60842 0
M  V30 4383 H 393.093 -3.69686 1.91411 0
M  V30 4384 H 393.626 -2.48595 3.10556 0
M  V30 4385 H 390.365 -2.39504 6.10179 0
M  V30 4386 H 389.885 -3.54839 4.8358 0
M  V30 4387 H 391.564 -3.51881 5.42945 0
M  V30 4388 N 391.696 -1.35014 -0.812953 0
M  V30 4389 C 392.643 -1.27412 -1.92444 0
M  V30 4390 C 393.613 -0.14733 -1.65445 0
M  V30 4391 O 394.798 -0.329974 -1.87925 0
M  V30 4392 C 391.938 -1.04558 -3.28879 0
M  V30 4393 C 391.051 -2.26101 -3.68106 0
M  V30 4394 C 390.186 -1.96449 -4.9354 0
M  V30 4395 C 389.225 -3.14081 -5.25376 0
M  V30 4396 N 388.362 -2.84246 -6.41988 0
M  V30 4397 H 393.202 -2.22463 -1.98278 0
M  V30 4398 H 390.739 -1.10593 -0.969933 0
M  V30 4399 H 392.697 -0.893413 -4.07522 0
M  V30 4400 H 391.327 -0.131719 -3.22531 0
M  V30 4401 H 390.379 -2.52204 -2.84775 0
M  V30 4402 H 391.691 -3.13959 -3.87597 0
M  V30 4403 H 390.845 -1.78026 -5.79993 0
M  V30 4404 H 389.584 -1.05867 -4.76071 0
M  V30 4405 H 388.589 -3.33089 -4.37415 0
M  V30 4406 H 389.814 -4.05455 -5.44778 0
M  V30 4407 H 387.76 -1.96252 -6.25956 0
M  V30 4408 H 387.677 -3.65637 -6.61699 0
M  V30 4409 H 388.945 -2.6935 -7.31485 0
M  V30 4410 N 393.175 1.03435 -1.18907 0
M  V30 4411 C 394.085 2.15075 -0.937015 0
M  V30 4412 C 395.101 1.73706 0.101085 0
M  V30 4413 O 396.277 2.01232 -0.0822948 0
M  V30 4414 C 393.342 3.43458 -0.473057 0
M  V30 4415 C 392.403 3.99172 -1.57989 0
M  V30 4416 C 391.636 5.21427 -1.13797 0
M  V30 4417 O 391.859 5.704 0.000725941 0
M  V30 4418 O 390.793 5.69837 -1.9383 0
M  V30 4419 H 394.619 2.39198 -1.87131 0
M  V30 4420 H 392.204 1.13506 -0.971427 0
M  V30 4421 H 394.086 4.20811 -0.222702 0
M  V30 4422 H 392.761 3.20793 0.432869 0
M  V30 4423 H 391.668 3.23178 -1.88433 0
M  V30 4424 H 393.001 4.2619 -2.46217 0
M  V30 4425 N 394.653 0.992116 1.22453 0
M  V30 4426 C 395.601 0.534644 2.26372 0
M  V30 4427 C 396.595 -0.414293 1.64256 0
M  V30 4428 O 397.801 -0.286899 1.77699 0
M  V30 4429 H 394.176 0.154502 0.735957 0
M  V30 4430 H 396.147 1.42256 2.62309 0
M  V30 4431 C 394.896 -0.135815 3.47435 0
M  V30 4432 H 394.219 0.585311 3.95492 0
M  V30 4433 H 395.659 -0.419374 4.21921 0
M  V30 4434 C 394.118 -1.37089 3.07747 0
M  V30 4435 O 394.648 -2.46629 3.17076 0
M  V30 4436 N 392.854 -1.24585 2.62539 0
M  V30 4437 H 392.401 -0.354542 2.55149 0
M  V30 4438 H 392.359 -2.07327 2.36353 0
M  V30 4439 N 396.131 -1.37776 0.765217 0
M  V30 4440 C 397.38 -1.99092 0.323307 0
M  V30 4441 C 397.693 -1.61434 -1.10446 0
M  V30 4442 O 398.899 -2.15805 -1.64743 0
M  V30 4443 C 397.355 -3.56019 0.527098 0
M  V30 4444 C 396.963 -4.0262 1.96471 0
M  V30 4445 C 398.707 -4.2424 0.148483 0
M  V30 4446 C 396.614 -5.52233 2.11644 0
M  V30 4447 H 395.544 -0.744846 0.117137 0
M  V30 4448 H 398.195 -1.57391 0.943417 0
M  V30 4449 H 396.577 -3.95667 -0.162372 0
M  V30 4450 H 397.751 -3.74234 2.68859 0
M  V30 4451 H 396.066 -3.47161 2.29931 0
M  V30 4452 H 398.663 -5.34159 0.240456 0
M  V30 4453 H 399.006 -4.06446 -0.900422 0
M  V30 4454 H 399.539 -3.89872 0.79025 0
M  V30 4455 H 396.278 -5.74945 3.1483 0
M  V30 4456 H 395.798 -5.82324 1.4373 0
M  V30 4457 H 397.477 -6.18106 1.91193 0
M  V30 4458 N 397.609 -0.515225 -1.4894 0
M  V30 4459 C 398.839 0.0205735 -2.0659 0
M  V30 4460 C 399.247 1.30064 -1.37405 0
M  V30 4461 O 398.59 1.78087 -0.450632 0
M  V30 4462 C 398.652 0.330124 -3.57981 0
M  V30 4463 C 398.316 -0.854295 -4.48944 0
M  V30 4464 C 399.313 -1.7487 -4.89609 0
M  V30 4465 C 396.998 -1.05712 -4.9105 0
M  V30 4466 C 398.992 -2.82996 -5.71132 0
M  V30 4467 C 396.679 -2.14154 -5.72347 0
M  V30 4468 C 397.677 -3.0263 -6.12294 0
M  V30 4469 O 397.365 -4.09198 -6.91962 0
M  V30 4470 H 397.097 -0.0236833 -0.675585 0
M  V30 4471 H 399.651 -0.715956 -1.92518 0
M  V30 4472 H 397.881 1.12044 -3.70112 0
M  V30 4473 H 399.57 0.806233 -3.97812 0
M  V30 4474 H 400.336 -1.60388 -4.57712 0
M  V30 4475 H 396.215 -0.377788 -4.59449 0
M  V30 4476 H 399.759 -3.52083 -6.02232 0
M  V30 4477 H 395.656 -2.28626 -6.03656 0
M  V30 4478 H 396.424 -4.06726 -7.10293 0
M  V30 4479 N 399.087 1.5561 -0.249682 0
M  V30 4480 C 400.317 2.03116 0.377803 0
M  V30 4481 C 400.725 1.12822 1.51881 0
M  V30 4482 O 400.068 0.13562 1.83199 0
M  V30 4483 C 400.13 3.46866 0.944693 0
M  V30 4484 C 399.794 4.56955 -0.0644259 0
M  V30 4485 C 400.791 5.12485 -0.874957 0
M  V30 4486 C 398.476 5.01936 -0.19132 0
M  V30 4487 C 400.47 6.11491 -1.79881 0
M  V30 4488 C 398.157 6.00773 -1.11868 0
M  V30 4489 C 399.155 6.5543 -1.92095 0
M  V30 4490 O 398.843 7.5234 -2.83267 0
M  V30 4491 H 398.575 0.669489 0.0935961 0
M  V30 4492 H 401.129 2.02004 -0.371966 0
M  V30 4493 H 399.359 3.45136 1.74407 0
M  V30 4494 H 401.048 3.77856 1.48255 0
M  V30 4495 H 401.814 4.78564 -0.787523 0
M  V30 4496 H 397.693 4.59055 0.423072 0
M  V30 4497 H 401.237 6.54078 -2.42543 0
M  V30 4498 H 397.134 6.34114 -1.20703 0
M  V30 4499 H 397.902 7.69966 -2.7766 0
M  V30 4500 N 400.565 -0.0233959 1.57583 0
M  V30 4501 C 401.512 -1.02224 2.06927 0
M  V30 4502 C 402.482 -1.35575 0.959617 0
M  V30 4503 O 403.667 -1.45815 1.23055 0
M  V30 4504 C 400.807 -2.31636 2.5581 0
M  V30 4505 C 399.92 -2.04394 3.80588 0
M  V30 4506 C 399.055 -3.27717 4.18061 0
M  V30 4507 C 398.094 -2.96056 5.3574 0
M  V30 4508 N 397.231 -4.11847 5.68618 0
M  V30 4509 H 402.071 -0.594504 2.9201 0
M  V30 4510 H 399.608 -0.281921 1.44373 0
M  V30 4511 H 401.566 -3.07258 2.82221 0
M  V30 4512 H 400.196 -2.72122 1.73636 0
M  V30 4513 H 399.248 -1.19244 3.61227 0
M  V30 4514 H 400.56 -1.77042 4.66323 0
M  V30 4515 H 399.714 -4.11702 4.4563 0
M  V30 4516 H 398.453 -3.58188 3.30988 0
M  V30 4517 H 397.458 -2.10474 5.07918 0
M  V30 4518 H 398.683 -2.66857 6.24471 0
M  V30 4519 H 396.629 -4.42258 4.84504 0
M  V30 4520 H 396.546 -3.87938 6.48876 0
M  V30 4521 H 397.814 -4.96689 6.00766 0
M  V30 4522 N 402.043 -1.548 -0.295768 0
M  V30 4523 C 402.973 -1.89115 -1.36959 0
M  V30 4524 C 403.954 -0.75059 -1.52644 0
M  V30 4525 O 405.139 -1.00678 -1.66065 0
M  V30 4526 C 402.269 -2.14307 -2.73295 0
M  V30 4527 C 401.223 -3.30151 -2.72368 0
M  V30 4528 C 400.549 -3.40772 -4.12042 0
M  V30 4529 C 401.849 -4.67126 -2.33646 0
M  V30 4530 H 403.543 -2.79053 -1.08488 0
M  V30 4531 H 401.089 -1.34266 -0.520443 0
M  V30 4532 H 403.042 -2.36898 -3.48507 0
M  V30 4533 H 401.766 -1.21145 -3.03301 0
M  V30 4534 H 400.425 -3.0749 -1.99613 0
M  V30 4535 H 400.073 -2.45117 -4.39234 0
M  V30 4536 H 399.773 -4.18645 -4.12322 0
M  V30 4537 H 401.297 -3.6563 -4.89027 0
M  V30 4538 H 402.711 -4.89414 -2.98575 0
M  V30 4539 H 401.108 -5.47751 -2.45129 0
M  V30 4540 H 402.178 -4.67489 -1.28772 0
M  V30 4541 N 403.521 0.559213 -1.47345 0
M  V30 4542 C 404.77 1.31281 -1.53128 0
M  V30 4543 C 405.083 1.94602 -0.197344 0
M  V30 4544 O 406.289 2.71173 -0.133154 0
M  V30 4545 C 404.745 2.38051 -2.69925 0
M  V30 4546 C 404.353 1.8093 -4.0984 0
M  V30 4547 C 406.097 3.14604 -2.84999 0
M  V30 4548 C 404.004 2.85468 -5.1794 0
M  V30 4549 H 402.934 0.493614 -0.569966 0
M  V30 4550 H 405.585 0.594155 -1.73615 0
M  V30 4551 H 403.967 3.12822 -2.42814 0
M  V30 4552 H 405.141 1.12544 -4.46845 0
M  V30 4553 H 403.456 1.16967 -3.99634 0
M  V30 4554 H 406.053 3.92666 -3.62929 0
M  V30 4555 H 406.396 3.68665 -1.93369 0
M  V30 4556 H 406.929 2.46945 -3.1187 0
M  V30 4557 H 403.668 2.36264 -6.1144 0
M  V30 4558 H 403.188 3.52269 -4.85455 0
M  V30 4559 H 404.867 3.48996 -5.44803 0
M  V30 4560 N 404.999 1.35443 0.805782 0
M  V30 4561 C 405.946 1.28431 1.91766 0
M  V30 4562 C 406.916 0.156102 1.65365 0
M  V30 4563 O 408.101 0.339936 1.87747 0
M  V30 4564 C 405.241 1.06301 3.2832 0
M  V30 4565 C 404.354 2.2805 3.66902 0
M  V30 4566 C 403.489 1.99064 4.92491 0
M  V30 4567 C 402.528 3.16863 5.23703 0
M  V30 4568 N 401.665 2.87647 6.40471 0
M  V30 4569 H 406.505 2.23511 1.97096 0
M  V30 4570 H 404.042 1.11105 0.964054 0
M  V30 4571 H 406 0.915012 4.07042 0
M  V30 4572 H 404.63 0.148822 3.22457 0
M  V30 4573 H 403.682 2.53711 2.83434 0
M  V30 4574 H 404.994 3.1601 3.85927 0
M  V30 4575 H 404.148 1.81099 5.7904 0
M  V30 4576 H 402.887 1.0839 4.75503 0
M  V30 4577 H 401.892 3.35404 4.35642 0
M  V30 4578 H 403.117 4.08339 5.4262 0
M  V30 4579 H 401.063 1.99568 6.24907 0
M  V30 4580 H 400.98 3.69141 6.59751 0
M  V30 4581 H 402.248 2.73226 7.30047 0
M  V30 4582 N 406.477 -1.02803 1.19454 0
M  V30 4583 C 407.754 -1.73299 0.907013 0
M  V30 4584 C 408.134 -2.02772 -0.587086 0
M  V30 4585 O 407.482 -1.68304 -1.54551 0
M  V30 4586 C 407.692 -3.00912 1.76785 0
M  V30 4587 C 409.04 -3.74403 2.00268 0
M  V30 4588 O 410.064 -3.10841 1.73943 0
M  V30 4589 O 408.923 -4.88675 2.4466 0
M  V30 4590 H 406.017 -0.754727 0.338106 0
M  V30 4591 H 408.563 -1.08754 1.30271 0
M  V30 4592 H 407.335 -2.75366 2.7801 0
M  V30 4593 H 406.958 -3.73197 1.37149 0
M  V30 4594 N 407.956 -0.998596 -1.21925 0
M  V30 4595 C 408.886 -0.573688 -2.26343 0
M  V30 4596 C 409.867 0.402296 -1.65274 0
M  V30 4597 O 411.052 0.291683 -1.91997 0
M  V30 4598 C 408.182 0.106839 -3.47136 0
M  V30 4599 C 407.136 -0.788269 -4.20678 0
M  V30 4600 C 406.462 0.0254927 -5.34694 0
M  V30 4601 C 407.762 -2.08784 -4.78755 0
M  V30 4602 H 409.456 -1.44651 -2.62138 0
M  V30 4603 H 407.002 -0.696975 -1.26009 0
M  V30 4604 H 408.955 0.415531 -4.19346 0
M  V30 4605 H 407.679 1.01424 -3.10452 0
M  V30 4606 H 406.338 -1.08069 -3.50309 0
M  V30 4607 H 405.986 0.933989 -4.94253 0
M  V30 4608 H 405.686 -0.570437 -5.84825 0
M  V30 4609 H 407.21 0.328147 -6.09718 0
M  V30 4610 H 408.624 -1.84272 -5.42878 0
M  V30 4611 H 407.021 -2.63307 -5.39249 0
M  V30 4612 H 408.091 -2.76284 -3.98491 0
M  V30 4613 N 409.434 1.37368 -0.772513 0
M  V30 4614 C 410.364 2.32856 -0.173304 0
M  V30 4615 C 411.345 1.55818 0.682262 0
M  V30 4616 O 412.53 1.84052 0.619566 0
M  V30 4617 C 409.66 3.40048 0.706007 0
M  V30 4618 C 408.614 4.27973 -0.0483144 0
M  V30 4619 C 407.94 5.26184 0.950491 0
M  V30 4620 C 409.24 5.07665 -1.22776 0
M  V30 4621 H 410.934 2.83217 -0.971002 0
M  V30 4622 H 408.48 1.3617 -0.468377 0
M  V30 4623 H 410.433 4.05827 1.13501 0
M  V30 4624 H 409.157 2.88214 1.53623 0
M  V30 4625 H 407.816 3.63726 -0.458107 0
M  V30 4626 H 407.464 4.7063 1.77529 0
M  V30 4627 H 407.164 5.85872 0.450314 0
M  V30 4628 H 408.688 5.94838 1.37842 0
M  V30 4629 H 410.102 5.66578 -0.875366 0
M  V30 4630 H 408.499 5.76681 -1.66007 0
M  V30 4631 H 409.569 4.40294 -2.03149 0
M  V30 4632 N 410.912 0.523116 1.48665 0
M  V30 4633 C 412.328 0.180511 1.58576 0
M  V30 4634 C 412.528 -1.31597 1.52592 0
M  V30 4635 O 411.584 -2.0937 1.4114 0
M  V30 4636 C 412.897 0.776949 2.90489 0
M  V30 4637 C 414.445 0.745058 3.04003 0
M  V30 4638 C 414.92 1.31995 4.38567 0
M  V30 4639 N 416.411 1.28162 4.45117 0
M  V30 4640 C 417.146 1.6964 5.47731 0
M  V30 4641 N 416.642 2.18816 6.57337 0
M  V30 4642 N 418.435 1.6092 5.38573 0
M  V30 4643 H 410.586 1.4958 1.50797 0
M  V30 4644 H 412.849 0.621772 0.715614 0
M  V30 4645 H 412.555 1.82732 3.00503 0
M  V30 4646 H 412.429 0.25007 3.7637 0
M  V30 4647 H 414.816 -0.296532 2.93606 0
M  V30 4648 H 414.897 1.30933 2.1975 0
M  V30 4649 H 414.541 2.36043 4.49718 0
M  V30 4650 H 414.471 0.731418 5.21496 0
M  V30 4651 H 416.962 0.92155 3.66491 0
M  V30 4652 H 417.275 2.48478 7.31764 0
M  V30 4653 H 415.62 2.22805 6.58318 0
M  V30 4654 H 418.811 1.22304 4.5184 0
M  V30 4655 H 418.984 1.93567 6.18414 0
M  V30 4656 N 412.39 -1.55475 0.257931 0
M  V30 4657 C 413.32 -2.24815 -0.630912 0
M  V30 4658 C 414.301 -1.23224 -1.17259 0
M  V30 4659 O 415.486 -1.51904 -1.20991 0
M  V30 4660 C 412.616 -2.95609 -1.82298 0
M  V30 4661 C 411.57 -4.03982 -1.41359 0
M  V30 4662 C 410.896 -4.6226 -2.68738 0
M  V30 4663 C 412.196 -5.19109 -0.57648 0
M  V30 4664 H 413.89 -2.99354 -0.0526878 0
M  V30 4665 H 411.436 -1.4398 -0.023901 0
M  V30 4666 H 413.389 -3.42822 -2.45054 0
M  V30 4667 H 412.113 -2.18577 -2.42676 0
M  V30 4668 H 410.772 -3.57555 -0.809324 0
M  V30 4669 H 410.42 -3.81915 -3.27338 0
M  V30 4670 H 410.12 -5.35424 -2.42065 0
M  V30 4671 H 411.644 -5.12212 -3.32372 0
M  V30 4672 H 413.058 -5.62479 -1.10861 0
M  V30 4673 H 411.455 -5.98729 -0.405351 0
M  V30 4674 H 412.525 -4.83174 0.408776 0
M  V30 4675 N 413.868 0.0150385 -1.57593 0
M  V30 4676 C 415.279 0.559832 -1.78109 0
M  V30 4677 C 415.63 1.74814 -0.890756 0
M  V30 4678 O 414.755 2.16216 -0.0892482 0
M  V30 4679 C 415.35 1.02238 -3.23006 0
M  V30 4680 C 413.909 1.51258 -3.44671 0
M  V30 4681 C 413.056 0.456955 -2.73509 0
M  V30 4682 H 416.007 -0.211169 -1.57289 0
M  V30 4683 H 416.028 1.88912 -3.30292 0
M  V30 4684 H 415.54 0.157302 -3.87781 0
M  V30 4685 H 413.641 2.39905 -2.8509 0
M  V30 4686 H 413.754 1.55042 -4.5332 0
M  V30 4687 H 412.118 0.915196 -2.37689 0
M  V30 4688 H 412.901 -0.398896 -3.40975 0
M  V30 4689 N 415.346 1.54954 0.287554 0
M  V30 4690 C 416.571 1.79209 1.04397 0
M  V30 4691 C 416.996 0.556431 1.79682 0
M  V30 4692 O 416.354 -0.493518 1.74454 0
M  V30 4693 C 416.402 3.00739 1.98969 0
M  V30 4694 O 415.506 2.74805 3.075 0
M  V30 4695 H 414.847 0.592755 0.299227 0
M  V30 4696 H 417.377 2.02068 0.320886 0
M  V30 4697 H 417.387 3.29077 2.4119 0
M  V30 4698 H 416.062 3.90329 1.43582 0
M  V30 4699 H 414.639 2.57523 2.69697 0
M  V30 4700 N 416.824 -0.551391 1.4764 0
M  V30 4701 C 418.101 -1.31229 1.45046 0
M  V30 4702 C 418.481 -2.10563 0.150527 0
M  V30 4703 O 417.829 -2.11374 -0.867956 0
M  V30 4704 C 418.039 -2.21189 2.69956 0
M  V30 4705 C 419.387 -2.82021 3.1741 0
M  V30 4706 O 420.411 -2.31488 2.70724 0
M  V30 4707 O 419.27 -3.73885 3.98588 0
M  V30 4708 H 416.364 -0.591193 0.578291 0
M  V30 4709 H 418.91 -0.569813 1.59847 0
M  V30 4710 H 417.682 -1.62207 3.56096 0
M  V30 4711 H 417.305 -3.02722 2.57769 0
M  V30 4712 N 418.302 -1.35869 -0.798587 0
M  V30 4713 C 419.551 -1.28921 -1.5512 0
M  V30 4714 C 419.864 0.13208 -1.95154 0
M  V30 4715 O 421.07 0.323879 -2.69561 0
M  V30 4716 C 419.526 -2.26141 -2.79979 0
M  V30 4717 C 419.134 -3.73658 -2.47151 0
M  V30 4718 C 420.878 -2.28152 -3.57976 0
M  V30 4719 C 418.785 -4.62679 -3.6835 0
M  V30 4720 H 417.715 -0.479031 -0.582276 0
M  V30 4721 H 420.366 -1.61179 -0.877125 0
M  V30 4722 H 418.748 -1.86865 -3.49138 0
M  V30 4723 H 419.922 -4.21616 -1.85947 0
M  V30 4724 H 418.237 -3.74333 -1.82383 0
M  V30 4725 H 420.834 -2.91875 -4.4801 0
M  V30 4726 H 421.177 -1.28748 -3.95891 0
M  V30 4727 H 421.71 -2.65998 -2.95787 0
M  V30 4728 H 418.449 -5.63111 -3.35538 0
M  V30 4729 H 417.969 -4.19442 -4.28752 0
M  V30 4730 H 419.648 -4.78498 -4.35487 0
M  V30 4731 N 419.78 1.02168 -1.19998 0
M  V30 4732 C 420.727 2.10601 -0.944228 0
M  V30 4733 C 421.697 1.65639 0.123664 0
M  V30 4734 O 422.882 1.9079 -0.0199941 0
M  V30 4735 C 420.022 3.41504 -0.496865 0
M  V30 4736 C 419.135 3.99973 -1.63234 0
M  V30 4737 C 418.27 5.18915 -1.13579 0
M  V30 4738 C 417.309 5.69456 -2.24468 0
M  V30 4739 N 416.446 6.79665 -1.76068 0
M  V30 4740 H 421.286 2.31814 -1.8726 0
M  V30 4741 H 418.823 1.13686 -0.933483 0
M  V30 4742 H 420.781 4.16626 -0.218843 0
M  V30 4743 H 419.411 3.2038 0.394508 0
M  V30 4744 H 418.463 3.21997 -2.0254 0
M  V30 4745 H 419.775 4.33492 -2.46752 0
M  V30 4746 H 418.929 6.01222 -0.813429 0
M  V30 4747 H 417.668 4.8695 -0.270434 0
M  V30 4748 H 416.673 4.85757 -2.57526 0
M  V30 4749 H 417.898 6.03459 -3.11472 0
M  V30 4750 H 415.844 6.49538 -0.918516 0
M  V30 4751 H 415.761 7.12349 -2.5317 0
M  V30 4752 H 417.029 7.65549 -1.46817 0
M  V30 4753 N 421.258 1.00505 1.21394 0
M  V30 4754 C 422.208 0.536503 2.21598 0
M  V30 4755 C 423.192 -0.401914 1.55799 0
M  V30 4756 O 424.384 -0.226757 1.75541 0
M  V30 4757 C 421.513 -0.135446 3.43033 0
M  V30 4758 C 420.599 0.823992 4.16018 0
M  V30 4759 N 420.99 1.97683 4.6557 0
M  V30 4760 C 419.288 0.642387 4.4135 0
M  V30 4761 C 419.989 2.58003 5.21354 0
M  V30 4762 N 418.965 1.86162 5.1073 0
M  V30 4763 H 422.767 1.41557 2.57563 0
M  V30 4764 H 420.281 0.868878 1.37202 0
M  V30 4765 H 422.278 -0.488584 4.14027 0
M  V30 4766 H 420.938 -1.01049 3.08576 0
M  V30 4767 H 421.949 2.3572 4.61147 0
M  V30 4768 H 418.626 -0.185578 4.17087 0
M  V30 4769 H 420.016 3.555 5.70149 0
M  V30 4770 N 422.737 -1.36956 0.779787 0
M  V30 4771 C 423.967 -2.03459 0.358877 0
M  V30 4772 C 424.375 -1.58939 -1.02641 0
M  V30 4773 O 423.718 -0.769777 -1.66794 0
M  V30 4774 C 423.78 -3.5796 0.332393 0
M  V30 4775 C 423.444 -4.25644 1.66362 0
M  V30 4776 C 424.441 -4.49205 2.61746 0
M  V30 4777 C 422.126 -4.63313 1.94027 0
M  V30 4778 C 424.12 -5.09503 3.82996 0
M  V30 4779 C 421.807 -5.2333 3.15546 0
M  V30 4780 C 422.805 -5.46363 4.0985 0
M  V30 4781 O 422.493 -6.05122 5.29228 0
M  V30 4782 H 422.225 -0.659767 0.147254 0
M  V30 4783 H 424.779 -1.76111 1.05708 0
M  V30 4784 H 423.009 -3.84388 -0.422237 0
M  V30 4785 H 424.698 -4.05852 -0.0625389 0
M  V30 4786 H 425.464 -4.20508 2.41657 0
M  V30 4787 H 421.343 -4.44715 1.21448 0
M  V30 4788 H 424.887 -5.27397 4.56617 0
M  V30 4789 H 420.784 -5.51451 3.35517 0
M  V30 4790 H 421.552 -6.23595 5.30161 0
M  V30 4791 N 424.215 -0.530993 -1.48385 0
M  V30 4792 C 425.462 0.0027373 -2.025 0
M  V30 4793 C 425.79 1.34186 -1.40799 0
M  V30 4794 O 425.045 1.88 -0.543544 0
M  V30 4795 C 425.344 0.172742 -3.56982 0
M  V30 4796 C 425.01 -1.09215 -4.37473 0
M  V30 4797 C 423.672 -1.43881 -4.59186 0
M  V30 4798 C 426.024 -1.93153 -4.84088 0
M  V30 4799 C 423.352 -2.62381 -5.2476 0
M  V30 4800 C 425.704 -3.10833 -5.50968 0
M  V30 4801 C 424.368 -3.45843 -5.70919 0
M  V30 4802 H 423.638 0.00100165 -0.740999 0
M  V30 4803 H 426.285 -0.697219 -1.78357 0
M  V30 4804 H 424.59 0.955473 -3.79971 0
M  V30 4805 H 426.287 0.600642 -3.96476 0
M  V30 4806 H 422.877 -0.812177 -4.20834 0
M  V30 4807 H 427.061 -1.67683 -4.67115 0
M  V30 4808 H 422.317 -2.89707 -5.38405 0
M  V30 4809 H 426.491 -3.7618 -5.86056 0
M  V30 4810 H 424.118 -4.37764 -6.21503 0
M  V30 4811 N 425.693 1.55336 -0.266172 0
M  V30 4812 C 426.64 2.22172 0.625165 0
M  V30 4813 C 427.61 1.19211 1.15663 0
M  V30 4814 O 428.795 1.47723 1.20758 0
M  V30 4815 C 425.935 2.93972 1.8076 0
M  V30 4816 C 425.048 4.11632 1.31084 0
M  V30 4817 C 424.183 4.71099 2.45436 0
M  V30 4818 C 423.222 5.8097 1.92718 0
M  V30 4819 N 422.359 6.34538 3.00509 0
M  V30 4820 H 427.199 2.9796 0.0485582 0
M  V30 4821 H 424.736 1.47095 0.0122024 0
M  V30 4822 H 426.694 3.33811 2.50251 0
M  V30 4823 H 425.324 2.20623 2.35638 0
M  V30 4824 H 424.376 3.76975 0.509326 0
M  V30 4825 H 425.688 4.90893 0.884633 0
M  V30 4826 H 424.842 5.13612 3.22936 0
M  V30 4827 H 423.581 3.91096 2.91368 0
M  V30 4828 H 422.586 5.37916 1.13695 0
M  V30 4829 H 423.811 6.62836 1.47733 0
M  V30 4830 H 421.757 5.57433 3.45839 0
M  V30 4831 H 421.674 7.09046 2.62279 0
M  V30 4832 H 422.942 6.81709 3.78011 0
M  V30 4833 N 427.171 -0.0066808 1.57599 0
M  V30 4834 C 428.419 -0.691552 1.899 0
M  V30 4835 C 428.74 -1.74682 0.866672 0
M  V30 4836 O 428.01 -1.95661 -0.0968189 0
M  V30 4837 H 426.59 -0.258416 0.700878 0
M  V30 4838 H 429.252 0.0326655 1.94873 0
M  V30 4839 H 428.348 -1.16702 2.8946 0
M  V30 4840 N 428.649 -1.55105 -0.279332 0
M  V30 4841 C 429.596 -1.8755 -1.34513 0
M  V30 4842 C 430.566 -0.726384 -1.49375 0
M  V30 4843 O 431.751 -0.977063 -1.63884 0
M  V30 4844 C 428.891 -2.14738 -2.70151 0
M  V30 4845 C 428.004 -3.42285 -2.63562 0
M  V30 4846 C 427.139 -3.59206 -3.91337 0
M  V30 4847 C 426.178 -4.80467 -3.79233 0
M  V30 4848 N 425.315 -4.94079 -4.98829 0
M  V30 4849 H 430.155 -2.78456 -1.06143 0
M  V30 4850 H 427.692 -1.37867 -0.512936 0
M  V30 4851 H 429.65 -2.28501 -3.49061 0
M  V30 4852 H 428.28 -1.27075 -2.96735 0
M  V30 4853 H 427.332 -3.37029 -1.76397 0
M  V30 4854 H 428.644 -4.31328 -2.50515 0
M  V30 4855 H 427.798 -3.72751 -4.78687 0
M  V30 4856 H 426.537 -2.68337 -4.07243 0
M  V30 4857 H 425.542 -4.66932 -2.90266 0
M  V30 4858 H 426.767 -5.72765 -3.64852 0
M  V30 4859 H 424.713 -4.06139 -5.15158 0
M  V30 4860 H 424.63 -5.77156 -4.8829 0
M  V30 4861 H 425.898 -5.12003 -5.8777 0
M  V30 4862 O 430.166 0.425144 -1.55804 0
M  V30 4863 H 430.857 1.07829 -1.60912 0
M  V30 END ATOM
M  V30 BEGIN BOND
M  V30 END BOND
M  V30 END CTAB
M  END
$$$$
