drugbank_target|Q9LAG2 Phenol 2-hydroxylase component B (DB03147)
 OpenBabel12092120233D

  0  0  0     0  0            999 V3000
M  V30 BEGIN CTAB
M  V30 COUNTS 2500 2516 0 0 0
M  V30 BEGIN ATOM
M  V30 1 H -0.908 1.98254 -0.117106 0
M  V30 2 N 0 1.576 0 0
M  V30 3 C 0.933 2.03868 1.02534 0
M  V30 4 C 1.911 0.928543 1.3348 0
M  V30 5 O 3.095 1.19667 1.45644 0
M  V30 6 C 0.222 2.43627 2.35294 0
M  V30 7 C -0.732 3.65373 2.2001 0
M  V30 8 S 0.101 5.13292 1.52614 0
M  V30 9 C 1.257 5.56322 2.86805 0
M  V30 10 H 1.49 2.90518 0.631377 0
M  V30 11 H -0.977 1.52953 0.210867 0
M  V30 12 H 0.981 2.67203 3.11629 0
M  V30 13 H -0.358 1.57376 2.7183 0
M  V30 14 H -1.165 3.90944 3.18086 0
M  V30 15 H -1.563 3.418 1.51819 0
M  V30 16 H 0.729 5.58782 3.83104 0
M  V30 17 H 1.672 6.56266 2.65933 0
M  V30 18 H 2.08 4.83886 2.90714 0
M  V30 19 N 1.4781 -0.272755 1.55222 0
M  V30 20 C 2.7551 -1.02562 1.66555 0
M  V30 21 C 3.1351 -2.04282 0.532189 0
M  V30 22 O 2.4831 -2.23662 -0.467717 0
M  V30 23 C 2.6931 -1.6822 3.05782 0
M  V30 24 C 4.0411 -2.19373 3.63539 0
M  V30 25 O 5.0651 -1.78206 3.08417 0
M  V30 26 O 3.9241 -2.94883 4.60115 0
M  V30 27 H 1.0181 -0.475755 0.676451 0
M  V30 28 H 3.5641 -0.268593 1.67561 0
M  V30 29 H 2.3361 -0.945112 3.79715 0
M  V30 30 H 1.9591 -2.50609 3.08676 0
M  V30 31 N 2.9562 -1.48159 -0.537278 0
M  V30 32 C 4.2332 -1.46291 -1.29839 0
M  V30 33 C 4.6132 -0.170613 -2.10409 0
M  V30 34 O 3.9612 0.847746 -2.12192 0
M  V30 35 C 4.1712 -2.72055 -2.18603 0
M  V30 36 C 5.5192 -3.20087 -2.7898 0
M  V30 37 O 6.5432 -2.72921 -2.28894 0
M  V30 38 O 5.4022 -4.02138 -3.70064 0
M  V30 39 H 2.4962 -0.583906 -0.585647 0
M  V30 40 H 5.0422 -1.60384 -0.554534 0
M  V30 41 H 3.8142 -3.57628 -1.58801 0
M  V30 42 H 3.4372 -2.60646 -3.00249 0
M  V30 43 N 4.4343 0.785586 -1.36625 0
M  V30 44 C 5.8503 1.08419 -1.17122 0
M  V30 45 C 6.0503 2.015 0.00208491 0
M  V30 46 O 5.1063 2.43551 0.666278 0
M  V30 47 C 6.4193 1.69498 -2.48377 0
M  V30 48 C 7.9673 1.81821 -2.54775 0
M  V30 49 C 8.4423 2.46315 -3.86126 0
M  V30 50 N 9.9333 2.53779 -3.87492 0
M  V30 51 C 10.6683 3.045 -4.85868 0
M  V30 52 N 10.1643 3.55499 -5.94637 0
M  V30 53 N 11.9573 3.03247 -4.73284 0
M  V30 54 H 4.1083 0.167264 -2.1174 0
M  V30 55 H 6.3713 0.13682 -0.938075 0
M  V30 56 H 6.0773 1.08571 -3.34522 0
M  V30 57 H 5.9513 2.6896 -2.64462 0
M  V30 58 H 8.3383 2.41884 -1.69045 0
M  V30 59 H 8.4193 0.811532 -2.42586 0
M  V30 60 H 8.0633 1.86895 -4.72263 0
M  V30 61 H 7.9933 3.47561 -3.95612 0
M  V30 62 H 10.4843 2.17672 -3.08913 0
M  V30 63 H 10.7973 3.92562 -6.65669 0
M  V30 64 H 9.1423 3.5364 -5.98301 0
M  V30 65 H 12.3333 2.62696 -3.87438 0
M  V30 66 H 12.5063 3.42467 -5.50109 0
M  V30 67 N 5.9124 1.20967 1.01018 0
M  V30 68 C 6.8424 0.988272 2.11555 0
M  V30 69 C 7.8234 -0.0849778 1.69888 0
M  V30 70 O 9.0084 0.0738202 1.9406 0
M  V30 71 C 6.1384 0.546528 3.42973 0
M  V30 72 C 5.0924 1.56375 3.9841 0
M  V30 73 C 4.4184 0.97842 5.25672 0
M  V30 74 C 5.7184 2.94922 4.31066 0
M  V30 75 H 7.4124 1.91276 2.30334 0
M  V30 76 H 4.9584 0.921073 1.1069 0
M  V30 77 H 6.9114 0.378839 4.19694 0
M  V30 78 H 5.6354 -0.413598 3.23971 0
M  V30 79 H 4.2944 1.71891 3.23804 0
M  V30 80 H 3.9424 0.0101688 5.02999 0
M  V30 81 H 3.6424 1.65784 5.63728 0
M  V30 82 H 5.1664 0.821939 6.05043 0
M  V30 83 H 6.5804 2.8288 4.9865 0
M  V30 84 H 4.9774 3.5983 4.80253 0
M  V30 85 H 6.0474 3.4616 3.39561 0
M  V30 86 N 7.3905 -1.2043 1.01659 0
M  V30 87 C 8.6375 -1.89797 0.705917 0
M  V30 88 C 8.9655 -1.78848 -0.764439 0
M  V30 89 O 8.2205 -1.16694 -1.57102 0
M  V30 90 C 8.5195 -3.40464 1.08714 0
M  V30 91 C 8.1855 -3.71614 2.5537 0
M  V30 92 C 6.8475 -3.79826 2.95441 0
M  V30 93 C 9.1995 -3.85915 3.50313 0
M  V30 94 C 6.5275 -3.99797 4.29394 0
M  V30 95 C 8.8795 -4.07396 4.83954 0
M  V30 96 C 7.5435 -4.13837 5.23732 0
M  V30 97 H 6.8135 -0.694518 0.258313 0
M  V30 98 H 9.4605 -1.42691 1.27717 0
M  V30 99 H 7.7655 -3.89385 0.434309 0
M  V30 100 H 9.4625 -3.92433 0.824461 0
M  V30 101 H 6.0525 -3.65822 2.23321 0
M  V30 102 H 10.2365 -3.78926 3.20513 0
M  V30 103 H 5.4925 -4.03018 4.59768 0
M  V30 104 H 9.6665 -4.17404 5.57447 0
M  V30 105 H 7.2935 -4.29064 6.27541 0
M  V30 106 N 8.8686 -0.792821 -1.36206 0
M  V30 107 C 10.2846 -0.474903 -1.52371 0
M  V30 108 C 10.4846 1.00622 -1.74578 0
M  V30 109 O 9.5406 1.79162 -1.77924 0
M  V30 110 C 10.8536 -1.3083 -2.70747 0
M  V30 111 C 12.4016 -1.30234 -2.84619 0
M  V30 112 C 12.8766 -2.11956 -4.06004 0
M  V30 113 N 14.3676 -2.09419 -4.13156 0
M  V30 114 C 15.1026 -2.69419 -5.06163 0
M  V30 115 N 14.5986 -3.3829 -6.04592 0
M  V30 116 N 16.3916 -2.59134 -4.98804 0
M  V30 117 H 8.5426 -1.75222 -1.20046 0
M  V30 118 H 10.8056 -0.745024 -0.586211 0
M  V30 119 H 10.5116 -2.35881 -2.6087 0
M  V30 120 H 10.3856 -0.95196 -3.6499 0
M  V30 121 H 12.7726 -0.259748 -2.93955 0
M  V30 122 H 12.8536 -1.69847 -1.91274 0
M  V30 123 H 12.4976 -3.16248 -3.97429 0
M  V30 124 H 12.4276 -1.69711 -4.98503 0
M  V30 125 H 14.9186 -1.59297 -3.42685 0
M  V30 126 H 15.2316 -3.81394 -6.7213 0
M  V30 127 H 13.5766 -3.42393 -6.04807 0
M  V30 128 H 16.7676 -2.04927 -4.20859 0
M  V30 129 H 16.9406 -3.06185 -5.711 0
M  V30 130 N 10.3467 1.47872 -0.545128 0
M  V30 131 C 11.2947 2.31533 0.222512 0
M  V30 132 C 12.2887 1.42177 0.920985 0
M  V30 133 O 13.4947 1.59005 0.843645 0
M  V30 134 H 9.8697 0.746519 0.0906278 0
M  V30 135 H 11.8407 2.94139 -0.50246 0
M  V30 136 C 10.5897 3.2457 1.24699 0
M  V30 137 H 9.9127 3.93283 0.718944 0
M  V30 138 H 11.3527 3.85963 1.75523 0
M  V30 139 C 9.8117 2.47237 2.28856 0
M  V30 140 O 10.3417 2.20808 3.35569 0
M  V30 141 N 8.5477 2.08461 2.02466 0
M  V30 142 H 8.0947 2.30155 1.157 0
M  V30 143 H 8.0527 1.57033 2.72375 0
M  V30 144 N 11.8248 0.280983 1.55075 0
M  V30 145 C 12.7878 -0.590896 2.21452 0
M  V30 146 C 13.7878 -1.07682 1.19421 0
M  V30 147 O 14.9778 -0.97605 1.44288 0
M  V30 148 C 12.1098 -1.81587 2.88511 0
M  V30 149 H 13.3028 -0.0112554 2.99898 0
M  V30 150 H 10.8558 0.0316438 1.56268 0
M  V30 151 H 11.5908 -2.43587 2.14093 0
M  V30 152 H 11.3758 -1.4753 3.63287 0
M  V30 153 H 12.8658 -2.43575 3.39206 0
M  V30 154 N 13.3029 -1.57598 0.00835791 0
M  V30 155 C 14.2359 -2.04409 -1.01451 0
M  V30 156 C 15.2139 -0.935609 -1.32985 0
M  V30 157 O 16.3979 -1.20437 -1.45007 0
M  V30 158 C 13.5249 -2.44872 -2.33999 0
M  V30 159 C 12.5709 -3.66535 -2.18069 0
M  V30 160 S 13.4039 -5.14095 -1.4989 0
M  V30 161 C 14.5599 -5.57835 -2.8385 0
M  V30 162 H 14.7929 -2.90849 -0.615961 0
M  V30 163 H 12.3259 -1.53063 -0.202752 0
M  V30 164 H 14.2839 -2.68852 -3.10208 0
M  V30 165 H 12.9449 -1.58815 -2.70992 0
M  V30 166 H 12.1379 -3.92626 -3.16008 0
M  V30 167 H 11.7399 -3.426 -1.50004 0
M  V30 168 H 14.0319 -5.60806 -3.80136 0
M  V30 169 H 14.9749 -6.57667 -2.62449 0
M  V30 170 H 15.3829 -4.85421 -2.88144 0
M  V30 171 N 14.781 0.264519 -1.55364 0
M  V30 172 C 16.029 0.993021 -1.76021 0
M  V30 173 C 16.35 1.86511 -0.569099 0
M  V30 174 O 15.62 1.91438 0.415735 0
M  V30 175 H 14.2 0.369639 -0.649135 0
M  V30 176 H 16.862 0.286707 -1.9278 0
M  V30 177 H 15.958 1.62502 -2.66457 0
M  V30 178 N 16.2591 1.48442 0.529413 0
M  V30 179 C 17.2061 1.63007 1.63394 0
M  V30 180 C 18.1761 0.47212 1.59249 0
M  V30 181 O 19.3611 0.695673 1.77666 0
M  V30 182 C 16.5011 1.6763 3.01653 0
M  V30 183 C 15.6141 2.94535 3.16027 0
M  V30 184 C 14.7491 2.90316 4.44849 0
M  V30 185 C 13.7881 4.11923 4.52754 0
M  V30 186 N 12.9251 4.05777 5.72965 0
M  V30 187 H 17.7651 2.5733 1.50285 0
M  V30 188 H 15.3021 1.27613 0.731656 0
M  V30 189 H 17.2601 1.68292 3.81751 0
M  V30 190 H 15.8901 0.76797 3.13532 0
M  V30 191 H 14.9421 3.03615 2.29177 0
M  V30 192 H 16.2541 3.84512 3.17729 0
M  V30 193 H 15.4081 2.89382 5.33238 0
M  V30 194 H 14.1471 1.98068 4.45668 0
M  V30 195 H 13.1521 4.13131 3.62771 0
M  V30 196 H 14.3771 5.0533 4.53672 0
M  V30 197 H 12.3231 3.16351 5.74681 0
M  V30 198 H 12.2401 4.8946 5.76164 0
M  V30 199 H 13.5081 4.08904 6.6364 0
M  V30 200 N 17.7372 -0.778329 1.37039 0
M  V30 201 C 18.9842 -1.53665 1.31884 0
M  V30 202 C 19.3122 -1.9425 -0.0986303 0
M  V30 203 O 18.5672 -1.63832 -1.07041 0
M  V30 204 C 18.8662 -2.81845 2.19768 0
M  V30 205 C 18.5322 -2.60345 3.68146 0
M  V30 206 C 17.1942 -2.5419 4.08584 0
M  V30 207 C 19.5462 -2.40923 4.62175 0
M  V30 208 C 16.8742 -2.26594 5.41177 0
M  V30 209 C 19.2262 -2.14852 5.94997 0
M  V30 210 C 17.8902 -2.07137 6.34547 0
M  V30 211 H 17.1602 -0.562299 0.482598 0
M  V30 212 H 19.8072 -0.897069 1.69189 0
M  V30 213 H 18.1122 -3.50328 1.75436 0
M  V30 214 H 19.8092 -3.39692 2.13097 0
M  V30 215 H 16.3992 -2.65996 3.36072 0
M  V30 216 H 20.5832 -2.44673 4.31797 0
M  V30 217 H 15.8392 -2.19111 5.70789 0
M  V30 218 H 20.0132 -1.98822 6.67415 0
M  V30 219 H 17.6402 -1.85518 7.37216 0
M  V30 220 N 19.2153 -1.21501 -1.00376 0
M  V30 221 C 20.1783 -0.976927 -2.07337 0
M  V30 222 C 21.1783 0.0525322 -1.60714 0
M  V30 223 O 22.3683 -0.184869 -1.73216 0
M  V30 224 C 19.5003 -0.473423 -3.37597 0
M  V30 225 H 20.6933 -1.92587 -2.29892 0
M  V30 226 H 18.2463 -1.03217 -1.17371 0
M  V30 227 H 18.9813 0.480379 -3.20722 0
M  V30 228 H 18.7663 -1.216 -3.72768 0
M  V30 229 H 20.2563 -0.32675 -4.1632 0
M  V30 230 N 20.6934 1.19889 -1.02296 0
M  V30 231 C 21.9214 1.9339 -0.735399 0
M  V30 232 C 22.3364 1.75148 0.704887 0
M  V30 233 O 21.6934 1.06954 1.47875 0
M  V30 234 C 21.7444 3.45313 -1.06962 0
M  V30 235 O 21.4654 3.62964 -2.45334 0
M  V30 236 C 22.9664 4.35948 -0.804021 0
M  V30 237 H 20.1864 0.61448 -0.269546 0
M  V30 238 H 22.7304 1.522 -1.36585 0
M  V30 239 H 20.8854 3.84359 -0.484455 0
M  V30 240 H 21.2994 4.56886 -2.57595 0
M  V30 241 H 22.7734 5.41174 -1.0879 0
M  V30 242 H 23.2504 4.3842 0.261691 0
M  V30 243 H 23.8564 4.02574 -1.37164 0
M  V30 244 N 22.1715 0.800033 1.35784 0
M  V30 245 C 23.4195 0.376597 1.9856 0
M  V30 246 C 23.7405 -1.05812 1.63795 0
M  V30 247 O 23.0105 -1.73103 0.917171 0
M  V30 248 H 21.5905 0.136261 0.734467 0
M  V30 249 H 24.2525 1.02442 1.65806 0
M  V30 250 H 23.3485 0.477002 3.08433 0
M  V30 251 N 23.6496 -1.47581 0.552962 0
M  V30 252 C 24.8956 -2.02782 0.0273648 0
M  V30 253 C 25.2286 -1.42687 -1.31734 0
M  V30 254 O 24.5036 -0.580897 -1.85623 0
M  V30 255 C 24.7866 -3.60031 -0.0702371 0
M  V30 256 C 24.6396 -4.30566 1.30126 0
M  V30 257 C 25.9586 -4.33028 -0.785771 0
M  V30 258 H 23.0776 -0.736912 0.0114185 0
M  V30 259 H 25.7196 -1.76056 0.714432 0
M  V30 260 H 23.8696 -3.82932 -0.655382 0
M  V30 261 H 25.5416 -4.19018 1.92929 0
M  V30 262 H 23.7846 -3.91086 1.87709 0
M  V30 263 H 24.4556 -5.39114 1.18573 0
M  V30 264 H 26.9316 -4.15095 -0.288982 0
M  V30 265 H 25.8076 -5.42695 -0.823013 0
M  V30 266 H 26.0686 -4.01945 -1.841 0
M  V30 267 N 25.1277 -0.289203 -1.54924 0
M  V30 268 C 26.3557 0.326463 -2.04308 0
M  V30 269 C 26.7707 1.48413 -1.16701 0
M  V30 270 O 26.1277 1.81507 -0.190087 0
M  V30 271 C 26.1787 0.794014 -3.52672 0
M  V30 272 O 25.8997 -0.317564 -4.36948 0
M  V30 273 C 27.4007 1.47605 -4.18004 0
M  V30 274 H 24.6207 0.0726272 -0.667058 0
M  V30 275 H 27.1647 -0.425401 -2.00026 0
M  V30 276 H 25.3197 1.49593 -3.57352 0
M  V30 277 H 25.7337 0.0443186 -5.24481 0
M  V30 278 H 27.2077 1.75447 -5.23376 0
M  V30 279 H 27.6847 2.41224 -3.67025 0
M  V30 280 H 28.2907 0.81762 -4.17367 0
M  V30 281 N 26.6058 1.57591 -0.0167156 0
M  V30 282 C 27.8518 1.91567 0.665582 0
M  V30 283 C 28.1848 0.892298 1.72487 0
M  V30 284 O 27.4598 -0.0867127 1.94307 0
M  V30 285 C 27.7428 3.36069 1.29342 0
M  V30 286 C 27.5958 4.49135 0.244541 0
M  V30 287 C 28.9148 3.803 2.21495 0
M  V30 288 H 26.0338 0.69666 0.240488 0
M  V30 289 H 28.6758 1.89866 -0.0714356 0
M  V30 290 H 26.8258 3.3765 1.92158 0
M  V30 291 H 28.4978 4.59689 -0.385228 0
M  V30 292 H 26.7408 4.3165 -0.431379 0
M  V30 293 H 27.4118 5.47242 0.723207 0
M  V30 294 H 29.8878 3.80377 1.68678 0
M  V30 295 H 28.7638 4.82127 2.62382 0
M  V30 296 H 29.0248 3.15104 3.101 0
M  V30 297 N 28.0839 -0.256276 1.55502 0
M  V30 298 C 29.3329 -0.983486 1.76098 0
M  V30 299 C 29.6459 -1.86837 0.578896 0
M  V30 300 O 30.8519 -2.63163 0.667648 0
M  V30 301 C 29.3079 -1.79868 3.1173 0
M  V30 302 C 28.9159 -0.961648 4.37557 0
M  V30 303 C 30.6599 -2.51919 3.41668 0
M  V30 304 C 28.5669 -1.77219 5.64223 0
M  V30 305 H 27.4969 -0.370936 0.656447 0
M  V30 306 H 30.1479 -0.238492 1.81944 0
M  V30 307 H 28.5299 -2.58527 2.99966 0
M  V30 308 H 29.7039 -0.218048 4.60284 0
M  V30 309 H 28.0189 -0.354913 4.14885 0
M  V30 310 H 30.6159 -3.12998 4.33516 0
M  V30 311 H 30.9589 -3.23059 2.62562 0
M  V30 312 H 31.4919 -1.80278 3.54605 0
M  V30 313 H 28.2309 -1.10471 6.46124 0
M  V30 314 H 27.7509 -2.49132 5.45613 0
M  V30 315 H 29.4299 -2.34169 6.03137 0
M  V30 316 N 29.562 -1.4872 -0.521534 0
M  V30 317 C 30.79 -1.60843 -1.30142 0
M  V30 318 C 31.205 -0.271897 -1.86832 0
M  V30 319 O 30.562 0.739969 -1.66825 0
M  V30 320 C 30.613 -2.66155 -2.4463 0
M  V30 321 O 30.334 -3.94623 -1.90275 0
M  V30 322 C 31.835 -2.88795 -3.36322 0
M  V30 323 H 29.055 -0.542075 -0.395468 0
M  V30 324 H 31.599 -1.94609 -0.628285 0
M  V30 325 H 29.754 -2.35224 -3.07812 0
M  V30 326 H 30.168 -4.52468 -2.65279 0
M  V30 327 H 31.642 -3.66264 -4.12983 0
M  V30 328 H 32.119 -1.97934 -3.9207 0
M  V30 329 H 32.725 -3.21063 -2.78924 0
M  V30 330 N 31.0401 0.771051 -1.3745 0
M  V30 331 C 32.2681 1.56015 -1.35893 0
M  V30 332 C 32.6831 1.88718 0.0555523 0
M  V30 333 O 32.0401 1.51502 1.01752 0
M  V30 334 C 32.0911 2.87001 -2.19801 0
M  V30 335 O 31.8121 2.557 -3.55738 0
M  V30 336 C 33.3131 3.81228 -2.26231 0
M  V30 337 H 30.5331 0.483317 -0.465453 0
M  V30 338 H 33.0771 0.955611 -1.80799 0
M  V30 339 H 31.2321 3.43877 -1.78402 0
M  V30 340 H 31.6461 3.39584 -3.99729 0
M  V30 341 H 33.1201 4.70139 -2.89263 0
M  V30 342 H 33.5971 4.20409 -1.27093 0
M  V30 343 H 34.2031 3.30281 -2.67945 0
M  V30 344 N 32.5182 1.22032 0.997298 0
M  V30 345 C 33.4282 1.00271 2.12092 0
M  V30 346 C 34.4442 -0.047621 1.73935 0
M  V30 347 O 35.6202 0.144136 2.00884 0
M  V30 348 C 32.6852 0.578449 3.4184 0
M  V30 349 C 31.7462 1.70189 3.94125 0
M  V30 350 C 30.9792 1.29778 5.17681 0
M  V30 351 O 31.2022 0.174676 5.70132 0
M  V30 352 O 30.1362 2.11261 5.63607 0
M  V30 353 H 33.9622 1.94398 2.3333 0
M  V30 354 H 31.5472 1.00587 1.10465 0
M  V30 355 H 33.4292 0.351998 4.19927 0
M  V30 356 H 32.1042 -0.334019 3.21972 0
M  V30 357 H 31.0112 1.98282 3.1723 0
M  V30 358 H 32.3442 2.59206 4.18417 0
M  V30 359 N 33.9963 -1.19345 1.0293 0
M  V30 360 C 34.9263 -2.2481 0.631105 0
M  V30 361 C 35.9073 -1.66245 -0.360104 0
M  V30 362 O 37.0923 -1.92677 -0.242726 0
M  V30 363 C 34.2223 -3.47295 -0.0184607 0
M  V30 364 C 33.1763 -4.18536 0.895073 0
M  V30 365 C 32.5023 -5.34586 0.110592 0
M  V30 366 C 33.8023 -4.73287 2.209 0
M  V30 367 H 35.4963 -2.58372 1.51275 0
M  V30 368 H 33.0423 -1.24194 0.728818 0
M  V30 369 H 34.9953 -4.20268 -0.308675 0
M  V30 370 H 33.7193 -3.12933 -0.934907 0
M  V30 371 H 32.3783 -3.47446 1.16949 0
M  V30 372 H 32.0263 -4.96469 -0.807902 0
M  V30 373 H 31.7263 -5.83183 0.719087 0
M  V30 374 H 33.2503 -6.10355 -0.172871 0
M  V30 375 H 34.6643 -5.38013 1.98028 0
M  V30 376 H 33.0613 -5.32373 2.76946 0
M  V30 377 H 34.1313 -3.91331 2.86336 0
M  V30 378 N 35.4744 -0.807222 -1.35358 0
M  V30 379 C 36.4224 -0.20614 -2.31685 0
M  V30 380 C 37.4164 0.644445 -1.56663 0
M  V30 381 O 38.6224 0.537538 -1.71786 0
M  V30 382 H 34.9974 -0.0479006 -0.750473 0
M  V30 383 H 36.9684 -1.03369 -2.79924 0
M  V30 384 C 35.7174 0.630212 -3.41941 0
M  V30 385 H 35.0404 -0.0149558 -3.99797 0
M  V30 386 H 36.4804 1.01716 -4.11619 0
M  V30 387 C 34.9394 1.79601 -2.85035 0
M  V30 388 O 35.4694 2.89351 -2.78637 0
M  V30 389 N 33.6754 1.60774 -2.42074 0
M  V30 390 H 33.2224 0.715009 -2.47478 0
M  V30 391 H 33.1804 2.38933 -2.04349 0
M  V30 392 N 36.9525 1.47285 -0.560781 0
M  V30 393 C 38.2005 2.02064 -0.0379868 0
M  V30 394 C 38.5215 1.43711 1.31803 0
M  V30 395 O 37.7915 0.61362 1.86042 0
M  V30 396 H 36.3715 0.746918 -0.0110531 0
M  V30 397 H 39.0335 1.80648 -0.731598 0
M  V30 398 H 38.1295 3.12064 0.0474463 0
M  V30 399 N 38.4306 0.297415 1.54768 0
M  V30 400 C 39.3936 -0.567375 2.22066 0
M  V30 401 C 40.3936 -1.06409 1.20556 0
M  V30 402 O 41.5836 -0.960691 1.45315 0
M  V30 403 C 38.7156 -1.78517 2.90421 0
M  V30 404 H 39.9086 0.0205534 2.99893 0
M  V30 405 H 37.4616 0.0482163 1.56226 0
M  V30 406 H 38.1966 -2.41303 2.16664 0
M  V30 407 H 37.9816 -1.43669 3.64831 0
M  V30 408 H 39.4716 -2.39964 3.41771 0
M  V30 409 N 39.9087 -1.5758 0.0250728 0
M  V30 410 C 41.1547 -1.91917 -0.655413 0
M  V30 411 C 41.4877 -0.901433 -1.72011 0
M  V30 412 O 40.7627 0.0764069 -1.9435 0
M  V30 413 C 41.0457 -3.36751 -1.27558 0
M  V30 414 C 40.8987 -4.49258 -0.220719 0
M  V30 415 C 42.2177 -3.81469 -2.19475 0
M  V30 416 H 39.3367 -0.697925 -0.23679 0
M  V30 417 H 41.9787 -1.89825 0.0815036 0
M  V30 418 H 40.1287 -3.38664 -1.90365 0
M  V30 419 H 41.8007 -4.59478 0.409601 0
M  V30 420 H 40.0437 -4.31415 0.454264 0
M  V30 421 H 40.7147 -5.47618 -0.694175 0
M  V30 422 H 43.1907 -3.81266 -1.66659 0
M  V30 423 H 42.0667 -4.83512 -2.59822 0
M  V30 424 H 42.3277 -3.16744 -3.08424 0
M  V30 425 N 41.3868 0.248026 -1.55636 0
M  V30 426 C 42.3368 1.30994 -1.86614 0
M  V30 427 C 43.3208 1.43543 -0.726918 0
M  V30 428 O 44.5128 1.46804 -0.988818 0
M  V30 429 C 41.6418 2.6656 -2.16335 0
M  V30 430 C 40.7278 2.58019 -3.36581 0
M  V30 431 N 41.1188 2.1911 -4.55878 0
M  V30 432 C 39.4168 2.89035 -3.39669 0
M  V30 433 C 40.1178 2.21174 -5.38012 0
M  V30 434 N 39.0938 2.60632 -4.77045 0
M  V30 435 H 42.8958 0.999583 -2.76379 0
M  V30 436 H 40.4098 0.456652 -1.55848 0
M  V30 437 H 42.4068 3.43194 -2.36692 0
M  V30 438 H 41.0668 2.98463 -1.27867 0
M  V30 439 H 42.0778 1.90672 -4.81523 0
M  V30 440 H 38.7548 3.25485 -2.61469 0
M  V30 441 H 40.1448 1.9344 -6.43452 0
M  V30 442 N 42.8649 1.48995 0.513639 0
M  V30 443 C 44.1129 1.57531 1.26604 0
M  V30 444 C 44.4339 0.258236 1.93283 0
M  V30 445 O 43.7039 -0.721502 1.8213 0
M  V30 446 H 42.2839 0.580387 0.470276 0
M  V30 447 H 44.9459 1.85552 0.596373 0
M  V30 448 H 44.0419 2.36486 2.03669 0
M  V30 449 N 44.343 -0.763751 1.37857 0
M  V30 450 C 45.276 -1.88486 1.28639 0
M  V30 451 C 46.254 -1.61757 0.165363 0
M  V30 452 O 47.438 -1.85391 0.340948 0
M  V30 453 C 44.565 -3.23884 0.990811 0
M  V30 454 C 43.611 -3.69514 2.12983 0
M  V30 455 S 44.444 -3.82244 3.75033 0
M  V30 456 C 45.6 -5.20477 3.47641 0
M  V30 457 H 45.833 -1.96017 2.23527 0
M  V30 458 H 43.366 -0.925684 1.23574 0
M  V30 459 H 45.324 -4.02081 0.827101 0
M  V30 460 H 43.985 -3.14044 0.0592832 0
M  V30 461 H 43.178 -4.67696 1.87821 0
M  V30 462 H 42.78 -2.98441 2.25408 0
M  V30 463 H 45.072 -6.05905 3.03125 0
M  V30 464 H 46.015 -5.50655 4.4518 0
M  V30 465 H 46.423 -4.88793 2.82385 0
M  V30 466 N 45.8211 -1.22559 -0.990812 0
M  V30 467 C 47.0491 -1.07779 -1.76611 0
M  V30 468 C 47.4641 0.371513 -1.85109 0
M  V30 469 O 46.8211 1.25737 -1.32274 0
M  V30 470 C 46.8721 -1.68512 -3.19822 0
M  V30 471 O 46.5931 -3.07774 -3.1178 0
M  V30 472 C 48.0941 -1.59035 -4.13791 0
M  V30 473 H 45.3141 -0.377729 -0.554583 0
M  V30 474 H 47.8581 -1.62195 -1.24551 0
M  V30 475 H 46.0131 -1.18154 -3.68942 0
M  V30 476 H 46.4271 -3.37062 -4.01858 0
M  V30 477 H 47.9011 -2.0625 -5.1202 0
M  V30 478 H 48.3781 -0.547273 -4.35777 0
M  V30 479 H 48.9841 -2.08709 -3.70568 0
M  V30 480 N 47.2992 1.18797 -1.03562 0
M  V30 481 C 48.2622 2.20464 -0.626769 0
M  V30 482 C 49.2622 1.57721 0.313173 0
M  V30 483 O 50.4522 1.73917 0.0992615 0
M  V30 484 C 47.5842 3.40802 0.0818498 0
M  V30 485 H 48.7772 2.58149 -1.5264 0
M  V30 486 H 46.3302 1.32593 -0.827578 0
M  V30 487 H 47.0652 3.08642 0.995518 0
M  V30 488 H 46.8502 3.8758 -0.593652 0
M  V30 489 H 48.3402 4.16092 0.354584 0
M  V30 490 N 48.7773 0.814389 1.34928 0
M  V30 491 C 49.7253 0.218424 2.31572 0
M  V30 492 C 50.7193 -0.636128 1.57002 0
M  V30 493 O 51.9253 -0.52842 1.72069 0
M  V30 494 H 48.3003 0.0518799 0.750208 0
M  V30 495 H 50.2713 1.04852 2.79372 0
M  V30 496 C 49.0203 -0.61207 3.4227 0
M  V30 497 H 48.3433 0.0361578 3.99784 0
M  V30 498 H 49.7833 -0.995317 4.12152 0
M  V30 499 C 48.2423 -1.78087 2.85984 0
M  V30 500 O 48.7723 -2.8787 2.80168 0
M  V30 501 N 46.9783 -1.59488 2.42924 0
M  V30 502 H 46.5253 -0.701874 2.47854 0
M  V30 503 H 46.4833 -2.37846 2.05613 0
M  V30 504 N 50.2554 -1.46986 0.568584 0
M  V30 505 C 51.2184 -2.28624 -0.162366 0
M  V30 506 C 52.2184 -1.37596 -0.832103 0
M  V30 507 O 53.4084 -1.60115 -0.68622 0
M  V30 508 C 50.5404 -3.17596 -1.23878 0
M  V30 509 H 51.7334 -2.94722 0.554899 0
M  V30 510 H 49.2864 -1.52863 0.325976 0
M  V30 511 H 50.0214 -2.56214 -1.98808 0
M  V30 512 H 49.8064 -3.846 -0.763219 0
M  V30 513 H 51.2964 -3.79078 -1.75185 0
M  V30 514 N 51.7335 -0.305618 -1.54608 0
M  V30 515 C 52.9805 0.302298 -2.00231 0
M  V30 516 C 53.3085 1.5354 -1.19398 0
M  V30 517 O 52.5635 1.93973 -0.259423 0
M  V30 518 C 52.8625 0.698983 -3.50498 0
M  V30 519 C 52.5285 -0.432903 -4.48817 0
M  V30 520 C 51.1905 -0.743622 -4.75419 0
M  V30 521 C 53.5425 -1.19409 -5.07337 0
M  V30 522 C 50.8705 -1.81857 -5.57804 0
M  V30 523 C 53.2225 -2.25899 -5.90891 0
M  V30 524 C 51.8865 -2.57572 -6.15803 0
M  V30 525 H 51.1565 0.110619 -0.732697 0
M  V30 526 H 53.8035 -0.425674 -1.86709 0
M  V30 527 H 52.1085 1.50711 -3.61654 0
M  V30 528 H 53.8055 1.1806 -3.83227 0
M  V30 529 H 50.3955 -0.18063 -4.28219 0
M  V30 530 H 54.5795 -0.967295 -4.86782 0
M  V30 531 H 49.8355 -2.06864 -5.75341 0
M  V30 532 H 54.0095 -2.85335 -6.35261 0
M  V30 533 H 51.6365 -3.40998 -6.7943 0
M  V30 534 N 53.2116 1.57565 -0.0334293 0
M  V30 535 C 54.1446 2.05997 0.981866 0
M  V30 536 C 55.1226 0.956647 1.3148 0
M  V30 537 O 56.3066 1.22729 1.43073 0
M  V30 538 C 53.4336 2.48564 2.30074 0
M  V30 539 C 52.4796 3.69958 2.12211 0
M  V30 540 S 53.3126 5.16414 1.41692 0
M  V30 541 C 54.4686 5.6228 2.7494 0
M  V30 542 H 54.7016 2.91792 0.569612 0
M  V30 543 H 52.2346 1.53366 0.178376 0
M  V30 544 H 54.1926 2.73753 3.05892 0
M  V30 545 H 52.8536 1.63106 2.68431 0
M  V30 546 H 52.0466 3.97603 3.09722 0
M  V30 547 H 51.6486 3.44943 1.44535 0
M  V30 548 H 53.9406 5.66783 3.71165 0
M  V30 549 H 54.8836 6.61759 2.51953 0
M  V30 550 H 55.2916 4.89944 2.80384 0
M  V30 551 N 54.6897 -0.239769 1.55765 0
M  V30 552 C 55.9147 -0.988373 1.82335 0
M  V30 553 C 56.3397 -1.77886 0.611421 0
M  V30 554 O 55.6977 -1.75889 -0.439639 0
M  V30 555 C 55.7457 -1.89627 3.06715 0
M  V30 556 O 54.8497 -2.98904 2.84131 0
M  V30 557 H 54.1907 -0.280858 0.601677 0
M  V30 558 H 56.7207 -0.258597 2.02959 0
M  V30 559 H 56.7307 -2.30957 3.36338 0
M  V30 560 H 55.4057 -1.31511 3.9456 0
M  V30 561 H 53.9827 -2.61651 2.65694 0
M  V30 562 N 56.1678 -1.49265 -0.50573 0
M  V30 563 C 57.4138 -1.58748 -1.26202 0
M  V30 564 C 57.7468 -0.271227 -1.92297 0
M  V30 565 O 57.0218 0.724831 -1.80489 0
M  V30 566 C 57.3048 -2.74332 -2.33268 0
M  V30 567 C 57.1578 -4.15737 -1.71705 0
M  V30 568 C 58.4768 -2.85576 -3.34865 0
M  V30 569 H 55.5958 -0.577826 -0.457478 0
M  V30 570 H 58.2378 -1.81532 -0.560897 0
M  V30 571 H 56.3878 -2.55036 -2.93068 0
M  V30 572 H 58.0598 -4.46537 -1.15769 0
M  V30 573 H 56.3028 -4.21605 -1.02135 0
M  V30 574 H 56.9738 -4.92477 -2.49341 0
M  V30 575 H 59.4498 -3.03127 -2.8505 0
M  V30 576 H 58.3258 -3.68135 -4.07146 0
M  V30 577 H 58.5868 -1.94732 -3.96903 0
M  V30 578 N 57.6459 0.756429 -1.3826 0
M  V30 579 C 58.8709 1.55077 -1.37717 0
M  V30 580 C 59.2959 1.88073 0.03164 0
M  V30 581 O 58.6539 1.50364 1.01293 0
M  V30 582 C 58.7019 2.8283 -2.23695 0
M  V30 583 O 57.8059 3.77862 -1.6521 0
M  V30 584 H 57.1469 0.469152 -0.469885 0
M  V30 585 H 59.6769 0.935019 -1.81985 0
M  V30 586 H 59.6869 3.31783 -2.37453 0
M  V30 587 H 58.3619 2.58144 -3.2609 0
M  V30 588 H 56.9389 3.36555 -1.60578 0
M  V30 589 N 59.124 1.23083 0.984299 0
M  V30 590 C 60.054 1.03292 2.09411 0
M  V30 591 C 61.035 -0.048923 1.7003 0
M  V30 592 O 62.22 0.114967 1.93859 0
M  V30 593 C 59.35 0.619155 3.41736 0
M  V30 594 C 58.304 1.64791 3.95004 0
M  V30 595 C 57.63 1.0897 5.23478 0
M  V30 596 C 58.93 3.03999 4.24714 0
M  V30 597 H 60.624 1.96119 2.26225 0
M  V30 598 H 58.17 0.944344 1.08711 0
M  V30 599 H 60.123 0.467777 4.18796 0
M  V30 600 H 58.847 -0.344786 3.24775 0
M  V30 601 H 57.506 1.78721 3.20085 0
M  V30 602 H 57.154 0.11686 5.02864 0
M  V30 603 H 56.854 1.77704 5.60085 0
M  V30 604 H 58.378 0.950093 6.03163 0
M  V30 605 H 59.792 2.93393 4.92538 0
M  V30 606 H 58.189 3.69936 4.72512 0
M  V30 607 H 59.259 3.53285 3.32142 0
M  V30 608 N 60.6021 -1.18246 1.0419 0
M  V30 609 C 61.5501 -2.23968 0.627792 0
M  V30 610 C 62.5441 -1.65828 -0.346019 0
M  V30 611 O 63.7501 -1.78733 -0.213175 0
M  V30 612 H 60.1251 -0.728939 0.184802 0
M  V30 613 H 62.0961 -2.56202 1.52981 0
M  V30 614 C 60.8451 -3.47699 0.00796591 0
M  V30 615 H 60.1681 -3.92734 0.748347 0
M  V30 616 H 61.6081 -4.23294 -0.24455 0
M  V30 617 C 60.0671 -3.13153 -1.24246 0
M  V30 618 O 60.5971 -3.27003 -2.33307 0
M  V30 619 N 58.8031 -2.67467 -1.13622 0
M  V30 620 H 58.3501 -2.56396 -0.248734 0
M  V30 621 H 58.3081 -2.44724 -1.97377 0
M  V30 622 N 62.0802 -0.821533 -1.34494 0
M  V30 623 C 63.4912 -0.467956 -1.8074 0
M  V30 624 C 63.8422 1.01151 -1.68116 0
M  V30 625 O 62.9672 1.78707 -1.22036 0
M  V30 626 C 63.5622 -0.842627 -3.28154 0
M  V30 627 C 62.1212 -0.541439 -3.72485 0
M  V30 628 C 61.2682 -1.06028 -2.56229 0
M  V30 629 H 64.2192 -1.01183 -1.22261 0
M  V30 630 H 64.2402 -0.145876 -3.8022 0
M  V30 631 H 63.7522 -1.91945 -3.37311 0
M  V30 632 H 61.8532 0.526034 -3.68868 0
M  V30 633 H 61.9662 -1.08453 -4.66663 0
M  V30 634 H 60.3302 -0.481892 -2.501 0
M  V30 635 H 61.1132 -2.14352 -2.68157 0
M  V30 636 N 63.5583 1.46682 -0.576371 0
M  V30 637 C 64.5053 2.30241 0.160499 0
M  V30 638 C 65.4753 1.40233 0.890162 0
M  V30 639 O 66.6603 1.69186 0.882084 0
M  V30 640 C 63.8003 3.24578 1.1723 0
M  V30 641 C 62.9133 4.29684 0.446736 0
M  V30 642 C 62.0483 5.11154 1.44551 0
M  V30 643 C 61.0873 6.08015 0.70599 0
M  V30 644 N 60.2243 6.82376 1.65251 0
M  V30 645 H 65.0643 2.92727 -0.558127 0
M  V30 646 H 62.6013 1.44272 -0.287056 0
M  V30 647 H 64.5593 3.77711 1.77172 0
M  V30 648 H 63.1893 2.63916 1.85872 0
M  V30 649 H 62.2413 3.79458 -0.267594 0
M  V30 650 H 63.5533 4.98626 -0.131686 0
M  V30 651 H 62.7073 5.68533 2.11791 0
M  V30 652 H 61.4463 4.42158 2.05786 0
M  V30 653 H 60.4513 5.49796 0.0197725 0
M  V30 654 H 61.6763 6.79028 0.09912 0
M  V30 655 H 59.6223 6.16094 2.25308 0
M  V30 656 H 59.5393 7.47556 1.12673 0
M  V30 657 H 60.8073 7.44316 2.31546 0
M  V30 658 N 65.0364 0.313813 1.54444 0
M  V30 659 C 65.9664 -0.549454 2.26943 0
M  V30 660 C 66.9474 -1.12741 1.27372 0
M  V30 661 O 68.1324 -1.15436 1.56167 0
M  V30 662 C 65.2624 -1.71523 3.01989 0
M  V30 663 C 64.2164 -1.26703 4.08816 0
M  V30 664 C 63.5424 -2.51898 4.71647 0
M  V30 665 C 64.8424 -0.388962 5.2085 0
M  V30 666 H 66.5364 0.0552661 2.99349 0
M  V30 667 H 64.0824 0.0280207 1.43973 0
M  V30 668 H 66.0354 -2.32535 3.51433 0
M  V30 669 H 64.7594 -2.34639 2.27183 0
M  V30 670 H 63.4184 -0.679896 3.6024 0
M  V30 671 H 63.0664 -3.13356 3.93468 0
M  V30 672 H 62.7664 -2.22605 5.43802 0
M  V30 673 H 64.2904 -3.1369 5.23861 0
M  V30 674 H 65.7044 -0.905107 5.6611 0
M  V30 675 H 64.1014 -0.18924 5.99802 0
M  V30 676 H 65.1714 0.582699 4.81386 0
M  V30 677 N 66.5145 -1.57545 0.0417849 0
M  V30 678 C 67.7605 -1.92601 -0.635021 0
M  V30 679 C 68.0935 -0.919627 -1.71045 0
M  V30 680 O 67.3685 0.0557892 -1.9442 0
M  V30 681 C 67.6515 -3.38085 -1.23979 0
M  V30 682 C 67.5045 -4.49467 -0.173057 0
M  V30 683 C 68.8235 -3.83776 -2.15416 0
M  V30 684 H 65.9425 -0.700397 -0.229374 0
M  V30 685 H 68.5845 -1.89728 0.101633 0
M  V30 686 H 66.7345 -3.40664 -1.86762 0
M  V30 687 H 68.4065 -4.59018 0.458312 0
M  V30 688 H 66.6495 -4.30909 0.499996 0
M  V30 689 H 67.3205 -5.48323 -0.636054 0
M  V30 690 H 69.7965 -3.83013 -1.62605 0
M  V30 691 H 68.6725 -4.8624 -2.54679 0
M  V30 692 H 68.9335 -3.19998 -3.05047 0
M  V30 693 N 67.9926 0.231505 -1.5589 0
M  V30 694 C 68.9226 1.29022 -1.94617 0
M  V30 695 C 69.9036 1.4941 -0.813067 0
M  V30 696 O 71.0886 1.6176 -1.07459 0
M  V30 697 C 68.2186 2.64199 -2.25424 0
M  V30 698 C 67.1726 2.58484 -3.41131 0
M  V30 699 C 66.4986 3.97599 -3.57518 0
M  V30 700 C 67.7986 2.1413 -4.76388 0
M  V30 701 H 69.4926 0.968563 -2.83301 0
M  V30 702 H 67.0386 0.464479 -1.36303 0
M  V30 703 H 68.9916 3.38413 -2.51107 0
M  V30 704 H 67.7156 2.98032 -1.33583 0
M  V30 705 H 66.3746 1.86727 -3.15481 0
M  V30 706 H 66.0226 4.28723 -2.6307 0
M  V30 707 H 65.7226 3.94659 -4.35337 0
M  V30 708 H 67.2466 4.7349 -3.85538 0
M  V30 709 H 68.6606 2.78083 -5.01341 0
M  V30 710 H 67.0576 2.2227 -5.57419 0
M  V30 711 H 68.1276 1.09331 -4.72414 0
M  V30 712 N 69.4707 1.49531 0.497807 0
M  V30 713 C 70.7167 1.59415 1.25358 0
M  V30 714 C 71.0497 0.281422 1.9215 0
M  V30 715 O 70.3247 -0.715249 1.80871 0
M  V30 716 C 70.6077 2.75566 2.3181 0
M  V30 717 C 70.4607 4.16642 1.69498 0
M  V30 718 C 71.7797 2.87347 3.33346 0
M  V30 719 H 68.8987 0.580244 0.454408 0
M  V30 720 H 71.5407 1.81827 0.551262 0
M  V30 721 H 69.6907 2.56587 2.91711 0
M  V30 722 H 71.3627 4.47145 1.13399 0
M  V30 723 H 69.6057 4.22141 0.998978 0
M  V30 724 H 70.2767 4.93792 2.46725 0
M  V30 725 H 72.7527 3.04634 2.83438 0
M  V30 726 H 71.6287 3.70289 4.05188 0
M  V30 727 H 71.8897 1.96834 3.95865 0
M  V30 728 N 70.9488 -0.749086 1.3866 0
M  V30 729 C 72.1738 -1.54344 1.38538 0
M  V30 730 C 72.5988 -1.88088 -0.0216655 0
M  V30 731 O 71.9568 -1.50899 -1.00494 0
M  V30 732 C 72.0048 -2.8164 2.25192 0
M  V30 733 O 71.1088 -3.7698 1.67212 0
M  V30 734 H 70.4498 -0.466654 0.472367 0
M  V30 735 H 72.9798 -0.925355 1.82478 0
M  V30 736 H 72.9898 -3.30519 2.3921 0
M  V30 737 H 71.6648 -2.56411 3.27454 0
M  V30 738 H 70.2418 -3.35699 1.6236 0
M  V30 739 N 72.4269 -1.23603 -0.977757 0
M  V30 740 C 73.6759 -1.06377 -1.71368 0
M  V30 741 C 73.9889 0.399062 -1.91486 0
M  V30 742 O 75.1949 0.691312 -2.62551 0
M  V30 743 C 73.6509 -1.85512 -3.08404 0
M  V30 744 C 73.2589 -3.36141 -2.96164 0
M  V30 745 C 75.0029 -1.76783 -3.85938 0
M  V30 746 C 72.9099 -4.07659 -4.28449 0
M  V30 747 H 71.8399 -0.394452 -0.642591 0
M  V30 748 H 74.4909 -1.47594 -1.09034 0
M  V30 749 H 72.8729 -1.37103 -3.71509 0
M  V30 750 H 74.0469 -3.92056 -2.42133 0
M  V30 751 H 72.3619 -3.45712 -2.32104 0
M  V30 752 H 74.9589 -2.27526 -4.83876 0
M  V30 753 H 75.3019 -0.731116 -4.0983 0
M  V30 754 H 75.8349 -2.22818 -3.2954 0
M  V30 755 H 72.5739 -5.11648 -4.09752 0
M  V30 756 H 72.0939 -3.5653 -4.82334 0
M  V30 757 H 73.7729 -4.141 -4.97122 0
M  V30 758 N 73.905 1.17692 -1.04816 0
M  V30 759 C 75.153 1.87488 -0.754497 0
M  V30 760 C 75.474 1.81205 0.720407 0
M  V30 761 O 74.744 1.23544 1.52032 0
M  V30 762 H 73.324 0.694101 -0.276102 0
M  V30 763 H 75.986 1.42793 -1.32651 0
M  V30 764 H 75.082 2.93328 -1.06606 0
M  V30 765 N 75.3831 0.828654 1.34056 0
M  V30 766 C 76.2931 0.256725 2.33191 0
M  V30 767 C 77.3091 -0.611898 1.62886 0
M  V30 768 O 78.4851 -0.51844 1.94613 0
M  V30 769 C 75.5501 -0.567238 3.42028 0
M  V30 770 C 74.6111 0.324458 4.28072 0
M  V30 771 C 73.8441 -0.460274 5.31712 0
M  V30 772 O 74.0671 -1.693 5.44696 0
M  V30 773 O 73.0011 0.160391 6.01686 0
M  V30 774 H 76.8271 1.07739 2.83947 0
M  V30 775 H 74.4121 0.59093 1.37217 0
M  V30 776 H 76.2941 -1.03582 4.08471 0
M  V30 777 H 74.9691 -1.36513 2.93506 0
M  V30 778 H 73.8761 0.840659 3.64532 0
M  V30 779 H 75.2091 1.08685 4.8005 0
M  V30 780 N 76.8612 -1.46375 0.584142 0
M  V30 781 C 77.8082 -2.30323 -0.148286 0
M  V30 782 C 78.7782 -1.40703 -0.882713 0
M  V30 783 O 79.9632 -1.69651 -0.873099 0
M  V30 784 C 77.1032 -3.25196 -1.15507 0
M  V30 785 C 76.2162 -4.29915 -0.423943 0
M  V30 786 C 75.3512 -5.11914 -1.41838 0
M  V30 787 C 74.3902 -6.08381 -0.673736 0
M  V30 788 N 73.5272 -6.83242 -1.6163 0
M  V30 789 H 78.3672 -2.92427 0.573644 0
M  V30 790 H 75.9042 -1.44118 0.294703 0
M  V30 791 H 77.8622 -3.78646 -1.75166 0
M  V30 792 H 76.4922 -2.64898 -1.8447 0
M  V30 793 H 75.5442 -3.7931 0.287714 0
M  V30 794 H 76.8562 -4.98549 0.158128 0
M  V30 795 H 76.0102 -5.69648 -2.08773 0
M  V30 796 H 74.7492 -4.43243 -2.03438 0
M  V30 797 H 73.7542 -5.49799 0.00938483 0
M  V30 798 H 74.9792 -6.79071 -0.0631082 0
M  V30 799 H 72.9252 -6.1728 -2.22038 0
M  V30 800 H 72.8422 -7.48144 -1.08707 0
M  V30 801 H 74.1102 -7.45534 -2.27596 0
M  V30 802 N 78.3393 -0.321999 -1.54275 0
M  V30 803 C 79.3023 0.531975 -2.22941 0
M  V30 804 C 80.3023 1.04478 -1.22234 0
M  V30 805 O 81.4923 0.937452 -1.46825 0
M  V30 806 C 78.6243 1.73874 -2.93224 0
M  V30 807 H 79.8173 -0.0682612 -2.99822 0
M  V30 808 H 77.3703 -0.0730644 -1.56129 0
M  V30 809 H 78.1053 2.37825 -2.20476 0
M  V30 810 H 77.8903 1.37847 -3.6707 0
M  V30 811 H 79.3803 2.34496 -3.45545 0
M  V30 812 N 79.8174 1.5752 -0.0501392 0
M  V30 813 C 80.7644 2.1147 0.924603 0
M  V30 814 C 81.7344 1.02182 1.30951 0
M  V30 815 O 82.9194 1.29723 1.39916 0
M  V30 816 C 80.0594 2.66337 2.19451 0
M  V30 817 C 79.1724 3.89708 1.86418 0
M  V30 818 C 78.3074 4.32893 3.07859 0
M  V30 819 C 77.3464 5.48967 2.70742 0
M  V30 820 N 76.4834 5.87211 3.84874 0
M  V30 821 H 81.3234 2.94465 0.457639 0
M  V30 822 H 78.8604 1.45531 0.214266 0
M  V30 823 H 80.8184 2.96247 2.93758 0
M  V30 824 H 79.4484 1.86141 2.63726 0
M  V30 825 H 78.5004 3.66396 1.02264 0
M  V30 826 H 79.8124 4.74074 1.55096 0
M  V30 827 H 78.9664 4.6435 3.90466 0
M  V30 828 H 77.7054 3.47336 3.42358 0
M  V30 829 H 76.7104 5.17183 1.86551 0
M  V30 830 H 77.9354 6.3624 2.37436 0
M  V30 831 H 75.8814 5.04607 4.19175 0
M  V30 832 H 75.7984 6.66266 3.57247 0
M  V30 833 H 77.0664 6.23282 4.68123 0
M  V30 834 N 81.2955 -0.223234 1.56011 0
M  V30 835 C 82.2285 -1.30377 1.87289 0
M  V30 836 C 83.2065 -1.45286 0.730112 0
M  V30 837 O 84.3905 -1.61126 0.978302 0
M  V30 838 C 81.5175 -2.67431 2.07843 0
M  V30 839 C 80.5635 -2.69546 3.30526 0
M  V30 840 S 81.3965 -2.23781 4.865 0
M  V30 841 C 82.5525 -3.62714 5.10088 0
M  V30 842 H 82.7855 -1.03652 2.78646 0
M  V30 843 H 80.3185 -0.425393 1.48424 0
M  V30 844 H 82.2765 -3.46336 2.20368 0
M  V30 845 H 80.9375 -2.91381 1.17285 0
M  V30 846 H 80.1305 -3.70255 3.41947 0
M  V30 847 H 79.7325 -1.98703 3.16849 0
M  V30 848 H 82.0245 -4.58391 4.98883 0
M  V30 849 H 82.9675 -3.5621 6.11981 0
M  V30 850 H 83.3755 -3.56323 4.37829 0
M  V30 851 N 82.7736 -1.49793 -0.48987 0
M  V30 852 C 83.7036 -1.70201 -1.59856 0
M  V30 853 C 84.6846 -0.55076 -1.60937 0
M  V30 854 O 85.8696 -0.787841 -1.77501 0
M  V30 855 C 82.9996 -1.77882 -2.98287 0
M  V30 856 C 81.9536 -2.92907 -3.12073 0
M  V30 857 C 81.2796 -2.85712 -4.51965 0
M  V30 858 C 82.5796 -4.3369 -2.91051 0
M  V30 859 H 84.2736 -2.63025 -1.43032 0
M  V30 860 H 81.8196 -1.26574 -0.686664 0
M  V30 861 H 83.7726 -1.90744 -3.75759 0
M  V30 862 H 82.4966 -0.816653 -3.16225 0
M  V30 863 H 81.1556 -2.79665 -2.37029 0
M  V30 864 H 80.8036 -1.8738 -4.66795 0
M  V30 865 H 80.5036 -3.62921 -4.62128 0
M  V30 866 H 82.0276 -3.00598 -5.31482 0
M  V30 867 H 83.4416 -4.47555 -3.58284 0
M  V30 868 H 81.8386 -5.12205 -3.12675 0
M  V30 869 H 82.9086 -4.47362 -1.87071 0
M  V30 870 N 84.2517 0.741722 -1.39055 0
M  V30 871 C 85.1617 1.88621 -1.39496 0
M  V30 872 C 86.1777 1.71557 -0.290578 0
M  V30 873 O 87.3537 1.94275 -0.530954 0
M  V30 874 C 84.4187 3.24134 -1.23037 0
M  V30 875 C 83.4797 3.5364 -2.43387 0
M  V30 876 C 82.7127 4.82687 -2.27703 0
M  V30 877 O 82.9357 5.55922 -1.27696 0
M  V30 878 O 81.8697 5.1194 -3.16545 0
M  V30 879 H 85.6957 1.91203 -2.35956 0
M  V30 880 H 83.2807 0.888625 -1.20099 0
M  V30 881 H 85.1627 4.0513 -1.15964 0
M  V30 882 H 83.8377 3.22337 -0.296691 0
M  V30 883 H 82.7447 2.72758 -2.56035 0
M  V30 884 H 84.0777 3.60209 -3.35425 0
M  V30 885 N 85.7298 1.2412 0.971189 0
M  V30 886 C 86.6768 1.0305 2.06517 0
M  V30 887 C 87.6468 -0.0550666 1.66009 0
M  V30 888 O 88.8318 0.0988688 1.90544 0
M  V30 889 C 85.9718 0.637653 3.39158 0
M  V30 890 C 85.0848 1.79633 3.92882 0
M  V30 891 C 84.2198 1.34939 5.13775 0
M  V30 892 C 83.2588 2.47823 5.59687 0
M  V30 893 N 82.3958 2.04022 6.71803 0
M  V30 894 H 87.2358 1.96685 2.23873 0
M  V30 895 H 84.7728 0.979694 1.09729 0
M  V30 896 H 86.7308 0.390931 4.15364 0
M  V30 897 H 85.3608 -0.261693 3.21737 0
M  V30 898 H 84.4128 2.15681 3.13346 0
M  V30 899 H 85.7248 2.64466 4.22918 0
M  V30 900 H 84.8788 1.06134 5.97345 0
M  V30 901 H 83.6178 0.471557 4.85415 0
M  V30 902 H 82.6228 2.77392 4.74693 0
M  V30 903 H 83.8478 3.36158 5.90063 0
M  V30 904 H 81.7938 1.18632 6.45184 0
M  V30 905 H 81.7108 2.82409 7.01271 0
M  V30 906 H 82.9788 1.78347 7.58823 0
M  V30 907 N 87.2079 -1.17134 1.05439 0
M  V30 908 C 88.4569 -1.86791 0.761049 0
M  V30 909 C 88.7699 -1.82072 -0.714795 0
M  V30 910 O 89.9759 -2.47223 -1.12218 0
M  V30 911 C 88.4319 -3.35166 1.31117 0
M  V30 912 C 88.0399 -3.48381 2.81664 0
M  V30 913 C 89.7839 -4.10134 1.09499 0
M  V30 914 C 87.6909 -4.90793 3.29964 0
M  V30 915 H 86.6209 -0.699681 0.281002 0
M  V30 916 H 89.2719 -1.3226 1.27199 0
M  V30 917 H 87.6539 -3.8925 0.72803 0
M  V30 918 H 88.8279 -3.04502 3.45855 0
M  V30 919 H 87.1429 -2.86836 3.01851 0
M  V30 920 H 89.7399 -5.152 1.43084 0
M  V30 921 H 90.0829 -4.16287 0.0328772 0
M  V30 922 H 90.6159 -3.62264 1.64346 0
M  V30 923 H 87.3549 -4.89816 4.35616 0
M  V30 924 H 86.8749 -5.35333 2.70516 0
M  V30 925 H 88.5539 -5.59573 3.24787 0
M  V30 926 N 88.686 -0.835752 -1.33615 0
M  V30 927 C 89.618 -0.224151 -2.28101 0
M  V30 928 C 90.631 0.593331 -1.51603 0
M  V30 929 O 91.82 0.420911 -1.73466 0
M  V30 930 C 88.92 0.703309 -3.31522 0
M  V30 931 C 88.093 -0.0741528 -4.37337 0
M  V30 932 C 87.152 0.776176 -5.20444 0
M  V30 933 O 86.178 0.216506 -5.68788 0
M  V30 934 N 87.38 2.09401 -5.41416 0
M  V30 935 H 90.145 -1.03598 -2.81225 0
M  V30 936 H 87.706 -0.69392 -1.46275 0
M  V30 937 H 89.698 1.27707 -3.84022 0
M  V30 938 H 88.268 1.41585 -2.78698 0
M  V30 939 H 87.488 -0.82928 -3.85378 0
M  V30 940 H 88.776 -0.608863 -5.05144 0
M  V30 941 H 88.174 2.57229 -5.03835 0
M  V30 942 H 86.731 2.61633 -5.96985 0
M  V30 943 N 90.1641 1.46063 -0.591896 0
M  V30 944 C 91.0961 2.28539 0.174001 0
M  V30 945 C 92.1091 1.39047 0.846753 0
M  V30 946 O 93.2981 1.63564 0.714774 0
M  V30 947 C 90.3981 3.14347 1.26645 0
M  V30 948 C 89.5711 4.32021 0.683856 0
M  V30 949 C 88.6301 4.99157 1.66518 0
M  V30 950 O 87.6561 5.56458 1.19763 0
M  V30 951 N 88.8581 4.97005 2.99943 0
M  V30 952 H 91.6231 2.94911 -0.533633 0
M  V30 953 H 89.1841 1.56077 -0.430294 0
M  V30 954 H 91.1761 3.56125 1.92242 0
M  V30 955 H 89.7461 2.49988 1.87682 0
M  V30 956 H 88.9661 3.93915 -0.1498 0
M  V30 957 H 90.2541 5.08059 0.274567 0
M  V30 958 H 89.6521 4.51714 3.40545 0
M  V30 959 H 88.2091 5.42696 3.61004 0
M  V30 960 N 91.6422 0.330177 1.54103 0
M  V30 961 C 92.8672 -0.274893 2.0557 0
M  V30 962 C 93.2922 -1.44487 1.20437 0
M  V30 963 O 92.6502 -1.80021 0.214991 0
M  V30 964 C 92.6982 -0.68079 3.54115 0
M  V30 965 O 91.8022 -1.7824 3.71893 0
M  V30 966 H 91.1432 -0.0483849 0.662235 0
M  V30 967 H 93.6732 0.480508 1.98878 0
M  V30 968 H 93.6832 -0.961635 3.96505 0
M  V30 969 H 92.3582 0.174903 4.15532 0
M  V30 970 H 90.9352 -1.49985 3.41407 0
M  V30 971 N 93.1203 -1.57491 0.0584922 0
M  V30 972 C 94.0673 -2.11958 -0.913376 0
M  V30 973 C 95.0373 -1.02875 -1.30407 0
M  V30 974 O 96.2223 -1.30464 -1.39226 0
M  V30 975 C 93.3623 -2.67497 -2.18035 0
M  V30 976 C 92.4753 -3.90691 -1.84349 0
M  V30 977 C 91.6103 -4.3452 -3.05559 0
M  V30 978 C 90.6493 -5.50395 -2.67827 0
M  V30 979 N 89.7863 -5.89244 -3.81754 0
M  V30 980 H 94.6263 -2.94704 -0.442017 0
M  V30 981 H 92.1633 -1.45643 -0.206545 0
M  V30 982 H 94.1213 -2.978 -2.92183 0
M  V30 983 H 92.7513 -1.87537 -2.62735 0
M  V30 984 H 91.8033 -3.66934 -1.00319 0
M  V30 985 H 93.1153 -4.7489 -1.5258 0
M  V30 986 H 92.2693 -4.66414 -3.87998 0
M  V30 987 H 91.0083 -3.49147 -3.40511 0
M  V30 988 H 90.0133 -5.18165 -1.83806 0
M  V30 989 H 91.2383 -6.3749 -2.34059 0
M  V30 990 H 89.1843 -5.06823 -4.16493 0
M  V30 991 H 89.1013 -6.68151 -3.53708 0
M  V30 992 H 90.3693 -6.25756 -4.64811 0
M  V30 993 N 94.5984 0.214957 -1.56127 0
M  V30 994 C 95.5454 1.26642 -1.92952 0
M  V30 995 C 96.5154 1.46244 -0.78753 0
M  V30 996 O 97.7004 1.59704 -1.04399 0
M  V30 997 C 94.8404 2.6104 -2.25726 0
M  V30 998 C 93.9534 2.49183 -3.52891 0
M  V30 999 C 93.0884 3.76149 -3.7508 0
M  V30 1000 C 92.1274 3.59041 -4.95738 0
M  V30 1001 N 91.2644 4.77972 -5.14283 0
M  V30 1002 H 96.1044 0.945384 -2.82607 0
M  V30 1003 H 93.6414 0.455489 -1.3987 0
M  V30 1004 H 95.5994 3.39313 -2.42739 0
M  V30 1005 H 94.2294 2.91227 -1.39236 0
M  V30 1006 H 93.2814 1.6231 -3.44034 0
M  V30 1007 H 94.5934 2.32466 -4.41318 0
M  V30 1008 H 93.7474 4.62865 -3.92226 0
M  V30 1009 H 92.4864 3.95799 -2.84947 0
M  V30 1010 H 91.4914 2.7071 -4.78535 0
M  V30 1011 H 92.7164 3.40856 -5.87362 0
M  V30 1012 H 90.6624 4.97923 -4.27093 0
M  V30 1013 H 90.5794 4.64006 -5.96853 0
M  V30 1014 H 91.8474 5.66096 -5.35869 0
M  V30 1015 N 96.0765 1.50051 0.48192 0
M  V30 1016 C 97.3065 1.63999 1.2565 0
M  V30 1017 C 97.7145 0.318288 1.86504 0
M  V30 1018 O 97.0575 -0.708534 1.69486 0
M  V30 1019 C 97.1195 2.66504 2.4128 0
M  V30 1020 C 96.7835 4.10352 2.01148 0
M  V30 1021 C 97.7805 4.96562 1.54021 0
M  V30 1022 C 95.4655 4.56203 2.10199 0
M  V30 1023 C 97.4595 6.26668 1.16473 0
M  V30 1024 C 95.1465 5.86318 1.72264 0
M  V30 1025 C 96.1445 6.71375 1.25477 0
M  V30 1026 O 95.8325 7.99062 0.880626 0
M  V30 1027 H 95.5645 0.55456 0.386574 0
M  V30 1028 H 98.1185 1.96954 0.582944 0
M  V30 1029 H 96.3485 2.28769 3.11772 0
M  V30 1030 H 98.0375 2.69783 3.03268 0
M  V30 1031 H 98.8035 4.62358 1.46458 0
M  V30 1032 H 94.6825 3.90152 2.45566 0
M  V30 1033 H 98.2265 6.93011 0.798841 0
M  V30 1034 H 94.1235 6.20046 1.79482 0
M  V30 1035 H 94.8915 8.12239 1.01043 0
M  V30 1036 N 97.5546 -0.734337 1.39446 0
M  V30 1037 C 98.5176 -1.83004 1.37994 0
M  V30 1038 C 99.5176 -1.58397 0.276938 0
M  V30 1039 O 100.708 -1.65785 0.534875 0
M  V30 1040 C 97.8396 -3.20802 1.1532 0
M  V30 1041 H 99.0326 -1.85694 2.35494 0
M  V30 1042 H 96.5856 -0.938059 1.25021 0
M  V30 1043 H 97.3206 -3.23772 0.185036 0
M  V30 1044 H 97.1056 -3.4006 1.95197 0
M  V30 1045 H 98.5956 -4.00862 1.17046 0
M  V30 1046 N 99.0327 -1.24633 -0.964593 0
M  V30 1047 C 100.279 -1.08949 -1.71049 0
M  V30 1048 C 100.612 0.370302 -1.90637 0
M  V30 1049 O 99.8867 1.27349 -1.47011 0
M  V30 1050 C 100.17 -1.83329 -3.0994 0
M  V30 1051 C 100.023 -3.37077 -2.97824 0
M  V30 1052 C 101.342 -1.60846 -4.09654 0
M  V30 1053 H 98.4607 -0.397178 -0.620821 0
M  V30 1054 H 101.103 -1.5334 -1.12191 0
M  V30 1055 H 99.2527 -1.45597 -3.60186 0
M  V30 1056 H 100.925 -3.84425 -2.5498 0
M  V30 1057 H 99.1677 -3.65298 -2.33965 0
M  V30 1058 H 99.8387 -3.84324 -3.96231 0
M  V30 1059 H 102.315 -1.93674 -3.68279 0
M  V30 1060 H 101.191 -2.1534 -5.04896 0
M  V30 1061 H 101.452 -0.547434 -4.38698 0
M  V30 1062 N 100.511 1.16574 -1.06058 0
M  V30 1063 C 101.459 2.22941 -0.663343 0
M  V30 1064 C 102.453 1.66358 0.319593 0
M  V30 1065 O 103.659 1.7905 0.184713 0
M  V30 1066 H 100.034 0.725907 -0.196376 0
M  V30 1067 H 102.005 2.53736 -1.57037 0
M  V30 1068 C 100.754 3.47642 -0.0632808 0
M  V30 1069 H 100.077 3.91493 -0.810733 0
M  V30 1070 H 101.517 4.2363 0.177177 0
M  V30 1071 C 99.9758 3.1509 1.19248 0
M  V30 1072 O 100.506 3.30673 2.28075 0
M  V30 1073 N 98.7118 2.6924 1.09353 0
M  V30 1074 H 98.2588 2.5676 0.207912 0
M  V30 1075 H 98.2168 2.47833 1.93458 0
M  V30 1076 N 101.989 0.842826 1.3317 0
M  V30 1077 C 103.238 0.436738 1.96915 0
M  V30 1078 C 103.551 -1.01025 1.67491 0
M  V30 1079 O 104.757 -1.5212 2.24881 0
M  V30 1080 C 103.213 0.730021 3.52418 0
M  V30 1081 C 102.821 2.19195 3.90714 0
M  V30 1082 C 104.565 0.391076 4.22695 0
M  V30 1083 C 102.472 2.42907 5.39212 0
M  V30 1084 H 101.402 0.15958 0.736919 0
M  V30 1085 H 104.053 1.03196 1.51733 0
M  V30 1086 H 102.435 0.0643755 3.95948 0
M  V30 1087 H 103.609 2.8984 3.58231 0
M  V30 1088 H 101.924 2.49425 3.33431 0
M  V30 1089 H 104.521 0.545817 5.31907 0
M  V30 1090 H 104.864 -0.666294 4.10933 0
M  V30 1091 H 105.397 1.01212 3.84709 0
M  V30 1092 H 102.136 3.47224 5.55982 0
M  V30 1093 H 101.656 1.76827 5.73142 0
M  V30 1094 H 103.335 2.2626 6.06148 0
M  V30 1095 N 103.467 -1.45747 0.599634 0
M  V30 1096 C 104.397 -2.33235 -0.111306 0
M  V30 1097 C 105.378 -1.46359 -0.866781 0
M  V30 1098 O 106.563 -1.75146 -0.838904 0
M  V30 1099 C 103.693 -3.28932 -1.11451 0
M  V30 1100 C 102.647 -4.25381 -0.472772 0
M  V30 1101 C 101.973 -5.1071 -1.58365 0
M  V30 1102 C 103.273 -5.18831 0.600948 0
M  V30 1103 H 104.967 -2.92927 0.61919 0
M  V30 1104 H 102.513 -1.40857 0.299215 0
M  V30 1105 H 104.466 -3.89002 -1.62036 0
M  V30 1106 H 103.19 -2.67381 -1.8755 0
M  V30 1107 H 101.849 -3.66598 0.0121472 0
M  V30 1108 H 101.497 -4.45533 -2.33473 0
M  V30 1109 H 101.197 -5.7604 -1.15982 0
M  V30 1110 H 102.721 -5.73647 -2.09194 0
M  V30 1111 H 104.135 -5.73019 0.179491 0
M  V30 1112 H 102.532 -5.92595 0.946076 0
M  V30 1113 H 103.602 -4.6174 1.48068 0
M  V30 1114 N 104.945 -0.338344 -1.53925 0
M  V30 1115 C 106.17 0.263987 -2.05713 0
M  V30 1116 C 106.595 1.43847 -1.21201 0
M  V30 1117 O 105.953 1.79904 -0.224535 0
M  V30 1118 C 106.001 0.662 -3.54471 0
M  V30 1119 O 105.105 1.76265 -3.72833 0
M  V30 1120 H 104.446 0.0448722 -0.662482 0
M  V30 1121 H 106.976 -0.491048 -1.9862 0
M  V30 1122 H 106.986 0.940594 -3.9701 0
M  V30 1123 H 105.661 -0.196937 -4.15433 0
M  V30 1124 H 104.238 1.48173 -3.42198 0
M  V30 1125 N 106.423 1.57458 -0.0668435 0
M  V30 1126 C 107.355 2.09413 0.931601 0
M  V30 1127 C 108.368 1.02522 1.26464 0
M  V30 1128 O 109.557 1.30049 1.22269 0
M  V30 1129 C 106.657 2.53537 2.24882 0
M  V30 1130 C 105.83 3.83944 2.09537 0
M  V30 1131 C 104.889 4.14214 3.2452 0
M  V30 1132 O 103.915 4.83891 2.9973 0
M  V30 1133 N 105.117 3.67367 4.49469 0
M  V30 1134 H 107.882 2.95699 0.488048 0
M  V30 1135 H 105.443 1.61462 0.119009 0
M  V30 1136 H 107.435 2.70853 3.00701 0
M  V30 1137 H 106.005 1.72415 2.60753 0
M  V30 1138 H 105.225 3.76057 1.18215 0
M  V30 1139 H 106.513 4.69312 1.96529 0
M  V30 1140 H 105.911 3.11068 4.72497 0
M  V30 1141 H 104.468 3.89891 5.2233 0
M  V30 1142 N 107.901 -0.206675 1.56239 0
M  V30 1143 C 109.178 -0.954051 1.70755 0
M  V30 1144 C 109.558 -2.01841 0.618353 0
M  V30 1145 O 108.906 -2.25444 -0.372434 0
M  V30 1146 C 109.116 -1.551 3.12642 0
M  V30 1147 C 110.464 -2.03757 3.72516 0
M  V30 1148 O 111.488 -1.64965 3.15698 0
M  V30 1149 O 110.347 -2.75103 4.72208 0
M  V30 1150 H 107.441 -0.446636 0.696021 0
M  V30 1151 H 109.987 -0.197283 1.68549 0
M  V30 1152 H 108.759 -0.783212 3.83382 0
M  V30 1153 H 108.382 -2.37291 3.19028 0
M  V30 1154 N 109.379 -1.50304 -0.473955 0
M  V30 1155 C 110.311 -1.65109 -1.58971 0
M  V30 1156 C 111.324 -0.532676 -1.53839 0
M  V30 1157 O 112.513 -0.805751 -1.59279 0
M  V30 1158 C 109.613 -1.61684 -2.97845 0
M  V30 1159 C 108.786 -2.8951 -3.27876 0
M  V30 1160 C 107.845 -2.78768 -4.4629 0
M  V30 1161 O 106.871 -3.52722 -4.46739 0
M  V30 1162 N 108.073 -1.9213 -5.47783 0
M  V30 1163 H 110.838 -2.61347 -1.46689 0
M  V30 1164 H 108.399 -1.47732 -0.662324 0
M  V30 1165 H 110.391 -1.52114 -3.75024 0
M  V30 1166 H 108.961 -0.731925 -3.03911 0
M  V30 1167 H 108.181 -3.13228 -2.39336 0
M  V30 1168 H 109.469 -3.74199 -3.4475 0
M  V30 1169 H 108.867 -1.31353 -5.50239 0
M  V30 1170 H 107.424 -1.88466 -6.23958 0
M  V30 1171 N 110.857 0.726932 -1.39834 0
M  V30 1172 C 111.804 1.841 -1.39197 0
M  V30 1173 C 112.774 1.642 -0.250502 0
M  V30 1174 O 113.959 1.85494 -0.446846 0
M  V30 1175 C 111.099 3.21697 -1.24919 0
M  V30 1176 C 110.212 3.53247 -2.48678 0
M  V30 1177 C 109.347 4.80289 -2.26928 0
M  V30 1178 C 108.386 5.04707 -3.4632 0
M  V30 1179 N 107.523 6.22956 -3.23836 0
M  V30 1180 H 112.363 1.83979 -2.34427 0
M  V30 1181 H 109.9 0.898876 -1.16442 0
M  V30 1182 H 111.858 4.01137 -1.1465 0
M  V30 1183 H 110.488 3.21076 -0.333153 0
M  V30 1184 H 109.54 2.68447 -2.69519 0
M  V30 1185 H 110.852 3.67205 -3.37582 0
M  V30 1186 H 110.006 5.67725 -2.13947 0
M  V30 1187 H 108.745 4.68519 -1.35431 0
M  V30 1188 H 107.75 4.1573 -3.5979 0
M  V30 1189 H 108.975 5.18357 -4.38729 0
M  V30 1190 H 106.921 6.12459 -2.35011 0
M  V30 1191 H 106.838 6.37539 -4.063 0
M  V30 1192 H 108.106 7.1321 -3.14566 0
M  V30 1193 N 112.336 1.25143 0.95797 0
M  V30 1194 C 113.582 1.09855 1.70469 0
M  V30 1195 C 113.915 -0.360187 1.90831 0
M  V30 1196 O 113.19 -1.26568 1.47685 0
M  V30 1197 C 113.473 1.8497 3.08963 0
M  V30 1198 C 113.326 3.38652 2.96032 0
M  V30 1199 C 114.645 1.63016 4.08795 0
M  V30 1200 H 111.764 0.400465 0.618706 0
M  V30 1201 H 114.406 1.53933 1.11376 0
M  V30 1202 H 112.556 1.47505 3.59409 0
M  V30 1203 H 114.228 3.85772 2.52938 0
M  V30 1204 H 112.471 3.66534 2.32025 0
M  V30 1205 H 113.142 3.8642 3.94187 0
M  V30 1206 H 115.618 1.95625 3.67247 0
M  V30 1207 H 114.494 2.18015 5.03747 0
M  V30 1208 H 114.755 0.570692 4.38401 0
M  V30 1209 N 113.814 -1.1601 1.06675 0
M  V30 1210 C 114.744 -2.22688 0.702307 0
M  V30 1211 C 115.725 -1.67306 -0.307032 0
M  V30 1212 O 116.91 -1.93352 -0.181305 0
M  V30 1213 C 114.04 -3.47178 0.092038 0
M  V30 1214 C 112.994 -4.15477 1.02777 0
M  V30 1215 C 112.32 -5.33963 0.28061 0
M  V30 1216 C 113.62 -4.66019 2.35846 0
M  V30 1217 H 115.314 -2.53429 1.59419 0
M  V30 1218 H 112.86 -1.21813 0.767961 0
M  V30 1219 H 114.813 -4.21037 -0.174814 0
M  V30 1220 H 113.537 -3.15749 -0.834877 0
M  V30 1221 H 112.196 -3.43549 1.27944 0
M  V30 1222 H 111.844 -4.98788 -0.649545 0
M  V30 1223 H 111.544 -5.806 0.904258 0
M  V30 1224 H 113.068 -6.10596 0.021396 0
M  V30 1225 H 114.482 -5.3144 2.15045 0
M  V30 1226 H 112.879 -5.23293 2.93743 0
M  V30 1227 H 113.949 -3.82023 2.98641 0
M  V30 1228 N 115.292 -0.849877 -1.32721 0
M  V30 1229 C 116.517 -0.463856 -2.02146 0
M  V30 1230 C 116.942 0.930449 -1.63476 0
M  V30 1231 O 116.3 1.61033 -0.832952 0
M  V30 1232 C 116.348 -0.604955 -3.55489 0
M  V30 1233 O 115.452 0.36425 -4.10788 0
M  V30 1234 H 114.793 -0.187046 -0.637111 0
M  V30 1235 H 117.323 -1.14775 -1.69375 0
M  V30 1236 H 117.333 -0.490696 -4.05038 0
M  V30 1237 H 116.008 -1.62174 -3.82978 0
M  V30 1238 H 114.585 0.206628 -3.72327 0
M  V30 1239 N 116.77 1.45427 -0.607355 0
M  V30 1240 C 117.703 2.27635 0.160482 0
M  V30 1241 C 118.681 1.37122 0.873857 0
M  V30 1242 O 119.865 1.66551 0.882775 0
M  V30 1243 C 116.992 3.15486 1.23231 0
M  V30 1244 C 116.038 4.21939 0.622097 0
M  V30 1245 S 116.871 5.32459 -0.569852 0
M  V30 1246 C 118.027 6.23879 0.502577 0
M  V30 1247 H 118.26 2.9241 -0.536983 0
M  V30 1248 H 115.793 1.49265 -0.394868 0
M  V30 1249 H 117.751 3.66659 1.84585 0
M  V30 1250 H 116.412 2.49977 1.90185 0
M  V30 1251 H 115.605 4.8333 1.42856 0
M  V30 1252 H 115.207 3.73906 0.0837063 0
M  V30 1253 H 117.499 6.63261 1.38171 0
M  V30 1254 H 118.442 7.0806 -0.0751759 0
M  V30 1255 H 118.85 5.58545 0.8178 0
M  V30 1256 N 118.248 0.346503 1.53744 0
M  V30 1257 C 119.196 -0.52422 2.26616 0
M  V30 1258 C 120.19 -1.09948 1.28871 0
M  V30 1259 O 121.396 -1.04488 1.46568 0
M  V30 1260 H 117.771 -0.187743 0.728187 0
M  V30 1261 H 119.742 0.11239 2.98188 0
M  V30 1262 C 118.491 -1.66186 3.05414 0
M  V30 1263 H 117.814 -1.22848 3.80458 0
M  V30 1264 H 119.254 -2.24622 3.59612 0
M  V30 1265 C 117.713 -2.59302 2.1509 0
M  V30 1266 O 118.243 -3.61628 1.74895 0
M  V30 1267 N 116.449 -2.28055 1.8011 0
M  V30 1268 H 115.996 -1.44883 2.12994 0
M  V30 1269 H 115.954 -2.90615 1.19958 0
M  V30 1270 N 119.726 -1.57421 0.075193 0
M  V30 1271 C 120.973 -1.93618 -0.593146 0
M  V30 1272 C 121.301 -0.955484 -1.69413 0
M  V30 1273 O 120.556 0.0283251 -1.9568 0
M  V30 1274 C 120.855 -3.36428 -1.20626 0
M  V30 1275 C 120.521 -4.50307 -0.231078 0
M  V30 1276 C 119.183 -4.81186 0.0371936 0
M  V30 1277 C 121.535 -5.19374 0.435888 0
M  V30 1278 C 118.863 -5.78466 0.979461 0
M  V30 1279 C 121.215 -6.17665 1.3665 0
M  V30 1280 C 119.879 -6.46958 1.6432 0
M  V30 1281 H 119.149 -0.708499 -0.217047 0
M  V30 1282 H 121.796 -1.90937 0.146793 0
M  V30 1283 H 120.101 -3.35592 -2.02201 0
M  V30 1284 H 121.798 -3.61727 -1.73073 0
M  V30 1285 H 118.388 -4.26227 -0.450357 0
M  V30 1286 H 122.572 -4.95711 0.241748 0
M  V30 1287 H 117.828 -5.99487 1.20106 0
M  V30 1288 H 122.002 -6.70284 1.88924 0
M  V30 1289 H 119.629 -7.2215 2.37494 0
M  V30 1290 N 121.204 0.198386 -1.56346 0
M  V30 1291 C 122.167 1.22952 -1.93431 0
M  V30 1292 C 123.167 1.38611 -0.815092 0
M  V30 1293 O 124.357 1.36479 -1.08255 0
M  V30 1294 C 121.489 2.59946 -2.20546 0
M  V30 1295 H 122.682 0.912626 -2.85677 0
M  V30 1296 H 120.235 0.43977 -1.49986 0
M  V30 1297 H 120.97 2.96696 -1.30927 0
M  V30 1298 H 120.755 2.49953 -3.02102 0
M  V30 1299 H 122.245 3.3431 -2.50253 0
M  V30 1300 N 122.682 1.50554 0.465978 0
M  V30 1301 C 123.93 1.61479 1.21528 0
M  V30 1302 C 124.251 0.319596 1.92363 0
M  V30 1303 O 123.521 -0.663194 1.84333 0
M  V30 1304 H 122.101 0.595055 0.451573 0
M  V30 1305 H 124.763 1.87355 0.53704 0
M  V30 1306 H 123.859 2.42846 1.96042 0
M  V30 1307 N 124.16 -0.719506 1.40217 0
M  V30 1308 C 125.092 -1.84428 1.36084 0
M  V30 1309 C 126.105 -1.60597 0.266913 0
M  V30 1310 O 127.294 -1.70544 0.526983 0
M  V30 1311 C 124.394 -3.20757 1.094 0
M  V30 1312 C 123.567 -3.71817 2.30372 0
M  V30 1313 C 122.626 -4.86748 1.99907 0
M  V30 1314 O 121.652 -4.99603 2.72737 0
M  V30 1315 N 122.854 -5.7226 0.974635 0
M  V30 1316 H 125.619 -1.88473 2.33019 0
M  V30 1317 H 123.18 -0.900885 1.3452 0
M  V30 1318 H 125.172 -3.95235 0.870116 0
M  V30 1319 H 123.742 -3.11884 0.211452 0
M  V30 1320 H 122.962 -2.88514 2.68614 0
M  V30 1321 H 124.25 -4.02666 3.11026 0
M  V30 1322 H 123.648 -5.6448 0.371368 0
M  V30 1323 H 122.205 -6.46739 0.810656 0
M  V30 1324 N 125.638 -1.25649 -0.95132 0
M  V30 1325 C 126.568 -1.08808 -2.06599 0
M  V30 1326 C 127.549 0.00382547 -1.701 0
M  V30 1327 O 128.734 -0.166325 -1.93486 0
M  V30 1328 C 125.864 -0.709542 -3.39975 0
M  V30 1329 C 124.818 -1.75206 -3.90496 0
M  V30 1330 C 124.144 -1.22811 -5.20405 0
M  V30 1331 C 125.444 -3.15153 -4.16504 0
M  V30 1332 H 127.138 -2.02048 -2.20946 0
M  V30 1333 H 124.684 -0.972835 -1.06169 0
M  V30 1334 H 126.637 -0.578649 -4.17408 0
M  V30 1335 H 125.361 0.258556 -3.25575 0
M  V30 1336 H 124.02 -1.87145 -3.15234 0
M  V30 1337 H 123.668 -0.250145 -5.02378 0
M  V30 1338 H 123.368 -1.92492 -5.55176 0
M  V30 1339 H 124.892 -1.10968 -6.00432 0
M  V30 1340 H 126.306 -3.06349 -4.84586 0
M  V30 1341 H 124.703 -3.82333 -4.62538 0
M  V30 1342 H 125.773 -3.61966 -3.22658 0
M  V30 1343 N 127.117 1.15442 -1.07289 0
M  V30 1344 C 128.027 2.23786 -0.704057 0
M  V30 1345 C 129.043 1.7166 0.284413 0
M  V30 1346 O 130.219 2.00972 0.131205 0
M  V30 1347 C 127.284 3.46535 -0.106792 0
M  V30 1348 C 126.345 4.13654 -1.14842 0
M  V30 1349 C 125.578 5.30544 -0.57956 0
M  V30 1350 O 125.801 5.67187 0.604585 0
M  V30 1351 O 124.735 5.87154 -1.32414 0
M  V30 1352 H 128.561 2.57664 -1.60757 0
M  V30 1353 H 126.146 1.23152 -0.845803 0
M  V30 1354 H 128.028 4.20804 0.224048 0
M  V30 1355 H 126.703 3.14407 0.770049 0
M  V30 1356 H 125.61 3.4131 -1.5316 0
M  V30 1357 H 126.943 4.49861 -1.99714 0
M  V30 1358 N 128.595 0.856903 1.32268 0
M  V30 1359 C 129.542 0.301172 2.28827 0
M  V30 1360 C 130.512 -0.593104 1.5515 0
M  V30 1361 O 131.697 -0.527537 1.83362 0
M  V30 1362 C 128.837 -0.502523 3.41422 0
M  V30 1363 C 127.95 0.417797 4.29975 0
M  V30 1364 C 127.085 -0.398749 5.29701 0
M  V30 1365 C 126.124 0.518827 6.09897 0
M  V30 1366 N 125.261 -0.260674 7.01616 0
M  V30 1367 H 130.101 1.12983 2.75751 0
M  V30 1368 H 127.638 0.568582 1.35667 0
M  V30 1369 H 129.596 -0.984141 4.05426 0
M  V30 1370 H 128.226 -1.29599 2.95642 0
M  V30 1371 H 127.278 1.01781 3.66531 0
M  V30 1372 H 128.59 1.12191 4.86019 0
M  V30 1373 H 127.744 -0.943435 5.9932 0
M  V30 1374 H 126.483 -1.13622 4.7428 0
M  V30 1375 H 125.488 1.07538 5.39181 0
M  V30 1376 H 126.713 1.25495 6.67404 0
M  V30 1377 H 124.659 -0.981198 6.4862 0
M  V30 1378 H 124.576 0.384364 7.55022 0
M  V30 1379 H 125.844 -0.787014 7.75517 0
M  V30 1380 N 130.073 -1.45103 0.615059 0
M  V30 1381 C 131.484 -1.85654 0.197383 0
M  V30 1382 C 131.835 -1.51433 -1.24749 0
M  V30 1383 O 130.96 -0.944608 -1.94695 0
M  V30 1384 C 131.555 -3.36972 0.351448 0
M  V30 1385 C 130.114 -3.76398 -0.011593 0
M  V30 1386 C 129.261 -2.69024 0.672394 0
M  V30 1387 H 132.212 -1.35797 0.821263 0
M  V30 1388 H 132.233 -3.78239 -0.414227 0
M  V30 1389 H 131.745 -3.61847 1.40314 0
M  V30 1390 H 129.846 -3.5714 -1.06217 0
M  V30 1391 H 129.959 -4.77532 0.387265 0
M  V30 1392 H 128.323 -2.54465 0.109284 0
M  V30 1393 H 129.106 -2.96735 1.72636 0
M  V30 1394 N 131.551 -0.354651 -1.53558 0
M  V30 1395 C 132.797 0.238797 -2.01389 0
M  V30 1396 C 133.13 1.49309 -1.2418 0
M  V30 1397 O 132.405 1.91638 -0.332457 0
M  V30 1398 C 132.688 0.541771 -3.56001 0
M  V30 1399 C 132.541 -0.725388 -4.43912 0
M  V30 1400 C 133.86 1.34685 -4.18984 0
M  V30 1401 H 130.979 0.0853177 -0.732045 0
M  V30 1402 H 133.621 -0.477384 -1.83905 0
M  V30 1403 H 131.771 1.15189 -3.71031 0
M  V30 1404 H 133.443 -1.36313 -4.407 0
M  V30 1405 H 131.686 -1.34801 -4.12324 0
M  V30 1406 H 132.357 -0.468505 -5.50008 0
M  V30 1407 H 134.833 0.830837 -4.07721 0
M  V30 1408 H 133.709 1.52759 -5.27215 0
M  V30 1409 H 133.97 2.35221 -3.74331 0
M  V30 1410 N 133.029 1.57378 -0.0835403 0
M  V30 1411 C 134.306 1.85363 0.624507 0
M  V30 1412 C 134.686 0.978239 1.87066 0
M  V30 1413 O 134.034 0.0475908 2.2845 0
M  V30 1414 C 134.244 3.35795 0.950947 0
M  V30 1415 C 135.592 4.03581 1.31939 0
M  V30 1416 O 136.616 3.40609 1.04232 0
M  V30 1417 O 135.475 5.14672 1.83779 0
M  V30 1418 H 132.569 0.766162 0.311329 0
M  V30 1419 H 135.115 1.69307 -0.115362 0
M  V30 1420 H 133.887 3.91244 0.0663899 0
M  V30 1421 H 133.51 3.57154 1.74719 0
M  V30 1422 N 134.507 -0.190092 1.56449 0
M  V30 1423 C 135.753 -0.911052 1.81184 0
M  V30 1424 C 136.086 -1.82699 0.658396 0
M  V30 1425 O 135.361 -1.91491 -0.340775 0
M  V30 1426 C 135.644 -1.72297 3.16205 0
M  V30 1427 C 135.497 -0.831419 4.42049 0
M  V30 1428 C 136.816 -2.69454 3.47969 0
M  V30 1429 H 133.935 -0.32977 0.659106 0
M  V30 1430 H 136.577 -0.178169 1.89163 0
M  V30 1431 H 134.727 -2.34778 3.09534 0
M  V30 1432 H 136.399 -0.220929 4.60771 0
M  V30 1433 H 134.642 -0.138406 4.33579 0
M  V30 1434 H 135.313 -1.43461 5.33032 0
M  V30 1435 H 137.789 -2.17104 3.54972 0
M  V30 1436 H 136.665 -3.23342 4.43555 0
M  V30 1437 H 136.926 -3.48744 2.71717 0
M  V30 1438 N 135.985 -1.50799 -0.457987 0
M  V30 1439 C 136.917 -1.66786 -1.57211 0
M  V30 1440 C 137.93 -0.548962 -1.53265 0
M  V30 1441 O 139.119 -0.8226 -1.58416 0
M  V30 1442 C 136.219 -1.64834 -2.96113 0
M  V30 1443 C 135.392 -2.92971 -3.24787 0
M  V30 1444 C 134.451 -2.83485 -4.43309 0
M  V30 1445 O 133.477 -3.5744 -4.42973 0
M  V30 1446 N 134.679 -1.97929 -5.45714 0
M  V30 1447 H 137.444 -2.62889 -1.43909 0
M  V30 1448 H 135.005 -1.48427 -0.646617 0
M  V30 1449 H 136.997 -1.56084 -3.7339 0
M  V30 1450 H 135.567 -0.764118 -3.03117 0
M  V30 1451 H 134.787 -3.15749 -2.36 0
M  V30 1452 H 136.075 -3.77834 -3.40762 0
M  V30 1453 H 135.473 -1.37182 -5.48815 0
M  V30 1454 H 134.03 -1.95073 -6.21924 0
M  V30 1455 N 137.463 0.71206 -1.40597 0
M  V30 1456 C 138.71 1.47197 -1.39065 0
M  V30 1457 C 139.038 1.94499 0.00583891 0
M  V30 1458 O 138.293 1.68752 0.99102 0
M  V30 1459 C 138.592 2.71039 -2.32965 0
M  V30 1460 C 138.258 2.42484 -3.80148 0
M  V30 1461 C 136.92 2.34406 -4.20247 0
M  V30 1462 C 139.272 2.18598 -4.73143 0
M  V30 1463 C 136.6 2.00516 -5.51371 0
M  V30 1464 C 138.952 1.8622 -6.0457 0
M  V30 1465 C 137.616 1.76626 -6.43708 0
M  V30 1466 H 136.886 0.538634 -0.508876 0
M  V30 1467 H 139.533 0.815325 -1.73276 0
M  V30 1468 H 137.838 3.41558 -1.91951 0
M  V30 1469 H 139.535 3.29138 -2.29061 0
M  V30 1470 H 136.125 2.49659 -3.4838 0
M  V30 1471 H 140.309 2.23793 -4.42979 0
M  V30 1472 H 135.565 1.91628 -5.80593 0
M  V30 1473 H 139.739 1.66752 -6.76141 0
M  V30 1474 H 137.366 1.50133 -7.45228 0
M  V30 1475 N 138.941 1.26152 0.944643 0
M  V30 1476 C 139.851 1.09176 2.07648 0
M  V30 1477 C 140.867 0.0261935 1.7398 0
M  V30 1478 O 142.043 0.229208 2.00091 0
M  V30 1479 C 139.108 0.722915 3.39079 0
M  V30 1480 C 138.169 1.86752 3.86552 0
M  V30 1481 C 137.402 1.51617 5.11711 0
M  V30 1482 O 137.625 0.416331 5.68879 0
M  V30 1483 O 136.559 2.34975 5.54139 0
M  V30 1484 H 140.385 2.0412 2.24875 0
M  V30 1485 H 137.97 1.05182 1.061 0
M  V30 1486 H 139.852 0.529787 4.18056 0
M  V30 1487 H 138.527 -0.197159 3.23099 0
M  V30 1488 H 137.434 2.11558 3.08535 0
M  V30 1489 H 138.767 2.76719 4.07047 0
M  V30 1490 N 140.419 -1.14872 1.07899 0
M  V30 1491 C 141.329 -2.2341 0.715915 0
M  V30 1492 C 142.345 -1.71808 -0.275306 0
M  V30 1493 O 143.521 -2.01039 -0.120545 0
M  V30 1494 C 140.586 -3.46474 0.125168 0
M  V30 1495 C 139.647 -4.13039 1.17034 0
M  V30 1496 C 138.88 -5.30229 0.607688 0
M  V30 1497 O 139.103 -5.675 -0.574497 0
M  V30 1498 O 138.037 -5.86444 1.35526 0
M  V30 1499 H 141.863 -2.56808 1.62121 0
M  V30 1500 H 139.448 -1.22702 0.852322 0
M  V30 1501 H 141.33 -4.20917 -0.201729 0
M  V30 1502 H 140.005 -3.14811 -0.753364 0
M  V30 1503 H 138.912 -3.40493 1.54968 0
M  V30 1504 H 140.245 -4.48796 2.02097 0
M  V30 1505 N 141.898 -0.863906 -1.31812 0
M  V30 1506 C 142.828 -0.330843 -2.31144 0
M  V30 1507 C 143.809 0.575005 -1.60087 0
M  V30 1508 O 144.994 0.493304 -1.8783 0
M  V30 1509 C 142.124 0.47374 -3.44054 0
M  V30 1510 C 141.078 -0.338481 -4.26659 0
M  V30 1511 C 140.404 0.591412 -5.31419 0
M  V30 1512 C 141.704 -1.56926 -4.98168 0
M  V30 1513 H 143.398 -1.16086 -2.75979 0
M  V30 1514 H 140.944 -0.559657 -1.32679 0
M  V30 1515 H 142.897 0.857143 -4.12591 0
M  V30 1516 H 141.621 1.33721 -2.9797 0
M  V30 1517 H 140.28 -0.703754 -3.59782 0
M  V30 1518 H 139.928 1.45199 -4.81587 0
M  V30 1519 H 139.628 0.0519022 -5.87577 0
M  V30 1520 H 141.152 0.97179 -6.02817 0
M  V30 1521 H 142.566 -1.25764 -5.59336 0
M  V30 1522 H 140.963 -2.04739 -5.64094 0
M  V30 1523 H 142.033 -2.32544 -4.25501 0
M  V30 1524 N 143.376 1.44774 -0.622745 0
M  V30 1525 C 144.624 2.01721 -0.123655 0
M  V30 1526 C 144.945 1.49172 1.25589 0
M  V30 1527 O 144.215 0.691974 1.83272 0
M  V30 1528 H 142.795 0.745777 -0.0427225 0
M  V30 1529 H 145.457 1.77382 -0.807559 0
M  V30 1530 H 144.553 3.11984 -0.0849534 0
M  V30 1531 N 144.854 0.36279 1.53368 0
M  V30 1532 C 146.102 -0.227326 2.00817 0
M  V30 1533 C 146.423 -1.49511 1.25186 0
M  V30 1534 O 145.693 -1.92482 0.364348 0
M  V30 1535 H 144.273 -0.0869923 0.741917 0
M  V30 1536 H 146.935 0.488381 1.88682 0
M  V30 1537 H 146.031 -0.456273 3.08747 0
M  V30 1538 N 146.332 -1.57332 0.0918853 0
M  V30 1539 C 147.262 -2.16872 -0.865371 0
M  V30 1540 C 148.243 -1.10118 -1.29646 0
M  V30 1541 O 149.428 -1.38242 -1.36392 0
M  V30 1542 C 146.558 -2.74649 -2.12569 0
M  V30 1543 C 145.512 -3.86747 -1.83333 0
M  V30 1544 C 144.838 -4.31212 -3.16166 0
M  V30 1545 C 146.138 -5.10089 -1.1228 0
M  V30 1546 H 147.832 -2.97114 -0.369307 0
M  V30 1547 H 145.378 -1.42918 -0.176194 0
M  V30 1548 H 147.331 -3.14952 -2.7997 0
M  V30 1549 H 146.055 -1.91657 -2.64452 0
M  V30 1550 H 144.714 -3.46978 -1.18331 0
M  V30 1551 H 144.362 -3.45115 -3.6593 0
M  V30 1552 H 144.062 -5.06788 -2.97388 0
M  V30 1553 H 145.586 -4.74146 -3.84731 0
M  V30 1554 H 147 -5.47582 -1.69785 0
M  V30 1555 H 145.397 -5.91073 -1.03693 0
M  V30 1556 H 146.467 -4.84786 -0.105041 0
M  V30 1557 N 147.81 0.181792 -1.56548 0
M  V30 1558 C 149.221 0.745244 -1.71181 0
M  V30 1559 C 149.572 1.83262 -0.70068 0
M  V30 1560 O 148.697 2.15946 0.140154 0
M  V30 1561 C 149.292 1.35859 -3.10367 0
M  V30 1562 C 147.851 1.86898 -3.2672 0
M  V30 1563 C 146.998 0.743942 -2.67134 0
M  V30 1564 H 149.949 -0.0434661 -1.5864 0
M  V30 1565 H 149.97 2.22817 -3.08436 0
M  V30 1566 H 149.482 0.566948 -3.83937 0
M  V30 1567 H 147.583 2.68738 -2.5809 0
M  V30 1568 H 147.696 2.02162 -4.34359 0
M  V30 1569 H 146.06 1.16169 -2.26665 0
M  V30 1570 H 146.843 -0.035676 -3.43281 0
M  V30 1571 N 149.288 1.51039 0.449983 0
M  V30 1572 C 150.534 1.63322 1.20223 0
M  V30 1573 C 150.867 0.34241 1.91158 0
M  V30 1574 O 150.142 -0.657344 1.83055 0
M  V30 1575 C 150.425 2.82801 2.22925 0
M  V30 1576 C 150.278 4.21823 1.56157 0
M  V30 1577 C 151.597 2.97807 3.24035 0
M  V30 1578 H 148.716 0.594407 0.435718 0
M  V30 1579 H 151.358 1.83489 0.493136 0
M  V30 1580 H 149.508 2.65738 2.834 0
M  V30 1581 H 151.18 4.50526 0.991162 0
M  V30 1582 H 149.423 4.25105 0.864172 0
M  V30 1583 H 150.094 5.01391 2.30891 0
M  V30 1584 H 152.57 3.13497 2.73603 0
M  V30 1585 H 151.446 3.82992 3.93202 0
M  V30 1586 H 151.707 2.09328 3.89402 0
M  V30 1587 N 150.766 -0.704594 1.40972 0
M  V30 1588 C 152.015 -1.46018 1.39146 0
M  V30 1589 C 152.328 -1.956 0.000589254 0
M  V30 1590 O 153.534 -2.71137 -0.1403 0
M  V30 1591 C 151.99 -2.63996 2.4461 0
M  V30 1592 C 151.598 -2.21238 3.89561 0
M  V30 1593 C 153.342 -3.41677 2.51907 0
M  V30 1594 C 151.249 -3.3612 4.86598 0
M  V30 1595 H 150.179 -0.548444 0.517422 0
M  V30 1596 H 152.83 -0.765784 1.66757 0
M  V30 1597 H 151.212 -3.3566 2.10115 0
M  V30 1598 H 152.386 -1.56923 4.33257 0
M  V30 1599 H 150.701 -1.56574 3.85841 0
M  V30 1600 H 153.298 -4.27182 3.2159 0
M  V30 1601 H 153.641 -3.86247 1.55303 0
M  V30 1602 H 154.174 -2.77064 2.85448 0
M  V30 1603 H 150.913 -2.96572 5.84573 0
M  V30 1604 H 150.433 -3.99315 4.47557 0
M  V30 1605 H 152.112 -4.02029 5.06934 0
M  V30 1606 N 152.244 -1.26651 -0.937939 0
M  V30 1607 C 153.191 -1.0849 -2.03712 0
M  V30 1608 C 154.161 0.011033 -1.66096 0
M  V30 1609 O 155.346 -0.149353 -1.90215 0
M  V30 1610 C 152.486 -0.72735 -3.37348 0
M  V30 1611 C 151.599 -1.89986 -3.87981 0
M  V30 1612 C 150.734 -1.48513 -5.10017 0
M  V30 1613 C 149.773 -2.62575 -5.5292 0
M  V30 1614 N 148.91 -2.21762 -6.66158 0
M  V30 1615 H 153.75 -2.02551 -2.18579 0
M  V30 1616 H 151.287 -1.00844 -1.07093 0
M  V30 1617 H 153.245 -0.50092 -4.14182 0
M  V30 1618 H 151.875 0.176298 -3.22318 0
M  V30 1619 H 150.927 -2.23913 -3.07518 0
M  V30 1620 H 152.239 -2.75586 -4.15757 0
M  V30 1621 H 151.393 -1.21934 -5.94321 0
M  V30 1622 H 150.132 -0.60009 -4.83994 0
M  V30 1623 H 149.137 -2.8988 -4.67172 0
M  V30 1624 H 150.362 -3.51685 -5.80943 0
M  V30 1625 H 148.308 -1.35696 -6.41812 0
M  V30 1626 H 148.225 -3.00903 -6.93537 0
M  V30 1627 H 149.493 -1.98403 -7.53828 0
M  V30 1628 N 153.722 1.14298 -1.08507 0
M  V30 1629 C 154.999 1.81544 -0.728088 0
M  V30 1630 C 155.379 1.95838 0.78808 0
M  V30 1631 O 154.727 1.51904 1.70697 0
M  V30 1632 C 154.937 3.17169 -1.45619 0
M  V30 1633 C 156.285 3.9265 -1.61591 0
M  V30 1634 O 157.309 3.26762 -1.41793 0
M  V30 1635 O 156.168 5.10807 -1.94263 0
M  V30 1636 H 153.262 0.78491 -0.260471 0
M  V30 1637 H 155.808 1.21307 -1.18671 0
M  V30 1638 H 154.58 3.01934 -2.489 0
M  V30 1639 H 154.203 3.851 -0.989124 0
M  V30 1640 N 155.201 0.870884 1.31352 0
M  V30 1641 C 156.164 0.332243 2.26779 0
M  V30 1642 C 157.164 -0.517302 1.52252 0
M  V30 1643 O 158.354 -0.326477 1.71113 0
M  V30 1644 C 155.486 -0.528066 3.36785 0
M  V30 1645 H 156.679 1.17469 2.75937 0
M  V30 1646 H 154.232 0.64655 1.423 0
M  V30 1647 H 154.967 -1.39167 2.92922 0
M  V30 1648 H 154.752 0.0802582 3.92018 0
M  V30 1649 H 156.242 -0.897179 4.07849 0
M  V30 1650 N 156.679 -1.44442 0.630414 0
M  V30 1651 C 157.609 -2.33418 -0.0618083 0
M  V30 1652 C 158.59 -1.48165 -0.835541 0
M  V30 1653 O 159.775 -1.76886 -0.801564 0
M  V30 1654 C 156.905 -3.31222 -1.04449 0
M  V30 1655 C 155.859 -4.26288 -0.382436 0
M  V30 1656 C 155.185 -5.13954 -1.47497 0
M  V30 1657 C 156.485 -5.1744 0.710865 0
M  V30 1658 H 158.179 -2.91548 0.681184 0
M  V30 1659 H 155.725 -1.40191 0.329026 0
M  V30 1660 H 157.678 -3.92351 -1.53748 0
M  V30 1661 H 156.402 -2.71299 -1.81836 0
M  V30 1662 H 155.061 -3.6649 0.0899054 0
M  V30 1663 H 154.709 -4.50385 -2.2397 0
M  V30 1664 H 154.409 -5.7837 -1.03737 0
M  V30 1665 H 155.933 -5.77955 -1.96979 0
M  V30 1666 H 157.347 -5.72509 0.300996 0
M  V30 1667 H 155.744 -5.90455 1.07156 0
M  V30 1668 H 156.814 -4.58496 1.57829 0
M  V30 1669 N 158.157 -0.370918 -1.53173 0
M  V30 1670 C 159.12 0.460778 -2.24521 0
M  V30 1671 C 160.12 1.00536 -1.25496 0
M  V30 1672 O 161.31 0.890266 -1.49733 0
M  V30 1673 C 158.442 1.64457 -2.98608 0
M  V30 1674 H 159.635 -0.163613 -2.99453 0
M  V30 1675 H 157.188 -0.122699 -1.55818 0
M  V30 1676 H 157.923 2.30691 -2.2793 0
M  V30 1677 H 157.708 1.26099 -3.7127 0
M  V30 1678 H 159.198 2.23384 -3.5283 0
M  V30 1679 N 159.635 1.57281 -0.100228 0
M  V30 1680 C 160.567 2.11342 0.886972 0
M  V30 1681 C 161.58 1.05182 1.24261 0
M  V30 1682 O 162.769 1.32613 1.19483 0
M  V30 1683 C 159.869 2.5825 2.19454 0
M  V30 1684 C 159.042 3.88302 2.01346 0
M  V30 1685 C 158.101 4.21004 3.15661 0
M  V30 1686 O 157.127 4.9014 2.89398 0
M  V30 1687 N 158.329 3.76818 4.41575 0
M  V30 1688 H 161.094 2.96668 0.425216 0
M  V30 1689 H 158.655 1.61678 0.0847334 0
M  V30 1690 H 160.647 2.7717 2.94888 0
M  V30 1691 H 159.217 1.77907 2.57037 0
M  V30 1692 H 158.437 3.7848 1.10212 0
M  V30 1693 H 159.725 4.73375 1.8653 0
M  V30 1694 H 159.123 3.2102 4.65792 0
M  V30 1695 H 157.68 4.00882 5.13942 0
M  V30 1696 N 161.113 -0.173488 1.56642 0
M  V30 1697 C 162.362 -0.888758 1.81063 0
M  V30 1698 C 162.675 -1.83506 0.67712 0
M  V30 1699 O 163.881 -2.59254 0.806206 0
M  V30 1700 C 162.337 -1.63091 3.20826 0
M  V30 1701 C 161.945 -0.728357 4.4204 0
M  V30 1702 C 163.689 -2.33454 3.54541 0
M  V30 1703 C 161.596 -1.47062 5.72823 0
M  V30 1704 H 160.526 -0.335618 0.675186 0
M  V30 1705 H 163.177 -0.141712 1.82952 0
M  V30 1706 H 161.559 -2.42263 3.13248 0
M  V30 1707 H 162.733 0.0262449 4.60793 0
M  V30 1708 H 161.048 -0.134492 4.16183 0
M  V30 1709 H 163.645 -2.89578 4.49498 0
M  V30 1710 H 163.988 -3.08687 2.79317 0
M  V30 1711 H 164.521 -1.61227 3.63663 0
M  V30 1712 H 161.26 -0.760658 6.51072 0
M  V30 1713 H 160.78 -2.1986 5.58052 0
M  V30 1714 H 162.459 -2.01868 6.14702 0
M  V30 1715 N 162.591 -1.51276 -0.441967 0
M  V30 1716 C 163.816 -1.67799 -1.21895 0
M  V30 1717 C 164.241 -0.372864 -1.84367 0
M  V30 1718 O 163.599 0.666501 -1.68604 0
M  V30 1719 C 163.647 -2.79199 -2.28211 0
M  V30 1720 O 162.751 -2.42479 -3.33583 0
M  V30 1721 H 162.092 -0.559649 -0.357336 0
M  V30 1722 H 164.622 -1.97815 -0.522522 0
M  V30 1723 H 164.632 -3.03146 -2.73069 0
M  V30 1724 H 163.307 -3.73906 -1.82118 0
M  V30 1725 H 161.884 -2.29087 -2.94234 0
M  V30 1726 N 164.069 0.697108 -1.41344 0
M  V30 1727 C 165.309 1.46939 -1.42085 0
M  V30 1728 C 165.673 1.9198 -0.0280397 0
M  V30 1729 O 166.874 2.6865 0.0897504 0
M  V30 1730 C 165.145 2.64985 -2.39828 0
M  V30 1731 S 166.704 3.54147 -2.59085 0
M  V30 1732 H 163.522 0.502146 -0.503359 0
M  V30 1733 H 166.124 0.813546 -1.77769 0
M  V30 1734 H 164.828 2.30098 -3.39828 0
M  V30 1735 H 164.359 3.35464 -2.05493 0
M  V30 1736 H 166.374 4.60137 -1.85711 0
M  V30 1737 N 165.547 1.27147 0.931209 0
M  V30 1738 C 166.479 1.05364 2.03546 0
M  V30 1739 C 167.492 0.0108438 1.62796 0
M  V30 1740 O 168.681 0.25202 1.76712 0
M  V30 1741 C 165.781 0.575566 3.33977 0
M  V30 1742 C 164.954 1.68985 4.03439 0
M  V30 1743 C 164.013 1.20813 5.12143 0
M  V30 1744 O 163.039 1.90712 5.363 0
M  V30 1745 N 164.241 0.0618851 5.80467 0
M  V30 1746 H 167.006 2.00454 2.22796 0
M  V30 1747 H 164.567 1.18666 1.10136 0
M  V30 1748 H 166.559 0.237264 4.04004 0
M  V30 1749 H 165.129 -0.282016 3.11325 0
M  V30 1750 H 164.349 2.19861 3.27192 0
M  V30 1751 H 165.637 2.4378 4.46597 0
M  V30 1752 H 165.035 -0.521621 5.6329 0
M  V30 1753 H 163.592 -0.217264 6.51438 0
M  V30 1754 N 167.025 -1.13721 1.09112 0
M  V30 1755 C 168.271 -1.85198 0.826414 0
M  V30 1756 C 168.604 -1.83129 -0.646319 0
M  V30 1757 O 167.879 -1.2671 -1.47563 0
M  V30 1758 C 168.162 -3.33507 1.35812 0
M  V30 1759 C 168.015 -3.44108 2.89672 0
M  V30 1760 C 169.334 -4.28838 0.989256 0
M  V30 1761 H 166.453 -0.67243 0.301675 0
M  V30 1762 H 169.095 -1.33499 1.35197 0
M  V30 1763 H 167.245 -3.77666 0.911082 0
M  V30 1764 H 168.917 -3.08684 3.428 0
M  V30 1765 H 167.16 -2.85087 3.26967 0
M  V30 1766 H 167.831 -4.48388 3.21951 0
M  V30 1767 H 170.307 -3.92734 1.37475 0
M  V30 1768 H 169.183 -5.31051 1.38838 0
M  V30 1769 H 169.444 -4.4198 -0.102924 0
M  V30 1770 N 168.503 -0.877838 -1.30888 0
M  V30 1771 C 169.749 -0.493426 -1.96706 0
M  V30 1772 C 170.082 0.953504 -1.6918 0
M  V30 1773 O 169.357 1.67266 -0.992594 0
M  V30 1774 C 169.64 -0.760429 -3.51979 0
M  V30 1775 C 169.493 -2.25747 -3.89048 0
M  V30 1776 C 170.812 -0.232148 -4.39487 0
M  V30 1777 H 167.931 -0.180746 -0.714493 0
M  V30 1778 H 170.573 -1.10052 -1.54882 0
M  V30 1779 H 168.723 -0.243715 -3.87735 0
M  V30 1780 H 170.395 -2.84204 -3.63354 0
M  V30 1781 H 168.638 -2.72694 -3.37373 0
M  V30 1782 H 169.309 -2.39491 -4.97341 0
M  V30 1783 H 171.785 -0.674314 -4.106 0
M  V30 1784 H 170.661 -0.448355 -5.47066 0
M  V30 1785 H 170.922 0.866297 -4.33529 0
M  V30 1786 N 169.982 1.44106 -0.638065 0
M  V30 1787 C 170.93 2.3248 0.0748149 0
M  V30 1788 C 171.924 1.47746 0.828702 0
M  V30 1789 O 173.13 1.64049 0.740816 0
M  V30 1790 H 169.505 0.750771 0.0429686 0
M  V30 1791 H 171.476 2.90348 -0.688504 0
M  V30 1792 C 170.225 3.31843 1.03805 0
M  V30 1793 H 169.548 3.97059 0.467375 0
M  V30 1794 H 170.988 3.96345 1.50622 0
M  V30 1795 C 169.447 2.61291 2.1267 0
M  V30 1796 O 169.977 2.41702 3.20847 0
M  V30 1797 N 168.183 2.20915 1.88798 0
M  V30 1798 H 167.73 2.37047 1.00829 0
M  V30 1799 H 167.688 1.74038 2.61836 0
M  V30 1800 N 171.46 0.379036 1.52974 0
M  V30 1801 C 172.37 -0.468639 2.29872 0
M  V30 1802 C 173.386 -1.08067 1.36373 0
M  V30 1803 O 174.562 -1.08871 1.69438 0
M  V30 1804 C 171.627 -1.58594 3.083 0
M  V30 1805 C 170.688 -1.00007 4.17489 0
M  V30 1806 C 169.921 -2.06413 4.92168 0
M  V30 1807 O 170.144 -3.27751 4.66835 0
M  V30 1808 O 169.078 -1.68717 5.7777 0
M  V30 1809 H 172.904 0.157508 3.03291 0
M  V30 1810 H 170.489 0.143035 1.48714 0
M  V30 1811 H 172.371 -2.23525 3.57232 0
M  V30 1812 H 171.046 -2.19724 2.37703 0
M  V30 1813 H 169.953 -0.314299 3.72777 0
M  V30 1814 H 171.286 -0.433135 4.90291 0
M  V30 1815 N 172.938 -1.57226 0.108567 0
M  V30 1816 C 174.184 -1.95121 -0.552761 0
M  V30 1817 C 174.517 -0.991345 -1.66991 0
M  V30 1818 O 173.792 -0.0267211 -1.94482 0
M  V30 1819 C 174.075 -3.43039 -1.09528 0
M  V30 1820 C 173.928 -4.49797 0.0177332 0
M  V30 1821 C 175.247 -3.92567 -1.98945 0
M  V30 1822 H 172.366 -0.709496 -0.199461 0
M  V30 1823 H 175.008 -1.89126 0.182011 0
M  V30 1824 H 173.158 -3.48279 -1.72146 0
M  V30 1825 H 174.83 -4.56661 0.652584 0
M  V30 1826 H 173.073 -4.284 0.682309 0
M  V30 1827 H 173.744 -5.50528 -0.402919 0
M  V30 1828 H 176.22 -3.89565 -1.46214 0
M  V30 1829 H 175.096 -4.96605 -2.33827 0
M  V30 1830 H 175.357 -3.32648 -2.91201 0
M  V30 1831 N 174.416 0.165178 -1.56732 0
M  V30 1832 C 175.348 1.22911 -1.93457 0
M  V30 1833 C 176.361 1.40152 -0.828333 0
M  V30 1834 O 177.55 1.40046 -1.10677 0
M  V30 1835 C 174.65 2.59686 -2.17753 0
M  V30 1836 C 173.823 2.63663 -3.48999 0
M  V30 1837 C 172.882 3.81845 -3.62051 0
M  V30 1838 O 171.908 3.67559 -4.34613 0
M  V30 1839 N 173.11 4.98557 -2.97357 0
M  V30 1840 H 175.875 0.917118 -2.85323 0
M  V30 1841 H 173.436 0.354895 -1.57962 0
M  V30 1842 H 175.428 3.37225 -2.23743 0
M  V30 1843 H 173.998 2.83251 -1.32242 0
M  V30 1844 H 173.218 1.72173 -3.54612 0
M  V30 1845 H 174.506 2.63336 -4.35352 0
M  V30 1846 H 173.904 5.13065 -2.38287 0
M  V30 1847 H 172.461 5.73936 -3.08934 0
M  V30 1848 N 175.894 1.51508 0.433938 0
M  V30 1849 C 176.857 1.72473 1.50949 0
M  V30 1850 C 177.857 0.594725 1.49398 0
M  V30 1851 O 179.047 0.862315 1.5136 0
M  V30 1852 C 176.179 1.78431 2.90474 0
M  V30 1853 H 177.372 2.68467 1.33662 0
M  V30 1854 H 174.925 1.41549 0.662836 0
M  V30 1855 H 175.66 0.842645 3.13161 0
M  V30 1856 H 175.445 2.60558 2.93005 0
M  V30 1857 H 176.935 1.96479 3.68491 0
M  V30 1858 N 177.372 -0.689602 1.41712 0
M  V30 1859 C 178.62 -1.4468 1.4111 0
M  V30 1860 C 178.941 -1.94986 0.0232196 0
M  V30 1861 O 178.211 -1.72097 -0.935913 0
M  V30 1862 H 176.791 -0.536847 0.519427 0
M  V30 1863 H 179.453 -0.815825 1.77004 0
M  V30 1864 H 178.549 -2.30706 2.10193 0
M  V30 1865 N 178.85 -1.27639 -0.924453 0
M  V30 1866 C 180.127 -1.04887 -1.651 0
M  V30 1867 C 180.507 0.415327 -2.06974 0
M  V30 1868 O 179.855 1.39923 -1.80648 0
M  V30 1869 C 180.065 -2.01348 -2.85061 0
M  V30 1870 C 181.413 -2.30899 -3.56329 0
M  V30 1871 O 182.437 -1.99348 -2.95193 0
M  V30 1872 O 181.296 -2.84699 -4.66485 0
M  V30 1873 H 178.39 -0.400083 -0.723784 0
M  V30 1874 H 180.936 -1.38916 -0.974703 0
M  V30 1875 H 179.708 -3.0008 -2.51133 0
M  V30 1876 H 179.331 -1.679 -3.6041 0
M  V30 1877 N 180.328 1.1314 -1.09713 0
M  V30 1878 C 181.278 2.16709 -0.708593 0
M  V30 1879 C 182.262 1.58471 0.278523 0
M  V30 1880 O 183.454 1.76779 0.088427 0
M  V30 1881 C 180.583 3.43039 -0.133923 0
M  V30 1882 C 179.669 4.08277 -1.14763 0
M  V30 1883 N 180.06 4.48637 -2.33577 0
M  V30 1884 C 178.358 4.34954 -0.986446 0
M  V30 1885 C 179.059 4.9952 -2.98085 0
M  V30 1886 N 178.035 4.94561 -2.25632 0
M  V30 1887 H 181.837 2.45672 -1.61315 0
M  V30 1888 H 179.351 1.29967 -0.973775 0
M  V30 1889 H 181.348 4.16583 0.162465 0
M  V30 1890 H 180.008 3.15549 0.765447 0
M  V30 1891 H 181.019 4.41246 -2.7115 0
M  V30 1892 H 177.696 4.17258 -0.142008 0
M  V30 1893 H 179.086 5.40521 -3.99108 0
M  V30 1894 N 181.806 0.884767 1.30421 0
M  V30 1895 C 183.034 0.518044 2.0031 0
M  V30 1896 C 183.449 -0.893408 1.66324 0
M  V30 1897 O 182.806 -1.5875 0.900262 0
M  V30 1898 C 182.857 0.682997 3.54989 0
M  V30 1899 O 182.578 2.03888 3.87764 0
M  V30 1900 C 184.079 0.31924 4.42149 0
M  V30 1901 H 181.299 0.200265 0.640418 0
M  V30 1902 H 183.843 1.19001 1.6631 0
M  V30 1903 H 181.998 0.0584052 3.87356 0
M  V30 1904 H 182.412 2.05735 4.82466 0
M  V30 1905 H 183.886 0.485555 5.4986 0
M  V30 1906 H 184.363 -0.742717 4.32875 0
M  V30 1907 H 184.969 0.920147 4.15227 0
M  V30 1908 N 183.284 -1.43765 0.645699 0
M  V30 1909 C 184.214 -2.33471 -0.0370477 0
M  V30 1910 C 185.195 -1.49042 -0.819779 0
M  V30 1911 O 186.38 -1.77726 -0.782758 0
M  V30 1912 C 183.51 -3.32311 -1.0093 0
M  V30 1913 C 182.464 -4.2667 -0.337201 0
M  V30 1914 C 181.79 -5.1549 -1.42037 0
M  V30 1915 C 183.09 -5.16657 0.765706 0
M  V30 1916 H 184.784 -2.90809 0.712069 0
M  V30 1917 H 182.33 -1.39834 0.343876 0
M  V30 1918 H 184.283 -3.9396 -1.49578 0
M  V30 1919 H 183.007 -2.73213 -1.78948 0
M  V30 1920 H 181.666 -3.66374 0.128771 0
M  V30 1921 H 181.314 -4.52735 -2.1918 0
M  V30 1922 H 181.014 -5.79438 -0.975966 0
M  V30 1923 H 182.538 -5.80012 -1.90838 0
M  V30 1924 H 183.952 -5.72158 0.361702 0
M  V30 1925 H 182.349 -5.89286 1.13413 0
M  V30 1926 H 183.419 -4.56796 1.62683 0
M  V30 1927 N 184.763 -0.387143 -1.52771 0
M  V30 1928 C 186.01 0.195735 -2.01552 0
M  V30 1929 C 186.338 1.46995 -1.27369 0
M  V30 1930 O 185.593 1.92325 -0.361879 0
M  V30 1931 C 185.892 0.512209 -3.53711 0
M  V30 1932 C 185.558 -0.670202 -4.45891 0
M  V30 1933 C 184.22 -0.994586 -4.70809 0
M  V30 1934 C 186.572 -1.46134 -5.00294 0
M  V30 1935 C 183.9 -2.11169 -5.4738 0
M  V30 1936 C 186.252 -2.56903 -5.78086 0
M  V30 1937 C 184.916 -2.89852 -6.01284 0
M  V30 1938 H 184.186 0.0716246 -0.73753 0
M  V30 1939 H 186.833 -0.524046 -1.8419 0
M  V30 1940 H 185.138 1.31329 -3.69134 0
M  V30 1941 H 186.835 0.975804 -3.88946 0
M  V30 1942 H 183.425 -0.407366 -4.2666 0
M  V30 1943 H 187.609 -1.22397 -4.80971 0
M  V30 1944 H 182.865 -2.3707 -5.63567 0
M  V30 1945 H 187.039 -3.18608 -6.19243 0
M  V30 1946 H 184.666 -3.76533 -6.60399 0
M  V30 1947 N 186.241 1.57166 -0.116904 0
M  V30 1948 C 187.49 1.94298 0.541407 0
M  V30 1949 C 187.803 1.00236 1.67964 0
M  V30 1950 O 189.009 1.26826 2.40057 0
M  V30 1951 C 187.465 3.45306 1.01449 0
M  V30 1952 C 187.073 4.47899 -0.0951738 0
M  V30 1953 C 188.817 3.91361 1.6443 0
M  V30 1954 C 186.724 5.90083 0.394491 0
M  V30 1955 H 185.654 0.725308 0.206019 0
M  V30 1956 H 188.305 1.82446 -0.196419 0
M  V30 1957 H 186.687 3.52385 1.80667 0
M  V30 1958 H 187.861 4.52486 -0.871374 0
M  V30 1959 H 186.176 4.11583 -0.631505 0
M  V30 1960 H 188.773 4.95004 2.02176 0
M  V30 1961 H 189.116 3.3122 2.52189 0
M  V30 1962 H 189.649 3.87073 0.917559 0
M  V30 1963 H 186.388 6.53974 -0.447004 0
M  V30 1964 H 185.908 5.88921 1.13722 0
M  V30 1965 H 187.587 6.41307 0.856399 0
M  V30 1966 N 187.719 -0.156864 1.56817 0
M  V30 1967 C 188.967 -0.869404 1.82444 0
M  V30 1968 C 189.288 -1.82147 0.69623 0
M  V30 1969 O 188.558 -1.93847 -0.28287 0
M  V30 1970 H 187.138 -0.324043 0.673056 0
M  V30 1971 H 189.8 -0.153224 1.94297 0
M  V30 1972 H 188.896 -1.43761 2.77019 0
M  V30 1973 N 189.197 -1.51736 -0.425897 0
M  V30 1974 C 190.107 -1.76738 -1.54275 0
M  V30 1975 C 191.123 -0.65211 -1.61318 0
M  V30 1976 O 192.299 -0.935654 -1.78346 0
M  V30 1977 C 189.364 -1.89755 -2.90162 0
M  V30 1978 C 188.425 -3.13633 -2.93143 0
M  V30 1979 C 187.658 -3.2602 -4.22548 0
M  V30 1980 O 187.881 -2.44067 -5.15546 0
M  V30 1981 O 186.815 -4.19071 -4.32046 0
M  V30 1982 H 190.641 -2.71502 -1.36089 0
M  V30 1983 H 188.226 -1.36376 -0.610069 0
M  V30 1984 H 190.108 -2.00236 -3.70788 0
M  V30 1985 H 188.783 -0.981785 -3.08452 0
M  V30 1986 H 187.69 -3.08622 -2.11431 0
M  V30 1987 H 189.023 -4.04936 -2.798 0
M  V30 1988 N 190.675 0.682077 -1.42076 0
M  V30 1989 C 191.921 1.44428 -1.42367 0
M  V30 1990 C 192.254 1.94164 -0.0373056 0
M  V30 1991 O 191.529 1.70429 0.937239 0
M  V30 1992 C 191.812 2.64654 -2.44194 0
M  V30 1993 C 191.665 2.20596 -3.91991 0
M  V30 1994 C 192.984 3.66865 -2.431 0
M  V30 1995 H 190.103 0.523834 -0.518428 0
M  V30 1996 H 192.745 0.77576 -1.73442 0
M  V30 1997 H 190.895 3.2169 -2.17826 0
M  V30 1998 H 192.567 1.68783 -4.29313 0
M  V30 1999 H 190.81 1.52242 -4.06208 0
M  V30 2000 H 191.481 3.06921 -4.58807 0
M  V30 2001 H 193.957 3.19531 -2.66532 0
M  V30 2002 H 192.833 4.48577 -3.16339 0
M  V30 2003 H 193.094 4.17493 -1.45437 0
M  V30 2004 N 192.153 1.28127 0.917671 0
M  V30 2005 C 193.381 1.17892 1.70026 0
M  V30 2006 C 193.796 -0.262958 1.8696 0
M  V30 2007 O 193.153 -1.17811 1.3938 0
M  V30 2008 C 193.204 1.86872 3.09453 0
M  V30 2009 O 192.925 3.25428 2.93306 0
M  V30 2010 C 194.426 1.8289 4.03815 0
M  V30 2011 H 191.646 0.40942 0.531617 0
M  V30 2012 H 194.19 1.69181 1.14883 0
M  V30 2013 H 192.345 1.39464 3.61426 0
M  V30 2014 H 192.759 3.59918 3.81523 0
M  V30 2015 H 194.233 2.35751 4.99125 0
M  V30 2016 H 194.71 0.800412 4.31845 0
M  V30 2017 H 195.316 2.29959 3.57769 0
M  V30 2018 N 193.631 -1.12557 1.10312 0
M  V30 2019 C 194.908 -1.80363 0.756878 0
M  V30 2020 C 195.288 -1.97067 -0.756824 0
M  V30 2021 O 194.636 -1.54601 -1.68259 0
M  V30 2022 C 194.846 -3.14812 1.50647 0
M  V30 2023 C 196.194 -3.90029 1.67817 0
M  V30 2024 O 197.218 -3.24464 1.46974 0
M  V30 2025 O 196.077 -5.07652 2.02365 0
M  V30 2026 H 193.171 -0.780667 0.272926 0
M  V30 2027 H 195.717 -1.19404 1.20586 0
M  V30 2028 H 194.489 -2.97936 2.53672 0
M  V30 2029 H 194.112 -3.83478 1.05026 0
M  V30 2030 N 195.109 -0.891671 -1.2995 0
M  V30 2031 C 196.358 -0.509521 -1.95158 0
M  V30 2032 C 196.671 0.947388 -1.71125 0
M  V30 2033 O 197.877 1.43669 -2.30372 0
M  V30 2034 C 196.333 -0.860315 -3.49466 0
M  V30 2035 C 195.941 -2.33545 -3.8231 0
M  V30 2036 C 197.685 -0.547687 -4.20952 0
M  V30 2037 C 195.592 -2.62752 -5.29826 0
M  V30 2038 H 194.522 -0.18682 -0.730489 0
M  V30 2039 H 197.173 -1.08756 -1.47798 0
M  V30 2040 H 195.555 -0.211285 -3.95436 0
M  V30 2041 H 196.729 -3.02936 -3.47227 0
M  V30 2042 H 195.044 -2.61629 -3.23944 0
M  V30 2043 H 197.641 -0.742854 -5.29515 0
M  V30 2044 H 197.984 0.51332 -4.13123 0
M  V30 2045 H 198.517 -1.1542 -3.80688 0
M  V30 2046 H 195.256 -3.6762 -5.42712 0
M  V30 2047 H 194.776 -1.97977 -5.66185 0
M  V30 2048 H 196.455 -2.48601 -5.97333 0
M  V30 2049 N 196.587 1.43421 -0.653314 0
M  V30 2050 C 197.534 2.30768 0.0382271 0
M  V30 2051 C 198.504 1.44755 0.814576 0
M  V30 2052 O 199.689 1.73624 0.791162 0
M  V30 2053 C 196.829 3.30336 0.998599 0
M  V30 2054 C 195.942 4.31448 0.218342 0
M  V30 2055 C 195.077 5.18098 1.17252 0
M  V30 2056 C 194.116 6.10902 0.382702 0
M  V30 2057 N 193.253 6.90176 1.28848 0
M  V30 2058 H 198.093 2.89357 -0.712511 0
M  V30 2059 H 195.63 1.42548 -0.363128 0
M  V30 2060 H 197.588 3.86572 1.56901 0
M  V30 2061 H 196.218 2.73397 1.71621 0
M  V30 2062 H 195.27 3.77506 -0.46836 0
M  V30 2063 H 196.582 4.97227 -0.395812 0
M  V30 2064 H 195.736 5.7896 1.81356 0
M  V30 2065 H 194.475 4.52444 1.82058 0
M  V30 2066 H 193.48 5.49128 -0.27169 0
M  V30 2067 H 194.705 6.78598 -0.260957 0
M  V30 2068 H 192.651 6.27171 1.92334 0
M  V30 2069 H 192.568 7.52478 0.728887 0
M  V30 2070 H 193.836 7.55543 1.91766 0
M  V30 2071 N 198.065 0.39524 1.52563 0
M  V30 2072 C 199.314 -0.186321 2.00838 0
M  V30 2073 C 199.627 -1.47402 1.28577 0
M  V30 2074 O 200.833 -2.13599 1.67593 0
M  V30 2075 C 199.289 -0.382595 3.57861 0
M  V30 2076 C 198.897 0.892202 4.39026 0
M  V30 2077 C 200.641 -0.9202 4.14406 0
M  V30 2078 C 198.548 0.66388 5.87662 0
M  V30 2079 H 197.478 -0.0734041 0.750418 0
M  V30 2080 H 200.129 0.518552 1.76021 0
M  V30 2081 H 198.511 -1.14946 3.7895 0
M  V30 2082 H 199.685 1.66414 4.29701 0
M  V30 2083 H 198 1.35519 3.9373 0
M  V30 2084 H 200.597 -1.10683 5.23119 0
M  V30 2085 H 200.94 -1.89096 3.70875 0
M  V30 2086 H 201.473 -0.212751 3.97231 0
M  V30 2087 H 198.212 1.6058 6.35527 0
M  V30 2088 H 197.732 -0.0690193 5.9976 0
M  V30 2089 H 199.411 0.300699 6.46301 0
M  V30 2090 N 199.544 -1.57102 0.125237 0
M  V30 2091 C 200.772 -1.99761 -0.538797 0
M  V30 2092 C 201.187 -1.00503 -1.59827 0
M  V30 2093 O 200.544 0.00119474 -1.825 0
M  V30 2094 C 200.595 -3.42408 -1.15927 0
M  V30 2095 O 200.316 -4.37869 -0.142143 0
M  V30 2096 C 201.817 -4.00232 -1.90602 0
M  V30 2097 H 199.037 -0.655772 -0.14214 0
M  V30 2098 H 201.581 -2.03383 0.213413 0
M  V30 2099 H 199.736 -3.39706 -1.86223 0
M  V30 2100 H 200.15 -5.21128 -0.593775 0
M  V30 2101 H 201.624 -5.02105 -2.29335 0
M  V30 2102 H 202.101 -3.39721 -2.78363 0
M  V30 2103 H 202.707 -4.06499 -1.25055 0
M  V30 2104 N 201.022 0.148545 -1.56898 0
M  V30 2105 C 201.932 1.20293 -2.01412 0
M  V30 2106 C 202.948 1.47107 -0.929273 0
M  V30 2107 O 204.124 1.58807 -1.23863 0
M  V30 2108 C 201.189 2.51682 -2.38447 0
M  V30 2109 C 200.25 2.32529 -3.60872 0
M  V30 2110 C 199.483 3.57653 -3.96132 0
M  V30 2111 O 199.706 4.63771 -3.32073 0
M  V30 2112 O 198.64 3.50408 -4.89385 0
M  V30 2113 H 202.466 0.855025 -2.91416 0
M  V30 2114 H 200.051 0.357151 -1.45068 0
M  V30 2115 H 201.933 3.29147 -2.63135 0
M  V30 2116 H 200.608 2.86006 -1.51599 0
M  V30 2117 H 199.515 1.53019 -3.41373 0
M  V30 2118 H 200.848 2.03121 -4.48333 0
M  V30 2119 N 202.5 1.5196 0.417844 0
M  V30 2120 C 203.432 1.70895 1.52733 0
M  V30 2121 C 204.445 0.589405 1.51756 0
M  V30 2122 O 205.634 0.864312 1.56179 0
M  V30 2123 C 202.734 1.72627 2.91639 0
M  V30 2124 C 201.907 3.01479 3.16905 0
M  V30 2125 C 200.966 2.95139 4.35637 0
M  V30 2126 O 199.992 3.69059 4.3334 0
M  V30 2127 N 201.194 2.12328 5.40275 0
M  V30 2128 H 203.959 2.66612 1.36888 0
M  V30 2129 H 201.52 1.50089 0.607037 0
M  V30 2130 H 203.512 1.65928 3.6912 0
M  V30 2131 H 202.082 0.844216 3.00985 0
M  V30 2132 H 201.302 3.21895 2.27546 0
M  V30 2133 H 202.59 3.86736 3.30625 0
M  V30 2134 H 201.988 1.51685 5.44985 0
M  V30 2135 H 200.545 2.11494 6.16534 0
M  V30 2136 N 203.978 -0.674533 1.42435 0
M  V30 2137 C 205.255 -1.4305 1.33402 0
M  V30 2138 C 205.635 -2.11081 -0.0284674 0
M  V30 2139 O 204.983 -2.03257 -1.04397 0
M  V30 2140 C 205.193 -2.43272 2.50239 0
M  V30 2141 C 206.541 -3.07907 2.92367 0
M  V30 2142 O 207.565 -2.53599 2.50132 0
M  V30 2143 O 206.424 -4.0632 3.65467 0
M  V30 2144 H 203.518 -0.638076 0.526106 0
M  V30 2145 H 206.064 -0.703235 1.54443 0
M  V30 2146 H 204.836 -1.91803 3.41068 0
M  V30 2147 H 204.459 -3.23479 2.31186 0
M  V30 2148 N 205.456 -1.28612 -0.910864 0
M  V30 2149 C 206.867 -1.14406 -1.47541 0
M  V30 2150 C 207.218 0.264901 -1.94403 0
M  V30 2151 O 206.343 1.15942 -1.82719 0
M  V30 2152 C 206.938 -2.07073 -2.68153 0
M  V30 2153 C 205.497 -1.96923 -3.20778 0
M  V30 2154 C 204.644 -1.98646 -1.93481 0
M  V30 2155 H 207.595 -1.41259 -0.723291 0
M  V30 2156 H 207.616 -1.63642 -3.43514 0
M  V30 2157 H 207.128 -3.09611 -2.34015 0
M  V30 2158 H 205.229 -0.97433 -3.59635 0
M  V30 2159 H 205.342 -2.84026 -3.85832 0
M  V30 2160 H 203.706 -1.43093 -2.10705 0
M  V30 2161 H 204.489 -3.02868 -1.61634 0
M  V30 2162 N 206.934 1.1197 -1.10907 0
M  V30 2163 C 207.864 2.19928 -0.784473 0
M  V30 2164 C 208.845 1.6833 0.244726 0
M  V30 2165 O 210.03 1.93892 0.109418 0
M  V30 2166 C 207.16 3.46597 -0.220827 0
M  V30 2167 C 206.114 4.11376 -1.18127 0
M  V30 2168 C 205.44 5.32554 -0.478594 0
M  V30 2169 C 206.74 4.56945 -2.52979 0
M  V30 2170 H 208.434 2.47337 -1.68715 0
M  V30 2171 H 205.98 1.18879 -0.812642 0
M  V30 2172 H 207.933 4.21396 0.0184278 0
M  V30 2173 H 206.657 3.1863 0.717113 0
M  V30 2174 H 205.316 3.38564 -1.40606 0
M  V30 2175 H 204.964 5.00856 0.463976 0
M  V30 2176 H 204.664 5.76844 -1.11912 0
M  V30 2177 H 206.188 6.10096 -0.248 0
M  V30 2178 H 207.602 5.23093 -2.3462 0
M  V30 2179 H 205.999 5.1203 -3.12962 0
M  V30 2180 H 207.069 3.70676 -3.12614 0
M  V30 2181 N 208.412 0.89855 1.29475 0
M  V30 2182 C 209.342 0.39201 2.30186 0
M  V30 2183 C 210.323 -0.532359 1.61555 0
M  V30 2184 O 211.508 -0.443331 1.89072 0
M  V30 2185 C 208.638 -0.382353 3.45189 0
M  V30 2186 C 207.592 0.451483 4.25612 0
M  V30 2187 C 206.918 -0.450307 5.328 0
M  V30 2188 C 208.218 1.70079 4.93832 0
M  V30 2189 H 209.912 1.23362 2.72804 0
M  V30 2190 H 207.458 0.594638 1.31149 0
M  V30 2191 H 209.411 -0.747451 4.14718 0
M  V30 2192 H 208.135 -1.25774 3.01411 0
M  V30 2193 H 206.794 0.798897 3.57789 0
M  V30 2194 H 206.442 -1.32379 4.85268 0
M  V30 2195 H 206.142 0.103902 5.87508 0
M  V30 2196 H 207.666 -0.811623 6.05182 0
M  V30 2197 H 209.08 1.40549 5.55805 0
M  V30 2198 H 207.477 2.19623 5.58467 0
M  V30 2199 H 208.547 2.43744 4.19186 0
M  V30 2200 N 209.89 -1.43072 0.660911 0
M  V30 2201 C 211.137 -2.01721 0.177445 0
M  V30 2202 C 211.465 -1.5218 -1.21126 0
M  V30 2203 O 210.72 -0.708659 -1.82419 0
M  V30 2204 C 211.019 -3.57103 0.145563 0
M  V30 2205 C 210.685 -4.26021 1.47705 0
M  V30 2206 C 209.347 -4.44563 1.84165 0
M  V30 2207 C 211.699 -4.64983 2.35458 0
M  V30 2208 C 209.027 -4.99334 3.0803 0
M  V30 2209 C 211.379 -5.21127 3.58622 0
M  V30 2210 C 210.043 -5.37884 3.95268 0
M  V30 2211 H 209.313 -0.73815 0.0649317 0
M  V30 2212 H 211.96 -1.71446 0.853144 0
M  V30 2213 H 210.265 -3.86965 -0.61361 0
M  V30 2214 H 211.962 -4.00248 -0.2455 0
M  V30 2215 H 208.552 -4.11939 1.18339 0
M  V30 2216 H 212.736 -4.50343 2.08579 0
M  V30 2217 H 207.992 -5.10493 3.36462 0
M  V30 2218 H 212.166 -5.50262 4.26831 0
M  V30 2219 H 209.793 -5.80089 4.91325 0
M  V30 2220 N 211.368 -0.403325 -1.52352 0
M  V30 2221 C 212.615 0.174347 -2.01748 0
M  V30 2222 C 212.943 1.45636 -1.2892 0
M  V30 2223 O 212.198 1.9193 -0.382258 0
M  V30 2224 C 212.497 0.474665 -3.54234 0
M  V30 2225 C 212.163 -0.717458 -4.45155 0
M  V30 2226 C 210.825 -1.04447 -4.69728 0
M  V30 2227 C 213.177 -1.51432 -4.98716 0
M  V30 2228 C 210.505 -2.16963 -5.45109 0
M  V30 2229 C 212.857 -2.6302 -5.75329 0
M  V30 2230 C 211.521 -2.96213 -5.98175 0
M  V30 2231 H 210.791 0.0637981 -0.738248 0
M  V30 2232 H 213.438 -0.543553 -1.83624 0
M  V30 2233 H 211.743 1.27406 -3.70506 0
M  V30 2234 H 213.44 0.934496 -3.89959 0
M  V30 2235 H 210.03 -0.452596 -4.26204 0
M  V30 2236 H 214.214 -1.27491 -4.79645 0
M  V30 2237 H 209.47 -2.43034 -5.61021 0
M  V30 2238 H 213.644 -3.25158 -6.15829 0
M  V30 2239 H 211.271 -3.83516 -6.56368 0
M  V30 2240 N 212.846 1.57033 -0.133567 0
M  V30 2241 C 214.071 2.00475 0.531477 0
M  V30 2242 C 214.496 1.01291 1.58499 0
M  V30 2243 O 213.854 -0.0133279 1.81295 0
M  V30 2244 C 213.902 3.42729 1.12113 0
M  V30 2245 O 213.006 3.46498 2.23636 0
M  V30 2246 H 212.347 0.650876 0.131362 0
M  V30 2247 H 214.877 2.03344 -0.22634 0
M  V30 2248 H 214.887 3.81246 1.4531 0
M  V30 2249 H 213.562 4.14428 0.349557 0
M  V30 2250 H 212.139 3.19811 1.91769 0
M  V30 2251 N 214.325 -0.140222 1.56975 0
M  V30 2252 C 215.573 -0.850005 1.83356 0
M  V30 2253 C 215.894 -1.81399 0.71551 0
M  V30 2254 O 215.164 -1.94136 -0.262294 0
M  V30 2255 H 213.744 -0.316886 0.676456 0
M  V30 2256 H 216.406 -0.132608 1.94448 0
M  V30 2257 H 215.502 -1.40814 2.78528 0
M  V30 2258 N 215.803 -1.52179 -0.40978 0
M  V30 2259 C 216.75 -1.75475 -1.49924 0
M  V30 2260 C 217.72 -0.597175 -1.54994 0
M  V30 2261 O 218.905 -0.834655 -1.71575 0
M  V30 2262 C 216.045 -1.9107 -2.87378 0
M  V30 2263 C 215.158 -3.18717 -2.91622 0
M  V30 2264 C 214.293 -3.24747 -4.20372 0
M  V30 2265 C 213.332 -4.46598 -4.18588 0
M  V30 2266 N 212.469 -4.50025 -5.38908 0
M  V30 2267 H 217.309 -2.68458 -1.29361 0
M  V30 2268 H 214.846 -1.33024 -0.627934 0
M  V30 2269 H 216.804 -1.98096 -3.6717 0
M  V30 2270 H 215.434 -1.01469 -3.06437 0
M  V30 2271 H 214.486 -3.20866 -2.04326 0
M  V30 2272 H 215.798 -4.08544 -2.86169 0
M  V30 2273 H 214.952 -3.30841 -5.08556 0
M  V30 2274 H 213.691 -2.32857 -4.28519 0
M  V30 2275 H 212.696 -4.40652 -3.28794 0
M  V30 2276 H 213.921 -5.39783 -4.12081 0
M  V30 2277 H 211.867 -3.61017 -5.47725 0
M  V30 2278 H 211.784 -5.33697 -5.35447 0
M  V30 2279 H 213.052 -4.60347 -6.29048 0
M  V30 2280 N 217.281 0.66697 -1.42791 0
M  V30 2281 C 218.511 1.45294 -1.46878 0
M  V30 2282 C 218.919 1.89027 -0.0809861 0
M  V30 2283 O 218.262 1.59219 0.916246 0
M  V30 2284 C 218.324 2.72908 -2.34012 0
M  V30 2285 C 217.988 2.51203 -3.81767 0
M  V30 2286 C 218.985 2.15302 -4.73224 0
M  V30 2287 C 216.67 2.65954 -4.26115 0
M  V30 2288 C 218.664 1.94431 -6.07022 0
M  V30 2289 C 216.351 2.44699 -5.59969 0
M  V30 2290 C 217.349 2.08992 -6.5024 0
M  V30 2291 O 217.037 1.87948 -7.81621 0
M  V30 2292 H 216.769 0.453306 -0.501487 0
M  V30 2293 H 219.323 0.826232 -1.88049 0
M  V30 2294 H 217.553 3.38089 -1.87703 0
M  V30 2295 H 219.242 3.34816 -2.29462 0
M  V30 2296 H 220.008 2.03495 -4.40244 0
M  V30 2297 H 215.887 2.92724 -3.56137 0
M  V30 2298 H 219.431 1.66484 -6.77443 0
M  V30 2299 H 215.328 2.56105 -5.9252 0
M  V30 2300 H 216.096 2.02483 -7.93059 0
M  V30 2301 N 218.759 1.29093 0.90403 0
M  V30 2302 C 219.709 1.10482 1.99443 0
M  V30 2303 C 220.693 0.0255401 1.6088 0
M  V30 2304 O 221.885 0.24677 1.75271 0
M  V30 2305 C 219.014 0.778882 3.34348 0
M  V30 2306 C 218.1 1.89749 3.79284 0
M  V30 2307 N 218.491 3.14045 3.96497 0
M  V30 2308 C 216.789 1.78955 4.08523 0
M  V30 2309 C 217.49 3.86996 4.34292 0
M  V30 2310 N 216.466 3.14909 4.43095 0
M  V30 2311 H 220.268 2.04778 2.10815 0
M  V30 2312 H 217.782 1.20155 1.09255 0
M  V30 2313 H 219.779 0.62661 4.12164 0
M  V30 2314 H 218.439 -0.156205 3.24324 0
M  V30 2315 H 219.45 3.49548 3.82148 0
M  V30 2316 H 216.127 0.926886 4.07081 0
M  V30 2317 H 217.517 4.93941 4.55491 0
M  V30 2318 N 220.237 -1.11381 1.11499 0
M  V30 2319 C 221.169 -2.17207 0.731704 0
M  V30 2320 C 222.182 -1.61066 -0.236957 0
M  V30 2321 O 223.371 -1.78489 -0.0197591 0
M  V30 2322 C 220.471 -3.38846 0.0607624 0
M  V30 2323 C 219.644 -4.24451 1.0564 0
M  V30 2324 C 218.703 -5.24562 0.4149 0
M  V30 2325 O 217.729 -5.59071 1.069 0
M  V30 2326 N 218.931 -5.74651 -0.821943 0
M  V30 2327 H 221.696 -2.50699 1.64225 0
M  V30 2328 H 219.257 -1.26908 1.00529 0
M  V30 2329 H 221.249 -4.02911 -0.380139 0
M  V30 2330 H 219.819 -3.03411 -0.752376 0
M  V30 2331 H 219.039 -3.56833 1.67524 0
M  V30 2332 H 220.327 -4.78486 1.72998 0
M  V30 2333 H 219.725 -5.48797 -1.37252 0
M  V30 2334 H 218.282 -6.40549 -1.20582 0
M  V30 2335 N 221.715 -0.905404 -1.28997 0
M  V30 2336 C 222.645 -0.404212 -2.29975 0
M  V30 2337 C 223.626 0.523784 -1.61835 0
M  V30 2338 O 224.811 0.433298 -1.89304 0
M  V30 2339 C 221.941 0.364042 -3.45387 0
M  V30 2340 C 220.895 -0.474048 -4.25367 0
M  V30 2341 C 220.221 0.422045 -5.33032 0
M  V30 2342 C 221.521 -1.72696 -4.92923 0
M  V30 2343 H 223.215 -1.24807 -2.72146 0
M  V30 2344 H 220.761 -0.601585 -1.30832 0
M  V30 2345 H 222.714 0.725447 -4.15109 0
M  V30 2346 H 221.438 1.24174 -3.02074 0
M  V30 2347 H 220.097 -0.81786 -3.57361 0
M  V30 2348 H 219.745 1.29804 -4.85963 0
M  V30 2349 H 219.445 -0.135057 -5.87445 0
M  V30 2350 H 220.969 0.779517 -6.05604 0
M  V30 2351 H 222.383 -1.43495 -5.55051 0
M  V30 2352 H 220.78 -2.22582 -5.57295 0
M  V30 2353 H 221.85 -2.45964 -4.17887 0
M  V30 2354 N 223.193 1.4272 -0.668489 0
M  V30 2355 C 224.156 2.292 0.00448567 0
M  V30 2356 C 225.156 1.43001 0.735339 0
M  V30 2357 O 226.346 1.64461 0.57429 0
M  V30 2358 C 223.478 3.25375 1.01705 0
M  V30 2359 H 224.671 2.90199 -0.756608 0
M  V30 2360 H 222.224 1.50254 -0.430506 0
M  V30 2361 H 222.959 2.69301 1.80686 0
M  V30 2362 H 222.744 3.88944 0.496463 0
M  V30 2363 H 224.234 3.90245 1.48655 0
M  V30 2364 N 224.671 0.411399 1.52136 0
M  V30 2365 C 225.603 -0.448386 2.24771 0
M  V30 2366 C 226.616 -1.00828 1.27818 0
M  V30 2367 O 227.805 -0.906841 1.53749 0
M  V30 2368 C 224.905 -1.63636 2.96777 0
M  V30 2369 C 224.078 -1.19995 4.20618 0
M  V30 2370 C 223.137 -2.25509 4.75428 0
M  V30 2371 O 222.163 -1.86007 5.3795 0
M  V30 2372 N 223.365 -3.577 4.57199 0
M  V30 2373 H 226.13 0.174025 2.99194 0
M  V30 2374 H 223.691 0.238897 1.60128 0
M  V30 2375 H 225.683 -2.33793 3.30338 0
M  V30 2376 H 224.253 -2.16465 2.25526 0
M  V30 2377 H 223.473 -0.326421 3.92846 0
M  V30 2378 H 224.761 -0.885365 5.01038 0
M  V30 2379 H 224.159 -3.92543 4.07341 0
M  V30 2380 H 222.716 -4.23827 4.95191 0
M  V30 2381 N 226.149 -1.5696 0.141893 0
M  V30 2382 C 227.097 -2.17784 -0.816874 0
M  V30 2383 C 228.091 -1.1334 -1.25899 0
M  V30 2384 O 229.297 -1.316 -1.22806 0
M  V30 2385 H 225.672 -0.697278 -0.281615 0
M  V30 2386 H 227.643 -2.97087 -0.279621 0
M  V30 2387 C 226.392 -2.80983 -2.04802 0
M  V30 2388 H 225.715 -3.61062 -1.7168 0
M  V30 2389 H 227.155 -3.2705 -2.69841 0
M  V30 2390 C 225.614 -1.79228 -2.8527 0
M  V30 2391 O 226.144 -1.25962 -3.8144 0
M  V30 2392 N 224.35 -1.48647 -2.49704 0
M  V30 2393 H 223.897 -1.92155 -1.71564 0
M  V30 2394 H 223.855 -0.808115 -3.03837 0
M  V30 2395 N 227.627 0.131896 -1.57047 0
M  V30 2396 C 228.537 1.1815 -2.02676 0
M  V30 2397 C 229.553 1.46113 -0.944824 0
M  V30 2398 O 230.729 1.57485 -1.25541 0
M  V30 2399 C 227.794 2.49139 -2.41103 0
M  V30 2400 C 226.855 2.28688 -3.63318 0
M  V30 2401 C 226.088 3.53431 -3.99903 0
M  V30 2402 O 226.311 4.60223 -3.36973 0
M  V30 2403 O 225.245 3.45198 -4.93074 0
M  V30 2404 H 229.071 0.824069 -2.92306 0
M  V30 2405 H 226.656 0.341745 -1.45439 0
M  V30 2406 H 228.538 3.26338 -2.66611 0
M  V30 2407 H 227.213 2.84382 -1.54624 0
M  V30 2408 H 226.12 1.4939 -3.42977 0
M  V30 2409 H 227.453 1.98355 -4.50462 0
M  V30 2410 N 229.106 1.52395 0.401703 0
M  V30 2411 C 230.053 1.76268 1.48991 0
M  V30 2412 C 231.023 0.605386 1.54675 0
M  V30 2413 O 232.208 0.843742 1.7113 0
M  V30 2414 C 229.348 1.92592 2.86361 0
M  V30 2415 C 228.461 3.20259 2.89928 0
M  V30 2416 C 227.596 3.26972 4.18644 0
M  V30 2417 C 226.635 4.48812 4.16214 0
M  V30 2418 N 225.772 4.52877 5.36514 0
M  V30 2419 H 230.612 2.6914 1.27935 0
M  V30 2420 H 228.149 1.33355 0.620871 0
M  V30 2421 H 230.107 2.0004 3.66115 0
M  V30 2422 H 228.737 1.03093 3.05895 0
M  V30 2423 H 227.789 3.21945 2.02621 0
M  V30 2424 H 229.101 4.10056 2.83999 0
M  V30 2425 H 228.255 3.33533 5.06794 0
M  V30 2426 H 226.994 2.35126 4.27278 0
M  V30 2427 H 225.999 4.4239 3.26453 0
M  V30 2428 H 227.224 5.41961 4.09213 0
M  V30 2429 H 225.17 3.63917 5.45802 0
M  V30 2430 H 225.087 5.36529 5.32609 0
M  V30 2431 H 226.355 4.63676 6.26597 0
M  V30 2432 N 230.584 -0.659388 1.43143 0
M  V30 2433 C 231.83 -1.42145 1.44647 0
M  V30 2434 C 232.163 -1.9408 0.0681907 0
M  V30 2435 O 231.438 -1.71899 -0.910007 0
M  V30 2436 C 231.721 -2.60735 2.48373 0
M  V30 2437 C 231.574 -2.14332 3.95451 0
M  V30 2438 C 232.893 -3.62951 2.48906 0
M  V30 2439 H 230.012 -0.51552 0.526696 0
M  V30 2440 H 232.654 -0.748069 1.74654 0
M  V30 2441 H 230.804 -3.18184 2.22916 0
M  V30 2442 H 232.476 -1.61932 4.31944 0
M  V30 2443 H 230.719 -1.4576 4.08578 0
M  V30 2444 H 231.39 -2.99583 4.63631 0
M  V30 2445 H 233.866 -3.1525 2.71582 0
M  V30 2446 H 232.742 -4.43487 3.23435 0
M  V30 2447 H 233.003 -4.15126 1.52061 0
M  V30 2448 N 232.062 -1.29571 -0.897171 0
M  V30 2449 C 232.972 -1.16808 -2.03453 0
M  V30 2450 C 233.988 -0.0907471 -1.73763 0
M  V30 2451 O 235.164 -0.303312 -1.99103 0
M  V30 2452 C 232.229 -0.848264 -3.36163 0
M  V30 2453 C 231.29 -2.0097 -3.79354 0
M  V30 2454 C 230.523 -1.70505 -5.05731 0
M  V30 2455 O 230.746 -0.62718 -5.66941 0
M  V30 2456 O 229.68 -2.5538 -5.45036 0
M  V30 2457 H 233.506 -2.12325 -2.17144 0
M  V30 2458 H 231.091 -1.09047 -1.02123 0
M  V30 2459 H 232.973 -0.684581 -4.15802 0
M  V30 2460 H 231.648 0.0771071 -3.23608 0
M  V30 2461 H 230.555 -2.22863 -3.00471 0
M  V30 2462 H 231.888 -2.91636 -3.96496 0
M  V30 2463 N 233.54 1.10788 -1.12088 0
M  V30 2464 C 234.768 1.86461 -0.896651 0
M  V30 2465 C 235.183 1.80492 0.553912 0
M  V30 2466 O 234.54 1.19102 1.38278 0
M  V30 2467 C 234.591 3.35006 -1.35843 0
M  V30 2468 O 234.312 3.40866 -2.75213 0
M  V30 2469 C 235.813 4.27565 -1.1706 0
M  V30 2470 H 233.033 0.589425 -0.320654 0
M  V30 2471 H 235.577 1.40076 -1.48993 0
M  V30 2472 H 233.732 3.7887 -0.808458 0
M  V30 2473 H 234.146 4.33411 -2.9539 0
M  V30 2474 H 235.62 5.30007 -1.54263 0
M  V30 2475 H 236.097 4.3906 -0.110814 0
M  V30 2476 H 236.703 3.89501 -1.70789 0
M  V30 2477 N 235.018 0.912232 1.28515 0
M  V30 2478 C 236.243 0.559774 1.99703 0
M  V30 2479 C 236.668 -0.851393 1.67729 0
M  V30 2480 O 236.026 -1.56875 0.908834 0
M  V30 2481 C 236.074 0.773874 3.52198 0
M  V30 2482 O 235.178 -0.167842 4.12058 0
M  V30 2483 H 234.519 0.21723 0.627461 0
M  V30 2484 H 237.049 1.22725 1.63706 0
M  V30 2485 H 237.059 0.683386 4.02236 0
M  V30 2486 H 235.734 1.80261 3.74805 0
M  V30 2487 H 234.311 -0.0287509 3.72889 0
M  V30 2488 N 236.496 -1.42363 0.676048 0
M  V30 2489 C 237.721 -2.06377 0.205705 0
M  V30 2490 C 238.146 -1.50463 -1.12883 0
M  V30 2491 O 237.504 -0.623619 -1.70237 0
M  V30 2492 C 237.552 -3.60277 0.152655 0
M  V30 2493 O 236.656 -4.02935 -0.87845 0
M  V30 2494 H 235.997 -0.655588 0.105359 0
M  V30 2495 H 238.527 -1.82475 0.925412 0
M  V30 2496 H 238.537 -4.07993 -0.0230675 0
M  V30 2497 H 237.212 -4.00346 1.12675 0
M  V30 2498 H 235.789 -3.66764 -0.673668 0
M  V30 2499 O 238.013 -0.561574 -1.51422 0
M  V30 2500 H 238.704 -0.0603133 -1.93606 0
M  V30 END ATOM
M  V30 BEGIN BOND
M  V30 END BOND
M  V30 END CTAB
M  END
$$$$
