drugbank_target|Q9LCV9 N(2)-(2-carboxyethyl)arginine synthase (DB01987)
 OpenBabel12092120293D

  0  0  0     0  0            999 V3000
M  V30 BEGIN CTAB
M  V30 COUNTS 8544 8641 0 0 0
M  V30 BEGIN ATOM
M  V30 1 H -0.908 1.98254 -0.117106 0
M  V30 2 N 0 1.576 0 0
M  V30 3 C 0.933 2.03868 1.02534 0
M  V30 4 C 1.911 0.928543 1.3348 0
M  V30 5 O 3.095 1.19667 1.45644 0
M  V30 6 C 0.222 2.43627 2.35294 0
M  V30 7 C -0.732 3.65373 2.2001 0
M  V30 8 S 0.101 5.13292 1.52614 0
M  V30 9 C 1.257 5.56322 2.86805 0
M  V30 10 H 1.49 2.90518 0.631377 0
M  V30 11 H -0.977 1.52953 0.210867 0
M  V30 12 H 0.981 2.67203 3.11629 0
M  V30 13 H -0.358 1.57376 2.7183 0
M  V30 14 H -1.165 3.90944 3.18086 0
M  V30 15 H -1.563 3.418 1.51819 0
M  V30 16 H 0.729 5.58782 3.83104 0
M  V30 17 H 1.672 6.56266 2.65933 0
M  V30 18 H 2.08 4.83886 2.90714 0
M  V30 19 N 1.4781 -0.272755 1.55222 0
M  V30 20 C 2.7031 -1.02683 1.80197 0
M  V30 21 C 3.1281 -1.79142 0.573551 0
M  V30 22 O 2.4861 -1.74917 -0.476849 0
M  V30 23 C 2.5341 -1.9609 3.02624 0
M  V30 24 O 1.6381 -3.04863 2.77727 0
M  V30 25 H 0.9791 -0.293557 0.595584 0
M  V30 26 H 3.5091 -0.30159 2.02365 0
M  V30 27 H 3.5191 -2.38039 3.31363 0
M  V30 28 H 2.1941 -1.39851 3.91682 0
M  V30 29 H 0.7711 -2.67228 2.60084 0
M  V30 30 N 2.9562 -1.48159 -0.537278 0
M  V30 31 C 4.3722 -1.34118 -0.865129 0
M  V30 32 C 4.5722 -0.346678 -1.98495 0
M  V30 33 O 3.6282 0.234715 -2.51407 0
M  V30 34 C 4.9412 -2.73963 -1.23954 0
M  V30 35 C 6.4892 -2.82397 -1.34984 0
M  V30 36 C 6.9642 -4.22928 -1.75772 0
M  V30 37 N 8.4552 -4.25566 -1.82887 0
M  V30 38 C 9.1902 -5.31235 -2.15817 0
M  V30 39 N 8.6862 -6.47189 -2.47222 0
M  V30 40 N 10.4792 -5.18624 -2.16761 0
M  V30 41 H 2.6302 -2.1144 0.201715 0
M  V30 42 H 4.8932 -0.947598 0.0275949 0
M  V30 43 H 4.5992 -3.48264 -0.490381 0
M  V30 44 H 4.4732 -3.0702 -2.19132 0
M  V30 45 H 6.8602 -2.08356 -2.08978 0
M  V30 46 H 6.9412 -2.5297 -0.379448 0
M  V30 47 H 6.5852 -4.97482 -1.02341 0
M  V30 48 H 6.5152 -4.49794 -2.73848 0
M  V30 49 H 9.0062 -3.41924 -1.60924 0
M  V30 50 H 9.3192 -7.23564 -2.71433 0
M  V30 51 H 7.6642 -6.50476 -2.44757 0
M  V30 52 H 10.8552 -4.27056 -1.91679 0
M  V30 53 H 11.0282 -6.01078 -2.42093 0
M  V30 54 N 4.4343 0.785586 -1.36625 0
M  V30 55 C 5.6803 1.54591 -1.31261 0
M  V30 56 C 6.0133 1.93906 0.106823 0
M  V30 57 O 5.2883 1.63007 1.06108 0
M  V30 58 C 5.5713 2.82038 -2.23889 0
M  V30 59 C 5.4243 2.49066 -3.74548 0
M  V30 60 C 6.7433 3.83887 -2.15217 0
M  V30 61 H 3.8623 0.560846 -0.478143 0
M  V30 62 H 6.5043 0.902278 -1.67209 0
M  V30 63 H 4.6543 3.36961 -1.93363 0
M  V30 64 H 6.3263 2.00164 -4.15611 0
M  V30 65 H 4.5693 1.81954 -3.93796 0
M  V30 66 H 5.2403 3.40109 -4.34776 0
M  V30 67 H 7.7163 3.38421 -2.42096 0
M  V30 68 H 6.5923 4.70806 -2.82193 0
M  V30 69 H 6.8533 4.27131 -1.14068 0
M  V30 70 N 5.9124 1.20967 1.01018 0
M  V30 71 C 7.1374 1.0503 1.78839 0
M  V30 72 C 7.5624 -0.395752 1.8389 0
M  V30 73 O 6.9204 -1.28529 1.27867 0
M  V30 74 C 6.9684 1.64602 3.2084 0
M  V30 75 O 6.0724 0.887988 4.02726 0
M  V30 76 H 5.4134 0.369987 0.551367 0
M  V30 77 H 7.9434 1.60399 1.27018 0
M  V30 78 H 7.9534 1.68607 3.71532 0
M  V30 79 H 6.6284 2.69841 3.16479 0
M  V30 80 H 5.2054 0.922648 3.61305 0
M  V30 81 N 7.3905 -1.2043 1.01659 0
M  V30 82 C 8.6185 -1.93777 0.725132 0
M  V30 83 C 9.0335 -1.74772 -0.714166 0
M  V30 84 O 8.3905 -1.06169 -1.4844 0
M  V30 85 C 8.4415 -3.45876 1.05129 0
M  V30 86 O 8.1625 -3.6426 2.43406 0
M  V30 87 C 9.6635 -4.36368 0.780891 0
M  V30 88 H 6.8835 -0.615901 0.266284 0
M  V30 89 H 9.4275 -1.52922 1.35776 0
M  V30 90 H 7.5825 -3.8461 0.464065 0
M  V30 91 H 7.9965 -4.58246 2.55169 0
M  V30 92 H 9.4705 -5.41743 1.05918 0
M  V30 93 H 9.9475 -4.38275 -0.284937 0
M  V30 94 H 10.5535 -4.03296 1.35027 0
M  V30 95 N 8.8686 -0.792821 -1.36206 0
M  V30 96 C 9.8316 -0.199459 -2.2833 0
M  V30 97 C 10.8316 0.605189 -1.48977 0
M  V30 98 O 12.0216 0.425685 -1.68919 0
M  V30 99 C 9.1536 0.723523 -3.33134 0
M  V30 100 H 10.3466 -1.01181 -2.82316 0
M  V30 101 H 7.8996 -0.562485 -1.45828 0
M  V30 102 H 8.6346 1.56008 -2.84309 0
M  V30 103 H 8.4196 0.148436 -3.91819 0
M  V30 104 H 9.9096 1.13344 -4.01924 0
M  V30 105 N 10.3467 1.47872 -0.545128 0
M  V30 106 C 11.7577 1.86384 -0.108581 0
M  V30 107 C 12.1087 1.45309 1.31832 0
M  V30 108 O 11.2337 0.850641 1.9898 0
M  V30 109 C 11.8287 3.38265 -0.190274 0
M  V30 110 C 10.3877 3.75914 0.191164 0
M  V30 111 C 9.5347 2.71926 -0.543273 0
M  V30 112 H 12.4857 1.39561 -0.755537 0
M  V30 113 H 12.5067 3.75831 0.594217 0
M  V30 114 H 12.0187 3.6813 -1.2289 0
M  V30 115 H 10.1197 3.51665 1.23136 0
M  V30 116 H 10.2327 4.78836 -0.158987 0
M  V30 117 H 8.5967 2.54697 0.0122495 0
M  V30 118 H 9.3797 3.04634 -1.58282 0
M  V30 119 N 11.8248 0.280983 1.55075 0
M  V30 120 C 13.0498 -0.340154 2.04592 0
M  V30 121 C 13.4748 -1.48246 1.15779 0
M  V30 122 O 12.8328 -1.80614 0.15761 0
M  V30 123 C 12.8808 -0.793104 3.5177 0
M  V30 124 O 11.9848 -1.89981 3.66034 0
M  V30 125 H 11.3258 -0.0694289 0.66036 0
M  V30 126 H 13.8558 0.416993 2.00306 0
M  V30 127 H 13.8658 -1.08729 3.93245 0
M  V30 128 H 12.5408 0.0426163 4.15878 0
M  V30 129 H 11.1178 -1.60771 3.36463 0
M  V30 130 N 13.3029 -1.57598 0.00835791 0
M  V30 131 C 14.5509 -1.90551 -0.6734 0
M  V30 132 C 14.8719 -0.883301 -1.73847 0
M  V30 133 O 14.1419 0.0781442 -1.95744 0
M  V30 134 H 12.7219 -0.703312 -0.251717 0
M  V30 135 H 15.3839 -1.94833 0.0512592 0
M  V30 136 H 14.4799 -2.9056 -1.13935 0
M  V30 137 N 14.781 0.264519 -1.55364 0
M  V30 138 C 15.728 1.32717 -1.88825 0
M  V30 139 C 16.698 1.48675 -0.740605 0
M  V30 140 O 17.883 1.62945 -0.992657 0
M  V30 141 C 15.023 2.68089 -2.17307 0
M  V30 142 C 14.136 2.60284 -3.44785 0
M  V30 143 C 13.271 3.87892 -3.62924 0
M  V30 144 C 12.31 3.74631 -4.84064 0
M  V30 145 N 11.447 4.94092 -4.98816 0
M  V30 146 H 16.287 1.03481 -2.79456 0
M  V30 147 H 13.824 0.499757 -1.3835 0
M  V30 148 H 15.782 3.46864 -2.31821 0
M  V30 149 H 14.412 2.95509 -1.299 0
M  V30 150 H 13.464 1.73173 -3.38697 0
M  V30 151 H 14.776 2.46388 -4.33698 0
M  V30 152 H 13.93 4.75109 -3.77302 0
M  V30 153 H 12.669 4.04664 -2.7221 0
M  V30 154 H 11.674 2.85797 -4.69681 0
M  V30 155 H 12.899 3.5937 -5.76221 0
M  V30 156 H 10.845 5.11259 -4.11036 0
M  V30 157 H 10.762 4.8276 -5.81789 0
M  V30 158 H 12.03 5.82857 -5.17588 0
M  V30 159 N 16.2591 1.48442 0.529413 0
M  V30 160 C 17.6701 1.5002 1.11134 0
M  V30 161 C 18.0211 0.27031 1.94329 0
M  V30 162 O 17.1461 -0.622507 2.07253 0
M  V30 163 C 17.7411 2.71834 2.02217 0
M  V30 164 C 16.3001 2.76283 2.55627 0
M  V30 165 C 15.4471 2.43542 1.326 0
M  V30 166 H 18.3981 1.5555 0.314641 0
M  V30 167 H 18.4191 2.50384 2.8651 0
M  V30 168 H 17.9311 3.61331 1.41639 0
M  V30 169 H 16.0321 1.90995 3.19924 0
M  V30 170 H 16.1451 3.77725 2.94721 0
M  V30 171 H 14.5091 1.94709 1.64196 0
M  V30 172 H 15.2921 3.3528 0.737734 0
M  V30 173 N 17.7372 -0.778329 1.37039 0
M  V30 174 C 18.9652 -1.56734 1.35063 0
M  V30 175 C 19.3802 -1.88686 -0.0655597 0
M  V30 176 O 18.7372 -1.5096 -1.02554 0
M  V30 177 C 18.7882 -2.88163 2.18276 0
M  V30 178 O 18.5092 -2.57583 3.54376 0
M  V30 179 C 20.0102 -3.82422 2.24206 0
M  V30 180 H 17.2302 -0.485778 0.462883 0
M  V30 181 H 19.7742 -0.965185 1.8029 0
M  V30 182 H 17.9292 -3.44818 1.76576 0
M  V30 183 H 18.3432 -3.41699 3.97922 0
M  V30 184 H 19.8172 -4.71667 2.86765 0
M  V30 185 H 20.2942 -4.21078 1.24861 0
M  V30 186 H 20.9002 -3.31697 2.6619 0
M  V30 187 N 19.2153 -1.21501 -1.00376 0
M  V30 188 C 20.1783 -0.976927 -2.07337 0
M  V30 189 C 21.1783 0.0525322 -1.60714 0
M  V30 190 O 22.3683 -0.184869 -1.73216 0
M  V30 191 C 19.5003 -0.473423 -3.37597 0
M  V30 192 H 20.6933 -1.92587 -2.29892 0
M  V30 193 H 18.2463 -1.03217 -1.17371 0
M  V30 194 H 18.9813 0.480379 -3.20722 0
M  V30 195 H 18.7663 -1.216 -3.72768 0
M  V30 196 H 20.2563 -0.32675 -4.1632 0
M  V30 197 N 20.6934 1.19889 -1.02296 0
M  V30 198 C 21.6564 2.21116 -0.603351 0
M  V30 199 C 22.6564 1.5738 0.329884 0
M  V30 200 O 23.8464 1.73802 0.117702 0
M  V30 201 C 20.9784 3.40696 0.117992 0
M  V30 202 H 22.1714 2.59754 -1.49893 0
M  V30 203 H 19.7244 1.33463 -0.813468 0
M  V30 204 H 20.4594 3.07569 1.0282 0
M  V30 205 H 20.2444 3.88188 -0.552511 0
M  V30 206 H 21.7344 4.15692 0.398696 0
M  V30 207 N 22.1715 0.800033 1.35784 0
M  V30 208 C 23.1215 0.178654 2.27299 0
M  V30 209 C 24.1055 -0.643667 1.47464 0
M  V30 210 O 25.2975 -0.502 1.69732 0
M  V30 211 C 22.4265 -0.677194 3.36555 0
M  V30 212 C 21.5125 0.154497 4.23818 0
M  V30 213 N 21.9035 1.21427 4.91008 0
M  V30 214 C 20.2015 -0.0649462 4.45953 0
M  V30 215 C 20.9025 1.72147 5.55644 0
M  V30 216 N 19.8785 1.02897 5.33773 0
M  V30 217 H 23.6805 0.989637 2.76737 0
M  V30 218 H 21.1945 0.64054 1.49234 0
M  V30 219 H 23.1915 -1.13835 4.01058 0
M  V30 220 H 21.8515 -1.4866 2.8867 0
M  V30 221 H 22.8625 1.59684 4.92668 0
M  V30 222 H 19.5395 -0.844016 4.0888 0
M  V30 223 H 20.9295 2.60683 6.19269 0
M  V30 224 N 23.6496 -1.47581 0.552962 0
M  V30 225 C 24.6126 -2.28439 -0.186605 0
M  V30 226 C 25.6126 -1.36706 -0.84665 0
M  V30 227 O 26.8026 -1.59378 -0.703164 0
M  V30 228 C 23.9346 -3.16264 -1.2724 0
M  V30 229 H 25.1276 -2.95294 0.523609 0
M  V30 230 H 22.6806 -1.532 0.309745 0
M  V30 231 H 23.4156 -2.54091 -2.01514 0
M  V30 232 H 23.2006 -3.83769 -0.803968 0
M  V30 233 H 24.6906 -3.77198 -1.79196 0
M  V30 234 N 25.1277 -0.289203 -1.54924 0
M  V30 235 C 26.0577 0.58549 -2.2604 0
M  V30 236 C 27.0387 1.14753 -1.25562 0
M  V30 237 O 28.2237 1.17906 -1.54311 0
M  V30 238 C 25.3537 1.76305 -2.99222 0
M  V30 239 C 24.3077 1.33191 -4.06748 0
M  V30 240 C 23.6337 2.5937 -4.6758 0
M  V30 241 C 24.9337 0.471775 -5.20165 0
M  V30 242 H 26.6277 -0.00763532 -2.99399 0
M  V30 243 H 24.1737 -0.00511229 -1.43999 0
M  V30 244 H 26.1267 2.38097 -3.47689 0
M  V30 245 H 24.8507 2.38223 -2.23422 0
M  V30 246 H 23.5097 0.737121 -3.59113 0
M  V30 247 H 23.1577 3.19576 -3.88433 0
M  V30 248 H 22.8577 2.31228 -5.40192 0
M  V30 249 H 24.3817 3.21985 -5.18804 0
M  V30 250 H 25.7957 0.995056 -5.64599 0
M  V30 251 H 24.1927 0.284639 -5.99425 0
M  V30 252 H 25.2627 -0.506041 -4.82252 0
M  V30 253 N 26.6058 1.57591 -0.0167156 0
M  V30 254 C 27.5358 2.12496 0.967858 0
M  V30 255 C 28.5168 1.03807 1.34752 0
M  V30 256 O 29.7018 1.31577 1.42833 0
M  V30 257 C 26.8318 2.64194 2.25431 0
M  V30 258 C 25.7858 3.77559 2.01576 0
M  V30 259 C 25.1118 4.15636 3.36379 0
M  V30 260 C 26.4118 5.04151 1.36489 0
M  V30 261 H 28.1058 2.95013 0.510643 0
M  V30 262 H 25.6518 1.41915 0.244181 0
M  V30 263 H 27.6048 3.01236 2.94678 0
M  V30 264 H 26.3288 1.78821 2.73296 0
M  V30 265 H 24.9878 3.40937 1.34751 0
M  V30 266 H 24.6358 3.27263 3.81979 0
M  V30 267 H 24.3358 4.92022 3.21229 0
M  V30 268 H 25.8598 4.5525 4.06915 0
M  V30 269 H 27.2738 5.38857 1.95718 0
M  V30 270 H 25.6708 5.85453 1.31776 0
M  V30 271 H 26.7408 4.83733 0.336219 0
M  V30 272 N 28.0839 -0.256276 1.55502 0
M  V30 273 C 29.3089 -1.00766 1.81276 0
M  V30 274 C 29.7339 -1.78524 0.59252 0
M  V30 275 O 29.0919 -1.75413 -0.45827 0
M  V30 276 C 29.1399 -1.92869 3.04687 0
M  V30 277 O 28.2439 -3.019 2.80945 0
M  V30 278 H 27.5849 -0.287224 0.598664 0
M  V30 279 H 30.1149 -0.280109 2.02674 0
M  V30 280 H 30.1249 -2.34511 3.33869 0
M  V30 281 H 28.7999 -1.35689 3.93143 0
M  V30 282 H 27.3769 -2.64454 2.62904 0
M  V30 283 N 29.562 -1.4872 -0.521534 0
M  V30 284 C 30.978 -1.35028 -0.850855 0
M  V30 285 C 31.178 -0.367712 -1.98116 0
M  V30 286 O 30.234 0.208037 -2.51642 0
M  V30 287 C 31.547 -2.75263 -1.21041 0
M  V30 288 C 33.095 -2.83813 -1.31981 0
M  V30 289 C 33.57 -4.24769 -1.71276 0
M  V30 290 N 35.061 -4.27482 -1.78363 0
M  V30 291 C 35.796 -5.33494 -2.1017 0
M  V30 292 N 35.292 -6.49775 -2.40343 0
M  V30 293 N 37.085 -5.20894 -2.11248 0
M  V30 294 H 29.236 -2.11214 0.22413 0
M  V30 295 H 31.499 -0.947252 0.0376439 0
M  V30 296 H 31.205 -3.48765 -0.453415 0
M  V30 297 H 31.079 -3.09327 -2.15863 0
M  V30 298 H 33.466 -2.10561 -2.06756 0
M  V30 299 H 33.547 -2.53358 -0.352596 0
M  V30 300 H 33.191 -4.9854 -0.970588 0
M  V30 301 H 33.121 -4.52673 -2.69062 0
M  V30 302 H 35.612 -3.43611 -1.57288 0
M  V30 303 H 35.925 -7.26402 -2.63743 0
M  V30 304 H 34.27 -6.53035 -2.37844 0
M  V30 305 H 37.461 -4.29065 -1.87139 0
M  V30 306 H 37.634 -6.03612 -2.35704 0
M  V30 307 N 31.0401 0.771051 -1.3745 0
M  V30 308 C 31.9701 1.89827 -1.3597 0
M  V30 309 C 32.9511 1.68562 -0.228216 0
M  V30 310 O 34.1361 1.8941 -0.428675 0
M  V30 311 C 31.2661 3.2712 -1.16662 0
M  V30 312 C 30.2201 3.6295 -2.2683 0
M  V30 313 C 29.5461 4.98791 -1.92644 0
M  V30 314 C 30.8461 3.69627 -3.69017 0
M  V30 315 H 32.5401 1.91323 -2.30295 0
M  V30 316 H 30.0861 0.919082 -1.10855 0
M  V30 317 H 32.0391 4.05615 -1.14256 0
M  V30 318 H 30.7631 3.26059 -0.187926 0
M  V30 319 H 29.4221 2.86763 -2.28392 0
M  V30 320 H 29.0701 4.94271 -0.933021 0
M  V30 321 H 28.7701 5.23733 -2.66416 0
M  V30 322 H 30.2941 5.79685 -1.91826 0
M  V30 323 H 31.7081 4.38273 -3.69581 0
M  V30 324 H 30.1051 4.06067 -4.41848 0
M  V30 325 H 31.1751 2.70273 -4.02592 0
M  V30 326 N 32.5182 1.22032 0.997298 0
M  V30 327 C 33.9342 0.979326 1.26021 0
M  V30 328 C 34.1342 -0.32972 1.98784 0
M  V30 329 O 33.1902 -1.05345 2.29475 0
M  V30 330 C 34.5032 2.17509 2.07631 0
M  V30 331 C 36.0512 2.21817 2.2083 0
M  V30 332 C 36.5262 3.40933 3.05825 0
M  V30 333 N 38.0172 3.41067 3.13412 0
M  V30 334 C 38.7522 4.29885 3.79455 0
M  V30 335 N 38.2482 5.28914 4.47462 0
M  V30 336 N 40.0412 4.17673 3.76173 0
M  V30 337 H 32.1922 2.06202 0.509352 0
M  V30 338 H 34.4552 0.90334 0.287541 0
M  V30 339 H 34.1612 3.12415 1.61524 0
M  V30 340 H 34.0352 2.17206 3.08385 0
M  V30 341 H 36.4222 1.27462 2.66153 0
M  V30 342 H 36.5032 2.2616 1.1952 0
M  V30 343 H 36.1472 4.35586 2.61203 0
M  V30 344 H 36.0772 3.33829 4.07266 0
M  V30 345 H 38.5682 2.69406 2.65007 0
M  V30 346 H 38.8812 5.92973 4.95583 0
M  V30 347 H 37.2262 5.32831 4.46224 0
M  V30 348 H 40.4172 3.39564 3.22202 0
M  V30 349 H 40.5902 4.87098 4.27363 0
M  V30 350 N 33.9963 -1.19345 1.0293 0
M  V30 351 C 35.2733 -1.84811 0.640642 0
M  V30 352 C 35.6533 -1.91855 -0.88062 0
M  V30 353 O 35.0013 -1.43587 -1.7775 0
M  V30 354 C 35.2113 -3.23755 1.30321 0
M  V30 355 C 36.5593 -3.99912 1.42673 0
M  V30 356 O 37.5833 -3.33155 1.26041 0
M  V30 357 O 36.4423 -5.19494 1.6967 0
M  V30 358 H 33.5363 -0.796443 0.222726 0
M  V30 359 H 36.0823 -1.26831 1.12748 0
M  V30 360 H 34.8543 -3.13466 2.34211 0
M  V30 361 H 34.4773 -3.89381 0.804261 0
M  V30 362 N 35.4744 -0.807222 -1.35358 0
M  V30 363 C 36.4244 -0.190706 -2.27201 0
M  V30 364 C 37.4084 0.635838 -1.47804 0
M  V30 365 O 38.6004 0.492991 -1.69996 0
M  V30 366 C 35.7294 0.659337 -3.36909 0
M  V30 367 C 34.8154 -0.176971 -4.23731 0
M  V30 368 N 35.2064 -1.24029 -4.90357 0
M  V30 369 C 33.5044 0.0412953 -4.45981 0
M  V30 370 C 34.2054 -1.75092 -5.54723 0
M  V30 371 N 33.1814 -1.05727 -5.33219 0
M  V30 372 H 36.9834 -1.0043 -2.76208 0
M  V30 373 H 34.4974 -0.648445 -1.48892 0
M  V30 374 H 36.4944 1.11706 -4.01656 0
M  V30 375 H 35.1544 1.47127 -2.89454 0
M  V30 376 H 36.1654 -1.62295 -4.91814 0
M  V30 377 H 32.8424 0.82232 -4.09322 0
M  V30 378 H 34.2324 -2.63963 -6.17878 0
M  V30 379 N 36.9525 1.47285 -0.560781 0
M  V30 380 C 38.2005 2.02064 -0.0379868 0
M  V30 381 C 38.5215 1.43711 1.31803 0
M  V30 382 O 37.7915 0.61362 1.86042 0
M  V30 383 H 36.3715 0.746918 -0.0110531 0
M  V30 384 H 39.0335 1.80648 -0.731598 0
M  V30 385 H 38.1295 3.12064 0.0474463 0
M  V30 386 N 38.4306 0.297415 1.54768 0
M  V30 387 C 39.6766 -0.313376 2.00364 0
M  V30 388 C 40.0096 -1.53815 1.18553 0
M  V30 389 O 39.2846 -1.92739 0.261103 0
M  V30 390 C 39.5676 -0.673525 3.53745 0
M  V30 391 C 39.4206 0.560133 4.46299 0
M  V30 392 C 40.7396 -1.50143 4.13697 0
M  V30 393 H 37.8586 -0.112428 0.728374 0
M  V30 394 H 40.5006 0.4088 1.8555 0
M  V30 395 H 38.6506 -1.28881 3.665 0
M  V30 396 H 40.3226 1.19863 4.45455 0
M  V30 397 H 38.5656 1.19405 4.17043 0
M  V30 398 H 39.2366 0.26405 5.51368 0
M  V30 399 H 41.7126 -0.981588 4.04356 0
M  V30 400 H 40.5886 -1.72221 5.21182 0
M  V30 401 H 40.8496 -2.48952 3.65343 0
M  V30 402 N 39.9087 -1.5758 0.0250728 0
M  V30 403 C 41.1567 -1.91255 -0.653151 0
M  V30 404 C 41.4777 -0.901691 -1.729 0
M  V30 405 O 40.7477 0.0573785 -1.95816 0
M  V30 406 H 39.3277 -0.705942 -0.244243 0
M  V30 407 H 41.9897 -1.94767 0.0719209 0
M  V30 408 H 41.0857 -2.91752 -1.10847 0
M  V30 409 N 41.3868 0.248026 -1.55636 0
M  V30 410 C 42.3338 1.30707 -1.90222 0
M  V30 411 C 43.3038 1.47881 -0.756332 0
M  V30 412 O 44.4888 1.61883 -1.00988 0
M  V30 413 C 41.6288 2.65769 -2.20138 0
M  V30 414 C 40.7418 2.56612 -3.47526 0
M  V30 415 C 39.8768 3.8402 -3.67017 0
M  V30 416 C 38.9158 3.69476 -4.8801 0
M  V30 417 N 38.0528 4.88774 -5.04029 0
M  V30 418 H 42.8928 1.00512 -2.80538 0
M  V30 419 H 40.4298 0.485055 -1.38873 0
M  V30 420 H 42.3878 3.44386 -2.35487 0
M  V30 421 H 41.0178 2.94115 -1.33027 0
M  V30 422 H 40.0698 1.69571 -3.40514 0
M  V30 423 H 41.3818 2.41774 -4.36287 0
M  V30 424 H 40.5358 4.7108 -3.8232 0
M  V30 425 H 39.2748 4.01754 -2.76487 0
M  V30 426 H 38.2798 2.80799 -4.72686 0
M  V30 427 H 39.5048 3.53238 -5.8 0
M  V30 428 H 37.4508 5.0687 -4.16435 0
M  V30 429 H 37.3678 4.76562 -5.86877 0
M  V30 430 H 38.6358 5.77335 -5.23741 0
M  V30 431 N 42.8649 1.48995 0.513639 0
M  V30 432 C 44.1109 1.58076 1.27042 0
M  V30 433 C 44.4439 0.261026 1.92438 0
M  V30 434 O 43.7189 -0.734393 1.80103 0
M  V30 435 C 44.0019 2.73091 2.34719 0
M  V30 436 C 43.8549 4.14821 1.73907 0
M  V30 437 C 45.1739 2.83796 3.36375 0
M  V30 438 H 42.2929 0.575391 0.460536 0
M  V30 439 H 44.9349 1.81232 0.570516 0
M  V30 440 H 43.0849 2.53479 2.94416 0
M  V30 441 H 44.7569 4.45917 1.18135 0
M  V30 442 H 42.9999 4.21058 1.0437 0
M  V30 443 H 43.6709 4.91147 2.51949 0
M  V30 444 H 46.1469 3.01611 2.86653 0
M  V30 445 H 45.0229 3.65971 4.09093 0
M  V30 446 H 45.2839 1.92624 3.9793 0
M  V30 447 N 44.343 -0.763751 1.37857 0
M  V30 448 C 45.59 -1.52257 1.33506 0
M  V30 449 C 45.918 -1.94343 -0.078022 0
M  V30 450 O 45.173 -1.64958 -1.05297 0
M  V30 451 C 45.472 -2.79499 2.22745 0
M  V30 452 C 45.138 -2.56426 3.70886 0
M  V30 453 C 43.8 -2.49842 4.11257 0
M  V30 454 C 46.152 -2.36008 4.64704 0
M  V30 455 C 43.48 -2.20841 5.43549 0
M  V30 456 C 45.832 -2.0853 5.97242 0
M  V30 457 C 44.496 -2.00396 6.36709 0
M  V30 458 H 43.766 -0.557149 0.488534 0
M  V30 459 H 46.413 -0.879073 1.70131 0
M  V30 460 H 44.718 -3.48447 1.79142 0
M  V30 461 H 46.415 -3.37413 2.16688 0
M  V30 462 H 43.005 -2.62416 3.38874 0
M  V30 463 H 47.189 -2.40079 4.34368 0
M  V30 464 H 42.445 -2.13045 5.73081 0
M  V30 465 H 46.619 -1.91732 6.69486 0
M  V30 466 H 44.246 -1.77688 7.39142 0
M  V30 467 N 45.8211 -1.22559 -0.990812 0
M  V30 468 C 47.0691 -1.04933 -1.72724 0
M  V30 469 C 47.3901 0.416158 -1.90508 0
M  V30 470 O 46.6601 1.29918 -1.46622 0
M  V30 471 H 45.2401 -0.385296 -0.639965 0
M  V30 472 H 47.9021 -1.54105 -1.19322 0
M  V30 473 H 46.9981 -1.52886 -2.72089 0
M  V30 474 N 47.2992 1.18797 -1.03562 0
M  V30 475 C 48.5452 1.8893 -0.737113 0
M  V30 476 C 48.8782 1.79837 0.732956 0
M  V30 477 O 48.1532 1.19525 1.5344 0
M  V30 478 C 48.4362 3.39607 -1.19745 0
M  V30 479 C 48.2892 3.57537 -2.72924 0
M  V30 480 C 49.6082 4.33069 -0.783526 0
M  V30 481 H 46.7272 0.686057 -0.269249 0
M  V30 482 H 49.3692 1.39797 -1.28673 0
M  V30 483 H 47.5192 3.81583 -0.729855 0
M  V30 484 H 49.1912 3.24688 -3.27682 0
M  V30 485 H 47.4342 3.00363 -3.12993 0
M  V30 486 H 48.1052 4.63238 -3.00191 0
M  V30 487 H 50.5812 3.98846 -1.18581 0
M  V30 488 H 49.4572 5.3707 -1.13343 0
M  V30 489 H 49.7182 4.40986 0.313681 0
M  V30 490 N 48.7773 0.814389 1.34928 0
M  V30 491 C 50.0233 0.399013 1.98836 0
M  V30 492 C 50.3563 -1.03314 1.64438 0
M  V30 493 O 49.6313 -1.71811 0.911659 0
M  V30 494 C 49.9143 0.591629 3.55207 0
M  V30 495 C 49.7673 2.06928 3.99376 0
M  V30 496 C 51.0863 0.022199 4.40094 0
M  V30 497 H 48.2053 0.146451 0.722303 0
M  V30 498 H 50.8473 1.02537 1.59957 0
M  V30 499 H 48.9973 0.0584441 3.88456 0
M  V30 500 H 50.6693 2.66544 3.76499 0
M  V30 501 H 48.9123 2.56287 3.49999 0
M  V30 502 H 49.5833 2.1549 5.08201 0
M  V30 503 H 52.0593 0.477643 4.13349 0
M  V30 504 H 50.9353 0.186832 5.48582 0
M  V30 505 H 51.1963 -1.07215 4.28902 0
M  V30 506 N 50.2554 -1.46986 0.568584 0
M  V30 507 C 51.5034 -2.02041 0.0487022 0
M  V30 508 C 51.8244 -1.44408 -1.31039 0
M  V30 509 O 51.0944 -0.623477 -1.85714 0
M  V30 510 H 49.6744 -0.746849 0.015014 0
M  V30 511 H 52.3364 -1.80257 0.741168 0
M  V30 512 H 51.4324 -3.12085 -0.0308961 0
M  V30 513 N 51.7335 -0.305618 -1.54608 0
M  V30 514 C 53.1495 0.0476228 -1.59529 0
M  V30 515 C 53.3495 1.52025 -1.32252 0
M  V30 516 O 52.4055 2.27368 -1.09818 0
M  V30 517 C 53.7185 -0.354471 -2.98603 0
M  V30 518 C 55.2665 -0.303622 -3.11524 0
M  V30 519 C 55.7415 -0.680608 -4.52915 0
M  V30 520 N 57.2325 -0.63332 -4.5885 0
M  V30 521 C 57.9675 -0.897432 -5.66334 0
M  V30 522 N 57.4635 -1.22775 -6.81834 0
M  V30 523 N 59.2565 -0.824186 -5.56025 0
M  V30 524 H 51.4075 -1.2653 -1.70599 0
M  V30 525 H 53.6705 -0.513291 -0.797017 0
M  V30 526 H 53.3765 -1.3798 -3.23503 0
M  V30 527 H 53.2505 0.289568 -3.76087 0
M  V30 528 H 55.6375 0.712472 -2.8637 0
M  V30 529 H 55.7185 -0.982348 -2.36185 0
M  V30 530 H 55.3625 -1.69453 -4.78799 0
M  V30 531 H 55.2925 0.0202385 -5.26596 0
M  V30 532 H 57.7835 -0.389138 -3.75891 0
M  V30 533 H 58.0965 -1.41513 -7.59733 0
M  V30 534 H 56.4415 -1.26583 -6.83375 0
M  V30 535 H 59.6325 -0.565748 -4.64669 0
M  V30 536 H 59.8055 -1.03338 -6.39707 0
M  V30 537 N 53.2116 1.57565 -0.0334293 0
M  V30 538 C 54.1216 2.13943 0.962572 0
M  V30 539 C 55.1376 1.09276 1.35406 0
M  V30 540 O 56.3136 1.41355 1.4346 0
M  V30 541 C 53.3786 2.65887 2.22497 0
M  V30 542 C 52.4396 3.85286 1.8935 0
M  V30 543 C 51.6726 4.34743 3.09571 0
M  V30 544 O 51.8956 3.83352 4.22371 0
M  V30 545 O 50.8296 5.26538 2.91618 0
M  V30 546 H 54.6556 2.99333 0.513169 0
M  V30 547 H 52.2406 1.4822 0.18743 0
M  V30 548 H 54.1226 2.99346 2.96598 0
M  V30 549 H 52.7976 1.83578 2.6661 0
M  V30 550 H 51.7046 3.56746 1.1262 0
M  V30 551 H 53.0376 4.68771 1.5005 0
M  V30 552 N 54.6897 -0.239769 1.55765 0
M  V30 553 C 55.6527 -1.28038 1.90103 0
M  V30 554 C 56.6527 -1.40723 0.778055 0
M  V30 555 O 57.8427 -1.39301 1.04599 0
M  V30 556 C 54.9747 -2.65702 2.13577 0
M  V30 557 H 56.1677 -0.988048 2.83157 0
M  V30 558 H 53.7207 -0.479382 1.48767 0
M  V30 559 H 54.4557 -3.00063 1.23015 0
M  V30 560 H 54.2407 -2.57875 2.95369 0
M  V30 561 H 55.7307 -3.40828 2.41301 0
M  V30 562 N 56.1678 -1.49265 -0.50573 0
M  V30 563 C 57.1308 -1.65075 -1.59006 0
M  V30 564 C 58.1308 -0.522768 -1.52065 0
M  V30 565 O 59.3208 -0.789117 -1.55302 0
M  V30 566 C 56.4528 -1.64369 -2.98656 0
M  V30 567 H 57.6458 -2.61784 -1.46319 0
M  V30 568 H 55.1988 -1.38226 -0.729616 0
M  V30 569 H 55.9338 -0.692272 -3.16825 0
M  V30 570 H 55.7188 -2.46282 -3.05103 0
M  V30 571 H 57.2088 -1.78674 -3.77446 0
M  V30 572 N 57.6459 0.756429 -1.3826 0
M  V30 573 C 58.8709 1.55077 -1.37717 0
M  V30 574 C 59.2959 1.88073 0.03164 0
M  V30 575 O 58.6539 1.50364 1.01293 0
M  V30 576 C 58.7019 2.8283 -2.23695 0
M  V30 577 O 57.8059 3.77862 -1.6521 0
M  V30 578 H 57.1469 0.469152 -0.469885 0
M  V30 579 H 59.6769 0.935019 -1.81985 0
M  V30 580 H 59.6869 3.31783 -2.37453 0
M  V30 581 H 58.3619 2.58144 -3.2609 0
M  V30 582 H 56.9389 3.36555 -1.60578 0
M  V30 583 N 59.124 1.23083 0.984299 0
M  V30 584 C 60.373 1.05466 1.71929 0
M  V30 585 C 60.686 -0.409211 1.91272 0
M  V30 586 O 61.892 -0.705226 2.62181 0
M  V30 587 C 60.348 1.83874 3.09384 0
M  V30 588 C 59.956 3.34566 2.97943 0
M  V30 589 C 61.7 1.74734 3.8687 0
M  V30 590 C 59.607 4.05381 4.30605 0
M  V30 591 H 58.537 0.391039 0.644674 0
M  V30 592 H 61.188 1.47013 1.09815 0
M  V30 593 H 59.57 1.35131 3.72231 0
M  V30 594 H 60.744 3.90767 2.44209 0
M  V30 595 H 59.059 3.44476 2.33934 0
M  V30 596 H 61.656 2.24957 4.85076 0
M  V30 597 H 61.999 0.709372 4.10212 0
M  V30 598 H 62.532 2.21067 3.30717 0
M  V30 599 H 59.271 5.09467 4.1246 0
M  V30 600 H 58.791 3.53967 4.84218 0
M  V30 601 H 60.47 4.11458 4.99311 0
M  V30 602 N 60.6021 -1.18246 1.0419 0
M  V30 603 C 61.5321 -2.24127 0.654914 0
M  V30 604 C 62.5131 -1.66617 -0.342451 0
M  V30 605 O 63.6981 -1.92924 -0.222277 0
M  V30 606 C 60.8281 -3.47295 0.0183757 0
M  V30 607 C 59.7821 -4.17563 0.939414 0
M  V30 608 C 59.1081 -5.34438 0.167286 0
M  V30 609 C 60.4081 -4.70917 2.25908 0
M  V30 610 H 62.1021 -2.56753 1.54007 0
M  V30 611 H 59.6481 -1.23414 0.74195 0
M  V30 612 H 61.6011 -4.20572 -0.264082 0
M  V30 613 H 60.3251 -3.13907 -0.901664 0
M  V30 614 H 58.9841 -3.46186 1.20628 0
M  V30 615 H 58.6321 -4.97298 -0.7552 0
M  V30 616 H 58.3321 -5.82388 0.780901 0
M  V30 617 H 59.8561 -6.10504 -0.108125 0
M  V30 618 H 61.2701 -5.35882 2.03724 0
M  V30 619 H 59.6671 -5.29406 2.82577 0
M  V30 620 H 60.7371 -3.88272 2.9047 0
M  V30 621 N 62.0802 -0.821533 -1.34494 0
M  V30 622 C 63.3272 -0.408946 -1.98328 0
M  V30 623 C 63.6552 1.02764 -1.65136 0
M  V30 624 O 62.9102 1.73026 -0.914349 0
M  V30 625 C 63.2092 -0.556512 -3.53041 0
M  V30 626 C 62.8752 -1.95861 -4.0614 0
M  V30 627 C 61.5372 -2.34217 -4.20352 0
M  V30 628 C 63.8892 -2.87523 -4.34718 0
M  V30 629 C 61.2172 -3.63572 -4.6047 0
M  V30 630 C 63.5692 -4.1634 -4.76281 0
M  V30 631 C 62.2332 -4.54675 -4.88699 0
M  V30 632 H 61.5032 -0.149644 -0.725732 0
M  V30 633 H 64.1502 -1.04521 -1.6046 0
M  V30 634 H 62.4552 0.163148 -3.9146 0
M  V30 635 H 64.1522 -0.217826 -4.00408 0
M  V30 636 H 60.7422 -1.65066 -3.95539 0
M  V30 637 H 64.9262 -2.59133 -4.23277 0
M  V30 638 H 60.1822 -3.93101 -4.68275 0
M  V30 639 H 64.3562 -4.87455 -4.97354 0
M  V30 640 H 61.9832 -5.54959 -5.19542 0
M  V30 641 N 63.5583 1.46682 -0.576371 0
M  V30 642 C 64.8353 1.95599 0.00703437 0
M  V30 643 C 65.2153 1.51904 1.46589 0
M  V30 644 O 64.5633 0.766755 2.15251 0
M  V30 645 C 64.7733 3.4864 -0.158404 0
M  V30 646 C 66.1213 4.24594 -0.0229439 0
M  V30 647 O 67.1453 3.56094 -0.0869173 0
M  V30 648 O 66.0043 5.46373 0.118015 0
M  V30 649 H 63.0983 0.825275 0.053384 0
M  V30 650 H 65.6443 1.56996 -0.644244 0
M  V30 651 H 64.4163 3.7331 -1.17282 0
M  V30 652 H 64.0393 3.94057 0.5296 0
M  V30 653 N 65.0364 0.313813 1.54444 0
M  V30 654 C 65.9464 -0.565714 2.27677 0
M  V30 655 C 66.9624 -1.13754 1.31666 0
M  V30 656 O 68.1384 -1.15959 1.64668 0
M  V30 657 C 65.2034 -1.71528 3.01296 0
M  V30 658 C 64.2644 -1.17624 4.12872 0
M  V30 659 C 63.4974 -2.27102 4.8297 0
M  V30 660 O 63.7204 -3.47256 4.52514 0
M  V30 661 O 62.6544 -1.9307 5.70094 0
M  V30 662 H 66.4804 0.0287296 3.03686 0
M  V30 663 H 64.0654 0.0798312 1.49187 0
M  V30 664 H 65.9474 -2.38476 3.4743 0
M  V30 665 H 64.6224 -2.29608 2.2817 0
M  V30 666 H 63.5294 -0.472124 3.71109 0
M  V30 667 H 64.8624 -0.640695 4.88012 0
M  V30 668 N 66.5145 -1.57545 0.0417849 0
M  V30 669 C 67.7605 -1.92601 -0.635021 0
M  V30 670 C 68.0935 -0.919627 -1.71045 0
M  V30 671 O 67.3685 0.0557892 -1.9442 0
M  V30 672 C 67.6515 -3.38085 -1.23979 0
M  V30 673 C 67.5045 -4.49467 -0.173057 0
M  V30 674 C 68.8235 -3.83776 -2.15416 0
M  V30 675 H 65.9425 -0.700397 -0.229374 0
M  V30 676 H 68.5845 -1.89728 0.101633 0
M  V30 677 H 66.7345 -3.40664 -1.86762 0
M  V30 678 H 68.4065 -4.59018 0.458312 0
M  V30 679 H 66.6495 -4.30909 0.499996 0
M  V30 680 H 67.3205 -5.48323 -0.636054 0
M  V30 681 H 69.7965 -3.83013 -1.62605 0
M  V30 682 H 68.6725 -4.8624 -2.54679 0
M  V30 683 H 68.9335 -3.19998 -3.05047 0
M  V30 684 N 67.9926 0.231505 -1.5589 0
M  V30 685 C 68.9026 1.308 -1.94752 0
M  V30 686 C 69.9186 1.51826 -0.849989 0
M  V30 687 O 71.0946 1.6515 -1.15271 0
M  V30 688 C 68.1596 2.63968 -2.24771 0
M  V30 689 C 67.2206 2.51331 -3.48039 0
M  V30 690 C 66.4536 3.78148 -3.76616 0
M  V30 691 O 66.6766 4.80722 -3.07022 0
M  V30 692 O 65.6106 3.75857 -4.70123 0
M  V30 693 H 69.4366 1.0083 -2.86474 0
M  V30 694 H 67.0216 0.433547 -1.42971 0
M  V30 695 H 68.9036 3.42633 -2.45318 0
M  V30 696 H 67.5786 2.9364 -1.36225 0
M  V30 697 H 66.4856 1.709 -3.32782 0
M  V30 698 H 67.8186 2.26601 -4.36936 0
M  V30 699 N 69.4707 1.49531 0.497807 0
M  V30 700 C 70.7187 1.58865 1.24926 0
M  V30 701 C 71.0397 0.278721 1.92998 0
M  V30 702 O 70.3097 -0.702144 1.82885 0
M  V30 703 H 68.8897 0.585343 0.464094 0
M  V30 704 H 71.5517 1.86174 0.57666 0
M  V30 705 H 70.6477 2.38633 2.01149 0
M  V30 706 N 70.9488 -0.749086 1.3866 0
M  V30 707 C 72.1978 -1.50371 1.3443 0
M  V30 708 C 72.5108 -1.95503 -0.0616397 0
M  V30 709 O 73.7168 -2.70554 -0.226489 0
M  V30 710 C 72.1728 -2.71644 2.36088 0
M  V30 711 C 71.7808 -2.3352 3.82325 0
M  V30 712 C 73.5248 -3.49518 2.40909 0
M  V30 713 C 71.4318 -3.51431 4.75658 0
M  V30 714 H 70.3618 -0.564628 0.499712 0
M  V30 715 H 73.0128 -0.818449 1.64237 0
M  V30 716 H 71.3948 -3.42175 1.9933 0
M  V30 717 H 72.5688 -1.70627 4.28046 0
M  V30 718 H 70.8838 -1.6877 3.80665 0
M  V30 719 H 73.4808 -4.37197 3.07836 0
M  V30 720 H 73.8238 -3.90992 1.42937 0
M  V30 721 H 74.3568 -2.86005 2.76489 0
M  V30 722 H 71.0958 -3.15019 5.74842 0
M  V30 723 H 70.6158 -4.13352 4.34627 0
M  V30 724 H 72.2948 -4.17953 4.93887 0
M  V30 725 N 72.4269 -1.23603 -0.977757 0
M  V30 726 C 73.7039 -0.977897 -1.69401 0
M  V30 727 C 74.0839 0.502738 -2.05026 0
M  V30 728 O 73.4319 1.47459 -1.74551 0
M  V30 729 C 73.6419 -1.89077 -2.93345 0
M  V30 730 C 74.9899 -2.15579 -3.65802 0
M  V30 731 O 76.0139 -1.86648 -3.03383 0
M  V30 732 O 74.8729 -2.64658 -4.78141 0
M  V30 733 H 71.9669 -0.369025 -0.740101 0
M  V30 734 H 74.5129 -1.34657 -1.03274 0
M  V30 735 H 73.2849 -2.89158 -2.63634 0
M  V30 736 H 72.9079 -1.52463 -3.67207 0
M  V30 737 N 73.905 1.17692 -1.04816 0
M  V30 738 C 75.152 1.87859 -0.75599 0
M  V30 739 C 75.48 1.80812 0.716752 0
M  V30 740 O 74.735 1.20819 1.53952 0
M  V30 741 C 75.034 3.37462 -1.17703 0
M  V30 742 C 74.7 3.64713 -2.65133 0
M  V30 743 C 73.362 3.71859 -3.05408 0
M  V30 744 C 75.714 3.76492 -3.60421 0
M  V30 745 C 73.042 3.88271 -4.39843 0
M  V30 746 C 75.394 3.94421 -4.94585 0
M  V30 747 C 74.058 3.99806 -5.3452 0
M  V30 748 H 73.328 0.687425 -0.276636 0
M  V30 749 H 75.975 1.39255 -1.31455 0
M  V30 750 H 74.28 3.88097 -0.537395 0
M  V30 751 H 75.977 3.90109 -0.928218 0
M  V30 752 H 72.567 3.59772 -2.32942 0
M  V30 753 H 76.751 3.70295 -3.30447 0
M  V30 754 H 72.007 3.90687 -4.70291 0
M  V30 755 H 76.181 4.02477 -5.68318 0
M  V30 756 H 73.808 4.12276 -6.38696 0
M  V30 757 N 75.3831 0.828654 1.34056 0
M  V30 758 C 76.6291 0.42008 1.98402 0
M  V30 759 C 76.9621 -1.01564 1.65525 0
M  V30 760 O 76.2371 -1.70834 0.929831 0
M  V30 761 C 76.5201 0.62927 3.54559 0
M  V30 762 C 76.3731 2.11152 3.97159 0
M  V30 763 C 77.6921 0.0688756 4.40046 0
M  V30 764 H 74.8111 0.154104 0.720709 0
M  V30 765 H 77.4531 1.04228 1.5886 0
M  V30 766 H 75.6031 0.0996418 3.88372 0
M  V30 767 H 77.2751 2.70522 3.73651 0
M  V30 768 H 75.5181 2.59985 3.47261 0
M  V30 769 H 76.1891 2.20868 5.05887 0
M  V30 770 H 78.6651 0.521458 4.1282 0
M  V30 771 H 77.5411 0.245006 5.48353 0
M  V30 772 H 77.8021 -1.0266 4.30015 0
M  V30 773 N 76.8612 -1.46375 0.584142 0
M  V30 774 C 77.7912 -2.33103 -0.136037 0
M  V30 775 C 78.7722 -1.45431 -0.882255 0
M  V30 776 O 79.9572 -1.74246 -0.857434 0
M  V30 777 C 77.0872 -3.27731 -1.14933 0
M  V30 778 C 76.0412 -4.24855 -0.517862 0
M  V30 779 C 75.3672 -5.09001 -1.63773 0
M  V30 780 C 76.6672 -5.19439 0.545886 0
M  V30 781 H 78.3612 -2.93568 0.588086 0
M  V30 782 H 75.9072 -1.41166 0.284259 0
M  V30 783 H 77.8602 -3.87261 -1.66153 0
M  V30 784 H 76.5842 -2.65377 -1.90375 0
M  V30 785 H 75.2432 -3.6659 -0.0267361 0
M  V30 786 H 74.8912 -4.43031 -2.38185 0
M  V30 787 H 74.5912 -5.74777 -1.22085 0
M  V30 788 H 76.1152 -5.71396 -2.15266 0
M  V30 789 H 77.5292 -5.73177 0.118704 0
M  V30 790 H 75.9262 -5.93566 0.88317 0
M  V30 791 H 76.9962 -4.63285 1.43162 0
M  V30 792 N 78.3393 -0.321999 -1.54275 0
M  V30 793 C 79.5673 0.283052 -2.04955 0
M  V30 794 C 79.9823 1.45904 -1.19823 0
M  V30 795 O 79.3393 1.81063 -0.228545 0
M  V30 796 C 79.3903 0.719028 -3.54277 0
M  V30 797 O 79.1113 -0.410175 -4.36176 0
M  V30 798 C 80.6123 1.38705 -4.21041 0
M  V30 799 H 77.8323 0.0584616 -0.668448 0
M  V30 800 H 80.3763 -0.467734 -1.99079 0
M  V30 801 H 78.5313 1.41979 -3.60445 0
M  V30 802 H 78.9453 -0.0669416 -5.24457 0
M  V30 803 H 80.4193 1.64306 -5.2698 0
M  V30 804 H 80.8963 2.33385 -3.72059 0
M  V30 805 H 81.5023 0.728906 -4.19007 0
M  V30 806 N 79.8174 1.5752 -0.0501392 0
M  V30 807 C 81.2334 1.56631 0.306402 0
M  V30 808 C 81.4334 1.0577 1.71508 0
M  V30 809 O 80.4894 0.713837 2.422 0
M  V30 810 C 81.8024 3.00393 0.135811 0
M  V30 811 C 83.3504 3.12315 0.206993 0
M  V30 812 C 83.8254 4.57954 0.064944 0
M  V30 813 N 85.3164 4.63041 0.121254 0
M  V30 814 C 86.0514 5.73389 0.0354381 0
M  V30 815 N 85.5474 6.92724 -0.102666 0
M  V30 816 N 87.3404 5.62026 0.090946 0
M  V30 817 H 79.4914 1.88903 -0.971046 0
M  V30 818 H 81.7544 0.869876 -0.376855 0
M  V30 819 H 81.4604 3.41635 -0.835384 0
M  V30 820 H 81.3344 3.66373 0.897275 0
M  V30 821 H 83.7214 2.70973 1.16866 0
M  V30 822 H 83.8024 2.49016 -0.585208 0
M  V30 823 H 83.4464 4.99981 -0.893394 0
M  V30 824 H 83.3764 5.19258 0.876277 0
M  V30 825 H 85.8674 3.77216 0.227284 0
M  V30 826 H 86.1804 7.72633 -0.160882 0
M  V30 827 H 84.5254 6.94864 -0.137737 0
M  V30 828 H 87.7164 4.67684 0.197388 0
M  V30 829 H 87.8894 6.47997 0.0206089 0
M  V30 830 N 81.2955 -0.223234 1.56011 0
M  V30 831 C 82.2455 -1.28008 1.88674 0
M  V30 832 C 83.2295 -1.42369 0.749663 0
M  V30 833 O 84.4215 -1.45212 1.01205 0
M  V30 834 C 81.5505 -2.63084 2.20548 0
M  V30 835 C 80.6365 -2.52632 3.40643 0
M  V30 836 N 81.0275 -2.11829 4.59306 0
M  V30 837 C 79.3255 -2.83594 3.44224 0
M  V30 838 C 80.0265 -2.12587 5.41463 0
M  V30 839 N 79.0025 -2.5301 4.81131 0
M  V30 840 H 82.8045 -0.955487 2.77935 0
M  V30 841 H 80.3185 -0.431801 1.56554 0
M  V30 842 H 82.3155 -3.39385 2.42122 0
M  V30 843 H 80.9755 -2.96391 1.32599 0
M  V30 844 H 81.9865 -1.82988 4.84496 0
M  V30 845 H 78.6635 -3.21284 2.66614 0
M  V30 846 H 80.0535 -1.83179 6.46448 0
M  V30 847 N 82.7736 -1.49793 -0.48987 0
M  V30 848 C 83.6836 -1.70036 -1.61632 0
M  V30 849 C 84.6996 -0.583102 -1.63939 0
M  V30 850 O 85.8756 -0.859169 -1.82154 0
M  V30 851 C 82.9406 -1.77277 -2.97949 0
M  V30 852 C 82.0016 -3.00918 -3.06181 0
M  V30 853 C 81.2346 -3.07804 -4.35996 0
M  V30 854 O 81.4576 -2.21982 -5.25433 0
M  V30 855 O 80.3916 -4.00369 -4.49431 0
M  V30 856 H 84.2176 -2.65486 -1.47482 0
M  V30 857 H 81.8026 -1.33666 -0.667362 0
M  V30 858 H 83.6846 -1.84329 -3.78947 0
M  V30 859 H 82.3596 -0.850076 -3.12339 0
M  V30 860 H 81.2666 -2.99377 -2.2433 0
M  V30 861 H 82.5996 -3.92704 -2.96723 0
M  V30 862 N 84.2517 0.741722 -1.39055 0
M  V30 863 C 85.4987 1.50114 -1.35912 0
M  V30 864 C 85.8267 1.94443 0.0470937 0
M  V30 865 O 85.0817 1.66612 1.02659 0
M  V30 866 C 85.3807 2.7592 -2.27163 0
M  V30 867 C 85.0467 2.50493 -3.74919 0
M  V30 868 C 83.7087 2.43267 -4.1518 0
M  V30 869 C 86.0607 2.28585 -4.684 0
M  V30 870 C 83.3887 2.12166 -5.46994 0
M  V30 871 C 85.7407 1.99002 -6.00484 0
M  V30 872 C 84.4047 1.90241 -6.39816 0
M  V30 873 H 83.6747 0.549306 -0.497336 0
M  V30 874 H 86.3217 0.851896 -1.71508 0
M  V30 875 H 84.6267 3.45553 -1.84663 0
M  V30 876 H 86.3237 3.33923 -2.22028 0
M  V30 877 H 82.9137 2.56992 -3.43006 0
M  V30 878 H 87.0977 2.33139 -4.38132 0
M  V30 879 H 82.3537 2.03901 -5.76398 0
M  V30 880 H 86.5277 1.81057 -6.72452 0
M  V30 881 H 84.1547 1.65907 -7.41875 0
M  V30 882 N 85.7298 1.2412 0.971189 0
M  V30 883 C 86.9578 1.10575 1.74874 0
M  V30 884 C 87.3728 -0.342017 1.85676 0
M  V30 885 O 86.7298 -1.23617 1.34258 0
M  V30 886 C 86.7808 1.73579 3.171 0
M  V30 887 O 86.5018 3.12695 3.06844 0
M  V30 888 C 88.0028 1.65598 4.11208 0
M  V30 889 H 85.2228 0.386504 0.548503 0
M  V30 890 H 87.7668 1.64156 1.21955 0
M  V30 891 H 85.9218 1.24009 3.67016 0
M  V30 892 H 86.3358 3.43412 3.96445 0
M  V30 893 H 87.8098 2.1437 5.08674 0
M  V30 894 H 88.2868 0.616532 4.34851 0
M  V30 895 H 88.8928 2.14578 3.67201 0
M  V30 896 N 87.2079 -1.17134 1.05439 0
M  V30 897 C 88.1709 -2.19439 0.661764 0
M  V30 898 C 89.1709 -1.58199 -0.288042 0
M  V30 899 O 90.3609 -1.74053 -0.0715803 0
M  V30 900 C 87.4929 -3.40889 -0.0276209 0
M  V30 901 H 88.6859 -2.55688 1.56728 0
M  V30 902 H 86.2389 -1.31259 0.848567 0
M  V30 903 H 86.9739 -3.10187 -0.94629 0
M  V30 904 H 86.7589 -3.86586 0.655238 0
M  V30 905 H 88.2489 -4.16603 -0.288342 0
M  V30 906 N 88.686 -0.835752 -1.33615 0
M  V30 907 C 89.934 -0.429109 -1.97492 0
M  V30 908 C 90.255 1.01433 -1.66543 0
M  V30 909 O 89.525 1.70611 -0.962744 0
M  V30 910 H 88.105 -0.155686 -0.730596 0
M  V30 911 H 90.767 -1.06802 -1.63031 0
M  V30 912 H 89.863 -0.55861 -3.0706 0
M  V30 913 N 90.1641 1.46063 -0.591896 0
M  V30 914 C 91.4101 2.02638 -0.0811191 0
M  V30 915 C 91.7431 1.4613 1.27905 0
M  V30 916 O 91.0181 0.629908 1.84017 0
M  V30 917 C 91.3011 3.60091 -0.0252436 0
M  V30 918 C 91.1541 4.26965 -1.41496 0
M  V30 919 C 92.4731 4.3496 0.670685 0
M  V30 920 H 89.5921 0.73635 -0.0309524 0
M  V30 921 H 92.2341 1.741 -0.760859 0
M  V30 922 H 90.3841 3.84535 0.553624 0
M  V30 923 H 92.0561 4.13756 -2.0397 0
M  V30 924 H 90.2991 3.85971 -1.98011 0
M  V30 925 H 90.9701 5.35781 -1.32825 0
M  V30 926 H 93.4461 4.15716 0.178825 0
M  V30 927 H 92.3221 5.44686 0.678837 0
M  V30 928 H 92.5831 4.06685 1.73379 0
M  V30 929 N 91.6422 0.330177 1.54103 0
M  V30 930 C 92.6052 -0.520144 2.2322 0
M  V30 931 C 93.6052 -1.03828 1.22786 0
M  V30 932 O 94.7952 -0.929652 1.4732 0
M  V30 933 C 91.9272 -1.72317 2.94142 0
M  V30 934 H 93.1202 0.0841605 2.99782 0
M  V30 935 H 90.6732 0.0813433 1.56088 0
M  V30 936 H 91.4082 -2.36653 2.21734 0
M  V30 937 H 91.1932 -1.35898 3.67796 0
M  V30 938 H 92.6832 -2.3266 3.46784 0
M  V30 939 N 93.1203 -1.57491 0.0584922 0
M  V30 940 C 94.0833 -2.1085 -0.898617 0
M  V30 941 C 95.0833 -1.02964 -1.23511 0
M  V30 942 O 96.2733 -1.29007 -1.17059 0
M  V30 943 C 93.4053 -2.59881 -2.20623 0
M  V30 944 H 94.5983 -2.96715 -0.435936 0
M  V30 945 H 92.1513 -1.55141 -0.190023 0
M  V30 946 H 92.8863 -1.77431 -2.71457 0
M  V30 947 H 92.6713 -3.38727 -1.97501 0
M  V30 948 H 94.1613 -3.01285 -2.89166 0
M  V30 949 N 94.5984 0.214957 -1.56127 0
M  V30 950 C 95.8754 0.963093 -1.70247 0
M  V30 951 C 96.2554 2.02166 -0.60764 0
M  V30 952 O 95.6034 2.25244 0.384385 0
M  V30 953 C 95.8134 1.56756 -3.11815 0
M  V30 954 C 97.1614 2.0573 -3.7143 0
M  V30 955 O 98.1854 1.66637 -3.14818 0
M  V30 956 O 97.0444 2.77603 -4.70743 0
M  V30 957 H 94.1384 0.450321 -0.693643 0
M  V30 958 H 96.6844 0.206219 -1.68442 0
M  V30 959 H 95.4564 0.803533 -3.82961 0
M  V30 960 H 95.0794 2.3898 -3.17765 0
M  V30 961 N 96.0765 1.50051 0.48192 0
M  V30 962 C 97.3225 1.60736 1.2366 0
M  V30 963 C 97.6555 0.301786 1.91841 0
M  V30 964 O 96.9305 -0.696025 1.8162 0
M  V30 965 C 97.2135 2.78009 2.28874 0
M  V30 966 C 97.0665 4.18416 1.65069 0
M  V30 967 C 98.3855 2.90867 3.30279 0
M  V30 968 H 95.5045 0.585031 0.448228 0
M  V30 969 H 98.1465 1.82402 0.531946 0
M  V30 970 H 96.2965 2.59667 2.88973 0
M  V30 971 H 97.9685 4.48322 1.0865 0
M  V30 972 H 96.2115 4.23177 0.954148 0
M  V30 973 H 96.8825 4.96381 2.41474 0
M  V30 974 H 99.3585 3.07623 2.80191 0
M  V30 975 H 98.2345 3.74566 4.01238 0
M  V30 976 H 98.4955 2.01021 3.93755 0
M  V30 977 N 97.5546 -0.734337 1.39446 0
M  V30 978 C 98.4846 -1.86155 1.40955 0
M  V30 979 C 99.4656 -1.67898 0.272827 0
M  V30 980 O 100.651 -1.88207 0.478743 0
M  V30 981 C 97.7806 -3.23912 1.25294 0
M  V30 982 C 96.7346 -3.56808 2.36373 0
M  V30 983 C 96.0606 -4.93508 2.058 0
M  V30 984 C 97.3606 -3.59713 3.78687 0
M  V30 985 H 99.0546 -1.8515 2.35287 0
M  V30 986 H 96.6006 -0.889367 1.13253 0
M  V30 987 H 98.5536 -4.02443 1.2497 0
M  V30 988 H 97.2776 -3.25446 0.274308 0
M  V30 989 H 95.9366 -2.80606 2.35914 0
M  V30 990 H 95.5846 -4.91623 1.06374 0
M  V30 991 H 95.2846 -5.16486 2.80208 0
M  V30 992 H 96.8086 -5.74396 2.07128 0
M  V30 993 H 98.2226 -4.2832 3.81071 0
M  V30 994 H 96.6196 -3.94209 4.52459 0
M  V30 995 H 97.6896 -2.59504 4.09617 0
M  V30 996 N 99.0327 -1.24633 -0.964593 0
M  V30 997 C 99.9957 -1.0424 -2.04124 0
M  V30 998 C 100.996 0.00137563 -1.608 0
M  V30 999 O 102.186 -0.239883 -1.7254 0
M  V30 1000 C 99.3177 -0.580588 -3.3592 0
M  V30 1001 H 100.511 -1.99803 -2.23649 0
M  V30 1002 H 98.0637 -1.06899 -1.14027 0
M  V30 1003 H 98.7987 0.3781 -3.22088 0
M  V30 1004 H 98.5837 -1.33398 -3.6871 0
M  V30 1005 H 100.074 -0.459034 -4.15069 0
M  V30 1006 N 100.511 1.16574 -1.06058 0
M  V30 1007 C 101.927 1.3904 -0.783585 0
M  V30 1008 C 102.127 1.91784 0.618145 0
M  V30 1009 O 101.183 2.11511 1.37911 0
M  V30 1010 C 102.496 2.37329 -1.84649 0
M  V30 1011 C 104.044 2.51018 -1.86973 0
M  V30 1012 C 104.519 3.52588 -2.92311 0
M  V30 1013 N 106.01 3.60113 -2.91329 0
M  V30 1014 C 106.745 4.38486 -3.69482 0
M  V30 1015 N 106.241 5.20302 -4.57447 0
M  V30 1016 N 108.034 4.33446 -3.57885 0
M  V30 1017 H 100.185 0.806725 -1.96483 0
M  V30 1018 H 102.448 0.417117 -0.851303 0
M  V30 1019 H 102.154 2.05663 -2.85299 0
M  V30 1020 H 102.028 3.36946 -1.6955 0
M  V30 1021 H 104.415 2.81989 -0.869827 0
M  V30 1022 H 104.496 1.51445 -2.0615 0
M  V30 1023 H 104.14 3.22354 -3.92492 0
M  V30 1024 H 104.07 4.51886 -2.70383 0
M  V30 1025 H 106.561 3.01707 -2.27555 0
M  V30 1026 H 106.874 5.77311 -5.13743 0
M  V30 1027 H 105.219 5.19653 -4.61503 0
M  V30 1028 H 108.41 3.68586 -2.88551 0
M  V30 1029 H 108.583 4.94279 -4.19037 0
M  V30 1030 N 101.989 0.842826 1.3317 0
M  V30 1031 C 103.238 0.436738 1.96915 0
M  V30 1032 C 103.551 -1.01025 1.67491 0
M  V30 1033 O 104.757 -1.5212 2.24881 0
M  V30 1034 C 103.213 0.730021 3.52418 0
M  V30 1035 C 102.821 2.19195 3.90714 0
M  V30 1036 C 104.565 0.391076 4.22695 0
M  V30 1037 C 102.472 2.42907 5.39212 0
M  V30 1038 H 101.402 0.15958 0.736919 0
M  V30 1039 H 104.053 1.03196 1.51733 0
M  V30 1040 H 102.435 0.0643755 3.95948 0
M  V30 1041 H 103.609 2.8984 3.58231 0
M  V30 1042 H 101.924 2.49425 3.33431 0
M  V30 1043 H 104.521 0.545817 5.31907 0
M  V30 1044 H 104.864 -0.666294 4.10933 0
M  V30 1045 H 105.397 1.01212 3.84709 0
M  V30 1046 H 102.136 3.47224 5.55982 0
M  V30 1047 H 101.656 1.76827 5.73142 0
M  V30 1048 H 103.335 2.2626 6.06148 0
M  V30 1049 N 103.467 -1.45747 0.599634 0
M  V30 1050 C 104.695 -2.06668 0.0978551 0
M  V30 1051 C 105.11 -1.44562 -1.21439 0
M  V30 1052 O 104.467 -0.556923 -1.73795 0
M  V30 1053 C 104.518 -3.61456 -0.0567044 0
M  V30 1054 O 104.239 -4.21242 1.20361 0
M  V30 1055 C 105.74 -4.39345 -0.590869 0
M  V30 1056 H 102.96 -0.667825 0.0651943 0
M  V30 1057 H 105.504 -1.87115 0.82511 0
M  V30 1058 H 103.659 -3.80378 -0.734251 0
M  V30 1059 H 104.073 -5.14323 1.02821 0
M  V30 1060 H 105.547 -5.48182 -0.648131 0
M  V30 1061 H 106.024 -4.08568 -1.61147 0
M  V30 1062 H 106.63 -4.25268 0.0523679 0
M  V30 1063 N 104.945 -0.338344 -1.53925 0
M  V30 1064 C 106.193 0.259245 -2.0043 0
M  V30 1065 C 106.514 1.51484 -1.22791 0
M  V30 1066 O 105.784 1.93037 -0.33368 0
M  V30 1067 H 104.364 0.0987845 -0.740439 0
M  V30 1068 H 107.026 -0.458302 -1.89435 0
M  V30 1069 H 106.122 0.505334 -3.07982 0
M  V30 1070 N 106.423 1.57458 -0.0668435 0
M  V30 1071 C 107.839 1.56947 0.289772 0
M  V30 1072 C 108.039 1.07584 1.70376 0
M  V30 1073 O 107.095 0.739486 2.41429 0
M  V30 1074 C 108.408 3.0052 0.103943 0
M  V30 1075 C 109.956 3.12517 0.173857 0
M  V30 1076 C 110.431 4.57997 0.0163682 0
M  V30 1077 N 111.922 4.63144 0.0721352 0
M  V30 1078 C 112.657 5.73394 -0.0253794 0
M  V30 1079 N 112.153 6.92576 -0.176133 0
M  V30 1080 N 113.946 5.62091 0.0313305 0
M  V30 1081 H 106.097 1.87863 -0.991027 0
M  V30 1082 H 108.36 0.86583 -0.38606 0
M  V30 1083 H 108.066 3.40729 -0.871572 0
M  V30 1084 H 107.94 3.67304 0.858366 0
M  V30 1085 H 110.327 2.72197 1.13985 0
M  V30 1086 H 110.408 2.48381 -0.611586 0
M  V30 1087 H 110.052 4.99005 -0.946374 0
M  V30 1088 H 109.982 5.20158 0.821153 0
M  V30 1089 H 112.473 3.77436 0.187263 0
M  V30 1090 H 112.786 7.72418 -0.242821 0
M  V30 1091 H 111.131 6.94678 -0.211429 0
M  V30 1092 H 114.322 4.67867 0.147773 0
M  V30 1093 H 114.495 6.47982 -0.048121 0
M  V30 1094 N 107.901 -0.206675 1.56239 0
M  V30 1095 C 109.312 -0.772383 1.69974 0
M  V30 1096 C 109.663 -1.84353 0.671436 0
M  V30 1097 O 108.788 -2.15695 -0.174491 0
M  V30 1098 C 109.383 -1.40779 3.08167 0
M  V30 1099 C 107.942 -1.92072 3.23706 0
M  V30 1100 C 107.089 -0.786347 2.65917 0
M  V30 1101 H 110.04 0.0182223 1.5869 0
M  V30 1102 H 110.061 -2.27696 3.04852 0
M  V30 1103 H 109.573 -0.627958 3.82986 0
M  V30 1104 H 107.674 -2.7281 2.53782 0
M  V30 1105 H 107.787 -2.09046 4.31087 0
M  V30 1106 H 106.151 -1.1976 2.24788 0
M  V30 1107 H 106.934 -0.0189416 3.43295 0
M  V30 1108 N 109.379 -1.50304 -0.473955 0
M  V30 1109 C 110.311 -1.65109 -1.58971 0
M  V30 1110 C 111.324 -0.532676 -1.53839 0
M  V30 1111 O 112.513 -0.805751 -1.59279 0
M  V30 1112 C 109.613 -1.61684 -2.97845 0
M  V30 1113 C 108.786 -2.8951 -3.27876 0
M  V30 1114 C 107.845 -2.78768 -4.4629 0
M  V30 1115 O 106.871 -3.52722 -4.46739 0
M  V30 1116 N 108.073 -1.9213 -5.47783 0
M  V30 1117 H 110.838 -2.61347 -1.46689 0
M  V30 1118 H 108.399 -1.47732 -0.662324 0
M  V30 1119 H 110.391 -1.52114 -3.75024 0
M  V30 1120 H 108.961 -0.731925 -3.03911 0
M  V30 1121 H 108.181 -3.13228 -2.39336 0
M  V30 1122 H 109.469 -3.74199 -3.4475 0
M  V30 1123 H 108.867 -1.31353 -5.50239 0
M  V30 1124 H 107.424 -1.88466 -6.23958 0
M  V30 1125 N 110.857 0.726932 -1.39834 0
M  V30 1126 C 111.82 1.82269 -1.38962 0
M  V30 1127 C 112.82 1.58248 -0.285334 0
M  V30 1128 O 114.01 1.65499 -0.54366 0
M  V30 1129 C 111.142 3.20186 -1.17019 0
M  V30 1130 H 112.335 1.84443 -2.36476 0
M  V30 1131 H 109.888 0.931416 -1.25516 0
M  V30 1132 H 110.623 3.23669 -0.202204 0
M  V30 1133 H 110.408 3.3902 -1.96998 0
M  V30 1134 H 111.898 4.00235 -1.1917 0
M  V30 1135 N 112.336 1.25143 0.95797 0
M  V30 1136 C 113.576 1.10893 1.71703 0
M  V30 1137 C 113.94 -0.34478 1.88879 0
M  V30 1138 O 115.141 -0.609014 2.6181 0
M  V30 1139 C 113.412 1.83889 3.06463 0
M  V30 1140 S 114.971 1.85491 3.97666 0
M  V30 1141 H 111.789 0.396428 0.590226 0
M  V30 1142 H 114.391 1.58618 1.14283 0
M  V30 1143 H 113.095 2.88756 2.9163 0
M  V30 1144 H 112.626 1.36538 3.68946 0
M  V30 1145 H 114.641 0.929553 4.87415 0
M  V30 1146 N 113.814 -1.1601 1.06675 0
M  V30 1147 C 115.06 -1.87145 0.796766 0
M  V30 1148 C 115.415 -1.8037 -0.669658 0
M  V30 1149 O 114.708 -1.21116 -1.48463 0
M  V30 1150 C 114.902 -3.35547 1.23057 0
M  V30 1151 C 114.731 -3.56769 2.73762 0
M  V30 1152 C 113.501 -3.72635 3.41279 0
M  V30 1153 C 115.699 -3.55166 3.7197 0
M  V30 1154 N 113.681 -3.81845 4.80695 0
M  V30 1155 C 115.052 -3.70406 4.97191 0
M  V30 1156 C 117.107 -3.384 3.65226 0
M  V30 1157 C 115.81 -3.70615 6.16471 0
M  V30 1158 C 117.836 -3.39904 4.83962 0
M  V30 1159 C 117.198 -3.55667 6.08013 0
M  V30 1160 H 113.297 -0.702267 0.344014 0
M  V30 1161 H 115.881 -1.39165 1.36166 0
M  V30 1162 H 114.052 -3.82159 0.693456 0
M  V30 1163 H 115.784 -3.94363 0.908844 0
M  V30 1164 H 112.539 -3.73121 2.91681 0
M  V30 1165 H 112.963 -3.90209 5.53232 0
M  V30 1166 H 117.605 -3.25138 2.70269 0
M  V30 1167 H 115.323 -3.82658 7.11757 0
M  V30 1168 H 118.909 -3.28169 4.80413 0
M  V30 1169 H 117.789 -3.56755 6.98352 0
M  V30 1170 N 115.292 -0.849877 -1.32721 0
M  V30 1171 C 116.255 -0.296122 -2.27279 0
M  V30 1172 C 117.255 0.541458 -1.5141 0
M  V30 1173 O 118.445 0.353658 -1.70572 0
M  V30 1174 C 115.577 0.581579 -3.35902 0
M  V30 1175 H 116.77 -1.13064 -2.77771 0
M  V30 1176 H 114.323 -0.62383 -1.43311 0
M  V30 1177 H 115.058 1.43809 -2.9067 0
M  V30 1178 H 114.843 -0.0178814 -3.92096 0
M  V30 1179 H 116.333 0.961951 -4.0637 0
M  V30 1180 N 116.77 1.45427 -0.607355 0
M  V30 1181 C 117.998 2.06614 -0.108814 0
M  V30 1182 C 118.413 1.45204 1.2067 0
M  V30 1183 O 117.77 0.566132 1.73497 0
M  V30 1184 C 117.821 3.61481 0.0375347 0
M  V30 1185 O 117.542 4.20598 -1.22593 0
M  V30 1186 C 119.043 4.39652 0.567561 0
M  V30 1187 H 116.263 0.66747 -0.0687351 0
M  V30 1188 H 118.807 1.86675 -0.835022 0
M  V30 1189 H 116.962 3.80762 0.714068 0
M  V30 1190 H 117.376 5.1377 -1.05547 0
M  V30 1191 H 118.85 5.48518 0.61905 0
M  V30 1192 H 119.327 4.09417 1.58978 0
M  V30 1193 H 119.933 4.25234 -0.0749202 0
M  V30 1194 N 118.248 0.346503 1.53744 0
M  V30 1195 C 119.178 -0.501193 2.28058 0
M  V30 1196 C 120.159 -1.10014 1.29734 0
M  V30 1197 O 121.344 -1.12097 1.58581 0
M  V30 1198 C 118.474 -1.65078 3.05559 0
M  V30 1199 C 117.428 -1.18003 4.11411 0
M  V30 1200 C 116.754 -2.41837 4.76884 0
M  V30 1201 C 118.054 -0.278394 5.21558 0
M  V30 1202 H 119.748 0.11875 2.99164 0
M  V30 1203 H 117.294 0.0585531 1.43881 0
M  V30 1204 H 119.247 -2.25028 3.56287 0
M  V30 1205 H 117.971 -2.29767 2.32109 0
M  V30 1206 H 116.63 -0.603331 3.61601 0
M  V30 1207 H 116.278 -3.0494 4.00026 0
M  V30 1208 H 115.978 -2.1102 5.48402 0
M  V30 1209 H 117.502 -3.02508 5.30397 0
M  V30 1210 H 118.916 -0.784823 5.67903 0
M  V30 1211 H 117.313 -0.0619707 6.00068 0
M  V30 1212 H 118.383 0.684677 4.80042 0
M  V30 1213 N 119.726 -1.57421 0.075193 0
M  V30 1214 C 120.974 -1.93236 -0.591974 0
M  V30 1215 C 121.295 -0.956241 -1.69944 0
M  V30 1216 O 120.565 -0.00494792 -1.95899 0
M  V30 1217 H 119.145 -0.713355 -0.22166 0
M  V30 1218 H 121.807 -1.9444 0.133848 0
M  V30 1219 H 120.903 -2.95131 -1.01509 0
M  V30 1220 N 121.204 0.198386 -1.56346 0
M  V30 1221 C 122.615 0.763358 -1.70381 0
M  V30 1222 C 122.966 1.83995 -0.681203 0
M  V30 1223 O 122.091 2.15785 0.16305 0
M  V30 1224 C 122.686 1.39143 -3.08909 0
M  V30 1225 C 121.245 1.90352 -3.2472 0
M  V30 1226 C 120.392 0.772233 -2.6633 0
M  V30 1227 H 123.343 -0.0266377 -1.58678 0
M  V30 1228 H 123.364 2.26076 -3.06055 0
M  V30 1229 H 122.876 0.607638 -3.83314 0
M  V30 1230 H 120.977 2.71461 -2.55225 0
M  V30 1231 H 121.09 2.06757 -4.3219 0
M  V30 1232 H 119.454 1.18566 -2.2542 0
M  V30 1233 H 120.237 0.00073556 -3.433 0
M  V30 1234 N 122.682 1.50554 0.465978 0
M  V30 1235 C 123.93 1.61479 1.21528 0
M  V30 1236 C 124.251 0.319596 1.92363 0
M  V30 1237 O 123.521 -0.663194 1.84333 0
M  V30 1238 H 122.101 0.595055 0.451573 0
M  V30 1239 H 124.763 1.87355 0.53704 0
M  V30 1240 H 123.859 2.42846 1.96042 0
M  V30 1241 N 124.16 -0.719506 1.40217 0
M  V30 1242 C 125.093 -1.84298 1.34571 0
M  V30 1243 C 126.071 -1.61149 0.216741 0
M  V30 1244 O 127.255 -1.84212 0.399756 0
M  V30 1245 C 124.382 -3.20568 1.09335 0
M  V30 1246 C 123.428 -3.62551 2.24631 0
M  V30 1247 S 124.261 -3.7012 3.87004 0
M  V30 1248 C 125.417 -5.09154 3.64024 0
M  V30 1249 H 125.65 -1.88807 2.2965 0
M  V30 1250 H 123.183 -0.885901 1.26456 0
M  V30 1251 H 125.141 -3.99246 0.954602 0
M  V30 1252 H 123.802 -3.13696 0.159164 0
M  V30 1253 H 122.995 -4.61483 2.02606 0
M  V30 1254 H 122.597 -2.91119 2.34789 0
M  V30 1255 H 124.889 -5.95955 3.22248 0
M  V30 1256 H 125.832 -5.36213 4.62473 0
M  V30 1257 H 126.24 -4.79562 2.97793 0
M  V30 1258 N 125.638 -1.25649 -0.95132 0
M  V30 1259 C 126.866 -1.13343 -1.73092 0
M  V30 1260 C 127.281 0.312434 -1.86197 0
M  V30 1261 O 126.638 1.21465 -1.36207 0
M  V30 1262 C 126.689 -1.78602 -3.14299 0
M  V30 1263 O 126.41 -3.17537 -3.01831 0
M  V30 1264 C 127.911 -1.72119 -4.08522 0
M  V30 1265 H 125.131 -0.395181 -0.542285 0
M  V30 1266 H 127.675 -1.66076 -1.19328 0
M  V30 1267 H 125.83 -1.29832 -3.64996 0
M  V30 1268 H 126.244 -3.49676 -3.90931 0
M  V30 1269 H 127.718 -2.22435 -5.052 0
M  V30 1270 H 128.195 -0.685635 -4.33815 0
M  V30 1271 H 128.801 -2.20393 -3.63741 0
M  V30 1272 N 127.117 1.15442 -1.07289 0
M  V30 1273 C 128.065 2.22225 -0.686952 0
M  V30 1274 C 129.059 1.66688 0.30193 0
M  V30 1275 O 130.265 1.79236 0.165712 0
M  V30 1276 H 126.64 0.723783 -0.204064 0
M  V30 1277 H 128.611 2.52056 -1.5972 0
M  V30 1278 C 127.36 3.47556 -0.100149 0
M  V30 1279 H 126.683 3.90612 -0.852211 0
M  V30 1280 H 128.123 4.23794 0.132235 0
M  V30 1281 C 126.582 3.16337 1.159 0
M  V30 1282 O 127.112 3.33074 2.24555 0
M  V30 1283 N 125.318 2.70385 1.06491 0
M  V30 1284 H 124.865 2.56966 0.180668 0
M  V30 1285 H 124.823 2.49871 1.90819 0
M  V30 1286 N 128.595 0.856903 1.32268 0
M  V30 1287 C 129.525 0.31858 2.31316 0
M  V30 1288 C 130.506 -0.583487 1.59779 0
M  V30 1289 O 131.691 -0.503259 1.87566 0
M  V30 1290 C 128.821 -0.491979 3.43798 0
M  V30 1291 C 127.775 0.315849 4.26833 0
M  V30 1292 C 127.101 -0.619586 5.31098 0
M  V30 1293 C 128.401 1.54282 4.98993 0
M  V30 1294 H 130.095 1.14621 2.76591 0
M  V30 1295 H 127.641 0.552613 1.32974 0
M  V30 1296 H 129.594 -0.879012 4.1213 0
M  V30 1297 H 128.318 -1.35299 2.97257 0
M  V30 1298 H 126.977 0.684664 3.6015 0
M  V30 1299 H 126.625 -1.47751 4.8081 0
M  V30 1300 H 126.325 -0.0830621 5.87541 0
M  V30 1301 H 127.849 -1.00375 6.02293 0
M  V30 1302 H 129.263 1.22796 5.59995 0
M  V30 1303 H 127.66 2.01745 5.65172 0
M  V30 1304 H 128.73 2.30285 4.26728 0
M  V30 1305 N 130.073 -1.45103 0.615059 0
M  V30 1306 C 131.298 -2.07064 0.117988 0
M  V30 1307 C 131.723 -1.4554 -1.19163 0
M  V30 1308 O 131.081 -0.550855 -1.72729 0
M  V30 1309 C 131.129 -3.606 -0.000288387 0
M  V30 1310 O 130.233 -3.98847 -1.04856 0
M  V30 1311 H 129.574 -0.659467 0.0774581 0
M  V30 1312 H 132.104 -1.86236 0.847186 0
M  V30 1313 H 132.114 -4.07529 -0.196091 0
M  V30 1314 H 130.789 -4.04765 0.955932 0
M  V30 1315 H 129.366 -3.63577 -0.828619 0
M  V30 1316 N 131.551 -0.354651 -1.53558 0
M  V30 1317 C 132.779 0.239515 -2.05509 0
M  V30 1318 C 133.194 1.4333 -1.2289 0
M  V30 1319 O 132.551 1.80538 -0.266899 0
M  V30 1320 C 132.602 0.643719 -3.55723 0
M  V30 1321 O 132.323 -0.502602 -4.35207 0
M  V30 1322 C 133.824 1.29743 -4.23889 0
M  V30 1323 H 131.044 0.0442697 -0.669538 0
M  V30 1324 H 133.588 -0.509856 -1.98042 0
M  V30 1325 H 131.743 1.34302 -3.63376 0
M  V30 1326 H 132.157 -0.178172 -5.24197 0
M  V30 1327 H 133.631 1.53091 -5.30346 0
M  V30 1328 H 134.108 2.25441 -3.76926 0
M  V30 1329 H 134.714 0.639865 -4.20459 0
M  V30 1330 N 133.029 1.57378 -0.0835403 0
M  V30 1331 C 134.277 1.93547 0.581718 0
M  V30 1332 C 134.598 0.96524 1.69435 0
M  V30 1333 O 133.868 0.0153369 1.95894 0
M  V30 1334 H 132.448 0.714521 0.217874 0
M  V30 1335 H 135.11 1.94366 -0.144158 0
M  V30 1336 H 134.206 2.95665 0.999423 0
M  V30 1337 N 134.507 -0.190092 1.56449 0
M  V30 1338 C 135.756 -0.907912 1.80111 0
M  V30 1339 C 136.069 -1.84214 0.657619 0
M  V30 1340 O 137.275 -2.60094 0.778663 0
M  V30 1341 C 135.731 -1.66485 3.19078 0
M  V30 1342 C 135.339 -0.7752 4.41242 0
M  V30 1343 C 137.083 -2.37201 3.52045 0
M  V30 1344 C 134.99 -1.53129 5.71231 0
M  V30 1345 H 133.92 -0.34276 0.671589 0
M  V30 1346 H 136.571 -0.161109 1.82791 0
M  V30 1347 H 134.953 -2.45572 3.10661 0
M  V30 1348 H 136.127 -0.0226298 4.60794 0
M  V30 1349 H 134.442 -0.178627 4.16017 0
M  V30 1350 H 137.039 -2.94329 4.46402 0
M  V30 1351 H 137.382 -3.11632 2.76028 0
M  V30 1352 H 137.915 -1.65075 3.61932 0
M  V30 1353 H 134.654 -0.82967 6.50228 0
M  V30 1354 H 134.174 -2.25767 5.55688 0
M  V30 1355 H 135.853 -2.08377 6.12526 0
M  V30 1356 N 135.985 -1.50799 -0.457987 0
M  V30 1357 C 136.948 -1.7005 -1.53674 0
M  V30 1358 C 137.948 -0.570881 -1.50325 0
M  V30 1359 O 139.138 -0.838126 -1.52712 0
M  V30 1360 C 136.27 -1.73788 -2.93276 0
M  V30 1361 H 137.463 -2.66306 -1.37917 0
M  V30 1362 H 135.016 -1.40477 -0.685271 0
M  V30 1363 H 135.751 -0.792717 -3.14462 0
M  V30 1364 H 135.536 -2.55864 -2.97113 0
M  V30 1365 H 137.026 -1.90591 -3.71571 0
M  V30 1366 N 137.463 0.71206 -1.40597 0
M  V30 1367 C 138.691 1.50111 -1.42388 0
M  V30 1368 C 139.106 1.88784 -0.0245395 0
M  V30 1369 O 138.463 1.55681 0.952351 0
M  V30 1370 C 138.514 2.7742 -2.31776 0
M  V30 1371 O 138.235 2.40382 -3.66262 0
M  V30 1372 C 139.736 3.7129 -2.42196 0
M  V30 1373 H 136.956 0.46314 -0.485533 0
M  V30 1374 H 139.5 0.878068 -1.8469 0
M  V30 1375 H 137.655 3.36001 -1.92827 0
M  V30 1376 H 138.069 3.22324 -4.13772 0
M  V30 1377 H 139.543 4.57448 -3.08943 0
M  V30 1378 H 140.02 4.14641 -1.44809 0
M  V30 1379 H 140.626 3.18619 -2.81712 0
M  V30 1380 N 138.941 1.26152 0.944643 0
M  V30 1381 C 140.166 1.14363 1.7302 0
M  V30 1382 C 140.591 -0.29772 1.85729 0
M  V30 1383 O 139.949 -1.2157 1.34501 0
M  V30 1384 C 139.997 1.81378 3.11664 0
M  V30 1385 O 139.101 1.10022 3.97453 0
M  V30 1386 H 138.442 0.398694 0.53098 0
M  V30 1387 H 140.972 1.66906 1.18337 0
M  V30 1388 H 140.982 1.88064 3.62072 0
M  V30 1389 H 139.657 2.86237 3.0173 0
M  V30 1390 H 138.234 1.11287 3.55907 0
M  V30 1391 N 140.419 -1.14872 1.07899 0
M  V30 1392 C 141.665 -1.86064 0.806725 0
M  V30 1393 C 141.998 -1.82434 -0.665706 0
M  V30 1394 O 141.273 -1.25138 -1.48899 0
M  V30 1395 C 141.556 -3.34929 1.32267 0
M  V30 1396 C 141.409 -3.47161 2.86006 0
M  V30 1397 C 142.728 -4.29863 0.943717 0
M  V30 1398 H 139.847 -0.675591 0.294526 0
M  V30 1399 H 142.489 -1.34925 1.33773 0
M  V30 1400 H 140.639 -3.78611 0.870974 0
M  V30 1401 H 142.311 -3.12302 3.39507 0
M  V30 1402 H 140.554 -2.88539 3.23925 0
M  V30 1403 H 141.225 -4.51777 3.17177 0
M  V30 1404 H 143.701 -3.9417 1.33302 0
M  V30 1405 H 142.577 -5.32494 1.33198 0
M  V30 1406 H 142.838 -4.41846 -0.149796 0
M  V30 1407 N 141.898 -0.863906 -1.31812 0
M  V30 1408 C 142.828 -0.330843 -2.31144 0
M  V30 1409 C 143.809 0.575005 -1.60087 0
M  V30 1410 O 144.994 0.493304 -1.8783 0
M  V30 1411 C 142.124 0.47374 -3.44054 0
M  V30 1412 C 141.078 -0.338481 -4.26659 0
M  V30 1413 C 140.404 0.591412 -5.31419 0
M  V30 1414 C 141.704 -1.56926 -4.98168 0
M  V30 1415 H 143.398 -1.16086 -2.75979 0
M  V30 1416 H 140.944 -0.559657 -1.32679 0
M  V30 1417 H 142.897 0.857143 -4.12591 0
M  V30 1418 H 141.621 1.33721 -2.9797 0
M  V30 1419 H 140.28 -0.703754 -3.59782 0
M  V30 1420 H 139.928 1.45199 -4.81587 0
M  V30 1421 H 139.628 0.0519022 -5.87577 0
M  V30 1422 H 141.152 0.97179 -6.02817 0
M  V30 1423 H 142.566 -1.25764 -5.59336 0
M  V30 1424 H 140.963 -2.04739 -5.64094 0
M  V30 1425 H 142.033 -2.32544 -4.25501 0
M  V30 1426 N 143.376 1.44774 -0.622745 0
M  V30 1427 C 144.653 1.95522 -0.0551974 0
M  V30 1428 C 145.033 1.5649 1.41683 0
M  V30 1429 O 144.381 0.834848 2.12703 0
M  V30 1430 C 144.591 3.4796 -0.269242 0
M  V30 1431 C 145.939 4.24306 -0.158014 0
M  V30 1432 O 146.963 3.55637 -0.200162 0
M  V30 1433 O 145.822 5.46471 -0.0558693 0
M  V30 1434 H 142.916 0.826556 0.0271015 0
M  V30 1435 H 145.462 1.54866 -0.693864 0
M  V30 1436 H 144.234 3.6939 -1.29099 0
M  V30 1437 H 143.857 3.95543 0.403966 0
M  V30 1438 N 144.854 0.36279 1.53368 0
M  V30 1439 C 146.27 0.0116182 1.59596 0
M  V30 1440 C 146.47 -1.47012 1.37803 0
M  V30 1441 O 145.526 -2.23136 1.18181 0
M  V30 1442 C 146.839 0.465052 2.97082 0
M  V30 1443 C 148.387 0.419033 3.10182 0
M  V30 1444 C 148.862 0.848235 4.50077 0
M  V30 1445 N 150.353 0.803183 4.56183 0
M  V30 1446 C 151.088 1.107 5.62613 0
M  V30 1447 N 150.584 1.47996 6.76808 0
M  V30 1448 N 152.377 1.02998 5.52583 0
M  V30 1449 H 144.528 1.32775 1.65785 0
M  V30 1450 H 146.791 0.542518 0.777417 0
M  V30 1451 H 146.497 1.49892 3.18159 0
M  V30 1452 H 146.371 -0.149786 3.76902 0
M  V30 1453 H 148.758 -0.605696 2.88817 0
M  V30 1454 H 148.839 1.06933 2.32377 0
M  V30 1455 H 148.483 1.87107 4.7218 0
M  V30 1456 H 148.413 0.175218 5.26308 0
M  V30 1457 H 150.904 0.52838 3.74188 0
M  V30 1458 H 151.217 1.69613 7.53957 0
M  V30 1459 H 149.562 1.51859 6.78206 0
M  V30 1460 H 152.753 0.737817 4.62249 0
M  V30 1461 H 152.926 1.2701 6.35431 0
M  V30 1462 N 146.332 -1.57332 0.0918853 0
M  V30 1463 C 147.557 -1.98995 -0.584442 0
M  V30 1464 C 147.982 -0.970528 -1.61128 0
M  V30 1465 O 147.34 0.0613904 -1.81196 0
M  V30 1466 C 147.388 -3.39636 -1.21161 0
M  V30 1467 O 146.492 -3.40447 -2.32744 0
M  V30 1468 H 145.833 -0.647165 -0.148572 0
M  V30 1469 H 148.363 -2.03873 0.172347 0
M  V30 1470 H 148.373 -3.7726 -1.55367 0
M  V30 1471 H 147.048 -4.13356 -0.459313 0
M  V30 1472 H 145.625 -3.14614 -2.0018 0
M  V30 1473 N 147.81 0.181792 -1.56548 0
M  V30 1474 C 149.221 0.745244 -1.71181 0
M  V30 1475 C 149.572 1.83262 -0.70068 0
M  V30 1476 O 148.697 2.15946 0.140154 0
M  V30 1477 C 149.292 1.35859 -3.10367 0
M  V30 1478 C 147.851 1.86898 -3.2672 0
M  V30 1479 C 146.998 0.743942 -2.67134 0
M  V30 1480 H 149.949 -0.0434661 -1.5864 0
M  V30 1481 H 149.97 2.22817 -3.08436 0
M  V30 1482 H 149.482 0.566948 -3.83937 0
M  V30 1483 H 147.583 2.68738 -2.5809 0
M  V30 1484 H 147.696 2.02162 -4.34359 0
M  V30 1485 H 146.06 1.16169 -2.26665 0
M  V30 1486 H 146.843 -0.035676 -3.43281 0
M  V30 1487 N 149.288 1.51039 0.449983 0
M  V30 1488 C 150.534 1.63322 1.20223 0
M  V30 1489 C 150.867 0.34241 1.91158 0
M  V30 1490 O 150.142 -0.657344 1.83055 0
M  V30 1491 C 150.425 2.82801 2.22925 0
M  V30 1492 C 150.278 4.21823 1.56157 0
M  V30 1493 C 151.597 2.97807 3.24035 0
M  V30 1494 H 148.716 0.594407 0.435718 0
M  V30 1495 H 151.358 1.83489 0.493136 0
M  V30 1496 H 149.508 2.65738 2.834 0
M  V30 1497 H 151.18 4.50526 0.991162 0
M  V30 1498 H 149.423 4.25105 0.864172 0
M  V30 1499 H 150.094 5.01391 2.30891 0
M  V30 1500 H 152.57 3.13497 2.73603 0
M  V30 1501 H 151.446 3.82992 3.93202 0
M  V30 1502 H 151.707 2.09328 3.89402 0
M  V30 1503 N 150.766 -0.704594 1.40972 0
M  V30 1504 C 152.015 -1.46018 1.39146 0
M  V30 1505 C 152.328 -1.956 0.000589254 0
M  V30 1506 O 153.534 -2.71137 -0.1403 0
M  V30 1507 C 151.99 -2.63996 2.4461 0
M  V30 1508 C 151.598 -2.21238 3.89561 0
M  V30 1509 C 153.342 -3.41677 2.51907 0
M  V30 1510 C 151.249 -3.3612 4.86598 0
M  V30 1511 H 150.179 -0.548444 0.517422 0
M  V30 1512 H 152.83 -0.765784 1.66757 0
M  V30 1513 H 151.212 -3.3566 2.10115 0
M  V30 1514 H 152.386 -1.56923 4.33257 0
M  V30 1515 H 150.701 -1.56574 3.85841 0
M  V30 1516 H 153.298 -4.27182 3.2159 0
M  V30 1517 H 153.641 -3.86247 1.55303 0
M  V30 1518 H 154.174 -2.77064 2.85448 0
M  V30 1519 H 150.913 -2.96572 5.84573 0
M  V30 1520 H 150.433 -3.99315 4.47557 0
M  V30 1521 H 152.112 -4.02029 5.06934 0
M  V30 1522 N 152.244 -1.26651 -0.937939 0
M  V30 1523 C 153.207 -1.08546 -2.01867 0
M  V30 1524 C 154.207 -0.0327327 -1.60767 0
M  V30 1525 O 155.397 -0.276427 -1.71993 0
M  V30 1526 C 152.529 -0.651711 -3.34613 0
M  V30 1527 H 153.722 -2.04502 -2.1936 0
M  V30 1528 H 151.275 -1.09294 -1.11734 0
M  V30 1529 H 152.01 0.309696 -3.22818 0
M  V30 1530 H 151.795 -1.41189 -3.65798 0
M  V30 1531 H 153.285 -0.546973 -4.14002 0
M  V30 1532 N 153.722 1.14298 -1.08507 0
M  V30 1533 C 154.652 2.21542 -0.737646 0
M  V30 1534 C 155.633 1.67773 0.280377 0
M  V30 1535 O 156.818 1.93616 0.150521 0
M  V30 1536 C 153.948 3.46988 -0.147259 0
M  V30 1537 C 152.902 4.13789 -1.09374 0
M  V30 1538 C 152.228 5.33449 -0.365524 0
M  V30 1539 C 153.528 4.62208 -2.4323 0
M  V30 1540 H 155.222 2.5086 -1.6343 0
M  V30 1541 H 152.768 1.20576 -0.787243 0
M  V30 1542 H 154.721 4.21262 0.107808 0
M  V30 1543 H 153.445 3.17037 0.784538 0
M  V30 1544 H 152.104 3.4147 -1.33393 0
M  V30 1545 H 151.752 4.99759 0.57011 0
M  V30 1546 H 151.452 5.79088 -0.996512 0
M  V30 1547 H 152.976 6.10485 -0.118534 0
M  V30 1548 H 154.39 5.27952 -2.23472 0
M  V30 1549 H 152.787 5.18553 -3.02031 0
M  V30 1550 H 153.857 3.77224 -3.04681 0
M  V30 1551 N 155.201 0.870884 1.31352 0
M  V30 1552 C 156.164 0.332243 2.26779 0
M  V30 1553 C 157.164 -0.517302 1.52252 0
M  V30 1554 O 158.354 -0.326477 1.71113 0
M  V30 1555 C 155.486 -0.528066 3.36785 0
M  V30 1556 H 156.679 1.17469 2.75937 0
M  V30 1557 H 154.232 0.64655 1.423 0
M  V30 1558 H 154.967 -1.39167 2.92922 0
M  V30 1559 H 154.752 0.0802582 3.92018 0
M  V30 1560 H 156.242 -0.897179 4.07849 0
M  V30 1561 N 156.679 -1.44442 0.630414 0
M  V30 1562 C 157.642 -2.29107 -0.0652523 0
M  V30 1563 C 158.642 -1.41002 -0.772995 0
M  V30 1564 O 159.832 -1.62881 -0.617692 0
M  V30 1565 C 156.964 -3.22564 -1.10296 0
M  V30 1566 H 158.157 -2.92103 0.679401 0
M  V30 1567 H 155.71 -1.51343 0.390517 0
M  V30 1568 H 156.445 -2.64416 -1.87762 0
M  V30 1569 H 156.23 -3.87491 -0.59941 0
M  V30 1570 H 157.72 -3.86167 -1.5895 0
M  V30 1571 N 158.157 -0.370918 -1.53173 0
M  V30 1572 C 159.089 0.507823 -2.23503 0
M  V30 1573 C 160.102 1.04182 -1.251 0
M  V30 1574 O 161.291 0.947286 -1.5129 0
M  V30 1575 C 158.391 1.71447 -2.92334 0
M  V30 1576 C 157.564 1.31105 -4.17289 0
M  V30 1577 C 156.623 2.38035 -4.69282 0
M  V30 1578 O 155.649 2.00204 -5.32829 0
M  V30 1579 N 156.851 3.69697 -4.47554 0
M  V30 1580 H 159.616 -0.0946382 -2.99551 0
M  V30 1581 H 157.177 -0.196358 -1.60705 0
M  V30 1582 H 159.169 2.42469 -3.24023 0
M  V30 1583 H 157.739 2.22368 -2.19707 0
M  V30 1584 H 156.959 0.430462 -3.91843 0
M  V30 1585 H 158.247 1.0179 -4.98514 0
M  V30 1586 H 157.645 4.03205 -3.9679 0
M  V30 1587 H 156.202 4.36807 -4.8378 0
M  V30 1588 N 159.635 1.57281 -0.100228 0
M  V30 1589 C 160.86 1.99302 0.573881 0
M  V30 1590 C 161.285 0.979059 1.60611 0
M  V30 1591 O 160.643 -0.0517803 1.81226 0
M  V30 1592 C 160.691 3.40274 1.19358 0
M  V30 1593 O 159.795 3.41676 2.30935 0
M  V30 1594 H 159.136 0.647944 0.145138 0
M  V30 1595 H 161.666 2.03779 -0.183156 0
M  V30 1596 H 161.676 3.78078 1.53365 0
M  V30 1597 H 160.351 4.13594 0.437385 0
M  V30 1598 H 158.928 3.15672 1.98509 0
M  V30 1599 N 161.113 -0.173488 1.56642 0
M  V30 1600 C 162.023 -1.23482 1.99473 0
M  V30 1601 C 163.039 -1.48567 0.905752 0
M  V30 1602 O 164.215 -1.60758 1.21321 0
M  V30 1603 C 161.28 -2.55444 2.34413 0
M  V30 1604 C 160.341 -2.38241 3.57127 0
M  V30 1605 C 159.574 -3.63909 3.90392 0
M  V30 1606 O 159.797 -4.68996 3.24653 0
M  V30 1607 O 158.731 -3.58149 4.83749 0
M  V30 1608 H 162.557 -0.901279 2.90018 0
M  V30 1609 H 160.142 -0.380185 1.44482 0
M  V30 1610 H 162.024 -3.33292 2.57865 0
M  V30 1611 H 160.699 -2.88382 1.4703 0
M  V30 1612 H 159.606 -1.58431 3.38896 0
M  V30 1613 H 160.939 -2.10228 4.45045 0
M  V30 1614 N 162.591 -1.51276 -0.441967 0
M  V30 1615 C 163.816 -1.67799 -1.21895 0
M  V30 1616 C 164.241 -0.372864 -1.84367 0
M  V30 1617 O 163.599 0.666501 -1.68604 0
M  V30 1618 C 163.647 -2.79199 -2.28211 0
M  V30 1619 O 162.751 -2.42479 -3.33583 0
M  V30 1620 H 162.092 -0.559649 -0.357336 0
M  V30 1621 H 164.622 -1.97815 -0.522522 0
M  V30 1622 H 164.632 -3.03146 -2.73069 0
M  V30 1623 H 163.307 -3.73906 -1.82118 0
M  V30 1624 H 161.884 -2.29087 -2.94234 0
M  V30 1625 N 164.069 0.697108 -1.41344 0
M  V30 1626 C 165.019 1.80313 -1.39539 0
M  V30 1627 C 166.003 1.58618 -0.270001 0
M  V30 1628 O 167.195 1.69477 -0.510551 0
M  V30 1629 C 164.324 3.18606 -1.27848 0
M  V30 1630 C 163.41 3.46001 -2.45244 0
M  V30 1631 N 163.801 3.44103 -3.70711 0
M  V30 1632 C 162.099 3.76542 -2.39023 0
M  V30 1633 C 162.8 3.7036 -4.48563 0
M  V30 1634 N 161.776 3.90027 -3.78655 0
M  V30 1635 H 165.578 1.77207 -2.34468 0
M  V30 1636 H 163.092 0.897031 -1.35378 0
M  V30 1637 H 165.089 3.97833 -1.24637 0
M  V30 1638 H 163.749 3.22925 -0.339032 0
M  V30 1639 H 164.76 3.2452 -4.03618 0
M  V30 1640 H 161.437 3.88241 -1.53542 0
M  V30 1641 H 162.827 3.75042 -5.57488 0
M  V30 1642 N 165.547 1.27147 0.931209 0
M  V30 1643 C 166.824 1.0401 1.65654 0
M  V30 1644 C 167.204 -0.426297 2.06751 0
M  V30 1645 O 166.552 -1.40879 1.79904 0
M  V30 1646 C 166.762 1.99834 2.86125 0
M  V30 1647 C 168.11 2.29007 3.57549 0
M  V30 1648 O 169.134 1.97779 2.96246 0
M  V30 1649 O 167.993 2.82222 4.67989 0
M  V30 1650 H 165.087 0.396239 0.725895 0
M  V30 1651 H 167.633 1.38397 0.982056 0
M  V30 1652 H 166.405 2.98744 2.52721 0
M  V30 1653 H 166.028 1.65987 3.61295 0
M  V30 1654 N 167.025 -1.13721 1.09112 0
M  V30 1655 C 168.274 -1.84275 0.82009 0
M  V30 1656 C 168.587 -1.84253 -0.656509 0
M  V30 1657 O 169.793 -2.50668 -1.04296 0
M  V30 1658 C 168.249 -3.30825 1.41714 0
M  V30 1659 C 167.857 -3.39244 2.92605 0
M  V30 1660 C 169.601 -4.06443 1.22492 0
M  V30 1661 C 167.508 -4.80047 3.45411 0
M  V30 1662 H 166.438 -0.690387 0.30312 0
M  V30 1663 H 169.089 -1.28146 1.31343 0
M  V30 1664 H 167.471 -3.86737 0.851498 0
M  V30 1665 H 168.645 -2.93344 3.55367 0
M  V30 1666 H 166.96 -2.77088 3.10823 0
M  V30 1667 H 169.557 -5.10387 1.59402 0
M  V30 1668 H 169.9 -4.15972 0.165299 0
M  V30 1669 H 170.433 -3.56852 1.75788 0
M  V30 1670 H 167.172 -4.75709 4.50978 0
M  V30 1671 H 166.692 -5.26455 2.87411 0
M  V30 1672 H 168.371 -5.48957 3.42425 0
M  V30 1673 N 168.503 -0.877838 -1.30888 0
M  V30 1674 C 169.75 -0.492696 -1.96415 0
M  V30 1675 C 170.078 0.956671 -1.69346 0
M  V30 1676 O 169.333 1.68993 -0.986913 0
M  V30 1677 C 169.632 -0.705748 -3.50363 0
M  V30 1678 C 169.298 -2.1291 -3.97467 0
M  V30 1679 C 167.96 -2.51834 -4.1004 0
M  V30 1680 C 170.312 -3.05702 -4.22132 0
M  V30 1681 C 167.64 -3.82775 -4.44635 0
M  V30 1682 C 169.992 -4.36166 -4.58194 0
M  V30 1683 C 168.656 -4.74993 -4.68975 0
M  V30 1684 H 167.926 -0.18029 -0.718733 0
M  V30 1685 H 170.573 -1.11233 -1.55883 0
M  V30 1686 H 168.878 -0.00303058 -3.918 0
M  V30 1687 H 170.575 -0.387456 -3.99124 0
M  V30 1688 H 167.165 -1.81694 -3.88182 0
M  V30 1689 H 171.349 -2.76853 -4.11906 0
M  V30 1690 H 166.605 -4.12609 -4.51181 0
M  V30 1691 H 170.779 -5.08111 -4.76231 0
M  V30 1692 H 168.406 -5.76495 -4.95537 0
M  V30 1693 N 169.982 1.44106 -0.638065 0
M  V30 1694 C 171.393 1.85316 -0.226894 0
M  V30 1695 C 171.744 1.53399 1.22324 0
M  V30 1696 O 170.869 0.975463 1.93167 0
M  V30 1697 C 171.464 3.3637 -0.405013 0
M  V30 1698 C 170.023 3.76369 -0.0482902 0
M  V30 1699 C 169.17 2.67921 -0.715108 0
M  V30 1700 H 172.121 1.34474 -0.842764 0
M  V30 1701 H 172.142 3.7885 0.354 0
M  V30 1702 H 171.654 3.59569 -1.46053 0
M  V30 1703 H 169.755 3.58784 1.00522 0
M  V30 1704 H 169.868 4.76856 -0.463187 0
M  V30 1705 H 168.232 2.54259 -0.149753 0
M  V30 1706 H 169.015 2.93951 -1.77335 0
M  V30 1707 N 171.46 0.379036 1.52974 0
M  V30 1708 C 172.408 -0.476033 2.27677 0
M  V30 1709 C 173.402 -1.0719 1.31174 0
M  V30 1710 O 174.608 -1.01355 1.48752 0
M  V30 1711 H 170.983 -0.172255 0.732006 0
M  V30 1712 H 172.954 0.175615 2.97883 0
M  V30 1713 C 171.703 -1.5967 3.0887 0
M  V30 1714 H 171.026 -1.1475 3.82978 0
M  V30 1715 H 172.466 -2.16943 3.64296 0
M  V30 1716 C 170.925 -2.54682 2.20542 0
M  V30 1717 O 171.455 -3.57836 1.82527 0
M  V30 1718 N 169.661 -2.24183 1.84907 0
M  V30 1719 H 169.208 -1.40333 2.1602 0
M  V30 1720 H 169.166 -2.88006 1.26096 0
M  V30 1721 N 172.938 -1.57226 0.108567 0
M  V30 1722 C 174.215 -1.86333 -0.594939 0
M  V30 1723 C 174.595 -1.00788 -1.85486 0
M  V30 1724 O 173.943 -0.0839293 -2.28346 0
M  V30 1725 C 174.153 -3.37265 -0.897405 0
M  V30 1726 C 175.501 -4.05629 -1.25501 0
M  V30 1727 O 176.525 -3.42224 -0.987998 0
M  V30 1728 O 175.384 -5.17531 -1.75567 0
M  V30 1729 H 172.478 -0.771018 -0.2991 0
M  V30 1730 H 175.024 -1.69102 0.142283 0
M  V30 1731 H 173.796 -3.913 -0.00413806 0
M  V30 1732 H 173.419 -3.59889 -1.69014 0
M  V30 1733 N 174.416 0.165178 -1.56732 0
M  V30 1734 C 175.644 0.896218 -1.86482 0
M  V30 1735 C 176.059 1.75555 -0.694675 0
M  V30 1736 O 175.416 1.79379 0.33607 0
M  V30 1737 C 175.467 1.76792 -3.1532 0
M  V30 1738 O 175.188 0.943239 -4.27825 0
M  V30 1739 C 176.689 2.6081 -3.58459 0
M  V30 1740 H 173.909 0.260064 -0.618553 0
M  V30 1741 H 176.453 0.163428 -2.03846 0
M  V30 1742 H 174.608 2.45398 -2.99764 0
M  V30 1743 H 175.022 1.53998 -5.01383 0
M  V30 1744 H 176.496 3.17579 -4.51495 0
M  V30 1745 H 176.973 3.35977 -2.82872 0
M  V30 1746 H 177.579 1.97526 -3.76648 0
M  V30 1747 N 175.894 1.51508 0.433938 0
M  V30 1748 C 176.844 1.69451 1.52546 0
M  V30 1749 C 177.828 0.548474 1.51263 0
M  V30 1750 O 179.02 0.804529 1.57659 0
M  V30 1751 C 176.149 1.82604 2.90707 0
M  V30 1752 C 175.235 3.03002 2.96733 0
M  V30 1753 N 175.626 4.26121 2.72496 0
M  V30 1754 C 173.924 3.02327 3.27894 0
M  V30 1755 C 174.625 5.07407 2.84452 0
M  V30 1756 N 173.601 4.42126 3.16269 0
M  V30 1757 H 177.403 2.62305 1.32564 0
M  V30 1758 H 174.917 1.49202 0.641297 0
M  V30 1759 H 176.914 1.93569 3.69238 0
M  V30 1760 H 175.574 0.909339 3.11707 0
M  V30 1761 H 176.585 4.55009 2.4736 0
M  V30 1762 H 173.262 2.20301 3.54646 0
M  V30 1763 H 174.652 6.15422 2.69639 0
M  V30 1764 N 177.372 -0.689602 1.41712 0
M  V30 1765 C 178.304 -1.815 1.39966 0
M  V30 1766 C 179.317 -1.59995 0.300917 0
M  V30 1767 O 180.506 -1.69387 0.563039 0
M  V30 1768 C 177.606 -3.18364 1.16179 0
M  V30 1769 C 176.779 -3.66847 2.38206 0
M  V30 1770 C 175.838 -4.82398 2.10186 0
M  V30 1771 O 174.864 -4.93706 2.83272 0
M  V30 1772 N 176.066 -5.70064 1.0958 0
M  V30 1773 H 178.831 -1.83488 2.36965 0
M  V30 1774 H 176.392 -0.872149 1.36401 0
M  V30 1775 H 178.384 -3.93301 0.953756 0
M  V30 1776 H 176.954 -3.11365 0.27756 0
M  V30 1777 H 176.174 -2.82751 2.74673 0
M  V30 1778 H 177.462 -3.95978 3.19498 0
M  V30 1779 H 176.86 -5.63565 0.491019 0
M  V30 1780 H 175.417 -6.44874 0.947656 0
M  V30 1781 N 178.85 -1.27639 -0.924453 0
M  V30 1782 C 180.09 -1.15407 -1.68703 0
M  V30 1783 C 180.454 0.294581 -1.89727 0
M  V30 1784 O 181.655 0.539385 -2.63333 0
M  V30 1785 C 179.926 -1.9195 -3.0148 0
M  V30 1786 S 181.485 -1.95969 -3.92609 0
M  V30 1787 H 178.303 -0.411937 -0.579507 0
M  V30 1788 H 180.905 -1.61592 -1.10038 0
M  V30 1789 H 179.609 -2.96387 -2.83871 0
M  V30 1790 H 179.14 -1.46272 -3.65196 0
M  V30 1791 H 181.155 -1.05846 -4.84779 0
M  V30 1792 N 180.328 1.1314 -1.09713 0
M  V30 1793 C 181.258 2.20748 -0.761102 0
M  V30 1794 C 182.239 1.68061 0.262566 0
M  V30 1795 O 183.424 1.93765 0.129977 0
M  V30 1796 C 180.554 3.46812 -0.184054 0
M  V30 1797 C 179.508 4.12606 -1.13757 0
M  V30 1798 C 178.834 5.33031 -0.422083 0
M  V30 1799 C 180.134 4.59603 -2.48118 0
M  V30 1800 H 181.828 2.49113 -1.66082 0
M  V30 1801 H 179.374 1.19734 -0.799987 0
M  V30 1802 H 181.327 4.21353 0.0631215 0
M  V30 1803 H 180.051 3.17851 0.750868 0
M  V30 1804 H 178.71 3.40036 -1.37007 0
M  V30 1805 H 178.358 5.00335 0.517072 0
M  V30 1806 H 178.058 5.77999 -1.05788 0
M  V30 1807 H 179.582 6.10325 -0.183277 0
M  V30 1808 H 180.996 5.25552 -2.29059 0
M  V30 1809 H 179.393 5.15321 -3.07514 0
M  V30 1810 H 180.463 3.73971 -3.08665 0
M  V30 1811 N 181.806 0.884767 1.30421 0
M  V30 1812 C 183.083 0.423185 1.90967 0
M  V30 1813 C 183.463 -1.09605 1.80416 0
M  V30 1814 O 182.811 -1.93126 1.22125 0
M  V30 1815 C 183.021 0.921056 3.36627 0
M  V30 1816 C 184.369 0.955903 4.137 0
M  V30 1817 O 185.393 0.867706 3.4547 0
M  V30 1818 O 184.252 1.08614 5.35598 0
M  V30 1819 H 181.346 0.129369 0.816819 0
M  V30 1820 H 183.892 0.973653 1.3899 0
M  V30 1821 H 182.664 1.96489 3.3839 0
M  V30 1822 H 182.287 0.349741 3.96059 0
M  V30 1823 N 183.284 -1.43765 0.645699 0
M  V30 1824 C 184.509 -2.06767 0.161883 0
M  V30 1825 C 184.934 -1.48034 -1.16049 0
M  V30 1826 O 184.292 -0.587369 -1.71522 0
M  V30 1827 C 184.34 -3.60519 0.0762003 0
M  V30 1828 O 183.444 -4.00982 -0.963721 0
M  V30 1829 H 182.785 -0.657675 0.091429 0
M  V30 1830 H 185.315 -1.84397 0.886499 0
M  V30 1831 H 185.325 -4.07853 -0.109604 0
M  V30 1832 H 184 -4.02646 1.04157 0
M  V30 1833 H 182.577 -3.65253 -0.751312 0
M  V30 1834 N 184.763 -0.387143 -1.52771 0
M  V30 1835 C 186.009 0.196025 -2.0185 0
M  V30 1836 C 186.342 1.46641 -1.27319 0
M  V30 1837 O 185.617 1.90889 -0.373032 0
M  V30 1838 C 185.9 0.466136 -3.5707 0
M  V30 1839 C 185.753 -0.819385 -4.42274 0
M  V30 1840 C 187.072 1.25768 -4.21747 0
M  V30 1841 H 184.191 0.0697708 -0.73369 0
M  V30 1842 H 186.833 -0.516286 -1.82851 0
M  V30 1843 H 184.983 1.07293 -3.7339 0
M  V30 1844 H 186.655 -1.4563 -4.37709 0
M  V30 1845 H 184.898 -1.43517 -4.09372 0
M  V30 1846 H 185.569 -0.585065 -5.48891 0
M  V30 1847 H 188.045 0.744167 -4.09391 0
M  V30 1848 H 186.921 1.41541 -5.30337 0
M  V30 1849 H 187.182 2.27228 -3.79236 0
M  V30 1850 N 186.241 1.57166 -0.116904 0
M  V30 1851 C 187.204 2.14039 0.819742 0
M  V30 1852 C 188.204 1.07477 1.19605 0
M  V30 1853 O 189.394 1.33263 1.1219 0
M  V30 1854 C 186.526 2.67891 2.10826 0
M  V30 1855 H 187.719 2.98128 0.325511 0
M  V30 1856 H 185.272 1.55739 0.132312 0
M  V30 1857 H 186.007 1.87384 2.64685 0
M  V30 1858 H 185.792 3.45823 1.84793 0
M  V30 1859 H 187.282 3.11809 2.77785 0
M  V30 1860 N 187.719 -0.156864 1.56817 0
M  V30 1861 C 188.968 -0.869504 1.81996 0
M  V30 1862 C 189.281 -1.82777 0.696545 0
M  V30 1863 O 190.487 -2.58384 0.833658 0
M  V30 1864 C 188.943 -1.59679 3.22538 0
M  V30 1865 C 188.551 -0.681431 4.42787 0
M  V30 1866 C 190.295 -2.2968 3.56997 0
M  V30 1867 C 188.202 -1.40978 5.74351 0
M  V30 1868 H 187.132 -0.328438 0.678708 0
M  V30 1869 H 189.783 -0.1223 1.83092 0
M  V30 1870 H 188.165 -2.38927 3.158 0
M  V30 1871 H 189.339 0.0751166 4.60739 0
M  V30 1872 H 187.654 -0.0903431 4.16302 0
M  V30 1873 H 190.251 -2.84794 4.52544 0
M  V30 1874 H 190.594 -3.05707 2.82576 0
M  V30 1875 H 191.127 -1.57361 3.65352 0
M  V30 1876 H 187.866 -0.691561 6.51842 0
M  V30 1877 H 187.386 -2.13929 5.60352 0
M  V30 1878 H 189.065 -1.95337 6.16808 0
M  V30 1879 N 189.197 -1.51736 -0.425897 0
M  V30 1880 C 190.443 -1.65214 -1.1761 0
M  V30 1881 C 190.776 -0.372778 -1.90589 0
M  V30 1882 O 190.051 0.628139 -1.84078 0
M  V30 1883 C 190.334 -2.86312 -2.18398 0
M  V30 1884 C 190.187 -4.24254 -1.49426 0
M  V30 1885 C 191.506 -3.02925 -3.19256 0
M  V30 1886 H 188.625 -0.601263 -0.426206 0
M  V30 1887 H 191.267 -1.8425 -0.463882 0
M  V30 1888 H 189.417 -2.70213 -2.79137 0
M  V30 1889 H 191.089 -4.52046 -0.919362 0
M  V30 1890 H 189.332 -4.26426 -0.796432 0
M  V30 1891 H 190.003 -5.05001 -2.22885 0
M  V30 1892 H 192.479 -3.1781 -2.68581 0
M  V30 1893 H 191.355 -3.89199 -3.8706 0
M  V30 1894 H 191.616 -2.15497 -3.86023 0
M  V30 1895 N 190.675 0.682077 -1.42076 0
M  V30 1896 C 191.638 1.77756 -1.44691 0
M  V30 1897 C 192.638 1.5726 -0.335535 0
M  V30 1898 O 193.828 1.63686 -0.596037 0
M  V30 1899 C 190.96 3.16301 -1.27146 0
M  V30 1900 H 192.153 1.76826 -2.42224 0
M  V30 1901 H 189.706 0.891012 -1.28416 0
M  V30 1902 H 190.441 3.22862 -0.305075 0
M  V30 1903 H 190.226 3.32581 -2.07683 0
M  V30 1904 H 191.716 3.96241 -1.31843 0
M  V30 1905 N 192.153 1.28127 0.917671 0
M  V30 1906 C 193.564 1.13622 1.48145 0
M  V30 1907 C 193.915 -0.275207 1.9426 0
M  V30 1908 O 193.04 -1.1691 1.82102 0
M  V30 1909 C 193.635 2.05648 2.69248 0
M  V30 1910 C 192.194 1.95219 3.21818 0
M  V30 1911 C 191.341 1.97618 1.94532 0
M  V30 1912 H 194.292 1.40874 0.730772 0
M  V30 1913 H 194.313 1.61818 3.44377 0
M  V30 1914 H 193.825 3.08365 2.35653 0
M  V30 1915 H 191.926 0.955244 3.60147 0
M  V30 1916 H 192.039 2.81976 3.87333 0
M  V30 1917 H 190.403 1.41973 2.11461 0
M  V30 1918 H 191.186 3.02007 1.63238 0
M  V30 1919 N 193.631 -1.12557 1.10312 0
M  V30 1920 C 194.564 -2.1737 0.694674 0
M  V30 1921 C 195.542 -1.59745 -0.303373 0
M  V30 1922 O 196.726 -1.87408 -0.202578 0
M  V30 1923 C 193.853 -3.38691 0.0248052 0
M  V30 1924 C 192.899 -4.14943 0.986121 0
M  V30 1925 S 193.732 -4.73413 2.50281 0
M  V30 1926 C 194.888 -5.9807 1.84562 0
M  V30 1927 H 195.121 -2.5168 1.58255 0
M  V30 1928 H 192.654 -1.23998 0.919992 0
M  V30 1929 H 194.612 -4.08959 -0.355361 0
M  V30 1930 H 193.273 -3.02664 -0.839851 0
M  V30 1931 H 192.466 -5.01854 0.464651 0
M  V30 1932 H 192.068 -3.50377 1.30813 0
M  V30 1933 H 194.36 -6.67232 1.17507 0
M  V30 1934 H 195.303 -6.54841 2.69423 0
M  V30 1935 H 195.711 -5.49073 1.31069 0
M  V30 1936 N 195.109 -0.891671 -1.2995 0
M  V30 1937 C 196.334 -0.527932 -2.00568 0
M  V30 1938 C 196.759 0.877969 -1.66353 0
M  V30 1939 O 196.117 1.58301 -0.883762 0
M  V30 1940 C 196.165 -0.717745 -3.53385 0
M  V30 1941 O 195.269 0.233376 -4.11739 0
M  V30 1942 H 194.61 -0.20722 -0.630837 0
M  V30 1943 H 197.14 -1.20105 -1.65638 0
M  V30 1944 H 197.15 -0.619307 -4.03272 0
M  V30 1945 H 195.825 -1.74276 -3.77625 0
M  V30 1946 H 194.402 0.0880706 -3.72796 0
M  V30 1947 N 196.587 1.43421 -0.653314 0
M  V30 1948 C 197.534 2.30768 0.0382271 0
M  V30 1949 C 198.504 1.44755 0.814576 0
M  V30 1950 O 199.689 1.73624 0.791162 0
M  V30 1951 C 196.829 3.30336 0.998599 0
M  V30 1952 C 195.942 4.31448 0.218342 0
M  V30 1953 C 195.077 5.18098 1.17252 0
M  V30 1954 C 194.116 6.10902 0.382702 0
M  V30 1955 N 193.253 6.90176 1.28848 0
M  V30 1956 H 198.093 2.89357 -0.712511 0
M  V30 1957 H 195.63 1.42548 -0.363128 0
M  V30 1958 H 197.588 3.86572 1.56901 0
M  V30 1959 H 196.218 2.73397 1.71621 0
M  V30 1960 H 195.27 3.77506 -0.46836 0
M  V30 1961 H 196.582 4.97227 -0.395812 0
M  V30 1962 H 195.736 5.7896 1.81356 0
M  V30 1963 H 194.475 4.52444 1.82058 0
M  V30 1964 H 193.48 5.49128 -0.27169 0
M  V30 1965 H 194.705 6.78598 -0.260957 0
M  V30 1966 H 192.651 6.27171 1.92334 0
M  V30 1967 H 192.568 7.52478 0.728887 0
M  V30 1968 H 193.836 7.55543 1.91766 0
M  V30 1969 N 198.065 0.39524 1.52563 0
M  V30 1970 C 199.295 -0.184675 2.05773 0
M  V30 1971 C 199.703 -1.40571 1.26635 0
M  V30 1972 O 199.046 -1.81105 0.30769 0
M  V30 1973 C 199.108 -0.613551 3.54226 0
M  V30 1974 C 198.772 0.49484 4.54313 0
M  V30 1975 C 199.769 1.3541 5.01956 0
M  V30 1976 C 197.454 0.663565 4.97898 0
M  V30 1977 C 199.448 2.36716 5.91814 0
M  V30 1978 C 197.135 1.67996 5.87555 0
M  V30 1979 C 198.133 2.53017 6.34406 0
M  V30 1980 O 197.821 3.52917 7.22291 0
M  V30 1981 H 197.553 -0.030077 0.675331 0
M  V30 1982 H 200.107 0.560708 1.97599 0
M  V30 1983 H 198.337 -1.411 3.60038 0
M  V30 1984 H 200.026 -1.11981 3.90148 0
M  V30 1985 H 200.792 1.23509 4.6901 0
M  V30 1986 H 196.671 0.0114913 4.60999 0
M  V30 1987 H 200.215 3.03113 6.28306 0
M  V30 1988 H 196.112 1.79933 6.19915 0
M  V30 1989 H 196.88 3.48996 7.40367 0
M  V30 1990 N 199.544 -1.57102 0.125237 0
M  V30 1991 C 200.507 -2.14471 -0.80838 0
M  V30 1992 C 201.507 -1.0811 -1.19033 0
M  V30 1993 O 202.697 -1.33856 -1.11482 0
M  V30 1994 C 199.829 -2.69005 -2.09402 0
M  V30 1995 H 201.022 -2.98297 -0.309696 0
M  V30 1996 H 198.575 -1.55807 -0.124051 0
M  V30 1997 H 199.31 -1.88785 -2.63687 0
M  V30 1998 H 199.095 -3.46799 -1.82957 0
M  V30 1999 H 200.585 -3.13278 -2.76128 0
M  V30 2000 N 201.022 0.148545 -1.56898 0
M  V30 2001 C 202.268 0.862694 -1.83536 0
M  V30 2002 C 202.601 1.80889 -0.706604 0
M  V30 2003 O 201.876 1.92328 0.289885 0
M  V30 2004 C 202.159 1.63853 -3.20662 0
M  V30 2005 C 202.012 0.713925 -4.44098 0
M  V30 2006 C 203.331 2.60133 -3.54991 0
M  V30 2007 H 200.45 0.312179 -0.667618 0
M  V30 2008 H 203.092 0.127953 -1.89569 0
M  V30 2009 H 201.242 2.26489 -3.1565 0
M  V30 2010 H 202.914 0.098686 -4.61194 0
M  V30 2011 H 201.157 0.0234019 -4.33794 0
M  V30 2012 H 201.828 1.29278 -5.36648 0
M  V30 2013 H 204.304 2.07616 -3.60603 0
M  V30 2014 H 203.18 3.11468 -4.51972 0
M  V30 2015 H 203.441 3.41417 -2.80868 0
M  V30 2016 N 202.5 1.5196 0.417844 0
M  V30 2017 C 203.41 1.77554 1.53336 0
M  V30 2018 C 204.426 0.660655 1.6097 0
M  V30 2019 O 205.602 0.945099 1.77848 0
M  V30 2020 C 202.667 1.91291 2.89152 0
M  V30 2021 C 201.728 3.15183 2.91475 0
M  V30 2022 C 200.961 3.28256 4.20813 0
M  V30 2023 O 201.184 2.46798 5.14244 0
M  V30 2024 O 200.118 4.21356 4.29817 0
M  V30 2025 H 203.944 2.7222 1.34647 0
M  V30 2026 H 201.529 1.36698 0.602828 0
M  V30 2027 H 203.411 2.02199 3.69721 0
M  V30 2028 H 202.086 0.998129 3.07927 0
M  V30 2029 H 200.993 3.09739 2.09791 0
M  V30 2030 H 202.326 4.06414 2.77648 0
M  V30 2031 N 203.978 -0.674533 1.42435 0
M  V30 2032 C 204.908 -1.80009 1.48724 0
M  V30 2033 C 205.889 -1.6659 0.343793 0
M  V30 2034 O 207.074 -1.86007 0.558137 0
M  V30 2035 C 204.204 -3.18306 1.38919 0
M  V30 2036 C 203.158 -3.46461 2.51294 0
M  V30 2037 C 202.484 -4.84335 2.26547 0
M  V30 2038 C 203.784 -3.43328 3.93603 0
M  V30 2039 H 205.478 -1.75004 2.42928 0
M  V30 2040 H 203.024 -0.840533 1.16923 0
M  V30 2041 H 204.977 -3.9678 1.41927 0
M  V30 2042 H 203.701 -3.2399 0.412094 0
M  V30 2043 H 202.36 -2.70348 2.47604 0
M  V30 2044 H 202.008 -4.86669 1.2713 0
M  V30 2045 H 201.708 -5.04136 3.01861 0
M  V30 2046 H 203.232 -5.65094 2.31304 0
M  V30 2047 H 204.646 -4.11772 3.98894 0
M  V30 2048 H 203.043 -3.74664 4.68771 0
M  V30 2049 H 204.113 -2.41897 4.20255 0
M  V30 2050 N 205.456 -1.28612 -0.910864 0
M  V30 2051 C 206.388 -1.08589 -2.01844 0
M  V30 2052 C 207.401 -0.0367419 -1.62759 0
M  V30 2053 O 208.59 -0.280101 -1.76289 0
M  V30 2054 C 205.69 -0.628626 -3.33019 0
M  V30 2055 C 204.863 -1.75382 -4.00699 0
M  V30 2056 C 203.922 -1.28945 -5.10156 0
M  V30 2057 O 202.948 -1.9922 -5.33198 0
M  V30 2058 N 204.15 -0.154224 -5.80295 0
M  V30 2059 H 206.915 -2.03973 -2.19579 0
M  V30 2060 H 204.476 -1.20403 -1.08234 0
M  V30 2061 H 206.468 -0.301508 -4.03575 0
M  V30 2062 H 205.038 0.232451 -3.11735 0
M  V30 2063 H 204.258 -2.25039 -3.23653 0
M  V30 2064 H 205.546 -2.50854 -4.42662 0
M  V30 2065 H 204.944 0.43194 -5.64049 0
M  V30 2066 H 203.501 0.113599 -6.51701 0
M  V30 2067 N 206.934 1.1197 -1.10907 0
M  V30 2068 C 208.35 1.35591 -0.841852 0
M  V30 2069 C 208.55 1.94233 0.536246 0
M  V30 2070 O 207.606 2.1717 1.28816 0
M  V30 2071 C 208.919 2.29284 -1.94549 0
M  V30 2072 C 210.467 2.42862 -1.97451 0
M  V30 2073 C 210.942 3.39873 -3.07002 0
M  V30 2074 N 212.433 3.47433 -3.06341 0
M  V30 2075 C 213.168 4.22421 -3.87748 0
M  V30 2076 N 212.664 5.00432 -4.79103 0
M  V30 2077 N 214.457 4.17876 -3.75946 0
M  V30 2078 H 206.608 0.722664 -1.99728 0
M  V30 2079 H 208.871 0.380635 -0.868229 0
M  V30 2080 H 208.577 1.93378 -2.93765 0
M  V30 2081 H 208.451 3.29452 -1.83688 0
M  V30 2082 H 210.838 2.78046 -0.988645 0
M  V30 2083 H 210.919 1.42566 -2.12388 0
M  V30 2084 H 210.563 3.05417 -4.05811 0
M  V30 2085 H 210.493 4.40011 -2.89306 0
M  V30 2086 H 212.984 2.91784 -2.40147 0
M  V30 2087 H 213.297 5.55002 -5.37766 0
M  V30 2088 H 211.642 4.99612 -4.83128 0
M  V30 2089 H 214.833 3.56016 -3.03924 0
M  V30 2090 H 215.006 4.76061 -4.39624 0
M  V30 2091 N 208.412 0.89855 1.29475 0
M  V30 2092 C 209.823 0.572537 1.77705 0
M  V30 2093 C 210.174 -0.911778 1.73727 0
M  V30 2094 O 209.299 -1.71288 1.32247 0
M  V30 2095 C 209.894 1.03252 3.22683 0
M  V30 2096 C 208.453 0.757687 3.68695 0
M  V30 2097 C 207.6 1.20787 2.49612 0
M  V30 2098 H 210.551 1.08139 1.16153 0
M  V30 2099 H 210.572 0.367307 3.78723 0
M  V30 2100 H 210.084 2.11285 3.25546 0
M  V30 2101 H 208.185 -0.310079 3.71308 0
M  V30 2102 H 208.298 1.35476 4.59547 0
M  V30 2103 H 206.662 0.626888 2.46865 0
M  V30 2104 H 207.445 2.29622 2.55203 0
M  V30 2105 N 209.89 -1.43072 0.660911 0
M  V30 2106 C 210.84 -2.27948 -0.04847 0
M  V30 2107 C 211.824 -1.40325 -0.787246 0
M  V30 2108 O 213.016 -1.63893 -0.668446 0
M  V30 2109 C 210.145 -3.28143 -1.00881 0
M  V30 2110 C 209.231 -4.23252 -0.268108 0
M  V30 2111 N 209.622 -5.00656 0.719528 0
M  V30 2112 C 207.92 -4.43092 -0.508493 0
M  V30 2113 C 208.621 -5.70019 1.15988 0
M  V30 2114 N 207.597 -5.41364 0.492584 0
M  V30 2115 H 211.399 -2.85213 0.709279 0
M  V30 2116 H 208.913 -1.54869 0.488822 0
M  V30 2117 H 210.91 -3.87736 -1.53188 0
M  V30 2118 H 209.57 -2.7244 -1.76654 0
M  V30 2119 H 210.581 -5.06115 1.09855 0
M  V30 2120 H 207.258 -3.98449 -1.24679 0
M  V30 2121 H 208.648 -6.4214 1.97751 0
M  V30 2122 N 211.368 -0.403325 -1.52352 0
M  V30 2123 C 212.278 0.432009 -2.30588 0
M  V30 2124 C 213.294 1.05884 -1.38075 0
M  V30 2125 O 214.47 1.06161 -1.71148 0
M  V30 2126 C 211.535 1.53669 -3.10784 0
M  V30 2127 C 210.596 0.933525 -4.19027 0
M  V30 2128 C 209.829 1.98557 -4.9539 0
M  V30 2129 O 210.052 3.20283 -4.71991 0
M  V30 2130 O 208.986 1.59504 -5.80381 0
M  V30 2131 H 212.812 -0.205739 -3.03002 0
M  V30 2132 H 210.397 -0.166675 -1.48467 0
M  V30 2133 H 212.279 2.17814 -3.60742 0
M  V30 2134 H 210.954 2.15915 -2.41169 0
M  V30 2135 H 209.861 0.254954 -3.7323 0
M  V30 2136 H 211.194 0.35508 -4.90918 0
M  V30 2137 N 212.846 1.57033 -0.133567 0
M  V30 2138 C 214.095 1.94861 0.520768 0
M  V30 2139 C 214.408 1.02012 1.66892 0
M  V30 2140 O 215.614 1.29365 2.38699 0
M  V30 2141 C 214.07 3.46362 0.977809 0
M  V30 2142 C 213.678 4.47773 -0.142674 0
M  V30 2143 C 215.422 3.93083 1.60269 0
M  V30 2144 C 213.329 5.90468 0.331883 0
M  V30 2145 H 212.259 0.727453 0.198315 0
M  V30 2146 H 214.91 1.82227 -0.215759 0
M  V30 2147 H 213.292 3.54282 1.7692 0
M  V30 2148 H 214.466 4.51536 -0.919317 0
M  V30 2149 H 212.781 4.10891 -0.675124 0
M  V30 2150 H 215.378 4.97121 1.96914 0
M  V30 2151 H 215.721 3.33876 2.48662 0
M  V30 2152 H 216.254 3.88025 0.876453 0
M  V30 2153 H 212.993 6.53463 -0.516341 0
M  V30 2154 H 212.513 5.90094 1.07469 0
M  V30 2155 H 214.192 6.42179 0.788332 0
M  V30 2156 N 214.325 -0.140222 1.56975 0
M  V30 2157 C 215.553 -0.866437 1.87884 0
M  V30 2158 C 215.968 -1.74428 0.722517 0
M  V30 2159 O 215.325 -1.79891 -0.30749 0
M  V30 2160 C 215.376 -1.71753 3.18093 0
M  V30 2161 O 215.097 -0.875056 4.29272 0
M  V30 2162 C 216.598 -2.55074 3.62563 0
M  V30 2163 H 213.818 -0.25019 0.622612 0
M  V30 2164 H 216.362 -0.130977 2.0408 0
M  V30 2165 H 214.517 -2.40598 3.03631 0
M  V30 2166 H 214.931 -1.46002 5.03769 0
M  V30 2167 H 216.405 -3.10356 4.5649 0
M  V30 2168 H 216.882 -3.31434 2.88181 0
M  V30 2169 H 217.488 -1.91509 3.79743 0
M  V30 2170 N 215.803 -1.52179 -0.40978 0
M  V30 2171 C 217.08 -1.56769 -1.16974 0
M  V30 2172 C 217.46 -0.348322 -2.08206 0
M  V30 2173 O 216.808 0.664862 -2.18613 0
M  V30 2174 C 217.018 -2.89603 -1.9476 0
M  V30 2175 C 218.366 -3.42579 -2.50849 0
M  V30 2176 O 219.39 -2.91338 -2.04941 0
M  V30 2177 O 218.249 -4.32054 -3.34652 0
M  V30 2178 H 215.343 -0.631439 -0.534054 0
M  V30 2179 H 217.889 -1.64507 -0.416613 0
M  V30 2180 H 216.661 -3.698 -1.27921 0
M  V30 2181 H 216.284 -2.85155 -2.77079 0
M  V30 2182 N 217.281 0.66697 -1.42791 0
M  V30 2183 C 218.211 1.79218 -1.49677 0
M  V30 2184 C 219.192 1.66405 -0.352623 0
M  V30 2185 O 220.377 1.85708 -0.567993 0
M  V30 2186 C 217.507 3.17565 -1.40605 0
M  V30 2187 C 216.461 3.45124 -2.53127 0
M  V30 2188 C 215.787 4.83127 -2.29112 0
M  V30 2189 C 217.087 3.41236 -3.95418 0
M  V30 2190 H 218.781 1.73713 -2.43853 0
M  V30 2191 H 216.327 0.83432 -1.17367 0
M  V30 2192 H 218.28 3.96022 -1.44029 0
M  V30 2193 H 217.004 3.23767 -0.429271 0
M  V30 2194 H 215.663 2.69031 -2.49034 0
M  V30 2195 H 215.311 4.85988 -1.29709 0
M  V30 2196 H 215.011 5.02528 -3.04531 0
M  V30 2197 H 216.535 5.63859 -2.34297 0
M  V30 2198 H 217.949 4.09651 -4.01073 0
M  V30 2199 H 216.346 3.72173 -4.70752 0
M  V30 2200 H 217.416 2.39665 -4.21532 0
M  V30 2201 N 218.759 1.29093 0.90403 0
M  V30 2202 C 220.005 1.16986 1.65656 0
M  V30 2203 C 220.338 -0.278925 1.92186 0
M  V30 2204 O 219.613 -1.2019 1.5292 0
M  V30 2205 C 219.896 1.97908 3.0084 0
M  V30 2206 C 219.749 3.50903 2.81403 0
M  V30 2207 C 221.068 1.80208 4.01513 0
M  V30 2208 H 218.187 0.426346 0.601164 0
M  V30 2209 H 220.829 1.58518 1.04747 0
M  V30 2210 H 218.979 1.62616 3.52829 0
M  V30 2211 H 220.651 3.96153 2.36348 0
M  V30 2212 H 218.894 3.76045 2.1627 0
M  V30 2213 H 219.565 4.02791 3.77443 0
M  V30 2214 H 222.041 2.11025 3.58619 0
M  V30 2215 H 220.917 2.39184 4.94047 0
M  V30 2216 H 221.178 0.756119 4.35586 0
M  V30 2217 N 220.237 -1.11381 1.11499 0
M  V30 2218 C 221.514 -1.7955 0.775965 0
M  V30 2219 C 221.894 -1.97859 -0.73588 0
M  V30 2220 O 221.242 -1.56376 -1.66609 0
M  V30 2221 C 221.452 -3.13196 1.53977 0
M  V30 2222 C 222.8 -3.88227 1.71944 0
M  V30 2223 O 223.824 -3.22887 1.50407 0
M  V30 2224 O 222.683 -5.05477 2.07738 0
M  V30 2225 H 219.777 -0.777728 0.28119 0
M  V30 2226 H 222.323 -1.18118 1.21845 0
M  V30 2227 H 221.095 -2.95229 2.56818 0
M  V30 2228 H 220.718 -3.82342 1.09088 0
M  V30 2229 N 221.715 -0.905404 -1.28997 0
M  V30 2230 C 222.94 -0.549175 -1.99997 0
M  V30 2231 C 223.365 0.860276 -1.67275 0
M  V30 2232 O 222.723 1.57355 -0.900502 0
M  V30 2233 C 222.771 -0.755185 -3.52604 0
M  V30 2234 O 221.875 0.189692 -4.11964 0
M  V30 2235 H 221.216 -0.213899 -0.628604 0
M  V30 2236 H 223.746 -1.21856 -1.64354 0
M  V30 2237 H 223.756 -0.662045 -4.02593 0
M  V30 2238 H 222.431 -1.78271 -3.75755 0
M  V30 2239 H 221.008 0.0485257 -3.72868 0
M  V30 2240 N 223.193 1.4272 -0.668489 0
M  V30 2241 C 224.156 2.292 0.00448567 0
M  V30 2242 C 225.156 1.43001 0.735339 0
M  V30 2243 O 226.346 1.64461 0.57429 0
M  V30 2244 C 223.478 3.25375 1.01705 0
M  V30 2245 H 224.671 2.90199 -0.756608 0
M  V30 2246 H 222.224 1.50254 -0.430506 0
M  V30 2247 H 222.959 2.69301 1.80686 0
M  V30 2248 H 222.744 3.88944 0.496463 0
M  V30 2249 H 224.234 3.90245 1.48655 0
M  V30 2250 N 224.671 0.411399 1.52136 0
M  V30 2251 C 225.917 -0.163888 2.02137 0
M  V30 2252 C 226.25 -1.44597 1.29636 0
M  V30 2253 O 225.525 -1.90272 0.403353 0
M  V30 2254 C 225.808 -0.40927 3.57767 0
M  V30 2255 C 225.661 0.889643 4.40914 0
M  V30 2256 C 226.98 -1.19042 4.23694 0
M  V30 2257 H 224.099 -0.0580896 0.734707 0
M  V30 2258 H 226.741 0.54531 1.82007 0
M  V30 2259 H 224.891 -1.0134 3.7505 0
M  V30 2260 H 226.563 1.52575 4.35337 0
M  V30 2261 H 224.806 1.50011 4.07037 0
M  V30 2262 H 225.477 0.672314 5.4789 0
M  V30 2263 H 227.953 -0.678942 4.10524 0
M  V30 2264 H 226.829 -1.33086 5.32522 0
M  V30 2265 H 227.09 -2.21166 3.82803 0
M  V30 2266 N 226.149 -1.5696 0.141893 0
M  V30 2267 C 227.097 -2.17784 -0.816874 0
M  V30 2268 C 228.091 -1.1334 -1.25899 0
M  V30 2269 O 229.297 -1.316 -1.22806 0
M  V30 2270 H 225.672 -0.697278 -0.281615 0
M  V30 2271 H 227.643 -2.97087 -0.279621 0
M  V30 2272 C 226.392 -2.80983 -2.04802 0
M  V30 2273 H 225.715 -3.61062 -1.7168 0
M  V30 2274 H 227.155 -3.2705 -2.69841 0
M  V30 2275 C 225.614 -1.79228 -2.8527 0
M  V30 2276 O 226.144 -1.25962 -3.8144 0
M  V30 2277 N 224.35 -1.48647 -2.49704 0
M  V30 2278 H 223.897 -1.92155 -1.71564 0
M  V30 2279 H 223.855 -0.808115 -3.03837 0
M  V30 2280 N 227.627 0.131896 -1.57047 0
M  V30 2281 C 228.59 1.14638 -1.98471 0
M  V30 2282 C 229.59 1.35029 -0.873148 0
M  V30 2283 O 230.78 1.31764 -1.13946 0
M  V30 2284 C 227.912 2.50358 -2.31373 0
M  V30 2285 H 229.105 0.79064 -2.8929 0
M  V30 2286 H 226.658 0.375761 -1.51716 0
M  V30 2287 H 227.393 2.90876 -1.43393 0
M  V30 2288 H 227.178 2.36915 -3.12432 0
M  V30 2289 H 228.668 3.23395 -2.64207 0
M  V30 2290 N 229.106 1.52395 0.401703 0
M  V30 2291 C 230.069 1.75636 1.47257 0
M  V30 2292 C 231.069 0.62628 1.48103 0
M  V30 2293 O 232.259 0.894227 1.49497 0
M  V30 2294 C 229.391 1.84553 2.86624 0
M  V30 2295 H 230.584 2.71241 1.27938 0
M  V30 2296 H 228.137 1.42923 0.632662 0
M  V30 2297 H 228.872 0.908882 3.11303 0
M  V30 2298 H 228.657 2.66715 2.87412 0
M  V30 2299 H 230.147 2.04251 3.64241 0
M  V30 2300 N 230.584 -0.659388 1.43143 0
M  V30 2301 C 231.517 -1.78425 1.42267 0
M  V30 2302 C 232.495 -1.60085 0.284894 0
M  V30 2303 O 233.679 -1.82351 0.477527 0
M  V30 2304 C 230.806 -3.15642 1.22833 0
M  V30 2305 C 229.852 -3.52698 2.39806 0
M  V30 2306 S 230.685 -3.53372 4.02353 0
M  V30 2307 C 231.841 -4.93256 3.85291 0
M  V30 2308 H 232.074 -1.78897 2.37452 0
M  V30 2309 H 229.607 -0.831469 1.301 0
M  V30 2310 H 231.565 -3.94838 1.12308 0
M  V30 2311 H 230.226 -3.12739 0.29207 0
M  V30 2312 H 229.419 -4.52475 2.21996 0
M  V30 2313 H 229.021 -2.80899 2.46925 0
M  V30 2314 H 231.313 -5.81751 3.47235 0
M  V30 2315 H 232.256 -5.16115 4.84799 0
M  V30 2316 H 232.664 -4.665 3.17865 0
M  V30 2317 N 232.062 -1.29571 -0.897171 0
M  V30 2318 C 233.29 -1.20583 -1.68129 0
M  V30 2319 C 233.705 0.233181 -1.87354 0
M  V30 2320 O 233.062 1.15579 -1.41236 0
M  V30 2321 C 233.113 -1.91772 -3.06441 0
M  V30 2322 O 232.834 -3.30053 -2.88091 0
M  V30 2323 C 234.335 -1.89291 -4.00854 0
M  V30 2324 H 231.555 -0.417826 -0.525036 0
M  V30 2325 H 234.099 -1.70987 -1.12177 0
M  V30 2326 H 232.254 -1.45196 -3.59161 0
M  V30 2327 H 232.668 -3.65942 -3.75748 0
M  V30 2328 H 234.142 -2.43662 -4.95311 0
M  V30 2329 H 234.619 -0.869014 -4.30517 0
M  V30 2330 H 235.225 -2.35622 -3.54066 0
M  V30 2331 N 233.54 1.10788 -1.12088 0
M  V30 2332 C 234.45 2.20599 -0.798338 0
M  V30 2333 C 235.466 1.72712 0.21135 0
M  V30 2334 O 236.642 2.01348 0.0458477 0
M  V30 2335 C 233.707 3.45771 -0.253674 0
M  V30 2336 C 232.768 4.08411 -1.32283 0
M  V30 2337 C 232.001 5.27608 -0.80406 0
M  V30 2338 O 232.224 5.69241 0.363478 0
M  V30 2339 O 231.158 5.8101 -1.57198 0
M  V30 2340 H 234.984 2.50614 -1.7154 0
M  V30 2341 H 232.569 1.19454 -0.897275 0
M  V30 2342 H 234.451 4.21376 0.0453691 0
M  V30 2343 H 233.126 3.1739 0.636005 0
M  V30 2344 H 232.033 3.34507 -1.67499 0
M  V30 2345 H 233.366 4.40986 -2.18614 0
M  V30 2346 N 235.018 0.912232 1.28515 0
M  V30 2347 C 236.429 0.591352 1.77087 0
M  V30 2348 C 236.78 -0.8933 1.74684 0
M  V30 2349 O 235.905 -1.69876 1.34056 0
M  V30 2350 C 236.5 1.06668 3.2157 0
M  V30 2351 C 235.059 0.79675 3.67871 0
M  V30 2352 C 234.206 1.23427 2.48316 0
M  V30 2353 H 237.157 1.09365 1.15 0
M  V30 2354 H 237.178 0.407455 3.78312 0
M  V30 2355 H 236.69 2.14726 3.23287 0
M  V30 2356 H 234.791 -0.270679 3.71616 0
M  V30 2357 H 234.904 1.40343 4.58084 0
M  V30 2358 H 233.268 0.653036 2.46186 0
M  V30 2359 H 234.051 2.32316 2.52753 0
M  V30 2360 N 236.496 -1.42363 0.676048 0
M  V30 2361 C 237.742 -2.0182 0.199125 0
M  V30 2362 C 238.075 -1.53339 -1.19168 0
M  V30 2363 O 237.35 -0.736124 -1.80032 0
M  V30 2364 C 237.633 -3.59331 0.235144 0
M  V30 2365 C 237.486 -4.17989 1.66149 0
M  V30 2366 C 238.805 -4.3813 -0.41595 0
M  V30 2367 H 235.924 -0.733293 0.0738311 0
M  V30 2368 H 238.566 -1.69368 0.86107 0
M  V30 2369 H 236.716 -3.87109 -0.328487 0
M  V30 2370 H 238.388 -4.0116 2.27747 0
M  V30 2371 H 236.631 -3.7377 2.20178 0
M  V30 2372 H 237.302 -5.27126 1.63837 0
M  V30 2373 H 239.778 -4.16051 0.0638529 0
M  V30 2374 H 238.654 -5.47717 -0.360115 0
M  V30 2375 H 238.915 -4.16101 -1.49373 0
M  V30 2376 N 237.974 -0.419461 -1.51915 0
M  V30 2377 C 239.222 0.152637 -2.01523 0
M  V30 2378 C 239.543 1.44762 -1.30649 0
M  V30 2379 O 238.813 1.90997 -0.435535 0
M  V30 2380 H 237.393 0.0593966 -0.744635 0
M  V30 2381 H 240.055 -0.558073 -1.86739 0
M  V30 2382 H 239.151 0.341369 -3.10227 0
M  V30 2383 N 239.452 1.56882 -0.150215 0
M  V30 2384 C 240.863 1.82995 0.370076 0
M  V30 2385 C 241.214 1.06907 1.64515 0
M  V30 2386 O 240.339 0.315369 2.1409 0
M  V30 2387 C 240.934 3.31942 0.678208 0
M  V30 2388 C 239.493 3.58625 1.14301 0
M  V30 2389 C 238.64 2.76792 0.167778 0
M  V30 2390 H 241.591 1.54209 -0.374858 0
M  V30 2391 H 241.612 3.48272 1.53254 0
M  V30 2392 H 241.124 3.87294 -0.249991 0
M  V30 2393 H 239.225 3.08664 2.08704 0
M  V30 2394 H 239.338 4.67073 1.06676 0
M  V30 2395 H 237.702 2.45972 0.661037 0
M  V30 2396 H 238.485 3.34916 -0.754069 0
M  V30 2397 N 240.93 -0.123565 1.57115 0
M  V30 2398 C 242.155 -0.850398 1.89164 0
M  V30 2399 C 242.58 -1.7286 0.741688 0
M  V30 2400 O 241.938 -1.78665 -0.307958 0
M  V30 2401 C 241.986 -1.66353 3.19936 0
M  V30 2402 O 241.09 -2.77004 3.0552 0
M  V30 2403 H 240.431 -0.235454 0.620852 0
M  V30 2404 H 242.961 -0.107335 2.04318 0
M  V30 2405 H 242.971 -2.05372 3.52543 0
M  V30 2406 H 241.646 -1.01881 4.03228 0
M  V30 2407 H 240.223 -2.41221 2.84371 0
M  V30 2408 N 242.408 -1.52605 -0.393616 0
M  V30 2409 C 243.655 -1.67424 -1.1391 0
M  V30 2410 C 243.983 -0.411859 -1.90089 0
M  V30 2411 O 243.238 0.605626 -1.86093 0
M  V30 2412 C 243.537 -2.85721 -2.14705 0
M  V30 2413 C 243.203 -4.23342 -1.55218 0
M  V30 2414 C 241.865 -4.60771 -1.3872 0
M  V30 2415 C 244.217 -5.09041 -1.11924 0
M  V30 2416 C 241.545 -5.81563 -0.774689 0
M  V30 2417 C 243.897 -6.30452 -0.520853 0
M  V30 2418 C 242.561 -6.66617 -0.343134 0
M  V30 2419 H 241.831 -0.612648 -0.416826 0
M  V30 2420 H 244.478 -1.8674 -0.424315 0
M  V30 2421 H 242.783 -2.60803 -2.92385 0
M  V30 2422 H 244.48 -2.94382 -2.72288 0
M  V30 2423 H 241.07 -3.93855 -1.69045 0
M  V30 2424 H 245.254 -4.80695 -1.23473 0
M  V30 2425 H 240.51 -6.08196 -0.625154 0
M  V30 2426 H 244.684 -6.96175 -0.177065 0
M  V30 2427 H 242.311 -7.60083 0.133571 0
M  V30 2428 N 243.887 0.651787 -1.4349 0
M  V30 2429 C 245.136 1.40754 -1.44469 0
M  V30 2430 C 245.449 1.95463 -0.0731845 0
M  V30 2431 O 246.655 2.71471 0.0395721 0
M  V30 2432 C 245.111 2.54735 -2.5424 0
M  V30 2433 C 244.719 2.06628 -3.97504 0
M  V30 2434 C 246.463 3.32092 -2.64414 0
M  V30 2435 C 244.37 3.17829 -4.98737 0
M  V30 2436 H 243.3 0.528862 -0.53742 0
M  V30 2437 H 245.951 0.703365 -1.69485 0
M  V30 2438 H 244.333 3.2763 -2.22428 0
M  V30 2439 H 245.507 1.40734 -4.38783 0
M  V30 2440 H 243.822 1.42146 -3.91387 0
M  V30 2441 H 246.419 4.14952 -3.37223 0
M  V30 2442 H 246.762 3.80217 -1.69532 0
M  V30 2443 H 247.295 2.66279 -2.95534 0
M  V30 2444 H 244.034 2.74671 -5.95177 0
M  V30 2445 H 243.554 3.82429 -4.62069 0
M  V30 2446 H 245.233 3.82937 -5.21505 0
M  V30 2447 N 245.365 1.30045 0.890287 0
M  V30 2448 C 246.59 1.21598 1.68014 0
M  V30 2449 C 247.015 -0.218678 1.86825 0
M  V30 2450 O 246.373 -1.15756 1.39536 0
M  V30 2451 C 246.421 1.94434 3.03691 0
M  V30 2452 O 245.525 1.2678 3.92429 0
M  V30 2453 H 244.866 0.420856 0.513592 0
M  V30 2454 H 247.396 1.71775 1.11151 0
M  V30 2455 H 247.406 2.03251 3.5377 0
M  V30 2456 H 246.081 2.98777 2.89318 0
M  V30 2457 H 244.658 1.26282 3.50866 0
M  V30 2458 N 246.843 -1.10192 1.12674 0
M  V30 2459 C 247.773 -2.18652 0.819362 0
M  V30 2460 C 248.754 -1.68698 -0.217915 0
M  V30 2461 O 249.939 -1.94041 -0.0785581 0
M  V30 2462 C 247.069 -3.46202 0.27594 0
M  V30 2463 C 246.023 -4.09444 1.24656 0
M  V30 2464 C 245.349 -5.31725 0.563258 0
M  V30 2465 C 246.649 -4.52863 2.60217 0
M  V30 2466 H 248.343 -2.44622 1.72628 0
M  V30 2467 H 245.889 -1.17571 0.831451 0
M  V30 2468 H 247.842 -4.21372 0.0486149 0
M  V30 2469 H 246.566 -3.1973 -0.666331 0
M  V30 2470 H 245.225 -3.36284 1.45974 0
M  V30 2471 H 244.873 -5.0153 -0.384235 0
M  V30 2472 H 244.573 -5.74991 1.21075 0
M  V30 2473 H 246.097 -6.09624 0.34503 0
M  V30 2474 H 247.511 -5.19294 2.42913 0
M  V30 2475 H 245.908 -5.06986 3.21068 0
M  V30 2476 H 246.978 -3.65656 3.18471 0
M  V30 2477 N 248.321 -0.919034 -1.28029 0
M  V30 2478 C 249.732 -0.600735 -1.76771 0
M  V30 2479 C 250.083 0.884024 -1.75156 0
M  V30 2480 O 249.208 1.69163 -1.34956 0
M  V30 2481 C 249.803 -1.08372 -3.21 0
M  V30 2482 C 248.362 -0.816248 -3.67443 0
M  V30 2483 C 247.509 -1.24742 -2.47658 0
M  V30 2484 H 250.46 -1.09974 -1.14418 0
M  V30 2485 H 250.481 -0.427512 -3.78091 0
M  V30 2486 H 249.993 -2.16437 -3.22144 0
M  V30 2487 H 248.094 0.250968 -3.71754 0
M  V30 2488 H 248.207 -1.4277 -4.57333 0
M  V30 2489 H 246.571 -0.666083 -2.45836 0
M  V30 2490 H 247.354 -2.33653 -2.51518 0
M  V30 2491 N 249.799 1.42003 -0.683588 0
M  V30 2492 C 251.045 2.01712 -0.209825 0
M  V30 2493 C 251.378 1.53968 1.18353 0
M  V30 2494 O 250.653 0.745661 1.79639 0
M  V30 2495 C 250.936 3.59202 -0.254197 0
M  V30 2496 C 250.789 4.17102 -1.68363 0
M  V30 2497 C 252.108 4.38344 0.392709 0
M  V30 2498 H 249.227 0.732891 -0.0777189 0
M  V30 2499 H 251.869 1.68909 -0.87004 0
M  V30 2500 H 250.019 3.87278 0.307954 0
M  V30 2501 H 251.691 3.99946 -2.29871 0
M  V30 2502 H 249.934 3.72597 -2.22157 0
M  V30 2503 H 250.605 5.26249 -1.6663 0
M  V30 2504 H 253.081 4.16011 -0.0859162 0
M  V30 2505 H 251.957 5.47901 0.331063 0
M  V30 2506 H 252.218 4.16887 1.47164 0
M  V30 2507 N 251.277 0.427512 1.51691 0
M  V30 2508 C 252.554 -0.201684 1.94557 0
M  V30 2509 C 252.934 -1.60981 1.36559 0
M  V30 2510 O 252.282 -2.21814 0.548702 0
M  V30 2511 C 252.492 -0.189394 3.48486 0
M  V30 2512 C 253.84 -0.39978 4.22714 0
M  V30 2513 O 254.864 -0.267945 3.55191 0
M  V30 2514 O 253.723 -0.661249 5.42485 0
M  V30 2515 H 250.817 -0.135261 0.815864 0
M  V30 2516 H 253.363 0.484782 1.62628 0
M  V30 2517 H 252.135 0.795431 3.8313 0
M  V30 2518 H 251.758 -0.919187 3.86829 0
M  V30 2519 N 252.755 -1.56801 0.158532 0
M  V30 2520 C 253.685 -2.20347 -0.772609 0
M  V30 2521 C 254.666 -1.15518 -1.24859 0
M  V30 2522 O 255.851 -1.43902 -1.30406 0
M  V30 2523 C 252.981 -2.83417 -2.00729 0
M  V30 2524 C 251.935 -3.94174 -1.66765 0
M  V30 2525 C 251.261 -4.44233 -2.97592 0
M  V30 2526 C 252.561 -5.14392 -0.905447 0
M  V30 2527 H 254.255 -2.98413 -0.242959 0
M  V30 2528 H 251.801 -1.43537 -0.115419 0
M  V30 2529 H 253.754 -3.26543 -2.6636 0
M  V30 2530 H 252.478 -2.02701 -2.56086 0
M  V30 2531 H 251.137 -3.51684 -1.03508 0
M  V30 2532 H 250.785 -3.60325 -3.50963 0
M  V30 2533 H 250.485 -5.18945 -2.75626 0
M  V30 2534 H 252.009 -4.90037 -3.64274 0
M  V30 2535 H 253.423 -5.5429 -1.46408 0
M  V30 2536 H 251.82 -5.9494 -0.7853 0
M  V30 2537 H 252.89 -4.84795 0.100668 0
M  V30 2538 N 254.233 0.115231 -1.57178 0
M  V30 2539 C 255.163 1.1423 -2.03651 0
M  V30 2540 C 256.144 1.42967 -0.921655 0
M  V30 2541 O 257.329 1.53343 -1.19162 0
M  V30 2542 C 254.459 2.4675 -2.44401 0
M  V30 2543 C 253.413 2.32467 -3.59365 0
M  V30 2544 C 252.739 3.69984 -3.86026 0
M  V30 2545 C 254.039 1.78203 -4.90959 0
M  V30 2546 H 255.733 0.755749 -2.89705 0
M  V30 2547 H 253.279 0.362093 -1.39373 0
M  V30 2548 H 255.232 3.18854 -2.75517 0
M  V30 2549 H 253.956 2.87302 -1.55322 0
M  V30 2550 H 252.615 1.62811 -3.28463 0
M  V30 2551 H 252.263 4.08028 -2.94147 0
M  V30 2552 H 251.963 3.61279 -4.63412 0
M  V30 2553 H 253.487 4.43587 -4.19599 0
M  V30 2554 H 254.901 2.40128 -5.20587 0
M  V30 2555 H 253.298 1.8031 -5.72371 0
M  V30 2556 H 254.368 0.739876 -4.79222 0
M  V30 2557 N 255.711 1.52812 0.385517 0
M  V30 2558 C 256.959 1.67694 1.12797 0
M  V30 2559 C 257.28 0.421115 1.90399 0
M  V30 2560 O 256.55 -0.564551 1.87589 0
M  V30 2561 H 255.13 0.618155 0.419396 0
M  V30 2562 H 257.792 1.89938 0.436972 0
M  V30 2563 H 256.888 2.52896 1.82894 0
M  V30 2564 N 257.189 -0.644168 1.43834 0
M  V30 2565 C 258.414 -1.43642 1.49605 0
M  V30 2566 C 258.839 -1.8773 0.117913 0
M  V30 2567 O 258.197 -1.57938 -0.890239 0
M  V30 2568 C 258.245 -2.6416 2.45463 0
M  V30 2569 O 257.349 -3.63538 1.94714 0
M  V30 2570 H 256.69 -0.430329 0.50568 0
M  V30 2571 H 259.22 -0.787448 1.8884 0
M  V30 2572 H 259.23 -3.11864 2.63068 0
M  V30 2573 H 257.905 -2.31414 3.45572 0
M  V30 2574 H 256.482 -3.2273 1.86814 0
M  V30 2575 N 258.668 -1.30515 -0.883378 0
M  V30 2576 C 259.893 -1.22487 -1.67367 0
M  V30 2577 C 260.318 0.208767 -1.86938 0
M  V30 2578 O 259.676 1.15015 -1.40148 0
M  V30 2579 C 259.724 -1.96041 -3.02655 0
M  V30 2580 O 258.828 -1.28859 -3.91751 0
M  V30 2581 H 258.169 -0.423573 -0.511353 0
M  V30 2582 H 260.699 -1.72362 -1.10239 0
M  V30 2583 H 260.709 -2.05124 -3.52687 0
M  V30 2584 H 259.384 -3.00307 -2.8773 0
M  V30 2585 H 257.961 -1.28141 -3.50192 0
M  V30 2586 N 260.146 1.09593 -1.13257 0
M  V30 2587 C 261.056 2.19739 -0.821691 0
M  V30 2588 C 262.072 1.72926 0.19302 0
M  V30 2589 O 263.248 2.01385 0.0244895 0
M  V30 2590 C 260.313 3.45482 -0.290333 0
M  V30 2591 C 259.374 4.06985 -1.36607 0
M  V30 2592 C 258.607 5.26726 -0.859975 0
M  V30 2593 O 258.83 5.69594 0.303082 0
M  V30 2594 O 257.764 5.7931 -1.63351 0
M  V30 2595 H 261.59 2.48781 -1.74189 0
M  V30 2596 H 259.175 1.18496 -0.909894 0
M  V30 2597 H 261.057 4.214 0.000674022 0
M  V30 2598 H 259.732 3.18047 0.602306 0
M  V30 2599 H 258.639 3.32712 -1.71037 0
M  V30 2600 H 259.972 4.38643 -2.23279 0
M  V30 2601 N 261.624 0.925811 1.2754 0
M  V30 2602 C 262.872 0.564138 1.94067 0
M  V30 2603 C 263.193 -0.897188 1.73134 0
M  V30 2604 O 262.463 -1.63573 1.07799 0
M  V30 2605 H 261.043 0.205645 0.718136 0
M  V30 2606 H 263.705 1.1778 1.55287 0
M  V30 2607 H 262.801 0.76881 3.02483 0
M  V30 2608 N 263.102 -1.41638 0.69111 0
M  V30 2609 C 264.351 -2.00526 0.217318 0
M  V30 2610 C 264.664 -1.55353 -1.18848 0
M  V30 2611 O 265.87 -2.06769 -1.75951 0
M  V30 2612 C 264.326 -3.58313 0.337639 0
M  V30 2613 C 263.934 -4.12469 1.74852 0
M  V30 2614 C 265.678 -4.24431 -0.0766066 0
M  V30 2615 C 263.585 -5.62675 1.82074 0
M  V30 2616 H 262.515 -0.750008 0.0774893 0
M  V30 2617 H 265.166 -1.6217 0.858661 0
M  V30 2618 H 263.548 -3.9425 -0.371879 0
M  V30 2619 H 264.722 -3.8796 2.48644 0
M  V30 2620 H 263.037 -3.58861 2.11205 0
M  V30 2621 H 265.634 -5.34683 -0.0430284 0
M  V30 2622 H 265.977 -4.01101 -1.1146 0
M  V30 2623 H 266.51 -3.93512 0.582476 0
M  V30 2624 H 263.249 -5.90826 2.83911 0
M  V30 2625 H 262.769 -5.89124 1.12661 0
M  V30 2626 H 264.448 -6.27371 1.58159 0
M  V30 2627 N 264.58 -0.43555 -1.51462 0
M  V30 2628 C 265.857 0.191364 -1.94662 0
M  V30 2629 C 266.237 1.60254 -1.37411 0
M  V30 2630 O 265.585 2.2152 -0.560458 0
M  V30 2631 C 265.795 0.17091 -3.48581 0
M  V30 2632 C 267.143 0.377357 -4.2292 0
M  V30 2633 O 268.167 0.249104 -3.55328 0
M  V30 2634 O 267.026 0.63247 -5.42828 0
M  V30 2635 H 264.12 0.130932 -0.816569 0
M  V30 2636 H 266.666 -0.4934 -1.62369 0
M  V30 2637 H 265.438 -0.815738 -3.82703 0
M  V30 2638 H 265.061 0.898659 -3.87311 0
M  V30 2639 N 266.058 1.56714 -0.166846 0
M  V30 2640 C 267.286 2.0112 0.485644 0
M  V30 2641 C 267.701 1.04705 1.57106 0
M  V30 2642 O 267.058 0.0471923 1.82439 0
M  V30 2643 C 267.109 3.45361 1.06808 0
M  V30 2644 O 266.83 4.38092 0.0259995 0
M  V30 2645 C 268.331 4.05145 1.79924 0
M  V30 2646 H 265.551 0.65931 0.124704 0
M  V30 2647 H 268.095 2.02746 -0.267262 0
M  V30 2648 H 266.25 3.44524 1.7715 0
M  V30 2649 H 266.664 5.22519 0.455398 0
M  V30 2650 H 268.138 5.08009 2.15942 0
M  V30 2651 H 268.615 3.46982 2.69258 0
M  V30 2652 H 269.221 4.09672 1.14234 0
M  V30 2653 N 267.536 -0.106894 1.57237 0
M  V30 2654 C 268.764 -0.826389 1.8968 0
M  V30 2655 C 269.179 -1.72856 0.759353 0
M  V30 2656 O 268.536 -1.80503 -0.269263 0
M  V30 2657 C 268.587 -1.64967 3.21665 0
M  V30 2658 O 268.308 -0.783804 4.31031 0
M  V30 2659 C 269.809 -2.47326 3.67892 0
M  V30 2660 H 267.029 -0.236927 0.627779 0
M  V30 2661 H 269.573 -0.0876593 2.04312 0
M  V30 2662 H 267.728 -2.34103 3.08666 0
M  V30 2663 H 268.142 -1.35284 5.06753 0
M  V30 2664 H 269.616 -3.00604 4.6297 0
M  V30 2665 H 270.093 -3.25247 2.95146 0
M  V30 2666 H 270.699 -1.83411 3.83719 0
M  V30 2667 N 269.014 -1.53014 -0.377408 0
M  V30 2668 C 270.26 -1.68872 -1.12294 0
M  V30 2669 C 270.593 -0.433224 -1.89306 0
M  V30 2670 O 269.868 0.569258 -1.85983 0
M  V30 2671 C 270.151 -2.93115 -2.09179 0
M  V30 2672 C 270.004 -4.28794 -1.35853 0
M  V30 2673 C 271.323 -3.12928 -3.09458 0
M  V30 2674 H 268.442 -0.614518 -0.406862 0
M  V30 2675 H 271.084 -1.85633 -0.40503 0
M  V30 2676 H 269.234 -2.78956 -2.70399 0
M  V30 2677 H 270.906 -4.54742 -0.775082 0
M  V30 2678 H 269.149 -4.28744 -0.660364 0
M  V30 2679 H 269.82 -5.11837 -2.06706 0
M  V30 2680 H 272.296 -3.26194 -2.58334 0
M  V30 2681 H 271.172 -4.01316 -3.74482 0
M  V30 2682 H 271.433 -2.27669 -3.78971 0
M  V30 2683 N 270.492 0.636531 -1.44174 0
M  V30 2684 C 271.903 1.21806 -1.41493 0
M  V30 2685 C 272.254 1.95785 -0.1275 0
M  V30 2686 O 271.379 2.02147 0.772376 0
M  V30 2687 C 271.974 2.21551 -2.56321 0
M  V30 2688 C 270.533 2.75143 -2.56853 0
M  V30 2689 C 269.68 1.50052 -2.33195 0
M  V30 2690 H 272.631 0.427531 -1.52833 0
M  V30 2691 H 272.652 3.0405 -2.28765 0
M  V30 2692 H 272.164 1.67679 -3.50008 0
M  V30 2693 H 270.265 3.33033 -1.67093 0
M  V30 2694 H 270.378 3.2155 -3.55165 0
M  V30 2695 H 268.742 1.77993 -1.82183 0
M  V30 2696 H 269.525 0.980903 -3.28988 0
M  V30 2697 N 271.97 1.30982 0.876444 0
M  V30 2698 C 272.918 1.18006 2.00443 0
M  V30 2699 C 273.912 0.0898871 1.69161 0
M  V30 2700 O 275.118 0.251333 1.78237 0
M  V30 2701 H 271.493 0.365196 0.65737 0
M  V30 2702 H 273.464 2.13453 2.0852 0
M  V30 2703 C 272.213 0.897521 3.35916 0
M  V30 2704 H 271.536 1.7285 3.60504 0
M  V30 2705 H 272.976 0.846874 4.15456 0
M  V30 2706 C 271.435 -0.399674 3.34521 0
M  V30 2707 O 271.965 -1.41852 3.7582 0
M  V30 2708 N 270.171 -0.413893 2.87637 0
M  V30 2709 H 269.718 0.41571 2.54224 0
M  V30 2710 H 269.676 -1.28175 2.87086 0
M  V30 2711 N 273.449 -1.08991 1.13837 0
M  V30 2712 C 274.86 -1.62746 0.914917 0
M  V30 2713 C 275.211 -1.88403 -0.547594 0
M  V30 2714 O 274.336 -1.63706 -1.41525 0
M  V30 2715 C 274.931 -2.95662 1.65437 0
M  V30 2716 C 273.49 -3.46225 1.47666 0
M  V30 2717 C 272.637 -2.20562 1.6807 0
M  V30 2718 H 275.588 -0.922946 1.29102 0
M  V30 2719 H 275.609 -3.63825 1.11407 0
M  V30 2720 H 275.121 -2.76956 2.71877 0
M  V30 2721 H 273.222 -3.70046 0.435478 0
M  V30 2722 H 273.335 -4.23368 2.24268 0
M  V30 2723 H 271.699 -2.29439 1.10589 0
M  V30 2724 H 272.482 -2.0437 2.7584 0
M  V30 2725 N 274.927 -0.932562 -1.27047 0
M  V30 2726 C 276.338 -0.619451 -1.76124 0
M  V30 2727 C 276.689 0.865397 -1.76083 0
M  V30 2728 O 275.814 1.67722 -1.36742 0
M  V30 2729 C 276.409 -1.11771 -3.19832 0
M  V30 2730 C 274.968 -0.855174 -3.66557 0
M  V30 2731 C 274.115 -1.27362 -2.46321 0
M  V30 2732 H 277.066 -1.11181 -1.13245 0
M  V30 2733 H 277.087 -0.46759 -3.77616 0
M  V30 2734 H 276.599 -2.19842 -3.1983 0
M  V30 2735 H 274.7 0.211524 -3.71999 0
M  V30 2736 H 274.813 -1.47613 -4.55793 0
M  V30 2737 H 273.177 -0.692119 -2.45116 0
M  V30 2738 H 273.96 -2.36307 -2.49025 0
M  V30 2739 N 276.405 1.4127 -0.698611 0
M  V30 2740 C 277.368 2.29158 -0.044132 0
M  V30 2741 C 278.368 1.44529 0.704841 0
M  V30 2742 O 279.558 1.65643 0.539276 0
M  V30 2743 C 276.69 3.27459 0.947809 0
M  V30 2744 H 277.883 2.88529 -0.817994 0
M  V30 2745 H 275.436 1.49307 -0.46228 0
M  V30 2746 H 276.171 2.73073 1.74933 0
M  V30 2747 H 275.956 3.8991 0.41385 0
M  V30 2748 H 277.446 3.93311 1.40344 0
M  V30 2749 N 277.883 0.443576 1.51229 0
M  V30 2750 C 278.831 -0.37904 2.29491 0
M  V30 2751 C 279.825 -1.0153 1.35603 0
M  V30 2752 O 281.031 -0.94955 1.52917 0
M  V30 2753 H 277.406 -0.141053 0.738653 0
M  V30 2754 H 279.377 0.301799 2.9687 0
M  V30 2755 C 278.126 -1.46426 3.15364 0
M  V30 2756 H 277.449 -0.984037 3.87501 0
M  V30 2757 H 278.889 -2.01297 3.7317 0
M  V30 2758 C 277.348 -2.45099 2.31146 0
M  V30 2759 O 277.878 -3.49773 1.9754 0
M  V30 2760 N 276.084 -2.16139 1.94249 0
M  V30 2761 H 275.631 -1.31044 2.21777 0
M  V30 2762 H 275.589 -2.82398 1.38198 0
M  V30 2763 N 279.361 -1.56624 0.175154 0
M  V30 2764 C 280.589 -2.01374 -0.474971 0
M  V30 2765 C 281.004 -1.05537 -1.56548 0
M  V30 2766 O 280.361 -0.0568668 -1.82411 0
M  V30 2767 C 280.412 -3.45923 -1.04975 0
M  V30 2768 O 280.133 -4.381 -0.00276605 0
M  V30 2769 C 281.634 -4.06093 -1.77773 0
M  V30 2770 H 278.854 -0.659962 -0.121206 0
M  V30 2771 H 281.398 -2.02601 0.27801 0
M  V30 2772 H 279.553 -3.45458 -1.75321 0
M  V30 2773 H 279.967 -5.22753 -0.427681 0
M  V30 2774 H 281.441 -5.09147 -2.13245 0
M  V30 2775 H 281.918 -3.48405 -2.67414 0
M  V30 2776 H 282.524 -4.10272 -1.12059 0
M  V30 2777 N 280.839 0.0985539 -1.57292 0
M  V30 2778 C 282.25 0.653457 -1.74891 0
M  V30 2779 C 282.601 1.7929 -0.796838 0
M  V30 2780 O 281.726 2.16385 0.0254886 0
M  V30 2781 C 282.321 1.19216 -3.17133 0
M  V30 2782 C 280.88 1.69316 -3.36168 0
M  V30 2783 C 280.027 0.601294 -2.70702 0
M  V30 2784 H 282.978 -0.127497 -1.58187 0
M  V30 2785 H 282.999 2.06154 -3.19814 0
M  V30 2786 H 282.511 0.362635 -3.86402 0
M  V30 2787 H 280.612 2.5468 -2.71972 0
M  V30 2788 H 280.725 1.78853 -4.44464 0
M  V30 2789 H 279.089 1.0399 -2.32504 0
M  V30 2790 H 279.872 -0.217592 -3.4261 0
M  V30 2791 N 282.317 1.53212 0.369288 0
M  V30 2792 C 283.28 1.7872 1.43498 0
M  V30 2793 C 284.28 0.657554 1.46741 0
M  V30 2794 O 285.47 0.925736 1.47566 0
M  V30 2795 C 282.602 1.90591 2.82645 0
M  V30 2796 H 283.795 2.73894 1.22156 0
M  V30 2797 H 281.348 1.44233 0.602203 0
M  V30 2798 H 282.083 0.974709 3.09306 0
M  V30 2799 H 281.868 2.72751 2.8169 0
M  V30 2800 H 283.358 2.11931 3.59826 0
M  V30 2801 N 283.795 -0.628877 1.44509 0
M  V30 2802 C 284.742 -1.74074 1.51549 0
M  V30 2803 C 285.712 -1.62084 0.363021 0
M  V30 2804 O 286.897 -1.81975 0.573567 0
M  V30 2805 C 284.037 -3.12328 1.46784 0
M  V30 2806 C 283.15 -3.35277 2.72422 0
M  V30 2807 C 282.285 -4.63515 2.59475 0
M  V30 2808 C 281.324 -4.7965 3.80266 0
M  V30 2809 N 280.461 -5.99168 3.65981 0
M  V30 2810 H 285.301 -1.67392 2.46544 0
M  V30 2811 H 282.838 -0.816527 1.22357 0
M  V30 2812 H 284.796 -3.92286 1.42012 0
M  V30 2813 H 283.426 -3.18018 0.553544 0
M  V30 2814 H 282.478 -2.49242 2.87372 0
M  V30 2815 H 283.79 -3.43078 3.62076 0
M  V30 2816 H 282.944 -5.51638 2.52548 0
M  V30 2817 H 281.683 -4.58076 1.67384 0
M  V30 2818 H 280.688 -3.89957 3.87574 0
M  V30 2819 H 281.913 -4.86902 4.73395 0
M  V30 2820 H 279.859 -5.94814 2.76644 0
M  V30 2821 H 279.776 -6.08035 4.49254 0
M  V30 2822 H 281.044 -6.89846 3.6295 0
M  V30 2823 N 285.273 -1.31445 -0.869486 0
M  V30 2824 C 286.684 -1.19042 -1.43826 0
M  V30 2825 C 287.035 0.202919 -1.95148 0
M  V30 2826 O 286.16 1.10071 -1.86315 0
M  V30 2827 C 286.755 -2.15499 -2.6143 0
M  V30 2828 C 285.314 -2.07028 -3.14351 0
M  V30 2829 C 284.461 -2.04701 -1.87063 0
M  V30 2830 H 287.412 -1.43489 -0.677984 0
M  V30 2831 H 287.433 -1.74488 -3.38134 0
M  V30 2832 H 286.945 -3.16899 -2.24046 0
M  V30 2833 H 285.046 -1.08825 -3.56354 0
M  V30 2834 H 285.159 -2.96157 -3.766 0
M  V30 2835 H 283.523 -1.49724 -2.06046 0
M  V30 2836 H 284.306 -3.07857 -1.51917 0
M  V30 2837 N 286.751 1.08385 -1.14413 0
M  V30 2838 C 287.997 1.81044 -0.913834 0
M  V30 2839 C 288.33 1.86004 0.558209 0
M  V30 2840 O 287.605 1.33606 1.4135 0
M  V30 2841 C 287.888 3.26648 -1.51569 0
M  V30 2842 C 287.741 3.29895 -3.0576 0
M  V30 2843 C 289.06 4.23629 -1.19273 0
M  V30 2844 H 286.179 0.65727 -0.333414 0
M  V30 2845 H 288.821 1.26896 -1.41412 0
M  V30 2846 H 286.971 3.72889 -1.09023 0
M  V30 2847 H 288.643 2.91977 -3.57137 0
M  V30 2848 H 286.886 2.69163 -3.40197 0
M  V30 2849 H 287.557 4.32516 -3.42977 0
M  V30 2850 H 290.033 3.85727 -1.56057 0
M  V30 2851 H 288.909 5.23822 -1.64017 0
M  V30 2852 H 289.17 4.41968 -0.108068 0
M  V30 2853 N 288.23 0.939286 1.26551 0
M  V30 2854 C 289.478 0.58469 1.93457 0
M  V30 2855 C 289.799 -0.878774 1.74076 0
M  V30 2856 O 289.069 -1.62421 1.09528 0
M  V30 2857 H 287.649 0.21325 0.715914 0
M  V30 2858 H 290.311 1.1942 1.54029 0
M  V30 2859 H 289.407 0.800849 3.0165 0
M  V30 2860 N 289.708 -1.40897 0.706093 0
M  V30 2861 C 290.954 -2.01352 0.241889 0
M  V30 2862 C 291.287 -1.55832 -1.15888 0
M  V30 2863 O 290.562 -0.774145 -1.7843 0
M  V30 2864 C 290.845 -3.58752 0.311311 0
M  V30 2865 C 290.698 -4.1437 1.74978 0
M  V30 2866 C 292.017 -4.38914 -0.322922 0
M  V30 2867 H 289.136 -0.731562 0.0893687 0
M  V30 2868 H 291.778 -1.67504 0.896802 0
M  V30 2869 H 289.928 -3.87718 -0.246302 0
M  V30 2870 H 291.6 -3.96239 2.36205 0
M  V30 2871 H 289.843 -3.69016 2.28057 0
M  V30 2872 H 290.514 -5.23532 1.74981 0
M  V30 2873 H 292.99 -4.15822 0.152089 0
M  V30 2874 H 291.866 -5.48358 -0.243855 0
M  V30 2875 H 292.127 -4.19176 -1.40513 0
M  V30 2876 N 291.186 -0.45159 -1.50991 0
M  V30 2877 C 292.432 0.110237 -2.025 0
M  V30 2878 C 292.765 1.41109 -1.33424 0
M  V30 2879 O 292.04 1.89135 -0.453659 0
M  V30 2880 C 292.323 0.314271 -3.58726 0
M  V30 2881 C 292.176 -1.00623 -4.38401 0
M  V30 2882 C 293.495 1.07767 -4.26702 0
M  V30 2883 H 290.614 0.0385897 -0.735989 0
M  V30 2884 H 293.256 -0.593374 -1.80497 0
M  V30 2885 H 291.406 0.913601 -3.77605 0
M  V30 2886 H 293.078 -1.64064 -4.31139 0
M  V30 2887 H 291.321 -1.6075 -4.02917 0
M  V30 2888 H 291.992 -0.817341 -5.45915 0
M  V30 2889 H 294.468 0.56986 -4.12179 0
M  V30 2890 H 293.344 1.18921 -5.35863 0
M  V30 2891 H 293.605 2.10939 -3.88532 0
M  V30 2892 N 292.664 1.56529 -0.183458 0
M  V30 2893 C 293.627 2.17324 0.728223 0
M  V30 2894 C 294.627 1.12453 1.14939 0
M  V30 2895 O 295.817 1.37902 1.06437 0
M  V30 2896 C 292.949 2.76591 1.99274 0
M  V30 2897 H 294.142 2.99241 0.198772 0
M  V30 2898 H 291.695 1.5616 0.0661391 0
M  V30 2899 H 292.43 1.98441 2.56499 0
M  V30 2900 H 292.215 3.5335 1.69959 0
M  V30 2901 H 293.705 3.23311 2.6431 0
M  V30 2902 N 294.142 -0.090211 1.57342 0
M  V30 2903 C 295.419 -0.824761 1.77361 0
M  V30 2904 C 295.799 -1.96698 0.76637 0
M  V30 2905 O 295.147 -2.27586 -0.204179 0
M  V30 2906 C 295.357 -1.31481 3.23286 0
M  V30 2907 C 296.705 -1.75563 3.86604 0
M  V30 2908 O 297.729 -1.41093 3.27065 0
M  V30 2909 O 296.588 -2.39317 4.91314 0
M  V30 2910 H 293.682 -0.393776 0.727234 0
M  V30 2911 H 296.228 -0.0717138 1.69548 0
M  V30 2912 H 295 -0.496671 3.88135 0
M  V30 2913 H 294.623 -2.12973 3.35751 0
M  V30 2914 N 295.62 -1.53406 -0.361157 0
M  V30 2915 C 296.868 -1.69467 -1.10115 0
M  V30 2916 C 297.189 -0.451352 -1.89705 0
M  V30 2917 O 296.459 0.534636 -1.88463 0
M  V30 2918 H 295.039 -0.624749 -0.409508 0
M  V30 2919 H 297.701 -1.90609 -0.406699 0
M  V30 2920 H 296.797 -2.55774 -1.78847 0
M  V30 2921 N 297.098 0.621204 -1.44841 0
M  V30 2922 C 298.344 1.38073 -1.49357 0
M  V30 2923 C 298.699 1.91973 -0.128115 0
M  V30 2924 O 297.992 1.71311 0.858087 0
M  V30 2925 C 298.186 2.55675 -2.4973 0
M  V30 2926 C 298.015 2.13289 -3.95901 0
M  V30 2927 C 296.785 2.001 -4.63991 0
M  V30 2928 C 298.983 1.7159 -4.84831 0
M  V30 2929 N 296.965 1.51381 -5.94943 0
M  V30 2930 C 298.336 1.34188 -6.05304 0
M  V30 2931 C 300.391 1.59059 -4.7181 0
M  V30 2932 C 299.094 0.855085 -7.14199 0
M  V30 2933 C 301.12 1.11784 -5.8074 0
M  V30 2934 C 300.482 0.753385 -7.0036 0
M  V30 2935 H 296.581 0.499675 -0.601539 0
M  V30 2936 H 299.165 0.711609 -1.8123 0
M  V30 2937 H 297.336 3.20201 -2.19832 0
M  V30 2938 H 299.068 3.22509 -2.4448 0
M  V30 2939 H 295.823 2.20863 -4.18947 0
M  V30 2940 H 296.247 1.29293 -6.64539 0
M  V30 2941 H 300.889 1.85865 -3.79755 0
M  V30 2942 H 298.607 0.574552 -8.06055 0
M  V30 2943 H 302.193 1.02533 -5.72694 0
M  V30 2944 H 301.073 0.393183 -7.83214 0
M  V30 2945 N 298.576 1.31904 0.862503 0
M  V30 2946 C 299.508 1.16005 1.97675 0
M  V30 2947 C 300.521 0.0971234 1.6251 0
M  V30 2948 O 301.71 0.345337 1.75128 0
M  V30 2949 C 298.81 0.751791 3.30456 0
M  V30 2950 C 297.983 1.90133 3.93914 0
M  V30 2951 C 297.042 1.4779 5.05019 0
M  V30 2952 O 296.068 2.18872 5.25437 0
M  V30 2953 N 297.27 0.369491 5.79323 0
M  V30 2954 H 300.035 2.11982 2.11857 0
M  V30 2955 H 297.596 1.24337 1.03691 0
M  V30 2956 H 299.588 0.451084 4.02178 0
M  V30 2957 H 298.158 -0.116593 3.12382 0
M  V30 2958 H 297.378 2.36896 3.15078 0
M  V30 2959 H 298.666 2.67111 4.33047 0
M  V30 2960 H 298.064 -0.222299 5.65263 0
M  V30 2961 H 296.621 0.128354 6.51674 0
M  V30 2962 N 300.054 -1.07777 1.14986 0
M  V30 2963 C 301.001 -2.14867 0.842672 0
M  V30 2964 C 301.971 -1.6486 -0.202552 0
M  V30 2965 O 303.156 -1.90668 -0.0710568 0
M  V30 2966 C 300.296 -3.43486 0.333363 0
M  V30 2967 C 299.409 -4.07306 1.43965 0
M  V30 2968 C 298.544 -5.23744 0.886914 0
M  V30 2969 C 297.583 -5.79517 1.97043 0
M  V30 2970 N 296.72 -6.87291 1.4344 0
M  V30 2971 H 301.56 -2.40485 1.75986 0
M  V30 2972 H 299.097 -1.1801 0.878179 0
M  V30 2973 H 301.055 -4.17195 0.0198163 0
M  V30 2974 H 299.685 -3.18133 -0.546916 0
M  V30 2975 H 298.737 -3.31293 1.86946 0
M  V30 2976 H 300.049 -4.44771 2.25788 0
M  V30 2977 H 299.203 -6.04419 0.525651 0
M  V30 2978 H 297.942 -4.87685 0.0377957 0
M  V30 2979 H 296.947 -4.97491 2.34057 0
M  V30 2980 H 298.172 -6.17632 2.82325 0
M  V30 2981 H 296.118 -6.5318 0.607567 0
M  V30 2982 H 296.035 -7.23617 2.18895 0
M  V30 2983 H 297.303 -7.71682 1.10124 0
M  V30 2984 N 301.532 -0.945985 -1.26051 0
M  V30 2985 C 302.495 -0.463897 -2.24456 0
M  V30 2986 C 303.495 0.427655 -1.55009 0
M  V30 2987 O 304.685 0.226157 -1.72726 0
M  V30 2988 C 301.817 0.330812 -3.39291 0
M  V30 2989 H 303.01 -1.33357 -2.68619 0
M  V30 2990 H 300.563 -0.728416 -1.38289 0
M  V30 2991 H 301.298 1.21852 -3.00537 0
M  V30 2992 H 301.083 -0.308679 -3.90883 0
M  V30 2993 H 302.573 0.657865 -4.12386 0
M  V30 2994 N 303.011 1.40521 -0.713556 0
M  V30 2995 C 303.974 2.29098 -0.0684347 0
M  V30 2996 C 304.974 1.45268 0.689472 0
M  V30 2997 O 306.164 1.66205 0.521677 0
M  V30 2998 C 303.296 3.28446 0.913024 0
M  V30 2999 H 304.489 2.87645 -0.84855 0
M  V30 3000 H 302.042 1.48809 -0.47809 0
M  V30 3001 H 302.777 2.74913 1.72027 0
M  V30 3002 H 302.562 3.90327 0.372472 0
M  V30 3003 H 304.052 3.94777 1.36165 0
M  V30 3004 N 304.489 0.459591 1.5075 0
M  V30 3005 C 305.766 -0.160371 1.94941 0
M  V30 3006 C 306.146 -1.58048 1.39943 0
M  V30 3007 O 305.494 -2.206 0.595629 0
M  V30 3008 C 305.704 -0.115432 3.48809 0
M  V30 3009 C 307.052 -0.310026 4.23467 0
M  V30 3010 O 308.076 -0.192543 3.55679 0
M  V30 3011 O 306.935 -0.546031 5.43765 0
M  V30 3012 H 304.029 -0.117925 0.818549 0
M  V30 3013 H 306.575 0.519169 1.61563 0
M  V30 3014 H 305.347 0.87652 3.81357 0
M  V30 3015 H 304.97 -0.836928 3.88692 0
M  V30 3016 N 305.967 -1.56429 0.191757 0
M  V30 3017 C 306.899 -2.16154 -0.762245 0
M  V30 3018 C 307.912 -1.12247 -1.17917 0
M  V30 3019 O 309.101 -1.39353 -1.11548 0
M  V30 3020 C 306.201 -2.70606 -2.04024 0
M  V30 3021 C 305.374 -3.99381 -1.78364 0
M  V30 3022 C 304.433 -4.38692 -2.90578 0
M  V30 3023 O 303.459 -5.06179 -2.6033 0
M  V30 3024 N 304.661 -4.01922 -4.18854 0
M  V30 3025 H 307.426 -2.98643 -0.251526 0
M  V30 3026 H 304.987 -1.61897 0.00967373 0
M  V30 3027 H 306.979 -2.93891 -2.78227 0
M  V30 3028 H 305.549 -1.9259 -2.46227 0
M  V30 3029 H 304.769 -3.84262 -0.879581 0
M  V30 3030 H 306.057 -4.83445 -1.58614 0
M  V30 3031 H 305.455 -3.47631 -4.46283 0
M  V30 3032 H 304.012 -4.30165 -4.89695 0
M  V30 3033 N 307.445 0.0818655 -1.57387 0
M  V30 3034 C 308.408 1.08265 -2.02018 0
M  V30 3035 C 309.408 1.32183 -0.915664 0
M  V30 3036 O 310.598 1.28073 -1.18081 0
M  V30 3037 C 307.73 2.42871 -2.39221 0
M  V30 3038 H 308.923 0.698204 -2.91659 0
M  V30 3039 H 306.476 0.327303 -1.52835 0
M  V30 3040 H 307.211 2.86167 -1.52575 0
M  V30 3041 H 306.996 2.26855 -3.19811 0
M  V30 3042 H 308.486 3.14826 -2.74362 0
M  V30 3043 N 308.923 1.53595 0.353017 0
M  V30 3044 C 309.886 1.80232 1.41594 0
M  V30 3045 C 310.886 0.673081 1.46035 0
M  V30 3046 O 312.076 0.941335 1.46576 0
M  V30 3047 C 309.208 1.93578 2.80607 0
M  V30 3048 H 310.401 2.75174 1.19244 0
M  V30 3049 H 307.954 1.44864 0.586872 0
M  V30 3050 H 308.689 1.00746 3.08254 0
M  V30 3051 H 308.474 2.75724 2.78781 0
M  V30 3052 H 309.964 2.15735 3.57558 0
M  V30 3053 N 310.401 -0.613514 1.45168 0
M  V30 3054 C 311.364 -1.7065 1.53007 0
M  V30 3055 C 312.364 -1.5548 0.410184 0
M  V30 3056 O 313.554 -1.60656 0.673455 0
M  V30 3057 C 310.686 -3.09875 1.42093 0
M  V30 3058 H 311.879 -1.65068 2.50385 0
M  V30 3059 H 309.432 -0.828728 1.32521 0
M  V30 3060 H 310.167 -3.21039 0.458769 0
M  V30 3061 H 309.952 -3.22293 2.23315 0
M  V30 3062 H 311.442 -3.895 1.50598 0
M  V30 3063 N 311.879 -1.3236 -0.855495 0
M  V30 3064 C 312.809 -1.23833 -1.97958 0
M  V30 3065 C 313.79 -0.122361 -1.69659 0
M  V30 3066 O 314.975 -0.30939 -1.9172 0
M  V30 3067 C 312.105 -0.959772 -3.33775 0
M  V30 3068 C 311.059 -2.03689 -3.76424 0
M  V30 3069 C 310.385 -1.61075 -5.09862 0
M  V30 3070 C 311.685 -3.4518 -3.9198 0
M  V30 3071 H 313.379 -2.1788 -2.0535 0
M  V30 3072 H 310.925 -1.04891 -0.986605 0
M  V30 3073 H 312.878 -0.886678 -4.11966 0
M  V30 3074 H 311.602 0.0163404 -3.26596 0
M  V30 3075 H 310.261 -2.10012 -3.00484 0
M  V30 3076 H 309.909 -0.622107 -4.99138 0
M  V30 3077 H 309.609 -2.33143 -5.39368 0
M  V30 3078 H 311.133 -1.55201 -5.90546 0
M  V30 3079 H 312.547 -3.4145 -4.60526 0
M  V30 3080 H 310.944 -4.1559 -4.32903 0
M  V30 3081 H 312.014 -3.84903 -2.94919 0
M  V30 3082 N 313.357 1.07166 -1.15556 0
M  V30 3083 C 314.287 2.16403 -0.877046 0
M  V30 3084 C 315.268 1.69217 0.173111 0
M  V30 3085 O 316.453 1.94181 0.027084 0
M  V30 3086 C 313.583 3.45349 -0.367632 0
M  V30 3087 C 312.537 4.05995 -1.35468 0
M  V30 3088 C 311.863 5.30045 -0.704038 0
M  V30 3089 C 313.163 4.45804 -2.72132 0
M  V30 3090 H 314.857 2.39959 -1.79053 0
M  V30 3091 H 312.403 1.15325 -0.862331 0
M  V30 3092 H 314.356 4.21095 -0.160317 0
M  V30 3093 H 313.08 3.21385 0.581326 0
M  V30 3094 H 311.739 3.32296 -1.54839 0
M  V30 3095 H 311.387 5.02373 0.251128 0
M  V30 3096 H 311.087 5.71579 -1.36277 0
M  V30 3097 H 312.611 6.08495 -0.50654 0
M  V30 3098 H 314.025 5.12671 -2.56595 0
M  V30 3099 H 312.422 4.98296 -3.34397 0
M  V30 3100 H 313.492 3.57083 -3.28054 0
M  V30 3101 N 314.835 0.952656 1.25548 0
M  V30 3102 C 315.798 0.475794 2.24207 0
M  V30 3103 C 316.798 -0.419428 1.55234 0
M  V30 3104 O 317.988 -0.216994 1.72843 0
M  V30 3105 C 315.12 -0.312814 3.39462 0
M  V30 3106 H 316.313 1.34779 2.67908 0
M  V30 3107 H 313.866 0.735739 1.37901 0
M  V30 3108 H 314.601 -1.20257 3.01179 0
M  V30 3109 H 314.386 0.329404 3.90714 0
M  V30 3110 H 315.876 -0.635986 4.12729 0
M  V30 3111 N 316.313 -1.40141 0.720998 0
M  V30 3112 C 317.223 -2.34486 0.0731031 0
M  V30 3113 C 318.239 -1.57587 -0.737723 0
M  V30 3114 O 319.415 -1.89949 -0.669429 0
M  V30 3115 C 316.48 -3.36528 -0.833656 0
M  V30 3116 C 315.541 -4.29298 -0.0121673 0
M  V30 3117 C 314.774 -5.26466 -0.875742 0
M  V30 3118 O 314.997 -5.29745 -2.11485 0
M  V30 3119 O 313.931 -6.01092 -0.31185 0
M  V30 3120 H 317.757 -2.9152 0.851444 0
M  V30 3121 H 315.342 -1.41427 0.481527 0
M  V30 3122 H 317.224 -3.99093 -1.35289 0
M  V30 3123 H 315.899 -2.81899 -1.59105 0
M  V30 3124 H 314.806 -3.70001 0.552262 0
M  V30 3125 H 316.139 -4.87094 0.707129 0
M  V30 3126 N 317.792 -0.46758 -1.50504 0
M  V30 3127 C 318.755 0.317059 -2.26996 0
M  V30 3128 C 319.755 0.923513 -1.31635 0
M  V30 3129 O 320.945 0.793239 -1.55091 0
M  V30 3130 C 318.077 1.45134 -3.08462 0
M  V30 3131 H 319.27 -0.353723 -2.97807 0
M  V30 3132 H 316.823 -0.221545 -1.54722 0
M  V30 3133 H 317.558 2.15728 -2.4214 0
M  V30 3134 H 317.343 1.02232 -3.78538 0
M  V30 3135 H 318.833 2.00493 -3.66323 0
M  V30 3136 N 319.27 1.56325 -0.20005 0
M  V30 3137 C 320.217 2.1932 0.718833 0
M  V30 3138 C 321.187 1.14198 1.20615 0
M  V30 3139 O 322.372 1.42469 1.26914 0
M  V30 3140 C 319.512 2.86041 1.93066 0
M  V30 3141 C 318.625 4.05702 1.48425 0
M  V30 3142 C 317.76 4.60266 2.65196 0
M  V30 3143 C 316.799 5.72273 2.17185 0
M  V30 3144 N 315.936 6.21221 3.27152 0
M  V30 3145 H 320.776 2.97486 0.17489 0
M  V30 3146 H 318.313 1.46911 0.0745794 0
M  V30 3147 H 320.271 3.22897 2.64184 0
M  V30 3148 H 318.901 2.1043 2.44783 0
M  V30 3149 H 317.953 3.74475 0.668755 0
M  V30 3150 H 319.265 4.86699 1.09204 0
M  V30 3151 H 318.419 4.99453 3.4443 0
M  V30 3152 H 317.158 3.78386 3.07693 0
M  V30 3153 H 316.163 5.3261 1.36407 0
M  V30 3154 H 317.388 6.55974 1.75713 0
M  V30 3155 H 315.334 5.42263 3.69171 0
M  V30 3156 H 315.251 6.97284 2.92116 0
M  V30 3157 H 316.519 6.65063 4.06585 0
M  V30 3158 N 320.748 -0.0735177 1.57428 0
M  V30 3159 C 321.698 -1.09442 2.00016 0
M  V30 3160 C 322.682 -1.34575 0.881947 0
M  V30 3161 O 323.874 -1.34905 1.14585 0
M  V30 3162 C 321.003 -2.40865 2.4462 0
M  V30 3163 C 320.089 -2.19014 3.63172 0
M  V30 3164 N 320.48 -1.67087 4.77405 0
M  V30 3165 C 318.778 -2.49494 3.69688 0
M  V30 3166 C 319.479 -1.6001 5.5926 0
M  V30 3167 N 318.455 -2.05999 5.03056 0
M  V30 3168 H 322.257 -0.686227 2.85776 0
M  V30 3169 H 319.771 -0.280617 1.59957 0
M  V30 3170 H 321.768 -3.14763 2.73368 0
M  V30 3171 H 320.428 -2.82403 1.60246 0
M  V30 3172 H 321.439 -1.35975 4.99731 0
M  V30 3173 H 318.116 -2.94409 2.96023 0
M  V30 3174 H 319.506 -1.2073 6.60964 0
M  V30 3175 N 322.226 -1.5378 -0.344866 0
M  V30 3176 C 323.637 -1.62428 -0.920552 0
M  V30 3177 C 323.988 -0.504747 -1.89596 0
M  V30 3178 O 323.113 0.365711 -2.13287 0
M  V30 3179 C 323.708 -2.94419 -1.67639 0
M  V30 3180 C 322.267 -3.05333 -2.20111 0
M  V30 3181 C 321.414 -2.57866 -1.01982 0
M  V30 3182 H 324.365 -1.58222 -0.123042 0
M  V30 3183 H 324.386 -2.83384 -2.53917 0
M  V30 3184 H 323.898 -3.7588 -0.966224 0
M  V30 3185 H 321.999 -2.28502 -2.94308 0
M  V30 3186 H 322.112 -4.10778 -2.46573 0
M  V30 3187 H 320.476 -2.13241 -1.39285 0
M  V30 3188 H 321.259 -3.41765 -0.324308 0
M  V30 3189 N 323.704 0.605807 -1.45491 0
M  V30 3190 C 324.95 1.36679 -1.49823 0
M  V30 3191 C 325.283 1.93693 -0.140175 0
M  V30 3192 O 324.558 1.75158 0.845581 0
M  V30 3193 C 324.841 2.51337 -2.57879 0
M  V30 3194 C 324.694 1.99508 -4.03134 0
M  V30 3195 C 326.013 3.53463 -2.62205 0
M  V30 3196 H 323.132 0.495617 -0.545466 0
M  V30 3197 H 325.774 0.682732 -1.7731 0
M  V30 3198 H 323.924 3.09691 -2.34571 0
M  V30 3199 H 325.596 1.45789 -4.37656 0
M  V30 3200 H 323.839 1.30496 -4.13707 0
M  V30 3201 H 324.51 2.82169 -4.74431 0
M  V30 3202 H 326.986 3.04953 -2.83095 0
M  V30 3203 H 325.862 4.31178 -3.39672 0
M  V30 3204 H 326.123 4.09197 -1.67363 0
M  V30 3205 N 325.182 1.32811 0.848464 0
M  V30 3206 C 326.112 1.24882 1.97299 0
M  V30 3207 C 327.093 0.131357 1.69592 0
M  V30 3208 O 328.278 0.319553 1.91553 0
M  V30 3209 C 325.408 0.97746 3.33261 0
M  V30 3210 C 324.362 2.05682 3.75338 0
M  V30 3211 C 323.688 1.63777 5.09 0
M  V30 3212 C 324.988 3.47254 3.90144 0
M  V30 3213 H 326.682 2.18966 2.04191 0
M  V30 3214 H 324.228 1.05413 0.981029 0
M  V30 3215 H 326.181 0.908513 4.1149 0
M  V30 3216 H 324.905 0.000980011 3.266 0
M  V30 3217 H 323.564 2.11603 2.99366 0
M  V30 3218 H 323.212 0.648569 4.98801 0
M  V30 3219 H 322.912 2.36 5.38124 0
M  V30 3220 H 324.436 1.5833 5.89715 0
M  V30 3221 H 325.85 3.43888 4.58709 0
M  V30 3222 H 324.247 4.1788 4.30693 0
M  V30 3223 H 325.317 3.86462 2.92874 0
M  V30 3224 N 326.66 -1.06551 1.16123 0
M  V30 3225 C 327.906 -1.79567 0.94252 0
M  V30 3226 C 328.239 -1.86869 -0.528547 0
M  V30 3227 O 327.514 -1.35838 -1.39206 0
M  V30 3228 C 327.797 -3.24195 1.56747 0
M  V30 3229 C 327.65 -3.24989 3.10969 0
M  V30 3230 C 328.969 -4.21678 1.25998 0
M  V30 3231 H 326.088 -0.651883 0.343828 0
M  V30 3232 H 328.73 -1.2463 1.43413 0
M  V30 3233 H 326.88 -3.71107 1.14942 0
M  V30 3234 H 328.552 -2.86258 3.61737 0
M  V30 3235 H 326.795 -2.63716 3.44436 0
M  V30 3236 H 327.466 -4.27005 3.49815 0
M  V30 3237 H 329.942 -3.83196 1.62174 0
M  V30 3238 H 328.818 -5.21146 1.7233 0
M  V30 3239 H 329.079 -4.4174 0.178367 0
M  V30 3240 N 328.138 -0.959301 -1.25041 0
M  V30 3241 C 329.384 -0.617525 -1.9317 0
M  V30 3242 C 329.717 0.843981 -1.74902 0
M  V30 3243 O 328.992 1.60615 -1.09696 0
M  V30 3244 C 329.275 -0.982736 -3.46431 0
M  V30 3245 C 329.128 -2.50032 -3.73904 0
M  V30 3246 C 330.447 -0.511176 -4.37121 0
M  V30 3247 H 327.566 -0.22582 -0.701552 0
M  V30 3248 H 330.208 -1.19679 -1.4757 0
M  V30 3249 H 328.358 -0.489806 -3.854 0
M  V30 3250 H 330.03 -3.06737 -3.44544 0
M  V30 3251 H 328.273 -2.93598 -3.19348 0
M  V30 3252 H 328.944 -2.70635 -4.81103 0
M  V30 3253 H 331.42 -0.934075 -4.0548 0
M  V30 3254 H 330.296 -0.795361 -5.43107 0
M  V30 3255 H 330.557 0.588834 -4.38161 0
M  V30 3256 N 329.616 1.39756 -0.72842 0
M  V30 3257 C 330.864 2.00248 -0.272946 0
M  V30 3258 C 331.185 1.58077 1.14178 0
M  V30 3259 O 330.455 0.826014 1.77634 0
M  V30 3260 H 329.035 0.740554 -0.0979247 0
M  V30 3261 H 331.697 1.70903 -0.936912 0
M  V30 3262 H 330.793 3.10495 -0.316142 0
M  V30 3263 N 331.094 0.475555 1.50254 0
M  V30 3264 C 332.057 -0.305016 2.27161 0
M  V30 3265 C 333.057 -0.916519 1.32123 0
M  V30 3266 O 334.247 -0.785003 1.5551 0
M  V30 3267 C 331.379 -1.43496 3.09227 0
M  V30 3268 H 332.572 0.369511 2.97615 0
M  V30 3269 H 330.125 0.229747 1.54602 0
M  V30 3270 H 330.86 -2.14441 2.43281 0
M  V30 3271 H 330.645 -1.00223 3.79075 0
M  V30 3272 H 332.135 -1.98548 3.67381 0
M  V30 3273 N 332.573 -1.56217 0.208337 0
M  V30 3274 C 333.536 -2.18455 -0.693557 0
M  V30 3275 C 334.536 -1.14268 -1.13135 0
M  V30 3276 O 335.726 -1.39577 -1.0423 0
M  V30 3277 C 332.858 -2.79727 -1.94848 0
M  V30 3278 H 334.051 -2.99519 -0.15114 0
M  V30 3279 H 331.604 -1.56245 -0.041287 0
M  V30 3280 H 332.339 -2.02497 -2.53309 0
M  V30 3281 H 332.124 -3.56009 -1.64316 0
M  V30 3282 H 333.614 -3.27475 -2.59133 0
M  V30 3283 N 334.051 0.0651679 -1.57465 0
M  V30 3284 C 335.014 1.06117 -2.03155 0
M  V30 3285 C 336.014 1.31204 -0.929632 0
M  V30 3286 O 337.204 1.26813 -1.19432 0
M  V30 3287 C 334.336 2.4032 -2.41783 0
M  V30 3288 H 335.529 0.667231 -2.92383 0
M  V30 3289 H 333.082 0.311075 -1.53173 0
M  V30 3290 H 333.817 2.84532 -1.55601 0
M  V30 3291 H 333.602 2.23451 -3.22199 0
M  V30 3292 H 335.092 3.11898 -2.77685 0
M  V30 3293 N 335.529 1.53961 0.336706 0
M  V30 3294 C 336.778 1.70751 1.07363 0
M  V30 3295 C 337.091 0.481061 1.89592 0
M  V30 3296 O 338.297 0.530046 2.66276 0
M  V30 3297 C 336.753 3.01965 1.95818 0
M  V30 3298 C 336.361 4.31971 1.18764 0
M  V30 3299 C 338.105 3.28121 2.69327 0
M  V30 3300 C 336.012 5.54255 2.06289 0
M  V30 3301 H 334.942 0.636292 0.404535 0
M  V30 3302 H 337.593 1.80459 0.332681 0
M  V30 3303 H 335.975 2.86132 2.7376 0
M  V30 3304 H 337.149 4.5853 0.456849 0
M  V30 3305 H 335.464 4.12481 0.569946 0
M  V30 3306 H 338.061 4.16673 3.35094 0
M  V30 3307 H 338.404 2.45426 3.36261 0
M  V30 3308 H 338.937 3.44762 1.98454 0
M  V30 3309 H 335.676 6.39513 1.43885 0
M  V30 3310 H 335.196 5.31935 2.77138 0
M  V30 3311 H 336.875 5.90159 2.65182 0
M  V30 3312 N 337.007 -0.598083 1.45811 0
M  V30 3313 C 338.423 -0.919847 1.30426 0
M  V30 3314 C 338.623 -1.99759 0.264303 0
M  V30 3315 O 337.679 -2.50221 -0.338472 0
M  V30 3316 C 338.992 -1.35176 2.68603 0
M  V30 3317 C 340.54 -1.46546 2.76574 0
M  V30 3318 C 341.015 -1.9311 4.15298 0
M  V30 3319 N 342.506 -2.00328 4.1764 0
M  V30 3320 C 343.241 -2.37599 5.21856 0
M  V30 3321 N 342.737 -2.73771 6.36413 0
M  V30 3322 N 344.53 -2.38021 5.09218 0
M  V30 3323 H 336.681 0.114111 2.12093 0
M  V30 3324 H 338.944 -0.0116121 0.947929 0
M  V30 3325 H 338.65 -0.633969 3.45939 0
M  V30 3326 H 338.524 -2.3164 2.97696 0
M  V30 3327 H 340.911 -2.17415 1.99537 0
M  V30 3328 H 340.992 -0.483727 2.51185 0
M  V30 3329 H 340.636 -1.22824 4.92825 0
M  V30 3330 H 340.566 -2.92213 4.38086 0
M  V30 3331 H 343.057 -1.74925 3.34977 0
M  V30 3332 H 343.37 -3.0112 7.11721 0
M  V30 3333 H 341.715 -2.71445 6.39799 0
M  V30 3334 H 344.906 -2.09174 4.18765 0
M  V30 3335 H 345.079 -2.66741 5.90554 0
M  V30 3336 N 338.485 -1.33259 -0.841409 0
M  V30 3337 C 339.71 -1.2775 -1.63385 0
M  V30 3338 C 340.135 0.149188 -1.87507 0
M  V30 3339 O 339.493 1.10498 -1.43736 0
M  V30 3340 C 339.541 -2.05571 -2.96265 0
M  V30 3341 O 338.645 -1.41257 -3.87453 0
M  V30 3342 H 337.986 -0.439627 -0.497618 0
M  V30 3343 H 340.516 -1.75782 -1.04699 0
M  V30 3344 H 340.526 -2.16241 -3.45982 0
M  V30 3345 H 339.201 -3.09309 -2.7803 0
M  V30 3346 H 337.778 -1.39217 -3.45938 0
M  V30 3347 N 339.963 1.05934 -1.16686 0
M  V30 3348 C 341.211 1.78447 -0.948744 0
M  V30 3349 C 341.532 1.87813 0.524523 0
M  V30 3350 O 340.802 1.38945 1.38098 0
M  V30 3351 H 339.382 0.660971 -0.348033 0
M  V30 3352 H 342.044 1.27947 -1.47022 0
M  V30 3353 H 341.14 2.80394 -1.37061 0
M  V30 3354 N 341.441 0.965919 1.2453 0
M  V30 3355 C 342.404 0.499547 2.2369 0
M  V30 3356 C 343.404 -0.40294 1.5567 0
M  V30 3357 O 344.594 -0.19865 1.73064 0
M  V30 3358 C 341.726 -0.276792 3.39774 0
M  V30 3359 H 342.919 1.37613 2.66463 0
M  V30 3360 H 340.472 0.750324 1.37112 0
M  V30 3361 H 341.207 -1.17055 3.02438 0
M  V30 3362 H 340.992 0.370826 3.90343 0
M  V30 3363 H 342.482 -0.592175 4.1338 0
M  V30 3364 N 342.919 -1.39368 0.735821 0
M  V30 3365 C 344.165 -2.00794 0.284544 0
M  V30 3366 C 344.498 -1.58255 -1.12557 0
M  V30 3367 O 343.773 -0.811819 -1.76748 0
M  V30 3368 C 344.056 -3.58011 0.387337 0
M  V30 3369 C 343.909 -4.10566 1.83728 0
M  V30 3370 C 345.228 -4.395 -0.22975 0
M  V30 3371 H 342.347 -0.729501 0.104866 0
M  V30 3372 H 344.989 -1.65564 0.93213 0
M  V30 3373 H 343.139 -3.88154 -0.164006 0
M  V30 3374 H 344.811 -3.91139 2.44556 0
M  V30 3375 H 343.054 -3.64095 2.35833 0
M  V30 3376 H 343.725 -5.19702 1.86047 0
M  V30 3377 H 346.201 -4.15406 0.240257 0
M  V30 3378 H 345.077 -5.48752 -0.127485 0
M  V30 3379 H 345.338 -4.22062 -1.3159 0
M  V30 3380 N 344.397 -0.483516 -1.5 0
M  V30 3381 C 345.808 -0.0314176 -1.86674 0
M  V30 3382 C 346.159 1.37728 -1.39733 0
M  V30 3383 O 345.284 2.02327 -0.767635 0
M  V30 3384 C 345.879 -0.0502376 -3.38763 0
M  V30 3385 C 344.438 0.346442 -3.74802 0
M  V30 3386 C 343.585 -0.430366 -2.7394 0
M  V30 3387 H 346.536 -0.697182 -1.42566 0
M  V30 3388 H 346.557 0.749116 -3.73053 0
M  V30 3389 H 346.069 -1.07563 -3.72897 0
M  V30 3390 H 344.17 1.37572 -3.46273 0
M  V30 3391 H 344.283 0.0391486 -4.79084 0
M  V30 3392 H 342.647 0.117557 -2.54429 0
M  V30 3393 H 343.43 -1.4555 -3.10918 0
M  V30 3394 N 345.875 1.56104 -0.216619 0
M  V30 3395 C 346.838 2.18819 0.681962 0
M  V30 3396 C 347.838 1.14866 1.12528 0
M  V30 3397 O 349.028 1.40128 1.03488 0
M  V30 3398 C 346.16 2.80756 1.93362 0
M  V30 3399 H 347.353 2.99595 0.135254 0
M  V30 3400 H 344.906 1.56265 0.0330003 0
M  V30 3401 H 345.641 2.03837 2.52232 0
M  V30 3402 H 345.426 3.56876 1.62426 0
M  V30 3403 H 346.916 3.28844 2.57393 0
M  V30 3404 N 347.353 -0.0568162 1.57498 0
M  V30 3405 C 348.602 -0.752001 1.87157 0
M  V30 3406 C 348.915 -1.77978 0.811375 0
M  V30 3407 O 350.121 -2.52559 0.996293 0
M  V30 3408 C 348.577 -1.38844 3.3204 0
M  V30 3409 C 348.185 -0.398456 4.46225 0
M  V30 3410 C 349.929 -2.06512 3.70882 0
M  V30 3411 C 347.836 -1.04166 5.82154 0
M  V30 3412 H 346.766 -0.28461 0.698222 0
M  V30 3413 H 349.417 -0.00561272 1.83499 0
M  V30 3414 H 347.799 -2.1836 3.30356 0
M  V30 3415 H 348.973 0.367977 4.59328 0
M  V30 3416 H 347.288 0.174592 4.16034 0
M  V30 3417 H 349.885 -2.55437 4.6974 0
M  V30 3418 H 350.228 -2.87117 3.01445 0
M  V30 3419 H 350.761 -1.33808 3.7462 0
M  V30 3420 H 347.5 -0.275614 6.5492 0
M  V30 3421 H 347.02 -1.7786 5.72823 0
M  V30 3422 H 348.699 -1.55715 6.27982 0
M  V30 3423 N 348.832 -1.54138 -0.328536 0
M  V30 3424 C 350.248 -1.44736 -0.672574 0
M  V30 3425 C 350.448 -0.616217 -1.91846 0
M  V30 3426 O 349.504 -0.113067 -2.52247 0
M  V30 3427 C 350.817 -2.884 -0.851217 0
M  V30 3428 C 352.365 -2.98271 -0.948877 0
M  V30 3429 C 352.84 -4.43074 -1.15973 0
M  V30 3430 N 354.331 -4.46665 -1.22658 0
M  V30 3431 C 355.066 -5.55857 -1.40751 0
M  V30 3432 N 354.562 -6.75026 -1.5592 0
M  V30 3433 N 356.355 -5.43495 -1.4342 0
M  V30 3434 H 348.506 -2.06661 0.490421 0
M  V30 3435 H 350.769 -0.934812 0.157579 0
M  V30 3436 H 350.475 -3.51699 -0.00704236 0
M  V30 3437 H 350.349 -3.34225 -1.74853 0
M  V30 3438 H 352.736 -2.35102 -1.78356 0
M  V30 3439 H 352.817 -2.55785 -0.0281435 0
M  V30 3440 H 352.461 -5.06827 -0.329915 0
M  V30 3441 H 352.391 -4.83165 -2.09426 0
M  V30 3442 H 354.882 -3.60797 -1.124 0
M  V30 3443 H 355.195 -7.54004 -1.69404 0
M  V30 3444 H 353.54 -6.77944 -1.53027 0
M  V30 3445 H 356.731 -4.49349 -1.31162 0
M  V30 3446 H 356.904 -6.28649 -1.57178 0
M  V30 3447 N 350.31 0.590341 -1.46126 0
M  V30 3448 C 351.273 1.68194 -1.55703 0
M  V30 3449 C 352.273 1.54808 -0.434868 0
M  V30 3450 O 353.463 1.59564 -0.698928 0
M  V30 3451 C 350.595 3.07575 -1.47005 0
M  V30 3452 H 351.788 1.61064 -2.52979 0
M  V30 3453 H 349.341 0.807541 -1.33823 0
M  V30 3454 H 350.076 3.20268 -0.509785 0
M  V30 3455 H 349.861 3.187 -2.28414 0
M  V30 3456 H 351.351 3.87055 -1.56776 0
M  V30 3457 N 351.788 1.33704 0.83433 0
M  V30 3458 C 352.718 1.26967 1.95963 0
M  V30 3459 C 353.699 0.149337 1.69443 0
M  V30 3460 O 354.884 0.339852 1.91203 0
M  V30 3461 C 352.014 1.01275 3.32206 0
M  V30 3462 C 350.968 2.09652 3.73136 0
M  V30 3463 C 350.294 1.69166 5.07235 0
M  V30 3464 C 351.594 3.51372 3.86439 0
M  V30 3465 H 353.288 2.2112 2.01857 0
M  V30 3466 H 350.834 1.06447 0.969793 0
M  V30 3467 H 352.787 0.952106 4.10503 0
M  V30 3468 H 351.511 0.0356203 3.26581 0
M  V30 3469 H 350.17 2.14766 2.97104 0
M  V30 3470 H 349.818 0.701437 4.98085 0
M  V30 3471 H 349.518 2.41694 5.35591 0
M  V30 3472 H 351.042 1.64576 5.88003 0
M  V30 3473 H 352.456 3.48734 4.55036 0
M  V30 3474 H 350.853 4.22425 4.26236 0
M  V30 3475 H 351.923 3.89546 2.88759 0
M  V30 3476 N 353.266 -1.05314 1.17247 0
M  V30 3477 C 354.229 -2.112 0.890357 0
M  V30 3478 C 355.229 -1.60359 -0.118943 0
M  V30 3479 O 356.419 -1.73833 0.113086 0
M  V30 3480 C 353.551 -3.39266 0.333422 0
M  V30 3481 H 354.744 -2.37659 1.82916 0
M  V30 3482 H 352.297 -1.21538 0.982758 0
M  V30 3483 H 353.032 -3.18462 -0.612587 0
M  V30 3484 H 352.817 -3.77477 1.06082 0
M  V30 3485 H 354.307 -4.17315 0.154322 0
M  V30 3486 N 354.744 -0.972509 -1.24016 0
M  V30 3487 C 355.654 -0.5143 -2.28893 0
M  V30 3488 C 356.67 0.427078 -1.68677 0
M  V30 3489 O 357.846 0.298939 -1.99169 0
M  V30 3490 C 354.911 0.183598 -3.46214 0
M  V30 3491 C 353.972 -0.798202 -4.21814 0
M  V30 3492 C 353.205 -0.133514 -5.33533 0
M  V30 3493 O 353.428 1.07714 -5.60137 0
M  V30 3494 O 352.362 -0.828103 -5.96176 0
M  V30 3495 H 356.188 -1.38629 -2.70214 0
M  V30 3496 H 353.773 -0.739769 -1.29799 0
M  V30 3497 H 355.655 0.575433 -4.17453 0
M  V30 3498 H 354.33 1.03048 -3.0686 0
M  V30 3499 H 353.237 -1.24059 -3.52931 0
M  V30 3500 H 354.57 -1.61364 -4.64997 0
M  V30 3501 N 356.222 1.38976 -0.743202 0
M  V30 3502 C 357.638 1.53984 -0.419664 0
M  V30 3503 C 357.838 1.70837 1.0685 0
M  V30 3504 O 356.894 1.7135 1.8546 0
M  V30 3505 C 358.207 2.75287 -1.20985 0
M  V30 3506 C 359.755 2.89129 -1.19889 0
M  V30 3507 C 360.23 4.13381 -1.97181 0
M  V30 3508 N 361.721 4.20437 -1.94389 0
M  V30 3509 C 362.456 5.15547 -2.50996 0
M  V30 3510 N 361.952 6.16395 -3.16274 0
M  V30 3511 N 363.745 5.07822 -2.40984 0
M  V30 3512 H 355.896 1.26285 -1.7078 0
M  V30 3513 H 358.159 0.612689 -0.723406 0
M  V30 3514 H 357.865 2.69204 -2.26323 0
M  V30 3515 H 357.739 3.68184 -0.819759 0
M  V30 3516 H 360.126 2.947 -0.153606 0
M  V30 3517 H 360.207 1.97272 -1.62841 0
M  V30 3518 H 359.851 4.08572 -3.01714 0
M  V30 3519 H 359.781 5.04298 -1.51629 0
M  V30 3520 H 362.272 3.48205 -1.46839 0
M  V30 3521 H 362.585 6.85443 -3.56915 0
M  V30 3522 H 360.93 6.16758 -3.20367 0
M  V30 3523 H 364.121 4.27973 -1.89622 0
M  V30 3524 H 364.294 5.81767 -2.85397 0
M  V30 3525 N 357.7 0.491464 1.49741 0
M  V30 3526 C 358.63 -0.28154 2.31796 0
M  V30 3527 C 359.611 -0.971473 1.3963 0
M  V30 3528 O 360.796 -0.964719 1.68543 0
M  V30 3529 C 357.926 -1.35203 3.19902 0
M  V30 3530 C 356.88 -0.782529 4.20786 0
M  V30 3531 C 356.206 -1.95283 4.97764 0
M  V30 3532 C 357.506 0.21999 5.21837 0
M  V30 3533 H 359.2 0.403355 2.96671 0
M  V30 3534 H 356.746 0.195425 1.42668 0
M  V30 3535 H 358.699 -1.90045 3.76113 0
M  V30 3536 H 357.423 -2.06598 2.52953 0
M  V30 3537 H 356.082 -0.255928 3.65706 0
M  V30 3538 H 355.73 -2.65423 4.2727 0
M  V30 3539 H 355.43 -1.57789 5.66018 0
M  V30 3540 H 356.954 -2.50577 5.56816 0
M  V30 3541 H 358.368 -0.23996 5.72798 0
M  V30 3542 H 356.765 0.51026 5.97927 0
M  V30 3543 H 357.835 1.13911 4.7133 0
M  V30 3544 N 359.178 -1.55987 0.224894 0
M  V30 3545 C 360.126 -2.21808 -0.700283 0
M  V30 3546 C 361.12 -1.19854 -1.19714 0
M  V30 3547 O 362.326 -1.37925 -1.15658 0
M  V30 3548 H 358.701 -0.711226 -0.244258 0
M  V30 3549 H 360.672 -2.98152 -0.121749 0
M  V30 3550 C 359.421 -2.91444 -1.8962 0
M  V30 3551 H 358.744 -3.69655 -1.52299 0
M  V30 3552 H 360.184 -3.40894 -2.52125 0
M  V30 3553 C 358.643 -1.94098 -2.75368 0
M  V30 3554 O 359.173 -1.46004 -3.74227 0
M  V30 3555 N 357.379 -1.61675 -2.41474 0
M  V30 3556 H 356.926 -2.00979 -1.61137 0
M  V30 3557 H 356.884 -0.968036 -2.99126 0
M  V30 3558 N 360.656 0.0484629 -1.57525 0
M  V30 3559 C 361.905 0.742065 -1.87553 0
M  V30 3560 C 362.218 1.77545 -0.820802 0
M  V30 3561 O 363.424 2.52027 -1.00967 0
M  V30 3562 C 361.88 1.37081 -3.32771 0
M  V30 3563 C 361.488 0.374786 -4.4643 0
M  V30 3564 C 363.232 2.04542 -3.71972 0
M  V30 3565 C 361.139 1.01077 -5.82698 0
M  V30 3566 H 360.069 0.280903 -0.699721 0
M  V30 3567 H 362.72 -0.00411877 -1.835 0
M  V30 3568 H 361.102 2.16605 -3.31509 0
M  V30 3569 H 362.276 -0.392331 -4.59127 0
M  V30 3570 H 360.591 -0.196653 -4.15935 0
M  V30 3571 H 363.188 2.52943 -4.71088 0
M  V30 3572 H 363.531 2.85515 -3.02964 0
M  V30 3573 H 364.064 1.31819 -3.75325 0
M  V30 3574 H 360.803 0.240878 -6.55057 0
M  V30 3575 H 360.323 1.74819 -5.73758 0
M  V30 3576 H 362.002 1.52383 -6.28799 0
M  V30 3577 N 362.134 1.5431 0.320358 0
M  V30 3578 C 363.545 1.63872 0.894594 0
M  V30 3579 C 363.896 0.534847 1.88769 0
M  V30 3580 O 363.021 -0.331732 2.13842 0
M  V30 3581 C 363.616 2.97049 1.62934 0
M  V30 3582 C 362.175 3.08796 2.15226 0
M  V30 3583 C 361.322 2.59456 0.978671 0
M  V30 3584 H 364.273 1.58398 0.0978544 0
M  V30 3585 H 364.294 2.87388 2.49376 0
M  V30 3586 H 363.806 3.7737 0.906302 0
M  V30 3587 H 361.907 2.33156 2.90636 0
M  V30 3588 H 362.02 4.14649 2.40006 0
M  V30 3589 H 360.384 2.1543 1.35875 0
M  V30 3590 H 361.167 3.42237 0.269895 0
M  V30 3591 N 363.613 -0.582584 1.46437 0
M  V30 3592 C 364.859 -1.34278 1.51978 0
M  V30 3593 C 365.192 -1.93446 0.170973 0
M  V30 3594 O 364.467 -1.76481 -0.817608 0
M  V30 3595 C 364.75 -2.47203 2.61845 0
M  V30 3596 C 364.603 -1.93069 4.06257 0
M  V30 3597 C 365.922 -3.49247 2.67795 0
M  V30 3598 H 363.041 -0.486876 0.553282 0
M  V30 3599 H 365.683 -0.654437 1.78374 0
M  V30 3600 H 363.833 -3.0592 2.39469 0
M  V30 3601 H 365.505 -1.38808 4.3992 0
M  V30 3602 H 363.748 -1.23898 4.1573 0
M  V30 3603 H 364.419 -2.74586 4.7886 0
M  V30 3604 H 366.895 -3.00411 2.8791 0
M  V30 3605 H 365.771 -4.25719 3.46489 0
M  V30 3606 H 366.032 -4.06482 1.73852 0
M  V30 3607 N 365.091 -1.34144 -0.827227 0
M  V30 3608 C 366.34 -1.25602 -1.5782 0
M  V30 3609 C 366.653 0.173445 -1.94829 0
M  V30 3610 O 367.859 0.380984 -2.68814 0
M  V30 3611 C 366.315 -2.20151 -2.84713 0
M  V30 3612 C 365.923 -3.68331 -2.55021 0
M  V30 3613 C 367.667 -2.20508 -3.62735 0
M  V30 3614 C 365.574 -4.54762 -3.78082 0
M  V30 3615 H 364.504 -0.466573 -0.592306 0
M  V30 3616 H 367.155 -1.59283 -0.911116 0
M  V30 3617 H 365.537 -1.79417 -3.53023 0
M  V30 3618 H 366.711 -4.17577 -1.94849 0
M  V30 3619 H 365.026 -3.7038 -1.90283 0
M  V30 3620 H 367.623 -2.82306 -4.54101 0
M  V30 3621 H 367.966 -1.20322 -3.98533 0
M  V30 3622 H 368.499 -2.59664 -3.01362 0
M  V30 3623 H 365.238 -5.55867 -3.47407 0
M  V30 3624 H 364.758 -4.10254 -4.37552 0
M  V30 3625 H 366.437 -4.69153 -4.45538 0
M  V30 3626 N 366.569 1.04691 -1.17803 0
M  V30 3627 C 367.797 1.81446 -0.99423 0
M  V30 3628 C 368.212 1.83174 0.457459 0
M  V30 3629 O 367.569 1.26265 1.31771 0
M  V30 3630 C 367.62 3.27334 -1.5341 0
M  V30 3631 O 367.341 3.25798 -2.92895 0
M  V30 3632 C 368.842 4.20759 -1.39559 0
M  V30 3633 H 366.062 0.571599 -0.351447 0
M  V30 3634 H 368.606 1.31982 -1.56208 0
M  V30 3635 H 366.761 3.74052 -1.00815 0
M  V30 3636 H 367.175 4.17144 -3.17949 0
M  V30 3637 H 368.649 5.21084 -1.82141 0
M  V30 3638 H 369.126 4.37856 -0.343394 0
M  V30 3639 H 369.732 3.79901 -1.91195 0
M  V30 3640 N 368.047 0.979072 1.23499 0
M  V30 3641 C 369.275 0.665202 1.95915 0
M  V30 3642 C 369.69 -0.767571 1.72493 0
M  V30 3643 O 369.047 -1.51635 1.01554 0
M  V30 3644 C 369.098 0.944438 3.48945 0
M  V30 3645 O 368.819 2.3209 3.71572 0
M  V30 3646 C 370.32 0.646336 4.38563 0
M  V30 3647 H 367.54 0.247218 0.623798 0
M  V30 3648 H 370.084 1.31009 1.57025 0
M  V30 3649 H 368.239 0.345575 3.85856 0
M  V30 3650 H 368.653 2.40957 4.65876 0
M  V30 3651 H 370.127 0.892091 5.44744 0
M  V30 3652 H 370.604 -0.419575 4.37191 0
M  V30 3653 H 371.21 1.22562 4.07258 0
M  V30 3654 N 369.525 -1.3858 0.750561 0
M  V30 3655 C 370.755 -2.04175 0.31564 0
M  V30 3656 C 371.163 -1.56726 -1.05989 0
M  V30 3657 O 370.506 -0.734225 -1.68389 0
M  V30 3658 C 370.568 -3.58585 0.256389 0
M  V30 3659 C 370.232 -4.29077 1.57296 0
M  V30 3660 C 371.229 -4.54656 2.52159 0
M  V30 3661 C 368.914 -4.67324 1.84156 0
M  V30 3662 C 370.908 -5.17512 3.72103 0
M  V30 3663 C 368.595 -5.29905 3.04374 0
M  V30 3664 C 369.593 -5.54933 3.98168 0
M  V30 3665 O 369.281 -6.16212 5.16273 0
M  V30 3666 H 369.013 -0.662742 0.133226 0
M  V30 3667 H 371.567 -1.78313 1.01948 0
M  V30 3668 H 369.797 -3.83406 -0.503677 0
M  V30 3669 H 371.486 -4.05628 -0.148612 0
M  V30 3670 H 372.252 -4.25539 2.32683 0
M  V30 3671 H 368.131 -4.47191 1.11988 0
M  V30 3672 H 371.675 -5.36963 4.45327 0
M  V30 3673 H 367.572 -5.58444 3.23745 0
M  V30 3674 H 368.34 -6.34701 5.16815 0
M  V30 3675 N 371.003 -0.499398 -1.49478 0
M  V30 3676 C 372.252 0.0475259 -2.01644 0
M  V30 3677 C 372.565 1.38195 -1.38425 0
M  V30 3678 O 373.771 2.01547 -1.8191 0
M  V30 3679 C 372.227 0.135164 -3.59646 0
M  V30 3680 C 371.835 -1.19252 -4.31837 0
M  V30 3681 C 373.579 0.632538 -4.19761 0
M  V30 3682 C 371.486 -1.06713 -5.81693 0
M  V30 3683 H 370.416 0.0215349 -0.753692 0
M  V30 3684 H 373.067 -0.638577 -1.7203 0
M  V30 3685 H 371.449 0.885681 -3.85969 0
M  V30 3686 H 372.623 -1.9562 -4.17216 0
M  V30 3687 H 370.938 -1.62321 -3.83459 0
M  V30 3688 H 373.535 0.743833 -5.29501 0
M  V30 3689 H 373.878 1.63098 -3.83021 0
M  V30 3690 H 374.411 -0.0613987 -3.97753 0
M  V30 3691 H 371.15 -2.03979 -6.22955 0
M  V30 3692 H 370.67 -0.344307 -5.98811 0
M  V30 3693 H 372.349 -0.745208 -6.42694 0
M  V30 3694 N 372.481 1.55866 -0.233164 0
M  V30 3695 C 373.444 2.1953 0.658715 0
M  V30 3696 C 374.444 1.16053 1.11303 0
M  V30 3697 O 375.634 1.41218 1.01996 0
M  V30 3698 C 372.766 2.82791 1.90373 0
M  V30 3699 H 373.959 2.99721 0.10347 0
M  V30 3700 H 371.512 1.56291 0.0164245 0
M  V30 3701 H 372.247 2.06501 2.50056 0
M  V30 3702 H 372.032 3.58578 1.58632 0
M  V30 3703 H 373.522 3.31556 2.53891 0
M  V30 3704 N 373.959 -0.0401083 1.57549 0
M  V30 3705 C 374.906 -1.04413 2.05831 0
M  V30 3706 C 375.876 -1.36585 0.945184 0
M  V30 3707 O 377.061 -1.47112 1.21502 0
M  V30 3708 C 374.201 -2.34336 2.53339 0
M  V30 3709 C 373.314 -2.08419 3.78398 0
M  V30 3710 C 372.449 -3.32133 4.14561 0
M  V30 3711 C 371.488 -3.01721 5.3257 0
M  V30 3712 N 370.625 -4.17855 5.64218 0
M  V30 3713 H 375.465 -0.625442 2.91363 0
M  V30 3714 H 373.002 -0.297218 1.44066 0
M  V30 3715 H 374.96 -3.10234 2.78946 0
M  V30 3716 H 373.59 -2.73948 1.7074 0
M  V30 3717 H 372.642 -1.23069 3.59942 0
M  V30 3718 H 373.954 -1.81978 4.64419 0
M  V30 3719 H 373.108 -4.16406 4.41238 0
M  V30 3720 H 371.847 -3.61678 3.2717 0
M  V30 3721 H 370.852 -2.15849 5.05657 0
M  V30 3722 H 372.077 -2.73466 6.21605 0
M  V30 3723 H 370.023 -4.47372 4.79786 0
M  V30 3724 H 369.94 -3.94798 6.44725 0
M  V30 3725 H 371.208 -5.03033 5.95465 0
M  V30 3726 N 375.437 -1.54477 -0.31217 0
M  V30 3727 C 376.685 -1.72884 -1.04668 0
M  V30 3728 C 377.006 -0.511477 -1.88173 0
M  V30 3729 O 376.276 0.474407 -1.90069 0
M  V30 3730 H 374.856 -0.637461 -0.389425 0
M  V30 3731 H 377.518 -1.91807 -0.345852 0
M  V30 3732 H 376.614 -2.61334 -1.70619 0
M  V30 3733 N 376.915 0.57481 -1.46744 0
M  V30 3734 C 378.161 1.3347 -1.52688 0
M  V30 3735 C 378.494 1.93353 -0.181229 0
M  V30 3736 O 377.769 1.76912 0.808237 0
M  V30 3737 C 378.052 2.45811 -2.63152 0
M  V30 3738 C 377.905 1.90912 -4.07275 0
M  V30 3739 C 379.224 3.47822 -2.69644 0
M  V30 3740 H 376.343 0.483935 -0.555856 0
M  V30 3741 H 378.985 0.644968 -1.78718 0
M  V30 3742 H 377.135 3.04646 -2.41088 0
M  V30 3743 H 378.807 1.36473 -4.4065 0
M  V30 3744 H 377.05 1.21691 -4.16382 0
M  V30 3745 H 377.721 2.72042 -4.80309 0
M  V30 3746 H 380.197 2.9888 -2.895 0
M  V30 3747 H 379.073 4.23876 -3.48742 0
M  V30 3748 H 379.334 4.05555 -1.76005 0
M  V30 3749 N 378.394 1.34581 0.820102 0
M  V30 3750 C 379.324 1.29038 1.94606 0
M  V30 3751 C 380.305 0.1673 1.69275 0
M  V30 3752 O 381.49 0.360112 1.90832 0
M  V30 3753 C 378.62 1.04793 3.31113 0
M  V30 3754 C 377.574 2.13597 3.70891 0
M  V30 3755 C 376.9 1.74537 5.05412 0
M  V30 3756 C 378.2 3.55451 3.8269 0
M  V30 3757 H 379.894 2.23248 1.99501 0
M  V30 3758 H 377.44 1.0747 0.958449 0
M  V30 3759 H 379.393 0.995592 4.0947 0
M  V30 3760 H 378.117 0.0702565 3.26524 0
M  V30 3761 H 376.776 2.17905 2.9481 0
M  V30 3762 H 376.424 0.754226 4.97313 0
M  V30 3763 H 376.124 2.47361 5.32997 0
M  V30 3764 H 377.648 1.70803 5.86224 0
M  V30 3765 H 379.062 3.5354 4.51312 0
M  V30 3766 H 377.459 4.26922 4.21732 0
M  V30 3767 H 378.529 3.92587 2.84611 0
M  V30 3768 N 379.872 -1.04064 1.18357 0
M  V30 3769 C 381.283 -1.58719 0.98312 0
M  V30 3770 C 381.634 -1.90556 -0.467193 0
M  V30 3771 O 380.759 -1.69561 -1.34454 0
M  V30 3772 C 381.354 -2.88379 1.77828 0
M  V30 3773 C 379.913 -3.3965 1.62218 0
M  V30 3774 C 379.06 -2.13235 1.77274 0
M  V30 3775 H 382.011 -0.867359 1.32901 0
M  V30 3776 H 382.032 -3.58773 1.26737 0
M  V30 3777 H 381.544 -2.65176 2.83379 0
M  V30 3778 H 379.645 -3.67866 0.592036 0
M  V30 3779 H 379.758 -4.13475 2.42023 0
M  V30 3780 H 378.122 -2.24542 1.20221 0
M  V30 3781 H 378.905 -1.92487 2.8426 0
M  V30 3782 N 381.35 -0.985608 -1.22978 0
M  V30 3783 C 382.596 -0.65836 -1.91816 0
M  V30 3784 C 382.929 0.806692 -1.76653 0
M  V30 3785 O 382.204 1.58252 -1.13078 0
M  V30 3786 C 382.487 -1.056 -3.44268 0
M  V30 3787 C 382.34 -2.57906 -3.68516 0
M  V30 3788 C 383.659 -0.603781 -4.35939 0
M  V30 3789 H 380.778 -0.24065 -0.696604 0
M  V30 3790 H 383.42 -1.22783 -1.44998 0
M  V30 3791 H 381.57 -0.571445 -3.84274 0
M  V30 3792 H 383.242 -3.13976 -3.3796 0
M  V30 3793 H 381.485 -3.00305 -3.13048 0
M  V30 3794 H 382.156 -2.80779 -4.75255 0
M  V30 3795 H 384.632 -1.01987 -4.03408 0
M  V30 3796 H 383.508 -0.910383 -5.41298 0
M  V30 3797 H 383.769 0.495761 -4.39312 0
M  V30 3798 N 382.828 1.3818 -0.7579 0
M  V30 3799 C 384.076 1.99624 -0.315361 0
M  V30 3800 C 384.397 1.60464 1.10799 0
M  V30 3801 O 383.667 0.863507 1.75842 0
M  V30 3802 H 382.247 0.73831 -0.113611 0
M  V30 3803 H 384.909 1.68878 -0.972952 0
M  V30 3804 H 384.005 3.09754 -0.381931 0
M  V30 3805 N 384.306 0.507319 1.49211 0
M  V30 3806 C 385.256 -0.287112 2.26185 0
M  V30 3807 C 386.24 -0.929983 1.31302 0
M  V30 3808 O 387.432 -0.836538 1.55984 0
M  V30 3809 C 384.561 -1.34718 3.15763 0
M  V30 3810 C 383.647 -0.710235 4.18111 0
M  V30 3811 N 384.038 0.190836 5.0544 0
M  V30 3812 C 382.336 -0.97009 4.35322 0
M  V30 3813 C 383.037 0.55606 5.79036 0
M  V30 3814 N 382.013 -0.0775232 5.43545 0
M  V30 3815 H 385.815 0.406445 2.91076 0
M  V30 3816 H 383.329 0.323814 1.59139 0
M  V30 3817 H 385.326 -1.92982 3.69545 0
M  V30 3818 H 383.986 -2.04235 2.52424 0
M  V30 3819 H 384.997 0.562047 5.14841 0
M  V30 3820 H 381.674 -1.65753 3.83187 0
M  V30 3821 H 383.064 1.2936 6.5933 0
M  V30 3822 N 385.784 -1.5574 0.241426 0
M  V30 3823 C 386.694 -2.2479 -0.671305 0
M  V30 3824 C 387.71 -1.26217 -1.19772 0
M  V30 3825 O 388.886 -1.59079 -1.23514 0
M  V30 3826 C 385.951 -2.92966 -1.85396 0
M  V30 3827 C 385.012 -4.06935 -1.36756 0
M  V30 3828 C 384.245 -4.71851 -2.49384 0
M  V30 3829 O 384.468 -4.35823 -3.67987 0
M  V30 3830 O 383.402 -5.60467 -2.19454 0
M  V30 3831 H 387.228 -3.0349 -0.112966 0
M  V30 3832 H 384.813 -1.49397 0.0101513 0
M  V30 3833 H 386.695 -3.35927 -2.54423 0
M  V30 3834 H 385.37 -2.17211 -2.40002 0
M  V30 3835 H 384.277 -3.68503 -0.644726 0
M  V30 3836 H 385.61 -4.84492 -0.867647 0
M  V30 3837 N 387.262 0.0317525 -1.57568 0
M  V30 3838 C 388.192 1.03274 -2.0942 0
M  V30 3839 C 389.173 1.3788 -0.996143 0
M  V30 3840 O 390.358 1.46811 -1.27122 0
M  V30 3841 C 387.488 2.33448 -2.57137 0
M  V30 3842 C 386.442 2.13091 -3.71182 0
M  V30 3843 C 385.768 3.49001 -4.05095 0
M  V30 3844 C 387.068 1.51928 -4.99715 0
M  V30 3845 H 388.762 0.60112 -2.93303 0
M  V30 3846 H 386.308 0.287705 -1.41097 0
M  V30 3847 H 388.261 3.03802 -2.92032 0
M  V30 3848 H 386.985 2.78665 -1.70333 0
M  V30 3849 H 385.644 1.45171 -3.36632 0
M  V30 3850 H 385.292 3.91862 -3.15362 0
M  V30 3851 H 384.992 3.36207 -4.81911 0
M  V30 3852 H 386.516 4.20721 -4.42522 0
M  V30 3853 H 387.93 2.12196 -5.32584 0
M  V30 3854 H 386.327 1.49716 -5.81124 0
M  V30 3855 H 387.397 0.484811 -4.8247 0
M  V30 3856 N 388.74 1.54641 0.303973 0
M  V30 3857 C 389.688 1.86137 1.39484 0
M  V30 3858 C 390.682 0.734854 1.52631 0
M  V30 3859 O 391.888 0.918803 1.54784 0
M  V30 3860 H 388.263 0.590324 0.465856 0
M  V30 3861 H 390.234 2.77324 1.10154 0
M  V30 3862 C 388.983 2.12274 2.75382 0
M  V30 3863 H 388.306 2.98429 2.66046 0
M  V30 3864 H 389.746 2.38254 3.5073 0
M  V30 3865 C 388.205 0.920365 3.24085 0
M  V30 3866 O 388.735 0.139377 4.01458 0
M  V30 3867 N 386.941 0.726566 2.81371 0
M  V30 3868 H 386.488 1.36332 2.18567 0
M  V30 3869 H 386.446 -0.0763799 3.14307 0
M  V30 3870 N 390.218 -0.567019 1.47046 0
M  V30 3871 C 391.448 -1.34831 1.56538 0
M  V30 3872 C 391.856 -1.8802 0.21101 0
M  V30 3873 O 391.199 -1.65152 -0.804387 0
M  V30 3874 C 391.261 -2.56139 2.52256 0
M  V30 3875 C 390.925 -2.24307 3.98165 0
M  V30 3876 C 391.922 -1.82192 4.86931 0
M  V30 3877 C 389.607 -2.35968 4.43423 0
M  V30 3878 C 391.601 -1.52153 6.18973 0
M  V30 3879 C 389.288 -2.05542 5.75496 0
M  V30 3880 C 390.286 -1.63701 6.63092 0
M  V30 3881 O 389.974 -1.33657 7.92711 0
M  V30 3882 H 389.706 -0.417683 0.531523 0
M  V30 3883 H 392.26 -0.694726 1.93294 0
M  V30 3884 H 390.49 -3.24356 2.10548 0
M  V30 3885 H 392.179 -3.18214 2.51982 0
M  V30 3886 H 392.945 -1.72684 4.53217 0
M  V30 3887 H 388.824 -2.67495 3.75456 0
M  V30 3888 H 392.368 -1.19421 6.87302 0
M  V30 3889 H 388.265 -2.14679 6.08755 0
M  V30 3890 H 389.033 -1.4737 8.05124 0
M  V30 3891 N 391.696 -1.35014 -0.812953 0
M  V30 3892 C 392.944 -1.27678 -1.56661 0
M  V30 3893 C 393.265 0.150359 -1.94419 0
M  V30 3894 O 392.535 1.08532 -1.63088 0
M  V30 3895 H 391.115 -0.469602 -0.580933 0
M  V30 3896 H 393.777 -1.69043 -0.970076 0
M  V30 3897 H 392.873 -1.88833 -2.48492 0
M  V30 3898 N 393.175 1.03435 -1.18907 0
M  V30 3899 C 394.138 2.09756 -0.923844 0
M  V30 3900 C 395.138 1.60528 0.093416 0
M  V30 3901 O 396.328 1.73631 -0.140727 0
M  V30 3902 C 393.46 3.38692 -0.387354 0
M  V30 3903 H 394.653 2.34719 -1.86674 0
M  V30 3904 H 392.206 1.19959 -1.00197 0
M  V30 3905 H 392.941 3.19396 0.561845 0
M  V30 3906 H 392.726 3.75742 -1.12074 0
M  V30 3907 H 394.216 4.17016 -0.220694 0
M  V30 3908 N 394.653 0.992116 1.22453 0
M  V30 3909 C 395.899 0.668523 1.91464 0
M  V30 3910 C 396.232 -0.797313 1.77078 0
M  V30 3911 O 395.507 -1.5765 1.13916 0
M  V30 3912 C 395.79 1.07424 3.43703 0
M  V30 3913 C 395.643 2.59857 3.67143 0
M  V30 3914 C 396.962 0.626891 4.35612 0
M  V30 3915 H 394.081 0.244341 0.695318 0
M  V30 3916 H 396.723 1.2355 1.44345 0
M  V30 3917 H 394.873 0.591816 3.83966 0
M  V30 3918 H 396.545 3.15764 3.3629 0
M  V30 3919 H 394.788 3.01961 3.11451 0
M  V30 3920 H 395.459 2.83296 4.73759 0
M  V30 3921 H 397.935 1.04125 4.02861 0
M  V30 3922 H 396.811 0.939076 5.40807 0
M  V30 3923 H 397.072 -0.472457 4.39568 0
M  V30 3924 N 396.131 -1.37776 0.765217 0
M  V30 3925 C 397.359 -2.04124 0.337767 0
M  V30 3926 C 397.774 -1.57715 -1.03785 0
M  V30 3927 O 397.131 -0.755447 -1.6613 0
M  V30 3928 C 397.182 -3.59658 0.364442 0
M  V30 3929 O 396.903 -4.04367 1.68579 0
M  V30 3930 C 398.404 -4.43236 -0.0754221 0
M  V30 3931 H 395.624 -0.655696 0.142491 0
M  V30 3932 H 398.168 -1.76238 1.03732 0
M  V30 3933 H 396.323 -3.86339 -0.286471 0
M  V30 3934 H 396.737 -4.98857 1.61993 0
M  V30 3935 H 398.211 -5.52 -0.00560067 0
M  V30 3936 H 398.688 -4.2455 -1.12491 0
M  V30 3937 H 399.294 -4.21767 0.547055 0
M  V30 3938 N 397.609 -0.515225 -1.4894 0
M  V30 3939 C 398.857 0.0241671 -2.02086 0
M  V30 3940 C 399.178 1.3616 -1.3959 0
M  V30 3941 O 398.448 1.87841 -0.556121 0
M  V30 3942 H 397.028 0.0119203 -0.746905 0
M  V30 3943 H 399.69 -0.675702 -1.82812 0
M  V30 3944 H 398.786 0.143385 -3.1177 0
M  V30 3945 N 399.087 1.5561 -0.249682 0
M  V30 3946 C 400.317 2.03116 0.377803 0
M  V30 3947 C 400.725 1.12822 1.51881 0
M  V30 3948 O 400.068 0.13562 1.83199 0
M  V30 3949 C 400.13 3.46866 0.944693 0
M  V30 3950 C 399.794 4.56955 -0.0644259 0
M  V30 3951 C 400.791 5.12485 -0.874957 0
M  V30 3952 C 398.476 5.01936 -0.19132 0
M  V30 3953 C 400.47 6.11491 -1.79881 0
M  V30 3954 C 398.157 6.00773 -1.11868 0
M  V30 3955 C 399.155 6.5543 -1.92095 0
M  V30 3956 O 398.843 7.5234 -2.83267 0
M  V30 3957 H 398.575 0.669489 0.0935961 0
M  V30 3958 H 401.129 2.02004 -0.371966 0
M  V30 3959 H 399.359 3.45136 1.74407 0
M  V30 3960 H 401.048 3.77856 1.48255 0
M  V30 3961 H 401.814 4.78564 -0.787523 0
M  V30 3962 H 397.693 4.59055 0.423072 0
M  V30 3963 H 401.237 6.54078 -2.42543 0
M  V30 3964 H 397.134 6.34114 -1.20703 0
M  V30 3965 H 397.902 7.69966 -2.7766 0
M  V30 3966 N 400.565 -0.0233959 1.57583 0
M  V30 3967 C 401.498 -1.05549 2.02323 0
M  V30 3968 C 402.476 -1.34843 0.908626 0
M  V30 3969 O 403.66 -1.47404 1.17491 0
M  V30 3970 C 400.787 -2.38885 2.40108 0
M  V30 3971 C 399.833 -2.2541 3.62067 0
M  V30 3972 S 400.666 -1.60217 5.1097 0
M  V30 3973 C 401.822 -2.95032 5.52003 0
M  V30 3974 H 402.055 -0.674435 2.89549 0
M  V30 3975 H 399.588 -0.23355 1.52623 0
M  V30 3976 H 401.546 -3.15562 2.62547 0
M  V30 3977 H 400.207 -2.74137 1.53323 0
M  V30 3978 H 399.4 -3.23854 3.86179 0
M  V30 3979 H 399.002 -1.56876 3.39508 0
M  V30 3980 H 401.294 -3.91357 5.53033 0
M  V30 3981 H 402.237 -2.75646 6.52246 0
M  V30 3982 H 402.645 -2.97865 4.79517 0
M  V30 3983 N 402.043 -1.548 -0.295768 0
M  V30 3984 C 403.32 -1.65014 -1.05023 0
M  V30 3985 C 403.7 -0.501805 -2.05049 0
M  V30 3986 O 403.048 0.500869 -2.22943 0
M  V30 3987 C 403.258 -3.03252 -1.72741 0
M  V30 3988 C 404.606 -3.60242 -2.24746 0
M  V30 3989 O 405.63 -3.05737 -1.82765 0
M  V30 3990 O 404.489 -4.55687 -3.01681 0
M  V30 3991 H 401.583 -0.669314 -0.485744 0
M  V30 3992 H 404.129 -1.67144 -0.293438 0
M  V30 3993 H 402.901 -3.7827 -1.00138 0
M  V30 3994 H 402.524 -3.04922 -2.55163 0
M  V30 3995 N 403.521 0.559213 -1.47345 0
M  V30 3996 C 404.769 1.31388 -1.53563 0
M  V30 3997 C 405.09 1.93985 -0.198678 0
M  V30 3998 O 404.36 1.79825 0.777167 0
M  V30 3999 H 402.94 0.487901 -0.565652 0
M  V30 4000 H 405.602 0.65315 -1.8363 0
M  V30 4001 H 404.698 2.10844 -2.30111 0
M  V30 4002 N 404.999 1.35443 0.805782 0
M  V30 4003 C 406.248 1.28097 1.55801 0
M  V30 4004 C 406.561 -0.142428 1.95081 0
M  V30 4005 O 407.767 -0.33817 2.69386 0
M  V30 4006 C 406.223 2.24653 2.81174 0
M  V30 4007 C 405.831 3.72342 2.49129 0
M  V30 4008 C 407.575 2.2625 3.59181 0
M  V30 4009 C 405.482 4.60719 3.70799 0
M  V30 4010 H 404.412 0.475937 0.584808 0
M  V30 4011 H 407.063 1.60712 0.885661 0
M  V30 4012 H 405.445 1.85011 3.50124 0
M  V30 4013 H 406.619 4.20624 1.88181 0
M  V30 4014 H 404.934 3.73361 1.84366 0
M  V30 4015 H 407.531 2.89495 4.49552 0
M  V30 4016 H 407.874 1.26647 3.96568 0
M  V30 4017 H 408.407 2.64426 2.97193 0
M  V30 4018 H 405.146 5.61324 3.3852 0
M  V30 4019 H 404.666 4.17163 4.3097 0
M  V30 4020 H 406.345 4.76182 4.38018 0
M  V30 4021 N 406.477 -1.02803 1.19454 0
M  V30 4022 C 407.407 -2.12999 0.956758 0
M  V30 4023 C 408.388 -1.69743 -0.110188 0
M  V30 4024 O 409.573 -1.94148 0.0450038 0
M  V30 4025 C 406.703 -3.43746 0.495553 0
M  V30 4026 C 405.657 -4.00688 1.50443 0
M  V30 4027 C 404.983 -5.27067 0.900275 0
M  V30 4028 C 406.283 -4.35397 2.8849 0
M  V30 4029 H 407.977 -2.33148 1.87836 0
M  V30 4030 H 405.523 -1.12045 0.904539 0
M  V30 4031 H 407.476 -4.2021 0.316493 0
M  V30 4032 H 406.2 -3.23321 -0.461646 0
M  V30 4033 H 404.859 -3.2632 1.67065 0
M  V30 4034 H 404.507 -5.02959 -0.064503 0
M  V30 4035 H 404.207 -5.66127 1.57397 0
M  V30 4036 H 405.731 -6.06196 0.73203 0
M  V30 4037 H 407.145 -5.02795 2.75446 0
M  V30 4038 H 405.542 -4.85541 3.52661 0
M  V30 4039 H 406.612 -3.44662 3.41081 0
M  V30 4040 N 407.956 -0.998596 -1.21925 0
M  V30 4041 C 408.904 -0.546641 -2.26085 0
M  V30 4042 C 409.898 0.405576 -1.64473 0
M  V30 4043 O 411.104 0.277471 -1.77849 0
M  V30 4044 H 407.479 -0.158403 -0.735127 0
M  V30 4045 H 409.45 -1.43645 -2.61551 0
M  V30 4046 C 408.199 0.117388 -3.47502 0
M  V30 4047 H 407.522 -0.606277 -3.95176 0
M  V30 4048 H 408.962 0.396993 -4.22137 0
M  V30 4049 C 407.421 1.35455 -3.0847 0
M  V30 4050 O 407.951 2.44944 -3.18379 0
M  V30 4051 N 406.157 1.23191 -2.63196 0
M  V30 4052 H 405.704 0.341006 -2.55333 0
M  V30 4053 H 405.662 2.06071 -2.37449 0
M  V30 4054 N 409.434 1.37368 -0.772513 0
M  V30 4055 C 410.681 1.99673 -0.337182 0
M  V30 4056 C 411.009 1.61324 1.0865 0
M  V30 4057 O 410.264 0.851377 1.7621 0
M  V30 4058 C 410.563 3.54817 -0.428876 0
M  V30 4059 C 410.229 4.12936 -1.81092 0
M  V30 4060 C 408.891 4.28523 -2.1891 0
M  V30 4061 C 411.243 4.44801 -2.71664 0
M  V30 4062 C 408.571 4.73277 -3.46735 0
M  V30 4063 C 410.923 4.90981 -3.98899 0
M  V30 4064 C 409.587 5.04773 -4.36761 0
M  V30 4065 H 408.857 0.730656 -0.123384 0
M  V30 4066 H 411.504 1.64124 -0.986686 0
M  V30 4067 H 409.809 3.90618 0.304167 0
M  V30 4068 H 411.506 4.00933 -0.0733334 0
M  V30 4069 H 408.096 4.01233 -1.50699 0
M  V30 4070 H 412.28 4.32344 -2.43706 0
M  V30 4071 H 407.536 4.82142 -3.75964 0
M  V30 4072 H 411.71 5.14603 -4.69208 0
M  V30 4073 H 409.337 5.39211 -5.35868 0
M  V30 4074 N 410.912 0.523116 1.48665 0
M  V30 4075 C 412.323 0.0808997 1.86525 0
M  V30 4076 C 412.674 -1.33975 1.43336 0
M  V30 4077 O 411.799 -2.00221 0.821009 0
M  V30 4078 C 412.394 0.140037 3.3851 0
M  V30 4079 C 410.953 -0.246948 3.75589 0
M  V30 4080 C 410.1 0.502845 2.72703 0
M  V30 4081 H 413.051 0.734736 1.40667 0
M  V30 4082 H 413.072 -0.649945 3.74908 0
M  V30 4083 H 412.584 1.17412 3.69914 0
M  V30 4084 H 410.685 -1.28343 3.49798 0
M  V30 4085 H 410.798 0.0878859 4.79019 0
M  V30 4086 H 409.162 -0.0500581 2.54651 0
M  V30 4087 H 409.945 1.53743 3.0695 0
M  V30 4088 N 412.39 -1.55475 0.257931 0
M  V30 4089 C 413.353 -2.20551 -0.623706 0
M  V30 4090 C 414.353 -1.17809 -1.09443 0
M  V30 4091 O 415.543 -1.42823 -0.997362 0
M  V30 4092 C 412.675 -2.85784 -1.8585 0
M  V30 4093 H 413.868 -2.99848 -0.0557743 0
M  V30 4094 H 411.421 -1.56298 0.0084422 0
M  V30 4095 H 412.156 -2.10453 -2.46739 0
M  V30 4096 H 411.941 -3.61057 -1.52907 0
M  V30 4097 H 413.431 -3.35553 -2.48584 0
M  V30 4098 N 413.868 0.0150385 -1.57593 0
M  V30 4099 C 414.798 1.01047 -2.10503 0
M  V30 4100 C 415.779 1.36816 -1.01071 0
M  V30 4101 O 416.964 1.45455 -1.28672 0
M  V30 4102 C 414.094 2.30708 -2.59598 0
M  V30 4103 C 413.048 2.09142 -3.73421 0
M  V30 4104 C 412.374 3.44685 -4.08774 0
M  V30 4105 C 413.674 1.46619 -5.01298 0
M  V30 4106 H 415.368 0.569978 -2.93925 0
M  V30 4107 H 412.914 0.272724 -1.41394 0
M  V30 4108 H 414.867 3.00687 -2.95238 0
M  V30 4109 H 413.591 2.76843 -1.73279 0
M  V30 4110 H 412.25 1.41592 -3.38153 0
M  V30 4111 H 411.898 3.88495 -3.195 0
M  V30 4112 H 411.598 3.31077 -4.8545 0
M  V30 4113 H 413.122 4.16004 -4.4696 0
M  V30 4114 H 414.536 2.06535 -5.34805 0
M  V30 4115 H 412.933 1.43544 -5.82679 0
M  V30 4116 H 414.003 0.433611 -4.82957 0
M  V30 4117 N 415.346 1.54954 0.287554 0
M  V30 4118 C 416.278 1.83224 1.37701 0
M  V30 4119 C 417.291 0.715898 1.46215 0
M  V30 4120 O 418.48 0.993565 1.48292 0
M  V30 4121 C 415.58 1.96723 2.75959 0
M  V30 4122 C 414.753 3.27253 2.90215 0
M  V30 4123 C 413.812 3.30998 4.09056 0
M  V30 4124 O 412.838 4.04457 4.00503 0
M  V30 4125 N 414.04 2.57353 5.20336 0
M  V30 4126 H 416.805 2.77254 1.138 0
M  V30 4127 H 414.366 1.54694 0.477652 0
M  V30 4128 H 416.358 1.96615 3.5373 0
M  V30 4129 H 414.928 1.09626 2.92747 0
M  V30 4130 H 414.148 3.40022 1.99447 0
M  V30 4131 H 415.436 4.13365 2.96659 0
M  V30 4132 H 414.834 1.97327 5.30169 0
M  V30 4133 H 413.391 2.62984 5.96391 0
M  V30 4134 N 416.824 -0.551391 1.4764 0
M  V30 4135 C 418.052 -1.33357 1.58189 0
M  V30 4136 C 418.467 -1.87342 0.234199 0
M  V30 4137 O 417.824 -1.65301 -0.77343 0
M  V30 4138 C 417.875 -2.49942 2.61173 0
M  V30 4139 O 417.596 -1.98187 3.90709 0
M  V30 4140 C 419.097 -3.42072 2.8196 0
M  V30 4141 H 416.317 -0.40631 0.533998 0
M  V30 4142 H 418.861 -0.667367 1.93304 0
M  V30 4143 H 417.016 -3.12489 2.28975 0
M  V30 4144 H 417.43 -2.74342 4.47031 0
M  V30 4145 H 418.904 -4.20278 3.57869 0
M  V30 4146 H 419.381 -3.95978 1.89995 0
M  V30 4147 H 419.987 -2.85336 3.15378 0
M  V30 4148 N 418.302 -1.35869 -0.798587 0
M  V30 4149 C 419.235 -1.23801 -1.91699 0
M  V30 4150 C 420.213 -0.124143 -1.62125 0
M  V30 4151 O 421.397 -0.293656 -1.86199 0
M  V30 4152 C 418.524 -0.908063 -3.263 0
M  V30 4153 C 417.57 -2.0351 -3.74815 0
M  V30 4154 S 418.403 -3.65183 -3.91665 0
M  V30 4155 C 419.559 -3.34283 -5.29156 0
M  V30 4156 H 419.792 -2.18466 -2.01643 0
M  V30 4157 H 417.325 -1.21178 -0.956833 0
M  V30 4158 H 419.283 -0.724506 -4.04056 0
M  V30 4159 H 417.944 0.0206584 -3.14093 0
M  V30 4160 H 417.137 -1.75858 -4.72324 0
M  V30 4161 H 416.739 -2.1774 -3.04081 0
M  V30 4162 H 419.031 -2.87607 -6.13424 0
M  V30 4163 H 419.974 -4.31022 -5.61806 0
M  V30 4164 H 420.382 -2.69854 -4.95822 0
M  V30 4165 N 419.78 1.02168 -1.19998 0
M  V30 4166 C 421.027 1.75685 -1.00702 0
M  V30 4167 C 421.355 1.88947 0.461426 0
M  V30 4168 O 420.61 1.40832 1.35885 0
M  V30 4169 C 420.909 3.18081 -1.62969 0
M  V30 4170 C 420.575 3.24809 -3.12746 0
M  V30 4171 C 419.237 3.26352 -3.53621 0
M  V30 4172 C 421.589 3.23379 -4.08749 0
M  V30 4173 C 418.917 3.2413 -4.89036 0
M  V30 4174 C 421.269 3.22698 -5.44104 0
M  V30 4175 C 419.933 3.22542 -5.84399 0
M  V30 4176 H 419.203 0.642877 -0.368496 0
M  V30 4177 H 421.85 1.19865 -1.49348 0
M  V30 4178 H 420.155 3.77027 -1.06573 0
M  V30 4179 H 421.852 3.73648 -1.45561 0
M  V30 4180 H 418.442 3.2434 -2.80181 0
M  V30 4181 H 422.626 3.21361 -3.78207 0
M  V30 4182 H 417.882 3.22338 -5.19527 0
M  V30 4183 H 422.056 3.20543 -6.18244 0
M  V30 4184 H 419.683 3.20575 -6.89301 0
M  V30 4185 N 421.258 1.00505 1.21394 0
M  V30 4186 C 422.221 0.570459 2.21987 0
M  V30 4187 C 423.221 -0.353211 1.56873 0
M  V30 4188 O 424.411 -0.14349 1.73608 0
M  V30 4189 C 421.543 -0.168555 3.40483 0
M  V30 4190 H 422.736 1.46021 2.6195 0
M  V30 4191 H 420.289 0.793565 1.34656 0
M  V30 4192 H 421.024 -1.07374 3.06009 0
M  V30 4193 H 420.809 0.494823 3.88965 0
M  V30 4194 H 422.299 -0.460362 4.15055 0
M  V30 4195 N 422.737 -1.36956 0.779787 0
M  V30 4196 C 424.148 -1.82094 0.412156 0
M  V30 4197 C 424.499 -1.64926 -1.06273 0
M  V30 4198 O 423.624 -1.16483 -1.82375 0
M  V30 4199 C 424.219 -3.3059 0.741319 0
M  V30 4200 C 422.778 -3.73974 0.426641 0
M  V30 4201 C 421.925 -2.59368 0.980987 0
M  V30 4202 H 424.876 -1.25314 0.973758 0
M  V30 4203 H 424.897 -3.80489 0.028887 0
M  V30 4204 H 424.409 -3.43054 1.81482 0
M  V30 4205 H 422.51 -3.67076 -0.639215 0
M  V30 4206 H 422.623 -4.69778 0.940515 0
M  V30 4207 H 420.987 -2.51463 0.404757 0
M  V30 4208 H 421.77 -2.74621 2.06005 0
M  V30 4209 N 424.215 -0.530993 -1.48385 0
M  V30 4210 C 425.461 0.00274135 -2.028 0
M  V30 4211 C 425.794 1.33838 -1.40716 0
M  V30 4212 O 425.069 1.86465 -0.553277 0
M  V30 4213 C 425.352 0.123676 -3.59888 0
M  V30 4214 C 425.205 -1.2372 -4.3245 0
M  V30 4215 C 426.524 0.849967 -4.31814 0
M  V30 4216 H 423.643 -0.000477758 -0.737 0
M  V30 4217 H 426.285 -0.688217 -1.77098 0
M  V30 4218 H 424.435 0.712157 -3.81917 0
M  V30 4219 H 426.107 -1.86687 -4.21836 0
M  V30 4220 H 424.35 -1.81882 -3.93829 0
M  V30 4221 H 425.021 -1.10557 -5.40815 0
M  V30 4222 H 427.497 0.350572 -4.14621 0
M  V30 4223 H 426.373 0.903486 -5.41413 0
M  V30 4224 H 426.634 1.90047 -3.99167 0
M  V30 4225 N 425.693 1.55336 -0.266172 0
M  V30 4226 C 426.97 1.91372 0.404486 0
M  V30 4227 C 427.35 1.18935 1.74407 0
M  V30 4228 O 426.698 0.3132 2.26343 0
M  V30 4229 C 426.908 3.44581 0.553593 0
M  V30 4230 C 428.256 4.16196 0.840618 0
M  V30 4231 O 429.28 3.50426 0.638739 0
M  V30 4232 O 428.139 5.32567 1.22618 0
M  V30 4233 H 425.233 0.797194 0.220025 0
M  V30 4234 H 427.779 1.66813 -0.311664 0
M  V30 4235 H 426.551 3.89357 -0.389498 0
M  V30 4236 H 426.174 3.75065 1.31955 0
M  V30 4237 N 427.171 -0.0066808 1.57599 0
M  V30 4238 C 428.101 -0.999296 2.11036 0
M  V30 4239 C 429.082 -1.36278 1.01795 0
M  V30 4240 O 430.267 -1.4477 1.29442 0
M  V30 4241 C 427.397 -2.29328 2.60818 0
M  V30 4242 C 426.351 -2.07159 3.74525 0
M  V30 4243 C 425.677 -3.42512 4.10596 0
M  V30 4244 C 426.977 -1.43959 5.02069 0
M  V30 4245 H 428.671 -0.554382 2.94223 0
M  V30 4246 H 426.217 -0.265221 1.41536 0
M  V30 4247 H 428.17 -2.99117 2.96828 0
M  V30 4248 H 426.894 -2.7592 1.74745 0
M  V30 4249 H 425.553 -1.39797 3.38899 0
M  V30 4250 H 425.201 -3.86795 3.21556 0
M  V30 4251 H 424.901 -3.28498 4.87199 0
M  V30 4252 H 426.425 -4.13628 4.4916 0
M  V30 4253 H 427.839 -2.03696 5.35893 0
M  V30 4254 H 426.236 -1.40452 5.83432 0
M  V30 4255 H 427.306 -0.407992 4.83181 0
M  V30 4256 N 428.649 -1.55105 -0.279332 0
M  V30 4257 C 429.895 -1.75672 -1.01327 0
M  V30 4258 C 430.228 -0.552739 -1.86168 0
M  V30 4259 O 429.503 0.449827 -1.89227 0
M  V30 4260 C 429.786 -3.05825 -1.90114 0
M  V30 4261 C 429.639 -4.36565 -1.08309 0
M  V30 4262 C 430.958 -3.31975 -2.8893 0
M  V30 4263 H 428.077 -0.639149 -0.366957 0
M  V30 4264 H 430.719 -1.87833 -0.286154 0
M  V30 4265 H 428.869 -2.95588 -2.52111 0
M  V30 4266 H 430.541 -4.58751 -0.484314 0
M  V30 4267 H 428.784 -4.32076 -0.386362 0
M  V30 4268 H 429.455 -5.23946 -1.73737 0
M  V30 4269 H 431.931 -3.41963 -2.37067 0
M  V30 4270 H 430.807 -4.2432 -3.48201 0
M  V30 4271 H 431.068 -2.51309 -3.63725 0
M  V30 4272 N 430.127 0.543554 -1.4793 0
M  V30 4273 C 431.057 1.65888 -1.64327 0
M  V30 4274 C 432.038 1.62818 -0.492383 0
M  V30 4275 O 433.223 1.80226 -0.723338 0
M  V30 4276 C 430.353 3.04506 -1.67013 0
M  V30 4277 C 429.307 3.2243 -2.81466 0
M  V30 4278 C 428.633 4.61972 -2.69233 0
M  V30 4279 C 429.933 3.06496 -4.22915 0
M  V30 4280 H 431.627 1.52421 -2.57698 0
M  V30 4281 H 429.173 0.731849 -1.24016 0
M  V30 4282 H 431.126 3.82391 -1.77074 0
M  V30 4283 H 429.85 3.18964 -0.70212 0
M  V30 4284 H 428.509 2.46957 -2.70938 0
M  V30 4285 H 428.157 4.73247 -1.7043 0
M  V30 4286 H 427.857 4.74911 -3.46025 0
M  V30 4287 H 429.381 5.41974 -2.81242 0
M  V30 4288 H 430.795 3.74186 -4.34348 0
M  V30 4289 H 429.192 3.30938 -5.006 0
M  V30 4290 H 430.262 2.03077 -4.40327 0
M  V30 4291 N 431.605 1.3629 0.791371 0
M  V30 4292 C 432.833 1.33562 1.58016 0
M  V30 4293 C 433.248 -0.0835616 1.88615 0
M  V30 4294 O 432.605 -1.0399 1.49974 0
M  V30 4295 C 432.656 2.15517 2.90232 0
M  V30 4296 O 432.377 3.51902 2.60953 0
M  V30 4297 C 433.878 2.20546 3.84544 0
M  V30 4298 H 431.098 0.458226 0.490173 0
M  V30 4299 H 433.642 1.79361 0.982345 0
M  V30 4300 H 431.797 1.73278 3.46487 0
M  V30 4301 H 432.211 3.94644 3.4548 0
M  V30 4302 H 433.685 2.82252 4.74382 0
M  V30 4303 H 434.162 1.20838 4.2225 0
M  V30 4304 H 434.768 2.63013 3.34222 0
M  V30 4305 N 433.083 -1.0153 1.20538 0
M  V30 4306 C 434.329 -1.75408 1.01783 0
M  V30 4307 C 434.662 -1.88943 -0.448814 0
M  V30 4308 O 433.937 -1.4162 -1.33319 0
M  V30 4309 C 434.22 -3.17255 1.70356 0
M  V30 4310 C 434.073 -3.11508 3.24473 0
M  V30 4311 C 435.392 -4.15955 1.43769 0
M  V30 4312 H 432.511 -0.636713 0.371167 0
M  V30 4313 H 435.153 -1.18436 1.4857 0
M  V30 4314 H 433.303 -3.65898 1.30578 0
M  V30 4315 H 434.975 -2.70658 3.73553 0
M  V30 4316 H 433.218 -2.4887 3.55311 0
M  V30 4317 H 433.889 -4.11784 3.67611 0
M  V30 4318 H 436.365 -3.75973 1.7828 0
M  V30 4319 H 435.241 -5.13368 1.94279 0
M  V30 4320 H 435.502 -4.40586 0.365564 0
M  V30 4321 N 434.561 -1.01147 -1.20859 0
M  V30 4322 C 435.809 -0.696486 -1.89719 0
M  V30 4323 C 436.13 0.775788 -1.78904 0
M  V30 4324 O 435.4 1.55759 -1.18811 0
M  V30 4325 H 433.98 -0.254628 -0.702263 0
M  V30 4326 H 436.642 -1.28197 -1.46804 0
M  V30 4327 H 435.738 -0.975357 -2.96468 0
M  V30 4328 N 436.039 1.36541 -0.78704 0
M  V30 4329 C 437.269 2.03266 -0.369662 0
M  V30 4330 C 437.677 1.59481 1.01796 0
M  V30 4331 O 437.02 0.778612 1.66383 0
M  V30 4332 C 437.082 3.57779 -0.351371 0
M  V30 4333 C 436.746 4.24756 -1.68617 0
M  V30 4334 C 437.743 4.47811 -2.64124 0
M  V30 4335 C 435.428 4.62277 -1.96481 0
M  V30 4336 C 437.422 5.07464 -3.85693 0
M  V30 4337 C 435.109 5.21649 -3.18317 0
M  V30 4338 C 436.107 5.44182 -4.12741 0
M  V30 4339 O 435.795 6.02307 -5.32429 0
M  V30 4340 H 435.527 0.658977 -0.150751 0
M  V30 4341 H 438.081 1.75548 -1.0664 0
M  V30 4342 H 436.311 3.84606 0.401847 0
M  V30 4343 H 438 4.05879 0.0410147 0
M  V30 4344 H 438.766 4.19221 -2.43883 0
M  V30 4345 H 434.645 4.44065 -1.23805 0
M  V30 4346 H 438.189 5.24968 -4.59407 0
M  V30 4347 H 434.086 5.49664 -3.38437 0
M  V30 4348 H 434.854 6.20775 -5.33461 0
M  V30 4349 N 437.518 0.538854 1.48102 0
M  V30 4350 C 438.795 -0.0568108 1.95517 0
M  V30 4351 C 439.175 -1.50408 1.48124 0
M  V30 4352 O 438.523 -2.17133 0.711727 0
M  V30 4353 C 438.733 0.0696262 3.48931 0
M  V30 4354 C 440.081 -0.0851202 4.24515 0
M  V30 4355 O 441.105 -0.0037347 3.562 0
M  V30 4356 O 439.964 -0.257025 5.45895 0
M  V30 4357 H 437.058 -0.0743695 0.823649 0
M  V30 4358 H 439.604 0.604081 1.58584 0
M  V30 4359 H 438.376 1.07744 3.76174 0
M  V30 4360 H 437.999 -0.629714 3.92582 0
M  V30 4361 N 438.996 -1.55193 0.274407 0
M  V30 4362 C 440.226 -2.03692 -0.345442 0
M  V30 4363 C 440.634 -1.15224 -1.50067 0
M  V30 4364 O 439.977 -0.164749 -1.8296 0
M  V30 4365 C 440.039 -3.48325 -0.88939 0
M  V30 4366 C 439.703 -4.56794 0.137115 0
M  V30 4367 C 440.7 -5.11028 0.956378 0
M  V30 4368 C 438.385 -5.01568 0.27115 0
M  V30 4369 C 440.379 -6.08552 1.89587 0
M  V30 4370 C 438.066 -5.98918 1.21412 0
M  V30 4371 C 439.064 -6.52291 2.02498 0
M  V30 4372 O 438.752 -7.47738 2.952 0
M  V30 4373 H 438.484 -0.670893 -0.0829332 0
M  V30 4374 H 441.038 -2.01387 0.404056 0
M  V30 4375 H 439.268 -3.47867 -1.68895 0
M  V30 4376 H 440.957 -3.80167 -1.42225 0
M  V30 4377 H 441.723 -4.7725 0.863559 0
M  V30 4378 H 437.602 -4.5967 -0.349987 0
M  V30 4379 H 441.146 -6.50137 2.52918 0
M  V30 4380 H 437.043 -6.32114 1.30776 0
M  V30 4381 H 437.811 -7.65451 2.89874 0
M  V30 4382 N 440.474 -0.00167713 -1.576 0
M  V30 4383 C 441.437 0.974046 -2.07473 0
M  V30 4384 C 442.437 1.27143 -0.984444 0
M  V30 4385 O 443.627 1.21633 -1.24703 0
M  V30 4386 C 440.759 2.29849 -2.51759 0
M  V30 4387 H 441.952 0.54262 -2.9495 0
M  V30 4388 H 439.505 0.245829 -1.54355 0
M  V30 4389 H 440.24 2.77677 -1.67529 0
M  V30 4390 H 440.025 2.09584 -3.31386 0
M  V30 4391 H 441.515 2.9984 -2.90664 0
M  V30 4392 N 441.952 1.55251 0.271103 0
M  V30 4393 C 442.862 1.9136 1.35714 0
M  V30 4394 C 443.878 0.811075 1.5394 0
M  V30 4395 O 445.054 1.11031 1.6803 0
M  V30 4396 C 442.119 2.1798 2.69603 0
M  V30 4397 C 441.18 3.4153 2.60107 0
M  V30 4398 C 440.413 3.66871 3.8761 0
M  V30 4399 O 440.636 2.94689 4.8838 0
M  V30 4400 O 439.57 4.60405 3.87699 0
M  V30 4401 H 443.396 2.83815 1.08088 0
M  V30 4402 H 440.981 1.41821 0.469792 0
M  V30 4403 H 442.863 2.36518 3.48765 0
M  V30 4404 H 441.538 1.28708 2.97012 0
M  V30 4405 H 440.445 3.28325 1.79314 0
M  V30 4406 H 441.778 4.31027 2.37647 0
M  V30 4407 N 443.43 -0.535701 1.48216 0
M  V30 4408 C 444.707 -1.29683 1.46429 0
M  V30 4409 C 445.087 -2.10391 0.172852 0
M  V30 4410 O 444.435 -2.12282 -0.845488 0
M  V30 4411 C 444.645 -2.18313 2.72287 0
M  V30 4412 C 445.993 -2.78639 3.20383 0
M  V30 4413 O 447.017 -2.28604 2.73164 0
M  V30 4414 O 445.876 -3.69636 4.02531 0
M  V30 4415 H 442.97 -0.585026 0.584529 0
M  V30 4416 H 445.516 -0.552827 1.60443 0
M  V30 4417 H 444.288 -1.58421 3.57797 0
M  V30 4418 H 443.911 -2.99971 2.60966 0
M  V30 4419 N 444.908 -1.36708 -0.784132 0
M  V30 4420 C 445.838 -1.34153 -1.91116 0
M  V30 4421 C 446.819 -0.212121 -1.68772 0
M  V30 4422 O 448.004 -0.410581 -1.8981 0
M  V30 4423 C 445.134 -1.13535 -3.28218 0
M  V30 4424 C 444.088 -2.23356 -3.65097 0
M  V30 4425 C 443.414 -1.87875 -5.00607 0
M  V30 4426 C 444.714 -3.65473 -3.73131 0
M  V30 4427 H 446.408 -2.28459 -1.93512 0
M  V30 4428 H 443.954 -1.09973 -0.929618 0
M  V30 4429 H 445.907 -1.10381 -4.06687 0
M  V30 4430 H 444.631 -0.156804 -3.26223 0
M  V30 4431 H 443.29 -2.25645 -2.88929 0
M  V30 4432 H 442.938 -0.885814 -4.95139 0
M  V30 4433 H 442.638 -2.61406 -5.26252 0
M  V30 4434 H 444.162 -1.86286 -5.81489 0
M  V30 4435 H 445.576 -3.65382 -4.41779 0
M  V30 4436 H 443.973 -4.37953 -4.10265 0
M  V30 4437 H 445.043 -3.99995 -2.74102 0
M  V30 4438 N 446.386 1.0089 -1.21074 0
M  V30 4439 C 447.802 1.2695 -0.967257 0
M  V30 4440 C 448.002 1.9846 0.348673 0
M  V30 4441 O 447.058 2.28459 1.0753 0
M  V30 4442 C 448.371 2.09697 -2.15517 0
M  V30 4443 C 449.919 2.22937 -2.197 0
M  V30 4444 C 450.394 3.09064 -3.37999 0
M  V30 4445 N 451.885 3.16653 -3.38061 0
M  V30 4446 C 452.62 3.8354 -4.26245 0
M  V30 4447 N 452.116 4.52488 -5.2462 0
M  V30 4448 N 453.909 3.80141 -4.14064 0
M  V30 4449 H 446.06 0.529005 -2.05707 0
M  V30 4450 H 448.323 0.296148 -0.900556 0
M  V30 4451 H 448.029 1.64497 -3.10859 0
M  V30 4452 H 447.903 3.10444 -2.14253 0
M  V30 4453 H 450.29 2.67357 -1.24916 0
M  V30 4454 H 450.371 1.21673 -2.2501 0
M  V30 4455 H 450.015 2.65347 -4.33074 0
M  V30 4456 H 449.945 4.10433 -3.29928 0
M  V30 4457 H 452.436 2.67566 -2.66865 0
M  V30 4458 H 452.749 5.01219 -5.88217 0
M  V30 4459 H 451.094 4.51288 -5.28549 0
M  V30 4460 H 454.285 3.25427 -3.36474 0
M  V30 4461 H 454.458 4.31992 -4.82998 0
M  V30 4462 N 447.864 1.01787 1.20321 0
M  V30 4463 C 449.275 0.739307 1.71438 0
M  V30 4464 C 449.626 -0.742041 1.81627 0
M  V30 4465 O 448.751 -1.57903 1.47971 0
M  V30 4466 C 449.346 1.33538 3.11373 0
M  V30 4467 C 447.905 1.10566 3.59795 0
M  V30 4468 C 447.052 1.44028 2.36962 0
M  V30 4469 H 450.003 1.18718 1.05317 0
M  V30 4470 H 450.024 0.726611 3.73498 0
M  V30 4471 H 449.536 2.41352 3.03926 0
M  V30 4472 H 447.637 0.0452405 3.72573 0
M  V30 4473 H 447.75 1.78661 4.44542 0
M  V30 4474 H 446.114 0.85933 2.39766 0
M  V30 4475 H 446.897 2.52901 2.32155 0
M  V30 4476 N 449.342 -1.36122 0.79427 0
M  V30 4477 C 450.567 -2.03891 0.379871 0
M  V30 4478 C 450.992 -1.59488 -0.997251 0
M  V30 4479 O 450.35 -0.765652 -1.64339 0
M  V30 4480 C 450.398 -3.57687 0.457442 0
M  V30 4481 O 449.502 -4.08931 -0.5338 0
M  V30 4482 H 448.843 -0.6443 0.160541 0
M  V30 4483 H 451.373 -1.73976 1.07673 0
M  V30 4484 H 451.383 -4.06721 0.322792 0
M  V30 4485 H 450.058 -3.89357 1.46199 0
M  V30 4486 H 448.635 -3.71154 -0.360409 0
M  V30 4487 N 450.82 -0.546701 -1.47814 0
M  V30 4488 C 451.753 0.254472 -2.26777 0
M  V30 4489 C 452.731 0.929809 -1.33392 0
M  V30 4490 O 453.915 0.950889 -1.62759 0
M  V30 4491 C 451.042 1.36171 -3.10121 0
M  V30 4492 C 450.088 0.796038 -4.19005 0
M  V30 4493 S 450.921 -0.349191 -5.3436 0
M  V30 4494 C 452.077 0.760122 -6.21267 0
M  V30 4495 H 452.31 -0.415612 -2.94381 0
M  V30 4496 H 449.843 -0.332809 -1.5077 0
M  V30 4497 H 451.801 1.99588 -3.58713 0
M  V30 4498 H 450.462 2.00359 -2.41899 0
M  V30 4499 H 449.655 1.62719 -4.7701 0
M  V30 4500 H 449.257 0.238246 -3.7324 0
M  V30 4501 H 451.549 1.65479 -6.5698 0
M  V30 4502 H 452.492 0.217673 -7.07765 0
M  V30 4503 H 452.9 1.04806 -5.54685 0
M  V30 4504 N 452.299 1.55045 -0.282633 0
M  V30 4505 C 453.545 2.0078 0.325436 0
M  V30 4506 C 453.9 1.1676 1.52921 0
M  V30 4507 O 453.193 0.231475 1.90197 0
M  V30 4508 C 453.387 3.49422 0.750938 0
M  V30 4509 C 453.216 4.47827 -0.410056 0
M  V30 4510 C 451.986 4.97288 -0.896239 0
M  V30 4511 C 454.184 4.98903 -1.24902 0
M  V30 4512 N 452.166 5.79508 -2.02591 0
M  V30 4513 C 453.537 5.78644 -2.22646 0
M  V30 4514 C 455.592 4.81126 -1.2815 0
M  V30 4515 C 454.295 6.42502 -3.23393 0
M  V30 4516 C 456.321 5.45789 -2.27745 0
M  V30 4517 C 455.683 6.25348 -3.24222 0
M  V30 4518 H 451.782 0.77747 0.08405 0
M  V30 4519 H 454.366 1.90369 -0.408368 0
M  V30 4520 H 452.537 3.60159 1.45395 0
M  V30 4521 H 454.269 3.81978 1.33698 0
M  V30 4522 H 451.024 4.71219 -0.474277 0
M  V30 4523 H 451.448 6.25308 -2.59459 0
M  V30 4524 H 456.09 4.19215 -0.549397 0
M  V30 4525 H 453.808 7.03558 -3.97533 0
M  V30 4526 H 457.394 5.33972 -2.31009 0
M  V30 4527 H 456.274 6.74498 -4.00027 0
M  V30 4528 N 453.777 0.010035 1.57597 0
M  V30 4529 C 454.709 -1.00649 2.05918 0
M  V30 4530 C 455.722 -1.30077 0.978964 0
M  V30 4531 O 456.911 -1.26878 1.25556 0
M  V30 4532 C 454.011 -2.33876 2.45265 0
M  V30 4533 C 453.184 -2.23242 3.7614 0
M  V30 4534 C 452.243 -3.39242 4.02245 0
M  V30 4535 O 451.269 -3.1698 4.72771 0
M  V30 4536 N 452.471 -4.6242 3.50924 0
M  V30 4537 H 455.236 -0.594333 2.93748 0
M  V30 4538 H 452.797 -0.17714 1.60928 0
M  V30 4539 H 454.789 -3.1027 2.59836 0
M  V30 4540 H 453.359 -2.66799 1.62902 0
M  V30 4541 H 452.579 -1.31696 3.71551 0
M  V30 4542 H 453.867 -2.13321 4.61922 0
M  V30 4543 H 453.265 -4.83404 2.93832 0
M  V30 4544 H 451.822 -5.36046 3.70807 0
M  V30 4545 N 455.255 -1.55392 -0.262866 0
M  V30 4546 C 456.202 -1.88966 -1.32516 0
M  V30 4547 C 457.172 -0.742187 -1.48596 0
M  V30 4548 O 458.357 -0.99439 -1.62839 0
M  V30 4549 C 455.497 -2.17592 -2.67858 0
M  V30 4550 C 454.61 -3.45061 -2.59917 0
M  V30 4551 C 453.745 -3.63336 -3.87505 0
M  V30 4552 C 452.784 -4.84462 -3.74116 0
M  V30 4553 N 451.921 -4.99342 -4.93561 0
M  V30 4554 H 456.761 -2.79566 -1.03184 0
M  V30 4555 H 454.298 -1.38404 -0.498285 0
M  V30 4556 H 456.256 -2.3219 -3.46617 0
M  V30 4557 H 454.886 -1.30215 -2.95371 0
M  V30 4558 H 453.938 -3.38881 -1.72812 0
M  V30 4559 H 455.25 -4.3396 -2.45926 0
M  V30 4560 H 454.404 -3.77807 -4.74707 0
M  V30 4561 H 453.143 -2.72641 -4.04374 0
M  V30 4562 H 452.148 -4.69985 -2.85297 0
M  V30 4563 H 453.373 -5.76603 -3.58757 0
M  V30 4564 H 451.319 -4.1158 -5.10821 0
M  V30 4565 H 451.236 -5.82303 -4.82141 0
M  V30 4566 H 452.504 -5.18208 -5.82306 0
M  V30 4567 N 456.733 0.527833 -1.48498 0
M  V30 4568 C 457.981 1.28101 -1.56316 0
M  V30 4569 C 458.302 1.9352 -0.239781 0
M  V30 4570 O 457.572 1.81433 0.738849 0
M  V30 4571 H 456.152 0.475793 -0.575873 0
M  V30 4572 H 458.814 0.614052 -1.84974 0
M  V30 4573 H 457.91 2.05916 -2.34532 0
M  V30 4574 N 458.211 1.37122 0.776871 0
M  V30 4575 C 459.46 1.31373 1.53049 0
M  V30 4576 C 459.773 -0.101016 1.95339 0
M  V30 4577 O 460.979 -0.280953 2.70042 0
M  V30 4578 C 459.435 2.30567 2.76346 0
M  V30 4579 C 459.043 3.77543 2.41175 0
M  V30 4580 C 460.787 2.33818 3.54301 0
M  V30 4581 C 458.694 4.68481 3.60943 0
M  V30 4582 H 457.624 0.488234 0.574581 0
M  V30 4583 H 460.275 1.62554 0.851372 0
M  V30 4584 H 458.657 1.92396 3.46121 0
M  V30 4585 H 459.831 4.24521 1.79216 0
M  V30 4586 H 458.146 3.77187 1.76405 0
M  V30 4587 H 460.743 2.98965 4.4331 0
M  V30 4588 H 461.086 1.3503 3.93793 0
M  V30 4589 H 461.619 2.7067 2.91518 0
M  V30 4590 H 458.358 5.68378 3.26537 0
M  V30 4591 H 457.878 4.2621 4.22025 0
M  V30 4592 H 459.557 4.85366 4.27819 0
M  V30 4593 N 459.689 -1.00246 1.21608 0
M  V30 4594 C 460.599 -2.12515 0.993709 0
M  V30 4595 C 461.615 -1.73913 -0.0549939 0
M  V30 4596 O 462.791 -2.00943 0.135619 0
M  V30 4597 C 459.856 -3.42083 0.563953 0
M  V30 4598 C 458.917 -3.94843 1.68516 0
M  V30 4599 C 458.15 -5.18226 1.27582 0
M  V30 4600 O 458.373 -5.70201 0.150506 0
M  V30 4601 O 457.307 -5.64497 2.0887 0
M  V30 4602 H 461.133 -2.34152 1.93407 0
M  V30 4603 H 458.718 -1.10891 1.00118 0
M  V30 4604 H 460.6 -4.20073 0.334194 0
M  V30 4605 H 459.275 -3.21828 -0.347665 0
M  V30 4606 H 458.182 -3.18068 1.96935 0
M  V30 4607 H 459.515 -4.19512 2.5743 0
M  V30 4608 N 461.167 -1.02423 -1.1978 0
M  V30 4609 C 462.114 -0.601023 -2.22837 0
M  V30 4610 C 463.084 0.382801 -1.61629 0
M  V30 4611 O 464.269 0.280514 -1.88727 0
M  V30 4612 C 461.409 0.0467755 -3.45068 0
M  V30 4613 C 460.522 -0.98253 -4.20678 0
M  V30 4614 C 459.657 -0.304982 -5.30324 0
M  V30 4615 C 458.696 -1.32052 -5.97686 0
M  V30 4616 N 457.833 -0.669105 -6.98904 0
M  V30 4617 H 462.673 -1.48444 -2.58396 0
M  V30 4618 H 460.21 -0.742936 -1.2696 0
M  V30 4619 H 462.168 0.439556 -4.14878 0
M  V30 4620 H 460.798 0.893796 -3.10179 0
M  V30 4621 H 459.85 -1.49341 -3.49859 0
M  V30 4622 H 461.162 -1.75455 -4.66923 0
M  V30 4623 H 460.316 0.142893 -6.06532 0
M  V30 4624 H 459.055 0.499283 -4.85138 0
M  V30 4625 H 458.06 -1.7787 -5.20233 0
M  V30 4626 H 459.285 -2.1262 -6.44957 0
M  V30 4627 H 457.231 0.115152 -6.55899 0
M  V30 4628 H 457.148 -1.37908 -7.43315 0
M  V30 4629 H 458.416 -0.245076 -7.79115 0
M  V30 4630 N 462.645 1.35699 -0.801477 0
M  V30 4631 C 463.592 2.29876 -0.206294 0
M  V30 4632 C 464.562 1.52565 0.656752 0
M  V30 4633 O 465.747 1.81024 0.602906 0
M  V30 4634 C 462.887 3.39052 0.643272 0
M  V30 4635 C 462 4.31335 -0.239644 0
M  V30 4636 C 461.135 5.27599 0.61744 0
M  V30 4637 C 460.174 6.11521 -0.26619 0
M  V30 4638 N 459.311 6.99938 0.550571 0
M  V30 4639 H 464.151 2.80187 -1.01484 0
M  V30 4640 H 461.688 1.37902 -0.511997 0
M  V30 4641 H 463.646 4.0101 1.15094 0
M  V30 4642 H 462.276 2.9003 1.41713 0
M  V30 4643 H 461.328 3.70426 -0.865381 0
M  V30 4644 H 462.64 4.90243 -0.919985 0
M  V30 4645 H 461.794 5.94906 1.19045 0
M  V30 4646 H 460.533 4.69176 1.33137 0
M  V30 4647 H 459.538 5.43166 -0.851507 0
M  V30 4648 H 460.763 6.72022 -0.9779 0
M  V30 4649 H 458.709 6.44008 1.24856 0
M  V30 4650 H 458.626 7.55966 -0.071832 0
M  V30 4651 H 459.894 7.71599 1.10702 0
M  V30 4652 N 464.123 0.554532 1.47522 0
M  V30 4653 C 465.351 0.034257 2.06872 0
M  V30 4654 C 465.766 -1.25826 1.40759 0
M  V30 4655 O 465.123 -1.75425 0.503217 0
M  V30 4656 C 465.174 -0.167827 3.6111 0
M  V30 4657 O 464.895 1.07351 4.24744 0
M  V30 4658 C 466.396 -0.72569 4.3732 0
M  V30 4659 H 463.616 0.0446275 0.669514 0
M  V30 4660 H 466.16 0.767181 1.89564 0
M  V30 4661 H 464.315 -0.850872 3.7794 0
M  V30 4662 H 464.729 0.869563 5.17242 0
M  V30 4663 H 466.203 -0.816394 5.45929 0
M  V30 4664 H 466.68 -1.73635 4.0342 0
M  V30 4665 H 467.286 -0.0784292 4.25228 0
M  V30 4666 N 465.601 -1.54893 0.290851 0
M  V30 4667 C 466.847 -2.0023 -0.321867 0
M  V30 4668 C 467.18 -1.179 -1.54316 0
M  V30 4669 O 466.455 -0.25293 -1.92848 0
M  V30 4670 C 466.738 -3.53456 -0.688515 0
M  V30 4671 C 466.591 -4.46532 0.541209 0
M  V30 4672 C 467.91 -4.13057 -1.51895 0
M  V30 4673 H 465.029 -0.727891 -0.115515 0
M  V30 4674 H 467.671 -1.85722 0.400931 0
M  V30 4675 H 465.821 -3.6595 -1.30433 0
M  V30 4676 H 467.493 -4.4596 1.17973 0
M  V30 4677 H 465.736 -4.17545 1.17636 0
M  V30 4678 H 466.407 -5.51475 0.240675 0
M  V30 4679 H 468.883 -4.03937 -0.99872 0
M  V30 4680 H 467.759 -5.20448 -1.74429 0
M  V30 4681 H 468.02 -3.64284 -2.50498 0
M  V30 4682 N 467.08 -0.0183926 -1.57589 0
M  V30 4683 C 468.496 0.337897 -1.55982 0
M  V30 4684 C 468.696 1.73604 -1.02294 0
M  V30 4685 O 467.752 2.43589 -0.664895 0
M  V30 4686 C 469.065 0.196305 -3.00059 0
M  V30 4687 C 470.613 0.269875 -3.11834 0
M  V30 4688 C 471.088 0.157197 -4.5773 0
M  V30 4689 N 472.579 0.214521 -4.62703 0
M  V30 4690 C 473.314 0.150955 -5.73201 0
M  V30 4691 N 472.81 0.0369212 -6.9279 0
M  V30 4692 N 474.603 0.204162 -5.61729 0
M  V30 4693 H 466.754 -0.93279 -1.90821 0
M  V30 4694 H 469.017 -0.359253 -0.877292 0
M  V30 4695 H 468.723 -0.766383 -3.43248 0
M  V30 4696 H 468.597 0.970908 -3.6449 0
M  V30 4697 H 470.984 1.22302 -2.68563 0
M  V30 4698 H 471.065 -0.534918 -2.50144 0
M  V30 4699 H 470.709 -0.792479 -5.01679 0
M  V30 4700 H 470.639 0.980717 -5.17387 0
M  V30 4701 H 473.13 0.303238 -3.76681 0
M  V30 4702 H 473.443 -0.00518321 -7.728 0
M  V30 4703 H 471.788 0.0022886 -6.95 0
M  V30 4704 H 474.979 0.291575 -4.67191 0
M  V30 4705 H 475.152 0.15116 -6.47824 0
M  V30 4706 N 468.558 1.5553 0.254621 0
M  V30 4707 C 469.807 1.76202 0.981612 0
M  V30 4708 C 470.12 0.580883 1.86776 0
M  V30 4709 O 471.326 0.670448 2.63092 0
M  V30 4710 C 469.782 3.11921 1.79537 0
M  V30 4711 C 469.39 4.37659 0.956991 0
M  V30 4712 C 471.134 3.41936 2.51555 0
M  V30 4713 C 469.041 5.64411 1.76619 0
M  V30 4714 H 467.971 0.656841 0.370237 0
M  V30 4715 H 470.622 1.81969 0.236556 0
M  V30 4716 H 469.004 3.00241 2.58208 0
M  V30 4717 H 470.178 4.60307 0.21315 0
M  V30 4718 H 468.493 4.14922 0.350497 0
M  V30 4719 H 471.09 4.33849 3.12536 0
M  V30 4720 H 471.433 2.62905 3.22779 0
M  V30 4721 H 471.966 3.54797 1.799 0
M  V30 4722 H 468.705 6.46241 1.09783 0
M  V30 4723 H 468.225 5.45877 2.48551 0
M  V30 4724 H 469.904 6.03386 2.33527 0
M  V30 4725 N 470.036 -0.519951 1.48776 0
M  V30 4726 C 471.261 -1.30447 1.6124 0
M  V30 4727 C 471.686 -1.86055 0.276591 0
M  V30 4728 O 471.044 -1.64915 -0.753183 0
M  V30 4729 C 471.092 -2.42406 2.66967 0
M  V30 4730 O 470.196 -3.45728 2.24824 0
M  V30 4731 H 469.537 -0.385924 0.540332 0
M  V30 4732 H 472.067 -0.624572 1.94834 0
M  V30 4733 H 472.077 -2.88447 2.88552 0
M  V30 4734 H 470.752 -2.01294 3.63941 0
M  V30 4735 H 469.329 -3.05737 2.13494 0
M  V30 4736 N 471.514 -1.37532 -0.769588 0
M  V30 4737 C 472.925 -1.29382 -1.346 0
M  V30 4738 C 473.276 0.0576039 -1.96115 0
M  V30 4739 O 472.401 0.95947 -1.93967 0
M  V30 4740 C 472.996 -2.34298 -2.44724 0
M  V30 4741 C 471.555 -2.29776 -2.98128 0
M  V30 4742 C 470.702 -2.18013 -1.71364 0
M  V30 4743 H 473.653 -1.48123 -0.56968 0
M  V30 4744 H 473.674 -1.99089 -3.24259 0
M  V30 4745 H 473.186 -3.32645 -1.99922 0
M  V30 4746 H 471.287 -1.34959 -3.47299 0
M  V30 4747 H 471.4 -3.23276 -3.53595 0
M  V30 4748 H 469.764 -1.64595 -1.94372 0
M  V30 4749 H 470.547 -3.18278 -1.28662 0
M  V30 4750 N 472.992 0.995999 -1.22138 0
M  V30 4751 C 474.22 1.77066 -1.07029 0
M  V30 4752 C 474.635 1.8495 0.379357 0
M  V30 4753 O 473.992 1.3174 1.26297 0
M  V30 4754 C 474.043 3.20533 -1.67155 0
M  V30 4755 O 473.764 3.13082 -3.06449 0
M  V30 4756 C 475.265 4.14461 -1.5728 0
M  V30 4757 H 472.485 0.556179 -0.375374 0
M  V30 4758 H 475.029 1.25238 -1.61666 0
M  V30 4759 H 473.184 3.6944 -1.16589 0
M  V30 4760 H 473.598 4.03283 -3.35355 0
M  V30 4761 H 475.072 5.1289 -2.04078 0
M  V30 4762 H 475.549 4.36005 -0.528795 0
M  V30 4763 H 476.155 3.71449 -2.07136 0
M  V30 4764 N 474.47 1.03057 1.19235 0
M  V30 4765 C 475.716 0.729098 1.89241 0
M  V30 4766 C 476.049 -0.740573 1.79525 0
M  V30 4767 O 475.324 -1.53946 1.18874 0
M  V30 4768 C 475.607 1.18304 3.40112 0
M  V30 4769 C 475.46 2.71406 3.5869 0
M  V30 4770 C 476.779 0.765161 4.33397 0
M  V30 4771 H 473.898 0.266338 0.687192 0
M  V30 4772 H 476.54 1.28079 1.40341 0
M  V30 4773 H 474.69 0.713672 3.81889 0
M  V30 4774 H 476.362 3.26303 3.26074 0
M  V30 4775 H 474.605 3.11717 3.01687 0
M  V30 4776 H 475.276 2.98225 4.64506 0
M  V30 4777 H 477.752 1.16889 3.99345 0
M  V30 4778 H 476.628 1.11065 5.37546 0
M  V30 4779 H 476.889 -0.332372 4.40849 0
M  V30 4780 N 475.948 -1.35272 0.808662 0
M  V30 4781 C 476.896 -2.31663 0.208606 0
M  V30 4782 C 477.89 -1.56731 -0.642778 0
M  V30 4783 O 479.096 -1.71843 -0.53571 0
M  V30 4784 H 475.471 -0.750421 0.0486993 0
M  V30 4785 H 477.442 -2.79814 1.03666 0
M  V30 4786 C 476.191 -3.42008 -0.626573 0
M  V30 4787 H 475.514 -3.99795 0.0192103 0
M  V30 4788 H 476.954 -4.11727 -1.01278 0
M  V30 4789 C 475.413 -2.85226 -1.79298 0
M  V30 4790 O 475.943 -2.78945 -2.89055 0
M  V30 4791 N 474.149 -2.42245 -1.60516 0
M  V30 4792 H 473.696 -2.47554 -0.712375 0
M  V30 4793 H 473.654 -2.04603 -2.38715 0
M  V30 4794 N 477.426 -0.562348 -1.47226 0
M  V30 4795 C 478.837 -0.130325 -1.86245 0
M  V30 4796 C 479.188 1.30128 -1.46838 0
M  V30 4797 O 478.313 1.97974 -0.873805 0
M  V30 4798 C 478.908 -0.229738 -3.3802 0
M  V30 4799 C 477.467 0.14728 -3.76112 0
M  V30 4800 C 476.614 -0.574971 -2.71274 0
M  V30 4801 H 479.565 -0.771773 -1.3867 0
M  V30 4802 H 479.586 0.550316 -3.76499 0
M  V30 4803 H 479.098 -1.27178 -3.66671 0
M  V30 4804 H 477.199 1.19023 -3.53078 0
M  V30 4805 H 477.312 -0.214858 -4.78618 0
M  V30 4806 H 475.676 -0.0174756 -2.54694 0
M  V30 4807 H 476.459 -1.61827 -3.02766 0
M  V30 4808 N 478.904 1.54736 -0.299062 0
M  V30 4809 C 480.153 1.99279 0.311549 0
M  V30 4810 C 480.466 1.19107 1.55154 0
M  V30 4811 O 481.672 1.53908 2.23662 0
M  V30 4812 C 480.128 3.54768 0.605632 0
M  V30 4813 C 479.736 4.43746 -0.615914 0
M  V30 4814 C 481.48 4.07841 1.17754 0
M  V30 4815 C 479.387 5.90663 -0.29509 0
M  V30 4816 H 478.317 0.744359 0.120187 0
M  V30 4817 H 480.968 1.78919 -0.407464 0
M  V30 4818 H 479.35 3.71021 1.38419 0
M  V30 4819 H 480.524 4.39267 -1.39218 0
M  V30 4820 H 478.839 4.01434 -1.10633 0
M  V30 4821 H 481.436 5.15174 1.43179 0
M  V30 4822 H 481.779 3.58324 2.11918 0
M  V30 4823 H 482.312 3.95123 0.460739 0
M  V30 4824 H 479.051 6.44325 -1.20524 0
M  V30 4825 H 478.571 5.98155 0.44394 0
M  V30 4826 H 480.25 6.46916 0.104048 0
M  V30 4827 N 480.382 0.0267497 1.57577 0
M  V30 4828 C 481.793 -0.512413 1.79531 0
M  V30 4829 C 482.144 -1.72391 0.936791 0
M  V30 4830 O 481.269 -2.15903 0.146543 0
M  V30 4831 C 481.864 -0.936378 3.25603 0
M  V30 4832 C 480.423 -1.42067 3.4856 0
M  V30 4833 C 479.57 -0.384278 2.74624 0
M  V30 4834 H 482.521 0.252797 1.56674 0
M  V30 4835 H 482.542 -1.80088 3.35184 0
M  V30 4836 H 482.054 -0.0544332 3.88062 0
M  V30 4837 H 480.155 -2.32262 2.9135 0
M  V30 4838 H 480.268 -1.42968 4.57271 0
M  V30 4839 H 478.632 -0.851855 2.40032 0
M  V30 4840 H 479.415 0.489159 3.39797 0
M  V30 4841 N 481.861 -1.55662 -0.24637 0
M  V30 4842 C 483.277 -1.48098 -0.594907 0
M  V30 4843 C 483.477 -0.717044 -1.8831 0
M  V30 4844 O 482.533 -0.246618 -2.51293 0
M  V30 4845 C 483.846 -2.92507 -0.697146 0
M  V30 4846 C 485.394 -3.02881 -0.789436 0
M  V30 4847 C 485.869 -4.48598 -0.923232 0
M  V30 4848 N 487.36 -4.52538 -0.988088 0
M  V30 4849 C 488.095 -5.62536 -1.11089 0
M  V30 4850 N 487.591 -6.82342 -1.19919 0
M  V30 4851 N 489.384 -5.50334 -1.14408 0
M  V30 4852 H 481.535 -2.0377 0.599278 0
M  V30 4853 H 483.798 -0.925145 0.20691 0
M  V30 4854 H 483.504 -3.51242 0.179396 0
M  V30 4855 H 483.378 -3.43024 -1.5689 0
M  V30 4856 H 485.765 -2.44226 -1.65643 0
M  V30 4857 H 485.846 -2.55574 0.107482 0
M  V30 4858 H 485.49 -5.07864 -0.0607927 0
M  V30 4859 H 485.42 -4.93587 -1.8352 0
M  V30 4860 H 487.911 -3.66248 -0.931167 0
M  V30 4861 H 488.224 -7.61924 -1.29197 0
M  V30 4862 H 486.569 -6.85102 -1.16876 0
M  V30 4863 H 489.76 -4.5567 -1.07158 0
M  V30 4864 H 489.933 -6.36096 -1.23634 0
M  V30 4865 N 483.339 0.512053 -1.4905 0
M  V30 4866 C 484.585 1.26874 -1.58212 0
M  V30 4867 C 484.918 1.9241 -0.263073 0
M  V30 4868 O 484.193 1.80181 0.732476 0
M  V30 4869 C 484.476 2.34428 -2.73341 0
M  V30 4870 C 484.329 1.73466 -4.15006 0
M  V30 4871 C 485.648 3.36073 -2.84154 0
M  V30 4872 H 482.767 0.459924 -0.575881 0
M  V30 4873 H 485.409 0.568587 -1.81293 0
M  V30 4874 H 483.559 2.94146 -2.53792 0
M  V30 4875 H 485.231 1.17661 -4.46042 0
M  V30 4876 H 483.474 1.03921 -4.21168 0
M  V30 4877 H 484.145 2.51426 -4.91415 0
M  V30 4878 H 486.621 2.86332 -3.01916 0
M  V30 4879 H 485.497 4.08703 -3.66406 0
M  V30 4880 H 485.758 3.97725 -1.93048 0
M  V30 4881 N 484.817 1.37938 0.762283 0
M  V30 4882 C 486.047 1.36685 1.54922 0
M  V30 4883 C 486.455 -0.0474099 1.89141 0
M  V30 4884 O 485.798 -1.02213 1.52638 0
M  V30 4885 C 485.86 2.14963 2.88152 0
M  V30 4886 C 485.524 3.6385 2.76518 0
M  V30 4887 C 486.521 4.57531 2.46904 0
M  V30 4888 C 484.206 4.07095 2.94243 0
M  V30 4889 C 486.2 5.92436 2.35156 0
M  V30 4890 C 483.887 5.42083 2.82116 0
M  V30 4891 C 484.885 6.34567 2.52614 0
M  V30 4892 O 484.573 7.67073 2.40529 0
M  V30 4893 H 484.305 0.469586 0.486276 0
M  V30 4894 H 486.859 1.82012 0.951876 0
M  V30 4895 H 485.089 1.6434 3.50042 0
M  V30 4896 H 486.778 2.06224 3.49609 0
M  V30 4897 H 487.544 4.25428 2.32886 0
M  V30 4898 H 483.423 3.35462 3.16206 0
M  V30 4899 H 486.967 6.64591 2.12049 0
M  V30 4900 H 482.864 5.73785 2.95704 0
M  V30 4901 H 483.632 7.77499 2.55807 0
M  V30 4902 N 486.295 -0.989507 1.22664 0
M  V30 4903 C 487.711 -1.25395 0.987331 0
M  V30 4904 C 487.911 -1.9899 -0.317056 0
M  V30 4905 O 486.967 -2.30141 -1.03882 0
M  V30 4906 C 488.28 -2.06242 2.18826 0
M  V30 4907 C 489.828 -2.19413 2.23219 0
M  V30 4908 C 490.303 -3.03648 3.42873 0
M  V30 4909 N 491.794 -3.11234 3.43056 0
M  V30 4910 C 492.529 -3.7671 4.32293 0
M  V30 4911 N 492.025 -4.44085 5.31752 0
M  V30 4912 N 493.818 -3.73505 4.2006 0
M  V30 4913 H 485.969 -0.496212 2.06522 0
M  V30 4914 H 488.232 -0.281784 0.905153 0
M  V30 4915 H 487.938 -1.59531 3.13437 0
M  V30 4916 H 487.812 -3.06996 2.19165 0
M  V30 4917 H 490.199 -2.65336 1.29154 0
M  V30 4918 H 490.28 -1.18078 2.26917 0
M  V30 4919 H 489.924 -2.58424 4.37241 0
M  V30 4920 H 489.854 -4.05132 3.36416 0
M  V30 4921 H 492.345 -2.63287 2.71088 0
M  V30 4922 H 492.658 -4.91797 5.96117 0
M  V30 4923 H 491.003 -4.42822 5.35662 0
M  V30 4924 H 494.194 -3.20033 3.41609 0
M  V30 4925 H 494.367 -4.24253 4.8981 0
M  V30 4926 N 487.773 -1.03688 -1.18687 0
M  V30 4927 C 489.184 -0.766488 -1.70241 0
M  V30 4928 C 489.535 0.713052 -1.82784 0
M  V30 4929 O 488.66 1.55529 -1.50465 0
M  V30 4930 C 489.255 -1.38475 -3.09209 0
M  V30 4931 C 487.814 -1.16276 -3.5799 0
M  V30 4932 C 486.961 -1.4778 -2.34641 0
M  V30 4933 H 489.912 -1.20378 -1.03415 0
M  V30 4934 H 489.933 -0.785939 -3.72295 0
M  V30 4935 H 489.445 -2.46157 -3.00048 0
M  V30 4936 H 487.546 -0.104508 -3.72453 0
M  V30 4937 H 487.659 -1.8571 -4.41643 0
M  V30 4938 H 486.023 -0.897366 -2.38368 0
M  V30 4939 H 486.806 -2.56562 -2.28102 0
M  V30 4940 N 489.251 1.34841 -0.815825 0
M  V30 4941 C 490.528 1.92908 -0.323416 0
M  V30 4942 C 490.908 1.74479 1.18828 0
M  V30 4943 O 490.256 1.11928 1.99209 0
M  V30 4944 C 490.466 3.40957 -0.744952 0
M  V30 4945 C 491.814 4.18107 -0.739716 0
M  V30 4946 O 492.838 3.49511 -0.68708 0
M  V30 4947 O 491.697 5.40517 -0.806456 0
M  V30 4948 H 488.791 0.822436 -0.0867646 0
M  V30 4949 H 491.337 1.4386 -0.90014 0
M  V30 4950 H 490.109 3.4814 -1.78646 0
M  V30 4951 H 489.732 3.97341 -0.143535 0
M  V30 4952 N 490.729 0.570148 1.46925 0
M  V30 4953 C 491.975 0.0510284 2.02736 0
M  V30 4954 C 492.308 -1.3006 1.44215 0
M  V30 4955 O 491.583 -1.84932 0.602521 0
M  V30 4956 C 491.866 -0.028215 3.60089 0
M  V30 4957 C 491.719 1.35142 4.29018 0
M  V30 4958 C 493.038 -0.735181 4.33916 0
M  V30 4959 H 490.157 0.0200178 0.736728 0
M  V30 4960 H 492.799 0.73493 1.75211 0
M  V30 4961 H 490.949 -0.610648 3.83671 0
M  V30 4962 H 492.621 1.97806 4.16738 0
M  V30 4963 H 490.864 1.9226 3.88868 0
M  V30 4964 H 491.535 1.24857 5.37694 0
M  V30 4965 H 494.011 -0.240519 4.15404 0
M  V30 4966 H 492.887 -0.759622 5.43618 0
M  V30 4967 H 493.148 -1.79397 4.04066 0
M  V30 4968 N 492.207 -1.54576 0.307264 0
M  V30 4969 C 493.484 -1.92377 -0.353605 0
M  V30 4970 C 493.864 -1.23517 -1.71192 0
M  V30 4971 O 493.212 -0.373101 -2.25433 0
M  V30 4972 C 493.422 -3.45928 -0.462039 0
M  V30 4973 C 494.77 -4.18278 -0.729975 0
M  V30 4974 O 495.794 -3.51997 -0.545605 0
M  V30 4975 O 494.653 -5.3563 -1.08454 0
M  V30 4976 H 491.747 -0.802747 -0.198812 0
M  V30 4977 H 494.293 -1.65929 0.355783 0
M  V30 4978 H 493.065 -3.88187 0.492592 0
M  V30 4979 H 492.688 -3.78431 -1.21965 0
M  V30 4980 N 493.685 -0.035106 -1.57561 0
M  V30 4981 C 494.931 0.64318 -1.92331 0
M  V30 4982 C 495.264 1.71434 -0.912368 0
M  V30 4983 O 494.539 1.94395 0.0640303 0
M  V30 4984 C 494.822 1.25411 -3.37556 0
M  V30 4985 C 494.675 0.192109 -4.4939 0
M  V30 4986 C 495.994 2.17041 -3.82859 0
M  V30 4987 H 493.113 0.232341 -0.699419 0
M  V30 4988 H 495.755 -0.0935889 -1.89769 0
M  V30 4989 H 493.905 1.88205 -3.39869 0
M  V30 4990 H 495.577 -0.438849 -4.59208 0
M  V30 4991 H 493.82 -0.481725 -4.31117 0
M  V30 4992 H 494.491 0.659292 -5.48049 0
M  V30 4993 H 496.967 1.64228 -3.8232 0
M  V30 4994 H 495.843 2.56738 -4.85157 0
M  V30 4995 H 496.104 3.06401 -3.18702 0
M  V30 4996 N 495.163 1.55791 0.238111 0
M  V30 4997 C 496.409 1.78297 0.966337 0
M  V30 4998 C 496.742 0.601903 1.84637 0
M  V30 4999 O 496.017 -0.399499 1.90353 0
M  V30 5000 C 496.3 3.10758 1.81939 0
M  V30 5001 C 496.153 4.39283 0.966958 0
M  V30 5002 C 497.472 3.39519 2.80027 0
M  V30 5003 H 494.591 0.648654 0.349882 0
M  V30 5004 H 497.233 1.88525 0.236253 0
M  V30 5005 H 495.383 3.02168 2.44185 0
M  V30 5006 H 497.055 4.59873 0.362514 0
M  V30 5007 H 495.298 4.32948 0.271669 0
M  V30 5008 H 495.969 5.28368 1.59784 0
M  V30 5009 H 498.445 3.48128 2.27917 0
M  V30 5010 H 497.321 4.33402 3.36829 0
M  V30 5011 H 497.582 2.60864 3.56934 0
M  V30 5012 N 496.642 -0.504142 1.49319 0
M  V30 5013 C 497.87 -1.28256 1.62351 0
M  V30 5014 C 498.285 -1.86502 0.293682 0
M  V30 5015 O 497.642 -1.67678 -0.720449 0
M  V30 5016 C 497.693 -2.41507 2.68992 0
M  V30 5017 O 497.414 -1.85656 3.96817 0
M  V30 5018 C 498.915 -3.32929 2.927 0
M  V30 5019 H 496.135 -0.389115 0.546654 0
M  V30 5020 H 498.679 -0.605531 1.95329 0
M  V30 5021 H 496.834 -3.05046 2.38801 0
M  V30 5022 H 497.248 -2.59981 4.55533 0
M  V30 5023 H 498.722 -4.0868 3.71058 0
M  V30 5024 H 499.199 -3.89733 2.02496 0
M  V30 5025 H 499.805 -2.75158 3.24296 0
M  V30 5026 N 498.12 -1.38341 -0.754957 0
M  V30 5027 C 499.397 -1.24995 -1.50451 0
M  V30 5028 C 499.777 0.149244 -2.10572 0
M  V30 5029 O 499.125 1.15861 -1.96948 0
M  V30 5030 C 499.335 -2.35904 -2.57197 0
M  V30 5031 C 500.683 -2.74262 -3.24138 0
M  V30 5032 O 501.707 -2.35205 -2.67501 0
M  V30 5033 O 500.566 -3.4161 -4.26574 0
M  V30 5034 H 497.66 -0.48872 -0.667144 0
M  V30 5035 H 500.206 -1.50165 -0.790486 0
M  V30 5036 H 498.978 -3.2953 -2.11011 0
M  V30 5037 H 498.601 -2.12291 -3.36182 0
M  V30 5038 N 499.598 0.982988 -1.23187 0
M  V30 5039 C 500.844 1.72648 -1.06398 0
M  V30 5040 C 501.177 1.90066 0.398561 0
M  V30 5041 O 500.452 1.45105 1.29518 0
M  V30 5042 C 500.735 3.12627 -1.78707 0
M  V30 5043 C 500.588 3.02795 -3.32618 0
M  V30 5044 C 501.907 4.11997 -1.54747 0
M  V30 5045 H 499.026 0.626649 -0.387918 0
M  V30 5046 H 501.668 1.14455 -1.51658 0
M  V30 5047 H 499.818 3.62308 -1.40234 0
M  V30 5048 H 501.49 2.60659 -3.80598 0
M  V30 5049 H 499.733 2.39362 -3.61785 0
M  V30 5050 H 500.404 4.01893 -3.78399 0
M  V30 5051 H 502.88 3.71114 -1.88186 0
M  V30 5052 H 501.756 5.08037 -2.07821 0
M  V30 5053 H 502.017 4.39462 -0.482249 0
M  V30 5054 N 501.076 1.04316 1.18135 0
M  V30 5055 C 502.006 0.657299 2.24058 0
M  V30 5056 C 502.987 -0.340678 1.66654 0
M  V30 5057 O 504.172 -0.220223 1.92947 0
M  V30 5058 C 501.302 0.0220715 3.47293 0
M  V30 5059 C 500.256 0.943857 4.17463 0
M  V30 5060 C 499.582 0.172973 5.3442 0
M  V30 5061 C 500.882 2.26409 4.70677 0
M  V30 5062 H 502.576 1.5428 2.56589 0
M  V30 5063 H 500.122 0.743263 1.23335 0
M  V30 5064 H 502.075 -0.259607 4.206 0
M  V30 5065 H 500.799 -0.898323 3.14003 0
M  V30 5066 H 499.458 1.20996 3.46057 0
M  V30 5067 H 499.106 -0.749907 4.97379 0
M  V30 5068 H 498.806 0.787098 5.82304 0
M  V30 5069 H 500.33 -0.101628 6.10515 0
M  V30 5070 H 501.744 2.04294 5.35665 0
M  V30 5071 H 500.141 2.8314 5.29105 0
M  V30 5072 H 501.211 2.90883 3.87962 0
M  V30 5073 N 502.554 -1.34406 0.822964 0
M  V30 5074 C 503.517 -2.2783 0.250271 0
M  V30 5075 C 504.517 -1.50288 -0.571854 0
M  V30 5076 O 505.707 -1.69825 -0.387952 0
M  V30 5077 C 502.839 -3.34663 -0.649137 0
M  V30 5078 H 504.032 -2.79992 1.07444 0
M  V30 5079 H 501.585 -1.44539 0.594829 0
M  V30 5080 H 502.32 -2.87714 -1.49637 0
M  V30 5081 H 502.105 -3.92052 -0.0611199 0
M  V30 5082 H 503.595 -4.04349 -1.04363 0
M  V30 5083 N 504.032 -0.577932 -1.46621 0
M  V30 5084 C 505.279 -0.0616879 -2.02406 0
M  V30 5085 C 505.607 1.29638 -1.44997 0
M  V30 5086 O 504.862 1.86176 -0.60308 0
M  V30 5087 C 505.161 0.0590832 -3.57351 0
M  V30 5088 C 504.827 -1.23077 -4.33777 0
M  V30 5089 C 503.489 -1.58416 -4.54376 0
M  V30 5090 C 505.841 -2.08457 -4.77698 0
M  V30 5091 C 503.169 -2.78943 -5.16147 0
M  V30 5092 C 505.521 -3.28204 -5.408 0
M  V30 5093 C 504.185 -3.63832 -5.59627 0
M  V30 5094 H 503.455 -0.0225732 -0.740656 0
M  V30 5095 H 506.102 -0.753609 -1.76048 0
M  V30 5096 H 504.407 0.834104 -3.82818 0
M  V30 5097 H 506.104 0.474202 -3.98186 0
M  V30 5098 H 502.694 -0.945652 -4.18038 0
M  V30 5099 H 506.878 -1.82459 -4.61544 0
M  V30 5100 H 502.134 -3.06689 -5.28916 0
M  V30 5101 H 506.308 -3.94634 -5.73792 0
M  V30 5102 H 503.935 -4.57315 -6.07262 0
M  V30 5103 N 505.51 1.54411 -0.315457 0
M  V30 5104 C 506.756 2.00716 0.289972 0
M  V30 5105 C 507.089 1.2034 1.5242 0
M  V30 5106 O 506.364 0.283579 1.92422 0
M  V30 5107 C 506.647 3.54507 0.632196 0
M  V30 5108 C 506.5 4.45615 -0.61218 0
M  V30 5109 C 507.819 4.15421 1.45305 0
M  V30 5110 H 504.938 0.729637 0.10392 0
M  V30 5111 H 507.58 1.8506 -0.430427 0
M  V30 5112 H 505.73 3.67979 1.24595 0
M  V30 5113 H 507.402 4.44026 -1.25053 0
M  V30 5114 H 505.645 4.15621 -1.24264 0
M  V30 5115 H 506.316 5.51022 -0.328379 0
M  V30 5116 H 508.792 4.05474 0.934331 0
M  V30 5117 H 507.668 5.23157 1.66127 0
M  V30 5118 H 507.929 3.68223 2.44671 0
M  V30 5119 N 506.988 0.0434614 1.5754 0
M  V30 5120 C 507.898 -0.94893 2.14552 0
M  V30 5121 C 508.914 -1.34707 1.10136 0
M  V30 5122 O 510.09 -1.42557 1.42266 0
M  V30 5123 C 507.155 -2.208 2.67298 0
M  V30 5124 C 506.216 -1.86893 3.86484 0
M  V30 5125 C 505.449 -3.06797 4.36705 0
M  V30 5126 O 505.672 -4.19921 3.86034 0
M  V30 5127 O 504.606 -2.8826 5.28384 0
M  V30 5128 H 508.432 -0.494099 2.99654 0
M  V30 5129 H 506.017 -0.177989 1.48336 0
M  V30 5130 H 507.899 -2.94686 3.01228 0
M  V30 5131 H 506.574 -2.65436 1.85272 0
M  V30 5132 H 505.481 -1.10347 3.57455 0
M  V30 5133 H 506.814 -1.47062 4.69716 0
M  V30 5134 N 508.466 -1.55915 -0.229846 0
M  V30 5135 C 509.416 -1.8813 -1.28807 0
M  V30 5136 C 510.4 -0.743621 -1.42685 0
M  V30 5137 O 511.592 -1.00588 -1.4564 0
M  V30 5138 C 508.721 -2.19431 -2.64017 0
M  V30 5139 C 507.807 -3.39569 -2.54074 0
M  V30 5140 N 508.198 -4.58404 -2.13774 0
M  V30 5141 C 506.496 -3.43019 -2.85051 0
M  V30 5142 C 507.197 -5.40557 -2.1488 0
M  V30 5143 N 506.173 -4.80054 -2.55047 0
M  V30 5144 H 509.975 -2.77527 -0.967261 0
M  V30 5145 H 507.489 -1.5637 -0.438433 0
M  V30 5146 H 509.486 -2.40681 -3.40409 0
M  V30 5147 H 508.146 -1.31341 -2.9695 0
M  V30 5148 H 509.157 -4.83716 -1.8504 0
M  V30 5149 H 505.834 -2.65249 -3.22411 0
M  V30 5150 H 507.224 -6.45666 -1.85918 0
M  V30 5151 N 509.944 0.496216 -1.49584 0
M  V30 5152 C 511.191 1.25003 -1.59312 0
M  V30 5153 C 511.519 1.92445 -0.28198 0
M  V30 5154 O 510.774 1.81557 0.730452 0
M  V30 5155 C 511.073 2.3359 -2.705 0
M  V30 5156 C 510.739 1.83574 -4.11839 0
M  V30 5157 C 509.401 1.69653 -4.50302 0
M  V30 5158 C 511.753 1.46193 -5.00277 0
M  V30 5159 C 509.081 1.16736 -5.74969 0
M  V30 5160 C 511.433 0.947265 -6.25468 0
M  V30 5161 C 510.097 0.794485 -6.62755 0
M  V30 5162 H 509.367 0.45742 -0.582965 0
M  V30 5163 H 512.014 0.549996 -1.83432 0
M  V30 5164 H 510.319 3.09401 -2.40371 0
M  V30 5165 H 512.016 2.91627 -2.75235 0
M  V30 5166 H 508.606 1.9537 -3.81482 0
M  V30 5167 H 512.79 1.55793 -4.71214 0
M  V30 5168 H 508.046 1.03623 -6.02555 0
M  V30 5169 H 512.22 0.648846 -6.93371 0
M  V30 5170 H 509.847 0.382271 -7.59238 0
M  V30 5171 N 511.423 1.38739 0.74761 0
M  V30 5172 C 512.333 1.38696 1.89211 0
M  V30 5173 C 513.349 0.283303 1.71678 0
M  V30 5174 O 514.525 0.522713 1.94498 0
M  V30 5175 C 511.59 1.21662 3.24653 0
M  V30 5176 C 510.651 2.41886 3.54669 0
M  V30 5177 C 509.884 2.25655 4.83648 0
M  V30 5178 O 510.107 1.25339 5.56459 0
M  V30 5179 O 509.041 3.14372 5.13277 0
M  V30 5180 H 512.867 2.35143 1.92202 0
M  V30 5181 H 510.452 1.19721 0.893708 0
M  V30 5182 H 512.334 1.14246 4.05618 0
M  V30 5183 H 511.009 0.283024 3.2246 0
M  V30 5184 H 509.916 2.54877 2.73841 0
M  V30 5185 H 511.249 3.33895 3.61628 0
M  V30 5186 N 512.901 -0.976442 1.23707 0
M  V30 5187 C 514.129 -1.75341 1.09833 0
M  V30 5188 C 514.544 -1.8553 -0.349885 0
M  V30 5189 O 513.901 -1.33732 -1.24185 0
M  V30 5190 C 513.952 -3.17833 1.72233 0
M  V30 5191 O 513.673 -3.08167 3.11391 0
M  V30 5192 C 515.174 -4.11906 1.63853 0
M  V30 5193 H 512.394 -0.550137 0.384175 0
M  V30 5194 H 514.938 -1.2265 1.63638 0
M  V30 5195 H 513.093 -3.67538 1.22452 0
M  V30 5196 H 513.507 -3.97897 3.41729 0
M  V30 5197 H 514.981 -5.09579 2.12211 0
M  V30 5198 H 515.458 -4.35109 0.598092 0
M  V30 5199 H 516.064 -3.68107 2.13019 0
M  V30 5200 N 514.379 -1.04941 -1.1758 0
M  V30 5201 C 515.342 -0.652456 -2.19717 0
M  V30 5202 C 516.342 0.294745 -1.58076 0
M  V30 5203 O 517.532 0.0789579 -1.74021 0
M  V30 5204 C 514.664 0.0420712 -3.40874 0
M  V30 5205 H 515.857 -1.55642 -2.5635 0
M  V30 5206 H 513.41 -0.842995 -1.31618 0
M  V30 5207 H 514.145 0.95943 -3.09783 0
M  V30 5208 H 513.93 -0.638844 -3.86861 0
M  V30 5209 H 515.42 0.306 -4.16477 0
M  V30 5210 N 515.857 1.33968 -0.830081 0
M  V30 5211 C 517.085 2.0228 -0.434773 0
M  V30 5212 C 517.5 1.62487 0.961419 0
M  V30 5213 O 516.857 0.833849 1.62337 0
M  V30 5214 C 516.908 3.5751 -0.535625 0
M  V30 5215 O 516.629 3.95864 -1.87679 0
M  V30 5216 C 518.13 4.43091 -0.136137 0
M  V30 5217 H 515.35 0.648151 -0.173613 0
M  V30 5218 H 517.894 1.71089 -1.12022 0
M  V30 5219 H 516.049 3.87266 0.101817 0
M  V30 5220 H 516.463 4.9056 -1.85609 0
M  V30 5221 H 517.937 5.51398 -0.257772 0
M  V30 5222 H 518.414 4.29433 0.921076 0
M  V30 5223 H 519.02 4.18677 -0.747662 0
M  V30 5224 N 517.335 0.585699 1.46312 0
M  V30 5225 C 518.298 -0.135673 2.28798 0
M  V30 5226 C 519.298 -0.815988 1.38558 0
M  V30 5227 O 520.488 -0.667487 1.60904 0
M  V30 5228 C 517.62 -1.20163 3.1902 0
M  V30 5229 H 518.813 0.589257 2.94054 0
M  V30 5230 H 516.366 0.343794 1.52472 0
M  V30 5231 H 517.101 -1.95804 2.58517 0
M  V30 5232 H 516.886 -0.718282 3.85465 0
M  V30 5233 H 518.376 -1.70749 3.81096 0
M  V30 5234 N 518.813 -1.54241 0.323641 0
M  V30 5235 C 520.038 -2.05452 -0.283605 0
M  V30 5236 C 520.463 -1.19823 -1.44997 0
M  V30 5237 O 519.821 -0.207358 -1.8011 0
M  V30 5238 C 519.869 -3.53823 -0.695795 0
M  V30 5239 O 518.973 -3.71134 -1.79815 0
M  V30 5240 H 518.314 -0.662024 -0.0511917 0
M  V30 5241 H 520.844 -1.99079 0.472073 0
M  V30 5242 H 520.854 -3.96094 -0.978434 0
M  V30 5243 H 519.529 -4.15602 0.157287 0
M  V30 5244 H 518.106 -3.40768 -1.51431 0
M  V30 5245 N 520.291 -0.0518155 -1.57515 0
M  V30 5246 C 521.538 0.621823 -1.92716 0
M  V30 5247 C 521.866 1.70813 -0.930229 0
M  V30 5248 O 521.121 1.95616 0.0573708 0
M  V30 5249 C 521.42 1.25607 -3.34601 0
M  V30 5250 C 521.086 0.297901 -4.49915 0
M  V30 5251 C 519.748 0.034243 -4.81188 0
M  V30 5252 C 522.1 -0.358738 -5.19964 0
M  V30 5253 C 519.428 -0.893479 -5.79857 0
M  V30 5254 C 521.78 -1.27466 -6.19625 0
M  V30 5255 C 520.444 -1.54698 -6.49326 0
M  V30 5256 H 519.714 0.227541 -0.705199 0
M  V30 5257 H 522.361 -0.118432 -1.91133 0
M  V30 5258 H 520.666 2.07161 -3.32553 0
M  V30 5259 H 522.363 1.78424 -3.59118 0
M  V30 5260 H 518.953 0.513581 -4.25512 0
M  V30 5261 H 523.137 -0.168133 -4.96015 0
M  V30 5262 H 518.393 -1.11193 -6.01204 0
M  V30 5263 H 522.567 -1.78953 -6.73015 0
M  V30 5264 H 520.194 -2.26748 -7.25596 0
M  V30 5265 N 521.769 1.56035 0.221574 0
M  V30 5266 C 523.017 1.78693 0.944102 0
M  V30 5267 C 523.338 0.620317 1.8487 0
M  V30 5268 O 522.608 -0.362784 1.92512 0
M  V30 5269 H 521.188 0.659082 0.351597 0
M  V30 5270 H 523.85 1.93497 0.233435 0
M  V30 5271 H 522.946 2.70837 1.55093 0
M  V30 5272 N 523.247 -0.488276 1.49845 0
M  V30 5273 C 524.21 -1.57069 1.66919 0
M  V30 5274 C 525.21 -1.51445 0.540479 0
M  V30 5275 O 526.4 -1.5437 0.807188 0
M  V30 5276 C 523.532 -2.96718 1.67844 0
M  V30 5277 H 524.725 -1.43254 2.63474 0
M  V30 5278 H 522.278 -0.713435 1.39068 0
M  V30 5279 H 523.013 -3.15996 0.7292 0
M  V30 5280 H 522.798 -3.02208 2.49826 0
M  V30 5281 H 524.288 -3.75335 1.83066 0
M  V30 5282 N 524.725 -1.39134 -0.740242 0
M  V30 5283 C 525.672 -1.37434 -1.8542 0
M  V30 5284 C 526.642 -0.234822 -1.64432 0
M  V30 5285 O 527.827 -0.429125 -1.85912 0
M  V30 5286 C 524.967 -1.21844 -3.22875 0
M  V30 5287 C 524.08 -2.45296 -3.55603 0
M  V30 5288 C 523.215 -2.22334 -4.82432 0
M  V30 5289 C 522.254 -3.41488 -5.07988 0
M  V30 5290 N 521.391 -3.17877 -6.26018 0
M  V30 5291 H 526.231 -2.3266 -1.86207 0
M  V30 5292 H 523.768 -1.15578 -0.909946 0
M  V30 5293 H 525.726 -1.10818 -4.02213 0
M  V30 5294 H 524.356 -0.3025 -3.21379 0
M  V30 5295 H 523.408 -2.66945 -2.71006 0
M  V30 5296 H 524.72 -3.34063 -3.7041 0
M  V30 5297 H 523.874 -2.0852 -5.69741 0
M  V30 5298 H 522.613 -1.30954 -4.6979 0
M  V30 5299 H 521.618 -3.55807 -4.19144 0
M  V30 5300 H 522.843 -4.33763 -5.22519 0
M  V30 5301 H 520.789 -2.29156 -6.14673 0
M  V30 5302 H 520.706 -4.00198 -6.41387 0
M  V30 5303 H 521.974 -3.07746 -7.16179 0
M  V30 5304 N 526.204 0.969867 -1.24223 0
M  V30 5305 C 527.136 2.0669 -0.99055 0
M  V30 5306 C 528.149 1.62753 0.0392222 0
M  V30 5307 O 529.338 1.77403 -0.197561 0
M  V30 5308 C 526.438 3.35589 -0.472594 0
M  V30 5309 C 525.611 4.08444 -1.56499 0
M  V30 5310 C 524.67 5.15616 -1.05007 0
M  V30 5311 O 523.696 5.41911 -1.7413 0
M  V30 5312 N 524.898 5.80383 0.116641 0
M  V30 5313 H 527.663 2.28855 -1.93508 0
M  V30 5314 H 525.224 1.13733 -1.15223 0
M  V30 5315 H 527.216 4.04542 -0.112919 0
M  V30 5316 H 525.786 3.10311 0.377617 0
M  V30 5317 H 525.006 3.33798 -2.09696 0
M  V30 5318 H 526.294 4.53882 -2.29932 0
M  V30 5319 H 525.692 5.6142 0.694589 0
M  V30 5320 H 524.249 6.50462 0.417483 0
M  V30 5321 N 527.682 1.05563 1.17022 0
M  V30 5322 C 529.098 0.777684 1.39371 0
M  V30 5323 C 529.298 -0.626269 1.91521 0
M  V30 5324 O 528.354 -1.38806 2.10924 0
M  V30 5325 C 529.667 1.83642 2.3811 0
M  V30 5326 C 531.215 1.85907 2.51809 0
M  V30 5327 C 531.69 2.90813 3.53824 0
M  V30 5328 N 533.181 2.898 3.61345 0
M  V30 5329 C 533.916 3.6762 4.40049 0
M  V30 5330 N 533.412 4.55237 5.22237 0
M  V30 5331 N 535.205 3.56044 4.34959 0
M  V30 5332 H 527.356 1.9614 0.815047 0
M  V30 5333 H 529.619 0.849527 0.420722 0
M  V30 5334 H 529.325 2.84425 2.06871 0
M  V30 5335 H 529.199 1.6812 3.37662 0
M  V30 5336 H 531.586 0.857865 2.82356 0
M  V30 5337 H 531.667 2.05506 1.52318 0
M  V30 5338 H 531.311 3.91122 3.24015 0
M  V30 5339 H 531.241 2.68465 4.53028 0
M  V30 5340 H 533.732 2.26274 3.02669 0
M  V30 5341 H 534.045 5.11291 5.79484 0
M  V30 5342 H 532.39 4.59296 5.21605 0
M  V30 5343 H 535.581 2.86986 3.69806 0
M  V30 5344 H 535.754 4.16938 4.96051 0
M  V30 5345 N 529.16 -1.33526 0.837174 0
M  V30 5346 C 530.11 -2.2672 0.241269 0
M  V30 5347 C 531.094 -1.49183 -0.602756 0
M  V30 5348 O 532.286 -1.71052 -0.455002 0
M  V30 5349 C 529.415 -3.38294 -0.584125 0
M  V30 5350 C 528.501 -4.23231 0.271315 0
M  V30 5351 N 528.892 -4.87473 1.34922 0
M  V30 5352 C 527.19 -4.45962 0.0580589 0
M  V30 5353 C 527.891 -5.50685 1.87405 0
M  V30 5354 N 526.867 -5.30732 1.17578 0
M  V30 5355 H 530.669 -2.73903 1.06558 0
M  V30 5356 H 528.183 -1.47411 0.68145 0
M  V30 5357 H 530.18 -4.04044 -1.02731 0
M  V30 5358 H 528.84 -2.9266 -1.40643 0
M  V30 5359 H 529.851 -4.88077 1.7321 0
M  V30 5360 H 526.528 -4.11052 -0.730938 0
M  V30 5361 H 527.918 -6.11845 2.77661 0
M  V30 5362 N 530.638 -0.59345 -1.46 0
M  V30 5363 C 531.915 -0.0157933 -1.95594 0
M  V30 5364 C 532.295 1.44807 -1.53604 0
M  V30 5365 O 531.643 2.14342 -0.791824 0
M  V30 5366 C 531.853 -0.199081 -3.48432 0
M  V30 5367 C 533.201 -0.0724943 -4.24538 0
M  V30 5368 O 534.225 -0.128469 -3.55968 0
M  V30 5369 O 533.084 0.0542426 -5.46473 0
M  V30 5370 H 530.178 0.043749 -0.825842 0
M  V30 5371 H 532.724 -0.662522 -1.56233 0
M  V30 5372 H 531.496 -1.21631 -3.71916 0
M  V30 5373 H 531.119 0.483576 -3.94648 0
M  V30 5374 N 532.116 1.54067 -0.331816 0
M  V30 5375 C 533.365 1.99895 0.269209 0
M  V30 5376 C 533.678 1.22371 1.52593 0
M  V30 5377 O 534.884 1.58618 2.20347 0
M  V30 5378 C 533.34 3.55972 0.530244 0
M  V30 5379 C 532.948 4.4234 -0.709901 0
M  V30 5380 C 534.692 4.10247 1.09077 0
M  V30 5381 C 532.599 5.89905 -0.420312 0
M  V30 5382 H 531.529 0.746741 0.104371 0
M  V30 5383 H 534.18 1.78014 -0.445324 0
M  V30 5384 H 532.562 3.73873 1.30518 0
M  V30 5385 H 533.736 4.36215 -1.48504 0
M  V30 5386 H 532.051 3.98997 -1.19123 0
M  V30 5387 H 534.648 5.18095 1.32219 0
M  V30 5388 H 534.991 3.62739 2.0427 0
M  V30 5389 H 535.524 3.96011 0.376824 0
M  V30 5390 H 532.263 6.41623 -1.34164 0
M  V30 5391 H 531.783 5.98962 0.316962 0
M  V30 5392 H 533.462 6.46991 -0.0331956 0
M  V30 5393 N 533.594 0.0601682 1.57485 0
M  V30 5394 C 534.504 -0.926121 2.15546 0
M  V30 5395 C 535.52 -1.33532 1.11558 0
M  V30 5396 O 536.696 -1.4104 1.4377 0
M  V30 5397 C 533.761 -2.17952 2.69625 0
M  V30 5398 C 532.822 -1.82783 3.88444 0
M  V30 5399 C 532.055 -3.02148 4.39935 0
M  V30 5400 O 532.278 -4.15803 3.90466 0
M  V30 5401 O 531.212 -2.82639 5.31412 0
M  V30 5402 H 535.038 -0.462289 3.00161 0
M  V30 5403 H 532.623 -0.162246 1.48516 0
M  V30 5404 H 534.505 -2.91474 3.04337 0
M  V30 5405 H 533.18 -2.63456 1.88077 0
M  V30 5406 H 532.087 -1.06549 3.58606 0
M  V30 5407 H 533.42 -1.42072 4.7125 0
M  V30 5408 N 535.072 -1.5615 -0.213296 0
M  V30 5409 C 536.483 -1.69645 -0.779582 0
M  V30 5410 C 536.834 -0.663615 -1.84636 0
M  V30 5411 O 535.959 0.183633 -2.15619 0
M  V30 5412 C 536.554 -3.07567 -1.42084 0
M  V30 5413 C 535.113 -3.22889 -1.93442 0
M  V30 5414 C 534.26 -2.65581 -0.797612 0
M  V30 5415 H 537.211 -1.58696 0.0114951 0
M  V30 5416 H 537.232 -3.03884 -2.28986 0
M  V30 5417 H 536.744 -3.82716 -0.644187 0
M  V30 5418 H 534.845 -2.52623 -2.73884 0
M  V30 5419 H 534.958 -4.30197 -2.10872 0
M  V30 5420 H 533.322 -2.24278 -1.20712 0
M  V30 5421 H 534.105 -3.43284 -0.033494 0
M  V30 5422 N 536.55 0.480323 -1.50102 0
M  V30 5423 C 537.48 1.58769 -1.71215 0
M  V30 5424 C 538.461 1.60583 -0.560997 0
M  V30 5425 O 539.646 1.76996 -0.799127 0
M  V30 5426 C 536.776 2.97148 -1.79778 0
M  V30 5427 C 535.73 3.10201 -2.94888 0
M  V30 5428 C 535.056 4.50137 -2.88584 0
M  V30 5429 C 536.356 2.88283 -4.35534 0
M  V30 5430 H 538.05 1.41354 -2.6393 0
M  V30 5431 H 535.596 0.678591 -1.27008 0
M  V30 5432 H 537.549 3.74536 -1.93133 0
M  V30 5433 H 536.273 3.15699 -0.836772 0
M  V30 5434 H 534.932 2.35244 -2.81169 0
M  V30 5435 H 534.58 4.65593 -1.90349 0
M  V30 5436 H 534.28 4.59808 -3.65856 0
M  V30 5437 H 535.804 5.29558 -3.03976 0
M  V30 5438 H 537.218 3.55427 -4.49827 0
M  V30 5439 H 535.615 3.09408 -5.14186 0
M  V30 5440 H 536.685 1.84219 -4.48544 0
M  V30 5441 N 538.028 1.39524 0.732853 0
M  V30 5442 C 539.444 1.21176 1.03868 0
M  V30 5443 C 539.644 0.0748448 2.01361 0
M  V30 5444 O 538.7 -0.57281 2.45917 0
M  V30 5445 C 540.013 2.54667 1.59892 0
M  V30 5446 C 541.561 2.6153 1.71962 0
M  V30 5447 C 542.036 3.95248 2.31394 0
M  V30 5448 N 543.527 3.96899 2.38801 0
M  V30 5449 C 544.262 4.97138 2.85729 0
M  V30 5450 N 543.758 6.07775 3.32537 0
M  V30 5451 N 545.551 4.84516 2.84957 0
M  V30 5452 H 537.702 2.12225 0.086304 0
M  V30 5453 H 539.965 0.942614 0.100907 0
M  V30 5454 H 539.671 3.38423 0.95721 0
M  V30 5455 H 539.545 2.74538 2.58668 0
M  V30 5456 H 541.932 1.78156 2.35254 0
M  V30 5457 H 542.013 2.45507 0.718327 0
M  V30 5458 H 541.657 4.79054 1.68729 0
M  V30 5459 H 541.587 4.08593 3.32204 0
M  V30 5460 H 544.078 3.16998 2.05719 0
M  V30 5461 H 544.391 6.8017 3.66862 0
M  V30 5462 H 542.736 6.11366 3.30541 0
M  V30 5463 H 545.927 3.97185 2.47713 0
M  V30 5464 H 546.1 5.62783 3.21215 0
M  V30 5465 N 539.506 -0.963266 1.24736 0
M  V30 5466 C 540.469 -2.04013 1.04457 0
M  V30 5467 C 541.469 -1.608 0.000335555 0
M  V30 5468 O 542.659 -1.72515 0.241719 0
M  V30 5469 C 539.791 -3.35858 0.584162 0
M  V30 5470 H 540.984 -2.23436 2.00041 0
M  V30 5471 H 538.537 -1.13914 1.07021 0
M  V30 5472 H 539.272 -3.22128 -0.374673 0
M  V30 5473 H 539.057 -3.68568 1.3379 0
M  V30 5474 H 540.547 -4.1502 0.463451 0
M  V30 5475 N 540.985 -1.06182 -1.16461 0
M  V30 5476 C 542.401 -0.785065 -1.38956 0
M  V30 5477 C 542.601 0.616103 -1.9185 0
M  V30 5478 O 541.657 1.37686 -2.11657 0
M  V30 5479 C 542.97 -1.84902 -2.37132 0
M  V30 5480 C 544.518 -1.8724 -2.50819 0
M  V30 5481 C 544.993 -2.92686 -3.52277 0
M  V30 5482 N 546.484 -2.91712 -3.59803 0
M  V30 5483 C 547.219 -3.69949 -4.38093 0
M  V30 5484 N 546.715 -4.58 -5.19815 0
M  V30 5485 N 548.508 -3.58346 -4.33064 0
M  V30 5486 H 540.659 -1.96569 -0.804634 0
M  V30 5487 H 542.922 -0.851747 -0.416211 0
M  V30 5488 H 542.628 -2.85518 -2.0536 0
M  V30 5489 H 542.502 -1.69908 -3.36766 0
M  V30 5490 H 544.889 -0.872827 -2.81897 0
M  V30 5491 H 544.97 -2.06311 -1.51226 0
M  V30 5492 H 544.614 -3.92835 -3.21937 0
M  V30 5493 H 544.544 -2.70864 -4.51598 0
M  V30 5494 H 547.035 -2.27876 -3.01464 0
M  V30 5495 H 547.348 -5.14357 -5.76764 0
M  V30 5496 H 545.693 -4.62056 -5.19162 0
M  V30 5497 H 548.884 -2.88943 -3.68279 0
M  V30 5498 H 549.057 -4.19563 -4.93833 0
M  V30 5499 N 542.463 1.3308 -0.844243 0
M  V30 5500 C 543.712 1.96868 -0.438833 0
M  V30 5501 C 544.025 1.67599 1.00846 0
M  V30 5502 O 545.231 2.25043 1.51881 0
M  V30 5503 C 543.687 3.5234 -0.73377 0
M  V30 5504 C 543.295 3.90481 -2.1961 0
M  V30 5505 C 545.039 4.22653 -0.395574 0
M  V30 5506 C 542.946 5.38954 -2.43481 0
M  V30 5507 H 541.876 0.736749 -0.160364 0
M  V30 5508 H 544.527 1.51623 -1.03358 0
M  V30 5509 H 542.909 3.95941 -0.068589 0
M  V30 5510 H 544.083 3.57922 -2.90221 0
M  V30 5511 H 542.398 3.33165 -2.4978 0
M  V30 5512 H 544.995 5.31848 -0.551477 0
M  V30 5513 H 545.338 4.11004 0.661921 0
M  V30 5514 H 545.871 3.84601 -1.01621 0
M  V30 5515 H 542.61 5.55612 -3.47816 0
M  V30 5516 H 542.13 5.72954 -1.77437 0
M  V30 5517 H 543.809 6.05907 -2.26905 0
M  V30 5518 N 543.941 0.601185 1.45683 0
M  V30 5519 C 544.904 -0.111398 2.28929 0
M  V30 5520 C 545.904 -0.801246 1.39416 0
M  V30 5521 O 547.094 -0.650383 1.61603 0
M  V30 5522 C 544.226 -1.16773 3.20276 0
M  V30 5523 H 545.419 0.620412 2.93413 0
M  V30 5524 H 542.972 0.359946 1.52099 0
M  V30 5525 H 543.707 -1.93051 2.60579 0
M  V30 5526 H 543.492 -0.677358 3.86205 0
M  V30 5527 H 544.982 -1.66698 3.82886 0
M  V30 5528 N 545.419 -1.53889 0.339982 0
M  V30 5529 C 546.329 -2.28604 -0.526988 0
M  V30 5530 C 547.345 -1.33578 -1.11503 0
M  V30 5531 O 548.521 -1.66612 -1.13148 0
M  V30 5532 C 545.586 -3.04164 -1.66389 0
M  V30 5533 C 544.647 -4.14809 -1.10599 0
M  V30 5534 C 543.88 -4.86756 -2.18871 0
M  V30 5535 O 544.103 -4.58343 -3.39526 0
M  V30 5536 O 543.037 -5.73289 -1.83366 0
M  V30 5537 H 546.863 -3.03594 0.0802707 0
M  V30 5538 H 544.448 -1.4903 0.105141 0
M  V30 5539 H 546.33 -3.51427 -2.32544 0
M  V30 5540 H 545.005 -2.32035 -2.25703 0
M  V30 5541 H 543.912 -3.71857 -0.409067 0
M  V30 5542 H 545.245 -4.89029 -0.557771 0
M  V30 5543 N 546.897 -0.0685191 -1.57451 0
M  V30 5544 C 548.144 0.601348 -1.93365 0
M  V30 5545 C 548.472 1.69816 -0.948294 0
M  V30 5546 O 547.727 1.95666 0.0366199 0
M  V30 5547 C 548.026 1.22051 -3.35914 0
M  V30 5548 C 547.692 0.250165 -4.50205 0
M  V30 5549 C 546.354 -0.0167954 -4.81197 0
M  V30 5550 C 548.706 -0.413867 -5.19554 0
M  V30 5551 C 546.034 -0.95493 -5.78876 0
M  V30 5552 C 548.386 -1.3403 -6.18238 0
M  V30 5553 C 547.05 -1.61576 -6.47649 0
M  V30 5554 H 546.32 0.220049 -0.707573 0
M  V30 5555 H 548.967 -0.138697 -1.90997 0
M  V30 5556 H 547.272 2.03622 -3.34732 0
M  V30 5557 H 548.969 1.74605 -3.6099 0
M  V30 5558 H 545.559 0.468421 -4.26033 0
M  V30 5559 H 549.743 -0.220733 -4.95809 0
M  V30 5560 H 544.999 -1.17563 -5.99991 0
M  V30 5561 H 549.173 -1.86081 -6.71079 0
M  V30 5562 H 546.8 -2.34431 -7.2315 0
M  V30 5563 N 548.375 1.56261 0.205012 0
M  V30 5564 C 549.305 1.96779 1.257 0
M  V30 5565 C 550.286 0.838309 1.48008 0
M  V30 5566 O 551.471 1.10189 1.59913 0
M  V30 5567 C 548.601 2.29876 2.60335 0
M  V30 5568 C 547.555 3.45469 2.52656 0
M  V30 5569 C 546.881 3.64215 3.91473 0
M  V30 5570 C 548.181 4.79954 2.06014 0
M  V30 5571 H 549.875 2.84904 0.920338 0
M  V30 5572 H 547.421 1.37072 0.441277 0
M  V30 5573 H 549.374 2.56814 3.34102 0
M  V30 5574 H 548.098 1.38622 2.95722 0
M  V30 5575 H 546.757 3.18605 1.81345 0
M  V30 5576 H 546.405 2.70309 4.24196 0
M  V30 5577 H 546.105 4.41973 3.87213 0
M  V30 5578 H 547.629 3.93519 4.66878 0
M  V30 5579 H 549.043 5.05989 2.69533 0
M  V30 5580 H 547.44 5.61111 2.12777 0
M  V30 5581 H 548.51 4.74201 1.01297 0
M  V30 5582 N 549.853 -0.472356 1.50355 0
M  V30 5583 C 550.816 -1.5529 1.68576 0
M  V30 5584 C 551.816 -1.50863 0.556511 0
M  V30 5585 O 553.006 -1.53505 0.823516 0
M  V30 5586 C 550.138 -2.94921 1.70981 0
M  V30 5587 H 551.331 -1.40451 2.64978 0
M  V30 5588 H 548.884 -0.698645 1.39816 0
M  V30 5589 H 549.619 -3.15204 0.762675 0
M  V30 5590 H 549.404 -2.99541 2.53017 0
M  V30 5591 H 550.894 -3.73372 1.87037 0
M  V30 5592 N 551.331 -1.39911 -0.725443 0
M  V30 5593 C 552.608 -1.28158 -1.47766 0
M  V30 5594 C 552.988 0.104545 -2.10841 0
M  V30 5595 O 552.336 1.11657 -1.99361 0
M  V30 5596 C 552.546 -2.41306 -2.52135 0
M  V30 5597 C 553.894 -2.81076 -3.18247 0
M  V30 5598 O 554.918 -2.40827 -2.62452 0
M  V30 5599 O 553.777 -3.50581 -4.19231 0
M  V30 5600 H 550.871 -0.502761 -0.656628 0
M  V30 5601 H 553.417 -1.51808 -0.758456 0
M  V30 5602 H 552.189 -3.33932 -2.03974 0
M  V30 5603 H 551.812 -2.19374 -3.31603 0
M  V30 5604 N 552.809 0.956637 -1.25245 0
M  V30 5605 C 554.22 1.51569 -1.09012 0
M  V30 5606 C 554.571 1.93322 0.334813 0
M  V30 5607 O 553.696 1.78421 1.22454 0
M  V30 5608 C 554.291 2.75444 -1.97271 0
M  V30 5609 C 552.85 3.27669 -1.8523 0
M  V30 5610 C 551.997 2.00517 -1.91542 0
M  V30 5611 H 554.948 0.773746 -1.3856 0
M  V30 5612 H 554.969 3.4919 -1.51151 0
M  V30 5613 H 554.481 2.45024 -3.00973 0
M  V30 5614 H 552.582 3.62914 -0.844045 0
M  V30 5615 H 552.695 3.9582 -2.69932 0
M  V30 5616 H 551.059 2.15727 -1.35404 0
M  V30 5617 H 551.842 1.72448 -2.96844 0
M  V30 5618 N 554.287 1.06798 1.15896 0
M  V30 5619 C 555.197 0.694564 2.24083 0
M  V30 5620 C 556.213 -0.291687 1.71538 0
M  V30 5621 O 557.389 -0.139723 2.00915 0
M  V30 5622 C 554.454 0.0921014 3.46578 0
M  V30 5623 C 553.515 1.13087 4.14137 0
M  V30 5624 C 552.748 0.557064 5.30785 0
M  V30 5625 O 552.971 -0.628623 5.66925 0
M  V30 5626 O 551.905 1.29924 5.8771 0
M  V30 5627 H 555.731 1.59663 2.58344 0
M  V30 5628 H 553.316 0.840575 1.2351 0
M  V30 5629 H 555.198 -0.241884 4.20705 0
M  V30 5630 H 553.873 -0.78337 3.14078 0
M  V30 5631 H 552.78 1.51712 3.41957 0
M  V30 5632 H 554.113 1.97805 4.50704 0
M  V30 5633 N 555.766 -1.3263 0.851289 0
M  V30 5634 C 556.994 -2.01563 0.466899 0
M  V30 5635 C 557.409 -1.63996 -0.935447 0
M  V30 5636 O 556.766 -0.85957 -1.6099 0
M  V30 5637 C 556.817 -3.56613 0.592433 0
M  V30 5638 O 556.538 -3.92828 1.93954 0
M  V30 5639 C 558.039 -4.42818 0.206612 0
M  V30 5640 H 555.259 -0.645307 0.183902 0
M  V30 5641 H 557.803 -1.69285 1.1473 0
M  V30 5642 H 555.958 -3.87379 -0.0401936 0
M  V30 5643 H 556.372 -4.87545 1.9339 0
M  V30 5644 H 557.846 -5.50918 0.345462 0
M  V30 5645 H 558.323 -4.30844 -0.85264 0
M  V30 5646 H 558.929 -4.17434 0.814176 0
M  V30 5647 N 557.244 -0.608902 -1.45362 0
M  V30 5648 C 558.474 -0.110852 -2.06302 0
M  V30 5649 C 558.882 1.21062 -1.45398 0
M  V30 5650 O 558.225 1.74861 -0.562976 0
M  V30 5651 C 558.287 0.101793 -3.59356 0
M  V30 5652 C 557.951 -1.13808 -4.42602 0
M  V30 5653 C 558.948 -2.05653 -4.77496 0
M  V30 5654 C 556.633 -1.36727 -4.83333 0
M  V30 5655 C 558.627 -3.18745 -5.51978 0
M  V30 5656 C 556.314 -2.5012 -5.57569 0
M  V30 5657 C 557.312 -3.40957 -5.91809 0
M  V30 5658 O 557 -4.52376 -6.64538 0
M  V30 5659 H 556.732 -0.0666001 -0.672711 0
M  V30 5660 H 559.286 -0.836942 -1.87575 0
M  V30 5661 H 557.516 0.88279 -3.76489 0
M  V30 5662 H 559.205 0.551607 -4.02134 0
M  V30 5663 H 559.971 -1.89172 -4.46586 0
M  V30 5664 H 555.85 -0.669216 -4.56117 0
M  V30 5665 H 559.394 -3.8967 -5.78622 0
M  V30 5666 H 555.291 -2.66553 -5.87894 0
M  V30 5667 H 556.059 -4.51075 -6.82989 0
M  V30 5668 N 558.722 1.53707 -0.348139 0
M  V30 5669 C 559.632 2.28881 0.514857 0
M  V30 5670 C 560.648 1.34168 1.10793 0
M  V30 5671 O 561.824 1.6721 1.12262 0
M  V30 5672 C 558.889 3.05042 1.64774 0
M  V30 5673 C 557.95 4.15389 1.08398 0
M  V30 5674 C 557.183 4.87909 2.16287 0
M  V30 5675 O 557.406 4.60137 3.3709 0
M  V30 5676 O 556.34 5.74254 1.80323 0
M  V30 5677 H 560.166 3.03547 -0.0963699 0
M  V30 5678 H 557.751 1.48972 -0.113043 0
M  V30 5679 H 559.633 3.52656 2.30677 0
M  V30 5680 H 558.308 2.33228 2.24469 0
M  V30 5681 H 557.215 3.72068 0.389341 0
M  V30 5682 H 558.548 4.89318 0.531829 0
M  V30 5683 N 560.2 0.0768682 1.57412 0
M  V30 5684 C 561.477 -0.632359 1.85096 0
M  V30 5685 C 561.857 -1.87479 0.9703 0
M  V30 5686 O 561.205 -2.28469 0.0379062 0
M  V30 5687 C 561.415 -0.965174 3.35388 0
M  V30 5688 C 562.763 -1.33648 4.03018 0
M  V30 5689 O 563.787 -1.05675 3.40164 0
M  V30 5690 O 562.646 -1.85959 5.13889 0
M  V30 5691 H 559.74 -0.314574 0.764835 0
M  V30 5692 H 562.286 0.108184 1.69355 0
M  V30 5693 H 561.058 -0.0829745 3.91212 0
M  V30 5694 H 560.681 -1.76231 3.5641 0
M  V30 5695 N 561.678 -1.56367 -0.196722 0
M  V30 5696 C 562.926 -1.80172 -0.915554 0
M  V30 5697 C 563.247 -0.649649 -1.8386 0
M  V30 5698 O 562.517 0.332111 -1.93064 0
M  V30 5699 H 561.097 -0.664592 -0.341067 0
M  V30 5700 H 563.759 -1.93844 -0.202622 0
M  V30 5701 H 562.855 -2.7327 -1.50764 0
M  V30 5702 N 563.156 0.464375 -1.50603 0
M  V30 5703 C 564.089 1.58052 -1.64605 0
M  V30 5704 C 565.067 1.54914 -0.494016 0
M  V30 5705 O 566.251 1.74438 -0.714393 0
M  V30 5706 C 563.378 2.96634 -1.63481 0
M  V30 5707 C 562.424 3.17901 -2.84325 0
M  V30 5708 S 563.257 2.97083 -4.45536 0
M  V30 5709 C 564.413 4.37994 -4.47115 0
M  V30 5710 H 564.646 1.45937 -2.59017 0
M  V30 5711 H 562.179 0.652189 -1.39949 0
M  V30 5712 H 564.137 3.76527 -1.63517 0
M  V30 5713 H 562.798 3.06134 -0.702928 0
M  V30 5714 H 561.991 4.19158 -2.79862 0
M  V30 5715 H 561.593 2.45792 -2.81891 0
M  V30 5716 H 563.885 5.30743 -4.21091 0
M  V30 5717 H 564.828 4.47499 -5.48772 0
M  V30 5718 H 565.236 4.20386 -3.76743 0
M  V30 5719 N 564.634 1.40294 0.718013 0
M  V30 5720 C 566.05 1.2227 1.02577 0
M  V30 5721 C 566.25 0.0961976 2.0127 0
M  V30 5722 O 565.306 -0.546695 2.46511 0
M  V30 5723 C 566.619 2.56348 1.57182 0
M  V30 5724 C 568.167 2.6334 1.69178 0
M  V30 5725 C 568.642 3.9768 2.27188 0
M  V30 5726 N 570.133 3.99409 2.34578 0
M  V30 5727 C 570.868 5.00141 2.8044 0
M  V30 5728 N 570.364 6.11268 3.26073 0
M  V30 5729 N 572.157 4.87511 2.79802 0
M  V30 5730 H 564.308 2.12304 0.0637899 0
M  V30 5731 H 566.571 0.943632 0.0909036 0
M  V30 5732 H 566.277 3.3942 0.921262 0
M  V30 5733 H 566.151 2.77266 2.55741 0
M  V30 5734 H 568.538 1.80641 2.33351 0
M  V30 5735 H 568.619 2.46255 0.692247 0
M  V30 5736 H 568.263 4.80817 1.63638 0
M  V30 5737 H 568.193 4.12093 3.27852 0
M  V30 5738 H 570.684 3.19162 2.02346 0
M  V30 5739 H 570.997 6.84023 3.59628 0
M  V30 5740 H 569.342 6.14837 3.24038 0
M  V30 5741 H 572.533 3.9979 2.43487 0
M  V30 5742 H 572.706 5.66158 3.15228 0
M  V30 5743 N 566.112 -0.949982 1.2575 0
M  V30 5744 C 567.358 -1.69766 1.10938 0
M  V30 5745 C 567.691 -1.91056 -0.348028 0
M  V30 5746 O 566.966 -1.48488 -1.25625 0
M  V30 5747 C 567.249 -3.07779 1.86933 0
M  V30 5748 C 567.102 -2.9387 3.4053 0
M  V30 5749 C 568.421 -4.07749 1.65616 0
M  V30 5750 H 565.54 -0.616144 0.404396 0
M  V30 5751 H 568.182 -1.10394 1.54639 0
M  V30 5752 H 566.332 -3.58462 1.4979 0
M  V30 5753 H 568.004 -2.50476 3.87375 0
M  V30 5754 H 566.247 -2.29686 3.68004 0
M  V30 5755 H 566.918 -3.91719 3.88922 0
M  V30 5756 H 569.394 -3.65994 1.97959 0
M  V30 5757 H 568.27 -5.02348 2.21218 0
M  V30 5758 H 568.531 -4.38029 0.598595 0
M  V30 5759 N 567.59 -1.07411 -1.15328 0
M  V30 5760 C 568.54 -0.664788 -2.18093 0
M  V30 5761 C 569.524 0.310395 -1.57878 0
M  V30 5762 O 570.716 0.124026 -1.76565 0
M  V30 5763 C 567.845 -0.0647822 -3.43239 0
M  V30 5764 C 566.931 -1.06514 -4.10506 0
M  V30 5765 N 567.322 -2.24491 -4.53252 0
M  V30 5766 C 565.62 -0.898613 -4.36853 0
M  V30 5767 C 566.321 -2.8796 -5.05424 0
M  V30 5768 N 565.297 -2.15622 -4.99007 0
M  V30 5769 H 569.099 -1.56333 -2.48872 0
M  V30 5770 H 566.613 -0.947393 -1.31902 0
M  V30 5771 H 568.61 0.246363 -4.16171 0
M  V30 5772 H 567.27 0.828866 -3.13943 0
M  V30 5773 H 568.281 -2.62205 -4.46619 0
M  V30 5774 H 564.958 -0.0579118 -4.1746 0
M  V30 5775 H 566.348 -3.88137 -5.48452 0
M  V30 5776 N 569.068 1.32177 -0.85831 0
M  V30 5777 C 570 2.27688 -0.262835 0
M  V30 5778 C 571.013 1.52588 0.567513 0
M  V30 5779 O 572.202 1.74156 0.391407 0
M  V30 5780 C 569.302 3.32668 0.646937 0
M  V30 5781 C 568.475 4.37148 -0.148372 0
M  V30 5782 C 567.534 5.21686 0.687728 0
M  V30 5783 O 566.56 5.69074 0.119934 0
M  V30 5784 N 567.762 5.44892 2.00182 0
M  V30 5785 H 570.527 2.79426 -1.08356 0
M  V30 5786 H 568.088 1.45076 -0.718647 0
M  V30 5787 H 570.08 3.86134 1.2117 0
M  V30 5788 H 568.65 2.81061 1.36834 0
M  V30 5789 H 567.87 3.83915 -0.894572 0
M  V30 5790 H 569.158 5.04038 -0.694514 0
M  V30 5791 H 568.556 5.08128 2.4864 0
M  V30 5792 H 567.113 6.0134 2.51463 0
M  V30 5793 N 570.547 0.616602 1.45037 0
M  V30 5794 C 571.793 0.115501 2.02471 0
M  V30 5795 C 572.126 -1.25406 1.4828 0
M  V30 5796 O 571.401 -1.82922 0.661051 0
M  V30 5797 C 571.684 0.0863588 3.59996 0
M  V30 5798 C 571.537 1.48723 4.24501 0
M  V30 5799 C 572.856 -0.596762 4.36035 0
M  V30 5800 H 569.975 0.0434461 0.735718 0
M  V30 5801 H 572.617 0.7903 1.72784 0
M  V30 5802 H 570.767 -0.488277 3.85419 0
M  V30 5803 H 572.439 2.10964 4.10234 0
M  V30 5804 H 570.682 2.04534 3.82555 0
M  V30 5805 H 571.353 1.419 5.3345 0
M  V30 5806 H 573.829 -0.10824 4.15959 0
M  V30 5807 H 572.705 -0.586289 5.4576 0
M  V30 5808 H 572.966 -1.66451 4.09569 0
M  V30 5809 N 572.025 -1.5352 0.356285 0
M  V30 5810 C 573.274 -2.00298 -0.237373 0
M  V30 5811 C 573.587 -1.24784 -1.50627 0
M  V30 5812 O 574.793 -1.62103 -2.17795 0
M  V30 5813 C 573.249 -3.56771 -0.473545 0
M  V30 5814 C 572.857 -4.41154 0.780183 0
M  V30 5815 C 574.601 -4.1193 -1.02537 0
M  V30 5816 C 572.508 -5.89161 0.514108 0
M  V30 5817 H 571.438 -0.748307 -0.092478 0
M  V30 5818 H 574.089 -1.77283 0.473588 0
M  V30 5819 H 572.471 -3.75902 -1.24553 0
M  V30 5820 H 573.645 -4.33797 1.55425 0
M  V30 5821 H 571.96 -3.97052 1.25455 0
M  V30 5822 H 574.557 -5.20133 -1.2396 0
M  V30 5823 H 574.9 -3.65943 -1.98473 0
M  V30 5824 H 575.433 -3.96561 -0.313775 0
M  V30 5825 H 572.172 -6.39408 1.44355 0
M  V30 5826 H 571.692 -5.9939 -0.221632 0
M  V30 5827 H 573.371 -6.46857 0.136122 0
M  V30 5828 N 573.503 -0.0852151 -1.57369 0
M  V30 5829 C 574.78 0.622534 -1.85429 0
M  V30 5830 C 575.16 1.86962 -0.980229 0
M  V30 5831 O 574.508 2.28445 -0.0500219 0
M  V30 5832 C 574.718 0.947374 -3.35896 0
M  V30 5833 C 576.066 1.31509 -4.03721 0
M  V30 5834 O 577.09 1.03869 -3.40719 0
M  V30 5835 O 575.949 1.83231 -5.14868 0
M  V30 5836 H 573.043 0.310513 -0.766492 0
M  V30 5837 H 575.589 -0.117164 -1.69295 0
M  V30 5838 H 574.361 0.0622264 -3.91251 0
M  V30 5839 H 573.984 1.74338 -3.5734 0
M  V30 5840 N 574.981 1.5647 0.188427 0
M  V30 5841 C 576.206 1.85486 0.927891 0
M  V30 5842 C 576.631 0.669575 1.75779 0
M  V30 5843 O 575.989 -0.381573 1.77239 0
M  V30 5844 C 576.037 3.12784 1.7944 0
M  V30 5845 O 575.141 2.93805 2.894 0
M  V30 5846 H 574.482 0.610585 0.260925 0
M  V30 5847 H 577.012 2.037 0.191729 0
M  V30 5848 H 577.022 3.43749 2.19774 0
M  V30 5849 H 575.697 3.98671 1.18468 0
M  V30 5850 H 574.274 2.74153 2.52774 0
M  V30 5851 N 576.459 -0.456382 1.50847 0
M  V30 5852 C 577.392 -1.57177 1.65441 0
M  V30 5853 C 578.37 -1.54649 0.502224 0
M  V30 5854 O 579.554 -1.74057 0.723633 0
M  V30 5855 C 576.681 -2.95763 1.65052 0
M  V30 5856 C 575.727 -3.16389 2.86007 0
M  V30 5857 S 576.56 -2.94716 4.47105 0
M  V30 5858 C 577.716 -4.35617 4.49432 0
M  V30 5859 H 577.949 -1.44561 2.59787 0
M  V30 5860 H 575.482 -0.644758 1.40293 0
M  V30 5861 H 577.44 -3.75654 1.65512 0
M  V30 5862 H 576.101 -3.05756 0.719153 0
M  V30 5863 H 575.294 -4.17667 2.82081 0
M  V30 5864 H 574.896 -2.44293 2.8319 0
M  V30 5865 H 577.188 -5.28503 4.239 0
M  V30 5866 H 578.131 -4.44582 5.51137 0
M  V30 5867 H 578.539 -4.18382 3.78967 0
M  V30 5868 N 577.937 -1.40673 -0.710563 0
M  V30 5869 C 578.885 -1.41517 -1.84596 0
M  V30 5870 C 579.879 -0.295043 -1.66811 0
M  V30 5871 O 581.085 -0.466331 -1.73854 0
M  V30 5872 H 577.46 -0.442467 -0.608052 0
M  V30 5873 H 579.431 -2.37238 -1.80999 0
M  V30 5874 C 578.18 -1.29957 -3.225 0
M  V30 5875 H 577.503 -2.15429 -3.36794 0
M  V30 5876 H 578.943 -1.34608 -4.02066 0
M  V30 5877 C 577.402 -0.0103164 -3.36898 0
M  V30 5878 O 577.932 0.950707 -3.90288 0
M  V30 5879 N 576.138 0.0608409 -2.90536 0
M  V30 5880 H 575.685 -0.721943 -2.47277 0
M  V30 5881 H 575.643 0.92292 -3.00549 0
M  V30 5882 N 579.415 0.9433 -1.26252 0
M  V30 5883 C 580.643 1.72367 -1.14443 0
M  V30 5884 C 581.058 1.86392 0.300572 0
M  V30 5885 O 580.415 1.36978 1.20596 0
M  V30 5886 C 580.466 3.13155 -1.806 0
M  V30 5887 O 580.187 2.99803 -3.19452 0
M  V30 5888 C 581.688 4.07417 -1.74717 0
M  V30 5889 H 578.908 0.539758 -0.398626 0
M  V30 5890 H 581.452 1.18268 -1.66832 0
M  V30 5891 H 579.607 3.64162 -1.32154 0
M  V30 5892 H 580.021 3.88697 -3.52158 0
M  V30 5893 H 581.495 5.03773 -2.25647 0
M  V30 5894 H 581.972 4.3337 -0.713244 0
M  V30 5895 H 582.578 3.6233 -2.22704 0
M  V30 5896 N 580.893 1.08022 1.14757 0
M  V30 5897 C 582.139 0.808705 1.85978 0
M  V30 5898 C 582.472 -0.663764 1.82504 0
M  V30 5899 O 581.747 -1.48765 1.25296 0
M  V30 5900 C 582.03 1.32623 3.34788 0
M  V30 5901 C 581.883 2.86375 3.46856 0
M  V30 5902 C 583.202 0.948291 4.29762 0
M  V30 5903 H 580.321 0.295244 0.675278 0
M  V30 5904 H 582.963 1.33917 1.34783 0
M  V30 5905 H 581.113 0.875002 3.78518 0
M  V30 5906 H 582.785 3.39839 3.11941 0
M  V30 5907 H 581.028 3.24232 2.88194 0
M  V30 5908 H 581.699 3.17658 4.51439 0
M  V30 5909 H 584.175 1.33722 3.94028 0
M  V30 5910 H 583.051 1.33765 5.32352 0
M  V30 5911 H 583.312 -0.145094 4.41862 0
M  V30 5912 N 582.371 -1.3172 0.865308 0
M  V30 5913 C 583.304 -2.26687 0.262376 0
M  V30 5914 C 584.282 -1.50894 -0.605787 0
M  V30 5915 O 585.466 -1.79982 -0.56024 0
M  V30 5916 C 582.593 -3.3281 -0.628915 0
M  V30 5917 C 581.639 -4.26172 0.167278 0
M  V30 5918 S 582.472 -5.12797 1.54272 0
M  V30 5919 C 583.628 -6.22438 0.657427 0
M  V30 5920 H 583.861 -2.77478 1.0674 0
M  V30 5921 H 581.394 -1.39414 0.663555 0
M  V30 5922 H 583.352 -3.94426 -1.13747 0
M  V30 5923 H 582.013 -2.80782 -1.40785 0
M  V30 5924 H 581.206 -5.01392 -0.51203 0
M  V30 5925 H 580.808 -3.69029 0.607777 0
M  V30 5926 H 583.1 -6.77368 -0.133925 0
M  V30 5927 H 584.043 -6.9451 1.38061 0
M  V30 5928 H 584.451 -5.64043 0.227044 0
M  V30 5929 N 583.85 -0.624285 -1.44708 0
M  V30 5930 C 584.76 0.0861083 -2.34442 0
M  V30 5931 C 585.776 0.84291 -1.5222 0
M  V30 5932 O 586.952 0.796723 -1.84971 0
M  V30 5933 C 584.017 1.05999 -3.30099 0
M  V30 5934 C 583.077 0.303316 -4.28227 0
M  V30 5935 C 582.311 1.23081 -5.19314 0
M  V30 5936 O 582.534 2.46929 -5.14181 0
M  V30 5937 O 581.468 0.71883 -5.97592 0
M  V30 5938 H 585.293 -0.651756 -2.96624 0
M  V30 5939 H 582.879 -0.384493 -1.44368 0
M  V30 5940 H 584.76 1.62046 -3.88997 0
M  V30 5941 H 583.436 1.77859 -2.70459 0
M  V30 5942 H 582.343 -0.300033 -3.72895 0
M  V30 5943 H 583.676 -0.375123 -4.90768 0
M  V30 5944 N 585.328 1.53329 -0.364422 0
M  V30 5945 C 586.238 2.29414 0.490552 0
M  V30 5946 C 587.254 1.35335 1.09363 0
M  V30 5947 O 588.43 1.68391 1.10483 0
M  V30 5948 C 585.495 3.06772 1.61529 0
M  V30 5949 C 584.556 4.16516 1.03986 0
M  V30 5950 C 583.789 4.90176 2.111 0
M  V30 5951 O 584.012 4.63687 3.32191 0
M  V30 5952 O 582.946 5.76134 1.74222 0
M  V30 5953 H 586.772 3.03428 -0.12856 0
M  V30 5954 H 584.357 1.48843 -0.128837 0
M  V30 5955 H 586.239 3.55082 2.26924 0
M  V30 5956 H 584.914 2.35596 2.21983 0
M  V30 5957 H 583.821 3.7246 0.349856 0
M  V30 5958 H 585.154 4.89855 0.4799 0
M  V30 5959 N 586.806 0.0935595 1.57322 0
M  V30 5960 C 587.769 -0.851426 2.12799 0
M  V30 5961 C 588.769 -1.21187 1.0569 0
M  V30 5962 O 589.959 -1.14156 1.31583 0
M  V30 5963 C 587.091 -2.14779 2.64731 0
M  V30 5964 H 588.284 -0.369733 2.97612 0
M  V30 5965 H 585.837 -0.155417 1.55525 0
M  V30 5966 H 586.572 -2.67437 1.83434 0
M  V30 5967 H 586.357 -1.89907 3.43042 0
M  V30 5968 H 587.847 -2.82383 3.07651 0
M  V30 5969 N 588.284 -1.56567 -0.180126 0
M  V30 5970 C 589.247 -1.94852 -1.20686 0
M  V30 5971 C 590.247 -0.831212 -1.3765 0
M  V30 5972 O 591.437 -1.09841 -1.35206 0
M  V30 5973 C 588.569 -2.23565 -2.57355 0
M  V30 5974 H 589.762 -2.86722 -0.879225 0
M  V30 5975 H 587.315 -1.50489 -0.422237 0
M  V30 5976 H 588.05 -1.34381 -2.95148 0
M  V30 5977 H 587.835 -3.04999 -2.46411 0
M  V30 5978 H 589.325 -2.54137 -3.31367 0
M  V30 5979 N 589.762 0.448376 -1.51087 0
M  V30 5980 C 590.672 1.56882 -1.74428 0
M  V30 5981 C 591.688 1.62268 -0.62809 0
M  V30 5982 O 592.864 1.79716 -0.909075 0
M  V30 5983 C 589.929 2.92947 -1.85426 0
M  V30 5984 C 588.99 2.97766 -3.09247 0
M  V30 5985 C 588.223 4.27341 -3.19711 0
M  V30 5986 O 588.446 5.19112 -2.36387 0
M  V30 5987 O 587.38 4.38219 -4.12611 0
M  V30 5988 H 591.206 1.40104 -2.69452 0
M  V30 5989 H 588.791 0.630247 -1.35456 0
M  V30 5990 H 590.673 3.73719 -1.94709 0
M  V30 5991 H 589.348 3.09876 -0.935887 0
M  V30 5992 H 588.255 2.15989 -3.0545 0
M  V30 5993 H 589.588 2.8578 -4.00738 0
M  V30 5994 N 591.24 1.41047 0.703093 0
M  V30 5995 C 592.651 1.35657 1.28274 0
M  V30 5996 C 593.002 0.0360309 1.96167 0
M  V30 5997 O 592.127 -0.865833 1.98324 0
M  V30 5998 C 592.722 2.45707 2.33267 0
M  V30 5999 C 591.281 2.43738 2.86825 0
M  V30 6000 C 590.428 2.25941 1.60767 0
M  V30 6001 H 593.379 1.50672 0.49836 0
M  V30 6002 H 593.4 2.14333 3.14391 0
M  V30 6003 H 592.912 3.41805 1.83824 0
M  V30 6004 H 591.013 1.51375 3.40465 0
M  V30 6005 H 591.126 3.39779 3.37768 0
M  V30 6006 H 589.49 1.73681 1.86298 0
M  V30 6007 H 590.273 3.24054 1.1333 0
M  V30 6008 N 592.718 -0.936591 1.26751 0
M  V30 6009 C 593.966 -1.67998 1.12343 0
M  V30 6010 C 594.287 -1.92137 -0.332938 0
M  V30 6011 O 593.557 -1.52132 -1.23421 0
M  V30 6012 H 592.137 -0.622609 0.412756 0
M  V30 6013 H 594.799 -1.12509 1.59147 0
M  V30 6014 H 593.895 -2.65185 1.64571 0
M  V30 6015 N 594.196 -1.08629 -1.14182 0
M  V30 6016 C 595.106 -0.730126 -2.22949 0
M  V30 6017 C 596.122 0.26436 -1.7198 0
M  V30 6018 O 597.298 0.107742 -2.01112 0
M  V30 6019 C 594.363 -0.147227 -3.46387 0
M  V30 6020 C 593.424 -1.19662 -4.12286 0
M  V30 6021 C 592.657 -0.641437 -5.29831 0
M  V30 6022 O 592.88 0.538351 -5.67854 0
M  V30 6023 O 591.814 -1.39257 -5.85569 0
M  V30 6024 H 595.64 -1.63753 -2.55771 0
M  V30 6025 H 593.225 -0.860118 -1.22157 0
M  V30 6026 H 595.107 0.174923 -4.21037 0
M  V30 6027 H 593.782 0.733304 -3.15285 0
M  V30 6028 H 592.689 -1.57133 -3.395 0
M  V30 6029 H 594.022 -2.0495 -4.475 0
M  V30 6030 N 595.674 1.31259 -0.872281 0
M  V30 6031 C 596.922 1.96233 -0.483409 0
M  V30 6032 C 597.243 1.69276 0.968012 0
M  V30 6033 O 596.513 1.00943 1.67891 0
M  V30 6034 H 595.093 0.726025 -0.175774 0
M  V30 6035 H 597.755 1.60024 -1.11258 0
M  V30 6036 H 596.851 3.05403 -0.643075 0
M  V30 6037 N 597.152 0.631951 1.44375 0
M  V30 6038 C 598.38 0.143867 2.06399 0
M  V30 6039 C 598.795 -1.18188 1.47231 0
M  V30 6040 O 598.152 -1.72511 0.595498 0
M  V30 6041 C 598.203 0.0238253 3.61492 0
M  V30 6042 O 597.924 1.29715 4.18456 0
M  V30 6043 C 599.425 -0.492856 4.40552 0
M  V30 6044 H 596.645 0.0800542 0.666207 0
M  V30 6045 H 599.189 0.866586 1.85231 0
M  V30 6046 H 597.344 -0.649338 3.81919 0
M  V30 6047 H 597.758 1.14252 5.11905 0
M  V30 6048 H 599.232 -0.525861 5.49489 0
M  V30 6049 H 599.709 -1.52006 4.12057 0
M  V30 6050 H 600.315 0.147085 4.25046 0
M  V30 6051 N 598.631 -1.53133 0.372548 0
M  V30 6052 C 599.88 -2.00539 -0.216115 0
M  V30 6053 C 600.193 -1.26374 -1.49295 0
M  V30 6054 O 601.399 -1.64404 -2.16064 0
M  V30 6055 C 599.855 -3.57253 -0.435678 0
M  V30 6056 C 599.463 -4.40302 0.82693 0
M  V30 6057 C 601.207 -4.12995 -0.981618 0
M  V30 6058 C 599.114 -5.88583 0.576567 0
M  V30 6059 H 598.044 -0.749246 -0.084536 0
M  V30 6060 H 600.695 -1.76771 0.492364 0
M  V30 6061 H 599.077 -3.77202 -1.20559 0
M  V30 6062 H 600.251 -4.32124 1.60017 0
M  V30 6063 H 598.566 -3.95699 1.29659 0
M  V30 6064 H 601.163 -5.21418 -1.18436 0
M  V30 6065 H 601.506 -3.68027 -1.94581 0
M  V30 6066 H 602.039 -3.96871 -0.271696 0
M  V30 6067 H 598.778 -6.37841 1.51128 0
M  V30 6068 H 598.298 -5.99592 -0.158047 0
M  V30 6069 H 599.977 -6.46676 0.204722 0
M  V30 6070 N 600.109 -0.101901 -1.5727 0
M  V30 6071 C 601.355 0.561027 -1.94885 0
M  V30 6072 C 601.688 1.6741 -0.984258 0
M  V30 6073 O 600.963 1.94491 -0.0184767 0
M  V30 6074 C 601.246 1.10982 -3.42571 0
M  V30 6075 C 601.099 0.00133418 -4.498 0
M  V30 6076 C 602.418 2.00608 -3.9172 0
M  V30 6077 H 599.537 0.202467 -0.708644 0
M  V30 6078 H 602.179 -0.173992 -1.89202 0
M  V30 6079 H 600.329 1.73621 -3.47546 0
M  V30 6080 H 602.001 -0.63322 -4.56933 0
M  V30 6081 H 600.244 -0.664143 -4.28686 0
M  V30 6082 H 600.915 0.426253 -5.50352 0
M  V30 6083 H 603.391 1.47864 -3.88941 0
M  V30 6084 H 602.267 2.3593 -4.95609 0
M  V30 6085 H 602.528 2.92608 -3.3141 0
M  V30 6086 N 601.587 1.56661 0.17182 0
M  V30 6087 C 602.812 1.86459 0.908165 0
M  V30 6088 C 603.237 0.688181 1.75059 0
M  V30 6089 O 602.595 -0.362753 1.77634 0
M  V30 6090 C 602.643 3.14669 1.76112 0
M  V30 6091 O 601.747 2.96858 2.86268 0
M  V30 6092 H 601.088 0.613318 0.254434 0
M  V30 6093 H 603.618 2.03892 0.170113 0
M  V30 6094 H 603.628 3.46061 2.16115 0
M  V30 6095 H 602.303 3.99905 1.14233 0
M  V30 6096 H 600.88 2.76819 2.49852 0
M  V30 6097 N 603.065 -0.440357 1.51323 0
M  V30 6098 C 604.342 -1.20109 1.5438 0
M  V30 6099 C 604.722 -2.08866 0.306303 0
M  V30 6100 O 604.07 -2.1723 -0.708773 0
M  V30 6101 C 604.28 -2.00555 2.8562 0
M  V30 6102 C 605.628 -2.577 3.37455 0
M  V30 6103 O 606.652 -2.10769 2.8715 0
M  V30 6104 O 605.511 -3.43289 4.25224 0
M  V30 6105 H 602.605 -0.546668 0.620551 0
M  V30 6106 H 605.151 -0.449672 1.63634 0
M  V30 6107 H 603.923 -1.35346 3.67147 0
M  V30 6108 H 603.546 -2.82768 2.79514 0
M  V30 6109 N 604.543 -1.41418 -0.695603 0
M  V30 6110 C 605.792 -1.40073 -1.4513 0
M  V30 6111 C 606.105 -0.0130439 -1.95596 0
M  V30 6112 O 607.311 0.123032 -2.71221 0
M  V30 6113 C 605.767 -2.46286 -2.62433 0
M  V30 6114 C 605.375 -3.90962 -2.18753 0
M  V30 6115 C 607.119 -2.54077 -3.40066 0
M  V30 6116 C 605.026 -4.88728 -3.33015 0
M  V30 6117 H 603.956 -0.520903 -0.545138 0
M  V30 6118 H 606.607 -1.67242 -0.75515 0
M  V30 6119 H 604.989 -2.12248 -3.34315 0
M  V30 6120 H 606.163 -4.34248 -1.54161 0
M  V30 6121 H 604.478 -3.86831 -1.54114 0
M  V30 6122 H 607.075 -3.24303 -4.25125 0
M  V30 6123 H 607.418 -1.5776 -3.8525 0
M  V30 6124 H 607.951 -2.87206 -2.75241 0
M  V30 6125 H 604.69 -5.86449 -2.92844 0
M  V30 6126 H 604.21 -4.50091 -3.96457 0
M  V30 6127 H 605.889 -5.09483 -3.98793 0
M  V30 6128 N 606.021 0.929856 -1.27246 0
M  V30 6129 C 607.269 1.674 -1.13233 0
M  V30 6130 C 607.59 1.92311 0.322744 0
M  V30 6131 O 606.86 1.52784 1.22612 0
M  V30 6132 H 605.44 0.620411 -0.416052 0
M  V30 6133 H 608.102 1.11663 -1.59741 0
M  V30 6134 H 607.198 2.64308 -1.65975 0
M  V30 6135 N 607.499 1.09233 1.13605 0
M  V30 6136 C 608.746 0.827159 1.84836 0
M  V30 6137 C 609.074 -0.647199 1.83416 0
M  V30 6138 O 608.329 -1.49228 1.26608 0
M  V30 6139 C 608.628 1.305 3.32723 0
M  V30 6140 C 608.294 2.78864 3.54325 0
M  V30 6141 C 606.956 3.19382 3.59928 0
M  V30 6142 C 609.308 3.74532 3.62457 0
M  V30 6143 C 606.636 4.54346 3.71196 0
M  V30 6144 C 608.988 5.09283 3.75252 0
M  V30 6145 C 607.652 5.49394 3.79108 0
M  V30 6146 H 606.922 0.302679 0.676363 0
M  V30 6147 H 609.569 1.36676 1.34134 0
M  V30 6148 H 607.874 0.68517 3.85762 0
M  V30 6149 H 609.571 1.07648 3.86281 0
M  V30 6150 H 606.161 2.46507 3.50617 0
M  V30 6151 H 610.345 3.44343 3.57409 0
M  V30 6152 H 605.601 4.84864 3.72447 0
M  V30 6153 H 609.775 5.83269 3.80487 0
M  V30 6154 H 607.402 6.5397 3.87591 0
M  V30 6155 N 608.977 -1.30795 0.87923 0
M  V30 6156 C 610.224 -1.96362 0.494786 0
M  V30 6157 C 610.552 -1.69448 -0.954868 0
M  V30 6158 O 609.807 -0.988711 -1.68888 0
M  V30 6159 C 610.106 -3.50287 0.709476 0
M  V30 6160 C 609.772 -3.9724 2.13333 0
M  V30 6161 C 608.434 -4.09772 2.52271 0
M  V30 6162 C 610.786 -4.21807 3.06151 0
M  V30 6163 C 608.114 -4.44227 3.83248 0
M  V30 6164 C 610.466 -4.5773 4.36654 0
M  V30 6165 C 609.13 -4.68469 4.75492 0
M  V30 6166 H 608.4 -0.71854 0.181055 0
M  V30 6167 H 611.047 -1.55764 1.11399 0
M  V30 6168 H 609.352 -3.91799 0.0072 0
M  V30 6169 H 611.049 -3.99082 0.391703 0
M  V30 6170 H 607.639 -3.87988 1.82107 0
M  V30 6171 H 611.823 -4.11611 2.77291 0
M  V30 6172 H 607.079 -4.50741 4.13089 0
M  V30 6173 H 611.253 -4.7569 5.08617 0
M  V30 6174 H 608.88 -4.94923 5.77022 0
M  V30 6175 N 610.455 -0.639598 -1.44038 0
M  V30 6176 C 611.871 -0.305953 -1.5664 0
M  V30 6177 C 612.071 1.19055 -1.62567 0
M  V30 6178 O 611.127 1.97492 -1.57331 0
M  V30 6179 C 612.44 -1.00533 -2.83397 0
M  V30 6180 C 613.988 -0.984278 -2.97121 0
M  V30 6181 C 614.463 -1.66428 -4.26691 0
M  V30 6182 N 615.954 -1.63127 -4.33525 0
M  V30 6183 C 616.689 -2.12629 -5.32519 0
M  V30 6184 N 616.185 -2.70359 -6.3787 0
M  V30 6185 N 617.978 -2.03208 -5.24083 0
M  V30 6186 H 610.129 -1.6109 -1.38434 0
M  V30 6187 H 612.392 -0.676672 -0.663942 0
M  V30 6188 H 612.098 -2.06034 -2.85032 0
M  V30 6189 H 611.972 -0.548362 -3.73193 0
M  V30 6190 H 614.359 0.0622792 -2.95034 0
M  V30 6191 H 614.44 -1.47981 -2.08651 0
M  V30 6192 H 614.084 -2.71034 -4.29538 0
M  V30 6193 H 614.014 -1.14351 -5.14034 0
M  V30 6194 H 616.505 -1.20987 -3.58009 0
M  V30 6195 H 616.818 -3.05842 -7.09704 0
M  V30 6196 H 615.163 -2.74414 -6.38531 0
M  V30 6197 H 618.354 -1.57823 -4.40692 0
M  V30 6198 H 618.527 -2.42097 -6.01077 0
M  V30 6199 N 611.933 1.52934 -0.380664 0
M  V30 6200 C 612.883 2.22989 0.475399 0
M  V30 6201 C 613.867 1.23058 1.03661 0
M  V30 6202 O 615.059 1.48436 0.964146 0
M  V30 6203 C 612.188 3.0338 1.60671 0
M  V30 6204 C 611.274 4.107 1.05766 0
M  V30 6205 N 611.665 5.05264 0.232837 0
M  V30 6206 C 609.963 4.25676 1.33101 0
M  V30 6207 C 610.664 5.81658 -0.0695134 0
M  V30 6208 N 609.64 5.40989 0.532144 0
M  V30 6209 H 613.442 2.93456 -0.161418 0
M  V30 6210 H 610.956 1.61291 -0.189495 0
M  V30 6211 H 612.953 3.52098 2.23232 0
M  V30 6212 H 611.613 2.34446 2.24644 0
M  V30 6213 H 612.624 5.17739 -0.129204 0
M  V30 6214 H 609.301 3.6797 1.97241 0
M  V30 6215 H 610.691 6.67843 -0.737269 0
M  V30 6216 N 613.412 0.11024 1.57214 0
M  V30 6217 C 614.642 -0.557025 1.98949 0
M  V30 6218 C 615.05 -1.61317 0.988606 0
M  V30 6219 O 614.393 -1.83679 -0.0279159 0
M  V30 6220 C 614.455 -1.24956 3.37085 0
M  V30 6221 C 614.119 -0.342398 4.55716 0
M  V30 6222 C 615.116 0.415511 5.18237 0
M  V30 6223 C 612.801 -0.256029 5.01647 0
M  V30 6224 C 614.795 1.24761 6.25071 0
M  V30 6225 C 612.482 0.579713 6.08344 0
M  V30 6226 C 613.48 1.33017 6.69922 0
M  V30 6227 O 613.168 2.15205 7.74559 0
M  V30 6228 H 612.9 -0.152792 0.658506 0
M  V30 6229 H 615.454 0.19076 2.04512 0
M  V30 6230 H 613.684 -2.04424 3.2825 0
M  V30 6231 H 615.373 -1.81286 3.63167 0
M  V30 6232 H 616.139 0.358605 4.83672 0
M  V30 6233 H 612.018 -0.829831 4.5347 0
M  V30 6234 H 615.562 1.83386 6.73064 0
M  V30 6235 H 611.459 0.638044 6.42339 0
M  V30 6236 H 612.227 2.08052 7.91617 0
M  V30 6237 N 614.89 -1.56749 -0.16351 0
M  V30 6238 C 616.138 -1.82074 -0.87713 0
M  V30 6239 C 616.459 -0.688503 -1.82441 0
M  V30 6240 O 615.729 0.291085 -1.93725 0
M  V30 6241 H 614.309 -0.671677 -0.326893 0
M  V30 6242 H 616.971 -1.9423 -0.161459 0
M  V30 6243 H 616.067 -2.76407 -1.44934 0
M  V30 6244 N 616.368 0.432326 -1.51554 0
M  V30 6245 C 617.614 1.18309 -1.64714 0
M  V30 6246 C 617.947 1.90745 -0.364696 0
M  V30 6247 O 617.222 1.8381 0.635936 0
M  V30 6248 C 617.505 2.1961 -2.85383 0
M  V30 6249 C 617.358 1.51223 -4.23617 0
M  V30 6250 C 618.677 3.20538 -3.01569 0
M  V30 6251 H 615.796 0.428751 -0.599451 0
M  V30 6252 H 618.438 0.471689 -1.84052 0
M  V30 6253 H 616.588 2.8028 -2.69027 0
M  V30 6254 H 618.26 0.938516 -4.51652 0
M  V30 6255 H 616.503 0.814501 -4.26085 0
M  V30 6256 H 617.174 2.25024 -5.04052 0
M  V30 6257 H 619.65 2.69926 -3.16669 0
M  V30 6258 H 618.526 3.88706 -3.87555 0
M  V30 6259 H 618.787 3.86933 -2.13859 0
M  V30 6260 N 617.846 1.41785 0.688094 0
M  V30 6261 C 618.776 1.47 1.8142 0
M  V30 6262 C 619.757 0.327881 1.6691 0
M  V30 6263 O 620.942 0.540362 1.86531 0
M  V30 6264 C 618.072 1.35876 3.19617 0
M  V30 6265 C 617.026 2.47976 3.48844 0
M  V30 6266 C 616.352 2.21915 4.86475 0
M  V30 6267 C 617.652 3.90309 3.47068 0
M  V30 6268 H 619.346 2.41247 1.77314 0
M  V30 6269 H 616.892 1.16116 0.851651 0
M  V30 6270 H 618.845 1.38134 3.98117 0
M  V30 6271 H 617.569 0.38116 3.24368 0
M  V30 6272 H 616.228 2.45013 2.72698 0
M  V30 6273 H 615.876 1.2248 4.8786 0
M  V30 6274 H 615.576 2.97037 5.06994 0
M  V30 6275 H 617.1 2.25901 5.67275 0
M  V30 6276 H 618.514 3.94947 4.1556 0
M  V30 6277 H 616.911 4.65175 3.7912 0
M  V30 6278 H 617.981 4.17927 2.45896 0
M  V30 6279 N 619.324 -0.923095 1.27737 0
M  V30 6280 C 620.571 -1.67127 1.14345 0
M  V30 6281 C 620.899 -1.92017 -0.30982 0
M  V30 6282 O 620.154 -1.51185 -1.24264 0
M  V30 6283 C 620.453 -3.04125 1.8773 0
M  V30 6284 C 620.119 -2.98929 3.37568 0
M  V30 6285 C 618.781 -2.9722 3.78436 0
M  V30 6286 C 621.133 -2.89875 4.33154 0
M  V30 6287 C 618.461 -2.84244 5.13247 0
M  V30 6288 C 620.813 -2.7844 5.68026 0
M  V30 6289 C 619.477 -2.75083 6.08182 0
M  V30 6290 H 618.747 -0.611562 0.418417 0
M  V30 6291 H 621.394 -1.07618 1.584 0
M  V30 6292 H 619.699 -3.67366 1.36196 0
M  V30 6293 H 621.396 -3.609 1.74792 0
M  V30 6294 H 617.986 -3.0105 3.05069 0
M  V30 6295 H 622.17 -2.9029 4.02548 0
M  V30 6296 H 617.426 -2.80034 5.43499 0
M  V30 6297 H 621.6 -2.70401 6.4176 0
M  V30 6298 H 619.227 -2.64786 7.12596 0
M  V30 6299 N 620.802 -1.09834 -1.13024 0
M  V30 6300 C 621.765 -0.745058 -2.16752 0
M  V30 6301 C 622.765 0.227435 -1.59183 0
M  V30 6302 O 623.955 0.0050786 -1.74199 0
M  V30 6303 C 621.087 -0.102543 -3.40746 0
M  V30 6304 H 622.28 -1.66375 -2.49518 0
M  V30 6305 H 619.833 -0.898061 -1.27924 0
M  V30 6306 H 620.568 0.827177 -3.13573 0
M  V30 6307 H 620.353 -0.80235 -3.83803 0
M  V30 6308 H 621.843 0.129082 -4.174 0
M  V30 6309 N 622.28 1.30327 -0.886154 0
M  V30 6310 C 623.696 1.48676 -0.580323 0
M  V30 6311 C 623.896 1.81189 0.881639 0
M  V30 6312 O 622.952 1.90021 1.66278 0
M  V30 6313 C 624.265 2.60932 -1.49449 0
M  V30 6314 C 625.813 2.74812 -1.49824 0
M  V30 6315 C 626.288 3.90183 -2.39836 0
M  V30 6316 N 627.779 3.97495 -2.37806 0
M  V30 6317 C 628.514 4.86078 -3.04165 0
M  V30 6318 N 628.01 5.79448 -3.79753 0
M  V30 6319 N 629.803 4.79456 -2.93391 0
M  V30 6320 H 621.954 1.07495 -1.8319 0
M  V30 6321 H 624.217 0.532661 -0.784204 0
M  V30 6322 H 623.923 2.43731 -2.5355 0
M  V30 6323 H 623.797 3.57437 -1.20494 0
M  V30 6324 H 626.184 2.91418 -0.464731 0
M  V30 6325 H 626.265 1.78924 -1.82811 0
M  V30 6326 H 625.909 3.74334 -3.43273 0
M  V30 6327 H 625.839 4.85411 -2.04166 0
M  V30 6328 H 628.33 3.30703 -1.82877 0
M  V30 6329 H 628.643 6.43805 -4.27475 0
M  V30 6330 H 626.988 5.79376 -3.8386 0
M  V30 6331 H 630.179 4.05494 -2.33864 0
M  V30 6332 H 630.352 5.48283 -3.45383 0
M  V30 6333 N 623.758 0.647228 1.43697 0
M  V30 6334 C 624.721 -0.0385101 2.29168 0
M  V30 6335 C 625.721 -0.756487 1.41894 0
M  V30 6336 O 626.911 -0.598641 1.63591 0
M  V30 6337 C 624.043 -1.06524 3.23829 0
M  V30 6338 H 625.236 0.713445 2.9129 0
M  V30 6339 H 622.789 0.408153 1.50877 0
M  V30 6340 H 623.524 -1.84664 2.66589 0
M  V30 6341 H 623.309 -0.554147 3.88164 0
M  V30 6342 H 624.799 -1.54432 3.87996 0
M  V30 6343 N 625.236 -1.5273 0.388769 0
M  V30 6344 C 626.513 -1.93981 -0.251133 0
M  V30 6345 C 626.893 -1.32418 -1.64404 0
M  V30 6346 O 626.241 -0.492074 -2.23139 0
M  V30 6347 C 626.451 -3.47891 -0.27802 0
M  V30 6348 C 627.799 -4.21559 -0.507229 0
M  V30 6349 O 628.823 -3.54394 -0.358252 0
M  V30 6350 O 627.682 -5.40626 -0.799094 0
M  V30 6351 H 624.776 -0.812157 -0.15598 0
M  V30 6352 H 627.322 -1.63809 0.443237 0
M  V30 6353 H 626.094 -3.8503 0.697669 0
M  V30 6354 H 625.717 -3.84364 -1.01733 0
M  V30 6355 N 626.714 -0.118576 -1.57153 0
M  V30 6356 C 627.646 0.862247 -2.12363 0
M  V30 6357 C 628.659 1.23025 -1.06625 0
M  V30 6358 O 629.848 1.17927 -1.33998 0
M  V30 6359 C 626.948 2.16425 -2.60794 0
M  V30 6360 C 626.121 1.96801 -3.90626 0
M  V30 6361 C 625.18 3.10726 -4.2466 0
M  V30 6362 O 624.206 2.83659 -4.93484 0
M  V30 6363 N 625.408 4.37147 -3.81946 0
M  V30 6364 H 628.173 0.390564 -2.97144 0
M  V30 6365 H 625.734 0.0658591 -1.61766 0
M  V30 6366 H 627.726 2.91633 -2.80593 0
M  V30 6367 H 626.296 2.54943 -1.80895 0
M  V30 6368 H 625.516 1.05787 -3.7974 0
M  V30 6369 H 626.804 1.80993 -4.7552 0
M  V30 6370 H 626.202 4.62014 -3.26435 0
M  V30 6371 H 624.759 5.09229 -4.06853 0
M  V30 6372 N 628.193 1.56834 0.155195 0
M  V30 6373 C 629.604 1.72421 0.716082 0
M  V30 6374 C 629.955 0.731685 1.82046 0
M  V30 6375 O 629.08 -0.103481 2.16152 0
M  V30 6376 C 629.675 3.12629 1.30571 0
M  V30 6377 C 628.234 3.29846 1.81325 0
M  V30 6378 C 627.381 2.68359 0.698494 0
M  V30 6379 H 630.332 1.58544 -0.0703861 0
M  V30 6380 H 630.353 3.12174 2.1755 0
M  V30 6381 H 629.865 3.84844 0.501701 0
M  V30 6382 H 627.966 2.62614 2.64319 0
M  V30 6383 H 628.079 4.37727 1.9476 0
M  V30 6384 H 626.443 2.28604 1.12305 0
M  V30 6385 H 627.226 3.43171 -0.0939366 0
M  V30 6386 N 629.671 -0.424282 1.51781 0
M  V30 6387 C 630.918 -1.1726 1.65095 0
M  V30 6388 C 631.246 -1.90881 0.373477 0
M  V30 6389 O 630.501 -1.84835 -0.642997 0
M  V30 6390 C 630.8 -2.20418 2.81337 0
M  V30 6391 C 630.466 -1.63715 4.20129 0
M  V30 6392 C 629.128 -1.47975 4.57883 0
M  V30 6393 C 631.48 -1.22157 5.06682 0
M  V30 6394 C 628.808 -0.891703 5.79884 0
M  V30 6395 C 631.16 -0.647767 6.29275 0
M  V30 6396 C 629.824 -0.477371 6.65791 0
M  V30 6397 H 629.094 -0.429085 0.604125 0
M  V30 6398 H 631.741 -0.461852 1.85847 0
M  V30 6399 H 630.046 -2.97581 2.54859 0
M  V30 6400 H 631.743 -2.78163 2.88836 0
M  V30 6401 H 628.333 -1.76946 3.90369 0
M  V30 6402 H 632.517 -1.33133 4.7811 0
M  V30 6403 H 627.773 -0.747563 6.06813 0
M  V30 6404 H 631.947 -0.317291 6.95677 0
M  V30 6405 H 629.574 -0.0195936 7.60197 0
M  V30 6406 N 631.149 -1.42148 -0.680565 0
M  V30 6407 C 632.397 -1.42029 -1.43779 0
M  V30 6408 C 632.718 -0.0356347 -1.94967 0
M  V30 6409 O 631.988 0.924936 -1.7269 0
M  V30 6410 H 630.568 -0.522835 -0.533529 0
M  V30 6411 H 633.23 -1.7752 -0.804538 0
M  V30 6412 H 632.326 -2.11658 -2.29363 0
M  V30 6413 N 632.627 0.916307 -1.28225 0
M  V30 6414 C 633.874 1.66518 -1.1523 0
M  V30 6415 C 634.202 1.92178 0.299632 0
M  V30 6416 O 633.457 1.51842 1.2346 0
M  V30 6417 C 633.756 3.03125 -1.8934 0
M  V30 6418 C 633.422 2.97135 -3.39148 0
M  V30 6419 C 632.084 2.95208 -3.80007 0
M  V30 6420 C 634.436 2.87574 -4.34685 0
M  V30 6421 C 631.764 2.81518 -5.14747 0
M  V30 6422 C 634.116 2.75424 -5.69495 0
M  V30 6423 C 632.78 2.71854 -6.09632 0
M  V30 6424 H 632.05 0.609334 -0.421655 0
M  V30 6425 H 634.697 1.06776 -1.58969 0
M  V30 6426 H 633.002 3.66639 -1.38143 0
M  V30 6427 H 634.699 3.59968 -1.76704 0
M  V30 6428 H 631.289 2.99428 -3.06661 0
M  V30 6429 H 635.473 2.88152 -4.04082 0
M  V30 6430 H 630.729 2.77148 -5.44976 0
M  V30 6431 H 634.903 2.66993 -6.43185 0
M  V30 6432 H 632.53 2.61003 -7.1399 0
M  V30 6433 N 634.105 1.10431 1.1244 0
M  V30 6434 C 635.035 0.775143 2.20258 0
M  V30 6435 C 636.016 -0.25186 1.68225 0
M  V30 6436 O 637.201 -0.117637 1.93843 0
M  V30 6437 C 634.331 0.206133 3.46688 0
M  V30 6438 C 633.285 1.16382 4.11873 0
M  V30 6439 C 632.611 0.456014 5.32752 0
M  V30 6440 C 633.911 2.5104 4.58013 0
M  V30 6441 H 635.605 1.67665 2.4805 0
M  V30 6442 H 633.151 0.807595 1.19222 0
M  V30 6443 H 635.104 -0.036291 4.21384 0
M  V30 6444 H 633.828 -0.730614 3.18323 0
M  V30 6445 H 632.487 1.39169 3.39157 0
M  V30 6446 H 632.135 -0.485203 5.00654 0
M  V30 6447 H 631.835 1.09466 5.77314 0
M  V30 6448 H 633.359 0.222135 6.10196 0
M  V30 6449 H 634.773 2.32401 5.24083 0
M  V30 6450 H 633.17 3.10789 5.13352 0
M  V30 6451 H 634.24 3.11039 3.71998 0
M  V30 6452 N 635.583 -1.29855 0.893053 0
M  V30 6453 C 636.811 -1.99976 0.530788 0
M  V30 6454 C 637.226 -1.66889 -0.882799 0
M  V30 6455 O 636.583 -0.910352 -1.58173 0
M  V30 6456 C 636.634 -3.54547 0.705587 0
M  V30 6457 O 636.355 -3.86458 2.06353 0
M  V30 6458 C 637.856 -4.41937 0.347387 0
M  V30 6459 H 635.076 -0.639129 0.204339 0
M  V30 6460 H 637.62 -1.65549 1.20057 0
M  V30 6461 H 635.775 -3.87311 0.0830685 0
M  V30 6462 H 636.189 -4.81146 2.08803 0
M  V30 6463 H 637.663 -5.4954 0.520557 0
M  V30 6464 H 638.14 -4.33339 -0.715139 0
M  V30 6465 H 638.746 -4.14633 0.946567 0
M  V30 6466 N 637.061 -0.65484 -1.43351 0
M  V30 6467 C 638.286 -0.175046 -2.0666 0
M  V30 6468 C 638.711 1.15104 -1.4877 0
M  V30 6469 O 638.069 1.71144 -0.598279 0
M  V30 6470 C 638.117 -0.0991544 -3.60464 0
M  V30 6471 O 637.221 0.938169 -4.01587 0
M  V30 6472 H 636.562 -0.0956148 -0.65708 0
M  V30 6473 H 639.092 -0.898222 -1.83829 0
M  V30 6474 H 639.102 0.083632 -4.07914 0
M  V30 6475 H 637.777 -1.06719 -4.01975 0
M  V30 6476 H 636.354 0.72804 -3.65724 0
M  V30 6477 N 638.539 1.52521 -0.396863 0
M  V30 6478 C 639.502 2.2527 0.422604 0
M  V30 6479 C 640.502 1.27184 0.983913 0
M  V30 6480 O 641.692 1.51222 0.864723 0
M  V30 6481 C 638.824 3.01356 1.59365 0
M  V30 6482 H 640.017 2.99133 -0.214416 0
M  V30 6483 H 637.57 1.55587 -0.149128 0
M  V30 6484 H 638.305 2.31813 2.26789 0
M  V30 6485 H 638.09 3.73357 1.19779 0
M  V30 6486 H 639.58 3.56571 2.17363 0
M  V30 6487 N 640.017 0.126909 1.57088 0
M  V30 6488 C 641.265 -0.528123 1.95078 0
M  V30 6489 C 641.586 -1.66708 1.0116 0
M  V30 6490 O 640.856 -1.95777 0.0693527 0
M  V30 6491 H 639.436 -0.198087 0.720257 0
M  V30 6492 H 642.098 0.197703 1.93895 0
M  V30 6493 H 641.194 -0.917507 2.98309 0
M  V30 6494 N 641.495 -1.56914 -0.146875 0
M  V30 6495 C 642.735 -1.85163 -0.86568 0
M  V30 6496 C 643.099 -0.711215 -1.78342 0
M  V30 6497 O 644.3 -0.874754 -2.54168 0
M  V30 6498 C 642.571 -3.18593 -1.61967 0
M  V30 6499 S 644.13 -3.68397 -2.38388 0
M  V30 6500 H 640.948 -0.6494 -0.289483 0
M  V30 6501 H 643.55 -1.95096 -0.125679 0
M  V30 6502 H 642.254 -3.99562 -0.93694 0
M  V30 6503 H 641.785 -3.11666 -2.40058 0
M  V30 6504 H 643.8 -3.37672 -3.63582 0
M  V30 6505 N 642.974 0.416227 -1.52004 0
M  V30 6506 C 644.199 1.19029 -1.69843 0
M  V30 6507 C 644.624 1.83708 -0.404103 0
M  V30 6508 O 643.982 1.69711 0.637787 0
M  V30 6509 C 644.03 2.23439 -2.83032 0
M  V30 6510 O 643.134 3.29419 -2.48106 0
M  V30 6511 H 642.475 0.347785 -0.565634 0
M  V30 6512 H 645.005 0.488871 -1.98674 0
M  V30 6513 H 645.015 2.67884 -3.07737 0
M  V30 6514 H 643.69 1.75745 -3.76944 0
M  V30 6515 H 642.267 2.90303 -2.34048 0
M  V30 6516 N 644.452 1.42507 0.673017 0
M  V30 6517 C 645.677 1.4668 1.46627 0
M  V30 6518 C 646.102 0.080066 1.8793 0
M  V30 6519 O 645.46 -0.921879 1.56112 0
M  V30 6520 C 645.508 2.40091 2.69051 0
M  V30 6521 O 644.612 1.8735 3.67387 0
M  V30 6522 H 643.953 0.496908 0.44043 0
M  V30 6523 H 646.483 1.87215 0.825334 0
M  V30 6524 H 646.493 2.56731 3.17101 0
M  V30 6525 H 645.168 3.4084 2.3833 0
M  V30 6526 H 643.745 1.80274 3.26429 0
M  V30 6527 N 645.93 -0.909495 1.28709 0
M  V30 6528 C 647.177 -1.65905 1.16111 0
M  V30 6529 C 647.505 -1.92334 -0.289436 0
M  V30 6530 O 646.76 -1.52495 -1.22653 0
M  V30 6531 C 647.059 -3.02117 1.90945 0
M  V30 6532 C 646.725 -2.95332 3.40719 0
M  V30 6533 C 645.387 -2.93189 3.81567 0
M  V30 6534 C 647.739 -2.85264 4.36204 0
M  V30 6535 C 645.067 -2.78784 5.16233 0
M  V30 6536 C 647.419 -2.724 5.70948 0
M  V30 6537 C 646.083 -2.68617 6.11066 0
M  V30 6538 H 645.353 -0.60709 0.42488 0
M  V30 6539 H 648 -1.05932 1.59533 0
M  V30 6540 H 646.305 -3.65901 1.40085 0
M  V30 6541 H 648.002 -3.59026 1.7861 0
M  V30 6542 H 644.592 -2.97797 3.08245 0
M  V30 6543 H 648.776 -2.86005 4.05605 0
M  V30 6544 H 644.032 -2.74254 5.46438 0
M  V30 6545 H 648.206 -2.63579 6.44592 0
M  V30 6546 H 645.833 -2.57213 7.15364 0
M  V30 6547 N 647.408 -1.11026 -1.11852 0
M  V30 6548 C 648.656 -0.854769 -1.83134 0
M  V30 6549 C 648.977 0.621375 -1.84835 0
M  V30 6550 O 648.247 1.45129 -1.31584 0
M  V30 6551 H 646.827 -0.313229 -0.678157 0
M  V30 6552 H 649.489 -1.40178 -1.35411 0
M  V30 6553 H 648.585 -1.22311 -2.87135 0
M  V30 6554 N 648.886 1.2938 -0.899927 0
M  V30 6555 C 650.116 1.99402 -0.540601 0
M  V30 6556 C 650.524 1.67534 0.87914 0
M  V30 6557 O 649.867 0.916821 1.59186 0
M  V30 6558 C 649.929 3.53514 -0.653326 0
M  V30 6559 C 649.593 4.08937 -2.04009 0
M  V30 6560 C 650.59 4.23815 -3.01126 0
M  V30 6561 C 648.275 4.43962 -2.34953 0
M  V30 6562 C 650.269 4.72951 -4.27313 0
M  V30 6563 C 647.956 4.92795 -3.61382 0
M  V30 6564 C 648.954 5.07244 -4.57376 0
M  V30 6565 O 648.642 5.55017 -5.8156 0
M  V30 6566 H 648.374 0.64383 -0.206057 0
M  V30 6567 H 650.928 1.65878 -1.21134 0
M  V30 6568 H 649.158 3.86628 0.0744449 0
M  V30 6569 H 650.847 4.04767 -0.303118 0
M  V30 6570 H 651.613 3.97043 -2.78535 0
M  V30 6571 H 647.492 4.31974 -1.60994 0
M  V30 6572 H 651.036 4.84144 -5.02245 0
M  V30 6573 H 646.933 5.19004 -3.83804 0
M  V30 6574 H 647.701 5.73331 -5.84153 0
M  V30 6575 N 650.364 0.662433 1.43002 0
M  V30 6576 C 651.612 0.179237 2.01304 0
M  V30 6577 C 651.933 -1.21428 1.52579 0
M  V30 6578 O 651.203 -1.81294 0.742252 0
M  V30 6579 H 649.783 0.0632725 0.744316 0
M  V30 6580 H 652.445 0.856169 1.75088 0
M  V30 6581 H 651.541 0.170957 3.11631 0
M  V30 6582 N 651.842 -1.52309 0.404946 0
M  V30 6583 C 653.091 -2.00952 -0.173529 0
M  V30 6584 C 653.404 -1.29512 -1.46581 0
M  V30 6585 O 654.61 -1.6895 -2.12528 0
M  V30 6586 C 653.066 -3.58097 -0.359801 0
M  V30 6587 C 652.674 -4.38449 0.920138 0
M  V30 6588 C 654.418 -4.14984 -0.893794 0
M  V30 6589 C 652.325 -5.87227 0.701285 0
M  V30 6590 H 651.255 -0.750871 -0.0686244 0
M  V30 6591 H 653.906 -1.75687 0.529749 0
M  V30 6592 H 652.288 -3.79675 -1.12531 0
M  V30 6593 H 653.462 -4.28633 1.69147 0
M  V30 6594 H 651.777 -3.92859 1.38024 0
M  V30 6595 H 654.374 -5.23813 -1.0735 0
M  V30 6596 H 654.717 -3.72072 -1.8673 0
M  V30 6597 H 655.25 -3.97358 -0.187453 0
M  V30 6598 H 651.989 -6.34491 1.64624 0
M  V30 6599 H 651.509 -5.99792 -0.0308288 0
M  V30 6600 H 653.188 -6.46096 0.341846 0
M  V30 6601 N 653.32 -0.135238 -1.57019 0
M  V30 6602 C 654.731 0.387521 -1.82634 0
M  V30 6603 C 655.082 1.65528 -1.05332 0
M  V30 6604 O 654.207 2.14381 -0.294926 0
M  V30 6605 C 654.802 0.709852 -3.3128 0
M  V30 6606 C 653.361 1.17718 -3.57518 0
M  V30 6607 C 652.508 0.194183 -2.76619 0
M  V30 6608 H 655.459 -0.360126 -1.5456 0
M  V30 6609 H 655.48 1.5657 -3.46794 0
M  V30 6610 H 654.992 -0.213024 -3.87515 0
M  V30 6611 H 653.093 2.1164 -3.06658 0
M  V30 6612 H 653.206 1.11128 -4.66034 0
M  V30 6613 H 651.57 0.684478 -2.4533 0
M  V30 6614 H 652.353 -0.722076 -3.3562 0
M  V30 6615 N 654.798 1.5699 0.138552 0
M  V30 6616 C 655.761 1.97984 1.15478 0
M  V30 6617 C 656.761 0.867416 1.35398 0
M  V30 6618 O 657.951 1.13387 1.32246 0
M  V30 6619 C 655.083 2.3031 2.51337 0
M  V30 6620 H 656.276 2.88953 0.802896 0
M  V30 6621 H 653.829 1.51555 0.382189 0
M  V30 6622 H 654.564 1.42159 2.91481 0
M  V30 6623 H 654.349 3.11425 2.38237 0
M  V30 6624 H 655.839 2.62834 3.24512 0
M  V30 6625 N 656.276 -0.40816 1.52223 0
M  V30 6626 C 657.239 -1.48 1.7501 0
M  V30 6627 C 658.239 -1.48367 0.619996 0
M  V30 6628 O 659.429 -1.49874 0.887881 0
M  V30 6629 C 656.561 -2.87403 1.83336 0
M  V30 6630 H 657.754 -1.29086 2.70697 0
M  V30 6631 H 655.307 -0.638715 1.42654 0
M  V30 6632 H 656.042 -3.11686 0.895677 0
M  V30 6633 H 655.827 -2.8854 2.65494 0
M  V30 6634 H 657.317 -3.65103 2.02705 0
M  V30 6635 N 657.755 -1.42862 -0.66545 0
M  V30 6636 C 659.004 -1.43119 -1.42126 0
M  V30 6637 C 659.317 -0.0545297 -1.95524 0
M  V30 6638 O 660.523 0.0654747 -2.71421 0
M  V30 6639 C 658.979 -2.51797 -2.5715 0
M  V30 6640 C 658.587 -3.95514 -2.10411 0
M  V30 6641 C 660.331 -2.61233 -3.346 0
M  V30 6642 C 658.238 -4.95682 -3.22573 0
M  V30 6643 H 657.168 -0.532349 -0.533966 0
M  V30 6644 H 659.819 -1.68806 -0.719506 0
M  V30 6645 H 658.201 -2.19292 -3.29738 0
M  V30 6646 H 659.375 -4.3742 -1.44915 0
M  V30 6647 H 657.69 -3.90012 -1.45874 0
M  V30 6648 H 660.287 -3.33248 -4.18151 0
M  V30 6649 H 660.63 -1.65896 -3.81817 0
M  V30 6650 H 661.163 -2.9298 -2.69087 0
M  V30 6651 H 657.902 -5.92529 -2.80338 0
M  V30 6652 H 657.422 -4.58399 -3.86821 0
M  V30 6653 H 659.101 -5.17828 -3.87896 0
M  V30 6654 N 659.233 0.902656 -1.29189 0
M  V30 6655 C 660.481 1.6496 -1.16758 0
M  V30 6656 C 660.802 1.92952 0.28188 0
M  V30 6657 O 660.072 1.55351 1.19344 0
M  V30 6658 H 658.652 0.611447 -0.429118 0
M  V30 6659 H 661.314 1.0825 -1.62074 0
M  V30 6660 H 660.41 2.60728 -1.71544 0
M  V30 6661 N 660.711 1.11618 1.11262 0
M  V30 6662 C 661.674 0.779447 2.15539 0
M  V30 6663 C 662.674 -0.202081 1.59525 0
M  V30 6664 O 663.864 0.0226356 1.74185 0
M  V30 6665 C 660.996 0.15674 3.40539 0
M  V30 6666 H 662.189 1.70324 2.4684 0
M  V30 6667 H 659.742 0.918298 1.26479 0
M  V30 6668 H 660.477 -0.777186 3.1485 0
M  V30 6669 H 660.262 0.863308 3.82478 0
M  V30 6670 H 661.752 -0.062661 4.17553 0
M  V30 6671 N 662.189 -1.289 0.906776 0
M  V30 6672 C 663.121 -2.26556 0.347159 0
M  V30 6673 C 664.134 -1.54589 -0.51049 0
M  V30 6674 O 665.323 -1.75489 -0.326501 0
M  V30 6675 C 662.423 -3.3484 -0.523024 0
M  V30 6676 C 661.596 -4.36296 0.310515 0
M  V30 6677 C 660.655 -5.23879 -0.493634 0
M  V30 6678 O 659.681 -5.69127 0.0913569 0
M  V30 6679 N 660.883 -5.51946 -1.7982 0
M  V30 6680 H 663.648 -2.75212 1.18652 0
M  V30 6681 H 661.209 -1.42309 0.771996 0
M  V30 6682 H 663.201 -3.90366 -1.06756 0
M  V30 6683 H 661.771 -2.85946 -1.26309 0
M  V30 6684 H 660.991 -3.80331 1.03644 0
M  V30 6685 H 662.279 -5.01113 0.881106 0
M  V30 6686 H 661.677 -5.17006 -2.2961 0
M  V30 6687 H 660.234 -6.10258 -2.28971 0
M  V30 6688 N 663.667 -0.670007 -1.42649 0
M  V30 6689 C 664.6 0.0613623 -2.28117 0
M  V30 6690 C 665.578 0.813414 -1.40792 0
M  V30 6691 O 666.762 0.809529 -1.70232 0
M  V30 6692 C 663.889 1.09399 -3.20546 0
M  V30 6693 C 662.935 0.438064 -4.24244 0
M  V30 6694 S 663.768 -0.800808 -5.29478 0
M  V30 6695 C 664.924 0.23086 -6.25474 0
M  V30 6696 H 665.157 -0.663606 -2.89799 0
M  V30 6697 H 662.69 -0.45939 -1.47407 0
M  V30 6698 H 664.648 1.68469 -3.74337 0
M  V30 6699 H 663.309 1.79137 -2.58009 0
M  V30 6700 H 662.502 1.21707 -4.89084 0
M  V30 6701 H 662.104 -0.0789346 -3.73917 0
M  V30 6702 H 664.396 1.09204 -6.68641 0
M  V30 6703 H 665.339 -0.382945 -7.07064 0
M  V30 6704 H 665.747 0.574191 -5.61572 0
M  V30 6705 N 665.145 1.52092 -0.413018 0
M  V30 6706 C 666.108 2.25706 0.398687 0
M  V30 6707 C 667.108 1.28221 0.970368 0
M  V30 6708 O 668.298 1.52131 0.848635 0
M  V30 6709 C 665.43 3.03029 1.5616 0
M  V30 6710 H 666.623 2.98888 -0.246131 0
M  V30 6711 H 664.176 1.5542 -0.165622 0
M  V30 6712 H 664.911 2.34205 2.24317 0
M  V30 6713 H 664.696 3.74606 1.15812 0
M  V30 6714 H 666.186 3.58857 2.13569 0
M  V30 6715 N 666.623 0.143563 1.56945 0
M  V30 6716 C 668.039 -0.212877 1.58174 0
M  V30 6717 C 668.239 -1.64926 1.15766 0
M  V30 6718 O 667.295 -2.37535 0.856361 0
M  V30 6719 C 668.608 0.0427573 3.0067 0
M  V30 6720 C 670.156 -0.0212221 3.12993 0
M  V30 6721 C 670.631 0.207036 4.57532 0
M  V30 6722 N 672.122 0.153845 4.62944 0
M  V30 6723 C 672.857 0.305018 5.72588 0
M  V30 6724 N 672.353 0.513722 6.90893 0
M  V30 6725 N 674.146 0.242862 5.61575 0
M  V30 6726 H 666.297 1.08148 1.82805 0
M  V30 6727 H 668.56 0.427831 0.84597 0
M  V30 6728 H 668.266 1.03672 3.36073 0
M  V30 6729 H 668.14 -0.678195 3.71053 0
M  V30 6730 H 670.527 -1.00574 2.77433 0
M  V30 6731 H 670.608 0.732004 2.45103 0
M  V30 6732 H 670.252 1.18863 4.93795 0
M  V30 6733 H 670.182 -0.566473 5.23544 0
M  V30 6734 H 672.673 -0.00294866 3.779 0
M  V30 6735 H 672.986 0.619273 7.70315 0
M  V30 6736 H 671.331 0.550001 6.9282 0
M  V30 6737 H 674.522 0.0806015 4.68031 0
M  V30 6738 H 674.695 0.364112 6.46976 0
M  V30 6739 N 668.101 -1.57061 -0.130224 0
M  V30 6740 C 669.512 -1.73539 -0.68856 0
M  V30 6741 C 669.863 -0.760554 -1.80859 0
M  V30 6742 O 668.988 0.0690796 -2.1629 0
M  V30 6743 C 669.583 -3.14666 -1.25581 0
M  V30 6744 C 668.142 -3.32689 -1.76055 0
M  V30 6745 C 667.289 -2.69436 -0.655712 0
M  V30 6746 H 670.24 -1.58412 0.0956002 0
M  V30 6747 H 670.261 -3.15595 -2.12556 0
M  V30 6748 H 669.773 -3.85593 -0.440412 0
M  V30 6749 H 667.874 -2.66786 -2.60108 0
M  V30 6750 H 667.987 -4.4077 -1.87772 0
M  V30 6751 H 666.351 -2.30362 -1.08654 0
M  V30 6752 H 667.134 -3.42979 0.14852 0
M  V30 6753 N 669.579 0.400081 -1.52437 0
M  V30 6754 C 670.856 1.15973 -1.57511 0
M  V30 6755 C 671.236 2.0798 -0.361572 0
M  V30 6756 O 670.584 2.19032 0.650929 0
M  V30 6757 C 670.794 1.92912 -2.90837 0
M  V30 6758 C 672.142 2.48662 -3.44169 0
M  V30 6759 O 673.166 2.03081 -2.92637 0
M  V30 6760 O 672.025 3.31894 -4.34176 0
M  V30 6761 H 669.119 0.530023 -0.634827 0
M  V30 6762 H 671.665 0.40613 -1.64769 0
M  V30 6763 H 670.437 1.25564 -3.70607 0
M  V30 6764 H 670.06 2.75257 -2.86913 0
M  V30 6765 N 671.057 1.43213 0.657864 0
M  V30 6766 C 671.989 1.43974 1.78337 0
M  V30 6767 C 673.002 0.336482 1.59285 0
M  V30 6768 O 674.191 0.600631 1.68091 0
M  V30 6769 C 671.291 1.23242 3.15697 0
M  V30 6770 C 670.464 2.46319 3.61449 0
M  V30 6771 C 669.523 2.2088 4.77597 0
M  V30 6772 O 668.549 2.942 4.87273 0
M  V30 6773 N 669.751 1.22251 5.67481 0
M  V30 6774 H 672.516 2.40993 1.78164 0
M  V30 6775 H 670.077 1.3831 0.841549 0
M  V30 6776 H 672.069 1.04113 3.91079 0
M  V30 6777 H 670.639 0.346849 3.1067 0
M  V30 6778 H 669.859 2.80904 2.76563 0
M  V30 6779 H 671.147 3.28239 3.88763 0
M  V30 6780 H 670.545 0.616433 5.62331 0
M  V30 6781 H 669.102 1.09107 6.42603 0
M  V30 6782 N 672.536 -0.895792 1.29666 0
M  V30 6783 C 673.947 -1.46195 1.1612 0
M  V30 6784 C 674.298 -1.94699 -0.242195 0
M  V30 6785 O 673.423 -1.8406 -1.13802 0
M  V30 6786 C 674.018 -2.65718 2.10189 0
M  V30 6787 C 672.577 -3.18458 2.00653 0
M  V30 6788 C 671.724 -1.91149 2.00891 0
M  V30 6789 H 674.675 -0.706756 1.42094 0
M  V30 6790 H 674.696 -3.4158 1.6764 0
M  V30 6791 H 674.208 -2.30386 3.12321 0
M  V30 6792 H 672.309 -3.58474 1.01623 0
M  V30 6793 H 672.422 -3.82491 2.88509 0
M  V30 6794 H 670.786 -2.09021 1.45542 0
M  V30 6795 H 671.569 -1.58089 3.04734 0
M  V30 6796 N 674.014 -1.12206 -1.10668 0
M  V30 6797 C 675.242 -0.898635 -1.86366 0
M  V30 6798 C 675.657 0.551991 -1.80551 0
M  V30 6799 O 675.014 1.38152 -1.19249 0
M  V30 6800 C 675.065 -1.36199 -3.34861 0
M  V30 6801 O 674.786 -2.75576 -3.40573 0
M  V30 6802 C 676.287 -1.17515 -4.2744 0
M  V30 6803 H 673.507 -0.321281 -0.589084 0
M  V30 6804 H 676.051 -1.49142 -1.39918 0
M  V30 6805 H 674.206 -0.81249 -3.78784 0
M  V30 6806 H 674.62 -2.95851 -4.33096 0
M  V30 6807 H 676.094 -1.54827 -5.29842 0
M  V30 6808 H 676.571 -0.115486 -4.39048 0
M  V30 6809 H 677.177 -1.71203 -3.89319 0
M  V30 6810 N 675.492 1.28418 -0.913599 0
M  V30 6811 C 676.739 1.94981 -0.546674 0
M  V30 6812 C 677.067 1.7192 0.909606 0
M  V30 6813 O 676.322 1.03314 1.66207 0
M  V30 6814 C 676.621 3.48283 -0.802099 0
M  V30 6815 C 676.287 3.91444 -2.2379 0
M  V30 6816 C 674.949 4.02939 -2.63046 0
M  V30 6817 C 677.301 4.13542 -3.17227 0
M  V30 6818 C 674.629 4.3391 -3.94891 0
M  V30 6819 C 676.981 4.45992 -4.48636 0
M  V30 6820 C 675.645 4.55698 -4.87746 0
M  V30 6821 H 674.915 0.713487 -0.200042 0
M  V30 6822 H 677.562 1.52756 -1.15489 0
M  V30 6823 H 675.867 3.91643 -0.111076 0
M  V30 6824 H 677.564 3.97903 -0.497375 0
M  V30 6825 H 674.154 3.83024 -1.9233 0
M  V30 6826 H 678.338 4.04114 -2.88107 0
M  V30 6827 H 673.594 4.39631 -4.24894 0
M  V30 6828 H 677.768 4.62038 -5.21051 0
M  V30 6829 H 675.395 4.79451 -5.89942 0
M  V30 6830 N 676.97 0.677563 1.42291 0
M  V30 6831 C 677.9 0.014968 2.33495 0
M  V30 6832 C 678.881 -0.786376 1.50831 0
M  V30 6833 O 680.066 -0.742975 1.79426 0
M  V30 6834 C 677.196 -0.935023 3.34477 0
M  V30 6835 C 676.15 -0.242074 4.27315 0
M  V30 6836 C 675.476 -1.30519 5.18526 0
M  V30 6837 C 676.776 0.880604 5.14823 0
M  V30 6838 H 678.47 0.776671 2.89151 0
M  V30 6839 H 676.016 0.37494 1.39033 0
M  V30 6840 H 677.969 -1.40766 3.97194 0
M  V30 6841 H 676.693 -1.72818 2.77131 0
M  V30 6842 H 675.352 0.210351 3.65996 0
M  V30 6843 H 675 -2.09041 4.57505 0
M  V30 6844 H 674.7 -0.846652 5.81468 0
M  V30 6845 H 676.224 -1.7787 5.84119 0
M  V30 6846 H 677.638 0.489062 5.7121 0
M  V30 6847 H 676.035 1.26511 5.86613 0
M  V30 6848 H 677.105 1.72818 4.53059 0
M  V30 6849 N 678.448 -1.51871 0.421078 0
M  V30 6850 C 679.697 -2.01125 -0.152206 0
M  V30 6851 C 680.01 -1.3106 -1.45199 0
M  V30 6852 O 681.216 -1.71195 -2.10724 0
M  V30 6853 C 679.672 -3.58458 -0.3218 0
M  V30 6854 C 679.28 -4.37448 0.96659 0
M  V30 6855 C 681.024 -4.15908 -0.84973 0
M  V30 6856 C 678.931 -5.86451 0.763529 0
M  V30 6857 H 677.861 -0.751556 -0.0606565 0
M  V30 6858 H 680.512 -1.75115 0.548354 0
M  V30 6859 H 678.894 -3.80847 -1.08498 0
M  V30 6860 H 680.068 -4.26814 1.73684 0
M  V30 6861 H 678.383 -3.91373 1.42183 0
M  V30 6862 H 680.98 -5.24922 -1.01788 0
M  V30 6863 H 681.323 -3.74031 -1.82774 0
M  V30 6864 H 681.856 -3.97535 -0.145297 0
M  V30 6865 H 678.595 -6.3271 1.71344 0
M  V30 6866 H 678.115 -5.99791 0.0327889 0
M  V30 6867 H 679.794 -6.45697 0.410354 0
M  V30 6868 N 679.926 -0.151884 -1.56866 0
M  V30 6869 C 680.889 0.771861 -2.15812 0
M  V30 6870 C 681.889 1.17181 -1.10115 0
M  V30 6871 O 683.079 1.09194 -1.35729 0
M  V30 6872 C 680.211 2.04806 -2.7252 0
M  V30 6873 H 681.404 0.259021 -2.98779 0
M  V30 6874 H 678.957 0.097588 -1.55995 0
M  V30 6875 H 679.692 2.60445 -1.93233 0
M  V30 6876 H 679.477 1.77044 -3.49854 0
M  V30 6877 H 680.967 2.70771 -3.1792 0
M  V30 6878 N 681.404 1.57128 0.121893 0
M  V30 6879 C 682.652 1.84335 0.828548 0
M  V30 6880 C 682.973 0.736632 1.80551 0
M  V30 6881 O 682.243 -0.23962 1.94429 0
M  V30 6882 H 680.823 0.680108 0.30897 0
M  V30 6883 H 683.485 1.9459 0.109906 0
M  V30 6884 H 682.581 2.80152 1.37554 0
M  V30 6885 N 682.882 -0.391992 1.52647 0
M  V30 6886 C 684.159 -1.15136 1.58123 0
M  V30 6887 C 684.539 -2.07786 0.372597 0
M  V30 6888 O 683.887 -2.19374 -0.639304 0
M  V30 6889 C 684.097 -1.91367 2.91856 0
M  V30 6890 C 685.445 -2.46833 3.45483 0
M  V30 6891 O 686.469 -2.01527 2.9371 0
M  V30 6892 O 685.328 -3.29587 4.3593 0
M  V30 6893 H 682.422 -0.526649 0.637629 0
M  V30 6894 H 684.968 -0.397386 1.64982 0
M  V30 6895 H 683.74 -1.23597 3.71268 0
M  V30 6896 H 683.363 -2.73732 2.88369 0
M  V30 6897 N 684.36 -1.4356 -0.65026 0
M  V30 6898 C 685.608 -1.45046 -1.40734 0
M  V30 6899 C 685.929 -0.0769822 -1.94848 0
M  V30 6900 O 685.199 0.888098 -1.74613 0
M  V30 6901 H 683.779 -0.534034 -0.522318 0
M  V30 6902 H 686.441 -1.79186 -0.766703 0
M  V30 6903 H 685.537 -2.16476 -2.24822 0
M  V30 6904 N 685.838 0.888903 -1.30139 0
M  V30 6905 C 687.086 1.63713 -1.18501 0
M  V30 6906 C 687.407 1.9324 0.261399 0
M  V30 6907 O 686.677 1.56608 1.17689 0
M  V30 6908 H 685.257 0.606861 -0.435579 0
M  V30 6909 H 687.919 1.06525 -1.63213 0
M  V30 6910 H 687.015 2.58894 -1.743 0
M  V30 6911 N 687.317 1.12792 1.10072 0
M  V30 6912 C 688.564 0.885545 1.82111 0
M  V30 6913 C 688.892 -0.588519 1.85383 0
M  V30 6914 O 688.147 -1.45124 1.31292 0
M  V30 6915 C 688.446 1.4102 3.28403 0
M  V30 6916 C 688.112 2.89995 3.45273 0
M  V30 6917 C 686.774 3.30671 3.49585 0
M  V30 6918 C 689.126 3.85874 3.50358 0
M  V30 6919 C 686.454 4.65925 3.56553 0
M  V30 6920 C 688.806 5.20963 3.58859 0
M  V30 6921 C 687.47 5.61177 3.61437 0
M  V30 6922 H 686.74 0.324044 0.666391 0
M  V30 6923 H 689.387 1.40874 1.29718 0
M  V30 6924 H 687.692 0.807551 3.83387 0
M  V30 6925 H 689.389 1.19882 3.82661 0
M  V30 6926 H 685.979 2.57537 3.42597 0
M  V30 6927 H 690.163 3.5554 3.46273 0
M  V30 6928 H 685.419 4.96468 3.56833 0
M  V30 6929 H 689.593 5.95079 3.61738 0
M  V30 6930 H 687.22 6.6597 3.66589 0
M  V30 6931 N 688.795 -1.27931 0.920396 0
M  V30 6932 C 689.745 -2.24727 0.384966 0
M  V30 6933 C 690.729 -1.52715 -0.506661 0
M  V30 6934 O 691.921 -1.73599 -0.345298 0
M  V30 6935 C 689.05 -3.41324 -0.3678 0
M  V30 6936 C 688.136 -4.20649 0.539925 0
M  V30 6937 N 688.527 -4.77906 1.6565 0
M  V30 6938 C 686.825 -4.4469 0.341557 0
M  V30 6939 C 687.526 -5.37652 2.22047 0
M  V30 6940 N 686.502 -5.2218 1.51093 0
M  V30 6941 H 690.304 -2.66572 1.23761 0
M  V30 6942 H 687.818 -1.42779 0.773819 0
M  V30 6943 H 689.815 -4.0976 -0.768277 0
M  V30 6944 H 688.475 -3.01012 -1.21746 0
M  V30 6945 H 689.486 -4.76073 2.03899 0
M  V30 6946 H 686.163 -4.14868 -0.468045 0
M  V30 6947 H 687.553 -5.92948 3.1601 0
M  V30 6948 N 690.273 -0.685099 -1.4193 0
M  V30 6949 C 691.498 -0.218842 -2.06242 0
M  V30 6950 C 691.923 1.11923 -1.51178 0
M  V30 6951 O 691.281 1.69837 -0.634446 0
M  V30 6952 C 691.329 -0.175592 -3.60172 0
M  V30 6953 O 690.433 0.852776 -4.03487 0
M  V30 6954 H 689.774 -0.109531 -0.654904 0
M  V30 6955 H 692.304 -0.937013 -1.81882 0
M  V30 6956 H 692.314 -0.00291151 -4.08 0
M  V30 6957 H 690.989 -1.15222 -3.99621 0
M  V30 6958 H 689.566 0.650301 -3.67186 0
M  V30 6959 N 691.751 1.51645 -0.429126 0
M  V30 6960 C 692.699 2.29119 0.400921 0
M  V30 6961 C 693.693 1.34628 1.02819 0
M  V30 6962 O 694.899 1.52004 0.964098 0
M  V30 6963 H 691.274 0.737273 0.148095 0
M  V30 6964 H 693.245 2.97144 -0.273457 0
M  V30 6965 C 691.994 3.13953 1.49429 0
M  V30 6966 H 691.317 3.86544 1.02097 0
M  V30 6967 H 692.757 3.71232 2.04849 0
M  V30 6968 C 691.216 2.28796 2.47293 0
M  V30 6969 O 691.746 1.94193 3.51642 0
M  V30 6970 N 689.952 1.92177 2.17982 0
M  V30 6971 H 689.499 2.20517 1.33154 0
M  V30 6972 H 689.457 1.35497 2.83704 0
M  V30 6973 N 693.229 0.160201 1.56784 0
M  V30 6974 C 694.454 -0.497373 2.01348 0
M  V30 6975 C 694.879 -1.56757 1.03966 0
M  V30 6976 O 694.237 -1.81292 0.0174455 0
M  V30 6977 C 694.285 -1.0628 3.44582 0
M  V30 6978 O 693.389 -2.17723 3.50244 0
M  V30 6979 H 692.73 -0.120295 0.653012 0
M  V30 6980 H 695.26 0.260821 2.02931 0
M  V30 6981 H 695.27 -1.38819 3.83658 0
M  V30 6982 H 693.945 -0.279166 4.14962 0
M  V30 6983 H 692.522 -1.86313 3.2302 0
M  V30 6984 N 694.707 -1.5719 -0.113559 0
M  V30 6985 C 695.932 -1.89702 -0.838336 0
M  V30 6986 C 696.357 -0.752679 -1.72384 0
M  V30 6987 O 695.715 0.296575 -1.78858 0
M  V30 6988 C 695.763 -3.20989 -1.64312 0
M  V30 6989 O 694.867 -3.07278 -2.75053 0
M  V30 6990 H 694.208 -0.622339 -0.231496 0
M  V30 6991 H 696.738 -2.04382 -0.0943228 0
M  V30 6992 H 696.748 -3.53843 -2.03123 0
M  V30 6993 H 695.423 -4.03869 -0.993119 0
M  V30 6994 H 694 -2.85901 -2.39406 0
M  V30 6995 N 696.185 0.383891 -1.52853 0
M  V30 6996 C 697.462 1.14296 -1.58732 0
M  V30 6997 C 697.842 2.07585 -0.383611 0
M  V30 6998 O 697.19 2.1971 0.627661 0
M  V30 6999 C 697.4 1.89816 -2.92867 0
M  V30 7000 C 698.748 2.44998 -3.46787 0
M  V30 7001 O 699.772 1.99966 -2.94774 0
M  V30 7002 O 698.631 3.2727 -4.37672 0
M  V30 7003 H 695.725 0.52326 -0.640413 0
M  V30 7004 H 698.271 0.388631 -1.6519 0
M  V30 7005 H 697.043 1.21626 -3.71918 0
M  V30 7006 H 696.666 2.72199 -2.89816 0
M  V30 7007 N 697.663 1.43903 0.642637 0
M  V30 7008 C 698.593 1.52697 1.76652 0
M  V30 7009 C 699.574 0.380816 1.65782 0
M  V30 7010 O 700.759 0.599432 1.84717 0
M  V30 7011 C 697.889 1.45975 3.15133 0
M  V30 7012 C 696.843 2.58949 3.40778 0
M  V30 7013 C 696.169 2.37279 4.79169 0
M  V30 7014 C 697.469 4.01153 3.34475 0
M  V30 7015 H 699.163 2.46766 1.69549 0
M  V30 7016 H 696.709 1.18767 0.814279 0
M  V30 7017 H 698.662 1.5073 3.93521 0
M  V30 7018 H 697.386 0.484162 3.22991 0
M  V30 7019 H 696.045 2.53564 2.64765 0
M  V30 7020 H 695.693 1.37939 4.83717 0
M  V30 7021 H 695.393 3.13016 4.97287 0
M  V30 7022 H 696.917 2.43834 5.59801 0
M  V30 7023 H 698.331 4.07968 4.02784 0
M  V30 7024 H 696.728 4.77001 3.64129 0
M  V30 7025 H 697.798 4.25539 2.32475 0
M  V30 7026 N 699.141 -0.881989 1.30609 0
M  V30 7027 C 700.051 -2.02076 1.19174 0
M  V30 7028 C 701.067 -1.73645 0.11102 0
M  V30 7029 O 702.243 -1.98735 0.326528 0
M  V30 7030 C 699.308 -3.3515 0.887438 0
M  V30 7031 C 698.369 -3.76983 2.05383 0
M  V30 7032 C 697.602 -5.03707 1.76395 0
M  V30 7033 O 697.825 -5.66171 0.693302 0
M  V30 7034 O 696.759 -5.42019 2.61723 0
M  V30 7035 H 700.585 -2.14652 2.14845 0
M  V30 7036 H 698.17 -1.00843 1.10232 0
M  V30 7037 H 700.052 -4.14975 0.73306 0
M  V30 7038 H 698.727 -3.23676 -0.0393354 0
M  V30 7039 H 697.634 -2.97849 2.26355 0
M  V30 7040 H 698.967 -3.93066 2.96243 0
M  V30 7041 N 700.619 -1.13374 -1.09472 0
M  V30 7042 C 701.847 -0.918351 -1.85402 0
M  V30 7043 C 702.262 0.53281 -1.81126 0
M  V30 7044 O 701.619 1.36879 -1.20708 0
M  V30 7045 C 701.67 -1.39743 -3.33398 0
M  V30 7046 O 701.391 -2.79172 -3.37631 0
M  V30 7047 C 702.892 -1.22042 -4.2617 0
M  V30 7048 H 700.112 -0.327511 -0.585643 0
M  V30 7049 H 702.656 -1.50617 -1.38328 0
M  V30 7050 H 700.811 -0.852619 -3.77901 0
M  V30 7051 H 701.225 -3.00428 -4.29934 0
M  V30 7052 H 702.699 -1.60438 -5.2817 0
M  V30 7053 H 703.176 -0.162047 -4.38901 0
M  V30 7054 H 703.782 -1.75323 -3.87482 0
M  V30 7055 N 702.098 1.27442 -0.927168 0
M  V30 7056 C 703.347 1.93679 -0.563146 0
M  V30 7057 C 703.66 1.73673 0.899837 0
M  V30 7058 O 704.866 2.34247 1.37262 0
M  V30 7059 C 703.322 3.46961 -0.95636 0
M  V30 7060 C 702.93 3.75724 -2.43999 0
M  V30 7061 C 704.674 4.19282 -0.663565 0
M  V30 7062 C 702.581 5.22378 -2.77263 0
M  V30 7063 H 701.511 0.725059 -0.206894 0
M  V30 7064 H 704.162 1.44743 -1.12791 0
M  V30 7065 H 702.544 3.94703 -0.320254 0
M  V30 7066 H 703.718 3.38741 -3.12396 0
M  V30 7067 H 702.033 3.16605 -2.70463 0
M  V30 7068 H 704.63 5.27265 -0.888596 0
M  V30 7069 H 704.973 4.14382 0.399198 0
M  V30 7070 H 705.506 3.7736 -1.25875 0
M  V30 7071 H 702.245 5.32367 -3.82446 0
M  V30 7072 H 701.765 5.6051 -2.13516 0
M  V30 7073 H 703.444 5.9025 -2.64979 0
M  V30 7074 N 703.576 0.692616 1.41565 0
M  V30 7075 C 704.539 0.0344174 2.29174 0
M  V30 7076 C 705.539 -0.710961 1.44229 0
M  V30 7077 O 706.729 -0.546293 1.65412 0
M  V30 7078 C 703.861 -0.961682 3.27054 0
M  V30 7079 H 705.054 0.805755 2.88873 0
M  V30 7080 H 702.607 0.455947 1.49502 0
M  V30 7081 H 703.342 -1.76089 2.72329 0
M  V30 7082 H 703.127 -0.430375 3.89731 0
M  V30 7083 H 704.617 -1.4201 3.92712 0
M  V30 7084 N 705.054 -1.51416 0.437162 0
M  V30 7085 C 706.47 -1.59349 0.0894459 0
M  V30 7086 C 706.67 -1.44809 -1.40116 0
M  V30 7087 O 705.726 -1.28924 -2.17106 0
M  V30 7088 C 707.039 -2.9446 0.609398 0
M  V30 7089 C 708.587 -3.07769 0.569824 0
M  V30 7090 C 709.062 -4.45404 1.06675 0
M  V30 7091 N 710.553 -4.51723 1.02473 0
M  V30 7092 C 711.288 -5.56544 1.3801 0
M  V30 7093 N 710.784 -6.68784 1.80831 0
M  V30 7094 N 712.577 -5.46901 1.29828 0
M  V30 7095 H 704.728 -1.59112 1.40703 0
M  V30 7096 H 706.991 -0.750031 0.579791 0
M  V30 7097 H 706.697 -3.1047 1.65231 0
M  V30 7098 H 706.571 -3.77184 0.0342236 0
M  V30 7099 H 708.958 -2.91428 -0.464107 0
M  V30 7100 H 709.039 -2.26885 1.1814 0
M  V30 7101 H 708.683 -4.62492 2.09914 0
M  V30 7102 H 708.613 -5.24827 0.431712 0
M  V30 7103 H 711.104 -3.71165 0.710258 0
M  V30 7104 H 711.417 -7.44787 2.06185 0
M  V30 7105 H 709.762 -6.69992 1.84757 0
M  V30 7106 H 712.953 -4.581 0.962397 0
M  V30 7107 H 713.126 -6.2848 1.57851 0
M  V30 7108 N 706.532 -0.168513 -1.56696 0
M  V30 7109 C 707.462 0.758563 -2.20835 0
M  V30 7110 C 708.443 1.24121 -1.1631 0
M  V30 7111 O 709.628 1.29487 -1.4473 0
M  V30 7112 C 706.758 1.9892 -2.8469 0
M  V30 7113 C 705.712 1.64252 -3.95228 0
M  V30 7114 C 705.038 2.94757 -4.46119 0
M  V30 7115 C 706.338 0.872675 -5.14958 0
M  V30 7116 H 708.032 0.223953 -2.98561 0
M  V30 7117 H 705.578 0.106277 -1.43607 0
M  V30 7118 H 707.531 2.64275 -3.28233 0
M  V30 7119 H 706.255 2.5479 -2.04327 0
M  V30 7120 H 704.914 1.01266 -3.52336 0
M  V30 7121 H 704.562 3.48662 -3.62552 0
M  V30 7122 H 704.262 2.72316 -5.2069 0
M  V30 7123 H 705.786 3.61147 -4.92347 0
M  V30 7124 H 707.2 1.42875 -5.55211 0
M  V30 7125 H 705.597 0.747402 -5.95428 0
M  V30 7126 H 706.667 -0.131535 -4.84722 0
M  V30 7127 N 708.01 1.57248 0.105221 0
M  V30 7128 C 708.958 2.02337 1.14728 0
M  V30 7129 C 709.952 0.922652 1.42069 0
M  V30 7130 O 711.158 1.10785 1.41869 0
M  V30 7131 H 707.533 0.644682 0.387155 0
M  V30 7132 H 709.504 2.89063 0.740607 0
M  V30 7133 C 708.253 2.45513 2.46209 0
M  V30 7134 H 707.576 3.29785 2.26013 0
M  V30 7135 H 709.016 2.80846 3.1765 0
M  V30 7136 C 707.475 1.3243 3.09781 0
M  V30 7137 O 708.005 0.647841 3.96442 0
M  V30 7138 N 706.211 1.07785 2.69872 0
M  V30 7139 H 705.758 1.62973 1.99493 0
M  V30 7140 H 705.716 0.323204 3.12734 0
M  V30 7141 N 709.488 -0.375779 1.53054 0
M  V30 7142 C 710.418 -1.46598 1.81745 0
M  V30 7143 C 711.399 -1.56337 0.670286 0
M  V30 7144 O 712.584 -1.71071 0.919158 0
M  V30 7145 C 709.714 -2.84058 1.99821 0
M  V30 7146 C 708.668 -2.8915 3.15557 0
M  V30 7147 C 707.994 -4.29187 3.18908 0
M  V30 7148 C 709.294 -2.57595 4.54359 0
M  V30 7149 H 710.988 -1.22837 2.73041 0
M  V30 7150 H 708.534 -0.589485 1.31381 0
M  V30 7151 H 710.487 -3.60342 2.18475 0
M  V30 7152 H 709.211 -3.09184 1.05226 0
M  V30 7153 H 707.87 -2.15316 2.96706 0
M  V30 7154 H 707.518 -4.51374 2.2197 0
M  V30 7155 H 707.218 -4.33512 3.96662 0
M  V30 7156 H 708.742 -5.07359 3.39734 0
M  V30 7157 H 710.156 -3.23595 4.73243 0
M  V30 7158 H 708.553 -2.73252 5.34279 0
M  V30 7159 H 709.623 -1.52882 4.60169 0
M  V30 7160 N 710.966 -1.44241 -0.634997 0
M  V30 7161 C 712.377 -1.41622 -1.21655 0
M  V30 7162 C 712.728 -0.129584 -1.95772 0
M  V30 7163 O 711.853 0.770225 -2.02229 0
M  V30 7164 C 712.448 -2.56557 -2.21278 0
M  V30 7165 C 711.007 -2.57145 -2.7487 0
M  V30 7166 C 710.154 -2.33354 -1.49804 0
M  V30 7167 H 713.105 -1.52878 -0.425905 0
M  V30 7168 H 713.126 -2.29089 -3.03807 0
M  V30 7169 H 712.638 -3.50186 -1.67306 0
M  V30 7170 H 710.739 -1.67447 -3.32855 0
M  V30 7171 H 710.852 -3.55507 -3.21172 0
M  V30 7172 H 709.216 -1.82372 -1.77799 0
M  V30 7173 H 709.999 -3.29092 -0.977402 0
M  V30 7174 N 712.444 0.87505 -1.31075 0
M  V30 7175 C 713.693 1.62245 -1.19831 0
M  V30 7176 C 714.006 1.94078 0.24357 0
M  V30 7177 O 715.212 2.67265 0.477646 0
M  V30 7178 C 713.668 2.92464 -2.09744 0
M  V30 7179 C 713.276 2.68134 -3.58898 0
M  V30 7180 C 715.02 3.70449 -2.07287 0
M  V30 7181 C 712.927 3.9423 -4.40836 0
M  V30 7182 H 711.857 0.608741 -0.444916 0
M  V30 7183 H 714.508 0.967947 -1.55894 0
M  V30 7184 H 712.89 3.59262 -1.66574 0
M  V30 7185 H 714.064 2.09776 -4.10281 0
M  V30 7186 H 712.379 2.03511 -3.6328 0
M  V30 7187 H 714.976 4.63983 -2.65752 0
M  V30 7188 H 715.319 4.02611 -1.05876 0
M  V30 7189 H 715.852 3.10528 -2.48631 0
M  V30 7190 H 712.591 3.67221 -5.42982 0
M  V30 7191 H 712.111 4.52058 -3.94213 0
M  V30 7192 H 713.79 4.62162 -4.52786 0
M  V30 7193 N 713.922 1.13953 1.08869 0
M  V30 7194 C 715.168 0.906151 1.8143 0
M  V30 7195 C 715.501 -0.566089 1.85766 0
M  V30 7196 O 714.776 -1.41915 1.33006 0
M  V30 7197 C 715.059 1.50183 3.27287 0
M  V30 7198 C 714.912 3.04359 3.31189 0
M  V30 7199 C 716.231 1.17477 4.24131 0
M  V30 7200 H 713.35 0.330624 0.658678 0
M  V30 7201 H 715.992 1.40873 1.27495 0
M  V30 7202 H 714.142 1.07442 3.73348 0
M  V30 7203 H 715.814 3.55896 2.93488 0
M  V30 7204 H 714.057 3.39053 2.70602 0
M  V30 7205 H 714.728 3.41141 4.33966 0
M  V30 7206 H 717.204 1.5442 3.86385 0
M  V30 7207 H 716.08 1.61795 5.24513 0
M  V30 7208 H 716.341 0.0893312 4.4201 0
M  V30 7209 N 715.4 -1.26948 0.933913 0
M  V30 7210 C 716.628 -1.98186 0.59414 0
M  V30 7211 C 717.043 -1.69614 -0.829257 0
M  V30 7212 O 716.4 -0.960213 -1.55197 0
M  V30 7213 C 716.451 -3.52123 0.818026 0
M  V30 7214 O 716.172 -3.79698 2.18543 0
M  V30 7215 C 717.673 -4.40608 0.48781 0
M  V30 7216 H 714.893 -0.632305 0.224569 0
M  V30 7217 H 717.437 -1.61646 1.25263 0
M  V30 7218 H 715.592 -3.86851 0.206246 0
M  V30 7219 H 716.006 -4.7426 2.24005 0
M  V30 7220 H 717.48 -5.47606 0.695126 0
M  V30 7221 H 717.957 -4.35394 -0.576913 0
M  V30 7222 H 718.563 -4.11411 1.078 0
M  V30 7223 N 716.879 -0.700114 -1.41195 0
M  V30 7224 C 718.125 -0.233351 -2.01453 0
M  V30 7225 C 718.458 1.16548 -1.55339 0
M  V30 7226 O 717.733 1.78756 -0.766575 0
M  V30 7227 C 718.016 -0.2961 -3.58881 0
M  V30 7228 C 717.869 -1.7322 -4.15108 0
M  V30 7229 C 719.188 0.341525 -4.38773 0
M  V30 7230 H 716.307 -0.0862667 -0.731934 0
M  V30 7231 H 718.949 -0.889693 -1.67882 0
M  V30 7232 H 717.099 0.262736 -3.87611 0
M  V30 7233 H 718.771 -2.34523 -3.97236 0
M  V30 7234 H 717.014 -2.2649 -3.69979 0
M  V30 7235 H 717.685 -1.7276 -5.24269 0
M  V30 7236 H 720.161 -0.134461 -4.15883 0
M  V30 7237 H 719.037 0.267098 -5.4825 0
M  V30 7238 H 719.298 1.42289 -4.18577 0
M  V30 7239 N 718.357 1.51182 -0.445186 0
M  V30 7240 C 719.603 2.02452 0.11882 0
M  V30 7241 C 719.936 1.32824 1.41673 0
M  V30 7242 O 719.211 0.445637 1.89326 0
M  V30 7243 C 719.494 3.5859 0.329475 0
M  V30 7244 C 719.347 4.38823 -0.987638 0
M  V30 7245 C 720.666 4.26241 1.09575 0
M  V30 7246 H 717.785 0.735819 0.0417092 0
M  V30 7247 H 720.427 1.80747 -0.585718 0
M  V30 7248 H 718.577 3.77214 0.9296 0
M  V30 7249 H 720.249 4.3183 -1.62235 0
M  V30 7250 H 718.492 4.03594 -1.59041 0
M  V30 7251 H 719.163 5.46257 -0.794192 0
M  V30 7252 H 721.639 4.11934 0.587328 0
M  V30 7253 H 720.515 5.35354 1.21191 0
M  V30 7254 H 720.776 3.87635 2.12584 0
M  V30 7255 N 719.835 0.176821 1.56605 0
M  V30 7256 C 721.081 -0.467406 1.9734 0
M  V30 7257 C 721.414 -1.62523 1.06301 0
M  V30 7258 O 720.689 -1.94182 0.11125 0
M  V30 7259 C 720.972 -0.945106 3.47476 0
M  V30 7260 C 720.825 0.213273 4.49294 0
M  V30 7261 C 722.144 -1.8169 4.00845 0
M  V30 7262 H 719.263 -0.168426 0.717497 0
M  V30 7263 H 721.905 0.264065 1.88156 0
M  V30 7264 H 720.055 -1.56841 3.55434 0
M  V30 7265 H 721.727 0.850508 4.53392 0
M  V30 7266 H 719.97 0.867918 4.25029 0
M  V30 7267 H 720.641 -0.163187 5.51759 0
M  V30 7268 H 723.117 -1.29139 3.95553 0
M  V30 7269 H 721.993 -2.12015 5.06301 0
M  V30 7270 H 722.254 -2.76463 3.44994 0
M  V30 7271 N 721.313 -1.57302 -0.09688 0
M  V30 7272 C 722.261 -2.02942 -1.13654 0
M  V30 7273 C 723.255 -0.930173 -1.41577 0
M  V30 7274 O 724.461 -1.11535 -1.41279 0
M  V30 7275 H 720.836 -0.646726 -0.383731 0
M  V30 7276 H 722.807 -2.89452 -0.725267 0
M  V30 7277 C 721.556 -2.46815 -2.44903 0
M  V30 7278 H 720.879 -3.30979 -2.24261 0
M  V30 7279 H 722.319 -2.82527 -3.16156 0
M  V30 7280 C 720.778 -1.34071 -3.09074 0
M  V30 7281 O 721.308 -0.668856 -3.96092 0
M  V30 7282 N 719.514 -1.09214 -2.69296 0
M  V30 7283 H 719.061 -1.64029 -1.98626 0
M  V30 7284 H 719.019 -0.339785 -3.12559 0
M  V30 7285 N 722.791 0.367657 -1.53252 0
M  V30 7286 C 723.739 1.47061 -1.8021 0
M  V30 7287 C 724.733 1.55539 -0.671112 0
M  V30 7288 O 725.939 1.58451 -0.854014 0
M  V30 7289 H 722.314 0.489868 -0.570555 0
M  V30 7290 H 724.285 1.21527 -2.72532 0
M  V30 7291 C 723.034 2.83924 -2.00706 0
M  V30 7292 H 722.357 2.78158 -2.87172 0
M  V30 7293 H 723.797 3.60281 -2.23547 0
M  V30 7294 C 722.256 3.27613 -0.785568 0
M  V30 7295 O 722.786 4.01691 0.0267459 0
M  V30 7296 N 720.992 2.84134 -0.609597 0
M  V30 7297 H 720.539 2.24017 -1.27178 0
M  V30 7298 H 720.497 3.13723 0.206281 0
M  V30 7299 N 724.269 1.44576 0.627338 0
M  V30 7300 C 725.546 1.38033 1.38586 0
M  V30 7301 C 725.926 0.0409468 2.1106 0
M  V30 7302 O 725.274 -0.976582 2.0658 0
M  V30 7303 C 725.484 2.58102 2.34913 0
M  V30 7304 C 726.832 3.02332 2.98129 0
M  V30 7305 O 727.856 2.58334 2.45238 0
M  V30 7306 O 726.715 3.78628 3.94085 0
M  V30 7307 H 723.809 0.546801 0.620434 0
M  V30 7308 H 726.355 1.56672 0.652077 0
M  V30 7309 H 725.127 3.4719 1.80485 0
M  V30 7310 H 724.75 2.41696 3.15703 0
M  V30 7311 N 725.747 -0.868086 1.31537 0
M  V30 7312 C 726.975 -1.65402 1.24298 0
M  V30 7313 C 727.39 -1.87827 -0.191389 0
M  V30 7314 O 726.747 -1.43776 -1.12404 0
M  V30 7315 C 726.798 -3.02093 1.9855 0
M  V30 7316 O 726.519 -2.80668 3.36388 0
M  V30 7317 C 728.02 -3.96538 1.98173 0
M  V30 7318 H 725.24 -0.515598 0.429417 0
M  V30 7319 H 727.784 -1.0834 1.73444 0
M  V30 7320 H 725.939 -3.55838 1.53161 0
M  V30 7321 H 726.353 -3.67504 3.74221 0
M  V30 7322 H 727.827 -4.8976 2.54635 0
M  V30 7323 H 728.304 -4.28474 0.964697 0
M  V30 7324 H 728.91 -3.48729 2.4345 0
M  V30 7325 N 727.225 -1.14528 -1.08264 0
M  V30 7326 C 728.173 -0.829201 -2.17318 0
M  V30 7327 C 729.167 0.193521 -1.68291 0
M  V30 7328 O 730.373 0.0494744 -1.79932 0
M  V30 7329 H 726.748 -0.250435 -0.709074 0
M  V30 7330 H 728.719 -1.75683 -2.41201 0
M  V30 7331 C 727.468 -0.324663 -3.46181 0
M  V30 7332 H 726.791 -1.10299 -3.84284 0
M  V30 7333 H 728.231 -0.142059 -4.23762 0
M  V30 7334 C 726.69 0.952033 -3.23169 0
M  V30 7335 O 727.22 2.02549 -3.46896 0
M  V30 7336 N 725.426 0.887854 -2.76705 0
M  V30 7337 H 724.973 0.0141402 -2.57596 0
M  V30 7338 H 724.931 1.74263 -2.61686 0
M  V30 7339 N 728.703 1.26451 -0.940633 0
M  V30 7340 C 729.951 1.93395 -0.586748 0
M  V30 7341 C 730.272 1.7417 0.876921 0
M  V30 7342 O 729.542 1.097 1.62304 0
M  V30 7343 H 728.122 0.715687 -0.214012 0
M  V30 7344 H 730.784 1.53902 -1.19584 0
M  V30 7345 H 729.88 3.01565 -0.804059 0
M  V30 7346 N 730.181 0.707592 1.40822 0
M  V30 7347 C 731.111 0.0644925 2.33411 0
M  V30 7348 C 732.092 -0.754205 1.52466 0
M  V30 7349 O 733.277 -0.704749 1.80961 0
M  V30 7350 C 730.407 -0.863865 3.36385 0
M  V30 7351 C 729.361 -0.15138 4.27732 0
M  V30 7352 C 728.687 -1.19491 5.21177 0
M  V30 7353 C 729.987 0.989607 5.12839 0
M  V30 7354 H 731.681 0.837829 2.87438 0
M  V30 7355 H 729.227 0.404346 1.38207 0
M  V30 7356 H 731.18 -1.32309 4.0009 0
M  V30 7357 H 729.904 -1.66901 2.80734 0
M  V30 7358 H 728.563 0.287937 3.65467 0
M  V30 7359 H 728.211 -1.9929 4.61836 0
M  V30 7360 H 727.911 -0.723123 5.83134 0
M  V30 7361 H 729.435 -1.6544 5.8776 0
M  V30 7362 H 730.849 0.610114 5.70044 0
M  V30 7363 H 729.246 1.38926 5.83798 0
M  V30 7364 H 730.316 1.82389 4.49291 0
M  V30 7365 N 731.66 -1.50943 0.453197 0
M  V30 7366 C 732.909 -2.01402 -0.10951 0
M  V30 7367 C 733.222 -1.3411 -1.42386 0
M  V30 7368 O 734.428 -1.75626 -2.07045 0
M  V30 7369 C 732.884 -3.5906 -0.245693 0
M  V30 7370 C 732.492 -4.353 1.05916 0
M  V30 7371 C 734.236 -4.17617 -0.761318 0
M  V30 7372 C 732.143 -5.84699 0.887752 0
M  V30 7373 H 731.073 -0.752674 -0.0447013 0
M  V30 7374 H 733.724 -1.73913 0.585375 0
M  V30 7375 H 732.106 -3.83062 -1.00395 0
M  V30 7376 H 733.28 -4.23034 1.82698 0
M  V30 7377 H 731.595 -3.88269 1.50452 0
M  V30 7378 H 734.192 -5.26963 -0.906306 0
M  V30 7379 H 734.535 -3.77824 -1.74799 0
M  V30 7380 H 735.068 -3.97753 -0.0609416 0
M  V30 7381 H 731.807 -6.28933 1.84726 0
M  V30 7382 H 731.327 -5.99587 0.160006 0
M  V30 7383 H 733.006 -6.44682 0.547223 0
M  V30 7384 N 733.138 -0.185124 -1.56509 0
M  V30 7385 C 734.048 0.751908 -2.22224 0
M  V30 7386 C 735.064 1.24244 -1.21817 0
M  V30 7387 O 736.24 1.29169 -1.54523 0
M  V30 7388 C 733.305 1.95837 -2.86092 0
M  V30 7389 C 732.366 1.51337 -4.01741 0
M  V30 7390 C 731.599 2.66233 -4.62554 0
M  V30 7391 O 731.822 3.8346 -4.22273 0
M  V30 7392 O 730.756 2.39517 -5.52191 0
M  V30 7393 H 734.582 0.222304 -3.02885 0
M  V30 7394 H 732.167 0.0437141 -1.49336 0
M  V30 7395 H 734.049 2.66368 -3.26536 0
M  V30 7396 H 732.724 2.47677 -2.08417 0
M  V30 7397 H 731.631 0.777155 -3.65939 0
M  V30 7398 H 732.964 1.04175 -4.81049 0
M  V30 7399 N 734.616 1.57351 0.0885366 0
M  V30 7400 C 735.546 2.05561 1.10757 0
M  V30 7401 C 736.527 0.945789 1.41382 0
M  V30 7402 O 737.712 1.21747 1.51299 0
M  V30 7403 C 734.842 2.48554 2.42566 0
M  V30 7404 C 733.796 3.63259 2.26334 0
M  V30 7405 C 733.122 3.9225 3.63378 0
M  V30 7406 C 734.422 4.93913 1.69844 0
M  V30 7407 H 736.116 2.90946 0.706468 0
M  V30 7408 H 733.662 1.39968 0.338385 0
M  V30 7409 H 735.615 2.8089 3.14132 0
M  V30 7410 H 734.339 1.60176 2.84625 0
M  V30 7411 H 732.998 3.31179 1.57213 0
M  V30 7412 H 732.646 3.0103 4.02976 0
M  V30 7413 H 732.346 4.69478 3.53362 0
M  V30 7414 H 733.87 4.27067 4.36401 0
M  V30 7415 H 735.284 5.24588 2.31258 0
M  V30 7416 H 733.681 5.75349 1.70569 0
M  V30 7417 H 734.751 4.80409 0.65843 0
M  V30 7418 N 736.094 -0.359525 1.53444 0
M  V30 7419 C 737.324 -1.12036 1.73585 0
M  V30 7420 C 737.732 -1.83335 0.467438 0
M  V30 7421 O 737.075 -1.74641 -0.569753 0
M  V30 7422 C 737.137 -2.19036 2.85068 0
M  V30 7423 C 736.801 -1.67451 4.25217 0
M  V30 7424 C 737.798 -1.13534 5.07352 0
M  V30 7425 C 735.483 -1.72781 4.71648 0
M  V30 7426 C 737.477 -0.656321 6.34012 0
M  V30 7427 C 735.164 -1.2449 5.98285 0
M  V30 7428 C 736.162 -0.710068 6.79299 0
M  V30 7429 O 735.85 -0.234314 8.03558 0
M  V30 7430 H 735.582 -0.340662 0.583888 0
M  V30 7431 H 738.136 -0.422452 2.01009 0
M  V30 7432 H 736.366 -2.92338 2.53131 0
M  V30 7433 H 738.055 -2.80559 2.93328 0
M  V30 7434 H 738.821 -1.08751 4.7265 0
M  V30 7435 H 734.7 -2.13351 4.08659 0
M  V30 7436 H 738.244 -0.238193 6.97193 0
M  V30 7437 H 734.141 -1.28969 6.32485 0
M  V30 7438 H 734.909 -0.353084 8.17738 0
M  V30 7439 N 737.572 -1.44907 -0.619662 0
M  V30 7440 C 738.504 -1.48652 -1.74457 0
M  V30 7441 C 739.517 -0.378596 -1.58337 0
M  V30 7442 O 740.706 -0.644987 -1.6644 0
M  V30 7443 C 737.806 -1.31568 -3.12319 0
M  V30 7444 C 736.979 -2.55816 -3.54792 0
M  V30 7445 C 736.038 -2.33465 -4.71573 0
M  V30 7446 O 735.064 -3.07015 -4.79302 0
M  V30 7447 N 736.266 -1.37254 -5.6404 0
M  V30 7448 H 739.031 -2.45632 -1.71712 0
M  V30 7449 H 736.592 -1.40492 -0.804582 0
M  V30 7450 H 738.584 -1.14445 -3.88181 0
M  V30 7451 H 737.154 -0.429095 -3.09641 0
M  V30 7452 H 736.374 -2.88137 -2.69018 0
M  V30 7453 H 737.662 -3.38431 -3.79924 0
M  V30 7454 H 737.06 -0.765309 -5.60499 0
M  V30 7455 H 735.617 -1.26106 -6.39485 0
M  V30 7456 N 739.05 0.861098 -1.31996 0
M  V30 7457 C 739.998 1.99052 -1.20337 0
M  V30 7458 C 740.992 1.69045 -0.109623 0
M  V30 7459 O 742.198 1.77931 -0.272117 0
M  V30 7460 H 738.573 0.653064 -0.372843 0
M  V30 7461 H 740.544 2.06015 -2.15872 0
M  V30 7462 C 739.293 3.34846 -0.936663 0
M  V30 7463 H 738.616 3.58462 -1.77045 0
M  V30 7464 H 740.056 4.1444 -0.895302 0
M  V30 7465 C 738.515 3.34965 0.360607 0
M  V30 7466 O 739.045 3.7745 1.37456 0
M  V30 7467 N 737.251 2.88101 0.380296 0
M  V30 7468 H 736.798 2.53721 -0.445351 0
M  V30 7469 H 736.756 2.88563 1.24816 0
M  V30 7470 N 740.528 1.15101 1.07655 0
M  V30 7471 C 741.777 0.918528 1.79572 0
M  V30 7472 C 742.09 -0.555922 1.87534 0
M  V30 7473 O 743.296 -0.905893 2.55941 0
M  V30 7474 C 741.752 1.59394 3.22679 0
M  V30 7475 C 741.36 3.1052 3.22927 0
M  V30 7476 C 743.104 1.44289 3.99225 0
M  V30 7477 C 741.011 3.70862 4.60668 0
M  V30 7478 H 739.941 0.340006 0.672987 0
M  V30 7479 H 742.592 1.38079 1.20857 0
M  V30 7480 H 740.974 1.05936 3.81567 0
M  V30 7481 H 742.148 3.70708 2.737 0
M  V30 7482 H 740.463 3.25351 2.59876 0
M  V30 7483 H 743.06 1.86766 5.01022 0
M  V30 7484 H 743.403 0.389975 4.14469 0
M  V30 7485 H 743.936 1.94826 3.46825 0
M  V30 7486 H 740.675 4.7604 4.50628 0
M  V30 7487 H 740.195 3.15456 5.10145 0
M  V30 7488 H 741.874 3.71607 5.29639 0
M  V30 7489 N 742.006 -1.2595 0.947325 0
M  V30 7490 C 743.254 -1.93081 0.596996 0
M  V30 7491 C 743.575 -1.74632 -0.867672 0
M  V30 7492 O 742.845 -1.1056 -1.6172 0
M  V30 7493 H 741.425 -0.714542 0.217805 0
M  V30 7494 H 744.087 -1.53265 1.20398 0
M  V30 7495 H 743.183 -3.01134 0.82004 0
M  V30 7496 N 743.484 -0.715051 -1.40445 0
M  V30 7497 C 744.434 -0.038591 -2.27967 0
M  V30 7498 C 745.418 0.733099 -1.43229 0
M  V30 7499 O 746.61 0.605388 -1.66325 0
M  V30 7500 C 743.739 0.882801 -3.31755 0
M  V30 7501 C 742.825 0.106325 -4.23967 0
M  V30 7502 N 743.216 -0.910143 -4.97544 0
M  V30 7503 C 741.514 0.33896 -4.4471 0
M  V30 7504 C 742.215 -1.37665 -5.65175 0
M  V30 7505 N 741.191 -0.698905 -5.39088 0
M  V30 7506 H 744.993 -0.81765 -2.82297 0
M  V30 7507 H 742.507 -0.547591 -1.5289 0
M  V30 7508 H 744.504 1.38273 -3.93302 0
M  V30 7509 H 743.164 1.66124 -2.78985 0
M  V30 7510 H 744.175 -1.29097 -5.01552 0
M  V30 7511 H 740.852 1.09377 -4.02918 0
M  V30 7512 H 742.242 -2.22122 -6.34123 0
M  V30 7513 N 744.962 1.50701 -0.461195 0
M  V30 7514 C 745.912 2.25195 0.35653 0
M  V30 7515 C 746.896 1.2838 0.96992 0
M  V30 7516 O 748.088 1.53338 0.884108 0
M  V30 7517 C 745.217 3.11471 1.44364 0
M  V30 7518 C 744.303 4.15729 0.83847 0
M  V30 7519 N 744.694 5.05788 -0.0353198 0
M  V30 7520 C 742.992 4.32133 1.1035 0
M  V30 7521 C 743.693 5.80472 -0.37774 0
M  V30 7522 N 742.669 5.43049 0.24463 0
M  V30 7523 H 746.471 2.92188 -0.316746 0
M  V30 7524 H 743.985 1.60059 -0.274725 0
M  V30 7525 H 745.982 3.63436 2.04255 0
M  V30 7526 H 744.642 2.46025 2.11901 0
M  V30 7527 H 745.653 5.16326 -0.403465 0
M  V30 7528 H 742.33 3.77908 1.77458 0
M  V30 7529 H 743.72 6.62996 -1.09024 0
M  V30 7530 N 746.441 0.193421 1.56409 0
M  V30 7531 C 747.857 -0.162447 1.58771 0
M  V30 7532 C 748.057 -1.6116 1.20954 0
M  V30 7533 O 747.113 -2.3469 0.931497 0
M  V30 7534 C 748.426 0.138391 3.00381 0
M  V30 7535 C 749.974 0.0783649 3.12902 0
M  V30 7536 C 750.449 0.352491 4.56642 0
M  V30 7537 N 751.94 0.30105 4.62221 0
M  V30 7538 C 752.675 0.487028 5.71328 0
M  V30 7539 N 752.171 0.733265 6.88909 0
M  V30 7540 N 753.964 0.4214 5.60518 0
M  V30 7541 H 746.115 1.13909 1.79272 0
M  V30 7542 H 748.378 0.454528 0.83193 0
M  V30 7543 H 748.084 1.14312 3.32604 0
M  V30 7544 H 747.958 -0.559804 3.73023 0
M  V30 7545 H 750.345 -0.916963 2.80492 0
M  V30 7546 H 750.426 0.809611 2.4265 0
M  V30 7547 H 750.07 1.34513 4.89764 0
M  V30 7548 H 750 -0.399624 5.25081 0
M  V30 7549 H 752.491 0.117279 3.77718 0
M  V30 7550 H 752.804 0.86403 7.67955 0
M  V30 7551 H 751.149 0.770138 6.9072 0
M  V30 7552 H 754.34 0.229461 4.67537 0
M  V30 7553 H 754.513 0.569758 6.4549 0
M  V30 7554 N 747.919 -1.57396 -0.0801906 0
M  V30 7555 C 749.144 -1.91437 -0.797909 0
M  V30 7556 C 749.569 -0.789075 -1.70749 0
M  V30 7557 O 748.927 0.25857 -1.79447 0
M  V30 7558 C 748.975 -3.24402 -1.57467 0
M  V30 7559 O 748.079 -3.13043 -2.68473 0
M  V30 7560 H 747.42 -0.627109 -0.218243 0
M  V30 7561 H 749.95 -2.04537 -0.050949 0
M  V30 7562 H 749.96 -3.58072 -1.95571 0
M  V30 7563 H 748.635 -4.05884 -0.907229 0
M  V30 7564 H 747.212 -2.90915 -2.33287 0
M  V30 7565 N 749.397 0.351382 -1.53633 0
M  V30 7566 C 750.347 1.4316 -1.77452 0
M  V30 7567 C 751.331 1.48076 -0.62946 0
M  V30 7568 O 752.523 1.53078 -0.888599 0
M  V30 7569 C 749.652 2.80409 -1.98055 0
M  V30 7570 C 748.738 2.79915 -3.18604 0
M  V30 7571 N 749.129 2.49057 -4.40232 0
M  V30 7572 C 747.427 3.11067 -3.19614 0
M  V30 7573 C 748.128 2.566 -5.22045 0
M  V30 7574 N 747.104 2.919 -4.5858 0
M  V30 7575 H 750.906 1.18188 -2.69089 0
M  V30 7576 H 748.42 0.559684 -1.52451 0
M  V30 7577 H 750.417 3.58231 -2.13251 0
M  V30 7578 H 749.077 3.06334 -1.07655 0
M  V30 7579 H 750.088 2.22395 -4.67719 0
M  V30 7580 H 746.765 3.42215 -2.39154 0
M  V30 7581 H 748.155 2.35968 -6.29101 0
M  V30 7582 N 750.875 1.45233 0.611969 0
M  V30 7583 C 752.152 1.39495 1.37115 0
M  V30 7584 C 752.532 0.0633303 2.11005 0
M  V30 7585 O 751.88 -0.954617 2.07604 0
M  V30 7586 C 752.09 2.60579 2.32163 0
M  V30 7587 C 753.438 3.05477 2.94905 0
M  V30 7588 O 754.462 2.60921 2.42485 0
M  V30 7589 O 753.321 3.82787 3.90047 0
M  V30 7590 H 750.415 0.55335 0.614599 0
M  V30 7591 H 752.961 1.57355 0.635423 0
M  V30 7592 H 751.733 3.49085 1.76793 0
M  V30 7593 H 751.356 2.45031 3.13122 0
M  V30 7594 N 752.353 -0.854086 1.3245 0
M  V30 7595 C 753.764 -1.42427 1.20712 0
M  V30 7596 C 754.115 -1.95371 -0.18013 0
M  V30 7597 O 753.24 -1.87587 -1.07889 0
M  V30 7598 C 753.835 -2.58897 2.18536 0
M  V30 7599 C 752.394 -3.11913 2.10683 0
M  V30 7600 C 751.541 -1.84661 2.06871 0
M  V30 7601 H 754.492 -0.661192 1.4427 0
M  V30 7602 H 754.513 -3.36074 1.78422 0
M  V30 7603 H 754.025 -2.20333 3.19492 0
M  V30 7604 H 752.126 -3.55059 1.12977 0
M  V30 7605 H 752.239 -3.73119 3.00532 0
M  V30 7606 H 750.603 -2.04285 1.52118 0
M  V30 7607 H 751.386 -1.48314 3.09609 0
M  V30 7608 N 753.831 -1.1567 -1.07043 0
M  V30 7609 C 754.794 -0.858906 -2.12498 0
M  V30 7610 C 755.794 0.142735 -1.60165 0
M  V30 7611 O 756.984 -0.0872678 -1.73981 0
M  V30 7612 C 754.116 -0.283021 -3.39723 0
M  V30 7613 H 755.309 -1.79368 -2.40348 0
M  V30 7614 H 752.862 -0.964608 -1.22984 0
M  V30 7615 H 753.597 0.659796 -3.17517 0
M  V30 7616 H 753.382 -1.00467 -3.7901 0
M  V30 7617 H 754.872 -0.0923543 -4.17498 0
M  V30 7618 N 755.309 1.25446 -0.953992 0
M  V30 7619 C 756.555 1.9343 -0.60933 0
M  V30 7620 C 756.888 1.74542 0.851388 0
M  V30 7621 O 756.163 1.09014 1.61078 0
M  V30 7622 C 756.446 3.46844 -0.968041 0
M  V30 7623 C 756.299 3.74961 -2.48444 0
M  V30 7624 C 757.618 4.37334 -0.492641 0
M  V30 7625 H 754.737 0.702502 -0.222844 0
M  V30 7626 H 757.379 1.48076 -1.19053 0
M  V30 7627 H 755.529 3.85604 -0.473465 0
M  V30 7628 H 757.201 3.45841 -3.05273 0
M  V30 7629 H 755.444 3.20589 -2.92241 0
M  V30 7630 H 756.115 4.82246 -2.68594 0
M  V30 7631 H 758.591 4.05873 -0.916878 0
M  V30 7632 H 757.467 5.43439 -0.772331 0
M  V30 7633 H 757.728 4.37908 0.607403 0
M  V30 7634 N 756.787 0.722489 1.40064 0
M  V30 7635 C 757.734 0.0743738 2.3068 0
M  V30 7636 C 758.704 -0.743004 1.48555 0
M  V30 7637 O 759.889 -0.705536 1.77276 0
M  V30 7638 C 757.029 -0.836292 3.34814 0
M  V30 7639 C 756.142 -0.00764663 4.31999 0
M  V30 7640 C 755.277 -0.918428 5.232 0
M  V30 7641 C 754.316 -0.0842838 6.12042 0
M  V30 7642 N 753.453 -0.950316 6.95639 0
M  V30 7643 H 758.293 0.852794 2.85537 0
M  V30 7644 H 755.83 0.432222 1.40607 0
M  V30 7645 H 757.788 -1.3786 3.93765 0
M  V30 7646 H 756.418 -1.58082 2.81443 0
M  V30 7647 H 755.47 0.651928 3.74772 0
M  V30 7648 H 756.782 0.63786 4.94705 0
M  V30 7649 H 755.936 -1.52902 5.87116 0
M  V30 7650 H 754.675 -1.59774 4.60786 0
M  V30 7651 H 753.68 0.5392 5.4715 0
M  V30 7652 H 754.905 0.591628 6.76518 0
M  V30 7653 H 752.851 -1.61515 6.35806 0
M  V30 7654 H 752.768 -0.361004 7.55138 0
M  V30 7655 H 754.036 -1.54687 7.63997 0
M  V30 7656 N 758.265 -1.50454 0.469181 0
M  V30 7657 C 759.512 -2.02315 -0.086469 0
M  V30 7658 C 759.84 -1.3513 -1.39893 0
M  V30 7659 O 759.095 -0.465341 -1.90087 0
M  V30 7660 C 759.394 -3.55963 -0.320207 0
M  V30 7661 C 759.06 -4.41615 0.910318 0
M  V30 7662 C 757.722 -4.64743 1.2477 0
M  V30 7663 C 760.074 -4.91661 1.72971 0
M  V30 7664 C 757.402 -5.35161 2.40457 0
M  V30 7665 C 759.754 -5.6335 2.87785 0
M  V30 7666 C 758.418 -5.84732 3.2194 0
M  V30 7667 H 757.688 -0.740324 -0.0316412 0
M  V30 7668 H 760.335 -1.81087 0.622872 0
M  V30 7669 H 758.64 -3.75695 -1.11177 0
M  V30 7670 H 760.337 -3.93653 -0.764071 0
M  V30 7671 H 756.927 -4.23833 0.637467 0
M  V30 7672 H 761.111 -4.73649 1.48224 0
M  V30 7673 H 756.367 -5.49924 2.67196 0
M  V30 7674 H 760.541 -6.0111 3.51624 0
M  V30 7675 H 758.168 -6.39074 4.1169 0
M  V30 7676 N 759.743 -0.201713 -1.56304 0
M  V30 7677 C 760.991 0.434447 -1.97375 0
M  V30 7678 C 761.312 1.61692 -1.08998 0
M  V30 7679 O 760.582 1.95223 -0.162682 0
M  V30 7680 H 759.162 0.163497 -0.728888 0
M  V30 7681 H 761.824 -0.289988 -1.92731 0
M  V30 7682 H 760.92 0.774136 -3.02347 0
M  V30 7683 N 761.222 1.57436 0.0718424 0
M  V30 7684 C 762.47 1.86878 0.769484 0
M  V30 7685 C 762.791 0.7937 1.78116 0
M  V30 7686 O 762.061 -0.177642 1.95093 0
M  V30 7687 H 760.641 0.689593 0.287177 0
M  V30 7688 H 763.303 1.94841 0.0479427 0
M  V30 7689 H 762.399 2.84387 1.28572 0
M  V30 7690 N 762.7 -0.34323 1.53817 0
M  V30 7691 C 763.946 -1.08504 1.71332 0
M  V30 7692 C 764.279 -1.88294 0.475285 0
M  V30 7693 O 763.554 -1.87205 -0.527688 0
M  V30 7694 C 763.837 -2.02597 2.97702 0
M  V30 7695 C 763.69 -1.26268 4.31713 0
M  V30 7696 C 765.009 -3.0241 3.19744 0
M  V30 7697 H 762.128 -0.393072 0.623429 0
M  V30 7698 H 764.77 -0.363579 1.86489 0
M  V30 7699 H 762.92 -2.64118 2.8491 0
M  V30 7700 H 764.592 -0.673594 4.56356 0
M  V30 7701 H 762.835 -0.564696 4.30109 0
M  V30 7702 H 763.506 -1.95253 5.16314 0
M  V30 7703 H 765.982 -2.51004 3.31868 0
M  V30 7704 H 764.858 -3.65449 4.09558 0
M  V30 7705 H 765.119 -3.73806 2.36054 0
M  V30 7706 N 764.178 -1.45556 -0.604258 0
M  V30 7707 C 765.455 -1.40221 -1.36373 0
M  V30 7708 C 765.835 -0.0745195 -2.10968 0
M  V30 7709 O 765.183 0.943594 -2.08107 0
M  V30 7710 C 765.393 -2.61807 -2.30777 0
M  V30 7711 C 766.741 -3.07037 -2.93281 0
M  V30 7712 O 767.765 -2.62203 -2.41097 0
M  V30 7713 O 766.624 -3.8485 -3.88011 0
M  V30 7714 H 763.718 -0.556602 -0.611656 0
M  V30 7715 H 766.264 -1.57689 -0.627069 0
M  V30 7716 H 765.036 -3.50017 -1.74939 0
M  V30 7717 H 764.659 -2.46688 -3.11818 0
M  V30 7718 N 765.656 0.84705 -1.32902 0
M  V30 7719 C 766.903 1.60176 -1.23894 0
M  V30 7720 C 767.231 1.93496 0.197341 0
M  V30 7721 O 766.486 1.58173 1.15238 0
M  V30 7722 C 766.785 2.92663 -2.05142 0
M  V30 7723 C 766.451 2.7874 -3.54422 0
M  V30 7724 C 765.113 2.7465 -3.95121 0
M  V30 7725 C 767.465 2.64128 -4.49317 0
M  V30 7726 C 764.793 2.53837 -5.28946 0
M  V30 7727 C 767.145 2.44849 -5.83294 0
M  V30 7728 C 765.809 2.39156 -6.23186 0
M  V30 7729 H 765.079 0.586127 -0.453361 0
M  V30 7730 H 767.726 0.981994 -1.64405 0
M  V30 7731 H 766.031 3.588 -1.57383 0
M  V30 7732 H 767.728 3.50095 -1.95537 0
M  V30 7733 H 764.318 2.82751 -3.22102 0
M  V30 7734 H 768.502 2.66327 -4.18788 0
M  V30 7735 H 763.758 2.4787 -5.58901 0
M  V30 7736 H 767.932 2.32524 -6.56434 0
M  V30 7737 H 765.559 2.22789 -7.26821 0
M  V30 7738 N 767.134 1.16236 1.06428 0
M  V30 7739 C 768.38 0.944431 1.79467 0
M  V30 7740 C 768.713 -0.526558 1.86925 0
M  V30 7741 O 767.988 -1.39061 1.35986 0
M  V30 7742 C 768.271 1.57092 3.24028 0
M  V30 7743 C 768.124 3.11315 3.24658 0
M  V30 7744 C 769.443 1.26447 4.21544 0
M  V30 7745 H 766.562 0.344521 0.651517 0
M  V30 7746 H 769.204 1.43545 1.24478 0
M  V30 7747 H 767.354 1.15337 3.70985 0
M  V30 7748 H 769.026 3.62042 2.85873 0
M  V30 7749 H 767.269 3.44716 2.6335 0
M  V30 7750 H 767.94 3.50269 4.26633 0
M  V30 7751 H 770.416 1.62581 3.83023 0
M  V30 7752 H 769.292 1.72885 5.20963 0
M  V30 7753 H 769.553 0.183068 4.41721 0
M  V30 7754 N 768.612 -1.24939 0.960631 0
M  V30 7755 C 769.575 -2.239 0.49006 0
M  V30 7756 C 770.575 -1.55497 -0.409535 0
M  V30 7757 O 771.765 -1.72978 -0.205984 0
M  V30 7758 C 768.897 -3.39654 -0.291193 0
M  V30 7759 H 770.09 -2.67044 1.36482 0
M  V30 7760 H 767.643 -1.37429 0.744505 0
M  V30 7761 H 768.378 -3.01939 -1.18336 0
M  V30 7762 H 768.163 -3.90496 0.354276 0
M  V30 7763 H 769.653 -4.13125 -0.609693 0
M  V30 7764 N 770.09 -0.729906 -1.39679 0
M  V30 7765 C 771.02 -0.101618 -2.33279 0
M  V30 7766 C 772.001 0.729854 -1.53646 0
M  V30 7767 O 773.186 0.67587 -1.82059 0
M  V30 7768 C 770.316 0.81024 -3.37716 0
M  V30 7769 C 769.27 0.0833126 -4.27919 0
M  V30 7770 C 768.596 1.11185 -5.23012 0
M  V30 7771 C 769.896 -1.07107 -5.112 0
M  V30 7772 H 771.59 -0.883452 -2.86069 0
M  V30 7773 H 769.136 -0.426283 -1.37546 0
M  V30 7774 H 771.089 1.25927 -4.02145 0
M  V30 7775 H 769.813 1.62413 -2.83354 0
M  V30 7776 H 768.472 -0.346043 -3.64963 0
M  V30 7777 H 768.12 1.91917 -4.64948 0
M  V30 7778 H 767.82 0.63026 -5.8421 0
M  V30 7779 H 769.344 1.56068 -5.90318 0
M  V30 7780 H 770.758 -0.700726 -5.69002 0
M  V30 7781 H 769.155 -1.48196 -5.81514 0
M  V30 7782 H 770.225 -1.89513 -4.46332 0
M  V30 7783 N 771.568 1.50203 -0.477153 0
M  V30 7784 C 772.531 2.27194 0.302599 0
M  V30 7785 C 773.531 1.32221 0.915112 0
M  V30 7786 O 774.721 1.55593 0.783348 0
M  V30 7787 C 771.853 3.0938 1.43167 0
M  V30 7788 H 773.046 2.97575 -0.372678 0
M  V30 7789 H 770.599 1.54578 -0.231392 0
M  V30 7790 H 771.334 2.43509 2.14182 0
M  V30 7791 H 771.119 3.79181 0.998197 0
M  V30 7792 H 772.609 3.67592 1.98157 0
M  V30 7793 N 773.046 0.209999 1.56195 0
M  V30 7794 C 773.956 -0.716459 2.23392 0
M  V30 7795 C 774.972 -1.22291 1.23778 0
M  V30 7796 O 776.148 -1.26694 1.56558 0
M  V30 7797 C 773.213 -1.91261 2.89172 0
M  V30 7798 C 772.274 -1.44927 4.04097 0
M  V30 7799 C 771.507 -2.5884 4.66731 0
M  V30 7800 O 771.73 -3.76693 4.2832 0
M  V30 7801 O 770.664 -2.30701 5.55932 0
M  V30 7802 H 774.49 -0.174089 3.03201 0
M  V30 7803 H 772.075 -0.0199505 1.49387 0
M  V30 7804 H 773.957 -2.6114 3.30733 0
M  V30 7805 H 772.632 -2.4433 2.12331 0
M  V30 7806 H 771.539 -0.718839 3.67129 0
M  V30 7807 H 772.872 -0.965084 4.82646 0
M  V30 7808 N 774.524 -1.57472 -0.0634922 0
M  V30 7809 C 775.487 -2.03268 -1.059 0
M  V30 7810 C 776.487 -0.931028 -1.31105 0
M  V30 7811 O 777.677 -1.19567 -1.26686 0
M  V30 7812 C 774.809 -2.42039 -2.40062 0
M  V30 7813 H 776.002 -2.92454 -0.664119 0
M  V30 7814 H 773.555 -1.53206 -0.309444 0
M  V30 7815 H 774.29 -1.55904 -2.84367 0
M  V30 7816 H 774.075 -3.22437 -2.23108 0
M  V30 7817 H 775.565 -2.78017 -3.11603 0
M  V30 7818 N 776.003 0.335068 -1.53997 0
M  V30 7819 C 776.951 1.43206 -1.83289 0
M  V30 7820 C 777.945 1.54081 -0.703953 0
M  V30 7821 O 779.151 1.56603 -0.887432 0
M  V30 7822 H 775.526 0.477655 -0.580818 0
M  V30 7823 H 777.497 1.15719 -2.75049 0
M  V30 7824 C 776.246 2.79602 -2.06683 0
M  V30 7825 H 775.569 2.72004 -2.93008 0
M  V30 7826 H 777.009 3.55459 -2.31139 0
M  V30 7827 C 775.468 3.25873 -0.854883 0
M  V30 7828 O 775.998 4.01657 -0.0584648 0
M  V30 7829 N 774.204 2.82777 -0.669729 0
M  V30 7830 H 773.751 2.21269 -1.31901 0
M  V30 7831 H 773.709 3.1409 0.13969 0
M  V30 7832 N 777.481 1.45874 0.596531 0
M  V30 7833 C 778.729 1.5017 1.35253 0
M  V30 7834 C 779.05 0.149246 1.94428 0
M  V30 7835 O 778.32 -0.82268 1.77789 0
M  V30 7836 H 776.9 0.553052 0.502138 0
M  V30 7837 H 779.562 1.81908 0.699671 0
M  V30 7838 H 778.658 2.24671 2.16632 0
M  V30 7839 N 778.959 -0.83999 1.33349 0
M  V30 7840 C 780.205 -1.59753 1.24927 0
M  V30 7841 C 780.538 -1.93318 -0.184855 0
M  V30 7842 O 779.813 -1.586 -1.12589 0
M  V30 7843 C 780.096 -2.90829 2.12345 0
M  V30 7844 C 779.949 -2.63953 3.6421 0
M  V30 7845 C 781.268 -3.92246 1.99577 0
M  V30 7846 H 778.387 -0.579654 0.45516 0
M  V30 7847 H 781.029 -0.968909 1.63439 0
M  V30 7848 H 779.179 -3.44478 1.79631 0
M  V30 7849 H 780.851 -2.16745 4.07209 0
M  V30 7850 H 779.094 -1.97671 3.86146 0
M  V30 7851 H 779.765 -3.57348 4.20721 0
M  V30 7852 H 782.241 -3.479 2.28265 0
M  V30 7853 H 781.117 -4.81793 2.62996 0
M  V30 7854 H 781.378 -4.3138 0.967673 0
M  V30 7855 N 780.437 -1.16799 -1.0581 0
M  V30 7856 C 781.714 -0.862616 -1.75551 0
M  V30 7857 C 782.094 0.6385 -2.01212 0
M  V30 7858 O 781.442 1.58784 -1.64317 0
M  V30 7859 C 781.652 -1.6907 -3.05314 0
M  V30 7860 C 783 -1.90675 -3.79379 0
M  V30 7861 O 784.024 -1.65976 -3.15167 0
M  V30 7862 O 782.883 -2.32145 -4.94743 0
M  V30 7863 H 779.977 -0.318789 -0.763088 0
M  V30 7864 H 782.523 -1.27461 -1.12034 0
M  V30 7865 H 781.295 -2.70912 -2.82352 0
M  V30 7866 H 780.918 -1.27606 -3.76567 0
M  V30 7867 N 781.915 1.24427 -0.967243 0
M  V30 7868 C 782.878 2.23637 -0.501927 0
M  V30 7869 C 783.878 1.55712 0.401283 0
M  V30 7870 O 785.068 1.73085 0.196808 0
M  V30 7871 C 782.2 3.39804 0.273176 0
M  V30 7872 H 783.393 2.66317 -1.37897 0
M  V30 7873 H 780.946 1.37033 -0.751783 0
M  V30 7874 H 781.681 3.02562 1.16733 0
M  V30 7875 H 781.466 3.90303 -0.37498 0
M  V30 7876 H 782.956 4.13443 0.587776 0
M  V30 7877 N 783.393 0.737304 1.3929 0
M  V30 7878 C 784.621 0.296573 2.04763 0
M  V30 7879 C 785.036 -1.06941 1.55592 0
M  V30 7880 O 784.393 -1.67619 0.721822 0
M  V30 7881 C 784.444 0.291906 3.6032 0
M  V30 7882 O 784.165 1.60397 4.07682 0
M  V30 7883 C 785.666 -0.164708 4.42994 0
M  V30 7884 H 782.886 0.129251 0.658434 0
M  V30 7885 H 785.43 1.0016 1.78293 0
M  V30 7886 H 783.585 -0.364251 3.85684 0
M  V30 7887 H 783.999 1.51909 5.0202 0
M  V30 7888 H 785.473 -0.116814 5.51876 0
M  V30 7889 H 785.95 -1.21022 4.22197 0
M  V30 7890 H 786.556 0.461968 4.22784 0
M  V30 7891 N 784.871 -1.49948 0.485112 0
M  V30 7892 C 786.287 -1.58984 0.140096 0
M  V30 7893 C 786.487 -1.49194 -1.35438 0
M  V30 7894 O 785.543 -1.35765 -2.12894 0
M  V30 7895 C 786.856 -2.92372 0.702769 0
M  V30 7896 C 788.404 -3.05801 0.66745 0
M  V30 7897 C 788.879 -4.41785 1.20791 0
M  V30 7898 N 790.37 -4.48234 1.16792 0
M  V30 7899 C 791.105 -5.51871 1.55646 0
M  V30 7900 N 790.601 -6.62692 2.02016 0
M  V30 7901 N 792.394 -5.42494 1.47161 0
M  V30 7902 H 784.545 -1.54555 1.45693 0
M  V30 7903 H 786.808 -0.731206 0.603359 0
M  V30 7904 H 786.514 -3.05056 1.75025 0
M  V30 7905 H 786.388 -3.76885 0.154205 0
M  V30 7906 H 788.775 -2.92757 -0.371157 0
M  V30 7907 H 788.856 -2.23011 1.25298 0
M  V30 7908 H 788.5 -4.55579 2.24522 0
M  V30 7909 H 788.43 -5.23188 0.598464 0
M  V30 7910 H 790.921 -3.68718 0.827982 0
M  V30 7911 H 791.234 -7.3785 2.29775 0
M  V30 7912 H 789.579 -6.63775 2.05979 0
M  V30 7913 H 792.77 -4.54806 1.10765 0
M  V30 7914 H 792.943 -6.2314 1.77766 0
M  V30 7915 N 786.349 -0.21828 -1.56081 0
M  V30 7916 C 787.312 0.679633 -2.18892 0
M  V30 7917 C 788.312 1.12405 -1.14986 0
M  V30 7918 O 789.502 1.03339 -1.40238 0
M  V30 7919 C 786.634 1.93063 -2.80962 0
M  V30 7920 H 787.827 0.132066 -2.99609 0
M  V30 7921 H 785.38 0.0313374 -1.56269 0
M  V30 7922 H 786.115 2.52015 -2.04106 0
M  V30 7923 H 785.9 1.62046 -3.57048 0
M  V30 7924 H 787.39 2.57043 -3.29118 0
M  V30 7925 N 787.827 1.57504 0.0551401 0
M  V30 7926 C 789.055 1.92294 0.76358 0
M  V30 7927 C 789.47 0.815774 1.70266 0
M  V30 7928 O 788.827 -0.209772 1.8129 0
M  V30 7929 C 788.878 3.26914 1.54302 0
M  V30 7930 O 788.599 4.33375 0.641666 0
M  V30 7931 C 790.1 3.75825 2.35097 0
M  V30 7932 H 787.32 0.635229 0.216159 0
M  V30 7933 H 789.864 2.0449 0.0204385 0
M  V30 7934 H 788.019 3.16196 2.23828 0
M  V30 7935 H 788.433 5.10927 1.1855 0
M  V30 7936 H 789.907 4.72603 2.8522 0
M  V30 7937 H 790.384 3.0568 3.15367 0
M  V30 7938 H 790.99 3.89542 1.70696 0
M  V30 7939 N 789.305 -0.326896 1.54172 0
M  V30 7940 C 790.253 -1.42232 1.84046 0
M  V30 7941 C 791.247 -1.53705 0.712115 0
M  V30 7942 O 792.453 -1.56131 0.895724 0
M  V30 7943 H 788.828 -0.474568 0.583343 0
M  V30 7944 H 790.799 -1.14259 2.75658 0
M  V30 7945 C 789.548 -2.78502 2.08163 0
M  V30 7946 H 788.871 -2.70447 2.94446 0
M  V30 7947 H 790.311 -3.54228 2.33021 0
M  V30 7948 C 788.77 -3.25415 0.872152 0
M  V30 7949 O 789.3 -4.01621 0.0797648 0
M  V30 7950 N 787.506 -2.82418 0.684716 0
M  V30 7951 H 787.053 -2.20566 1.33072 0
M  V30 7952 H 787.011 -3.14159 -0.123031 0
M  V30 7953 N 790.784 -1.46188 -0.588786 0
M  V30 7954 C 792.2 -1.31009 -0.911524 0
M  V30 7955 C 792.4 -0.277017 -1.99587 0
M  V30 7956 O 791.456 0.322532 -2.50432 0
M  V30 7957 C 792.769 -2.69459 -1.33463 0
M  V30 7958 C 794.317 -2.77502 -1.44782 0
M  V30 7959 C 794.792 -4.1652 -1.90461 0
M  V30 7960 N 796.283 -4.18907 -1.97665 0
M  V30 7961 C 797.018 -5.23359 -2.34271 0
M  V30 7962 N 796.514 -6.38143 -2.69714 0
M  V30 7963 N 798.307 -5.10723 -2.34774 0
M  V30 7964 H 790.458 -2.12016 0.127614 0
M  V30 7965 H 792.721 -0.947984 -0.00557599 0
M  V30 7966 H 792.427 -3.46336 -0.611929 0
M  V30 7967 H 792.301 -2.99165 -2.2974 0
M  V30 7968 H 794.688 -2.00917 -2.1614 0
M  V30 7969 H 794.769 -2.51488 -0.467724 0
M  V30 7970 H 794.413 -4.93597 -1.19684 0
M  V30 7971 H 794.343 -4.39937 -2.89418 0
M  V30 7972 H 796.834 -3.36084 -1.72789 0
M  V30 7973 H 797.147 -7.13624 -2.96582 0
M  V30 7974 H 795.492 -6.41514 -2.67366 0
M  V30 7975 H 798.683 -4.20088 -2.06503 0
M  V30 7976 H 798.856 -5.9224 -2.62975 0
M  V30 7977 N 792.262 0.832906 -1.33792 0
M  V30 7978 C 793.172 1.97514 -1.26592 0
M  V30 7979 C 794.188 1.73114 -0.175391 0
M  V30 7980 O 795.364 1.97387 -0.400062 0
M  V30 7981 C 792.429 3.31625 -1.01121 0
M  V30 7982 C 791.49 3.69101 -2.19233 0
M  V30 7983 C 790.723 4.96813 -1.94968 0
M  V30 7984 O 790.946 5.63208 -0.902955 0
M  V30 7985 O 789.88 5.31932 -2.8166 0
M  V30 7986 H 793.706 2.0653 -2.22664 0
M  V30 7987 H 791.291 0.966826 -1.13898 0
M  V30 7988 H 793.173 4.11968 -0.886571 0
M  V30 7989 H 791.848 3.23599 -0.080822 0
M  V30 7990 H 790.755 2.89243 -2.37253 0
M  V30 7991 H 792.088 3.818 -3.10628 0
M  V30 7992 N 793.74 1.17359 1.05189 0
M  V30 7993 C 794.65 0.904984 2.16442 0
M  V30 7994 C 795.666 -0.12686 1.73537 0
M  V30 7995 O 796.842 0.0524127 2.01332 0
M  V30 7996 C 793.907 0.422019 3.44122 0
M  V30 7997 C 792.968 1.52045 4.01473 0
M  V30 7998 C 792.201 1.06044 5.23059 0
M  V30 7999 O 792.424 -0.0854023 5.70336 0
M  V30 8000 O 791.358 1.85349 5.72651 0
M  V30 8001 H 795.184 1.8356 2.41949 0
M  V30 8002 H 792.769 0.95447 1.14936 0
M  V30 8003 H 794.651 0.160208 4.21095 0
M  V30 8004 H 793.326 -0.480444 3.20115 0
M  V30 8005 H 792.233 1.83615 3.25939 0
M  V30 8006 H 793.566 2.39863 4.29798 0
M  V30 8007 N 795.218 -1.23913 0.973828 0
M  V30 8008 C 796.148 -2.27453 0.527969 0
M  V30 8009 C 797.129 -1.6443 -0.435513 0
M  V30 8010 O 798.314 -1.9137 -0.330306 0
M  V30 8011 C 795.444 -3.4685 -0.176757 0
M  V30 8012 C 794.398 -4.22181 0.703352 0
M  V30 8013 C 793.724 -5.34534 -0.133215 0
M  V30 8014 C 795.024 -4.82865 1.99096 0
M  V30 8015 H 796.718 -2.65 1.3934 0
M  V30 8016 H 794.264 -1.27388 0.671446 0
M  V30 8017 H 796.217 -4.18424 -0.499934 0
M  V30 8018 H 794.941 -3.08346 -1.07659 0
M  V30 8019 H 793.6 -3.52416 1.00989 0
M  V30 8020 H 793.248 -4.92271 -1.03338 0
M  V30 8021 H 792.948 -5.85855 0.452494 0
M  V30 8022 H 794.472 -6.08933 -0.450924 0
M  V30 8023 H 795.886 -5.46481 1.73297 0
M  V30 8024 H 794.283 -5.44444 2.52389 0
M  V30 8025 H 795.353 -4.03977 2.68199 0
M  V30 8026 N 796.696 -0.74468 -1.38897 0
M  V30 8027 C 797.626 -0.126355 -2.33158 0
M  V30 8028 C 798.607 0.713517 -1.54412 0
M  V30 8029 O 799.792 0.656523 -1.82766 0
M  V30 8030 C 796.922 0.774375 -3.38557 0
M  V30 8031 C 795.876 0.0379214 -4.27983 0
M  V30 8032 C 795.202 1.05631 -5.24162 0
M  V30 8033 C 796.502 -1.12523 -5.10035 0
M  V30 8034 H 798.196 -0.913744 -2.85116 0
M  V30 8035 H 795.742 -0.440847 -1.37086 0
M  V30 8036 H 797.695 1.21655 -4.03458 0
M  V30 8037 H 796.419 1.59399 -2.85061 0
M  V30 8038 H 795.078 -0.384733 -3.64576 0
M  V30 8039 H 794.726 1.86975 -4.66958 0
M  V30 8040 H 794.426 0.568261 -5.84846 0
M  V30 8041 H 795.95 1.49799 -5.9194 0
M  V30 8042 H 797.364 -0.761037 -5.68226 0
M  V30 8043 H 795.761 -1.54355 -5.79909 0
M  V30 8044 H 796.831 -1.94237 -4.44297 0
M  V30 8045 N 798.174 1.49689 -0.493057 0
M  V30 8046 C 799.137 2.27502 0.278485 0
M  V30 8047 C 800.137 1.33184 0.901037 0
M  V30 8048 O 801.327 1.56415 0.766801 0
M  V30 8049 C 798.459 3.10881 1.39878 0
M  V30 8050 H 799.652 2.97163 -0.404219 0
M  V30 8051 H 797.205 1.54324 -0.247774 0
M  V30 8052 H 797.94 2.45767 2.11587 0
M  V30 8053 H 797.725 3.80219 0.957924 0
M  V30 8054 H 799.215 3.69673 1.94247 0
M  V30 8055 N 799.652 0.226554 1.55963 0
M  V30 8056 C 800.615 -0.668015 2.19249 0
M  V30 8057 C 801.615 -1.11794 1.1558 0
M  V30 8058 O 802.805 -1.02593 1.40784 0
M  V30 8059 C 799.937 -1.91571 2.81981 0
M  V30 8060 H 801.13 -0.116175 2.99675 0
M  V30 8061 H 798.683 -0.0230497 1.56283 0
M  V30 8062 H 799.418 -2.50929 2.05439 0
M  V30 8063 H 799.203 -1.6015 3.57903 0
M  V30 8064 H 800.693 -2.55294 3.30477 0
M  V30 8065 N 801.13 -1.57531 -0.0467866 0
M  V30 8066 C 802.06 -2.08425 -1.05268 0
M  V30 8067 C 803.041 -0.982941 -1.38825 0
M  V30 8068 O 804.226 -1.25716 -1.48018 0
M  V30 8069 C 801.356 -2.54897 -2.35891 0
M  V30 8070 C 800.31 -3.69132 -2.16623 0
M  V30 8071 C 799.636 -4.01747 -3.52851 0
M  V30 8072 C 800.936 -4.98243 -1.56689 0
M  V30 8073 H 802.63 -2.92716 -0.62908 0
M  V30 8074 H 800.176 -1.40816 -0.301156 0
M  V30 8075 H 802.129 -2.8912 -3.06574 0
M  V30 8076 H 800.853 -1.67666 -2.80278 0
M  V30 8077 H 799.512 -3.35231 -1.48377 0
M  V30 8078 H 799.16 -3.11608 -3.94853 0
M  V30 8079 H 798.86 -4.78681 -3.4079 0
M  V30 8080 H 800.384 -4.38487 -4.24925 0
M  V30 8081 H 801.798 -5.30535 -2.17268 0
M  V30 8082 H 800.195 -5.79669 -1.55255 0
M  V30 8083 H 801.265 -4.81986 -0.530827 0
M  V30 8084 N 802.608 0.318715 -1.54344 0
M  V30 8085 C 804.024 0.663345 -1.45162 0
M  V30 8086 C 804.224 1.9145 -0.62842 0
M  V30 8087 O 803.28 2.5217 -0.129126 0
M  V30 8088 C 804.593 0.832836 -2.88937 0
M  V30 8089 C 806.141 0.929866 -2.98869 0
M  V30 8090 C 806.616 1.13149 -4.43803 0
M  V30 8091 N 808.107 1.19811 -4.47437 0
M  V30 8092 C 808.842 1.37209 -5.56742 0
M  V30 8093 N 808.338 1.51619 -6.76006 0
M  V30 8094 N 810.131 1.39956 -5.44398 0
M  V30 8095 H 802.282 -0.50357 -2.06344 0
M  V30 8096 H 804.545 -0.163528 -0.933789 0
M  V30 8097 H 804.251 -0.0153519 -3.51697 0
M  V30 8098 H 804.125 1.72721 -3.35332 0
M  V30 8099 H 806.512 1.76855 -2.36233 0
M  V30 8100 H 806.593 0.0118561 -2.55797 0
M  V30 8101 H 806.237 0.297636 -5.07027 0
M  V30 8102 H 806.167 2.06345 -4.84489 0
M  V30 8103 H 808.658 1.101 -3.61506 0
M  V30 8104 H 808.971 1.64599 -7.55067 0
M  V30 8105 H 807.316 1.48708 -6.78904 0
M  V30 8106 H 810.507 1.28298 -4.50175 0
M  V30 8107 H 810.68 1.53172 -6.29637 0
M  V30 8108 N 804.086 1.46499 0.581025 0
M  V30 8109 C 805.033 1.5719 1.68997 0
M  V30 8110 C 806.003 0.416114 1.60803 0
M  V30 8111 O 807.188 0.633086 1.79991 0
M  V30 8112 C 804.328 1.56973 3.07333 0
M  V30 8113 C 803.441 2.83298 3.26139 0
M  V30 8114 C 802.576 2.74574 4.54734 0
M  V30 8115 C 801.615 3.9583 4.66889 0
M  V30 8116 N 800.752 3.85482 5.86811 0
M  V30 8117 H 805.592 2.51914 1.59196 0
M  V30 8118 H 803.129 1.24975 0.775857 0
M  V30 8119 H 805.087 1.54832 3.87405 0
M  V30 8120 H 803.717 0.657803 3.16027 0
M  V30 8121 H 802.769 2.95411 2.3966 0
M  V30 8122 H 804.081 3.7316 3.30988 0
M  V30 8123 H 803.235 2.70548 5.43036 0
M  V30 8124 H 801.974 1.82354 4.52325 0
M  V30 8125 H 800.979 4.00186 3.77003 0
M  V30 8126 H 802.204 4.89148 4.71075 0
M  V30 8127 H 800.15 2.96051 5.85397 0
M  V30 8128 H 800.067 4.69002 5.92936 0
M  V30 8129 H 801.335 3.85434 6.7754 0
M  V30 8130 N 805.565 -0.825799 1.34232 0
M  V30 8131 C 806.813 -1.57873 1.26177 0
M  V30 8132 C 807.134 -1.94267 -0.168904 0
M  V30 8133 O 806.404 -1.62045 -1.10084 0
M  V30 8134 H 804.984 -0.585388 0.464037 0
M  V30 8135 H 807.646 -0.986163 1.6811 0
M  V30 8136 H 806.742 -2.50283 1.86453 0
M  V30 8137 N 807.043 -1.17915 -1.04565 0
M  V30 8138 C 808.006 -0.903787 -2.10628 0
M  V30 8139 C 809.006 0.10873 -1.60432 0
M  V30 8140 O 810.196 -0.124152 -1.73757 0
M  V30 8141 C 807.328 -0.355017 -3.39046 0
M  V30 8142 H 808.521 -1.84425 -2.3649 0
M  V30 8143 H 806.074 -0.990477 -1.2091 0
M  V30 8144 H 806.809 0.592297 -3.18845 0
M  V30 8145 H 806.594 -1.08484 -3.76794 0
M  V30 8146 H 808.084 -0.180891 -4.17208 0
M  V30 8147 N 808.521 1.23394 -0.980386 0
M  V30 8148 C 809.431 2.28561 -0.528864 0
M  V30 8149 C 810.447 1.68946 0.416329 0
M  V30 8150 O 811.623 1.99355 0.286251 0
M  V30 8151 C 808.688 3.46323 0.16155 0
M  V30 8152 C 807.749 4.21297 -0.825044 0
M  V30 8153 C 806.982 5.33437 -0.167483 0
M  V30 8154 O 807.205 5.60812 1.04146 0
M  V30 8155 O 806.139 5.95637 -0.866047 0
M  V30 8156 H 809.965 2.69326 -1.40346 0
M  V30 8157 H 807.55 1.29325 -0.748019 0
M  V30 8158 H 809.432 4.17811 0.548841 0
M  V30 8159 H 808.107 3.0751 1.01092 0
M  V30 8160 H 807.014 3.52134 -1.26303 0
M  V30 8161 H 808.347 4.6396 -1.64322 0
M  V30 8162 N 809.999 0.752036 1.385 0
M  V30 8163 C 810.929 0.138718 2.33088 0
M  V30 8164 C 811.91 -0.705318 1.54788 0
M  V30 8165 O 813.095 -0.646821 1.83112 0
M  V30 8166 C 810.225 -0.75641 3.38963 0
M  V30 8167 C 809.179 -0.0152239 4.27997 0
M  V30 8168 C 808.505 -1.0285 5.24715 0
M  V30 8169 C 809.805 1.15226 5.09431 0
M  V30 8170 H 811.499 0.928852 2.84627 0
M  V30 8171 H 809.045 0.448111 1.3685 0
M  V30 8172 H 810.998 -1.19513 4.04097 0
M  V30 8173 H 809.722 -1.57885 2.85902 0
M  V30 8174 H 808.381 0.404061 3.64366 0
M  V30 8175 H 808.029 -1.84496 4.67943 0
M  V30 8176 H 807.729 -0.537238 5.85139 0
M  V30 8177 H 809.253 -1.46657 5.92726 0
M  V30 8178 H 810.667 0.791161 5.67815 0
M  V30 8179 H 809.064 1.57428 5.79082 0
M  V30 8180 H 810.134 1.9659 4.43261 0
M  V30 8181 N 811.477 -1.49425 0.500989 0
M  V30 8182 C 812.725 -2.02053 -0.0434495 0
M  V30 8183 C 813.046 -1.38285 -1.37486 0
M  V30 8184 O 812.316 -0.538171 -1.88363 0
M  V30 8185 H 810.896 -0.746757 -0.0190469 0
M  V30 8186 H 813.558 -1.83449 0.658227 0
M  V30 8187 H 812.654 -3.11619 -0.173129 0
M  V30 8188 N 812.955 -0.234822 -1.55841 0
M  V30 8189 C 814.371 0.120295 -1.59146 0
M  V30 8190 C 814.571 1.57896 -1.25184 0
M  V30 8191 O 813.627 2.32138 -0.993393 0
M  V30 8192 C 814.94 -0.217984 -2.99909 0
M  V30 8193 C 816.488 -0.161298 -3.12584 0
M  V30 8194 C 816.963 -0.473438 -4.55546 0
M  V30 8195 N 818.454 -0.423494 -4.6126 0
M  V30 8196 C 819.189 -0.638334 -5.69836 0
M  V30 8197 N 818.685 -0.915659 -6.86722 0
M  V30 8198 N 820.478 -0.569864 -5.59204 0
M  V30 8199 H 812.629 -1.18622 -1.76189 0
M  V30 8200 H 814.892 -0.476426 -0.819587 0
M  V30 8201 H 814.598 -1.2309 -3.29457 0
M  V30 8202 H 814.472 0.460707 -3.74376 0
M  V30 8203 H 816.859 0.842274 -2.82825 0
M  V30 8204 H 816.94 -0.873661 -2.40418 0
M  V30 8205 H 816.584 -1.47451 -4.86025 0
M  V30 8206 H 816.514 0.260268 -5.25956 0
M  V30 8207 H 819.005 -0.217383 -3.77274 0
M  V30 8208 H 819.318 -1.06734 -7.65394 0
M  V30 8209 H 817.663 -0.953 -6.88435 0
M  V30 8210 H 820.854 -0.35334 -4.66765 0
M  V30 8211 H 821.027 -0.740698 -6.43753 0
M  V30 8212 N 814.433 1.57553 0.0384317 0
M  V30 8213 C 815.844 1.77258 0.586211 0
M  V30 8214 C 816.195 0.864706 1.76117 0
M  V30 8215 O 815.32 0.057141 2.16325 0
M  V30 8216 C 815.915 3.21453 1.07021 0
M  V30 8217 C 814.474 3.42387 1.56358 0
M  V30 8218 C 813.621 2.72801 0.497508 0
M  V30 8219 H 816.572 1.57585 -0.187796 0
M  V30 8220 H 816.593 3.27451 1.93794 0
M  V30 8221 H 816.105 3.87505 0.214851 0
M  V30 8222 H 814.206 2.81497 2.44111 0
M  V30 8223 H 814.319 4.50968 1.61754 0
M  V30 8224 H 812.683 2.36305 0.95038 0
M  V30 8225 H 813.466 3.41529 -0.348234 0
M  V30 8226 N 815.911 -0.310526 1.54511 0
M  V30 8227 C 817.158 -1.04691 1.73338 0
M  V30 8228 C 817.486 -1.87584 0.514038 0
M  V30 8229 O 816.741 -1.89096 -0.504119 0
M  V30 8230 C 817.04 -1.98942 2.96912 0
M  V30 8231 C 816.706 -1.321 4.31115 0
M  V30 8232 C 815.368 -1.13603 4.67598 0
M  V30 8233 C 817.72 -0.842362 5.14348 0
M  V30 8234 C 815.048 -0.459102 5.84901 0
M  V30 8235 C 817.4 -0.179202 6.32346 0
M  V30 8236 C 816.064 0.0178111 6.67498 0
M  V30 8237 H 815.334 -0.38309 0.634289 0
M  V30 8238 H 817.981 -0.322723 1.88761 0
M  V30 8239 H 816.286 -2.77856 2.76231 0
M  V30 8240 H 817.983 -2.55972 3.08674 0
M  V30 8241 H 814.573 -1.47502 4.02419 0
M  V30 8242 H 818.757 -0.973013 4.86668 0
M  V30 8243 H 814.013 -0.295385 6.10686 0
M  V30 8244 H 818.187 0.199619 6.96114 0
M  V30 8245 H 815.814 0.544356 7.58249 0
M  V30 8246 N 817.389 -1.46805 -0.573248 0
M  V30 8247 C 818.319 -1.60951 -1.69165 0
M  V30 8248 C 819.3 -0.45948 -1.63777 0
M  V30 8249 O 820.485 -0.68688 -1.81647 0
M  V30 8250 C 817.615 -1.60844 -3.07809 0
M  V30 8251 C 816.569 -2.74913 -3.28035 0
M  V30 8252 C 815.895 -2.59871 -4.67302 0
M  V30 8253 C 817.195 -4.16654 -3.14955 0
M  V30 8254 H 818.889 -2.54574 -1.57582 0
M  V30 8255 H 816.435 -1.22516 -0.756686 0
M  V30 8256 H 818.388 -1.69334 -3.85881 0
M  V30 8257 H 817.112 -0.637714 -3.20314 0
M  V30 8258 H 815.771 -2.65908 -2.52366 0
M  V30 8259 H 815.419 -1.60861 -4.76585 0
M  V30 8260 H 815.119 -3.36386 -4.81786 0
M  V30 8261 H 816.643 -2.70265 -5.4753 0
M  V30 8262 H 818.057 -4.26721 -3.82861 0
M  V30 8263 H 816.454 -4.93831 -3.40956 0
M  V30 8264 H 817.524 -4.36146 -2.11908 0
M  V30 8265 N 818.867 0.818669 -1.34668 0
M  V30 8266 C 820.116 1.57017 -1.26604 0
M  V30 8267 C 820.429 1.94936 0.161036 0
M  V30 8268 O 821.635 2.69051 0.36386 0
M  V30 8269 C 820.091 2.83305 -2.2196 0
M  V30 8270 C 819.699 2.52671 -3.69948 0
M  V30 8271 C 821.443 3.61324 -2.22813 0
M  V30 8272 C 819.35 3.75178 -4.5716 0
M  V30 8273 H 818.28 0.589323 -0.470335 0
M  V30 8274 H 820.931 0.900956 -1.59859 0
M  V30 8275 H 819.313 3.51874 -1.81661 0
M  V30 8276 H 820.487 1.92186 -4.18809 0
M  V30 8277 H 818.802 1.8792 -3.71584 0
M  V30 8278 H 821.399 4.52294 -2.85192 0
M  V30 8279 H 821.742 3.97759 -1.22857 0
M  V30 8280 H 822.275 2.99703 -2.61578 0
M  V30 8281 H 819.014 3.43861 -5.58068 0
M  V30 8282 H 818.534 4.34931 -4.13031 0
M  V30 8283 H 820.213 4.42542 -4.71981 0
M  V30 8284 N 820.346 1.18468 1.03938 0
M  V30 8285 C 821.256 0.927889 2.1547 0
M  V30 8286 C 822.272 -0.108447 1.73662 0
M  V30 8287 O 823.448 0.0737636 2.01265 0
M  V30 8288 C 820.513 0.458494 3.43655 0
M  V30 8289 C 819.574 1.56295 3.99838 0
M  V30 8290 C 818.807 1.11586 5.21904 0
M  V30 8291 O 819.03 -0.0249057 5.70395 0
M  V30 8292 O 817.964 1.91412 5.70653 0
M  V30 8293 H 821.79 1.86116 2.39989 0
M  V30 8294 H 819.375 0.966607 1.13917 0
M  V30 8295 H 821.257 0.204861 4.20902 0
M  V30 8296 H 819.932 -0.446464 3.20606 0
M  V30 8297 H 818.839 1.87061 3.23974 0
M  V30 8298 H 820.172 2.44408 4.2723 0
M  V30 8299 N 821.824 -1.22873 0.986916 0
M  V30 8300 C 823.07 -1.91746 0.660401 0
M  V30 8301 C 823.403 -1.76738 -0.804812 0
M  V30 8302 O 822.678 -1.13246 -1.58131 0
M  V30 8303 C 822.961 -3.44156 1.05966 0
M  V30 8304 C 822.814 -3.68242 2.58298 0
M  V30 8305 C 824.133 -4.35874 0.60842 0
M  V30 8306 H 821.252 -0.696347 0.241391 0
M  V30 8307 H 823.894 -1.44867 1.22937 0
M  V30 8308 H 822.044 -3.84213 0.575534 0
M  V30 8309 H 823.716 -3.37626 3.14335 0
M  V30 8310 H 821.959 -3.12728 3.00638 0
M  V30 8311 H 822.63 -4.74956 2.81285 0
M  V30 8312 H 825.106 -4.03299 1.02417 0
M  V30 8313 H 823.982 -5.41201 0.916142 0
M  V30 8314 H 824.243 -4.39364 -0.491086 0
M  V30 8315 N 823.302 -0.75937 -1.38099 0
M  V30 8316 C 824.713 -0.385078 -1.82686 0
M  V30 8317 C 825.064 1.0871 -1.6333 0
M  V30 8318 O 824.189 1.84084 -1.13762 0
M  V30 8319 C 824.784 -0.692161 -3.31654 0
M  V30 8320 C 823.343 -0.371077 -3.74566 0
M  V30 8321 C 822.49 -0.942375 -2.60796 0
M  V30 8322 H 825.441 -0.955048 -1.26746 0
M  V30 8323 H 825.462 0.0276001 -3.8049 0
M  V30 8324 H 824.974 -1.76369 -3.4571 0
M  V30 8325 H 823.075 0.693637 -3.66087 0
M  V30 8326 H 823.188 -0.870672 -4.71122 0
M  V30 8327 H 821.552 -0.367383 -2.52036 0
M  V30 8328 H 822.335 -2.01905 -2.77649 0
M  V30 8329 N 824.78 1.49157 -0.508906 0
M  V30 8330 C 826.026 2.02773 0.0328469 0
M  V30 8331 C 826.359 1.38714 1.35912 0
M  V30 8332 O 825.634 0.525536 1.87266 0
M  V30 8333 C 825.917 3.59664 0.177088 0
M  V30 8334 C 825.77 4.34239 -1.17287 0
M  V30 8335 C 827.089 4.30505 0.913977 0
M  V30 8336 H 824.208 0.736926 0.0104631 0
M  V30 8337 H 826.85 1.781 -0.661851 0
M  V30 8338 H 825 3.80818 0.768774 0
M  V30 8339 H 826.672 4.24561 -1.80404 0
M  V30 8340 H 824.915 3.96486 -1.76016 0
M  V30 8341 H 825.586 5.42397 -1.02516 0
M  V30 8342 H 828.062 4.14054 0.412084 0
M  V30 8343 H 826.938 5.40012 0.983759 0
M  V30 8344 H 827.199 3.96302 1.95951 0
M  V30 8345 N 826.258 0.243083 1.55714 0
M  V30 8346 C 827.206 -0.674349 2.2261 0
M  V30 8347 C 828.2 -1.18307 1.21243 0
M  V30 8348 O 829.406 -1.1404 1.39265 0
M  V30 8349 H 825.781 -0.235941 0.714028 0
M  V30 8350 H 827.752 -0.0869446 2.98273 0
M  V30 8351 C 826.501 -1.86206 2.93637 0
M  V30 8352 H 825.824 -1.47975 3.71407 0
M  V30 8353 H 827.264 -2.4813 3.43813 0
M  V30 8354 C 825.723 -2.73084 1.97298 0
M  V30 8355 O 826.253 -3.72497 1.50361 0
M  V30 8356 N 824.459 -2.39571 1.64482 0
M  V30 8357 H 824.006 -1.5878 2.02846 0
M  V30 8358 H 823.964 -2.97976 1.00288 0
M  V30 8359 N 827.736 -1.57571 -0.0300757 0
M  V30 8360 C 828.966 -1.93204 -0.731828 0
M  V30 8361 C 829.374 -0.841156 -1.69473 0
M  V30 8362 O 828.717 0.191231 -1.82702 0
M  V30 8363 C 828.779 -3.2463 -1.54453 0
M  V30 8364 C 828.443 -4.50862 -0.746507 0
M  V30 8365 C 829.44 -5.19879 -0.0472309 0
M  V30 8366 C 827.125 -4.9738 -0.701347 0
M  V30 8367 C 829.119 -6.33692 0.686518 0
M  V30 8368 C 826.806 -6.11089 0.036148 0
M  V30 8369 C 827.804 -6.791 0.728841 0
M  V30 8370 O 827.492 -7.90635 1.45436 0
M  V30 8371 H 827.224 -0.6423 -0.210775 0
M  V30 8372 H 829.778 -2.05398 0.00804194 0
M  V30 8373 H 828.008 -3.0876 -2.32818 0
M  V30 8374 H 829.697 -3.45597 -2.1288 0
M  V30 8375 H 830.463 -4.84945 -0.0731582 0
M  V30 8376 H 826.342 -4.44288 -1.23001 0
M  V30 8377 H 829.886 -6.86711 1.22773 0
M  V30 8378 H 825.783 -6.45468 0.064002 0
M  V30 8379 H 826.551 -8.06988 1.36794 0
M  V30 8380 N 829.214 0.302327 -1.54673 0
M  V30 8381 C 830.491 1.05721 -1.64567 0
M  V30 8382 C 830.871 2.0526 -0.493108 0
M  V30 8383 O 830.219 2.22729 0.510315 0
M  V30 8384 C 830.429 1.74025 -3.02517 0
M  V30 8385 C 831.777 2.26271 -3.59286 0
M  V30 8386 O 832.801 1.8406 -3.0496 0
M  V30 8387 O 831.66 3.0361 -4.54404 0
M  V30 8388 H 828.754 0.488577 -0.667249 0
M  V30 8389 H 831.3 0.300521 -1.67018 0
M  V30 8390 H 830.072 1.0174 -3.77842 0
M  V30 8391 H 829.695 2.56454 -3.03838 0
M  V30 8392 N 830.692 1.47107 0.565454 0
M  V30 8393 C 831.939 1.53308 1.32299 0
M  V30 8394 C 832.267 0.1919 1.93551 0
M  V30 8395 O 831.522 -0.81435 1.77952 0
M  V30 8396 C 831.821 2.59309 2.45954 0
M  V30 8397 C 831.487 4.02827 2.02586 0
M  V30 8398 C 830.149 4.41897 1.90474 0
M  V30 8399 C 832.501 4.92913 1.6937 0
M  V30 8400 C 829.829 5.68898 1.4343 0
M  V30 8401 C 832.181 6.20368 1.238 0
M  V30 8402 C 830.845 6.58327 1.10278 0
M  V30 8403 H 830.115 0.560993 0.484116 0
M  V30 8404 H 832.762 1.80667 0.634965 0
M  V30 8405 H 831.067 2.25676 3.20277 0
M  V30 8406 H 832.764 2.61332 3.04149 0
M  V30 8407 H 829.354 3.71953 2.12952 0
M  V30 8408 H 833.538 4.63433 1.77605 0
M  V30 8409 H 828.794 5.97065 1.31618 0
M  V30 8410 H 832.968 6.89589 0.971586 0
M  V30 8411 H 830.595 7.56628 0.736027 0
M  V30 8412 N 832.17 -0.811516 1.35101 0
M  V30 8413 C 833.102 -1.93102 1.23468 0
M  V30 8414 C 834.115 -1.62021 0.159095 0
M  V30 8415 O 835.304 -1.73682 0.411945 0
M  V30 8416 C 832.404 -3.27345 0.877404 0
M  V30 8417 C 831.577 -3.86368 2.05033 0
M  V30 8418 C 830.636 -4.99009 1.66963 0
M  V30 8419 O 829.662 -5.16698 2.38772 0
M  V30 8420 N 830.864 -5.7749 0.590394 0
M  V30 8421 H 833.629 -2.0361 2.19916 0
M  V30 8422 H 831.19 -0.988687 1.28205 0
M  V30 8423 H 833.182 -4.00163 0.604298 0
M  V30 8424 H 831.752 -3.126 0.00275267 0
M  V30 8425 H 830.972 -3.05804 2.48752 0
M  V30 8426 H 832.26 -4.22533 2.83449 0
M  V30 8427 H 831.658 -5.657 -0.00633259 0
M  V30 8428 H 830.215 -6.50708 0.377055 0
M  V30 8429 N 833.648 -1.19017 -1.03309 0
M  V30 8430 C 835.059 -0.993206 -1.5809 0
M  V30 8431 C 835.41 0.45505 -1.9085 0
M  V30 8432 O 834.535 1.33372 -1.70414 0
M  V30 8433 C 835.13 -1.79661 -2.87241 0
M  V30 8434 C 833.689 -1.64377 -3.38611 0
M  V30 8435 C 832.836 -1.78628 -2.12102 0
M  V30 8436 H 835.787 -1.3345 -0.858879 0
M  V30 8437 H 835.808 -1.29019 -3.57958 0
M  V30 8438 H 835.32 -2.85061 -2.63366 0
M  V30 8439 H 833.421 -0.615447 -3.67482 0
M  V30 8440 H 833.534 -2.44651 -4.11926 0
M  V30 8441 H 831.898 -1.21648 -2.23772 0
M  V30 8442 H 832.681 -2.8548 -1.90673 0
M  V30 8443 N 835.127 1.22348 -0.993418 0
M  V30 8444 C 836.375 1.90733 -0.668246 0
M  V30 8445 C 836.696 1.77732 0.802261 0
M  V30 8446 O 835.966 1.16486 1.57505 0
M  V30 8447 H 834.546 0.705966 -0.244174 0
M  V30 8448 H 837.208 1.48691 -1.26004 0
M  V30 8449 H 836.304 2.97883 -0.931239 0
M  V30 8450 N 836.605 0.766683 1.37694 0
M  V30 8451 C 837.853 0.328065 1.9942 0
M  V30 8452 C 838.174 -1.09775 1.61166 0
M  V30 8453 O 837.444 -1.75288 0.874686 0
M  V30 8454 H 836.024 0.11831 0.737572 0
M  V30 8455 H 838.686 0.983686 1.68255 0
M  V30 8456 H 837.782 0.401647 3.09505 0
M  V30 8457 N 838.083 -1.48885 0.516809 0
M  V30 8458 C 839.33 -2.02488 -0.0220602 0
M  V30 8459 C 839.658 -1.39513 -1.35523 0
M  V30 8460 O 838.913 -0.52558 -1.8851 0
M  V30 8461 C 839.212 -3.56801 -0.206798 0
M  V30 8462 C 838.878 -4.38496 1.05035 0
M  V30 8463 C 837.54 -4.60538 1.39492 0
M  V30 8464 C 839.892 -4.85909 1.88525 0
M  V30 8465 C 837.22 -5.2724 2.57361 0
M  V30 8466 C 839.572 -5.53909 3.05561 0
M  V30 8467 C 838.236 -5.74193 3.4038 0
M  V30 8468 H 837.506 -0.740956 -0.00807238 0
M  V30 8469 H 840.153 -1.79014 0.680168 0
M  V30 8470 H 838.458 -3.79042 -0.991687 0
M  V30 8471 H 840.155 -3.95885 -0.638447 0
M  V30 8472 H 836.745 -4.2159 0.771984 0
M  V30 8473 H 840.929 -4.68694 1.63218 0
M  V30 8474 H 836.185 -5.41145 2.84556 0
M  V30 8475 H 840.359 -5.89619 3.7057 0
M  V30 8476 H 837.986 -6.25652 4.31814 0
M  V30 8477 N 839.561 -0.251338 -1.55583 0
M  V30 8478 C 840.809 0.371434 -1.98657 0
M  V30 8479 C 841.13 1.58143 -1.14087 0
M  V30 8480 O 840.4 1.94607 -0.224708 0
M  V30 8481 H 838.98 0.140225 -0.733721 0
M  V30 8482 H 841.642 -0.351157 -1.9171 0
M  V30 8483 H 840.738 0.677554 -3.04657 0
M  V30 8484 N 841.039 1.57585 0.0217189 0
M  V30 8485 C 842.002 2.06004 1.00474 0
M  V30 8486 C 843.002 0.965461 1.2859 0
M  V30 8487 O 844.192 1.22884 1.23471 0
M  V30 8488 C 841.324 2.48319 2.33561 0
M  V30 8489 H 842.517 2.94112 0.586346 0
M  V30 8490 H 840.07 1.53973 0.268716 0
M  V30 8491 H 840.805 1.63389 2.80133 0
M  V30 8492 H 840.59 3.28239 2.1448 0
M  V30 8493 H 842.08 2.86181 3.04122 0
M  V30 8494 N 842.517 -0.29412 1.54831 0
M  V30 8495 C 843.447 -1.36757 1.89261 0
M  V30 8496 C 844.428 -1.52564 0.752214 0
M  V30 8497 O 845.613 -1.65958 1.00855 0
M  V30 8498 C 842.743 -2.73066 2.14597 0
M  V30 8499 C 841.697 -2.72017 3.3044 0
M  V30 8500 C 841.023 -4.11679 3.4121 0
M  V30 8501 C 842.323 -2.33149 4.67375 0
M  V30 8502 H 844.017 -1.08191 2.79169 0
M  V30 8503 H 841.563 -0.519014 1.34321 0
M  V30 8504 H 843.516 -3.48255 2.37269 0
M  V30 8505 H 842.24 -3.03172 1.21467 0
M  V30 8506 H 840.899 -1.99285 3.07703 0
M  V30 8507 H 840.547 -4.38973 2.45584 0
M  V30 8508 H 840.247 -4.11877 4.19084 0
M  V30 8509 H 841.771 -4.88637 3.6615 0
M  V30 8510 H 843.185 -2.98054 4.89731 0
M  V30 8511 H 841.582 -2.44546 5.48012 0
M  V30 8512 H 842.652 -1.28275 4.67626 0
M  V30 8513 N 843.995 -1.47404 -0.557645 0
M  V30 8514 C 845.22 -1.57868 -1.34508 0
M  V30 8515 C 845.645 -0.229151 -1.86699 0
M  V30 8516 O 845.003 0.794908 -1.62944 0
M  V30 8517 C 845.051 -2.60712 -2.49122 0
M  V30 8518 O 844.155 -2.15952 -3.51338 0
M  V30 8519 H 843.496 -0.530335 -0.399551 0
M  V30 8520 H 846.026 -1.93181 -0.673954 0
M  V30 8521 H 846.036 -2.81118 -2.95697 0
M  V30 8522 H 844.711 -3.58701 -2.10491 0
M  V30 8523 H 843.288 -2.05644 -3.11071 0
M  V30 8524 N 845.473 0.80434 -1.35529 0
M  V30 8525 C 846.722 1.55665 -1.28263 0
M  V30 8526 C 847.035 1.95096 0.140352 0
M  V30 8527 O 848.241 2.69422 0.335303 0
M  V30 8528 C 846.697 2.80935 -2.24952 0
M  V30 8529 C 846.305 2.48733 -3.72607 0
M  V30 8530 C 848.049 3.5894 -2.26632 0
M  V30 8531 C 845.956 3.70308 -4.61114 0
M  V30 8532 H 844.886 0.584301 -0.476559 0
M  V30 8533 H 847.537 0.88395 -1.60806 0
M  V30 8534 H 845.919 3.49927 -1.85383 0
M  V30 8535 H 847.093 1.87733 -4.20824 0
M  V30 8536 H 845.408 1.83969 -3.73557 0
M  V30 8537 H 848.005 4.49244 -2.89973 0
M  V30 8538 H 848.348 3.96433 -1.27069 0
M  V30 8539 H 848.881 2.96912 -2.64742 0
M  V30 8540 H 845.62 3.37922 -5.61684 0
M  V30 8541 H 845.14 4.30526 -4.17621 0
M  V30 8542 H 846.819 4.37511 -4.76648 0
M  V30 8543 O 846.99 1.31082 0.943381 0
M  V30 8544 H 847.681 1.13016 1.57312 0
M  V30 END ATOM
M  V30 BEGIN BOND
M  V30 END BOND
M  V30 END CTAB
M  END
$$$$
