drugbank_target|Q9N623 Chloroquine resistance transporter (DB11638)
 OpenBabel12092121103D

  0  0  0     0  0            999 V3000
M  V30 BEGIN CTAB
M  V30 COUNTS 6920 6991 0 0 0
M  V30 BEGIN ATOM
M  V30 1 H -0.908 1.98254 -0.117106 0
M  V30 2 N 0 1.576 0 0
M  V30 3 C 0.933 2.03868 1.02534 0
M  V30 4 C 1.911 0.928543 1.3348 0
M  V30 5 O 3.095 1.19667 1.45644 0
M  V30 6 C 0.222 2.43627 2.35294 0
M  V30 7 C -0.732 3.65373 2.2001 0
M  V30 8 S 0.101 5.13292 1.52614 0
M  V30 9 C 1.257 5.56322 2.86805 0
M  V30 10 H 1.49 2.90518 0.631377 0
M  V30 11 H -0.977 1.52953 0.210867 0
M  V30 12 H 0.981 2.67203 3.11629 0
M  V30 13 H -0.358 1.57376 2.7183 0
M  V30 14 H -1.165 3.90944 3.18086 0
M  V30 15 H -1.563 3.418 1.51819 0
M  V30 16 H 0.729 5.58782 3.83104 0
M  V30 17 H 1.672 6.56266 2.65933 0
M  V30 18 H 2.08 4.83886 2.90714 0
M  V30 19 N 1.4781 -0.272755 1.55222 0
M  V30 20 C 2.4251 -1.33716 1.88119 0
M  V30 21 C 3.3951 -1.49066 0.73271 0
M  V30 22 O 4.5801 -1.63469 0.984002 0
M  V30 23 C 1.7201 -2.69238 2.15882 0
M  V30 24 C 0.8331 -2.62108 3.43399 0
M  V30 25 C -0.0319 -3.89811 3.60861 0
M  V30 26 C -0.9929 -3.77193 4.8207 0
M  V30 27 N -1.8559 -4.9673 4.96189 0
M  V30 28 H 2.9841 -1.04962 2.78903 0
M  V30 29 H 0.5211 -0.507088 1.38083 0
M  V30 30 H 2.4791 -3.48089 2.29978 0
M  V30 31 H 1.1091 -2.96194 1.28331 0
M  V30 32 H 0.1611 -1.74967 3.37773 0
M  V30 33 H 1.4731 -2.48685 4.32386 0
M  V30 34 H 0.6271 -4.77103 3.74777 0
M  V30 35 H -0.6339 -4.06102 2.7006 0
M  V30 36 H -1.6289 -2.88284 4.68159 0
M  V30 37 H -0.4039 -3.62421 5.74307 0
M  V30 38 H -2.4579 -5.13431 4.08319 0
M  V30 39 H -2.5409 -4.85839 5.79221 0
M  V30 40 H -1.2729 -5.85594 5.1449 0
M  V30 41 N 2.9562 -1.48159 -0.537278 0
M  V30 42 C 4.2032 -1.55804 -1.29349 0
M  V30 43 C 4.5312 -0.228802 -1.9315 0
M  V30 44 O 3.7862 0.780242 -1.79473 0
M  V30 45 C 4.0852 -2.63956 -2.40961 0
M  V30 46 C 3.7512 -4.0662 -1.94861 0
M  V30 47 C 2.4132 -4.45452 -1.82006 0
M  V30 48 C 4.7652 -4.96055 -1.59933 0
M  V30 49 C 2.0932 -5.71531 -1.32547 0
M  V30 50 C 4.4452 -6.22617 -1.11939 0
M  V30 51 C 3.1092 -6.60312 -0.976951 0
M  V30 52 H 2.3792 -0.570129 -0.473322 0
M  V30 53 H 5.0262 -1.81845 -0.600372 0
M  V30 54 H 3.3312 -2.31747 -3.15912 0
M  V30 55 H 5.0282 -2.67089 -2.99107 0
M  V30 56 H 1.6182 -3.75949 -2.05815 0
M  V30 57 H 5.8022 -4.66738 -1.68728 0
M  V30 58 H 1.0582 -5.99468 -1.202 0
M  V30 59 H 5.2322 -6.91318 -0.839811 0
M  V30 60 H 2.8592 -7.57895 -0.591501 0
M  V30 61 N 4.4343 0.785586 -1.36625 0
M  V30 62 C 5.3973 1.87999 -1.31107 0
M  V30 63 C 6.3973 1.59316 -0.217959 0
M  V30 64 O 7.5873 1.67656 -0.472977 0
M  V30 65 C 4.7193 3.24861 -1.03334 0
M  V30 66 H 5.9123 1.94307 -2.2844 0
M  V30 67 H 3.4653 0.983813 -1.21453 0
M  V30 68 H 4.2003 3.24235 -0.0647432 0
M  V30 69 H 3.9853 3.4707 -1.82441 0
M  V30 70 H 5.4753 4.04929 -1.02088 0
M  V30 71 N 5.9124 1.20967 1.01018 0
M  V30 72 C 7.1374 1.0503 1.78839 0
M  V30 73 C 7.5624 -0.395752 1.8389 0
M  V30 74 O 6.9204 -1.28529 1.27867 0
M  V30 75 C 6.9684 1.64602 3.2084 0
M  V30 76 O 6.0724 0.887988 4.02726 0
M  V30 77 H 5.4134 0.369987 0.551367 0
M  V30 78 H 7.9434 1.60399 1.27018 0
M  V30 79 H 7.9534 1.68607 3.71532 0
M  V30 80 H 6.6284 2.69841 3.16479 0
M  V30 81 H 5.2054 0.922648 3.61305 0
M  V30 82 N 7.3905 -1.2043 1.01659 0
M  V30 83 C 8.3375 -2.23215 0.586822 0
M  V30 84 C 9.3075 -1.61382 -0.393085 0
M  V30 85 O 10.4925 -1.88544 -0.292525 0
M  V30 86 C 7.6325 -3.45032 -0.0687464 0
M  V30 87 C 6.7455 -4.21296 0.955724 0
M  V30 88 C 5.8805 -5.30507 0.271208 0
M  V30 89 C 4.9195 -5.98515 1.28244 0
M  V30 90 N 4.0565 -6.99316 0.62459 0
M  V30 91 H 8.8965 -2.59336 1.46796 0
M  V30 92 H 6.4335 -1.27431 0.734836 0
M  V30 93 H 8.3915 -4.1459 -0.465965 0
M  V30 94 H 7.0215 -3.09604 -0.913529 0
M  V30 95 H 6.0735 -3.50803 1.4711 0
M  V30 96 H 7.3855 -4.6803 1.72479 0
M  V30 97 H 6.5395 -6.06428 -0.18151 0
M  V30 98 H 5.2785 -4.8481 -0.530163 0
M  V30 99 H 4.2835 -5.21355 1.74554 0
M  V30 100 H 5.5085 -6.46298 2.08509 0
M  V30 101 H 3.4545 -6.55812 -0.156914 0
M  V30 102 H 3.3715 -7.44178 1.33172 0
M  V30 103 H 4.6395 -7.79255 0.195462 0
M  V30 104 N 8.8686 -0.792821 -1.36206 0
M  V30 105 C 9.8156 -0.191653 -2.30003 0
M  V30 106 C 10.7856 0.666453 -1.52143 0
M  V30 107 O 11.9706 0.61442 -1.80636 0
M  V30 108 C 9.1106 0.664848 -3.38635 0
M  V30 109 C 8.2236 -0.212175 -4.31479 0
M  V30 110 C 7.3586 0.651022 -5.27196 0
M  V30 111 C 6.3976 -0.227247 -6.11678 0
M  V30 112 N 5.5346 0.595127 -6.99573 0
M  V30 113 H 10.3746 -0.996978 -2.80828 0
M  V30 114 H 7.9116 -0.503206 -1.38225 0
M  V30 115 H 9.8696 1.17645 -4.00269 0
M  V30 116 H 8.4996 1.43557 -2.89122 0
M  V30 117 H 7.5516 -0.841777 -3.70969 0
M  V30 118 H 8.8636 -0.888751 -4.90818 0
M  V30 119 H 8.0176 1.2283 -5.94136 0
M  V30 120 H 6.7566 1.36121 -4.68319 0
M  V30 121 H 5.7616 -0.816904 -5.43697 0
M  V30 122 H 6.9866 -0.93509 -6.72631 0
M  V30 123 H 4.9326 1.28955 -6.432 0
M  V30 124 H 4.8496 -0.0236952 -7.55996 0
M  V30 125 H 6.1176 1.15613 -7.70879 0
M  V30 126 N 10.3467 1.47872 -0.545128 0
M  V30 127 C 11.2947 2.31533 0.222512 0
M  V30 128 C 12.2887 1.42177 0.920985 0
M  V30 129 O 13.4947 1.59005 0.843645 0
M  V30 130 H 9.8697 0.746519 0.0906278 0
M  V30 131 H 11.8407 2.94139 -0.50246 0
M  V30 132 C 10.5897 3.2457 1.24699 0
M  V30 133 H 9.9127 3.93283 0.718944 0
M  V30 134 H 11.3527 3.85963 1.75523 0
M  V30 135 C 9.8117 2.47237 2.28856 0
M  V30 136 O 10.3417 2.20808 3.35569 0
M  V30 137 N 8.5477 2.08461 2.02466 0
M  V30 138 H 8.0947 2.30155 1.157 0
M  V30 139 H 8.0527 1.57033 2.72375 0
M  V30 140 N 11.8248 0.280983 1.55075 0
M  V30 141 C 12.7728 -0.619864 2.24188 0
M  V30 142 C 13.7668 -1.15315 1.24092 0
M  V30 143 O 14.9728 -1.1061 1.42005 0
M  V30 144 H 11.3478 -0.218459 0.719569 0
M  V30 145 H 13.3188 -0.0141831 2.98397 0
M  V30 146 C 12.0678 -1.7899 2.98091 0
M  V30 147 H 11.3908 -1.38874 3.74905 0
M  V30 148 H 12.8308 -2.39672 3.49762 0
M  V30 149 C 11.2898 -2.68192 2.03899 0
M  V30 150 O 11.8198 -3.6872 1.594 0
M  V30 151 N 10.0258 -2.35488 1.70275 0
M  V30 152 H 9.5728 -1.53787 2.06658 0
M  V30 153 H 9.5308 -2.95442 1.07524 0
M  V30 154 N 13.3029 -1.57598 0.00835791 0
M  V30 155 C 14.2349 -2.05811 -1.00868 0
M  V30 156 C 15.2479 -0.977579 -1.30182 0
M  V30 157 O 16.4369 -1.25421 -1.27011 0
M  V30 158 C 13.5369 -2.45016 -2.34137 0
M  V30 159 C 12.7099 -3.75903 -2.23643 0
M  V30 160 C 11.7689 -4.01884 -3.3967 0
M  V30 161 O 10.7949 -4.72433 -3.17483 0
M  V30 162 N 11.9969 -3.50432 -4.62793 0
M  V30 163 H 14.7619 -2.93684 -0.597458 0
M  V30 164 H 12.3229 -1.60909 -0.178852 0
M  V30 165 H 14.3149 -2.59506 -3.10546 0
M  V30 166 H 12.8849 -1.62618 -2.66972 0
M  V30 167 H 12.1049 -3.7141 -1.32091 0
M  V30 168 H 13.3929 -4.61695 -2.13812 0
M  V30 169 H 12.7909 -2.93317 -4.83716 0
M  V30 170 H 11.3479 -3.70236 -5.3644 0
M  V30 171 N 14.781 0.264519 -1.55364 0
M  V30 172 C 15.728 1.32717 -1.88825 0
M  V30 173 C 16.698 1.48675 -0.740605 0
M  V30 174 O 17.883 1.62945 -0.992657 0
M  V30 175 C 15.023 2.68089 -2.17307 0
M  V30 176 C 14.136 2.60284 -3.44785 0
M  V30 177 C 13.271 3.87892 -3.62924 0
M  V30 178 C 12.31 3.74631 -4.84064 0
M  V30 179 N 11.447 4.94092 -4.98816 0
M  V30 180 H 16.287 1.03481 -2.79456 0
M  V30 181 H 13.824 0.499757 -1.3835 0
M  V30 182 H 15.782 3.46864 -2.31821 0
M  V30 183 H 14.412 2.95509 -1.299 0
M  V30 184 H 13.464 1.73173 -3.38697 0
M  V30 185 H 14.776 2.46388 -4.33698 0
M  V30 186 H 13.93 4.75109 -3.77302 0
M  V30 187 H 12.669 4.04664 -2.7221 0
M  V30 188 H 11.674 2.85797 -4.69681 0
M  V30 189 H 12.899 3.5937 -5.76221 0
M  V30 190 H 10.845 5.11259 -4.11036 0
M  V30 191 H 10.762 4.8276 -5.81789 0
M  V30 192 H 12.03 5.82857 -5.17588 0
M  V30 193 N 16.2591 1.48442 0.529413 0
M  V30 194 C 17.2071 1.63452 1.65487 0
M  V30 195 C 18.2011 0.500955 1.61823 0
M  V30 196 O 19.4071 0.679695 1.66674 0
M  V30 197 H 15.7821 0.514905 0.548066 0
M  V30 198 H 17.7531 2.57975 1.49971 0
M  V30 199 C 16.5021 1.69196 3.03756 0
M  V30 200 H 15.8251 2.55784 3.07269 0
M  V30 201 H 17.2651 1.83743 3.82119 0
M  V30 202 C 15.7241 0.430765 3.34135 0
M  V30 203 O 16.2541 -0.4561 3.99102 0
M  V30 204 N 14.4601 0.302293 2.89023 0
M  V30 205 H 14.0071 1.02496 2.36331 0
M  V30 206 H 13.9651 -0.540546 3.09718 0
M  V30 207 N 17.7372 -0.778329 1.37039 0
M  V30 208 C 18.9622 -1.57248 1.35233 0
M  V30 209 C 19.3872 -1.87999 -0.0615568 0
M  V30 210 O 18.7452 -1.48734 -1.03672 0
M  V30 211 C 18.7932 -2.86353 2.19167 0
M  V30 212 O 17.8972 -3.80442 1.59178 0
M  V30 213 H 17.2382 -0.476569 0.462362 0
M  V30 214 H 19.7682 -0.963853 1.80474 0
M  V30 215 H 19.7782 -3.35519 2.32145 0
M  V30 216 H 18.4532 -2.63299 3.21942 0
M  V30 217 H 17.0302 -3.39067 1.55203 0
M  V30 218 N 19.2153 -1.21501 -1.00376 0
M  V30 219 C 20.4403 -1.05977 -1.78279 0
M  V30 220 C 20.8653 0.385994 -1.84097 0
M  V30 221 O 20.2233 1.27849 -1.28547 0
M  V30 222 C 20.2713 -1.66302 -3.19963 0
M  V30 223 O 19.3753 -0.909333 -4.0225 0
M  V30 224 H 18.7163 -0.372906 -0.549397 0
M  V30 225 H 21.2463 -1.6107 -1.26165 0
M  V30 226 H 21.2563 -1.70574 -3.70632 0
M  V30 227 H 19.9313 -2.71515 -3.15043 0
M  V30 228 H 18.5083 -0.941795 -3.60811 0
M  V30 229 N 20.6934 1.19889 -1.02296 0
M  V30 230 C 21.6404 2.22901 -0.598651 0
M  V30 231 C 22.6104 1.61588 0.384521 0
M  V30 232 O 23.7954 1.88697 0.282522 0
M  V30 233 C 20.9354 3.45063 0.0504476 0
M  V30 234 C 20.0484 4.20783 -0.978053 0
M  V30 235 C 19.1834 5.30356 -0.299338 0
M  V30 236 C 18.2224 5.97826 -1.31416 0
M  V30 237 N 17.3594 6.98975 -0.661667 0
M  V30 238 H 22.1994 2.58554 -1.48169 0
M  V30 239 H 19.7364 1.27039 -0.741584 0
M  V30 240 H 21.6944 4.14831 0.443971 0
M  V30 241 H 20.3244 3.10084 0.897097 0
M  V30 242 H 19.3764 3.50018 -1.48969 0
M  V30 243 H 20.6884 4.67109 -1.74958 0
M  V30 244 H 19.8424 6.06516 0.149347 0
M  V30 245 H 18.5814 4.85084 0.504445 0
M  V30 246 H 17.5864 5.20422 -1.77317 0
M  V30 247 H 18.8114 6.45183 -2.11933 0
M  V30 248 H 16.7574 6.55886 0.122132 0
M  V30 249 H 16.6744 7.43461 -1.37117 0
M  V30 250 H 17.9424 7.7914 -0.236785 0
M  V30 251 N 22.1715 0.800033 1.35784 0
M  V30 252 C 23.1195 0.193851 2.31791 0
M  V30 253 C 24.1135 -0.652744 1.56319 0
M  V30 254 O 25.3195 -0.546641 1.71499 0
M  V30 255 H 21.6945 0.04392 0.750716 0
M  V30 256 H 23.6655 1.01883 2.80468 0
M  V30 257 C 22.4145 -0.648338 3.41602 0
M  V30 258 H 21.7375 -0.00624665 3.998 0
M  V30 259 H 23.1775 -1.03898 4.11073 0
M  V30 260 C 21.6365 -1.8111 2.84079 0
M  V30 261 O 22.1665 -2.90825 2.77099 0
M  V30 262 N 20.3725 -1.62056 2.41218 0
M  V30 263 H 19.9195 -0.728123 2.47095 0
M  V30 264 H 19.8775 -2.40013 2.03079 0
M  V30 265 N 23.6496 -1.47581 0.552962 0
M  V30 266 C 24.9266 -1.95563 -0.0381515 0
M  V30 267 C 25.3066 -1.49552 -1.48988 0
M  V30 268 O 24.6546 -0.732414 -2.16444 0
M  V30 269 C 24.8646 -3.48848 0.102919 0
M  V30 270 C 26.2126 -4.24577 -0.0446082 0
M  V30 271 O 27.2366 -3.56187 0.0302548 0
M  V30 272 O 26.0956 -5.46116 -0.204923 0
M  V30 273 H 23.1896 -0.824321 -0.0665067 0
M  V30 274 H 25.7356 -1.58001 0.619186 0
M  V30 275 H 24.5076 -3.75129 1.11328 0
M  V30 276 H 24.1306 -3.93165 -0.592224 0
M  V30 277 N 25.1277 -0.289203 -1.54924 0
M  V30 278 C 26.0377 0.601863 -2.26748 0
M  V30 279 C 27.0537 1.15834 -1.2984 0
M  V30 280 O 28.2297 1.18564 -1.62802 0
M  V30 281 C 25.2947 1.76299 -2.98529 0
M  V30 282 C 24.3557 1.24178 -4.10948 0
M  V30 283 C 23.5887 2.34757 -4.79296 0
M  V30 284 O 23.8117 3.54411 -4.46933 0
M  V30 285 O 22.7457 2.02115 -5.66951 0
M  V30 286 H 26.5717 0.0195879 -3.03694 0
M  V30 287 H 24.1567 -0.0560868 -1.49295 0
M  V30 288 H 26.0387 2.43973 -3.43592 0
M  V30 289 H 24.7137 2.33209 -2.24488 0
M  V30 290 H 23.6207 0.531104 -3.70311 0
M  V30 291 H 24.9537 0.718252 -4.86931 0
M  V30 292 N 26.6058 1.57591 -0.0167156 0
M  V30 293 C 28.0218 1.55946 0.339557 0
M  V30 294 C 28.2218 1.02109 1.73713 0
M  V30 295 O 27.2778 0.662303 2.43659 0
M  V30 296 C 28.5908 3.00037 0.199499 0
M  V30 297 C 30.1388 3.11805 0.273193 0
M  V30 298 C 30.6138 4.57713 0.162068 0
M  V30 299 N 32.1048 4.6268 0.219444 0
M  V30 300 C 32.8398 5.73185 0.157054 0
M  V30 301 N 32.3358 6.92786 0.0442936 0
M  V30 302 N 34.1288 5.61707 0.21014 0
M  V30 303 H 26.2798 1.90921 -0.930758 0
M  V30 304 H 28.5428 0.877674 -0.358319 0
M  V30 305 H 28.2488 3.4333 -0.76273 0
M  V30 306 H 28.1228 3.64387 0.974786 0
M  V30 307 H 30.5098 2.68433 1.22587 0
M  V30 308 H 30.5908 2.50201 -0.532256 0
M  V30 309 H 30.2348 5.01763 -0.78714 0
M  V30 310 H 30.1648 5.17283 0.986222 0
M  V30 311 H 32.6558 3.76649 0.307246 0
M  V30 312 H 32.9688 7.728 0.00304069 0
M  V30 313 H 31.3138 6.94999 0.00968457 0
M  V30 314 H 34.5048 4.6716 0.296546 0
M  V30 315 H 34.6778 6.47807 0.158054 0
M  V30 316 N 28.0839 -0.256276 1.55502 0
M  V30 317 C 29.3139 -1.00196 1.80677 0
M  V30 318 C 29.7219 -1.79805 0.588797 0
M  V30 319 O 29.0649 -1.78055 -0.451883 0
M  V30 320 C 29.1269 -1.99515 2.99055 0
M  V30 321 C 28.7909 -1.38688 4.35448 0
M  V30 322 C 29.7879 -0.794079 5.138 0
M  V30 323 C 27.4729 -1.40906 4.82132 0
M  V30 324 C 29.4669 -0.231562 6.36979 0
M  V30 325 C 27.1539 -0.842684 6.05262 0
M  V30 326 C 28.1519 -0.254953 6.82524 0
M  V30 327 O 27.8399 0.3027 8.0333 0
M  V30 328 H 27.5719 -0.300919 0.60533 0
M  V30 329 H 30.1259 -0.287307 2.03381 0
M  V30 330 H 28.3559 -2.74785 2.72084 0
M  V30 331 H 30.0449 -2.60349 3.11405 0
M  V30 332 H 30.8109 -0.769519 4.78856 0
M  V30 333 H 26.6899 -1.85591 4.21992 0
M  V30 334 H 30.2339 0.227816 6.97228 0
M  V30 335 H 26.1309 -0.86454 6.39684 0
M  V30 336 H 26.8989 0.193662 8.18271 0
M  V30 337 N 29.562 -1.4872 -0.521534 0
M  V30 338 C 30.978 -1.35028 -0.850855 0
M  V30 339 C 31.178 -0.367712 -1.98116 0
M  V30 340 O 30.234 0.208037 -2.51642 0
M  V30 341 C 31.547 -2.75263 -1.21041 0
M  V30 342 C 33.095 -2.83813 -1.31981 0
M  V30 343 C 33.57 -4.24769 -1.71276 0
M  V30 344 N 35.061 -4.27482 -1.78363 0
M  V30 345 C 35.796 -5.33494 -2.1017 0
M  V30 346 N 35.292 -6.49775 -2.40343 0
M  V30 347 N 37.085 -5.20894 -2.11248 0
M  V30 348 H 29.236 -2.11214 0.22413 0
M  V30 349 H 31.499 -0.947252 0.0376439 0
M  V30 350 H 31.205 -3.48765 -0.453415 0
M  V30 351 H 31.079 -3.09327 -2.15863 0
M  V30 352 H 33.466 -2.10561 -2.06756 0
M  V30 353 H 33.547 -2.53358 -0.352596 0
M  V30 354 H 33.191 -4.9854 -0.970588 0
M  V30 355 H 33.121 -4.52673 -2.69062 0
M  V30 356 H 35.612 -3.43611 -1.57288 0
M  V30 357 H 35.925 -7.26402 -2.63743 0
M  V30 358 H 34.27 -6.53035 -2.37844 0
M  V30 359 H 37.461 -4.29065 -1.87139 0
M  V30 360 H 37.634 -6.03612 -2.35704 0
M  V30 361 N 31.0401 0.771051 -1.3745 0
M  V30 362 C 31.9501 1.91538 -1.35464 0
M  V30 363 C 32.9661 1.72134 -0.254123 0
M  V30 364 O 34.1421 1.95358 -0.489626 0
M  V30 365 C 31.2071 3.26671 -1.16134 0
M  V30 366 C 30.2681 3.58723 -2.35831 0
M  V30 367 C 29.5011 4.87409 -2.17413 0
M  V30 368 O 29.7241 5.58506 -1.15876 0
M  V30 369 O 28.6581 5.18539 -3.05615 0
M  V30 370 H 32.4841 1.96165 -2.31847 0
M  V30 371 H 30.0691 0.9139 -1.18187 0
M  V30 372 H 31.9511 4.07499 -1.07345 0
M  V30 373 H 30.6261 3.22894 -0.228251 0
M  V30 374 H 29.5331 2.78127 -2.50192 0
M  V30 375 H 30.8661 3.67243 -3.27709 0
M  V30 376 N 32.5182 1.22032 0.997298 0
M  V30 377 C 33.4482 1.01065 2.10495 0
M  V30 378 C 34.4292 -0.0669542 1.69968 0
M  V30 379 O 35.6142 0.0943987 1.9397 0
M  V30 380 C 32.7442 0.582874 3.42374 0
M  V30 381 C 31.6982 1.60592 3.96729 0
M  V30 382 C 31.0242 1.03412 5.24605 0
M  V30 383 C 32.3242 2.99478 4.27914 0
M  V30 384 H 34.0182 1.93708 2.28292 0
M  V30 385 H 31.5642 0.932761 1.09707 0
M  V30 386 H 33.5172 0.423332 4.19268 0
M  V30 387 H 32.2412 -0.379213 3.24391 0
M  V30 388 H 30.9002 1.75316 3.21963 0
M  V30 389 H 30.5482 0.063518 5.0296 0
M  V30 390 H 30.2482 1.71754 5.61938 0
M  V30 391 H 31.7722 0.886066 6.04137 0
M  V30 392 H 33.1862 2.88153 4.95622 0
M  V30 393 H 31.5832 3.64903 4.76409 0
M  V30 394 H 32.6532 3.49742 3.3587 0
M  V30 395 N 33.9963 -1.19345 1.0293 0
M  V30 396 C 35.2733 -1.84811 0.640642 0
M  V30 397 C 35.6533 -1.91855 -0.88062 0
M  V30 398 O 35.0013 -1.43587 -1.7775 0
M  V30 399 C 35.2113 -3.23755 1.30321 0
M  V30 400 C 36.5593 -3.99912 1.42673 0
M  V30 401 O 37.5833 -3.33155 1.26041 0
M  V30 402 O 36.4423 -5.19494 1.6967 0
M  V30 403 H 33.5363 -0.796443 0.222726 0
M  V30 404 H 36.0823 -1.26831 1.12748 0
M  V30 405 H 34.8543 -3.13466 2.34211 0
M  V30 406 H 34.4773 -3.89381 0.804261 0
M  V30 407 N 35.4744 -0.807222 -1.35358 0
M  V30 408 C 36.4224 -0.20614 -2.31685 0
M  V30 409 C 37.4164 0.644445 -1.56663 0
M  V30 410 O 38.6224 0.537538 -1.71786 0
M  V30 411 H 34.9974 -0.0479006 -0.750473 0
M  V30 412 H 36.9684 -1.03369 -2.79924 0
M  V30 413 C 35.7174 0.630212 -3.41941 0
M  V30 414 H 35.0404 -0.0149558 -3.99797 0
M  V30 415 H 36.4804 1.01716 -4.11619 0
M  V30 416 C 34.9394 1.79601 -2.85035 0
M  V30 417 O 35.4694 2.89351 -2.78637 0
M  V30 418 N 33.6754 1.60774 -2.42074 0
M  V30 419 H 33.2224 0.715009 -2.47478 0
M  V30 420 H 33.1804 2.38933 -2.04349 0
M  V30 421 N 36.9525 1.47285 -0.560781 0
M  V30 422 C 37.8825 2.32857 0.173105 0
M  V30 423 C 38.8635 1.44009 0.905281 0
M  V30 424 O 40.0485 1.7286 0.885046 0
M  V30 425 C 37.1785 3.25861 1.20133 0
M  V30 426 C 36.1325 4.23978 0.585388 0
M  V30 427 C 35.4585 5.06332 1.7185 0
M  V30 428 C 36.7585 5.20242 -0.463178 0
M  V30 429 H 38.4525 2.94466 -0.541307 0
M  V30 430 H 35.9985 1.41601 -0.261764 0
M  V30 431 H 37.9515 3.84569 1.72293 0
M  V30 432 H 36.6755 2.62315 1.94573 0
M  V30 433 H 35.3345 3.66501 0.085054 0
M  V30 434 H 34.9825 4.39186 2.45203 0
M  V30 435 H 34.6825 5.72762 1.31213 0
M  V30 436 H 36.2065 5.67899 2.24329 0
M  V30 437 H 37.6205 5.73293 -0.027502 0
M  V30 438 H 36.0175 5.94896 -0.788627 0
M  V30 439 H 37.0875 4.65504 -1.35773 0
M  V30 440 N 38.4306 0.297415 1.54768 0
M  V30 441 C 39.6766 -0.313376 2.00364 0
M  V30 442 C 40.0096 -1.53815 1.18553 0
M  V30 443 O 39.2846 -1.92739 0.261103 0
M  V30 444 C 39.5676 -0.673525 3.53745 0
M  V30 445 C 39.4206 0.560133 4.46299 0
M  V30 446 C 40.7396 -1.50143 4.13697 0
M  V30 447 H 37.8586 -0.112428 0.728374 0
M  V30 448 H 40.5006 0.4088 1.8555 0
M  V30 449 H 38.6506 -1.28881 3.665 0
M  V30 450 H 40.3226 1.19863 4.45455 0
M  V30 451 H 38.5656 1.19405 4.17043 0
M  V30 452 H 39.2366 0.26405 5.51368 0
M  V30 453 H 41.7126 -0.981588 4.04356 0
M  V30 454 H 40.5886 -1.72221 5.21182 0
M  V30 455 H 40.8496 -2.48952 3.65343 0
M  V30 456 N 39.9087 -1.5758 0.0250728 0
M  V30 457 C 40.8407 -2.06869 -0.986796 0
M  V30 458 C 41.8537 -0.991332 -1.29137 0
M  V30 459 O 43.0427 -1.26761 -1.25674 0
M  V30 460 C 40.1427 -2.47486 -2.31525 0
M  V30 461 C 39.3157 -3.78253 -2.19643 0
M  V30 462 C 38.3747 -4.05464 -3.35388 0
M  V30 463 O 37.4007 -4.75774 -3.12454 0
M  V30 464 N 38.6027 -3.55321 -4.59051 0
M  V30 465 H 41.3677 -2.94302 -0.566276 0
M  V30 466 H 38.9287 -1.6109 -0.161776 0
M  V30 467 H 40.9207 -2.62785 -3.07776 0
M  V30 468 H 39.4907 -1.65441 -2.65232 0
M  V30 469 H 38.7107 -3.7279 -1.28144 0
M  V30 470 H 39.9987 -4.63936 -2.08903 0
M  V30 471 H 39.3967 -2.98431 -4.80578 0
M  V30 472 H 37.9537 -3.75905 -5.32483 0
M  V30 473 N 41.3868 0.248026 -1.55636 0
M  V30 474 C 42.2968 1.32859 -1.93354 0
M  V30 475 C 43.3128 1.52719 -0.833838 0
M  V30 476 O 44.4888 1.66363 -1.13513 0
M  V30 477 C 41.5538 2.66337 -2.21958 0
M  V30 478 C 40.6148 2.55008 -3.45354 0
M  V30 479 C 39.8478 3.82121 -3.72584 0
M  V30 480 O 40.0708 4.83951 -3.01907 0
M  V30 481 O 39.0048 3.80822 -4.6611 0
M  V30 482 H 42.8308 1.03862 -2.85388 0
M  V30 483 H 40.4158 0.448686 -1.42503 0
M  V30 484 H 42.2978 3.45216 -2.4167 0
M  V30 485 H 40.9728 2.95068 -1.33103 0
M  V30 486 H 39.8798 1.7442 -3.30951 0
M  V30 487 H 41.2128 2.31222 -4.34508 0
M  V30 488 N 42.8649 1.48995 0.513639 0
M  V30 489 C 44.1129 1.57531 1.26604 0
M  V30 490 C 44.4339 0.258236 1.93283 0
M  V30 491 O 43.7039 -0.721502 1.8213 0
M  V30 492 H 42.2839 0.580387 0.470276 0
M  V30 493 H 44.9459 1.85552 0.596373 0
M  V30 494 H 44.0419 2.36486 2.03669 0
M  V30 495 N 44.343 -0.763751 1.37857 0
M  V30 496 C 45.291 -1.89864 1.34367 0
M  V30 497 C 46.285 -1.67816 0.231143 0
M  V30 498 O 47.491 -1.75508 0.399617 0
M  V30 499 H 43.866 -0.624501 0.41893 0
M  V30 500 H 45.837 -1.89925 2.30155 0
M  V30 501 C 44.586 -3.27227 1.1755 0
M  V30 502 H 43.909 -3.44773 2.02414 0
M  V30 503 H 45.349 -4.06911 1.1916 0
M  V30 504 C 43.808 -3.36692 -0.118311 0
M  V30 505 O 44.338 -3.86374 -1.09902 0
M  V30 506 N 42.544 -2.90092 -0.171717 0
M  V30 507 H 42.091 -2.49853 0.627012 0
M  V30 508 H 42.049 -2.96806 -1.03699 0
M  V30 509 N 45.8211 -1.22559 -0.990812 0
M  V30 510 C 47.0691 -1.04933 -1.72724 0
M  V30 511 C 47.3901 0.416158 -1.90508 0
M  V30 512 O 46.6601 1.29918 -1.46622 0
M  V30 513 H 45.2401 -0.385296 -0.639965 0
M  V30 514 H 47.9021 -1.54105 -1.19322 0
M  V30 515 H 46.9981 -1.52886 -2.72089 0
M  V30 516 N 47.2992 1.18797 -1.03562 0
M  V30 517 C 48.5242 1.9314 -0.755764 0
M  V30 518 C 48.9492 1.7537 0.68022 0
M  V30 519 O 48.3072 1.06046 1.47051 0
M  V30 520 C 48.3552 3.42747 -1.12058 0
M  V30 521 O 47.4592 4.11683 -0.243124 0
M  V30 522 H 46.8002 0.602724 -0.278604 0
M  V30 523 H 49.3302 1.50678 -1.3841 0
M  V30 524 H 49.3402 3.93437 -1.08035 0
M  V30 525 H 48.0152 3.55002 -2.16672 0
M  V30 526 H 46.5922 3.71323 -0.342539 0
M  V30 527 N 48.7773 0.814389 1.34928 0
M  V30 528 C 50.1933 0.499084 1.51596 0
M  V30 529 C 50.3933 -0.978319 1.76157 0
M  V30 530 O 49.4493 -1.76309 1.80752 0
M  V30 531 C 50.7623 1.35121 2.68631 0
M  V30 532 C 52.3103 1.34746 2.82511 0
M  V30 533 C 52.7853 2.18388 4.0258 0
M  V30 534 N 54.2763 2.15966 4.09772 0
M  V30 535 C 55.0113 2.77437 5.01813 0
M  V30 536 N 54.5073 3.47866 5.99134 0
M  V30 537 N 56.3003 2.67037 4.94619 0
M  V30 538 H 48.4513 1.7711 1.17243 0
M  V30 539 H 50.7143 0.754256 0.574284 0
M  V30 540 H 50.4203 2.40001 2.57085 0
M  V30 541 H 50.2943 1.00991 3.63429 0
M  V30 542 H 52.6813 0.30648 2.93504 0
M  V30 543 H 52.7623 1.72869 1.88547 0
M  V30 544 H 52.4063 3.2253 3.92347 0
M  V30 545 H 52.3363 1.77621 4.9574 0
M  V30 546 H 54.8273 1.64729 3.40107 0
M  V30 547 H 55.1403 3.92038 6.65977 0
M  V30 548 H 53.4853 3.51972 5.99284 0
M  V30 549 H 56.6763 2.11597 4.17546 0
M  V30 550 H 56.8493 3.15232 5.66156 0
M  V30 551 N 50.2554 -1.46986 0.568584 0
M  V30 552 C 51.1854 -2.32946 -0.160753 0
M  V30 553 C 52.1664 -1.44487 -0.897631 0
M  V30 554 O 53.3514 -1.73327 -0.875867 0
M  V30 555 C 50.4814 -3.26494 -1.18403 0
M  V30 556 C 49.4354 -4.24282 -0.562895 0
M  V30 557 C 48.7614 -5.07236 -1.69163 0
M  V30 558 C 50.0614 -5.19989 0.490761 0
M  V30 559 H 51.7554 -2.94175 0.556916 0
M  V30 560 H 49.3014 -1.4146 0.26927 0
M  V30 561 H 51.2544 -3.85477 -1.70251 0
M  V30 562 H 49.9784 -2.63343 -1.93179 0
M  V30 563 H 48.6374 -3.66541 -0.0656164 0
M  V30 564 H 48.2854 -4.4048 -2.42871 0
M  V30 565 H 47.9854 -5.7345 -1.28174 0
M  V30 566 H 49.5094 -5.6908 -2.21314 0
M  V30 567 H 50.9234 -5.73271 0.0579047 0
M  V30 568 H 49.3204 -5.94469 0.820165 0
M  V30 569 H 50.3904 -4.64777 1.3824 0
M  V30 570 N 51.7335 -0.305618 -1.54608 0
M  V30 571 C 52.9815 0.301701 -1.99835 0
M  V30 572 C 53.3025 1.54054 -1.19551 0
M  V30 573 O 52.5725 1.93702 -0.292658 0
M  V30 574 H 51.1525 0.114468 -0.738178 0
M  V30 575 H 53.8145 -0.418016 -1.90364 0
M  V30 576 H 52.9105 0.570548 -3.06841 0
M  V30 577 N 53.2116 1.57565 -0.0334293 0
M  V30 578 C 54.4596 1.91598 0.642999 0
M  V30 579 C 54.7806 0.910847 1.7242 0
M  V30 580 O 54.0506 -0.0469931 1.95844 0
M  V30 581 H 52.6306 0.707228 0.240496 0
M  V30 582 H 55.2926 1.94726 -0.0822488 0
M  V30 583 H 54.3886 2.92336 1.09298 0
M  V30 584 N 54.6897 -0.239769 1.55765 0
M  V30 585 C 55.9377 -0.964892 1.77579 0
M  V30 586 C 56.2587 -1.85582 0.598699 0
M  V30 587 O 55.5287 -1.92075 -0.385226 0
M  V30 588 H 54.1087 -0.359265 0.654933 0
M  V30 589 H 56.7707 -0.256001 1.93211 0
M  V30 590 H 55.8667 -1.58243 2.69009 0
M  V30 591 N 56.1678 -1.49265 -0.50573 0
M  V30 592 C 57.3928 -1.62478 -1.28902 0
M  V30 593 C 57.8178 -0.294332 -1.85783 0
M  V30 594 O 57.1758 0.737412 -1.65626 0
M  V30 595 C 57.2238 -2.69268 -2.39848 0
M  V30 596 O 56.3278 -2.28113 -3.43567 0
M  V30 597 H 55.6688 -0.54399 -0.380751 0
M  V30 598 H 58.1988 -1.95421 -0.605952 0
M  V30 599 H 58.2088 -2.91291 -2.85681 0
M  V30 600 H 56.8838 -3.65846 -1.97812 0
M  V30 601 H 55.4608 -2.16401 -3.03685 0
M  V30 602 N 57.6459 0.756429 -1.3826 0
M  V30 603 C 58.8859 1.52833 -1.35725 0
M  V30 604 C 59.2499 1.91926 0.0534106 0
M  V30 605 O 60.4509 2.68028 0.203613 0
M  V30 606 C 58.7219 2.74919 -2.28373 0
M  V30 607 S 60.2809 3.64817 -2.43832 0
M  V30 608 H 57.0989 0.523043 -0.481608 0
M  V30 609 H 59.7009 0.888212 -1.74158 0
M  V30 610 H 58.4049 2.44304 -3.29763 0
M  V30 611 H 57.9359 3.43878 -1.91079 0
M  V30 612 H 59.9509 4.676 -1.66027 0
M  V30 613 N 59.124 1.23083 0.984299 0
M  V30 614 C 60.054 1.03292 2.09411 0
M  V30 615 C 61.035 -0.048923 1.7003 0
M  V30 616 O 62.22 0.114967 1.93859 0
M  V30 617 C 59.35 0.619155 3.41736 0
M  V30 618 C 58.304 1.64791 3.95004 0
M  V30 619 C 57.63 1.0897 5.23478 0
M  V30 620 C 58.93 3.03999 4.24714 0
M  V30 621 H 60.624 1.96119 2.26225 0
M  V30 622 H 58.17 0.944344 1.08711 0
M  V30 623 H 60.123 0.467777 4.18796 0
M  V30 624 H 58.847 -0.344786 3.24775 0
M  V30 625 H 57.506 1.78721 3.20085 0
M  V30 626 H 57.154 0.11686 5.02864 0
M  V30 627 H 56.854 1.77704 5.60085 0
M  V30 628 H 58.378 0.950093 6.03163 0
M  V30 629 H 59.792 2.93393 4.92538 0
M  V30 630 H 58.189 3.69936 4.72512 0
M  V30 631 H 59.259 3.53285 3.32142 0
M  V30 632 N 60.6021 -1.18246 1.0419 0
M  V30 633 C 61.8501 -1.87886 0.744543 0
M  V30 634 C 62.1711 -1.8082 -0.730006 0
M  V30 635 O 61.4411 -1.22736 -1.52685 0
M  V30 636 H 60.0211 -0.695556 0.272417 0
M  V30 637 H 62.6831 -1.43494 1.31892 0
M  V30 638 H 61.7791 -2.9389 1.05049 0
M  V30 639 N 62.0802 -0.821533 -1.34494 0
M  V30 640 C 63.0272 -0.240397 -2.29545 0
M  V30 641 C 63.9972 0.634031 -1.53523 0
M  V30 642 O 65.1822 0.575966 -1.81899 0
M  V30 643 C 62.3222 0.592869 -3.39969 0
M  V30 644 C 61.4352 -0.30365 -4.30932 0
M  V30 645 C 60.5702 0.539049 -5.28458 0
M  V30 646 C 59.6092 -0.356942 -6.11058 0
M  V30 647 N 58.7462 0.446603 -7.00678 0
M  V30 648 H 63.5862 -1.05632 -2.7865 0
M  V30 649 H 61.1232 -0.532413 -1.37127 0
M  V30 650 H 63.0812 1.09129 -4.02675 0
M  V30 651 H 61.7112 1.37392 -2.92102 0
M  V30 652 H 60.7632 -0.920276 -3.691 0
M  V30 653 H 62.0752 -0.992661 -4.88823 0
M  V30 654 H 61.2292 1.102 -5.96608 0
M  V30 655 H 59.9682 1.26157 -4.71101 0
M  V30 656 H 58.9732 -0.932047 -5.41842 0
M  V30 657 H 60.1982 -1.07755 -6.70497 0
M  V30 658 H 58.1442 1.15282 -6.45791 0
M  V30 659 H 58.0612 -0.184048 -7.55776 0
M  V30 660 H 59.3292 0.992352 -7.73158 0
M  V30 661 N 63.5583 1.46682 -0.576371 0
M  V30 662 C 64.7983 2.04306 -0.0621356 0
M  V30 663 C 65.1623 1.4389 1.2712 0
M  V30 664 O 66.3633 1.92675 1.87429 0
M  V30 665 C 64.6343 3.57399 0.00927922 0
M  V30 666 S 66.1933 4.36309 0.466859 0
M  V30 667 H 63.0113 0.710167 -0.0344016 0
M  V30 668 H 65.6133 1.79807 -0.767437 0
M  V30 669 H 64.3173 3.98889 -0.965178 0
M  V30 670 H 63.8483 3.86424 0.737547 0
M  V30 671 H 65.8633 4.6533 1.72287 0
M  V30 672 N 65.0364 0.313813 1.54444 0
M  V30 673 C 65.9994 -0.54379 2.22656 0
M  V30 674 C 66.9994 -1.05124 1.21678 0
M  V30 675 O 68.1894 -0.945225 1.46325 0
M  V30 676 C 65.3214 -1.75427 2.92298 0
M  V30 677 H 66.5144 0.0523599 2.99854 0
M  V30 678 H 64.0674 0.0647834 1.56166 0
M  V30 679 H 64.8024 -2.38991 2.19211 0
M  V30 680 H 64.5874 -1.39791 3.66334 0
M  V30 681 H 66.0774 -2.36325 3.44297 0
M  V30 682 N 66.5145 -1.57545 0.0417849 0
M  V30 683 C 67.4645 -2.07483 -0.945247 0
M  V30 684 C 68.4485 -0.977983 -1.27767 0
M  V30 685 O 69.6405 -1.24142 -1.26166 0
M  V30 686 C 66.7695 -2.61576 -2.22335 0
M  V30 687 C 65.8555 -3.78213 -1.91874 0
M  V30 688 N 66.2465 -4.88344 -1.31733 0
M  V30 689 C 64.5445 -3.8694 -2.21796 0
M  V30 690 C 65.2455 -5.69462 -1.1869 0
M  V30 691 N 64.2215 -5.16771 -1.68666 0
M  V30 692 H 68.0235 -2.90029 -0.475441 0
M  V30 693 H 65.5375 -1.61581 -0.162911 0
M  V30 694 H 67.5345 -2.95651 -2.93932 0
M  V30 695 H 66.1945 -1.80465 -2.69931 0
M  V30 696 H 67.2055 -5.08335 -0.990729 0
M  V30 697 H 63.8825 -3.16757 -2.71977 0
M  V30 698 H 65.2725 -6.68023 -0.720793 0
M  V30 699 N 67.9926 0.231505 -1.5589 0
M  V30 700 C 69.2386 0.95877 -1.78705 0
M  V30 701 C 69.5716 1.8438 -0.609725 0
M  V30 702 O 68.8466 1.90521 0.391426 0
M  V30 703 C 69.1296 1.8062 -3.11526 0
M  V30 704 C 68.9826 0.948328 -4.39689 0
M  V30 705 C 70.3016 2.78585 -3.40703 0
M  V30 706 H 67.4206 0.347129 -0.650131 0
M  V30 707 H 70.0626 0.228259 -1.88624 0
M  V30 708 H 68.2126 2.42902 -3.03201 0
M  V30 709 H 69.8846 0.343016 -4.60023 0
M  V30 710 H 68.1276 0.253314 -4.3306 0
M  V30 711 H 68.7986 1.57543 -5.29041 0
M  V30 712 H 71.2746 2.26439 -3.49091 0
M  V30 713 H 70.1506 3.34988 -4.34826 0
M  V30 714 H 70.4116 3.55825 -2.62375 0
M  V30 715 N 69.4707 1.49531 0.497807 0
M  V30 716 C 70.7177 1.59179 1.25173 0
M  V30 717 C 71.0457 0.279932 1.92475 0
M  V30 718 O 70.3007 -0.732383 1.81479 0
M  V30 719 C 70.5997 2.70252 2.33878 0
M  V30 720 C 70.2657 4.11644 1.84012 0
M  V30 721 C 68.9277 4.50121 1.70132 0
M  V30 722 C 71.2797 5.00121 1.46725 0
M  V30 723 C 68.6077 5.74845 1.17348 0
M  V30 724 C 70.9597 6.25366 0.95392 0
M  V30 725 C 69.6237 6.6267 0.801538 0
M  V30 726 H 68.8937 0.582478 0.45804 0
M  V30 727 H 71.5407 1.83373 0.551948 0
M  V30 728 H 69.8457 2.40041 3.09657 0
M  V30 729 H 71.5427 2.74925 2.9192 0
M  V30 730 H 68.1327 3.81274 1.95775 0
M  V30 731 H 72.3167 4.71048 1.56294 0
M  V30 732 H 67.5727 6.02444 1.04264 0
M  V30 733 H 71.7467 6.93301 0.656225 0
M  V30 734 H 69.3737 7.59197 0.390351 0
M  V30 735 N 70.9488 -0.749086 1.3866 0
M  V30 736 C 71.8958 -1.86291 1.36251 0
M  V30 737 C 72.8658 -1.64578 0.224347 0
M  V30 738 O 74.0508 -1.86181 0.417279 0
M  V30 739 C 71.1908 -3.23644 1.19786 0
M  V30 740 C 70.3038 -3.57158 2.43027 0
M  V30 741 C 69.4388 -4.83838 2.19258 0
M  V30 742 C 68.4778 -5.10152 3.38247 0
M  V30 743 N 67.6148 -6.28029 3.13884 0
M  V30 744 H 72.4548 -1.87685 2.3147 0
M  V30 745 H 69.9918 -0.917287 1.14997 0
M  V30 746 H 71.9498 -4.0291 1.08254 0
M  V30 747 H 70.5798 -3.21566 0.282031 0
M  V30 748 H 69.6318 -2.72701 2.65214 0
M  V30 749 H 70.9438 -3.7253 3.31697 0
M  V30 750 H 70.0978 -5.71057 2.04888 0
M  V30 751 H 68.8368 -4.70614 1.2796 0
M  V30 752 H 67.8418 -4.21401 3.53131 0
M  V30 753 H 69.0668 -5.25271 4.30427 0
M  V30 754 H 67.0128 -6.1612 2.25238 0
M  V30 755 H 66.9298 -6.43922 3.96106 0
M  V30 756 H 68.1978 -7.18124 3.03179 0
M  V30 757 N 72.4269 -1.23603 -0.977757 0
M  V30 758 C 73.3569 -1.04401 -2.0886 0
M  V30 759 C 74.3379 0.0399052 -1.70053 0
M  V30 760 O 75.5229 -0.125246 -1.93796 0
M  V30 761 C 72.6529 -0.637269 -3.41403 0
M  V30 762 C 71.6069 -1.66883 -3.94124 0
M  V30 763 C 70.9329 -1.11745 -5.22893 0
M  V30 764 C 72.2329 -3.06247 -4.23096 0
M  V30 765 H 73.9269 -1.97316 -2.25182 0
M  V30 766 H 71.4729 -0.950096 -1.08209 0
M  V30 767 H 73.4259 -0.48998 -4.18542 0
M  V30 768 H 72.1499 0.327557 -3.24953 0
M  V30 769 H 70.8089 -1.80416 -3.19133 0
M  V30 770 H 70.4569 -0.143527 -5.02795 0
M  V30 771 H 70.1569 -1.80672 -5.59134 0
M  V30 772 H 71.6809 -0.982067 -6.02651 0
M  V30 773 H 73.0949 -2.96001 -4.90975 0
M  V30 774 H 71.4919 -3.72436 -4.70544 0
M  V30 775 H 72.5619 -3.55041 -3.30263 0
M  V30 776 N 73.905 1.17692 -1.04816 0
M  V30 777 C 75.154 1.87192 -0.751132 0
M  V30 778 C 75.467 1.8169 0.724441 0
M  V30 779 O 76.673 2.46625 1.13527 0
M  V30 780 C 75.129 3.35857 -1.29338 0
M  V30 781 C 74.737 3.4987 -2.79812 0
M  V30 782 C 76.481 4.10709 -1.07322 0
M  V30 783 C 74.388 4.92536 -3.27356 0
M  V30 784 H 73.318 0.701162 -0.277288 0
M  V30 785 H 75.969 1.32932 -1.26496 0
M  V30 786 H 74.351 3.89631 -0.707376 0
M  V30 787 H 75.525 3.06332 -3.44235 0
M  V30 788 H 73.84 2.88433 -3.00325 0
M  V30 789 H 76.437 5.15952 -1.4035 0
M  V30 790 H 76.78 4.16299 -0.0108001 0
M  V30 791 H 77.313 3.6313 -1.62423 0
M  V30 792 H 74.052 4.92119 -4.33012 0
M  V30 793 H 73.572 5.3676 -2.67673 0
M  V30 794 H 75.251 5.61288 -3.21815 0
M  V30 795 N 75.3831 0.828654 1.34056 0
M  V30 796 C 76.6301 0.419458 1.98108 0
M  V30 797 C 76.9581 -1.01886 1.65679 0
M  V30 798 O 76.2131 -1.72539 0.923512 0
M  V30 799 C 76.5121 0.575226 3.52741 0
M  V30 800 C 76.1781 1.98012 4.05095 0
M  V30 801 C 74.8401 2.36442 4.19104 0
M  V30 802 C 77.1921 2.89824 4.33188 0
M  V30 803 C 74.5201 3.66009 4.58535 0
M  V30 804 C 76.8721 4.1886 4.74066 0
M  V30 805 C 75.5361 4.5726 4.86281 0
M  V30 806 H 74.8061 0.153491 0.724929 0
M  V30 807 H 77.4531 1.05371 1.59904 0
M  V30 808 H 75.7581 -0.142385 3.91541 0
M  V30 809 H 77.4551 0.239057 4.00287 0
M  V30 810 H 74.0451 1.67162 3.94658 0
M  V30 811 H 78.2291 2.61375 4.21897 0
M  V30 812 H 73.4851 3.95579 4.66184 0
M  V30 813 H 77.6591 4.90086 4.94761 0
M  V30 814 H 75.2861 5.57707 5.16592 0
M  V30 815 N 76.8612 -1.46375 0.584142 0
M  V30 816 C 77.8082 -2.30323 -0.148286 0
M  V30 817 C 78.7782 -1.40703 -0.882713 0
M  V30 818 O 79.9632 -1.69651 -0.873099 0
M  V30 819 C 77.1032 -3.25196 -1.15507 0
M  V30 820 C 76.2162 -4.29915 -0.423943 0
M  V30 821 C 75.3512 -5.11914 -1.41838 0
M  V30 822 C 74.3902 -6.08381 -0.673736 0
M  V30 823 N 73.5272 -6.83242 -1.6163 0
M  V30 824 H 78.3672 -2.92427 0.573644 0
M  V30 825 H 75.9042 -1.44118 0.294703 0
M  V30 826 H 77.8622 -3.78646 -1.75166 0
M  V30 827 H 76.4922 -2.64898 -1.8447 0
M  V30 828 H 75.5442 -3.7931 0.287714 0
M  V30 829 H 76.8562 -4.98549 0.158128 0
M  V30 830 H 76.0102 -5.69648 -2.08773 0
M  V30 831 H 74.7492 -4.43243 -2.03438 0
M  V30 832 H 73.7542 -5.49799 0.00938483 0
M  V30 833 H 74.9792 -6.79071 -0.0631082 0
M  V30 834 H 72.9252 -6.1728 -2.22038 0
M  V30 835 H 72.8422 -7.48144 -1.08707 0
M  V30 836 H 74.1102 -7.45534 -2.27596 0
M  V30 837 N 78.3393 -0.321999 -1.54275 0
M  V30 838 C 79.2493 0.553631 -2.27974 0
M  V30 839 C 80.2653 1.13054 -1.32268 0
M  V30 840 O 81.4413 1.15084 -1.6528 0
M  V30 841 C 78.5063 1.69927 -3.02201 0
M  V30 842 C 77.5673 1.15433 -4.1349 0
M  V30 843 C 76.8003 2.24537 -4.84168 0
M  V30 844 O 77.0233 3.44852 -4.5435 0
M  V30 845 O 75.9573 1.90044 -5.7111 0
M  V30 846 H 79.7833 -0.0448345 -3.03667 0
M  V30 847 H 77.3683 -0.0877418 -1.49142 0
M  V30 848 H 79.2503 2.3663 -3.48689 0
M  V30 849 H 77.9253 2.28395 -2.29385 0
M  V30 850 H 76.8323 0.452436 -3.71354 0
M  V30 851 H 78.1653 0.614805 -4.88345 0
M  V30 852 N 79.8174 1.5752 -0.0501392 0
M  V30 853 C 81.0664 1.91827 0.623328 0
M  V30 854 C 81.3794 0.930222 1.72065 0
M  V30 855 O 82.5854 1.1653 2.4522 0
M  V30 856 C 81.0414 3.40692 1.16003 0
M  V30 857 C 80.6494 4.479 0.0948811 0
M  V30 858 C 82.3934 3.84034 1.80881 0
M  V30 859 C 80.3004 5.87879 0.644411 0
M  V30 860 H 79.2304 0.715918 0.236596 0
M  V30 861 H 81.8814 1.83115 -0.118861 0
M  V30 862 H 80.2634 3.44405 1.9545 0
M  V30 863 H 81.4374 4.55775 -0.678675 0
M  V30 864 H 79.7524 4.13892 -0.45637 0
M  V30 865 H 82.3494 4.85984 2.22988 0
M  V30 866 H 82.6924 3.20225 2.6601 0
M  V30 867 H 83.2254 3.82833 1.0809 0
M  V30 868 H 79.9644 6.55282 -0.169229 0
M  V30 869 H 79.4844 5.83567 1.38598 0
M  V30 870 H 81.1634 6.37098 1.12763 0
M  V30 871 N 81.2955 -0.223234 1.56011 0
M  V30 872 C 82.2425 -1.27664 1.92277 0
M  V30 873 C 83.2125 -1.46659 0.779763 0
M  V30 874 O 84.3975 -1.60256 1.03551 0
M  V30 875 C 81.5375 -2.62234 2.24338 0
M  V30 876 C 80.6505 -2.51051 3.51564 0
M  V30 877 C 79.7855 -3.78133 3.7308 0
M  V30 878 C 78.8245 -3.61665 4.93827 0
M  V30 879 N 77.9615 -4.80693 5.11741 0
M  V30 880 H 82.8015 -0.960358 2.82101 0
M  V30 881 H 80.3385 -0.462901 1.39627 0
M  V30 882 H 82.2965 -3.40596 2.40936 0
M  V30 883 H 80.9265 -2.91961 1.3769 0
M  V30 884 H 79.9785 -1.64132 3.43169 0
M  V30 885 H 81.2905 -2.34803 4.40079 0
M  V30 886 H 80.4445 -4.64938 3.89766 0
M  V30 887 H 79.1835 -3.97304 2.82844 0
M  V30 888 H 78.1885 -2.73244 4.77093 0
M  V30 889 H 79.4135 -3.43966 5.85546 0
M  V30 890 H 77.3595 -5.00181 4.24446 0
M  V30 891 H 77.2765 -4.67165 5.94384 0
M  V30 892 H 78.5445 -5.6893 5.3286 0
M  V30 893 N 82.7736 -1.49793 -0.48987 0
M  V30 894 C 84.0506 -1.50348 -1.25119 0
M  V30 895 C 84.4306 -0.237466 -2.0976 0
M  V30 896 O 83.7786 0.77981 -2.14782 0
M  V30 897 C 83.9886 -2.78872 -2.09837 0
M  V30 898 C 85.3366 -3.288 -2.68655 0
M  V30 899 O 86.3606 -2.80065 -2.20096 0
M  V30 900 O 85.2196 -4.13707 -3.57083 0
M  V30 901 H 82.3136 -0.602242 -0.566775 0
M  V30 902 H 84.8596 -1.62067 -0.503229 0
M  V30 903 H 83.6316 -3.62499 -1.47343 0
M  V30 904 H 83.2546 -2.70066 -2.91805 0
M  V30 905 N 84.2517 0.741722 -1.39055 0
M  V30 906 C 85.1997 1.87702 -1.3737 0
M  V30 907 C 86.1937 1.67427 -0.257812 0
M  V30 908 O 87.3997 1.7485 -0.427489 0
M  V30 909 H 83.7747 0.617757 -0.428812 0
M  V30 910 H 85.7457 1.86239 -2.33147 0
M  V30 911 C 84.4947 3.25315 -1.22741 0
M  V30 912 H 83.8177 3.41509 -2.07873 0
M  V30 913 H 85.2577 4.04964 -1.25618 0
M  V30 914 C 83.7167 3.36838 0.0647316 0
M  V30 915 O 84.2467 3.88073 1.03741 0
M  V30 916 N 82.4527 2.90329 0.125544 0
M  V30 917 H 81.9997 2.48823 -0.666682 0
M  V30 918 H 81.9577 2.98418 0.989639 0
M  V30 919 N 85.7298 1.2412 0.971189 0
M  V30 920 C 86.9788 1.07284 1.70801 0
M  V30 921 C 87.2918 -0.388902 1.91695 0
M  V30 922 O 88.4978 -0.677379 2.62914 0
M  V30 923 C 86.9538 1.87145 3.07416 0
M  V30 924 C 86.5618 3.37707 2.94377 0
M  V30 925 C 88.3058 1.78828 3.84995 0
M  V30 926 C 86.2128 4.09925 4.26281 0
M  V30 927 H 85.1428 0.397854 0.64049 0
M  V30 928 H 87.7938 1.4817 1.0825 0
M  V30 929 H 86.1758 1.39071 3.70777 0
M  V30 930 H 87.3498 3.93335 2.4005 0
M  V30 931 H 85.6648 3.46938 2.30267 0
M  V30 932 H 88.2618 2.30089 4.82662 0
M  V30 933 H 88.6048 0.75284 4.09436 0
M  V30 934 H 89.1378 2.24563 3.28354 0
M  V30 935 H 85.8768 5.13813 4.07033 0
M  V30 936 H 85.3968 3.59083 4.80437 0
M  V30 937 H 87.0758 4.1673 4.94919 0
M  V30 938 N 87.2079 -1.17134 1.05439 0
M  V30 939 C 88.4549 -1.87456 0.765942 0
M  V30 940 C 88.7829 -1.81189 -0.707153 0
M  V30 941 O 88.0379 -1.21633 -1.5331 0
M  V30 942 C 88.3369 -3.36833 1.19491 0
M  V30 943 C 88.0029 -3.63301 2.67063 0
M  V30 944 C 86.6649 -3.70234 3.07376 0
M  V30 945 C 89.0169 -3.74575 3.62413 0
M  V30 946 C 86.3449 -3.85933 4.41896 0
M  V30 947 C 88.6969 -3.91793 4.9667 0
M  V30 948 C 87.3609 -3.96966 5.36633 0
M  V30 949 H 86.6309 -0.685948 0.280278 0
M  V30 950 H 89.2779 -1.38556 1.32192 0
M  V30 951 H 87.5829 -3.87807 0.557969 0
M  V30 952 H 89.2799 -3.89611 0.948893 0
M  V30 953 H 85.8699 -3.58532 2.34846 0
M  V30 954 H 90.0539 -3.68537 3.32406 0
M  V30 955 H 85.3099 -3.88187 4.72357 0
M  V30 956 H 89.4839 -3.99458 5.70444 0
M  V30 957 H 87.1109 -4.08883 6.40874 0
M  V30 958 N 88.686 -0.835752 -1.33615 0
M  V30 959 C 89.935 -0.426289 -1.97144 0
M  V30 960 C 90.248 1.01912 -1.66953 0
M  V30 961 O 91.454 1.53311 -2.24072 0
M  V30 962 C 89.91 -0.711321 -3.52801 0
M  V30 963 C 89.518 -2.1712 -3.91871 0
M  V30 964 C 91.262 -0.368654 -4.22896 0
M  V30 965 C 89.169 -2.40044 -5.40493 0
M  V30 966 H 88.099 -0.15567 -0.737755 0
M  V30 967 H 90.75 -1.0239 -1.52278 0
M  V30 968 H 89.132 -0.0433766 -3.95976 0
M  V30 969 H 90.306 -2.87936 -3.59763 0
M  V30 970 H 88.621 -2.47654 -3.34749 0
M  V30 971 H 91.218 -0.517601 -5.32189 0
M  V30 972 H 91.561 0.688078 -4.10574 0
M  V30 973 H 92.094 -0.991702 -3.8524 0
M  V30 974 H 88.833 -3.44271 -5.57815 0
M  V30 975 H 88.353 -1.73785 -5.74072 0
M  V30 976 H 90.032 -2.23042 -6.0734 0
M  V30 977 N 90.1641 1.46063 -0.591896 0
M  V30 978 C 91.3941 2.06418 -0.0867676 0
M  V30 979 C 91.8021 1.43975 1.22751 0
M  V30 980 O 91.1451 0.542531 1.75506 0
M  V30 981 C 91.2071 3.59213 0.143725 0
M  V30 982 C 90.8711 4.439 -1.08635 0
M  V30 983 C 91.8681 4.79864 -2.00067 0
M  V30 984 C 89.5531 4.84896 -1.31077 0
M  V30 985 C 91.5471 5.55661 -3.12282 0
M  V30 986 C 89.2341 5.6045 -2.43596 0
M  V30 987 C 90.2321 5.95747 -3.34027 0
M  V30 988 O 89.9201 6.69772 -4.4459 0
M  V30 989 H 89.6521 0.673443 -0.0587447 0
M  V30 990 H 92.2061 1.88539 -0.814994 0
M  V30 991 H 90.4361 3.75433 0.926668 0
M  V30 992 H 92.1251 4.01463 0.5985 0
M  V30 993 H 92.8911 4.48763 -1.83947 0
M  V30 994 H 88.7701 4.56867 -0.61594 0
M  V30 995 H 92.3141 5.8313 -3.82891 0
M  V30 996 H 88.2111 5.90965 -2.59674 0
M  V30 997 H 88.9791 6.88207 -4.43073 0
M  V30 998 N 91.6422 0.330177 1.54103 0
M  V30 999 C 92.8912 -0.271336 1.99867 0
M  V30 1000 C 93.2042 -1.52723 1.22209 0
M  V30 1001 O 94.4102 -2.20515 1.58383 0
M  V30 1002 C 92.8662 -0.534032 3.55916 0
M  V30 1003 C 92.4742 0.705193 4.42415 0
M  V30 1004 C 94.2182 -1.09514 4.1013 0
M  V30 1005 C 92.1252 0.414035 5.89949 0
M  V30 1006 H 91.0552 -0.105166 0.74663 0
M  V30 1007 H 93.7062 0.443429 1.78062 0
M  V30 1008 H 92.0882 -1.30915 3.73734 0
M  V30 1009 H 93.2622 1.4804 4.36372 0
M  V30 1010 H 91.5772 1.18698 3.99124 0
M  V30 1011 H 94.1742 -1.3277 5.17954 0
M  V30 1012 H 94.5172 -2.04656 3.62521 0
M  V30 1013 H 95.0502 -0.381038 3.95971 0
M  V30 1014 H 91.7892 1.33481 6.41766 0
M  V30 1015 H 91.3092 -0.323336 5.98928 0
M  V30 1016 H 92.9882 0.0263105 6.46995 0
M  V30 1017 N 93.1203 -1.57491 0.0584922 0
M  V30 1018 C 94.0503 -2.14988 -0.911178 0
M  V30 1019 C 95.0313 -1.07343 -1.31952 0
M  V30 1020 O 96.2163 -1.35318 -1.39294 0
M  V30 1021 C 93.3463 -2.70078 -2.18347 0
M  V30 1022 C 92.3003 -3.82771 -1.91495 0
M  V30 1023 C 91.6263 -4.24408 -3.25241 0
M  V30 1024 C 92.9263 -5.07592 -1.23075 0
M  V30 1025 H 94.6203 -2.96263 -0.432246 0
M  V30 1026 H 92.1663 -1.42512 -0.206469 0
M  V30 1027 H 94.1193 -3.08943 -2.86587 0
M  V30 1028 H 92.8433 -1.86005 -2.68458 0
M  V30 1029 H 91.5023 -3.44389 -1.25664 0
M  V30 1030 H 91.1503 -3.37275 -3.73168 0
M  V30 1031 H 90.8503 -5.00366 -3.08071 0
M  V30 1032 H 92.3743 -4.65879 -3.94701 0
M  V30 1033 H 93.7883 -5.43857 -1.81362 0
M  V30 1034 H 92.1853 -5.88741 -1.16207 0
M  V30 1035 H 93.2553 -4.84454 -0.207847 0
M  V30 1036 N 94.5984 0.214957 -1.56127 0
M  V30 1037 C 95.8234 0.95924 -1.83884 0
M  V30 1038 C 96.2484 1.7689 -0.639644 0
M  V30 1039 O 95.6064 1.76566 0.411601 0
M  V30 1040 C 95.6544 1.84723 -3.09693 0
M  V30 1041 O 94.7584 2.94346 -2.8885 0
M  V30 1042 H 94.0994 0.27125 -0.606069 0
M  V30 1043 H 96.6294 0.226276 -2.03345 0
M  V30 1044 H 96.6394 2.25576 -3.39969 0
M  V30 1045 H 95.3144 1.25218 -3.96602 0
M  V30 1046 H 93.8914 2.57391 -2.69823 0
M  V30 1047 N 96.0765 1.50051 0.48192 0
M  V30 1048 C 97.3255 1.59741 1.23149 0
M  V30 1049 C 97.6385 0.298163 1.93314 0
M  V30 1050 O 98.8445 0.273835 2.70116 0
M  V30 1051 C 97.3005 2.81926 2.23708 0
M  V30 1052 C 96.9085 4.18685 1.59396 0
M  V30 1053 C 98.6525 3.00956 2.99375 0
M  V30 1054 C 96.5595 5.3207 2.58178 0
M  V30 1055 H 95.4895 0.594838 0.46334 0
M  V30 1056 H 98.1405 1.76467 0.503169 0
M  V30 1057 H 96.5225 2.58736 2.99786 0
M  V30 1058 H 97.6965 4.52088 0.891811 0
M  V30 1059 H 96.0115 4.05171 0.960503 0
M  V30 1060 H 98.6085 3.82836 3.73283 0
M  V30 1061 H 98.9515 2.12258 3.58123 0
M  V30 1062 H 99.4845 3.24277 2.30411 0
M  V30 1063 H 96.2235 6.22888 2.04184 0
M  V30 1064 H 95.7435 5.03098 3.26577 0
M  V30 1065 H 97.4225 5.62196 3.20225 0
M  V30 1066 N 97.5546 -0.734337 1.39446 0
M  V30 1067 C 98.8036 -1.48937 1.36017 0
M  V30 1068 C 99.1166 -1.95557 -0.0409005 0
M  V30 1069 O 100.323 -2.70779 -0.19778 0
M  V30 1070 C 98.7786 -2.69125 2.38955 0
M  V30 1071 C 98.3866 -2.29452 3.8478 0
M  V30 1072 C 100.131 -3.46944 2.44603 0
M  V30 1073 C 98.0376 -3.46366 4.79358 0
M  V30 1074 H 96.9676 -0.559296 0.505672 0
M  V30 1075 H 99.6186 -0.800983 1.65095 0
M  V30 1076 H 98.0006 -3.40041 2.02948 0
M  V30 1077 H 99.1746 -1.66077 4.29831 0
M  V30 1078 H 97.4896 -1.64723 3.82433 0
M  V30 1079 H 100.087 -4.33907 3.12456 0
M  V30 1080 H 100.43 -3.89454 1.47076 0
M  V30 1081 H 100.963 -2.83056 2.79507 0
M  V30 1082 H 97.7016 -3.08905 5.78151 0
M  V30 1083 H 97.2216 -4.08719 4.38986 0
M  V30 1084 H 98.9006 -4.12691 4.98292 0
M  V30 1085 N 99.0327 -1.24633 -0.964593 0
M  V30 1086 C 100.263 -1.11339 -1.74032 0
M  V30 1087 C 100.671 0.336593 -1.86182 0
M  V30 1088 O 100.014 1.24389 -1.35178 0
M  V30 1089 C 100.076 -1.68284 -3.1768 0
M  V30 1090 C 99.7397 -3.17196 -3.28992 0
M  V30 1091 C 100.737 -4.14308 -3.14078 0
M  V30 1092 C 98.4217 -3.57215 -3.53133 0
M  V30 1093 C 100.416 -5.4942 -3.23135 0
M  V30 1094 C 98.1027 -4.92468 -3.61827 0
M  V30 1095 C 99.1007 -5.8838 -3.46841 0
M  V30 1096 O 98.7887 -7.21173 -3.55197 0
M  V30 1097 H 98.5207 -0.389551 -0.552472 0
M  V30 1098 H 101.075 -1.65282 -1.21946 0
M  V30 1099 H 99.3047 -1.08777 -3.71085 0
M  V30 1100 H 100.994 -1.50234 -3.77074 0
M  V30 1101 H 101.76 -3.84731 -2.95308 0
M  V30 1102 H 97.6387 -2.83063 -3.63863 0
M  V30 1103 H 101.183 -6.24263 -3.11355 0
M  V30 1104 H 97.0797 -5.21714 -3.80111 0
M  V30 1105 H 97.8477 -7.29135 -3.71892 0
M  V30 1106 N 100.511 1.16574 -1.06058 0
M  V30 1107 C 101.441 2.23057 -0.690488 0
M  V30 1108 C 102.422 1.67141 0.315901 0
M  V30 1109 O 103.607 1.93253 0.191556 0
M  V30 1110 C 100.737 3.47222 -0.073625 0
M  V30 1111 C 99.6908 4.16016 -1.00573 0
M  V30 1112 C 99.0168 5.34104 -0.252289 0
M  V30 1113 C 100.317 4.67264 -2.33371 0
M  V30 1114 H 102.011 2.54271 -1.58072 0
M  V30 1115 H 99.5568 1.22218 -0.76149 0
M  V30 1116 H 101.51 4.20939 0.19714 0
M  V30 1117 H 100.234 3.15302 0.85161 0
M  V30 1118 H 98.8928 3.44223 -1.2612 0
M  V30 1119 H 98.5408 4.98437 0.675988 0
M  V30 1120 H 98.2408 5.81072 -0.873455 0
M  V30 1121 H 99.7648 6.10599 0.0109857 0
M  V30 1122 H 101.179 5.32573 -2.12223 0
M  V30 1123 H 99.5758 5.24843 -2.90963 0
M  V30 1124 H 100.646 3.83602 -2.96611 0
M  V30 1125 N 101.989 0.842826 1.3317 0
M  V30 1126 C 103.214 0.453129 2.02389 0
M  V30 1127 C 103.639 -0.939105 1.6298 0
M  V30 1128 O 102.997 -1.61472 0.8244 0
M  V30 1129 C 103.045 0.586094 3.55805 0
M  V30 1130 O 102.149 -0.386029 4.10589 0
M  V30 1131 H 101.49 0.183664 0.638094 0
M  V30 1132 H 104.02 1.13875 1.69981 0
M  V30 1133 H 104.03 0.469209 4.05293 0
M  V30 1134 H 102.705 1.6014 3.83833 0
M  V30 1135 H 101.282 -0.226371 3.72212 0
M  V30 1136 N 103.467 -1.45747 0.599634 0
M  V30 1137 C 104.713 -2.02592 0.0918643 0
M  V30 1138 C 105.046 -1.46806 -1.27128 0
M  V30 1139 O 104.321 -0.639658 -1.83681 0
M  V30 1140 C 104.604 -3.60073 0.0443398 0
M  V30 1141 C 104.457 -4.26208 1.43759 0
M  V30 1142 C 105.776 -4.35309 -0.647608 0
M  V30 1143 H 102.895 -0.736175 0.034857 0
M  V30 1144 H 105.537 -1.73694 0.770081 0
M  V30 1145 H 103.687 -3.84823 -0.533224 0
M  V30 1146 H 105.359 -4.12668 2.06162 0
M  V30 1147 H 103.602 -3.84916 2.00056 0
M  V30 1148 H 104.273 -5.35069 1.35665 0
M  V30 1149 H 106.749 -4.15805 -0.156776 0
M  V30 1150 H 105.625 -5.45038 -0.649942 0
M  V30 1151 H 105.886 -4.07598 -1.71219 0
M  V30 1152 N 104.945 -0.338344 -1.53925 0
M  V30 1153 C 106.185 0.260168 -2.02737 0
M  V30 1154 C 106.549 1.48181 -1.22092 0
M  V30 1155 O 107.75 2.15416 -1.60777 0
M  V30 1156 C 106.021 0.571627 -3.52799 0
M  V30 1157 S 107.58 1.14769 -4.23525 0
M  V30 1158 H 104.398 0.077791 -0.706732 0
M  V30 1159 H 107 -0.474899 -1.89644 0
M  V30 1160 H 105.704 -0.325392 -4.09108 0
M  V30 1161 H 105.235 1.3365 -3.70002 0
M  V30 1162 H 107.25 2.43372 -4.32417 0
M  V30 1163 N 106.423 1.57458 -0.0668435 0
M  V30 1164 C 107.669 1.93587 0.6043 0
M  V30 1165 C 108.002 0.946722 1.69561 0
M  V30 1166 O 107.277 -0.0248516 1.94484 0
M  V30 1167 C 107.56 3.40014 1.18585 0
M  V30 1168 C 107.413 4.49685 0.101529 0
M  V30 1169 C 108.732 3.87154 2.09284 0
M  V30 1170 H 105.851 0.703958 0.218202 0
M  V30 1171 H 108.493 1.89542 -0.131804 0
M  V30 1172 H 106.643 3.43592 1.81319 0
M  V30 1173 H 108.315 4.5823 -0.531279 0
M  V30 1174 H 106.558 4.30059 -0.568487 0
M  V30 1175 H 107.229 5.49266 0.54874 0
M  V30 1176 H 109.705 3.85551 1.56491 0
M  V30 1177 H 108.581 4.90231 2.46911 0
M  V30 1178 H 108.842 3.2481 2.99918 0
M  V30 1179 N 107.901 -0.206675 1.56239 0
M  V30 1180 C 108.834 -1.28383 1.88661 0
M  V30 1181 C 109.812 -1.44504 0.745481 0
M  V30 1182 O 110.996 -1.60079 0.995336 0
M  V30 1183 C 108.123 -2.65211 2.10667 0
M  V30 1184 C 107.169 -2.66025 3.33366 0
M  V30 1185 S 108.002 -2.18609 4.88846 0
M  V30 1186 C 109.158 -3.57283 5.13906 0
M  V30 1187 H 109.391 -1.00691 2.7973 0
M  V30 1188 H 106.924 -0.409627 1.48867 0
M  V30 1189 H 108.882 -3.43979 2.24029 0
M  V30 1190 H 107.543 -2.90121 1.20369 0
M  V30 1191 H 106.736 -3.66607 3.45855 0
M  V30 1192 H 106.338 -1.95331 3.18938 0
M  V30 1193 H 108.63 -4.53074 5.03717 0
M  V30 1194 H 109.573 -3.49699 6.15724 0
M  V30 1195 H 109.981 -3.51659 4.41583 0
M  V30 1196 N 109.379 -1.50304 -0.473955 0
M  V30 1197 C 110.327 -1.69482 -1.59307 0
M  V30 1198 C 111.321 -0.560669 -1.59853 0
M  V30 1199 O 112.527 -0.741087 -1.64036 0
M  V30 1200 H 108.902 -0.534892 -0.528578 0
M  V30 1201 H 110.873 -2.63364 -1.40293 0
M  V30 1202 C 109.622 -1.80354 -2.97267 0
M  V30 1203 H 108.945 -2.67012 -2.97564 0
M  V30 1204 H 110.385 -1.97798 -3.75036 0
M  V30 1205 C 108.844 -0.55448 -3.32306 0
M  V30 1206 O 109.374 0.307661 -4.0052 0
M  V30 1207 N 107.58 -0.409354 -2.87702 0
M  V30 1208 H 107.127 -1.11196 -2.32364 0
M  V30 1209 H 107.085 0.425223 -3.11511 0
M  V30 1210 N 110.857 0.726932 -1.39834 0
M  V30 1211 C 111.804 1.841 -1.39197 0
M  V30 1212 C 112.774 1.642 -0.250502 0
M  V30 1213 O 113.959 1.85494 -0.446846 0
M  V30 1214 C 111.099 3.21697 -1.24919 0
M  V30 1215 C 110.212 3.53247 -2.48678 0
M  V30 1216 C 109.347 4.80289 -2.26928 0
M  V30 1217 C 108.386 5.04707 -3.4632 0
M  V30 1218 N 107.523 6.22956 -3.23836 0
M  V30 1219 H 112.363 1.83979 -2.34427 0
M  V30 1220 H 109.9 0.898876 -1.16442 0
M  V30 1221 H 111.858 4.01137 -1.1465 0
M  V30 1222 H 110.488 3.21076 -0.333153 0
M  V30 1223 H 109.54 2.68447 -2.69519 0
M  V30 1224 H 110.852 3.67205 -3.37582 0
M  V30 1225 H 110.006 5.67725 -2.13947 0
M  V30 1226 H 108.745 4.68519 -1.35431 0
M  V30 1227 H 107.75 4.1573 -3.5979 0
M  V30 1228 H 108.975 5.18357 -4.38729 0
M  V30 1229 H 106.921 6.12459 -2.35011 0
M  V30 1230 H 106.838 6.37539 -4.063 0
M  V30 1231 H 108.106 7.1321 -3.14566 0
M  V30 1232 N 112.336 1.25143 0.95797 0
M  V30 1233 C 113.585 1.0909 1.69654 0
M  V30 1234 C 113.898 -0.368548 1.92097 0
M  V30 1235 O 115.104 -0.649455 2.63618 0
M  V30 1236 C 113.56 1.90395 3.05414 0
M  V30 1237 C 113.168 3.4081 2.90779 0
M  V30 1238 C 114.912 1.82901 3.83076 0
M  V30 1239 C 112.819 4.14423 4.21909 0
M  V30 1240 H 111.749 0.404625 0.636235 0
M  V30 1241 H 114.4 1.4931 1.06672 0
M  V30 1242 H 112.782 1.42996 3.69281 0
M  V30 1243 H 113.956 3.95859 2.35865 0
M  V30 1244 H 112.271 3.49361 2.26575 0
M  V30 1245 H 114.868 2.35196 4.80195 0
M  V30 1246 H 115.211 0.796224 4.08615 0
M  V30 1247 H 115.744 2.28033 3.25954 0
M  V30 1248 H 112.483 5.18102 4.01561 0
M  V30 1249 H 112.003 3.64159 4.76601 0
M  V30 1250 H 113.682 4.21956 4.90471 0
M  V30 1251 N 113.814 -1.1601 1.06675 0
M  V30 1252 C 115.061 -1.86633 0.785781 0
M  V30 1253 C 115.389 -1.81929 -0.687896 0
M  V30 1254 O 114.644 -1.23253 -1.52011 0
M  V30 1255 C 114.943 -3.35547 1.23057 0
M  V30 1256 C 114.609 -3.60448 2.70902 0
M  V30 1257 C 113.271 -3.66954 3.11285 0
M  V30 1258 C 115.623 -3.7071 3.66365 0
M  V30 1259 C 112.951 -3.81225 4.45965 0
M  V30 1260 C 115.303 -3.86503 5.00797 0
M  V30 1261 C 113.967 -3.91252 5.40813 0
M  V30 1262 H 113.237 -0.682937 0.287538 0
M  V30 1263 H 115.884 -1.37146 1.33654 0
M  V30 1264 H 114.189 -3.87193 0.59907 0
M  V30 1265 H 115.886 -3.88583 0.990163 0
M  V30 1266 H 112.476 -3.56021 2.38636 0
M  V30 1267 H 116.66 -3.64991 3.36296 0
M  V30 1268 H 111.916 -3.83155 4.76447 0
M  V30 1269 H 116.09 -3.93385 5.74649 0
M  V30 1270 H 113.717 -4.02062 6.45174 0
M  V30 1271 N 115.292 -0.849877 -1.32721 0
M  V30 1272 C 116.255 -0.296122 -2.27279 0
M  V30 1273 C 117.255 0.541458 -1.5141 0
M  V30 1274 O 118.445 0.353658 -1.70572 0
M  V30 1275 C 115.577 0.581579 -3.35902 0
M  V30 1276 H 116.77 -1.13064 -2.77771 0
M  V30 1277 H 114.323 -0.62383 -1.43311 0
M  V30 1278 H 115.058 1.43809 -2.9067 0
M  V30 1279 H 114.843 -0.0178814 -3.92096 0
M  V30 1280 H 116.333 0.961951 -4.0637 0
M  V30 1281 N 116.77 1.45427 -0.607355 0
M  V30 1282 C 117.717 2.3053 0.111625 0
M  V30 1283 C 118.687 1.4209 0.860216 0
M  V30 1284 O 119.872 1.71019 0.845998 0
M  V30 1285 C 117.012 3.26992 1.10319 0
M  V30 1286 C 116.125 4.30535 0.355493 0
M  V30 1287 C 115.26 5.14105 1.33676 0
M  V30 1288 C 114.299 6.09376 0.576862 0
M  V30 1289 N 113.436 6.85727 1.5074 0
M  V30 1290 H 118.276 2.91477 -0.620093 0
M  V30 1291 H 115.813 1.43631 -0.317594 0
M  V30 1292 H 117.771 3.81385 1.6912 0
M  V30 1293 H 116.401 2.67799 1.80232 0
M  V30 1294 H 115.453 3.78805 -0.348023 0
M  V30 1295 H 116.765 4.98235 -0.237423 0
M  V30 1296 H 115.919 5.72897 1.99684 0
M  V30 1297 H 114.658 4.46423 1.9636 0
M  V30 1298 H 113.663 5.49715 -0.0968519 0
M  V30 1299 H 114.888 6.79085 -0.0449341 0
M  V30 1300 H 112.834 6.20735 2.12189 0
M  V30 1301 H 112.751 7.49778 0.967913 0
M  V30 1302 H 114.019 7.4906 2.15706 0
M  V30 1303 N 118.248 0.346503 1.53744 0
M  V30 1304 C 119.664 -0.00530975 1.59599 0
M  V30 1305 C 119.864 -1.48465 1.36236 0
M  V30 1306 O 118.92 -2.24376 1.15808 0
M  V30 1307 C 120.233 0.433516 2.97559 0
M  V30 1308 C 121.781 0.386111 3.10609 0
M  V30 1309 C 122.256 0.800451 4.50951 0
M  V30 1310 N 123.747 0.754753 4.5701 0
M  V30 1311 C 124.482 1.04727 5.63755 0
M  V30 1312 N 123.978 1.4081 6.7834 0
M  V30 1313 N 125.771 0.971316 5.53644 0
M  V30 1314 H 117.922 1.31009 1.67184 0
M  V30 1315 H 120.185 0.534242 0.783128 0
M  V30 1316 H 119.891 1.46509 3.19731 0
M  V30 1317 H 119.765 -0.189753 3.76722 0
M  V30 1318 H 122.152 -0.636295 2.88158 0
M  V30 1319 H 122.233 1.04462 2.33498 0
M  V30 1320 H 121.877 1.82088 4.74137 0
M  V30 1321 H 121.807 0.119386 5.26465 0
M  V30 1322 H 124.298 0.488662 3.74727 0
M  V30 1323 H 124.611 1.61607 7.55714 0
M  V30 1324 H 122.956 1.44657 6.79779 0
M  V30 1325 H 126.147 0.688748 4.63005 0
M  V30 1326 H 126.32 1.20263 6.36742 0
M  V30 1327 N 119.726 -1.57421 0.075193 0
M  V30 1328 C 120.954 -1.97946 -0.602076 0
M  V30 1329 C 121.369 -0.953674 -1.62943 0
M  V30 1330 O 120.726 0.0592551 -1.82404 0
M  V30 1331 C 120.777 -3.38546 -1.26762 0
M  V30 1332 O 120.498 -4.37195 -0.281376 0
M  V30 1333 C 121.999 -3.93966 -2.03239 0
M  V30 1334 H 119.219 -0.650918 -0.162931 0
M  V30 1335 H 121.763 -2.03959 0.148601 0
M  V30 1336 H 119.918 -3.33609 -1.96936 0
M  V30 1337 H 120.332 -5.18975 -0.759267 0
M  V30 1338 H 121.806 -4.94555 -2.45193 0
M  V30 1339 H 122.283 -3.30693 -2.8903 0
M  V30 1340 H 122.889 -4.02315 -1.37924 0
M  V30 1341 N 121.204 0.198386 -1.56346 0
M  V30 1342 C 122.134 1.24865 -1.9731 0
M  V30 1343 C 123.115 1.47651 -0.844576 0
M  V30 1344 O 124.3 1.59444 -1.10866 0
M  V30 1345 C 121.43 2.59358 -2.30977 0
M  V30 1346 C 120.384 2.5119 -3.46537 0
M  V30 1347 C 119.71 3.89926 -3.65871 0
M  V30 1348 C 121.01 2.03977 -4.80823 0
M  V30 1349 H 122.704 0.908252 -2.85291 0
M  V30 1350 H 120.25 0.435462 -1.37258 0
M  V30 1351 H 122.203 3.33011 -2.58228 0
M  V30 1352 H 120.927 2.95132 -1.39874 0
M  V30 1353 H 119.586 1.79993 -3.19371 0
M  V30 1354 H 119.234 4.23046 -2.72105 0
M  V30 1355 H 118.934 3.85336 -4.4361 0
M  V30 1356 H 120.458 4.65205 -3.95495 0
M  V30 1357 H 121.872 2.67386 -5.07127 0
M  V30 1358 H 120.269 2.10397 -5.62008 0
M  V30 1359 H 121.339 0.992861 -4.74626 0
M  V30 1360 N 122.682 1.50554 0.465978 0
M  V30 1361 C 123.63 1.70324 1.58406 0
M  V30 1362 C 124.624 0.569139 1.59553 0
M  V30 1363 O 125.83 0.749776 1.63641 0
M  V30 1364 H 122.205 0.537688 0.525734 0
M  V30 1365 H 124.176 2.64104 1.38894 0
M  V30 1366 C 122.925 1.81928 2.96307 0
M  V30 1367 H 122.248 2.68586 2.96144 0
M  V30 1368 H 123.688 1.99784 3.73982 0
M  V30 1369 C 122.147 0.572095 3.32007 0
M  V30 1370 O 122.677 -0.286416 4.00678 0
M  V30 1371 N 120.883 0.424606 2.87481 0
M  V30 1372 H 120.43 1.12427 2.31771 0
M  V30 1373 H 120.388 -0.408697 3.11732 0
M  V30 1374 N 124.16 -0.719506 1.40217 0
M  V30 1375 C 125.107 -1.83359 1.40172 0
M  V30 1376 C 126.077 -1.64065 0.259206 0
M  V30 1377 O 127.262 -1.85254 0.456677 0
M  V30 1378 C 124.402 -3.2103 1.26624 0
M  V30 1379 C 123.515 -3.51923 2.50548 0
M  V30 1380 C 122.65 -4.79079 2.29471 0
M  V30 1381 C 121.689 -5.02863 3.48992 0
M  V30 1382 N 120.826 -6.2123 3.27135 0
M  V30 1383 H 125.666 -1.82733 2.35399 0
M  V30 1384 H 123.203 -0.892688 1.16917 0
M  V30 1385 H 125.161 -4.00524 1.16776 0
M  V30 1386 H 123.791 -3.20895 0.350176 0
M  V30 1387 H 122.843 -2.67014 2.70939 0
M  V30 1388 H 124.155 -3.6541 3.39525 0
M  V30 1389 H 123.309 -5.66582 2.16955 0
M  V30 1390 H 122.048 -4.67794 1.37913 0
M  V30 1391 H 121.053 -4.13816 3.6199 0
M  V30 1392 H 122.278 -5.16023 4.41472 0
M  V30 1393 H 120.224 -6.11204 2.38256 0
M  V30 1394 H 120.141 -6.35375 4.09675 0
M  V30 1395 H 121.409 -7.11532 3.18344 0
M  V30 1396 N 125.638 -1.25649 -0.95132 0
M  V30 1397 C 126.887 -1.09988 -1.69073 0
M  V30 1398 C 127.2 0.358355 -1.92289 0
M  V30 1399 O 128.406 0.635466 -2.63958 0
M  V30 1400 C 126.862 -1.92012 -3.044 0
M  V30 1401 C 126.47 -3.42347 -2.88968 0
M  V30 1402 C 128.214 -1.8493 -3.82101 0
M  V30 1403 C 126.121 -4.16655 -4.19705 0
M  V30 1404 H 125.051 -0.407993 -0.63408 0
M  V30 1405 H 127.702 -1.49873 -1.05879 0
M  V30 1406 H 126.084 -1.44952 -3.68517 0
M  V30 1407 H 127.258 -3.97104 -2.33762 0
M  V30 1408 H 125.573 -3.50557 -2.24719 0
M  V30 1409 H 128.17 -2.37739 -4.78941 0
M  V30 1410 H 128.513 -0.817883 -4.08187 0
M  V30 1411 H 129.046 -2.29758 -3.2474 0
M  V30 1412 H 125.785 -5.20224 -3.98807 0
M  V30 1413 H 125.305 -3.66681 -4.74663 0
M  V30 1414 H 126.984 -4.24551 -4.88227 0
M  V30 1415 N 127.117 1.15442 -1.07289 0
M  V30 1416 C 128.365 1.85845 -0.794096 0
M  V30 1417 C 128.686 1.82692 0.681809 0
M  V30 1418 O 127.956 1.26741 1.49377 0
M  V30 1419 H 126.536 0.688089 -0.290763 0
M  V30 1420 H 129.198 1.39947 -1.3565 0
M  V30 1421 H 128.294 2.91001 -1.12804 0
M  V30 1422 N 128.595 0.856903 1.32268 0
M  V30 1423 C 129.543 0.291987 2.3076 0
M  V30 1424 C 130.537 -0.585857 1.58947 0
M  V30 1425 O 131.743 -0.47341 1.73663 0
M  V30 1426 H 128.118 0.075721 0.748178 0
M  V30 1427 H 130.089 1.13687 2.75895 0
M  V30 1428 C 128.838 -0.502869 3.44044 0
M  V30 1429 H 128.161 0.163328 3.99466 0
M  V30 1430 H 129.601 -0.863691 4.1511 0
M  V30 1431 C 128.06 -1.68898 2.91505 0
M  V30 1432 O 128.59 -2.78811 2.89184 0
M  V30 1433 N 126.796 -1.51679 2.47875 0
M  V30 1434 H 126.343 -0.622666 2.49961 0
M  V30 1435 H 126.301 -2.31184 2.13076 0
M  V30 1436 N 130.073 -1.45103 0.615059 0
M  V30 1437 C 131.303 -2.06254 0.119596 0
M  V30 1438 C 131.711 -1.4591 -1.20445 0
M  V30 1439 O 131.054 -0.570384 -1.7462 0
M  V30 1440 C 131.116 -3.59396 -0.0865591 0
M  V30 1441 C 130.78 -4.42116 1.15683 0
M  V30 1442 C 131.777 -4.7662 2.07676 0
M  V30 1443 C 129.462 -4.82749 1.38775 0
M  V30 1444 C 131.456 -5.50622 3.21082 0
M  V30 1445 C 129.143 -5.56504 2.52481 0
M  V30 1446 C 130.141 -5.90358 3.43463 0
M  V30 1447 O 129.829 -6.62615 4.55189 0
M  V30 1448 H 129.561 -0.672423 0.0694512 0
M  V30 1449 H 132.115 -1.87219 0.844885 0
M  V30 1450 H 130.345 -3.76859 -0.866823 0
M  V30 1451 H 132.034 -4.02365 -0.534555 0
M  V30 1452 H 132.8 -4.4578 1.91063 0
M  V30 1453 H 128.679 -4.55829 0.688545 0
M  V30 1454 H 132.223 -5.76965 3.92119 0
M  V30 1455 H 128.12 -5.86759 2.69043 0
M  V30 1456 H 128.888 -6.81071 4.53966 0
M  V30 1457 N 131.551 -0.354651 -1.53558 0
M  V30 1458 C 132.776 0.242153 -2.05981 0
M  V30 1459 C 133.201 1.42553 -1.2272 0
M  V30 1460 O 132.559 1.79656 -0.243604 0
M  V30 1461 C 132.607 0.624367 -3.55154 0
M  V30 1462 O 131.711 1.72301 -3.74681 0
M  V30 1463 H 131.052 0.0378432 -0.662921 0
M  V30 1464 H 133.582 -0.512087 -1.98088 0
M  V30 1465 H 133.592 0.898433 -3.97985 0
M  V30 1466 H 132.267 -0.240989 -4.15201 0
M  V30 1467 H 130.844 1.44535 -3.4375 0
M  V30 1468 N 133.029 1.57378 -0.0835403 0
M  V30 1469 C 134.276 1.9393 0.58287 0
M  V30 1470 C 134.604 0.964455 1.68904 0
M  V30 1471 O 133.859 -0.0179474 1.95692 0
M  V30 1472 C 134.158 3.37063 1.1884 0
M  V30 1473 C 133.824 4.50424 0.207194 0
M  V30 1474 C 132.486 4.81159 -0.0627115 0
M  V30 1475 C 134.838 5.19136 -0.463426 0
M  V30 1476 C 132.166 5.77939 -1.01012 0
M  V30 1477 C 134.518 6.16931 -1.39924 0
M  V30 1478 C 133.182 6.46078 -1.67749 0
M  V30 1479 H 132.452 0.70964 0.213287 0
M  V30 1480 H 135.099 1.90856 -0.156916 0
M  V30 1481 H 133.404 3.3666 2.00418 0
M  V30 1482 H 135.101 3.6264 1.71153 0
M  V30 1483 H 131.691 4.2646 0.427747 0
M  V30 1484 H 135.875 4.95576 -0.268034 0
M  V30 1485 H 131.131 5.98842 -1.23283 0
M  V30 1486 H 135.305 6.69273 -1.92476 0
M  V30 1487 H 132.932 7.2088 -2.41321 0
M  V30 1488 N 134.507 -0.190092 1.56449 0
M  V30 1489 C 135.753 -0.911052 1.81184 0
M  V30 1490 C 136.086 -1.82699 0.658396 0
M  V30 1491 O 135.361 -1.91491 -0.340775 0
M  V30 1492 C 135.644 -1.72297 3.16205 0
M  V30 1493 C 135.497 -0.831419 4.42049 0
M  V30 1494 C 136.816 -2.69454 3.47969 0
M  V30 1495 H 133.935 -0.32977 0.659106 0
M  V30 1496 H 136.577 -0.178169 1.89163 0
M  V30 1497 H 134.727 -2.34778 3.09534 0
M  V30 1498 H 136.399 -0.220929 4.60771 0
M  V30 1499 H 134.642 -0.138406 4.33579 0
M  V30 1500 H 135.313 -1.43461 5.33032 0
M  V30 1501 H 137.789 -2.17104 3.54972 0
M  V30 1502 H 136.665 -3.23342 4.43555 0
M  V30 1503 H 136.926 -3.48744 2.71717 0
M  V30 1504 N 135.985 -1.50799 -0.457987 0
M  V30 1505 C 137.213 -1.66218 -1.23203 0
M  V30 1506 C 137.628 -0.350894 -1.85511 0
M  V30 1507 O 136.985 0.668546 -1.69814 0
M  V30 1508 C 137.036 -2.76291 -2.33121 0
M  V30 1509 O 136.757 -4.02338 -1.73366 0
M  V30 1510 C 138.258 -3.028 -3.2377 0
M  V30 1511 H 135.478 -0.558361 -0.372121 0
M  V30 1512 H 138.022 -1.97099 -0.545179 0
M  V30 1513 H 136.177 -2.48068 -2.97558 0
M  V30 1514 H 136.591 -4.63312 -2.4585 0
M  V30 1515 H 138.065 -3.8345 -3.97077 0
M  V30 1516 H 138.542 -2.14385 -3.83322 0
M  V30 1517 H 139.148 -3.32604 -2.65056 0
M  V30 1518 N 137.463 0.71206 -1.40597 0
M  V30 1519 C 138.688 1.50617 -1.42581 0
M  V30 1520 C 139.113 1.88079 -0.0282102 0
M  V30 1521 O 138.471 1.53511 0.964579 0
M  V30 1522 C 138.519 2.7557 -2.3258 0
M  V30 1523 O 137.623 3.72414 -1.77148 0
M  V30 1524 H 136.964 0.453966 -0.484573 0
M  V30 1525 H 139.494 0.876649 -1.84868 0
M  V30 1526 H 139.504 3.2406 -2.47889 0
M  V30 1527 H 138.179 2.47639 -3.34138 0
M  V30 1528 H 136.756 3.31276 -1.71204 0
M  V30 1529 N 138.941 1.26152 0.944643 0
M  V30 1530 C 139.851 1.09176 2.07648 0
M  V30 1531 C 140.867 0.0261935 1.7398 0
M  V30 1532 O 142.043 0.229208 2.00091 0
M  V30 1533 C 139.108 0.722915 3.39079 0
M  V30 1534 C 138.169 1.86752 3.86552 0
M  V30 1535 C 137.402 1.51617 5.11711 0
M  V30 1536 O 137.625 0.416331 5.68879 0
M  V30 1537 O 136.559 2.34975 5.54139 0
M  V30 1538 H 140.385 2.0412 2.24875 0
M  V30 1539 H 137.97 1.05182 1.061 0
M  V30 1540 H 139.852 0.529787 4.18056 0
M  V30 1541 H 138.527 -0.197159 3.23099 0
M  V30 1542 H 137.434 2.11558 3.08535 0
M  V30 1543 H 138.767 2.76719 4.07047 0
M  V30 1544 N 140.419 -1.14872 1.07899 0
M  V30 1545 C 141.647 -1.89661 0.82683 0
M  V30 1546 C 142.062 -1.78312 -0.620519 0
M  V30 1547 O 141.419 -1.13888 -1.42604 0
M  V30 1548 C 141.47 -3.39817 1.23316 0
M  V30 1549 O 141.191 -3.50845 2.62372 0
M  V30 1550 C 142.692 -4.31615 1.0111 0
M  V30 1551 H 139.912 -0.60092 0.298557 0
M  V30 1552 H 142.456 -1.4551 1.43691 0
M  V30 1553 H 140.611 -3.8161 0.667286 0
M  V30 1554 H 141.025 -4.44076 2.79101 0
M  V30 1555 H 142.499 -5.35367 1.34486 0
M  V30 1556 H 142.976 -4.39169 -0.0522168 0
M  V30 1557 H 143.582 -3.95572 1.56215 0
M  V30 1558 N 141.898 -0.863906 -1.31812 0
M  V30 1559 C 142.848 -0.286898 -2.26188 0
M  V30 1560 C 143.832 0.572577 -1.50367 0
M  V30 1561 O 145.024 0.420447 -1.71934 0
M  V30 1562 C 142.153 0.515849 -3.39402 0
M  V30 1563 C 141.239 -0.356531 -4.22599 0
M  V30 1564 N 141.63 -1.44716 -4.84656 0
M  V30 1565 C 139.928 -0.147898 -4.45755 0
M  V30 1566 C 140.629 -1.98462 -5.46798 0
M  V30 1567 N 139.605 -1.28247 -5.28255 0
M  V30 1568 H 143.407 -1.12055 -2.717 0
M  V30 1569 H 140.921 -0.711012 -1.46008 0
M  V30 1570 H 142.918 0.945701 -4.06032 0
M  V30 1571 H 141.578 1.34718 -2.95434 0
M  V30 1572 H 142.589 -1.83008 -4.84488 0
M  V30 1573 H 139.266 0.647973 -4.12441 0
M  V30 1574 H 140.656 -2.89932 -6.06126 0
M  V30 1575 N 143.376 1.44774 -0.622745 0
M  V30 1576 C 144.324 2.32387 0.0994683 0
M  V30 1577 C 145.318 1.46859 0.844326 0
M  V30 1578 O 146.524 1.63254 0.758174 0
M  V30 1579 H 142.899 0.750273 0.0509291 0
M  V30 1580 H 144.87 2.91062 -0.65767 0
M  V30 1581 C 143.619 3.30723 1.07319 0
M  V30 1582 H 142.942 3.96541 0.509462 0
M  V30 1583 H 144.382 3.94725 1.54817 0
M  V30 1584 C 142.841 2.59021 2.15429 0
M  V30 1585 O 143.371 2.38286 3.23393 0
M  V30 1586 N 141.577 2.189 1.91131 0
M  V30 1587 H 141.124 2.35964 1.03337 0
M  V30 1588 H 141.082 1.71251 2.63668 0
M  V30 1589 N 144.854 0.36279 1.53368 0
M  V30 1590 C 146.101 -0.227776 2.01215 0
M  V30 1591 C 146.429 -1.49003 1.25014 0
M  V30 1592 O 145.684 -1.92876 0.331236 0
M  V30 1593 C 145.983 -0.568417 3.52851 0
M  V30 1594 C 145.649 0.59918 4.46901 0
M  V30 1595 C 144.311 0.919559 4.72332 0
M  V30 1596 C 146.663 1.38156 5.02556 0
M  V30 1597 C 143.991 2.02434 5.5067 0
M  V30 1598 C 146.343 2.47674 5.821 0
M  V30 1599 C 145.007 2.8025 6.05819 0
M  V30 1600 H 144.277 -0.083349 0.736297 0
M  V30 1601 H 146.924 0.494677 1.85001 0
M  V30 1602 H 145.229 -1.37185 3.66998 0
M  V30 1603 H 146.926 -1.03756 3.87344 0
M  V30 1604 H 143.516 0.339437 4.27254 0
M  V30 1605 H 147.7 1.14729 4.82857 0
M  V30 1606 H 142.956 2.28075 5.67267 0
M  V30 1607 H 147.13 3.08716 6.24234 0
M  V30 1608 H 144.757 3.65979 6.66306 0
M  V30 1609 N 146.332 -1.57332 0.0918853 0
M  V30 1610 C 147.581 -1.93412 -0.572249 0
M  V30 1611 C 147.894 -0.975515 -1.69538 0
M  V30 1612 O 149.1 -1.22991 -2.42045 0
M  V30 1613 C 147.556 -3.43648 -1.0693 0
M  V30 1614 C 147.164 -4.47994 0.0239049 0
M  V30 1615 C 148.908 -3.88695 -1.70635 0
M  V30 1616 C 146.815 -5.89381 -0.488319 0
M  V30 1617 H 145.745 -0.721939 -0.217532 0
M  V30 1618 H 148.396 -1.82735 0.167369 0
M  V30 1619 H 146.778 -3.49466 -1.8625 0
M  V30 1620 H 147.952 -4.53815 0.799277 0
M  V30 1621 H 146.267 -4.12536 0.565946 0
M  V30 1622 H 148.864 -4.91725 -2.10025 0
M  V30 1623 H 149.207 -3.27166 -2.57426 0
M  V30 1624 H 149.74 -3.85564 -0.979023 0
M  V30 1625 H 146.479 -6.54602 0.342906 0
M  V30 1626 H 145.999 -5.87037 -1.23077 0
M  V30 1627 H 147.678 -6.39863 -0.958317 0
M  V30 1628 N 147.81 0.181792 -1.56548 0
M  V30 1629 C 149.05 0.906711 -1.83189 0
M  V30 1630 C 149.414 1.79882 -0.671312 0
M  V30 1631 O 150.615 2.56054 -0.81792 0
M  V30 1632 C 148.886 1.69023 -3.14906 0
M  V30 1633 S 150.445 2.46535 -3.62996 0
M  V30 1634 H 147.263 0.303877 -0.642791 0
M  V30 1635 H 149.865 0.169107 -1.94767 0
M  V30 1636 H 148.569 1.02571 -3.97376 0
M  V30 1637 H 148.1 2.46941 -3.06241 0
M  V30 1638 H 150.115 3.71014 -3.29489 0
M  V30 1639 N 149.288 1.51039 0.449983 0
M  V30 1640 C 150.221 1.66105 1.56474 0
M  V30 1641 C 151.199 0.508776 1.54435 0
M  V30 1642 O 152.383 0.731005 1.73749 0
M  V30 1643 C 149.51 1.66304 2.9506 0
M  V30 1644 C 148.556 2.87346 3.15174 0
M  V30 1645 S 149.389 4.4835 2.92818 0
M  V30 1646 C 150.545 4.51274 4.33708 0
M  V30 1647 H 150.778 2.60397 1.43459 0
M  V30 1648 H 148.311 1.40565 0.638805 0
M  V30 1649 H 150.269 1.67103 3.74949 0
M  V30 1650 H 148.93 0.732108 3.05449 0
M  V30 1651 H 148.123 2.83849 4.16468 0
M  V30 1652 H 147.725 2.84223 2.43091 0
M  V30 1653 H 150.017 4.26136 5.26701 0
M  V30 1654 H 150.96 5.53017 4.42242 0
M  V30 1655 H 151.368 3.80738 4.16772 0
M  V30 1656 N 150.766 -0.704594 1.40972 0
M  V30 1657 C 152.015 -1.46018 1.39146 0
M  V30 1658 C 152.328 -1.956 0.000589254 0
M  V30 1659 O 153.534 -2.71137 -0.1403 0
M  V30 1660 C 151.99 -2.63996 2.4461 0
M  V30 1661 C 151.598 -2.21238 3.89561 0
M  V30 1662 C 153.342 -3.41677 2.51907 0
M  V30 1663 C 151.249 -3.3612 4.86598 0
M  V30 1664 H 150.179 -0.548444 0.517422 0
M  V30 1665 H 152.83 -0.765784 1.66757 0
M  V30 1666 H 151.212 -3.3566 2.10115 0
M  V30 1667 H 152.386 -1.56923 4.33257 0
M  V30 1668 H 150.701 -1.56574 3.85841 0
M  V30 1669 H 153.298 -4.27182 3.2159 0
M  V30 1670 H 153.641 -3.86247 1.55303 0
M  V30 1671 H 154.174 -2.77064 2.85448 0
M  V30 1672 H 150.913 -2.96572 5.84573 0
M  V30 1673 H 150.433 -3.99315 4.47557 0
M  V30 1674 H 152.112 -4.02029 5.06934 0
M  V30 1675 N 152.244 -1.26651 -0.937939 0
M  V30 1676 C 153.177 -1.02811 -2.03728 0
M  V30 1677 C 154.155 0.0481915 -1.62529 0
M  V30 1678 O 155.339 -0.0948839 -1.88261 0
M  V30 1679 C 152.466 -0.557517 -3.3408 0
M  V30 1680 C 151.512 -1.62686 -3.94253 0
M  V30 1681 S 152.345 -3.21667 -4.28125 0
M  V30 1682 C 153.501 -2.76384 -5.61572 0
M  V30 1683 H 153.734 -1.95891 -2.23638 0
M  V30 1684 H 151.267 -1.10367 -1.07974 0
M  V30 1685 H 153.225 -0.292674 -4.09455 0
M  V30 1686 H 151.886 0.353062 -3.12109 0
M  V30 1687 H 151.079 -1.24866 -4.88287 0
M  V30 1688 H 150.681 -1.84324 -3.25424 0
M  V30 1689 H 152.973 -2.2105 -6.40424 0
M  V30 1690 H 153.916 -3.69123 -6.0428 0
M  V30 1691 H 154.324 -2.15847 -5.21604 0
M  V30 1692 N 153.722 1.14298 -1.08507 0
M  V30 1693 C 154.969 1.85359 -0.815373 0
M  V30 1694 C 155.297 1.83001 0.658865 0
M  V30 1695 O 154.552 1.25655 1.50031 0
M  V30 1696 C 154.851 3.33547 -1.28379 0
M  V30 1697 C 154.517 3.56093 -2.76602 0
M  V30 1698 C 153.179 3.61955 -3.17084 0
M  V30 1699 C 155.531 3.64834 -3.72217 0
M  V30 1700 C 152.859 3.74082 -4.51973 0
M  V30 1701 C 155.211 3.78487 -5.06883 0
M  V30 1702 C 153.875 3.82598 -5.46969 0
M  V30 1703 H 153.145 0.678276 -0.298366 0
M  V30 1704 H 155.792 1.35002 -1.35819 0
M  V30 1705 H 154.097 3.86191 -0.660593 0
M  V30 1706 H 155.794 3.86959 -1.05186 0
M  V30 1707 H 152.384 3.52179 -2.4427 0
M  V30 1708 H 156.568 3.59595 -3.42061 0
M  V30 1709 H 151.824 3.75527 -4.82483 0
M  V30 1710 H 155.998 3.84193 -5.80834 0
M  V30 1711 H 153.625 3.91747 -6.51489 0
M  V30 1712 N 155.201 0.870884 1.31352 0
M  V30 1713 C 156.448 0.482273 1.96673 0
M  V30 1714 C 156.776 -0.965638 1.68836 0
M  V30 1715 O 156.031 -1.69514 0.977937 0
M  V30 1716 C 156.33 0.687157 3.50732 0
M  V30 1717 C 155.996 2.108 3.9859 0
M  V30 1718 C 154.658 2.49656 4.1137 0
M  V30 1719 C 157.01 3.03459 4.23748 0
M  V30 1720 C 154.338 3.80412 4.46659 0
M  V30 1721 C 156.69 4.3373 4.60501 0
M  V30 1722 C 155.354 4.725 4.71487 0
M  V30 1723 H 154.624 0.176476 0.719679 0
M  V30 1724 H 157.271 1.10405 1.56471 0
M  V30 1725 H 155.576 -0.0177476 3.91796 0
M  V30 1726 H 157.273 0.366284 3.99324 0
M  V30 1727 H 153.863 1.79633 3.8914 0
M  V30 1728 H 158.047 2.74665 4.13368 0
M  V30 1729 H 153.303 4.1021 4.53362 0
M  V30 1730 H 157.477 5.05578 4.78919 0
M  V30 1731 H 155.104 5.73859 4.98588 0
M  V30 1732 N 156.679 -1.44442 0.630414 0
M  V30 1733 C 157.928 -2.01267 0.132073 0
M  V30 1734 C 158.241 -1.50172 -1.25331 0
M  V30 1735 O 159.447 -1.9912 -1.84562 0
M  V30 1736 C 157.903 -3.59422 0.185362 0
M  V30 1737 C 157.511 -4.19514 1.57201 0
M  V30 1738 C 159.255 -4.23724 -0.256553 0
M  V30 1739 C 157.162 -5.69891 1.58045 0
M  V30 1740 H 156.092 -0.752619 0.0456092 0
M  V30 1741 H 158.743 -1.65666 0.789106 0
M  V30 1742 H 157.125 -3.92318 -0.538759 0
M  V30 1743 H 158.299 -3.98156 2.31966 0
M  V30 1744 H 156.614 -3.67496 1.95795 0
M  V30 1745 H 159.211 -5.34019 -0.269767 0
M  V30 1746 H 159.554 -3.96013 -1.28372 0
M  V30 1747 H 160.087 -3.95629 0.41505 0
M  V30 1748 H 156.826 -6.02336 2.58597 0
M  V30 1749 H 156.346 -5.93373 0.875725 0
M  V30 1750 H 158.025 -6.33515 1.31408 0
M  V30 1751 N 158.157 -0.370918 -1.53173 0
M  V30 1752 C 159.403 0.217423 -2.01631 0
M  V30 1753 C 159.736 1.47983 -1.25756 0
M  V30 1754 O 159.011 1.91274 -0.352764 0
M  V30 1755 C 159.294 0.503982 -3.56556 0
M  V30 1756 C 159.147 -0.77243 -4.43118 0
M  V30 1757 C 160.466 1.30234 -4.20389 0
M  V30 1758 H 157.585 0.0775486 -0.732909 0
M  V30 1759 H 160.227 -0.496863 -1.83388 0
M  V30 1760 H 158.377 1.11248 -3.72231 0
M  V30 1761 H 160.049 -1.4098 -4.39229 0
M  V30 1762 H 158.292 -1.39167 -4.10871 0
M  V30 1763 H 158.963 -0.526815 -5.4948 0
M  V30 1764 H 161.439 0.787546 -4.08579 0
M  V30 1765 H 160.315 1.47158 -5.28806 0
M  V30 1766 H 160.576 2.31237 -3.76805 0
M  V30 1767 N 159.635 1.57281 -0.100228 0
M  V30 1768 C 160.865 1.98591 0.569681 0
M  V30 1769 C 161.273 0.978315 1.61943 0
M  V30 1770 O 160.616 -0.0396108 1.83657 0
M  V30 1771 C 160.678 3.36282 1.271 0
M  V30 1772 C 160.342 4.55488 0.371409 0
M  V30 1773 C 161.339 5.18491 -0.382504 0
M  V30 1774 C 159.024 5.01474 0.287965 0
M  V30 1775 C 161.018 6.25852 -1.20779 0
M  V30 1776 C 158.705 6.08701 -0.540965 0
M  V30 1777 C 159.703 6.70755 -1.28749 0
M  V30 1778 O 159.391 7.75914 -2.10269 0
M  V30 1779 H 159.123 0.65752 0.156982 0
M  V30 1780 H 161.677 2.0463 -0.177734 0
M  V30 1781 H 159.907 3.26941 2.0651 0
M  V30 1782 H 161.596 3.62005 1.83595 0
M  V30 1783 H 162.362 4.83891 -0.3278 0
M  V30 1784 H 158.241 4.52932 0.858689 0
M  V30 1785 H 161.785 6.74218 -1.79096 0
M  V30 1786 H 157.682 6.42732 -0.597131 0
M  V30 1787 H 158.45 7.92925 -2.03007 0
M  V30 1788 N 161.113 -0.173488 1.56642 0
M  V30 1789 C 162.338 -0.910149 1.86363 0
M  V30 1790 C 162.763 -1.75132 0.686318 0
M  V30 1791 O 162.121 -1.77595 -0.364643 0
M  V30 1792 C 162.169 -1.76447 3.14482 0
M  V30 1793 O 161.273 -2.86584 2.96553 0
M  V30 1794 H 160.614 -0.255086 0.613047 0
M  V30 1795 H 163.144 -0.172283 2.03873 0
M  V30 1796 H 163.154 -2.16483 3.45831 0
M  V30 1797 H 161.829 -1.14658 3.99783 0
M  V30 1798 H 160.406 -2.50146 2.76553 0
M  V30 1799 N 162.591 -1.51276 -0.441967 0
M  V30 1800 C 163.521 -1.752 -1.54361 0
M  V30 1801 C 164.502 -0.601682 -1.59103 0
M  V30 1802 O 165.687 -0.843913 -1.74905 0
M  V30 1803 C 162.817 -1.87282 -2.92477 0
M  V30 1804 C 161.771 -3.02687 -3.02596 0
M  V30 1805 C 161.097 -2.99947 -4.42647 0
M  V30 1806 C 162.397 -4.4273 -2.77106 0
M  V30 1807 H 164.091 -2.67442 -1.34592 0
M  V30 1808 H 161.637 -1.28694 -0.646048 0
M  V30 1809 H 163.59 -2.02602 -3.695 0
M  V30 1810 H 162.314 -0.916844 -3.13467 0
M  V30 1811 H 160.973 -2.87065 -2.28012 0
M  V30 1812 H 160.621 -2.02136 -4.60597 0
M  V30 1813 H 160.321 -3.77439 -4.50348 0
M  V30 1814 H 161.845 -3.17354 -5.2165 0
M  V30 1815 H 163.259 -4.58727 -3.43864 0
M  V30 1816 H 161.656 -5.21893 -2.96222 0
M  V30 1817 H 162.726 -4.53087 -1.72744 0
M  V30 1818 N 164.069 0.697108 -1.41344 0
M  V30 1819 C 165.316 1.45714 -1.40619 0
M  V30 1820 C 165.644 1.94494 -0.0147907 0
M  V30 1821 O 164.899 1.69794 0.973066 0
M  V30 1822 C 165.198 2.68553 -2.35826 0
M  V30 1823 C 164.864 2.38438 -3.82698 0
M  V30 1824 C 163.526 2.29936 -4.22709 0
M  V30 1825 C 165.878 2.13567 -4.75435 0
M  V30 1826 C 163.206 1.94656 -5.53467 0
M  V30 1827 C 165.558 1.79797 -6.06511 0
M  V30 1828 C 164.222 1.69789 -6.45545 0
M  V30 1829 H 163.492 0.533206 -0.51456 0
M  V30 1830 H 166.139 0.796901 -1.74131 0
M  V30 1831 H 164.444 3.39503 -1.95563 0
M  V30 1832 H 166.141 3.2669 -2.32539 0
M  V30 1833 H 162.731 2.4595 -3.51008 0
M  V30 1834 H 166.915 2.19082 -4.45328 0
M  V30 1835 H 162.171 1.8546 -5.82593 0
M  V30 1836 H 166.345 1.59572 -6.77872 0
M  V30 1837 H 163.972 1.4222 -7.46778 0
M  V30 1838 N 165.547 1.27147 0.931209 0
M  V30 1839 C 166.795 1.13055 1.6752 0
M  V30 1840 C 167.116 -0.324791 1.92276 0
M  V30 1841 O 166.386 -1.22775 1.52654 0
M  V30 1842 H 164.966 0.415391 0.620854 0
M  V30 1843 H 167.628 1.59623 1.11833 0
M  V30 1844 H 166.724 1.65694 2.64485 0
M  V30 1845 N 167.025 -1.13721 1.09112 0
M  V30 1846 C 167.973 -2.21103 0.722219 0
M  V30 1847 C 168.967 -1.67147 -0.275374 0
M  V30 1848 O 170.173 -1.79477 -0.137176 0
M  V30 1849 H 166.548 -0.720445 0.215553 0
M  V30 1850 H 168.519 -2.49483 1.63709 0
M  V30 1851 C 167.268 -3.47352 0.15543 0
M  V30 1852 H 166.591 -3.89206 0.914246 0
M  V30 1853 H 168.031 -4.2395 -0.0647967 0
M  V30 1854 C 166.49 -3.1814 -1.10852 0
M  V30 1855 O 167.02 -3.36604 -2.19227 0
M  V30 1856 N 165.226 -2.72045 -1.02176 0
M  V30 1857 H 164.773 -2.57221 -0.139764 0
M  V30 1858 H 164.731 -2.52875 -1.8682 0
M  V30 1859 N 168.503 -0.877838 -1.30888 0
M  V30 1860 C 169.45 -0.337538 -2.28318 0
M  V30 1861 C 170.42 0.568346 -1.56074 0
M  V30 1862 O 171.605 0.498298 -1.84178 0
M  V30 1863 C 168.745 0.448142 -3.42178 0
M  V30 1864 C 167.858 -0.48615 -4.29256 0
M  V30 1865 C 166.993 0.314427 -5.30269 0
M  V30 1866 C 166.032 -0.615791 -6.08995 0
M  V30 1867 N 165.169 0.14902 -7.01942 0
M  V30 1868 H 170.009 -1.17356 -2.73919 0
M  V30 1869 H 167.546 -0.590094 -1.34745 0
M  V30 1870 H 169.504 0.919517 -4.06941 0
M  V30 1871 H 168.134 1.24879 -2.97666 0
M  V30 1872 H 167.186 -1.076 -3.64865 0
M  V30 1873 H 168.498 -1.19909 -4.84173 0
M  V30 1874 H 167.652 0.847969 -6.00745 0
M  V30 1875 H 166.391 1.06062 -4.76027 0
M  V30 1876 H 165.396 -1.16102 -5.37401 0
M  V30 1877 H 166.621 -1.36097 -6.65323 0
M  V30 1878 H 164.567 0.877884 -6.50099 0
M  V30 1879 H 164.484 -0.504433 -7.54315 0
M  V30 1880 H 165.752 0.663537 -7.76671 0
M  V30 1881 N 169.982 1.44106 -0.638065 0
M  V30 1882 C 170.929 2.30715 0.062701 0
M  V30 1883 C 171.899 1.43882 0.829883 0
M  V30 1884 O 173.084 1.72775 0.809532 0
M  V30 1885 C 170.224 3.29258 1.03358 0
M  V30 1886 C 169.337 4.31192 0.26409 0
M  V30 1887 C 168.472 5.16825 1.22741 0
M  V30 1888 C 167.511 6.10462 0.447475 0
M  V30 1889 N 166.648 6.8877 1.36161 0
M  V30 1890 H 171.488 2.90096 -0.681781 0
M  V30 1891 H 169.025 1.42925 -0.347988 0
M  V30 1892 H 170.983 3.84886 1.60992 0
M  V30 1893 H 169.613 2.71562 1.74511 0
M  V30 1894 H 168.665 3.77981 -0.428295 0
M  V30 1895 H 169.977 4.97619 -0.343052 0
M  V30 1896 H 169.131 5.77004 1.87487 0
M  V30 1897 H 167.87 4.50488 1.86847 0
M  V30 1898 H 166.875 5.49386 -0.213433 0
M  V30 1899 H 168.1 6.78837 -0.188968 0
M  V30 1900 H 166.046 6.25096 1.98975 0
M  V30 1901 H 165.963 7.51663 0.808656 0
M  V30 1902 H 167.231 7.53467 1.99769 0
M  V30 1903 N 171.46 0.379036 1.52974 0
M  V30 1904 C 172.708 -0.206014 2.01047 0
M  V30 1905 C 173.029 -1.48175 1.26765 0
M  V30 1906 O 172.299 -1.92085 0.384743 0
M  V30 1907 H 170.879 -0.0791184 0.742798 0
M  V30 1908 H 173.541 0.508366 1.88153 0
M  V30 1909 H 172.637 -0.423501 3.09213 0
M  V30 1910 N 172.938 -1.57226 0.108567 0
M  V30 1911 C 173.886 -2.16002 -0.862885 0
M  V30 1912 C 174.88 -1.10644 -1.28274 0
M  V30 1913 O 176.086 -1.28966 -1.2557 0
M  V30 1914 H 172.461 -0.691148 -0.296342 0
M  V30 1915 H 174.432 -2.96427 -0.342575 0
M  V30 1916 C 173.181 -2.76576 -2.10716 0
M  V30 1917 H 172.504 -3.5734 -1.793 0
M  V30 1918 H 173.944 -3.21253 -2.76717 0
M  V30 1919 C 172.403 -1.73137 -2.89007 0
M  V30 1920 O 172.933 -1.17842 -3.84026 0
M  V30 1921 N 171.139 -1.43317 -2.52801 0
M  V30 1922 H 170.686 -1.88473 -1.75601 0
M  V30 1923 H 170.644 -0.743485 -3.05483 0
M  V30 1924 N 174.416 0.165178 -1.56732 0
M  V30 1925 C 175.641 0.900253 -1.86843 0
M  V30 1926 C 176.066 1.74766 -0.695596 0
M  V30 1927 O 175.424 1.77786 0.35522 0
M  V30 1928 C 175.472 1.74777 -3.15413 0
M  V30 1929 O 174.576 2.85007 -2.98068 0
M  V30 1930 H 173.917 0.251832 -0.614391 0
M  V30 1931 H 176.447 0.161468 -2.03962 0
M  V30 1932 H 176.457 2.14646 -3.46974 0
M  V30 1933 H 175.132 1.12537 -4.00385 0
M  V30 1934 H 173.709 2.48676 -2.77875 0
M  V30 1935 N 175.894 1.51508 0.433938 0
M  V30 1936 C 176.841 1.73068 1.52696 0
M  V30 1937 C 177.811 0.572441 1.55924 0
M  V30 1938 O 178.996 0.807253 1.72882 0
M  V30 1939 C 176.136 1.86474 2.90381 0
M  V30 1940 C 175.249 3.14037 2.96656 0
M  V30 1941 C 174.384 3.18019 4.25485 0
M  V30 1942 C 173.423 4.39882 4.2564 0
M  V30 1943 N 172.56 4.41394 5.45999 0
M  V30 1944 H 177.4 2.66366 1.33615 0
M  V30 1945 H 174.937 1.32008 0.649018 0
M  V30 1946 H 176.895 1.92229 3.70275 0
M  V30 1947 H 175.525 0.965809 3.08013 0
M  V30 1948 H 174.577 3.17575 2.09404 0
M  V30 1949 H 175.889 4.0394 2.92633 0
M  V30 1950 H 175.043 3.22708 5.13755 0
M  V30 1951 H 173.782 2.2601 4.3217 0
M  V30 1952 H 172.787 4.35366 3.35763 0
M  V30 1953 H 174.012 5.33159 4.20617 0
M  V30 1954 H 171.958 3.52258 5.53399 0
M  V30 1955 H 171.875 5.25111 5.4387 0
M  V30 1956 H 173.143 4.50281 6.36292 0
M  V30 1957 N 177.372 -0.689602 1.41712 0
M  V30 1958 C 178.282 -1.83314 1.46401 0
M  V30 1959 C 179.298 -1.7036 0.35405 0
M  V30 1960 O 180.474 -1.92171 0.602692 0
M  V30 1961 C 177.539 -3.19344 1.34982 0
M  V30 1962 C 176.6 -3.44363 2.56344 0
M  V30 1963 C 175.833 -4.73904 2.45461 0
M  V30 1964 O 176.056 -5.508 1.48241 0
M  V30 1965 O 174.99 -4.99839 3.35328 0
M  V30 1966 H 178.816 -1.82314 2.42889 0
M  V30 1967 H 176.401 -0.843438 1.23315 0
M  V30 1968 H 178.283 -4.00547 1.3092 0
M  V30 1969 H 176.958 -3.21014 0.41612 0
M  V30 1970 H 175.865 -2.63067 2.65982 0
M  V30 1971 H 177.198 -3.47512 3.48563 0
M  V30 1972 N 178.85 -1.27639 -0.924453 0
M  V30 1973 C 180.266 -1.05113 -1.20097 0
M  V30 1974 C 180.466 0.213262 -2.00368 0
M  V30 1975 O 179.522 0.91787 -2.35226 0
M  V30 1976 C 180.835 -2.29244 -1.94596 0
M  V30 1977 C 182.383 -2.34315 -2.07522 0
M  V30 1978 C 182.858 -3.58183 -2.85427 0
M  V30 1979 N 184.349 -3.5876 -2.92994 0
M  V30 1980 C 185.084 -4.51277 -3.53746 0
M  V30 1981 N 184.58 -5.54102 -4.15863 0
M  V30 1982 N 186.373 -4.38894 -3.51181 0
M  V30 1983 H 178.524 -2.08821 -0.388264 0
M  V30 1984 H 180.787 -0.918568 -0.234385 0
M  V30 1985 H 180.493 -3.21301 -1.43034 0
M  V30 1986 H 180.367 -2.34816 -2.95197 0
M  V30 1987 H 182.754 -1.42762 -2.58269 0
M  V30 1988 H 182.835 -2.32744 -1.06131 0
M  V30 1989 H 182.479 -4.50074 -2.35363 0
M  V30 1990 H 182.409 -3.57006 -3.8711 0
M  V30 1991 H 184.9 -2.84398 -2.4885 0
M  V30 1992 H 185.213 -6.20859 -4.60168 0
M  V30 1993 H 183.558 -5.57941 -4.144 0
M  V30 1994 H 186.749 -3.57772 -3.01856 0
M  V30 1995 H 186.922 -5.11186 -3.98237 0
M  V30 1996 N 180.328 1.1314 -1.09713 0
M  V30 1997 C 181.278 2.16709 -0.708593 0
M  V30 1998 C 182.262 1.58471 0.278523 0
M  V30 1999 O 183.454 1.76779 0.088427 0
M  V30 2000 C 180.583 3.43039 -0.133923 0
M  V30 2001 C 179.669 4.08277 -1.14763 0
M  V30 2002 N 180.06 4.48637 -2.33577 0
M  V30 2003 C 178.358 4.34954 -0.986446 0
M  V30 2004 C 179.059 4.9952 -2.98085 0
M  V30 2005 N 178.035 4.94561 -2.25632 0
M  V30 2006 H 181.837 2.45672 -1.61315 0
M  V30 2007 H 179.351 1.29967 -0.973775 0
M  V30 2008 H 181.348 4.16583 0.162465 0
M  V30 2009 H 180.008 3.15549 0.765447 0
M  V30 2010 H 181.019 4.41246 -2.7115 0
M  V30 2011 H 177.696 4.17258 -0.142008 0
M  V30 2012 H 179.086 5.40521 -3.99108 0
M  V30 2013 N 181.806 0.884767 1.30421 0
M  V30 2014 C 183.222 0.57874 1.48737 0
M  V30 2015 C 183.422 -0.883567 1.81095 0
M  V30 2016 O 182.478 -1.6648 1.89844 0
M  V30 2017 C 183.791 1.49171 2.61091 0
M  V30 2018 C 185.339 1.49532 2.74971 0
M  V30 2019 C 185.814 2.39421 3.90438 0
M  V30 2020 N 187.305 2.37383 3.97748 0
M  V30 2021 C 188.04 3.03647 4.86401 0
M  V30 2022 N 187.536 3.79136 5.79852 0
M  V30 2023 N 189.329 2.9288 4.79768 0
M  V30 2024 H 181.48 1.83075 1.0769 0
M  V30 2025 H 183.743 0.783637 0.533495 0
M  V30 2026 H 183.449 2.53291 2.44001 0
M  V30 2027 H 183.323 1.20113 3.57565 0
M  V30 2028 H 185.71 0.46163 2.91467 0
M  V30 2029 H 185.791 1.8262 1.79119 0
M  V30 2030 H 185.435 3.42874 3.74699 0
M  V30 2031 H 185.365 2.03649 4.85628 0
M  V30 2032 H 187.856 1.82525 3.30897 0
M  V30 2033 H 188.169 4.26789 6.4426 0
M  V30 2034 H 186.514 3.83243 5.79784 0
M  V30 2035 H 189.705 2.33433 4.05742 0
M  V30 2036 H 189.878 3.448 5.4865 0
M  V30 2037 N 183.284 -1.43765 0.645699 0
M  V30 2038 C 184.509 -2.06767 0.161883 0
M  V30 2039 C 184.934 -1.48034 -1.16049 0
M  V30 2040 O 184.292 -0.587369 -1.71522 0
M  V30 2041 C 184.34 -3.60519 0.0762003 0
M  V30 2042 O 183.444 -4.00982 -0.963721 0
M  V30 2043 H 182.785 -0.657675 0.091429 0
M  V30 2044 H 185.315 -1.84397 0.886499 0
M  V30 2045 H 185.325 -4.07853 -0.109604 0
M  V30 2046 H 184 -4.02646 1.04157 0
M  V30 2047 H 182.577 -3.65253 -0.751312 0
M  V30 2048 N 184.763 -0.387143 -1.52771 0
M  V30 2049 C 186.01 0.195735 -2.01552 0
M  V30 2050 C 186.338 1.46995 -1.27369 0
M  V30 2051 O 185.593 1.92325 -0.361879 0
M  V30 2052 C 185.892 0.512209 -3.53711 0
M  V30 2053 C 185.558 -0.670202 -4.45891 0
M  V30 2054 C 184.22 -0.994586 -4.70809 0
M  V30 2055 C 186.572 -1.46134 -5.00294 0
M  V30 2056 C 183.9 -2.11169 -5.4738 0
M  V30 2057 C 186.252 -2.56903 -5.78086 0
M  V30 2058 C 184.916 -2.89852 -6.01284 0
M  V30 2059 H 184.186 0.0716246 -0.73753 0
M  V30 2060 H 186.833 -0.524046 -1.8419 0
M  V30 2061 H 185.138 1.31329 -3.69134 0
M  V30 2062 H 186.835 0.975804 -3.88946 0
M  V30 2063 H 183.425 -0.407366 -4.2666 0
M  V30 2064 H 187.609 -1.22397 -4.80971 0
M  V30 2065 H 182.865 -2.3707 -5.63567 0
M  V30 2066 H 187.039 -3.18608 -6.19243 0
M  V30 2067 H 184.666 -3.76533 -6.60399 0
M  V30 2068 N 186.241 1.57166 -0.116904 0
M  V30 2069 C 187.189 2.16457 0.851418 0
M  V30 2070 C 188.183 1.11323 1.27686 0
M  V30 2071 O 189.389 1.2963 1.24884 0
M  V30 2072 H 185.764 0.69271 0.292672 0
M  V30 2073 H 187.735 2.96605 0.32685 0
M  V30 2074 C 186.484 2.77689 2.09246 0
M  V30 2075 H 185.807 3.58285 1.77402 0
M  V30 2076 H 187.247 3.22716 2.7501 0
M  V30 2077 C 185.706 1.74667 2.88085 0
M  V30 2078 O 186.236 1.19877 3.83396 0
M  V30 2079 N 184.442 1.44656 2.52038 0
M  V30 2080 H 183.989 1.89402 1.74599 0
M  V30 2081 H 183.947 0.759675 3.05084 0
M  V30 2082 N 187.719 -0.156864 1.56817 0
M  V30 2083 C 188.649 -1.19589 2.00551 0
M  V30 2084 C 189.63 -1.4536 0.883426 0
M  V30 2085 O 190.815 -1.56449 1.15054 0
M  V30 2086 C 187.945 -2.53143 2.37773 0
M  V30 2087 C 186.899 -2.41913 3.53075 0
M  V30 2088 C 186.225 -3.80088 3.76081 0
M  V30 2089 C 187.525 -1.91157 4.86062 0
M  V30 2090 H 189.219 -0.832293 2.87599 0
M  V30 2091 H 186.765 -0.398918 1.38364 0
M  V30 2092 H 188.718 -3.26047 2.66967 0
M  V30 2093 H 187.442 -2.91319 1.4765 0
M  V30 2094 H 186.101 -1.71462 3.24031 0
M  V30 2095 H 185.749 -4.15683 2.83225 0
M  V30 2096 H 185.449 -3.73439 4.53671 0
M  V30 2097 H 186.973 -4.54556 4.0769 0
M  V30 2098 H 188.387 -2.53846 5.14038 0
M  V30 2099 H 186.784 -1.95422 5.67389 0
M  V30 2100 H 187.854 -0.866673 4.77092 0
M  V30 2101 N 189.197 -1.51736 -0.425897 0
M  V30 2102 C 190.129 -1.70083 -1.53638 0
M  V30 2103 C 191.142 -0.581349 -1.52066 0
M  V30 2104 O 192.331 -0.856017 -1.56635 0
M  V30 2105 C 189.431 -1.71078 -2.9255 0
M  V30 2106 C 188.604 -2.99795 -3.185 0
M  V30 2107 C 187.663 -2.92825 -4.37196 0
M  V30 2108 O 186.689 -3.66756 -4.35291 0
M  V30 2109 N 187.891 -2.0946 -5.41393 0
M  V30 2110 H 190.656 -2.65882 -1.383 0
M  V30 2111 H 188.217 -1.49765 -0.614988 0
M  V30 2112 H 190.209 -1.63969 -3.69995 0
M  V30 2113 H 188.779 -0.828242 -3.01428 0
M  V30 2114 H 187.999 -3.20684 -2.2925 0
M  V30 2115 H 189.287 -3.84977 -3.32671 0
M  V30 2116 H 188.685 -1.48792 -5.45781 0
M  V30 2117 H 187.242 -2.08221 -6.17647 0
M  V30 2118 N 190.675 0.682077 -1.42076 0
M  V30 2119 C 191.922 1.44215 -1.42156 0
M  V30 2120 C 192.25 1.94468 -0.0354186 0
M  V30 2121 O 191.505 1.70816 0.955002 0
M  V30 2122 C 191.804 2.66036 -2.38662 0
M  V30 2123 C 191.47 2.34366 -3.85206 0
M  V30 2124 C 190.132 2.25439 -4.25124 0
M  V30 2125 C 192.484 2.08513 -4.77673 0
M  V30 2126 C 189.812 1.88775 -5.55501 0
M  V30 2127 C 192.164 1.73354 -6.08384 0
M  V30 2128 C 190.828 1.62933 -6.47309 0
M  V30 2129 H 190.098 0.527718 -0.520187 0
M  V30 2130 H 192.745 0.778387 -1.74967 0
M  V30 2131 H 191.05 3.3741 -1.99152 0
M  V30 2132 H 192.747 3.24205 -2.35991 0
M  V30 2133 H 189.337 2.42213 -3.53597 0
M  V30 2134 H 193.521 2.14346 -4.47626 0
M  V30 2135 H 188.777 1.7927 -5.84527 0
M  V30 2136 H 192.951 1.52373 -6.79526 0
M  V30 2137 H 190.578 1.34292 -7.48244 0
M  V30 2138 N 192.153 1.28127 0.917671 0
M  V30 2139 C 193.4 1.15052 1.66641 0
M  V30 2140 C 193.728 -0.301677 1.92146 0
M  V30 2141 O 192.983 -1.23622 1.51711 0
M  V30 2142 C 193.282 1.89018 3.03327 0
M  V30 2143 C 192.948 3.38832 2.97496 0
M  V30 2144 C 191.61 3.79693 2.95613 0
M  V30 2145 C 193.962 4.34378 2.88036 0
M  V30 2146 C 191.29 5.14447 2.82066 0
M  V30 2147 C 193.642 5.69201 2.7603 0
M  V30 2148 C 192.306 6.09343 2.72502 0
M  V30 2149 H 191.576 0.421006 0.609783 0
M  V30 2150 H 194.223 1.58855 1.06945 0
M  V30 2151 H 192.528 1.37752 3.66785 0
M  V30 2152 H 194.225 1.76321 3.60156 0
M  V30 2153 H 190.815 3.06342 2.99754 0
M  V30 2154 H 194.999 4.03775 2.88581 0
M  V30 2155 H 190.255 5.44681 2.77728 0
M  V30 2156 H 194.429 6.42901 2.67678 0
M  V30 2157 H 192.056 7.13712 2.61762 0
M  V30 2158 N 193.631 -1.12557 1.10312 0
M  V30 2159 C 194.594 -2.16434 0.75424 0
M  V30 2160 C 195.594 -1.59278 -0.220685 0
M  V30 2161 O 196.784 -1.742 0.00230591 0
M  V30 2162 C 193.916 -3.40699 0.116987 0
M  V30 2163 H 195.109 -2.48811 1.67431 0
M  V30 2164 H 192.662 -1.27542 0.903475 0
M  V30 2165 H 193.397 -3.13921 -0.813877 0
M  V30 2166 H 193.182 -3.83459 0.818613 0
M  V30 2167 H 194.672 -4.17451 -0.111387 0
M  V30 2168 N 195.109 -0.891671 -1.2995 0
M  V30 2169 C 196.358 -0.509521 -1.95158 0
M  V30 2170 C 196.671 0.947388 -1.71125 0
M  V30 2171 O 197.877 1.43669 -2.30372 0
M  V30 2172 C 196.333 -0.860315 -3.49466 0
M  V30 2173 C 195.941 -2.33545 -3.8231 0
M  V30 2174 C 197.685 -0.547687 -4.20952 0
M  V30 2175 C 195.592 -2.62752 -5.29826 0
M  V30 2176 H 194.522 -0.18682 -0.730489 0
M  V30 2177 H 197.173 -1.08756 -1.47798 0
M  V30 2178 H 195.555 -0.211285 -3.95436 0
M  V30 2179 H 196.729 -3.02936 -3.47227 0
M  V30 2180 H 195.044 -2.61629 -3.23944 0
M  V30 2181 H 197.641 -0.742854 -5.29515 0
M  V30 2182 H 197.984 0.51332 -4.13123 0
M  V30 2183 H 198.517 -1.1542 -3.80688 0
M  V30 2184 H 195.256 -3.6762 -5.42712 0
M  V30 2185 H 194.776 -1.97977 -5.66185 0
M  V30 2186 H 196.455 -2.48601 -5.97333 0
M  V30 2187 N 196.587 1.43421 -0.653314 0
M  V30 2188 C 197.812 2.06678 -0.172846 0
M  V30 2189 C 198.237 1.48648 1.15262 0
M  V30 2190 O 197.595 0.596457 1.71208 0
M  V30 2191 C 197.643 3.60474 -0.0953184 0
M  V30 2192 O 196.747 4.01487 0.942442 0
M  V30 2193 H 196.088 0.657181 -0.0949155 0
M  V30 2194 H 198.618 1.83925 -0.896265 0
M  V30 2195 H 198.628 4.07905 0.0879728 0
M  V30 2196 H 197.303 4.02088 -1.06291 0
M  V30 2197 H 195.88 3.65646 0.731932 0
M  V30 2198 N 198.065 0.39524 1.52563 0
M  V30 2199 C 198.998 -0.4813 2.23067 0
M  V30 2200 C 199.976 -1.05927 1.23362 0
M  V30 2201 O 201.16 -1.10979 1.52368 0
M  V30 2202 C 198.287 -1.66676 2.9485 0
M  V30 2203 C 197.333 -1.21348 4.08873 0
M  V30 2204 S 198.166 -0.190102 5.35162 0
M  V30 2205 C 199.322 -1.38121 6.1047 0
M  V30 2206 H 199.555 0.117381 2.97068 0
M  V30 2207 H 197.088 0.179458 1.53354 0
M  V30 2208 H 199.046 -2.3466 3.36816 0
M  V30 2209 H 197.707 -2.23676 2.20518 0
M  V30 2210 H 196.9 -2.09877 4.58222 0
M  V30 2211 H 196.502 -0.612486 3.68951 0
M  V30 2212 H 198.794 -2.30726 6.37002 0
M  V30 2213 H 199.737 -0.928521 7.01986 0
M  V30 2214 H 200.145 -1.60071 5.41329 0
M  V30 2215 N 199.544 -1.57102 0.125237 0
M  V30 2216 C 200.474 -2.18659 -0.819174 0
M  V30 2217 C 201.455 -1.12843 -1.27281 0
M  V30 2218 O 202.64 -1.41104 -1.33429 0
M  V30 2219 C 199.77 -2.79096 -2.06695 0
M  V30 2220 C 198.724 -3.90548 -1.75088 0
M  V30 2221 C 198.05 -4.37821 -3.06948 0
M  V30 2222 C 199.35 -5.12356 -1.01435 0
M  V30 2223 H 201.044 -2.9783 -0.306202 0
M  V30 2224 H 198.59 -1.4326 -0.145839 0
M  V30 2225 H 200.543 -3.2082 -2.73226 0
M  V30 2226 H 199.267 -1.97223 -2.60328 0
M  V30 2227 H 197.926 -3.49409 -1.10944 0
M  V30 2228 H 197.574 -3.52799 -3.58527 0
M  V30 2229 H 197.274 -5.12982 -2.86571 0
M  V30 2230 H 198.798 -4.822 -3.74587 0
M  V30 2231 H 200.212 -5.5106 -1.58132 0
M  V30 2232 H 198.609 -5.9314 -0.911319 0
M  V30 2233 H 199.679 -4.849 -0.00218681 0
M  V30 2234 N 201.022 0.148545 -1.56898 0
M  V30 2235 C 202.299 0.890019 -1.74178 0
M  V30 2236 C 202.679 1.99407 -0.692839 0
M  V30 2237 O 202.027 2.26671 0.288505 0
M  V30 2238 C 202.237 1.43389 -3.18183 0
M  V30 2239 C 203.585 1.89791 -3.79822 0
M  V30 2240 O 204.609 1.53134 -3.21603 0
M  V30 2241 O 203.468 2.57387 -4.82093 0
M  V30 2242 H 200.562 0.420496 -0.712118 0
M  V30 2243 H 203.108 0.134591 -1.69165 0
M  V30 2244 H 201.88 0.640383 -3.86024 0
M  V30 2245 H 201.503 2.25287 -3.27615 0
M  V30 2246 N 202.5 1.5196 0.417844 0
M  V30 2247 C 203.463 1.74065 1.49111 0
M  V30 2248 C 204.463 0.610537 1.48758 0
M  V30 2249 O 205.653 0.87832 1.50437 0
M  V30 2250 C 202.785 1.81502 2.88565 0
M  V30 2251 H 203.978 2.69869 1.30807 0
M  V30 2252 H 201.531 1.42244 0.647785 0
M  V30 2253 H 202.266 0.875813 3.1225 0
M  V30 2254 H 202.051 2.63651 2.90225 0
M  V30 2255 H 203.541 2.00376 3.66387 0
M  V30 2256 N 203.978 -0.674533 1.42435 0
M  V30 2257 C 205.218 -1.4466 1.44405 0
M  V30 2258 C 205.582 -1.91911 0.0585784 0
M  V30 2259 O 206.783 -2.68759 -0.0469991 0
M  V30 2260 C 205.054 -2.61136 2.44013 0
M  V30 2261 S 206.613 -3.49981 2.64687 0
M  V30 2262 H 203.431 -0.494074 0.511284 0
M  V30 2263 H 206.033 -0.785162 1.7904 0
M  V30 2264 H 204.737 -2.24662 3.43446 0
M  V30 2265 H 204.268 -3.32153 2.10803 0
M  V30 2266 H 206.283 -4.57124 1.93007 0
M  V30 2267 N 205.456 -1.28612 -0.910864 0
M  V30 2268 C 206.681 -1.1891 -1.69927 0
M  V30 2269 C 207.106 0.248372 -1.86453 0
M  V30 2270 O 206.464 1.17961 -1.37676 0
M  V30 2271 C 206.512 -1.89578 -3.06745 0
M  V30 2272 O 205.616 -1.20521 -3.94396 0
M  V30 2273 H 204.957 -0.412632 -0.520222 0
M  V30 2274 H 207.487 -1.69985 -1.1387 0
M  V30 2275 H 207.497 -1.97597 -3.56958 0
M  V30 2276 H 206.172 -2.94136 -2.94035 0
M  V30 2277 H 204.749 -1.20684 -3.52831 0
M  V30 2278 N 206.934 1.1197 -1.10907 0
M  V30 2279 C 208.18 1.8386 -0.855773 0
M  V30 2280 C 208.513 1.84134 0.617103 0
M  V30 2281 O 207.788 1.29041 1.45529 0
M  V30 2282 C 208.071 3.31305 -1.411 0
M  V30 2283 C 207.924 3.39456 -2.9511 0
M  V30 2284 C 209.243 4.2721 -1.05736 0
M  V30 2285 H 206.362 0.667545 -0.312334 0
M  V30 2286 H 209.004 1.31331 -1.37303 0
M  V30 2287 H 207.154 3.76169 -0.97105 0
M  V30 2288 H 208.826 3.03191 -3.47668 0
M  V30 2289 H 207.069 2.79849 -3.31462 0
M  V30 2290 H 207.74 4.43209 -3.29044 0
M  V30 2291 H 210.216 3.90497 -1.43706 0
M  V30 2292 H 209.092 5.28775 -1.47269 0
M  V30 2293 H 209.353 4.42088 0.0325958 0
M  V30 2294 N 208.412 0.89855 1.29475 0
M  V30 2295 C 209.661 0.519863 1.94885 0
M  V30 2296 C 209.974 -0.9383 1.71625 0
M  V30 2297 O 211.18 -1.42445 2.31131 0
M  V30 2298 C 209.636 0.878836 3.49005 0
M  V30 2299 C 209.244 2.35569 3.81066 0
M  V30 2300 C 210.988 0.570004 4.20656 0
M  V30 2301 C 208.895 2.65558 5.28425 0
M  V30 2302 H 207.825 0.190692 0.729488 0
M  V30 2303 H 210.476 1.09539 1.47219 0
M  V30 2304 H 208.858 0.232253 3.95318 0
M  V30 2305 H 210.032 3.04773 3.45616 0
M  V30 2306 H 208.347 2.63343 3.22552 0
M  V30 2307 H 210.944 0.770925 5.29113 0
M  V30 2308 H 211.287 -0.491404 4.1339 0
M  V30 2309 H 211.82 1.17438 3.8007 0
M  V30 2310 H 208.559 3.70493 5.40754 0
M  V30 2311 H 208.079 2.00977 5.65127 0
M  V30 2312 H 209.758 2.51765 5.96006 0
M  V30 2313 N 209.89 -1.43072 0.660911 0
M  V30 2314 C 210.82 -2.33497 -0.0122829 0
M  V30 2315 C 211.801 -1.49903 -0.803925 0
M  V30 2316 O 212.986 -1.78546 -0.763864 0
M  V30 2317 C 210.116 -3.33363 -0.973994 0
M  V30 2318 C 209.07 -4.27003 -0.291928 0
M  V30 2319 C 208.396 -5.16967 -1.36562 0
M  V30 2320 C 209.696 -5.15816 0.820462 0
M  V30 2321 H 211.39 -2.90038 0.742873 0
M  V30 2322 H 208.936 -1.39461 0.358688 0
M  V30 2323 H 210.889 -3.95524 -1.45392 0
M  V30 2324 H 209.613 -2.75095 -1.7604 0
M  V30 2325 H 208.272 -3.66217 0.167623 0
M  V30 2326 H 207.92 -4.55034 -2.14366 0
M  V30 2327 H 207.62 -5.80441 -0.914454 0
M  V30 2328 H 209.144 -5.82003 -1.84675 0
M  V30 2329 H 210.558 -5.71742 0.422366 0
M  V30 2330 H 208.955 -5.8805 1.19656 0
M  V30 2331 H 210.025 -4.55045 1.67518 0
M  V30 2332 N 211.368 -0.403325 -1.52352 0
M  V30 2333 C 212.331 0.413051 -2.25447 0
M  V30 2334 C 213.331 0.978513 -1.276 0
M  V30 2335 O 214.521 0.858305 -1.51587 0
M  V30 2336 C 211.653 1.58087 -3.02029 0
M  V30 2337 H 212.846 -0.227094 -2.99039 0
M  V30 2338 H 210.399 -0.155722 -1.55522 0
M  V30 2339 H 211.134 2.25804 -2.32772 0
M  V30 2340 H 210.919 1.18195 -3.73861 0
M  V30 2341 H 212.409 2.1585 -3.57489 0
M  V30 2342 N 212.846 1.57033 -0.133567 0
M  V30 2343 C 214.093 1.95686 0.520877 0
M  V30 2344 C 214.421 1.0177 1.6575 0
M  V30 2345 O 213.676 0.0443195 1.9565 0
M  V30 2346 C 213.975 3.40674 1.08057 0
M  V30 2347 C 213.641 4.50855 0.0637899 0
M  V30 2348 C 212.303 4.80716 -0.215757 0
M  V30 2349 C 214.655 5.17398 -0.62835 0
M  V30 2350 C 211.983 5.74433 -1.19348 0
M  V30 2351 C 214.335 6.12167 -1.5948 0
M  V30 2352 C 212.999 6.40414 -1.88218 0
M  V30 2353 H 212.269 0.716067 0.190602 0
M  V30 2354 H 214.916 1.9026 -0.217556 0
M  V30 2355 H 213.221 3.42865 1.89606 0
M  V30 2356 H 214.918 3.67902 1.59529 0
M  V30 2357 H 211.508 4.27605 0.291855 0
M  V30 2358 H 215.692 4.94472 -0.425562 0
M  V30 2359 H 210.948 5.94616 -1.42272 0
M  V30 2360 H 215.122 6.6281 -2.13671 0
M  V30 2361 H 212.749 7.12838 -2.64133 0
M  V30 2362 N 214.325 -0.140222 1.56975 0
M  V30 2363 C 215.574 -0.850152 1.82908 0
M  V30 2364 C 215.887 -1.82028 0.715892 0
M  V30 2365 O 217.093 -2.57485 0.861016 0
M  V30 2366 C 215.549 -1.5625 3.24213 0
M  V30 2367 C 215.157 -0.63443 4.43485 0
M  V30 2368 C 216.901 -2.25881 3.59413 0
M  V30 2369 C 214.808 -1.34879 5.75814 0
M  V30 2370 H 213.738 -0.321221 0.682153 0
M  V30 2371 H 216.389 -0.102874 1.83211 0
M  V30 2372 H 214.771 -2.35565 3.18316 0
M  V30 2373 H 215.945 0.12398 4.60633 0
M  V30 2374 H 214.26 -0.0461836 4.16374 0
M  V30 2375 H 216.857 -2.79978 4.5554 0
M  V30 2376 H 217.2 -3.02693 2.85802 0
M  V30 2377 H 217.733 -1.53477 3.67001 0
M  V30 2378 H 214.472 -0.622385 6.52539 0
M  V30 2379 H 213.992 -2.07974 5.6259 0
M  V30 2380 H 215.671 -1.88784 6.18845 0
M  V30 2381 N 215.803 -1.52179 -0.40978 0
M  V30 2382 C 217.051 -1.65878 -1.15451 0
M  V30 2383 C 217.372 -0.390771 -1.91044 0
M  V30 2384 O 216.642 0.594323 -1.86667 0
M  V30 2385 H 215.222 -0.611405 -0.429177 0
M  V30 2386 H 217.884 -1.89219 -0.467134 0
M  V30 2387 H 216.98 -2.49954 -1.86894 0
M  V30 2388 N 217.281 0.66697 -1.42791 0
M  V30 2389 C 218.211 1.79218 -1.49677 0
M  V30 2390 C 219.192 1.66405 -0.352623 0
M  V30 2391 O 220.377 1.85708 -0.567993 0
M  V30 2392 C 217.507 3.17565 -1.40605 0
M  V30 2393 C 216.461 3.45124 -2.53127 0
M  V30 2394 C 215.787 4.83127 -2.29112 0
M  V30 2395 C 217.087 3.41236 -3.95418 0
M  V30 2396 H 218.781 1.73713 -2.43853 0
M  V30 2397 H 216.327 0.83432 -1.17367 0
M  V30 2398 H 218.28 3.96022 -1.44029 0
M  V30 2399 H 217.004 3.23767 -0.429271 0
M  V30 2400 H 215.663 2.69031 -2.49034 0
M  V30 2401 H 215.311 4.85988 -1.29709 0
M  V30 2402 H 215.011 5.02528 -3.04531 0
M  V30 2403 H 216.535 5.63859 -2.34297 0
M  V30 2404 H 217.949 4.09651 -4.01073 0
M  V30 2405 H 216.346 3.72173 -4.70752 0
M  V30 2406 H 217.416 2.39665 -4.21532 0
M  V30 2407 N 218.759 1.29093 0.90403 0
M  V30 2408 C 219.987 1.19689 1.68766 0
M  V30 2409 C 220.402 -0.243113 1.87228 0
M  V30 2410 O 219.759 -1.16326 1.40621 0
M  V30 2411 C 219.81 1.90144 3.07453 0
M  V30 2412 O 219.531 3.2852 2.89838 0
M  V30 2413 C 221.032 1.87162 4.01852 0
M  V30 2414 H 218.252 0.415035 0.527244 0
M  V30 2415 H 220.796 1.7039 1.13082 0
M  V30 2416 H 218.951 1.43289 3.59926 0
M  V30 2417 H 219.365 3.63944 3.77684 0
M  V30 2418 H 220.839 2.41032 4.96596 0
M  V30 2419 H 221.316 0.84617 4.30972 0
M  V30 2420 H 221.922 2.33741 3.5531 0
M  V30 2421 N 220.237 -1.11381 1.11499 0
M  V30 2422 C 221.653 -1.35143 0.849031 0
M  V30 2423 C 221.853 -1.94515 -0.525938 0
M  V30 2424 O 220.909 -2.1785 -1.27662 0
M  V30 2425 C 222.222 -2.28249 1.95762 0
M  V30 2426 C 223.77 -2.41812 1.98736 0
M  V30 2427 C 224.245 -3.3824 3.088 0
M  V30 2428 N 225.736 -3.45803 3.08179 0
M  V30 2429 C 226.471 -4.20358 3.89982 0
M  V30 2430 N 225.967 -4.97884 4.8175 0
M  V30 2431 N 227.76 -4.15877 3.78157 0
M  V30 2432 H 219.911 -0.712062 2.00109 0
M  V30 2433 H 222.174 -0.376025 0.870235 0
M  V30 2434 H 221.88 -1.91817 2.94787 0
M  V30 2435 H 221.754 -3.28473 1.85433 0
M  V30 2436 H 224.141 -2.77518 1.00338 0
M  V30 2437 H 224.222 -1.41437 2.13141 0
M  V30 2438 H 223.866 -3.03261 4.07425 0
M  V30 2439 H 223.796 -4.38471 2.91635 0
M  V30 2440 H 226.287 -2.90506 2.41691 0
M  V30 2441 H 226.6 -5.52142 5.40702 0
M  V30 2442 H 224.945 -4.97043 4.85771 0
M  V30 2443 H 228.136 -3.544 3.05808 0
M  V30 2444 H 228.309 -4.73723 4.42143 0
M  V30 2445 N 221.715 -0.905404 -1.28997 0
M  V30 2446 C 222.943 -0.549846 -1.9946 0
M  V30 2447 C 223.358 0.866834 -1.67724 0
M  V30 2448 O 222.715 1.57298 -0.925404 0
M  V30 2449 C 222.766 -0.739387 -3.53858 0
M  V30 2450 O 222.487 -2.10031 -3.84472 0
M  V30 2451 C 223.988 -0.389541 -4.41585 0
M  V30 2452 H 221.208 -0.210429 -0.637151 0
M  V30 2453 H 223.752 -1.21632 -1.64396 0
M  V30 2454 H 221.907 -0.120023 -3.87214 0
M  V30 2455 H 222.321 -2.13385 -4.79132 0
M  V30 2456 H 223.795 -0.572972 -5.49018 0
M  V30 2457 H 224.272 0.673756 -4.34001 0
M  V30 2458 H 224.878 -0.986089 -4.1371 0
M  V30 2459 N 223.193 1.4272 -0.668489 0
M  V30 2460 C 224.421 2.05966 -0.196348 0
M  V30 2461 C 224.836 1.50191 1.14403 0
M  V30 2462 O 224.193 0.639208 1.7094 0
M  V30 2463 C 224.244 3.61314 -0.115815 0
M  V30 2464 O 223.965 4.1502 -1.40322 0
M  V30 2465 C 225.466 4.41663 0.380579 0
M  V30 2466 H 222.686 0.663954 -0.0969829 0
M  V30 2467 H 225.23 1.82966 -0.913446 0
M  V30 2468 H 223.385 3.83448 0.551931 0
M  V30 2469 H 223.799 5.08832 -1.27243 0
M  V30 2470 H 225.273 5.5065 0.385848 0
M  V30 2471 H 225.75 4.15792 1.41471 0
M  V30 2472 H 226.356 4.24534 -0.255209 0
M  V30 2473 N 224.671 0.411399 1.52136 0
M  V30 2474 C 225.919 -0.163322 2.01439 0
M  V30 2475 C 226.24 -1.45453 1.29879 0
M  V30 2476 O 225.51 -1.91225 0.4254 0
M  V30 2477 H 224.09 -0.0633447 0.744309 0
M  V30 2478 H 226.752 0.548161 1.87033 0
M  V30 2479 H 225.848 -0.357817 3.10042 0
M  V30 2480 N 226.149 -1.5696 0.141893 0
M  V30 2481 C 227.097 -2.17784 -0.816874 0
M  V30 2482 C 228.091 -1.1334 -1.25899 0
M  V30 2483 O 229.297 -1.316 -1.22806 0
M  V30 2484 H 225.672 -0.697278 -0.281615 0
M  V30 2485 H 227.643 -2.97087 -0.279621 0
M  V30 2486 C 226.392 -2.80983 -2.04802 0
M  V30 2487 H 225.715 -3.61062 -1.7168 0
M  V30 2488 H 227.155 -3.2705 -2.69841 0
M  V30 2489 C 225.614 -1.79228 -2.8527 0
M  V30 2490 O 226.144 -1.25962 -3.8144 0
M  V30 2491 N 224.35 -1.48647 -2.49704 0
M  V30 2492 H 223.897 -1.92155 -1.71564 0
M  V30 2493 H 223.855 -0.808115 -3.03837 0
M  V30 2494 N 227.627 0.131896 -1.57047 0
M  V30 2495 C 228.876 0.84044 -1.83356 0
M  V30 2496 C 229.189 1.81646 -0.725535 0
M  V30 2497 O 230.395 2.57025 -0.874659 0
M  V30 2498 C 228.851 1.54528 -3.25037 0
M  V30 2499 C 228.459 0.610902 -4.43815 0
M  V30 2500 C 230.203 2.23972 -3.60606 0
M  V30 2501 C 228.11 1.31823 -5.76521 0
M  V30 2502 H 227.04 0.317599 -0.683847 0
M  V30 2503 H 229.691 0.0931561 -1.83263 0
M  V30 2504 H 228.073 2.33873 -3.19561 0
M  V30 2505 H 229.247 -0.148407 -4.60561 0
M  V30 2506 H 227.562 0.0241016 -4.16393 0
M  V30 2507 H 230.159 2.77558 -4.57018 0
M  V30 2508 H 230.502 3.01173 -2.87403 0
M  V30 2509 H 231.035 1.51529 -3.6781 0
M  V30 2510 H 227.774 0.587771 -6.52859 0
M  V30 2511 H 227.294 2.04987 -5.63685 0
M  V30 2512 H 228.973 1.855 -6.19838 0
M  V30 2513 N 229.106 1.52395 0.401703 0
M  V30 2514 C 230.038 1.72505 1.50912 0
M  V30 2515 C 231.051 0.605468 1.51122 0
M  V30 2516 O 232.24 0.880828 1.55254 0
M  V30 2517 C 229.34 1.75711 2.89791 0
M  V30 2518 C 228.513 3.04824 3.1369 0
M  V30 2519 C 227.572 2.99743 4.32482 0
M  V30 2520 O 226.598 3.73635 4.29402 0
M  V30 2521 N 227.8 2.18047 5.37992 0
M  V30 2522 H 230.565 2.68049 1.34052 0
M  V30 2523 H 228.126 1.50724 0.591084 0
M  V30 2524 H 230.118 1.69834 3.6734 0
M  V30 2525 H 228.688 0.876092 3.00072 0
M  V30 2526 H 227.908 3.2429 2.24119 0
M  V30 2527 H 229.196 3.90221 3.26504 0
M  V30 2528 H 228.594 1.57456 5.43345 0
M  V30 2529 H 227.151 2.18021 6.14256 0
M  V30 2530 N 230.584 -0.659388 1.43143 0
M  V30 2531 C 231.809 -1.45221 1.48073 0
M  V30 2532 C 232.234 -1.87845 0.097995 0
M  V30 2533 O 231.592 -1.56985 -0.90694 0
M  V30 2534 C 231.64 -2.66748 2.42647 0
M  V30 2535 O 230.744 -3.65583 1.90848 0
M  V30 2536 H 230.085 -0.435669 0.501088 0
M  V30 2537 H 232.615 -0.807432 1.87994 0
M  V30 2538 H 232.625 -3.14637 2.59745 0
M  V30 2539 H 231.3 -2.35067 3.43098 0
M  V30 2540 H 229.877 -3.24693 1.83381 0
M  V30 2541 N 232.062 -1.29571 -0.897171 0
M  V30 2542 C 233.309 -1.17689 -1.6479 0
M  V30 2543 C 233.637 0.27107 -1.92602 0
M  V30 2544 O 232.892 1.21193 -1.53658 0
M  V30 2545 C 233.191 -1.9382 -3.00281 0
M  V30 2546 C 232.857 -3.43522 -2.92068 0
M  V30 2547 C 231.519 -3.84348 -2.89535 0
M  V30 2548 C 233.871 -4.38906 -2.81089 0
M  V30 2549 C 231.199 -5.18869 -2.73846 0
M  V30 2550 C 233.551 -5.73521 -2.66939 0
M  V30 2551 C 232.215 -6.13601 -2.62774 0
M  V30 2552 H 231.485 -0.430654 -0.603008 0
M  V30 2553 H 234.132 -1.60536 -1.04404 0
M  V30 2554 H 232.437 -1.4357 -3.64547 0
M  V30 2555 H 234.134 -1.82028 -3.57305 0
M  V30 2556 H 230.724 -3.11072 -2.94842 0
M  V30 2557 H 234.908 -4.08315 -2.82121 0
M  V30 2558 H 230.164 -5.4903 -2.69027 0
M  V30 2559 H 234.338 -6.47078 -2.57416 0
M  V30 2560 H 231.965 -7.17786 -2.50375 0
M  V30 2561 N 233.54 1.10788 -1.12088 0
M  V30 2562 C 234.786 1.82942 -0.875226 0
M  V30 2563 C 235.119 1.84779 0.597538 0
M  V30 2564 O 234.394 1.30578 1.44152 0
M  V30 2565 C 234.677 3.29789 -1.44606 0
M  V30 2566 C 234.53 3.36307 -2.98693 0
M  V30 2567 C 235.849 4.26064 -1.10261 0
M  V30 2568 H 232.968 0.664195 -0.319397 0
M  V30 2569 H 235.61 1.29867 -1.38689 0
M  V30 2570 H 233.76 3.75118 -1.01089 0
M  V30 2571 H 235.432 2.99487 -3.50864 0
M  V30 2572 H 233.675 2.76318 -3.34411 0
M  V30 2573 H 234.346 4.39694 -3.33726 0
M  V30 2574 H 236.822 3.88951 -1.4784 0
M  V30 2575 H 235.698 5.27183 -1.52869 0
M  V30 2576 H 235.959 4.42098 -0.0142953 0
M  V30 2577 N 235.018 0.912232 1.28515 0
M  V30 2578 C 235.948 0.416403 2.29757 0
M  V30 2579 C 236.929 -0.515194 1.6211 0
M  V30 2580 O 238.114 -0.423253 1.89532 0
M  V30 2581 C 235.244 -0.34572 3.45575 0
M  V30 2582 C 234.198 0.496599 4.25109 0
M  V30 2583 C 233.524 -0.393771 5.33248 0
M  V30 2584 C 234.824 1.75307 4.92001 0
M  V30 2585 H 236.518 1.26249 2.7148 0
M  V30 2586 H 234.064 0.608515 1.30511 0
M  V30 2587 H 236.017 -0.703422 4.15488 0
M  V30 2588 H 234.741 -1.2257 3.02728 0
M  V30 2589 H 233.4 0.8368 3.56922 0
M  V30 2590 H 233.048 -1.27225 4.86644 0
M  V30 2591 H 232.748 0.166209 5.87365 0
M  V30 2592 H 234.272 -0.747389 6.06009 0
M  V30 2593 H 235.686 1.46437 5.54283 0
M  V30 2594 H 234.083 2.25534 5.56106 0
M  V30 2595 H 235.153 2.48176 4.16577 0
M  V30 2596 N 236.496 -1.42363 0.676048 0
M  V30 2597 C 237.428 -2.29164 -0.0404605 0
M  V30 2598 C 238.441 -1.43747 -0.764245 0
M  V30 2599 O 239.63 -1.67453 -0.618195 0
M  V30 2600 C 236.73 -3.21196 -1.08103 0
M  V30 2601 C 235.903 -4.35273 -0.430812 0
M  V30 2602 C 234.962 -5.08017 -1.37133 0
M  V30 2603 O 233.988 -5.62494 -0.87116 0
M  V30 2604 N 235.19 -5.13647 -2.70456 0
M  V30 2605 H 237.955 -2.91298 0.704667 0
M  V30 2606 H 235.516 -1.53303 0.520559 0
M  V30 2607 H 237.508 -3.66728 -1.71152 0
M  V30 2608 H 236.078 -2.60505 -1.72788 0
M  V30 2609 H 235.298 -3.92372 0.379209 0
M  V30 2610 H 236.586 -5.08795 0.0221132 0
M  V30 2611 H 235.984 -4.708 -3.1363 0
M  V30 2612 H 234.541 -5.62821 -3.28749 0
M  V30 2613 N 237.974 -0.419461 -1.51915 0
M  V30 2614 C 238.904 0.391813 -2.30189 0
M  V30 2615 C 239.885 1.03699 -1.34836 0
M  V30 2616 O 241.07 1.04403 -1.63748 0
M  V30 2617 C 238.2 1.50312 -3.13087 0
M  V30 2618 C 237.154 0.9824 -4.16573 0
M  V30 2619 C 236.48 2.18809 -4.8788 0
M  V30 2620 C 237.78 0.0292356 -5.22292 0
M  V30 2621 H 239.474 -0.26135 -2.98257 0
M  V30 2622 H 237.02 -0.127134 -1.43438 0
M  V30 2623 H 238.973 2.07773 -3.66617 0
M  V30 2624 H 237.697 2.18431 -2.42807 0
M  V30 2625 H 236.356 0.430119 -3.64068 0
M  V30 2626 H 236.004 2.85507 -4.14119 0
M  V30 2627 H 235.704 1.84615 -5.57845 0
M  V30 2628 H 237.228 2.76858 -5.44226 0
M  V30 2629 H 238.642 0.512976 -5.71 0
M  V30 2630 H 237.039 -0.2244 -5.9968 0
M  V30 2631 H 238.109 -0.912931 -4.76228 0
M  V30 2632 N 239.452 1.56882 -0.150215 0
M  V30 2633 C 240.677 2.01027 0.510184 0
M  V30 2634 C 241.102 1.02966 1.57415 0
M  V30 2635 O 240.46 0.00590158 1.81299 0
M  V30 2636 C 240.508 3.43899 1.08472 0
M  V30 2637 O 239.612 3.4885 2.19948 0
M  V30 2638 H 238.953 0.652233 0.124451 0
M  V30 2639 H 241.483 2.03093 -0.247894 0
M  V30 2640 H 241.493 3.82766 1.41259 0
M  V30 2641 H 240.168 4.14776 0.305582 0
M  V30 2642 H 238.745 3.21827 1.88366 0
M  V30 2643 N 240.93 -0.123565 1.57115 0
M  V30 2644 C 242.179 -0.830704 1.83799 0
M  V30 2645 C 242.492 -1.81259 0.735158 0
M  V30 2646 O 243.698 -2.56558 0.888278 0
M  V30 2647 C 242.154 -1.52802 3.25852 0
M  V30 2648 C 241.762 -0.587356 4.44133 0
M  V30 2649 C 243.506 -2.22056 3.61789 0
M  V30 2650 C 241.413 -1.28764 5.77212 0
M  V30 2651 H 240.343 -0.313967 0.685522 0
M  V30 2652 H 242.994 -0.0834359 1.8331 0
M  V30 2653 H 241.376 -2.32175 3.20797 0
M  V30 2654 H 242.55 0.172829 4.60476 0
M  V30 2655 H 240.865 -0.00201892 4.164 0
M  V30 2656 H 243.462 -2.75131 4.58483 0
M  V30 2657 H 243.805 -2.99644 2.88997 0
M  V30 2658 H 244.338 -1.49576 3.68608 0
M  V30 2659 H 241.077 -0.55314 6.53162 0
M  V30 2660 H 240.597 -2.01995 5.64764 0
M  V30 2661 H 242.276 -1.8221 6.20813 0
M  V30 2662 N 242.408 -1.52605 -0.393616 0
M  V30 2663 C 243.819 -1.59417 -0.971761 0
M  V30 2664 C 244.17 -0.444173 -1.91106 0
M  V30 2665 O 243.295 0.433382 -2.12016 0
M  V30 2666 C 243.89 -2.88936 -1.76921 0
M  V30 2667 C 242.449 -2.98175 -2.29714 0
M  V30 2668 C 241.596 -2.54491 -1.10135 0
M  V30 2669 H 244.547 -1.57751 -0.173317 0
M  V30 2670 H 244.568 -2.75163 -2.62804 0
M  V30 2671 H 244.08 -3.72616 -1.08532 0
M  V30 2672 H 242.181 -2.19024 -3.01429 0
M  V30 2673 H 242.294 -4.02726 -2.59517 0
M  V30 2674 H 240.658 -2.08702 -1.45999 0
M  V30 2675 H 241.441 -3.4056 -0.432874 0
M  V30 2676 N 243.887 0.651787 -1.4349 0
M  V30 2677 C 245.136 1.40754 -1.44469 0
M  V30 2678 C 245.449 1.95463 -0.0731845 0
M  V30 2679 O 246.655 2.71471 0.0395721 0
M  V30 2680 C 245.111 2.54735 -2.5424 0
M  V30 2681 C 244.719 2.06628 -3.97504 0
M  V30 2682 C 246.463 3.32092 -2.64414 0
M  V30 2683 C 244.37 3.17829 -4.98737 0
M  V30 2684 H 243.3 0.528862 -0.53742 0
M  V30 2685 H 245.951 0.703365 -1.69485 0
M  V30 2686 H 244.333 3.2763 -2.22428 0
M  V30 2687 H 245.507 1.40734 -4.38783 0
M  V30 2688 H 243.822 1.42146 -3.91387 0
M  V30 2689 H 246.419 4.14952 -3.37223 0
M  V30 2690 H 246.762 3.80217 -1.69532 0
M  V30 2691 H 247.295 2.66279 -2.95534 0
M  V30 2692 H 244.034 2.74671 -5.95177 0
M  V30 2693 H 243.554 3.82429 -4.62069 0
M  V30 2694 H 245.233 3.82937 -5.21505 0
M  V30 2695 N 245.365 1.30045 0.890287 0
M  V30 2696 C 246.313 1.15873 2.01683 0
M  V30 2697 C 247.307 0.0719403 1.69247 0
M  V30 2698 O 248.513 0.232414 1.78493 0
M  V30 2699 H 244.888 0.358203 0.661207 0
M  V30 2700 H 246.859 2.11229 2.10772 0
M  V30 2701 C 245.608 0.861842 3.36849 0
M  V30 2702 H 244.931 1.69016 3.62317 0
M  V30 2703 H 246.371 0.802762 4.16331 0
M  V30 2704 C 244.83 -0.435132 3.34078 0
M  V30 2705 O 245.36 -1.4583 3.74295 0
M  V30 2706 N 243.566 -0.444377 2.87182 0
M  V30 2707 H 243.113 0.388723 2.5465 0
M  V30 2708 H 243.071 -1.31213 2.85711 0
M  V30 2709 N 246.843 -1.10192 1.12674 0
M  V30 2710 C 247.776 -2.15847 0.740625 0
M  V30 2711 C 248.754 -1.60352 -0.269421 0
M  V30 2712 O 249.938 -1.87796 -0.16278 0
M  V30 2713 C 247.065 -3.38562 0.096641 0
M  V30 2714 C 246.111 -4.12758 1.07391 0
M  V30 2715 S 246.944 -4.67997 2.60267 0
M  V30 2716 C 248.1 -5.94021 1.97206 0
M  V30 2717 H 248.333 -2.48266 1.63558 0
M  V30 2718 H 245.866 -1.22019 0.946087 0
M  V30 2719 H 247.824 -4.09621 -0.268535 0
M  V30 2720 H 246.485 -3.04377 -0.775462 0
M  V30 2721 H 245.678 -5.00755 0.570997 0
M  V30 2722 H 245.28 -3.47523 1.38216 0
M  V30 2723 H 247.572 -6.64589 1.31634 0
M  V30 2724 H 248.515 -6.48979 2.83253 0
M  V30 2725 H 248.923 -5.46169 1.42686 0
M  V30 2726 N 248.321 -0.919034 -1.28029 0
M  V30 2727 C 249.568 -0.554934 -1.94748 0
M  V30 2728 C 249.896 0.90231 -1.72304 0
M  V30 2729 O 249.151 1.65767 -1.04018 0
M  V30 2730 C 249.45 -0.816855 -3.4794 0
M  V30 2731 C 249.116 -2.25448 -3.90492 0
M  V30 2732 C 247.778 -2.64752 -4.01821 0
M  V30 2733 C 250.13 -3.18977 -4.12193 0
M  V30 2734 C 247.458 -3.96727 -4.32232 0
M  V30 2735 C 249.81 -4.50523 -4.44086 0
M  V30 2736 C 248.474 -4.89673 -4.53626 0
M  V30 2737 H 247.744 -0.203065 -0.712633 0
M  V30 2738 H 250.391 -1.16136 -1.52265 0
M  V30 2739 H 248.696 -0.127677 -3.91592 0
M  V30 2740 H 250.393 -0.514238 -3.97689 0
M  V30 2741 H 246.983 -1.93952 -3.82205 0
M  V30 2742 H 251.167 -2.89817 -4.02889 0
M  V30 2743 H 246.423 -4.26754 -4.37825 0
M  V30 2744 H 250.597 -5.23005 -4.59825 0
M  V30 2745 H 248.224 -5.91969 -4.76946 0
M  V30 2746 N 249.799 1.42003 -0.683588 0
M  V30 2747 C 251.046 2.01413 -0.209514 0
M  V30 2748 C 251.374 1.54088 1.1869 0
M  V30 2749 O 250.629 0.737591 1.81268 0
M  V30 2750 C 250.928 3.56827 -0.202357 0
M  V30 2751 C 250.594 4.23617 -1.54464 0
M  V30 2752 C 249.256 4.41577 -1.91215 0
M  V30 2753 C 251.608 4.61178 -2.42826 0
M  V30 2754 C 248.936 4.9437 -3.15935 0
M  V30 2755 C 251.288 5.15355 -3.66867 0
M  V30 2756 C 249.952 5.31528 -4.03776 0
M  V30 2757 H 249.222 0.737023 -0.0766668 0
M  V30 2758 H 251.869 1.70067 -0.880312 0
M  V30 2759 H 250.174 3.87892 0.551969 0
M  V30 2760 H 251.871 4.00588 0.181793 0
M  V30 2761 H 248.461 4.10004 -1.24877 0
M  V30 2762 H 252.645 4.46968 -2.15717 0
M  V30 2763 H 247.901 5.05076 -3.44541 0
M  V30 2764 H 252.075 5.43402 -4.35531 0
M  V30 2765 H 249.702 5.72199 -5.00492 0
M  V30 2766 N 251.277 0.427512 1.51691 0
M  V30 2767 C 252.517 -0.141524 2.03909 0
M  V30 2768 C 252.881 -1.40811 1.30523 0
M  V30 2769 O 254.082 -2.05676 1.73063 0
M  V30 2770 C 252.353 -0.364962 3.55532 0
M  V30 2771 S 253.912 -0.898812 4.29496 0
M  V30 2772 H 250.73 -0.0364542 0.710065 0
M  V30 2773 H 253.332 0.584659 1.86553 0
M  V30 2774 H 252.036 0.56336 4.06515 0
M  V30 2775 H 251.567 -1.1185 3.77164 0
M  V30 2776 H 253.582 -2.17747 4.45871 0
M  V30 2777 N 252.755 -1.56801 0.158532 0
M  V30 2778 C 254.002 -1.9649 -0.489679 0
M  V30 2779 C 254.33 -1.04394 -1.6411 0
M  V30 2780 O 253.585 -0.0754401 -1.95555 0
M  V30 2781 C 253.884 -3.4235 -1.02623 0
M  V30 2782 C 253.55 -4.50899 0.00794526 0
M  V30 2783 C 252.212 -4.80312 0.292207 0
M  V30 2784 C 254.564 -5.16333 0.710584 0
M  V30 2785 C 251.892 -5.72461 1.28472 0
M  V30 2786 C 254.244 -6.09553 1.69199 0
M  V30 2787 C 252.908 -6.37339 1.98383 0
M  V30 2788 H 252.178 -0.719009 -0.179186 0
M  V30 2789 H 254.825 -1.8989 0.247798 0
M  V30 2790 H 253.13 -3.45838 -1.84128 0
M  V30 2791 H 254.827 -3.70393 -1.53656 0
M  V30 2792 H 251.417 -4.28015 -0.22379 0
M  V30 2793 H 255.601 -4.93732 0.504174 0
M  V30 2794 H 250.857 -5.92278 1.51714 0
M  V30 2795 H 255.031 -6.59327 2.24189 0
M  V30 2796 H 252.658 -7.08546 2.7544 0
M  V30 2797 N 254.233 0.115231 -1.57178 0
M  V30 2798 C 255.163 1.1423 -2.03651 0
M  V30 2799 C 256.144 1.42967 -0.921655 0
M  V30 2800 O 257.329 1.53343 -1.19162 0
M  V30 2801 C 254.459 2.4675 -2.44401 0
M  V30 2802 C 253.413 2.32467 -3.59365 0
M  V30 2803 C 252.739 3.69984 -3.86026 0
M  V30 2804 C 254.039 1.78203 -4.90959 0
M  V30 2805 H 255.733 0.755749 -2.89705 0
M  V30 2806 H 253.279 0.362093 -1.39373 0
M  V30 2807 H 255.232 3.18854 -2.75517 0
M  V30 2808 H 253.956 2.87302 -1.55322 0
M  V30 2809 H 252.615 1.62811 -3.28463 0
M  V30 2810 H 252.263 4.08028 -2.94147 0
M  V30 2811 H 251.963 3.61279 -4.63412 0
M  V30 2812 H 253.487 4.43587 -4.19599 0
M  V30 2813 H 254.901 2.40128 -5.20587 0
M  V30 2814 H 253.298 1.8031 -5.72371 0
M  V30 2815 H 254.368 0.739876 -4.79222 0
M  V30 2816 N 255.711 1.52812 0.385517 0
M  V30 2817 C 256.96 1.67249 1.12741 0
M  V30 2818 C 257.273 0.4205 1.91027 0
M  V30 2819 O 258.479 0.445064 2.67827 0
M  V30 2820 C 256.935 2.95583 2.05326 0
M  V30 2821 C 256.543 4.27974 1.32447 0
M  V30 2822 C 258.287 3.19386 2.7963 0
M  V30 2823 C 256.194 5.47412 2.23818 0
M  V30 2824 H 255.124 0.6231 0.424573 0
M  V30 2825 H 257.775 1.79309 0.389924 0
M  V30 2826 H 256.157 2.77277 2.82725 0
M  V30 2827 H 257.331 4.56844 0.602495 0
M  V30 2828 H 255.646 4.10459 0.700885 0
M  V30 2829 H 258.243 4.05801 3.48181 0
M  V30 2830 H 258.586 2.34604 3.43899 0
M  V30 2831 H 259.119 3.38274 2.09322 0
M  V30 2832 H 255.858 6.34612 1.64157 0
M  V30 2833 H 255.378 5.22849 2.93921 0
M  V30 2834 H 257.057 5.81423 2.83824 0
M  V30 2835 N 257.189 -0.644168 1.43834 0
M  V30 2836 C 258.119 -1.76814 1.52509 0
M  V30 2837 C 259.1 -1.65823 0.379052 0
M  V30 2838 O 260.285 -1.84781 0.597466 0
M  V30 2839 C 257.415 -3.15288 1.4564 0
M  V30 2840 C 256.369 -3.41053 2.58586 0
M  V30 2841 C 255.695 -4.79421 2.36769 0
M  V30 2842 C 256.995 -3.34902 4.00797 0
M  V30 2843 H 258.689 -1.69812 2.46586 0
M  V30 2844 H 256.235 -0.815542 1.1868 0
M  V30 2845 H 258.188 -3.93681 1.50311 0
M  V30 2846 H 256.912 -3.23043 0.480725 0
M  V30 2847 H 255.571 -2.65035 2.53282 0
M  V30 2848 H 255.219 -4.83863 1.37424 0
M  V30 2849 H 254.919 -4.9762 3.12487 0
M  V30 2850 H 256.443 -5.6006 2.43238 0
M  V30 2851 H 257.857 -4.03218 4.07539 0
M  V30 2852 H 256.254 -3.64637 4.76613 0
M  V30 2853 H 257.324 -2.32928 4.25291 0
M  V30 2854 N 258.668 -1.30515 -0.883378 0
M  V30 2855 C 260.084 -1.08881 -1.16692 0
M  V30 2856 C 260.284 0.149409 -2.00945 0
M  V30 2857 O 259.34 0.84257 -2.38027 0
M  V30 2858 C 260.653 -2.35319 -1.87204 0
M  V30 2859 C 262.201 -2.40799 -1.99962 0
M  V30 2860 C 262.676 -3.67083 -2.73887 0
M  V30 2861 N 264.167 -3.679 -2.81432 0
M  V30 2862 C 264.902 -4.62303 -3.3921 0
M  V30 2863 N 264.398 -5.67052 -3.98025 0
M  V30 2864 N 266.191 -4.49845 -3.3704 0
M  V30 2865 H 258.342 -2.09951 -0.321633 0
M  V30 2866 H 260.605 -0.92556 -0.205043 0
M  V30 2867 H 260.311 -3.25689 -1.3274 0
M  V30 2868 H 260.185 -2.44089 -2.87577 0
M  V30 2869 H 262.572 -1.50907 -2.53597 0
M  V30 2870 H 262.653 -2.36003 -0.98673 0
M  V30 2871 H 262.297 -4.57334 -2.20925 0
M  V30 2872 H 262.227 -3.69141 -3.75556 0
M  V30 2873 H 264.718 -2.92171 -2.39676 0
M  V30 2874 H 265.031 -6.35184 -4.40183 0
M  V30 2875 H 263.376 -5.70842 -3.96439 0
M  V30 2876 H 266.567 -3.67194 -2.90321 0
M  V30 2877 H 266.74 -5.23597 -3.81772 0
M  V30 2878 N 260.146 1.09593 -1.13257 0
M  V30 2879 C 261.376 1.85231 -0.915049 0
M  V30 2880 C 261.784 1.81345 0.539498 0
M  V30 2881 O 261.127 1.20664 1.38513 0
M  V30 2882 C 261.189 3.34275 -1.3229 0
M  V30 2883 C 260.853 3.6191 -2.79052 0
M  V30 2884 C 261.85 3.57777 -3.77216 0
M  V30 2885 C 259.535 3.90309 -3.16171 0
M  V30 2886 C 261.529 3.81652 -5.1051 0
M  V30 2887 C 259.216 4.13839 -4.49644 0
M  V30 2888 C 260.214 4.09502 -5.46623 0
M  V30 2889 O 259.902 4.32426 -6.77689 0
M  V30 2890 H 259.634 0.591997 -0.326367 0
M  V30 2891 H 262.188 1.394 -1.50854 0
M  V30 2892 H 260.418 3.80805 -0.672667 0
M  V30 2893 H 262.107 3.9132 -1.07812 0
M  V30 2894 H 262.873 3.35865 -3.49885 0
M  V30 2895 H 258.752 3.92811 -2.41289 0
M  V30 2896 H 262.296 3.78182 -5.86195 0
M  V30 2897 H 258.193 4.35232 -4.767 0
M  V30 2898 H 258.961 4.49896 -6.83766 0
M  V30 2899 N 261.624 0.925811 1.2754 0
M  V30 2900 C 263.04 0.625767 1.46821 0
M  V30 2901 C 263.24 -0.825506 1.83814 0
M  V30 2902 O 262.296 -1.60356 1.95044 0
M  V30 2903 C 263.609 1.57402 2.56213 0
M  V30 2904 C 265.157 1.58204 2.70075 0
M  V30 2905 C 265.632 2.51721 3.82623 0
M  V30 2906 N 267.123 2.49917 3.89994 0
M  V30 2907 C 267.858 3.18968 4.76494 0
M  V30 2908 N 267.354 3.97391 5.67496 0
M  V30 2909 N 269.147 3.07996 4.70208 0
M  V30 2910 H 261.298 1.86409 1.01811 0
M  V30 2911 H 263.561 0.800213 0.508295 0
M  V30 2912 H 263.267 2.60925 2.35819 0
M  V30 2913 H 263.141 1.31428 3.53563 0
M  V30 2914 H 265.528 0.554124 2.89851 0
M  V30 2915 H 265.609 1.88226 1.73218 0
M  V30 2916 H 265.253 3.54622 3.63601 0
M  V30 2917 H 265.183 2.18996 4.78903 0
M  V30 2918 H 267.674 1.9296 3.24923 0
M  V30 2919 H 267.987 4.4707 6.30356 0
M  V30 2920 H 266.332 4.01495 5.67298 0
M  V30 2921 H 269.523 2.46223 3.9811 0
M  V30 2922 H 269.696 3.6208 5.37403 0
M  V30 2923 N 263.102 -1.41638 0.69111 0
M  V30 2924 C 264.332 -2.0533 0.228758 0
M  V30 2925 C 264.74 -1.52089 -1.12541 0
M  V30 2926 O 264.083 -0.662145 -1.71351 0
M  V30 2927 C 264.145 -3.59349 0.10407 0
M  V30 2928 C 263.809 -4.35362 1.38956 0
M  V30 2929 C 264.806 -4.64942 2.32648 0
M  V30 2930 C 262.491 -4.74714 1.64169 0
M  V30 2931 C 264.485 -5.32828 3.49818 0
M  V30 2932 C 262.172 -5.42338 2.81625 0
M  V30 2933 C 263.17 -5.71322 3.74273 0
M  V30 2934 O 262.858 -6.37554 4.89673 0
M  V30 2935 H 262.59 -0.667796 0.104997 0
M  V30 2936 H 265.144 -1.82477 0.942938 0
M  V30 2937 H 263.374 -3.80924 -0.665839 0
M  V30 2938 H 265.063 -4.04633 -0.320519 0
M  V30 2939 H 265.829 -4.35025 2.14425 0
M  V30 2940 H 261.708 -4.51538 0.929202 0
M  V30 2941 H 265.252 -5.55368 4.22152 0
M  V30 2942 H 261.149 -5.71673 2.99768 0
M  V30 2943 H 261.917 -6.56049 4.8943 0
M  V30 2944 N 264.58 -0.43555 -1.51462 0
M  V30 2945 C 265.53 0.394701 -2.24558 0
M  V30 2946 C 266.514 0.99157 -1.26715 0
M  V30 2947 O 267.706 0.910007 -1.51815 0
M  V30 2948 C 264.835 1.4963 -3.08975 0
M  V30 2949 C 263.921 0.908912 -4.14246 0
M  V30 2950 N 264.312 0.0505335 -5.05775 0
M  V30 2951 C 262.61 1.17668 -4.30198 0
M  V30 2952 C 263.311 -0.279161 -5.8103 0
M  V30 2953 N 262.287 0.336767 -5.42556 0
M  V30 2954 H 266.089 -0.267106 -2.92684 0
M  V30 2955 H 263.603 -0.247518 -1.60503 0
M  V30 2956 H 265.6 2.10394 -3.59917 0
M  V30 2957 H 264.26 2.16046 -2.42393 0
M  V30 2958 H 265.271 -0.31577 -5.16936 0
M  V30 2959 H 261.948 1.83847 -3.74842 0
M  V30 2960 H 263.338 -0.977553 -6.64751 0
M  V30 2961 N 266.058 1.56714 -0.166846 0
M  V30 2962 C 266.988 2.20754 0.760913 0
M  V30 2963 C 267.969 1.16178 1.24244 0
M  V30 2964 O 269.154 1.44592 1.29641 0
M  V30 2965 C 266.284 2.84478 1.99223 0
M  V30 2966 C 265.238 3.95053 1.64672 0
M  V30 2967 C 264.564 4.45805 2.95232 0
M  V30 2968 C 265.864 5.14865 0.878155 0
M  V30 2969 H 267.558 2.98537 0.22713 0
M  V30 2970 H 265.104 1.43596 0.107805 0
M  V30 2971 H 267.057 3.27951 2.64624 0
M  V30 2972 H 265.781 2.04056 2.55007 0
M  V30 2973 H 264.44 3.52228 1.01641 0
M  V30 2974 H 264.088 3.62181 3.49047 0
M  V30 2975 H 263.788 5.204 2.7287 0
M  V30 2976 H 265.312 4.91962 3.6167 0
M  V30 2977 H 266.726 5.55059 1.43466 0
M  V30 2978 H 265.123 5.95348 0.753738 0
M  V30 2979 H 266.193 4.84735 -0.126377 0
M  V30 2980 N 267.536 -0.106894 1.57237 0
M  V30 2981 C 268.766 -0.825191 1.89405 0
M  V30 2982 C 269.174 -1.73374 0.757496 0
M  V30 2983 O 268.517 -1.81552 -0.280115 0
M  V30 2984 C 268.579 -1.70102 3.1671 0
M  V30 2985 C 268.243 -0.965523 4.46684 0
M  V30 2986 C 269.24 -0.300741 5.19029 0
M  V30 2987 C 266.925 -0.943105 4.93367 0
M  V30 2988 C 268.919 0.376622 6.36286 0
M  V30 2989 C 266.606 -0.261949 6.10538 0
M  V30 2990 C 267.604 0.396748 6.81847 0
M  V30 2991 O 267.292 1.06701 7.96787 0
M  V30 2992 H 267.024 -0.241852 0.631255 0
M  V30 2993 H 269.578 -0.0921491 2.05193 0
M  V30 2994 H 267.808 -2.47601 2.97036 0
M  V30 2995 H 269.497 -2.29483 3.34802 0
M  V30 2996 H 270.263 -0.309599 4.84011 0
M  V30 2997 H 266.142 -1.44524 4.3776 0
M  V30 2998 H 269.686 0.891334 6.91882 0
M  V30 2999 H 265.583 -0.250896 6.45012 0
M  V30 3000 H 266.351 0.972707 8.127 0
M  V30 3001 N 269.014 -1.53014 -0.377408 0
M  V30 3002 C 269.962 -1.7927 -1.48206 0
M  V30 3003 C 270.956 -0.661195 -1.55963 0
M  V30 3004 O 272.162 -0.843908 -1.58991 0
M  V30 3005 H 268.537 -0.567425 -0.493491 0
M  V30 3006 H 270.508 -2.71753 -1.2326 0
M  V30 3007 C 269.257 -1.98894 -2.85196 0
M  V30 3008 H 268.58 -2.85395 -2.79981 0
M  V30 3009 H 270.02 -2.21249 -3.61698 0
M  V30 3010 C 268.479 -0.764691 -3.28107 0
M  V30 3011 O 269.009 0.0523226 -4.01666 0
M  V30 3012 N 267.215 -0.591493 -2.84517 0
M  V30 3013 H 266.762 -1.25749 -2.24822 0
M  V30 3014 H 266.72 0.226253 -3.13585 0
M  V30 3015 N 270.492 0.636531 -1.44174 0
M  V30 3016 C 271.722 1.42146 -1.49927 0
M  V30 3017 C 272.13 1.88812 -0.121063 0
M  V30 3018 O 271.473 1.61126 0.882267 0
M  V30 3019 C 271.535 2.67883 -2.39748 0
M  V30 3020 C 271.199 2.43048 -3.8701 0
M  V30 3021 C 272.196 2.05216 -4.77684 0
M  V30 3022 C 269.881 2.56856 -4.3166 0
M  V30 3023 C 271.875 1.81512 -6.11009 0
M  V30 3024 C 269.562 2.32766 -5.65034 0
M  V30 3025 C 270.56 1.95152 -6.54526 0
M  V30 3026 O 270.248 1.71326 -7.85431 0
M  V30 3027 H 269.98 0.442567 -0.51099 0
M  V30 3028 H 272.534 0.786158 -1.8976 0
M  V30 3029 H 270.764 3.34032 -1.94832 0
M  V30 3030 H 272.453 3.29874 -2.36513 0
M  V30 3031 H 273.219 1.94111 -4.44462 0
M  V30 3032 H 269.098 2.85104 -3.62266 0
M  V30 3033 H 272.642 1.52077 -6.80822 0
M  V30 3034 H 268.539 2.43479 -5.97819 0
M  V30 3035 H 269.307 1.85616 -7.97176 0
M  V30 3036 N 271.97 1.30982 0.876444 0
M  V30 3037 C 272.9 1.20668 1.99903 0
M  V30 3038 C 273.881 0.095354 1.69833 0
M  V30 3039 O 275.066 0.27885 1.92188 0
M  V30 3040 C 272.196 0.90655 3.3526 0
M  V30 3041 C 271.15 1.97675 3.79617 0
M  V30 3042 C 270.476 1.52943 5.1236 0
M  V30 3043 C 271.776 3.389 3.97422 0
M  V30 3044 H 273.47 2.14586 2.0879 0
M  V30 3045 H 271.016 1.03308 1.00317 0
M  V30 3046 H 272.969 0.821025 4.13324 0
M  V30 3047 H 271.693 -0.0682969 3.26529 0
M  V30 3048 H 270.352 2.05205 3.03787 0
M  V30 3049 H 270 0.54262 5.00065 0
M  V30 3050 H 269.7 2.24532 5.43009 0
M  V30 3051 H 271.224 1.45786 5.92941 0
M  V30 3052 H 272.638 3.34081 4.659 0
M  V30 3053 H 271.035 4.0865 4.3946 0
M  V30 3054 H 272.105 3.80163 3.01006 0
M  V30 3055 N 273.449 -1.08991 1.13837 0
M  V30 3056 C 274.697 -1.80899 0.901098 0
M  V30 3057 C 275.018 -1.86356 -0.574134 0
M  V30 3058 O 274.288 -1.35235 -1.41733 0
M  V30 3059 H 272.868 -0.669966 0.330386 0
M  V30 3060 H 275.53 -1.318 1.43578 0
M  V30 3061 H 274.626 -2.83929 1.29578 0
M  V30 3062 N 274.927 -0.932562 -1.27047 0
M  V30 3063 C 275.89 -0.440064 -2.24936 0
M  V30 3064 C 276.89 0.444071 -1.54547 0
M  V30 3065 O 278.08 0.244465 -1.72476 0
M  V30 3066 C 275.212 0.36678 -3.38921 0
M  V30 3067 H 276.405 -1.305 -2.70018 0
M  V30 3068 H 273.958 -0.713707 -1.39054 0
M  V30 3069 H 274.693 1.25033 -2.99228 0
M  V30 3070 H 274.478 -0.267204 -3.91188 0
M  V30 3071 H 275.968 0.701567 -4.11665 0
M  V30 3072 N 276.405 1.4127 -0.698611 0
M  V30 3073 C 277.651 2.01478 -0.231207 0
M  V30 3074 C 277.984 1.55215 1.16713 0
M  V30 3075 O 277.259 0.764672 1.78838 0
M  V30 3076 C 277.542 3.58912 -0.292281 0
M  V30 3077 C 277.395 4.15293 -1.72778 0
M  V30 3078 C 278.714 4.38736 0.346194 0
M  V30 3079 H 275.833 0.732025 -0.0854878 0
M  V30 3080 H 278.475 1.67977 -0.887906 0
M  V30 3081 H 276.625 3.87582 0.26686 0
M  V30 3082 H 278.297 3.97486 -2.341 0
M  V30 3083 H 276.54 3.7022 -2.26096 0
M  V30 3084 H 277.211 5.24452 -1.72202 0
M  V30 3085 H 279.687 4.15897 -0.130035 0
M  V30 3086 H 278.563 5.48221 0.272932 0
M  V30 3087 H 278.824 4.18425 1.42734 0
M  V30 3088 N 277.883 0.443576 1.51229 0
M  V30 3089 C 279.132 -0.122332 2.01329 0
M  V30 3090 C 279.445 -1.43237 1.33201 0
M  V30 3091 O 280.651 -2.0816 1.74304 0
M  V30 3092 C 279.107 -0.268551 3.58897 0
M  V30 3093 C 278.715 1.03142 4.35965 0
M  V30 3094 C 280.459 -0.787894 4.17124 0
M  V30 3095 C 278.366 0.850504 5.85252 0
M  V30 3096 H 277.296 -0.0494929 0.752374 0
M  V30 3097 H 279.947 0.574289 1.74282 0
M  V30 3098 H 278.329 -1.02832 3.82415 0
M  V30 3099 H 279.503 1.80001 4.24189 0
M  V30 3100 H 277.818 1.47977 3.89219 0
M  V30 3101 H 280.415 -0.939841 5.26375 0
M  V30 3102 H 280.758 -1.77201 3.76703 0
M  V30 3103 H 281.291 -0.0862669 3.97706 0
M  V30 3104 H 278.03 1.80718 6.30096 0
M  V30 3105 H 277.55 0.121825 5.99676 0
M  V30 3106 H 279.229 0.506163 6.45017 0
M  V30 3107 N 279.361 -1.56624 0.175154 0
M  V30 3108 C 280.61 -1.96173 -0.468921 0
M  V30 3109 C 280.923 -1.06401 -1.64128 0
M  V30 3110 O 282.129 -1.35648 -2.35185 0
M  V30 3111 C 280.585 -3.48833 -0.885633 0
M  V30 3112 C 280.193 -4.47237 0.261343 0
M  V30 3113 C 281.937 -3.97194 -1.49791 0
M  V30 3114 C 279.844 -5.9114 -0.175214 0
M  V30 3115 H 278.774 -0.732455 -0.178958 0
M  V30 3116 H 281.425 -1.81591 0.263997 0
M  V30 3117 H 279.807 -3.58848 -1.67464 0
M  V30 3118 H 280.981 -4.4894 1.03871 0
M  V30 3119 H 279.296 -4.08956 0.783827 0
M  V30 3120 H 281.893 -5.02167 -1.83665 0
M  V30 3121 H 282.236 -3.40351 -2.39722 0
M  V30 3122 H 282.769 -3.90212 -0.773267 0
M  V30 3123 H 279.508 -6.51865 0.689414 0
M  V30 3124 H 279.028 -5.92735 -0.91786 0
M  V30 3125 H 280.707 -6.44044 -0.617792 0
M  V30 3126 N 280.839 0.0985539 -1.57292 0
M  V30 3127 C 282.085 0.803867 -1.86188 0
M  V30 3128 C 282.418 1.78549 -0.763794 0
M  V30 3129 O 281.693 1.93153 0.22855 0
M  V30 3130 C 281.976 1.53568 -3.25713 0
M  V30 3131 C 281.829 0.572277 -4.46145 0
M  V30 3132 C 283.148 2.48708 -3.63087 0
M  V30 3133 H 280.267 0.290781 -0.677211 0
M  V30 3134 H 282.909 0.0675783 -1.8988 0
M  V30 3135 H 281.059 2.16332 -3.22696 0
M  V30 3136 H 282.731 -0.0480894 -4.61275 0
M  V30 3137 H 280.974 -0.114618 -4.33649 0
M  V30 3138 H 281.645 1.12139 -5.40489 0
M  V30 3139 H 284.121 1.96039 -3.67026 0
M  V30 3140 H 282.997 2.96932 -4.61652 0
M  V30 3141 H 283.258 3.32309 -2.91588 0
M  V30 3142 N 282.317 1.53212 0.369288 0
M  V30 3143 C 283.563 1.69466 1.11397 0
M  V30 3144 C 283.896 0.443257 1.89074 0
M  V30 3145 O 283.171 -0.559386 1.86282 0
M  V30 3146 C 283.454 2.9422 2.07621 0
M  V30 3147 C 283.307 4.29508 1.33577 0
M  V30 3148 C 284.626 3.14565 3.07794 0
M  V30 3149 H 281.745 0.616667 0.403597 0
M  V30 3150 H 284.387 1.85845 0.395179 0
M  V30 3151 H 282.537 2.80387 2.68916 0
M  V30 3152 H 284.209 4.55147 0.750955 0
M  V30 3153 H 282.452 4.29088 0.637618 0
M  V30 3154 H 283.123 5.12926 2.03989 0
M  V30 3155 H 285.599 3.2756 2.56601 0
M  V30 3156 H 284.475 4.03297 3.72348 0
M  V30 3157 H 284.736 2.29675 3.77759 0
M  V30 3158 N 283.795 -0.628877 1.44509 0
M  V30 3159 C 285.023 -1.41554 1.50897 0
M  V30 3160 C 285.438 -1.8832 0.134564 0
M  V30 3161 O 284.795 -1.60969 -0.859965 0
M  V30 3162 C 284.846 -2.63435 2.47556 0
M  V30 3163 O 284.567 -2.18619 3.79654 0
M  V30 3164 C 286.068 -3.56537 2.63431 0
M  V30 3165 H 283.288 -0.434044 0.511709 0
M  V30 3166 H 285.832 -0.768895 1.89495 0
M  V30 3167 H 283.987 -3.24187 2.12089 0
M  V30 3168 H 284.401 -2.97652 4.31861 0
M  V30 3169 H 285.875 -4.38657 3.35088 0
M  V30 3170 H 286.352 -4.05493 1.68738 0
M  V30 3171 H 286.958 -3.01653 2.9981 0
M  V30 3172 N 285.273 -1.31445 -0.869486 0
M  V30 3173 C 286.522 -1.20517 -1.61736 0
M  V30 3174 C 286.835 0.235341 -1.94179 0
M  V30 3175 O 288.041 0.466312 -2.67465 0
M  V30 3176 C 286.497 -2.10982 -2.91573 0
M  V30 3177 C 286.105 -3.60032 -2.66611 0
M  V30 3178 C 287.849 -2.08856 -3.69567 0
M  V30 3179 C 285.756 -4.42503 -3.92358 0
M  V30 3180 H 284.686 -0.447493 -0.606849 0
M  V30 3181 H 287.337 -1.56303 -0.96133 0
M  V30 3182 H 285.719 -1.68095 -3.58553 0
M  V30 3183 H 286.893 -4.11167 -2.08035 0
M  V30 3184 H 285.208 -3.64139 -2.0197 0
M  V30 3185 H 287.805 -2.67716 -4.62852 0
M  V30 3186 H 288.148 -1.07582 -4.02159 0
M  V30 3187 H 288.681 -2.49945 -3.09471 0
M  V30 3188 H 285.42 -5.44533 -3.64916 0
M  V30 3189 H 284.94 -3.96125 -4.50383 0
M  V30 3190 H 286.619 -4.54741 -4.60238 0
M  V30 3191 N 286.751 1.08385 -1.14413 0
M  V30 3192 C 287.714 2.13486 -0.834048 0
M  V30 3193 C 288.714 1.59988 0.161418 0
M  V30 3194 O 289.904 1.74071 -0.0669575 0
M  V30 3195 C 287.036 3.4003 -0.243354 0
M  V30 3196 H 288.229 2.42425 -1.7655 0
M  V30 3197 H 285.782 1.24101 -0.950189 0
M  V30 3198 H 286.517 3.16726 0.696807 0
M  V30 3199 H 286.302 3.80157 -0.960367 0
M  V30 3200 H 287.792 4.17577 -0.0436242 0
M  V30 3201 N 288.23 0.939286 1.26551 0
M  V30 3202 C 289.16 0.465044 2.28822 0
M  V30 3203 C 290.141 -0.480692 1.63167 0
M  V30 3204 O 291.326 -0.382955 1.90387 0
M  V30 3205 C 288.456 -0.27234 3.46231 0
M  V30 3206 C 287.41 0.58666 4.2396 0
M  V30 3207 C 286.736 -0.280573 5.33963 0
M  V30 3208 C 288.036 1.85704 4.88171 0
M  V30 3209 H 289.73 1.31979 2.68741 0
M  V30 3210 H 287.276 0.636061 1.29191 0
M  V30 3211 H 289.229 -0.615133 4.16886 0
M  V30 3212 H 287.953 -1.16121 3.0526 0
M  V30 3213 H 286.612 0.91232 3.55067 0
M  V30 3214 H 286.26 -1.16874 4.89234 0
M  V30 3215 H 285.96 0.29076 5.8688 0
M  V30 3216 H 287.484 -0.618678 6.07458 0
M  V30 3217 H 288.898 1.58161 5.51052 0
M  V30 3218 H 287.295 2.37279 5.51197 0
M  V30 3219 H 288.365 2.56957 4.11219 0
M  V30 3220 N 289.708 -1.40897 0.706093 0
M  V30 3221 C 290.954 -2.01352 0.241889 0
M  V30 3222 C 291.287 -1.55832 -1.15888 0
M  V30 3223 O 290.562 -0.774145 -1.7843 0
M  V30 3224 C 290.845 -3.58752 0.311311 0
M  V30 3225 C 290.698 -4.1437 1.74978 0
M  V30 3226 C 292.017 -4.38914 -0.322922 0
M  V30 3227 H 289.136 -0.731562 0.0893687 0
M  V30 3228 H 291.778 -1.67504 0.896802 0
M  V30 3229 H 289.928 -3.87718 -0.246302 0
M  V30 3230 H 291.6 -3.96239 2.36205 0
M  V30 3231 H 289.843 -3.69016 2.28057 0
M  V30 3232 H 290.514 -5.23532 1.74981 0
M  V30 3233 H 292.99 -4.15822 0.152089 0
M  V30 3234 H 291.866 -5.48358 -0.243855 0
M  V30 3235 H 292.127 -4.19176 -1.40513 0
M  V30 3236 N 291.186 -0.45159 -1.50991 0
M  V30 3237 C 292.096 0.358431 -2.31846 0
M  V30 3238 C 293.112 1.01438 -1.41373 0
M  V30 3239 O 294.288 1.00663 -1.74439 0
M  V30 3240 C 291.353 1.43704 -3.15515 0
M  V30 3241 C 290.414 0.799742 -4.21785 0
M  V30 3242 C 289.647 1.82696 -5.01456 0
M  V30 3243 O 289.87 3.05105 -4.81941 0
M  V30 3244 O 288.804 1.40958 -5.85162 0
M  V30 3245 H 292.63 -0.302032 -3.02194 0
M  V30 3246 H 290.215 -0.213825 -1.47862 0
M  V30 3247 H 292.097 2.06227 -3.67489 0
M  V30 3248 H 290.772 2.08133 -2.47916 0
M  V30 3249 H 289.679 0.136084 -3.73852 0
M  V30 3250 H 291.012 0.198718 -4.91799 0
M  V30 3251 N 292.664 1.56529 -0.183458 0
M  V30 3252 C 293.597 2.14417 0.781052 0
M  V30 3253 C 294.575 1.07761 1.21763 0
M  V30 3254 O 295.759 1.35807 1.30724 0
M  V30 3255 C 292.886 2.69361 2.05335 0
M  V30 3256 C 291.932 3.885 1.75982 0
M  V30 3257 S 292.765 5.27568 0.918256 0
M  V30 3258 C 293.921 5.85926 2.20095 0
M  V30 3259 H 294.154 2.95893 0.2889 0
M  V30 3260 H 291.687 1.54368 0.0313844 0
M  V30 3261 H 293.645 3.01662 2.78406 0
M  V30 3262 H 292.306 1.87949 2.51663 0
M  V30 3263 H 291.499 4.25314 2.70415 0
M  V30 3264 H 291.101 3.57149 1.10999 0
M  V30 3265 H 293.393 5.99579 3.15453 0
M  V30 3266 H 294.336 6.82761 1.87731 0
M  V30 3267 H 294.744 5.14438 2.32409 0
M  V30 3268 N 294.142 -0.090211 1.57342 0
M  V30 3269 C 295.089 -1.10909 2.02405 0
M  V30 3270 C 296.059 -1.39523 0.901252 0
M  V30 3271 O 297.244 -1.50903 1.1676 0
M  V30 3272 C 294.384 -2.42277 2.45755 0
M  V30 3273 C 293.497 -2.20352 3.71576 0
M  V30 3274 C 292.632 -3.45154 4.03785 0
M  V30 3275 C 291.671 -3.18512 5.22701 0
M  V30 3276 N 290.808 -4.35593 5.50639 0
M  V30 3277 H 295.648 -0.71782 2.89225 0
M  V30 3278 H 293.185 -0.342901 1.43048 0
M  V30 3279 H 295.143 -3.18951 2.68935 0
M  V30 3280 H 293.773 -2.79242 1.61938 0
M  V30 3281 H 292.825 -1.34458 3.55844 0
M  V30 3282 H 294.137 -1.96661 4.58395 0
M  V30 3283 H 293.291 -4.30233 4.27767 0
M  V30 3284 H 292.03 -3.71904 3.15498 0
M  V30 3285 H 291.035 -2.31827 4.98534 0
M  V30 3286 H 292.26 -2.93103 6.12591 0
M  V30 3287 H 290.206 -4.6241 4.6531 0
M  V30 3288 H 290.123 -4.1511 6.31838 0
M  V30 3289 H 291.391 -5.21723 5.7916 0
M  V30 3290 N 295.62 -1.53406 -0.361157 0
M  V30 3291 C 296.55 -1.83136 -1.44857 0
M  V30 3292 C 297.531 -0.685174 -1.5569 0
M  V30 3293 O 298.716 -0.93544 -1.70186 0
M  V30 3294 C 295.846 -2.02522 -2.82138 0
M  V30 3295 C 294.8 -3.18302 -2.86126 0
M  V30 3296 C 294.126 -3.22989 -4.26125 0
M  V30 3297 C 295.426 -4.56796 -2.53248 0
M  V30 3298 H 297.12 -2.74201 -1.20226 0
M  V30 3299 H 294.666 -1.31938 -0.576922 0
M  V30 3300 H 296.619 -2.21904 -3.58241 0
M  V30 3301 H 295.343 -1.08172 -3.08166 0
M  V30 3302 H 294.002 -2.98747 -2.12475 0
M  V30 3303 H 293.65 -2.26267 -4.49235 0
M  V30 3304 H 293.35 -4.00781 -4.29708 0
M  V30 3305 H 294.874 -3.44559 -5.04094 0
M  V30 3306 H 296.288 -4.7631 -3.19064 0
M  V30 3307 H 294.685 -5.36862 -2.68141 0
M  V30 3308 H 295.755 -4.61606 -1.48484 0
M  V30 3309 N 297.098 0.621204 -1.44841 0
M  V30 3310 C 298.323 1.41244 -1.51871 0
M  V30 3311 C 298.748 1.87519 -0.147764 0
M  V30 3312 O 298.106 1.59334 0.865 0
M  V30 3313 C 298.154 2.60221 -2.49634 0
M  V30 3314 O 297.258 3.60395 -2.00473 0
M  V30 3315 H 296.599 0.42223 -0.512463 0
M  V30 3316 H 299.129 0.757305 -1.90069 0
M  V30 3317 H 299.139 3.0764 -2.67996 0
M  V30 3318 H 297.814 2.25887 -3.4921 0
M  V30 3319 H 296.391 3.19717 -1.91925 0
M  V30 3320 N 298.576 1.31904 0.862503 0
M  V30 3321 C 299.823 1.22017 1.61611 0
M  V30 3322 C 300.151 -0.21991 1.93253 0
M  V30 3323 O 299.406 -1.17076 1.56817 0
M  V30 3324 C 299.705 2.01713 2.95037 0
M  V30 3325 C 299.371 3.51145 2.82857 0
M  V30 3326 C 298.033 3.91889 2.79243 0
M  V30 3327 C 300.385 4.46204 2.69353 0
M  V30 3328 C 297.713 5.25947 2.59993 0
M  V30 3329 C 300.065 5.80397 2.5164 0
M  V30 3330 C 298.729 6.20352 2.46413 0
M  V30 3331 H 297.999 0.44649 0.591378 0
M  V30 3332 H 300.646 1.63248 1.00111 0
M  V30 3333 H 298.951 1.53185 3.60613 0
M  V30 3334 H 300.648 1.91437 3.52353 0
M  V30 3335 H 297.238 3.1878 2.86491 0
M  V30 3336 H 301.422 4.15652 2.71196 0
M  V30 3337 H 296.678 5.5597 2.54376 0
M  V30 3338 H 300.852 6.53676 2.40169 0
M  V30 3339 H 298.479 7.24172 2.31256 0
M  V30 3340 N 300.054 -1.07777 1.14986 0
M  V30 3341 C 300.964 -2.18404 0.856546 0
M  V30 3342 C 301.98 -1.73211 -0.165485 0
M  V30 3343 O 303.156 -2.01399 0.00755219 0
M  V30 3344 C 300.221 -3.44977 0.34526 0
M  V30 3345 C 299.282 -4.0476 1.43065 0
M  V30 3346 C 298.515 -5.25291 0.943663 0
M  V30 3347 O 298.738 -5.70004 -0.212426 0
M  V30 3348 O 297.672 -5.76638 1.72547 0
M  V30 3349 H 301.498 -2.45978 1.78125 0
M  V30 3350 H 299.083 -1.17033 0.928631 0
M  V30 3351 H 300.965 -4.21348 0.0663671 0
M  V30 3352 H 299.64 -3.18965 -0.551631 0
M  V30 3353 H 298.547 -3.29949 1.76309 0
M  V30 3354 H 299.88 -4.35035 2.30229 0
M  V30 3355 N 301.532 -0.945985 -1.26051 0
M  V30 3356 C 302.76 -0.613025 -1.9761 0
M  V30 3357 C 303.175 0.813035 -1.70397 0
M  V30 3358 O 302.532 1.54274 -0.974979 0
M  V30 3359 C 302.583 -0.85159 -3.51326 0
M  V30 3360 O 302.304 -2.22157 -3.77595 0
M  V30 3361 C 303.805 -0.529831 -4.40122 0
M  V30 3362 H 301.025 -0.230593 -0.630133 0
M  V30 3363 H 303.569 -1.268 -1.60443 0
M  V30 3364 H 301.724 -0.243151 -3.86636 0
M  V30 3365 H 302.138 -2.2852 -4.721 0
M  V30 3366 H 303.612 -0.747348 -5.46917 0
M  V30 3367 H 304.089 0.535341 -4.35925 0
M  V30 3368 H 304.695 -1.11721 -4.10364 0
M  V30 3369 N 303.011 1.40521 -0.713556 0
M  V30 3370 C 303.943 2.29191 -0.0203126 0
M  V30 3371 C 304.956 1.45723 0.725864 0
M  V30 3372 O 306.145 1.69033 0.573581 0
M  V30 3373 C 303.245 3.2395 0.995486 0
M  V30 3374 C 302.418 4.36262 0.315256 0
M  V30 3375 C 301.477 5.11474 1.23616 0
M  V30 3376 O 300.503 5.64606 0.721719 0
M  V30 3377 N 301.705 5.20638 2.56743 0
M  V30 3378 H 304.47 2.89327 -0.781652 0
M  V30 3379 H 302.031 1.51869 -0.561022 0
M  V30 3380 H 304.023 3.71137 1.61368 0
M  V30 3381 H 302.593 2.64995 1.6582 0
M  V30 3382 H 301.813 3.91228 -0.483106 0
M  V30 3383 H 303.101 5.08558 -0.157004 0
M  V30 3384 H 302.499 4.7895 3.01037 0
M  V30 3385 H 301.056 5.71339 3.13712 0
M  V30 3386 N 304.489 0.459591 1.5075 0
M  V30 3387 C 305.399 -0.34613 2.32033 0
M  V30 3388 C 306.415 -1.00686 1.41909 0
M  V30 3389 O 307.591 -0.997361 1.7497 0
M  V30 3390 C 304.656 -1.42029 3.16273 0
M  V30 3391 C 303.717 -0.777362 4.22203 0
M  V30 3392 C 302.95 -1.80034 5.02418 0
M  V30 3393 O 303.173 -3.02544 4.83553 0
M  V30 3394 O 302.107 -1.37853 5.85901 0
M  V30 3395 H 305.933 0.318054 3.0203 0
M  V30 3396 H 303.518 0.221663 1.47746 0
M  V30 3397 H 305.4 -2.04275 3.68578 0
M  V30 3398 H 304.075 -2.06815 2.49016 0
M  V30 3399 H 302.982 -0.116256 3.73919 0
M  V30 3400 H 304.315 -0.172634 4.91897 0
M  V30 3401 N 305.967 -1.56429 0.191757 0
M  V30 3402 C 306.877 -2.22541 -0.742481 0
M  V30 3403 C 307.893 -1.22342 -1.23727 0
M  V30 3404 O 309.069 -1.55069 -1.28513 0
M  V30 3405 C 306.134 -2.8692 -1.94623 0
M  V30 3406 C 305.195 -4.02378 -1.49633 0
M  V30 3407 C 304.428 -4.63678 -2.6427 0
M  V30 3408 O 304.651 -4.23895 -3.81666 0
M  V30 3409 O 303.585 -5.53202 -2.37174 0
M  V30 3410 H 307.411 -3.02977 -0.209462 0
M  V30 3411 H 304.996 -1.49353 -0.0373832 0
M  V30 3412 H 306.878 -3.27663 -2.64982 0
M  V30 3413 H 305.553 -2.09466 -2.46791 0
M  V30 3414 H 304.46 -3.66265 -0.761636 0
M  V30 3415 H 305.793 -4.81487 -1.02134 0
M  V30 3416 N 307.445 0.0818655 -1.57387 0
M  V30 3417 C 308.393 1.11712 -2.04018 0
M  V30 3418 C 309.387 1.40683 -0.94364 0
M  V30 3419 O 310.593 1.40209 -1.12878 0
M  V30 3420 H 306.968 0.377542 -0.650358 0
M  V30 3421 H 308.939 0.697614 -2.90131 0
M  V30 3422 C 307.688 2.42537 -2.49141 0
M  V30 3423 H 307.011 2.21092 -3.33104 0
M  V30 3424 H 308.451 3.13446 -2.85531 0
M  V30 3425 C 306.91 3.0778 -1.37014 0
M  V30 3426 O 307.44 3.95436 -0.706621 0
M  V30 3427 N 305.646 2.68242 -1.11779 0
M  V30 3428 H 305.193 1.97052 -1.65917 0
M  V30 3429 H 305.151 3.1222 -0.369594 0
M  V30 3430 N 308.923 1.53595 0.353017 0
M  V30 3431 C 310.148 1.7462 1.11904 0
M  V30 3432 C 310.573 0.479721 1.8188 0
M  V30 3433 O 309.931 -0.567066 1.72204 0
M  V30 3434 C 309.979 2.92029 2.11545 0
M  V30 3435 O 309.083 2.61516 3.18878 0
M  V30 3436 H 308.424 0.579531 0.324099 0
M  V30 3437 H 310.954 2.00525 0.406301 0
M  V30 3438 H 310.964 3.18551 2.5493 0
M  V30 3439 H 309.639 3.83888 1.60008 0
M  V30 3440 H 308.216 2.45852 2.80377 0
M  V30 3441 N 310.401 -0.613514 1.45168 0
M  V30 3442 C 311.65 -1.36874 1.4815 0
M  V30 3443 C 311.963 -1.952 0.124982 0
M  V30 3444 O 313.169 -2.71481 0.0324176 0
M  V30 3445 C 311.625 -2.47905 2.60904 0
M  V30 3446 C 311.233 -1.96016 4.02842 0
M  V30 3447 C 312.977 -3.24965 2.73126 0
M  V30 3448 C 310.884 -3.04494 5.06988 0
M  V30 3449 H 309.814 -0.514428 0.551253 0
M  V30 3450 H 312.465 -0.658182 1.7129 0
M  V30 3451 H 310.847 -3.21618 2.31037 0
M  V30 3452 H 312.021 -1.29051 4.4236 0
M  V30 3453 H 310.336 -1.31719 3.95018 0
M  V30 3454 H 312.933 -4.05865 3.48106 0
M  V30 3455 H 313.276 -3.75588 1.79553 0
M  V30 3456 H 313.809 -2.5835 3.0249 0
M  V30 3457 H 310.548 -2.58795 6.0225 0
M  V30 3458 H 310.068 -3.70044 4.72046 0
M  V30 3459 H 311.747 -3.68976 5.31475 0
M  V30 3460 N 311.879 -1.3236 -0.855495 0
M  V30 3461 C 313.128 -1.22226 -1.60448 0
M  V30 3462 C 313.441 0.214733 -1.94418 0
M  V30 3463 O 314.647 0.437917 -2.67945 0
M  V30 3464 C 313.103 -2.14063 -2.89318 0
M  V30 3465 C 312.711 -3.62839 -2.62777 0
M  V30 3466 C 314.455 -2.12764 -3.67331 0
M  V30 3467 C 312.362 -4.4664 -3.87643 0
M  V30 3468 H 311.292 -0.453904 -0.602069 0
M  V30 3469 H 313.943 -1.57314 -0.944698 0
M  V30 3470 H 312.325 -1.71889 -3.5675 0
M  V30 3471 H 313.499 -4.1335 -2.03662 0
M  V30 3472 H 311.814 -3.66261 -1.98096 0
M  V30 3473 H 314.411 -2.72611 -4.59987 0
M  V30 3474 H 314.754 -1.11841 -4.00995 0
M  V30 3475 H 315.287 -2.53214 -3.06802 0
M  V30 3476 H 312.026 -5.48373 -3.5912 0
M  V30 3477 H 311.546 -4.0088 -4.46156 0
M  V30 3478 H 313.225 -4.59597 -4.55389 0
M  V30 3479 N 313.357 1.07166 -1.15556 0
M  V30 3480 C 314.604 1.79798 -0.931604 0
M  V30 3481 C 314.932 1.8682 0.54115 0
M  V30 3482 O 314.187 1.34942 1.41736 0
M  V30 3483 C 314.486 3.24707 -1.49332 0
M  V30 3484 C 314.152 3.37781 -2.98688 0
M  V30 3485 C 312.814 3.41057 -3.39461 0
M  V30 3486 C 315.166 3.40424 -3.94665 0
M  V30 3487 C 312.494 3.4458 -4.74849 0
M  V30 3488 C 314.846 3.45485 -5.29927 0
M  V30 3489 C 313.51 3.47039 -5.70193 0
M  V30 3490 H 312.78 0.657928 -0.340898 0
M  V30 3491 H 315.427 1.26091 -1.44129 0
M  V30 3492 H 313.732 3.81208 -0.904859 0
M  V30 3493 H 315.429 3.79486 -1.29582 0
M  V30 3494 H 312.019 3.35932 -2.66172 0
M  V30 3495 H 316.203 3.37113 -3.64237 0
M  V30 3496 H 311.459 3.44083 -5.05388 0
M  V30 3497 H 315.633 3.46476 -6.04092 0
M  V30 3498 H 313.26 3.49522 -6.75084 0
M  V30 3499 N 314.835 0.952656 1.25548 0
M  V30 3500 C 315.783 0.462354 2.27958 0
M  V30 3501 C 316.777 -0.46634 1.62855 0
M  V30 3502 O 317.983 -0.343287 1.76696 0
M  V30 3503 H 314.358 0.13101 0.7405 0
M  V30 3504 H 316.329 1.33839 2.66702 0
M  V30 3505 C 315.078 -0.24628 3.46827 0
M  V30 3506 H 314.401 0.459192 3.97154 0
M  V30 3507 H 315.841 -0.553393 4.20373 0
M  V30 3508 C 314.3 -1.4681 3.0323 0
M  V30 3509 O 314.83 -2.56591 3.09069 0
M  V30 3510 N 313.036 -1.32874 2.58443 0
M  V30 3511 H 312.583 -0.435536 2.53891 0
M  V30 3512 H 312.541 -2.14742 2.29637 0
M  V30 3513 N 316.313 -1.40141 0.720998 0
M  V30 3514 C 317.243 -2.33339 0.0867621 0
M  V30 3515 C 318.224 -1.53178 -0.739622 0
M  V30 3516 O 319.409 -1.81625 -0.687449 0
M  V30 3517 C 316.539 -3.37194 -0.831728 0
M  V30 3518 C 315.493 -4.27857 -0.110558 0
M  V30 3519 C 314.819 -5.22294 -1.14513 0
M  V30 3520 C 316.119 -5.11872 1.0385 0
M  V30 3521 H 317.813 -2.86626 0.865219 0
M  V30 3522 H 315.359 -1.37814 0.417516 0
M  V30 3523 H 317.312 -4.01335 -1.28485 0
M  V30 3524 H 316.036 -2.82314 -1.64214 0
M  V30 3525 H 314.695 -3.65176 0.322797 0
M  V30 3526 H 314.343 -4.63717 -1.94874 0
M  V30 3527 H 314.043 -5.83797 -0.667446 0
M  V30 3528 H 315.567 -5.89312 -1.59824 0
M  V30 3529 H 316.981 -5.69436 0.664482 0
M  V30 3530 H 315.378 -5.82445 1.4449 0
M  V30 3531 H 316.448 -4.4753 1.86668 0
M  V30 3532 N 317.792 -0.46758 -1.50504 0
M  V30 3533 C 319.038 0.0887532 -2.02606 0
M  V30 3534 C 319.371 1.39686 -1.34913 0
M  V30 3535 O 318.646 1.88644 -0.473694 0
M  V30 3536 C 318.929 0.276206 -3.59039 0
M  V30 3537 C 318.782 -1.05267 -4.37309 0
M  V30 3538 C 320.101 1.03235 -4.27821 0
M  V30 3539 H 317.22 0.0307814 -0.736357 0
M  V30 3540 H 319.862 -0.612485 -1.79857 0
M  V30 3541 H 318.012 0.8735 -3.78553 0
M  V30 3542 H 319.684 -1.68628 -4.29374 0
M  V30 3543 H 317.927 -1.65015 -4.01189 0
M  V30 3544 H 318.598 -0.875197 -5.45018 0
M  V30 3545 H 321.074 0.526111 -4.12761 0
M  V30 3546 H 319.95 1.1323 -5.37094 0
M  V30 3547 H 320.211 2.06806 -3.90748 0
M  V30 3548 N 319.27 1.56325 -0.20005 0
M  V30 3549 C 320.2 2.22318 0.713916 0
M  V30 3550 C 321.181 1.18788 1.21752 0
M  V30 3551 O 322.366 1.47309 1.26545 0
M  V30 3552 C 319.496 2.88639 1.93144 0
M  V30 3553 C 318.45 3.98457 1.56255 0
M  V30 3554 C 317.776 4.51967 2.85709 0
M  V30 3555 C 319.076 5.16612 0.768747 0
M  V30 3556 H 320.77 2.98952 0.163755 0
M  V30 3557 H 318.316 1.43792 0.0773219 0
M  V30 3558 H 320.269 3.33491 2.57608 0
M  V30 3559 H 318.993 2.09419 2.50621 0
M  V30 3560 H 317.652 3.54305 0.941471 0
M  V30 3561 H 317.3 3.69503 3.41287 0
M  V30 3562 H 317 5.26071 2.6177 0
M  V30 3563 H 318.524 4.99523 3.51154 0
M  V30 3564 H 319.938 5.57977 1.3166 0
M  V30 3565 H 318.335 5.96812 0.627286 0
M  V30 3566 H 319.405 4.84358 -0.229168 0
M  V30 3567 N 320.748 -0.0735177 1.57428 0
M  V30 3568 C 321.997 -0.771809 1.86349 0
M  V30 3569 C 322.31 -1.78828 0.792452 0
M  V30 3570 O 323.516 -2.53602 0.96945 0
M  V30 3571 C 321.972 -1.42358 3.30548 0
M  V30 3572 C 321.58 -0.445761 4.45777 0
M  V30 3573 C 323.324 -2.10434 3.6867 0
M  V30 3574 C 321.231 -1.10335 5.81016 0
M  V30 3575 H 320.161 -0.291999 0.695164 0
M  V30 3576 H 322.812 -0.0250749 1.83483 0
M  V30 3577 H 321.194 -2.21852 3.28021 0
M  V30 3578 H 322.368 0.319239 4.59693 0
M  V30 3579 H 320.683 0.130457 4.16196 0
M  V30 3580 H 323.28 -2.60405 4.67004 0
M  V30 3581 H 323.623 -2.90298 2.98383 0
M  V30 3582 H 324.156 -1.37773 3.7318 0
M  V30 3583 H 320.895 -0.345061 6.54591 0
M  V30 3584 H 320.415 -1.83925 5.70904 0
M  V30 3585 H 322.094 -1.62367 6.26295 0
M  V30 3586 N 322.226 -1.5378 -0.344866 0
M  V30 3587 C 323.451 -1.75211 -1.10977 0
M  V30 3588 C 323.876 -0.48936 -1.81623 0
M  V30 3589 O 323.234 0.557925 -1.72502 0
M  V30 3590 C 323.282 -2.93147 -2.09993 0
M  V30 3591 O 322.386 -2.63203 -3.17487 0
M  V30 3592 H 321.727 -0.581241 -0.321021 0
M  V30 3593 H 324.257 -2.00738 -0.395661 0
M  V30 3594 H 324.267 -3.19898 -2.53237 0
M  V30 3595 H 322.942 -3.84731 -1.5797 0
M  V30 3596 H 321.519 -2.47336 -2.79069 0
M  V30 3597 N 323.704 0.605807 -1.45491 0
M  V30 3598 C 324.667 1.69836 -1.5391 0
M  V30 3599 C 325.667 1.55261 -0.418424 0
M  V30 3600 O 326.857 1.60296 -0.681965 0
M  V30 3601 C 323.989 3.09117 -1.43734 0
M  V30 3602 H 325.182 1.63738 -2.51257 0
M  V30 3603 H 322.735 0.821689 -1.32959 0
M  V30 3604 H 323.47 3.20791 -0.475788 0
M  V30 3605 H 323.255 3.21104 -2.25021 0
M  V30 3606 H 324.745 3.88696 -1.52661 0
M  V30 3607 N 325.182 1.32811 0.848464 0
M  V30 3608 C 326.112 1.24882 1.97299 0
M  V30 3609 C 327.093 0.131357 1.69592 0
M  V30 3610 O 328.278 0.319553 1.91553 0
M  V30 3611 C 325.408 0.97746 3.33261 0
M  V30 3612 C 324.362 2.05682 3.75338 0
M  V30 3613 C 323.688 1.63777 5.09 0
M  V30 3614 C 324.988 3.47254 3.90144 0
M  V30 3615 H 326.682 2.18966 2.04191 0
M  V30 3616 H 324.228 1.05413 0.981029 0
M  V30 3617 H 326.181 0.908513 4.1149 0
M  V30 3618 H 324.905 0.000980011 3.266 0
M  V30 3619 H 323.564 2.11603 2.99366 0
M  V30 3620 H 323.212 0.648569 4.98801 0
M  V30 3621 H 322.912 2.36 5.38124 0
M  V30 3622 H 324.436 1.5833 5.89715 0
M  V30 3623 H 325.85 3.43888 4.58709 0
M  V30 3624 H 324.247 4.1788 4.30693 0
M  V30 3625 H 325.317 3.86462 2.92874 0
M  V30 3626 N 326.66 -1.06551 1.16123 0
M  V30 3627 C 327.909 -1.78687 0.935622 0
M  V30 3628 C 328.222 -1.88056 -0.538001 0
M  V30 3629 O 329.428 -2.56794 -0.88143 0
M  V30 3630 C 327.884 -3.21143 1.62466 0
M  V30 3631 C 327.492 -3.19949 3.13587 0
M  V30 3632 C 329.236 -3.9783 1.48092 0
M  V30 3633 C 327.143 -4.57108 3.75241 0
M  V30 3634 H 326.073 -0.669712 0.346412 0
M  V30 3635 H 328.724 -1.19534 1.39226 0
M  V30 3636 H 327.106 -3.80539 1.09572 0
M  V30 3637 H 328.28 -2.70151 3.73303 0
M  V30 3638 H 326.595 -2.5676 3.27816 0
M  V30 3639 H 329.192 -4.99217 1.91538 0
M  V30 3640 H 329.535 -4.14078 0.429507 0
M  V30 3641 H 330.068 -3.4495 1.98127 0
M  V30 3642 H 326.807 -4.46065 4.80319 0
M  V30 3643 H 326.327 -5.07111 3.20309 0
M  V30 3644 H 328.006 -5.26069 3.76644 0
M  V30 3645 N 328.138 -0.959301 -1.25041 0
M  V30 3646 C 329.549 -0.65667 -1.74771 0
M  V30 3647 C 329.9 0.827852 -1.77879 0
M  V30 3648 O 329.025 1.64783 -1.40269 0
M  V30 3649 C 329.62 -1.1853 -3.1739 0
M  V30 3650 C 328.179 -0.932734 -3.6466 0
M  V30 3651 C 327.326 -1.32558 -2.43564 0
M  V30 3652 H 330.277 -1.13558 -1.10862 0
M  V30 3653 H 330.298 -0.547582 -3.76539 0
M  V30 3654 H 329.81 -2.26576 -3.15095 0
M  V30 3655 H 327.911 0.13257 -3.72364 0
M  V30 3656 H 328.024 -1.57248 -4.52559 0
M  V30 3657 H 326.388 -0.743956 -2.43593 0
M  V30 3658 H 327.171 -2.41537 -2.43957 0
M  V30 3659 N 329.616 1.39756 -0.72842 0
M  V30 3660 C 330.862 2.00942 -0.273892 0
M  V30 3661 C 331.195 1.57656 1.13394 0
M  V30 3662 O 330.47 0.802434 1.77176 0
M  V30 3663 C 330.753 3.58211 -0.368346 0
M  V30 3664 C 330.606 4.11534 -1.81548 0
M  V30 3665 C 331.925 4.39372 0.253054 0
M  V30 3666 H 329.044 0.730047 -0.100996 0
M  V30 3667 H 331.686 1.66056 -0.923337 0
M  V30 3668 H 329.836 3.88061 0.184588 0
M  V30 3669 H 331.508 3.92431 -2.42478 0
M  V30 3670 H 329.751 3.65341 -2.33898 0
M  V30 3671 H 330.422 5.20682 -1.83288 0
M  V30 3672 H 332.898 4.15527 -0.218224 0
M  V30 3673 H 331.774 5.48677 0.156585 0
M  V30 3674 H 332.035 4.21358 1.33826 0
M  V30 3675 N 331.094 0.475555 1.50254 0
M  V30 3676 C 332.334 -0.0765802 2.04256 0
M  V30 3677 C 332.698 -1.36587 1.34937 0
M  V30 3678 O 333.899 -2.00066 1.79519 0
M  V30 3679 C 332.17 -0.251668 3.56513 0
M  V30 3680 S 333.729 -0.761716 4.32138 0
M  V30 3681 H 330.547 -0.0138456 0.710865 0
M  V30 3682 H 333.149 0.643714 1.84598 0
M  V30 3683 H 331.853 0.692404 4.04517 0
M  V30 3684 H 331.384 -0.997946 3.80532 0
M  V30 3685 H 333.399 -2.03451 4.52573 0
M  V30 3686 N 332.573 -1.56217 0.208337 0
M  V30 3687 C 333.82 -1.97949 -0.42692 0
M  V30 3688 C 334.148 -1.09562 -1.60706 0
M  V30 3689 O 333.403 -0.137616 -1.95216 0
M  V30 3690 C 333.702 -3.45441 -0.916797 0
M  V30 3691 C 333.368 -4.50646 0.151391 0
M  V30 3692 C 332.03 -4.79139 0.444867 0
M  V30 3693 C 334.382 -5.13811 0.874492 0
M  V30 3694 C 331.71 -5.68084 1.46619 0
M  V30 3695 C 334.062 -6.03861 1.88506 0
M  V30 3696 C 332.726 -6.30704 2.18559 0
M  V30 3697 H 331.996 -0.724345 -0.156221 0
M  V30 3698 H 334.643 -1.89006 0.308084 0
M  V30 3699 H 332.948 -3.51521 -1.73032 0
M  V30 3700 H 334.645 -3.75094 -1.41794 0
M  V30 3701 H 331.235 -4.28511 -0.0875068 0
M  V30 3702 H 335.419 -4.91879 0.660996 0
M  V30 3703 H 330.675 -5.87151 1.7048 0
M  V30 3704 H 334.849 -6.51861 2.45051 0
M  V30 3705 H 332.476 -6.99424 2.97843 0
M  V30 3706 N 334.051 0.0651679 -1.57465 0
M  V30 3707 C 335.276 0.779605 -1.9219 0
M  V30 3708 C 335.701 1.69988 -0.805333 0
M  V30 3709 O 335.059 1.79685 0.241435 0
M  V30 3710 C 335.107 1.54364 -3.2589 0
M  V30 3711 O 334.211 2.65474 -3.1559 0
M  V30 3712 H 333.552 0.212249 -0.629163 0
M  V30 3713 H 336.082 0.0314294 -2.04576 0
M  V30 3714 H 336.092 1.92146 -3.59922 0
M  V30 3715 H 334.767 0.868457 -4.06732 0
M  V30 3716 H 333.344 2.30501 -2.93128 0
M  V30 3717 N 335.529 1.53961 0.336706 0
M  V30 3718 C 336.477 1.83136 1.43401 0
M  V30 3719 C 337.471 0.702313 1.54156 0
M  V30 3720 O 338.677 0.885765 1.56698 0
M  V30 3721 H 335.052 0.580309 0.478273 0
M  V30 3722 H 337.023 2.74925 1.16012 0
M  V30 3723 C 335.772 2.06385 2.79822 0
M  V30 3724 H 335.095 2.92718 2.72316 0
M  V30 3725 H 336.535 2.30761 3.55704 0
M  V30 3726 C 334.994 0.851414 3.25964 0
M  V30 3727 O 335.524 0.0541904 4.01663 0
M  V30 3728 N 333.73 0.66672 2.82848 0
M  V30 3729 H 333.277 1.31665 2.21409 0
M  V30 3730 H 333.235 -0.143032 3.14074 0
M  V30 3731 N 337.007 -0.598083 1.45811 0
M  V30 3732 C 337.94 -1.7223 1.49706 0
M  V30 3733 C 338.918 -1.58732 0.352535 0
M  V30 3734 O 340.102 -1.80162 0.554438 0
M  V30 3735 C 337.229 -3.10148 1.3611 0
M  V30 3736 C 336.275 -3.42209 2.54549 0
M  V30 3737 S 337.108 -3.35989 4.16979 0
M  V30 3738 C 338.264 -4.76471 4.05865 0
M  V30 3739 H 338.497 -1.68665 2.44826 0
M  V30 3740 H 336.03 -0.775541 1.33509 0
M  V30 3741 H 337.988 -3.8972 1.28953 0
M  V30 3742 H 336.649 -3.11219 0.424451 0
M  V30 3743 H 335.842 -4.42652 2.40988 0
M  V30 3744 H 335.444 -2.70173 2.58617 0
M  V30 3745 H 337.736 -5.665 3.71596 0
M  V30 3746 H 338.679 -4.95089 5.06253 0
M  V30 3747 H 339.087 -4.52599 3.37364 0
M  V30 3748 N 338.485 -1.33259 -0.841409 0
M  V30 3749 C 339.713 -1.27605 -1.62864 0
M  V30 3750 C 340.128 0.153507 -1.88175 0
M  V30 3751 O 339.485 1.09485 -1.46011 0
M  V30 3752 C 339.536 -2.04596 -2.98031 0
M  V30 3753 O 339.257 -3.41975 -2.73834 0
M  V30 3754 C 340.758 -2.06122 -3.92465 0
M  V30 3755 H 337.978 -0.439718 -0.506842 0
M  V30 3756 H 340.522 -1.75591 -1.04824 0
M  V30 3757 H 338.677 -1.60299 -3.5268 0
M  V30 3758 H 339.091 -3.81549 -3.59889 0
M  V30 3759 H 340.565 -2.64451 -4.84531 0
M  V30 3760 H 341.042 -1.05083 -4.26444 0
M  V30 3761 H 341.648 -2.50427 -3.43753 0
M  V30 3762 N 339.963 1.05934 -1.16686 0
M  V30 3763 C 341.379 1.30938 -0.912542 0
M  V30 3764 C 341.579 1.96803 0.432533 0
M  V30 3765 O 340.635 2.23693 1.17123 0
M  V30 3766 C 341.948 2.18649 -2.06429 0
M  V30 3767 C 343.496 2.32055 -2.10047 0
M  V30 3768 C 343.971 3.23122 -3.24586 0
M  V30 3769 N 345.462 3.30706 -3.24327 0
M  V30 3770 C 346.197 4.01273 -4.09594 0
M  V30 3771 N 345.693 4.74332 -5.04956 0
M  V30 3772 N 347.486 3.97361 -3.97569 0
M  V30 3773 H 339.637 0.615777 -2.03278 0
M  V30 3774 H 341.9 0.334077 -0.887185 0
M  V30 3775 H 341.606 1.77534 -3.03603 0
M  V30 3776 H 341.48 3.19252 -2.00894 0
M  V30 3777 H 343.867 2.72415 -1.13464 0
M  V30 3778 H 343.948 1.31107 -2.19647 0
M  V30 3779 H 343.592 2.83477 -4.2143 0
M  V30 3780 H 343.522 4.24057 -3.12223 0
M  V30 3781 H 346.013 2.78644 -2.55276 0
M  V30 3782 H 346.326 5.25716 -5.6643 0
M  V30 3783 H 344.671 4.733 -5.08933 0
M  V30 3784 H 347.862 3.39405 -3.22369 0
M  V30 3785 H 348.035 4.52089 -4.64241 0
M  V30 3786 N 341.441 0.965919 1.2453 0
M  V30 3787 C 342.351 0.502154 2.29163 0
M  V30 3788 C 343.367 -0.436017 1.68448 0
M  V30 3789 O 344.543 -0.309497 1.99008 0
M  V30 3790 C 341.608 -0.201956 3.46111 0
M  V30 3791 C 340.669 0.775821 4.22232 0
M  V30 3792 C 339.902 0.105217 5.33596 0
M  V30 3793 O 340.125 -1.10683 5.59558 0
M  V30 3794 O 339.059 0.796475 5.96607 0
M  V30 3795 H 342.885 1.37194 2.70946 0
M  V30 3796 H 340.47 0.732875 1.30189 0
M  V30 3797 H 342.352 -0.597564 4.17142 0
M  V30 3798 H 341.027 -1.04673 3.06309 0
M  V30 3799 H 339.934 1.22185 3.53584 0
M  V30 3800 H 341.267 1.58896 4.65846 0
M  V30 3801 N 342.919 -1.39368 0.735821 0
M  V30 3802 C 344.168 -1.99733 0.281004 0
M  V30 3803 C 344.481 -1.59055 -1.13846 0
M  V30 3804 O 345.687 -2.12262 -1.69284 0
M  V30 3805 C 344.143 -3.57057 0.451462 0
M  V30 3806 C 343.751 -4.06697 1.87886 0
M  V30 3807 C 345.495 -4.2446 0.0584616 0
M  V30 3808 C 343.402 -5.56598 1.99883 0
M  V30 3809 H 342.332 -0.747163 0.101311 0
M  V30 3810 H 344.983 -1.59357 0.909819 0
M  V30 3811 H 343.365 -3.95234 -0.246263 0
M  V30 3812 H 344.539 -3.79853 2.60861 0
M  V30 3813 H 342.854 -3.5196 2.22515 0
M  V30 3814 H 345.451 -5.34549 0.127099 0
M  V30 3815 H 345.794 -4.04444 -0.986433 0
M  V30 3816 H 346.327 -3.9146 0.707374 0
M  V30 3817 H 343.066 -5.81494 3.02564 0
M  V30 3818 H 342.586 -5.85242 1.31346 0
M  V30 3819 H 344.265 -6.22022 1.78039 0
M  V30 3820 N 344.397 -0.483516 -1.5 0
M  V30 3821 C 345.643 0.0672592 -2.02688 0
M  V30 3822 C 345.976 1.38247 -1.36387 0
M  V30 3823 O 345.251 1.88131 -0.493675 0
M  V30 3824 C 345.534 0.238109 -3.59312 0
M  V30 3825 C 345.387 -1.099 -4.36168 0
M  V30 3826 C 346.706 0.986916 -4.28892 0
M  V30 3827 H 343.825 0.0229696 -0.736642 0
M  V30 3828 H 346.467 -0.631527 -1.79197 0
M  V30 3829 H 344.617 0.8333 -3.79458 0
M  V30 3830 H 346.289 -1.73172 -4.27562 0
M  V30 3831 H 344.532 -1.69261 -3.99416 0
M  V30 3832 H 345.203 -0.932954 -5.44059 0
M  V30 3833 H 347.679 0.482302 -4.13295 0
M  V30 3834 H 346.555 1.07527 -5.38265 0
M  V30 3835 H 346.816 2.0265 -3.92919 0
M  V30 3836 N 345.875 1.56104 -0.216619 0
M  V30 3837 C 347.122 1.98172 0.416416 0
M  V30 3838 C 347.45 1.10413 1.60122 0
M  V30 3839 O 346.705 0.147967 1.9514 0
M  V30 3840 C 347.004 3.45923 0.898464 0
M  V30 3841 C 346.67 4.50559 -0.175288 0
M  V30 3842 C 345.332 4.78897 -0.470271 0
M  V30 3843 C 347.684 5.1334 -0.901728 0
M  V30 3844 C 345.012 5.67299 -1.4963 0
M  V30 3845 C 347.364 6.02853 -1.91705 0
M  V30 3846 C 346.028 6.29537 -2.21901 0
M  V30 3847 H 345.298 0.725164 0.152377 0
M  V30 3848 H 347.945 1.88839 -0.318103 0
M  V30 3849 H 346.25 3.52434 1.71165 0
M  V30 3850 H 347.947 3.75841 1.39803 0
M  V30 3851 H 344.537 4.28551 0.0647806 0
M  V30 3852 H 348.721 4.91521 -0.687072 0
M  V30 3853 H 343.977 5.86239 -1.73592 0
M  V30 3854 H 348.151 6.50552 -2.48505 0
M  V30 3855 H 345.778 6.97835 -3.01548 0
M  V30 3856 N 347.353 -0.0568162 1.57498 0
M  V30 3857 C 348.3 -1.06591 2.04712 0
M  V30 3858 C 349.27 -1.3758 0.930644 0
M  V30 3859 O 350.455 -1.48392 1.19935 0
M  V30 3860 C 347.595 -2.3701 2.50839 0
M  V30 3861 C 346.708 -2.12421 3.76167 0
M  V30 3862 C 345.843 -3.36511 4.11015 0
M  V30 3863 C 344.882 -3.07353 5.2934 0
M  V30 3864 N 344.019 -4.23816 5.59754 0
M  V30 3865 H 348.859 -0.65631 2.90683 0
M  V30 3866 H 346.396 -0.312481 1.43743 0
M  V30 3867 H 348.354 -3.13175 2.7564 0
M  V30 3868 H 346.984 -2.75744 1.67825 0
M  V30 3869 H 346.036 -1.2688 3.58616 0
M  V30 3870 H 347.348 -1.86894 4.62463 0
M  V30 3871 H 346.502 -4.21062 4.36797 0
M  V30 3872 H 345.241 -3.65128 3.23315 0
M  V30 3873 H 344.246 -2.212 5.03339 0
M  V30 3874 H 345.471 -2.80043 6.1867 0
M  V30 3875 H 343.417 -4.52436 4.75014 0
M  V30 3876 H 343.334 -4.01614 6.40501 0
M  V30 3877 H 344.602 -5.0932 5.90096 0
M  V30 3878 N 348.832 -1.54138 -0.328536 0
M  V30 3879 C 349.779 -1.83176 -1.40411 0
M  V30 3880 C 350.749 -0.678494 -1.5161 0
M  V30 3881 O 351.934 -0.92443 -1.6691 0
M  V30 3882 C 349.074 -2.06035 -2.76846 0
M  V30 3883 C 348.187 -3.33727 -2.74318 0
M  V30 3884 C 347.322 -3.46574 -4.02567 0
M  V30 3885 C 346.361 -4.68159 -3.94327 0
M  V30 3886 N 345.498 -4.77959 -5.14296 0
M  V30 3887 H 350.338 -2.74938 -1.14948 0
M  V30 3888 H 347.875 -1.36166 -0.556538 0
M  V30 3889 H 349.833 -2.1728 -3.56153 0
M  V30 3890 H 348.463 -1.1757 -3.00628 0
M  V30 3891 H 347.515 -3.31246 -1.8703 0
M  V30 3892 H 348.827 -4.23139 -2.64111 0
M  V30 3893 H 347.981 -3.57333 -4.90304 0
M  V30 3894 H 346.72 -2.55245 -4.15574 0
M  V30 3895 H 345.725 -4.57461 -3.04974 0
M  V30 3896 H 346.95 -5.60868 -3.82889 0
M  V30 3897 H 344.896 -3.89544 -5.27818 0
M  V30 3898 H 344.813 -5.6133 -5.06404 0
M  V30 3899 H 346.081 -4.93044 -6.03761 0
M  V30 3900 N 350.31 0.590341 -1.46126 0
M  V30 3901 C 351.54 1.37304 -1.54373 0
M  V30 3902 C 351.948 1.88332 -0.181071 0
M  V30 3903 O 351.291 1.63852 0.830559 0
M  V30 3904 C 351.353 2.6012 -2.48149 0
M  V30 3905 C 351.017 2.30613 -3.94546 0
M  V30 3906 C 352.014 1.89915 -4.83971 0
M  V30 3907 C 349.699 2.42993 -4.39613 0
M  V30 3908 C 351.693 1.61981 -6.16475 0
M  V30 3909 C 349.38 2.14672 -5.72153 0
M  V30 3910 C 350.378 1.7423 -6.60404 0
M  V30 3911 O 350.066 1.46251 -7.90485 0
M  V30 3912 H 349.798 0.426086 -0.524811 0
M  V30 3913 H 352.352 0.72539 -1.92165 0
M  V30 3914 H 350.582 3.27664 -2.05361 0
M  V30 3915 H 352.271 3.22182 -2.46887 0
M  V30 3916 H 353.037 1.79872 -4.50412 0
M  V30 3917 H 348.916 2.73435 -3.71153 0
M  V30 3918 H 352.46 1.30341 -6.85315 0
M  V30 3919 H 348.357 2.24337 -6.05263 0
M  V30 3920 H 349.125 1.6016 -8.02677 0
M  V30 3921 N 351.788 1.33704 0.83433 0
M  V30 3922 C 352.735 1.24335 1.94447 0
M  V30 3923 C 353.705 0.120991 1.65659 0
M  V30 3924 O 354.89 0.300035 1.88426 0
M  V30 3925 C 352.03 0.993124 3.30501 0
M  V30 3926 C 351.143 2.20217 3.71657 0
M  V30 3927 C 350.278 1.88572 4.96602 0
M  V30 3928 C 349.317 3.05683 5.30306 0
M  V30 3929 N 348.454 2.73997 6.46429 0
M  V30 3930 H 353.294 2.1928 2.01792 0
M  V30 3931 H 350.831 1.09035 0.987404 0
M  V30 3932 H 352.789 0.828467 4.08892 0
M  V30 3933 H 351.419 0.0803902 3.227 0
M  V30 3934 H 350.471 2.47642 2.88752 0
M  V30 3935 H 351.783 3.07752 3.92543 0
M  V30 3936 H 350.937 1.68776 5.82752 0
M  V30 3937 H 349.676 0.982799 4.77695 0
M  V30 3938 H 348.681 3.26088 4.42659 0
M  V30 3939 H 349.906 3.96737 5.51159 0
M  V30 3940 H 347.852 1.86268 6.28999 0
M  V30 3941 H 347.769 3.55064 6.67432 0
M  V30 3942 H 349.037 2.57679 7.35678 0
M  V30 3943 N 353.266 -1.05314 1.17247 0
M  V30 3944 C 354.515 -1.77685 0.954521 0
M  V30 3945 C 354.828 -1.88616 -0.518025 0
M  V30 3946 O 356.034 -2.57714 -0.854144 0
M  V30 3947 C 354.49 -3.19402 1.65863 0
M  V30 3948 C 354.098 -3.16605 3.16963 0
M  V30 3949 C 355.842 -3.96237 1.52303 0
M  V30 3950 C 353.749 -4.53103 3.80068 0
M  V30 3951 H 352.679 -0.666 0.353496 0
M  V30 3952 H 355.33 -1.1805 1.40486 0
M  V30 3953 H 353.712 -3.79355 1.13602 0
M  V30 3954 H 354.886 -2.66176 3.76148 0
M  V30 3955 H 353.201 -2.53268 3.30521 0
M  V30 3956 H 355.798 -4.97157 1.96822 0
M  V30 3957 H 356.141 -4.136 0.473401 0
M  V30 3958 H 356.674 -3.42829 2.01775 0
M  V30 3959 H 353.413 -4.40946 4.85023 0
M  V30 3960 H 352.933 -5.03686 3.2567 0
M  V30 3961 H 354.612 -5.22045 3.82202 0
M  V30 3962 N 354.744 -0.972509 -1.24016 0
M  V30 3963 C 356.021 -0.553733 -1.87598 0
M  V30 3964 C 356.401 0.969158 -1.87538 0
M  V30 3965 O 355.749 1.84255 -1.35139 0
M  V30 3966 C 355.959 -1.15076 -3.29482 0
M  V30 3967 C 357.307 -1.23862 -4.06132 0
M  V30 3968 O 358.331 -1.10363 -3.38672 0
M  V30 3969 O 357.19 -1.45252 -5.26844 0
M  V30 3970 H 354.284 -0.185331 -0.805966 0
M  V30 3971 H 356.83 -1.06709 -1.31952 0
M  V30 3972 H 355.602 -2.19333 -3.2405 0
M  V30 3973 H 355.225 -0.621746 -3.92709 0
M  V30 3974 N 356.222 1.38976 -0.743202 0
M  V30 3975 C 357.471 1.99581 -0.291592 0
M  V30 3976 C 357.784 1.59656 1.13001 0
M  V30 3977 O 358.99 2.13157 1.68156 0
M  V30 3978 C 357.446 3.56813 -0.470391 0
M  V30 3979 C 357.054 4.05695 -1.90041 0
M  V30 3980 C 358.798 4.24423 -0.0809709 0
M  V30 3981 C 356.705 5.5553 -2.02832 0
M  V30 3982 H 355.635 0.746615 -0.105272 0
M  V30 3983 H 358.286 1.58872 -0.918258 0
M  V30 3984 H 356.668 3.95359 0.225299 0
M  V30 3985 H 357.842 3.78464 -2.62872 0
M  V30 3986 H 356.157 3.50775 -2.24379 0
M  V30 3987 H 358.754 5.34474 -0.155445 0
M  V30 3988 H 359.097 4.04962 0.96497 0
M  V30 3989 H 359.63 3.9108 -0.728124 0
M  V30 3990 H 356.369 5.79881 -3.05643 0
M  V30 3991 H 355.889 5.84537 -1.34448 0
M  V30 3992 H 357.568 6.21069 -1.81335 0
M  V30 3993 N 357.7 0.491464 1.49741 0
M  V30 3994 C 358.63 -0.28154 2.31796 0
M  V30 3995 C 359.611 -0.971473 1.3963 0
M  V30 3996 O 360.796 -0.964719 1.68543 0
M  V30 3997 C 357.926 -1.35203 3.19902 0
M  V30 3998 C 356.88 -0.782529 4.20786 0
M  V30 3999 C 356.206 -1.95283 4.97764 0
M  V30 4000 C 357.506 0.21999 5.21837 0
M  V30 4001 H 359.2 0.403355 2.96671 0
M  V30 4002 H 356.746 0.195425 1.42668 0
M  V30 4003 H 358.699 -1.90045 3.76113 0
M  V30 4004 H 357.423 -2.06598 2.52953 0
M  V30 4005 H 356.082 -0.255928 3.65706 0
M  V30 4006 H 355.73 -2.65423 4.2727 0
M  V30 4007 H 355.43 -1.57789 5.66018 0
M  V30 4008 H 356.954 -2.50577 5.56816 0
M  V30 4009 H 358.368 -0.23996 5.72798 0
M  V30 4010 H 356.765 0.51026 5.97927 0
M  V30 4011 H 357.835 1.13911 4.7133 0
M  V30 4012 N 359.178 -1.55987 0.224894 0
M  V30 4013 C 360.594 -1.59066 -0.130426 0
M  V30 4014 C 360.794 -1.24176 -1.5869 0
M  V30 4015 O 359.85 -0.978592 -2.32766 0
M  V30 4016 C 361.163 -3.00042 0.198883 0
M  V30 4017 C 362.711 -3.1268 0.141391 0
M  V30 4018 C 363.186 -4.55839 0.444422 0
M  V30 4019 N 364.677 -4.6152 0.394115 0
M  V30 4020 C 365.412 -5.70231 0.602038 0
M  V30 4021 N 364.908 -6.87291 0.871914 0
M  V30 4022 N 366.701 -5.59555 0.534245 0
M  V30 4023 H 358.852 -1.76941 1.17497 0
M  V30 4024 H 361.115 -0.822604 0.471197 0
M  V30 4025 H 360.821 -3.30234 1.2099 0
M  V30 4026 H 360.695 -3.74075 -0.484535 0
M  V30 4027 H 363.082 -2.82283 -0.860265 0
M  V30 4028 H 363.163 -2.40969 0.858335 0
M  V30 4029 H 362.807 -4.86954 1.44353 0
M  V30 4030 H 362.737 -5.2578 -0.293752 0
M  V30 4031 H 365.228 -3.77405 0.193356 0
M  V30 4032 H 365.541 -7.66058 1.01858 0
M  V30 4033 H 363.886 -6.89028 0.909145 0
M  V30 4034 H 367.077 -4.6698 0.323612 0
M  V30 4035 H 367.25 -6.44211 0.699693 0
M  V30 4036 N 360.656 0.0484629 -1.57525 0
M  V30 4037 C 361.586 1.0549 -2.08313 0
M  V30 4038 C 362.567 1.38929 -0.981463 0
M  V30 4039 O 363.752 1.48151 -1.25558 0
M  V30 4040 C 360.882 2.36162 -2.54646 0
M  V30 4041 C 359.836 2.17016 -3.68901 0
M  V30 4042 C 359.162 3.53278 -4.01371 0
M  V30 4043 C 360.462 1.57219 -4.98076 0
M  V30 4044 H 362.156 0.632195 -2.92649 0
M  V30 4045 H 359.702 0.302654 -1.40784 0
M  V30 4046 H 361.655 3.06882 -2.88793 0
M  V30 4047 H 360.379 2.80456 -1.67368 0
M  V30 4048 H 359.038 1.48733 -3.35073 0
M  V30 4049 H 358.686 3.95185 -3.11188 0
M  V30 4050 H 358.386 3.41299 -4.78318 0
M  V30 4051 H 359.91 4.25391 -4.38035 0
M  V30 4052 H 361.324 2.17832 -5.30304 0
M  V30 4053 H 359.721 1.55871 -5.79503 0
M  V30 4054 H 360.791 0.535956 -4.81929 0
M  V30 4055 N 362.134 1.5431 0.320358 0
M  V30 4056 C 363.082 1.84647 1.4145 0
M  V30 4057 C 364.076 0.718624 1.53402 0
M  V30 4058 O 365.282 0.902335 1.5575 0
M  V30 4059 H 361.657 0.585349 0.472091 0
M  V30 4060 H 363.628 2.7614 1.13089 0
M  V30 4061 C 362.377 2.09341 2.77617 0
M  V30 4062 H 361.7 2.9559 2.69196 0
M  V30 4063 H 363.14 2.3452 3.53237 0
M  V30 4064 C 361.599 0.885939 3.25043 0
M  V30 4065 O 362.129 0.0967891 4.01583 0
M  V30 4066 N 360.335 0.696682 2.82125 0
M  V30 4067 H 359.882 1.34006 2.2 0
M  V30 4068 H 359.84 -0.109712 3.14209 0
M  V30 4069 N 363.613 -0.582584 1.46437 0
M  V30 4070 C 364.576 -1.67366 1.56592 0
M  V30 4071 C 365.576 -1.54575 0.443072 0
M  V30 4072 O 366.766 -1.59191 0.707381 0
M  V30 4073 C 363.898 -3.06791 1.48634 0
M  V30 4074 H 365.091 -1.5972 2.5383 0
M  V30 4075 H 362.644 -0.800432 1.34249 0
M  V30 4076 H 363.379 -3.19993 0.526763 0
M  V30 4077 H 363.164 -3.17484 2.30101 0
M  V30 4078 H 364.654 -3.86218 1.58826 0
M  V30 4079 N 365.091 -1.34144 -0.827227 0
M  V30 4080 C 366.024 -1.19707 -1.94282 0
M  V30 4081 C 367.002 -0.0897256 -1.62352 0
M  V30 4082 O 368.186 -0.254095 -1.8678 0
M  V30 4083 C 365.313 -0.838646 -3.28153 0
M  V30 4084 C 364.359 -1.95514 -3.79047 0
M  V30 4085 S 365.192 -3.56793 -3.99323 0
M  V30 4086 C 366.348 -3.22983 -5.36127 0
M  V30 4087 H 366.581 -2.1414 -2.06231 0
M  V30 4088 H 364.114 -1.19121 -0.982321 0
M  V30 4089 H 366.072 -0.638637 -4.05502 0
M  V30 4090 H 364.733 0.0872776 -3.13979 0
M  V30 4091 H 363.926 -1.658 -4.75948 0
M  V30 4092 H 363.528 -2.11241 -3.08631 0
M  V30 4093 H 365.82 -2.74531 -6.19386 0
M  V30 4094 H 366.763 -4.19008 -5.70822 0
M  V30 4095 H 367.171 -2.59276 -5.01434 0
M  V30 4096 N 366.569 1.04691 -1.17803 0
M  V30 4097 C 367.815 1.78045 -0.970969 0
M  V30 4098 C 368.148 1.87686 0.498751 0
M  V30 4099 O 367.423 1.38035 1.37027 0
M  V30 4100 C 367.706 3.2166 -1.61884 0
M  V30 4101 C 367.559 3.20001 -3.161 0
M  V30 4102 C 368.878 4.1962 -1.3269 0
M  V30 4103 H 365.997 0.64633 -0.354155 0
M  V30 4104 H 368.639 1.22333 -1.45378 0
M  V30 4105 H 366.789 3.69232 -1.20831 0
M  V30 4106 H 368.461 2.80467 -3.66246 0
M  V30 4107 H 366.704 2.58203 -3.48588 0
M  V30 4108 H 367.375 4.21386 -3.56564 0
M  V30 4109 H 369.851 3.80567 -1.68249 0
M  V30 4110 H 368.727 5.18339 -1.80599 0
M  V30 4111 H 368.988 4.414 -0.248622 0
M  V30 4112 N 368.047 0.979072 1.23499 0
M  V30 4113 C 369.272 0.664845 1.96455 0
M  V30 4114 C 369.697 -0.761287 1.72006 0
M  V30 4115 O 369.055 -1.51837 0.990713 0
M  V30 4116 C 369.103 0.959479 3.47601 0
M  V30 4117 O 368.207 0.0508168 4.12369 0
M  V30 4118 H 367.548 0.250185 0.615064 0
M  V30 4119 H 370.078 1.31231 1.5697 0
M  V30 4120 H 370.088 0.895642 3.98048 0
M  V30 4121 H 368.763 1.99876 3.64723 0
M  V30 4122 H 367.34 0.16895 3.72517 0
M  V30 4123 N 369.525 -1.3858 0.750561 0
M  V30 4124 C 370.772 -2.00184 0.305373 0
M  V30 4125 C 371.1 -1.59575 -1.11203 0
M  V30 4126 O 370.355 -0.823236 -1.77542 0
M  V30 4127 C 370.654 -3.55455 0.372373 0
M  V30 4128 C 370.32 -4.15765 1.745 0
M  V30 4129 C 368.982 -4.31951 2.12065 0
M  V30 4130 C 371.334 -4.49067 2.64553 0
M  V30 4131 C 368.662 -4.78734 3.39162 0
M  V30 4132 C 371.014 -4.97265 3.91038 0
M  V30 4133 C 369.678 -5.11658 4.28676 0
M  V30 4134 H 368.948 -0.732526 0.111744 0
M  V30 4135 H 371.595 -1.65673 0.960451 0
M  V30 4136 H 369.9 -3.90084 -0.366272 0
M  V30 4137 H 371.597 -4.00999 0.00953918 0
M  V30 4138 H 368.187 -4.03579 1.44297 0
M  V30 4139 H 372.371 -4.36166 2.36796 0
M  V30 4140 H 367.627 -4.88062 3.68246 0
M  V30 4141 H 371.801 -5.22003 4.60962 0
M  V30 4142 H 369.428 -5.47668 5.27222 0
M  V30 4143 N 371.003 -0.499398 -1.49478 0
M  V30 4144 C 372.25 0.0456899 -2.02448 0
M  V30 4145 C 372.578 1.37142 -1.37921 0
M  V30 4146 O 371.833 1.89111 -0.503544 0
M  V30 4147 C 372.132 0.248424 -3.56536 0
M  V30 4148 C 371.798 -0.999107 -4.39692 0
M  V30 4149 C 370.46 -1.34108 -4.62135 0
M  V30 4150 C 372.812 -1.82842 -4.88076 0
M  V30 4151 C 370.14 -2.51191 -5.30208 0
M  V30 4152 C 372.492 -2.99076 -5.57437 0
M  V30 4153 C 371.156 -3.33655 -5.78127 0
M  V30 4154 H 370.426 0.0167191 -0.740811 0
M  V30 4155 H 373.073 -0.65923 -1.79795 0
M  V30 4156 H 371.378 1.03586 -3.77859 0
M  V30 4157 H 373.075 0.684605 -3.95113 0
M  V30 4158 H 369.665 -0.722729 -4.22463 0
M  V30 4159 H 373.849 -1.57737 -4.70566 0
M  V30 4160 H 369.105 -2.78221 -5.44429 0
M  V30 4161 H 373.279 -3.63664 -5.93904 0
M  V30 4162 H 370.906 -4.24483 -6.30649 0
M  V30 4163 N 372.481 1.55866 -0.233164 0
M  V30 4164 C 373.413 2.18099 0.704668 0
M  V30 4165 C 374.426 1.15334 1.14899 0
M  V30 4166 O 375.615 1.42262 1.07814 0
M  V30 4167 C 372.715 2.7592 1.96777 0
M  V30 4168 C 371.888 4.03969 1.67713 0
M  V30 4169 C 370.947 4.46242 2.78845 0
M  V30 4170 O 369.973 5.12903 2.46818 0
M  V30 4171 N 371.175 4.12886 4.08051 0
M  V30 4172 H 373.94 2.99205 0.172258 0
M  V30 4173 H 371.501 1.61815 -0.0525945 0
M  V30 4174 H 373.493 3.01165 2.70337 0
M  V30 4175 H 372.063 1.99051 2.41034 0
M  V30 4176 H 371.283 3.86459 0.777391 0
M  V30 4177 H 372.571 4.8748 1.4574 0
M  V30 4178 H 371.969 3.59342 4.3691 0
M  V30 4179 H 370.526 4.42997 4.78118 0
M  V30 4180 N 373.959 -0.0401083 1.57549 0
M  V30 4181 C 374.889 -1.04384 2.08869 0
M  V30 4182 C 375.87 -1.38407 0.988817 0
M  V30 4183 O 377.055 -1.47483 1.26342 0
M  V30 4184 C 374.185 -2.34808 2.55895 0
M  V30 4185 C 373.139 -2.15057 3.70047 0
M  V30 4186 C 372.465 -3.51145 4.03239 0
M  V30 4187 C 373.765 -1.54576 4.98902 0
M  V30 4188 H 375.459 -0.616666 2.92981 0
M  V30 4189 H 373.005 -0.295184 1.40942 0
M  V30 4190 H 374.958 -3.05346 2.90417 0
M  V30 4191 H 373.682 -2.79565 1.68853 0
M  V30 4192 H 372.341 -1.46954 3.35857 0
M  V30 4193 H 371.989 -3.93529 3.13279 0
M  V30 4194 H 371.689 -3.38758 4.80122 0
M  V30 4195 H 373.213 -4.23062 4.40285 0
M  V30 4196 H 374.627 -2.15017 5.31451 0
M  V30 4197 H 373.024 -1.52796 5.80322 0
M  V30 4198 H 374.094 -0.51039 4.82206 0
M  V30 4199 N 375.437 -1.54477 -0.31217 0
M  V30 4200 C 376.684 -1.73227 -1.04875 0
M  V30 4201 C 377.012 -0.512042 -1.87639 0
M  V30 4202 O 376.267 0.506131 -1.89042 0
M  V30 4203 C 376.566 -2.967 -1.99258 0
M  V30 4204 C 376.232 -4.30974 -1.32559 0
M  V30 4205 C 374.894 -4.67477 -1.141 0
M  V30 4206 C 377.246 -5.14258 -0.847835 0
M  V30 4207 C 374.574 -5.84852 -0.465326 0
M  V30 4208 C 376.926 -6.32327 -0.185931 0
M  V30 4209 C 375.59 -6.67499 0.0107077 0
M  V30 4210 H 374.86 -0.633881 -0.383765 0
M  V30 4211 H 377.507 -1.88727 -0.324731 0
M  V30 4212 H 375.812 -2.75935 -2.7815 0
M  V30 4213 H 377.509 -3.08401 -2.563 0
M  V30 4214 H 374.099 -4.02262 -1.4793 0
M  V30 4215 H 378.283 -4.86565 -0.978192 0
M  V30 4216 H 373.539 -6.10654 -0.301883 0
M  V30 4217 H 377.713 -6.96135 0.192211 0
M  V30 4218 H 375.34 -7.58306 0.536287 0
M  V30 4219 N 376.915 0.57481 -1.46744 0
M  V30 4220 C 378.143 1.35856 -1.56047 0
M  V30 4221 C 378.558 1.87691 -0.204365 0
M  V30 4222 O 377.915 1.64049 0.79963 0
M  V30 4223 C 377.966 2.54066 -2.57163 0
M  V30 4224 O 377.687 2.04377 -3.87507 0
M  V30 4225 C 379.188 3.46514 -2.76483 0
M  V30 4226 H 376.408 0.414754 -0.527466 0
M  V30 4227 H 378.952 0.698035 -1.92218 0
M  V30 4228 H 377.107 3.16092 -2.23974 0
M  V30 4229 H 377.521 2.81419 -4.4261 0
M  V30 4230 H 378.995 4.25919 -3.51137 0
M  V30 4231 H 379.472 3.98951 -1.83671 0
M  V30 4232 H 380.078 2.90318 -3.10799 0
M  V30 4233 N 378.394 1.34581 0.820102 0
M  V30 4234 C 379.619 1.30333 1.61332 0
M  V30 4235 C 380.044 -0.119339 1.87721 0
M  V30 4236 O 379.402 -1.08197 1.45475 0
M  V30 4237 C 379.45 2.10258 2.92957 0
M  V30 4238 O 378.554 1.47404 3.85157 0
M  V30 4239 H 377.895 0.447488 0.490561 0
M  V30 4240 H 380.425 1.77425 1.01889 0
M  V30 4241 H 380.435 2.21718 3.42498 0
M  V30 4242 H 379.11 3.13693 2.73074 0
M  V30 4243 H 377.687 1.44703 3.43679 0
M  V30 4244 N 379.872 -1.04064 1.18357 0
M  V30 4245 C 381.112 -1.78829 0.989921 0
M  V30 4246 C 381.476 -1.86106 -0.472095 0
M  V30 4247 O 382.677 -2.57076 -0.785187 0
M  V30 4248 C 380.948 -3.1823 1.6268 0
M  V30 4249 S 382.507 -4.09332 1.58091 0
M  V30 4250 H 379.325 -0.615754 0.355482 0
M  V30 4251 H 381.927 -1.24778 1.50501 0
M  V30 4252 H 380.631 -3.10543 2.68311 0
M  V30 4253 H 380.162 -3.77357 1.112 0
M  V30 4254 H 382.177 -4.92598 0.596817 0
M  V30 4255 N 381.35 -0.985608 -1.22978 0
M  V30 4256 C 382.28 -0.549649 -2.26939 0
M  V30 4257 C 383.261 0.419803 -1.64838 0
M  V30 4258 O 384.446 0.31203 -1.91677 0
M  V30 4259 C 381.576 0.143652 -3.47003 0
M  V30 4260 C 380.53 -0.743606 -4.21491 0
M  V30 4261 C 379.856 0.0822027 -5.34637 0
M  V30 4262 C 381.156 -2.03694 -4.80943 0
M  V30 4263 H 382.85 -1.41862 -2.63658 0
M  V30 4264 H 380.396 -0.683571 -1.26741 0
M  V30 4265 H 382.349 0.459985 -4.18882 0
M  V30 4266 H 381.073 1.04711 -3.09359 0
M  V30 4267 H 379.732 -1.04347 -3.51436 0
M  V30 4268 H 379.38 0.986359 -4.93234 0
M  V30 4269 H 379.08 -0.508377 -5.85397 0
M  V30 4270 H 380.604 0.392797 -6.09335 0
M  V30 4271 H 382.018 -1.78504 -5.44802 0
M  V30 4272 H 380.415 -2.57573 -5.42011 0
M  V30 4273 H 381.485 -2.72042 -4.01399 0
M  V30 4274 N 382.828 1.3818 -0.7579 0
M  V30 4275 C 384.077 1.99261 -0.312744 0
M  V30 4276 C 384.39 1.60846 1.11301 0
M  V30 4277 O 385.596 2.14929 1.65885 0
M  V30 4278 C 384.052 3.56294 -0.50821 0
M  V30 4279 C 383.66 4.03657 -1.94333 0
M  V30 4280 C 385.404 4.24313 -0.125982 0
M  V30 4281 C 383.311 5.53347 -2.08712 0
M  V30 4282 H 382.241 0.745456 -0.113185 0
M  V30 4283 H 384.892 1.57889 -0.935056 0
M  V30 4284 H 383.274 3.95575 0.183353 0
M  V30 4285 H 384.448 3.75655 -2.66871 0
M  V30 4286 H 382.763 3.48376 -2.28086 0
M  V30 4287 H 385.36 5.34279 -0.212125 0
M  V30 4288 H 385.703 4.05962 0.921964 0
M  V30 4289 H 386.236 3.90285 -0.769563 0
M  V30 4290 H 382.975 5.76607 -3.11777 0
M  V30 4291 H 382.495 5.83078 -1.4064 0
M  V30 4292 H 384.174 6.19111 -1.87912 0
M  V30 4293 N 384.306 0.507319 1.49211 0
M  V30 4294 C 385.236 -0.256939 2.32082 0
M  V30 4295 C 386.217 -0.956609 1.40652 0
M  V30 4296 O 387.402 -0.946788 1.69557 0
M  V30 4297 C 384.532 -1.31802 3.21318 0
M  V30 4298 C 383.486 -0.737855 4.21592 0
M  V30 4299 C 382.812 -1.89992 4.99807 0
M  V30 4300 C 384.112 0.275325 5.21574 0
M  V30 4301 H 385.806 0.434798 2.96226 0
M  V30 4302 H 383.352 0.210546 1.42452 0
M  V30 4303 H 385.305 -1.86045 3.78107 0
M  V30 4304 H 384.029 -2.03903 2.5513 0
M  V30 4305 H 382.688 -0.217126 3.65956 0
M  V30 4306 H 382.336 -2.60877 4.30061 0
M  V30 4307 H 382.036 -1.51777 5.6766 0
M  V30 4308 H 383.56 -2.44657 5.59442 0
M  V30 4309 H 384.974 -0.179193 5.7302 0
M  V30 4310 H 383.371 0.573649 5.97352 0
M  V30 4311 H 384.441 1.18903 4.70096 0
M  V30 4312 N 385.784 -1.5574 0.241426 0
M  V30 4313 C 387.195 -1.84842 -0.262755 0
M  V30 4314 C 387.546 -1.16317 -1.58003 0
M  V30 4315 O 386.671 -0.439653 -2.11887 0
M  V30 4316 C 387.266 -3.35332 -0.483523 0
M  V30 4317 C 385.825 -3.6468 -0.931977 0
M  V30 4318 C 384.972 -2.77299 -0.0061151 0
M  V30 4319 H 387.923 -1.51761 0.464129 0
M  V30 4320 H 387.944 -3.56615 -1.32688 0
M  V30 4321 H 387.456 -3.85178 0.47537 0
M  V30 4322 H 385.557 -3.20307 -1.90353 0
M  V30 4323 H 385.67 -4.72498 -0.792628 0
M  V30 4324 H 384.034 -2.49408 -0.516503 0
M  V30 4325 H 384.817 -3.2995 0.948052 0
M  V30 4326 N 387.262 0.0317525 -1.57568 0
M  V30 4327 C 388.508 0.724175 -1.8943 0
M  V30 4328 C 388.841 1.75149 -0.838836 0
M  V30 4329 O 388.116 1.93948 0.146422 0
M  V30 4330 C 388.399 1.39615 -3.31933 0
M  V30 4331 C 388.252 0.382537 -4.4817 0
M  V30 4332 C 389.571 2.33084 -3.73309 0
M  V30 4333 H 386.69 0.261797 -0.688935 0
M  V30 4334 H 389.332 -0.013017 -1.89996 0
M  V30 4335 H 387.482 2.02451 -3.31581 0
M  V30 4336 H 389.154 -0.243689 -4.60656 0
M  V30 4337 H 387.397 -0.29844 -4.32772 0
M  V30 4338 H 388.068 0.891145 -5.44759 0
M  V30 4339 H 390.544 1.80295 -3.7501 0
M  V30 4340 H 389.42 2.77084 -4.73831 0
M  V30 4341 H 389.681 3.19643 -3.05419 0
M  V30 4342 N 388.74 1.54641 0.303973 0
M  V30 4343 C 389.97 1.77511 1.05705 0
M  V30 4344 C 390.378 0.533228 1.81531 0
M  V30 4345 O 389.721 -0.506423 1.76582 0
M  V30 4346 C 389.783 2.92779 2.08617 0
M  V30 4347 C 389.447 4.30977 1.52013 0
M  V30 4348 C 390.444 5.11115 0.9517 0
M  V30 4349 C 388.129 4.77571 1.55665 0
M  V30 4350 C 390.123 6.35966 0.427327 0
M  V30 4351 C 387.81 6.02384 1.02841 0
M  V30 4352 C 388.808 6.81417 0.464713 0
M  V30 4353 O 388.496 8.03881 -0.0555283 0
M  V30 4354 H 388.228 0.59579 0.319391 0
M  V30 4355 H 390.782 2.02401 0.349712 0
M  V30 4356 H 389.012 2.63506 2.83022 0
M  V30 4357 H 390.701 3.03252 2.69802 0
M  V30 4358 H 391.467 4.76264 0.916407 0
M  V30 4359 H 387.346 4.16085 1.9848 0
M  V30 4360 H 390.89 6.97599 -0.0133062 0
M  V30 4361 H 386.787 6.36723 1.06084 0
M  V30 4362 H 387.555 8.18479 0.0580522 0
M  V30 4363 N 390.218 -0.567019 1.47046 0
M  V30 4364 C 391.446 -1.35027 1.56765 0
M  V30 4365 C 391.861 -1.8758 0.214316 0
M  V30 4366 O 391.218 -1.64471 -0.790919 0
M  V30 4367 C 391.269 -2.52698 2.58507 0
M  V30 4368 O 390.99 -2.0232 3.88585 0
M  V30 4369 C 392.491 -3.45043 2.78316 0
M  V30 4370 H 389.711 -0.41195 0.529658 0
M  V30 4371 H 392.255 -0.687832 1.92585 0
M  V30 4372 H 390.41 -3.149 2.25648 0
M  V30 4373 H 390.824 -2.79068 4.44096 0
M  V30 4374 H 392.298 -4.2405 3.53391 0
M  V30 4375 H 392.775 -3.97971 1.85784 0
M  V30 4376 H 393.381 -2.88665 3.12334 0
M  V30 4377 N 391.696 -1.35014 -0.812953 0
M  V30 4378 C 392.626 -1.30069 -1.93919 0
M  V30 4379 C 393.607 -0.176275 -1.69184 0
M  V30 4380 O 394.792 -0.370227 -1.90638 0
M  V30 4381 C 391.922 -1.06547 -3.30552 0
M  V30 4382 C 390.876 -2.15561 -3.69753 0
M  V30 4383 C 390.202 -1.77214 -5.04479 0
M  V30 4384 C 391.502 -3.57476 -3.808 0
M  V30 4385 H 393.196 -2.24303 -1.98314 0
M  V30 4386 H 390.742 -1.07977 -0.952736 0
M  V30 4387 H 392.695 -1.01729 -4.08937 0
M  V30 4388 H 391.419 -0.0875719 -3.26483 0
M  V30 4389 H 390.078 -2.19466 -2.9365 0
M  V30 4390 H 389.726 -0.780589 -4.96906 0
M  V30 4391 H 389.426 -2.50184 -5.31678 0
M  V30 4392 H 390.95 -1.7391 -5.8531 0
M  V30 4393 H 392.364 -3.55929 -4.4943 0
M  V30 4394 H 390.761 -4.29152 -4.19462 0
M  V30 4395 H 391.831 -3.94091 -2.82525 0
M  V30 4396 N 393.175 1.03435 -1.18907 0
M  V30 4397 C 394.586 1.58195 -0.991523 0
M  V30 4398 C 394.937 1.90801 0.457081 0
M  V30 4399 O 394.062 1.70272 1.33553 0
M  V30 4400 C 394.657 2.87432 -1.79355 0
M  V30 4401 C 393.216 3.38785 -1.64017 0
M  V30 4402 C 392.363 2.12292 -1.78402 0
M  V30 4403 H 395.314 0.860299 -1.33359 0
M  V30 4404 H 395.335 3.58096 -1.28638 0
M  V30 4405 H 394.847 2.63669 -2.84781 0
M  V30 4406 H 392.948 3.67547 -0.611536 0
M  V30 4407 H 393.061 4.12186 -2.44212 0
M  V30 4408 H 391.425 2.23901 -1.2141 0
M  V30 4409 H 392.208 1.90977 -2.85277 0
M  V30 4410 N 394.653 0.992116 1.22453 0
M  V30 4411 C 395.9 0.667534 1.91181 0
M  V30 4412 C 396.228 -0.800317 1.77271 0
M  V30 4413 O 395.483 -1.59421 1.13505 0
M  V30 4414 C 395.782 1.01832 3.42586 0
M  V30 4415 C 395.448 2.47831 3.76684 0
M  V30 4416 C 394.11 2.87729 3.85701 0
M  V30 4417 C 396.462 3.42466 3.92895 0
M  V30 4418 C 393.79 4.21252 4.08367 0
M  V30 4419 C 396.142 4.75648 4.17064 0
M  V30 4420 C 394.806 5.15288 4.24305 0
M  V30 4421 H 394.076 0.244268 0.699581 0
M  V30 4422 H 396.723 1.24816 1.45235 0
M  V30 4423 H 395.028 0.355769 3.90181 0
M  V30 4424 H 396.725 0.745228 3.94014 0
M  V30 4425 H 393.315 2.15905 3.70247 0
M  V30 4426 H 397.499 3.12814 3.85307 0
M  V30 4427 H 392.755 4.51554 4.122 0
M  V30 4428 H 396.929 5.48924 4.2855 0
M  V30 4429 H 394.556 6.18769 4.41621 0
M  V30 4430 N 396.131 -1.37776 0.765217 0
M  V30 4431 C 397.061 -2.32945 0.160953 0
M  V30 4432 C 398.042 -1.55454 -0.690516 0
M  V30 4433 O 399.227 -1.83721 -0.629318 0
M  V30 4434 C 396.357 -3.39669 -0.724031 0
M  V30 4435 C 395.311 -4.27992 0.0256173 0
M  V30 4436 C 394.637 -5.25673 -0.978383 0
M  V30 4437 C 395.937 -5.08309 1.20082 0
M  V30 4438 H 397.631 -2.83728 0.955969 0
M  V30 4439 H 395.177 -1.36416 0.461149 0
M  V30 4440 H 397.13 -4.05219 -1.15652 0
M  V30 4441 H 395.854 -2.87396 -1.5515 0
M  V30 4442 H 394.513 -3.63964 0.438812 0
M  V30 4443 H 394.161 -4.69682 -1.80022 0
M  V30 4444 H 393.861 -5.85625 -0.481378 0
M  V30 4445 H 395.385 -5.94098 -1.40995 0
M  V30 4446 H 396.799 -5.67034 0.845307 0
M  V30 4447 H 395.196 -5.77554 1.62947 0
M  V30 4448 H 396.266 -4.41365 2.00811 0
M  V30 4449 N 397.609 -0.515225 -1.4894 0
M  V30 4450 C 398.556 0.255567 -2.29381 0
M  V30 4451 C 399.526 0.947387 -1.36432 0
M  V30 4452 O 400.711 0.951288 -1.65394 0
M  V30 4453 C 397.851 1.30551 -3.19453 0
M  V30 4454 C 396.964 0.624029 -4.27469 0
M  V30 4455 C 396.099 1.65563 -5.0474 0
M  V30 4456 C 395.138 0.956802 -6.04576 0
M  V30 4457 N 394.275 1.93326 -6.74959 0
M  V30 4458 H 399.115 -0.436607 -2.94784 0
M  V30 4459 H 396.652 -0.227154 -1.45336 0
M  V30 4460 H 398.61 1.92639 -3.70062 0
M  V30 4461 H 397.24 1.96626 -2.56004 0
M  V30 4462 H 396.292 -0.110459 -3.8024 0
M  V30 4463 H 397.604 0.0746092 -4.98744 0
M  V30 4464 H 396.758 2.35119 -5.59289 0
M  V30 4465 H 395.497 2.23893 -4.3327 0
M  V30 4466 H 394.502 0.247097 -5.49244 0
M  V30 4467 H 395.727 0.379814 -6.78037 0
M  V30 4468 H 393.673 2.50591 -6.06251 0
M  V30 4469 H 393.59 1.43489 -7.42258 0
M  V30 4470 H 394.858 2.62126 -7.34105 0
M  V30 4471 N 399.087 1.5561 -0.249682 0
M  V30 4472 C 400.019 2.18834 0.681496 0
M  V30 4473 C 401.032 1.16546 1.1367 0
M  V30 4474 O 402.221 1.43397 1.06299 0
M  V30 4475 C 399.321 2.77992 1.9384 0
M  V30 4476 C 398.494 4.05725 1.63419 0
M  V30 4477 C 397.553 4.49174 2.74096 0
M  V30 4478 O 396.579 5.15492 2.41364 0
M  V30 4479 N 397.781 4.17191 4.03649 0
M  V30 4480 H 400.546 2.9937 0.140514 0
M  V30 4481 H 398.107 1.6175 -0.0697541 0
M  V30 4482 H 400.099 3.04015 2.67127 0
M  V30 4483 H 398.669 2.01596 2.38909 0
M  V30 4484 H 397.889 3.87261 0.736358 0
M  V30 4485 H 399.177 4.88999 1.40562 0
M  V30 4486 H 398.575 3.63955 4.33074 0
M  V30 4487 H 397.132 4.48043 4.73393 0
M  V30 4488 N 400.565 -0.0233959 1.57583 0
M  V30 4489 C 401.495 -1.02162 2.09965 0
M  V30 4490 C 402.476 -1.3735 1.00344 0
M  V30 4491 O 403.661 -1.46135 1.27899 0
M  V30 4492 C 400.791 -2.32081 2.58371 0
M  V30 4493 C 399.745 -2.1112 3.72307 0
M  V30 4494 C 399.071 -3.46848 4.06941 0
M  V30 4495 C 400.371 -1.49276 5.00514 0
M  V30 4496 H 402.065 -0.585557 2.93618 0
M  V30 4497 H 399.611 -0.280218 1.41247 0
M  V30 4498 H 401.564 -3.02249 2.93639 0
M  V30 4499 H 400.288 -2.77758 1.71808 0
M  V30 4500 H 398.947 -1.43384 3.37397 0
M  V30 4501 H 398.595 -3.90184 3.17436 0
M  V30 4502 H 398.295 -3.33646 4.83688 0
M  V30 4503 H 399.819 -4.18369 4.44747 0
M  V30 4504 H 401.233 -2.09368 5.33702 0
M  V30 4505 H 399.63 -1.46632 5.8191 0
M  V30 4506 H 400.7 -0.459217 4.82721 0
M  V30 4507 N 402.043 -1.548 -0.295768 0
M  V30 4508 C 402.993 -1.82497 -1.3667 0
M  V30 4509 C 403.977 -0.682434 -1.45711 0
M  V30 4510 O 405.169 -0.943207 -1.49775 0
M  V30 4511 C 402.298 -2.08036 -2.73086 0
M  V30 4512 C 401.384 -3.28488 -2.68247 0
M  V30 4513 N 401.775 -4.48924 -2.33025 0
M  V30 4514 C 400.073 -3.3062 -2.99343 0
M  V30 4515 C 400.774 -5.30956 -2.37613 0
M  V30 4516 N 399.75 -4.68805 -2.75178 0
M  V30 4517 H 403.552 -2.73175 -1.0841 0
M  V30 4518 H 401.066 -1.5437 -0.504361 0
M  V30 4519 H 403.063 -2.26027 -3.5031 0
M  V30 4520 H 401.723 -1.18629 -3.02254 0
M  V30 4521 H 402.734 -4.75432 -2.05389 0
M  V30 4522 H 399.411 -2.51336 -3.33371 0
M  V30 4523 H 400.801 -6.37199 -2.13135 0
M  V30 4524 N 403.521 0.559213 -1.47345 0
M  V30 4525 C 404.451 1.67622 -1.62558 0
M  V30 4526 C 405.432 1.63331 -0.475087 0
M  V30 4527 O 406.617 1.80983 -0.704182 0
M  V30 4528 C 403.747 3.0626 -1.63774 0
M  V30 4529 C 402.701 3.25397 -2.7803 0
M  V30 4530 C 402.027 4.64801 -2.64318 0
M  V30 4531 C 403.327 3.10965 -4.19641 0
M  V30 4532 H 405.021 1.55146 -2.56067 0
M  V30 4533 H 402.567 0.744961 -1.23233 0
M  V30 4534 H 404.52 3.84247 -1.73008 0
M  V30 4535 H 403.244 3.1969 -0.66825 0
M  V30 4536 H 401.903 2.49817 -2.68304 0
M  V30 4537 H 401.551 4.75028 -1.65401 0
M  V30 4538 H 401.251 4.78555 -3.40968 0
M  V30 4539 H 402.775 5.44926 -2.75478 0
M  V30 4540 H 404.189 3.78772 -4.30354 0
M  V30 4541 H 402.586 3.36229 -4.97062 0
M  V30 4542 H 403.656 2.07736 -4.38148 0
M  V30 4543 N 404.999 1.35443 0.805782 0
M  V30 4544 C 406.41 1.25768 1.37983 0
M  V30 4545 C 406.761 -0.10958 1.95894 0
M  V30 4546 O 405.886 -1.01056 1.91355 0
M  V30 4547 C 406.481 2.27727 2.5085 0
M  V30 4548 C 405.04 2.2179 3.04115 0
M  V30 4549 C 404.187 2.13393 1.77084 0
M  V30 4550 H 407.138 1.4656 0.608752 0
M  V30 4551 H 407.159 1.90422 3.29424 0
M  V30 4552 H 406.671 3.27227 2.08671 0
M  V30 4553 H 404.772 1.25703 3.50756 0
M  V30 4554 H 404.885 3.13788 3.62042 0
M  V30 4555 H 403.249 1.59384 1.98668 0
M  V30 4556 H 404.032 3.14755 1.37056 0
M  V30 4557 N 406.477 -1.02803 1.19454 0
M  V30 4558 C 407.707 -1.79581 1.02149 0
M  V30 4559 C 408.115 -1.84182 -0.432851 0
M  V30 4560 O 407.458 -1.28534 -1.31243 0
M  V30 4561 C 407.52 -3.25993 1.51554 0
M  V30 4562 C 407.184 -3.45025 2.99678 0
M  V30 4563 C 408.181 -3.35175 3.97434 0
M  V30 4564 C 405.866 -3.71212 3.38389 0
M  V30 4565 C 407.86 -3.51238 5.31893 0
M  V30 4566 C 405.547 -3.8692 4.73008 0
M  V30 4567 C 406.545 -3.76936 5.69569 0
M  V30 4568 O 406.233 -3.92179 7.01748 0
M  V30 4569 H 405.965 -0.571962 0.360327 0
M  V30 4570 H 408.519 -1.30367 1.58725 0
M  V30 4571 H 406.749 -3.76235 0.893543 0
M  V30 4572 H 408.438 -3.84368 1.30444 0
M  V30 4573 H 409.204 -3.14895 3.68872 0
M  V30 4574 H 405.083 -3.78075 2.6378 0
M  V30 4575 H 408.627 -3.43362 6.07247 0
M  V30 4576 H 404.524 -4.06699 5.01265 0
M  V30 4577 H 405.292 -4.09265 7.08833 0
M  V30 4578 N 407.956 -0.998596 -1.21925 0
M  V30 4579 C 408.904 -0.546641 -2.26085 0
M  V30 4580 C 409.898 0.405576 -1.64473 0
M  V30 4581 O 411.104 0.277471 -1.77849 0
M  V30 4582 H 407.479 -0.158403 -0.735127 0
M  V30 4583 H 409.45 -1.43645 -2.61551 0
M  V30 4584 C 408.199 0.117388 -3.47502 0
M  V30 4585 H 407.522 -0.606277 -3.95176 0
M  V30 4586 H 408.962 0.396993 -4.22137 0
M  V30 4587 C 407.421 1.35455 -3.0847 0
M  V30 4588 O 407.951 2.44944 -3.18379 0
M  V30 4589 N 406.157 1.23191 -2.63196 0
M  V30 4590 H 405.704 0.341006 -2.55333 0
M  V30 4591 H 405.662 2.06071 -2.37449 0
M  V30 4592 N 409.434 1.37368 -0.772513 0
M  V30 4593 C 410.344 2.34053 -0.160081 0
M  V30 4594 C 411.36 1.60216 0.678728 0
M  V30 4595 O 412.536 1.92303 0.59847 0
M  V30 4596 C 409.601 3.3939 0.708182 0
M  V30 4597 C 408.662 4.29048 -0.147172 0
M  V30 4598 C 407.895 5.29354 0.679744 0
M  V30 4599 O 408.118 5.3723 1.91678 0
M  V30 4600 O 407.052 6.01835 0.0885444 0
M  V30 4601 H 410.878 2.88159 -0.959053 0
M  V30 4602 H 408.463 1.39543 -0.533685 0
M  V30 4603 H 410.345 4.03839 1.20384 0
M  V30 4604 H 409.02 2.8761 1.48533 0
M  V30 4605 H 407.927 3.67697 -0.689205 0
M  V30 4606 H 409.26 4.84134 -0.887423 0
M  V30 4607 N 410.912 0.523116 1.48665 0
M  V30 4608 C 412.161 -0.01544 2.01694 0
M  V30 4609 C 412.474 -1.35975 1.40606 0
M  V30 4610 O 413.68 -1.98627 1.85093 0
M  V30 4611 C 412.136 -0.0779303 3.59816 0
M  V30 4612 C 411.744 1.26107 4.29885 0
M  V30 4613 C 413.488 -0.565678 4.20714 0
M  V30 4614 C 411.395 1.15954 5.79921 0
M  V30 4615 H 410.325 -0.00954163 0.75394 0
M  V30 4616 H 412.976 0.665865 1.70993 0
M  V30 4617 H 411.358 -0.824165 3.87329 0
M  V30 4618 H 412.532 2.02233 4.14051 0
M  V30 4619 H 410.847 1.68401 3.80828 0
M  V30 4620 H 413.444 -0.6595 5.30617 0
M  V30 4621 H 413.787 -1.56984 3.85567 0
M  V30 4622 H 414.32 0.12467 3.97605 0
M  V30 4623 H 411.059 2.13864 6.19631 0
M  V30 4624 H 410.579 0.439529 5.98187 0
M  V30 4625 H 412.258 0.847361 6.41427 0
M  V30 4626 N 412.39 -1.55475 0.257931 0
M  V30 4627 C 413.636 -2.00237 -0.357338 0
M  V30 4628 C 413.991 -1.14313 -1.54759 0
M  V30 4629 O 413.284 -0.201187 -1.90541 0
M  V30 4630 C 413.478 -3.48183 -0.806433 0
M  V30 4631 C 413.307 -4.48422 0.338758 0
M  V30 4632 C 412.077 -4.98651 0.817011 0
M  V30 4633 C 414.275 -5.00827 1.16949 0
M  V30 4634 N 412.257 -5.82658 1.93346 0
M  V30 4635 C 413.628 -5.82113 2.13413 0
M  V30 4636 C 415.683 -4.83104 1.2048 0
M  V30 4637 C 414.386 -6.47566 3.13131 0
M  V30 4638 C 416.412 -5.49343 2.19034 0
M  V30 4639 C 415.774 -6.30427 3.14232 0
M  V30 4640 H 411.873 -0.776034 -0.0964083 0
M  V30 4641 H 414.457 -1.90995 0.37803 0
M  V30 4642 H 412.628 -3.57801 -1.51107 0
M  V30 4643 H 414.36 -3.79802 -1.39758 0
M  V30 4644 H 411.115 -4.71914 0.39925 0
M  V30 4645 H 411.539 -6.29356 2.49478 0
M  V30 4646 H 416.181 -4.20036 0.482634 0
M  V30 4647 H 413.899 -7.09793 3.8629 0
M  V30 4648 H 417.485 -5.37579 2.22485 0
M  V30 4649 H 416.365 -6.80777 3.89246 0
M  V30 4650 N 413.868 0.0150385 -1.57593 0
M  V30 4651 C 415.096 0.714395 -1.94175 0
M  V30 4652 C 415.511 1.68135 -0.858841 0
M  V30 4653 O 414.868 1.81766 0.163567 0
M  V30 4654 C 414.919 1.45933 -3.30735 0
M  V30 4655 O 414.64 0.531167 -4.34868 0
M  V30 4656 C 416.141 2.25456 -3.81686 0
M  V30 4657 H 413.361 0.199923 -0.640525 0
M  V30 4658 H 415.905 -0.0316096 -2.04476 0
M  V30 4659 H 414.06 2.15709 -3.21789 0
M  V30 4660 H 414.474 1.05509 -5.13778 0
M  V30 4661 H 415.948 2.731 -4.79709 0
M  V30 4662 H 416.425 3.07485 -3.13607 0
M  V30 4663 H 417.031 1.60727 -3.9376 0
M  V30 4664 N 415.346 1.54954 0.287554 0
M  V30 4665 C 416.294 1.87606 1.37502 0
M  V30 4666 C 417.288 0.751001 1.51843 0
M  V30 4667 O 418.494 0.935169 1.53801 0
M  V30 4668 H 414.869 0.595231 0.459569 0
M  V30 4669 H 416.84 2.78477 1.07206 0
M  V30 4670 C 415.589 2.15183 2.73115 0
M  V30 4671 H 414.912 3.01234 2.62866 0
M  V30 4672 H 416.352 2.4196 3.48183 0
M  V30 4673 C 414.811 0.954686 3.2309 0
M  V30 4674 O 415.341 0.181949 4.01288 0
M  V30 4675 N 413.547 0.756368 2.80584 0
M  V30 4676 H 413.094 1.38643 2.17108 0
M  V30 4677 H 413.052 -0.0430391 3.14371 0
M  V30 4678 N 416.824 -0.551391 1.4764 0
M  V30 4679 C 418.073 -1.30467 1.53822 0
M  V30 4680 C 418.386 -1.94495 0.207661 0
M  V30 4681 O 419.592 -2.71099 0.147533 0
M  V30 4682 C 418.048 -2.36616 2.71184 0
M  V30 4683 C 417.656 -1.78754 4.10793 0
M  V30 4684 C 419.4 -3.13088 2.86663 0
M  V30 4685 C 417.307 -2.82717 5.19447 0
M  V30 4686 H 416.237 -0.490584 0.572576 0
M  V30 4687 H 418.888 -0.58494 1.73927 0
M  V30 4688 H 417.27 -3.11529 2.4447 0
M  V30 4689 H 418.444 -1.10173 4.47435 0
M  V30 4690 H 416.759 -1.14846 4.00249 0
M  V30 4691 H 419.356 -3.90736 3.65007 0
M  V30 4692 H 419.699 -3.67635 1.95321 0
M  V30 4693 H 420.232 -2.45288 3.13175 0
M  V30 4694 H 416.971 -2.33018 6.12685 0
M  V30 4695 H 416.491 -3.4969 4.87316 0
M  V30 4696 H 418.17 -3.46102 5.46646 0
M  V30 4697 N 418.302 -1.35869 -0.798587 0
M  V30 4698 C 419.249 -1.29446 -1.91082 0
M  V30 4699 C 420.219 -0.16487 -1.6528 0
M  V30 4700 O 421.404 -0.349888 -1.87564 0
M  V30 4701 C 418.544 -1.0804 -3.27752 0
M  V30 4702 C 417.657 -2.29993 -3.65687 0
M  V30 4703 C 416.792 -2.01673 -4.91428 0
M  V30 4704 C 415.831 -3.19636 -5.22015 0
M  V30 4705 N 414.968 -2.91039 -6.38937 0
M  V30 4706 H 419.808 -2.24553 -1.95907 0
M  V30 4707 H 417.345 -1.11615 -0.958148 0
M  V30 4708 H 419.303 -0.936586 -4.06551 0
M  V30 4709 H 417.933 -0.16592 -3.22373 0
M  V30 4710 H 416.985 -2.55211 -2.82085 0
M  V30 4711 H 418.297 -3.18052 -3.84245 0
M  V30 4712 H 417.451 -1.84168 -5.78072 0
M  V30 4713 H 416.19 -1.10911 -4.74921 0
M  V30 4714 H 415.195 -3.37709 -4.33858 0
M  V30 4715 H 416.42 -4.11211 -5.40447 0
M  V30 4716 H 414.366 -2.0288 -6.2384 0
M  V30 4717 H 414.283 -3.72635 -6.57784 0
M  V30 4718 H 415.551 -2.77093 -7.28587 0
M  V30 4719 N 419.78 1.02168 -1.19998 0
M  V30 4720 C 420.728 2.12717 -0.940967 0
M  V30 4721 C 421.722 1.69069 0.105841 0
M  V30 4722 O 422.928 1.79946 -0.0440583 0
M  V30 4723 H 419.303 0.695108 -0.28693 0
M  V30 4724 H 421.274 2.3175 -1.87975 0
M  V30 4725 C 420.023 3.44027 -0.504049 0
M  V30 4726 H 419.346 3.78036 -1.30112 0
M  V30 4727 H 420.786 4.22452 -0.361991 0
M  V30 4728 C 419.245 3.27678 0.782878 0
M  V30 4729 O 419.775 3.56949 1.84256 0
M  V30 4730 N 417.981 2.80943 0.742921 0
M  V30 4731 H 417.528 2.57322 -0.119687 0
M  V30 4732 H 417.486 2.70385 1.60435 0
M  V30 4733 N 421.258 1.00505 1.21394 0
M  V30 4734 C 422.506 0.686415 1.90086 0
M  V30 4735 C 422.827 -0.785264 1.7849 0
M  V30 4736 O 422.097 -1.56387 1.17983 0
M  V30 4737 H 420.677 0.2509 0.703604 0
M  V30 4738 H 423.339 1.27417 1.47482 0
M  V30 4739 H 422.435 0.959621 2.96981 0
M  V30 4740 N 422.737 -1.36956 0.779787 0
M  V30 4741 C 423.984 -1.99491 0.347766 0
M  V30 4742 C 424.312 -1.61898 -1.07793 0
M  V30 4743 O 423.567 -0.86071 -1.75756 0
M  V30 4744 C 423.866 -3.54585 0.447686 0
M  V30 4745 C 423.532 -4.1197 1.83279 0
M  V30 4746 C 422.194 -4.27356 2.2118 0
M  V30 4747 C 424.546 -4.43354 2.74019 0
M  V30 4748 C 421.874 -4.71432 3.4924 0
M  V30 4749 C 424.226 -4.88858 4.01497 0
M  V30 4750 C 422.89 -5.0245 4.39432 0
M  V30 4751 H 422.16 -0.729991 0.127257 0
M  V30 4752 H 424.807 -1.63599 0.995376 0
M  V30 4753 H 423.112 -3.90773 -0.283447 0
M  V30 4754 H 424.809 -4.00888 0.0945948 0
M  V30 4755 H 421.399 -4.00428 1.52825 0
M  V30 4756 H 425.583 -4.31045 2.45995 0
M  V30 4757 H 420.839 -4.80141 3.78516 0
M  V30 4758 H 425.013 -5.12108 4.71931 0
M  V30 4759 H 422.64 -5.36362 5.38721 0
M  V30 4760 N 424.215 -0.530993 -1.48385 0
M  V30 4761 C 425.178 0.220497 -2.28137 0
M  V30 4762 C 426.178 0.866851 -1.35434 0
M  V30 4763 O 427.368 0.726746 -1.58316 0
M  V30 4764 C 424.5 1.31921 -3.1434 0
M  V30 4765 H 425.693 -0.479714 -2.96038 0
M  V30 4766 H 423.246 -0.286968 -1.53643 0
M  V30 4767 H 423.981 2.05264 -2.51072 0
M  V30 4768 H 423.766 0.86085 -3.82533 0
M  V30 4769 H 425.256 1.84776 -3.74497 0
M  V30 4770 N 425.693 1.55336 -0.266172 0
M  V30 4771 C 426.933 2.01303 0.354459 0
M  V30 4772 C 427.297 1.15046 1.53715 0
M  V30 4773 O 428.498 1.50554 2.22681 0
M  V30 4774 C 426.769 3.49748 0.735579 0
M  V30 4775 S 428.328 4.1771 1.34401 0
M  V30 4776 H 425.146 0.702333 0.110674 0
M  V30 4777 H 427.748 1.91653 -0.385916 0
M  V30 4778 H 426.452 4.10181 -0.134196 0
M  V30 4779 H 425.983 3.63364 1.50764 0
M  V30 4780 H 427.998 4.20594 2.63278 0
M  V30 4781 N 427.171 -0.0066808 1.57599 0
M  V30 4782 C 428.101 -0.999296 2.11036 0
M  V30 4783 C 429.082 -1.36278 1.01795 0
M  V30 4784 O 430.267 -1.4477 1.29442 0
M  V30 4785 C 427.397 -2.29328 2.60818 0
M  V30 4786 C 426.351 -2.07159 3.74525 0
M  V30 4787 C 425.677 -3.42512 4.10596 0
M  V30 4788 C 426.977 -1.43959 5.02069 0
M  V30 4789 H 428.671 -0.554382 2.94223 0
M  V30 4790 H 426.217 -0.265221 1.41536 0
M  V30 4791 H 428.17 -2.99117 2.96828 0
M  V30 4792 H 426.894 -2.7592 1.74745 0
M  V30 4793 H 425.553 -1.39797 3.38899 0
M  V30 4794 H 425.201 -3.86795 3.21556 0
M  V30 4795 H 424.901 -3.28498 4.87199 0
M  V30 4796 H 426.425 -4.13628 4.4916 0
M  V30 4797 H 427.839 -2.03696 5.35893 0
M  V30 4798 H 426.236 -1.40452 5.83432 0
M  V30 4799 H 427.306 -0.407992 4.83181 0
M  V30 4800 N 428.649 -1.55105 -0.279332 0
M  V30 4801 C 429.896 -1.75412 -1.01177 0
M  V30 4802 C 430.224 -0.551728 -1.86511 0
M  V30 4803 O 429.479 0.465919 -1.90073 0
M  V30 4804 C 429.778 -3.0086 -1.92919 0
M  V30 4805 C 429.444 -4.33689 -1.23387 0
M  V30 4806 C 428.106 -4.69792 -1.04159 0
M  V30 4807 C 430.458 -5.15941 -0.738562 0
M  V30 4808 C 427.786 -5.85707 -0.341166 0
M  V30 4809 C 430.138 -6.32579 -0.0517636 0
M  V30 4810 C 428.802 -6.67326 0.152292 0
M  V30 4811 H 428.072 -0.641879 -0.370233 0
M  V30 4812 H 430.719 -1.89373 -0.284627 0
M  V30 4813 H 429.024 -2.81773 -2.72234 0
M  V30 4814 H 430.721 -3.13768 -2.49701 0
M  V30 4815 H 427.311 -4.05309 -1.39364 0
M  V30 4816 H 431.495 -4.8853 -0.874764 0
M  V30 4817 H 426.751 -6.11157 -0.172287 0
M  V30 4818 H 430.925 -6.9557 0.339828 0
M  V30 4819 H 428.552 -7.56998 0.697014 0
M  V30 4820 N 430.127 0.543554 -1.4793 0
M  V30 4821 C 431.057 1.65888 -1.64327 0
M  V30 4822 C 432.038 1.62818 -0.492383 0
M  V30 4823 O 433.223 1.80226 -0.723338 0
M  V30 4824 C 430.353 3.04506 -1.67013 0
M  V30 4825 C 429.307 3.2243 -2.81466 0
M  V30 4826 C 428.633 4.61972 -2.69233 0
M  V30 4827 C 429.933 3.06496 -4.22915 0
M  V30 4828 H 431.627 1.52421 -2.57698 0
M  V30 4829 H 429.173 0.731849 -1.24016 0
M  V30 4830 H 431.126 3.82391 -1.77074 0
M  V30 4831 H 429.85 3.18964 -0.70212 0
M  V30 4832 H 428.509 2.46957 -2.70938 0
M  V30 4833 H 428.157 4.73247 -1.7043 0
M  V30 4834 H 427.857 4.74911 -3.46025 0
M  V30 4835 H 429.381 5.41974 -2.81242 0
M  V30 4836 H 430.795 3.74186 -4.34348 0
M  V30 4837 H 429.192 3.30938 -5.006 0
M  V30 4838 H 430.262 2.03077 -4.40327 0
M  V30 4839 N 431.605 1.3629 0.791371 0
M  V30 4840 C 432.853 1.30154 1.5461 0
M  V30 4841 C 433.174 -0.119409 1.94634 0
M  V30 4842 O 432.444 -1.05924 1.64794 0
M  V30 4843 H 431.024 0.478784 0.573389 0
M  V30 4844 H 433.686 1.70565 0.94306 0
M  V30 4845 H 432.782 1.92762 2.45457 0
M  V30 4846 N 433.083 -1.0153 1.20538 0
M  V30 4847 C 434.499 -1.27461 0.96051 0
M  V30 4848 C 434.699 -1.98273 -0.359193 0
M  V30 4849 O 433.755 -2.27886 -1.0874 0
M  V30 4850 C 435.068 -2.10837 2.14402 0
M  V30 4851 C 436.616 -2.24099 2.18515 0
M  V30 4852 C 437.091 -3.10852 3.36355 0
M  V30 4853 N 438.582 -3.18441 3.36377 0
M  V30 4854 C 439.317 -3.85795 4.24205 0
M  V30 4855 N 438.813 -4.55264 5.22213 0
M  V30 4856 N 440.606 -3.82331 4.12043 0
M  V30 4857 H 432.757 -0.539907 2.05423 0
M  V30 4858 H 435.02 -0.30092 0.898972 0
M  V30 4859 H 434.726 -1.66144 3.09983 0
M  V30 4860 H 434.6 -3.11576 2.12604 0
M  V30 4861 H 436.987 -2.68016 1.23497 0
M  V30 4862 H 437.068 -1.22865 2.24361 0
M  V30 4863 H 436.712 -2.6764 4.31661 0
M  V30 4864 H 436.642 -4.12177 3.27746 0
M  V30 4865 H 439.133 -2.68978 2.65442 0
M  V30 4866 H 439.446 -5.04331 5.85551 0
M  V30 4867 H 437.791 -4.54085 5.26148 0
M  V30 4868 H 440.982 -3.27207 3.34743 0
M  V30 4869 H 441.155 -4.34547 4.807 0
M  V30 4870 N 434.561 -1.01147 -1.20859 0
M  V30 4871 C 435.509 -0.57059 -2.25493 0
M  V30 4872 C 436.503 0.388109 -1.64894 0
M  V30 4873 O 437.709 0.258592 -1.78133 0
M  V30 4874 H 434.084 -0.166191 -0.733406 0
M  V30 4875 H 436.055 -1.46411 -2.60012 0
M  V30 4876 C 434.804 0.0805241 -3.47607 0
M  V30 4877 H 434.127 -0.648156 -3.94511 0
M  V30 4878 H 435.567 0.352197 -4.22535 0
M  V30 4879 C 434.026 1.32175 -3.09889 0
M  V30 4880 O 434.556 2.41553 -3.20959 0
M  V30 4881 N 432.762 1.20392 -2.64488 0
M  V30 4882 H 432.309 0.313905 -2.5568 0
M  V30 4883 H 432.267 2.03541 -2.39621 0
M  V30 4884 N 436.039 1.36541 -0.78704 0
M  V30 4885 C 437.267 2.03561 -0.370199 0
M  V30 4886 C 437.682 1.59347 1.01263 0
M  V30 4887 O 437.039 0.781781 1.64907 0
M  V30 4888 C 437.09 3.59033 -0.421614 0
M  V30 4889 O 436.811 4.01634 -1.7499 0
M  V30 4890 C 438.312 4.433 0.00489763 0
M  V30 4891 H 435.532 0.653346 -0.152904 0
M  V30 4892 H 438.076 1.74566 -1.06522 0
M  V30 4893 H 436.231 3.86746 0.224971 0
M  V30 4894 H 436.645 4.96217 -1.69909 0
M  V30 4895 H 438.119 5.51939 -0.0822184 0
M  V30 4896 H 438.596 4.26285 1.05723 0
M  V30 4897 H 439.202 4.20843 -0.614085 0
M  V30 4898 N 437.518 0.538854 1.48102 0
M  V30 4899 C 438.764 0.00801365 2.02798 0
M  V30 4900 C 439.097 -1.3309 1.41424 0
M  V30 4901 O 438.372 -1.86169 0.563158 0
M  V30 4902 C 438.655 -0.104589 3.59948 0
M  V30 4903 C 438.508 1.26012 4.31788 0
M  V30 4904 C 439.827 -0.827055 4.32259 0
M  V30 4905 H 436.946 0.00438624 0.736987 0
M  V30 4906 H 439.588 0.6976 1.7673 0
M  V30 4907 H 437.738 -0.691893 3.82289 0
M  V30 4908 H 439.41 1.88922 4.2084 0
M  V30 4909 H 437.653 1.83968 3.92859 0
M  V30 4910 H 438.324 1.13424 5.40221 0
M  V30 4911 H 440.8 -0.328578 4.14801 0
M  V30 4912 H 439.676 -0.87476 5.41885 0
M  V30 4913 H 439.937 -1.87927 4.0017 0
M  V30 4914 N 438.996 -1.55193 0.274407 0
M  V30 4915 C 440.242 -1.99877 -0.343086 0
M  V30 4916 C 440.575 -1.16256 -1.55558 0
M  V30 4917 O 439.85 -0.232462 -1.93106 0
M  V30 4918 C 440.133 -3.52706 -0.725965 0
M  V30 4919 C 439.986 -4.47081 0.493818 0
M  V30 4920 C 441.305 -4.11422 -1.56268 0
M  V30 4921 H 438.424 -0.726625 -0.123229 0
M  V30 4922 H 441.066 -1.86136 0.38121 0
M  V30 4923 H 439.216 -3.64546 -1.34307 0
M  V30 4924 H 440.888 -4.47186 1.13237 0
M  V30 4925 H 439.131 -4.1877 1.13201 0
M  V30 4926 H 439.802 -5.51699 0.18217 0
M  V30 4927 H 442.278 -4.02855 -1.04151 0
M  V30 4928 H 441.154 -5.18568 -1.79939 0
M  V30 4929 H 441.415 -3.61607 -2.54348 0
M  V30 4930 N 440.474 -0.00167713 -1.576 0
M  V30 4931 C 441.384 1.00548 -2.1196 0
M  V30 4932 C 442.4 1.3758 -1.06526 0
M  V30 4933 O 443.576 1.46278 -1.38436 0
M  V30 4934 C 440.641 2.27809 -2.6135 0
M  V30 4935 C 439.702 1.97074 -3.81393 0
M  V30 4936 C 438.935 3.18267 -4.28417 0
M  V30 4937 O 439.158 4.30009 -3.74765 0
M  V30 4938 O 438.092 3.02167 -5.20556 0
M  V30 4939 H 441.918 0.573373 -2.98238 0
M  V30 4940 H 439.503 0.217255 -1.47812 0
M  V30 4941 H 441.385 3.02568 -2.93309 0
M  V30 4942 H 440.06 2.70254 -1.78169 0
M  V30 4943 H 438.967 1.19785 -3.54404 0
M  V30 4944 H 440.3 1.59464 -4.65652 0
M  V30 4945 N 441.952 1.55251 0.271103 0
M  V30 4946 C 442.9 1.89054 1.35504 0
M  V30 4947 C 443.894 0.767064 1.51038 0
M  V30 4948 O 445.1 0.951429 1.528 0
M  V30 4949 H 441.475 0.600072 0.45323 0
M  V30 4950 H 443.446 2.79598 1.04247 0
M  V30 4951 C 442.195 2.18068 2.70817 0
M  V30 4952 H 441.518 3.04005 2.59656 0
M  V30 4953 H 442.958 2.4564 3.45597 0
M  V30 4954 C 441.417 0.988901 3.2206 0
M  V30 4955 O 441.947 0.224501 4.01072 0
M  V30 4956 N 440.153 0.786085 2.79766 0
M  V30 4957 H 439.7 1.40937 2.15626 0
M  V30 4958 H 439.658 -0.00969349 3.14399 0
M  V30 4959 N 443.43 -0.535701 1.48216 0
M  V30 4960 C 444.67 -1.30238 1.57536 0
M  V30 4961 C 445.034 -1.90479 0.241229 0
M  V30 4962 O 446.235 -2.67983 0.20938 0
M  V30 4963 C 444.506 -2.3669 2.67792 0
M  V30 4964 S 446.065 -3.23159 2.9684 0
M  V30 4965 H 442.883 -0.443093 0.556048 0
M  V30 4966 H 445.485 -0.610937 1.85709 0
M  V30 4967 H 444.189 -1.90905 3.63296 0
M  V30 4968 H 443.72 -3.10548 2.41502 0
M  V30 4969 H 445.735 -4.36647 2.35699 0
M  V30 4970 N 444.908 -1.36708 -0.784132 0
M  V30 4971 C 446.156 -1.30972 -1.53918 0
M  V30 4972 C 446.477 0.109086 -1.94695 0
M  V30 4973 O 445.747 1.05048 -1.65353 0
M  V30 4974 H 444.327 -0.481819 -0.570841 0
M  V30 4975 H 446.989 -1.71063 -0.934002 0
M  V30 4976 H 446.085 -1.94061 -2.44431 0
M  V30 4977 N 446.386 1.0089 -1.21074 0
M  V30 4978 C 447.316 2.1145 -0.990523 0
M  V30 4979 C 448.297 1.69897 0.0831699 0
M  V30 4980 O 449.482 1.94052 -0.0758853 0
M  V30 4981 C 446.612 3.42914 -0.550177 0
M  V30 4982 C 445.566 3.98244 -1.56799 0
M  V30 4983 C 444.892 5.25568 -0.984013 0
M  V30 4984 C 446.192 4.30752 -2.95381 0
M  V30 4985 H 447.886 2.3013 -1.91521 0
M  V30 4986 H 445.432 1.10592 -0.92225 0
M  V30 4987 H 447.385 4.19653 -0.383305 0
M  V30 4988 H 446.109 3.24014 0.41015 0
M  V30 4989 H 444.768 3.23621 -1.72236 0
M  V30 4990 H 444.416 5.02998 -0.0155216 0
M  V30 4991 H 444.116 5.63551 -1.66384 0
M  V30 4992 H 445.64 6.04955 -0.828378 0
M  V30 4993 H 447.054 4.98349 -2.8341 0
M  V30 4994 H 445.451 4.79869 -3.60341 0
M  V30 4995 H 446.521 3.39192 -3.46521 0
M  V30 4996 N 447.864 1.01787 1.20321 0
M  V30 4997 C 449.112 0.706538 1.89347 0
M  V30 4998 C 449.433 -0.766289 1.79313 0
M  V30 4999 O 448.703 -1.55126 1.19635 0
M  V30 5000 H 447.283 0.258348 0.700903 0
M  V30 5001 H 449.945 1.28974 1.46122 0
M  V30 5002 H 449.041 0.991066 2.95946 0
M  V30 5003 N 449.342 -1.36122 0.79427 0
M  V30 5004 C 450.275 -2.27759 0.141845 0
M  V30 5005 C 451.253 -1.47471 -0.684921 0
M  V30 5006 O 452.437 -1.76759 -0.654857 0
M  V30 5007 C 449.564 -3.29008 -0.804446 0
M  V30 5008 C 448.61 -4.26459 -0.0588617 0
M  V30 5009 S 449.443 -5.20253 1.26873 0
M  V30 5010 C 450.599 -6.25048 0.326562 0
M  V30 5011 H 450.832 -2.82746 0.918818 0
M  V30 5012 H 448.365 -1.42736 0.588722 0
M  V30 5013 H 450.323 -3.87842 -1.34495 0
M  V30 5014 H 448.984 -2.72924 -1.5547 0
M  V30 5015 H 448.177 -4.97973 -0.777087 0
M  V30 5016 H 447.779 -3.71731 0.411309 0
M  V30 5017 H 450.071 -6.75705 -0.492795 0
M  V30 5018 H 451.014 -7.00852 1.01053 0
M  V30 5019 H 451.422 -5.64454 -0.0722627 0
M  V30 5020 N 450.82 -0.546701 -1.47814 0
M  V30 5021 C 451.783 0.196287 -2.28358 0
M  V30 5022 C 452.783 0.852437 -1.36346 0
M  V30 5023 O 453.973 0.709913 -1.59078 0
M  V30 5024 C 451.105 1.28579 -3.15722 0
M  V30 5025 H 452.298 -0.511086 -2.95513 0
M  V30 5026 H 449.851 -0.303248 -1.5333 0
M  V30 5027 H 450.586 2.0259 -2.53235 0
M  V30 5028 H 450.371 0.820229 -3.83425 0
M  V30 5029 H 451.861 1.80793 -3.76435 0
M  V30 5030 N 452.299 1.55045 -0.282633 0
M  V30 5031 C 453.246 2.22822 0.601566 0
M  V30 5032 C 454.216 1.20431 1.14392 0
M  V30 5033 O 455.401 1.48996 1.19184 0
M  V30 5034 C 452.541 2.95873 1.77632 0
M  V30 5035 C 451.654 4.12999 1.26711 0
M  V30 5036 C 450.789 4.73676 2.40426 0
M  V30 5037 C 449.828 5.82981 1.86545 0
M  V30 5038 N 448.965 6.3769 2.93762 0
M  V30 5039 H 453.805 2.97995 0.0169528 0
M  V30 5040 H 451.342 1.471 -0.00339964 0
M  V30 5041 H 453.3 3.36447 2.46697 0
M  V30 5042 H 451.93 2.2311 2.33285 0
M  V30 5043 H 450.982 3.77494 0.469314 0
M  V30 5044 H 452.294 4.91803 0.832518 0
M  V30 5045 H 451.448 5.17008 3.17471 0
M  V30 5046 H 450.187 3.94164 2.87203 0
M  V30 5047 H 449.192 5.39092 1.07983 0
M  V30 5048 H 450.417 6.64366 1.40694 0
M  V30 5049 H 448.363 5.61069 3.39908 0
M  V30 5050 H 448.28 7.11788 2.54744 0
M  V30 5051 H 449.548 6.8568 3.7076 0
M  V30 5052 N 453.777 0.010035 1.57597 0
M  V30 5053 C 454.707 -0.976857 2.12084 0
M  V30 5054 C 455.688 -1.35191 1.03235 0
M  V30 5055 O 456.873 -1.43389 1.3097 0
M  V30 5056 C 454.003 -2.26548 2.63236 0
M  V30 5057 C 452.957 -2.03175 3.76701 0
M  V30 5058 C 452.283 -3.38138 4.14206 0
M  V30 5059 C 453.583 -1.38625 5.03568 0
M  V30 5060 H 455.277 -0.523145 2.94794 0
M  V30 5061 H 452.823 -0.250195 1.4181 0
M  V30 5062 H 454.776 -2.95952 2.99984 0
M  V30 5063 H 453.5 -2.74051 1.77661 0
M  V30 5064 H 452.159 -1.36195 3.40362 0
M  V30 5065 H 451.807 -3.83363 3.25641 0
M  V30 5066 H 451.507 -3.23312 4.90656 0
M  V30 5067 H 453.031 -4.08841 4.53521 0
M  V30 5068 H 454.445 -1.98 5.38023 0
M  V30 5069 H 452.842 -1.34256 5.84889 0
M  V30 5070 H 453.912 -0.356722 4.83586 0
M  V30 5071 N 455.255 -1.55392 -0.262866 0
M  V30 5072 C 456.495 -1.78231 -1.00064 0
M  V30 5073 C 456.859 -0.576966 -1.83126 0
M  V30 5074 O 458.06 -0.683809 -2.59957 0
M  V30 5075 C 456.331 -3.05701 -1.85153 0
M  V30 5076 S 457.89 -3.49699 -2.65058 0
M  V30 5077 H 454.708 -0.626138 -0.336856 0
M  V30 5078 H 457.31 -1.93626 -0.27005 0
M  V30 5079 H 456.014 -3.91511 -1.23074 0
M  V30 5080 H 455.545 -2.93 -2.62515 0
M  V30 5081 H 457.56 -3.09772 -3.87629 0
M  V30 5082 N 456.733 0.527833 -1.48498 0
M  V30 5083 C 458.01 1.28905 -1.47115 0
M  V30 5084 C 458.39 2.10297 -0.184007 0
M  V30 5085 O 457.738 2.12728 0.834218 0
M  V30 5086 C 457.948 2.16866 -2.73441 0
M  V30 5087 C 459.296 2.76936 -3.21857 0
M  V30 5088 O 460.32 2.27152 -2.74373 0
M  V30 5089 O 459.179 3.67496 -4.04486 0
M  V30 5090 H 456.273 0.581918 -0.587623 0
M  V30 5091 H 458.819 0.544311 -1.60734 0
M  V30 5092 H 457.591 1.56521 -3.58632 0
M  V30 5093 H 457.214 2.98583 -2.62553 0
M  V30 5094 N 458.211 1.37122 0.776871 0
M  V30 5095 C 459.488 1.22586 1.52421 0
M  V30 5096 C 459.868 -0.182726 2.10308 0
M  V30 5097 O 459.216 -1.18979 1.9508 0
M  V30 5098 C 459.426 2.31782 2.60918 0
M  V30 5099 C 460.774 2.69071 3.2846 0
M  V30 5100 O 461.798 2.3092 2.71209 0
M  V30 5101 O 460.657 3.3478 4.31954 0
M  V30 5102 H 457.751 0.478045 0.674835 0
M  V30 5103 H 460.297 1.48888 0.814275 0
M  V30 5104 H 459.069 3.26131 2.16227 0
M  V30 5105 H 458.692 2.06916 3.39517 0
M  V30 5106 N 459.689 -1.00246 1.21608 0
M  V30 5107 C 460.929 -1.75589 1.04631 0
M  V30 5108 C 461.293 -1.87513 -0.412648 0
M  V30 5109 O 462.494 -2.59444 -0.703003 0
M  V30 5110 C 460.765 -3.12893 1.72722 0
M  V30 5111 S 462.324 -4.04095 1.71034 0
M  V30 5112 H 459.142 -0.604133 0.374892 0
M  V30 5113 H 461.744 -1.19927 1.54395 0
M  V30 5114 H 460.448 -3.0185 2.78055 0
M  V30 5115 H 459.979 -3.73628 1.23149 0
M  V30 5116 H 461.994 -4.9045 0.753231 0
M  V30 5117 N 461.167 -1.02423 -1.1978 0
M  V30 5118 C 462.444 -0.632802 -1.85081 0
M  V30 5119 C 462.824 0.888745 -1.9148 0
M  V30 5120 O 462.172 1.78357 -1.42832 0
M  V30 5121 C 462.382 -1.28947 -3.24305 0
M  V30 5122 C 463.73 -1.40976 -4.00513 0
M  V30 5123 O 464.754 -1.24628 -3.33686 0
M  V30 5124 O 463.613 -1.67467 -5.20209 0
M  V30 5125 H 460.707 -0.219348 -0.79738 0
M  V30 5126 H 463.253 -1.12209 -1.27307 0
M  V30 5127 H 462.025 -2.3288 -3.14456 0
M  V30 5128 H 461.648 -0.787748 -3.89718 0
M  V30 5129 N 462.645 1.35699 -0.801477 0
M  V30 5130 C 463.893 1.9852 -0.37871 0
M  V30 5131 C 464.214 1.63907 1.05638 0
M  V30 5132 O 463.484 0.919013 1.73006 0
M  V30 5133 H 462.064 0.734322 -0.137042 0
M  V30 5134 H 464.726 1.65697 -1.02619 0
M  V30 5135 H 463.822 3.08382 -0.480284 0
M  V30 5136 N 464.123 0.554532 1.47522 0
M  V30 5137 C 465.086 -0.184174 2.28459 0
M  V30 5138 C 466.086 -0.845195 1.36796 0
M  V30 5139 O 467.276 -0.701467 1.59452 0
M  V30 5140 C 464.408 -1.26903 3.16399 0
M  V30 5141 H 465.601 0.526751 2.95238 0
M  V30 5142 H 463.154 0.311375 1.53167 0
M  V30 5143 H 463.889 -2.01244 2.54306 0
M  V30 5144 H 463.674 -0.799883 3.83854 0
M  V30 5145 H 465.164 -1.78794 3.77389 0
M  V30 5146 N 465.601 -1.54893 0.290851 0
M  V30 5147 C 466.847 -2.00949 -0.314784 0
M  V30 5148 C 467.202 -1.1757 -1.52299 0
M  V30 5149 O 466.495 -0.241558 -1.90071 0
M  V30 5150 C 466.689 -3.49815 -0.732397 0
M  V30 5151 C 466.518 -4.47603 0.433799 0
M  V30 5152 C 465.288 -4.96806 0.922599 0
M  V30 5153 C 467.486 -4.98233 1.27546 0
M  V30 5154 N 465.468 -5.78426 2.05662 0
M  V30 5155 C 466.839 -5.77455 2.25712 0
M  V30 5156 C 468.894 -4.80439 1.307 0
M  V30 5157 C 467.597 -6.40778 3.26796 0
M  V30 5158 C 469.623 -5.44574 2.30637 0
M  V30 5159 C 468.985 -6.23619 3.27533 0
M  V30 5160 H 465.084 -0.777905 -0.0799257 0
M  V30 5161 H 467.668 -1.9015 0.418458 0
M  V30 5162 H 465.839 -3.60925 -1.43483 0
M  V30 5163 H 467.571 -3.82681 -1.31671 0
M  V30 5164 H 464.326 -4.70961 0.49926 0
M  V30 5165 H 464.75 -6.23923 2.62772 0
M  V30 5166 H 469.392 -4.18918 0.571622 0
M  V30 5167 H 467.11 -7.01439 4.01258 0
M  V30 5168 H 470.696 -5.32739 2.33838 0
M  V30 5169 H 469.576 -6.72367 4.03599 0
M  V30 5170 N 467.08 -0.0183926 -1.57589 0
M  V30 5171 C 468.027 0.967022 -2.09565 0
M  V30 5172 C 468.997 1.32983 -0.995225 0
M  V30 5173 O 470.182 1.42501 -1.26878 0
M  V30 5174 C 467.322 2.24772 -2.61861 0
M  V30 5175 C 466.435 1.94232 -3.85873 0
M  V30 5176 C 465.57 3.16518 -4.26603 0
M  V30 5177 C 464.609 2.81748 -5.43401 0
M  V30 5178 N 463.746 3.96626 -5.79338 0
M  V30 5179 H 468.586 0.516874 -2.93483 0
M  V30 5180 H 466.123 0.243544 -1.4507 0
M  V30 5181 H 468.081 2.99667 -2.90268 0
M  V30 5182 H 466.711 2.67423 -1.8079 0
M  V30 5183 H 465.763 1.09625 -3.64262 0
M  V30 5184 H 467.075 1.64616 -4.70853 0
M  V30 5185 H 466.229 3.99743 -4.56389 0
M  V30 5186 H 464.968 3.49286 -3.40368 0
M  V30 5187 H 463.973 1.96933 -5.1332 0
M  V30 5188 H 465.198 2.50207 -6.31327 0
M  V30 5189 H 463.144 4.29257 -4.96059 0
M  V30 5190 H 463.061 3.70598 -6.58933 0
M  V30 5191 H 464.329 4.80586 -6.13724 0
M  V30 5192 N 468.558 1.5553 0.254621 0
M  V30 5193 C 469.786 1.81046 1.00149 0
M  V30 5194 C 470.201 0.593047 1.79244 0
M  V30 5195 O 469.558 -0.438196 1.77161 0
M  V30 5196 C 469.609 3.04684 1.94551 0
M  V30 5197 O 469.33 4.21725 1.18658 0
M  V30 5198 C 470.831 3.42943 2.80901 0
M  V30 5199 H 468.051 0.602653 0.295044 0
M  V30 5200 H 470.595 2.02576 0.279842 0
M  V30 5201 H 468.75 2.85226 2.62154 0
M  V30 5202 H 469.164 4.91746 1.82445 0
M  V30 5203 H 470.638 4.32576 3.42902 0
M  V30 5204 H 471.115 2.63176 3.51617 0
M  V30 5205 H 471.721 3.64724 2.18762 0
M  V30 5206 N 470.036 -0.519951 1.48776 0
M  V30 5207 C 471.283 -1.27522 1.57303 0
M  V30 5208 C 471.611 -1.92869 0.251328 0
M  V30 5209 O 470.866 -1.80372 -0.759243 0
M  V30 5210 C 471.165 -2.37864 2.6675 0
M  V30 5211 C 470.831 -1.90103 4.08867 0
M  V30 5212 C 469.493 -1.76795 4.47546 0
M  V30 5213 C 471.845 -1.54133 4.97888 0
M  V30 5214 C 469.173 -1.25868 5.73039 0
M  V30 5215 C 471.525 -1.04665 6.23881 0
M  V30 5216 C 470.189 -0.899823 6.61407 0
M  V30 5217 H 469.459 -0.466636 0.575614 0
M  V30 5218 H 472.106 -0.579109 1.82534 0
M  V30 5219 H 470.411 -3.13186 2.35418 0
M  V30 5220 H 472.108 -2.95969 2.70561 0
M  V30 5221 H 468.698 -2.01414 3.78326 0
M  V30 5222 H 472.882 -1.6327 4.68675 0
M  V30 5223 H 468.138 -1.13196 6.0083 0
M  V30 5224 H 472.312 -0.759074 6.92251 0
M  V30 5225 H 469.939 -0.503011 7.58534 0
M  V30 5226 N 471.514 -1.37532 -0.769588 0
M  V30 5227 C 472.477 -1.33292 -1.86456 0
M  V30 5228 C 473.477 -0.236537 -1.59051 0
M  V30 5229 O 474.667 -0.492511 -1.67093 0
M  V30 5230 C 471.799 -1.07118 -3.23633 0
M  V30 5231 H 472.992 -2.30692 -1.91628 0
M  V30 5232 H 470.545 -1.22593 -0.969572 0
M  V30 5233 H 471.28 -0.102578 -3.24138 0
M  V30 5234 H 471.065 -1.86479 -3.44917 0
M  V30 5235 H 472.555 -1.06806 -4.03711 0
M  V30 5236 N 472.992 0.995999 -1.22138 0
M  V30 5237 C 473.922 2.10387 -1.01289 0
M  V30 5238 C 474.903 1.69975 0.0651454 0
M  V30 5239 O 476.088 1.9396 -0.0964628 0
M  V30 5240 C 473.218 3.42312 -0.586517 0
M  V30 5241 C 472.172 3.96558 -1.61014 0
M  V30 5242 C 471.498 5.24494 -1.0397 0
M  V30 5243 C 472.798 4.27595 -2.99933 0
M  V30 5244 H 474.492 2.28086 -1.93951 0
M  V30 5245 H 472.038 1.09607 -0.933928 0
M  V30 5246 H 473.991 4.19223 -0.427793 0
M  V30 5247 H 472.715 3.24431 0.375761 0
M  V30 5248 H 471.374 3.21776 -1.75658 0
M  V30 5249 H 471.022 5.02953 -0.0688703 0
M  V30 5250 H 470.722 5.61755 -1.72352 0
M  V30 5251 H 472.246 6.04042 -0.892494 0
M  V30 5252 H 473.66 4.95315 -2.8868 0
M  V30 5253 H 472.057 4.76021 -3.6541 0
M  V30 5254 H 473.127 3.35498 -3.50099 0
M  V30 5255 N 474.47 1.03057 1.19235 0
M  V30 5256 C 475.717 0.728019 1.88961 0
M  V30 5257 C 476.045 -0.743515 1.79728 0
M  V30 5258 O 475.3 -1.55729 1.1852 0
M  V30 5259 C 475.599 1.1268 3.39172 0
M  V30 5260 C 475.265 2.5969 3.68608 0
M  V30 5261 C 473.927 2.99854 3.76352 0
M  V30 5262 C 476.279 3.54793 3.81801 0
M  V30 5263 C 473.607 4.34031 3.94758 0
M  V30 5264 C 475.959 4.88675 4.0172 0
M  V30 5265 C 474.623 5.28526 4.07697 0
M  V30 5266 H 473.893 0.266401 0.691456 0
M  V30 5267 H 476.54 1.29373 1.41191 0
M  V30 5268 H 474.845 0.479722 3.88852 0
M  V30 5269 H 476.542 0.870203 3.91444 0
M  V30 5270 H 473.132 2.27575 3.63191 0
M  V30 5271 H 477.316 3.24914 3.7516 0
M  V30 5272 H 472.572 4.6444 3.97625 0
M  V30 5273 H 476.746 5.6228 4.1087 0
M  V30 5274 H 474.373 6.32506 4.21712 0
M  V30 5275 N 475.948 -1.35272 0.808662 0
M  V30 5276 C 477.173 -2.03477 0.401475 0
M  V30 5277 C 477.598 -1.60537 -0.980279 0
M  V30 5278 O 476.956 -0.78304 -1.63518 0
M  V30 5279 C 477.004 -3.57181 0.495354 0
M  V30 5280 O 476.108 -4.09474 -0.490397 0
M  V30 5281 H 475.449 -0.642561 0.167366 0
M  V30 5282 H 477.979 -1.72824 1.09512 0
M  V30 5283 H 477.989 -4.06356 0.365912 0
M  V30 5284 H 476.664 -3.87784 1.5032 0
M  V30 5285 H 475.241 -3.71516 -0.321023 0
M  V30 5286 N 477.426 -0.562348 -1.47226 0
M  V30 5287 C 478.673 -0.0402165 -2.0246 0
M  V30 5288 C 479.001 1.31169 -1.43614 0
M  V30 5289 O 478.256 1.86805 -0.5833 0
M  V30 5290 C 478.555 0.0969817 -3.57268 0
M  V30 5291 C 478.221 -1.1847 -4.35058 0
M  V30 5292 C 476.883 -1.53588 -4.56031 0
M  V30 5293 C 479.235 -2.03378 -4.79882 0
M  V30 5294 C 476.563 -2.73452 -5.19077 0
M  V30 5295 C 478.915 -3.2245 -5.44251 0
M  V30 5296 C 477.579 -3.57876 -5.63455 0
M  V30 5297 H 476.849 -0.0147163 -0.740854 0
M  V30 5298 H 479.496 -0.734895 -1.76838 0
M  V30 5299 H 477.801 0.87466 -3.81912 0
M  V30 5300 H 479.498 0.516408 -3.97661 0
M  V30 5301 H 476.088 -0.90126 -4.19017 0
M  V30 5302 H 480.272 -1.77553 -4.63453 0
M  V30 5303 H 475.528 -3.01062 -5.32139 0
M  V30 5304 H 479.702 -3.88526 -5.77945 0
M  V30 5305 H 477.329 -4.50849 -6.12078 0
M  V30 5306 N 478.904 1.54736 -0.299062 0
M  V30 5307 C 480.151 2.00101 0.310784 0
M  V30 5308 C 480.479 1.18746 1.54045 0
M  V30 5309 O 479.734 0.251198 1.94081 0
M  V30 5310 C 480.033 3.50199 0.713835 0
M  V30 5311 C 479.699 4.48997 -0.413873 0
M  V30 5312 C 478.361 4.7573 -0.723462 0
M  V30 5313 C 480.713 5.07839 -1.17257 0
M  V30 5314 C 478.041 5.5857 -1.79491 0
M  V30 5315 C 480.393 5.91844 -2.23392 0
M  V30 5316 C 479.057 6.16889 -2.54959 0
M  V30 5317 H 478.327 0.732221 0.113724 0
M  V30 5318 H 480.974 1.86888 -0.417756 0
M  V30 5319 H 479.279 3.61012 1.52243 0
M  V30 5320 H 480.976 3.82723 1.19684 0
M  V30 5321 H 477.566 4.28292 -0.162476 0
M  V30 5322 H 481.75 4.87188 -0.946651 0
M  V30 5323 H 477.006 5.76213 -2.04423 0
M  V30 5324 H 481.18 6.36465 -2.8264 0
M  V30 5325 H 478.807 6.80869 -3.38114 0
M  V30 5326 N 480.382 0.0267497 1.57577 0
M  V30 5327 C 481.33 -0.973923 2.11229 0
M  V30 5328 C 482.324 -1.33849 1.03831 0
M  V30 5329 O 483.53 -1.321 1.22269 0
M  V30 5330 H 479.905 -0.331844 0.674821 0
M  V30 5331 H 481.876 -0.496092 2.94247 0
M  V30 5332 C 480.625 -2.24798 2.65257 0
M  V30 5333 H 479.948 -1.9762 3.47543 0
M  V30 5334 H 481.388 -2.93031 3.06445 0
M  V30 5335 C 479.847 -2.97611 1.57891 0
M  V30 5336 O 480.377 -3.89629 0.97735 0
M  V30 5337 N 478.583 -2.59905 1.29992 0
M  V30 5338 H 478.13 -1.85154 1.79097 0
M  V30 5339 H 478.088 -3.08932 0.583798 0
M  V30 5340 N 481.861 -1.55662 -0.24637 0
M  V30 5341 C 483.11 -1.7672 -0.972254 0
M  V30 5342 C 483.423 -0.59078 -1.86465 0
M  V30 5343 O 484.629 -0.684391 -2.62732 0
M  V30 5344 C 483.085 -3.12869 -1.7788 0
M  V30 5345 C 482.693 -4.38161 -0.933768 0
M  V30 5346 C 484.437 -3.43265 -2.49738 0
M  V30 5347 C 482.344 -5.6534 -1.73623 0
M  V30 5348 H 481.274 -0.658795 -0.366749 0
M  V30 5349 H 483.925 -1.82092 -0.226902 0
M  V30 5350 H 482.307 -3.01606 -2.56612 0
M  V30 5351 H 483.481 -4.60413 -0.188736 0
M  V30 5352 H 481.796 -4.15102 -0.328488 0
M  V30 5353 H 484.393 -4.35501 -3.10231 0
M  V30 5354 H 484.736 -2.64614 -3.2138 0
M  V30 5355 H 485.269 -3.55746 -1.78016 0
M  V30 5356 H 482.008 -6.46814 -1.06354 0
M  V30 5357 H 481.528 -5.47188 -2.45653 0
M  V30 5358 H 483.207 -6.04616 -2.30323 0
M  V30 5359 N 483.339 0.512053 -1.4905 0
M  V30 5360 C 484.579 1.27715 -1.59588 0
M  V30 5361 C 484.943 1.90071 -0.271502 0
M  V30 5362 O 486.144 2.67616 -0.251987 0
M  V30 5363 C 484.415 2.32399 -2.71524 0
M  V30 5364 S 485.974 3.18396 -3.01943 0
M  V30 5365 H 482.792 0.43419 -0.563027 0
M  V30 5366 H 485.394 0.581315 -1.86657 0
M  V30 5367 H 484.098 1.85101 -3.66287 0
M  V30 5368 H 483.629 3.06667 -2.46412 0
M  V30 5369 H 485.644 4.32842 -2.42616 0
M  V30 5370 N 484.817 1.37938 0.762283 0
M  V30 5371 C 486.094 1.24196 1.51112 0
M  V30 5372 C 486.474 -0.160409 2.1049 0
M  V30 5373 O 485.822 -1.16904 1.96331 0
M  V30 5374 C 486.032 2.34537 2.58445 0
M  V30 5375 C 487.38 2.7254 3.25588 0
M  V30 5376 O 488.404 2.33783 2.68745 0
M  V30 5377 O 487.263 3.39343 4.28379 0
M  V30 5378 H 484.357 0.485175 0.669727 0
M  V30 5379 H 486.903 1.49743 0.798438 0
M  V30 5380 H 485.675 3.28406 2.12756 0
M  V30 5381 H 485.298 2.10505 3.37303 0
M  V30 5382 N 486.295 -0.989507 1.22664 0
M  V30 5383 C 487.243 -2.10148 0.997035 0
M  V30 5384 C 488.237 -1.6929 -0.0609783 0
M  V30 5385 O 489.443 -1.79766 0.0917523 0
M  V30 5386 H 485.818 -0.687256 0.305259 0
M  V30 5387 H 487.789 -2.26685 1.94053 0
M  V30 5388 C 486.538 -3.4257 0.595085 0
M  V30 5389 H 485.861 -3.74453 1.40089 0
M  V30 5390 H 487.301 -4.21344 0.473869 0
M  V30 5391 C 485.76 -3.29638 -0.695725 0
M  V30 5392 O 486.29 -3.61709 -1.74727 0
M  V30 5393 N 484.496 -2.82814 -0.668173 0
M  V30 5394 H 484.043 -2.56914 0.18787 0
M  V30 5395 H 484.001 -2.74544 -1.5321 0
M  V30 5396 N 487.773 -1.03688 -1.18687 0
M  V30 5397 C 488.703 -0.645407 -2.24403 0
M  V30 5398 C 489.684 0.349511 -1.66471 0
M  V30 5399 O 490.869 0.230453 -1.92828 0
M  V30 5400 C 487.999 -0.00365337 -3.473 0
M  V30 5401 C 486.953 -0.921705 -4.17958 0
M  V30 5402 C 486.279 -0.144629 -5.34504 0
M  V30 5403 C 487.579 -2.23909 -4.71871 0
M  V30 5404 H 489.273 -1.52917 -2.57404 0
M  V30 5405 H 486.819 -0.736711 -1.23728 0
M  V30 5406 H 488.772 0.281908 -4.20456 0
M  V30 5407 H 487.496 0.914963 -3.13522 0
M  V30 5408 H 486.155 -1.19159 -3.46694 0
M  V30 5409 H 485.803 0.776274 -4.96974 0
M  V30 5410 H 485.503 -0.756206 -5.82714 0
M  V30 5411 H 487.027 0.134004 -6.10453 0
M  V30 5412 H 488.441 -2.0145 -5.36741 0
M  V30 5413 H 486.838 -2.8033 -5.30599 0
M  V30 5414 H 487.908 -2.88822 -3.895 0
M  V30 5415 N 489.251 1.34841 -0.815825 0
M  V30 5416 C 490.5 1.97755 -0.396976 0
M  V30 5417 C 490.813 1.65422 1.04379 0
M  V30 5418 O 492.019 2.21771 1.5662 0
M  V30 5419 C 490.475 3.53818 -0.658869 0
M  V30 5420 C 490.083 3.95051 -2.11278 0
M  V30 5421 C 491.827 4.23397 -0.305834 0
M  V30 5422 C 489.734 5.43997 -2.31994 0
M  V30 5423 H 488.664 0.739985 -0.1447 0
M  V30 5424 H 491.315 1.53781 -1.00118 0
M  V30 5425 H 489.697 3.95997 0.0154112 0
M  V30 5426 H 490.871 3.63998 -2.82564 0
M  V30 5427 H 489.186 3.38388 -2.42657 0
M  V30 5428 H 491.783 5.32899 -0.43854 0
M  V30 5429 H 492.126 4.09508 0.748952 0
M  V30 5430 H 492.659 3.8667 -0.934403 0
M  V30 5431 H 489.398 5.62865 -3.35952 0
M  V30 5432 H 488.918 5.76589 -1.65244 0
M  V30 5433 H 490.597 6.10584 -2.14001 0
M  V30 5434 N 490.729 0.570148 1.46925 0
M  V30 5435 C 491.957 0.0561966 2.06824 0
M  V30 5436 C 492.372 -1.24326 1.42086 0
M  V30 5437 O 491.729 -1.74882 0.521794 0
M  V30 5438 C 491.78 -0.129517 3.61268 0
M  V30 5439 O 491.501 1.1185 4.23581 0
M  V30 5440 C 493.002 -0.679266 4.38065 0
M  V30 5441 H 490.222 0.0517261 0.669003 0
M  V30 5442 H 492.766 0.787243 1.8874 0
M  V30 5443 H 490.921 -0.810739 3.78822 0
M  V30 5444 H 491.335 0.924375 5.1629 0
M  V30 5445 H 492.809 -0.758445 5.46765 0
M  V30 5446 H 493.286 -1.69346 4.05239 0
M  V30 5447 H 493.892 -0.0333237 4.25287 0
M  V30 5448 N 492.207 -1.54576 0.307264 0
M  V30 5449 C 493.432 -2.05139 -0.305379 0
M  V30 5450 C 493.857 -1.18278 -1.46259 0
M  V30 5451 O 493.215 -0.188243 -1.8032 0
M  V30 5452 C 493.263 -3.53066 -0.733283 0
M  V30 5453 O 492.367 -3.69206 -1.83741 0
M  V30 5454 H 491.708 -0.661444 -0.0582105 0
M  V30 5455 H 494.238 -1.99569 0.450931 0
M  V30 5456 H 494.248 -3.95034 -1.02039 0
M  V30 5457 H 492.923 -4.15746 0.113198 0
M  V30 5458 H 491.5 -3.39143 -1.55037 0
M  V30 5459 N 493.685 -0.035106 -1.57561 0
M  V30 5460 C 494.915 0.651312 -1.96065 0
M  V30 5461 C 495.323 1.6585 -0.910514 0
M  V30 5462 O 494.666 1.83336 0.11552 0
M  V30 5463 C 494.728 1.40897 -3.30739 0
M  V30 5464 C 494.392 0.559436 -4.53563 0
M  V30 5465 C 495.389 -0.16778 -5.19629 0
M  V30 5466 C 493.074 0.495079 -4.99854 0
M  V30 5467 C 495.068 -0.947963 -6.30311 0
M  V30 5468 C 492.755 -0.288804 -6.10417 0
M  V30 5469 C 493.753 -1.00903 -6.75505 0
M  V30 5470 O 493.441 -1.78005 -7.83945 0
M  V30 5471 H 493.173 0.184036 -0.650467 0
M  V30 5472 H 495.727 -0.0929677 -2.05189 0
M  V30 5473 H 493.957 2.19852 -3.18123 0
M  V30 5474 H 495.646 1.98407 -3.54104 0
M  V30 5475 H 496.412 -0.12743 -4.84833 0
M  V30 5476 H 492.291 1.04524 -4.48994 0
M  V30 5477 H 495.835 -1.51064 -6.81047 0
M  V30 5478 H 491.732 -0.33085 -6.44652 0
M  V30 5479 H 492.5 -1.70046 -8.00641 0
M  V30 5480 N 495.163 1.55791 0.238111 0
M  V30 5481 C 496.412 1.77234 0.962868 0
M  V30 5482 C 496.725 0.600661 1.86149 0
M  V30 5483 O 497.931 0.698315 2.62366 0
M  V30 5484 C 496.387 3.13808 1.76218 0
M  V30 5485 C 495.995 4.3865 0.910518 0
M  V30 5486 C 497.739 3.44585 2.47914 0
M  V30 5487 C 495.646 5.66252 1.70623 0
M  V30 5488 H 494.576 0.660731 0.36325 0
M  V30 5489 H 497.227 1.8221 0.217242 0
M  V30 5490 H 495.609 3.02963 2.55009 0
M  V30 5491 H 496.783 4.60507 0.164316 0
M  V30 5492 H 495.098 4.15271 0.30647 0
M  V30 5493 H 497.695 4.3714 3.07917 0
M  V30 5494 H 498.038 2.66314 3.19973 0
M  V30 5495 H 498.571 3.56685 1.76127 0
M  V30 5496 H 495.31 6.47369 1.02923 0
M  V30 5497 H 494.83 5.48483 2.42748 0
M  V30 5498 H 496.509 6.05829 2.27114 0
M  V30 5499 N 496.642 -0.504142 1.49319 0
M  V30 5500 C 497.891 -1.25507 1.57895 0
M  V30 5501 C 498.204 -1.93735 0.269433 0
M  V30 5502 O 499.41 -2.70492 0.233706 0
M  V30 5503 C 497.866 -2.27869 2.78574 0
M  V30 5504 C 497.474 -1.65594 4.16272 0
M  V30 5505 C 499.218 -3.0381 2.96479 0
M  V30 5506 C 497.125 -2.66048 5.28178 0
M  V30 5507 H 496.055 -0.47212 0.587894 0
M  V30 5508 H 498.706 -0.52931 1.757 0
M  V30 5509 H 497.088 -3.03594 2.54257 0
M  V30 5510 H 498.262 -0.958826 4.50714 0
M  V30 5511 H 496.577 -1.02055 4.037 0
M  V30 5512 H 499.174 -3.78925 3.77253 0
M  V30 5513 H 499.517 -3.61235 2.06918 0
M  V30 5514 H 500.05 -2.352 3.20821 0
M  V30 5515 H 496.789 -2.13408 6.19788 0
M  V30 5516 H 496.309 -3.34009 4.98195 0
M  V30 5517 H 497.988 -3.28536 5.57381 0
M  V30 5518 N 498.12 -1.38341 -0.754957 0
M  V30 5519 C 499.397 -1.24995 -1.50451 0
M  V30 5520 C 499.777 0.149244 -2.10572 0
M  V30 5521 O 499.125 1.15861 -1.96948 0
M  V30 5522 C 499.335 -2.35904 -2.57197 0
M  V30 5523 C 500.683 -2.74262 -3.24138 0
M  V30 5524 O 501.707 -2.35205 -2.67501 0
M  V30 5525 O 500.566 -3.4161 -4.26574 0
M  V30 5526 H 497.66 -0.48872 -0.667144 0
M  V30 5527 H 500.206 -1.50165 -0.790486 0
M  V30 5528 H 498.978 -3.2953 -2.11011 0
M  V30 5529 H 498.601 -2.12291 -3.36182 0
M  V30 5530 N 499.598 0.982988 -1.23187 0
M  V30 5531 C 500.545 2.07491 -1.01075 0
M  V30 5532 C 501.515 1.65949 0.070905 0
M  V30 5533 O 502.7 1.90629 -0.0806822 0
M  V30 5534 C 499.84 3.39751 -0.605261 0
M  V30 5535 C 498.953 3.94578 -1.75876 0
M  V30 5536 C 498.088 5.15039 -1.3003 0
M  V30 5537 C 497.127 5.62027 -2.42472 0
M  V30 5538 N 496.264 6.73719 -1.97602 0
M  V30 5539 H 501.104 2.25739 -1.9454 0
M  V30 5540 H 498.641 1.10659 -0.969179 0
M  V30 5541 H 500.599 4.15719 -0.351279 0
M  V30 5542 H 499.229 3.21473 0.292382 0
M  V30 5543 H 498.281 3.1539 -2.12681 0
M  V30 5544 H 499.593 4.25422 -2.60418 0
M  V30 5545 H 498.747 5.9833 -1.00429 0
M  V30 5546 H 497.486 4.85843 -0.425216 0
M  V30 5547 H 496.491 4.77318 -2.7285 0
M  V30 5548 H 497.716 5.93244 -3.30512 0
M  V30 5549 H 495.662 6.46287 -1.1247 0
M  V30 5550 H 495.579 7.03934 -2.75705 0
M  V30 5551 H 496.847 7.6049 -1.71098 0
M  V30 5552 N 501.076 1.04316 1.18135 0
M  V30 5553 C 502.323 0.74802 1.88178 0
M  V30 5554 C 502.651 -0.72441 1.80506 0
M  V30 5555 O 501.906 -1.54463 1.20165 0
M  V30 5556 C 502.205 1.16271 3.37958 0
M  V30 5557 C 501.871 2.63585 3.65833 0
M  V30 5558 C 500.533 3.03829 3.73151 0
M  V30 5559 C 502.885 3.58822 3.78016 0
M  V30 5560 C 500.213 4.38194 3.90132 0
M  V30 5561 C 502.565 4.92909 3.96514 0
M  V30 5562 C 501.229 5.3282 4.02068 0
M  V30 5563 H 500.499 0.27372 0.688592 0
M  V30 5564 H 503.146 1.30863 1.39811 0
M  V30 5565 H 501.451 0.520938 3.88321 0
M  V30 5566 H 503.148 0.911672 3.90499 0
M  V30 5567 H 499.738 2.31414 3.60757 0
M  V30 5568 H 503.922 3.28875 3.71692 0
M  V30 5569 H 499.178 4.68631 3.92677 0
M  V30 5570 H 503.352 5.66606 4.04883 0
M  V30 5571 H 500.979 6.36943 4.14979 0
M  V30 5572 N 502.554 -1.34406 0.822964 0
M  V30 5573 C 503.779 -2.0304 0.423034 0
M  V30 5574 C 504.204 -1.61568 -0.963196 0
M  V30 5575 O 503.562 -0.800339 -1.62678 0
M  V30 5576 C 503.61 -3.56636 0.53321 0
M  V30 5577 O 502.714 -4.09971 -0.446939 0
M  V30 5578 H 502.055 -0.64075 0.174171 0
M  V30 5579 H 504.585 -1.71653 1.11339 0
M  V30 5580 H 504.595 -4.05945 0.408991 0
M  V30 5581 H 503.27 -3.86168 1.54425 0
M  V30 5582 H 501.847 -3.71835 -0.281601 0
M  V30 5583 N 504.032 -0.577932 -1.46621 0
M  V30 5584 C 505.26 -0.0671642 -2.06791 0
M  V30 5585 C 505.675 1.23571 -1.42743 0
M  V30 5586 O 505.032 1.74602 -0.531062 0
M  V30 5587 C 505.083 0.110357 -3.61332 0
M  V30 5588 O 504.804 -1.14095 -4.22982 0
M  V30 5589 C 506.305 0.656025 -4.38419 0
M  V30 5590 H 503.525 -0.0552732 -0.66872 0
M  V30 5591 H 506.069 -0.797242 -1.8832 0
M  V30 5592 H 504.224 0.790637 -3.79246 0
M  V30 5593 H 504.638 -0.951742 -5.15793 0
M  V30 5594 H 506.112 0.729438 -5.47159 0
M  V30 5595 H 506.589 1.67195 -4.06131 0
M  V30 5596 H 507.195 0.0107692 -4.25299 0
M  V30 5597 N 505.51 1.54411 -0.315457 0
M  V30 5598 C 506.443 2.20265 0.596522 0
M  V30 5599 C 507.421 1.17693 1.12192 0
M  V30 5600 O 508.605 1.46397 1.18744 0
M  V30 5601 C 505.732 2.85794 1.81767 0
M  V30 5602 C 504.778 4.02017 1.42424 0
M  V30 5603 S 505.611 5.33452 0.467836 0
M  V30 5604 C 506.767 6.02471 1.69645 0
M  V30 5605 H 507 2.97277 0.0370896 0
M  V30 5606 H 504.533 1.54079 -0.0995562 0
M  V30 5607 H 506.491 3.24172 2.51839 0
M  V30 5608 H 505.152 2.08601 2.34828 0
M  V30 5609 H 504.345 4.46701 2.33396 0
M  V30 5610 H 503.947 3.65271 0.803311 0
M  V30 5611 H 506.239 6.24157 2.63504 0
M  V30 5612 H 507.182 6.96215 1.29192 0
M  V30 5613 H 507.59 5.32284 1.87974 0
M  V30 5614 N 506.988 0.0434614 1.5754 0
M  V30 5615 C 508.216 -0.641835 1.96693 0
M  V30 5616 C 508.631 -1.64832 0.920652 0
M  V30 5617 O 507.988 -1.82247 -0.095993 0
M  V30 5618 C 508.039 -1.33557 3.35924 0
M  V30 5619 O 507.76 -0.369403 4.3654 0
M  V30 5620 C 509.261 -2.11135 3.89791 0
M  V30 5621 H 506.481 -0.176013 0.647503 0
M  V30 5622 H 509.025 0.107478 2.04217 0
M  V30 5623 H 507.18 -2.03617 3.29574 0
M  V30 5624 H 507.594 -0.863674 5.1734 0
M  V30 5625 H 509.068 -2.55107 4.89514 0
M  V30 5626 H 509.545 -2.95634 3.24803 0
M  V30 5627 H 510.151 -1.46002 3.99454 0
M  V30 5628 N 508.466 -1.55915 -0.229846 0
M  V30 5629 C 509.696 -1.82352 -0.971152 0
M  V30 5630 C 510.104 -0.619231 -1.7878 0
M  V30 5631 O 509.447 0.421597 -1.78797 0
M  V30 5632 C 509.509 -3.02399 -1.9441 0
M  V30 5633 C 509.173 -4.37739 -1.31277 0
M  V30 5634 C 510.17 -5.15074 -0.706757 0
M  V30 5635 C 507.855 -4.84454 -1.32702 0
M  V30 5636 C 509.849 -6.37281 -0.123413 0
M  V30 5637 C 507.536 -6.06605 -0.739831 0
M  V30 5638 C 508.534 -6.82858 -0.139071 0
M  V30 5639 O 508.222 -8.027 0.439007 0
M  V30 5640 H 507.954 -0.61035 -0.290601 0
M  V30 5641 H 510.508 -2.03839 -0.252746 0
M  V30 5642 H 508.738 -2.76709 -2.70128 0
M  V30 5643 H 510.427 -3.15779 -2.55026 0
M  V30 5644 H 511.193 -4.80093 -0.688131 0
M  V30 5645 H 507.072 -4.25081 -1.78402 0
M  V30 5646 H 510.616 -6.96741 0.346124 0
M  V30 5647 H 506.513 -6.4106 -0.755841 0
M  V30 5648 H 507.281 -8.17824 0.332521 0
M  V30 5649 N 509.944 0.496216 -1.49584 0
M  V30 5650 C 511.172 1.27394 -1.63029 0
M  V30 5651 C 511.587 1.86344 -0.303569 0
M  V30 5652 O 510.944 1.68057 0.711547 0
M  V30 5653 C 510.995 2.40077 -2.70269 0
M  V30 5654 O 510.716 1.83549 -3.97796 0
M  V30 5655 C 512.217 3.31372 -2.94462 0
M  V30 5656 H 509.437 0.386211 -0.54871 0
M  V30 5657 H 511.981 0.595163 -1.95648 0
M  V30 5658 H 510.136 3.03775 -2.40415 0
M  V30 5659 H 510.55 2.57561 -4.56905 0
M  V30 5660 H 512.024 4.06707 -3.73221 0
M  V30 5661 H 512.501 3.88654 -2.0456 0
M  V30 5662 H 513.107 2.73435 -3.25751 0
M  V30 5663 N 511.423 1.38739 0.74761 0
M  V30 5664 C 512.672 1.3459 1.50228 0
M  V30 5665 C 512.985 -0.0595592 1.95509 0
M  V30 5666 O 514.191 -0.22361 2.70578 0
M  V30 5667 C 512.647 2.36377 2.71393 0
M  V30 5668 C 512.255 3.82573 2.33113 0
M  V30 5669 C 513.999 2.41281 3.49262 0
M  V30 5670 C 511.906 4.76032 3.50924 0
M  V30 5671 H 510.836 0.500312 0.564096 0
M  V30 5672 H 513.487 1.64324 0.8167 0
M  V30 5673 H 511.869 1.99694 3.41962 0
M  V30 5674 H 513.043 4.28227 1.70171 0
M  V30 5675 H 511.358 3.80844 1.68365 0
M  V30 5676 H 513.955 3.08301 4.36869 0
M  V30 5677 H 514.298 1.43353 3.9084 0
M  V30 5678 H 514.831 2.76793 2.85711 0
M  V30 5679 H 511.57 5.75177 3.14408 0
M  V30 5680 H 511.09 4.35066 4.12889 0
M  V30 5681 H 512.769 4.94331 4.17427 0
M  V30 5682 N 512.901 -0.976442 1.23707 0
M  V30 5683 C 514.147 -1.72081 1.07312 0
M  V30 5684 C 514.48 -1.90275 -0.388476 0
M  V30 5685 O 513.755 -1.4579 -1.28746 0
M  V30 5686 C 514.038 -3.11675 1.80363 0
M  V30 5687 C 513.891 -3.01027 3.3422 0
M  V30 5688 C 515.21 -4.1117 1.5693 0
M  V30 5689 H 512.329 -0.624583 0.391236 0
M  V30 5690 H 514.971 -1.13649 1.52263 0
M  V30 5691 H 513.121 -3.61559 1.42153 0
M  V30 5692 H 514.793 -2.58637 3.81975 0
M  V30 5693 H 513.036 -2.3744 3.63049 0
M  V30 5694 H 513.707 -3.9988 3.80525 0
M  V30 5695 H 516.183 -3.7011 1.90151 0
M  V30 5696 H 515.059 -5.06928 2.10513 0
M  V30 5697 H 515.32 -4.392 0.505548 0
M  V30 5698 N 514.379 -1.04941 -1.1758 0
M  V30 5699 C 515.604 -0.778253 -1.92245 0
M  V30 5700 C 516.029 0.659707 -1.76152 0
M  V30 5701 O 515.387 1.45803 -1.07755 0
M  V30 5702 C 515.435 -1.16051 -3.41416 0
M  V30 5703 O 514.539 -0.291153 -4.11371 0
M  V30 5704 H 513.88 -0.285619 -0.599431 0
M  V30 5705 H 516.41 -1.40159 -1.49052 0
M  V30 5706 H 516.42 -1.12619 -3.92149 0
M  V30 5707 H 515.095 -2.208 -3.52449 0
M  V30 5708 H 513.672 -0.385851 -3.70898 0
M  V30 5709 N 515.857 1.33968 -0.830081 0
M  V30 5710 C 517.097 1.99879 -0.427521 0
M  V30 5711 C 517.461 1.64355 0.992546 0
M  V30 5712 O 518.662 2.23164 1.49837 0
M  V30 5713 C 516.933 3.51771 -0.631815 0
M  V30 5714 S 518.492 4.37608 -0.323168 0
M  V30 5715 H 515.31 0.692485 -0.161202 0
M  V30 5716 H 517.912 1.63129 -1.07745 0
M  V30 5717 H 516.616 3.75113 -1.66488 0
M  V30 5718 H 516.147 3.93386 0.0325936 0
M  V30 5719 H 518.162 4.88683 0.860432 0
M  V30 5720 N 517.335 0.585699 1.46312 0
M  V30 5721 C 518.584 0.0701192 2.01578 0
M  V30 5722 C 518.897 -1.29889 1.46247 0
M  V30 5723 O 520.103 -1.90598 1.93351 0
M  V30 5724 C 518.559 0.0747499 3.59822 0
M  V30 5725 C 518.167 1.44226 4.24149 0
M  V30 5726 C 519.911 -0.38673 4.22735 0
M  V30 5727 C 517.818 1.40446 5.74481 0
M  V30 5728 H 516.748 0.0224441 0.753666 0
M  V30 5729 H 519.399 0.737789 1.68015 0
M  V30 5730 H 517.781 -0.659144 3.90476 0
M  V30 5731 H 518.955 2.19612 4.05101 0
M  V30 5732 H 517.27 1.84401 3.73343 0
M  V30 5733 H 519.867 -0.433853 5.32937 0
M  V30 5734 H 520.21 -1.40489 3.91878 0
M  V30 5735 H 520.743 0.293195 3.96718 0
M  V30 5736 H 517.482 2.39952 6.10003 0
M  V30 5737 H 517.002 0.692845 5.95785 0
M  V30 5738 H 518.681 1.11865 6.37256 0
M  V30 5739 N 518.813 -1.54241 0.323641 0
M  V30 5740 C 519.745 -2.21836 -0.576311 0
M  V30 5741 C 520.758 -1.21837 -1.07979 0
M  V30 5742 O 521.947 -1.48306 -0.99336 0
M  V30 5743 C 519.047 -2.86923 -1.80356 0
M  V30 5744 C 518.22 -4.1306 -1.43875 0
M  V30 5745 C 517.279 -4.6174 -2.52353 0
M  V30 5746 O 516.305 -5.26421 -2.16494 0
M  V30 5747 N 517.507 -4.35974 -3.83284 0
M  V30 5748 H 520.272 -2.997 0.00247987 0
M  V30 5749 H 517.833 -1.61233 0.146848 0
M  V30 5750 H 519.825 -3.16414 -2.52318 0
M  V30 5751 H 518.395 -2.12765 -2.29019 0
M  V30 5752 H 517.615 -3.90334 -0.550752 0
M  V30 5753 H 518.903 -4.95148 -1.17071 0
M  V30 5754 H 518.301 -3.84203 -4.15216 0
M  V30 5755 H 516.858 -4.70119 -4.51477 0
M  V30 5756 N 520.291 -0.0518155 -1.57515 0
M  V30 5757 C 521.539 0.620595 -1.92336 0
M  V30 5758 C 521.86 1.71345 -0.930907 0
M  V30 5759 O 521.13 1.95885 0.0241341 0
M  V30 5760 H 519.71 0.232226 -0.709986 0
M  V30 5761 H 522.372 -0.104969 -1.94617 0
M  V30 5762 H 521.468 1.05879 -2.93592 0
M  V30 5763 N 521.769 1.56035 0.221574 0
M  V30 5764 C 523.18 1.69229 0.788567 0
M  V30 5765 C 523.531 0.653814 1.84986 0
M  V30 5766 O 522.656 -0.195065 2.15519 0
M  V30 5767 C 523.251 3.06809 1.43713 0
M  V30 5768 C 521.81 3.21858 1.95152 0
M  V30 5769 C 520.957 2.65155 0.811685 0
M  V30 5770 H 523.908 1.587 -0.00307894 0
M  V30 5771 H 523.929 3.02666 2.30594 0
M  V30 5772 H 523.441 3.82369 0.664475 0
M  V30 5773 H 521.542 2.51167 2.7522 0
M  V30 5774 H 521.655 4.29073 2.1315 0
M  V30 5775 H 520.019 2.23635 1.21899 0
M  V30 5776 H 520.802 3.43261 0.0516987 0
M  V30 5777 N 523.247 -0.488276 1.49845 0
M  V30 5778 C 524.21 -1.57069 1.66919 0
M  V30 5779 C 525.21 -1.51445 0.540479 0
M  V30 5780 O 526.4 -1.5437 0.807188 0
M  V30 5781 C 523.532 -2.96718 1.67844 0
M  V30 5782 H 524.725 -1.43254 2.63474 0
M  V30 5783 H 522.278 -0.713435 1.39068 0
M  V30 5784 H 523.013 -3.15996 0.7292 0
M  V30 5785 H 522.798 -3.02208 2.49826 0
M  V30 5786 H 524.288 -3.75335 1.83066 0
M  V30 5787 N 524.725 -1.39134 -0.740242 0
M  V30 5788 C 525.974 -1.35384 -1.49512 0
M  V30 5789 C 526.287 0.04919 -1.95538 0
M  V30 5790 O 527.493 0.209257 -2.70692 0
M  V30 5791 C 525.949 -2.37812 -2.70136 0
M  V30 5792 C 525.557 -3.83804 -2.31081 0
M  V30 5793 C 527.301 -2.4313 -3.47977 0
M  V30 5794 C 525.208 -4.77886 -3.48395 0
M  V30 5795 H 524.138 -0.503297 -0.561434 0
M  V30 5796 H 526.789 -1.64754 -0.807974 0
M  V30 5797 H 525.171 -2.01505 -3.40899 0
M  V30 5798 H 526.345 -4.29123 -1.67898 0
M  V30 5799 H 524.66 -3.81732 -1.66343 0
M  V30 5800 H 527.257 -3.10614 -4.35228 0
M  V30 5801 H 527.6 -1.45423 -3.90074 0
M  V30 5802 H 528.133 -2.78304 -2.84239 0
M  V30 5803 H 524.872 -5.76836 -3.11353 0
M  V30 5804 H 524.392 -4.3725 -4.10576 0
M  V30 5805 H 526.071 -4.96538 -4.148 0
M  V30 5806 N 526.204 0.969867 -1.24223 0
M  V30 5807 C 527.167 2.04564 -1.03373 0
M  V30 5808 C 528.167 1.60798 0.00819206 0
M  V30 5809 O 529.357 1.72641 -0.232567 0
M  V30 5810 C 526.489 3.36163 -0.566343 0
M  V30 5811 H 527.682 2.24494 -1.98853 0
M  V30 5812 H 525.235 1.1448 -1.06415 0
M  V30 5813 H 525.97 3.21925 0.391751 0
M  V30 5814 H 525.755 3.69273 -1.31834 0
M  V30 5815 H 527.245 4.1526 -0.441435 0
M  V30 5816 N 527.682 1.05563 1.17022 0
M  V30 5817 C 528.931 0.763036 1.8671 0
M  V30 5818 C 529.244 -0.712857 1.82147 0
M  V30 5819 O 530.45 -1.11955 2.47343 0
M  V30 5820 C 528.906 1.31474 3.35026 0
M  V30 5821 C 528.514 2.82034 3.48081 0
M  V30 5822 C 530.258 1.09935 4.10018 0
M  V30 5823 C 528.165 3.30486 4.90442 0
M  V30 5824 H 527.095 0.281747 0.699382 0
M  V30 5825 H 529.746 1.2734 1.32124 0
M  V30 5826 H 528.128 0.732171 3.89173 0
M  V30 5827 H 529.302 3.46178 3.04133 0
M  V30 5828 H 527.617 3.02156 2.86515 0
M  V30 5829 H 530.214 1.43632 5.15048 0
M  V30 5830 H 530.557 0.0373072 4.16283 0
M  V30 5831 H 531.09 1.64732 3.62089 0
M  V30 5832 H 527.829 4.36137 4.89352 0
M  V30 5833 H 527.349 2.71086 5.35044 0
M  V30 5834 H 529.028 3.25382 5.59227 0
M  V30 5835 N 529.16 -1.33526 0.837174 0
M  V30 5836 C 530.123 -2.27551 0.274421 0
M  V30 5837 C 531.123 -1.50886 -0.555881 0
M  V30 5838 O 532.313 -1.70227 -0.369918 0
M  V30 5839 C 529.445 -3.35332 -0.613605 0
M  V30 5840 H 530.638 -2.78837 1.10408 0
M  V30 5841 H 528.191 -1.439 0.610126 0
M  V30 5842 H 528.926 -2.89285 -1.46577 0
M  V30 5843 H 528.711 -3.92095 -0.0195341 0
M  V30 5844 H 530.201 -4.05433 -1.00068 0
M  V30 5845 N 530.638 -0.59345 -1.46 0
M  V30 5846 C 531.868 -0.0889642 -2.06408 0
M  V30 5847 C 532.276 1.22597 -1.44106 0
M  V30 5848 O 531.619 1.75448 -0.544398 0
M  V30 5849 C 531.681 0.139902 -3.59228 0
M  V30 5850 C 531.345 -1.09107 -4.43784 0
M  V30 5851 C 532.342 -2.00577 -4.79651 0
M  V30 5852 C 530.027 -1.31593 -4.84756 0
M  V30 5853 C 532.021 -3.12873 -5.55328 0
M  V30 5854 C 529.708 -2.44192 -5.60191 0
M  V30 5855 C 530.706 -3.34661 -5.95392 0
M  V30 5856 O 530.394 -4.45302 -6.69299 0
M  V30 5857 H 530.126 -0.0594613 -0.67338 0
M  V30 5858 H 532.68 -0.817 -1.88452 0
M  V30 5859 H 530.91 0.922672 -3.75531 0
M  V30 5860 H 532.599 0.594228 -4.01527 0
M  V30 5861 H 533.365 -1.84425 -4.48567 0
M  V30 5862 H 529.244 -0.620801 -4.56801 0
M  V30 5863 H 532.788 -3.83511 -5.82722 0
M  V30 5864 H 528.685 -2.60303 -5.90688 0
M  V30 5865 H 529.453 -4.43805 -6.87735 0
M  V30 5866 N 532.116 1.54067 -0.331816 0
M  V30 5867 C 533.346 2.04833 0.269605 0
M  V30 5868 C 533.754 1.20714 1.45687 0
M  V30 5869 O 533.097 0.232539 1.82222 0
M  V30 5870 C 533.159 3.51386 0.759499 0
M  V30 5871 C 532.823 4.55971 -0.306557 0
M  V30 5872 C 533.82 5.07126 -1.14538 0
M  V30 5873 C 531.505 5.00216 -0.457116 0
M  V30 5874 C 533.499 6.01096 -2.12042 0
M  V30 5875 C 531.186 5.93999 -1.43556 0
M  V30 5876 C 532.184 6.44326 -2.26568 0
M  V30 5877 O 531.872 7.36267 -3.22749 0
M  V30 5878 H 531.604 0.673509 0.0579763 0
M  V30 5879 H 534.158 1.99748 -0.478521 0
M  V30 5880 H 532.388 3.53896 1.55867 0
M  V30 5881 H 534.077 3.85184 1.28017 0
M  V30 5882 H 534.843 4.73716 -1.04009 0
M  V30 5883 H 530.722 4.60652 0.179142 0
M  V30 5884 H 534.266 6.40302 -2.76873 0
M  V30 5885 H 530.163 6.26825 -1.54146 0
M  V30 5886 H 530.931 7.54165 -3.18083 0
M  V30 5887 N 533.594 0.0601682 1.57485 0
M  V30 5888 C 534.841 -0.611594 1.93043 0
M  V30 5889 C 535.169 -1.70317 0.939274 0
M  V30 5890 O 534.424 -1.95644 -0.046996 0
M  V30 5891 C 534.723 -1.23831 3.35262 0
M  V30 5892 C 534.389 -0.274037 4.50066 0
M  V30 5893 C 533.051 -0.00872394 4.81199 0
M  V30 5894 C 535.403 0.386308 5.19766 0
M  V30 5895 C 532.731 0.924218 5.79375 0
M  V30 5896 C 535.083 1.3075 6.1894 0
M  V30 5897 C 533.747 1.58139 6.48497 0
M  V30 5898 H 533.017 -0.223798 0.706396 0
M  V30 5899 H 535.664 0.128566 1.91068 0
M  V30 5900 H 533.969 -2.05394 3.33647 0
M  V30 5901 H 535.666 -1.76517 3.60059 0
M  V30 5902 H 532.256 -0.491008 4.25778 0
M  V30 5903 H 536.44 0.194436 4.95919 0
M  V30 5904 H 531.696 1.1438 6.00606 0
M  V30 5905 H 535.87 1.82519 6.72056 0
M  V30 5906 H 533.497 2.30593 7.24383 0
M  V30 5907 N 535.072 -1.5615 -0.213296 0
M  V30 5908 C 536.019 -1.93086 -1.26437 0
M  V30 5909 C 536.989 -0.789086 -1.4616 0
M  V30 5910 O 538.174 -1.04569 -1.59593 0
M  V30 5911 C 535.314 -2.26003 -2.608 0
M  V30 5912 C 534.427 -3.53156 -2.48807 0
M  V30 5913 C 533.562 -3.7548 -3.7575 0
M  V30 5914 C 532.601 -4.96119 -3.58514 0
M  V30 5915 N 531.738 -5.14791 -4.77425 0
M  V30 5916 H 536.578 -2.82707 -0.942376 0
M  V30 5917 H 534.115 -1.39919 -0.454001 0
M  V30 5918 H 536.073 -2.431 -3.39055 0
M  V30 5919 H 534.703 -1.39546 -2.91079 0
M  V30 5920 H 533.755 -3.44207 -1.61944 0
M  V30 5921 H 535.067 -4.41565 -2.31996 0
M  V30 5922 H 534.221 -3.92718 -4.62447 0
M  V30 5923 H 532.96 -2.85368 -3.95495 0
M  V30 5924 H 531.965 -4.78823 -2.70201 0
M  V30 5925 H 533.19 -5.87724 -3.40231 0
M  V30 5926 H 531.136 -4.27623 -4.97468 0
M  V30 5927 H 531.053 -5.97347 -4.63371 0
M  V30 5928 H 532.321 -5.36471 -5.65525 0
M  V30 5929 N 536.55 0.480323 -1.50102 0
M  V30 5930 C 537.797 1.23307 -1.60629 0
M  V30 5931 C 538.125 1.92135 -0.302375 0
M  V30 5932 O 537.38 1.82321 0.711154 0
M  V30 5933 C 537.679 2.30708 -2.72963 0
M  V30 5934 C 537.345 1.79195 -4.13763 0
M  V30 5935 C 536.007 1.64867 -4.52076 0
M  V30 5936 C 538.359 1.40878 -5.018 0
M  V30 5937 C 535.687 1.10631 -5.76175 0
M  V30 5938 C 538.039 0.880872 -6.26437 0
M  V30 5939 C 536.703 0.724146 -6.6356 0
M  V30 5940 H 535.973 0.451211 -0.587784 0
M  V30 5941 H 538.62 0.53051 -1.84005 0
M  V30 5942 H 536.925 3.06834 -2.43639 0
M  V30 5943 H 538.622 2.88692 -2.78313 0
M  V30 5944 H 535.212 1.91313 -3.83533 0
M  V30 5945 H 539.396 1.50786 -4.7284 0
M  V30 5946 H 534.652 0.972263 -6.0362 0
M  V30 5947 H 538.826 0.575269 -6.9402 0
M  V30 5948 H 536.453 0.301722 -7.59601 0
M  V30 5949 N 538.028 1.39524 0.732853 0
M  V30 5950 C 538.958 1.41153 1.86005 0
M  V30 5951 C 539.939 0.274614 1.67869 0
M  V30 5952 O 541.124 0.480745 1.88155 0
M  V30 5953 C 538.254 1.25638 3.23778 0
M  V30 5954 C 537.208 2.36752 3.56556 0
M  V30 5955 C 536.534 2.06326 4.93289 0
M  V30 5956 C 537.834 3.79069 3.5931 0
M  V30 5957 H 539.528 2.35484 1.84899 0
M  V30 5958 H 537.074 1.13348 0.888162 0
M  V30 5959 H 539.027 1.25398 4.0231 0
M  V30 5960 H 537.751 0.277772 3.25417 0
M  V30 5961 H 536.41 2.36213 2.80355 0
M  V30 5962 H 536.058 1.06897 4.9151 0
M  V30 5963 H 535.758 2.80757 5.16187 0
M  V30 5964 H 537.282 2.07739 5.74175 0
M  V30 5965 H 538.696 3.81526 4.27914 0
M  V30 5966 H 537.093 4.52878 3.93728 0
M  V30 5967 H 538.163 4.09893 2.59068 0
M  V30 5968 N 539.506 -0.963266 1.24736 0
M  V30 5969 C 540.469 -2.04013 1.04457 0
M  V30 5970 C 541.469 -1.608 0.000335555 0
M  V30 5971 O 542.659 -1.72515 0.241719 0
M  V30 5972 C 539.791 -3.35858 0.584162 0
M  V30 5973 H 540.984 -2.23436 2.00041 0
M  V30 5974 H 538.537 -1.13914 1.07021 0
M  V30 5975 H 539.272 -3.22128 -0.374673 0
M  V30 5976 H 539.057 -3.68568 1.3379 0
M  V30 5977 H 540.547 -4.1502 0.463451 0
M  V30 5978 N 540.985 -1.06182 -1.16461 0
M  V30 5979 C 542.233 -0.776326 -1.86595 0
M  V30 5980 C 542.554 0.69921 -1.82033 0
M  V30 5981 O 541.824 1.50579 -1.2531 0
M  V30 5982 H 540.404 -0.284184 -0.690832 0
M  V30 5983 H 543.066 -1.34308 -1.41235 0
M  V30 5984 H 542.162 -1.10022 -2.92064 0
M  V30 5985 N 542.463 1.3308 -0.844243 0
M  V30 5986 C 543.74 1.92178 -0.364261 0
M  V30 5987 C 544.12 1.76961 1.15101 0
M  V30 5988 O 543.468 1.16128 1.9679 0
M  V30 5989 C 543.678 3.393 -0.817106 0
M  V30 5990 C 545.026 4.16444 -0.828236 0
M  V30 5991 O 546.05 3.47975 -0.761062 0
M  V30 5992 O 544.909 5.38685 -0.920926 0
M  V30 5993 H 542.003 0.820411 -0.10419 0
M  V30 5994 H 544.549 1.41918 -0.930453 0
M  V30 5995 H 543.321 3.44272 -1.85991 0
M  V30 5996 H 542.944 3.96947 -0.227785 0
M  V30 5997 N 543.941 0.601185 1.45683 0
M  V30 5998 C 545.187 0.0940202 2.02582 0
M  V30 5999 C 545.52 -1.26972 1.46941 0
M  V30 6000 O 544.795 -1.83613 0.641612 0
M  V30 6001 C 545.078 0.0481715 3.60068 0
M  V30 6002 C 544.931 1.44212 4.26055 0
M  V30 6003 C 546.25 -0.642975 4.35378 0
M  V30 6004 H 543.369 0.0356404 0.736138 0
M  V30 6005 H 546.011 0.771929 1.73612 0
M  V30 6006 H 544.161 -0.529128 3.8488 0
M  V30 6007 H 545.833 2.06601 4.12449 0
M  V30 6008 H 544.076 2.00465 3.84703 0
M  V30 6009 H 544.747 1.36234 5.34925 0
M  V30 6010 H 547.223 -0.152351 4.15821 0
M  V30 6011 H 546.099 -0.644141 5.45107 0
M  V30 6012 H 546.36 -1.70785 4.0778 0
M  V30 6013 N 545.419 -1.53889 0.339982 0
M  V30 6014 C 546.665 -2.01152 -0.258003 0
M  V30 6015 C 546.998 -1.22749 -1.50487 0
M  V30 6016 O 546.273 -0.314156 -1.91946 0
M  V30 6017 C 546.556 -3.55468 -0.575717 0
M  V30 6018 C 546.409 -4.44584 0.682996 0
M  V30 6019 C 547.728 -4.1768 -1.38677 0
M  V30 6020 H 544.847 -0.731198 -0.0922992 0
M  V30 6021 H 547.489 -1.84352 0.459814 0
M  V30 6022 H 545.639 -3.69914 -1.18725 0
M  V30 6023 H 547.311 -4.41981 1.32102 0
M  V30 6024 H 545.554 -4.13592 1.3086 0
M  V30 6025 H 546.225 -5.5043 0.416001 0
M  V30 6026 H 548.701 -4.0691 -0.869705 0
M  V30 6027 H 547.577 -5.25734 -1.57783 0
M  V30 6028 H 547.838 -3.72069 -2.38782 0
M  V30 6029 N 546.897 -0.0685191 -1.57451 0
M  V30 6030 C 548.313 0.288101 -1.56978 0
M  V30 6031 C 548.513 1.70262 -1.07765 0
M  V30 6032 O 547.569 2.4135 -0.742054 0
M  V30 6033 C 548.882 0.100745 -3.00531 0
M  V30 6034 C 550.43 0.170531 -3.12535 0
M  V30 6035 C 550.905 0.0114944 -4.57999 0
M  V30 6036 N 552.396 0.0672065 -4.63151 0
M  V30 6037 C 553.131 -0.0314813 -5.73391 0
M  V30 6038 N 552.627 -0.183503 -6.92557 0
M  V30 6039 N 554.42 0.0253489 -5.62094 0
M  V30 6040 H 546.571 -0.993026 -1.87757 0
M  V30 6041 H 548.834 -0.386981 -0.865419 0
M  V30 6042 H 548.54 -0.875197 -3.40636 0
M  V30 6043 H 548.414 0.854457 -3.67395 0
M  V30 6044 H 550.801 1.13696 -2.72318 0
M  V30 6045 H 550.882 -0.614229 -2.48316 0
M  V30 6046 H 550.526 -0.951684 -4.98904 0
M  V30 6047 H 550.456 0.815617 -5.20245 0
M  V30 6048 H 552.947 0.183246 -3.77455 0
M  V30 6049 H 553.26 -0.251041 -7.72392 0
M  V30 6050 H 551.605 -0.218822 -6.94655 0
M  V30 6051 H 554.796 0.142794 -4.67882 0
M  V30 6052 H 554.969 -0.0550166 -6.47977 0
M  V30 6053 N 548.375 1.56261 0.205012 0
M  V30 6054 C 549.285 1.96944 1.27476 0
M  V30 6055 C 550.301 0.875636 1.50362 0
M  V30 6056 O 551.477 1.18058 1.6317 0
M  V30 6057 C 548.542 2.29219 2.60115 0
M  V30 6058 C 547.603 3.52255 2.45387 0
M  V30 6059 C 546.836 3.8298 3.71701 0
M  V30 6060 O 547.059 3.15138 4.75441 0
M  V30 6061 O 545.993 4.76435 3.67823 0
M  V30 6062 H 549.819 2.88144 0.959527 0
M  V30 6063 H 547.404 1.43686 0.409217 0
M  V30 6064 H 549.286 2.51098 3.3842 0
M  V30 6065 H 547.961 1.4119 2.91285 0
M  V30 6066 H 546.868 3.35635 1.65227 0
M  V30 6067 H 548.201 4.40719 2.19152 0
M  V30 6068 N 549.853 -0.472356 1.50355 0
M  V30 6069 C 551.264 -1.05326 1.54154 0
M  V30 6070 C 551.615 -1.93155 0.344303 0
M  V30 6071 O 550.74 -2.09479 -0.542928 0
M  V30 6072 C 551.335 -1.91691 2.79356 0
M  V30 6073 C 549.894 -2.44892 2.8584 0
M  V30 6074 C 549.041 -1.23205 2.48426 0
M  V30 6075 H 551.992 -0.255027 1.56637 0
M  V30 6076 H 552.013 -2.76742 2.6114 0
M  V30 6077 H 551.525 -1.27741 3.66475 0
M  V30 6078 H 549.626 -3.12399 2.0307 0
M  V30 6079 H 549.739 -2.80086 3.88701 0
M  V30 6080 H 548.103 -1.56643 2.00836 0
M  V30 6081 H 548.886 -0.609194 3.37852 0
M  V30 6082 N 551.331 -1.39911 -0.725443 0
M  V30 6083 C 552.747 -1.21725 -1.03224 0
M  V30 6084 C 552.947 -0.0855224 -2.01318 0
M  V30 6085 O 552.003 0.55976 -2.46217 0
M  V30 6086 C 553.316 -2.55511 -1.58539 0
M  V30 6087 C 554.864 -2.62439 -1.70572 0
M  V30 6088 C 555.339 -3.9647 -2.29294 0
M  V30 6089 N 556.83 -3.98159 -2.36692 0
M  V30 6090 C 557.565 -4.98647 -2.83088 0
M  V30 6091 N 557.061 -6.0953 -3.2931 0
M  V30 6092 N 558.854 -4.8602 -2.82384 0
M  V30 6093 H 551.005 -2.12267 -0.075048 0
M  V30 6094 H 553.268 -0.943136 -0.0959066 0
M  V30 6095 H 552.974 -3.38926 -0.939249 0
M  V30 6096 H 552.848 -2.75905 -2.57208 0
M  V30 6097 H 555.235 -1.79401 -2.34306 0
M  V30 6098 H 555.316 -2.45885 -0.705297 0
M  V30 6099 H 554.96 -4.79942 -1.66186 0
M  V30 6100 H 554.89 -4.10349 -3.30032 0
M  V30 6101 H 557.381 -3.18085 -2.04035 0
M  V30 6102 H 557.694 -6.82106 -3.6325 0
M  V30 6103 H 556.039 -6.1311 -3.27294 0
M  V30 6104 H 559.23 -3.98493 -2.45603 0
M  V30 6105 H 559.403 -5.64478 -3.18226 0
M  V30 6106 N 552.809 0.956637 -1.25245 0
M  V30 6107 C 553.739 2.07058 -1.07931 0
M  V30 6108 C 554.72 1.70096 0.0110361 0
M  V30 6109 O 555.905 1.93555 -0.158121 0
M  V30 6110 C 553.035 3.40272 -0.695124 0
M  V30 6111 C 551.989 3.91235 -1.73549 0
M  V30 6112 C 551.315 5.20921 -1.20604 0
M  V30 6113 C 552.615 4.17837 -3.13385 0
M  V30 6114 H 554.309 2.218 -2.01109 0
M  V30 6115 H 551.855 1.06581 -0.968326 0
M  V30 6116 H 553.808 4.1765 -0.560949 0
M  V30 6117 H 552.532 3.25462 0.272355 0
M  V30 6118 H 551.191 3.16025 -1.85807 0
M  V30 6119 H 550.839 5.02479 -0.228846 0
M  V30 6120 H 550.539 5.55987 -1.90136 0
M  V30 6121 H 552.063 6.00897 -1.08421 0
M  V30 6122 H 553.477 4.8588 -3.04292 0
M  V30 6123 H 551.874 4.64154 -3.80369 0
M  V30 6124 H 552.944 3.2419 -3.60595 0
M  V30 6125 N 554.287 1.06798 1.15896 0
M  V30 6126 C 555.217 0.704677 2.22613 0
M  V30 6127 C 556.198 -0.305252 1.67339 0
M  V30 6128 O 557.383 -0.179247 1.93371 0
M  V30 6129 C 554.513 0.0957325 3.47168 0
M  V30 6130 C 553.467 1.0322 4.15367 0
M  V30 6131 C 552.793 0.286293 5.33933 0
M  V30 6132 C 554.093 2.36341 4.65768 0
M  V30 6133 H 555.787 1.59688 2.53259 0
M  V30 6134 H 553.333 0.769257 1.21731 0
M  V30 6135 H 555.286 -0.170333 4.21056 0
M  V30 6136 H 554.01 -0.831516 3.15838 0
M  V30 6137 H 552.669 1.28309 3.43413 0
M  V30 6138 H 552.317 -0.644237 4.98857 0
M  V30 6139 H 552.017 0.910436 5.80504 0
M  V30 6140 H 553.541 0.0278938 6.10594 0
M  V30 6141 H 554.955 2.1561 5.31211 0
M  V30 6142 H 553.352 2.94299 5.2298 0
M  V30 6143 H 554.422 2.99047 3.81705 0
M  V30 6144 N 555.766 -1.3263 0.851289 0
M  V30 6145 C 557.043 -1.91982 0.374448 0
M  V30 6146 C 557.423 -1.77568 -1.14161 0
M  V30 6147 O 556.771 -1.1717 -1.96172 0
M  V30 6148 C 556.981 -3.38862 0.835088 0
M  V30 6149 C 558.329 -4.15999 0.850309 0
M  V30 6150 O 559.353 -3.47566 0.779505 0
M  V30 6151 O 558.212 -5.38189 0.949481 0
M  V30 6152 H 555.306 -0.819846 0.10854 0
M  V30 6153 H 557.852 -1.41422 0.937966 0
M  V30 6154 H 556.624 -3.43281 1.87814 0
M  V30 6155 H 556.247 -3.96821 0.248833 0
M  V30 6156 N 557.244 -0.608902 -1.45362 0
M  V30 6157 C 558.491 -0.104607 -2.0223 0
M  V30 6158 C 558.819 1.26534 -1.47714 0
M  V30 6159 O 558.074 1.84855 -0.642435 0
M  V30 6160 C 558.373 -0.0167296 -3.57396 0
M  V30 6161 C 558.039 -1.32251 -4.31069 0
M  V30 6162 C 556.701 -1.68019 -4.50914 0
M  V30 6163 C 559.053 -2.18542 -4.73169 0
M  V30 6164 C 556.381 -2.89828 -5.10114 0
M  V30 6165 C 558.733 -3.39602 -5.33717 0
M  V30 6166 C 557.397 -3.7562 -5.51784 0
M  V30 6167 H 556.667 -0.0382785 -0.740011 0
M  V30 6168 H 559.314 -0.790782 -1.7441 0
M  V30 6169 H 557.619 0.752715 -3.84502 0
M  V30 6170 H 559.316 0.389634 -3.99103 0
M  V30 6171 H 555.906 -1.03411 -4.15938 0
M  V30 6172 H 560.09 -1.92208 -4.5757 0
M  V30 6173 H 555.346 -3.17839 -5.22291 0
M  V30 6174 H 559.52 -4.06716 -5.65292 0
M  V30 6175 H 557.147 -4.70093 -5.97425 0
M  V30 6176 N 558.722 1.53707 -0.348139 0
M  V30 6177 C 559.968 2.01286 0.247332 0
M  V30 6178 C 560.301 1.23546 1.49834 0
M  V30 6179 O 559.576 0.324331 1.91777 0
M  V30 6180 C 559.859 3.55768 0.556858 0
M  V30 6181 C 559.712 4.44216 -0.706564 0
M  V30 6182 C 561.031 4.1841 1.3646 0
M  V30 6183 H 558.15 0.731677 0.0884201 0
M  V30 6184 H 560.792 1.84106 -0.469584 0
M  V30 6185 H 558.942 3.70539 1.16761 0
M  V30 6186 H 560.614 4.41274 -1.34444 0
M  V30 6187 H 558.857 4.12892 -1.33052 0
M  V30 6188 H 559.528 5.50202 -0.445186 0
M  V30 6189 H 562.004 4.07365 0.848113 0
M  V30 6190 H 560.88 5.26563 1.54992 0
M  V30 6191 H 561.141 3.7333 2.36805 0
M  V30 6192 N 560.2 0.0768682 1.57412 0
M  V30 6193 C 561.428 -0.59997 1.9801 0
M  V30 6194 C 561.843 -1.62842 0.955408 0
M  V30 6195 O 561.2 -1.8241 -0.057314 0
M  V30 6196 C 561.251 -1.26401 3.38681 0
M  V30 6197 O 560.972 -0.276723 4.37225 0
M  V30 6198 C 562.473 -2.0282 3.94182 0
M  V30 6199 H 559.693 -0.162239 0.651091 0
M  V30 6200 H 562.237 0.150771 2.03943 0
M  V30 6201 H 560.392 -1.96581 3.33819 0
M  V30 6202 H 560.806 -0.753744 5.19056 0
M  V30 6203 H 562.28 -2.44667 4.94815 0
M  V30 6204 H 562.757 -2.88678 3.31001 0
M  V30 6205 H 563.363 -1.37496 4.02461 0
M  V30 6206 N 561.678 -1.56367 -0.196722 0
M  V30 6207 C 562.608 -1.97442 -1.24655 0
M  V30 6208 C 563.589 -0.846147 -1.47561 0
M  V30 6209 O 564.774 -1.11035 -1.59326 0
M  V30 6210 C 561.904 -2.31253 -2.59112 0
M  V30 6211 C 560.858 -3.46804 -2.50821 0
M  V30 6212 C 560.184 -3.66286 -3.89536 0
M  V30 6213 C 561.484 -4.8104 -2.03465 0
M  V30 6214 H 563.178 -2.85388 -0.905216 0
M  V30 6215 H 560.724 -1.37304 -0.434002 0
M  V30 6216 H 562.677 -2.58583 -3.32736 0
M  V30 6217 H 561.401 -1.40188 -2.94983 0
M  V30 6218 H 560.06 -3.19563 -1.79653 0
M  V30 6219 H 559.708 -2.72555 -4.22756 0
M  V30 6220 H 559.408 -4.4402 -3.84864 0
M  V30 6221 H 560.932 -3.9599 -4.64784 0
M  V30 6222 H 562.346 -5.07411 -2.66846 0
M  V30 6223 H 560.743 -5.62232 -2.09798 0
M  V30 6224 H 561.813 -4.74732 -0.98781 0
M  V30 6225 N 563.156 0.464375 -1.50603 0
M  V30 6226 C 564.403 1.21596 -1.61928 0
M  V30 6227 C 564.731 1.91804 -0.322737 0
M  V30 6228 O 563.986 1.83065 0.691776 0
M  V30 6229 C 564.285 2.278 -2.75394 0
M  V30 6230 C 563.951 1.74797 -4.1564 0
M  V30 6231 C 562.613 1.60063 -4.53799 0
M  V30 6232 C 564.965 1.35548 -5.03266 0
M  V30 6233 C 562.293 1.04514 -5.77316 0
M  V30 6234 C 564.645 0.814381 -6.27336 0
M  V30 6235 C 563.309 0.653726 -6.64291 0
M  V30 6236 H 562.579 0.444951 -0.592536 0
M  V30 6237 H 565.226 0.510964 -1.84557 0
M  V30 6238 H 563.531 3.04233 -2.46879 0
M  V30 6239 H 565.228 2.85723 -2.81359 0
M  V30 6240 H 561.818 1.87234 -3.8554 0
M  V30 6241 H 566.002 1.45763 -4.74412 0
M  V30 6242 H 561.258 0.908186 -6.04617 0
M  V30 6243 H 565.432 0.501626 -6.94591 0
M  V30 6244 H 563.059 0.22114 -7.59878 0
M  V30 6245 N 564.634 1.40294 0.718013 0
M  V30 6246 C 565.882 1.38167 1.47494 0
M  V30 6247 C 566.203 -0.01607 1.94993 0
M  V30 6248 O 565.473 -0.970396 1.70177 0
M  V30 6249 H 564.053 0.508505 0.547203 0
M  V30 6250 H 566.715 1.75324 0.851322 0
M  V30 6251 H 565.811 2.05503 2.34894 0
M  V30 6252 N 566.112 -0.949982 1.2575 0
M  V30 6253 C 567.342 -1.72721 1.13363 0
M  V30 6254 C 567.75 -1.86562 -0.314842 0
M  V30 6255 O 567.093 -1.36621 -1.22803 0
M  V30 6256 C 567.155 -3.15695 1.7198 0
M  V30 6257 C 566.819 -3.25268 3.21014 0
M  V30 6258 C 567.816 -3.09222 4.17945 0
M  V30 6259 C 565.501 -3.4894 3.61312 0
M  V30 6260 C 567.495 -3.16701 5.53154 0
M  V30 6261 C 565.182 -3.56055 4.96657 0
M  V30 6262 C 566.18 -3.3995 5.92387 0
M  V30 6263 O 565.868 -3.46757 7.25269 0
M  V30 6264 H 565.6 -0.547888 0.395973 0
M  V30 6265 H 568.154 -1.20009 1.66694 0
M  V30 6266 H 566.384 -3.69791 1.13101 0
M  V30 6267 H 568.073 -3.75295 1.54624 0
M  V30 6268 H 568.839 -2.90798 3.88151 0
M  V30 6269 H 564.718 -3.60534 2.87291 0
M  V30 6270 H 568.262 -3.04048 6.27854 0
M  V30 6271 H 564.159 -3.73997 5.26115 0
M  V30 6272 H 564.927 -3.63358 7.33426 0
M  V30 6273 N 567.59 -1.07411 -1.15328 0
M  V30 6274 C 568.52 -0.716472 -2.22236 0
M  V30 6275 C 569.501 0.296373 -1.67498 0
M  V30 6276 O 570.686 0.168989 -1.93463 0
M  V30 6277 C 567.816 -0.114142 -3.47112 0
M  V30 6278 C 566.77 -1.05421 -4.14814 0
M  V30 6279 C 566.096 -0.314604 -5.33774 0
M  V30 6280 C 567.396 -2.38808 -4.64508 0
M  V30 6281 H 569.09 -1.61029 -2.52408 0
M  V30 6282 H 566.636 -0.775702 -1.21321 0
M  V30 6283 H 568.589 0.148001 -4.2114 0
M  V30 6284 H 567.313 0.814755 -3.16274 0
M  V30 6285 H 565.972 -1.30128 -3.42728 0
M  V30 6286 H 565.62 0.617772 -4.99192 0
M  V30 6287 H 565.32 -0.941209 -5.80013 0
M  V30 6288 H 566.844 -0.0602747 -6.1057 0
M  V30 6289 H 568.258 -2.18424 -5.3006 0
M  V30 6290 H 566.655 -2.97069 -5.21412 0
M  V30 6291 H 567.725 -3.01067 -3.80114 0
M  V30 6292 N 569.068 1.32177 -0.85831 0
M  V30 6293 C 570.315 1.97125 -0.463484 0
M  V30 6294 C 570.643 1.67907 0.981705 0
M  V30 6295 O 569.898 0.961717 1.70439 0
M  V30 6296 C 570.197 3.51372 -0.653658 0
M  V30 6297 C 569.863 4.00584 -2.06987 0
M  V30 6298 C 568.525 4.13733 -2.4572 0
M  V30 6299 C 570.877 4.26624 -2.99402 0
M  V30 6300 C 568.205 4.50268 -3.76132 0
M  V30 6301 C 570.557 4.64618 -4.29316 0
M  V30 6302 C 569.221 4.75975 -4.67979 0
M  V30 6303 H 568.491 0.72133 -0.169601 0
M  V30 6304 H 571.138 1.57517 -1.08907 0
M  V30 6305 H 569.443 3.91761 0.0551328 0
M  V30 6306 H 571.14 3.99655 -0.328163 0
M  V30 6307 H 567.73 3.90837 -1.75911 0
M  V30 6308 H 571.914 4.1597 -2.70708 0
M  V30 6309 H 567.17 4.57256 -4.05865 0
M  V30 6310 H 571.344 4.83722 -5.00985 0
M  V30 6311 H 568.971 5.04041 -5.69076 0
M  V30 6312 N 570.547 0.616602 1.45037 0
M  V30 6313 C 571.795 0.115103 2.01772 0
M  V30 6314 C 572.116 -1.2622 1.48639 0
M  V30 6315 O 571.386 -1.83563 0.684199 0
M  V30 6316 H 569.966 0.0395607 0.745952 0
M  V30 6317 H 572.628 0.800032 1.77723 0
M  V30 6318 H 571.724 0.0717274 3.12018 0
M  V30 6319 N 572.025 -1.5352 0.356285 0
M  V30 6320 C 573.25 -2.06007 -0.239961 0
M  V30 6321 C 573.675 -1.22872 -1.42422 0
M  V30 6322 O 573.033 -0.245516 -1.7963 0
M  V30 6323 C 573.081 -3.5522 -0.620587 0
M  V30 6324 O 572.185 -3.74864 -1.71902 0
M  V30 6325 H 571.526 -0.662961 -0.0371377 0
M  V30 6326 H 574.056 -1.98033 0.514194 0
M  V30 6327 H 574.066 -3.98081 -0.894197 0
M  V30 6328 H 572.741 -4.15175 0.245407 0
M  V30 6329 H 571.318 -3.43904 -1.44169 0
M  V30 6330 N 573.503 -0.0852151 -1.57369 0
M  V30 6331 C 574.752 0.580443 -1.93168 0
M  V30 6332 C 575.065 1.6995 -0.968319 0
M  V30 6333 O 576.271 2.42564 -1.21963 0
M  V30 6334 C 574.727 1.08386 -3.43192 0
M  V30 6335 C 574.335 -0.00491388 -4.48 0
M  V30 6336 C 576.079 1.72281 -3.87968 0
M  V30 6337 C 573.986 0.513299 -5.89168 0
M  V30 6338 H 572.916 0.22059 -0.72101 0
M  V30 6339 H 575.567 -0.159621 -1.82804 0
M  V30 6340 H 573.949 1.8773 -3.48674 0
M  V30 6341 H 575.123 -0.780032 -4.5415 0
M  V30 6342 H 573.438 -0.548453 -4.12772 0
M  V30 6343 H 576.035 2.12108 -4.9083 0
M  V30 6344 H 576.378 2.58811 -3.26071 0
M  V30 6345 H 576.911 0.995359 -3.85146 0
M  V30 6346 H 573.65 -0.315153 -6.54742 0
M  V30 6347 H 573.17 1.25564 -5.8651 0
M  V30 6348 H 574.849 0.985433 -6.39451 0
M  V30 6349 N 574.981 1.5647 0.188427 0
M  V30 6350 C 576.23 1.80207 0.905995 0
M  V30 6351 C 576.543 0.659579 1.84144 0
M  V30 6352 O 577.749 0.781431 2.60011 0
M  V30 6353 C 576.205 3.19255 1.66145 0
M  V30 6354 C 575.813 4.41324 0.770504 0
M  V30 6355 C 577.557 3.52298 2.36826 0
M  V30 6356 C 575.464 5.71394 1.52521 0
M  V30 6357 H 574.394 0.671953 0.342045 0
M  V30 6358 H 577.045 1.82808 0.159164 0
M  V30 6359 H 575.427 3.10922 2.45242 0
M  V30 6360 H 576.601 4.60797 0.0177261 0
M  V30 6361 H 574.916 4.16035 0.174199 0
M  V30 6362 H 577.513 4.46715 2.93854 0
M  V30 6363 H 577.856 2.76359 3.11338 0
M  V30 6364 H 578.389 3.62108 1.6469 0
M  V30 6365 H 575.128 6.50316 0.82275 0
M  V30 6366 H 574.648 5.55928 2.25175 0
M  V30 6367 H 576.327 6.12747 2.07725 0
M  V30 6368 N 576.459 -0.456382 1.50847 0
M  V30 6369 C 577.689 -1.22848 1.66108 0
M  V30 6370 C 578.097 -1.85936 0.349897 0
M  V30 6371 O 577.44 -1.70664 -0.679665 0
M  V30 6372 C 577.502 -2.36722 2.70561 0
M  V30 6373 C 577.166 -1.94154 4.13707 0
M  V30 6374 C 578.163 -1.4557 4.99105 0
M  V30 6375 C 575.848 -2.02426 4.59705 0
M  V30 6376 C 577.842 -1.0582 6.28555 0
M  V30 6377 C 575.529 -1.62287 5.89157 0
M  V30 6378 C 576.527 -1.14064 6.73408 0
M  V30 6379 O 576.215 -0.744873 8.00442 0
M  V30 6380 H 575.947 -0.377105 0.561042 0
M  V30 6381 H 578.501 -0.549431 1.97915 0
M  V30 6382 H 576.731 -3.07844 2.34027 0
M  V30 6383 H 578.42 -2.98646 2.74892 0
M  V30 6384 H 579.186 -1.38589 4.64777 0
M  V30 6385 H 575.065 -2.38908 3.94264 0
M  V30 6386 H 578.609 -0.6811 6.94267 0
M  V30 6387 H 574.506 -1.68932 6.23003 0
M  V30 6388 H 575.274 -0.87242 8.13837 0
M  V30 6389 N 577.937 -1.40673 -0.710563 0
M  V30 6390 C 579.353 -1.22813 -1.01928 0
M  V30 6391 C 579.553 -0.10687 -2.01216 0
M  V30 6392 O 578.609 0.533614 -2.46797 0
M  V30 6393 C 579.922 -2.57178 -1.5582 0
M  V30 6394 C 581.47 -2.64233 -1.67779 0
M  V30 6395 C 581.945 -3.98879 -2.25076 0
M  V30 6396 N 583.436 -4.00647 -2.32456 0
M  V30 6397 C 584.171 -5.01621 -2.77784 0
M  V30 6398 N 583.667 -6.12989 -3.22826 0
M  V30 6399 N 585.46 -4.88988 -2.77213 0
M  V30 6400 H 577.611 -2.12335 -0.05253 0
M  V30 6401 H 579.874 -0.9441 -0.085898 0
M  V30 6402 H 579.58 -3.39903 -0.903249 0
M  V30 6403 H 579.454 -2.78618 -2.54267 0
M  V30 6404 H 581.841 -1.81876 -2.3239 0
M  V30 6405 H 581.922 -2.46619 -0.679178 0
M  V30 6406 H 581.566 -4.81678 -1.61086 0
M  V30 6407 H 581.496 -4.13826 -3.25661 0
M  V30 6408 H 583.987 -3.20231 -2.0065 0
M  V30 6409 H 584.3 -6.85921 -3.55995 0
M  V30 6410 H 582.645 -6.16547 -3.20773 0
M  V30 6411 H 585.836 -4.01075 -2.41363 0
M  V30 6412 H 586.009 -5.67822 -3.12221 0
M  V30 6413 N 579.415 0.9433 -1.26252 0
M  V30 6414 C 580.661 1.69175 -1.11837 0
M  V30 6415 C 580.994 1.91238 0.337891 0
M  V30 6416 O 580.269 1.49152 1.24836 0
M  V30 6417 C 580.552 3.06783 -1.88563 0
M  V30 6418 C 580.405 2.9206 -3.42083 0
M  V30 6419 C 581.724 4.06865 -1.67776 0
M  V30 6420 H 578.843 0.61399 -0.407658 0
M  V30 6421 H 581.485 1.09572 -1.55222 0
M  V30 6422 H 579.635 3.57663 -1.51689 0
M  V30 6423 H 581.307 2.48419 -3.88698 0
M  V30 6424 H 579.55 2.27731 -3.69217 0
M  V30 6425 H 580.221 3.89651 -3.90994 0
M  V30 6426 H 582.697 3.64939 -1.99897 0
M  V30 6427 H 581.573 5.01168 -2.23879 0
M  V30 6428 H 581.834 4.37705 -0.621816 0
M  V30 6429 N 580.893 1.08022 1.14757 0
M  V30 6430 C 582.141 0.805913 1.85336 0
M  V30 6431 C 582.462 -0.670162 1.83122 0
M  V30 6432 O 581.732 -1.48567 1.2769 0
M  V30 6433 H 580.312 0.295138 0.686223 0
M  V30 6434 H 582.974 1.36538 1.3908 0
M  V30 6435 H 582.07 1.14655 2.90277 0
M  V30 6436 N 582.371 -1.3172 0.865308 0
M  V30 6437 C 583.319 -2.30569 0.306674 0
M  V30 6438 C 584.313 -1.59317 -0.575724 0
M  V30 6439 O 585.519 -1.73961 -0.462343 0
M  V30 6440 H 581.894 -0.747681 0.0804834 0
M  V30 6441 H 583.865 -2.75165 1.15441 0
M  V30 6442 C 582.614 -3.44358 -0.480952 0
M  V30 6443 H 581.937 -3.99354 0.18876 0
M  V30 6444 H 583.377 -4.15652 -0.837241 0
M  V30 6445 C 581.836 -2.92574 -1.67039 0
M  V30 6446 O 582.366 -2.90954 -2.76964 0
M  V30 6447 N 580.572 -2.48835 -1.50097 0
M  V30 6448 H 580.119 -2.50353 -0.606738 0
M  V30 6449 H 580.077 -2.14543 -2.29823 0
M  V30 6450 N 583.85 -0.624285 -1.44708 0
M  V30 6451 C 585.099 -0.123539 -2.01321 0
M  V30 6452 C 585.412 1.25966 -1.49639 0
M  V30 6453 O 586.618 1.85405 -1.98336 0
M  V30 6454 C 585.074 -0.170124 -3.59498 0
M  V30 6455 C 584.682 -1.55421 -4.20176 0
M  V30 6456 C 586.426 0.274513 -4.23611 0
M  V30 6457 C 584.332 -1.55628 -5.70556 0
M  V30 6458 H 583.263 -0.0424183 -0.752806 0
M  V30 6459 H 585.913 -0.782076 -1.65999 0
M  V30 6460 H 584.296 0.555385 -3.92086 0
M  V30 6461 H 585.47 -2.30276 -3.99136 0
M  V30 6462 H 583.784 -1.94235 -3.68323 0
M  V30 6463 H 586.382 0.292402 -5.339 0
M  V30 6464 H 586.725 1.3005 -3.95465 0
M  V30 6465 H 587.258 -0.398275 -3.95801 0
M  V30 6466 H 583.997 -2.56041 -6.03426 0
M  V30 6467 H 583.517 -0.850563 -5.93739 0
M  V30 6468 H 585.196 -1.28721 -6.34066 0
M  V30 6469 N 585.328 1.53329 -0.364422 0
M  V30 6470 C 586.577 2.00421 0.226747 0
M  V30 6471 C 586.89 1.25581 1.49963 0
M  V30 6472 O 588.096 1.63256 2.16933 0
M  V30 6473 C 586.552 3.57017 0.454618 0
M  V30 6474 C 586.16 4.40734 -0.803568 0
M  V30 6475 C 587.904 4.12468 1.00351 0
M  V30 6476 C 585.811 5.8888 -0.545345 0
M  V30 6477 H 584.741 0.748787 0.0885082 0
M  V30 6478 H 587.392 1.7703 -0.482983 0
M  V30 6479 H 585.774 3.76558 1.22558 0
M  V30 6480 H 586.948 4.32967 -1.57723 0
M  V30 6481 H 585.263 3.96381 -1.27559 0
M  V30 6482 H 587.86 5.20783 1.212 0
M  V30 6483 H 588.203 3.6699 1.9653 0
M  V30 6484 H 588.736 3.96721 0.29274 0
M  V30 6485 H 585.475 6.38633 -1.47743 0
M  V30 6486 H 584.995 5.99499 0.189842 0
M  V30 6487 H 586.674 6.46776 -0.170425 0
M  V30 6488 N 586.806 0.0935595 1.57322 0
M  V30 6489 C 587.736 -0.863062 2.16964 0
M  V30 6490 C 588.717 -1.29528 1.10256 0
M  V30 6491 O 589.902 -1.36245 1.38387 0
M  V30 6492 C 587.032 -2.12276 2.74875 0
M  V30 6493 C 585.986 -1.82921 3.86942 0
M  V30 6494 C 585.312 -3.15707 4.31548 0
M  V30 6495 C 586.612 -1.11737 5.10208 0
M  V30 6496 H 588.306 -0.366145 2.97153 0
M  V30 6497 H 585.852 -0.174673 1.42937 0
M  V30 6498 H 587.805 -2.79634 3.1525 0
M  V30 6499 H 586.529 -2.64248 1.91938 0
M  V30 6500 H 585.188 -1.17961 3.47103 0
M  V30 6501 H 584.836 -3.65563 3.45504 0
M  V30 6502 H 584.536 -2.96849 5.07104 0
M  V30 6503 H 586.06 -3.84226 4.74555 0
M  V30 6504 H 587.474 -1.69203 5.47762 0
M  V30 6505 H 585.871 -1.03064 5.91183 0
M  V30 6506 H 586.941 -0.0998818 4.84797 0
M  V30 6507 N 588.284 -1.56567 -0.180126 0
M  V30 6508 C 589.194 -1.98947 -1.24327 0
M  V30 6509 C 590.21 -0.899446 -1.4895 0
M  V30 6510 O 591.386 -1.20639 -1.61271 0
M  V30 6511 C 588.451 -2.33328 -2.56435 0
M  V30 6512 C 587.512 -3.56114 -2.39752 0
M  V30 6513 C 586.745 -3.88845 -3.65561 0
M  V30 6514 O 586.968 -3.22662 -4.70368 0
M  V30 6515 O 585.902 -4.82226 -3.60197 0
M  V30 6516 H 589.728 -2.89634 -0.913565 0
M  V30 6517 H 587.313 -1.44319 -0.386306 0
M  V30 6518 H 589.195 -2.5645 -3.34382 0
M  V30 6519 H 587.87 -1.45806 -2.89002 0
M  V30 6520 H 586.777 -3.38221 -1.59866 0
M  V30 6521 H 588.11 -4.4415 -2.12113 0
M  V30 6522 N 589.762 0.448376 -1.51087 0
M  V30 6523 C 591.178 0.783984 -1.39017 0
M  V30 6524 C 591.378 1.96087 -0.463904 0
M  V30 6525 O 590.434 2.52357 0.0850534 0
M  V30 6526 C 591.747 1.07471 -2.80839 0
M  V30 6527 C 593.295 1.17981 -2.89913 0
M  V30 6528 C 593.77 1.50354 -4.32617 0
M  V30 6529 N 595.261 1.57301 -4.35673 0
M  V30 6530 C 595.996 1.839 -5.4311 0
M  V30 6531 N 595.492 2.08365 -6.60724 0
M  V30 6532 N 597.285 1.8559 -5.30578 0
M  V30 6533 H 589.436 -0.326881 -2.0987 0
M  V30 6534 H 591.699 -0.0838006 -0.944289 0
M  V30 6535 H 591.405 0.282768 -3.50561 0
M  V30 6536 H 591.279 2.00519 -3.19487 0
M  V30 6537 H 593.666 1.9624 -2.20395 0
M  V30 6538 H 593.747 0.228603 -2.54776 0
M  V30 6539 H 593.391 0.726273 -5.0268 0
M  V30 6540 H 593.321 2.46663 -4.65258 0
M  V30 6541 H 595.812 1.40342 -3.50874 0
M  V30 6542 H 596.125 2.27999 -7.38401 0
M  V30 6543 H 594.47 2.0571 -6.63859 0
M  V30 6544 H 597.661 1.65989 -4.37682 0
M  V30 6545 H 597.834 2.05983 -6.1439 0
M  V30 6546 N 591.24 1.41047 0.703093 0
M  V30 6547 C 592.187 1.42302 1.81711 0
M  V30 6548 C 593.157 0.278336 1.63751 0
M  V30 6549 O 594.342 0.478266 1.84709 0
M  V30 6550 C 591.482 1.30362 3.19531 0
M  V30 6551 C 590.595 2.54638 3.48975 0
M  V30 6552 C 589.73 2.35047 4.76368 0
M  V30 6553 C 588.769 3.54837 4.98756 0
M  V30 6554 N 587.906 3.34363 6.1737 0
M  V30 6555 H 592.746 2.37516 1.79973 0
M  V30 6556 H 590.283 1.1795 0.878983 0
M  V30 6557 H 592.241 1.21443 3.99134 0
M  V30 6558 H 590.871 0.387602 3.20464 0
M  V30 6559 H 589.923 2.74037 2.63833 0
M  V30 6560 H 591.235 3.43766 3.61423 0
M  V30 6561 H 590.389 2.23552 5.64012 0
M  V30 6562 H 589.128 1.43363 4.66153 0
M  V30 6563 H 588.133 3.66795 4.09563 0
M  V30 6564 H 589.358 4.47464 5.10835 0
M  V30 6565 H 587.304 2.45373 6.08382 0
M  V30 6566 H 587.221 4.17063 6.30551 0
M  V30 6567 H 588.489 3.26626 7.07768 0
M  V30 6568 N 592.718 -0.936591 1.26751 0
M  V30 6569 C 593.665 -2.03597 1.08706 0
M  V30 6570 C 594.635 -1.66097 -0.00926542 0
M  V30 6571 O 595.82 -1.90199 0.151377 0
M  V30 6572 C 592.96 -3.3727 0.73094 0
M  V30 6573 C 592.073 -3.87778 1.90399 0
M  V30 6574 C 591.208 -5.09859 1.49056 0
M  V30 6575 C 590.247 -5.5264 2.63164 0
M  V30 6576 N 589.384 -6.65921 2.22471 0
M  V30 6577 H 594.224 -2.18364 2.02784 0
M  V30 6578 H 591.761 -1.06985 1.00958 0
M  V30 6579 H 593.719 -4.14128 0.505328 0
M  V30 6580 H 592.349 -3.22337 -0.172868 0
M  V30 6581 H 591.401 -3.07279 2.2424 0
M  V30 6582 H 592.713 -4.15464 2.76028 0
M  V30 6583 H 591.867 -5.9419 1.22567 0
M  V30 6584 H 590.606 -4.8393 0.60524 0
M  V30 6585 H 589.611 -4.66863 2.90377 0
M  V30 6586 H 590.836 -5.80568 3.52303 0
M  V30 6587 H 588.782 -6.41667 1.36379 0
M  V30 6588 H 588.699 -6.93216 3.01641 0
M  V30 6589 H 589.967 -7.53616 1.99205 0
M  V30 6590 N 594.196 -1.08629 -1.14182 0
M  V30 6591 C 595.129 -0.662329 -2.18377 0
M  V30 6592 C 596.107 0.327054 -1.59277 0
M  V30 6593 O 597.291 0.230376 -1.87087 0
M  V30 6594 C 594.418 0.0254765 -3.3869 0
M  V30 6595 C 593.464 -0.924414 -4.16361 0
M  V30 6596 S 594.297 -2.43226 -4.77076 0
M  V30 6597 C 595.453 -1.75663 -6.00744 0
M  V30 6598 H 595.686 -1.54501 -2.54001 0
M  V30 6599 H 593.219 -0.901484 -1.2535 0
M  V30 6600 H 595.177 0.416032 -4.08386 0
M  V30 6601 H 593.838 0.884689 -3.01384 0
M  V30 6602 H 593.031 -0.390099 -5.02488 0
M  V30 6603 H 592.633 -1.25598 -3.5228 0
M  V30 6604 H 594.925 -1.07589 -6.68903 0
M  V30 6605 H 595.868 -2.59673 -6.58768 0
M  V30 6606 H 596.276 -1.22903 -5.50958 0
M  V30 6607 N 595.674 1.31259 -0.872281 0
M  V30 6608 C 597.09 1.49283 -0.564521 0
M  V30 6609 C 597.29 1.80243 0.900807 0
M  V30 6610 O 596.346 1.88246 1.68284 0
M  V30 6611 C 597.659 2.62503 -1.46673 0
M  V30 6612 C 599.207 2.76386 -1.46901 0
M  V30 6613 C 599.682 3.92705 -2.35684 0
M  V30 6614 N 601.173 3.99995 -2.33577 0
M  V30 6615 C 601.908 4.89276 -2.98992 0
M  V30 6616 N 601.404 5.83443 -3.73585 0
M  V30 6617 N 603.197 4.82541 -2.88289 0
M  V30 6618 H 595.348 1.09432 -1.82039 0
M  V30 6619 H 597.611 0.540949 -0.77851 0
M  V30 6620 H 597.317 2.46407 -2.50951 0
M  V30 6621 H 597.191 3.58695 -1.16696 0
M  V30 6622 H 599.578 2.91894 -0.433796 0
M  V30 6623 H 599.659 1.80853 -1.80903 0
M  V30 6624 H 599.303 3.77954 -3.39283 0
M  V30 6625 H 599.233 4.87549 -1.99006 0
M  V30 6626 H 601.724 3.32624 -1.7936 0
M  V30 6627 H 602.037 6.48303 -4.20622 0
M  V30 6628 H 600.382 5.83415 -3.77694 0
M  V30 6629 H 603.573 4.07951 -2.2955 0
M  V30 6630 H 603.746 5.51916 -3.39549 0
M  V30 6631 N 597.152 0.631951 1.44375 0
M  V30 6632 C 598.1 -0.0846693 2.32446 0
M  V30 6633 C 599.094 -0.834957 1.47393 0
M  V30 6634 O 600.3 -0.747764 1.63733 0
M  V30 6635 H 596.675 -0.0461508 0.750583 0
M  V30 6636 H 598.646 0.67619 2.90638 0
M  V30 6637 C 597.395 -1.05211 3.314 0
M  V30 6638 H 596.718 -0.484203 3.96857 0
M  V30 6639 H 598.158 -1.523 3.95703 0
M  V30 6640 C 596.617 -2.13776 2.60387 0
M  V30 6641 O 597.147 -3.21869 2.4034 0
M  V30 6642 N 595.353 -1.89733 2.20113 0
M  V30 6643 H 594.9 -1.01833 2.36618 0
M  V30 6644 H 594.858 -2.62572 1.72926 0
M  V30 6645 N 598.631 -1.53133 0.372548 0
M  V30 6646 C 599.541 -2.29671 -0.478379 0
M  V30 6647 C 600.557 -1.35913 -1.08644 0
M  V30 6648 O 601.733 -1.68975 -1.09588 0
M  V30 6649 C 598.798 -3.07625 -1.599 0
M  V30 6650 C 597.859 -4.17061 -1.01776 0
M  V30 6651 C 597.092 -4.91289 -2.08497 0
M  V30 6652 O 597.315 -4.65442 -3.29727 0
M  V30 6653 O 596.249 -5.7705 -1.71164 0
M  V30 6654 H 600.075 -3.03355 0.144649 0
M  V30 6655 H 597.66 -1.48773 0.136729 0
M  V30 6656 H 599.542 -3.56281 -2.25038 0
M  V30 6657 H 598.217 -2.3677 -2.2073 0
M  V30 6658 H 597.124 -3.72641 -0.330098 0
M  V30 6659 H 598.457 -4.90102 -0.453915 0
M  V30 6660 N 600.109 -0.101901 -1.5727 0
M  V30 6661 C 601.019 0.868647 -2.17926 0
M  V30 6662 C 602.035 1.30527 -1.1506 0
M  V30 6663 O 603.211 1.37178 -1.47459 0
M  V30 6664 C 600.276 2.10727 -2.75309 0
M  V30 6665 C 599.337 1.7242 -3.93154 0
M  V30 6666 C 598.57 2.90377 -4.47791 0
M  V30 6667 O 598.793 4.05305 -4.01353 0
M  V30 6668 O 597.727 2.6845 -5.38719 0
M  V30 6669 H 601.553 0.382544 -3.01281 0
M  V30 6670 H 599.138 0.122812 -1.48894 0
M  V30 6671 H 601.02 2.83303 -3.11958 0
M  V30 6672 H 599.695 2.58376 -1.94996 0
M  V30 6673 H 598.602 0.970039 -3.61305 0
M  V30 6674 H 599.935 1.29528 -4.74851 0
M  V30 6675 N 601.587 1.56661 0.17182 0
M  V30 6676 C 602.535 1.97289 1.23207 0
M  V30 6677 C 603.529 0.861566 1.45854 0
M  V30 6678 O 604.735 1.04668 1.4644 0
M  V30 6679 H 601.11 0.627681 0.41415 0
M  V30 6680 H 603.081 2.85662 0.862542 0
M  V30 6681 C 601.83 2.34849 2.564 0
M  V30 6682 H 601.153 3.19903 2.39797 0
M  V30 6683 H 602.593 2.67121 3.29276 0
M  V30 6684 C 601.052 1.19172 3.15119 0
M  V30 6685 O 601.582 0.479113 3.98833 0
M  V30 6686 N 599.788 0.962415 2.74201 0
M  V30 6687 H 599.335 1.54365 2.06226 0
M  V30 6688 H 599.293 0.190272 3.13824 0
M  V30 6689 N 603.065 -0.440357 1.51323 0
M  V30 6690 C 603.975 -1.55955 1.75258 0
M  V30 6691 C 604.991 -1.61933 0.636687 0
M  V30 6692 O 606.167 -1.79231 0.918593 0
M  V30 6693 C 603.232 -2.9196 1.86977 0
M  V30 6694 C 602.293 -2.96122 3.10822 0
M  V30 6695 C 601.526 -4.2564 3.21973 0
M  V30 6696 O 601.749 -5.17851 2.39137 0
M  V30 6697 O 600.683 -4.36025 4.14929 0
M  V30 6698 H 604.509 -1.38673 2.70191 0
M  V30 6699 H 602.094 -0.623055 1.35788 0
M  V30 6700 H 603.976 -3.72682 1.96688 0
M  V30 6701 H 602.651 -3.09375 0.952307 0
M  V30 6702 H 601.558 -2.14366 3.06591 0
M  V30 6703 H 602.891 -2.83651 4.02247 0
M  V30 6704 N 604.543 -1.41418 -0.695603 0
M  V30 6705 C 605.82 -1.31264 -1.45014 0
M  V30 6706 C 606.2 0.0597994 -2.11015 0
M  V30 6707 O 605.548 1.07403 -2.01685 0
M  V30 6708 C 605.758 -2.466 -2.4696 0
M  V30 6709 C 607.106 -2.87763 -3.12214 0
M  V30 6710 O 608.13 -2.46339 -2.57285 0
M  V30 6711 O 606.989 -3.59395 -4.11701 0
M  V30 6712 H 604.083 -0.516576 -0.645816 0
M  V30 6713 H 606.629 -1.53382 -0.726084 0
M  V30 6714 H 605.401 -3.38183 -1.96845 0
M  V30 6715 H 605.024 -2.26358 -3.26876 0
M  V30 6716 N 606.021 0.929856 -1.27246 0
M  V30 6717 C 607.246 1.71674 -1.16374 0
M  V30 6718 C 607.671 1.86064 0.276024 0
M  V30 6719 O 607.029 1.3591 1.19992 0
M  V30 6720 C 607.077 3.09526 -1.85003 0
M  V30 6721 O 606.181 3.96142 -1.14653 0
M  V30 6722 H 605.522 0.52629 -0.404863 0
M  V30 6723 H 608.052 1.16381 -1.68276 0
M  V30 6724 H 608.062 3.59852 -1.92276 0
M  V30 6725 H 606.737 2.98369 -2.89739 0
M  V30 6726 H 605.314 3.54584 -1.15433 0
M  V30 6727 N 607.499 1.09233 1.13605 0
M  V30 6728 C 608.409 0.741939 2.22559 0
M  V30 6729 C 609.425 -0.255236 1.72118 0
M  V30 6730 O 610.601 -0.0970747 2.01166 0
M  V30 6731 C 607.666 0.165595 3.46304 0
M  V30 6732 C 606.727 1.21846 4.11645 0
M  V30 6733 C 605.96 0.669526 5.29484 0
M  V30 6734 O 606.183 -0.508228 5.68131 0
M  V30 6735 O 605.117 1.42361 5.84822 0
M  V30 6736 H 608.943 1.65107 2.54899 0
M  V30 6737 H 606.528 0.866584 1.21699 0
M  V30 6738 H 608.41 -0.152592 4.21124 0
M  V30 6739 H 607.085 -0.716573 3.15669 0
M  V30 6740 H 605.992 1.58931 3.38662 0
M  V30 6741 H 607.325 2.07321 4.46407 0
M  V30 6742 N 608.977 -1.30795 0.87923 0
M  V30 6743 C 610.225 -1.95974 0.493809 0
M  V30 6744 C 610.546 -1.69787 -0.959021 0
M  V30 6745 O 609.816 -1.01832 -1.67353 0
M  V30 6746 H 608.396 -0.725083 0.179622 0
M  V30 6747 H 611.058 -1.59432 1.12105 0
M  V30 6748 H 610.154 -3.05058 0.659263 0
M  V30 6749 N 610.455 -0.639598 -1.44038 0
M  V30 6750 C 611.365 0.0612377 -2.3452 0
M  V30 6751 C 612.381 0.826717 -1.53106 0
M  V30 6752 O 613.557 0.777059 -1.85806 0
M  V30 6753 C 610.622 1.02492 -3.31204 0
M  V30 6754 C 609.683 0.25788 -4.28525 0
M  V30 6755 C 608.916 1.17566 -5.2059 0
M  V30 6756 O 609.139 2.41461 -5.16771 0
M  V30 6757 O 608.073 0.655407 -5.98321 0
M  V30 6758 H 611.899 -0.68318 -2.95916 0
M  V30 6759 H 609.484 -0.399784 -1.43952 0
M  V30 6760 H 611.366 1.57911 -3.90694 0
M  V30 6761 H 610.041 1.7498 -2.7233 0
M  V30 6762 H 608.948 -0.339566 -3.72556 0
M  V30 6763 H 610.281 -0.427154 -4.90343 0
M  V30 6764 N 611.933 1.52934 -0.380664 0
M  V30 6765 C 612.863 2.29118 0.450268 0
M  V30 6766 C 613.844 1.32153 1.07096 0
M  V30 6767 O 615.029 1.61038 1.08537 0
M  V30 6768 C 612.159 3.09161 1.58231 0
M  V30 6769 C 611.113 4.13938 1.0881 0
M  V30 6770 C 610.439 4.82153 2.31155 0
M  V30 6771 C 611.739 5.22048 0.162146 0
M  V30 6772 H 613.433 2.98826 -0.185361 0
M  V30 6773 H 610.979 1.43715 -0.0905886 0
M  V30 6774 H 612.932 3.61211 2.17036 0
M  V30 6775 H 611.656 2.3717 2.2454 0
M  V30 6776 H 610.315 3.62855 0.522633 0
M  V30 6777 H 609.963 4.06719 2.95953 0
M  V30 6778 H 609.663 5.52966 1.98752 0
M  V30 6779 H 611.187 5.37004 2.90618 0
M  V30 6780 H 612.601 5.6951 0.658126 0
M  V30 6781 H 610.998 6.00057 -0.0717122 0
M  V30 6782 H 612.068 4.78398 -0.791438 0
M  V30 6783 N 613.412 0.11024 1.57214 0
M  V30 6784 C 614.64 -0.557834 1.99238 0
M  V30 6785 C 615.055 -1.60778 0.989734 0
M  V30 6786 O 614.412 -1.82491 -0.0186092 0
M  V30 6787 C 614.463 -1.19189 3.41286 0
M  V30 6788 O 614.184 -0.183919 4.37714 0
M  V30 6789 C 615.685 -1.94413 3.98395 0
M  V30 6790 H 612.905 -0.148392 0.654386 0
M  V30 6791 H 615.449 0.193996 2.03578 0
M  V30 6792 H 613.604 -1.89456 3.37913 0
M  V30 6793 H 614.018 -0.643475 5.20538 0
M  V30 6794 H 615.492 -2.34116 4.99894 0
M  V30 6795 H 615.969 -2.81592 3.3705 0
M  V30 6796 H 616.575 -1.28928 4.05287 0
M  V30 6797 N 614.89 -1.56749 -0.16351 0
M  V30 6798 C 615.838 -1.97939 -1.22159 0
M  V30 6799 C 616.832 -0.869288 -1.45395 0
M  V30 6800 O 618.038 -1.05443 -1.45883 0
M  V30 6801 H 614.413 -0.629869 -0.410815 0
M  V30 6802 H 616.384 -2.86115 -0.847381 0
M  V30 6803 C 615.133 -2.36206 -2.55151 0
M  V30 6804 H 614.456 -3.2117 -2.38097 0
M  V30 6805 H 615.896 -2.68863 -3.27854 0
M  V30 6806 C 614.355 -1.20841 -3.14482 0
M  V30 6807 O 614.885 -0.500258 -3.98573 0
M  V30 6808 N 613.091 -0.976943 -2.73686 0
M  V30 6809 H 612.638 -1.55457 -2.05404 0
M  V30 6810 H 612.596 -0.206912 -3.13718 0
M  V30 6811 N 616.368 0.432326 -1.51554 0
M  V30 6812 C 617.614 1.18309 -1.64714 0
M  V30 6813 C 617.947 1.90745 -0.364696 0
M  V30 6814 O 617.222 1.8381 0.635936 0
M  V30 6815 C 617.505 2.1961 -2.85383 0
M  V30 6816 C 617.358 1.51223 -4.23617 0
M  V30 6817 C 618.677 3.20538 -3.01569 0
M  V30 6818 H 615.796 0.428751 -0.599451 0
M  V30 6819 H 618.438 0.471689 -1.84052 0
M  V30 6820 H 616.588 2.8028 -2.69027 0
M  V30 6821 H 618.26 0.938516 -4.51652 0
M  V30 6822 H 616.503 0.814501 -4.26085 0
M  V30 6823 H 617.174 2.25024 -5.04052 0
M  V30 6824 H 619.65 2.69926 -3.16669 0
M  V30 6825 H 618.526 3.88706 -3.87555 0
M  V30 6826 H 618.787 3.86933 -2.13859 0
M  V30 6827 N 617.846 1.41785 0.688094 0
M  V30 6828 C 619.123 1.32031 1.44316 0
M  V30 6829 C 619.503 -0.0486079 2.11044 0
M  V30 6830 O 618.851 -1.06332 2.02252 0
M  V30 6831 C 619.061 2.47906 2.45649 0
M  V30 6832 C 620.409 2.89415 3.10683 0
M  V30 6833 O 621.433 2.477 2.55975 0
M  V30 6834 O 620.292 3.61573 4.09789 0
M  V30 6835 H 617.386 0.519994 0.643067 0
M  V30 6836 H 619.932 1.53765 0.71794 0
M  V30 6837 H 618.704 3.39222 1.95048 0
M  V30 6838 H 618.327 2.28089 3.25671 0
M  V30 6839 N 619.324 -0.923095 1.27737 0
M  V30 6840 C 620.549 -1.71054 1.17283 0
M  V30 6841 C 620.974 -1.86208 -0.266153 0
M  V30 6842 O 620.332 -1.36545 -1.1927 0
M  V30 6843 C 620.38 -3.0854 1.86642 0
M  V30 6844 O 619.484 -3.95528 1.16752 0
M  V30 6845 H 618.825 -0.524136 0.407649 0
M  V30 6846 H 621.355 -1.15487 1.6889 0
M  V30 6847 H 621.365 -3.58828 1.94182 0
M  V30 6848 H 620.04 -2.96828 2.91317 0
M  V30 6849 H 618.617 -3.53967 1.17312 0
M  V30 6850 N 620.802 -1.09834 -1.13024 0
M  V30 6851 C 622.051 -0.831806 -1.83749 0
M  V30 6852 C 622.364 0.644763 -1.84668 0
M  V30 6853 O 623.57 1.02697 -2.51327 0
M  V30 6854 C 622.026 -1.43817 -3.29916 0
M  V30 6855 C 621.634 -2.94759 -3.37374 0
M  V30 6856 C 623.378 -1.25077 -4.05655 0
M  V30 6857 C 621.285 -3.48461 -4.77838 0
M  V30 6858 H 620.215 -0.30751 -0.688443 0
M  V30 6859 H 622.866 -1.32156 -1.27307 0
M  V30 6860 H 621.248 -0.876106 -3.86187 0
M  V30 6861 H 622.422 -3.57228 -2.91076 0
M  V30 6862 H 620.737 -3.12581 -2.75103 0
M  V30 6863 H 623.334 -1.62649 -5.09362 0
M  V30 6864 H 623.677 -0.191782 -4.15858 0
M  V30 6865 H 624.21 -1.78057 -3.55725 0
M  V30 6866 H 620.949 -4.53998 -4.72828 0
M  V30 6867 H 620.469 -2.90757 -5.24615 0
M  V30 6868 H 622.148 -3.45914 -5.46766 0
M  V30 6869 N 622.28 1.30327 -0.886154 0
M  V30 6870 C 623.529 1.95373 -0.501243 0
M  V30 6871 C 623.842 1.70722 0.954634 0
M  V30 6872 O 625.048 2.29761 1.44644 0
M  V30 6873 C 623.504 3.49828 -0.845493 0
M  V30 6874 C 623.112 3.83296 -2.31922 0
M  V30 6875 C 624.856 4.2118 -0.529838 0
M  V30 6876 C 622.763 5.30935 -2.60504 0
M  V30 6877 H 621.693 0.731274 -0.183722 0
M  V30 6878 H 624.344 1.48258 -1.08129 0
M  V30 6879 H 622.726 3.95522 -0.19452 0
M  V30 6880 H 623.9 3.48508 -3.01461 0
M  V30 6881 H 622.215 3.2505 -2.60253 0
M  V30 6882 H 624.812 5.29825 -0.720401 0
M  V30 6883 H 625.155 4.12902 0.530828 0
M  V30 6884 H 625.688 3.81173 -1.13806 0
M  V30 6885 H 622.427 5.44265 -3.65316 0
M  V30 6886 H 621.947 5.67019 -1.95575 0
M  V30 6887 H 623.626 5.98381 -2.46066 0
M  V30 6888 N 623.758 0.647228 1.43697 0
M  V30 6889 C 624.986 0.16575 2.06235 0
M  V30 6890 C 625.401 -1.1662 1.48476 0
M  V30 6891 O 624.758 -1.7187 0.613762 0
M  V30 6892 C 624.809 0.0621651 3.61447 0
M  V30 6893 O 624.53 1.34146 4.17057 0
M  V30 6894 C 626.031 -0.446102 4.4105 0
M  V30 6895 H 623.251 0.0871158 0.665321 0
M  V30 6896 H 625.795 0.886183 1.84301 0
M  V30 6897 H 623.95 -0.608794 3.82587 0
M  V30 6898 H 624.364 1.19675 5.10664 0
M  V30 6899 H 625.838 -0.46755 5.50016 0
M  V30 6900 H 626.315 -1.47627 4.13646 0
M  V30 6901 H 626.921 0.192159 4.24866 0
M  V30 6902 N 625.236 -1.5273 0.388769 0
M  V30 6903 C 626.168 -2.24081 -0.481704 0
M  V30 6904 C 627.181 -1.26307 -1.02715 0
M  V30 6905 O 628.37 -1.52386 -0.929565 0
M  V30 6906 C 625.47 -2.94315 -1.68024 0
M  V30 6907 C 624.643 -4.18791 -1.26226 0
M  V30 6908 C 623.702 -4.72028 -2.32542 0
M  V30 6909 O 622.728 -5.35129 -1.93972 0
M  V30 6910 N 623.93 -4.51838 -3.64448 0
M  V30 6911 H 626.695 -2.9942 0.129591 0
M  V30 6912 H 624.256 -1.60465 0.2151 0
M  V30 6913 H 626.248 -3.26831 -2.38671 0
M  V30 6914 H 624.818 -2.22287 -2.19789 0
M  V30 6915 H 624.038 -3.92318 -0.384703 0
M  V30 6916 H 625.326 -4.99668 -0.959647 0
M  V30 6917 H 624.724 -4.01468 -3.98547 0
M  V30 6918 H 623.281 -4.88845 -4.31131 0
M  V30 6919 O 626.753 -0.258973 -1.5941 0
M  V30 6920 H 627.444 0.314239 -1.91134 0
M  V30 END ATOM
M  V30 BEGIN BOND
M  V30 END BOND
M  V30 END CTAB
M  END
$$$$
