drugbank_target|Q9NNW7 Thioredoxin reductase 2, mitochondrial (DB05428)
 OpenBabel12092120313D

  0  0  0     0  0            999 V3000
M  V30 BEGIN CTAB
M  V30 COUNTS 7920 8003 0 0 0
M  V30 BEGIN ATOM
M  V30 1 H -0.908 1.98254 -0.117106 0
M  V30 2 N 0 1.576 0 0
M  V30 3 C 0.933 2.03868 1.02534 0
M  V30 4 C 1.911 0.928543 1.3348 0
M  V30 5 O 3.095 1.19667 1.45644 0
M  V30 6 C 0.222 2.43627 2.35294 0
M  V30 7 C -0.732 3.65373 2.2001 0
M  V30 8 S 0.101 5.13292 1.52614 0
M  V30 9 C 1.257 5.56322 2.86805 0
M  V30 10 H 1.49 2.90518 0.631377 0
M  V30 11 H -0.977 1.52953 0.210867 0
M  V30 12 H 0.981 2.67203 3.11629 0
M  V30 13 H -0.358 1.57376 2.7183 0
M  V30 14 H -1.165 3.90944 3.18086 0
M  V30 15 H -1.563 3.418 1.51819 0
M  V30 16 H 0.729 5.58782 3.83104 0
M  V30 17 H 1.672 6.56266 2.65933 0
M  V30 18 H 2.08 4.83886 2.90714 0
M  V30 19 N 1.4781 -0.272755 1.55222 0
M  V30 20 C 2.4411 -1.32041 1.87344 0
M  V30 21 C 3.4411 -1.42342 0.74803 0
M  V30 22 O 4.6311 -1.41488 1.0162 0
M  V30 23 C 1.7631 -2.70173 2.07893 0
M  V30 24 H 2.9561 -1.04789 2.80997 0
M  V30 25 H 0.5091 -0.51083 1.47717 0
M  V30 26 H 1.2441 -3.02605 1.16622 0
M  V30 27 H 1.0291 -2.64082 2.89833 0
M  V30 28 H 2.5191 -3.45869 2.34017 0
M  V30 29 N 2.9562 -1.48159 -0.537278 0
M  V30 30 C 3.9192 -1.61665 -1.62472 0
M  V30 31 C 4.9192 -0.490395 -1.5314 0
M  V30 32 O 6.1092 -0.755998 -1.5694 0
M  V30 33 C 3.2412 -1.57997 -3.02076 0
M  V30 34 H 4.4342 -2.58621 -1.51839 0
M  V30 35 H 1.9872 -1.36647 -0.758771 0
M  V30 36 H 2.7222 -0.624913 -3.18222 0
M  V30 37 H 2.5072 -2.39755 -3.10258 0
M  V30 38 H 3.9972 -1.70627 -3.81151 0
M  V30 39 N 4.4343 0.785586 -1.36625 0
M  V30 40 C 5.3673 1.90509 -1.25625 0
M  V30 41 C 6.3453 1.62 -0.139607 0
M  V30 42 O 7.5293 1.8591 -0.31141 0
M  V30 43 C 4.6563 3.25419 -0.939158 0
M  V30 44 C 3.7023 3.72856 -2.07077 0
M  V30 45 S 4.5353 3.88162 -3.68904 0
M  V30 46 C 5.6913 5.25942 -3.39317 0
M  V30 47 H 5.9243 1.99549 -2.20381 0
M  V30 48 H 3.4573 0.945226 -1.22085 0
M  V30 49 H 5.4153 4.03346 -0.763029 0
M  V30 50 H 4.0763 3.14099 -0.00931402 0
M  V30 51 H 3.2693 4.70624 -1.80357 0
M  V30 52 H 2.8713 3.01989 -2.20632 0
M  V30 53 H 5.1633 6.10651 -2.93447 0
M  V30 54 H 6.1063 5.57668 -4.36363 0
M  V30 55 H 6.5143 4.93224 -2.74573 0
M  V30 56 N 5.9124 1.20967 1.01018 0
M  V30 57 C 6.8754 0.965918 2.07853 0
M  V30 58 C 7.8754 -0.0610545 1.60684 0
M  V30 59 O 9.0654 0.175681 1.73312 0
M  V30 60 C 6.1974 0.455513 3.37843 0
M  V30 61 H 7.3904 1.91365 2.3091 0
M  V30 62 H 4.9434 1.02594 1.17916 0
M  V30 63 H 5.6784 -0.497381 3.20463 0
M  V30 64 H 5.4634 1.19622 3.73407 0
M  V30 65 H 6.9534 0.304667 4.16487 0
M  V30 66 N 7.3905 -1.2043 1.01659 0
M  V30 67 C 8.6365 -1.90079 0.706963 0
M  V30 68 C 8.9695 -1.78648 -0.761474 0
M  V30 69 O 8.2445 -1.17069 -1.55323 0
M  V30 70 C 8.5275 -3.41469 1.14327 0
M  V30 71 C 8.3805 -3.61833 2.67201 0
M  V30 72 C 9.6995 -4.34261 0.714529 0
M  V30 73 H 6.8185 -0.690254 0.2583 0
M  V30 74 H 9.4605 -1.41826 1.26433 0
M  V30 75 H 7.6105 -3.82696 0.669056 0
M  V30 76 H 9.2825 -3.2986 3.22475 0
M  V30 77 H 7.5255 -3.05304 3.08175 0
M  V30 78 H 8.1965 -4.67955 2.92783 0
M  V30 79 H 10.6725 -4.00682 1.12221 0
M  V30 80 H 9.5485 -5.38806 1.04784 0
M  V30 81 H 9.8095 -4.40431 -0.383799 0
M  V30 82 N 8.8686 -0.792821 -1.36206 0
M  V30 83 C 9.8316 -0.199459 -2.2833 0
M  V30 84 C 10.8316 0.605189 -1.48977 0
M  V30 85 O 12.0216 0.425685 -1.68919 0
M  V30 86 C 9.1536 0.723523 -3.33134 0
M  V30 87 H 10.3466 -1.01181 -2.82316 0
M  V30 88 H 7.8996 -0.562485 -1.45828 0
M  V30 89 H 8.6346 1.56008 -2.84309 0
M  V30 90 H 8.4196 0.148436 -3.91819 0
M  V30 91 H 9.9096 1.13344 -4.01924 0
M  V30 92 N 10.3467 1.47872 -0.545128 0
M  V30 93 C 11.2767 2.32661 0.197793 0
M  V30 94 C 12.2577 1.43041 0.920504 0
M  V30 95 O 13.4427 1.71912 0.90333 0
M  V30 96 C 10.5727 3.24569 1.23582 0
M  V30 97 C 9.5267 4.23333 0.630323 0
M  V30 98 C 8.8527 5.0448 1.77211 0
M  V30 99 C 10.1527 5.20704 -0.407974 0
M  V30 100 H 11.8467 2.95024 -0.510045 0
M  V30 101 H 9.3927 1.4187 -0.246731 0
M  V30 102 H 11.3457 3.8272 1.76362 0
M  V30 103 H 10.0697 2.60236 1.97344 0
M  V30 104 H 8.7287 3.6639 0.123922 0
M  V30 105 H 8.3767 4.36561 2.49847 0
M  V30 106 H 8.0767 5.71339 1.37281 0
M  V30 107 H 9.6007 5.65487 2.3034 0
M  V30 108 H 11.0147 5.7329 0.033305 0
M  V30 109 H 9.4117 5.95699 -0.725486 0
M  V30 110 H 10.4817 4.66917 -1.30828 0
M  V30 111 N 11.8248 0.280983 1.55075 0
M  V30 112 C 13.2408 -0.0729964 1.59433 0
M  V30 113 C 13.4408 -1.5411 1.29817 0
M  V30 114 O 12.4968 -2.29086 1.06187 0
M  V30 115 C 13.8098 0.306921 2.9913 0
M  V30 116 C 15.3578 0.254023 3.11968 0
M  V30 117 C 15.8328 0.608467 4.5394 0
M  V30 118 N 17.3238 0.560241 4.59799 0
M  V30 119 C 18.0588 0.80722 5.6769 0
M  V30 120 N 17.5548 1.11912 6.83701 0
M  V30 121 N 19.3478 0.735623 5.57266 0
M  V30 122 H 11.4988 1.238 1.7259 0
M  V30 123 H 13.7618 0.500547 0.805082 0
M  V30 124 H 13.4678 1.32816 3.25657 0
M  V30 125 H 13.3418 -0.349363 3.75579 0
M  V30 126 H 15.7288 -0.75794 2.852 0
M  V30 127 H 15.8098 0.944649 2.37718 0
M  V30 128 H 15.4538 1.61814 4.81434 0
M  V30 129 H 15.3838 -0.104013 5.26497 0
M  V30 130 H 17.8748 0.329288 3.76463 0
M  V30 131 H 18.1878 1.29409 7.61888 0
M  V30 132 H 16.5328 1.15695 6.85303 0
M  V30 133 H 19.7238 0.491752 4.6551 0
M  V30 134 H 19.8968 0.931482 6.4127 0
M  V30 135 N 13.3029 -1.57598 0.00835791 0
M  V30 136 C 14.5509 -1.90551 -0.6734 0
M  V30 137 C 14.8719 -0.883301 -1.73847 0
M  V30 138 O 14.1419 0.0781442 -1.95744 0
M  V30 139 H 12.7219 -0.703312 -0.251717 0
M  V30 140 H 15.3839 -1.94833 0.0512592 0
M  V30 141 H 14.4799 -2.9056 -1.13935 0
M  V30 142 N 14.781 0.264519 -1.55364 0
M  V30 143 C 15.711 1.33121 -1.91836 0
M  V30 144 C 16.692 1.51101 -0.781192 0
M  V30 145 O 17.877 1.64003 -1.04003 0
M  V30 146 C 15.007 2.68921 -2.19769 0
M  V30 147 C 13.961 2.65661 -3.35571 0
M  V30 148 C 13.287 4.05093 -3.49004 0
M  V30 149 C 14.587 2.24187 -4.71739 0
M  V30 150 H 16.281 1.02844 -2.81182 0
M  V30 151 H 13.827 0.493286 -1.35287 0
M  V30 152 H 15.78 3.43663 -2.43872 0
M  V30 153 H 14.504 3.00799 -1.27231 0
M  V30 154 H 13.163 1.93377 -3.1145 0
M  V30 155 H 12.811 4.34206 -2.53917 0
M  V30 156 H 12.511 4.03804 -4.26868 0
M  V30 157 H 14.035 4.81561 -3.75408 0
M  V30 158 H 15.449 2.88654 -4.9533 0
M  V30 159 H 13.846 2.34044 -5.52579 0
M  V30 160 H 14.916 1.19327 -4.69988 0
M  V30 161 N 16.2591 1.48442 0.529413 0
M  V30 162 C 17.5071 1.56179 1.28267 0
M  V30 163 C 17.8281 0.237721 1.93546 0
M  V30 164 O 17.0981 -0.740779 1.81354 0
M  V30 165 H 15.6781 0.575367 0.476405 0
M  V30 166 H 18.3401 1.84909 0.61602 0
M  V30 167 H 17.4361 2.34312 2.06165 0
M  V30 168 N 17.7372 -0.778329 1.37039 0
M  V30 169 C 18.9852 -1.53361 1.31623 0
M  V30 170 C 19.3062 -1.94739 -0.100831 0
M  V30 171 O 18.5762 -1.65797 -1.04347 0
M  V30 172 H 17.1562 -0.568794 0.484234 0
M  V30 173 H 19.8182 -0.926742 1.71457 0
M  V30 174 H 18.9142 -2.43606 1.95096 0
M  V30 175 N 19.2153 -1.21501 -1.00376 0
M  V30 176 C 20.6313 -0.972629 -1.26539 0
M  V30 177 C 20.8313 0.340257 -1.98606 0
M  V30 178 O 19.8873 1.06561 -2.28913 0
M  V30 179 C 21.2003 -2.16404 -2.08781 0
M  V30 180 C 22.7483 -2.20643 -2.22004 0
M  V30 181 C 23.2233 -3.39306 -3.07629 0
M  V30 182 N 24.7143 -3.39401 -3.15217 0
M  V30 183 C 25.4493 -4.27867 -3.81729 0
M  V30 184 N 24.9453 -5.26533 -4.5026 0
M  V30 185 N 26.7383 -4.15672 -3.78382 0
M  V30 186 H 18.8893 -2.05929 -0.520281 0
M  V30 187 H 21.1523 -0.901803 -0.292328 0
M  V30 188 H 20.8583 -3.11554 -1.63178 0
M  V30 189 H 20.7323 -2.15567 -3.09533 0
M  V30 190 H 23.1193 -1.26048 -2.66825 0
M  V30 191 H 23.2003 -2.25523 -1.20718 0
M  V30 192 H 22.8443 -4.34195 -2.63509 0
M  V30 193 H 22.7743 -3.31665 -4.09031 0
M  V30 194 H 25.2653 -2.67997 -2.66432 0
M  V30 195 H 25.5783 -5.90337 -4.98721 0
M  V30 196 H 23.9233 -5.30457 -4.49044 0
M  V30 197 H 27.1143 -3.3785 -3.23998 0
M  V30 198 H 27.2873 -4.84825 -4.2994 0
M  V30 199 N 20.6934 1.19889 -1.02296 0
M  V30 200 C 21.9404 1.8942 -0.715972 0
M  V30 201 C 22.2684 1.79251 0.754944 0
M  V30 202 O 21.5234 1.17526 1.56481 0
M  V30 203 C 21.8224 3.39883 -1.10518 0
M  V30 204 C 21.4884 3.70254 -2.57337 0
M  V30 205 C 20.1504 3.78254 -2.97452 0
M  V30 206 C 22.5024 3.84052 -3.52354 0
M  V30 207 C 19.8304 3.97514 -4.31509 0
M  V30 208 C 22.1824 4.04824 -4.86108 0
M  V30 209 C 20.8464 4.11054 -5.25919 0
M  V30 210 H 20.1164 0.693138 -0.261993 0
M  V30 211 H 22.7634 1.42012 -1.28472 0
M  V30 212 H 21.0684 3.8915 -0.454953 0
M  V30 213 H 22.7654 3.9199 -0.845261 0
M  V30 214 H 19.3554 3.64632 -2.25258 0
M  V30 215 H 23.5394 3.77221 -3.22518 0
M  V30 216 H 18.7954 4.00574 -4.61898 0
M  V30 217 H 22.9694 4.14442 -5.59653 0
M  V30 218 H 20.5964 4.2573 -6.29808 0
M  V30 219 N 22.1715 0.800033 1.35784 0
M  V30 220 C 23.5875 0.482977 1.52117 0
M  V30 221 C 23.7875 -0.996948 1.75109 0
M  V30 222 O 22.8435 -1.78216 1.78872 0
M  V30 223 C 24.1565 1.32264 2.70049 0
M  V30 224 C 25.7045 1.31742 2.83924 0
M  V30 225 C 26.1795 2.14106 4.04874 0
M  V30 226 N 27.6705 2.11607 4.12039 0
M  V30 227 C 28.4055 2.72099 5.04727 0
M  V30 228 N 27.9015 3.41492 6.02789 0
M  V30 229 N 29.6945 2.61776 4.97423 0
M  V30 230 H 21.8455 1.75856 1.19115 0
M  V30 231 H 24.1085 0.748122 0.582252 0
M  V30 232 H 23.8145 2.37261 2.59616 0
M  V30 233 H 23.6885 0.971303 3.6448 0
M  V30 234 H 26.0755 0.275333 2.93813 0
M  V30 235 H 26.1565 1.70859 1.9037 0
M  V30 236 H 25.8005 3.18351 3.95746 0
M  V30 237 H 25.7305 1.72353 4.97596 0
M  V30 238 H 28.2215 1.61112 3.41835 0
M  V30 239 H 28.5345 3.84953 6.70098 0
M  V30 240 H 26.8795 3.45596 6.02983 0
M  V30 241 H 30.0705 2.07157 4.19766 0
M  V30 242 H 30.2435 3.0921 5.69468 0
M  V30 243 N 23.6496 -1.47581 0.552962 0
M  V30 244 C 24.8956 -2.03369 0.0355807 0
M  V30 245 C 25.2506 -1.42016 -1.29805 0
M  V30 246 O 24.5436 -0.564917 -1.83083 0
M  V30 247 C 24.7376 -3.57199 -0.119728 0
M  V30 248 C 24.5666 -4.33468 1.1973 0
M  V30 249 C 23.3366 -4.7353 1.76345 0
M  V30 250 C 25.5346 -4.68866 2.11351 0
M  V30 251 N 23.5166 -5.34426 3.02097 0
M  V30 252 C 24.8876 -5.3002 3.21681 0
M  V30 253 C 26.9426 -4.50795 2.11397 0
M  V30 254 C 25.6456 -5.75011 4.32151 0
M  V30 255 C 27.6716 -4.96782 3.20876 0
M  V30 256 C 27.0336 -5.57981 4.29926 0
M  V30 257 H 23.1326 -0.780058 0.0550806 0
M  V30 258 H 25.7166 -1.80117 0.739315 0
M  V30 259 H 23.8876 -3.80227 -0.792579 0
M  V30 260 H 25.6196 -3.99627 -0.638792 0
M  V30 261 H 22.3746 -4.55352 1.30196 0
M  V30 262 H 22.7986 -5.69421 3.66182 0
M  V30 263 H 27.4406 -4.0284 1.28372 0
M  V30 264 H 25.1586 -6.21959 5.15938 0
M  V30 265 H 28.7446 -4.84573 3.21994 0
M  V30 266 H 27.6246 -5.92918 5.13243 0
M  V30 267 N 25.1277 -0.289203 -1.54924 0
M  V30 268 C 26.5437 0.0645403 -1.59469 0
M  V30 269 C 26.7437 1.53419 -1.30632 0
M  V30 270 O 25.7997 2.2852 -1.074 0
M  V30 271 C 27.1127 -0.32278 -2.98963 0
M  V30 272 C 28.6607 -0.270564 -3.11828 0
M  V30 273 C 29.1357 -0.632532 -4.53611 0
M  V30 274 N 30.6267 -0.584617 -4.59496 0
M  V30 275 C 31.3617 -0.837314 -5.67254 0
M  V30 276 N 30.8577 -1.15536 -6.83098 0
M  V30 277 N 32.6507 -0.765166 -5.56868 0
M  V30 278 H 24.8017 -1.24714 -1.71931 0
M  V30 279 H 27.0647 -0.504809 -0.802416 0
M  V30 280 H 26.7707 -1.34541 -3.24948 0
M  V30 281 H 26.6447 0.32944 -3.75759 0
M  V30 282 H 29.0317 0.742805 -2.85598 0
M  V30 283 H 29.1127 -0.957242 -2.37214 0
M  V30 284 H 28.7567 -1.64365 -4.80569 0
M  V30 285 H 28.6867 0.07609 -5.26545 0
M  V30 286 H 31.1777 -0.349248 -3.76283 0
M  V30 287 H 31.4907 -1.33447 -7.61191 0
M  V30 288 H 29.8357 -1.19328 -6.84679 0
M  V30 289 H 33.0267 -0.516432 -4.65243 0
M  V30 290 H 33.1997 -0.965477 -6.40767 0
M  V30 291 N 26.6058 1.57591 -0.0167156 0
M  V30 292 C 27.8338 1.95575 0.675128 0
M  V30 293 C 28.2488 0.892542 1.6637 0
M  V30 294 O 27.6058 -0.126912 1.82058 0
M  V30 295 C 27.6568 3.33608 1.39239 0
M  V30 296 O 27.3778 4.3585 0.443444 0
M  V30 297 C 28.8788 3.86151 2.17721 0
M  V30 298 H 26.0988 0.644423 0.186978 0
M  V30 299 H 28.6428 2.0437 -0.0728 0
M  V30 300 H 26.7978 3.2607 2.09182 0
M  V30 301 H 27.2118 5.158 0.951358 0
M  V30 302 H 28.6858 4.85114 2.63379 0
M  V30 303 H 29.1628 3.19738 3.01105 0
M  V30 304 H 29.7688 3.96918 1.52761 0
M  V30 305 N 28.0839 -0.256276 1.55502 0
M  V30 306 C 29.0159 -1.33981 1.85962 0
M  V30 307 C 30.0289 -1.44743 0.745212 0
M  V30 308 O 31.2179 -1.4626 1.02324 0
M  V30 309 C 28.3179 -2.7194 2.02242 0
M  V30 310 C 27.4909 -2.83562 3.33033 0
M  V30 311 C 26.5499 -4.02304 3.39172 0
M  V30 312 O 25.5759 -3.92273 4.12444 0
M  V30 313 N 26.7779 -5.15045 2.67784 0
M  V30 314 H 29.5429 -1.08191 2.7949 0
M  V30 315 H 27.1039 -0.446388 1.55624 0
M  V30 316 H 29.0959 -3.49697 2.03701 0
M  V30 317 H 27.6659 -2.90479 1.15502 0
M  V30 318 H 26.8859 -1.92555 3.43971 0
M  V30 319 H 28.1739 -2.88271 4.19258 0
M  V30 320 H 27.5719 -5.26085 2.07968 0
M  V30 321 H 26.1289 -5.90972 2.74947 0
M  V30 322 N 29.562 -1.4872 -0.521534 0
M  V30 323 C 30.525 -1.63379 -1.60748 0
M  V30 324 C 31.525 -0.50661 -1.52611 0
M  V30 325 O 32.715 -0.772601 -1.5613 0
M  V30 326 C 29.847 -1.61192 -3.00383 0
M  V30 327 H 31.04 -2.60217 -1.49087 0
M  V30 328 H 28.593 -1.37444 -0.744235 0
M  V30 329 H 29.328 -0.65863 -3.17541 0
M  V30 330 H 29.113 -2.43032 -3.07698 0
M  V30 331 H 30.603 -1.7466 -3.7932 0
M  V30 332 N 31.0401 0.771051 -1.3745 0
M  V30 333 C 32.2861 1.5319 -1.32894 0
M  V30 334 C 32.6191 1.94008 0.0862511 0
M  V30 335 O 31.8941 1.64124 1.04373 0
M  V30 336 C 32.1771 2.79648 -2.26868 0
M  V30 337 C 32.0301 2.45079 -3.77169 0
M  V30 338 C 33.3491 3.81583 -2.19277 0
M  V30 339 H 30.4681 0.555744 -0.484064 0
M  V30 340 H 33.1101 0.884492 -1.68157 0
M  V30 341 H 31.2601 3.34891 -1.96926 0
M  V30 342 H 32.9321 1.95745 -4.1771 0
M  V30 343 H 31.1751 1.77767 -3.95704 0
M  V30 344 H 31.8461 3.35478 -4.38359 0
M  V30 345 H 34.3221 3.35835 -2.45671 0
M  V30 346 H 33.1981 4.67787 -2.87171 0
M  V30 347 H 33.4591 4.25897 -1.18592 0
M  V30 348 N 32.5182 1.22032 0.997298 0
M  V30 349 C 33.4812 0.987909 2.06816 0
M  V30 350 C 34.4812 -0.0440084 1.6074 0
M  V30 351 O 35.6712 0.194053 1.73116 0
M  V30 352 C 32.8032 0.49132 3.37341 0
M  V30 353 H 33.9962 1.93803 2.28868 0
M  V30 354 H 31.5492 1.03838 1.16822 0
M  V30 355 H 32.2842 -0.463364 3.20973 0
M  V30 356 H 32.0692 1.23575 3.72118 0
M  V30 357 H 33.5592 0.348824 4.16141 0
M  V30 358 N 33.9963 -1.19345 1.0293 0
M  V30 359 C 35.2443 -1.88665 0.724574 0
M  V30 360 C 35.5653 -1.80036 -0.749144 0
M  V30 361 O 34.8353 -1.2111 -1.53978 0
M  V30 362 H 33.4153 -0.698406 0.265025 0
M  V30 363 H 36.0773 -1.44885 1.30362 0
M  V30 364 H 35.1733 -2.94987 1.01926 0
M  V30 365 N 35.4744 -0.807222 -1.35358 0
M  V30 366 C 36.7224 -0.387122 -1.98358 0
M  V30 367 C 37.0434 1.04942 -1.64354 0
M  V30 368 O 36.3134 1.72615 -0.926339 0
M  V30 369 H 34.8934 -0.140154 -0.733734 0
M  V30 370 H 37.5554 -1.0332 -1.6526 0
M  V30 371 H 36.6514 -0.493352 -3.08176 0
M  V30 372 N 36.9525 1.47285 -0.560781 0
M  V30 373 C 38.1985 2.02764 -0.0381184 0
M  V30 374 C 38.5315 1.43384 1.30976 0
M  V30 375 O 37.8065 0.590733 1.85312 0
M  V30 376 C 38.0895 3.60064 0.0511427 0
M  V30 377 C 37.9425 4.2987 -1.32408 0
M  V30 378 C 39.2615 4.33439 0.762795 0
M  V30 379 H 36.3805 0.736841 -0.0153264 0
M  V30 380 H 39.0225 1.75675 -0.723759 0
M  V30 381 H 37.1725 3.83274 0.635065 0
M  V30 382 H 38.8445 4.17989 -1.95148 0
M  V30 383 H 37.0875 3.90085 -1.8978 0
M  V30 384 H 37.7585 5.38478 -1.21431 0
M  V30 385 H 40.2345 4.15243 0.266965 0
M  V30 386 H 39.1105 5.43124 0.794221 0
M  V30 387 H 39.3715 4.02915 1.81966 0
M  V30 388 N 38.4306 0.297415 1.54768 0
M  V30 389 C 39.8466 -0.0560823 1.59501 0
M  V30 390 C 40.0466 -1.52725 1.31444 0
M  V30 391 O 39.1026 -2.27947 1.08611 0
M  V30 392 C 40.4156 0.338631 2.98787 0
M  V30 393 C 41.9636 0.287097 3.11681 0
M  V30 394 C 42.4386 0.656579 4.53269 0
M  V30 395 N 43.9296 0.608977 4.59179 0
M  V30 396 C 44.6646 0.867385 5.66802 0
M  V30 397 N 44.1606 1.19157 6.82476 0
M  V30 398 N 45.9536 0.794687 5.56454 0
M  V30 399 H 38.1046 1.25624 1.71267 0
M  V30 400 H 40.3676 0.509057 0.799728 0
M  V30 401 H 40.0736 1.36263 3.2423 0
M  V30 402 H 39.9476 -0.309508 3.75928 0
M  V30 403 H 42.3346 -0.727649 2.85988 0
M  V30 404 H 42.4156 0.969809 2.36703 0
M  V30 405 H 42.0596 1.66912 4.7969 0
M  V30 406 H 41.9896 -0.0481649 5.26578 0
M  V30 407 H 44.4806 0.369198 3.76092 0
M  V30 408 H 44.7936 1.37482 7.60473 0
M  V30 409 H 43.1386 1.22958 6.84037 0
M  V30 410 H 46.3296 0.541098 4.64962 0
M  V30 411 H 46.5026 0.999445 6.40246 0
M  V30 412 N 39.9087 -1.5758 0.0250728 0
M  V30 413 C 41.1567 -1.91255 -0.653151 0
M  V30 414 C 41.4777 -0.901691 -1.729 0
M  V30 415 O 40.7477 0.0573785 -1.95816 0
M  V30 416 H 39.3277 -0.705942 -0.244243 0
M  V30 417 H 41.9897 -1.94767 0.0719209 0
M  V30 418 H 41.0857 -2.91752 -1.10847 0
M  V30 419 N 41.3868 0.248026 -1.55636 0
M  V30 420 C 42.3498 1.29044 -1.89421 0
M  V30 421 C 43.3498 1.41134 -0.770581 0
M  V30 422 O 44.5398 1.39854 -1.03858 0
M  V30 423 C 41.6718 2.66831 -2.12165 0
M  V30 424 H 42.8648 1.00305 -2.82629 0
M  V30 425 H 40.4178 0.487265 -1.48511 0
M  V30 426 H 41.1528 3.00711 -1.21422 0
M  V30 427 H 40.9378 2.59438 -2.93997 0
M  V30 428 H 42.4278 3.42103 -2.3949 0
M  V30 429 N 42.8649 1.48995 0.513639 0
M  V30 430 C 43.8279 1.64229 1.59879 0
M  V30 431 C 44.8279 0.514696 1.5234 0
M  V30 432 O 46.0179 0.78087 1.55718 0
M  V30 433 C 43.1499 1.62783 2.99524 0
M  V30 434 H 44.3429 2.61004 1.47705 0
M  V30 435 H 41.8959 1.37837 0.736936 0
M  V30 436 H 42.6309 0.675461 3.17188 0
M  V30 437 H 42.4159 2.4466 3.06404 0
M  V30 438 H 43.9059 1.76669 3.78388 0
M  V30 439 N 44.343 -0.763751 1.37857 0
M  V30 440 C 45.759 -1.06542 1.18832 0
M  V30 441 C 45.959 -2.01478 0.0299722 0
M  V30 442 O 45.015 -2.4458 -0.627447 0
M  V30 443 C 46.328 -1.65525 2.51042 0
M  V30 444 C 47.876 -1.77745 2.57635 0
M  V30 445 C 48.351 -2.4014 3.89996 0
M  V30 446 N 49.842 -2.47582 3.91481 0
M  V30 447 C 50.577 -2.96732 4.9065 0
M  V30 448 N 50.073 -3.45993 6.00217 0
M  V30 449 N 51.866 -2.95679 4.78048 0
M  V30 450 H 44.017 -0.133556 2.1198 0
M  V30 451 H 46.28 -0.121879 0.940133 0
M  V30 452 H 45.986 -1.03236 3.36207 0
M  V30 453 H 45.86 -2.64719 2.68707 0
M  V30 454 H 48.247 -2.39164 1.72872 0
M  V30 455 H 48.328 -0.772836 2.43846 0
M  V30 456 H 47.972 -1.79358 4.75177 0
M  V30 457 H 47.902 -3.41223 4.01092 0
M  V30 458 H 50.393 -2.1273 3.12337 0
M  V30 459 H 50.706 -3.81922 6.7183 0
M  V30 460 H 49.051 -3.44077 6.03851 0
M  V30 461 H 52.242 -2.56499 3.91568 0
M  V30 462 H 52.415 -3.33672 5.55488 0
M  V30 463 N 45.8211 -1.22559 -0.990812 0
M  V30 464 C 47.0691 -1.04933 -1.72724 0
M  V30 465 C 47.3901 0.416158 -1.90508 0
M  V30 466 O 46.6601 1.29918 -1.46622 0
M  V30 467 H 45.2401 -0.385296 -0.639965 0
M  V30 468 H 47.9021 -1.54105 -1.19322 0
M  V30 469 H 46.9981 -1.52886 -2.72089 0
M  V30 470 N 47.2992 1.18797 -1.03562 0
M  V30 471 C 48.2622 2.20464 -0.626769 0
M  V30 472 C 49.2622 1.57721 0.313173 0
M  V30 473 O 50.4522 1.73917 0.0992615 0
M  V30 474 C 47.5842 3.40802 0.0818498 0
M  V30 475 H 48.7772 2.58149 -1.5264 0
M  V30 476 H 46.3302 1.32593 -0.827578 0
M  V30 477 H 47.0652 3.08642 0.995518 0
M  V30 478 H 46.8502 3.8758 -0.593652 0
M  V30 479 H 48.3402 4.16092 0.354584 0
M  V30 480 N 48.7773 0.814389 1.34928 0
M  V30 481 C 49.7403 0.235759 2.27984 0
M  V30 482 C 50.7403 -0.581412 1.49921 0
M  V30 483 O 51.9303 -0.398758 1.69575 0
M  V30 484 C 49.0623 -0.670433 3.34242 0
M  V30 485 H 50.2553 1.05659 2.80671 0
M  V30 486 H 47.8083 0.585614 1.44915 0
M  V30 487 H 48.5433 -1.51466 2.86755 0
M  V30 488 H 48.3283 -0.0860822 3.92005 0
M  V30 489 H 49.8183 -1.06935 4.03676 0
M  V30 490 N 50.2554 -1.46986 0.568584 0
M  V30 491 C 51.2184 -2.28624 -0.162366 0
M  V30 492 C 52.2184 -1.37596 -0.832103 0
M  V30 493 O 53.4084 -1.60115 -0.68622 0
M  V30 494 C 50.5404 -3.17596 -1.23878 0
M  V30 495 H 51.7334 -2.94722 0.554899 0
M  V30 496 H 49.2864 -1.52863 0.325976 0
M  V30 497 H 50.0214 -2.56214 -1.98808 0
M  V30 498 H 49.8064 -3.846 -0.763219 0
M  V30 499 H 51.2964 -3.79078 -1.75185 0
M  V30 500 N 51.7335 -0.305618 -1.54608 0
M  V30 501 C 52.9815 0.301701 -1.99835 0
M  V30 502 C 53.3025 1.54054 -1.19551 0
M  V30 503 O 52.5725 1.93702 -0.292658 0
M  V30 504 H 51.1525 0.114468 -0.738178 0
M  V30 505 H 53.8145 -0.418016 -1.90364 0
M  V30 506 H 52.9105 0.570548 -3.06841 0
M  V30 507 N 53.2116 1.57565 -0.0334293 0
M  V30 508 C 54.1436 2.0739 0.975811 0
M  V30 509 C 55.1566 0.998166 1.2861 0
M  V30 510 O 56.3456 1.27426 1.25 0
M  V30 511 C 53.4456 2.4871 2.30209 0
M  V30 512 C 52.6186 3.79413 2.17634 0
M  V30 513 C 51.6776 4.07237 3.33233 0
M  V30 514 O 50.7036 4.77425 3.09927 0
M  V30 515 N 51.9056 3.5775 4.5716 0
M  V30 516 H 54.6706 2.94598 0.55066 0
M  V30 517 H 52.2316 1.61173 0.15323 0
M  V30 518 H 54.2236 2.64413 3.06378 0
M  V30 519 H 52.7936 1.66845 2.64351 0
M  V30 520 H 52.0136 3.73465 1.26165 0
M  V30 521 H 53.3016 4.65038 2.0644 0
M  V30 522 H 52.6996 3.00976 4.78989 0
M  V30 523 H 51.2566 3.78724 5.30482 0
M  V30 524 N 54.6897 -0.239769 1.55765 0
M  V30 525 C 56.1057 -0.588624 1.48349 0
M  V30 526 C 56.3057 -1.88005 0.72502 0
M  V30 527 O 55.3617 -2.51186 0.257269 0
M  V30 528 C 56.6747 -0.68474 2.928 0
M  V30 529 C 58.2227 -0.77659 3.03213 0
M  V30 530 C 58.6977 -0.904207 4.48986 0
M  V30 531 N 60.1887 -0.968896 4.52953 0
M  V30 532 C 60.9237 -1.08703 5.63002 0
M  V30 533 N 60.4197 -1.17026 6.82845 0
M  V30 534 N 62.2127 -1.12074 5.50814 0
M  V30 535 H 54.3637 0.607911 2.03515 0
M  V30 536 H 56.6267 0.21083 0.924259 0
M  V30 537 H 56.3327 0.194284 3.51163 0
M  V30 538 H 56.2067 -1.55435 3.43686 0
M  V30 539 H 58.5937 -1.64606 2.44926 0
M  V30 540 H 58.6747 0.118315 2.55526 0
M  V30 541 H 58.3187 -0.0392633 5.07885 0
M  V30 542 H 58.2487 -1.81426 4.9436 0
M  V30 543 H 60.7397 -0.915633 3.6664 0
M  V30 544 H 61.0527 -1.25966 7.62465 0
M  V30 545 H 59.3977 -1.13971 6.85591 0
M  V30 546 H 62.5887 -1.05226 4.5612 0
M  V30 547 H 62.7617 -1.20936 6.36615 0
M  V30 548 N 56.1678 -1.49265 -0.50573 0
M  V30 549 C 57.4448 -1.49012 -1.26707 0
M  V30 550 C 57.8248 -0.215205 -2.1 0
M  V30 551 O 57.1728 0.802547 -2.13943 0
M  V30 552 C 57.3828 -2.7663 -2.12783 0
M  V30 553 C 58.7308 -3.25932 -2.72127 0
M  V30 554 O 59.7548 -2.77715 -2.23054 0
M  V30 555 O 58.6138 -4.09897 -3.61451 0
M  V30 556 H 55.7078 -0.596197 -0.57313 0
M  V30 557 H 58.2538 -1.61524 -0.52039 0
M  V30 558 H 57.0258 -3.60916 -1.5118 0
M  V30 559 H 56.6488 -2.66956 -2.94653 0
M  V30 560 N 57.6459 0.756429 -1.3826 0
M  V30 561 C 58.8759 1.54341 -1.3734 0
M  V30 562 C 59.2839 1.89159 0.0393917 0
M  V30 563 O 58.6269 1.5307 1.01565 0
M  V30 564 C 58.6889 2.87238 -2.16182 0
M  V30 565 C 58.3529 2.74973 -3.65019 0
M  V30 566 C 59.3499 2.44962 -4.58574 0
M  V30 567 C 57.0349 2.92515 -4.08338 0
M  V30 568 C 59.0289 2.32642 -5.93428 0
M  V30 569 C 56.7159 2.79815 -5.43274 0
M  V30 570 C 57.7139 2.49921 -6.35632 0
M  V30 571 O 57.4019 2.37275 -7.68086 0
M  V30 572 H 57.1339 0.484281 -0.471643 0
M  V30 573 H 59.6879 0.944152 -1.82414 0
M  V30 574 H 57.9179 3.49342 -1.65822 0
M  V30 575 H 59.6069 3.48731 -2.07705 0
M  V30 576 H 60.3729 2.31081 -4.26412 0
M  V30 577 H 56.2519 3.14781 -3.368 0
M  V30 578 H 59.7959 2.0923 -6.65484 0
M  V30 579 H 55.6929 2.93269 -5.75034 0
M  V30 580 H 56.4609 2.52509 -7.78577 0
M  V30 581 N 59.124 1.23083 0.984299 0
M  V30 582 C 60.401 0.9689 1.69917 0
M  V30 583 C 60.781 -0.513604 2.04757 0
M  V30 584 O 60.129 -1.48383 1.73767 0
M  V30 585 C 60.339 1.87518 2.94343 0
M  V30 586 C 61.687 2.13636 3.6694 0
M  V30 587 O 62.711 1.85036 3.04368 0
M  V30 588 O 61.57 2.62119 4.79537 0
M  V30 589 H 58.664 0.365095 0.742048 0
M  V30 590 H 61.21 1.34107 1.03987 0
M  V30 591 H 59.982 2.87756 2.65164 0
M  V30 592 H 59.605 1.50514 3.6801 0
M  V30 593 N 60.6021 -1.18246 1.0419 0
M  V30 594 C 61.5321 -2.24127 0.654914 0
M  V30 595 C 62.5131 -1.66617 -0.342451 0
M  V30 596 O 63.6981 -1.92924 -0.222277 0
M  V30 597 C 60.8281 -3.47295 0.0183757 0
M  V30 598 C 59.7821 -4.17563 0.939414 0
M  V30 599 C 59.1081 -5.34438 0.167286 0
M  V30 600 C 60.4081 -4.70917 2.25908 0
M  V30 601 H 62.1021 -2.56753 1.54007 0
M  V30 602 H 59.6481 -1.23414 0.74195 0
M  V30 603 H 61.6011 -4.20572 -0.264082 0
M  V30 604 H 60.3251 -3.13907 -0.901664 0
M  V30 605 H 58.9841 -3.46186 1.20628 0
M  V30 606 H 58.6321 -4.97298 -0.7552 0
M  V30 607 H 58.3321 -5.82388 0.780901 0
M  V30 608 H 59.8561 -6.10504 -0.108125 0
M  V30 609 H 61.2701 -5.35882 2.03724 0
M  V30 610 H 59.6671 -5.29406 2.82577 0
M  V30 611 H 60.7371 -3.88272 2.9047 0
M  V30 612 N 62.0802 -0.821533 -1.34494 0
M  V30 613 C 63.0102 -0.257138 -2.3208 0
M  V30 614 C 63.9912 0.625645 -1.58176 0
M  V30 615 O 65.1762 0.552811 -1.86166 0
M  V30 616 C 62.3062 0.582958 -3.42372 0
M  V30 617 C 61.2602 -0.202571 -4.2752 0
M  V30 618 C 60.5862 0.760179 -5.29269 0
M  V30 619 C 61.8862 -1.40998 -5.02908 0
M  V30 620 H 63.5802 -1.07247 -2.79532 0
M  V30 621 H 61.1262 -0.517163 -1.34393 0
M  V30 622 H 63.0792 0.987972 -4.09655 0
M  V30 623 H 61.8032 1.43133 -2.93565 0
M  V30 624 H 60.4622 -0.588936 -3.61838 0
M  V30 625 H 60.1102 1.60447 -4.76724 0
M  V30 626 H 59.8102 0.238809 -5.87115 0
M  V30 627 H 61.3342 1.16308 -5.9942 0
M  V30 628 H 62.7482 -1.07905 -5.63054 0
M  V30 629 H 61.1452 -1.86689 -5.70322 0
M  V30 630 H 62.2152 -2.1889 -4.32684 0
M  V30 631 N 63.5583 1.46682 -0.576371 0
M  V30 632 C 64.8043 2.02712 -0.0596221 0
M  V30 633 C 65.1373 1.44765 1.29448 0
M  V30 634 O 64.4123 0.610355 1.84675 0
M  V30 635 C 64.6953 3.60098 0.0129503 0
M  V30 636 C 64.5483 4.28441 -1.3696 0
M  V30 637 C 65.8673 4.34224 0.71678 0
M  V30 638 H 62.9863 0.736637 -0.0231407 0
M  V30 639 H 65.6283 1.74898 -0.742351 0
M  V30 640 H 63.7783 3.83926 0.594378 0
M  V30 641 H 65.4503 4.15896 -1.9957 0
M  V30 642 H 63.6933 3.8805 -1.93907 0
M  V30 643 H 64.3643 5.3716 -1.27135 0
M  V30 644 H 66.8403 4.15503 0.222908 0
M  V30 645 H 65.7163 5.43936 0.73657 0
M  V30 646 H 65.9773 4.04823 1.77682 0
M  V30 647 N 65.0364 0.313813 1.54444 0
M  V30 648 C 66.2824 -0.292108 2.00685 0
M  V30 649 C 66.6154 -1.52548 1.20177 0
M  V30 650 O 65.8904 -1.92452 0.281531 0
M  V30 651 C 66.1734 -0.635968 3.5444 0
M  V30 652 C 66.0264 0.607437 4.4568 0
M  V30 653 C 67.3454 -1.45747 4.15266 0
M  V30 654 H 64.4644 -0.104697 0.729526 0
M  V30 655 H 67.1064 0.428457 1.85106 0
M  V30 656 H 65.2564 -1.24986 3.67846 0
M  V30 657 H 66.9284 1.24581 4.44159 0
M  V30 658 H 65.1714 1.23822 4.15753 0
M  V30 659 H 65.8424 0.322515 5.51057 0
M  V30 660 H 68.3184 -0.938645 4.05375 0
M  V30 661 H 67.1944 -1.66683 5.2298 0
M  V30 662 H 67.4554 -2.45063 3.67963 0
M  V30 663 N 66.5145 -1.57545 0.0417849 0
M  V30 664 C 67.7625 -1.91937 -0.632829 0
M  V30 665 C 68.0835 -0.919978 -1.71934 0
M  V30 666 O 67.3535 0.0366064 -1.95866 0
M  V30 667 H 65.9335 -0.708493 -0.236742 0
M  V30 668 H 68.5955 -1.9468 0.0925745 0
M  V30 669 H 67.6915 -2.92912 -1.07746 0
M  V30 670 N 67.9926 0.231505 -1.5589 0
M  V30 671 C 69.2406 0.955461 -1.78088 0
M  V30 672 C 69.5616 1.85262 -0.608533 0
M  V30 673 O 68.8316 1.92277 0.375035 0
M  V30 674 H 67.4116 0.355787 -0.656829 0
M  V30 675 H 70.0736 0.245751 -1.93344 0
M  V30 676 H 69.1696 1.56814 -2.69844 0
M  V30 677 N 69.4707 1.49531 0.497807 0
M  V30 678 C 70.7187 1.58865 1.24926 0
M  V30 679 C 71.0397 0.278721 1.92998 0
M  V30 680 O 70.3097 -0.702144 1.82885 0
M  V30 681 H 68.8897 0.585343 0.464094 0
M  V30 682 H 71.5517 1.86174 0.57666 0
M  V30 683 H 70.6477 2.38633 2.01149 0
M  V30 684 N 70.9488 -0.749086 1.3866 0
M  V30 685 C 72.1738 -1.54344 1.38538 0
M  V30 686 C 72.5988 -1.88088 -0.0216655 0
M  V30 687 O 71.9568 -1.50899 -1.00494 0
M  V30 688 C 72.0048 -2.8164 2.25192 0
M  V30 689 O 71.1088 -3.7698 1.67212 0
M  V30 690 H 70.4498 -0.466654 0.472367 0
M  V30 691 H 72.9798 -0.925355 1.82478 0
M  V30 692 H 72.9898 -3.30519 2.3921 0
M  V30 693 H 71.6648 -2.56411 3.27454 0
M  V30 694 H 70.2418 -3.35699 1.6236 0
M  V30 695 N 72.4269 -1.23603 -0.977757 0
M  V30 696 C 73.6749 -1.06759 -1.71601 0
M  V30 697 C 73.9959 0.395929 -1.90938 0
M  V30 698 O 73.2659 1.28356 -1.47992 0
M  V30 699 H 71.8459 -0.392062 -0.635843 0
M  V30 700 H 74.5079 -1.55362 -1.1768 0
M  V30 701 H 73.6039 -1.55763 -2.70452 0
M  V30 702 N 73.905 1.17692 -1.04816 0
M  V30 703 C 75.153 1.87488 -0.754497 0
M  V30 704 C 75.474 1.81205 0.720407 0
M  V30 705 O 74.744 1.23544 1.52032 0
M  V30 706 H 73.324 0.694101 -0.276102 0
M  V30 707 H 75.986 1.42793 -1.32651 0
M  V30 708 H 75.082 2.93328 -1.06606 0
M  V30 709 N 75.3831 0.828654 1.34056 0
M  V30 710 C 76.3131 0.269443 2.3194 0
M  V30 711 C 77.2941 -0.617247 1.58506 0
M  V30 712 O 78.4791 -0.542931 1.86456 0
M  V30 713 C 75.6091 -0.564793 3.42677 0
M  V30 714 C 74.5631 0.225241 4.27407 0
M  V30 715 C 73.8891 -0.7321 5.29664 0
M  V30 716 C 75.1891 1.43663 5.02154 0
M  V30 717 H 76.8831 1.08728 2.7896 0
M  V30 718 H 74.4291 0.524283 1.34117 0
M  V30 719 H 76.3821 -0.966233 4.10173 0
M  V30 720 H 75.1061 -1.41574 2.9432 0
M  V30 721 H 73.7651 0.608117 3.61521 0
M  V30 722 H 73.4131 -1.57916 4.77568 0
M  V30 723 H 73.1131 -0.20767 5.87233 0
M  V30 724 H 74.6371 -1.13128 6.00029 0
M  V30 725 H 76.0511 1.1089 5.62473 0
M  V30 726 H 74.4481 1.89711 5.69324 0
M  V30 727 H 75.5181 2.21181 4.31517 0
M  V30 728 N 76.8612 -1.46375 0.584142 0
M  V30 729 C 77.8242 -2.28784 -0.138108 0
M  V30 730 C 78.8242 -1.38471 -0.817462 0
M  V30 731 O 80.0142 -1.60833 -0.669199 0
M  V30 732 C 77.1462 -3.18892 -1.20503 0
M  V30 733 H 78.3392 -2.94117 0.586127 0
M  V30 734 H 75.8922 -1.52509 0.342171 0
M  V30 735 H 76.6272 -2.58309 -1.96079 0
M  V30 736 H 76.4122 -3.85388 -0.722384 0
M  V30 737 H 77.9022 -3.80914 -1.71155 0
M  V30 738 N 78.3393 -0.321999 -1.54275 0
M  V30 739 C 79.5793 0.281657 -2.0245 0
M  V30 740 C 79.9433 1.49468 -1.20513 0
M  V30 741 O 81.1443 2.17109 -1.58484 0
M  V30 742 C 79.4153 0.609014 -3.52173 0
M  V30 743 S 80.9743 1.19255 -4.22284 0
M  V30 744 H 77.7923 0.0852825 -0.705867 0
M  V30 745 H 80.3943 -0.454758 -1.90137 0
M  V30 746 H 79.0983 -0.281982 -4.0943 0
M  V30 747 H 78.6293 1.37567 -3.68563 0
M  V30 748 H 80.6443 2.47944 -4.29812 0
M  V30 749 N 79.8174 1.5752 -0.0501392 0
M  V30 750 C 80.7804 2.1037 0.909786 0
M  V30 751 C 81.7804 1.02308 1.24056 0
M  V30 752 O 82.9704 1.28385 1.17741 0
M  V30 753 C 80.1024 2.58708 2.21998 0
M  V30 754 H 81.2954 2.96479 0.451665 0
M  V30 755 H 78.8484 1.55038 0.198248 0
M  V30 756 H 79.5834 1.75989 2.72394 0
M  V30 757 H 79.3684 3.37675 1.99295 0
M  V30 758 H 80.8584 2.99747 2.9076 0
M  V30 759 N 81.2955 -0.223234 1.56011 0
M  V30 760 C 82.2425 -1.27664 1.92277 0
M  V30 761 C 83.2125 -1.46659 0.779763 0
M  V30 762 O 84.3975 -1.60256 1.03551 0
M  V30 763 C 81.5375 -2.62234 2.24338 0
M  V30 764 C 80.6505 -2.51051 3.51564 0
M  V30 765 C 79.7855 -3.78133 3.7308 0
M  V30 766 C 78.8245 -3.61665 4.93827 0
M  V30 767 N 77.9615 -4.80693 5.11741 0
M  V30 768 H 82.8015 -0.960358 2.82101 0
M  V30 769 H 80.3385 -0.462901 1.39627 0
M  V30 770 H 82.2965 -3.40596 2.40936 0
M  V30 771 H 80.9265 -2.91961 1.3769 0
M  V30 772 H 79.9785 -1.64132 3.43169 0
M  V30 773 H 81.2905 -2.34803 4.40079 0
M  V30 774 H 80.4445 -4.64938 3.89766 0
M  V30 775 H 79.1835 -3.97304 2.82844 0
M  V30 776 H 78.1885 -2.73244 4.77093 0
M  V30 777 H 79.4135 -3.43966 5.85546 0
M  V30 778 H 77.3595 -5.00181 4.24446 0
M  V30 779 H 77.2765 -4.67165 5.94384 0
M  V30 780 H 78.5445 -5.6893 5.3286 0
M  V30 781 N 82.7736 -1.49793 -0.48987 0
M  V30 782 C 83.6836 -1.70036 -1.61632 0
M  V30 783 C 84.6996 -0.583102 -1.63939 0
M  V30 784 O 85.8756 -0.859169 -1.82154 0
M  V30 785 C 82.9406 -1.77277 -2.97949 0
M  V30 786 C 82.0016 -3.00918 -3.06181 0
M  V30 787 C 81.2346 -3.07804 -4.35996 0
M  V30 788 O 81.4576 -2.21982 -5.25433 0
M  V30 789 O 80.3916 -4.00369 -4.49431 0
M  V30 790 H 84.2176 -2.65486 -1.47482 0
M  V30 791 H 81.8026 -1.33666 -0.667362 0
M  V30 792 H 83.6846 -1.84329 -3.78947 0
M  V30 793 H 82.3596 -0.850076 -3.12339 0
M  V30 794 H 81.2666 -2.99377 -2.2433 0
M  V30 795 H 82.5996 -3.92704 -2.96723 0
M  V30 796 N 84.2517 0.741722 -1.39055 0
M  V30 797 C 85.2147 1.83733 -1.37021 0
M  V30 798 C 86.2147 1.58542 -0.268534 0
M  V30 799 O 87.4047 1.66067 -0.526076 0
M  V30 800 C 84.5367 3.2141 -1.13617 0
M  V30 801 H 85.7297 1.86941 -2.34506 0
M  V30 802 H 83.2827 0.944676 -1.24521 0
M  V30 803 H 84.0177 3.23865 -0.167863 0
M  V30 804 H 83.8027 3.4109 -1.93391 0
M  V30 805 H 85.2927 4.01477 -1.14918 0
M  V30 806 N 85.7298 1.2412 0.971189 0
M  V30 807 C 86.6928 1.03156 2.04674 0
M  V30 808 C 87.6928 -0.00990322 1.60797 0
M  V30 809 O 88.8828 0.230729 1.72665 0
M  V30 810 C 86.0148 0.562765 3.36223 0
M  V30 811 H 87.2078 1.98614 2.24705 0
M  V30 812 H 84.7608 1.06293 1.14593 0
M  V30 813 H 85.4958 -0.395176 3.21883 0
M  V30 814 H 85.2808 1.31441 3.69413 0
M  V30 815 H 86.7708 0.437015 4.15307 0
M  V30 816 N 87.2079 -1.17134 1.05439 0
M  V30 817 C 88.1399 -2.2078 0.615539 0
M  V30 818 C 89.1529 -1.59584 -0.322001 0
M  V30 819 O 90.3419 -1.78133 -0.114344 0
M  V30 820 C 87.4419 -3.38691 -0.118938 0
M  V30 821 C 86.6149 -4.29454 0.829924 0
M  V30 822 C 85.6739 -5.26024 0.136258 0
M  V30 823 O 84.6999 -5.63952 0.77115 0
M  V30 824 N 85.9019 -5.69487 -1.1254 0
M  V30 825 H 88.6669 -2.59052 1.50705 0
M  V30 826 H 86.2279 -1.32058 0.936603 0
M  V30 827 H 88.2199 -4.00329 -0.593179 0
M  V30 828 H 86.7899 -2.98996 -0.91215 0
M  V30 829 H 86.0099 -3.65211 1.48373 0
M  V30 830 H 87.2979 -4.86984 1.47392 0
M  V30 831 H 86.6959 -5.4075 -1.6615 0
M  V30 832 H 85.2529 -6.33257 -1.54366 0
M  V30 833 N 88.686 -0.835752 -1.33615 0
M  V30 834 C 89.616 -0.281739 -2.31794 0
M  V30 835 C 90.597 0.608833 -1.58831 0
M  V30 836 O 91.782 0.533035 -1.86741 0
M  V30 837 C 88.912 0.546612 -3.42971 0
M  V30 838 C 87.866 -0.247904 -4.27281 0
M  V30 839 C 87.192 0.704001 -5.30045 0
M  V30 840 C 88.492 -1.46324 -5.01385 0
M  V30 841 H 90.186 -1.10206 -2.78379 0
M  V30 842 H 87.732 -0.531388 -1.33837 0
M  V30 843 H 89.685 0.944467 -4.1068 0
M  V30 844 H 88.409 1.40011 -2.95067 0
M  V30 845 H 87.068 -0.627281 -3.61194 0
M  V30 846 H 86.716 1.55381 -4.78399 0
M  V30 847 H 86.416 0.176524 -5.87335 0
M  V30 848 H 87.94 1.09944 -6.0062 0
M  V30 849 H 89.354 -1.13871 -5.61877 0
M  V30 850 H 87.751 -1.92728 -5.6831 0
M  V30 851 H 88.821 -2.23467 -4.30338 0
M  V30 852 N 90.1641 1.46063 -0.591896 0
M  V30 853 C 91.4121 2.01938 -0.0808391 0
M  V30 854 C 91.7331 1.46475 1.28725 0
M  V30 855 O 91.0031 0.652944 1.84698 0
M  V30 856 H 89.5831 0.746516 -0.0268938 0
M  V30 857 H 92.2451 1.79055 -0.769752 0
M  V30 858 H 91.3411 3.12094 -0.0187578 0
M  V30 859 N 91.6422 0.330177 1.54103 0
M  V30 860 C 93.0582 -0.0222371 1.59585 0
M  V30 861 C 93.2582 -1.49902 1.34654 0
M  V30 862 O 92.3142 -2.25592 1.13421 0
M  V30 863 C 93.6272 0.401932 2.98002 0
M  V30 864 C 95.1752 0.353145 3.11001 0
M  V30 865 C 95.6502 0.752576 4.51775 0
M  V30 866 N 97.1412 0.706239 4.57784 0
M  V30 867 C 97.8762 0.987417 5.64834 0
M  V30 868 N 97.3722 1.33607 6.79795 0
M  V30 869 N 99.1652 0.91254 5.54643 0
M  V30 870 H 91.3162 1.29228 1.68564 0
M  V30 871 H 93.5792 0.525906 0.78875 0
M  V30 872 H 93.2852 1.4311 3.21267 0
M  V30 873 H 93.1592 -0.229699 3.765 0
M  V30 874 H 95.5462 -0.666822 2.87467 0
M  V30 875 H 95.6272 1.0198 2.34593 0
M  V30 876 H 95.2712 1.77049 4.76042 0
M  V30 877 H 95.2012 0.0635409 5.26562 0
M  V30 878 H 97.6922 0.44889 3.75224 0
M  V30 879 H 98.0052 1.53582 7.57385 0
M  V30 880 H 96.3502 1.37439 6.81275 0
M  V30 881 H 99.5412 0.639601 4.6371 0
M  V30 882 H 99.7142 1.13503 6.37982 0
M  V30 883 N 93.1203 -1.57491 0.0584922 0
M  V30 884 C 94.0673 -2.11958 -0.913376 0
M  V30 885 C 95.0373 -1.02875 -1.30407 0
M  V30 886 O 96.2223 -1.30464 -1.39226 0
M  V30 887 C 93.3623 -2.67497 -2.18035 0
M  V30 888 C 92.4753 -3.90691 -1.84349 0
M  V30 889 C 91.6103 -4.3452 -3.05559 0
M  V30 890 C 90.6493 -5.50395 -2.67827 0
M  V30 891 N 89.7863 -5.89244 -3.81754 0
M  V30 892 H 94.6263 -2.94704 -0.442017 0
M  V30 893 H 92.1633 -1.45643 -0.206545 0
M  V30 894 H 94.1213 -2.978 -2.92183 0
M  V30 895 H 92.7513 -1.87537 -2.62735 0
M  V30 896 H 91.8033 -3.66934 -1.00319 0
M  V30 897 H 93.1153 -4.7489 -1.5258 0
M  V30 898 H 92.2693 -4.66414 -3.87998 0
M  V30 899 H 91.0083 -3.49147 -3.40511 0
M  V30 900 H 90.0133 -5.18165 -1.83806 0
M  V30 901 H 91.2383 -6.3749 -2.34059 0
M  V30 902 H 89.1843 -5.06823 -4.16493 0
M  V30 903 H 89.1013 -6.68151 -3.53708 0
M  V30 904 H 90.3693 -6.25756 -4.64811 0
M  V30 905 N 94.5984 0.214957 -1.56127 0
M  V30 906 C 95.8444 0.939762 -1.79712 0
M  V30 907 C 96.1774 1.83723 -0.629247 0
M  V30 908 O 95.4524 1.90925 0.371197 0
M  V30 909 C 95.7354 1.77306 -3.13424 0
M  V30 910 C 95.5884 0.90164 -4.40671 0
M  V30 911 C 96.9074 2.74956 -3.43638 0
M  V30 912 H 94.0264 0.340214 -0.653776 0
M  V30 913 H 96.6684 0.20824 -1.88855 0
M  V30 914 H 94.8184 2.39673 -3.0576 0
M  V30 915 H 96.4904 0.294206 -4.60361 0
M  V30 916 H 94.7334 0.207368 -4.33304 0
M  V30 917 H 95.4044 1.51923 -5.30682 0
M  V30 918 H 97.8804 2.22724 -3.51473 0
M  V30 919 H 96.7564 3.30358 -4.38355 0
M  V30 920 H 97.0174 3.53023 -2.66134 0
M  V30 921 N 96.0765 1.50051 0.48192 0
M  V30 922 C 97.0395 1.67584 1.5636 0
M  V30 923 C 98.0395 0.546894 1.51214 0
M  V30 924 O 99.2295 0.813725 1.54026 0
M  V30 925 C 96.3615 1.691 2.96003 0
M  V30 926 H 97.5545 2.64078 1.42136 0
M  V30 927 H 95.1075 1.39369 0.707533 0
M  V30 928 H 95.8425 0.742589 3.15684 0
M  V30 929 H 95.6275 2.51105 3.01146 0
M  V30 930 H 97.1175 1.84656 3.74556 0
M  V30 931 N 97.5546 -0.734337 1.39446 0
M  V30 932 C 98.8006 -1.49613 1.36908 0
M  V30 933 C 99.1336 -1.94169 -0.0347829 0
M  V30 934 O 98.4086 -1.66833 -0.999847 0
M  V30 935 C 98.6916 -2.73534 2.34203 0
M  V30 936 C 98.5446 -2.34993 3.83534 0
M  V30 937 C 99.8636 -3.75635 2.29317 0
M  V30 938 H 96.9826 -0.542714 0.498629 0
M  V30 939 H 99.6246 -0.839597 1.70443 0
M  V30 940 H 97.7746 -3.29553 2.05736 0
M  V30 941 H 99.4466 -1.84601 4.22753 0
M  V30 942 H 97.6896 -1.67213 4.00278 0
M  V30 943 H 98.3606 -3.23738 4.47099 0
M  V30 944 H 100.837 -3.29203 2.54489 0
M  V30 945 H 99.7126 -4.60008 2.99472 0
M  V30 946 H 99.9736 -4.22603 1.29842 0
M  V30 947 N 99.0327 -1.24633 -0.964593 0
M  V30 948 C 100.279 -1.08949 -1.71049 0
M  V30 949 C 100.612 0.370302 -1.90637 0
M  V30 950 O 99.8867 1.27349 -1.47011 0
M  V30 951 C 100.17 -1.83329 -3.0994 0
M  V30 952 C 100.023 -3.37077 -2.97824 0
M  V30 953 C 101.342 -1.60846 -4.09654 0
M  V30 954 H 98.4607 -0.397178 -0.620821 0
M  V30 955 H 101.103 -1.5334 -1.12191 0
M  V30 956 H 99.2527 -1.45597 -3.60186 0
M  V30 957 H 100.925 -3.84425 -2.5498 0
M  V30 958 H 99.1677 -3.65298 -2.33965 0
M  V30 959 H 99.8387 -3.84324 -3.96231 0
M  V30 960 H 102.315 -1.93674 -3.68279 0
M  V30 961 H 101.191 -2.1534 -5.04896 0
M  V30 962 H 101.452 -0.547434 -4.38698 0
M  V30 963 N 100.511 1.16574 -1.06058 0
M  V30 964 C 101.788 1.83048 -0.689416 0
M  V30 965 C 102.168 1.94122 0.829443 0
M  V30 966 O 101.516 1.48249 1.7388 0
M  V30 967 C 101.726 3.20186 -1.38859 0
M  V30 968 C 103.074 3.95989 -1.53226 0
M  V30 969 O 104.098 3.29696 -1.3483 0
M  V30 970 O 102.957 5.14813 -1.83384 0
M  V30 971 H 100.051 0.790258 -0.243764 0
M  V30 972 H 102.597 1.23797 -1.16071 0
M  V30 973 H 101.369 3.07146 -2.4244 0
M  V30 974 H 100.992 3.87112 -0.907216 0
M  V30 975 N 101.989 0.842826 1.3317 0
M  V30 976 C 103.219 0.453397 2.01564 0
M  V30 977 C 103.627 -0.951147 1.63554 0
M  V30 978 O 102.97 -1.63021 0.846746 0
M  V30 979 C 103.032 0.499013 3.5602 0
M  V30 980 C 102.696 1.86037 4.1742 0
M  V30 981 C 103.693 2.82416 4.36506 0
M  V30 982 C 101.378 2.15428 4.53757 0
M  V30 983 C 103.372 4.06346 4.91082 0
M  V30 984 C 101.059 3.39615 5.0804 0
M  V30 985 C 102.057 4.3489 5.26649 0
M  V30 986 O 101.745 5.5688 5.79776 0
M  V30 987 H 101.477 0.177871 0.652179 0
M  V30 988 H 104.031 1.13808 1.70988 0
M  V30 989 H 102.261 -0.242467 3.85939 0
M  V30 990 H 103.95 0.126852 4.05702 0
M  V30 991 H 104.716 2.6101 4.08777 0
M  V30 992 H 100.595 1.42061 4.38565 0
M  V30 993 H 104.139 4.80722 5.05522 0
M  V30 994 H 100.036 3.60876 5.352 0
M  V30 995 H 100.804 5.58674 5.98185 0
M  V30 996 N 103.467 -1.45747 0.599634 0
M  V30 997 C 104.713 -2.02592 0.0918643 0
M  V30 998 C 105.046 -1.46806 -1.27128 0
M  V30 999 O 104.321 -0.639658 -1.83681 0
M  V30 1000 C 104.604 -3.60073 0.0443398 0
M  V30 1001 C 104.457 -4.26208 1.43759 0
M  V30 1002 C 105.776 -4.35309 -0.647608 0
M  V30 1003 H 102.895 -0.736175 0.034857 0
M  V30 1004 H 105.537 -1.73694 0.770081 0
M  V30 1005 H 103.687 -3.84823 -0.533224 0
M  V30 1006 H 105.359 -4.12668 2.06162 0
M  V30 1007 H 103.602 -3.84916 2.00056 0
M  V30 1008 H 104.273 -5.35069 1.35665 0
M  V30 1009 H 106.749 -4.15805 -0.156776 0
M  V30 1010 H 105.625 -5.45038 -0.649942 0
M  V30 1011 H 105.886 -4.07598 -1.71219 0
M  V30 1012 N 104.945 -0.338344 -1.53925 0
M  V30 1013 C 105.855 0.529421 -2.28548 0
M  V30 1014 C 106.871 1.11645 -1.3346 0
M  V30 1015 O 108.047 1.13325 -1.66492 0
M  V30 1016 C 105.112 1.66713 -3.03987 0
M  V30 1017 C 104.173 1.11041 -4.14691 0
M  V30 1018 C 103.406 2.19389 -4.86522 0
M  V30 1019 O 103.629 3.40013 -4.57982 0
M  V30 1020 O 102.563 1.83976 -5.73094 0
M  V30 1021 H 106.389 -0.0770399 -3.03602 0
M  V30 1022 H 103.974 -0.103555 -1.49041 0
M  V30 1023 H 105.856 2.32918 -3.5118 0
M  V30 1024 H 104.531 2.25949 -2.31794 0
M  V30 1025 H 103.438 0.413024 -3.71813 0
M  V30 1026 H 104.771 0.562975 -4.8897 0
M  V30 1027 N 106.423 1.57458 -0.0668435 0
M  V30 1028 C 107.834 1.80776 0.466558 0
M  V30 1029 C 108.185 0.980361 1.69951 0
M  V30 1030 O 107.31 0.201441 2.1546 0
M  V30 1031 C 107.905 3.27881 0.85321 0
M  V30 1032 C 106.464 3.52062 1.3315 0
M  V30 1033 C 105.611 2.75513 0.314264 0
M  V30 1034 H 108.562 1.5598 -0.292588 0
M  V30 1035 H 108.583 3.39659 1.715 0
M  V30 1036 H 108.095 3.88075 -0.0443439 0
M  V30 1037 H 106.196 2.97167 2.24772 0
M  V30 1038 H 106.309 4.60762 1.31285 0
M  V30 1039 H 104.673 2.42123 0.790492 0
M  V30 1040 H 105.456 3.38442 -0.575477 0
M  V30 1041 N 107.901 -0.206675 1.56239 0
M  V30 1042 C 109.126 -0.949474 1.8439 0
M  V30 1043 C 109.551 -1.76549 0.649016 0
M  V30 1044 O 108.909 -1.76782 -0.402231 0
M  V30 1045 C 108.957 -1.83078 3.10668 0
M  V30 1046 O 108.061 -2.9281 2.90407 0
M  V30 1047 H 107.402 -0.268033 0.607499 0
M  V30 1048 H 109.932 -0.215488 2.03462 0
M  V30 1049 H 109.942 -2.2377 3.41161 0
M  V30 1050 H 108.617 -1.23112 3.97261 0
M  V30 1051 H 107.194 -2.55956 2.71184 0
M  V30 1052 N 109.379 -1.50304 -0.473955 0
M  V30 1053 C 110.79 -1.54042 -1.0549 0
M  V30 1054 C 111.141 -0.342248 -1.93192 0
M  V30 1055 O 110.266 0.545157 -2.09421 0
M  V30 1056 C 110.861 -2.79152 -1.91989 0
M  V30 1057 C 109.42 -2.8558 -2.45196 0
M  V30 1058 C 108.567 -2.48295 -1.2347 0
M  V30 1059 H 111.518 -1.5661 -0.256693 0
M  V30 1060 H 111.539 -2.60845 -2.7702 0
M  V30 1061 H 111.051 -3.66339 -1.28131 0
M  V30 1062 H 109.152 -2.02738 -3.12615 0
M  V30 1063 H 109.265 -3.88403 -2.80499 0
M  V30 1064 H 107.629 -2.00669 -1.56856 0
M  V30 1065 H 108.412 -3.37787 -0.612789 0
M  V30 1066 N 110.857 0.726932 -1.39834 0
M  V30 1067 C 111.789 1.85147 -1.35104 0
M  V30 1068 C 112.802 1.60736 -0.258392 0
M  V30 1069 O 113.991 1.70821 -0.517931 0
M  V30 1070 C 111.091 3.21332 -1.07697 0
M  V30 1071 C 110.264 3.73033 -2.28396 0
M  V30 1072 C 109.323 4.87802 -1.97322 0
M  V30 1073 O 108.349 5.01043 -2.70083 0
M  V30 1074 N 109.551 5.72768 -0.944273 0
M  V30 1075 H 112.316 1.89706 -2.32017 0
M  V30 1076 H 109.877 0.908006 -1.3404 0
M  V30 1077 H 111.869 3.95691 -0.849144 0
M  V30 1078 H 110.439 3.11992 -0.194909 0
M  V30 1079 H 109.659 2.89934 -2.6708 0
M  V30 1080 H 110.947 4.0431 -3.08887 0
M  V30 1081 H 110.345 5.64669 -0.341427 0
M  V30 1082 H 108.902 6.4716 -0.776346 0
M  V30 1083 N 112.336 1.25143 0.95797 0
M  V30 1084 C 113.584 1.09476 1.69881 0
M  V30 1085 C 113.905 -0.365502 1.91544 0
M  V30 1086 O 113.175 -1.25985 1.50015 0
M  V30 1087 H 111.755 0.402128 0.629525 0
M  V30 1088 H 114.417 1.57214 1.15194 0
M  V30 1089 H 113.513 1.60046 2.6794 0
M  V30 1090 N 113.814 -1.1601 1.06675 0
M  V30 1091 C 115.042 -1.90527 0.806667 0
M  V30 1092 C 115.457 -1.77643 -0.639396 0
M  V30 1093 O 114.814 -1.12369 -1.43803 0
M  V30 1094 C 114.865 -3.41106 1.19705 0
M  V30 1095 O 114.586 -3.53608 2.58636 0
M  V30 1096 C 116.087 -4.32663 0.965266 0
M  V30 1097 H 113.307 -0.604053 0.292166 0
M  V30 1098 H 115.851 -1.47026 1.4214 0
M  V30 1099 H 114.006 -3.82296 0.626774 0
M  V30 1100 H 114.42 -4.47011 2.74375 0
M  V30 1101 H 115.894 -5.36763 1.288 0
M  V30 1102 H 116.371 -4.39089 -0.0987936 0
M  V30 1103 H 116.977 -3.97206 1.52011 0
M  V30 1104 N 115.292 -0.849877 -1.32721 0
M  V30 1105 C 116.708 -0.539102 -1.50219 0
M  V30 1106 C 116.908 0.931271 -1.78689 0
M  V30 1107 O 115.964 1.71455 -1.85363 0
M  V30 1108 C 117.277 -1.42196 -2.64954 0
M  V30 1109 C 118.825 -1.42189 -2.78839 0
M  V30 1110 C 119.3 -2.28985 -3.96648 0
M  V30 1111 N 120.791 -2.26754 -4.03902 0
M  V30 1112 C 121.526 -2.90644 -4.94281 0
M  V30 1113 N 121.022 -3.63629 -5.897 0
M  V30 1114 N 122.815 -2.80057 -4.87365 0
M  V30 1115 H 114.966 -1.80156 -1.12506 0
M  V30 1116 H 117.229 -0.769217 -0.554085 0
M  V30 1117 H 116.935 -2.46733 -2.50631 0
M  V30 1118 H 116.809 -1.10591 -3.60624 0
M  V30 1119 H 119.196 -0.38419 -2.92588 0
M  V30 1120 H 119.277 -1.77807 -1.83898 0
M  V30 1121 H 118.921 -3.32819 -3.83658 0
M  V30 1122 H 118.851 -1.90702 -4.90857 0
M  V30 1123 H 121.342 -1.73688 -3.3562 0
M  V30 1124 H 121.655 -4.09558 -6.55349 0
M  V30 1125 H 120 -3.67737 -5.89741 0
M  V30 1126 H 123.191 -2.22593 -4.11789 0
M  V30 1127 H 123.364 -3.30132 -5.57599 0
M  V30 1128 N 116.77 1.45427 -0.607355 0
M  V30 1129 C 118.016 2.03097 -0.111035 0
M  V30 1130 C 118.371 1.46735 1.24445 0
M  V30 1131 O 117.664 0.632478 1.8086 0
M  V30 1132 C 117.858 3.57398 -0.0129263 0
M  V30 1133 C 117.687 4.28726 -1.35735 0
M  V30 1134 C 116.457 4.66659 -1.93798 0
M  V30 1135 C 118.655 4.60699 -2.28607 0
M  V30 1136 N 116.637 5.22845 -3.21723 0
M  V30 1137 C 118.008 5.17716 -3.41131 0
M  V30 1138 C 120.063 4.42638 -2.27982 0
M  V30 1139 C 118.766 5.58576 -4.53194 0
M  V30 1140 C 120.792 4.84531 -3.39093 0
M  V30 1141 C 120.154 5.4164 -4.50339 0
M  V30 1142 H 116.253 0.777476 -0.083994 0
M  V30 1143 H 118.837 1.77249 -0.805655 0
M  V30 1144 H 117.008 3.82907 0.650914 0
M  V30 1145 H 118.74 4.01722 0.490033 0
M  V30 1146 H 115.495 4.50207 -1.47007 0
M  V30 1147 H 115.919 5.55438 -3.87063 0
M  V30 1148 H 120.561 3.97798 -1.43235 0
M  V30 1149 H 118.279 6.02382 -5.38667 0
M  V30 1150 H 121.865 4.72289 -3.39757 0
M  V30 1151 H 120.745 5.73461 -5.34895 0
M  V30 1152 N 118.248 0.346503 1.53744 0
M  V30 1153 C 119.496 -0.248612 2.00565 0
M  V30 1154 C 119.817 -1.5083 1.23593 0
M  V30 1155 O 119.087 -1.92858 0.343912 0
M  V30 1156 H 117.667 -0.0948564 0.740953 0
M  V30 1157 H 120.329 0.468341 1.89189 0
M  V30 1158 H 119.425 -0.488994 3.08245 0
M  V30 1159 N 119.726 -1.57421 0.075193 0
M  V30 1160 C 120.656 -2.15942 -0.888324 0
M  V30 1161 C 121.637 -1.08737 -1.30806 0
M  V30 1162 O 122.822 -1.36787 -1.37851 0
M  V30 1163 C 119.952 -2.72379 -2.1547 0
M  V30 1164 C 118.906 -3.8478 -1.87425 0
M  V30 1165 C 118.232 -4.27834 -3.20721 0
M  V30 1166 C 119.532 -5.08869 -1.17684 0
M  V30 1167 H 121.226 -2.96705 -0.400799 0
M  V30 1168 H 118.772 -1.42723 -0.191342 0
M  V30 1169 H 120.725 -3.11965 -2.83295 0
M  V30 1170 H 119.449 -1.88841 -2.6647 0
M  V30 1171 H 118.108 -3.45703 -1.22004 0
M  V30 1172 H 117.756 -3.41214 -3.6957 0
M  V30 1173 H 117.456 -5.03605 -3.02746 0
M  V30 1174 H 118.98 -4.70039 -3.89738 0
M  V30 1175 H 120.394 -5.4575 -1.75584 0
M  V30 1176 H 118.791 -5.8994 -1.09956 0
M  V30 1177 H 119.861 -4.84648 -0.156453 0
M  V30 1178 N 121.204 0.198386 -1.56346 0
M  V30 1179 C 122.452 0.91747 -1.80075 0
M  V30 1180 C 122.773 1.83929 -0.647692 0
M  V30 1181 O 122.043 1.93029 0.334166 0
M  V30 1182 H 120.623 0.341774 -0.664228 0
M  V30 1183 H 123.285 0.204684 -1.93822 0
M  V30 1184 H 122.381 1.51055 -2.7311 0
M  V30 1185 N 122.682 1.50554 0.465978 0
M  V30 1186 C 123.93 1.61479 1.21528 0
M  V30 1187 C 124.251 0.319596 1.92363 0
M  V30 1188 O 123.521 -0.663194 1.84333 0
M  V30 1189 H 122.101 0.595055 0.451573 0
M  V30 1190 H 124.763 1.87355 0.53704 0
M  V30 1191 H 123.859 2.42846 1.96042 0
M  V30 1192 N 124.16 -0.719506 1.40217 0
M  V30 1193 C 125.388 -1.50864 1.41589 0
M  V30 1194 C 125.803 -1.88794 0.0145275 0
M  V30 1195 O 125.16 -1.55174 -0.960594 0
M  V30 1196 C 125.211 -2.78646 2.30302 0
M  V30 1197 O 124.932 -2.42321 3.64983 0
M  V30 1198 C 126.433 -3.72569 2.40224 0
M  V30 1199 H 123.653 -0.465709 0.48307 0
M  V30 1200 H 126.197 -0.88785 1.84221 0
M  V30 1201 H 124.352 -3.37019 1.91042 0
M  V30 1202 H 124.766 -3.24514 4.12057 0
M  V30 1203 H 126.24 -4.5908 3.06512 0
M  V30 1204 H 126.717 -4.15403 1.42608 0
M  V30 1205 H 127.323 -3.20109 2.80019 0
M  V30 1206 N 125.638 -1.25649 -0.95132 0
M  V30 1207 C 126.878 -1.11802 -1.71113 0
M  V30 1208 C 127.242 0.334758 -1.89059 0
M  V30 1209 O 128.443 0.595121 -2.62129 0
M  V30 1210 C 126.714 -1.85512 -3.05483 0
M  V30 1211 S 128.273 -1.87597 -3.96677 0
M  V30 1212 H 125.091 -0.399552 -0.588115 0
M  V30 1213 H 127.693 -1.59222 -1.1344 0
M  V30 1214 H 126.397 -2.90299 -2.90094 0
M  V30 1215 H 125.928 -1.38493 -3.68216 0
M  V30 1216 H 127.943 -0.955389 -4.86916 0
M  V30 1217 N 127.117 1.15442 -1.07289 0
M  V30 1218 C 128.363 1.86489 -0.796846 0
M  V30 1219 C 128.696 1.82078 0.675371 0
M  V30 1220 O 127.971 1.24346 1.4956 0
M  V30 1221 C 128.254 3.35626 -1.30489 0
M  V30 1222 C 128.107 3.48673 -2.84161 0
M  V30 1223 C 129.426 4.30357 -0.920907 0
M  V30 1224 H 126.545 0.677144 -0.290939 0
M  V30 1225 H 129.187 1.35633 -1.33056 0
M  V30 1226 H 127.337 3.79068 -0.850883 0
M  V30 1227 H 129.009 3.14099 -3.37846 0
M  V30 1228 H 127.252 2.90253 -3.22391 0
M  V30 1229 H 127.923 4.53453 -3.14777 0
M  V30 1230 H 130.399 3.94871 -1.3121 0
M  V30 1231 H 129.275 5.33193 -1.30372 0
M  V30 1232 H 129.536 4.4176 0.173226 0
M  V30 1233 N 128.595 0.856903 1.32268 0
M  V30 1234 C 129.543 0.291987 2.3076 0
M  V30 1235 C 130.537 -0.585857 1.58947 0
M  V30 1236 O 131.743 -0.47341 1.73663 0
M  V30 1237 H 128.118 0.075721 0.748178 0
M  V30 1238 H 130.089 1.13687 2.75895 0
M  V30 1239 C 128.838 -0.502869 3.44044 0
M  V30 1240 H 128.161 0.163328 3.99466 0
M  V30 1241 H 129.601 -0.863691 4.1511 0
M  V30 1242 C 128.06 -1.68898 2.91505 0
M  V30 1243 O 128.59 -2.78811 2.89184 0
M  V30 1244 N 126.796 -1.51679 2.47875 0
M  V30 1245 H 126.343 -0.622666 2.49961 0
M  V30 1246 H 126.301 -2.31184 2.13076 0
M  V30 1247 N 130.073 -1.45103 0.615059 0
M  V30 1248 C 131.319 -2.02483 0.113347 0
M  V30 1249 C 131.652 -1.48146 -1.25564 0
M  V30 1250 O 130.927 -0.659104 -1.82992 0
M  V30 1251 C 131.21 -3.60005 0.0825278 0
M  V30 1252 C 131.063 -4.2466 1.48271 0
M  V30 1253 C 132.382 -4.35972 -0.601401 0
M  V30 1254 H 129.501 -0.735764 0.0426632 0
M  V30 1255 H 132.143 -1.72868 0.788461 0
M  V30 1256 H 130.293 -3.85367 -0.492378 0
M  V30 1257 H 131.965 -4.10458 2.10527 0
M  V30 1258 H 130.208 -3.82772 2.04127 0
M  V30 1259 H 130.879 -5.336 1.41332 0
M  V30 1260 H 133.355 -4.15947 -0.112666 0
M  V30 1261 H 132.231 -5.45697 -0.592097 0
M  V30 1262 H 132.492 -4.09391 -1.66887 0
M  V30 1263 N 131.551 -0.354651 -1.53558 0
M  V30 1264 C 132.799 0.237972 -2.00694 0
M  V30 1265 C 133.12 1.50173 -1.24391 0
M  V30 1266 O 132.39 1.92673 -0.354135 0
M  V30 1267 H 130.97 0.0909256 -0.741446 0
M  V30 1268 H 133.632 -0.478368 -1.88938 0
M  V30 1269 H 132.728 0.47264 -3.085 0
M  V30 1270 N 133.029 1.57378 -0.0835403 0
M  V30 1271 C 134.269 1.95808 0.586381 0
M  V30 1272 C 134.633 0.963706 1.66062 0
M  V30 1273 O 135.834 1.23608 2.38693 0
M  V30 1274 C 134.105 3.38808 1.13771 0
M  V30 1275 S 135.664 3.99225 1.82112 0
M  V30 1276 H 132.482 0.684675 0.191679 0
M  V30 1277 H 135.084 1.94843 -0.160194 0
M  V30 1278 H 133.788 4.08954 0.344197 0
M  V30 1279 H 133.319 3.43344 1.92038 0
M  V30 1280 H 135.334 3.87087 3.10449 0
M  V30 1281 N 134.507 -0.190092 1.56449 0
M  V30 1282 C 135.756 -0.907912 1.80111 0
M  V30 1283 C 136.069 -1.84214 0.657619 0
M  V30 1284 O 137.275 -2.60094 0.778663 0
M  V30 1285 C 135.731 -1.66485 3.19078 0
M  V30 1286 C 135.339 -0.7752 4.41242 0
M  V30 1287 C 137.083 -2.37201 3.52045 0
M  V30 1288 C 134.99 -1.53129 5.71231 0
M  V30 1289 H 133.92 -0.34276 0.671589 0
M  V30 1290 H 136.571 -0.161109 1.82791 0
M  V30 1291 H 134.953 -2.45572 3.10661 0
M  V30 1292 H 136.127 -0.0226298 4.60794 0
M  V30 1293 H 134.442 -0.178627 4.16017 0
M  V30 1294 H 137.039 -2.94329 4.46402 0
M  V30 1295 H 137.382 -3.11632 2.76028 0
M  V30 1296 H 137.915 -1.65075 3.61932 0
M  V30 1297 H 134.654 -0.82967 6.50228 0
M  V30 1298 H 134.174 -2.25767 5.55688 0
M  V30 1299 H 135.853 -2.08377 6.12526 0
M  V30 1300 N 135.985 -1.50799 -0.457987 0
M  V30 1301 C 137.396 -1.55152 -1.0385 0
M  V30 1302 C 137.747 -0.362719 -1.92818 0
M  V30 1303 O 136.872 0.522915 -2.09987 0
M  V30 1304 C 137.467 -2.81173 -1.89017 0
M  V30 1305 C 136.026 -2.88164 -2.42154 0
M  V30 1306 C 135.173 -2.49591 -1.20829 0
M  V30 1307 H 138.124 -1.56874 -0.240068 0
M  V30 1308 H 138.145 -2.63769 -2.74238 0
M  V30 1309 H 137.657 -3.67677 -1.24238 0
M  V30 1310 H 135.758 -2.06042 -3.10447 0
M  V30 1311 H 135.871 -3.91356 -2.76364 0
M  V30 1312 H 134.235 -2.02322 -1.54719 0
M  V30 1313 H 135.018 -3.38418 -0.576927 0
M  V30 1314 N 137.463 0.71206 -1.40597 0
M  V30 1315 C 138.41 1.82613 -1.41142 0
M  V30 1316 C 139.38 1.63925 -0.267903 0
M  V30 1317 O 140.565 1.85009 -0.466495 0
M  V30 1318 C 137.705 3.20354 -1.28324 0
M  V30 1319 C 136.818 3.50589 -2.52411 0
M  V30 1320 C 135.953 4.77855 -2.32009 0
M  V30 1321 C 134.992 5.01005 -3.51654 0
M  V30 1322 N 134.129 6.19487 -3.30425 0
M  V30 1323 H 138.969 1.81482 -2.36365 0
M  V30 1324 H 136.506 0.886475 -1.17388 0
M  V30 1325 H 138.464 3.99899 -1.18899 0
M  V30 1326 H 137.094 3.20705 -0.367189 0
M  V30 1327 H 136.146 2.65573 -2.72351 0
M  V30 1328 H 137.458 3.63604 -3.41458 0
M  V30 1329 H 136.612 5.65424 -2.19956 0
M  V30 1330 H 135.351 4.67056 -1.40392 0
M  V30 1331 H 134.356 4.1189 -3.64179 0
M  V30 1332 H 135.581 5.13674 -4.44202 0
M  V30 1333 H 133.527 6.09932 -2.41494 0
M  V30 1334 H 133.444 6.33194 -4.13039 0
M  V30 1335 H 134.712 7.09834 -3.22113 0
M  V30 1336 N 138.941 1.26152 0.944643 0
M  V30 1337 C 139.888 1.07408 2.04285 0
M  V30 1338 C 140.858 -0.0198413 1.66088 0
M  V30 1339 O 142.043 0.139264 1.90291 0
M  V30 1340 C 139.183 0.70945 3.37729 0
M  V30 1341 C 138.296 1.87926 3.88983 0
M  V30 1342 C 137.431 1.45807 5.10797 0
M  V30 1343 C 136.47 2.5964 5.54305 0
M  V30 1344 N 135.607 2.18226 6.67324 0
M  V30 1345 H 140.447 2.01389 2.1965 0
M  V30 1346 H 137.984 1.00275 1.07626 0
M  V30 1347 H 139.942 0.478948 4.14442 0
M  V30 1348 H 138.572 -0.193389 3.2222 0
M  V30 1349 H 137.624 2.22279 3.08701 0
M  V30 1350 H 138.936 2.73377 4.17213 0
M  V30 1351 H 138.09 1.18781 5.94959 0
M  V30 1352 H 136.829 0.574414 4.84305 0
M  V30 1353 H 135.834 2.87399 4.68702 0
M  V30 1354 H 137.059 3.48599 5.828 0
M  V30 1355 H 135.005 1.3229 6.42523 0
M  V30 1356 H 134.922 2.97221 6.95123 0
M  V30 1357 H 136.19 1.94403 7.54869 0
M  V30 1358 N 140.419 -1.14872 1.07899 0
M  V30 1359 C 141.349 -2.2193 0.725887 0
M  V30 1360 C 142.33 -1.67622 -0.28927 0
M  V30 1361 O 143.515 -1.93533 -0.160787 0
M  V30 1362 C 140.645 -3.47061 0.128856 0
M  V30 1363 C 139.599 -4.14363 1.07178 0
M  V30 1364 C 138.925 -5.33636 0.337229 0
M  V30 1365 C 140.225 -4.63492 2.40775 0
M  V30 1366 H 141.919 -2.51724 1.62097 0
M  V30 1367 H 139.465 -1.20991 0.780838 0
M  V30 1368 H 141.418 -4.21199 -0.130147 0
M  V30 1369 H 140.142 -3.16617 -0.80134 0
M  V30 1370 H 138.801 -3.42173 1.3158 0
M  V30 1371 H 138.449 -4.99449 -0.596606 0
M  V30 1372 H 138.149 -5.79609 0.965788 0
M  V30 1373 H 139.673 -6.10539 0.0861567 0
M  V30 1374 H 141.087 -5.2913 2.20669 0
M  V30 1375 H 139.484 -5.20148 2.99276 0
M  V30 1376 H 140.554 -3.78834 3.02676 0
M  V30 1377 N 141.898 -0.863906 -1.31812 0
M  V30 1378 C 142.831 -0.259963 -2.26714 0
M  V30 1379 C 143.809 0.607392 -1.50829 0
M  V30 1380 O 144.993 0.562155 -1.79922 0
M  V30 1381 C 142.12 0.632456 -3.32743 0
M  V30 1382 C 141.166 -0.162743 -4.26189 0
M  V30 1383 S 141.999 -1.53726 -5.12961 0
M  V30 1384 C 143.155 -0.650803 -6.22507 0
M  V30 1385 H 143.388 -1.06445 -2.77591 0
M  V30 1386 H 140.921 -0.662071 -1.39485 0
M  V30 1387 H 142.879 1.14167 -3.94305 0
M  V30 1388 H 141.54 1.41083 -2.80632 0
M  V30 1389 H 140.733 0.517366 -5.01338 0
M  V30 1390 H 140.335 -0.60385 -3.69093 0
M  V30 1391 H 142.627 0.141134 -6.77353 0
M  V30 1392 H 143.57 -1.37322 -6.94657 0
M  V30 1393 H 143.978 -0.221041 -5.64067 0
M  V30 1394 N 143.376 1.44774 -0.622745 0
M  V30 1395 C 144.326 2.2774 0.108889 0
M  V30 1396 C 145.31 1.38189 0.824175 0
M  V30 1397 O 146.502 1.62063 0.711664 0
M  V30 1398 C 143.631 3.25353 1.09546 0
M  V30 1399 C 142.717 4.22392 0.380232 0
M  V30 1400 N 143.108 5.02388 -0.586535 0
M  V30 1401 C 141.406 4.41588 0.625792 0
M  V30 1402 C 142.107 5.72894 -1.00834 0
M  V30 1403 N 141.083 5.42479 -0.348878 0
M  V30 1404 H 144.885 2.86993 -0.63341 0
M  V30 1405 H 142.399 1.5611 -0.447589 0
M  V30 1406 H 144.396 3.83538 1.63414 0
M  V30 1407 H 143.056 2.6766 1.83815 0
M  V30 1408 H 144.067 5.0885 -0.963975 0
M  V30 1409 H 140.744 3.95003 1.352 0
M  V30 1410 H 142.134 6.47158 -1.80656 0
M  V30 1411 N 144.854 0.36279 1.53368 0
M  V30 1412 C 145.786 -0.519668 2.23231 0
M  V30 1413 C 146.799 -1.04844 1.24546 0
M  V30 1414 O 147.988 -0.955296 1.50786 0
M  V30 1415 C 145.088 -1.72995 2.9142 0
M  V30 1416 C 144.261 -1.33316 4.16588 0
M  V30 1417 C 143.32 -2.40521 4.68013 0
M  V30 1418 O 142.346 -2.03027 5.3176 0
M  V30 1419 N 143.548 -3.72065 4.45587 0
M  V30 1420 H 146.313 0.078751 2.99597 0
M  V30 1421 H 143.874 0.187833 1.60807 0
M  V30 1422 H 145.866 -2.44184 3.22733 0
M  V30 1423 H 144.436 -2.2353 2.18525 0
M  V30 1424 H 143.656 -0.451236 3.91609 0
M  V30 1425 H 144.944 -1.04432 4.97967 0
M  V30 1426 H 144.342 -4.05304 3.94646 0
M  V30 1427 H 142.899 -4.39366 4.81457 0
M  V30 1428 N 146.332 -1.57332 0.0918853 0
M  V30 1429 C 147.295 -2.12708 -0.85369 0
M  V30 1430 C 148.295 -1.05561 -1.213 0
M  V30 1431 O 149.485 -1.31461 -1.14296 0
M  V30 1432 C 146.617 -2.64503 -2.15061 0
M  V30 1433 H 147.81 -2.97573 -0.3729 0
M  V30 1434 H 145.363 -1.55509 -0.157072 0
M  V30 1435 H 146.098 -1.83149 -2.67632 0
M  V30 1436 H 145.883 -3.4284 -1.90272 0
M  V30 1437 H 147.373 -3.07351 -2.82711 0
M  V30 1438 N 147.81 0.181792 -1.56548 0
M  V30 1439 C 148.773 1.20894 -1.94724 0
M  V30 1440 C 149.773 1.37738 -0.829747 0
M  V30 1441 O 150.963 1.35323 -1.09697 0
M  V30 1442 C 148.095 2.57593 -2.23291 0
M  V30 1443 H 149.288 0.882275 -2.86629 0
M  V30 1444 H 146.841 0.423838 -1.50444 0
M  V30 1445 H 147.576 2.95291 -1.34067 0
M  V30 1446 H 147.361 2.46735 -3.04736 0
M  V30 1447 H 148.851 3.31637 -2.53785 0
M  V30 1448 N 149.288 1.51039 0.449983 0
M  V30 1449 C 150.218 1.74379 1.55288 0
M  V30 1450 C 151.199 0.593236 1.5942 0
M  V30 1451 O 152.384 0.834625 1.7535 0
M  V30 1452 C 149.514 1.85728 2.93466 0
M  V30 1453 C 148.468 3.01078 3.04197 0
M  V30 1454 C 147.794 2.97595 4.44231 0
M  V30 1455 C 149.094 4.41254 2.7945 0
M  V30 1456 H 150.788 2.66725 1.36008 0
M  V30 1457 H 148.334 1.2835 0.652864 0
M  V30 1458 H 150.287 2.0064 3.70569 0
M  V30 1459 H 149.011 0.900207 3.13949 0
M  V30 1460 H 147.67 2.85851 2.29531 0
M  V30 1461 H 147.318 1.99691 4.61663 0
M  V30 1462 H 147.018 3.75046 4.52343 0
M  V30 1463 H 148.542 3.14583 5.23326 0
M  V30 1464 H 149.956 4.56897 3.46292 0
M  V30 1465 H 148.353 5.20315 2.98985 0
M  V30 1466 H 149.423 4.52164 1.75144 0
M  V30 1467 N 150.766 -0.704594 1.40972 0
M  V30 1468 C 151.696 -1.83124 1.44872 0
M  V30 1469 C 152.677 -1.67281 0.30838 0
M  V30 1470 O 153.862 -1.87149 0.518556 0
M  V30 1471 C 150.992 -3.21181 1.32136 0
M  V30 1472 C 149.946 -3.51714 2.43888 0
M  V30 1473 C 149.272 -4.89032 2.16222 0
M  V30 1474 C 150.572 -3.516 3.86232 0
M  V30 1475 H 152.266 -1.80117 2.39161 0
M  V30 1476 H 149.812 -0.865145 1.15114 0
M  V30 1477 H 151.765 -3.99702 1.33479 0
M  V30 1478 H 150.489 -3.24791 0.343279 0
M  V30 1479 H 149.148 -2.75539 2.41813 0
M  V30 1480 H 148.796 -4.89256 1.16778 0
M  V30 1481 H 148.496 -5.10426 2.911 0
M  V30 1482 H 150.02 -5.69873 2.19265 0
M  V30 1483 H 151.434 -4.2014 3.9007 0
M  V30 1484 H 149.831 -3.84523 4.60719 0
M  V30 1485 H 150.901 -2.50757 4.15029 0
M  V30 1486 N 152.244 -1.26651 -0.937939 0
M  V30 1487 C 153.492 -1.12165 -1.68118 0
M  V30 1488 C 153.813 0.334983 -1.92101 0
M  V30 1489 O 153.083 1.23583 -1.52 0
M  V30 1490 H 151.663 -0.412093 -0.623048 0
M  V30 1491 H 154.325 -1.59027 -1.12678 0
M  V30 1492 H 153.421 -1.64289 -2.6536 0
M  V30 1493 N 153.722 1.14298 -1.08507 0
M  V30 1494 C 154.97 1.84993 -0.813763 0
M  V30 1495 C 155.291 1.83405 0.662393 0
M  V30 1496 O 154.561 1.28319 1.48024 0
M  V30 1497 H 153.141 0.684966 -0.298045 0
M  V30 1498 H 155.803 1.385 -1.37126 0
M  V30 1499 H 154.899 2.89788 -1.15884 0
M  V30 1500 N 155.201 0.870884 1.31352 0
M  V30 1501 C 156.131 0.343096 2.30966 0
M  V30 1502 C 157.112 -0.566507 1.60389 0
M  V30 1503 O 158.297 -0.483336 1.88089 0
M  V30 1504 C 155.427 -0.455487 3.443 0
M  V30 1505 C 154.381 0.361103 4.26474 0
M  V30 1506 C 153.707 -0.563221 5.31725 0
M  V30 1507 C 155.007 1.59566 4.97329 0
M  V30 1508 H 156.701 1.17548 2.75359 0
M  V30 1509 H 154.247 0.566686 1.32381 0
M  V30 1510 H 156.2 -0.83525 4.13039 0
M  V30 1511 H 154.924 -1.32139 2.98675 0
M  V30 1512 H 153.583 0.722825 3.59403 0
M  V30 1513 H 153.231 -1.42643 4.82351 0
M  V30 1514 H 152.931 -0.0207409 5.87596 0
M  V30 1515 H 154.455 -0.939808 6.03324 0
M  V30 1516 H 155.869 1.28728 5.58661 0
M  V30 1517 H 154.266 2.07728 5.63 0
M  V30 1518 H 155.336 2.34798 4.24262 0
M  V30 1519 N 156.679 -1.44442 0.630414 0
M  V30 1520 C 157.928 -2.01267 0.132073 0
M  V30 1521 C 158.241 -1.50172 -1.25331 0
M  V30 1522 O 159.447 -1.9912 -1.84562 0
M  V30 1523 C 157.903 -3.59422 0.185362 0
M  V30 1524 C 157.511 -4.19514 1.57201 0
M  V30 1525 C 159.255 -4.23724 -0.256553 0
M  V30 1526 C 157.162 -5.69891 1.58045 0
M  V30 1527 H 156.092 -0.752619 0.0456092 0
M  V30 1528 H 158.743 -1.65666 0.789106 0
M  V30 1529 H 157.125 -3.92318 -0.538759 0
M  V30 1530 H 158.299 -3.98156 2.31966 0
M  V30 1531 H 156.614 -3.67496 1.95795 0
M  V30 1532 H 159.211 -5.34019 -0.269767 0
M  V30 1533 H 159.554 -3.96013 -1.28372 0
M  V30 1534 H 160.087 -3.95629 0.41505 0
M  V30 1535 H 156.826 -6.02336 2.58597 0
M  V30 1536 H 156.346 -5.93373 0.875725 0
M  V30 1537 H 158.025 -6.33515 1.31408 0
M  V30 1538 N 158.157 -0.370918 -1.53173 0
M  V30 1539 C 159.089 0.507823 -2.23503 0
M  V30 1540 C 160.102 1.04182 -1.251 0
M  V30 1541 O 161.291 0.947286 -1.5129 0
M  V30 1542 C 158.391 1.71447 -2.92334 0
M  V30 1543 C 157.564 1.31105 -4.17289 0
M  V30 1544 C 156.623 2.38035 -4.69282 0
M  V30 1545 O 155.649 2.00204 -5.32829 0
M  V30 1546 N 156.851 3.69697 -4.47554 0
M  V30 1547 H 159.616 -0.0946382 -2.99551 0
M  V30 1548 H 157.177 -0.196358 -1.60705 0
M  V30 1549 H 159.169 2.42469 -3.24023 0
M  V30 1550 H 157.739 2.22368 -2.19707 0
M  V30 1551 H 156.959 0.430462 -3.91843 0
M  V30 1552 H 158.247 1.0179 -4.98514 0
M  V30 1553 H 157.645 4.03205 -3.9679 0
M  V30 1554 H 156.202 4.36807 -4.8378 0
M  V30 1555 N 159.635 1.57281 -0.100228 0
M  V30 1556 C 160.912 1.86014 0.604812 0
M  V30 1557 C 161.292 0.998025 1.86018 0
M  V30 1558 O 160.64 0.0718184 2.28387 0
M  V30 1559 C 160.85 3.36784 0.915278 0
M  V30 1560 C 162.198 4.04957 1.27651 0
M  V30 1561 O 163.222 3.41695 1.00613 0
M  V30 1562 O 162.081 5.16593 1.7831 0
M  V30 1563 H 159.175 0.76942 0.303185 0
M  V30 1564 H 161.721 1.69176 -0.133313 0
M  V30 1565 H 160.493 3.91292 0.0248896 0
M  V30 1566 H 160.116 3.58987 1.70921 0
M  V30 1567 N 161.113 -0.173488 1.56642 0
M  V30 1568 C 162.076 -1.19859 1.95362 0
M  V30 1569 C 163.076 -1.37296 0.83704 0
M  V30 1570 O 164.266 -1.34739 1.10413 0
M  V30 1571 C 161.398 -2.56405 2.24654 0
M  V30 1572 H 162.591 -0.867062 2.87092 0
M  V30 1573 H 160.144 -0.415853 1.50666 0
M  V30 1574 H 160.879 -2.94576 1.35631 0
M  V30 1575 H 160.664 -2.45115 3.06041 0
M  V30 1576 H 162.154 -3.30287 2.5554 0
M  V30 1577 N 162.591 -1.51276 -0.441967 0
M  V30 1578 C 164.002 -1.56244 -1.02199 0
M  V30 1579 C 164.353 -0.383149 -1.92422 0
M  V30 1580 O 163.478 0.500613 -2.1053 0
M  V30 1581 C 164.073 -2.83162 -1.86024 0
M  V30 1582 C 162.632 -2.90716 -2.39084 0
M  V30 1583 C 161.779 -2.50858 -1.18175 0
M  V30 1584 H 164.73 -1.5712 -0.223416 0
M  V30 1585 H 164.751 -2.66663 -2.71425 0
M  V30 1586 H 164.263 -3.68974 -1.20331 0
M  V30 1587 H 162.364 -2.09323 -3.08244 0
M  V30 1588 H 162.477 -3.94266 -2.72198 0
M  V30 1589 H 160.841 -2.03951 -1.52565 0
M  V30 1590 H 161.624 -3.3901 -0.541001 0
M  V30 1591 N 164.069 0.697108 -1.41344 0
M  V30 1592 C 165.017 1.83237 -1.43272 0
M  V30 1593 C 166.011 1.66522 -0.310947 0
M  V30 1594 O 167.217 1.73402 -0.482899 0
M  V30 1595 H 163.592 0.603802 -0.448249 0
M  V30 1596 H 165.563 1.78727 -2.38954 0
M  V30 1597 C 164.312 3.21245 -1.33029 0
M  V30 1598 H 163.635 3.34723 -2.18633 0
M  V30 1599 H 165.075 4.00763 -1.38439 0
M  V30 1600 C 163.534 3.36873 -0.0424635 0
M  V30 1601 O 164.064 3.91177 0.913421 0
M  V30 1602 N 162.27 2.90581 0.0331145 0
M  V30 1603 H 161.817 2.46577 -0.745506 0
M  V30 1604 H 161.775 3.01416 0.894199 0
M  V30 1605 N 165.547 1.27147 0.931209 0
M  V30 1606 C 166.777 1.15914 1.71019 0
M  V30 1607 C 167.185 -0.287112 1.87009 0
M  V30 1608 O 166.528 -1.20761 1.38429 0
M  V30 1609 C 166.59 1.76647 3.13107 0
M  V30 1610 C 166.254 3.25807 3.20467 0
M  V30 1611 C 167.251 4.22489 3.02983 0
M  V30 1612 C 164.936 3.66452 3.43538 0
M  V30 1613 C 166.93 5.57794 3.08454 0
M  V30 1614 C 164.617 5.01888 3.48643 0
M  V30 1615 C 165.615 5.97369 3.31119 0
M  V30 1616 O 165.303 7.30337 3.35952 0
M  V30 1617 H 165.035 0.404062 0.54195 0
M  V30 1618 H 167.589 1.68457 1.17521 0
M  V30 1619 H 165.819 1.18578 3.68071 0
M  V30 1620 H 167.508 1.60179 3.72958 0
M  V30 1621 H 168.274 3.92425 2.85004 0
M  V30 1622 H 164.153 2.92611 3.5623 0
M  V30 1623 H 167.697 6.32298 2.94694 0
M  V30 1624 H 163.594 5.31609 3.66145 0
M  V30 1625 H 164.362 7.38739 3.5243 0
M  V30 1626 N 167.025 -1.13721 1.09112 0
M  V30 1627 C 168.273 -1.84559 0.823562 0
M  V30 1628 C 168.594 -1.83754 -0.652658 0
M  V30 1629 O 167.864 -1.29102 -1.47342 0
M  V30 1630 H 166.444 -0.683376 0.301673 0
M  V30 1631 H 169.106 -1.37771 1.37859 0
M  V30 1632 H 168.202 -2.8917 1.17419 0
M  V30 1633 N 168.503 -0.877838 -1.30888 0
M  V30 1634 C 169.749 -0.502773 -1.97088 0
M  V30 1635 C 170.104 0.936274 -1.68082 0
M  V30 1636 O 169.397 1.65162 -0.971196 0
M  V30 1637 C 169.591 -0.705748 -3.50363 0
M  V30 1638 C 169.42 -2.16297 -3.94266 0
M  V30 1639 C 168.19 -2.80614 -4.20219 0
M  V30 1640 C 170.388 -3.13606 -4.07622 0
M  V30 1641 N 168.37 -4.17007 -4.50532 0
M  V30 1642 C 169.741 -4.35051 -4.41736 0
M  V30 1643 C 171.796 -3.09491 -3.90026 0
M  V30 1644 C 170.499 -5.52911 -4.60089 0
M  V30 1645 C 172.525 -4.26616 -4.09576 0
M  V30 1646 C 171.887 -5.46825 -4.44029 0
M  V30 1647 H 167.986 -0.233168 -0.746429 0
M  V30 1648 H 170.57 -1.13408 -1.58261 0
M  V30 1649 H 168.741 -0.103976 -3.88261 0
M  V30 1650 H 170.473 -0.298291 -4.03599 0
M  V30 1651 H 167.228 -2.3152 -4.13153 0
M  V30 1652 H 167.652 -4.87426 -4.69834 0
M  V30 1653 H 172.294 -2.17657 -3.62471 0
M  V30 1654 H 170.012 -6.45255 -4.86489 0
M  V30 1655 H 173.598 -4.24894 -3.97438 0
M  V30 1656 H 172.478 -6.35947 -4.58848 0
M  V30 1657 N 169.982 1.44106 -0.638065 0
M  V30 1658 C 170.892 2.34513 0.0637334 0
M  V30 1659 C 171.908 1.53018 0.828346 0
M  V30 1660 O 173.084 1.85723 0.779036 0
M  V30 1661 C 170.149 3.31095 1.02844 0
M  V30 1662 C 169.21 4.28497 0.26244 0
M  V30 1663 C 168.443 5.20465 1.1812 0
M  V30 1664 O 168.666 5.16514 2.42011 0
M  V30 1665 O 167.6 5.98251 0.661774 0
M  V30 1666 H 171.426 2.95989 -0.68003 0
M  V30 1667 H 169.011 1.43994 -0.398252 0
M  V30 1668 H 170.893 3.90526 1.58327 0
M  V30 1669 H 169.568 2.72144 1.7527 0
M  V30 1670 H 168.475 3.72592 -0.335602 0
M  V30 1671 H 169.808 4.90388 -0.421936 0
M  V30 1672 N 171.46 0.379036 1.52974 0
M  V30 1673 C 172.706 -0.206727 2.01744 0
M  V30 1674 C 173.039 -1.47314 1.26539 0
M  V30 1675 O 172.314 -1.91084 0.362903 0
M  V30 1676 C 172.597 -0.485066 3.56818 0
M  V30 1677 C 172.45 0.795919 4.42702 0
M  V30 1678 C 173.769 -1.28003 4.21074 0
M  V30 1679 H 170.888 -0.0736607 0.73331 0
M  V30 1680 H 173.53 0.506581 1.83122 0
M  V30 1681 H 171.68 -1.09272 3.72816 0
M  V30 1682 H 173.352 1.43307 4.38476 0
M  V30 1683 H 171.595 1.41344 4.10127 0
M  V30 1684 H 172.266 0.555947 5.49193 0
M  V30 1685 H 174.742 -0.765867 4.08991 0
M  V30 1686 H 173.618 -1.44352 5.29579 0
M  V30 1687 H 173.879 -2.29236 3.78026 0
M  V30 1688 N 172.938 -1.57226 0.108567 0
M  V30 1689 C 173.901 -2.13602 -0.831082 0
M  V30 1690 C 174.901 -1.06841 -1.20173 0
M  V30 1691 O 176.091 -1.32666 -1.12895 0
M  V30 1692 C 173.223 -2.66769 -2.12243 0
M  V30 1693 H 174.416 -2.97951 -0.341317 0
M  V30 1694 H 171.969 -1.55667 -0.14057 0
M  V30 1695 H 172.704 -1.85977 -2.65675 0
M  V30 1696 H 172.489 -3.44839 -1.86625 0
M  V30 1697 H 173.979 -3.10332 -2.79435 0
M  V30 1698 N 174.416 0.165178 -1.56732 0
M  V30 1699 C 175.348 1.22911 -1.93457 0
M  V30 1700 C 176.361 1.40152 -0.828333 0
M  V30 1701 O 177.55 1.40046 -1.10677 0
M  V30 1702 C 174.65 2.59686 -2.17753 0
M  V30 1703 C 173.823 2.63663 -3.48999 0
M  V30 1704 C 172.882 3.81845 -3.62051 0
M  V30 1705 O 171.908 3.67559 -4.34613 0
M  V30 1706 N 173.11 4.98557 -2.97357 0
M  V30 1707 H 175.875 0.917118 -2.85323 0
M  V30 1708 H 173.436 0.354895 -1.57962 0
M  V30 1709 H 175.428 3.37225 -2.23743 0
M  V30 1710 H 173.998 2.83251 -1.32242 0
M  V30 1711 H 173.218 1.72173 -3.54612 0
M  V30 1712 H 174.506 2.63336 -4.35352 0
M  V30 1713 H 173.904 5.13065 -2.38287 0
M  V30 1714 H 172.461 5.73936 -3.08934 0
M  V30 1715 N 175.894 1.51508 0.433938 0
M  V30 1716 C 177.305 1.56784 1.01369 0
M  V30 1717 C 177.656 0.393349 1.92217 0
M  V30 1718 O 176.781 -0.489441 2.10792 0
M  V30 1719 C 177.376 2.84144 1.8452 0
M  V30 1720 C 175.935 2.9198 2.37539 0
M  V30 1721 C 175.082 2.51482 1.16843 0
M  V30 1722 H 178.033 1.57236 0.215081 0
M  V30 1723 H 178.054 2.68098 2.70007 0
M  V30 1724 H 177.566 3.69607 1.18373 0
M  V30 1725 H 175.667 2.10955 3.0713 0
M  V30 1726 H 175.78 3.95704 2.70103 0
M  V30 1727 H 174.144 2.04758 1.51481 0
M  V30 1728 H 174.927 3.39293 0.523015 0
M  V30 1729 N 177.372 -0.689602 1.41712 0
M  V30 1730 C 178.618 -1.45181 1.41599 0
M  V30 1731 C 178.951 -1.94181 0.0270081 0
M  V30 1732 O 178.226 -1.6993 -0.946265 0
M  V30 1733 C 178.509 -2.65945 2.42787 0
M  V30 1734 C 178.362 -2.22672 3.90816 0
M  V30 1735 C 179.681 -3.68149 2.41151 0
M  V30 1736 H 176.8 -0.526576 0.515642 0
M  V30 1737 H 179.442 -0.784947 1.73028 0
M  V30 1738 H 177.592 -3.2284 2.16116 0
M  V30 1739 H 179.264 -1.71058 4.28412 0
M  V30 1740 H 177.507 -1.54394 4.05395 0
M  V30 1741 H 178.178 -3.0935 4.57172 0
M  V30 1742 H 180.654 -3.2094 2.64834 0
M  V30 1743 H 179.53 -4.50248 3.13955 0
M  V30 1744 H 179.791 -4.18259 1.43221 0
M  V30 1745 N 178.85 -1.27639 -0.924453 0
M  V30 1746 C 180.261 -1.12834 -1.48746 0
M  V30 1747 C 180.612 0.285505 -1.94112 0
M  V30 1748 O 179.737 1.17874 -1.81479 0
M  V30 1749 C 180.332 -2.04217 -2.70334 0
M  V30 1750 C 178.891 -1.93509 -3.22848 0
M  V30 1751 C 178.038 -1.96583 -1.95577 0
M  V30 1752 H 180.989 -1.40484 -0.738233 0
M  V30 1753 H 181.01 -1.59989 -3.4523 0
M  V30 1754 H 180.522 -3.07111 -2.37285 0
M  V30 1755 H 178.623 -0.936131 -3.60649 0
M  V30 1756 H 178.736 -2.79917 -3.88823 0
M  V30 1757 H 177.1 -1.4085 -2.12211 0
M  V30 1758 H 177.883 -3.01137 -1.64837 0
M  V30 1759 N 180.328 1.1314 -1.09713 0
M  V30 1760 C 181.278 2.16709 -0.708593 0
M  V30 1761 C 182.262 1.58471 0.278523 0
M  V30 1762 O 183.454 1.76779 0.088427 0
M  V30 1763 C 180.583 3.43039 -0.133923 0
M  V30 1764 C 179.669 4.08277 -1.14763 0
M  V30 1765 N 180.06 4.48637 -2.33577 0
M  V30 1766 C 178.358 4.34954 -0.986446 0
M  V30 1767 C 179.059 4.9952 -2.98085 0
M  V30 1768 N 178.035 4.94561 -2.25632 0
M  V30 1769 H 181.837 2.45672 -1.61315 0
M  V30 1770 H 179.351 1.29967 -0.973775 0
M  V30 1771 H 181.348 4.16583 0.162465 0
M  V30 1772 H 180.008 3.15549 0.765447 0
M  V30 1773 H 181.019 4.41246 -2.7115 0
M  V30 1774 H 177.696 4.17258 -0.142008 0
M  V30 1775 H 179.086 5.40521 -3.99108 0
M  V30 1776 N 181.806 0.884767 1.30421 0
M  V30 1777 C 183.083 0.423185 1.90967 0
M  V30 1778 C 183.463 -1.09605 1.80416 0
M  V30 1779 O 182.811 -1.93126 1.22125 0
M  V30 1780 C 183.021 0.921056 3.36627 0
M  V30 1781 C 184.369 0.955903 4.137 0
M  V30 1782 O 185.393 0.867706 3.4547 0
M  V30 1783 O 184.252 1.08614 5.35598 0
M  V30 1784 H 181.346 0.129369 0.816819 0
M  V30 1785 H 183.892 0.973653 1.3899 0
M  V30 1786 H 182.664 1.96489 3.3839 0
M  V30 1787 H 182.287 0.349741 3.96059 0
M  V30 1788 N 183.284 -1.43765 0.645699 0
M  V30 1789 C 184.53 -2.02731 0.164844 0
M  V30 1790 C 184.885 -1.49983 -1.2051 0
M  V30 1791 O 184.178 -0.680208 -1.79119 0
M  V30 1792 C 184.372 -3.57238 0.107679 0
M  V30 1793 C 184.201 -4.24977 1.47054 0
M  V30 1794 C 182.971 -4.61356 2.06103 0
M  V30 1795 C 185.169 -4.54476 2.40741 0
M  V30 1796 N 183.151 -5.14132 3.35473 0
M  V30 1797 C 184.522 -5.08489 3.54737 0
M  V30 1798 C 186.577 -4.36438 2.39637 0
M  V30 1799 C 185.28 -5.46364 4.67845 0
M  V30 1800 C 187.306 -4.7537 3.5182 0
M  V30 1801 C 186.668 -5.2951 4.64541 0
M  V30 1802 H 182.767 -0.774976 0.104578 0
M  V30 1803 H 185.351 -1.75051 0.852367 0
M  V30 1804 H 183.522 -3.84498 -0.549165 0
M  V30 1805 H 185.254 -4.0288 -0.383351 0
M  V30 1806 H 182.009 -4.46151 1.58892 0
M  V30 1807 H 182.433 -5.4498 4.01654 0
M  V30 1808 H 187.075 -3.93861 1.53731 0
M  V30 1809 H 184.793 -5.87888 5.54448 0
M  V30 1810 H 188.379 -4.63115 3.52159 0
M  V30 1811 H 187.259 -5.59077 5.49911 0
M  V30 1812 N 184.763 -0.387143 -1.52771 0
M  V30 1813 C 186.179 -0.037007 -1.59557 0
M  V30 1814 C 186.379 1.44801 -1.40124 0
M  V30 1815 O 185.435 2.21227 -1.21716 0
M  V30 1816 C 186.748 -0.512256 -2.96305 0
M  V30 1817 C 188.296 -0.468328 -3.09476 0
M  V30 1818 C 188.771 -0.919731 -4.4867 0
M  V30 1819 N 190.262 -0.875656 -4.54848 0
M  V30 1820 C 190.997 -1.19637 -5.6078 0
M  V30 1821 N 190.493 -1.58745 -6.74368 0
M  V30 1822 N 192.286 -1.11776 -5.50874 0
M  V30 1823 H 184.437 -1.35395 -1.63652 0
M  V30 1824 H 186.7 -0.554818 -0.768688 0
M  V30 1825 H 186.406 -1.54935 -3.15734 0
M  V30 1826 H 186.28 0.089805 -3.77093 0
M  V30 1827 H 188.667 0.559671 -2.89744 0
M  V30 1828 H 188.748 -1.10616 -2.30646 0
M  V30 1829 H 188.392 -1.94595 -4.69143 0
M  V30 1830 H 188.322 -0.258927 -5.25963 0
M  V30 1831 H 190.813 -0.587843 -3.733 0
M  V30 1832 H 191.126 -1.81586 -7.51163 0
M  V30 1833 H 189.471 -1.6263 -6.75705 0
M  V30 1834 H 192.662 -0.811264 -4.61016 0
M  V30 1835 H 192.835 -1.37103 -6.3333 0
M  V30 1836 N 186.241 1.57166 -0.116904 0
M  V30 1837 C 187.188 2.15202 0.83408 0
M  V30 1838 C 188.158 1.07644 1.26499 0
M  V30 1839 O 189.343 1.35541 1.34288 0
M  V30 1840 C 186.483 2.75405 2.07957 0
M  V30 1841 C 185.596 3.97264 1.69721 0
M  V30 1842 C 184.731 4.45561 2.89221 0
M  V30 1843 C 183.77 5.59956 2.47215 0
M  V30 1844 N 182.907 6.03006 3.59622 0
M  V30 1845 H 187.747 2.96141 0.332335 0
M  V30 1846 H 185.284 1.46309 0.152349 0
M  V30 1847 H 187.242 3.08439 2.80929 0
M  V30 1848 H 185.872 1.97159 2.55594 0
M  V30 1849 H 184.924 3.70404 0.866316 0
M  V30 1850 H 186.236 4.80226 1.34849 0
M  V30 1851 H 185.39 4.80493 3.7042 0
M  V30 1852 H 184.129 3.61544 3.27318 0
M  V30 1853 H 183.134 5.2463 1.64448 0
M  V30 1854 H 184.359 6.45738 2.10238 0
M  V30 1855 H 182.305 5.21931 3.97396 0
M  V30 1856 H 182.222 6.80819 3.28667 0
M  V30 1857 H 183.49 6.42576 4.41267 0
M  V30 1858 N 187.719 -0.156864 1.56817 0
M  V30 1859 C 188.652 -1.22316 1.9265 0
M  V30 1860 C 189.63 -1.42059 0.791076 0
M  V30 1861 O 190.814 -1.56831 1.04576 0
M  V30 1862 C 187.941 -2.58375 2.18998 0
M  V30 1863 C 186.987 -2.55284 3.41661 0
M  V30 1864 S 187.82 -2.02946 4.95553 0
M  V30 1865 C 188.976 -3.40753 5.25013 0
M  V30 1866 H 189.209 -0.917403 2.82791 0
M  V30 1867 H 186.742 -0.362059 1.50095 0
M  V30 1868 H 188.7 -3.36677 2.34859 0
M  V30 1869 H 187.361 -2.86145 1.29538 0
M  V30 1870 H 186.554 -3.55418 3.57343 0
M  V30 1871 H 186.156 -1.85086 3.24991 0
M  V30 1872 H 188.448 -4.36819 5.17876 0
M  V30 1873 H 189.391 -3.29933 6.26538 0
M  V30 1874 H 189.799 -3.37433 4.52548 0
M  V30 1875 N 189.197 -1.51736 -0.425897 0
M  V30 1876 C 190.16 -1.73271 -1.50032 0
M  V30 1877 C 191.16 -0.602639 -1.4908 0
M  V30 1878 O 192.35 -0.87033 -1.509 0
M  V30 1879 C 189.482 -1.79969 -2.89523 0
M  V30 1880 H 190.675 -2.69172 -1.32237 0
M  V30 1881 H 188.228 -1.41899 -0.65532 0
M  V30 1882 H 188.963 -0.859241 -3.1271 0
M  V30 1883 H 188.748 -2.62109 -2.91619 0
M  V30 1884 H 190.238 -1.9843 -3.67444 0
M  V30 1885 N 190.675 0.682077 -1.42076 0
M  V30 1886 C 191.585 1.82535 -1.47371 0
M  V30 1887 C 192.601 1.7017 -0.363079 0
M  V30 1888 O 193.777 1.91848 -0.612875 0
M  V30 1889 C 190.842 3.18624 -1.36674 0
M  V30 1890 C 189.903 3.42999 -2.58167 0
M  V30 1891 C 189.136 4.72595 -2.4797 0
M  V30 1892 O 189.359 5.50006 -1.5116 0
M  V30 1893 O 188.293 4.98054 -3.37974 0
M  V30 1894 H 192.119 1.81023 -2.43853 0
M  V30 1895 H 189.704 0.836887 -1.2376 0
M  V30 1896 H 191.586 3.99847 -1.33043 0
M  V30 1897 H 190.261 3.20789 -0.433138 0
M  V30 1898 H 189.168 2.61653 -2.67373 0
M  V30 1899 H 190.501 3.45659 -3.50401 0
M  V30 1900 N 192.153 1.28127 0.917671 0
M  V30 1901 C 193.116 1.11744 2.00115 0
M  V30 1902 C 194.116 0.0583052 1.60694 0
M  V30 1903 O 195.306 0.303755 1.71531 0
M  V30 1904 C 192.438 0.704862 3.33533 0
M  V30 1905 H 193.631 2.07966 2.16079 0
M  V30 1906 H 191.184 1.11058 1.09981 0
M  V30 1907 H 191.919 -0.258299 3.2327 0
M  V30 1908 H 191.704 1.4699 3.63505 0
M  V30 1909 H 193.194 0.612768 4.1308 0
M  V30 1910 N 193.631 -1.12557 1.10312 0
M  V30 1911 C 194.877 -1.84311 0.846011 0
M  V30 1912 C 195.21 -1.83805 -0.626859 0
M  V30 1913 O 194.485 -1.28268 -1.46211 0
M  V30 1914 C 194.768 -3.32048 1.39341 0
M  V30 1915 C 194.621 -3.41016 2.93305 0
M  V30 1916 C 195.94 -4.27764 1.03468 0
M  V30 1917 H 193.059 -0.669192 0.30879 0
M  V30 1918 H 195.701 -1.32057 1.36605 0
M  V30 1919 H 193.851 -3.76678 0.951087 0
M  V30 1920 H 195.523 -3.05031 3.46055 0
M  V30 1921 H 193.766 -2.81603 3.29973 0
M  V30 1922 H 194.437 -4.44948 3.26689 0
M  V30 1923 H 196.913 -3.91253 1.41633 0
M  V30 1924 H 195.789 -5.29549 1.44463 0
M  V30 1925 H 196.05 -4.42064 -0.0560404 0
M  V30 1926 N 195.109 -0.891671 -1.2995 0
M  V30 1927 C 196.041 -0.320695 -2.26945 0
M  V30 1928 C 197.054 0.528497 -1.53983 0
M  V30 1929 O 198.243 0.346959 -1.75096 0
M  V30 1930 C 195.343 0.562066 -3.34207 0
M  V30 1931 C 194.516 -0.259576 -4.36629 0
M  V30 1932 C 193.575 0.554739 -5.23268 0
M  V30 1933 O 192.601 -0.0249311 -5.69195 0
M  V30 1934 N 193.803 1.8625 -5.4981 0
M  V30 1935 H 196.568 -1.15432 -2.76578 0
M  V30 1936 H 194.129 -0.755336 -1.432 0
M  V30 1937 H 196.121 1.11304 -3.89093 0
M  V30 1938 H 194.691 1.29637 -2.84452 0
M  V30 1939 H 193.911 -0.991986 -3.81514 0
M  V30 1940 H 195.199 -0.822564 -5.02107 0
M  V30 1941 H 194.597 2.35628 -5.14292 0
M  V30 1942 H 193.154 2.36078 -6.07545 0
M  V30 1943 N 196.587 1.43421 -0.653314 0
M  V30 1944 C 197.535 2.32546 0.0501531 0
M  V30 1945 C 198.529 1.48617 0.812985 0
M  V30 1946 O 199.735 1.64825 0.723375 0
M  V30 1947 H 196.11 0.751185 0.0350032 0
M  V30 1948 H 198.081 2.89602 -0.719261 0
M  V30 1949 C 196.83 3.32925 1.00279 0
M  V30 1950 H 196.153 3.97532 0.425236 0
M  V30 1951 H 197.593 3.9792 1.46409 0
M  V30 1952 C 196.052 2.63532 2.09886 0
M  V30 1953 O 196.582 2.45092 3.18265 0
M  V30 1954 N 194.788 2.22905 1.86445 0
M  V30 1955 H 194.335 2.38103 0.98309 0
M  V30 1956 H 194.293 1.76805 2.59976 0
M  V30 1957 N 198.065 0.39524 1.52563 0
M  V30 1958 C 199.015 -0.4541 2.23432 0
M  V30 1959 C 199.999 -1.02482 1.24042 0
M  V30 1960 O 201.191 -0.949938 1.49349 0
M  V30 1961 C 198.32 -1.57769 3.049 0
M  V30 1962 C 197.406 -1.01842 4.1169 0
M  V30 1963 N 197.797 -0.184613 5.05463 0
M  V30 1964 C 196.095 -1.29033 4.26927 0
M  V30 1965 C 196.796 0.125013 5.81566 0
M  V30 1966 N 195.772 -0.480498 5.41472 0
M  V30 1967 H 199.574 0.189413 2.93289 0
M  V30 1968 H 197.088 0.204877 1.61102 0
M  V30 1969 H 199.085 -2.19862 3.54212 0
M  V30 1970 H 197.745 -2.22397 2.36579 0
M  V30 1971 H 198.756 0.178602 5.17592 0
M  V30 1972 H 195.433 -1.93721 3.69836 0
M  V30 1973 H 196.823 0.800962 6.67109 0
M  V30 1974 N 199.544 -1.57102 0.125237 0
M  V30 1975 C 200.79 -1.95697 -0.532035 0
M  V30 1976 C 201.123 -1.009 -1.6593 0
M  V30 1977 O 200.398 -0.047347 -1.94442 0
M  V30 1978 C 200.681 -3.44181 -1.05884 0
M  V30 1979 C 200.534 -4.49752 0.0654392 0
M  V30 1980 C 201.853 -3.94655 -1.9477 0
M  V30 1981 H 198.972 -0.711571 -0.191925 0
M  V30 1982 H 201.614 -1.88923 0.20206 0
M  V30 1983 H 199.764 -3.50085 -1.68442 0
M  V30 1984 H 201.436 -4.55943 0.700982 0
M  V30 1985 H 199.679 -4.27653 0.727709 0
M  V30 1986 H 200.35 -5.50924 -0.344505 0
M  V30 1987 H 202.826 -3.91094 -1.42074 0
M  V30 1988 H 201.702 -4.99057 -2.28546 0
M  V30 1989 H 201.963 -3.35718 -2.87656 0
M  V30 1990 N 201.022 0.148545 -1.56898 0
M  V30 1991 C 201.969 1.18345 -1.98149 0
M  V30 1992 C 202.939 1.42772 -0.848848 0
M  V30 1993 O 204.124 1.55132 -1.11079 0
M  V30 1994 C 201.264 2.51231 -2.36594 0
M  V30 1995 C 200.377 2.33991 -3.63142 0
M  V30 1996 C 199.512 3.59902 -3.90697 0
M  V30 1997 C 198.551 3.37692 -5.1052 0
M  V30 1998 N 197.688 4.5573 -5.34092 0
M  V30 1999 H 202.528 0.82467 -2.86362 0
M  V30 2000 H 200.065 0.395756 -1.41676 0
M  V30 2001 H 202.023 3.28713 -2.56912 0
M  V30 2002 H 200.653 2.85059 -1.51463 0
M  V30 2003 H 199.705 1.47572 -3.50609 0
M  V30 2004 H 201.017 2.13539 -4.5078 0
M  V30 2005 H 200.171 4.45813 -4.11505 0
M  V30 2006 H 198.91 3.83357 -3.01477 0
M  V30 2007 H 197.915 2.5017 -4.89587 0
M  V30 2008 H 199.14 3.15637 -6.0129 0
M  V30 2009 H 197.086 4.79361 -4.47827 0
M  V30 2010 H 197.003 4.38274 -6.15996 0
M  V30 2011 H 198.271 5.42858 -5.59397 0
M  V30 2012 N 202.5 1.5196 0.417844 0
M  V30 2013 C 203.725 1.69717 1.1921 0
M  V30 2014 C 204.15 0.402148 1.83751 0
M  V30 2015 O 203.508 -0.639593 1.69643 0
M  V30 2016 C 203.556 2.82794 2.2374 0
M  V30 2017 O 202.66 2.47756 3.29683 0
M  V30 2018 H 202.001 0.565263 0.348387 0
M  V30 2019 H 204.531 1.98621 0.490985 0
M  V30 2020 H 204.541 3.07452 2.68212 0
M  V30 2021 H 203.216 3.76756 1.76146 0
M  V30 2022 H 201.793 2.33739 2.90552 0
M  V30 2023 N 203.978 -0.674533 1.42435 0
M  V30 2024 C 204.908 -1.80009 1.48724 0
M  V30 2025 C 205.889 -1.6659 0.343793 0
M  V30 2026 O 207.074 -1.86007 0.558137 0
M  V30 2027 C 204.204 -3.18306 1.38919 0
M  V30 2028 C 203.158 -3.46461 2.51294 0
M  V30 2029 C 202.484 -4.84335 2.26547 0
M  V30 2030 C 203.784 -3.43328 3.93603 0
M  V30 2031 H 205.478 -1.75004 2.42928 0
M  V30 2032 H 203.024 -0.840533 1.16923 0
M  V30 2033 H 204.977 -3.9678 1.41927 0
M  V30 2034 H 203.701 -3.2399 0.412094 0
M  V30 2035 H 202.36 -2.70348 2.47604 0
M  V30 2036 H 202.008 -4.86669 1.2713 0
M  V30 2037 H 201.708 -5.04136 3.01861 0
M  V30 2038 H 203.232 -5.65094 2.31304 0
M  V30 2039 H 204.646 -4.11772 3.98894 0
M  V30 2040 H 203.043 -3.74664 4.68771 0
M  V30 2041 H 204.113 -2.41897 4.20255 0
M  V30 2042 N 205.456 -1.28612 -0.910864 0
M  V30 2043 C 206.404 -1.1265 -2.03501 0
M  V30 2044 C 207.398 -0.0450054 -1.6934 0
M  V30 2045 O 208.604 -0.203988 -1.7884 0
M  V30 2046 H 204.979 -0.347639 -0.666822 0
M  V30 2047 H 206.95 -2.07849 -2.14106 0
M  V30 2048 C 205.699 -0.808143 -3.38178 0
M  V30 2049 H 205.022 -1.63231 -3.6496 0
M  V30 2050 H 206.462 -0.736426 -4.17556 0
M  V30 2051 C 204.921 0.488226 -3.33344 0
M  V30 2052 O 205.451 1.51766 -3.71927 0
M  V30 2053 N 203.657 0.490009 -2.86439 0
M  V30 2054 H 203.204 -0.348161 -2.55236 0
M  V30 2055 H 203.162 1.35741 -2.83587 0
M  V30 2056 N 206.934 1.1197 -1.10907 0
M  V30 2057 C 208.18 1.84059 -0.865674 0
M  V30 2058 C 208.535 1.82731 0.602254 0
M  V30 2059 O 207.828 1.26543 1.43866 0
M  V30 2060 C 208.022 3.30749 -1.35425 0
M  V30 2061 C 207.851 3.46363 -2.86815 0
M  V30 2062 C 206.621 3.59712 -3.54874 0
M  V30 2063 C 208.819 3.41116 -3.84895 0
M  V30 2064 N 206.801 3.63741 -4.94536 0
M  V30 2065 C 208.172 3.51698 -5.10596 0
M  V30 2066 C 210.227 3.24612 -3.77533 0
M  V30 2067 C 208.93 3.4748 -6.29802 0
M  V30 2068 C 210.956 3.21708 -4.96244 0
M  V30 2069 C 210.318 3.32856 -6.20795 0
M  V30 2070 H 206.417 0.689015 -0.369841 0
M  V30 2071 H 209.001 1.34016 -1.41237 0
M  V30 2072 H 207.172 3.79322 -0.834814 0
M  V30 2073 H 208.904 3.90718 -1.05458 0
M  V30 2074 H 205.659 3.62038 -3.05329 0
M  V30 2075 H 206.083 3.69408 -5.67333 0
M  V30 2076 H 210.725 3.14883 -2.8215 0
M  V30 2077 H 208.443 3.55978 -7.25469 0
M  V30 2078 H 212.029 3.10113 -4.92261 0
M  V30 2079 H 210.909 3.3059 -7.11112 0
M  V30 2080 N 208.412 0.89855 1.29475 0
M  V30 2081 C 209.66 0.522847 1.9522 0
M  V30 2082 C 209.981 -0.93371 1.71192 0
M  V30 2083 O 209.251 -1.65823 1.04305 0
M  V30 2084 H 207.831 0.190366 0.722336 0
M  V30 2085 H 210.493 1.14459 1.5775 0
M  V30 2086 H 209.589 0.704476 3.04045 0
M  V30 2087 N 209.89 -1.43072 0.660911 0
M  V30 2088 C 210.84 -2.27948 -0.04847 0
M  V30 2089 C 211.824 -1.40325 -0.787246 0
M  V30 2090 O 213.016 -1.63893 -0.668446 0
M  V30 2091 C 210.145 -3.28143 -1.00881 0
M  V30 2092 C 209.231 -4.23252 -0.268108 0
M  V30 2093 N 209.622 -5.00656 0.719528 0
M  V30 2094 C 207.92 -4.43092 -0.508493 0
M  V30 2095 C 208.621 -5.70019 1.15988 0
M  V30 2096 N 207.597 -5.41364 0.492584 0
M  V30 2097 H 211.399 -2.85213 0.709279 0
M  V30 2098 H 208.913 -1.54869 0.488822 0
M  V30 2099 H 210.91 -3.87736 -1.53188 0
M  V30 2100 H 209.57 -2.7244 -1.76654 0
M  V30 2101 H 210.581 -5.06115 1.09855 0
M  V30 2102 H 207.258 -3.98449 -1.24679 0
M  V30 2103 H 208.648 -6.4214 1.97751 0
M  V30 2104 N 211.368 -0.403325 -1.52352 0
M  V30 2105 C 212.784 -0.0539281 -1.59509 0
M  V30 2106 C 212.984 1.43307 -1.41652 0
M  V30 2107 O 212.04 2.19924 -1.24056 0
M  V30 2108 C 213.353 -0.543654 -2.95745 0
M  V30 2109 C 214.901 -0.501125 -3.08962 0
M  V30 2110 C 215.376 -0.967267 -4.47669 0
M  V30 2111 N 216.867 -0.923849 -4.53893 0
M  V30 2112 C 217.602 -1.25578 -5.5948 0
M  V30 2113 N 217.098 -1.65889 -6.72646 0
M  V30 2114 N 218.891 -1.17613 -5.49658 0
M  V30 2115 H 211.042 -1.37123 -1.62206 0
M  V30 2116 H 213.305 -0.56294 -0.76276 0
M  V30 2117 H 213.011 -1.58275 -3.14073 0
M  V30 2118 H 212.885 0.0498042 -3.77167 0
M  V30 2119 H 215.272 0.528909 -2.90321 0
M  V30 2120 H 215.353 -1.13056 -2.2946 0
M  V30 2121 H 214.997 -1.9956 -4.67053 0
M  V30 2122 H 214.927 -0.314698 -5.25659 0
M  V30 2123 H 217.418 -0.627403 -3.72655 0
M  V30 2124 H 217.731 -1.89543 -7.49195 0
M  V30 2125 H 216.076 -1.69787 -6.73942 0
M  V30 2126 H 219.267 -0.860115 -4.6013 0
M  V30 2127 H 219.44 -1.43812 -6.3184 0
M  V30 2128 N 212.846 1.57033 -0.133567 0
M  V30 2129 C 214.092 1.95976 0.521649 0
M  V30 2130 C 214.425 1.01779 1.65393 0
M  V30 2131 O 213.7 0.0576581 1.94415 0
M  V30 2132 C 213.983 3.44738 1.04057 0
M  V30 2133 C 213.836 4.49711 -0.0892897 0
M  V30 2134 C 215.155 3.95682 1.92675 0
M  V30 2135 H 212.274 0.712579 0.188149 0
M  V30 2136 H 214.916 1.88813 -0.212076 0
M  V30 2137 H 213.066 3.50973 1.66583 0
M  V30 2138 H 214.738 4.55565 -0.725152 0
M  V30 2139 H 212.981 4.27261 -0.750378 0
M  V30 2140 H 213.652 5.51099 0.315284 0
M  V30 2141 H 216.128 3.91841 1.39998 0
M  V30 2142 H 215.004 5.00262 2.25897 0
M  V30 2143 H 215.265 3.37239 2.85872 0
M  V30 2144 N 214.325 -0.140222 1.56975 0
M  V30 2145 C 215.257 -1.19818 1.95388 0
M  V30 2146 C 216.27 -1.38816 0.850525 0
M  V30 2147 O 217.459 -1.38267 1.12891 0
M  V30 2148 C 214.559 -2.56189 2.21857 0
M  V30 2149 C 213.732 -2.58077 3.5315 0
M  V30 2150 C 212.791 -3.76037 3.6808 0
M  V30 2151 O 211.817 -3.60598 4.40406 0
M  V30 2152 N 213.019 -4.93763 3.05251 0
M  V30 2153 H 215.784 -0.871609 2.86746 0
M  V30 2154 H 213.345 -0.32972 1.58507 0
M  V30 2155 H 215.337 -3.33623 2.2908 0
M  V30 2156 H 213.907 -2.81111 1.36731 0
M  V30 2157 H 213.127 -1.6651 3.57307 0
M  V30 2158 H 214.415 -2.56377 4.39486 0
M  V30 2159 H 213.813 -5.09209 2.46419 0
M  V30 2160 H 212.37 -5.68949 3.18026 0
M  V30 2161 N 215.803 -1.52179 -0.40978 0
M  V30 2162 C 216.733 -1.78435 -1.5061 0
M  V30 2163 C 217.714 -0.635295 -1.57791 0
M  V30 2164 O 218.899 -0.880823 -1.73076 0
M  V30 2165 C 216.029 -1.93444 -2.88439 0
M  V30 2166 C 214.983 -3.09038 -2.96108 0
M  V30 2167 C 214.309 -3.09268 -4.36185 0
M  V30 2168 C 215.609 -4.48508 -2.67652 0
M  V30 2169 H 217.303 -2.70237 -1.28889 0
M  V30 2170 H 214.849 -1.30036 -0.618605 0
M  V30 2171 H 216.802 -2.10394 -3.65119 0
M  V30 2172 H 215.526 -0.983129 -3.11452 0
M  V30 2173 H 214.185 -2.91837 -2.21872 0
M  V30 2174 H 213.833 -2.11861 -4.56206 0
M  V30 2175 H 213.533 -3.86907 -4.42241 0
M  V30 2176 H 215.057 -3.28348 -5.14801 0
M  V30 2177 H 216.471 -4.65918 -3.34056 0
M  V30 2178 H 214.868 -5.28059 -2.85085 0
M  V30 2179 H 215.938 -4.56649 -1.63095 0
M  V30 2180 N 217.281 0.66697 -1.42791 0
M  V30 2181 C 218.213 1.7925 -1.42836 0
M  V30 2182 C 219.226 1.59496 -0.326333 0
M  V30 2183 O 220.415 1.6847 -0.589916 0
M  V30 2184 C 217.515 3.16476 -1.21229 0
M  V30 2185 C 216.688 3.63011 -2.44013 0
M  V30 2186 C 215.747 4.78993 -2.17834 0
M  V30 2187 O 214.773 4.89137 -2.91091 0
M  V30 2188 N 215.975 5.68248 -1.18635 0
M  V30 2189 H 218.74 1.79695 -2.39854 0
M  V30 2190 H 216.301 0.850338 -1.37771 0
M  V30 2191 H 218.293 3.91734 -1.01621 0
M  V30 2192 H 216.863 3.10884 -0.32706 0
M  V30 2193 H 216.083 2.78346 -2.79137 0
M  V30 2194 H 217.371 3.90845 -3.25757 0
M  V30 2195 H 216.769 5.62712 -0.580615 0
M  V30 2196 H 215.326 6.43285 -1.05013 0
M  V30 2197 N 218.759 1.29093 0.90403 0
M  V30 2198 C 220.036 1.075 1.63411 0
M  V30 2199 C 220.416 -0.382346 2.07609 0
M  V30 2200 O 219.764 -1.37031 1.82851 0
M  V30 2201 C 219.974 2.05858 2.81822 0
M  V30 2202 C 221.322 2.36539 3.52611 0
M  V30 2203 O 222.346 2.04019 2.91984 0
M  V30 2204 O 221.205 2.92085 4.61897 0
M  V30 2205 H 218.299 0.411547 0.717327 0
M  V30 2206 H 220.845 1.40449 0.952479 0
M  V30 2207 H 219.617 3.04037 2.46327 0
M  V30 2208 H 219.24 1.73613 3.57693 0
M  V30 2209 N 220.237 -1.11381 1.11499 0
M  V30 2210 C 221.653 -1.35143 0.849031 0
M  V30 2211 C 221.853 -1.94515 -0.525938 0
M  V30 2212 O 220.909 -2.1785 -1.27662 0
M  V30 2213 C 222.222 -2.28249 1.95762 0
M  V30 2214 C 223.77 -2.41812 1.98736 0
M  V30 2215 C 224.245 -3.3824 3.088 0
M  V30 2216 N 225.736 -3.45803 3.08179 0
M  V30 2217 C 226.471 -4.20358 3.89982 0
M  V30 2218 N 225.967 -4.97884 4.8175 0
M  V30 2219 N 227.76 -4.15877 3.78157 0
M  V30 2220 H 219.911 -0.712062 2.00109 0
M  V30 2221 H 222.174 -0.376025 0.870235 0
M  V30 2222 H 221.88 -1.91817 2.94787 0
M  V30 2223 H 221.754 -3.28473 1.85433 0
M  V30 2224 H 224.141 -2.77518 1.00338 0
M  V30 2225 H 224.222 -1.41437 2.13141 0
M  V30 2226 H 223.866 -3.03261 4.07425 0
M  V30 2227 H 223.796 -4.38471 2.91635 0
M  V30 2228 H 226.287 -2.90506 2.41691 0
M  V30 2229 H 226.6 -5.52142 5.40702 0
M  V30 2230 H 224.945 -4.97043 4.85771 0
M  V30 2231 H 228.136 -3.544 3.05808 0
M  V30 2232 H 228.309 -4.73723 4.42143 0
M  V30 2233 N 221.715 -0.905404 -1.28997 0
M  V30 2234 C 222.662 -0.385892 -2.27551 0
M  V30 2235 C 223.632 0.535113 -1.57244 0
M  V30 2236 O 224.817 0.459119 -1.85194 0
M  V30 2237 C 221.957 0.375461 -3.43051 0
M  V30 2238 C 221.07 -0.577092 -4.28128 0
M  V30 2239 C 220.205 0.201879 -5.30816 0
M  V30 2240 C 219.244 -0.744829 -6.07551 0
M  V30 2241 N 218.381 9.42587e-05 -7.021 0
M  V30 2242 H 223.221 -1.23139 -2.71368 0
M  V30 2243 H 220.758 -0.618542 -1.33463 0
M  V30 2244 H 222.716 0.832992 -4.088 0
M  V30 2245 H 221.346 1.18537 -3.00248 0
M  V30 2246 H 220.398 -1.15315 -3.62501 0
M  V30 2247 H 221.71 -1.30152 -4.8152 0
M  V30 2248 H 220.864 0.720351 -6.02408 0
M  V30 2249 H 219.603 0.959413 -4.7817 0
M  V30 2250 H 218.608 -1.27475 -5.34818 0
M  V30 2251 H 219.833 -1.50178 -6.62286 0
M  V30 2252 H 217.779 0.739791 -6.51815 0
M  V30 2253 H 217.696 -0.664321 -7.53076 0
M  V30 2254 H 218.964 0.498644 -7.77903 0
M  V30 2255 N 223.193 1.4272 -0.668489 0
M  V30 2256 C 224.439 2.01923 -0.188419 0
M  V30 2257 C 224.772 1.52704 1.19979 0
M  V30 2258 O 224.047 0.726566 1.8042 0
M  V30 2259 C 224.33 3.59451 -0.216085 0
M  V30 2260 C 224.183 4.18864 -1.6393 0
M  V30 2261 C 225.502 4.37903 0.439179 0
M  V30 2262 H 222.621 0.733674 -0.0699412 0
M  V30 2263 H 225.263 1.69822 -0.852076 0
M  V30 2264 H 223.413 3.86929 0.349012 0
M  V30 2265 H 225.085 4.02362 -2.25616 0
M  V30 2266 H 223.328 3.74933 -2.18193 0
M  V30 2267 H 223.999 5.27987 -1.61039 0
M  V30 2268 H 226.475 4.16079 -0.0417878 0
M  V30 2269 H 225.351 5.47519 0.389157 0
M  V30 2270 H 225.612 4.15303 1.51577 0
M  V30 2271 N 224.671 0.411399 1.52136 0
M  V30 2272 C 225.618 -0.412975 2.27075 0
M  V30 2273 C 226.588 -1.03912 1.29582 0
M  V30 2274 O 227.773 -1.06296 1.58448 0
M  V30 2275 C 224.913 -1.52247 3.09701 0
M  V30 2276 C 224.026 -0.917021 4.22155 0
M  V30 2277 C 223.161 -1.9994 4.92135 0
M  V30 2278 C 222.2 -1.37101 5.96548 0
M  V30 2279 N 221.337 -2.39364 6.60038 0
M  V30 2280 H 226.177 0.232499 2.97092 0
M  V30 2281 H 223.714 0.126496 1.46555 0
M  V30 2282 H 225.672 -2.17674 3.55913 0
M  V30 2283 H 224.302 -2.13794 2.41851 0
M  V30 2284 H 223.354 -0.151742 3.80097 0
M  V30 2285 H 224.666 -0.418006 4.97045 0
M  V30 2286 H 223.82 -2.73088 5.41763 0
M  V30 2287 H 222.559 -2.53208 4.16818 0
M  V30 2288 H 221.564 -0.624873 5.46237 0
M  V30 2289 H 222.789 -0.845998 6.7381 0
M  V30 2290 H 220.735 -2.91759 5.87548 0
M  V30 2291 H 220.652 -1.9428 7.3061 0
M  V30 2292 H 221.92 -3.12074 7.14304 0
M  V30 2293 N 226.149 -1.5696 0.141893 0
M  V30 2294 C 227.379 -2.00031 -0.516828 0
M  V30 2295 C 227.787 -1.02091 -1.59293 0
M  V30 2296 O 227.13 -0.00909657 -1.83698 0
M  V30 2297 C 227.192 -3.39534 -1.1814 0
M  V30 2298 C 226.856 -4.56313 -0.250513 0
M  V30 2299 C 227.853 -5.17295 0.519839 0
M  V30 2300 C 225.538 -5.02061 -0.154907 0
M  V30 2301 C 227.532 -6.2243 1.3733 0
M  V30 2302 C 225.219 -6.07053 0.702161 0
M  V30 2303 C 226.217 -6.67106 1.46487 0
M  V30 2304 O 225.905 -7.70066 2.30767 0
M  V30 2305 H 225.637 -0.661451 -0.139493 0
M  V30 2306 H 228.191 -2.04086 0.231926 0
M  V30 2307 H 226.421 -3.32302 -1.97769 0
M  V30 2308 H 228.11 -3.66745 -1.73933 0
M  V30 2309 H 228.876 -4.82852 0.45598 0
M  V30 2310 H 224.755 -4.5505 -0.7383 0
M  V30 2311 H 228.299 -6.69233 1.96909 0
M  V30 2312 H 224.196 -6.40923 0.76733 0
M  V30 2313 H 224.964 -7.87264 2.23959 0
M  V30 2314 N 227.627 0.131896 -1.57047 0
M  V30 2315 C 228.874 0.841932 -1.84168 0
M  V30 2316 C 229.202 1.8048 -0.725066 0
M  V30 2317 O 228.457 1.93618 0.284692 0
M  V30 2318 C 228.756 1.63703 -3.17704 0
M  V30 2319 C 228.422 0.81961 -4.43388 0
M  V30 2320 C 227.084 0.594148 -4.77518 0
M  V30 2321 C 229.436 0.248977 -5.20605 0
M  V30 2322 C 226.764 -0.212409 -5.86315 0
M  V30 2323 C 229.116 -0.544701 -6.30251 0
M  V30 2324 C 227.78 -0.780599 -6.6292 0
M  V30 2325 H 227.05 0.308085 -0.673917 0
M  V30 2326 H 229.697 0.104867 -1.91213 0
M  V30 2327 H 228.002 2.44464 -3.06177 0
M  V30 2328 H 229.699 2.19015 -3.35907 0
M  V30 2329 H 226.289 1.00542 -4.16641 0
M  V30 2330 H 230.473 0.410408 -4.946 0
M  V30 2331 H 225.729 -0.404524 -6.1006 0
M  V30 2332 H 229.903 -0.993922 -6.89271 0
M  V30 2333 H 227.53 -1.40742 -7.47058 0
M  V30 2334 N 229.106 1.52395 0.401703 0
M  V30 2335 C 230.054 1.7689 1.51039 0
M  V30 2336 C 231.048 0.636298 1.56996 0
M  V30 2337 O 232.254 0.818507 1.60314 0
M  V30 2338 H 228.629 0.559502 0.502456 0
M  V30 2339 H 230.6 2.69757 1.27568 0
M  V30 2340 C 229.349 1.94331 2.88324 0
M  V30 2341 H 228.672 2.80905 2.84486 0
M  V30 2342 H 230.112 2.15466 3.65172 0
M  V30 2343 C 228.571 0.712396 3.29282 0
M  V30 2344 O 229.101 -0.116218 4.01532 0
M  V30 2345 N 227.307 0.546154 2.85422 0
M  V30 2346 H 226.854 1.22156 2.26794 0
M  V30 2347 H 226.812 -0.276113 3.13185 0
M  V30 2348 N 230.584 -0.659388 1.43143 0
M  V30 2349 C 231.833 -1.41518 1.43721 0
M  V30 2350 C 232.146 -1.95499 0.0628176 0
M  V30 2351 O 233.352 -2.71446 -0.0539683 0
M  V30 2352 C 231.808 -2.5608 2.52885 0
M  V30 2353 C 231.416 -2.08733 3.96402 0
M  V30 2354 C 233.16 -3.3349 2.62649 0
M  V30 2355 C 231.067 -3.20469 4.97045 0
M  V30 2356 H 229.997 -0.531705 0.534608 0
M  V30 2357 H 232.648 -0.712343 1.69109 0
M  V30 2358 H 231.03 -3.28805 2.20688 0
M  V30 2359 H 232.204 -1.43059 4.3803 0
M  V30 2360 H 230.519 -1.44219 3.90627 0
M  V30 2361 H 233.116 -4.16734 3.35017 0
M  V30 2362 H 233.459 -3.8111 1.67513 0
M  V30 2363 H 233.992 -2.67842 2.94118 0
M  V30 2364 H 230.731 -2.77824 5.93712 0
M  V30 2365 H 230.251 -3.84874 4.60034 0
M  V30 2366 H 231.93 -3.85698 5.19467 0
M  V30 2367 N 232.062 -1.29571 -0.897171 0
M  V30 2368 C 233.009 -1.14916 -2.00158 0
M  V30 2369 C 233.979 -0.0418149 -1.66047 0
M  V30 2370 O 235.164 -0.209793 -1.89643 0
M  V30 2371 C 232.304 -0.834307 -3.34863 0
M  V30 2372 C 231.417 -2.02234 -3.8174 0
M  V30 2373 C 230.552 -1.64664 -5.05034 0
M  V30 2374 C 229.591 -2.80033 -5.44286 0
M  V30 2375 N 228.728 -2.42843 -6.58765 0
M  V30 2376 H 233.568 -2.09403 -2.12025 0
M  V30 2377 H 231.105 -1.042 -1.0383 0
M  V30 2378 H 233.063 -0.632436 -4.12379 0
M  V30 2379 H 231.693 0.0736656 -3.22716 0
M  V30 2380 H 230.745 -2.33583 -3.00238 0
M  V30 2381 H 232.057 -2.88673 -4.06779 0
M  V30 2382 H 231.211 -1.4078 -5.9014 0
M  V30 2383 H 229.95 -0.753766 -4.8184 0
M  V30 2384 H 228.955 -3.04596 -4.57713 0
M  V30 2385 H 230.18 -3.69989 -5.6946 0
M  V30 2386 H 228.126 -1.56046 -6.3717 0
M  V30 2387 H 228.043 -3.22815 -6.83613 0
M  V30 2388 H 229.311 -2.22285 -7.47134 0
M  V30 2389 N 233.54 1.10788 -1.12088 0
M  V30 2390 C 234.503 2.15207 -0.788577 0
M  V30 2391 C 235.503 1.59609 0.195317 0
M  V30 2392 O 236.693 1.74174 -0.0300193 0
M  V30 2393 C 233.825 3.4047 -0.171174 0
M  V30 2394 H 235.018 2.46116 -1.71368 0
M  V30 2395 H 232.571 1.26089 -0.923652 0
M  V30 2396 H 233.306 3.15176 0.763832 0
M  V30 2397 H 233.091 3.82109 -0.879514 0
M  V30 2398 H 234.581 4.17576 0.04496 0
M  V30 2399 N 235.018 0.912232 1.28515 0
M  V30 2400 C 236.243 0.559774 1.99703 0
M  V30 2401 C 236.668 -0.851393 1.67729 0
M  V30 2402 O 236.026 -1.56875 0.908834 0
M  V30 2403 C 236.074 0.773874 3.52198 0
M  V30 2404 O 235.178 -0.167842 4.12058 0
M  V30 2405 H 234.519 0.21723 0.627461 0
M  V30 2406 H 237.049 1.22725 1.63706 0
M  V30 2407 H 237.059 0.683386 4.02236 0
M  V30 2408 H 235.734 1.80261 3.74805 0
M  V30 2409 H 234.311 -0.0287509 3.72889 0
M  V30 2410 N 236.496 -1.42363 0.676048 0
M  V30 2411 C 237.743 -2.01522 0.19883 0
M  V30 2412 C 238.071 -1.53456 -1.19505 0
M  V30 2413 O 237.326 -0.727967 -1.81657 0
M  V30 2414 C 237.625 -3.56929 0.183431 0
M  V30 2415 C 237.291 -4.24431 1.52215 0
M  V30 2416 C 235.953 -4.42585 1.8887 0
M  V30 2417 C 238.305 -4.62459 2.40377 0
M  V30 2418 C 235.633 -4.96039 3.13309 0
M  V30 2419 C 237.985 -5.17294 3.64129 0
M  V30 2420 C 236.649 -5.33661 4.00951 0
M  V30 2421 H 235.919 -0.737419 0.0727571 0
M  V30 2422 H 238.566 -1.70531 0.871281 0
M  V30 2423 H 236.871 -3.87594 -0.572532 0
M  V30 2424 H 238.568 -4.00486 -0.203035 0
M  V30 2425 H 235.158 -4.10661 1.22701 0
M  V30 2426 H 239.342 -4.48105 2.13343 0
M  V30 2427 H 234.598 -5.06896 3.41857 0
M  V30 2428 H 238.772 -5.45704 4.32644 0
M  V30 2429 H 236.399 -5.74845 4.9745 0
M  V30 2430 N 237.974 -0.419461 -1.51915 0
M  V30 2431 C 239.22 0.153166 -2.02221 0
M  V30 2432 C 239.553 1.43907 -1.30401 0
M  V30 2433 O 238.828 1.90055 -0.413438 0
M  V30 2434 C 239.111 0.390291 -3.57979 0
M  V30 2435 C 238.964 -0.913014 -4.40436 0
M  V30 2436 C 240.283 1.16794 -4.2432 0
M  V30 2437 H 237.402 0.0541924 -0.735005 0
M  V30 2438 H 240.044 -0.554955 -1.81715 0
M  V30 2439 H 238.194 0.993491 -3.75582 0
M  V30 2440 H 239.866 -1.54882 -4.34522 0
M  V30 2441 H 238.109 -1.52168 -4.06236 0
M  V30 2442 H 238.78 -0.701361 -5.47526 0
M  V30 2443 H 241.256 0.657161 -4.10878 0
M  V30 2444 H 240.132 1.3026 -5.3322 0
M  V30 2445 H 240.393 2.19132 -3.83971 0
M  V30 2446 N 239.452 1.56882 -0.150215 0
M  V30 2447 C 240.729 1.87844 0.545327 0
M  V30 2448 C 241.109 1.0567 1.82749 0
M  V30 2449 O 240.457 0.144442 2.28043 0
M  V30 2450 C 240.667 3.39526 0.80767 0
M  V30 2451 C 242.015 4.08814 1.14703 0
M  V30 2452 O 243.039 3.44723 0.896917 0
M  V30 2453 O 241.898 5.22004 1.61784 0
M  V30 2454 H 238.992 0.778677 0.278553 0
M  V30 2455 H 241.538 1.68666 -0.187068 0
M  V30 2456 H 240.31 3.91173 -0.0996096 0
M  V30 2457 H 239.933 3.64243 1.59413 0
M  V30 2458 N 240.93 -0.123565 1.57115 0
M  V30 2459 C 241.84 -1.17074 2.033 0
M  V30 2460 C 242.856 -1.4561 0.952559 0
M  V30 2461 O 244.032 -1.56817 1.26374 0
M  V30 2462 C 241.097 -2.47857 2.42421 0
M  V30 2463 C 240.158 -2.26758 3.64526 0
M  V30 2464 C 239.391 -3.51305 4.01771 0
M  V30 2465 O 239.614 -4.5843 3.39409 0
M  V30 2466 O 238.548 -3.42578 4.94898 0
M  V30 2467 H 242.374 -0.808555 2.92739 0
M  V30 2468 H 239.959 -0.334027 1.45618 0
M  V30 2469 H 241.841 -3.2492 2.68338 0
M  V30 2470 H 240.516 -2.83558 1.5613 0
M  V30 2471 H 239.423 -1.47569 3.43765 0
M  V30 2472 H 240.756 -1.95963 4.51508 0
M  V30 2473 N 242.408 -1.52605 -0.393616 0
M  V30 2474 C 243.358 -1.73436 -1.48 0
M  V30 2475 C 244.342 -0.588386 -1.49756 0
M  V30 2476 O 245.534 -0.846047 -1.5547 0
M  V30 2477 C 242.663 -1.90247 -2.85764 0
M  V30 2478 C 241.749 -3.10763 -2.88595 0
M  V30 2479 N 242.14 -4.33196 -2.61103 0
M  V30 2480 C 240.438 -3.10914 -3.19763 0
M  V30 2481 C 241.139 -5.1477 -2.70899 0
M  V30 2482 N 240.115 -4.50356 -3.04435 0
M  V30 2483 H 243.917 -2.65727 -1.25563 0
M  V30 2484 H 241.431 -1.5085 -0.601513 0
M  V30 2485 H 243.428 -2.03291 -3.63976 0
M  V30 2486 H 242.088 -0.991663 -3.09186 0
M  V30 2487 H 243.099 -4.61408 -2.35209 0
M  V30 2488 H 239.776 -2.29626 -3.4868 0
M  V30 2489 H 241.166 -6.22355 -2.53227 0
M  V30 2490 N 243.887 0.651787 -1.4349 0
M  V30 2491 C 245.115 1.43937 -1.48626 0
M  V30 2492 C 245.53 1.8851 -0.104587 0
M  V30 2493 O 244.887 1.5958 0.885464 0
M  V30 2494 C 244.938 2.6734 -2.43334 0
M  V30 2495 O 244.659 2.24631 -3.76128 0
M  V30 2496 C 246.16 3.60683 -2.57726 0
M  V30 2497 H 243.38 0.44213 -0.504739 0
M  V30 2498 H 245.924 0.798944 -1.88248 0
M  V30 2499 H 244.079 3.2752 -2.06904 0
M  V30 2500 H 244.493 3.04485 -4.2707 0
M  V30 2501 H 245.967 4.43933 -3.28067 0
M  V30 2502 H 246.444 4.08126 -1.62265 0
M  V30 2503 H 247.05 3.06384 -2.94973 0
M  V30 2504 N 245.365 1.30045 0.890287 0
M  V30 2505 C 246.611 1.18737 1.64406 0
M  V30 2506 C 246.944 -0.258525 1.92472 0
M  V30 2507 O 246.219 -1.18562 1.54186 0
M  V30 2508 C 246.502 2.01087 2.98724 0
M  V30 2509 C 246.355 3.53867 2.77665 0
M  V30 2510 C 247.674 1.84457 3.9958 0
M  V30 2511 H 244.793 0.432698 0.596608 0
M  V30 2512 H 247.435 1.5962 1.0306 0
M  V30 2513 H 245.585 1.66349 3.51084 0
M  V30 2514 H 247.257 3.98637 2.32133 0
M  V30 2515 H 245.5 3.78318 2.12269 0
M  V30 2516 H 246.171 4.06772 3.7315 0
M  V30 2517 H 248.647 2.14817 3.56361 0
M  V30 2518 H 247.523 2.44411 4.91482 0
M  V30 2519 H 247.784 0.802276 4.3476 0
M  V30 2520 N 246.843 -1.10192 1.12674 0
M  V30 2521 C 248.083 -1.83825 0.893736 0
M  V30 2522 C 248.447 -1.83341 -0.570082 0
M  V30 2523 O 249.648 -2.52553 -0.920354 0
M  V30 2524 C 247.919 -3.26405 1.45582 0
M  V30 2525 S 249.478 -4.17136 1.36171 0
M  V30 2526 H 246.296 -0.633732 0.322342 0
M  V30 2527 H 248.898 -1.32581 1.43675 0
M  V30 2528 H 247.602 -3.24329 2.51473 0
M  V30 2529 H 247.133 -3.82721 0.910405 0
M  V30 2530 H 249.148 -4.95069 0.334863 0
M  V30 2531 N 248.321 -0.919034 -1.28029 0
M  V30 2532 C 249.569 -0.553838 -1.94363 0
M  V30 2533 C 249.89 0.906357 -1.72656 0
M  V30 2534 O 249.16 1.64143 -1.0693 0
M  V30 2535 H 247.74 -0.201834 -0.719216 0
M  V30 2536 H 250.402 -1.16954 -1.55909 0
M  V30 2537 H 249.498 -0.752758 -3.02886 0
M  V30 2538 N 249.799 1.42003 -0.683588 0
M  V30 2539 C 251.045 2.01712 -0.209825 0
M  V30 2540 C 251.378 1.53968 1.18353 0
M  V30 2541 O 250.653 0.745661 1.79639 0
M  V30 2542 C 250.936 3.59202 -0.254197 0
M  V30 2543 C 250.789 4.17102 -1.68363 0
M  V30 2544 C 252.108 4.38344 0.392709 0
M  V30 2545 H 249.227 0.732891 -0.0777189 0
M  V30 2546 H 251.869 1.68909 -0.87004 0
M  V30 2547 H 250.019 3.87278 0.307954 0
M  V30 2548 H 251.691 3.99946 -2.29871 0
M  V30 2549 H 249.934 3.72597 -2.22157 0
M  V30 2550 H 250.605 5.26249 -1.6663 0
M  V30 2551 H 253.081 4.16011 -0.0859162 0
M  V30 2552 H 251.957 5.47901 0.331063 0
M  V30 2553 H 252.218 4.16887 1.47164 0
M  V30 2554 N 251.277 0.427512 1.51691 0
M  V30 2555 C 252.24 -0.377132 2.26076 0
M  V30 2556 C 253.24 -0.958089 1.29141 0
M  V30 2557 O 254.43 -0.83408 1.52934 0
M  V30 2558 C 251.562 -1.53262 3.04506 0
M  V30 2559 H 252.755 0.27464 2.9864 0
M  V30 2560 H 250.308 0.180445 1.55255 0
M  V30 2561 H 251.043 -2.22072 2.36335 0
M  V30 2562 H 250.828 -1.12232 3.75694 0
M  V30 2563 H 252.318 -2.10135 3.60878 0
M  V30 2564 N 252.755 -1.56801 0.158532 0
M  V30 2565 C 253.702 -2.17337 -0.776729 0
M  V30 2566 C 254.672 -1.1096 -1.23601 0
M  V30 2567 O 255.857 -1.39054 -1.30647 0
M  V30 2568 C 252.997 -2.80822 -2.00582 0
M  V30 2569 C 252.11 -4.01624 -1.59129 0
M  V30 2570 C 251.245 -4.53072 -2.77306 0
M  V30 2571 C 250.284 -5.66314 -2.32282 0
M  V30 2572 N 249.421 -6.12329 -3.43508 0
M  V30 2573 H 254.261 -2.96918 -0.253701 0
M  V30 2574 H 251.798 -1.46661 -0.113504 0
M  V30 2575 H 253.756 -3.15779 -2.72652 0
M  V30 2576 H 252.386 -2.03866 -2.50277 0
M  V30 2577 H 251.438 -3.72571 -0.767806 0
M  V30 2578 H 252.75 -4.83633 -1.2207 0
M  V30 2579 H 251.904 -4.90145 -3.57551 0
M  V30 2580 H 250.643 -3.70095 -3.17617 0
M  V30 2581 H 249.648 -5.28806 -1.5048 0
M  V30 2582 H 250.873 -6.51085 -1.93043 0
M  V30 2583 H 248.819 -5.32284 -3.83418 0
M  V30 2584 H 248.736 -6.89293 -3.105 0
M  V30 2585 H 250.004 -6.5405 -4.24075 0
M  V30 2586 N 254.233 0.115231 -1.57178 0
M  V30 2587 C 255.481 0.820727 -1.84685 0
M  V30 2588 C 255.802 1.80237 -0.744279 0
M  V30 2589 O 255.072 1.94529 0.231375 0
M  V30 2590 H 253.652 0.306084 -0.681411 0
M  V30 2591 H 256.314 0.101656 -1.94635 0
M  V30 2592 H 255.41 1.36366 -2.80733 0
M  V30 2593 N 255.711 1.52812 0.385517 0
M  V30 2594 C 256.959 1.67694 1.12797 0
M  V30 2595 C 257.28 0.421115 1.90399 0
M  V30 2596 O 256.55 -0.564551 1.87589 0
M  V30 2597 H 255.13 0.618155 0.419396 0
M  V30 2598 H 257.792 1.89938 0.436972 0
M  V30 2599 H 256.888 2.52896 1.82894 0
M  V30 2600 N 257.189 -0.644168 1.43834 0
M  V30 2601 C 258.136 -1.75671 1.49694 0
M  V30 2602 C 259.106 -1.6246 0.345809 0
M  V30 2603 O 260.291 -1.82573 0.554234 0
M  V30 2604 C 257.431 -3.13867 1.43463 0
M  V30 2605 C 256.544 -3.38147 2.6885 0
M  V30 2606 C 255.679 -4.66241 2.54544 0
M  V30 2607 C 254.718 -4.83657 3.75157 0
M  V30 2608 N 253.855 -6.03016 3.59605 0
M  V30 2609 H 258.695 -1.69998 2.44754 0
M  V30 2610 H 256.232 -0.829458 1.21484 0
M  V30 2611 H 258.19 -3.9377 1.37843 0
M  V30 2612 H 256.82 -3.18588 0.519783 0
M  V30 2613 H 255.872 -2.52276 2.84712 0
M  V30 2614 H 257.184 -3.46899 3.58417 0
M  V30 2615 H 256.338 -5.54285 2.46683 0
M  V30 2616 H 255.077 -4.59826 1.62516 0
M  V30 2617 H 254.082 -3.94046 3.83416 0
M  V30 2618 H 255.307 -4.91896 4.68204 0
M  V30 2619 H 253.253 -5.97715 2.7032 0
M  V30 2620 H 253.17 -6.12766 4.42779 0
M  V30 2621 H 254.438 -6.93657 3.55613 0
M  V30 2622 N 258.668 -1.30515 -0.883378 0
M  V30 2623 C 259.578 -1.18959 -2.02203 0
M  V30 2624 C 260.594 -0.109172 -1.73657 0
M  V30 2625 O 261.77 -0.324413 -1.9877 0
M  V30 2626 C 258.835 -0.883871 -3.35244 0
M  V30 2627 C 257.896 -2.04982 -3.77201 0
M  V30 2628 C 257.129 -1.75859 -5.03894 0
M  V30 2629 O 257.352 -0.687276 -5.66244 0
M  V30 2630 O 256.286 -2.61146 -5.42297 0
M  V30 2631 H 260.112 -2.14616 -2.1488 0
M  V30 2632 H 257.697 -1.10124 -1.0096 0
M  V30 2633 H 259.579 -0.728644 -4.15053 0
M  V30 2634 H 258.254 0.0427798 -3.23672 0
M  V30 2635 H 257.161 -2.26038 -2.9809 0
M  V30 2636 H 258.494 -2.95825 -3.93381 0
M  V30 2637 N 260.146 1.09593 -1.13257 0
M  V30 2638 C 261.395 1.81105 -0.887917 0
M  V30 2639 C 261.708 1.86563 0.587672 0
M  V30 2640 O 262.914 2.54367 0.949204 0
M  V30 2641 C 261.37 3.25338 -1.53895 0
M  V30 2642 C 260.978 3.28151 -3.04994 0
M  V30 2643 C 262.722 4.01617 -1.37492 0
M  V30 2644 C 260.629 4.66897 -3.6299 0
M  V30 2645 H 259.559 0.678661 -0.328534 0
M  V30 2646 H 262.21 1.23183 -1.36008 0
M  V30 2647 H 260.592 3.8331 -0.994446 0
M  V30 2648 H 261.766 2.79953 -3.66009 0
M  V30 2649 H 260.081 2.65361 -3.20893 0
M  V30 2650 H 262.678 5.04119 -1.78235 0
M  V30 2651 H 263.021 4.15072 -0.31957 0
M  V30 2652 H 263.554 3.50082 -1.88912 0
M  V30 2653 H 260.293 4.58643 -4.68323 0
M  V30 2654 H 259.813 5.15426 -3.06752 0
M  V30 2655 H 261.492 5.3587 -3.62563 0
M  V30 2656 N 261.624 0.925811 1.2754 0
M  V30 2657 C 262.554 0.440748 2.29303 0
M  V30 2658 C 263.535 -0.497971 1.62648 0
M  V30 2659 O 264.72 -0.403126 1.8997 0
M  V30 2660 C 261.85 -0.309048 3.45922 0
M  V30 2661 C 260.804 0.54166 4.24559 0
M  V30 2662 C 260.13 -0.337191 5.33636 0
M  V30 2663 C 261.43 1.80516 4.90114 0
M  V30 2664 H 263.124 1.29121 2.70126 0
M  V30 2665 H 260.67 0.622323 1.29858 0
M  V30 2666 H 262.623 -0.659315 4.1621 0
M  V30 2667 H 261.347 -1.19352 3.04011 0
M  V30 2668 H 260.006 0.874609 3.56014 0
M  V30 2669 H 259.654 -1.22056 4.87966 0
M  V30 2670 H 259.354 0.228497 5.87156 0
M  V30 2671 H 260.878 -0.683072 6.06767 0
M  V30 2672 H 262.292 1.52307 5.52698 0
M  V30 2673 H 260.689 2.3142 5.53683 0
M  V30 2674 H 261.759 2.52581 4.13921 0
M  V30 2675 N 263.102 -1.41638 0.69111 0
M  V30 2676 C 264.032 -2.3347 0.037248 0
M  V30 2677 C 265.013 -1.51575 -0.771947 0
M  V30 2678 O 266.198 -1.80126 -0.72582 0
M  V30 2679 C 263.328 -3.35354 -0.903064 0
M  V30 2680 C 262.282 -4.27526 -0.201288 0
M  V30 2681 C 261.608 -5.19747 -1.25565 0
M  V30 2682 C 262.908 -5.13959 0.929689 0
M  V30 2683 H 264.602 -2.88397 0.804227 0
M  V30 2684 H 262.148 -1.38669 0.388189 0
M  V30 2685 H 264.101 -3.98519 -1.36969 0
M  V30 2686 H 262.825 -2.78767 -1.70166 0
M  V30 2687 H 261.484 -3.65779 0.245265 0
M  V30 2688 H 261.132 -4.59479 -2.04666 0
M  V30 2689 H 260.832 -5.8225 -0.791128 0
M  V30 2690 H 262.356 -5.85789 -1.72288 0
M  V30 2691 H 263.77 -5.70718 0.543546 0
M  V30 2692 H 262.167 -5.85379 1.32103 0
M  V30 2693 H 263.237 -4.51389 1.77133 0
M  V30 2694 N 264.58 -0.43555 -1.51462 0
M  V30 2695 C 265.805 0.132627 -2.06976 0
M  V30 2696 C 266.23 1.35848 -1.30104 0
M  V30 2697 O 265.588 1.78112 -0.338493 0
M  V30 2698 C 265.636 0.43523 -3.57964 0
M  V30 2699 O 264.74 1.52198 -3.83288 0
M  V30 2700 H 264.081 0.00265 -0.663995 0
M  V30 2701 H 266.611 -0.616369 -1.95095 0
M  V30 2702 H 266.621 0.686206 -4.02188 0
M  V30 2703 H 265.296 -0.460739 -4.1334 0
M  V30 2704 H 263.873 1.2611 -3.50928 0
M  V30 2705 N 266.058 1.56714 -0.166846 0
M  V30 2706 C 267.021 2.16539 0.751232 0
M  V30 2707 C 268.021 1.11228 1.16125 0
M  V30 2708 O 269.211 1.36765 1.07894 0
M  V30 2709 C 266.343 2.74462 2.02196 0
M  V30 2710 H 267.536 2.99013 0.230499 0
M  V30 2711 H 265.089 1.56081 0.0826982 0
M  V30 2712 H 265.824 1.95709 2.58589 0
M  V30 2713 H 265.609 3.51527 1.73698 0
M  V30 2714 H 267.099 3.20489 2.67725 0
M  V30 2715 N 267.536 -0.106894 1.57237 0
M  V30 2716 C 268.813 -0.843526 1.76477 0
M  V30 2717 C 269.193 -1.97499 0.745464 0
M  V30 2718 O 268.541 -2.27357 -0.228306 0
M  V30 2719 C 268.751 -1.34903 3.21873 0
M  V30 2720 C 270.099 -1.79654 3.8472 0
M  V30 2721 O 271.123 -1.44554 3.2555 0
M  V30 2722 O 269.982 -2.44515 4.88748 0
M  V30 2723 H 267.076 -0.401468 0.723016 0
M  V30 2724 H 269.622 -0.0896927 1.69463 0
M  V30 2725 H 268.394 -0.53781 3.87586 0
M  V30 2726 H 268.017 -2.16522 3.33473 0
M  V30 2727 N 269.014 -1.53014 -0.377408 0
M  V30 2728 C 269.964 -1.74996 -1.46152 0
M  V30 2729 C 270.948 -0.604236 -1.49123 0
M  V30 2730 O 272.14 -0.862489 -1.54564 0
M  V30 2731 C 269.269 -1.93267 -2.8373 0
M  V30 2732 C 268.355 -3.13807 -2.85283 0
M  V30 2733 N 268.746 -4.35941 -2.56493 0
M  V30 2734 C 267.044 -3.14288 -3.16448 0
M  V30 2735 C 267.745 -5.17615 -2.65424 0
M  V30 2736 N 266.721 -4.53559 -2.99641 0
M  V30 2737 H 270.523 -2.67044 -1.22738 0
M  V30 2738 H 268.037 -1.51479 -0.585479 0
M  V30 2739 H 270.034 -2.0714 -3.61799 0
M  V30 2740 H 268.694 -1.0244 -3.08117 0
M  V30 2741 H 269.705 -4.63876 -2.30302 0
M  V30 2742 H 266.382 -2.33312 -3.46225 0
M  V30 2743 H 267.772 -6.25006 -2.46612 0
M  V30 2744 N 270.492 0.636531 -1.44174 0
M  V30 2745 C 271.741 1.39213 -1.45954 0
M  V30 2746 C 272.054 1.95374 -0.0939119 0
M  V30 2747 O 273.26 2.71498 0.0107767 0
M  V30 2748 C 271.716 2.52025 -2.56927 0
M  V30 2749 C 271.324 2.024 -3.99673 0
M  V30 2750 C 273.068 3.29269 -2.67922 0
M  V30 2751 C 270.975 3.12521 -5.0208 0
M  V30 2752 H 269.905 0.523132 -0.542999 0
M  V30 2753 H 272.556 0.685349 -1.70221 0
M  V30 2754 H 270.938 3.25253 -2.25891 0
M  V30 2755 H 272.112 1.36073 -4.40251 0
M  V30 2756 H 270.427 1.37987 -3.92872 0
M  V30 2757 H 273.024 4.11352 -3.41605 0
M  V30 2758 H 273.367 3.78397 -1.73555 0
M  V30 2759 H 273.9 2.63129 -2.98342 0
M  V30 2760 H 270.639 2.68343 -5.98057 0
M  V30 2761 H 270.159 3.77507 -4.66099 0
M  V30 2762 H 271.838 3.77385 -5.25538 0
M  V30 2763 N 271.97 1.30982 0.876444 0
M  V30 2764 C 273.219 1.19658 1.62373 0
M  V30 2765 C 273.532 -0.245636 1.94052 0
M  V30 2766 O 274.738 -0.48049 2.67214 0
M  V30 2767 C 273.194 2.09433 2.92687 0
M  V30 2768 C 272.802 3.58613 2.68516 0
M  V30 2769 C 274.546 2.06893 3.70669 0
M  V30 2770 C 272.453 4.40416 3.94699 0
M  V30 2771 H 271.383 0.444268 0.609214 0
M  V30 2772 H 274.034 1.55791 0.969605 0
M  V30 2773 H 272.416 1.66191 3.59439 0
M  V30 2774 H 273.59 4.10058 2.10212 0
M  V30 2775 H 271.905 3.63063 2.03898 0
M  V30 2776 H 274.502 2.65258 4.64265 0
M  V30 2777 H 274.845 1.05448 4.02724 0
M  V30 2778 H 275.378 2.48301 3.10792 0
M  V30 2779 H 272.117 5.42591 3.67798 0
M  V30 2780 H 271.637 3.93731 4.52477 0
M  V30 2781 H 273.316 4.52294 4.62644 0
M  V30 2782 N 273.449 -1.08991 1.13837 0
M  V30 2783 C 274.698 -1.80631 0.897509 0
M  V30 2784 C 275.011 -1.86872 -0.57777 0
M  V30 2785 O 276.217 -2.54866 -0.935701 0
M  V30 2786 C 274.673 -3.24517 1.55618 0
M  V30 2787 C 274.281 -3.26529 3.0673 0
M  V30 2788 C 276.025 -4.00882 1.3962 0
M  V30 2789 C 273.932 -4.64965 3.65461 0
M  V30 2790 H 272.862 -0.67691 0.332129 0
M  V30 2791 H 275.513 -1.2246 1.3666 0
M  V30 2792 H 273.895 -3.82778 1.01476 0
M  V30 2793 H 275.069 -2.78008 3.67489 0
M  V30 2794 H 273.384 -2.63656 3.22296 0
M  V30 2795 H 275.981 -5.03167 1.80906 0
M  V30 2796 H 276.324 -4.14896 0.341578 0
M  V30 2797 H 276.857 -3.49075 1.90766 0
M  V30 2798 H 273.596 -4.56153 4.70749 0
M  V30 2799 H 273.116 -5.13792 3.09481 0
M  V30 2800 H 274.795 -5.3394 3.654 0
M  V30 2801 N 274.927 -0.932562 -1.27047 0
M  V30 2802 C 275.89 -0.440064 -2.24936 0
M  V30 2803 C 276.89 0.444071 -1.54547 0
M  V30 2804 O 278.08 0.244465 -1.72476 0
M  V30 2805 C 275.212 0.36678 -3.38921 0
M  V30 2806 H 276.405 -1.305 -2.70018 0
M  V30 2807 H 273.958 -0.713707 -1.39054 0
M  V30 2808 H 274.693 1.25033 -2.99228 0
M  V30 2809 H 274.478 -0.267204 -3.91188 0
M  V30 2810 H 275.968 0.701567 -4.11665 0
M  V30 2811 N 276.405 1.4127 -0.698611 0
M  V30 2812 C 277.633 2.05503 -0.239992 0
M  V30 2813 C 278.048 1.52584 1.11191 0
M  V30 2814 O 277.405 0.675323 1.69545 0
M  V30 2815 C 277.456 3.60987 -0.192429 0
M  V30 2816 O 277.177 4.1195 -1.49094 0
M  V30 2817 C 278.678 4.42371 0.28681 0
M  V30 2818 H 275.898 0.661748 -0.111045 0
M  V30 2819 H 278.442 1.80987 -0.95205 0
M  V30 2820 H 276.597 3.84533 0.470472 0
M  V30 2821 H 277.011 5.06018 -1.38007 0
M  V30 2822 H 278.485 5.51344 0.26896 0
M  V30 2823 H 278.962 4.18699 1.32619 0
M  V30 2824 H 279.568 4.23897 -0.345201 0
M  V30 2825 N 277.883 0.443576 1.51229 0
M  V30 2826 C 279.131 -0.120557 2.0174 0
M  V30 2827 C 279.452 -1.42665 1.32935 0
M  V30 2828 O 278.722 -1.9028 0.465866 0
M  V30 2829 H 277.302 -0.0475426 0.745486 0
M  V30 2830 H 279.964 0.587711 1.85828 0
M  V30 2831 H 279.06 -0.291972 3.10731 0
M  V30 2832 N 279.361 -1.56624 0.175154 0
M  V30 2833 C 280.609 -1.96609 -0.467885 0
M  V30 2834 C 280.93 -1.06238 -1.63519 0
M  V30 2835 O 280.2 -0.129523 -1.95471 0
M  V30 2836 H 278.78 -0.726008 -0.175845 0
M  V30 2837 H 281.442 -1.93195 0.257234 0
M  V30 2838 H 280.538 -3.00989 -0.825342 0
M  V30 2839 N 280.839 0.0985539 -1.57292 0
M  V30 2840 C 282.255 0.45267 -1.53046 0
M  V30 2841 C 282.455 1.80713 -0.891342 0
M  V30 2842 O 281.511 2.4785 -0.482375 0
M  V30 2843 C 282.824 0.418341 -2.97776 0
M  V30 2844 C 284.372 0.500443 -3.08973 0
M  V30 2845 C 284.847 0.496297 -4.55303 0
M  V30 2846 N 286.338 0.557151 -4.59837 0
M  V30 2847 C 287.073 0.575726 -5.70502 0
M  V30 2848 N 286.569 0.550714 -6.90608 0
M  V30 2849 N 288.362 0.620277 -5.58667 0
M  V30 2850 H 280.513 -0.788673 -1.97215 0
M  V30 2851 H 282.776 -0.293188 -0.901524 0
M  V30 2852 H 282.482 -0.509659 -3.47988 0
M  V30 2853 H 282.356 1.2386 -3.56284 0
M  V30 2854 H 284.743 1.41886 -2.58751 0
M  V30 2855 H 284.824 -0.347894 -2.53423 0
M  V30 2856 H 284.468 -0.418162 -5.06176 0
M  V30 2857 H 284.398 1.3618 -5.08687 0
M  V30 2858 H 286.889 0.581816 -3.73394 0
M  V30 2859 H 287.202 0.568075 -7.70709 0
M  V30 2860 H 285.547 0.517816 -6.93068 0
M  V30 2861 H 288.738 0.637322 -4.63741 0
M  V30 2862 H 288.911 0.631283 -6.44918 0
M  V30 2863 N 282.317 1.53212 0.369288 0
M  V30 2864 C 283.728 1.60943 0.946276 0
M  V30 2865 C 284.079 0.47452 1.90375 0
M  V30 2866 O 283.204 -0.399597 2.12679 0
M  V30 2867 C 283.799 2.91715 1.72302 0
M  V30 2868 C 282.358 3.01792 2.24941 0
M  V30 2869 C 281.505 2.56211 1.06072 0
M  V30 2870 H 284.456 1.58007 0.148198 0
M  V30 2871 H 284.477 2.79309 2.58393 0
M  V30 2872 H 283.989 3.74295 1.0259 0
M  V30 2873 H 282.09 2.23791 2.97906 0
M  V30 2874 H 282.203 4.06803 2.53077 0
M  V30 2875 H 280.567 2.10998 1.4266 0
M  V30 2876 H 281.35 3.41206 0.378639 0
M  V30 2877 N 283.795 -0.628877 1.44509 0
M  V30 2878 C 285.211 -0.947305 1.28446 0
M  V30 2879 C 285.411 -2.00275 0.221872 0
M  V30 2880 O 284.467 -2.49447 -0.391471 0
M  V30 2881 C 285.78 -1.40843 2.65676 0
M  V30 2882 C 287.328 -1.52379 2.73404 0
M  V30 2883 C 287.803 -2.01875 4.11109 0
M  V30 2884 N 289.294 -2.09142 4.13296 0
M  V30 2885 C 290.029 -2.48615 5.16699 0
M  V30 2886 N 289.525 -2.87209 6.30462 0
M  V30 2887 N 291.318 -2.48768 5.04054 0
M  V30 2888 H 283.469 0.0690977 2.12288 0
M  V30 2889 H 285.732 -0.0317164 0.947469 0
M  V30 2890 H 285.438 -0.707206 3.44516 0
M  V30 2891 H 285.312 -2.37902 2.92716 0
M  V30 2892 H 287.699 -2.21598 1.9488 0
M  V30 2893 H 287.78 -0.536898 2.50102 0
M  V30 2894 H 287.424 -1.3325 4.90109 0
M  V30 2895 H 287.354 -3.0144 4.31789 0
M  V30 2896 H 289.845 -1.81991 3.31191 0
M  V30 2897 H 290.158 -3.16149 7.05174 0
M  V30 2898 H 288.503 -2.84955 6.33897 0
M  V30 2899 H 291.694 -2.18009 4.14234 0
M  V30 2900 H 291.867 -2.79207 5.84763 0
M  V30 2901 N 285.273 -1.31445 -0.869486 0
M  V30 2902 C 286.503 -1.23942 -1.65294 0
M  V30 2903 C 286.911 0.197561 -1.88166 0
M  V30 2904 O 286.254 1.14019 -1.44033 0
M  V30 2905 C 286.316 -1.91385 -3.04322 0
M  V30 2906 C 285.98 -3.40726 -3.04557 0
M  V30 2907 C 286.977 -4.36464 -2.82481 0
M  V30 2908 C 284.662 -3.82425 -3.25663 0
M  V30 2909 C 286.656 -5.71876 -2.8149 0
M  V30 2910 C 284.343 -5.1795 -3.243 0
M  V30 2911 C 285.341 -6.12486 -3.02241 0
M  V30 2912 O 285.029 -7.45534 -3.00724 0
M  V30 2913 H 284.761 -0.429459 -0.522054 0
M  V30 2914 H 287.315 -1.73873 -1.0935 0
M  V30 2915 H 285.545 -1.36004 -3.61994 0
M  V30 2916 H 287.234 -1.77791 -3.64891 0
M  V30 2917 H 288 -4.05576 -2.65956 0
M  V30 2918 H 283.879 -3.09274 -3.41863 0
M  V30 2919 H 287.423 -6.45638 -2.64191 0
M  V30 2920 H 283.32 -5.48473 -3.40365 0
M  V30 2921 H 284.088 -7.54713 -3.16782 0
M  V30 2922 N 286.751 1.08385 -1.14413 0
M  V30 2923 C 288.162 1.62258 -0.923535 0
M  V30 2924 C 288.513 1.88691 0.537595 0
M  V30 2925 O 287.638 1.64454 1.40655 0
M  V30 2926 C 288.233 2.94781 -1.67002 0
M  V30 2927 C 286.792 3.45437 -1.495 0
M  V30 2928 C 285.939 2.19668 -1.69238 0
M  V30 2929 H 288.89 0.916086 -1.2959 0
M  V30 2930 H 288.911 3.63229 -1.13334 0
M  V30 2931 H 288.423 2.7551 -2.73342 0
M  V30 2932 H 286.524 3.6981 -0.455097 0
M  V30 2933 H 286.637 4.22173 -2.2651 0
M  V30 2934 H 285.001 2.28849 -1.11804 0
M  V30 2935 H 285.784 2.02905 -2.7692 0
M  V30 2936 N 288.23 0.939286 1.26551 0
M  V30 2937 C 289.458 0.602536 1.97932 0
M  V30 2938 C 289.873 -0.82206 1.69964 0
M  V30 2939 O 289.23 -1.54789 0.966784 0
M  V30 2940 C 289.281 0.832946 3.51773 0
M  V30 2941 O 289.002 2.20151 3.78768 0
M  V30 2942 C 290.503 0.506483 4.40397 0
M  V30 2943 H 287.723 0.227248 0.631347 0
M  V30 2944 H 290.267 1.25948 1.61113 0
M  V30 2945 H 288.422 0.222644 3.8676 0
M  V30 2946 H 288.836 2.26013 4.73306 0
M  V30 2947 H 290.31 0.718333 5.47306 0
M  V30 2948 H 290.787 -0.558451 4.35635 0
M  V30 2949 H 291.393 1.09543 4.10951 0
M  V30 2950 N 289.708 -1.40897 0.706093 0
M  V30 2951 C 290.658 -2.27987 0.0240746 0
M  V30 2952 C 291.642 -1.42759 -0.742204 0
M  V30 2953 O 292.834 -1.65936 -0.615966 0
M  V30 2954 C 289.963 -3.31186 -0.903907 0
M  V30 2955 C 289.049 -4.2389 -0.133318 0
M  V30 2956 N 289.44 -4.98113 0.878444 0
M  V30 2957 C 287.738 -4.44485 -0.367269 0
M  V30 2958 C 288.439 -5.6604 1.34064 0
M  V30 2959 N 287.415 -5.39522 0.664565 0
M  V30 2960 H 291.217 -2.82812 0.799658 0
M  V30 2961 H 288.731 -1.53235 0.537845 0
M  V30 2962 H 290.728 -3.92413 -1.40775 0
M  V30 2963 H 289.388 -2.77922 -1.67897 0
M  V30 2964 H 290.399 -5.02364 1.25901 0
M  V30 2965 H 287.076 -4.02213 -1.1194 0
M  V30 2966 H 288.466 -6.35524 2.1808 0
M  V30 2967 N 291.186 -0.45159 -1.50991 0
M  V30 2968 C 292.435 0.111653 -2.01391 0
M  V30 2969 C 292.748 1.42529 -1.33959 0
M  V30 2970 O 293.954 2.07232 -1.75405 0
M  V30 2971 C 292.41 0.249514 -3.59034 0
M  V30 2972 C 292.018 -1.05453 -4.35412 0
M  V30 2973 C 293.762 0.765762 -4.17536 0
M  V30 2974 C 291.669 -0.881529 -5.84793 0
M  V30 2975 H 290.599 0.0455022 -0.752626 0
M  V30 2976 H 293.25 -0.583524 -1.73975 0
M  V30 2977 H 291.632 1.00803 -3.82955 0
M  V30 2978 H 292.806 -1.82248 -4.23229 0
M  V30 2979 H 291.121 -1.50039 -3.88429 0
M  V30 2980 H 293.718 0.911913 -5.26866 0
M  V30 2981 H 294.061 1.75201 -3.77638 0
M  V30 2982 H 294.594 0.0651744 -3.97747 0
M  V30 2983 H 291.333 -1.84057 -6.29129 0
M  V30 2984 H 290.853 -0.153625 -5.99603 0
M  V30 2985 H 292.532 -0.540363 -6.4474 0
M  V30 2986 N 292.664 1.56529 -0.183458 0
M  V30 2987 C 293.574 2.22144 0.754272 0
M  V30 2988 C 294.59 1.21684 1.24374 0
M  V30 2989 O 295.766 1.54385 1.29333 0
M  V30 2990 C 292.831 2.85884 1.96141 0
M  V30 2991 C 291.892 4.01579 1.51765 0
M  V30 2992 C 291.125 4.6227 2.66725 0
M  V30 2993 O 291.348 4.21865 3.83909 0
M  V30 2994 O 290.282 5.51936 2.40104 0
M  V30 2995 H 294.108 3.02861 0.225527 0
M  V30 2996 H 291.693 1.49331 0.0453032 0
M  V30 2997 H 293.575 3.26253 2.66715 0
M  V30 2998 H 292.25 2.08154 2.47899 0
M  V30 2999 H 291.157 3.65856 0.781049 0
M  V30 3000 H 292.49 4.80938 1.04686 0
M  V30 3001 N 294.142 -0.090211 1.57342 0
M  V30 3002 C 295.39 -0.791241 1.85967 0
M  V30 3003 C 295.711 -1.7903 0.772859 0
M  V30 3004 O 294.981 -1.94872 -0.200398 0
M  V30 3005 H 293.561 -0.295205 0.686195 0
M  V30 3006 H 296.223 -0.0706782 1.94772 0
M  V30 3007 H 295.319 -1.31882 2.82867 0
M  V30 3008 N 295.62 -1.53406 -0.361157 0
M  V30 3009 C 296.583 -1.79479 -1.42548 0
M  V30 3010 C 297.583 -0.665327 -1.4639 0
M  V30 3011 O 298.773 -0.933549 -1.47073 0
M  V30 3012 C 295.905 -1.92087 -2.8163 0
M  V30 3013 H 297.098 -2.74538 -1.20701 0
M  V30 3014 H 294.651 -1.4455 -0.594546 0
M  V30 3015 H 295.386 -0.991099 -3.08784 0
M  V30 3016 H 295.171 -2.74241 -2.80239 0
M  V30 3017 H 296.661 -2.13836 -3.58697 0
M  V30 3018 N 297.098 0.621204 -1.44841 0
M  V30 3019 C 298.028 1.74366 -1.55303 0
M  V30 3020 C 299.009 1.65199 -0.405385 0
M  V30 3021 O 300.194 1.83807 -0.626787 0
M  V30 3022 C 297.324 3.12931 -1.50637 0
M  V30 3023 C 296.278 3.36896 -2.63979 0
M  V30 3024 C 295.604 4.75594 -2.44366 0
M  V30 3025 C 296.904 3.28483 -4.06074 0
M  V30 3026 H 298.598 1.65867 -2.49256 0
M  V30 3027 H 296.144 0.796558 -1.19962 0
M  V30 3028 H 298.097 3.9124 -1.56555 0
M  V30 3029 H 296.821 3.22237 -0.532057 0
M  V30 3030 H 295.48 2.60972 -2.57467 0
M  V30 3031 H 295.128 4.81616 -1.45105 0
M  V30 3032 H 294.828 4.92586 -3.20364 0
M  V30 3033 H 296.352 5.5612 -2.52117 0
M  V30 3034 H 297.766 3.96684 -4.13902 0
M  V30 3035 H 296.163 3.57008 -4.82354 0
M  V30 3036 H 297.233 2.26133 -4.28943 0
M  V30 3037 N 298.576 1.31904 0.862503 0
M  V30 3038 C 299.486 1.22161 2.00285 0
M  V30 3039 C 300.502 0.136785 1.73462 0
M  V30 3040 O 301.678 0.355994 1.98229 0
M  V30 3041 C 298.743 0.937093 3.33796 0
M  V30 3042 C 297.804 2.10957 3.73893 0
M  V30 3043 C 297.037 1.83853 5.01033 0
M  V30 3044 O 297.26 0.777274 5.65079 0
M  V30 3045 O 296.194 2.69741 5.38074 0
M  V30 3046 H 300.02 2.18008 2.11439 0
M  V30 3047 H 297.605 1.11716 0.991957 0
M  V30 3048 H 299.487 0.794583 4.13841 0
M  V30 3049 H 298.162 0.00871894 3.23699 0
M  V30 3050 H 297.069 2.30752 2.94456 0
M  V30 3051 H 298.402 3.02046 3.88625 0
M  V30 3052 N 300.054 -1.07777 1.14986 0
M  V30 3053 C 301.284 -1.83752 0.944402 0
M  V30 3054 C 301.692 -1.8218 -0.51058 0
M  V30 3055 O 301.035 -1.22852 -1.36576 0
M  V30 3056 C 301.097 -3.32128 1.37592 0
M  V30 3057 C 300.761 -3.57425 2.84775 0
M  V30 3058 C 301.758 -3.5173 3.8286 0
M  V30 3059 C 299.443 -3.8523 3.2234 0
M  V30 3060 C 301.437 -3.73482 5.16517 0
M  V30 3061 C 299.124 -4.06634 4.56171 0
M  V30 3062 C 300.122 -4.00754 5.53069 0
M  V30 3063 O 299.81 -4.2159 6.84483 0
M  V30 3064 H 299.542 -0.58673 0.335744 0
M  V30 3065 H 302.096 -1.36982 1.53052 0
M  V30 3066 H 300.326 -3.79686 0.733165 0
M  V30 3067 H 302.015 -3.89555 1.14024 0
M  V30 3068 H 302.781 -3.30256 3.55184 0
M  V30 3069 H 298.66 -3.88923 2.47508 0
M  V30 3070 H 302.204 -3.68808 5.92137 0
M  V30 3071 H 298.101 -4.27593 4.83564 0
M  V30 3072 H 298.869 -4.38961 6.90837 0
M  V30 3073 N 301.532 -0.945985 -1.26051 0
M  V30 3074 C 302.78 -0.594941 -1.93145 0
M  V30 3075 C 303.101 0.86953 -1.7454 0
M  V30 3076 O 302.371 1.61838 -1.10387 0
M  V30 3077 H 300.951 -0.217044 -0.714773 0
M  V30 3078 H 303.613 -1.20235 -1.53393 0
M  V30 3079 H 302.709 -0.816835 -3.01221 0
M  V30 3080 N 303.011 1.40521 -0.713556 0
M  V30 3081 C 304.26 2.00155 -0.249192 0
M  V30 3082 C 304.573 1.57224 1.16362 0
M  V30 3083 O 305.779 2.09542 1.72639 0
M  V30 3084 C 304.235 3.5773 -0.3946 0
M  V30 3085 C 303.843 4.09635 -1.81392 0
M  V30 3086 C 305.587 4.24499 0.00907364 0
M  V30 3087 C 303.494 5.59707 -1.91003 0
M  V30 3088 H 302.424 0.74868 -0.0894114 0
M  V30 3089 H 305.075 1.60784 -0.884352 0
M  V30 3090 H 303.457 3.94792 0.30911 0
M  V30 3091 H 304.631 3.83955 -2.54785 0
M  V30 3092 H 302.946 3.55456 -2.16888 0
M  V30 3093 H 305.543 5.34683 -0.0420404 0
M  V30 3094 H 305.886 4.02824 1.05065 0
M  V30 3095 H 306.419 3.92536 -0.645007 0
M  V30 3096 H 303.158 5.86234 -2.93275 0
M  V30 3097 H 302.678 5.87258 -1.22019 0
M  V30 3098 H 304.357 6.24776 -1.6812 0
M  V30 3099 N 304.489 0.459591 1.5075 0
M  V30 3100 C 305.717 -0.0973749 2.06671 0
M  V30 3101 C 306.132 -1.34524 1.32472 0
M  V30 3102 O 305.489 -1.7827 0.390634 0
M  V30 3103 C 305.54 -0.39714 3.59312 0
M  V30 3104 O 305.261 0.801214 4.30711 0
M  V30 3105 C 306.762 -1.00234 4.31819 0
M  V30 3106 H 303.982 0.00195854 0.670997 0
M  V30 3107 H 306.526 0.645072 1.94059 0
M  V30 3108 H 304.681 -1.08951 3.71764 0
M  V30 3109 H 305.095 0.538857 5.21725 0
M  V30 3110 H 306.569 -1.16193 5.39632 0
M  V30 3111 H 307.046 -1.98939 3.91561 0
M  V30 3112 H 307.652 -0.348699 4.23868 0
M  V30 3113 N 305.967 -1.56429 0.191757 0
M  V30 3114 C 307.192 -2.02309 -0.456706 0
M  V30 3115 C 307.617 -1.07103 -1.5463 0
M  V30 3116 O 306.975 -0.0539677 -1.8122 0
M  V30 3117 C 307.023 -3.46654 -0.993159 0
M  V30 3118 O 306.127 -3.54559 -2.10622 0
M  V30 3119 H 305.468 -0.655303 -0.107114 0
M  V30 3120 H 307.998 -2.02364 0.301653 0
M  V30 3121 H 308.008 -3.86377 -1.31061 0
M  V30 3122 H 306.683 -4.1544 -0.195504 0
M  V30 3123 H 305.26 -3.26708 -1.79767 0
M  V30 3124 N 307.445 0.0818655 -1.57387 0
M  V30 3125 C 308.722 0.815343 -1.77796 0
M  V30 3126 C 309.102 1.96289 -0.77679 0
M  V30 3127 O 308.45 2.27691 0.192106 0
M  V30 3128 C 308.66 1.29765 -3.23978 0
M  V30 3129 C 310.008 1.7351 -3.8753 0
M  V30 3130 O 311.032 1.39356 -3.27808 0
M  V30 3131 O 309.891 2.36708 -4.92576 0
M  V30 3132 H 306.985 0.389914 -0.729312 0
M  V30 3133 H 309.531 0.0627213 -1.69584 0
M  V30 3134 H 308.303 0.47608 -3.88393 0
M  V30 3135 H 307.926 2.11189 -3.36875 0
M  V30 3136 N 308.923 1.53595 0.353017 0
M  V30 3137 C 310.2 1.61002 1.11075 0
M  V30 3138 C 310.58 0.425356 2.0677 0
M  V30 3139 O 309.928 -0.583267 2.2093 0
M  V30 3140 C 310.138 2.96631 1.83877 0
M  V30 3141 C 311.486 3.51653 2.37961 0
M  V30 3142 O 312.51 2.98743 1.93987 0
M  V30 3143 O 311.369 4.44177 3.18386 0
M  V30 3144 H 308.463 0.650825 0.510251 0
M  V30 3145 H 311.009 1.6594 0.35527 0
M  V30 3146 H 309.781 3.74293 1.14108 0
M  V30 3147 H 309.404 2.95242 2.66304 0
M  V30 3148 N 310.401 -0.613514 1.45168 0
M  V30 3149 C 311.65 -1.36874 1.4815 0
M  V30 3150 C 311.963 -1.952 0.124982 0
M  V30 3151 O 313.169 -2.71481 0.0324176 0
M  V30 3152 C 311.625 -2.47905 2.60904 0
M  V30 3153 C 311.233 -1.96016 4.02842 0
M  V30 3154 C 312.977 -3.24965 2.73126 0
M  V30 3155 C 310.884 -3.04494 5.06988 0
M  V30 3156 H 309.814 -0.514428 0.551253 0
M  V30 3157 H 312.465 -0.658182 1.7129 0
M  V30 3158 H 310.847 -3.21618 2.31037 0
M  V30 3159 H 312.021 -1.29051 4.4236 0
M  V30 3160 H 310.336 -1.31719 3.95018 0
M  V30 3161 H 312.933 -4.05865 3.48106 0
M  V30 3162 H 313.276 -3.75588 1.79553 0
M  V30 3163 H 313.809 -2.5835 3.0249 0
M  V30 3164 H 310.548 -2.58795 6.0225 0
M  V30 3165 H 310.068 -3.70044 4.72046 0
M  V30 3166 H 311.747 -3.68976 5.31475 0
M  V30 3167 N 311.879 -1.3236 -0.855495 0
M  V30 3168 C 313.126 -1.22872 -1.60962 0
M  V30 3169 C 313.454 0.209658 -1.93367 0
M  V30 3170 O 312.709 1.16243 -1.57436 0
M  V30 3171 C 313.008 -2.03275 -2.93963 0
M  V30 3172 C 312.674 -3.5264 -2.80991 0
M  V30 3173 C 311.336 -3.93364 -2.7716 0
M  V30 3174 C 313.688 -4.47626 -2.66983 0
M  V30 3175 C 311.016 -5.27319 -2.572 0
M  V30 3176 C 313.368 -5.81723 -2.48558 0
M  V30 3177 C 312.032 -6.2165 -2.4312 0
M  V30 3178 H 311.302 -0.44962 -0.589001 0
M  V30 3179 H 313.949 -1.63777 -0.992442 0
M  V30 3180 H 312.254 -1.55095 -3.59795 0
M  V30 3181 H 313.951 -1.93303 -3.51333 0
M  V30 3182 H 310.541 -3.20295 -2.84797 0
M  V30 3183 H 314.725 -4.17084 -2.68988 0
M  V30 3184 H 309.981 -5.57311 -2.51424 0
M  V30 3185 H 314.155 -6.5494 -2.36699 0
M  V30 3186 H 311.782 -7.25388 -2.27412 0
M  V30 3187 N 313.357 1.07166 -1.15556 0
M  V30 3188 C 314.603 1.80222 -0.942961 0
M  V30 3189 C 314.958 1.85121 0.524209 0
M  V30 3190 O 314.251 1.32531 1.38369 0
M  V30 3191 C 314.445 3.24707 -1.49332 0
M  V30 3192 C 314.274 3.33887 -3.01247 0
M  V30 3193 C 313.044 3.44337 -3.69811 0
M  V30 3194 C 315.242 3.24484 -3.99017 0
M  V30 3195 N 313.224 3.42439 -5.09518 0
M  V30 3196 C 314.595 3.29726 -5.25053 0
M  V30 3197 C 316.65 3.08307 -3.90962 0
M  V30 3198 C 315.353 3.20455 -6.43973 0
M  V30 3199 C 317.379 3.00371 -5.09442 0
M  V30 3200 C 316.741 3.06227 -6.34354 0
M  V30 3201 H 312.84 0.672709 -0.398731 0
M  V30 3202 H 315.424 1.27905 -1.46794 0
M  V30 3203 H 313.595 3.7544 -0.994946 0
M  V30 3204 H 315.327 3.85894 -1.21935 0
M  V30 3205 H 312.082 3.48762 -3.20409 0
M  V30 3206 H 312.506 3.45013 -5.8249 0
M  V30 3207 H 317.148 3.02633 -2.95251 0
M  V30 3208 H 314.866 3.24888 -7.39914 0
M  V30 3209 H 318.452 2.88955 -5.04971 0
M  V30 3210 H 317.332 3.00132 -7.24493 0
M  V30 3211 N 314.835 0.952656 1.25548 0
M  V30 3212 C 315.765 0.489287 2.28316 0
M  V30 3213 C 316.746 -0.463359 1.63667 0
M  V30 3214 O 317.931 -0.36274 1.90782 0
M  V30 3215 C 315.061 -0.235603 3.465 0
M  V30 3216 C 314.015 0.631593 4.23314 0
M  V30 3217 C 313.341 -0.223923 5.34231 0
M  V30 3218 C 314.641 1.90871 4.86174 0
M  V30 3219 H 316.335 1.34822 2.67326 0
M  V30 3220 H 313.881 0.649728 1.28509 0
M  V30 3221 H 315.834 -0.570882 4.17515 0
M  V30 3222 H 314.558 -1.12877 3.06474 0
M  V30 3223 H 313.217 0.949929 3.54079 0
M  V30 3224 H 312.865 -1.11678 4.90446 0
M  V30 3225 H 312.565 0.35299 5.86539 0
M  V30 3226 H 314.089 -0.554214 6.0808 0
M  V30 3227 H 315.503 1.63997 5.49343 0
M  V30 3228 H 313.9 2.43112 5.4865 0
M  V30 3229 H 314.97 2.61304 4.08471 0
M  V30 3230 N 316.313 -1.40141 0.720998 0
M  V30 3231 C 317.26 -2.30688 0.071919 0
M  V30 3232 C 318.23 -1.48476 -0.744584 0
M  V30 3233 O 319.415 -1.77201 -0.707423 0
M  V30 3234 C 316.555 -3.34724 -0.839855 0
M  V30 3235 C 315.668 -4.31998 -0.0122438 0
M  V30 3236 C 314.803 -5.23102 -0.923995 0
M  V30 3237 C 313.842 -6.12033 -0.0907969 0
M  V30 3238 N 312.979 -6.95537 -0.957718 0
M  V30 3239 H 317.819 -2.85628 0.849755 0
M  V30 3240 H 315.356 -1.40653 0.430726 0
M  V30 3241 H 317.314 -3.93618 -1.38279 0
M  V30 3242 H 315.944 -2.81274 -1.58381 0
M  V30 3243 H 314.996 -3.74841 0.64794 0
M  V30 3244 H 316.308 -4.94772 0.632595 0
M  V30 3245 H 315.462 -5.86953 -1.53527 0
M  V30 3246 H 314.201 -4.60615 -1.60264 0
M  V30 3247 H 313.206 -5.47207 0.533377 0
M  V30 3248 H 314.431 -6.76581 0.584428 0
M  V30 3249 H 312.377 -6.35633 -1.62192 0
M  V30 3250 H 312.294 -7.55099 -0.36904 0
M  V30 3251 H 313.562 -7.63832 -1.555 0
M  V30 3252 N 317.792 -0.46758 -1.50504 0
M  V30 3253 C 318.702 0.33382 -2.32213 0
M  V30 3254 C 319.718 0.999323 -1.42441 0
M  V30 3255 O 320.894 0.988068 -1.75497 0
M  V30 3256 C 317.959 1.4035 -3.17022 0
M  V30 3257 C 317.02 0.754961 -4.2261 0
M  V30 3258 C 316.253 1.77367 -5.03365 0
M  V30 3259 O 316.476 2.99976 -4.8515 0
M  V30 3260 O 315.41 1.34744 -5.86624 0
M  V30 3261 H 319.236 -0.334067 -3.01857 0
M  V30 3262 H 316.821 -0.229496 -1.47627 0
M  V30 3263 H 318.703 2.02318 -3.69656 0
M  V30 3264 H 317.378 2.05492 -2.5011 0
M  V30 3265 H 316.285 0.0964244 -3.73976 0
M  V30 3266 H 317.618 0.146545 -4.91982 0
M  V30 3267 N 319.27 1.56325 -0.20005 0
M  V30 3268 C 320.495 2.02548 0.44597 0
M  V30 3269 C 320.92 1.07922 1.5406 0
M  V30 3270 O 320.278 0.0635775 1.81188 0
M  V30 3271 C 320.326 3.47175 0.974761 0
M  V30 3272 O 319.43 3.55671 2.08739 0
M  V30 3273 H 318.771 0.655862 0.103638 0
M  V30 3274 H 321.301 2.02201 -0.312381 0
M  V30 3275 H 321.311 3.87067 1.2901 0
M  V30 3276 H 319.986 4.15538 0.17347 0
M  V30 3277 H 318.563 3.27657 1.78032 0
M  V30 3278 N 320.748 -0.0735177 1.57428 0
M  V30 3279 C 322.159 -0.625551 1.75908 0
M  V30 3280 C 322.51 -1.78 0.825261 0
M  V30 3281 O 321.635 -2.16398 0.00893964 0
M  V30 3282 C 322.23 -1.14155 3.18989 0
M  V30 3283 C 320.789 -1.63946 3.38819 0
M  V30 3284 C 319.936 -0.558151 2.71625 0
M  V30 3285 H 322.887 0.152647 1.57964 0
M  V30 3286 H 322.908 -2.0104 3.23053 0
M  V30 3287 H 322.42 -0.301116 3.8693 0
M  V30 3288 H 320.521 -2.50321 2.7599 0
M  V30 3289 H 320.634 -1.71759 4.47253 0
M  V30 3290 H 318.998 -1.00278 2.34129 0
M  V30 3291 H 319.781 0.272071 3.4222 0
M  V30 3292 N 322.226 -1.5378 -0.344866 0
M  V30 3293 C 323.474 -1.70625 -1.08311 0
M  V30 3294 C 323.795 -0.471447 -1.89215 0
M  V30 3295 O 323.065 0.514616 -1.8902 0
M  V30 3296 H 321.645 -0.629058 -0.402859 0
M  V30 3297 H 324.307 -1.9103 -0.386459 0
M  V30 3298 H 323.403 -2.57656 -1.76124 0
M  V30 3299 N 323.704 0.605807 -1.45491 0
M  V30 3300 C 324.651 1.7164 -1.54299 0
M  V30 3301 C 325.621 1.61486 -0.388761 0
M  V30 3302 O 326.806 1.81039 -0.602445 0
M  V30 3303 C 323.946 3.09953 -1.51734 0
M  V30 3304 C 323.059 3.309 -2.77721 0
M  V30 3305 C 322.194 4.59329 -2.66816 0
M  V30 3306 C 321.233 4.7354 -3.87848 0
M  V30 3307 N 320.37 5.9327 -3.75467 0
M  V30 3308 H 325.21 1.63449 -2.49176 0
M  V30 3309 H 322.747 0.796957 -1.23641 0
M  V30 3310 H 324.705 3.89977 -1.48235 0
M  V30 3311 H 323.335 3.17098 -0.604068 0
M  V30 3312 H 322.387 2.44639 -2.913 0
M  V30 3313 H 323.699 3.37274 -3.67488 0
M  V30 3314 H 322.853 5.4755 -2.61292 0
M  V30 3315 H 321.592 4.55355 -1.74651 0
M  V30 3316 H 320.597 3.83741 -3.93729 0
M  V30 3317 H 321.822 4.79309 -4.81082 0
M  V30 3318 H 319.768 5.90338 -2.86072 0
M  V30 3319 H 319.685 6.00811 -4.5887 0
M  V30 3320 H 320.953 6.83984 -3.73879 0
M  V30 3321 N 325.182 1.32811 0.848464 0
M  V30 3322 C 326.41 1.26739 1.63538 0
M  V30 3323 C 326.825 -0.163484 1.88091 0
M  V30 3324 O 326.182 -1.10258 1.45429 0
M  V30 3325 C 326.233 2.03013 2.99112 0
M  V30 3326 O 325.954 3.40518 2.75643 0
M  V30 3327 C 327.455 2.04038 3.93552 0
M  V30 3328 H 324.675 0.437024 0.509167 0
M  V30 3329 H 327.219 1.75033 1.05753 0
M  V30 3330 H 325.374 1.58426 3.53525 0
M  V30 3331 H 325.788 3.79635 3.61908 0
M  V30 3332 H 327.262 2.61877 4.85926 0
M  V30 3333 H 327.739 1.0282 4.26995 0
M  V30 3334 H 328.345 2.486 3.45077 0
M  V30 3335 N 326.66 -1.06551 1.16123 0
M  V30 3336 C 327.59 -2.15935 0.88851 0
M  V30 3337 C 328.571 -1.69306 -0.164135 0
M  V30 3338 O 329.756 -1.94193 -0.0167857 0
M  V30 3339 C 326.886 -3.45149 0.385942 0
M  V30 3340 C 325.84 -4.05271 1.3762 0
M  V30 3341 C 325.166 -5.29664 0.732137 0
M  V30 3342 C 326.466 -4.44355 2.74493 0
M  V30 3343 H 328.16 -2.39006 1.80323 0
M  V30 3344 H 325.706 -1.14866 0.868435 0
M  V30 3345 H 327.659 -4.21004 0.182647 0
M  V30 3346 H 326.383 -3.21689 -0.564274 0
M  V30 3347 H 325.042 -3.3147 1.56599 0
M  V30 3348 H 324.69 -5.02499 -0.224483 0
M  V30 3349 H 324.39 -5.70848 1.39307 0
M  V30 3350 H 325.914 -6.08218 0.538802 0
M  V30 3351 H 327.328 -5.11303 2.59311 0
M  V30 3352 H 325.725 -4.96515 3.37035 0
M  V30 3353 H 326.795 -3.55339 3.29943 0
M  V30 3354 N 328.138 -0.959301 -1.25041 0
M  V30 3355 C 329.384 -0.617525 -1.9317 0
M  V30 3356 C 329.717 0.843981 -1.74902 0
M  V30 3357 O 328.992 1.60615 -1.09696 0
M  V30 3358 C 329.275 -0.982736 -3.46431 0
M  V30 3359 C 329.128 -2.50032 -3.73904 0
M  V30 3360 C 330.447 -0.511176 -4.37121 0
M  V30 3361 H 327.566 -0.22582 -0.701552 0
M  V30 3362 H 330.208 -1.19679 -1.4757 0
M  V30 3363 H 328.358 -0.489806 -3.854 0
M  V30 3364 H 330.03 -3.06737 -3.44544 0
M  V30 3365 H 328.273 -2.93598 -3.19348 0
M  V30 3366 H 328.944 -2.70635 -4.81103 0
M  V30 3367 H 331.42 -0.934075 -4.0548 0
M  V30 3368 H 330.296 -0.795361 -5.43107 0
M  V30 3369 H 330.557 0.588834 -4.38161 0
M  V30 3370 N 329.616 1.39756 -0.72842 0
M  V30 3371 C 330.862 2.00942 -0.273892 0
M  V30 3372 C 331.195 1.57656 1.13394 0
M  V30 3373 O 330.47 0.802434 1.77176 0
M  V30 3374 C 330.753 3.58211 -0.368346 0
M  V30 3375 C 330.606 4.11534 -1.81548 0
M  V30 3376 C 331.925 4.39372 0.253054 0
M  V30 3377 H 329.044 0.730047 -0.100996 0
M  V30 3378 H 331.686 1.66056 -0.923337 0
M  V30 3379 H 329.836 3.88061 0.184588 0
M  V30 3380 H 331.508 3.92431 -2.42478 0
M  V30 3381 H 329.751 3.65341 -2.33898 0
M  V30 3382 H 330.422 5.20682 -1.83288 0
M  V30 3383 H 332.898 4.15527 -0.218224 0
M  V30 3384 H 331.774 5.48677 0.156585 0
M  V30 3385 H 332.035 4.21358 1.33826 0
M  V30 3386 N 331.094 0.475555 1.50254 0
M  V30 3387 C 332.342 -0.077738 2.0195 0
M  V30 3388 C 332.663 -1.39813 1.35931 0
M  V30 3389 O 331.933 -1.89249 0.506123 0
M  V30 3390 H 330.513 -0.031719 0.746326 0
M  V30 3391 H 333.175 0.626995 1.84539 0
M  V30 3392 H 332.271 -0.225995 3.11281 0
M  V30 3393 N 332.573 -1.56217 0.208337 0
M  V30 3394 C 333.536 -2.18455 -0.693557 0
M  V30 3395 C 334.536 -1.14268 -1.13135 0
M  V30 3396 O 335.726 -1.39577 -1.0423 0
M  V30 3397 C 332.858 -2.79727 -1.94848 0
M  V30 3398 H 334.051 -2.99519 -0.15114 0
M  V30 3399 H 331.604 -1.56245 -0.041287 0
M  V30 3400 H 332.339 -2.02497 -2.53309 0
M  V30 3401 H 332.124 -3.56009 -1.64316 0
M  V30 3402 H 333.614 -3.27475 -2.59133 0
M  V30 3403 N 334.051 0.0651679 -1.57465 0
M  V30 3404 C 335.276 0.779605 -1.9219 0
M  V30 3405 C 335.701 1.69988 -0.805333 0
M  V30 3406 O 335.059 1.79685 0.241435 0
M  V30 3407 C 335.107 1.54364 -3.2589 0
M  V30 3408 O 334.211 2.65474 -3.1559 0
M  V30 3409 H 333.552 0.212249 -0.629163 0
M  V30 3410 H 336.082 0.0314294 -2.04576 0
M  V30 3411 H 336.092 1.92146 -3.59922 0
M  V30 3412 H 334.767 0.868457 -4.06732 0
M  V30 3413 H 333.344 2.30501 -2.93128 0
M  V30 3414 N 335.529 1.53961 0.336706 0
M  V30 3415 C 336.759 1.75229 1.09446 0
M  V30 3416 C 337.167 0.494602 1.82621 0
M  V30 3417 O 336.51 -0.543764 1.75468 0
M  V30 3418 C 336.572 2.88288 2.1478 0
M  V30 3419 C 336.236 4.27656 1.6112 0
M  V30 3420 C 337.233 5.08981 1.0599 0
M  V30 3421 C 334.918 4.74161 1.6576 0
M  V30 3422 C 336.912 6.34916 0.562129 0
M  V30 3423 C 334.599 6.00067 1.15595 0
M  V30 3424 C 335.597 6.80278 0.609147 0
M  V30 3425 O 335.285 8.03818 0.114999 0
M  V30 3426 H 335.017 0.588881 0.331956 0
M  V30 3427 H 337.571 2.01614 0.392566 0
M  V30 3428 H 335.801 2.57443 2.88548 0
M  V30 3429 H 337.49 2.97461 2.76174 0
M  V30 3430 H 338.256 4.74213 1.01722 0
M  V30 3431 H 334.135 4.11781 2.07261 0
M  V30 3432 H 337.679 6.9747 0.134668 0
M  V30 3433 H 333.576 6.3433 1.19566 0
M  V30 3434 H 334.344 8.18172 0.231651 0
M  V30 3435 N 337.007 -0.598083 1.45811 0
M  V30 3436 C 338.253 -1.35882 1.50545 0
M  V30 3437 C 338.586 -1.93616 0.150445 0
M  V30 3438 O 337.861 -1.75604 -0.83628 0
M  V30 3439 C 338.144 -2.49966 2.59208 0
M  V30 3440 C 337.997 -1.97367 4.04186 0
M  V30 3441 C 339.316 -3.52068 2.64076 0
M  V30 3442 H 336.435 -0.492717 0.548087 0
M  V30 3443 H 339.077 -0.673319 1.77669 0
M  V30 3444 H 337.227 -3.08443 2.3621 0
M  V30 3445 H 338.899 -1.43466 4.38423 0
M  V30 3446 H 337.142 -1.283 4.14393 0
M  V30 3447 H 337.813 -2.79649 4.75921 0
M  V30 3448 H 340.289 -3.03448 2.84708 0
M  V30 3449 H 339.165 -4.2937 3.41954 0
M  V30 3450 H 339.426 -4.08304 1.69531 0
M  V30 3451 N 338.485 -1.33259 -0.841409 0
M  V30 3452 C 339.448 -1.23221 -1.9326 0
M  V30 3453 C 340.448 -0.151895 -1.60081 0
M  V30 3454 O 341.638 -0.403246 -1.69468 0
M  V30 3455 C 338.77 -0.898123 -3.28856 0
M  V30 3456 H 339.963 -2.2021 -2.03587 0
M  V30 3457 H 337.516 -1.17281 -1.03319 0
M  V30 3458 H 338.251 0.0693841 -3.24226 0
M  V30 3459 H 338.036 -1.67934 -3.54317 0
M  V30 3460 H 339.526 -0.852563 -4.08805 0
M  V30 3461 N 339.963 1.05934 -1.16686 0
M  V30 3462 C 340.893 2.1546 -0.899949 0
M  V30 3463 C 341.874 1.69391 0.155154 0
M  V30 3464 O 343.059 1.94199 0.00648693 0
M  V30 3465 C 340.189 3.44939 -0.404241 0
M  V30 3466 C 339.143 4.04536 -1.39767 0
M  V30 3467 C 338.469 5.29268 -0.760216 0
M  V30 3468 C 339.769 4.42893 -2.76845 0
M  V30 3469 H 341.463 2.38046 -1.81588 0
M  V30 3470 H 339.009 1.14404 -0.874514 0
M  V30 3471 H 340.962 4.20901 -0.204971 0
M  V30 3472 H 339.686 3.21983 0.547206 0
M  V30 3473 H 338.345 3.30635 -1.58355 0
M  V30 3474 H 337.993 5.02611 0.197831 0
M  V30 3475 H 337.693 5.70101 -1.42332 0
M  V30 3476 H 339.217 6.07924 -0.57105 0
M  V30 3477 H 340.631 5.09921 -2.62019 0
M  V30 3478 H 339.028 4.94721 -3.39663 0
M  V30 3479 H 340.098 3.53584 -3.31823 0
M  V30 3480 N 341.441 0.965919 1.2453 0
M  V30 3481 C 342.351 0.502154 2.29163 0
M  V30 3482 C 343.367 -0.436017 1.68448 0
M  V30 3483 O 344.543 -0.309497 1.99008 0
M  V30 3484 C 341.608 -0.201956 3.46111 0
M  V30 3485 C 340.669 0.775821 4.22232 0
M  V30 3486 C 339.902 0.105217 5.33596 0
M  V30 3487 O 340.125 -1.10683 5.59558 0
M  V30 3488 O 339.059 0.796475 5.96607 0
M  V30 3489 H 342.885 1.37194 2.70946 0
M  V30 3490 H 340.47 0.732875 1.30189 0
M  V30 3491 H 342.352 -0.597564 4.17142 0
M  V30 3492 H 341.027 -1.04673 3.06309 0
M  V30 3493 H 339.934 1.22185 3.53584 0
M  V30 3494 H 341.267 1.58896 4.65846 0
M  V30 3495 N 342.919 -1.39368 0.735821 0
M  V30 3496 C 344.159 -2.02349 0.288813 0
M  V30 3497 C 344.523 -1.57127 -1.10341 0
M  V30 3498 O 345.724 -2.12312 -1.64854 0
M  V30 3499 C 343.995 -3.55288 0.387986 0
M  V30 3500 S 345.554 -4.38795 0.0209408 0
M  V30 3501 H 342.372 -0.701944 0.113115 0
M  V30 3502 H 344.974 -1.70164 0.962518 0
M  V30 3503 H 343.678 -3.85691 1.40252 0
M  V30 3504 H 343.209 -3.92227 -0.303512 0
M  V30 3505 H 345.224 -4.81595 -1.19503 0
M  V30 3506 N 344.397 -0.483516 -1.5 0
M  V30 3507 C 345.36 0.292965 -2.2732 0
M  V30 3508 C 346.36 0.909499 -1.32608 0
M  V30 3509 O 347.55 0.776745 -1.55924 0
M  V30 3510 C 344.682 1.41854 -3.09984 0
M  V30 3511 H 345.875 -0.385289 -2.97415 0
M  V30 3512 H 343.428 -0.237942 -1.54478 0
M  V30 3513 H 344.163 2.13148 -2.44414 0
M  V30 3514 H 343.948 0.982114 -3.79601 0
M  V30 3515 H 345.438 1.96597 -3.68429 0
M  V30 3516 N 345.875 1.56104 -0.216619 0
M  V30 3517 C 347.123 1.97781 0.415593 0
M  V30 3518 C 347.444 1.10536 1.60645 0
M  V30 3519 O 346.714 0.181303 1.95059 0
M  V30 3520 H 345.294 0.730415 0.156534 0
M  V30 3521 H 347.956 1.92445 -0.308366 0
M  V30 3522 H 347.052 3.03072 0.74525 0
M  V30 3523 N 347.353 -0.0568162 1.57498 0
M  V30 3524 C 348.6 -0.753104 1.87975 0
M  V30 3525 C 348.928 -1.76815 0.81035 0
M  V30 3526 O 348.183 -1.94756 -0.19199 0
M  V30 3527 C 348.482 -1.48359 3.25153 0
M  V30 3528 C 348.148 -0.60713 4.46794 0
M  V30 3529 C 346.81 -0.365642 4.79809 0
M  V30 3530 C 349.162 -0.000305978 5.212 0
M  V30 3531 C 346.49 0.491905 5.84634 0
M  V30 3532 C 348.842 0.844781 6.26934 0
M  V30 3533 C 347.506 1.096 6.58441 0
M  V30 3534 H 346.776 -0.27558 0.687849 0
M  V30 3535 H 349.423 -0.0135173 1.91495 0
M  V30 3536 H 347.728 -2.29577 3.17492 0
M  V30 3537 H 349.425 -2.02739 3.45974 0
M  V30 3538 H 346.015 -0.805487 4.20963 0
M  V30 3539 H 350.199 -0.173961 4.95995 0
M  V30 3540 H 345.455 0.695131 6.07436 0
M  V30 3541 H 349.629 1.32165 6.83744 0
M  V30 3542 H 347.256 1.76224 7.39492 0
M  V30 3543 N 348.832 -1.54138 -0.328536 0
M  V30 3544 C 349.762 -1.86167 -1.40939 0
M  V30 3545 C 350.743 -0.718044 -1.54202 0
M  V30 3546 O 351.928 -0.971328 -1.68163 0
M  V30 3547 C 349.058 -2.08461 -2.77779 0
M  V30 3548 C 348.012 -3.24299 -2.7931 0
M  V30 3549 C 347.338 -3.31955 -4.19178 0
M  V30 3550 C 348.638 -4.62065 -2.43502 0
M  V30 3551 H 350.332 -2.76689 -1.14383 0
M  V30 3552 H 347.878 -1.33132 -0.548806 0
M  V30 3553 H 349.831 -2.29453 -3.53454 0
M  V30 3554 H 348.555 -1.14684 -3.05802 0
M  V30 3555 H 347.214 -3.03187 -2.0609 0
M  V30 3556 H 346.862 -2.35745 -4.44335 0
M  V30 3557 H 346.562 -4.09805 -4.2111 0
M  V30 3558 H 348.086 -3.55175 -4.96672 0
M  V30 3559 H 349.5 -4.8297 -3.08889 0
M  V30 3560 H 347.897 -5.42429 -2.56693 0
M  V30 3561 H 348.967 -4.64652 -1.38659 0
M  V30 3562 N 350.31 0.590341 -1.46126 0
M  V30 3563 C 351.538 1.37504 -1.54597 0
M  V30 3564 C 351.953 1.87897 -0.184447 0
M  V30 3565 O 351.31 1.63192 0.816984 0
M  V30 3566 C 351.361 2.56779 -2.54454 0
M  V30 3567 O 351.082 2.08476 -3.85317 0
M  V30 3568 C 352.583 3.49427 -2.72792 0
M  V30 3569 H 349.803 0.420325 -0.523037 0
M  V30 3570 H 352.347 0.718383 -1.91467 0
M  V30 3571 H 350.502 3.1845 -2.20609 0
M  V30 3572 H 350.916 2.86097 -4.396 0
M  V30 3573 H 352.39 4.29619 -3.466 0
M  V30 3574 H 352.867 4.00876 -1.79429 0
M  V30 3575 H 353.473 2.93598 -3.07702 0
M  V30 3576 N 351.788 1.33704 0.83433 0
M  V30 3577 C 353.036 1.25169 1.58673 0
M  V30 3578 C 353.357 -0.18127 1.94156 0
M  V30 3579 O 352.627 -1.11113 1.6134 0
M  V30 3580 H 351.207 0.4603 0.58833 0
M  V30 3581 H 353.869 1.67478 0.996847 0
M  V30 3582 H 352.965 1.84856 2.51465 0
M  V30 3583 N 353.266 -1.05314 1.17247 0
M  V30 3584 C 354.515 -1.77685 0.954521 0
M  V30 3585 C 354.828 -1.88616 -0.518025 0
M  V30 3586 O 356.034 -2.57714 -0.854144 0
M  V30 3587 C 354.49 -3.19402 1.65863 0
M  V30 3588 C 354.098 -3.16605 3.16963 0
M  V30 3589 C 355.842 -3.96237 1.52303 0
M  V30 3590 C 353.749 -4.53103 3.80068 0
M  V30 3591 H 352.679 -0.666 0.353496 0
M  V30 3592 H 355.33 -1.1805 1.40486 0
M  V30 3593 H 353.712 -3.79355 1.13602 0
M  V30 3594 H 354.886 -2.66176 3.76148 0
M  V30 3595 H 353.201 -2.53268 3.30521 0
M  V30 3596 H 355.798 -4.97157 1.96822 0
M  V30 3597 H 356.141 -4.136 0.473401 0
M  V30 3598 H 356.674 -3.42829 2.01775 0
M  V30 3599 H 353.413 -4.40946 4.85023 0
M  V30 3600 H 352.933 -5.03686 3.2567 0
M  V30 3601 H 354.612 -5.22045 3.82202 0
M  V30 3602 N 354.744 -0.972509 -1.24016 0
M  V30 3603 C 355.992 -0.635776 -1.91839 0
M  V30 3604 C 356.313 0.832312 -1.76345 0
M  V30 3605 O 355.583 1.5946 -1.13795 0
M  V30 3606 H 354.163 -0.232157 -0.710009 0
M  V30 3607 H 356.825 -1.23462 -1.50809 0
M  V30 3608 H 355.921 -0.880545 -2.99421 0
M  V30 3609 N 356.222 1.38976 -0.743202 0
M  V30 3610 C 357.152 2.33171 -0.123873 0
M  V30 3611 C 358.133 1.54336 0.71516 0
M  V30 3612 O 359.318 1.82696 0.658467 0
M  V30 3613 C 356.448 3.38474 0.777978 0
M  V30 3614 C 355.402 4.27979 0.0424758 0
M  V30 3615 C 354.728 5.2405 1.06189 0
M  V30 3616 C 356.028 5.10155 -1.1198 0
M  V30 3617 H 357.722 2.85213 -0.910709 0
M  V30 3618 H 355.268 1.37133 -0.439388 0
M  V30 3619 H 357.221 4.03328 1.22084 0
M  V30 3620 H 355.945 2.84891 1.59702 0
M  V30 3621 H 354.604 3.64616 -0.380853 0
M  V30 3622 H 354.252 4.66758 1.87472 0
M  V30 3623 H 353.952 5.84785 0.574485 0
M  V30 3624 H 355.476 5.9178 1.50428 0
M  V30 3625 H 356.89 5.68307 -0.75499 0
M  V30 3626 H 355.287 5.80073 -1.53738 0
M  V30 3627 H 356.357 4.44504 -1.93764 0
M  V30 3628 N 357.7 0.491464 1.49741 0
M  V30 3629 C 358.977 -0.118984 1.95238 0
M  V30 3630 C 359.357 -1.55044 1.43264 0
M  V30 3631 O 358.705 -2.19287 0.642287 0
M  V30 3632 C 358.915 -0.0414187 3.48975 0
M  V30 3633 C 360.263 -0.220133 4.24029 0
M  V30 3634 O 361.287 -0.117055 3.56008 0
M  V30 3635 O 360.146 -0.430567 5.44801 0
M  V30 3636 H 357.24 -0.100536 0.820866 0
M  V30 3637 H 359.786 0.553322 1.60426 0
M  V30 3638 H 358.558 0.957214 3.79412 0
M  V30 3639 H 358.181 -0.754292 3.9038 0
M  V30 3640 N 359.178 -1.55987 0.224894 0
M  V30 3641 C 360.406 -2.02784 -0.410665 0
M  V30 3642 C 360.821 -1.10464 -1.53112 0
M  V30 3643 O 360.178 -0.114871 -1.82138 0
M  V30 3644 C 360.229 -3.49087 -0.939165 0
M  V30 3645 O 359.95 -4.37887 0.136614 0
M  V30 3646 C 361.451 -4.11543 -1.64763 0
M  V30 3647 H 358.671 -0.663484 -0.100148 0
M  V30 3648 H 361.215 -2.01614 0.342326 0
M  V30 3649 H 359.37 -3.50861 -1.64242 0
M  V30 3650 H 359.784 -5.23849 -0.261155 0
M  V30 3651 H 361.258 -5.15673 -1.96939 0
M  V30 3652 H 361.735 -3.56736 -2.56195 0
M  V30 3653 H 362.341 -4.13629 -0.989503 0
M  V30 3654 N 360.656 0.0484629 -1.57525 0
M  V30 3655 C 361.884 0.755421 -1.92616 0
M  V30 3656 C 362.299 1.69919 -0.822984 0
M  V30 3657 O 361.656 1.81378 0.202085 0
M  V30 3658 C 361.707 1.52915 -3.27566 0
M  V30 3659 O 361.428 0.62329 -4.33644 0
M  V30 3660 C 362.929 2.33502 -3.76818 0
M  V30 3661 H 360.149 0.213465 -0.63614 0
M  V30 3662 H 362.693 0.0117698 -2.04497 0
M  V30 3663 H 360.848 2.22486 -3.17142 0
M  V30 3664 H 361.262 1.16383 -5.11425 0
M  V30 3665 H 362.736 2.83214 -4.73808 0
M  V30 3666 H 363.213 3.14068 -3.07014 0
M  V30 3667 H 363.819 1.69043 -3.90262 0
M  V30 3668 N 362.134 1.5431 0.320358 0
M  V30 3669 C 363.383 1.7188 1.05546 0
M  V30 3670 C 363.696 0.501143 1.89071 0
M  V30 3671 O 364.902 0.558258 2.65699 0
M  V30 3672 C 363.358 3.04025 1.92605 0
M  V30 3673 C 362.966 4.33207 1.14176 0
M  V30 3674 C 364.71 3.30959 2.65832 0
M  V30 3675 C 362.617 5.56412 2.00399 0
M  V30 3676 H 361.547 0.640547 0.397763 0
M  V30 3677 H 364.198 1.80802 0.313522 0
M  V30 3678 H 362.58 2.89019 2.7071 0
M  V30 3679 H 363.754 4.58989 0.40819 0
M  V30 3680 H 362.069 4.13062 0.526165 0
M  V30 3681 H 364.666 4.20203 3.30656 0
M  V30 3682 H 365.009 2.48979 3.33639 0
M  V30 3683 H 365.542 3.46847 1.94787 0
M  V30 3684 H 362.281 6.41004 1.37094 0
M  V30 3685 H 361.801 5.34844 2.7148 0
M  V30 3686 H 363.48 5.92938 2.58908 0
M  V30 3687 N 363.613 -0.582584 1.46437 0
M  V30 3688 C 364.546 -1.70633 1.51524 0
M  V30 3689 C 365.524 -1.58349 0.369351 0
M  V30 3690 O 366.708 -1.79563 0.573516 0
M  V30 3691 C 363.835 -3.08687 1.39392 0
M  V30 3692 C 362.881 -3.3949 2.58164 0
M  V30 3693 S 363.714 -3.31548 4.20519 0
M  V30 3694 C 364.87 -4.72139 4.10896 0
M  V30 3695 H 365.103 -1.66058 2.46601 0
M  V30 3696 H 362.636 -0.761337 1.34324 0
M  V30 3697 H 364.594 -3.8833 1.33079 0
M  V30 3698 H 363.255 -3.10751 0.457436 0
M  V30 3699 H 362.448 -4.40071 2.45669 0
M  V30 3700 H 362.05 -2.67415 2.61468 0
M  V30 3701 H 364.342 -5.62527 3.77584 0
M  V30 3702 H 365.285 -4.89692 5.11476 0
M  V30 3703 H 365.693 -4.48995 3.42146 0
M  V30 3704 N 365.091 -1.34144 -0.827227 0
M  V30 3705 C 366.024 -1.19707 -1.94282 0
M  V30 3706 C 367.002 -0.0897256 -1.62352 0
M  V30 3707 O 368.186 -0.254095 -1.8678 0
M  V30 3708 C 365.313 -0.838646 -3.28153 0
M  V30 3709 C 364.359 -1.95514 -3.79047 0
M  V30 3710 S 365.192 -3.56793 -3.99323 0
M  V30 3711 C 366.348 -3.22983 -5.36127 0
M  V30 3712 H 366.581 -2.1414 -2.06231 0
M  V30 3713 H 364.114 -1.19121 -0.982321 0
M  V30 3714 H 366.072 -0.638637 -4.05502 0
M  V30 3715 H 364.733 0.0872776 -3.13979 0
M  V30 3716 H 363.926 -1.658 -4.75948 0
M  V30 3717 H 363.528 -2.11241 -3.08631 0
M  V30 3718 H 365.82 -2.74531 -6.19386 0
M  V30 3719 H 366.763 -4.19008 -5.70822 0
M  V30 3720 H 367.171 -2.59276 -5.01434 0
M  V30 3721 N 366.569 1.04691 -1.17803 0
M  V30 3722 C 367.985 1.29963 -0.926379 0
M  V30 3723 C 368.185 1.97251 0.411635 0
M  V30 3724 O 367.241 2.24922 1.14744 0
M  V30 3725 C 368.554 2.16447 -2.08737 0
M  V30 3726 C 370.102 2.29814 -2.12496 0
M  V30 3727 C 370.577 3.19661 -3.27995 0
M  V30 3728 N 372.068 3.27247 -3.27816 0
M  V30 3729 C 372.803 3.96906 -4.13827 0
M  V30 3730 N 372.299 4.6895 -5.09959 0
M  V30 3731 N 374.092 3.93122 -4.01761 0
M  V30 3732 H 366.243 0.594182 -2.0392 0
M  V30 3733 H 368.506 0.324649 -0.890678 0
M  V30 3734 H 368.212 1.74304 -3.05469 0
M  V30 3735 H 368.086 3.17103 -2.04268 0
M  V30 3736 H 370.473 2.71196 -1.16347 0
M  V30 3737 H 370.554 1.2877 -2.21025 0
M  V30 3738 H 370.198 2.78991 -4.24413 0
M  V30 3739 H 370.128 4.20722 -3.16703 0
M  V30 3740 H 372.619 2.75921 -2.58217 0
M  V30 3741 H 372.932 5.19679 -5.71974 0
M  V30 3742 H 371.277 4.67875 -5.13924 0
M  V30 3743 H 374.468 3.35967 -3.2595 0
M  V30 3744 H 374.641 4.47139 -4.6901 0
M  V30 3745 N 368.047 0.979072 1.23499 0
M  V30 3746 C 369.272 0.664845 1.96455 0
M  V30 3747 C 369.697 -0.761287 1.72006 0
M  V30 3748 O 369.055 -1.51837 0.990713 0
M  V30 3749 C 369.103 0.959479 3.47601 0
M  V30 3750 O 368.207 0.0508168 4.12369 0
M  V30 3751 H 367.548 0.250185 0.615064 0
M  V30 3752 H 370.078 1.31231 1.5697 0
M  V30 3753 H 370.088 0.895642 3.98048 0
M  V30 3754 H 368.763 1.99876 3.64723 0
M  V30 3755 H 367.34 0.16895 3.72517 0
M  V30 3756 N 369.525 -1.3858 0.750561 0
M  V30 3757 C 370.774 -1.99424 0.302172 0
M  V30 3758 C 371.087 -1.60254 -1.12152 0
M  V30 3759 O 372.293 -2.14046 -1.67023 0
M  V30 3760 C 370.749 -3.56558 0.489307 0
M  V30 3761 C 370.357 -4.04682 1.92189 0
M  V30 3762 C 372.101 -4.24374 0.103478 0
M  V30 3763 C 370.008 -5.54446 2.05775 0
M  V30 3764 H 368.938 -0.746046 0.10923 0
M  V30 3765 H 371.589 -1.58383 0.92667 0
M  V30 3766 H 369.971 -3.95472 -0.204329 0
M  V30 3767 H 371.145 -3.77065 2.64875 0
M  V30 3768 H 369.46 -3.4958 2.26236 0
M  V30 3769 H 372.057 -5.34384 0.183787 0
M  V30 3770 H 372.4 -4.05468 -0.943481 0
M  V30 3771 H 372.933 -3.90688 0.748854 0
M  V30 3772 H 369.672 -5.78252 3.08714 0
M  V30 3773 H 369.192 -5.83816 1.37546 0
M  V30 3774 H 370.871 -6.20099 1.84626 0
M  V30 3775 N 371.003 -0.499398 -1.49478 0
M  V30 3776 C 372.414 -0.051215 -1.8663 0
M  V30 3777 C 372.765 1.36238 -1.41186 0
M  V30 3778 O 371.89 2.01502 -0.789051 0
M  V30 3779 C 372.485 -0.0861651 -3.3869 0
M  V30 3780 C 371.044 0.30667 -3.75149 0
M  V30 3781 C 370.191 -0.459397 -2.73468 0
M  V30 3782 H 373.142 -0.712264 -1.41818 0
M  V30 3783 H 373.163 0.709507 -3.73826 0
M  V30 3784 H 372.675 -1.11512 -3.71735 0
M  V30 3785 H 370.776 1.33892 -3.47712 0
M  V30 3786 H 370.889 -0.0116669 -4.79099 0
M  V30 3787 H 369.253 0.0905645 -2.54539 0
M  V30 3788 H 370.036 -1.4884 -3.09357 0
M  V30 3789 N 372.481 1.55866 -0.233164 0
M  V30 3790 C 373.411 2.23783 0.666599 0
M  V30 3791 C 374.392 1.21343 1.19205 0
M  V30 3792 O 375.577 1.4996 1.23392 0
M  V30 3793 C 372.707 2.92671 1.86978 0
M  V30 3794 C 371.661 4.01682 1.47768 0
M  V30 3795 C 370.987 4.57926 2.76058 0
M  V30 3796 C 372.287 5.18126 0.658993 0
M  V30 3797 H 373.981 2.99232 0.100306 0
M  V30 3798 H 371.527 1.43924 0.046804 0
M  V30 3799 H 373.48 3.3888 2.50476 0
M  V30 3800 H 372.204 2.14688 2.46123 0
M  V30 3801 H 370.863 3.56222 0.866106 0
M  V30 3802 H 370.511 3.76659 3.33372 0
M  V30 3803 H 370.211 5.31505 2.50552 0
M  V30 3804 H 371.735 5.06859 3.40479 0
M  V30 3805 H 373.149 5.60644 1.19795 0
M  V30 3806 H 371.546 5.98009 0.500552 0
M  V30 3807 H 372.616 4.83763 -0.331856 0
M  V30 3808 N 373.959 -0.0401083 1.57549 0
M  V30 3809 C 375.375 -0.395556 1.54621 0
M  V30 3810 C 375.575 -1.77281 0.957799 0
M  V30 3811 O 374.631 -2.45888 0.574031 0
M  V30 3812 C 375.944 -0.307535 2.99123 0
M  V30 3813 C 377.492 -0.385425 3.10618 0
M  V30 3814 C 377.967 -0.326973 4.56831 0
M  V30 3815 N 379.458 -0.386102 4.61588 0
M  V30 3816 C 380.193 -0.363591 5.72246 0
M  V30 3817 N 379.689 -0.29402 6.92176 0
M  V30 3818 N 381.482 -0.412503 5.60584 0
M  V30 3819 H 373.633 0.861325 1.94152 0
M  V30 3820 H 375.896 0.326445 0.890021 0
M  V30 3821 H 375.602 0.638461 3.45856 0
M  V30 3822 H 375.476 -1.10552 3.60636 0
M  V30 3823 H 377.863 -1.32185 2.63839 0
M  V30 3824 H 377.944 0.44171 2.51957 0
M  V30 3825 H 377.588 0.605738 5.04275 0
M  V30 3826 H 377.518 -1.17207 5.13391 0
M  V30 3827 H 380.009 -0.442832 3.75296 0
M  V30 3828 H 380.322 -0.28164 7.72287 0
M  V30 3829 H 378.667 -0.260232 6.94513 0
M  V30 3830 H 381.858 -0.464769 4.65787 0
M  V30 3831 H 382.031 -0.391492 6.46816 0
M  V30 3832 N 375.437 -1.54477 -0.31217 0
M  V30 3833 C 376.685 -1.72884 -1.04668 0
M  V30 3834 C 377.006 -0.511477 -1.88173 0
M  V30 3835 O 376.276 0.474407 -1.90069 0
M  V30 3836 H 374.856 -0.637461 -0.389425 0
M  V30 3837 H 377.518 -1.91807 -0.345852 0
M  V30 3838 H 376.614 -2.61334 -1.70619 0
M  V30 3839 N 376.915 0.57481 -1.46744 0
M  V30 3840 C 378.162 1.33272 -1.52462 0
M  V30 3841 C 378.49 1.93669 -0.179572 0
M  V30 3842 O 377.745 1.7743 0.825664 0
M  V30 3843 C 378.044 2.476 -2.57738 0
M  V30 3844 C 377.71 2.05146 -4.01529 0
M  V30 3845 C 376.372 1.93284 -4.40676 0
M  V30 3846 C 378.724 1.72506 -4.91824 0
M  V30 3847 C 376.052 1.47049 -5.67973 0
M  V30 3848 C 378.404 1.27748 -6.19567 0
M  V30 3849 C 377.068 1.14468 -6.57612 0
M  V30 3850 H 376.338 0.487678 -0.557899 0
M  V30 3851 H 378.985 0.646456 -1.80259 0
M  V30 3852 H 377.29 3.21708 -2.23632 0
M  V30 3853 H 378.987 3.05807 -2.5939 0
M  V30 3854 H 375.577 2.15316 -3.7059 0
M  V30 3855 H 379.761 1.80552 -4.62293 0
M  V30 3856 H 375.017 1.35417 -5.96215 0
M  V30 3857 H 379.191 1.01547 -6.88957 0
M  V30 3858 H 376.818 0.78419 -7.56145 0
M  V30 3859 N 378.394 1.34581 0.820102 0
M  V30 3860 C 379.671 1.17675 1.56244 0
M  V30 3861 C 380.051 -0.249541 2.0962 0
M  V30 3862 O 379.399 -1.25125 1.91196 0
M  V30 3863 C 379.609 2.23364 2.6816 0
M  V30 3864 C 380.957 2.58485 3.36854 0
M  V30 3865 O 381.981 2.22175 2.78418 0
M  V30 3866 O 380.84 3.20868 4.42386 0
M  V30 3867 H 377.934 0.456333 0.689702 0
M  V30 3868 H 380.48 1.46222 0.861231 0
M  V30 3869 H 379.252 3.19087 2.26493 0
M  V30 3870 H 378.875 1.96009 3.45928 0
M  V30 3871 N 379.872 -1.04064 1.18357 0
M  V30 3872 C 380.804 -2.12114 0.868358 0
M  V30 3873 C 381.817 -1.62247 -0.134045 0
M  V30 3874 O 383.006 -1.78253 0.0937933 0
M  V30 3875 C 380.106 -3.37773 0.276132 0
M  V30 3876 C 379.279 -4.16874 1.3242 0
M  V30 3877 C 378.338 -5.20861 0.747662 0
M  V30 3878 O 377.364 -5.51141 1.42239 0
M  V30 3879 N 378.566 -5.78715 -0.454823 0
M  V30 3880 H 381.331 -2.39748 1.79836 0
M  V30 3881 H 378.892 -1.20258 1.08396 0
M  V30 3882 H 380.884 -4.04513 -0.123133 0
M  V30 3883 H 379.454 -3.07581 -0.557895 0
M  V30 3884 H 378.674 -3.45456 1.89878 0
M  V30 3885 H 379.962 -4.66516 2.03078 0
M  V30 3886 H 379.36 -5.56415 -1.02073 0
M  V30 3887 H 377.917 -6.46921 -0.79601 0
M  V30 3888 N 381.35 -0.985608 -1.22978 0
M  V30 3889 C 382.282 -0.488154 -2.23941 0
M  V30 3890 C 383.295 0.41282 -1.57479 0
M  V30 3891 O 384.484 0.216121 -1.77187 0
M  V30 3892 C 381.584 0.312611 -3.37455 0
M  V30 3893 C 380.757 -0.582741 -4.33501 0
M  V30 3894 C 379.816 0.165064 -5.25941 0
M  V30 3895 O 378.842 -0.447077 -5.67442 0
M  V30 3896 N 380.044 1.44953 -5.62111 0
M  V30 3897 H 382.809 -1.3563 -2.67254 0
M  V30 3898 H 380.37 -0.859477 -1.37203 0
M  V30 3899 H 382.362 0.821357 -3.96277 0
M  V30 3900 H 380.932 1.0818 -2.93285 0
M  V30 3901 H 380.152 -1.27225 -3.73105 0
M  V30 3902 H 381.44 -1.19275 -4.94622 0
M  V30 3903 H 380.838 1.9683 -5.30353 0
M  V30 3904 H 379.395 1.90361 -6.23383 0
M  V30 3905 N 382.828 1.3818 -0.7579 0
M  V30 3906 C 383.761 2.28055 -0.0814093 0
M  V30 3907 C 384.739 1.45603 0.723779 0
M  V30 3908 O 385.923 1.74961 0.701491 0
M  V30 3909 C 383.05 3.2676 0.891394 0
M  V30 3910 C 382.096 4.26153 0.171909 0
M  V30 3911 S 382.929 5.23434 -1.13035 0
M  V30 3912 C 384.085 6.25694 -0.160727 0
M  V30 3913 H 384.318 2.85082 -0.84353 0
M  V30 3914 H 381.851 1.44246 -0.550671 0
M  V30 3915 H 383.809 3.8414 1.44731 0
M  V30 3916 H 382.47 2.68706 1.62652 0
M  V30 3917 H 381.663 4.95738 0.908843 0
M  V30 3918 H 381.265 3.72691 -0.312606 0
M  V30 3919 H 383.557 6.74161 0.671773 0
M  V30 3920 H 384.5 7.03285 -0.824353 0
M  V30 3921 H 384.908 5.64064 0.221892 0
M  V30 3922 N 384.306 0.507319 1.49211 0
M  V30 3923 C 385.531 -0.033725 2.07373 0
M  V30 3924 C 385.956 -1.29485 1.36437 0
M  V30 3925 O 385.314 -1.76294 0.423087 0
M  V30 3926 C 385.362 -0.263945 3.59633 0
M  V30 3927 O 384.466 -1.33737 3.90113 0
M  V30 3928 H 383.807 0.0290331 0.663365 0
M  V30 3929 H 386.337 0.708749 1.91932 0
M  V30 3930 H 386.347 -0.493536 4.05004 0
M  V30 3931 H 385.022 0.657424 4.10671 0
M  V30 3932 H 383.599 -1.09224 3.56545 0
M  V30 3933 N 385.784 -1.5574 0.241426 0
M  V30 3934 C 387.009 -2.0366 -0.392111 0
M  V30 3935 C 387.434 -1.11969 -1.51144 0
M  V30 3936 O 386.792 -0.111594 -1.80956 0
M  V30 3937 C 386.84 -3.49638 -0.882371 0
M  V30 3938 O 385.944 -3.6108 -1.99235 0
M  V30 3939 H 385.285 -0.658379 -0.0862122 0
M  V30 3940 H 387.815 -2.01302 0.365881 0
M  V30 3941 H 387.825 -3.90351 -1.18702 0
M  V30 3942 H 386.5 -4.15852 -0.0632361 0
M  V30 3943 H 385.077 -3.32262 -1.69282 0
M  V30 3944 N 387.262 0.0317525 -1.57568 0
M  V30 3945 C 388.195 1.06621 -2.0176 0
M  V30 3946 C 389.173 1.35323 -0.901462 0
M  V30 3947 O 390.357 1.48025 -1.16708 0
M  V30 3948 C 387.484 2.40155 -2.38837 0
M  V30 3949 C 386.53 2.27327 -3.60867 0
M  V30 3950 S 387.363 1.62925 -5.10113 0
M  V30 3951 C 388.519 2.97955 -5.5043 0
M  V30 3952 H 388.752 0.689781 -2.89187 0
M  V30 3953 H 386.285 0.24164 -1.52497 0
M  V30 3954 H 388.243 3.1695 -2.6087 0
M  V30 3955 H 386.904 2.74946 -1.51867 0
M  V30 3956 H 386.097 3.25898 -3.84456 0
M  V30 3957 H 385.699 1.58675 -3.38671 0
M  V30 3958 H 387.991 3.94285 -5.5095 0
M  V30 3959 H 388.934 2.79102 -6.50775 0
M  V30 3960 H 389.342 3.00404 -4.77931 0
M  V30 3961 N 388.74 1.54641 0.303973 0
M  V30 3962 C 389.986 1.74038 1.04109 0
M  V30 3963 C 390.319 0.523051 1.87024 0
M  V30 3964 O 389.594 -0.479874 1.88487 0
M  V30 3965 C 389.877 3.02761 1.94955 0
M  V30 3966 C 389.73 4.34787 1.1524 0
M  V30 3967 C 391.049 3.27336 2.94175 0
M  V30 3968 H 388.168 0.63323 0.377079 0
M  V30 3969 H 390.81 1.87354 0.316001 0
M  V30 3970 H 388.96 2.9154 2.56782 0
M  V30 3971 H 390.632 4.57922 0.557236 0
M  V30 3972 H 388.875 4.31407 0.455053 0
M  V30 3973 H 389.546 5.21116 1.8205 0
M  V30 3974 H 392.022 3.38148 2.42477 0
M  V30 3975 H 390.898 4.18726 3.54908 0
M  V30 3976 H 391.159 2.45491 3.67677 0
M  V30 3977 N 390.218 -0.567019 1.47046 0
M  V30 3978 C 391.467 -1.32091 1.5243 0
M  V30 3979 C 391.78 -1.94704 0.187021 0
M  V30 3980 O 392.986 -2.7124 0.118771 0
M  V30 3981 C 391.442 -2.39479 2.68659 0
M  V30 3982 C 391.05 -1.831 4.08874 0
M  V30 3983 C 392.794 -3.16111 2.83327 0
M  V30 3984 C 390.701 -2.8821 5.16419 0
M  V30 3985 H 389.631 -0.496629 0.56734 0
M  V30 3986 H 392.282 -0.603354 1.73297 0
M  V30 3987 H 390.664 -3.14105 2.41152 0
M  V30 3988 H 391.838 -1.14913 4.46242 0
M  V30 3989 H 390.153 -1.19085 3.99008 0
M  V30 3990 H 392.75 -3.94585 3.60842 0
M  V30 3991 H 393.093 -3.69686 1.91411 0
M  V30 3992 H 393.626 -2.48595 3.10556 0
M  V30 3993 H 390.365 -2.39504 6.10179 0
M  V30 3994 H 389.885 -3.54839 4.8358 0
M  V30 3995 H 391.564 -3.51881 5.42945 0
M  V30 3996 N 391.696 -1.35014 -0.812953 0
M  V30 3997 C 392.606 -1.2951 -1.95613 0
M  V30 3998 C 393.622 -0.20107 -1.72834 0
M  V30 3999 O 394.798 -0.42932 -1.96771 0
M  V30 4000 C 391.863 -1.06033 -3.30088 0
M  V30 4001 C 390.924 -2.24688 -3.65805 0
M  V30 4002 C 390.157 -2.02322 -4.93864 0
M  V30 4003 O 390.38 -0.986464 -5.61805 0
M  V30 4004 O 389.314 -2.89525 -5.27692 0
M  V30 4005 H 393.14 -2.25705 -2.03202 0
M  V30 4006 H 390.725 -1.15321 -0.949811 0
M  V30 4007 H 392.607 -0.94763 -4.10607 0
M  V30 4008 H 391.282 -0.128852 -3.23443 0
M  V30 4009 H 390.189 -2.41521 -2.85689 0
M  V30 4010 H 391.522 -3.16261 -3.77147 0
M  V30 4011 N 393.175 1.03435 -1.18907 0
M  V30 4012 C 394.125 2.09924 -0.889706 0
M  V30 4013 C 395.109 1.60261 0.143216 0
M  V30 4014 O 396.301 1.76892 -0.0617122 0
M  V30 4015 C 393.43 3.40669 -0.424168 0
M  V30 4016 C 392.516 3.97082 -1.48952 0
M  V30 4017 N 392.907 4.27227 -2.70759 0
M  V30 4018 C 391.205 4.25029 -1.35152 0
M  V30 4019 C 391.906 4.7246 -3.39347 0
M  V30 4020 N 390.882 4.7366 -2.66735 0
M  V30 4021 H 394.684 2.31116 -1.81555 0
M  V30 4022 H 392.198 1.21246 -1.08042 0
M  V30 4023 H 394.195 4.16461 -0.191176 0
M  V30 4024 H 392.855 3.20901 0.495263 0
M  V30 4025 H 393.866 4.16678 -3.0757 0
M  V30 4026 H 390.543 4.14554 -0.495126 0
M  V30 4027 H 391.933 5.04751 -4.43481 0
M  V30 4028 N 394.653 0.992116 1.22453 0
M  V30 4029 C 395.586 0.486701 2.22949 0
M  V30 4030 C 396.564 -0.45259 1.56174 0
M  V30 4031 O 397.748 -0.378317 1.84665 0
M  V30 4032 C 394.875 -0.294537 3.37417 0
M  V30 4033 C 393.921 0.590628 4.22391 0
M  V30 4034 S 394.754 2.04546 4.94895 0
M  V30 4035 C 395.91 1.27369 6.12803 0
M  V30 4036 H 396.143 1.33828 2.65475 0
M  V30 4037 H 393.676 0.799023 1.32117 0
M  V30 4038 H 395.634 -0.739241 4.03789 0
M  V30 4039 H 394.295 -1.12139 2.934 0
M  V30 4040 H 393.488 -0.0104375 5.03999 0
M  V30 4041 H 393.09 0.972064 3.61147 0
M  V30 4042 H 395.382 0.540943 6.75337 0
M  V30 4043 H 396.325 2.06502 6.7732 0
M  V30 4044 H 396.733 0.787324 5.58983 0
M  V30 4045 N 396.131 -1.37776 0.765217 0
M  V30 4046 C 397.094 -2.28686 0.153416 0
M  V30 4047 C 398.094 -1.47727 -0.635081 0
M  V30 4048 O 399.284 -1.68027 -0.459632 0
M  V30 4049 C 396.416 -3.31608 -0.790495 0
M  V30 4050 H 397.609 -2.84297 0.954723 0
M  V30 4051 H 395.162 -1.46932 0.53299 0
M  V30 4052 H 395.897 -2.81109 -1.61705 0
M  V30 4053 H 395.682 -3.9144 -0.227348 0
M  V30 4054 H 397.172 -3.99559 -1.21419 0
M  V30 4055 N 397.609 -0.515225 -1.4894 0
M  V30 4056 C 398.834 0.022727 -2.07388 0
M  V30 4057 C 399.259 1.2876 -1.37122 0
M  V30 4058 O 398.617 1.76067 -0.432431 0
M  V30 4059 C 398.665 0.244869 -3.59768 0
M  V30 4060 O 397.769 1.31667 -3.90817 0
M  V30 4061 H 397.11 -0.0325506 -0.663202 0
M  V30 4062 H 399.64 -0.718918 -1.91553 0
M  V30 4063 H 399.65 0.47205 -4.0526 0
M  V30 4064 H 398.325 -0.679194 -4.10317 0
M  V30 4065 H 396.902 1.07331 -3.5712 0
M  V30 4066 N 399.087 1.5561 -0.249682 0
M  V30 4067 C 400.037 2.18157 0.662673 0
M  V30 4068 C 401.021 1.1383 1.13717 0
M  V30 4069 O 402.213 1.39731 1.08648 0
M  V30 4070 C 399.342 2.88672 1.85805 0
M  V30 4071 C 398.428 4.00258 1.40193 0
M  V30 4072 N 398.819 5.01473 0.660213 0
M  V30 4073 C 397.117 4.12864 1.68698 0
M  V30 4074 C 397.818 5.80155 0.423695 0
M  V30 4075 N 396.794 5.34533 0.988721 0
M  V30 4076 H 400.596 2.93769 0.0878688 0
M  V30 4077 H 398.11 1.62316 -0.0521183 0
M  V30 4078 H 400.107 3.31912 2.5227 0
M  V30 4079 H 398.767 2.14564 2.43705 0
M  V30 4080 H 399.778 5.16971 0.310047 0
M  V30 4081 H 396.455 3.4993 2.27717 0
M  V30 4082 H 397.845 6.71688 -0.168616 0
M  V30 4083 N 400.565 -0.0233959 1.57583 0
M  V30 4084 C 401.813 -0.711654 1.89156 0
M  V30 4085 C 402.134 -1.75591 0.848096 0
M  V30 4086 O 401.404 -1.95547 -0.117566 0
M  V30 4087 H 399.984 -0.265835 0.698098 0
M  V30 4088 H 402.646 0.0119948 1.94896 0
M  V30 4089 H 401.742 -1.19766 2.88206 0
M  V30 4090 N 402.043 -1.548 -0.295768 0
M  V30 4091 C 403.271 -1.78327 -1.04914 0
M  V30 4092 C 403.686 -0.545316 -1.80753 0
M  V30 4093 O 403.043 0.485013 -1.75937 0
M  V30 4094 C 403.094 -2.99418 -2.02561 0
M  V30 4095 O 402.815 -4.18431 -1.29798 0
M  V30 4096 C 404.316 -3.35375 -2.89895 0
M  V30 4097 H 401.536 -0.594618 -0.310918 0
M  V30 4098 H 404.08 -2.01763 -0.333454 0
M  V30 4099 H 402.235 -2.78175 -2.69624 0
M  V30 4100 H 402.649 -4.86736 -1.95419 0
M  V30 4101 H 404.123 -4.23332 -3.54251 0
M  V30 4102 H 404.6 -2.53761 -3.58472 0
M  V30 4103 H 405.206 -3.58796 -2.28355 0
M  V30 4104 N 403.521 0.559213 -1.47345 0
M  V30 4105 C 404.937 0.884943 -1.32819 0
M  V30 4106 C 405.137 1.98988 -0.317173 0
M  V30 4107 O 404.193 2.51031 0.272011 0
M  V30 4108 C 405.506 1.28007 -2.72093 0
M  V30 4109 C 407.054 1.39161 -2.80363 0
M  V30 4110 C 407.529 1.82031 -4.20272 0
M  V30 4111 N 409.02 1.89185 -4.22804 0
M  V30 4112 C 409.755 2.2368 -5.27973 0
M  V30 4113 N 409.251 2.56802 -6.43447 0
M  V30 4114 N 411.044 2.24436 -5.15349 0
M  V30 4115 H 403.195 -0.170304 -2.11716 0
M  V30 4116 H 405.458 -0.0135247 -0.947904 0
M  V30 4117 H 405.164 0.542027 -3.47498 0
M  V30 4118 H 405.038 2.23665 -3.03733 0
M  V30 4119 H 407.425 2.12048 -2.05231 0
M  V30 4120 H 407.506 0.41696 -2.52379 0
M  V30 4121 H 407.15 1.09715 -4.95908 0
M  V30 4122 H 407.08 2.80495 -4.45679 0
M  V30 4123 H 409.571 1.65982 -3.39497 0
M  V30 4124 H 409.884 2.82144 -7.19454 0
M  V30 4125 H 408.229 2.54387 -6.46771 0
M  V30 4126 H 411.42 1.97998 -4.24163 0
M  V30 4127 H 411.593 2.50989 -5.97418 0
M  V30 4128 N 404.999 1.35443 0.805782 0
M  V30 4129 C 406.246 1.28761 1.56291 0
M  V30 4130 C 406.574 -0.137747 1.94012 0
M  V30 4131 O 405.829 -1.1032 1.61642 0
M  V30 4132 C 406.128 2.14045 2.86216 0
M  V30 4133 C 405.794 3.62826 2.67709 0
M  V30 4134 C 404.456 4.0338 2.6237 0
M  V30 4135 C 406.808 4.57227 2.50186 0
M  V30 4136 C 404.136 5.36501 2.37451 0
M  V30 4137 C 406.488 5.90547 2.26797 0
M  V30 4138 C 405.152 6.30245 2.1988 0
M  V30 4139 H 404.422 0.471171 0.571908 0
M  V30 4140 H 407.069 1.67347 0.930974 0
M  V30 4141 H 405.374 1.68342 3.53791 0
M  V30 4142 H 407.071 2.0621 3.43917 0
M  V30 4143 H 403.661 3.30644 2.72713 0
M  V30 4144 H 407.845 4.2678 2.53323 0
M  V30 4145 H 403.101 5.66259 2.30567 0
M  V30 4146 H 407.275 6.63274 2.12228 0
M  V30 4147 H 404.902 7.33328 2.00333 0
M  V30 4148 N 406.477 -1.02803 1.19454 0
M  V30 4149 C 407.407 -2.12999 0.956758 0
M  V30 4150 C 408.388 -1.69743 -0.110188 0
M  V30 4151 O 409.573 -1.94148 0.0450038 0
M  V30 4152 C 406.703 -3.43746 0.495553 0
M  V30 4153 C 405.657 -4.00688 1.50443 0
M  V30 4154 C 404.983 -5.27067 0.900275 0
M  V30 4155 C 406.283 -4.35397 2.8849 0
M  V30 4156 H 407.977 -2.33148 1.87836 0
M  V30 4157 H 405.523 -1.12045 0.904539 0
M  V30 4158 H 407.476 -4.2021 0.316493 0
M  V30 4159 H 406.2 -3.23321 -0.461646 0
M  V30 4160 H 404.859 -3.2632 1.67065 0
M  V30 4161 H 404.507 -5.02959 -0.064503 0
M  V30 4162 H 404.207 -5.66127 1.57397 0
M  V30 4163 H 405.731 -6.06196 0.73203 0
M  V30 4164 H 407.145 -5.02795 2.75446 0
M  V30 4165 H 405.542 -4.85541 3.52661 0
M  V30 4166 H 406.612 -3.44662 3.41081 0
M  V30 4167 N 407.956 -0.998596 -1.21925 0
M  V30 4168 C 409.372 -0.710303 -1.42923 0
M  V30 4169 C 409.572 0.716933 -1.88314 0
M  V30 4170 O 408.628 1.48712 -2.04062 0
M  V30 4171 C 409.941 -1.72072 -2.466 0
M  V30 4172 C 411.489 -1.73681 -2.60392 0
M  V30 4173 C 411.964 -2.73601 -3.67296 0
M  V30 4174 N 413.455 -2.7223 -3.7476 0
M  V30 4175 C 414.19 -3.46206 -4.57087 0
M  V30 4176 N 413.686 -4.29802 -5.43362 0
M  V30 4177 N 415.479 -3.34886 -4.51451 0
M  V30 4178 H 407.63 -1.92028 -0.9077 0
M  V30 4179 H 409.893 -0.828487 -0.460775 0
M  V30 4180 H 409.599 -2.74231 -2.20206 0
M  V30 4181 H 409.473 -1.51818 -3.45299 0
M  V30 4182 H 411.86 -0.722173 -2.86127 0
M  V30 4183 H 411.941 -1.98005 -1.61949 0
M  V30 4184 H 411.585 -3.75217 -3.42307 0
M  V30 4185 H 411.515 -2.46545 -4.65321 0
M  V30 4186 H 414.006 -2.11576 -3.1312 0
M  V30 4187 H 414.319 -4.83061 -6.03218 0
M  V30 4188 H 412.664 -4.33887 -5.42925 0
M  V30 4189 H 415.855 -2.69015 -3.83078 0
M  V30 4190 H 416.028 -3.92796 -5.15379 0
M  V30 4191 N 409.434 1.37368 -0.772513 0
M  V30 4192 C 410.682 1.99279 -0.336516 0
M  V30 4193 C 411.003 1.6163 1.09091 0
M  V30 4194 O 410.273 0.882109 1.74916 0
M  V30 4195 H 408.853 0.737063 -0.121435 0
M  V30 4196 H 411.515 1.67836 -0.990809 0
M  V30 4197 H 410.611 3.09332 -0.414763 0
M  V30 4198 N 410.912 0.523116 1.48665 0
M  V30 4199 C 412.152 -0.0115588 2.04397 0
M  V30 4200 C 412.516 -1.32225 1.39214 0
M  V30 4201 O 413.717 -1.94253 1.85793 0
M  V30 4202 C 411.988 -0.138119 3.57133 0
M  V30 4203 S 413.547 -0.623849 4.34343 0
M  V30 4204 H 410.365 0.00877706 0.710946 0
M  V30 4205 H 412.967 0.702116 1.82457 0
M  V30 4206 H 411.671 0.820748 4.02109 0
M  V30 4207 H 411.202 -0.876377 3.83514 0
M  V30 4208 H 413.217 -1.8895 4.58816 0
M  V30 4209 N 412.39 -1.55475 0.257931 0
M  V30 4210 C 413.353 -2.20551 -0.623706 0
M  V30 4211 C 414.353 -1.17809 -1.09443 0
M  V30 4212 O 415.543 -1.42823 -0.997362 0
M  V30 4213 C 412.675 -2.85784 -1.8585 0
M  V30 4214 H 413.868 -2.99848 -0.0557743 0
M  V30 4215 H 411.421 -1.56298 0.0084422 0
M  V30 4216 H 412.156 -2.10453 -2.46739 0
M  V30 4217 H 411.941 -3.61057 -1.52907 0
M  V30 4218 H 413.431 -3.35553 -2.48584 0
M  V30 4219 N 413.868 0.0150385 -1.57593 0
M  V30 4220 C 415.279 0.559832 -1.78109 0
M  V30 4221 C 415.63 1.74814 -0.890756 0
M  V30 4222 O 414.755 2.16216 -0.0892482 0
M  V30 4223 C 415.35 1.02238 -3.23006 0
M  V30 4224 C 413.909 1.51258 -3.44671 0
M  V30 4225 C 413.056 0.456955 -2.73509 0
M  V30 4226 H 416.007 -0.211169 -1.57289 0
M  V30 4227 H 416.028 1.88912 -3.30292 0
M  V30 4228 H 415.54 0.157302 -3.87781 0
M  V30 4229 H 413.641 2.39905 -2.8509 0
M  V30 4230 H 413.754 1.55042 -4.5332 0
M  V30 4231 H 412.118 0.915196 -2.37689 0
M  V30 4232 H 412.901 -0.398896 -3.40975 0
M  V30 4233 N 415.346 1.54954 0.287554 0
M  V30 4234 C 416.571 1.79209 1.04397 0
M  V30 4235 C 416.996 0.556431 1.79682 0
M  V30 4236 O 416.354 -0.493518 1.74454 0
M  V30 4237 C 416.402 3.00739 1.98969 0
M  V30 4238 O 415.506 2.74805 3.075 0
M  V30 4239 H 414.847 0.592755 0.299227 0
M  V30 4240 H 417.377 2.02068 0.320886 0
M  V30 4241 H 417.387 3.29077 2.4119 0
M  V30 4242 H 416.062 3.90329 1.43582 0
M  V30 4243 H 414.639 2.57523 2.69697 0
M  V30 4244 N 416.824 -0.551391 1.4764 0
M  V30 4245 C 418.24 -0.877887 1.33287 0
M  V30 4246 C 418.44 -1.98817 0.327721 0
M  V30 4247 O 417.496 -2.51171 -0.258695 0
M  V30 4248 C 418.809 -1.26563 2.72768 0
M  V30 4249 C 420.357 -1.37673 2.81097 0
M  V30 4250 C 420.832 -1.79799 4.21232 0
M  V30 4251 N 422.323 -1.8694 4.23802 0
M  V30 4252 C 423.058 -2.20876 5.29151 0
M  V30 4253 N 422.554 -2.53386 6.448 0
M  V30 4254 N 424.347 -2.217 5.16532 0
M  V30 4255 H 416.498 0.18153 2.11623 0
M  V30 4256 H 418.761 0.0185514 0.947818 0
M  V30 4257 H 418.467 -0.523591 3.47781 0
M  V30 4258 H 418.341 -2.22052 3.04915 0
M  V30 4259 H 420.728 -2.10956 2.06353 0
M  V30 4260 H 420.809 -0.40357 2.52596 0
M  V30 4261 H 420.453 -1.07083 4.96483 0
M  V30 4262 H 420.383 -2.78128 4.4716 0
M  V30 4263 H 422.874 -1.64179 3.40373 0
M  V30 4264 H 423.187 -2.78325 7.20941 0
M  V30 4265 H 421.532 -2.50953 6.48111 0
M  V30 4266 H 424.723 -1.95745 4.25207 0
M  V30 4267 H 424.896 -2.47818 5.98741 0
M  V30 4268 N 418.302 -1.35869 -0.798587 0
M  V30 4269 C 419.548 -1.2978 -1.55836 0
M  V30 4270 C 419.881 0.125322 -1.93795 0
M  V30 4271 O 419.156 1.07658 -1.61987 0
M  V30 4272 C 419.439 -2.21188 -2.84162 0
M  V30 4273 C 419.292 -3.72155 -2.52628 0
M  V30 4274 C 420.611 -2.11545 -3.85923 0
M  V30 4275 H 417.73 -0.472769 -0.565383 0
M  V30 4276 H 420.372 -1.66341 -0.918192 0
M  V30 4277 H 418.522 -1.90139 -3.38791 0
M  V30 4278 H 420.194 -4.13682 -2.04121 0
M  V30 4279 H 418.437 -3.92042 -1.85704 0
M  V30 4280 H 419.108 -4.31511 -3.44242 0
M  V30 4281 H 421.584 -2.38855 -3.40716 0
M  V30 4282 H 420.46 -2.77688 -4.73477 0
M  V30 4283 H 420.721 -1.09987 -4.282 0
M  V30 4284 N 419.78 1.02168 -1.19998 0
M  V30 4285 C 421.196 1.27969 -0.953737 0
M  V30 4286 C 421.396 1.98079 0.369703 0
M  V30 4287 O 420.452 2.27306 1.09947 0
M  V30 4288 C 421.765 2.11971 -2.13281 0
M  V30 4289 C 423.313 2.25255 -2.17323 0
M  V30 4290 C 423.788 3.12632 -3.34702 0
M  V30 4291 N 425.279 3.2022 -3.34684 0
M  V30 4292 C 426.014 3.88039 -4.22153 0
M  V30 4293 N 425.51 4.58027 -5.19791 0
M  V30 4294 N 427.303 3.84511 -4.10009 0
M  V30 4295 H 419.454 0.550794 -2.05134 0
M  V30 4296 H 421.717 0.305683 -0.897364 0
M  V30 4297 H 421.423 1.67785 -3.09097 0
M  V30 4298 H 421.297 3.12699 -2.10949 0
M  V30 4299 H 423.684 2.68667 -1.22073 0
M  V30 4300 H 423.765 1.24053 -2.23706 0
M  V30 4301 H 423.409 2.69926 -4.30235 0
M  V30 4302 H 423.339 4.13909 -3.25556 0
M  V30 4303 H 425.83 2.70382 -2.64012 0
M  V30 4304 H 426.143 5.07429 -5.82868 0
M  V30 4305 H 424.488 4.56869 -5.23733 0
M  V30 4306 H 427.679 3.28978 -3.33003 0
M  V30 4307 H 427.852 4.3709 -4.78389 0
M  V30 4308 N 421.258 1.00505 1.21394 0
M  V30 4309 C 422.674 0.717873 1.42544 0
M  V30 4310 C 422.874 -0.706936 1.88692 0
M  V30 4311 O 421.93 -1.47627 2.04847 0
M  V30 4312 C 423.243 1.73377 2.45684 0
M  V30 4313 C 424.791 1.75059 2.59467 0
M  V30 4314 C 425.266 2.75545 3.6584 0
M  V30 4315 N 426.757 2.74213 3.73311 0
M  V30 4316 C 427.492 3.48626 4.55245 0
M  V30 4317 N 426.988 4.32678 5.41075 0
M  V30 4318 N 428.781 3.37276 4.49668 0
M  V30 4319 H 420.932 1.92506 0.897503 0
M  V30 4320 H 423.195 0.830919 0.456375 0
M  V30 4321 H 422.901 2.75395 2.18748 0
M  V30 4322 H 422.775 1.53647 3.44489 0
M  V30 4323 H 425.162 0.737337 2.8574 0
M  V30 4324 H 425.243 1.98861 1.60897 0
M  V30 4325 H 424.887 3.77028 3.40313 0
M  V30 4326 H 424.817 2.49009 4.64007 0
M  V30 4327 H 427.308 2.13234 3.11993 0
M  V30 4328 H 427.621 4.86253 6.00648 0
M  V30 4329 H 425.966 4.3676 5.40616 0
M  V30 4330 H 429.157 2.71043 3.81646 0
M  V30 4331 H 429.33 3.95524 5.13288 0
M  V30 4332 N 422.737 -1.36956 0.779787 0
M  V30 4333 C 423.667 -2.32761 0.185651 0
M  V30 4334 C 424.648 -1.56177 -0.673989 0
M  V30 4335 O 425.833 -1.84378 -0.609797 0
M  V30 4336 C 422.963 -3.40418 -0.687964 0
M  V30 4337 C 421.917 -4.27941 0.0710102 0
M  V30 4338 C 421.243 -5.26681 -0.922573 0
M  V30 4339 C 422.543 -5.07006 1.25467 0
M  V30 4340 H 424.237 -2.82698 0.986008 0
M  V30 4341 H 421.783 -1.3592 0.475592 0
M  V30 4342 H 423.736 -4.06423 -1.11348 0
M  V30 4343 H 422.46 -2.89025 -1.52093 0
M  V30 4344 H 421.119 -3.63478 0.47739 0
M  V30 4345 H 420.767 -4.71565 -1.7503 0
M  V30 4346 H 420.467 -5.86103 -0.419237 0
M  V30 4347 H 421.991 -5.9556 -1.34686 0
M  V30 4348 H 423.405 -5.66105 0.905401 0
M  V30 4349 H 421.802 -5.75793 1.69063 0
M  V30 4350 H 422.872 -4.3921 2.05481 0
M  V30 4351 N 424.215 -0.530993 -1.48385 0
M  V30 4352 C 425.626 -0.0907905 -1.86479 0
M  V30 4353 C 425.977 1.33213 -1.44044 0
M  V30 4354 O 425.102 1.99783 -0.831615 0
M  V30 4355 C 425.697 -0.157987 -3.38431 0
M  V30 4356 C 424.256 0.227026 -3.75715 0
M  V30 4357 C 423.403 -0.5173 -2.72432 0
M  V30 4358 H 426.354 -0.742186 -1.40276 0
M  V30 4359 H 426.375 0.630053 -3.75247 0
M  V30 4360 H 425.887 -1.19372 -3.69286 0
M  V30 4361 H 423.988 1.26486 -3.50474 0
M  V30 4362 H 424.101 -0.113288 -4.78966 0
M  V30 4363 H 422.465 0.0365527 -2.54674 0
M  V30 4364 H 423.248 -1.55368 -3.0613 0
M  V30 4365 N 425.693 1.55336 -0.266172 0
M  V30 4366 C 426.97 1.91372 0.404486 0
M  V30 4367 C 427.35 1.18935 1.74407 0
M  V30 4368 O 426.698 0.3132 2.26343 0
M  V30 4369 C 426.908 3.44581 0.553593 0
M  V30 4370 C 428.256 4.16196 0.840618 0
M  V30 4371 O 429.28 3.50426 0.638739 0
M  V30 4372 O 428.139 5.32567 1.22618 0
M  V30 4373 H 425.233 0.797194 0.220025 0
M  V30 4374 H 427.779 1.66813 -0.311664 0
M  V30 4375 H 426.551 3.89357 -0.389498 0
M  V30 4376 H 426.174 3.75065 1.31955 0
M  V30 4377 N 427.171 -0.0066808 1.57599 0
M  V30 4378 C 428.419 -0.691552 1.899 0
M  V30 4379 C 428.74 -1.74682 0.866672 0
M  V30 4380 O 428.01 -1.95661 -0.0968189 0
M  V30 4381 H 426.59 -0.258416 0.700878 0
M  V30 4382 H 429.252 0.0326655 1.94873 0
M  V30 4383 H 428.348 -1.16702 2.8946 0
M  V30 4384 N 428.649 -1.55105 -0.279332 0
M  V30 4385 C 429.581 -1.83952 -1.36727 0
M  V30 4386 C 430.594 -0.723642 -1.45833 0
M  V30 4387 O 431.783 -1.00141 -1.47763 0
M  V30 4388 C 428.883 -1.98183 -2.74912 0
M  V30 4389 C 428.056 -3.28787 -2.88475 0
M  V30 4390 C 427.115 -3.33162 -4.07295 0
M  V30 4391 O 426.141 -4.06576 -3.98353 0
M  V30 4392 N 427.343 -2.60109 -5.18964 0
M  V30 4393 H 430.108 -2.77853 -1.12328 0
M  V30 4394 H 427.669 -1.54945 -0.469442 0
M  V30 4395 H 429.661 -1.98488 -3.52682 0
M  V30 4396 H 428.231 -1.11177 -2.92162 0
M  V30 4397 H 427.451 -3.41075 -1.97641 0
M  V30 4398 H 428.739 -4.14933 -2.94463 0
M  V30 4399 H 428.137 -2.00136 -5.29115 0
M  V30 4400 H 426.694 -2.66143 -5.94988 0
M  V30 4401 N 430.127 0.543554 -1.4793 0
M  V30 4402 C 431.057 1.65888 -1.64327 0
M  V30 4403 C 432.038 1.62818 -0.492383 0
M  V30 4404 O 433.223 1.80226 -0.723338 0
M  V30 4405 C 430.353 3.04506 -1.67013 0
M  V30 4406 C 429.307 3.2243 -2.81466 0
M  V30 4407 C 428.633 4.61972 -2.69233 0
M  V30 4408 C 429.933 3.06496 -4.22915 0
M  V30 4409 H 431.627 1.52421 -2.57698 0
M  V30 4410 H 429.173 0.731849 -1.24016 0
M  V30 4411 H 431.126 3.82391 -1.77074 0
M  V30 4412 H 429.85 3.18964 -0.70212 0
M  V30 4413 H 428.509 2.46957 -2.70938 0
M  V30 4414 H 428.157 4.73247 -1.7043 0
M  V30 4415 H 427.857 4.74911 -3.46025 0
M  V30 4416 H 429.381 5.41974 -2.81242 0
M  V30 4417 H 430.795 3.74186 -4.34348 0
M  V30 4418 H 429.192 3.30938 -5.006 0
M  V30 4419 H 430.262 2.03077 -4.40327 0
M  V30 4420 N 431.605 1.3629 0.791371 0
M  V30 4421 C 432.537 1.26321 1.91248 0
M  V30 4422 C 433.55 0.18313 1.61767 0
M  V30 4423 O 434.739 0.437682 1.73051 0
M  V30 4424 C 431.839 0.925901 3.26007 0
M  V30 4425 C 431.012 2.10746 3.83281 0
M  V30 4426 C 430.071 1.74352 4.96475 0
M  V30 4427 O 429.097 2.46416 5.13096 0
M  V30 4428 N 430.299 0.676058 5.7655 0
M  V30 4429 H 433.064 2.22915 2.00323 0
M  V30 4430 H 430.625 1.29659 0.969546 0
M  V30 4431 H 432.617 0.663636 3.99222 0
M  V30 4432 H 431.187 0.0491581 3.12561 0
M  V30 4433 H 430.407 2.53264 3.02077 0
M  V30 4434 H 431.695 2.8969 4.18279 0
M  V30 4435 H 431.093 0.0776467 5.65647 0
M  V30 4436 H 429.65 0.473612 6.50077 0
M  V30 4437 N 433.083 -1.0153 1.20538 0
M  V30 4438 C 434.329 -1.75408 1.01783 0
M  V30 4439 C 434.662 -1.88943 -0.448814 0
M  V30 4440 O 433.937 -1.4162 -1.33319 0
M  V30 4441 C 434.22 -3.17255 1.70356 0
M  V30 4442 C 434.073 -3.11508 3.24473 0
M  V30 4443 C 435.392 -4.15955 1.43769 0
M  V30 4444 H 432.511 -0.636713 0.371167 0
M  V30 4445 H 435.153 -1.18436 1.4857 0
M  V30 4446 H 433.303 -3.65898 1.30578 0
M  V30 4447 H 434.975 -2.70658 3.73553 0
M  V30 4448 H 433.218 -2.4887 3.55311 0
M  V30 4449 H 433.889 -4.11784 3.67611 0
M  V30 4450 H 436.365 -3.75973 1.7828 0
M  V30 4451 H 435.241 -5.13368 1.94279 0
M  V30 4452 H 435.502 -4.40586 0.365564 0
M  V30 4453 N 434.561 -1.01147 -1.20859 0
M  V30 4454 C 435.789 -0.716911 -1.94082 0
M  V30 4455 C 436.204 0.721568 -1.74467 0
M  V30 4456 O 435.561 1.48889 -1.05539 0
M  V30 4457 C 435.612 -1.03662 -3.46318 0
M  V30 4458 O 435.333 -2.4186 -3.65288 0
M  V30 4459 C 436.834 -0.762386 -4.36695 0
M  V30 4460 H 434.054 -0.26367 -0.617024 0
M  V30 4461 H 436.598 -1.35127 -1.53496 0
M  V30 4462 H 434.753 -0.447757 -3.84804 0
M  V30 4463 H 435.167 -2.53224 -4.59323 0
M  V30 4464 H 436.641 -1.03621 -5.42187 0
M  V30 4465 H 437.118 0.303514 -4.3815 0
M  V30 4466 H 437.724 -1.33316 -4.03865 0
M  V30 4467 N 436.039 1.36541 -0.78704 0
M  V30 4468 C 437.285 2.00044 -0.367938 0
M  V30 4469 C 437.64 1.61345 1.04812 0
M  V30 4470 O 436.933 0.856936 1.71368 0
M  V30 4471 C 437.127 3.54343 -0.466485 0
M  V30 4472 C 436.956 4.08029 -1.89058 0
M  V30 4473 C 435.726 4.38284 -2.51466 0
M  V30 4474 C 437.924 4.27954 -2.85236 0
M  V30 4475 N 435.906 4.77778 -3.85488 0
M  V30 4476 C 437.277 4.70227 -4.04088 0
M  V30 4477 C 439.332 4.10119 -2.82324 0
M  V30 4478 C 438.035 4.96532 -5.20432 0
M  V30 4479 C 440.061 4.37569 -3.97854 0
M  V30 4480 C 439.423 4.80095 -5.15449 0
M  V30 4481 H 435.522 0.760525 -0.182004 0
M  V30 4482 H 438.106 1.65589 -1.02413 0
M  V30 4483 H 436.277 3.88072 0.159606 0
M  V30 4484 H 438.009 4.04693 -0.0238577 0
M  V30 4485 H 434.764 4.27905 -2.02965 0
M  V30 4486 H 435.188 5.01813 -4.54437 0
M  V30 4487 H 439.83 3.76399 -1.92571 0
M  V30 4488 H 437.548 5.29134 -6.10773 0
M  V30 4489 H 441.134 4.25341 -3.96958 0
M  V30 4490 H 440.014 5.00925 -6.0336 0
M  V30 4491 N 437.518 0.538854 1.48102 0
M  V30 4492 C 438.428 -0.222648 2.33541 0
M  V30 4493 C 439.444 -0.930225 1.47047 0
M  V30 4494 O 440.62 -0.903211 1.80011 0
M  V30 4495 C 437.685 -1.25064 3.23357 0
M  V30 4496 C 436.746 -0.552469 4.2573 0
M  V30 4497 C 435.979 -1.53149 5.11254 0
M  V30 4498 O 436.202 -2.76487 4.9891 0
M  V30 4499 O 435.136 -1.06602 5.92385 0
M  V30 4500 H 438.962 0.477707 2.99919 0
M  V30 4501 H 436.547 0.299669 1.46364 0
M  V30 4502 H 438.429 -1.8445 3.78888 0
M  V30 4503 H 437.104 -1.93325 2.59629 0
M  V30 4504 H 436.011 0.082114 3.7401 0
M  V30 4505 H 437.344 0.0883526 4.92121 0
M  V30 4506 N 438.996 -1.55193 0.274407 0
M  V30 4507 C 440.273 -1.91584 -0.394331 0
M  V30 4508 C 440.653 -1.19858 -1.73774 0
M  V30 4509 O 440.001 -0.3252 -2.26174 0
M  V30 4510 C 440.211 -3.4487 -0.535311 0
M  V30 4511 C 441.559 -4.16636 -0.818534 0
M  V30 4512 O 442.583 -3.5076 -0.620146 0
M  V30 4513 O 441.442 -5.33209 -1.19792 0
M  V30 4514 H 438.536 -0.798349 -0.215794 0
M  V30 4515 H 441.082 -1.66646 0.320507 0
M  V30 4516 H 439.854 -3.89145 0.410141 0
M  V30 4517 H 439.477 -3.75759 -1.29964 0
M  V30 4518 N 440.474 -0.00167713 -1.576 0
M  V30 4519 C 441.699 0.69739 -1.95323 0
M  V30 4520 C 442.124 1.6642 -0.876706 0
M  V30 4521 O 441.482 1.80548 0.165007 0
M  V30 4522 C 441.53 1.40403 -3.32144 0
M  V30 4523 O 440.634 2.5185 -3.26566 0
M  V30 4524 H 439.975 0.185373 -0.637599 0
M  V30 4525 H 442.505 -0.0553665 -2.04525 0
M  V30 4526 H 442.515 1.76707 -3.67748 0
M  V30 4527 H 441.19 0.695167 -4.10049 0
M  V30 4528 H 439.767 2.17861 -3.0264 0
M  V30 4529 N 441.952 1.55251 0.271103 0
M  V30 4530 C 443.18 1.79974 1.02064 0
M  V30 4531 C 443.595 0.574003 1.79863 0
M  V30 4532 O 442.952 -0.456962 1.76686 0
M  V30 4533 C 443.003 3.02603 1.97772 0
M  V30 4534 O 442.724 4.20443 1.23124 0
M  V30 4535 C 444.225 3.39944 2.84522 0
M  V30 4536 H 441.445 0.599489 0.301419 0
M  V30 4537 H 443.989 2.02268 0.301313 0
M  V30 4538 H 442.144 2.8243 2.65165 0
M  V30 4539 H 442.558 4.89783 1.87651 0
M  V30 4540 H 444.032 4.28915 3.47471 0
M  V30 4541 H 444.509 2.59432 3.54389 0
M  V30 4542 H 445.115 3.62383 2.22618 0
M  V30 4543 N 443.43 -0.535701 1.48216 0
M  V30 4544 C 444.658 -1.31671 1.59594 0
M  V30 4545 C 445.073 -1.87083 0.254056 0
M  V30 4546 O 444.43 -1.66112 -0.755854 0
M  V30 4547 C 444.481 -2.47158 2.63809 0
M  V30 4548 O 444.202 -1.94032 3.92789 0
M  V30 4549 C 445.703 -3.39062 2.85573 0
M  V30 4550 H 442.923 -0.400623 0.538277 0
M  V30 4551 H 445.467 -0.646827 1.94001 0
M  V30 4552 H 443.622 -3.10043 2.32276 0
M  V30 4553 H 444.036 -2.69585 4.49916 0
M  V30 4554 H 445.51 -4.16459 3.62306 0
M  V30 4555 H 445.987 -3.93941 1.94184 0
M  V30 4556 H 446.593 -2.81975 3.18387 0
M  V30 4557 N 444.908 -1.36708 -0.784132 0
M  V30 4558 C 446.156 -1.30972 -1.53918 0
M  V30 4559 C 446.477 0.109086 -1.94695 0
M  V30 4560 O 445.747 1.05048 -1.65353 0
M  V30 4561 H 444.327 -0.481819 -0.570841 0
M  V30 4562 H 446.989 -1.71063 -0.934002 0
M  V30 4563 H 446.085 -1.94061 -2.44431 0
M  V30 4564 N 446.386 1.0089 -1.21074 0
M  V30 4565 C 447.333 2.09588 -0.966512 0
M  V30 4566 C 448.303 1.65761 0.106089 0
M  V30 4567 O 449.488 1.90758 -0.0402287 0
M  V30 4568 C 446.628 3.40958 -0.533058 0
M  V30 4569 C 445.741 3.9822 -1.67467 0
M  V30 4570 C 444.876 5.17682 -1.19076 0
M  V30 4571 C 443.915 5.67043 -2.30496 0
M  V30 4572 N 443.052 6.77759 -1.83267 0
M  V30 4573 H 447.892 2.29815 -1.89708 0
M  V30 4574 H 445.429 1.12689 -0.945489 0
M  V30 4575 H 447.387 4.1637 -0.263019 0
M  V30 4576 H 446.017 3.20781 0.360505 0
M  V30 4577 H 445.069 3.1983 -2.05944 0
M  V30 4578 H 446.381 4.3085 -2.51336 0
M  V30 4579 H 445.535 6.00326 -0.877151 0
M  V30 4580 H 444.274 4.86635 -0.322066 0
M  V30 4581 H 443.279 4.82999 -2.62664 0
M  V30 4582 H 444.504 6.00121 -3.17855 0
M  V30 4583 H 442.45 6.48527 -0.987356 0
M  V30 4584 H 442.367 7.09624 -2.60711 0
M  V30 4585 H 443.635 7.63949 -1.54928 0
M  V30 4586 N 447.864 1.01787 1.20321 0
M  V30 4587 C 448.774 0.598898 2.26827 0
M  V30 4588 C 449.79 -0.36418 1.70146 0
M  V30 4589 O 450.966 -0.224812 2.00141 0
M  V30 4590 C 448.031 -0.0549769 3.46656 0
M  V30 4591 C 447.092 0.954205 4.18561 0
M  V30 4592 C 446.325 0.331439 5.3267 0
M  V30 4593 O 446.548 -0.86851 5.63749 0
M  V30 4594 O 445.482 1.0488 5.92692 0
M  V30 4595 H 449.308 1.48562 2.64883 0
M  V30 4596 H 446.893 0.787434 1.26964 0
M  V30 4597 H 448.775 -0.420102 4.19301 0
M  V30 4598 H 447.45 -0.915876 3.10473 0
M  V30 4599 H 446.357 1.37072 3.48083 0
M  V30 4600 H 447.69 1.78511 4.58688 0
M  V30 4601 N 449.342 -1.36122 0.79427 0
M  V30 4602 C 450.619 -1.93398 0.292685 0
M  V30 4603 C 450.999 -1.72567 -1.21589 0
M  V30 4604 O 450.347 -1.08745 -2.00965 0
M  V30 4605 C 450.557 -3.42099 0.690614 0
M  V30 4606 C 451.905 -4.19231 0.673105 0
M  V30 4607 O 452.929 -3.50559 0.631389 0
M  V30 4608 O 451.788 -5.41732 0.720362 0
M  V30 4609 H 448.882 -0.823712 0.0736693 0
M  V30 4610 H 451.428 -1.45273 0.87714 0
M  V30 4611 H 450.2 -3.50938 1.73085 0
M  V30 4612 H 449.823 -3.97519 0.0803036 0
M  V30 4613 N 450.82 -0.546701 -1.47814 0
M  V30 4614 C 452.048 -0.0232857 -2.06887 0
M  V30 4615 C 452.463 1.26571 -1.4009 0
M  V30 4616 O 451.82 1.7569 -0.493906 0
M  V30 4617 C 451.871 0.186975 -3.61016 0
M  V30 4618 O 451.592 -1.05097 -4.25307 0
M  V30 4619 C 453.093 0.748872 -4.36929 0
M  V30 4620 H 450.313 -0.0410763 -0.669742 0
M  V30 4621 H 452.857 -0.757117 -1.89968 0
M  V30 4622 H 451.012 0.870903 -3.77484 0
M  V30 4623 H 451.426 -0.842121 -5.17695 0
M  V30 4624 H 452.9 0.845334 -5.45489 0
M  V30 4625 H 453.377 1.75772 -4.02493 0
M  V30 4626 H 453.983 0.100979 -4.2518 0
M  V30 4627 N 452.299 1.55045 -0.282633 0
M  V30 4628 C 453.547 1.99365 0.331334 0
M  V30 4629 C 453.868 1.1725 1.55812 0
M  V30 4630 O 453.138 0.263871 1.94115 0
M  V30 4631 H 451.718 0.736397 0.125414 0
M  V30 4632 H 454.38 1.90964 -0.389711 0
M  V30 4633 H 453.476 3.0596 0.616036 0
M  V30 4634 N 453.777 0.010035 1.57597 0
M  V30 4635 C 455.005 -0.683413 1.95287 0
M  V30 4636 C 455.42 -1.66747 0.885481 0
M  V30 4637 O 454.777 -1.82003 -0.134629 0
M  V30 4638 C 454.828 -1.40652 3.33015 0
M  V30 4639 O 454.549 -0.461916 4.35658 0
M  V30 4640 C 456.05 -2.19356 3.85225 0
M  V30 4641 H 453.27 -0.189708 0.643624 0
M  V30 4642 H 455.814 0.0641359 2.04399 0
M  V30 4643 H 453.969 -2.10562 3.2518 0
M  V30 4644 H 454.383 -0.973215 5.15392 0
M  V30 4645 H 455.857 -2.65433 4.83993 0
M  V30 4646 H 456.334 -3.02457 3.18459 0
M  V30 4647 H 456.94 -1.54442 3.96267 0
M  V30 4648 N 455.255 -1.55392 -0.262866 0
M  V30 4649 C 456.502 -1.76476 -0.993109 0
M  V30 4650 C 456.83 -0.571479 -1.85915 0
M  V30 4651 O 456.085 0.445733 -1.90556 0
M  V30 4652 C 456.384 -3.02889 -1.89718 0
M  V30 4653 C 456.05 -4.34974 -1.18781 0
M  V30 4654 C 454.712 -4.7087 -0.991699 0
M  V30 4655 C 457.064 -5.16695 -0.683798 0
M  V30 4656 C 454.392 -5.86036 -0.279024 0
M  V30 4657 C 456.744 -6.32598 0.0153327 0
M  V30 4658 C 455.408 -6.67127 0.223062 0
M  V30 4659 H 454.678 -0.64577 -0.363404 0
M  V30 4660 H 457.325 -1.89664 -0.264525 0
M  V30 4661 H 455.63 -2.84644 -2.6923 0
M  V30 4662 H 457.327 -3.16399 -2.46359 0
M  V30 4663 H 453.917 -4.06765 -1.35058 0
M  V30 4664 H 458.101 -4.8943 -0.8229 0
M  V30 4665 H 453.357 -6.11306 -0.107456 0
M  V30 4666 H 457.531 -6.95171 0.413584 0
M  V30 4667 H 455.158 -7.56216 0.777265 0
M  V30 4668 N 456.733 0.527833 -1.48498 0
M  V30 4669 C 458.01 1.28905 -1.47115 0
M  V30 4670 C 458.39 2.10297 -0.184007 0
M  V30 4671 O 457.738 2.12728 0.834218 0
M  V30 4672 C 457.948 2.16866 -2.73441 0
M  V30 4673 C 459.296 2.76936 -3.21857 0
M  V30 4674 O 460.32 2.27152 -2.74373 0
M  V30 4675 O 459.179 3.67496 -4.04486 0
M  V30 4676 H 456.273 0.581918 -0.587623 0
M  V30 4677 H 458.819 0.544311 -1.60734 0
M  V30 4678 H 457.591 1.56521 -3.58632 0
M  V30 4679 H 457.214 2.98583 -2.62553 0
M  V30 4680 N 458.211 1.37122 0.776871 0
M  V30 4681 C 459.439 1.3523 1.5659 0
M  V30 4682 C 459.854 -0.0635518 1.88693 0
M  V30 4683 O 459.211 -1.02394 1.51069 0
M  V30 4684 C 459.262 2.18583 2.8793 0
M  V30 4685 O 458.983 3.5465 2.57206 0
M  V30 4686 C 460.484 2.24612 3.82183 0
M  V30 4687 H 457.704 0.4634 0.485285 0
M  V30 4688 H 460.248 1.80392 0.963266 0
M  V30 4689 H 458.403 1.76943 3.4463 0
M  V30 4690 H 458.817 3.98286 3.41275 0
M  V30 4691 H 460.291 2.87267 4.71361 0
M  V30 4692 H 460.768 1.25309 4.20944 0
M  V30 4693 H 461.374 2.66543 3.31414 0
M  V30 4694 N 459.689 -1.00246 1.21608 0
M  V30 4695 C 460.935 -1.74319 1.03638 0
M  V30 4696 C 461.268 -1.89408 -0.428749 0
M  V30 4697 O 460.543 -1.43026 -1.3181 0
M  V30 4698 C 460.826 -3.15431 1.73711 0
M  V30 4699 C 460.679 -3.08049 3.27759 0
M  V30 4700 C 461.998 -4.14407 1.48173 0
M  V30 4701 H 459.117 -0.632741 0.377899 0
M  V30 4702 H 461.759 -1.16853 1.49818 0
M  V30 4703 H 459.909 -3.64493 1.34452 0
M  V30 4704 H 461.581 -2.66681 3.76403 0
M  V30 4705 H 459.824 -2.45088 3.57931 0
M  V30 4706 H 460.495 -4.07862 3.71958 0
M  V30 4707 H 462.971 -3.74061 1.82258 0
M  V30 4708 H 461.847 -5.11279 1.99713 0
M  V30 4709 H 462.108 -4.40174 0.412273 0
M  V30 4710 N 461.167 -1.02423 -1.1978 0
M  V30 4711 C 462.097 -0.62157 -2.25075 0
M  V30 4712 C 463.078 0.367148 -1.6609 0
M  V30 4713 O 464.263 0.250892 -1.92573 0
M  V30 4714 C 461.393 0.0331826 -3.47284 0
M  V30 4715 C 460.347 -0.877323 -4.18912 0
M  V30 4716 C 459.673 -0.0879296 -5.34628 0
M  V30 4717 C 460.973 -2.18892 -4.74219 0
M  V30 4718 H 462.667 -1.50179 -2.59011 0
M  V30 4719 H 460.213 -0.723547 -1.24502 0
M  V30 4720 H 462.166 0.326488 -4.20133 0
M  V30 4721 H 460.89 0.948164 -3.12534 0
M  V30 4722 H 459.549 -1.15475 -3.47938 0
M  V30 4723 H 459.197 0.828941 -4.96123 0
M  V30 4724 H 458.897 -0.694359 -5.83483 0
M  V30 4725 H 460.421 0.198743 -6.10276 0
M  V30 4726 H 461.835 -1.95746 -5.38847 0
M  V30 4727 H 460.232 -2.74686 -5.33542 0
M  V30 4728 H 461.302 -2.84674 -3.92541 0
M  V30 4729 N 462.645 1.35699 -0.801477 0
M  V30 4730 C 463.891 1.99643 -0.389135 0
M  V30 4731 C 464.246 1.62447 1.03095 0
M  V30 4732 O 463.539 0.875064 1.7045 0
M  V30 4733 C 463.733 3.53828 -0.504041 0
M  V30 4734 C 463.562 4.06 -1.93375 0
M  V30 4735 C 462.332 4.35592 -2.561 0
M  V30 4736 C 464.53 4.24905 -2.89759 0
M  V30 4737 N 462.512 4.73663 -3.90534 0
M  V30 4738 C 463.883 4.65914 -4.09052 0
M  V30 4739 C 465.938 4.07101 -2.86658 0
M  V30 4740 C 464.641 4.90984 -5.25669 0
M  V30 4741 C 466.667 4.33324 -4.02472 0
M  V30 4742 C 466.029 4.74601 -5.20512 0
M  V30 4743 H 462.128 0.758552 -0.19006 0
M  V30 4744 H 464.712 1.64493 -1.04164 0
M  V30 4745 H 462.883 3.88219 0.118437 0
M  V30 4746 H 464.615 4.04645 -0.0667794 0
M  V30 4747 H 461.37 4.25728 -2.07492 0
M  V30 4748 H 461.794 4.96965 -4.59734 0
M  V30 4749 H 466.436 3.74335 -1.96552 0
M  V30 4750 H 464.154 5.22626 -6.1635 0
M  V30 4751 H 467.74 4.21107 -4.01447 0
M  V30 4752 H 466.62 4.94497 -6.08639 0
M  V30 4753 N 464.123 0.554532 1.47522 0
M  V30 4754 C 465.086 -0.184174 2.28459 0
M  V30 4755 C 466.086 -0.845195 1.36796 0
M  V30 4756 O 467.276 -0.701467 1.59452 0
M  V30 4757 C 464.408 -1.26903 3.16399 0
M  V30 4758 H 465.601 0.526751 2.95238 0
M  V30 4759 H 463.154 0.311375 1.53167 0
M  V30 4760 H 463.889 -2.01244 2.54306 0
M  V30 4761 H 463.674 -0.799883 3.83854 0
M  V30 4762 H 465.164 -1.78794 3.77389 0
M  V30 4763 N 465.601 -1.54893 0.290851 0
M  V30 4764 C 466.85 -1.99111 -0.322113 0
M  V30 4765 C 467.163 -1.18283 -1.55784 0
M  V30 4766 O 468.369 -1.5272 -2.24475 0
M  V30 4767 C 466.825 -3.54442 -0.624438 0
M  V30 4768 C 466.433 -4.44066 0.592373 0
M  V30 4769 C 468.177 -4.07211 -1.19916 0
M  V30 4770 C 466.084 -5.90812 0.263762 0
M  V30 4771 H 465.014 -0.743712 -0.124133 0
M  V30 4772 H 467.665 -1.79132 0.39797 0
M  V30 4773 H 466.047 -3.70281 -1.40384 0
M  V30 4774 H 467.221 -4.39999 1.36886 0
M  V30 4775 H 465.536 -4.02015 1.08502 0
M  V30 4776 H 468.133 -5.14407 -1.45909 0
M  V30 4777 H 468.476 -3.57196 -2.13815 0
M  V30 4778 H 469.009 -3.94873 -0.481687 0
M  V30 4779 H 465.748 -6.44955 1.17105 0
M  V30 4780 H 465.268 -5.97911 -0.475655 0
M  V30 4781 H 466.947 -6.46852 -0.138354 0
M  V30 4782 N 467.08 -0.0183926 -1.57589 0
M  V30 4783 C 468.328 0.661253 -1.90976 0
M  V30 4784 C 468.649 1.73281 -0.894353 0
M  V30 4785 O 467.919 1.9579 0.0656788 0
M  V30 4786 H 466.499 0.247233 -0.704901 0
M  V30 4787 H 469.161 -0.0636639 -1.94796 0
M  V30 4788 H 468.257 1.12083 -2.9128 0
M  V30 4789 N 468.558 1.5553 0.254621 0
M  V30 4790 C 469.974 1.4778 0.602753 0
M  V30 4791 C 470.174 0.707047 1.88688 0
M  V30 4792 O 469.23 0.233288 2.5142 0
M  V30 4793 C 470.543 2.92133 0.712648 0
M  V30 4794 C 472.091 3.02458 0.805488 0
M  V30 4795 C 472.566 4.48102 0.947009 0
M  V30 4796 N 474.057 4.52008 1.01207 0
M  V30 4797 C 474.792 5.61939 1.1407 0
M  V30 4798 N 474.288 6.81697 1.23536 0
M  V30 4799 N 476.081 5.49719 1.17325 0
M  V30 4800 H 468.232 2.04085 -0.588463 0
M  V30 4801 H 470.495 0.926229 -0.202001 0
M  V30 4802 H 470.201 3.51332 -0.160766 0
M  V30 4803 H 470.075 3.42187 1.58707 0
M  V30 4804 H 472.462 2.43344 1.66936 0
M  V30 4805 H 472.543 2.55627 -0.0939266 0
M  V30 4806 H 472.187 5.07824 0.087725 0
M  V30 4807 H 472.117 4.92607 1.86135 0
M  V30 4808 H 474.608 3.65749 0.950577 0
M  V30 4809 H 474.921 7.61228 1.33236 0
M  V30 4810 H 473.266 6.84473 1.20508 0
M  V30 4811 H 476.457 4.55095 1.09573 0
M  V30 4812 H 476.63 6.35432 1.27005 0
M  V30 4813 N 470.036 -0.519951 1.48776 0
M  V30 4814 C 471.282 -1.27711 1.57536 0
M  V30 4815 C 471.615 -1.92547 0.252866 0
M  V30 4816 O 470.89 -1.7979 -0.742021 0
M  V30 4817 C 471.173 -2.35875 2.72094 0
M  V30 4818 C 471.026 -1.75664 4.1408 0
M  V30 4819 C 472.345 -3.37575 2.82367 0
M  V30 4820 H 469.464 -0.462971 0.573434 0
M  V30 4821 H 472.106 -0.578194 1.80989 0
M  V30 4822 H 470.256 -2.95488 2.52228 0
M  V30 4823 H 471.928 -1.20025 4.45412 0
M  V30 4824 H 470.171 -1.06154 4.20611 0
M  V30 4825 H 470.842 -2.54029 4.90075 0
M  V30 4826 H 473.318 -2.87929 3.00393 0
M  V30 4827 H 472.194 -4.1064 3.64233 0
M  V30 4828 H 472.455 -3.98743 1.90936 0
M  V30 4829 N 471.514 -1.37532 -0.769588 0
M  V30 4830 C 472.925 -1.29382 -1.346 0
M  V30 4831 C 473.276 0.0576039 -1.96115 0
M  V30 4832 O 472.401 0.95947 -1.93967 0
M  V30 4833 C 472.996 -2.34298 -2.44724 0
M  V30 4834 C 471.555 -2.29776 -2.98128 0
M  V30 4835 C 470.702 -2.18013 -1.71364 0
M  V30 4836 H 473.653 -1.48123 -0.56968 0
M  V30 4837 H 473.674 -1.99089 -3.24259 0
M  V30 4838 H 473.186 -3.32645 -1.99922 0
M  V30 4839 H 471.287 -1.34959 -3.47299 0
M  V30 4840 H 471.4 -3.23276 -3.53595 0
M  V30 4841 H 469.764 -1.64595 -1.94372 0
M  V30 4842 H 470.547 -3.18278 -1.28662 0
M  V30 4843 N 472.992 0.995999 -1.22138 0
M  V30 4844 C 474.269 1.70834 -0.952642 0
M  V30 4845 C 474.649 2.04257 0.533119 0
M  V30 4846 O 473.997 1.72343 1.50034 0
M  V30 4847 C 474.207 2.96119 -1.84701 0
M  V30 4848 C 475.555 3.68962 -2.10124 0
M  V30 4849 O 476.579 3.0612 -1.82124 0
M  V30 4850 O 475.438 4.82017 -2.57531 0
M  V30 4851 H 472.532 0.745498 -0.357997 0
M  V30 4852 H 475.078 1.05262 -1.33109 0
M  V30 4853 H 473.85 2.67898 -2.85213 0
M  V30 4854 H 473.473 3.6943 -1.46995 0
M  V30 4855 N 474.47 1.03057 1.19235 0
M  V30 4856 C 475.698 0.747697 1.92917 0
M  V30 4857 C 476.113 -0.69372 1.75593 0
M  V30 4858 O 475.47 -1.47191 1.07894 0
M  V30 4859 C 475.521 1.09159 3.44625 0
M  V30 4860 O 475.242 2.47641 3.61394 0
M  V30 4861 C 476.743 0.831763 4.35427 0
M  V30 4862 H 473.963 0.273453 0.612751 0
M  V30 4863 H 476.507 1.37552 1.51327 0
M  V30 4864 H 474.662 0.508919 3.84043 0
M  V30 4865 H 475.076 2.60499 4.55237 0
M  V30 4866 H 476.55 1.12233 5.4047 0
M  V30 4867 H 477.027 -0.233769 4.38577 0
M  V30 4868 H 477.633 1.39725 4.01693 0
M  V30 4869 N 475.948 -1.35272 0.808662 0
M  V30 4870 C 477.364 -1.51806 0.492653 0
M  V30 4871 C 477.564 -1.7574 -0.985778 0
M  V30 4872 O 476.62 -1.80003 -1.77074 0
M  V30 4873 C 477.933 -2.69202 1.33981 0
M  V30 4874 C 479.481 -2.8308 1.33547 0
M  V30 4875 C 479.956 -4.03502 2.16679 0
M  V30 4876 N 481.447 -4.10684 2.14227 0
M  V30 4877 C 482.182 -5.02984 2.75308 0
M  V30 4878 N 481.678 -6.00603 3.45323 0
M  V30 4879 N 483.471 -4.95746 2.64938 0
M  V30 4880 H 475.622 -1.17993 1.76611 0
M  V30 4881 H 477.885 -0.577476 0.751814 0
M  V30 4882 H 477.591 -2.581 2.38909 0
M  V30 4883 H 477.465 -3.63854 0.994491 0
M  V30 4884 H 479.852 -2.93631 0.294036 0
M  V30 4885 H 479.933 -1.89278 1.72068 0
M  V30 4886 H 479.577 -3.93711 3.20864 0
M  V30 4887 H 479.507 -4.96489 1.75517 0
M  V30 4888 H 481.998 -3.40802 1.63285 0
M  V30 4889 H 482.311 -6.67633 3.89212 0
M  V30 4890 H 480.656 -6.0077 3.49428 0
M  V30 4891 H 483.847 -4.18439 2.09825 0
M  V30 4892 H 484.02 -5.67487 3.12829 0
M  V30 4893 N 477.426 -0.562348 -1.47226 0
M  V30 4894 C 478.651 -0.0432632 -2.07355 0
M  V30 4895 C 479.076 1.24332 -1.41149 0
M  V30 4896 O 478.434 1.74603 -0.488226 0
M  V30 4897 C 478.482 0.130288 -3.60365 0
M  V30 4898 O 477.586 1.19166 -3.94808 0
M  V30 4899 H 476.927 -0.0536334 -0.66183 0
M  V30 4900 H 479.457 -0.779495 -1.89169 0
M  V30 4901 H 479.467 0.342881 -4.06557 0
M  V30 4902 H 478.142 -0.809389 -4.07948 0
M  V30 4903 H 476.719 0.959153 -3.60354 0
M  V30 4904 N 478.904 1.54736 -0.299062 0
M  V30 4905 C 479.834 2.26409 0.571085 0
M  V30 4906 C 480.815 1.2629 1.13951 0
M  V30 4907 O 482 1.55059 1.16921 0
M  V30 4908 C 479.13 3.00338 1.74396 0
M  V30 4909 C 478.084 4.07588 1.30599 0
M  V30 4910 C 477.41 4.69222 2.56387 0
M  V30 4911 C 478.71 5.20455 0.438645 0
M  V30 4912 H 480.404 2.99388 -0.0266991 0
M  V30 4913 H 477.95 1.43993 -0.0142812 0
M  V30 4914 H 479.903 3.49198 2.35878 0
M  V30 4915 H 478.627 2.24934 2.36796 0
M  V30 4916 H 477.286 3.59575 0.71424 0
M  V30 4917 H 476.934 3.9046 3.17097 0
M  V30 4918 H 476.634 5.41653 2.27784 0
M  V30 4919 H 478.158 5.20844 3.18675 0
M  V30 4920 H 479.572 5.65221 0.959085 0
M  V30 4921 H 477.969 5.99594 0.246466 0
M  V30 4922 H 479.039 4.8192 -0.536738 0
M  V30 4923 N 480.382 0.0267497 1.57577 0
M  V30 4924 C 481.33 -0.973923 2.11229 0
M  V30 4925 C 482.324 -1.33849 1.03831 0
M  V30 4926 O 483.53 -1.321 1.22269 0
M  V30 4927 H 479.905 -0.331844 0.674821 0
M  V30 4928 H 481.876 -0.496092 2.94247 0
M  V30 4929 C 480.625 -2.24798 2.65257 0
M  V30 4930 H 479.948 -1.9762 3.47543 0
M  V30 4931 H 481.388 -2.93031 3.06445 0
M  V30 4932 C 479.847 -2.97611 1.57891 0
M  V30 4933 O 480.377 -3.89629 0.97735 0
M  V30 4934 N 478.583 -2.59905 1.29992 0
M  V30 4935 H 478.13 -1.85154 1.79097 0
M  V30 4936 H 478.088 -3.08932 0.583798 0
M  V30 4937 N 481.861 -1.55662 -0.24637 0
M  V30 4938 C 482.791 -1.93377 -1.30873 0
M  V30 4939 C 483.772 -0.798773 -1.50179 0
M  V30 4940 O 484.957 -1.0591 -1.62778 0
M  V30 4941 C 482.087 -2.22893 -2.66338 0
M  V30 4942 C 481.041 -3.38649 -2.61727 0
M  V30 4943 C 480.367 -3.53708 -4.00992 0
M  V30 4944 C 481.667 -4.74323 -2.18666 0
M  V30 4945 H 483.361 -2.82363 -0.995552 0
M  V30 4946 H 480.907 -1.35854 -0.477464 0
M  V30 4947 H 482.86 -2.47866 -3.40794 0
M  V30 4948 H 481.584 -1.30733 -2.99293 0
M  V30 4949 H 480.243 -3.13685 -1.89729 0
M  V30 4950 H 479.891 -2.58967 -4.31214 0
M  V30 4951 H 479.591 -4.31551 -3.98795 0
M  V30 4952 H 481.115 -3.81003 -4.77147 0
M  V30 4953 H 482.529 -4.98665 -2.82854 0
M  V30 4954 H 480.926 -5.55273 -2.27579 0
M  V30 4955 H 481.996 -4.71349 -1.13834 0
M  V30 4956 N 483.339 0.512053 -1.4905 0
M  V30 4957 C 484.249 1.64139 -1.67617 0
M  V30 4958 C 485.265 1.64786 -0.558701 0
M  V30 4959 O 486.441 1.8341 -0.832034 0
M  V30 4960 C 483.506 3.00548 -1.72835 0
M  V30 4961 C 482.567 3.10615 -2.96339 0
M  V30 4962 C 481.8 4.40517 -3.01298 0
M  V30 4963 O 482.023 5.28671 -2.14157 0
M  V30 4964 O 480.957 4.55325 -3.93653 0
M  V30 4965 H 484.783 1.51407 -2.63267 0
M  V30 4966 H 482.368 0.687131 -1.32661 0
M  V30 4967 H 484.25 3.81641 -1.78683 0
M  V30 4968 H 482.925 3.13566 -0.803616 0
M  V30 4969 H 481.832 2.2875 -2.96014 0
M  V30 4970 H 483.165 3.0252 -3.88256 0
M  V30 4971 N 484.817 1.37938 0.762283 0
M  V30 4972 C 485.764 1.34467 1.87583 0
M  V30 4973 C 486.734 0.208633 1.64785 0
M  V30 4974 O 487.919 0.399494 1.86571 0
M  V30 4975 C 485.059 1.16692 3.24772 0
M  V30 4976 C 484.172 2.39608 3.59461 0
M  V30 4977 C 483.307 2.14631 4.85908 0
M  V30 4978 C 482.346 3.33364 5.13357 0
M  V30 4979 N 481.483 3.07877 6.30996 0
M  V30 4980 H 486.323 2.29669 1.89885 0
M  V30 4981 H 483.86 1.14116 0.928219 0
M  V30 4982 H 485.818 1.04405 4.03925 0
M  V30 4983 H 484.448 0.251333 3.2182 0
M  V30 4984 H 483.5 2.626 2.75219 0
M  V30 4985 H 484.812 3.28128 3.75678 0
M  V30 4986 H 483.966 1.99429 5.72986 0
M  V30 4987 H 482.705 1.23463 4.71814 0
M  V30 4988 H 481.71 3.49094 4.24751 0
M  V30 4989 H 482.935 4.25395 5.29354 0
M  V30 4990 H 480.881 2.19348 6.18241 0
M  V30 4991 H 480.798 3.89944 6.47673 0
M  V30 4992 H 482.066 2.96313 7.20985 0
M  V30 4993 N 486.295 -0.989507 1.22664 0
M  V30 4994 C 487.258 -2.06183 1.00106 0
M  V30 4995 C 488.258 -1.60765 -0.0337726 0
M  V30 4996 O 489.448 -1.72989 0.205072 0
M  V30 4997 C 486.58 -3.37021 0.51279 0
M  V30 4998 H 487.773 -2.27629 1.95256 0
M  V30 4999 H 485.326 -1.16158 1.0458 0
M  V30 5000 H 486.061 -3.21261 -0.442917 0
M  V30 5001 H 485.846 -3.71323 1.25942 0
M  V30 5002 H 487.336 -4.1591 0.375315 0
M  V30 5003 N 487.773 -1.03688 -1.18687 0
M  V30 5004 C 489.021 -0.736572 -1.88199 0
M  V30 5005 C 489.342 0.737665 -1.80509 0
M  V30 5006 O 488.612 1.53204 -1.22088 0
M  V30 5007 H 487.192 -0.269466 -0.696704 0
M  V30 5008 H 489.854 -1.31282 -1.44052 0
M  V30 5009 H 488.95 -1.03802 -2.94332 0
M  V30 5010 N 489.251 1.34841 -0.815825 0
M  V30 5011 C 490.497 1.98793 -0.401129 0
M  V30 5012 C 490.83 1.64548 1.03139 0
M  V30 5013 O 490.105 0.913487 1.71714 0
M  V30 5014 C 490.388 3.55143 -0.595409 0
M  V30 5015 C 490.241 3.99155 -2.07352 0
M  V30 5016 C 491.56 4.40092 -0.0268823 0
M  V30 5017 H 488.679 0.722146 -0.14722 0
M  V30 5018 H 491.321 1.59847 -1.02707 0
M  V30 5019 H 489.471 3.8845 -0.0625779 0
M  V30 5020 H 491.143 3.76216 -2.66945 0
M  V30 5021 H 489.386 3.49726 -2.56659 0
M  V30 5022 H 490.057 5.07971 -2.1603 0
M  V30 5023 H 492.533 4.13298 -0.482042 0
M  V30 5024 H 491.409 5.48562 -0.19267 0
M  V30 5025 H 491.67 4.29016 1.06759 0
M  V30 5026 N 490.729 0.570148 1.46925 0
M  V30 5027 C 492.006 -0.0153259 1.95594 0
M  V30 5028 C 492.386 -1.47232 1.51281 0
M  V30 5029 O 491.734 -2.15574 0.757624 0
M  V30 5030 C 491.944 0.143624 3.48704 0
M  V30 5031 C 493.292 0.00494484 4.246 0
M  V30 5032 O 494.316 0.0718214 3.56128 0
M  V30 5033 O 493.175 -0.141175 5.46318 0
M  V30 5034 H 490.269 -0.0568819 0.825041 0
M  V30 5035 H 492.815 0.637583 1.57267 0
M  V30 5036 H 491.587 1.15699 3.73804 0
M  V30 5037 H 491.21 -0.5463 3.93829 0
M  V30 5038 N 492.207 -1.54576 0.307264 0
M  V30 5039 C 493.435 -2.04675 -0.302597 0
M  V30 5040 C 493.85 -1.18425 -1.47041 0
M  V30 5041 O 493.207 -0.211257 -1.81273 0
M  V30 5042 C 493.258 -3.53575 -0.752801 0
M  V30 5043 O 492.979 -4.36547 0.368536 0
M  V30 5044 C 494.48 -4.19699 -1.42717 0
M  V30 5045 H 491.7 -0.66786 -0.0648374 0
M  V30 5046 H 494.244 -1.99516 0.448716 0
M  V30 5047 H 492.399 -3.59074 -1.45412 0
M  V30 5048 H 492.813 -5.24497 0.0168937 0
M  V30 5049 H 494.287 -5.25388 -1.69327 0
M  V30 5050 H 494.764 -3.69815 -2.36925 0
M  V30 5051 H 495.37 -4.18293 -0.768856 0
M  V30 5052 N 493.685 -0.035106 -1.57561 0
M  V30 5053 C 494.91 0.655802 -1.96759 0
M  V30 5054 C 495.335 1.64523 -0.911809 0
M  V30 5055 O 494.693 1.80857 0.126673 0
M  V30 5056 C 494.741 1.33326 -3.35047 0
M  V30 5057 O 493.845 2.44866 -3.31835 0
M  V30 5058 H 493.186 0.171807 -0.641388 0
M  V30 5059 H 495.716 -0.0987369 -2.04362 0
M  V30 5060 H 495.726 1.68867 -3.71413 0
M  V30 5061 H 494.401 0.608033 -4.11431 0
M  V30 5062 H 492.978 2.11392 -3.07193 0
M  V30 5063 N 495.163 1.55791 0.238111 0
M  V30 5064 C 496.574 1.68383 0.806472 0
M  V30 5065 C 496.925 0.634157 1.85669 0
M  V30 5066 O 496.05 -0.217913 2.153 0
M  V30 5067 C 496.645 3.05268 1.46959 0
M  V30 5068 C 495.204 3.1977 1.98555 0
M  V30 5069 C 494.351 2.64279 0.839763 0
M  V30 5070 H 497.302 1.58694 0.0137535 0
M  V30 5071 H 497.323 3.00203 2.33792 0
M  V30 5072 H 496.835 3.81643 0.704993 0
M  V30 5073 H 494.936 2.48234 2.77868 0
M  V30 5074 H 495.049 4.26788 2.17689 0
M  V30 5075 H 493.413 2.22329 1.24265 0
M  V30 5076 H 494.196 3.43187 0.0881032 0
M  V30 5077 N 496.642 -0.504142 1.49319 0
M  V30 5078 C 497.919 -1.26548 1.49147 0
M  V30 5079 C 498.299 -2.09977 0.21744 0
M  V30 5080 O 497.647 -2.14028 -0.800269 0
M  V30 5081 C 497.857 -2.12489 2.76857 0
M  V30 5082 C 499.205 -2.7178 3.26222 0
M  V30 5083 O 500.229 -2.22758 2.77952 0
M  V30 5084 O 499.088 -3.61015 4.10281 0
M  V30 5085 H 496.182 -0.572495 0.596806 0
M  V30 5086 H 498.728 -0.51867 1.61579 0
M  V30 5087 H 497.5 -1.50796 3.61077 0
M  V30 5088 H 497.123 -2.94368 2.6727 0
M  V30 5089 N 498.12 -1.38341 -0.754957 0
M  V30 5090 C 499.348 -1.37704 -1.54419 0
M  V30 5091 C 499.763 0.0335243 -1.8877 0
M  V30 5092 O 499.12 0.999773 -1.52679 0
M  V30 5093 C 499.171 -2.23136 -2.84416 0
M  V30 5094 O 498.892 -3.58697 -2.51531 0
M  V30 5095 C 500.393 -2.30664 -3.78562 0
M  V30 5096 H 497.613 -0.471061 -0.477852 0
M  V30 5097 H 500.157 -1.81902 -0.934446 0
M  V30 5098 H 498.312 -1.82403 -3.41772 0
M  V30 5099 H 498.726 -4.03665 -3.34896 0
M  V30 5100 H 500.2 -2.9473 -4.66732 0
M  V30 5101 H 500.677 -1.3199 -4.18898 0
M  V30 5102 H 501.283 -2.71781 -3.27131 0
M  V30 5103 N 499.598 0.982988 -1.23187 0
M  V30 5104 C 500.53 2.07729 -0.968572 0
M  V30 5105 C 501.543 1.62702 0.0564821 0
M  V30 5106 O 502.732 1.77603 -0.178733 0
M  V30 5107 C 499.832 3.36071 -0.436974 0
M  V30 5108 C 499.005 4.10081 -1.52159 0
M  V30 5109 C 498.064 5.16701 -0.99532 0
M  V30 5110 O 497.09 5.43727 -1.68373 0
M  V30 5111 N 498.292 5.80226 0.178192 0
M  V30 5112 H 501.057 2.30894 -1.9107 0
M  V30 5113 H 498.618 1.14949 -1.1401 0
M  V30 5114 H 500.61 4.04639 -0.0700051 0
M  V30 5115 H 499.18 3.09893 0.410509 0
M  V30 5116 H 498.4 3.36004 -2.06144 0
M  V30 5117 H 499.688 4.56295 -2.25105 0
M  V30 5118 H 499.086 5.60651 0.754096 0
M  V30 5119 H 497.643 6.49982 0.486449 0
M  V30 5120 N 501.076 1.04316 1.18135 0
M  V30 5121 C 502.023 0.636398 2.21853 0
M  V30 5122 C 502.993 -0.357039 1.62217 0
M  V30 5123 O 504.178 -0.250453 1.89149 0
M  V30 5124 C 501.318 0.00812779 3.45099 0
M  V30 5125 C 500.431 1.04933 4.19062 0
M  V30 5126 C 499.566 0.389313 5.29771 0
M  V30 5127 C 498.605 1.41544 5.9551 0
M  V30 5128 N 497.742 0.78021 6.97751 0
M  V30 5129 H 502.582 1.52536 2.56002 0
M  V30 5130 H 500.119 0.76304 1.25762 0
M  V30 5131 H 502.077 -0.373497 4.15525 0
M  V30 5132 H 500.707 -0.844336 3.11562 0
M  V30 5133 H 499.759 1.54888 3.47439 0
M  V30 5134 H 501.071 1.82862 4.64072 0
M  V30 5135 H 500.225 -0.0463805 6.06682 0
M  V30 5136 H 498.964 -0.422038 4.8587 0
M  V30 5137 H 497.969 1.86124 5.17337 0
M  V30 5138 H 499.194 2.22854 6.41493 0
M  V30 5139 H 497.14 -0.0107899 6.55999 0
M  V30 5140 H 497.057 1.49716 7.41027 0
M  V30 5141 H 498.325 0.368996 7.78626 0
M  V30 5142 N 502.554 -1.34406 0.822964 0
M  V30 5143 C 503.803 -1.97542 0.407458 0
M  V30 5144 C 504.116 -1.65973 -1.035 0
M  V30 5145 O 505.322 -2.22598 -1.55442 0
M  V30 5146 C 503.778 -3.53463 0.677623 0
M  V30 5147 C 503.386 -3.93925 2.1337 0
M  V30 5148 C 505.13 -4.23229 0.328284 0
M  V30 5149 C 503.037 -5.42759 2.34876 0
M  V30 5150 H 501.967 -0.739207 0.148623 0
M  V30 5151 H 504.618 -1.53248 1.00932 0
M  V30 5152 H 503 -3.96 0.00558965 0
M  V30 5153 H 504.174 -3.62494 2.8449 0
M  V30 5154 H 502.489 -3.37097 2.44448 0
M  V30 5155 H 505.086 -5.32659 0.466794 0
M  V30 5156 H 505.429 -4.09899 -0.727224 0
M  V30 5157 H 505.962 -3.86169 0.954896 0
M  V30 5158 H 502.701 -5.61075 3.38932 0
M  V30 5159 H 502.221 -5.75704 1.68299 0
M  V30 5160 H 503.9 -6.0944 2.17236 0
M  V30 5161 N 504.032 -0.577932 -1.46621 0
M  V30 5162 C 504.962 0.145917 -2.33044 0
M  V30 5163 C 505.943 0.888412 -1.45056 0
M  V30 5164 O 507.128 0.864812 -1.73881 0
M  V30 5165 C 504.258 1.16322 -3.27241 0
M  V30 5166 C 503.212 0.535868 -4.24632 0
M  V30 5167 C 502.538 1.65929 -5.08303 0
M  V30 5168 C 503.838 -0.523861 -5.19666 0
M  V30 5169 H 505.532 -0.575636 -2.93814 0
M  V30 5170 H 503.078 -0.278272 -1.41286 0
M  V30 5171 H 505.031 1.67793 -3.86553 0
M  V30 5172 H 503.755 1.91498 -2.64567 0
M  V30 5173 H 502.414 0.0422759 -3.66576 0
M  V30 5174 H 502.062 2.40061 -4.42018 0
M  V30 5175 H 501.762 1.2452 -5.74255 0
M  V30 5176 H 503.286 2.17686 -5.70478 0
M  V30 5177 H 504.7 -0.0944059 -5.73222 0
M  V30 5178 H 503.097 -0.858 -5.93935 0
M  V30 5179 H 504.167 -1.41197 -4.63887 0
M  V30 5180 N 505.51 1.54411 -0.315457 0
M  V30 5181 C 506.756 2.00716 0.289972 0
M  V30 5182 C 507.089 1.2034 1.5242 0
M  V30 5183 O 506.364 0.283579 1.92422 0
M  V30 5184 C 506.647 3.54507 0.632196 0
M  V30 5185 C 506.5 4.45615 -0.61218 0
M  V30 5186 C 507.819 4.15421 1.45305 0
M  V30 5187 H 504.938 0.729637 0.10392 0
M  V30 5188 H 507.58 1.8506 -0.430427 0
M  V30 5189 H 505.73 3.67979 1.24595 0
M  V30 5190 H 507.402 4.44026 -1.25053 0
M  V30 5191 H 505.645 4.15621 -1.24264 0
M  V30 5192 H 506.316 5.51022 -0.328379 0
M  V30 5193 H 508.792 4.05474 0.934331 0
M  V30 5194 H 507.668 5.23157 1.66127 0
M  V30 5195 H 507.929 3.68223 2.44671 0
M  V30 5196 N 506.988 0.0434614 1.5754 0
M  V30 5197 C 508.265 -0.671479 1.83713 0
M  V30 5198 C 508.645 -1.89495 0.930315 0
M  V30 5199 O 507.993 -2.28498 -0.0105639 0
M  V30 5200 C 508.203 -1.0361 3.33266 0
M  V30 5201 C 509.551 -1.42167 4.00092 0
M  V30 5202 O 510.575 -1.12866 3.37846 0
M  V30 5203 O 509.434 -1.96817 5.09829 0
M  V30 5204 H 506.528 -0.330726 0.75799 0
M  V30 5205 H 509.074 0.0722373 1.69546 0
M  V30 5206 H 507.846 -0.165938 3.90948 0
M  V30 5207 H 507.469 -1.83751 3.52592 0
M  V30 5208 N 508.466 -1.55915 -0.229846 0
M  V30 5209 C 509.691 -1.8296 -0.976743 0
M  V30 5210 C 510.116 -0.622735 -1.77493 0
M  V30 5211 O 509.474 0.428431 -1.76165 0
M  V30 5212 C 509.522 -3.07916 -1.8767 0
M  V30 5213 O 508.626 -2.86028 -2.97088 0
M  V30 5214 H 507.967 -0.603453 -0.277021 0
M  V30 5215 H 510.497 -2.0312 -0.245669 0
M  V30 5216 H 510.507 -3.37802 -2.2881 0
M  V30 5217 H 509.182 -3.95389 -1.28996 0
M  V30 5218 H 507.759 -2.67355 -2.59954 0
M  V30 5219 N 509.944 0.496216 -1.49584 0
M  V30 5220 C 511.36 0.827814 -1.36453 0
M  V30 5221 C 511.56 1.97464 -0.401285 0
M  V30 5222 O 510.616 2.51958 0.165296 0
M  V30 5223 C 511.929 1.16352 -2.77277 0
M  V30 5224 C 513.477 1.27145 -2.86013 0
M  V30 5225 C 513.952 1.64042 -4.27615 0
M  V30 5226 N 515.443 1.71082 -4.30448 0
M  V30 5227 C 516.178 2.01085 -5.36984 0
M  V30 5228 N 515.674 2.2928 -6.5376 0
M  V30 5229 N 517.467 2.02376 -5.24405 0
M  V30 5230 H 509.618 -0.259947 -2.10803 0
M  V30 5231 H 511.881 -0.0537163 -0.946477 0
M  V30 5232 H 511.587 0.394153 -3.49484 0
M  V30 5233 H 511.461 2.10582 -3.12946 0
M  V30 5234 H 513.848 2.03152 -2.1404 0
M  V30 5235 H 513.929 0.309542 -2.5392 0
M  V30 5236 H 513.573 0.88583 -5.00115 0
M  V30 5237 H 513.503 2.6134 -4.57175 0
M  V30 5238 H 515.994 1.51434 -3.46232 0
M  V30 5239 H 516.307 2.51376 -7.30774 0
M  V30 5240 H 514.652 2.26726 -6.56978 0
M  V30 5241 H 517.843 1.79829 -4.32179 0
M  V30 5242 H 518.016 2.25425 -6.07526 0
M  V30 5243 N 511.423 1.38739 0.74761 0
M  V30 5244 C 512.333 1.38696 1.89211 0
M  V30 5245 C 513.349 0.283303 1.71678 0
M  V30 5246 O 514.525 0.522713 1.94498 0
M  V30 5247 C 511.59 1.21662 3.24653 0
M  V30 5248 C 510.651 2.41886 3.54669 0
M  V30 5249 C 509.884 2.25655 4.83648 0
M  V30 5250 O 510.107 1.25339 5.56459 0
M  V30 5251 O 509.041 3.14372 5.13277 0
M  V30 5252 H 512.867 2.35143 1.92202 0
M  V30 5253 H 510.452 1.19721 0.893708 0
M  V30 5254 H 512.334 1.14246 4.05618 0
M  V30 5255 H 511.009 0.283024 3.2246 0
M  V30 5256 H 509.916 2.54877 2.73841 0
M  V30 5257 H 511.249 3.33895 3.61628 0
M  V30 5258 N 512.901 -0.976442 1.23707 0
M  V30 5259 C 513.864 -2.0511 1.02287 0
M  V30 5260 C 514.864 -1.60791 -0.0167195 0
M  V30 5261 O 516.054 -1.72761 0.223408 0
M  V30 5262 C 513.186 -3.36458 0.548507 0
M  V30 5263 H 514.379 -2.25545 1.9766 0
M  V30 5264 H 511.932 -1.15042 1.05806 0
M  V30 5265 H 512.667 -3.21713 -0.408818 0
M  V30 5266 H 512.452 -3.69967 1.29874 0
M  V30 5267 H 513.942 -4.15489 0.419406 0
M  V30 5268 N 514.379 -1.04941 -1.1758 0
M  V30 5269 C 515.607 -0.778294 -1.91703 0
M  V30 5270 C 516.022 0.665697 -1.76675 0
M  V30 5271 O 515.379 1.45456 -1.10222 0
M  V30 5272 C 515.43 -1.14628 -3.42845 0
M  V30 5273 O 515.151 -2.53359 -3.57409 0
M  V30 5274 C 516.652 -0.900931 -4.34049 0
M  V30 5275 H 513.872 -0.283167 -0.608323 0
M  V30 5276 H 516.416 -1.39942 -1.49119 0
M  V30 5277 H 514.571 -0.569953 -3.83184 0
M  V30 5278 H 514.985 -2.67709 -4.51035 0
M  V30 5279 H 516.459 -1.20817 -5.38616 0
M  V30 5280 H 516.936 0.163966 -4.38894 0
M  V30 5281 H 517.542 -1.46097 -3.99419 0
M  V30 5282 N 515.857 1.33968 -0.830081 0
M  V30 5283 C 517.082 2.02813 -0.433796 0
M  V30 5284 C 517.507 1.62076 0.954614 0
M  V30 5285 O 516.865 0.808955 1.62252 0
M  V30 5286 C 516.913 3.56348 -0.552115 0
M  V30 5287 O 516.017 4.10202 0.425191 0
M  V30 5288 H 515.358 0.639817 -0.177567 0
M  V30 5289 H 517.888 1.7106 -1.12248 0
M  V30 5290 H 517.898 4.05722 -0.430513 0
M  V30 5291 H 516.573 3.85344 -1.56471 0
M  V30 5292 H 515.15 3.71979 0.261878 0
M  V30 5293 N 517.335 0.585699 1.46312 0
M  V30 5294 C 518.581 0.0725284 2.0267 0
M  V30 5295 C 518.914 -1.28523 1.45586 0
M  V30 5296 O 518.189 -1.84283 0.622101 0
M  V30 5297 C 518.472 0.0099788 3.60099 0
M  V30 5298 C 518.325 1.39685 4.27561 0
M  V30 5299 C 519.644 -0.689117 4.34671 0
M  V30 5300 H 516.763 0.0278307 0.736474 0
M  V30 5301 H 519.405 0.753472 1.74421 0
M  V30 5302 H 517.555 -0.56992 3.84297 0
M  V30 5303 H 519.227 2.02215 4.14617 0
M  V30 5304 H 517.47 1.96374 3.86807 0
M  V30 5305 H 518.141 1.30553 5.36339 0
M  V30 5306 H 520.617 -0.196446 4.15636 0
M  V30 5307 H 519.493 -0.701921 5.44393 0
M  V30 5308 H 519.754 -1.75101 4.05946 0
M  V30 5309 N 518.813 -1.54241 0.323641 0
M  V30 5310 C 520.224 -1.85975 -0.164405 0
M  V30 5311 C 520.575 -1.24529 -1.51615 0
M  V30 5312 O 519.7 -0.551351 -2.09258 0
M  V30 5313 C 520.295 -3.37424 -0.305091 0
M  V30 5314 C 518.854 -3.69107 -0.737358 0
M  V30 5315 C 518.001 -2.76942 0.140884 0
M  V30 5316 H 520.952 -1.49088 0.543922 0
M  V30 5317 H 520.973 -3.63147 -1.13598 0
M  V30 5318 H 520.485 -3.82116 0.678876 0
M  V30 5319 H 518.586 -3.29947 -1.73107 0
M  V30 5320 H 518.699 -4.76035 -0.541053 0
M  V30 5321 H 517.063 -2.51795 -0.383572 0
M  V30 5322 H 517.846 -3.24461 1.12162 0
M  V30 5323 N 520.291 -0.0518155 -1.57515 0
M  V30 5324 C 521.241 0.932017 -2.0808 0
M  V30 5325 C 522.225 1.27141 -0.986098 0
M  V30 5326 O 523.417 1.25373 -1.24943 0
M  V30 5327 C 520.546 2.20665 -2.62986 0
M  V30 5328 C 519.632 1.89462 -3.79427 0
M  V30 5329 N 520.023 1.28621 -4.89173 0
M  V30 5330 C 518.321 2.19327 -3.88345 0
M  V30 5331 C 519.022 1.15062 -5.70207 0
M  V30 5332 N 517.998 1.65372 -5.17835 0
M  V30 5333 H 521.8 0.456964 -2.90326 0
M  V30 5334 H 519.314 0.152619 -1.61681 0
M  V30 5335 H 521.311 2.92044 -2.97516 0
M  V30 5336 H 519.971 2.68776 -1.8218 0
M  V30 5337 H 520.982 0.958341 -5.08956 0
M  V30 5338 H 517.659 2.69955 -3.18482 0
M  V30 5339 H 519.049 0.678243 -6.68468 0
M  V30 5340 N 521.769 1.56035 0.221574 0
M  V30 5341 C 523.018 1.78245 0.944016 0
M  V30 5342 C 523.331 0.620371 1.85501 0
M  V30 5343 O 524.537 0.726103 2.6161 0
M  V30 5344 C 522.993 3.15659 1.7288 0
M  V30 5345 C 522.601 4.39591 0.863942 0
M  V30 5346 C 524.345 3.47195 2.44246 0
M  V30 5347 C 522.252 5.6803 1.64607 0
M  V30 5348 H 521.182 0.664547 0.356222 0
M  V30 5349 H 523.833 1.8243 0.197904 0
M  V30 5350 H 522.215 3.0565 2.51781 0
M  V30 5351 H 523.389 4.60655 0.115464 0
M  V30 5352 H 521.704 4.15572 0.262407 0
M  V30 5353 H 524.301 4.40381 3.03263 0
M  V30 5354 H 524.644 2.69693 3.1713 0
M  V30 5355 H 525.177 3.58533 1.72334 0
M  V30 5356 H 521.916 6.48425 0.960507 0
M  V30 5357 H 521.436 5.51027 2.36917 0
M  V30 5358 H 523.115 6.08203 2.20675 0
M  V30 5359 N 523.247 -0.488276 1.49845 0
M  V30 5360 C 524.477 -1.26344 1.63465 0
M  V30 5361 C 524.885 -1.86637 0.310379 0
M  V30 5362 O 524.228 -1.69184 -0.715712 0
M  V30 5363 C 524.29 -2.42407 2.65479 0
M  V30 5364 C 523.954 -2.02886 4.09495 0
M  V30 5365 C 524.951 -1.56124 4.95904 0
M  V30 5366 C 522.636 -2.12131 4.55308 0
M  V30 5367 C 524.63 -1.19129 6.26169 0
M  V30 5368 C 522.317 -1.74747 5.85582 0
M  V30 5369 C 523.315 -1.28322 6.70837 0
M  V30 5370 O 523.003 -0.914491 7.98682 0
M  V30 5371 H 522.735 -0.388921 0.552916 0
M  V30 5372 H 525.289 -0.591288 1.96705 0
M  V30 5373 H 523.519 -3.12739 2.27445 0
M  V30 5374 H 525.208 -3.04409 2.68495 0
M  V30 5375 H 525.974 -1.48417 4.61733 0
M  V30 5376 H 521.853 -2.47217 3.89107 0
M  V30 5377 H 525.397 -0.828211 6.92666 0
M  V30 5378 H 521.294 -1.82109 6.19279 0
M  V30 5379 H 522.062 -1.04485 8.11804 0
M  V30 5380 N 524.725 -1.39134 -0.740242 0
M  V30 5381 C 525.688 -1.37217 -1.83587 0
M  V30 5382 C 526.688 -0.270221 -1.58513 0
M  V30 5383 O 527.878 -0.527843 -1.6601 0
M  V30 5384 C 525.01 -1.13959 -3.21288 0
M  V30 5385 H 526.203 -2.34705 -1.86691 0
M  V30 5386 H 523.756 -1.24622 -0.94335 0
M  V30 5387 H 524.491 -0.17131 -3.23847 0
M  V30 5388 H 524.276 -1.93754 -3.40884 0
M  V30 5389 H 525.766 -1.15346 -4.01354 0
M  V30 5390 N 526.204 0.969867 -1.24223 0
M  V30 5391 C 527.453 1.70687 -1.07466 0
M  V30 5392 C 527.766 1.91736 0.386861 0
M  V30 5393 O 528.972 2.62986 0.674581 0
M  V30 5394 C 527.428 3.07217 -1.87472 0
M  V30 5395 C 527.036 2.94018 -3.3802 0
M  V30 5396 C 528.78 3.84804 -1.79237 0
M  V30 5397 C 526.687 4.25844 -4.10379 0
M  V30 5398 H 525.617 0.640067 -0.398536 0
M  V30 5399 H 528.268 1.08092 -1.48285 0
M  V30 5400 H 526.65 3.70628 -1.39466 0
M  V30 5401 H 527.824 2.39632 -3.9359 0
M  V30 5402 H 526.139 2.29898 -3.47183 0
M  V30 5403 H 528.736 4.82417 -2.30603 0
M  V30 5404 H 529.079 4.09356 -0.757197 0
M  V30 5405 H 529.612 3.28115 -2.24912 0
M  V30 5406 H 526.351 4.06486 -5.14246 0
M  V30 5407 H 525.871 4.80054 -3.59594 0
M  V30 5408 H 527.55 4.94475 -4.17257 0
M  V30 5409 N 527.682 1.05563 1.17022 0
M  V30 5410 C 528.93 0.76642 1.87004 0
M  V30 5411 C 529.251 -0.708854 1.8166 0
M  V30 5412 O 528.521 -1.51242 1.2451 0
M  V30 5413 H 527.101 0.280516 0.692329 0
M  V30 5414 H 529.763 1.33557 1.41945 0
M  V30 5415 H 528.859 1.08472 2.92644 0
M  V30 5416 N 529.16 -1.33526 0.837174 0
M  V30 5417 C 530.437 -1.92369 0.354065 0
M  V30 5418 C 530.817 -1.76348 -1.16038 0
M  V30 5419 O 530.165 -1.15083 -1.97403 0
M  V30 5420 C 530.375 -3.39728 0.799101 0
M  V30 5421 C 531.723 -4.16877 0.806139 0
M  V30 5422 O 532.747 -3.48373 0.742597 0
M  V30 5423 O 531.606 -5.39166 0.892345 0
M  V30 5424 H 528.7 -0.820952 0.0998378 0
M  V30 5425 H 531.246 -1.42409 0.922913 0
M  V30 5426 H 530.018 -3.45254 1.84162 0
M  V30 5427 H 529.641 -3.97062 0.206731 0
M  V30 5428 N 530.638 -0.59345 -1.46 0
M  V30 5429 C 531.884 -0.0832754 -2.02629 0
M  V30 5430 C 532.217 1.27749 -1.46266 0
M  V30 5431 O 531.492 1.8395 -0.631866 0
M  V30 5432 C 531.775 -0.0290756 -3.60088 0
M  V30 5433 C 531.628 -1.41951 -4.26814 0
M  V30 5434 C 532.947 0.666055 -4.35031 0
M  V30 5435 H 530.066 -0.031736 -0.736316 0
M  V30 5436 H 532.708 -0.762711 -1.74019 0
M  V30 5437 H 530.858 0.549532 -3.84594 0
M  V30 5438 H 532.53 -2.04411 -4.13538 0
M  V30 5439 H 530.773 -1.98422 -3.8576 0
M  V30 5440 H 531.444 -1.33395 -5.3564 0
M  V30 5441 H 533.92 0.174401 -4.15734 0
M  V30 5442 H 532.796 0.673041 -5.44758 0
M  V30 5443 H 533.057 1.72946 -4.06869 0
M  V30 5444 N 532.116 1.54067 -0.331816 0
M  V30 5445 C 533.362 2.01012 0.268667 0
M  V30 5446 C 533.695 1.2195 1.51136 0
M  V30 5447 O 532.97 0.303972 1.9211 0
M  V30 5448 C 533.253 3.55158 0.59456 0
M  V30 5449 C 533.106 4.4494 -0.659409 0
M  V30 5450 C 534.425 4.16939 1.4089 0
M  V30 5451 H 531.544 0.730698 0.0961756 0
M  V30 5452 H 534.186 1.84593 -0.450031 0
M  V30 5453 H 532.336 3.6928 1.20685 0
M  V30 5454 H 534.008 4.42675 -1.29756 0
M  V30 5455 H 532.251 4.1428 -1.28665 0
M  V30 5456 H 532.922 5.50643 -0.386804 0
M  V30 5457 H 535.398 4.06443 0.891272 0
M  V30 5458 H 534.274 5.24889 1.60569 0
M  V30 5459 H 534.535 3.70798 2.40752 0
M  V30 5460 N 533.594 0.0601682 1.57485 0
M  V30 5461 C 534.504 -0.926121 2.15546 0
M  V30 5462 C 535.52 -1.33532 1.11558 0
M  V30 5463 O 536.696 -1.4104 1.4377 0
M  V30 5464 C 533.761 -2.17952 2.69625 0
M  V30 5465 C 532.822 -1.82783 3.88444 0
M  V30 5466 C 532.055 -3.02148 4.39935 0
M  V30 5467 O 532.278 -4.15803 3.90466 0
M  V30 5468 O 531.212 -2.82639 5.31412 0
M  V30 5469 H 535.038 -0.462289 3.00161 0
M  V30 5470 H 532.623 -0.162246 1.48516 0
M  V30 5471 H 534.505 -2.91474 3.04337 0
M  V30 5472 H 533.18 -2.63456 1.88077 0
M  V30 5473 H 532.087 -1.06549 3.58606 0
M  V30 5474 H 533.42 -1.42072 4.7125 0
M  V30 5475 N 535.072 -1.5615 -0.213296 0
M  V30 5476 C 536.32 -1.79191 -0.934612 0
M  V30 5477 C 536.641 -0.630112 -1.84539 0
M  V30 5478 O 535.911 0.35257 -1.92701 0
M  V30 5479 H 534.491 -0.660937 -0.348097 0
M  V30 5480 H 537.153 -1.93618 -0.22317 0
M  V30 5481 H 536.249 -2.71656 -1.53654 0
M  V30 5482 N 536.55 0.480323 -1.50102 0
M  V30 5483 C 537.966 0.813295 -1.37323 0
M  V30 5484 C 538.166 1.97027 -0.422206 0
M  V30 5485 O 537.222 2.5212 0.138563 0
M  V30 5486 C 538.535 1.13404 -2.78496 0
M  V30 5487 C 540.083 1.24104 -2.87345 0
M  V30 5488 C 540.558 1.59497 -4.29331 0
M  V30 5489 N 542.049 1.66507 -4.32238 0
M  V30 5490 C 542.784 1.95378 -5.39087 0
M  V30 5491 N 542.28 2.22333 -6.56155 0
M  V30 5492 N 544.073 1.96803 -5.26522 0
M  V30 5493 H 536.224 -0.282291 -2.10516 0
M  V30 5494 H 538.487 -0.063752 -0.945854 0
M  V30 5495 H 538.193 0.357064 -3.49883 0
M  V30 5496 H 538.067 2.07251 -3.15162 0
M  V30 5497 H 540.454 2.00871 -2.16183 0
M  V30 5498 H 540.535 0.282593 -2.54234 0
M  V30 5499 H 540.179 0.832736 -5.01027 0
M  V30 5500 H 540.109 2.56477 -4.59921 0
M  V30 5501 H 542.6 1.47753 -3.47818 0
M  V30 5502 H 542.913 2.43611 -7.33399 0
M  V30 5503 H 541.258 2.19745 -6.59346 0
M  V30 5504 H 544.449 1.75235 -4.34062 0
M  V30 5505 H 544.622 2.18969 -6.09883 0
M  V30 5506 N 538.028 1.39524 0.732853 0
M  V30 5507 C 539.439 1.32905 1.31122 0
M  V30 5508 C 539.79 -0.00558708 1.96199 0
M  V30 5509 O 538.915 -0.907706 1.96443 0
M  V30 5510 C 539.51 2.40704 2.38426 0
M  V30 5511 C 538.069 2.37599 2.91931 0
M  V30 5512 C 537.216 2.2248 1.65523 0
M  V30 5513 H 540.167 1.49581 0.530207 0
M  V30 5514 H 540.188 2.07616 3.18867 0
M  V30 5515 H 539.7 3.37829 1.91033 0
M  V30 5516 H 537.801 1.44119 3.43599 0
M  V30 5517 H 537.914 3.32538 3.44899 0
M  V30 5518 H 536.278 1.69691 1.8994 0
M  V30 5519 H 537.061 3.21577 1.20178 0
M  V30 5520 N 539.506 -0.963266 1.24736 0
M  V30 5521 C 540.416 -2.09246 1.06082 0
M  V30 5522 C 541.432 -1.74 0.000363101 0
M  V30 5523 O 542.608 -2.0041 0.199479 0
M  V30 5524 C 539.673 -3.40115 0.672498 0
M  V30 5525 C 538.734 -3.89282 1.80993 0
M  V30 5526 C 537.967 -5.13905 1.44004 0
M  V30 5527 O 538.19 -5.69434 0.331835 0
M  V30 5528 O 537.124 -5.57566 2.26723 0
M  V30 5529 H 540.95 -2.27881 2.00759 0
M  V30 5530 H 538.535 -1.07649 1.03595 0
M  V30 5531 H 540.417 -4.18797 0.467668 0
M  V30 5532 H 539.092 -3.22771 -0.245102 0
M  V30 5533 H 537.999 -3.11642 2.06955 0
M  V30 5534 H 539.332 -4.1111 2.70646 0
M  V30 5535 N 540.985 -1.06182 -1.16461 0
M  V30 5536 C 541.915 -0.692861 -2.22984 0
M  V30 5537 C 542.896 0.314122 -1.67174 0
M  V30 5538 O 544.081 0.189499 -1.93273 0
M  V30 5539 C 541.211 -0.07732 -3.47214 0
M  V30 5540 C 540.165 -1.01015 -4.15909 0
M  V30 5541 C 539.491 -0.257973 -5.34077 0
M  V30 5542 C 540.791 -2.33868 -4.67015 0
M  V30 5543 H 542.485 -1.58343 -2.54102 0
M  V30 5544 H 540.031 -0.76279 -1.22137 0
M  V30 5545 H 541.984 0.19266 -4.20959 0
M  V30 5546 H 540.708 0.848254 -3.15392 0
M  V30 5547 H 539.367 -1.26486 -3.44088 0
M  V30 5548 H 539.015 0.670684 -4.98509 0
M  V30 5549 H 538.715 -0.879638 -5.80979 0
M  V30 5550 H 540.239 0.00448788 -6.106 0
M  V30 5551 H 541.653 -2.1279 -5.32347 0
M  V30 5552 H 540.05 -2.91522 -5.24533 0
M  V30 5553 H 541.12 -2.97019 -3.83286 0
M  V30 5554 N 542.463 1.3308 -0.844243 0
M  V30 5555 C 543.691 2.01808 -0.456203 0
M  V30 5556 C 544.106 1.63498 0.944131 0
M  V30 5557 O 543.463 0.85102 1.61443 0
M  V30 5558 C 543.514 3.56922 -0.573513 0
M  V30 5559 O 543.235 3.93851 -1.91868 0
M  V30 5560 C 544.736 4.42922 -0.183125 0
M  V30 5561 H 541.956 0.646273 -0.180477 0
M  V30 5562 H 544.5 1.69891 -1.1383 0
M  V30 5563 H 542.655 3.87352 0.0607367 0
M  V30 5564 H 543.069 4.88564 -1.90802 0
M  V30 5565 H 544.543 5.51093 -0.316241 0
M  V30 5566 H 545.02 4.30386 0.875477 0
M  V30 5567 H 545.626 4.1786 -0.792027 0
M  V30 5568 N 543.941 0.601185 1.45683 0
M  V30 5569 C 545.352 0.179659 1.85834 0
M  V30 5570 C 545.703 -1.26189 1.50236 0
M  V30 5571 O 544.828 -1.95587 0.925987 0
M  V30 5572 C 545.423 0.319277 3.37292 0
M  V30 5573 C 543.982 -0.0475092 3.7637 0
M  V30 5574 C 543.129 0.646692 2.69654 0
M  V30 5575 H 546.08 0.808268 1.36575 0
M  V30 5576 H 546.101 -0.4503 3.77826 0
M  V30 5577 H 545.613 1.36855 3.6317 0
M  V30 5578 H 543.714 -1.0962 3.5611 0
M  V30 5579 H 543.827 0.34168 4.7788 0
M  V30 5580 H 542.191 0.0849971 2.54558 0
M  V30 5581 H 542.974 1.69797 2.98369 0
M  V30 5582 N 545.419 -1.53889 0.339982 0
M  V30 5583 C 546.668 -2.00035 -0.258604 0
M  V30 5584 C 546.981 -1.23179 -1.51942 0
M  V30 5585 O 548.187 -1.59784 -2.19503 0
M  V30 5586 C 546.643 -3.56249 -0.511359 0
M  V30 5587 C 546.251 -4.41957 0.733349 0
M  V30 5588 C 547.995 -4.1082 -1.069 0
M  V30 5589 C 545.902 -5.89673 0.451591 0
M  V30 5590 H 544.832 -0.747284 -0.10041 0
M  V30 5591 H 547.483 -1.77776 0.454758 0
M  V30 5592 H 545.865 -3.7456 -1.28533 0
M  V30 5593 H 547.039 -4.35421 1.50815 0
M  V30 5594 H 545.354 -3.9836 1.21237 0
M  V30 5595 H 547.951 -5.18789 -1.2947 0
M  V30 5596 H 548.294 -3.63817 -2.02343 0
M  V30 5597 H 548.827 -3.96205 -0.355817 0
M  V30 5598 H 545.566 -6.40903 1.37565 0
M  V30 5599 H 545.086 -5.99122 -0.285193 0
M  V30 5600 H 546.765 -6.46965 0.0675067 0
M  V30 5601 N 546.897 -0.0685191 -1.57451 0
M  V30 5602 C 547.86 0.885173 -2.11417 0
M  V30 5603 C 548.86 1.22853 -1.03748 0
M  V30 5604 O 550.05 1.16235 -1.2975 0
M  V30 5605 C 547.182 2.18964 -2.61281 0
M  V30 5606 H 548.375 0.417034 -2.96986 0
M  V30 5607 H 545.928 0.18014 -1.55258 0
M  V30 5608 H 546.663 2.70321 -1.79156 0
M  V30 5609 H 546.448 1.9534 -3.39977 0
M  V30 5610 H 547.938 2.87242 -3.0312 0
M  V30 5611 N 548.375 1.56261 0.205012 0
M  V30 5612 C 549.624 1.79236 0.925058 0
M  V30 5613 C 549.937 0.640011 1.84833 0
M  V30 5614 O 551.143 0.753809 2.60826 0
M  V30 5615 C 549.599 3.17475 1.69522 0
M  V30 5616 C 549.207 4.40482 0.817269 0
M  V30 5617 C 550.951 3.49766 2.4055 0
M  V30 5618 C 548.858 5.69744 1.58573 0
M  V30 5619 H 547.788 0.668287 0.349153 0
M  V30 5620 H 550.439 1.82629 0.178544 0
M  V30 5621 H 548.821 3.08304 2.48526 0
M  V30 5622 H 549.995 4.60752 0.0665988 0
M  V30 5623 H 548.31 4.15827 0.218316 0
M  V30 5624 H 550.907 4.43573 2.98575 0
M  V30 5625 H 551.25 2.73041 3.14252 0
M  V30 5626 H 551.783 3.60341 1.68522 0
M  V30 5627 H 548.522 6.49407 0.891679 0
M  V30 5628 H 548.042 5.53509 2.31059 0
M  V30 5629 H 549.721 6.1051 2.14212 0
M  V30 5630 N 549.853 -0.472356 1.50355 0
M  V30 5631 C 550.786 -1.58923 1.63764 0
M  V30 5632 C 551.764 -1.55173 0.485793 0
M  V30 5633 O 552.948 -1.74815 0.705132 0
M  V30 5634 C 550.075 -2.97497 1.61905 0
M  V30 5635 C 549.121 -3.19405 2.82635 0
M  V30 5636 S 549.954 -2.99441 4.43954 0
M  V30 5637 C 551.11 -4.40359 4.44786 0
M  V30 5638 H 551.343 -1.47309 2.58239 0
M  V30 5639 H 548.876 -0.659601 1.39602 0
M  V30 5640 H 550.834 -3.77389 1.61518 0
M  V30 5641 H 549.495 -3.06502 0.686683 0
M  V30 5642 H 548.688 -4.20636 2.77636 0
M  V30 5643 H 548.29 -2.47283 2.80583 0
M  V30 5644 H 550.582 -5.32969 4.1827 0
M  V30 5645 H 551.525 -4.50403 5.46391 0
M  V30 5646 H 551.933 -4.22378 3.74509 0
M  V30 5647 N 551.331 -1.39911 -0.725443 0
M  V30 5648 C 552.294 -1.39156 -1.82121 0
M  V30 5649 C 553.294 -0.287018 -1.58218 0
M  V30 5650 O 554.484 -0.545421 -1.65441 0
M  V30 5651 C 551.616 -1.1736 -3.20062 0
M  V30 5652 H 552.809 -2.36672 -1.84191 0
M  V30 5653 H 550.362 -1.25615 -0.930079 0
M  V30 5654 H 551.097 -0.205648 -3.23647 0
M  V30 5655 H 550.882 -1.97358 -3.3881 0
M  V30 5656 H 552.372 -1.19596 -4.00108 0
M  V30 5657 N 552.809 0.956637 -1.25245 0
M  V30 5658 C 554.057 1.69764 -1.09657 0
M  V30 5659 C 554.378 1.91583 0.363464 0
M  V30 5660 O 553.648 1.50149 1.25825 0
M  V30 5661 H 552.228 0.629097 -0.402798 0
M  V30 5662 H 554.89 1.15026 -1.57337 0
M  V30 5663 H 553.986 2.67769 -1.60331 0
M  V30 5664 N 554.287 1.06798 1.15896 0
M  V30 5665 C 555.703 0.792423 1.38538 0
M  V30 5666 C 555.903 -0.60592 1.92174 0
M  V30 5667 O 554.959 -1.36561 2.12385 0
M  V30 5668 C 556.272 1.86157 2.36149 0
M  V30 5669 C 557.82 1.88567 2.49823 0
M  V30 5670 C 558.295 2.9455 3.5072 0
M  V30 5671 N 559.786 2.93616 3.58251 0
M  V30 5672 C 560.521 3.72267 4.36125 0
M  V30 5673 N 560.017 4.60751 5.17379 0
M  V30 5674 N 561.81 3.60637 4.31158 0
M  V30 5675 H 553.961 1.96993 0.794198 0
M  V30 5676 H 556.224 0.853942 0.411688 0
M  V30 5677 H 555.93 2.86603 2.03843 0
M  V30 5678 H 555.804 1.71692 3.3586 0
M  V30 5679 H 558.191 0.887765 2.8143 0
M  V30 5680 H 558.272 2.0711 1.5013 0
M  V30 5681 H 557.916 3.94537 3.19849 0
M  V30 5682 H 557.846 2.73255 4.50155 0
M  V30 5683 H 560.337 2.29472 3.00252 0
M  V30 5684 H 560.65 5.17408 5.74028 0
M  V30 5685 H 558.995 4.64803 5.16704 0
M  V30 5686 H 562.186 2.90892 3.66742 0
M  V30 5687 H 562.359 4.22176 4.91601 0
M  V30 5688 N 555.766 -1.3263 0.851289 0
M  V30 5689 C 556.696 -2.31449 0.308771 0
M  V30 5690 C 557.677 -1.59531 -0.590255 0
M  V30 5691 O 558.862 -1.87351 -0.511205 0
M  V30 5692 C 555.992 -3.43586 -0.506548 0
M  V30 5693 C 554.946 -4.26963 0.297753 0
M  V30 5694 C 554.272 -5.30831 -0.642094 0
M  V30 5695 C 555.572 -4.99643 1.52166 0
M  V30 5696 H 557.266 -2.77074 1.13447 0
M  V30 5697 H 554.812 -1.33207 0.546971 0
M  V30 5698 H 556.765 -4.11754 -0.896474 0
M  V30 5699 H 555.489 -2.96681 -1.36558 0
M  V30 5700 H 554.148 -3.60437 0.669391 0
M  V30 5701 H 553.796 -4.8018 -1.49788 0
M  V30 5702 H 553.496 -5.87501 -0.107968 0
M  V30 5703 H 555.02 -6.01862 -1.02927 0
M  V30 5704 H 556.434 -5.6051 1.20421 0
M  V30 5705 H 554.831 -5.66022 1.99347 0
M  V30 5706 H 555.901 -4.27701 2.28474 0
M  V30 5707 N 557.244 -0.608902 -1.45362 0
M  V30 5708 C 558.174 0.0964526 -2.33301 0
M  V30 5709 C 559.155 0.857444 -1.46908 0
M  V30 5710 O 560.34 0.827735 -1.75676 0
M  V30 5711 C 557.47 1.09354 -3.29635 0
M  V30 5712 C 556.424 0.445676 -4.25673 0
M  V30 5713 C 555.75 1.5511 -5.11708 0
M  V30 5714 C 557.05 -0.633972 -5.18438 0
M  V30 5715 H 558.744 -0.637829 -2.92527 0
M  V30 5716 H 556.29 -0.308178 -1.40664 0
M  V30 5717 H 558.243 1.59556 -3.90025 0
M  V30 5718 H 556.967 1.85843 -2.6857 0
M  V30 5719 H 555.626 -0.0354897 -3.66583 0
M  V30 5720 H 555.274 2.30631 -4.4701 0
M  V30 5721 H 554.974 1.12311 -5.76767 0
M  V30 5722 H 556.498 2.05537 -5.74967 0
M  V30 5723 H 557.912 -0.215974 -5.72893 0
M  V30 5724 H 556.309 -0.983789 -5.91981 0
M  V30 5725 H 557.379 -1.51005 -4.60788 0
M  V30 5726 N 558.722 1.53707 -0.348139 0
M  V30 5727 C 559.968 2.01286 0.247332 0
M  V30 5728 C 560.301 1.23546 1.49834 0
M  V30 5729 O 559.576 0.324331 1.91777 0
M  V30 5730 C 559.859 3.55768 0.556858 0
M  V30 5731 C 559.712 4.44216 -0.706564 0
M  V30 5732 C 561.031 4.1841 1.3646 0
M  V30 5733 H 558.15 0.731677 0.0884201 0
M  V30 5734 H 560.792 1.84106 -0.469584 0
M  V30 5735 H 558.942 3.70539 1.16761 0
M  V30 5736 H 560.614 4.41274 -1.34444 0
M  V30 5737 H 558.857 4.12892 -1.33052 0
M  V30 5738 H 559.528 5.50202 -0.445186 0
M  V30 5739 H 562.004 4.07365 0.848113 0
M  V30 5740 H 560.88 5.26563 1.54992 0
M  V30 5741 H 561.141 3.7333 2.36805 0
M  V30 5742 N 560.2 0.0768682 1.57412 0
M  V30 5743 C 561.132 -0.918248 2.10002 0
M  V30 5744 C 562.145 -1.25808 1.03325 0
M  V30 5745 O 563.334 -1.21438 1.30824 0
M  V30 5746 C 560.434 -2.23263 2.54964 0
M  V30 5747 C 559.607 -2.07088 3.8527 0
M  V30 5748 C 558.666 -3.21876 4.16272 0
M  V30 5749 O 557.692 -2.96643 4.8579 0
M  V30 5750 N 558.894 -4.4712 3.70221 0
M  V30 5751 H 561.659 -0.469209 2.96004 0
M  V30 5752 H 559.22 -0.108725 1.61535 0
M  V30 5753 H 561.212 -2.9897 2.72762 0
M  V30 5754 H 559.782 -2.59649 1.74072 0
M  V30 5755 H 559.002 -1.15818 3.76802 0
M  V30 5756 H 560.29 -1.93537 4.70554 0
M  V30 5757 H 559.688 -4.70506 3.1407 0
M  V30 5758 H 558.245 -5.19837 3.93209 0
M  V30 5759 N 561.678 -1.56367 -0.196722 0
M  V30 5760 C 563.094 -1.49916 -0.54749 0
M  V30 5761 C 563.294 -0.77659 -1.85934 0
M  V30 5762 O 562.35 -0.32644 -2.50381 0
M  V30 5763 C 563.663 -2.94577 -0.603734 0
M  V30 5764 C 565.211 -3.05239 -0.692677 0
M  V30 5765 C 565.686 -4.51308 -0.780046 0
M  V30 5766 N 567.177 -4.55453 -0.843616 0
M  V30 5767 C 567.912 -5.65786 -0.931358 0
M  V30 5768 N 567.408 -6.85812 -0.981503 0
M  V30 5769 N 569.201 -5.53695 -0.968421 0
M  V30 5770 H 561.352 -2.01761 0.663803 0
M  V30 5771 H 563.615 -0.918094 0.236238 0
M  V30 5772 H 563.321 -3.50494 0.29105 0
M  V30 5773 H 563.195 -3.47841 -1.45898 0
M  V30 5774 H 565.582 -2.49372 -1.57789 0
M  V30 5775 H 565.663 -2.55103 0.188736 0
M  V30 5776 H 565.307 -5.078 0.100811 0
M  V30 5777 H 565.237 -4.99176 -1.67724 0
M  V30 5778 H 567.728 -3.69025 -0.814176 0
M  V30 5779 H 568.041 -7.65648 -1.04892 0
M  V30 5780 H 566.386 -6.88474 -0.950208 0
M  V30 5781 H 569.577 -4.58848 -0.926072 0
M  V30 5782 H 569.75 -6.39708 -1.03334 0
M  V30 5783 N 563.156 0.464375 -1.50603 0
M  V30 5784 C 564.086 1.56944 -1.72889 0
M  V30 5785 C 565.067 1.59979 -0.577997 0
M  V30 5786 O 566.252 1.76138 -0.817855 0
M  V30 5787 C 563.382 2.95225 -1.8292 0
M  V30 5788 C 562.336 3.07056 -2.98162 0
M  V30 5789 C 561.662 4.47051 -2.93343 0
M  V30 5790 C 562.962 2.83648 -4.38567 0
M  V30 5791 H 564.656 1.38547 -2.65415 0
M  V30 5792 H 562.202 0.665082 -1.27721 0
M  V30 5793 H 564.155 3.72467 -1.97095 0
M  V30 5794 H 562.879 3.14793 -0.870209 0
M  V30 5795 H 561.538 2.32248 -2.83648 0
M  V30 5796 H 561.186 4.63547 -1.95276 0
M  V30 5797 H 560.886 4.55902 -3.70712 0
M  V30 5798 H 562.41 5.26304 -3.09575 0
M  V30 5799 H 563.824 3.50636 -4.53572 0
M  V30 5800 H 562.221 3.03937 -5.17438 0
M  V30 5801 H 563.291 1.79451 -4.50472 0
M  V30 5802 N 564.634 1.40294 0.718013 0
M  V30 5803 C 565.881 1.3844 1.47786 0
M  V30 5804 C 566.209 -0.0140838 1.94495 0
M  V30 5805 O 565.464 -0.998165 1.68331 0
M  V30 5806 C 565.763 2.31814 2.72024 0
M  V30 5807 C 565.429 3.79117 2.44093 0
M  V30 5808 C 564.091 4.19249 2.36185 0
M  V30 5809 C 566.443 4.72212 2.20602 0
M  V30 5810 C 563.771 5.50516 2.02851 0
M  V30 5811 C 566.123 6.03775 1.88781 0
M  V30 5812 C 564.787 6.42953 1.79354 0
M  V30 5813 H 564.057 0.506588 0.540786 0
M  V30 5814 H 566.704 1.72929 0.822663 0
M  V30 5815 H 565.009 1.90501 3.42369 0
M  V30 5816 H 566.706 2.27664 3.30106 0
M  V30 5817 H 563.296 3.47318 2.51133 0
M  V30 5818 H 567.48 4.42026 2.25669 0
M  V30 5819 H 562.736 5.79776 1.94088 0
M  V30 5820 H 566.91 6.75428 1.69617 0
M  V30 5821 H 564.537 7.44584 1.53291 0
M  V30 5822 N 566.112 -0.949982 1.2575 0
M  V30 5823 C 567.36 -1.6918 1.10555 0
M  V30 5824 C 567.681 -1.91773 -0.353298 0
M  V30 5825 O 566.951 -1.50814 -1.25027 0
M  V30 5826 H 565.531 -0.626952 0.406129 0
M  V30 5827 H 568.193 -1.1419 1.57945 0
M  V30 5828 H 567.289 -2.66915 1.61749 0
M  V30 5829 N 567.59 -1.07411 -1.15328 0
M  V30 5830 C 568.838 -0.796073 -1.85761 0
M  V30 5831 C 569.159 0.679864 -1.82764 0
M  V30 5832 O 568.429 1.49242 -1.269 0
M  V30 5833 H 567.009 -0.291495 -0.687779 0
M  V30 5834 H 569.671 -1.35799 -1.39802 0
M  V30 5835 H 568.767 -1.13114 -2.90881 0
M  V30 5836 N 569.068 1.32177 -0.85831 0
M  V30 5837 C 570.293 2.01847 -0.476718 0
M  V30 5838 C 570.718 1.64065 0.920021 0
M  V30 5839 O 570.076 0.843189 1.60499 0
M  V30 5840 C 570.124 3.55097 -0.627578 0
M  V30 5841 O 569.228 4.11012 0.338086 0
M  V30 5842 H 568.569 0.635907 -0.191099 0
M  V30 5843 H 571.099 1.68641 -1.15851 0
M  V30 5844 H 571.109 4.04718 -0.516476 0
M  V30 5845 H 569.784 3.81938 -1.64609 0
M  V30 5846 H 568.361 3.72451 0.182917 0
M  V30 5847 N 570.547 0.616602 1.45037 0
M  V30 5848 C 571.772 0.120192 2.07051 0
M  V30 5849 C 572.197 -1.19008 1.45666 0
M  V30 5850 O 571.555 -1.7267 0.552692 0
M  V30 5851 C 571.603 0.00354901 3.606 0
M  V30 5852 O 570.707 -1.04431 3.98958 0
M  V30 5853 H 570.048 0.0781599 0.659384 0
M  V30 5854 H 572.578 0.849167 1.86146 0
M  V30 5855 H 572.588 -0.191754 4.07549 0
M  V30 5856 H 571.263 0.960239 4.04663 0
M  V30 5857 H 569.84 -0.824749 3.63665 0
M  V30 5858 N 572.025 -1.5352 0.356285 0
M  V30 5859 C 573.302 -1.93405 -0.292223 0
M  V30 5860 C 573.682 -1.28901 -1.67176 0
M  V30 5861 O 573.03 -0.444632 -2.24132 0
M  V30 5862 C 573.24 -3.47223 -0.35175 0
M  V30 5863 C 574.588 -4.20389 -0.596534 0
M  V30 5864 O 575.612 -3.53554 -0.433344 0
M  V30 5865 O 574.471 -5.3881 -0.913589 0
M  V30 5866 H 571.565 -0.808666 -0.173172 0
M  V30 5867 H 574.111 -1.64713 0.408391 0
M  V30 5868 H 572.883 -3.86423 0.615841 0
M  V30 5869 H 572.506 -3.8212 -1.09864 0
M  V30 5870 N 573.503 -0.0852151 -1.57369 0
M  V30 5871 C 574.433 0.874556 -2.16503 0
M  V30 5872 C 575.414 1.30111 -1.09568 0
M  V30 5873 O 576.599 1.36977 -1.37662 0
M  V30 5874 C 573.729 2.13731 -2.73745 0
M  V30 5875 C 572.683 1.84971 -3.85966 0
M  V30 5876 C 572.009 3.17991 -4.29867 0
M  V30 5877 C 573.309 1.14442 -5.09608 0
M  V30 5878 H 575.003 0.381899 -2.96954 0
M  V30 5879 H 572.549 0.18225 -1.42842 0
M  V30 5880 H 574.502 2.81302 -3.13763 0
M  V30 5881 H 573.226 2.65263 -1.90534 0
M  V30 5882 H 571.885 1.19801 -3.46473 0
M  V30 5883 H 571.533 3.6739 -3.4356 0
M  V30 5884 H 571.233 2.99534 -5.05523 0
M  V30 5885 H 572.757 3.86737 -4.72511 0
M  V30 5886 H 574.171 1.72105 -5.46857 0
M  V30 5887 H 572.568 1.06197 -5.90629 0
M  V30 5888 H 573.638 0.12559 -4.84737 0
M  V30 5889 N 574.981 1.5647 0.188427 0
M  V30 5890 C 575.914 1.90146 1.26173 0
M  V30 5891 C 576.892 0.762294 1.43624 0
M  V30 5892 O 578.076 1.01395 1.58907 0
M  V30 5893 C 575.203 2.13748 2.62735 0
M  V30 5894 C 574.249 3.36448 2.62116 0
M  V30 5895 S 575.082 4.91364 2.12889 0
M  V30 5896 C 576.238 5.18041 3.51261 0
M  V30 5897 H 576.471 2.80886 0.974192 0
M  V30 5898 H 574.004 1.49335 0.392226 0
M  V30 5899 H 575.962 2.28028 3.41341 0
M  V30 5900 H 574.623 1.23747 2.88696 0
M  V30 5901 H 573.816 3.50109 3.62546 0
M  V30 5902 H 573.418 3.21196 1.91596 0
M  V30 5903 H 575.71 5.0897 4.47164 0
M  V30 5904 H 576.653 6.19764 3.42489 0
M  V30 5905 H 577.061 4.45657 3.46482 0
M  V30 5906 N 576.459 -0.456382 1.50847 0
M  V30 5907 C 577.736 -1.21739 1.53098 0
M  V30 5908 C 578.116 -2.09179 0.284132 0
M  V30 5909 O 577.464 -2.16466 -0.731773 0
M  V30 5910 C 577.674 -2.03573 2.83477 0
M  V30 5911 C 579.022 -2.61264 3.34703 0
M  V30 5912 O 580.046 -2.13802 2.84898 0
M  V30 5913 O 578.905 -3.47779 4.21559 0
M  V30 5914 H 575.999 -0.553219 0.614718 0
M  V30 5915 H 578.545 -0.467003 1.63148 0
M  V30 5916 H 577.317 -1.39232 3.65691 0
M  V30 5917 H 576.94 -2.85716 2.76499 0
M  V30 5918 N 577.937 -1.40673 -0.710563 0
M  V30 5919 C 579.167 -1.4234 -1.49742 0
M  V30 5920 C 579.575 -0.022821 -1.89186 0
M  V30 5921 O 578.918 0.964773 -1.56326 0
M  V30 5922 C 578.98 -2.25509 -2.79975 0
M  V30 5923 C 578.644 -3.73862 -2.62824 0
M  V30 5924 C 579.641 -4.66379 -2.29752 0
M  V30 5925 C 577.326 -4.17735 -2.78932 0
M  V30 5926 C 579.32 -6.00756 -2.13006 0
M  V30 5927 C 577.007 -5.5218 -2.61802 0
M  V30 5928 C 578.005 -6.43505 -2.28888 0
M  V30 5929 O 577.693 -7.75472 -2.11894 0
M  V30 5930 H 577.425 -0.487311 -0.468513 0
M  V30 5931 H 579.979 -1.8542 -0.883668 0
M  V30 5932 H 578.209 -1.77218 -3.43701 0
M  V30 5933 H 579.898 -2.19058 -3.41714 0
M  V30 5934 H 580.664 -4.33778 -2.16936 0
M  V30 5935 H 576.543 -3.46967 -3.03537 0
M  V30 5936 H 580.087 -6.72003 -1.87237 0
M  V30 5937 H 575.984 -5.84365 -2.74204 0
M  V30 5938 H 576.752 -7.86458 -2.26775 0
M  V30 5939 N 579.415 0.9433 -1.26252 0
M  V30 5940 C 580.692 1.66639 -1.02424 0
M  V30 5941 C 581.072 2.06335 0.446006 0
M  V30 5942 O 580.42 1.78551 1.42589 0
M  V30 5943 C 580.63 2.88019 -1.97094 0
M  V30 5944 C 581.978 3.59718 -2.25584 0
M  V30 5945 O 583.002 2.9812 -1.94943 0
M  V30 5946 O 581.861 4.7066 -2.77743 0
M  V30 5947 H 578.955 0.729643 -0.389294 0
M  V30 5948 H 581.501 0.995218 -1.37454 0
M  V30 5949 H 580.273 2.5556 -2.96319 0
M  V30 5950 H 579.896 3.62863 -1.62532 0
M  V30 5951 N 580.893 1.08022 1.14757 0
M  V30 5952 C 581.841 0.701088 2.21783 0
M  V30 5953 C 582.835 -0.291311 1.66876 0
M  V30 5954 O 584.041 -0.154296 1.79337 0
M  V30 5955 H 580.416 0.208668 0.722469 0
M  V30 5956 H 582.387 1.61321 2.51034 0
M  V30 5957 C 581.136 0.122278 3.47485 0
M  V30 5958 H 580.459 0.877065 3.90061 0
M  V30 5959 H 581.899 -0.105248 4.23869 0
M  V30 5960 C 580.358 -1.13883 3.17068 0
M  V30 5961 O 580.888 -2.22429 3.34497 0
M  V30 5962 N 579.094 -1.04767 2.71058 0
M  V30 5963 H 578.641 -0.164302 2.57075 0
M  V30 5964 H 578.599 -1.89224 2.51081 0
M  V30 5965 N 582.371 -1.3172 0.865308 0
M  V30 5966 C 583.617 -1.97168 0.474633 0
M  V30 5967 C 583.95 -1.68263 -0.969604 0
M  V30 5968 O 583.225 -0.976588 -1.68205 0
M  V30 5969 C 583.508 -3.52689 0.726808 0
M  V30 5970 C 583.361 -3.91185 2.22024 0
M  V30 5971 C 584.68 -4.39689 0.190201 0
M  V30 5972 H 581.799 -0.716185 0.17392 0
M  V30 5973 H 584.441 -1.55925 1.08569 0
M  V30 5974 H 582.591 -3.8795 0.206705 0
M  V30 5975 H 584.263 -3.66049 2.80724 0
M  V30 5976 H 582.506 -3.3996 2.69462 0
M  V30 5977 H 583.177 -4.99604 2.34735 0
M  V30 5978 H 585.653 -4.11225 0.635103 0
M  V30 5979 H 584.529 -5.47469 0.396132 0
M  V30 5980 H 584.79 -4.32683 -0.907625 0
M  V30 5981 N 583.85 -0.624285 -1.44708 0
M  V30 5982 C 585.26 -0.2092 -1.85524 0
M  V30 5983 C 585.611 1.23783 -1.52225 0
M  V30 5984 O 584.736 1.94089 -0.956986 0
M  V30 5985 C 585.332 -0.372897 -3.36742 0
M  V30 5986 C 583.891 -0.012374 -3.76398 0
M  V30 5987 C 583.038 -0.68951 -2.68591 0
M  V30 5988 H 585.989 -0.829894 -1.35272 0
M  V30 5989 H 586.01 0.390134 -3.78495 0
M  V30 5990 H 585.522 -1.42615 -3.60947 0
M  V30 5991 H 583.623 1.03941 -3.57809 0
M  V30 5992 H 583.736 -0.417663 -4.77276 0
M  V30 5993 H 582.1 -0.125484 -2.54391 0
M  V30 5994 H 582.883 -1.74522 -2.9563 0
M  V30 5995 N 585.328 1.53329 -0.364422 0
M  V30 5996 C 586.556 2.05657 0.226424 0
M  V30 5997 C 586.971 1.23801 1.42544 0
M  V30 5998 O 586.328 0.27839 1.80364 0
M  V30 5999 C 586.379 3.56125 0.621056 0
M  V30 6000 O 586.1 4.34879 -0.530304 0
M  V30 6001 C 587.601 4.24706 1.27041 0
M  V30 6002 H 584.821 0.669806 0.0400056 0
M  V30 6003 H 587.365 1.97714 -0.522456 0
M  V30 6004 H 585.52 3.64223 1.31985 0
M  V30 6005 H 585.934 5.24073 -0.211546 0
M  V30 6006 H 587.408 5.3131 1.49711 0
M  V30 6007 H 587.885 3.78354 2.23036 0
M  V30 6008 H 588.491 4.20858 0.613079 0
M  V30 6009 N 586.806 0.0935595 1.57322 0
M  V30 6010 C 588.034 -0.578934 1.98635 0
M  V30 6011 C 588.449 -1.61819 0.972626 0
M  V30 6012 O 587.806 -1.82461 -0.0379638 0
M  V30 6013 C 587.857 -1.22802 3.40003 0
M  V30 6014 O 587.578 -0.230334 4.37494 0
M  V30 6015 C 589.079 -1.98627 3.96311 0
M  V30 6016 H 586.299 -0.155324 0.652775 0
M  V30 6017 H 588.843 0.172393 2.03772 0
M  V30 6018 H 586.998 -1.93029 3.35885 0
M  V30 6019 H 587.412 -0.698649 5.19826 0
M  V30 6020 H 588.886 -2.39405 4.97382 0
M  V30 6021 H 589.363 -2.85151 3.34044 0
M  V30 6022 H 589.969 -1.3322 4.03897 0
M  V30 6023 N 588.284 -1.56567 -0.180126 0
M  V30 6024 C 589.53 -1.81761 -0.899497 0
M  V30 6025 C 589.863 -0.670015 -1.82276 0
M  V30 6026 O 589.138 0.328575 -1.91705 0
M  V30 6027 C 589.421 -3.17296 -1.7028 0
M  V30 6028 C 589.274 -4.4257 -0.803255 0
M  V30 6029 C 590.593 -3.49678 -2.67233 0
M  V30 6030 H 587.712 -0.661192 -0.325567 0
M  V30 6031 H 590.354 -1.89272 -0.16612 0
M  V30 6032 H 588.504 -3.11023 -2.32802 0
M  V30 6033 H 590.176 -4.60902 -0.191585 0
M  V30 6034 H 588.419 -4.33658 -0.110796 0
M  V30 6035 H 589.09 -5.33935 -1.40064 0
M  V30 6036 H 591.566 -3.56347 -2.14839 0
M  V30 6037 H 590.442 -4.45605 -3.20511 0
M  V30 6038 H 590.703 -2.73932 -3.47007 0
M  V30 6039 N 589.762 0.448376 -1.51087 0
M  V30 6040 C 591.009 1.19872 -1.63209 0
M  V30 6041 C 591.337 1.91451 -0.343062 0
M  V30 6042 O 590.592 1.83789 0.672321 0
M  V30 6043 C 590.891 2.24866 -2.77795 0
M  V30 6044 C 590.557 1.70378 -4.17471 0
M  V30 6045 C 589.219 1.55241 -4.55471 0
M  V30 6046 C 591.571 1.30203 -5.04675 0
M  V30 6047 C 588.899 0.983844 -5.78392 0
M  V30 6048 C 591.251 0.747798 -6.28165 0
M  V30 6049 C 589.915 0.583233 -6.64947 0
M  V30 6050 H 589.185 0.438642 -0.597222 0
M  V30 6051 H 591.832 0.49136 -1.85089 0
M  V30 6052 H 590.137 3.01598 -2.50092 0
M  V30 6053 H 591.834 2.82723 -2.84374 0
M  V30 6054 H 588.424 1.83134 -3.87505 0
M  V30 6055 H 592.608 1.40723 -4.75932 0
M  V30 6056 H 587.864 0.844007 -6.05546 0
M  V30 6057 H 592.038 0.427927 -6.95084 0
M  V30 6058 H 589.665 0.140532 -7.6007 0
M  V30 6059 N 591.24 1.41047 0.703093 0
M  V30 6060 C 592.468 1.4334 1.49202 0
M  V30 6061 C 592.883 0.0365596 1.88765 0
M  V30 6062 O 592.24 -0.942419 1.56284 0
M  V30 6063 C 592.291 2.33538 2.75939 0
M  V30 6064 O 592.012 3.67786 2.38045 0
M  V30 6065 C 593.513 2.44555 3.6974 0
M  V30 6066 H 590.733 0.488472 0.460039 0
M  V30 6067 H 593.277 1.85245 0.86629 0
M  V30 6068 H 591.432 1.94962 3.34766 0
M  V30 6069 H 591.846 4.15816 3.19683 0
M  V30 6070 H 593.32 3.11849 4.55471 0
M  V30 6071 H 593.797 1.47447 4.1371 0
M  V30 6072 H 594.403 2.83735 3.16819 0
M  V30 6073 N 592.718 -0.936591 1.26751 0
M  V30 6074 C 594.129 -1.49816 1.1141 0
M  V30 6075 C 594.48 -1.9383 -0.304015 0
M  V30 6076 O 593.605 -1.80346 -1.196 0
M  V30 6077 C 594.2 -2.72271 2.01629 0
M  V30 6078 C 592.759 -3.2468 1.9042 0
M  V30 6079 C 591.906 -1.97444 1.94708 0
M  V30 6080 H 594.857 -0.751604 1.39773 0
M  V30 6081 H 594.878 -3.46741 1.56688 0
M  V30 6082 H 594.39 -2.40205 3.04833 0
M  V30 6083 H 592.491 -3.61525 0.901674 0
M  V30 6084 H 592.604 -3.91476 2.76195 0
M  V30 6085 H 590.968 -2.13545 1.38818 0
M  V30 6086 H 591.751 -1.67703 2.9955 0
M  V30 6087 N 594.196 -1.08629 -1.14182 0
M  V30 6088 C 595.126 -0.740003 -2.21464 0
M  V30 6089 C 596.107 0.278591 -1.67803 0
M  V30 6090 O 597.292 0.148461 -1.93632 0
M  V30 6091 C 594.422 -0.150952 -3.46972 0
M  V30 6092 C 593.376 -1.09815 -4.13672 0
M  V30 6093 C 592.702 -0.3712 -5.3341 0
M  V30 6094 C 594.002 -2.43722 -4.61949 0
M  V30 6095 H 595.696 -1.63697 -2.50686 0
M  V30 6096 H 593.242 -0.788526 -1.20492 0
M  V30 6097 H 595.195 0.103325 -4.21273 0
M  V30 6098 H 593.919 0.781164 -3.1712 0
M  V30 6099 H 592.578 -1.33756 -3.41328 0
M  V30 6100 H 592.226 0.564792 -4.99819 0
M  V30 6101 H 591.926 -1.00267 -5.78982 0
M  V30 6102 H 593.45 -0.12503 -6.10472 0
M  V30 6103 H 594.864 -2.24034 -5.27714 0
M  V30 6104 H 593.261 -3.02582 -5.18232 0
M  V30 6105 H 594.331 -3.05082 -3.76899 0
M  V30 6106 N 595.674 1.31259 -0.872281 0
M  V30 6107 C 596.584 2.32221 -0.333255 0
M  V30 6108 C 597.6 1.6481 0.558013 0
M  V30 6109 O 598.776 1.96212 0.454175 0
M  V30 6110 C 595.841 3.43708 0.454479 0
M  V30 6111 C 594.902 4.26774 -0.465024 0
M  V30 6112 C 594.135 5.32937 0.28521 0
M  V30 6113 O 594.358 5.49968 1.513 0
M  V30 6114 O 593.292 6.00834 -0.358126 0
M  V30 6115 H 597.118 2.80252 -1.17016 0
M  V30 6116 H 594.703 1.352 -0.635724 0
M  V30 6117 H 596.585 4.11656 0.900963 0
M  V30 6118 H 595.26 2.97836 1.26789 0
M  V30 6119 H 594.167 3.61571 -0.960055 0
M  V30 6120 H 595.5 4.76217 -1.2441 0
M  V30 6121 N 597.152 0.631951 1.44375 0
M  V30 6122 C 598.382 0.143658 2.061 0
M  V30 6123 C 598.79 -1.18733 1.47306 0
M  V30 6124 O 598.133 -1.73943 0.590724 0
M  V30 6125 C 598.195 -0.0446102 3.59472 0
M  V30 6126 C 597.859 1.20835 4.40736 0
M  V30 6127 C 598.856 2.13224 4.74164 0
M  V30 6128 C 596.541 1.44399 4.81097 0
M  V30 6129 C 598.535 3.27487 5.46838 0
M  V30 6130 C 596.222 2.58959 5.53519 0
M  V30 6131 C 597.22 3.50329 5.86309 0
M  V30 6132 O 596.908 4.62891 6.57257 0
M  V30 6133 H 596.64 0.0772939 0.671567 0
M  V30 6134 H 599.194 0.866677 1.8622 0
M  V30 6135 H 597.424 -0.822783 3.77845 0
M  V30 6136 H 599.113 -0.487561 4.02961 0
M  V30 6137 H 599.879 1.96253 4.4352 0
M  V30 6138 H 595.758 0.741696 4.54994 0
M  V30 6139 H 599.302 3.98826 5.72349 0
M  V30 6140 H 595.199 2.75873 5.83579 0
M  V30 6141 H 595.967 4.61883 6.75726 0
M  V30 6142 N 598.631 -1.53133 0.372548 0
M  V30 6143 C 599.879 -2.00958 -0.214534 0
M  V30 6144 C 600.2 -1.26135 -1.48711 0
M  V30 6145 O 599.47 -0.376597 -1.92246 0
M  V30 6146 H 598.05 -0.742456 -0.0822664 0
M  V30 6147 H 600.712 -1.88367 0.500385 0
M  V30 6148 H 599.808 -3.09031 -0.436605 0
M  V30 6149 N 600.109 -0.101901 -1.5727 0
M  V30 6150 C 601.349 0.563489 -1.96479 0
M  V30 6151 C 601.713 1.64926 -0.983021 0
M  V30 6152 O 602.914 2.37234 -1.26386 0
M  V30 6153 C 601.185 1.09809 -3.40113 0
M  V30 6154 S 602.744 1.7744 -4.01323 0
M  V30 6155 H 599.562 0.183675 -0.686866 0
M  V30 6156 H 602.164 -0.182922 -1.94642 0
M  V30 6157 H 600.868 0.296447 -4.09328 0
M  V30 6158 H 600.399 1.88018 -3.45562 0
M  V30 6159 H 602.414 3.0591 -3.90683 0
M  V30 6160 N 601.587 1.56661 0.17182 0
M  V30 6161 C 602.833 1.82235 0.889845 0
M  V30 6162 C 603.166 0.679673 1.81918 0
M  V30 6163 O 602.441 -0.318404 1.91876 0
M  V30 6164 C 602.724 3.18195 1.68595 0
M  V30 6165 C 602.577 4.42989 0.779773 0
M  V30 6166 C 603.896 3.5109 2.65375 0
M  V30 6167 H 601.015 0.66291 0.322056 0
M  V30 6168 H 603.657 1.89358 0.15608 0
M  V30 6169 H 601.807 3.12253 2.3115 0
M  V30 6170 H 603.479 4.60997 0.16714 0
M  V30 6171 H 601.722 4.33711 0.0877964 0
M  V30 6172 H 602.393 5.3467 1.3723 0
M  V30 6173 H 604.869 3.57482 2.12946 0
M  V30 6174 H 603.745 4.47298 3.18144 0
M  V30 6175 H 604.006 2.75768 3.45549 0
M  V30 6176 N 603.065 -0.440357 1.51323 0
M  V30 6177 C 604.313 -1.18769 1.63518 0
M  V30 6178 C 604.634 -1.91793 0.352201 0
M  V30 6179 O 603.904 -1.85432 -0.631811 0
M  V30 6180 H 602.484 -0.441408 0.602634 0
M  V30 6181 H 605.146 -0.505162 1.8824 0
M  V30 6182 H 604.242 -1.91892 2.46138 0
M  V30 6183 N 604.543 -1.41418 -0.695603 0
M  V30 6184 C 605.473 -1.46035 -1.82197 0
M  V30 6185 C 606.454 -0.319025 -1.67082 0
M  V30 6186 O 607.639 -0.530462 -1.86815 0
M  V30 6187 C 604.769 -1.34179 -3.20333 0
M  V30 6188 C 603.723 -2.46123 -3.50154 0
M  V30 6189 C 603.049 -2.19332 -4.87645 0
M  V30 6190 C 604.349 -3.88463 -3.49133 0
M  V30 6191 H 606.043 -2.40303 -1.78591 0
M  V30 6192 H 603.589 -1.15663 -0.857797 0
M  V30 6193 H 605.542 -1.36021 -3.98844 0
M  V30 6194 H 604.266 -0.363952 -3.24566 0
M  V30 6195 H 602.925 -2.43563 -2.73994 0
M  V30 6196 H 602.573 -1.19891 -4.88503 0
M  V30 6197 H 602.273 -2.94344 -5.08562 0
M  V30 6198 H 603.797 -2.22889 -5.68465 0
M  V30 6199 H 605.211 -3.92738 -4.17648 0
M  V30 6200 H 603.608 -4.63158 -3.81582 0
M  V30 6201 H 604.678 -4.16617 -2.48109 0
M  V30 6202 N 606.021 0.929856 -1.27246 0
M  V30 6203 C 607.246 1.71674 -1.16374 0
M  V30 6204 C 607.671 1.86064 0.276024 0
M  V30 6205 O 607.029 1.3591 1.19992 0
M  V30 6206 C 607.077 3.09526 -1.85003 0
M  V30 6207 O 606.181 3.96142 -1.14653 0
M  V30 6208 H 605.522 0.52629 -0.404863 0
M  V30 6209 H 608.052 1.16381 -1.68276 0
M  V30 6210 H 608.062 3.59852 -1.92276 0
M  V30 6211 H 606.737 2.98369 -2.89739 0
M  V30 6212 H 605.314 3.54584 -1.15433 0
M  V30 6213 N 607.499 1.09233 1.13605 0
M  V30 6214 C 608.409 0.741939 2.22559 0
M  V30 6215 C 609.425 -0.255236 1.72118 0
M  V30 6216 O 610.601 -0.0970747 2.01166 0
M  V30 6217 C 607.666 0.165595 3.46304 0
M  V30 6218 C 606.727 1.21846 4.11645 0
M  V30 6219 C 605.96 0.669526 5.29484 0
M  V30 6220 O 606.183 -0.508228 5.68131 0
M  V30 6221 O 605.117 1.42361 5.84822 0
M  V30 6222 H 608.943 1.65107 2.54899 0
M  V30 6223 H 606.528 0.866584 1.21699 0
M  V30 6224 H 608.41 -0.152592 4.21124 0
M  V30 6225 H 607.085 -0.716573 3.15669 0
M  V30 6226 H 605.992 1.58931 3.38662 0
M  V30 6227 H 607.325 2.07321 4.46407 0
M  V30 6228 N 608.977 -1.30795 0.87923 0
M  V30 6229 C 609.887 -2.32041 0.345565 0
M  V30 6230 C 610.903 -1.65103 -0.549265 0
M  V30 6231 O 612.079 -1.9645 -0.443763 0
M  V30 6232 C 609.144 -3.43944 -0.436245 0
M  V30 6233 C 608.205 -4.26521 0.48765 0
M  V30 6234 C 607.438 -5.33081 -0.256943 0
M  V30 6235 O 607.661 -5.50762 -1.48381 0
M  V30 6236 O 606.595 -6.00635 0.389985 0
M  V30 6237 H 610.421 -2.79627 1.18501 0
M  V30 6238 H 608.006 -1.3486 0.642885 0
M  V30 6239 H 609.888 -4.12128 -0.879119 0
M  V30 6240 H 608.563 -2.98504 -1.25208 0
M  V30 6241 H 607.47 -3.61057 0.979216 0
M  V30 6242 H 608.803 -4.75551 1.26933 0
M  V30 6243 N 610.455 -0.639598 -1.44038 0
M  V30 6244 C 611.365 0.0612377 -2.3452 0
M  V30 6245 C 612.381 0.826717 -1.53106 0
M  V30 6246 O 613.557 0.777059 -1.85806 0
M  V30 6247 C 610.622 1.02492 -3.31204 0
M  V30 6248 C 609.683 0.25788 -4.28525 0
M  V30 6249 C 608.916 1.17566 -5.2059 0
M  V30 6250 O 609.139 2.41461 -5.16771 0
M  V30 6251 O 608.073 0.655407 -5.98321 0
M  V30 6252 H 611.899 -0.68318 -2.95916 0
M  V30 6253 H 609.484 -0.399784 -1.43952 0
M  V30 6254 H 611.366 1.57911 -3.90694 0
M  V30 6255 H 610.041 1.7498 -2.7233 0
M  V30 6256 H 608.948 -0.339566 -3.72556 0
M  V30 6257 H 610.281 -0.427154 -4.90343 0
M  V30 6258 N 611.933 1.52934 -0.380664 0
M  V30 6259 C 612.896 2.24809 0.446473 0
M  V30 6260 C 613.896 1.26133 0.997347 0
M  V30 6261 O 615.086 1.50297 0.880714 0
M  V30 6262 C 612.218 2.99649 1.62553 0
M  V30 6263 H 613.411 2.99343 -0.182677 0
M  V30 6264 H 610.964 1.55736 -0.132618 0
M  V30 6265 H 611.699 2.29395 2.29235 0
M  V30 6266 H 611.484 3.72066 1.23732 0
M  V30 6267 H 612.974 3.54246 2.21133 0
M  V30 6268 N 613.412 0.11024 1.57214 0
M  V30 6269 C 614.658 -0.550684 1.9518 0
M  V30 6270 C 614.991 -1.66885 0.993122 0
M  V30 6271 O 614.266 -1.94479 0.0287907 0
M  V30 6272 C 614.549 -1.09163 3.43155 0
M  V30 6273 C 614.402 0.0225198 4.49794 0
M  V30 6274 C 615.721 -1.98527 3.92778 0
M  V30 6275 H 612.84 -0.198706 0.709708 0
M  V30 6276 H 615.482 0.184024 1.89107 0
M  V30 6277 H 613.632 -1.71775 3.48462 0
M  V30 6278 H 615.304 0.657443 4.56591 0
M  V30 6279 H 613.547 0.686868 4.28328 0
M  V30 6280 H 614.218 -0.39706 5.5057 0
M  V30 6281 H 616.694 -1.458 3.8972 0
M  V30 6282 H 615.57 -2.33298 4.96853 0
M  V30 6283 H 615.831 -2.90846 3.32958 0
M  V30 6284 N 614.89 -1.56749 -0.16351 0
M  V30 6285 C 615.853 -1.96121 -1.18613 0
M  V30 6286 C 616.853 -0.845765 -1.36761 0
M  V30 6287 O 618.043 -1.11268 -1.34033 0
M  V30 6288 C 615.175 -2.26282 -2.54969 0
M  V30 6289 H 616.368 -2.87639 -0.848764 0
M  V30 6290 H 613.921 -1.50928 -0.406251 0
M  V30 6291 H 614.656 -1.37504 -2.93706 0
M  V30 6292 H 614.441 -3.07595 -2.43162 0
M  V30 6293 H 615.931 -2.57638 -3.28653 0
M  V30 6294 N 616.368 0.432326 -1.51554 0
M  V30 6295 C 617.784 0.769195 -1.39841 0
M  V30 6296 C 617.984 1.95584 -0.484675 0
M  V30 6297 O 617.04 2.52433 0.0582829 0
M  V30 6298 C 618.353 1.04487 -2.81963 0
M  V30 6299 C 619.901 1.149 -2.91148 0
M  V30 6300 C 620.376 1.45758 -4.34187 0
M  V30 6301 N 621.867 1.52671 -4.37317 0
M  V30 6302 C 622.602 1.78129 -5.4503 0
M  V30 6303 N 622.098 2.01345 -6.62897 0
M  V30 6304 N 623.891 1.79953 -5.32516 0
M  V30 6305 H 616.042 -0.349122 -2.09511 0
M  V30 6306 H 618.305 -0.0938113 -0.943347 0
M  V30 6307 H 618.011 0.24557 -3.50842 0
M  V30 6308 H 617.885 1.97119 -3.21596 0
M  V30 6309 H 620.272 1.93891 -2.22464 0
M  V30 6310 H 620.353 0.201568 -2.55005 0
M  V30 6311 H 619.997 0.672917 -5.03423 0
M  V30 6312 H 619.927 2.41715 -4.67848 0
M  V30 6313 H 622.418 1.36612 -3.52343 0
M  V30 6314 H 622.731 2.20155 -7.40778 0
M  V30 6315 H 621.076 1.98657 -6.66003 0
M  V30 6316 H 624.267 1.61337 -4.39418 0
M  V30 6317 H 624.44 1.99455 -6.1654 0
M  V30 6318 N 617.846 1.41785 0.688094 0
M  V30 6319 C 618.796 1.40684 1.79421 0
M  V30 6320 C 619.78 0.280096 1.58443 0
M  V30 6321 O 620.972 0.521332 1.69148 0
M  V30 6322 C 618.101 1.29874 3.17785 0
M  V30 6323 C 617.187 2.47442 3.44432 0
M  V30 6324 N 617.578 3.72895 3.41736 0
M  V30 6325 C 615.876 2.41416 3.75013 0
M  V30 6326 C 616.577 4.50912 3.67496 0
M  V30 6327 N 615.553 3.81131 3.87608 0
M  V30 6328 H 619.355 2.35591 1.7571 0
M  V30 6329 H 616.869 1.35946 0.888393 0
M  V30 6330 H 618.866 1.27168 3.97031 0
M  V30 6331 H 617.526 0.359587 3.22703 0
M  V30 6332 H 618.537 4.05676 3.21943 0
M  V30 6333 H 615.214 1.56011 3.87256 0
M  V30 6334 H 616.604 5.59865 3.71484 0
M  V30 6335 N 619.324 -0.923095 1.27737 0
M  V30 6336 C 620.572 -1.66797 1.14119 0
M  V30 6337 C 620.893 -1.92479 -0.312541 0
M  V30 6338 O 620.163 -1.53432 -1.218 0
M  V30 6339 H 618.743 -0.618196 0.419336 0
M  V30 6340 H 621.405 -1.10815 1.60331 0
M  V30 6341 H 620.501 -2.63424 1.67374 0
M  V30 6342 N 620.802 -1.09834 -1.13024 0
M  V30 6343 C 621.734 -0.699379 -2.18269 0
M  V30 6344 C 622.747 0.260841 -1.60697 0
M  V30 6345 O 623.936 0.0462538 -1.7844 0
M  V30 6346 C 621.036 -0.0104537 -3.38898 0
M  V30 6347 C 620.209 -0.993275 -4.25973 0
M  V30 6348 C 619.268 -0.336982 -5.2512 0
M  V30 6349 O 618.294 -0.985892 -5.60597 0
M  V30 6350 N 619.496 0.90716 -5.73368 0
M  V30 6351 H 622.261 -1.60486 -2.5311 0
M  V30 6352 H 619.822 -0.986337 -1.28386 0
M  V30 6353 H 621.814 0.43991 -4.02302 0
M  V30 6354 H 620.384 0.797335 -3.0226 0
M  V30 6355 H 619.604 -1.62208 -3.5928 0
M  V30 6356 H 620.892 -1.65876 -4.81002 0
M  V30 6357 H 620.29 1.45384 -5.46699 0
M  V30 6358 H 618.847 1.30077 -6.38689 0
M  V30 6359 N 622.28 1.30327 -0.886154 0
M  V30 6360 C 623.19 2.31854 -0.357866 0
M  V30 6361 C 624.206 1.65392 0.540502 0
M  V30 6362 O 625.382 1.96683 0.433339 0
M  V30 6363 C 622.447 3.44171 0.417999 0
M  V30 6364 C 621.508 4.26257 -0.510263 0
M  V30 6365 C 620.741 5.3321 0.228669 0
M  V30 6366 O 620.964 5.51542 1.45458 0
M  V30 6367 O 619.898 6.0042 -0.421832 0
M  V30 6368 H 623.724 2.78995 -1.19982 0
M  V30 6369 H 621.309 1.34518 -0.650028 0
M  V30 6370 H 623.191 4.12588 0.857251 0
M  V30 6371 H 621.866 2.99164 1.23623 0
M  V30 6372 H 620.773 3.60533 -0.99835 0
M  V30 6373 H 622.106 4.74871 -1.29454 0
M  V30 6374 N 623.758 0.647228 1.43697 0
M  V30 6375 C 624.708 -0.0702191 2.27892 0
M  V30 6376 C 625.692 -0.800601 1.39568 0
M  V30 6377 O 626.884 -0.684055 1.63247 0
M  V30 6378 C 624.013 -1.04008 3.27165 0
M  V30 6379 C 623.099 -0.308484 4.22977 0
M  V30 6380 N 623.49 0.671721 5.0132 0
M  V30 6381 C 621.788 -0.550751 4.42586 0
M  V30 6382 C 622.489 1.10543 5.711 0
M  V30 6383 N 621.465 0.440903 5.41809 0
M  V30 6384 H 625.267 0.682031 2.85877 0
M  V30 6385 H 622.781 0.474022 1.55328 0
M  V30 6386 H 624.778 -1.56881 3.86256 0
M  V30 6387 H 623.438 -1.79246 2.70742 0
M  V30 6388 H 624.449 1.0502 5.0714 0
M  V30 6389 H 621.126 -1.28476 3.97241 0
M  V30 6390 H 622.516 1.91614 6.43998 0
M  V30 6391 N 625.236 -1.5273 0.388769 0
M  V30 6392 C 626.482 -2.01871 -0.193877 0
M  V30 6393 C 626.815 -1.27475 -1.46505 0
M  V30 6394 O 626.09 -0.375063 -1.90849 0
M  V30 6395 C 626.373 -3.5712 -0.462336 0
M  V30 6396 C 626.226 -4.42186 0.824091 0
M  V30 6397 C 627.545 -4.21881 -1.25319 0
M  V30 6398 H 624.664 -0.733764 -0.0689899 0
M  V30 6399 H 627.306 -1.82796 0.518231 0
M  V30 6400 H 625.456 -3.73504 -1.06896 0
M  V30 6401 H 627.128 -4.37554 1.46096 0
M  V30 6402 H 625.371 -4.09219 1.43952 0
M  V30 6403 H 626.042 -5.48828 0.590905 0
M  V30 6404 H 628.518 -4.0947 -0.73981 0
M  V30 6405 H 627.394 -5.30487 -1.40977 0
M  V30 6406 H 627.655 -3.79478 -2.26824 0
M  V30 6407 N 626.714 -0.118576 -1.57153 0
M  V30 6408 C 627.624 0.845484 -2.18835 0
M  V30 6409 C 628.64 1.29299 -1.16438 0
M  V30 6410 O 629.816 1.35607 -1.48905 0
M  V30 6411 C 626.881 2.07795 -2.77529 0
M  V30 6412 C 625.942 1.6824 -3.9496 0
M  V30 6413 C 625.175 2.85612 -4.50845 0
M  V30 6414 O 625.398 4.01025 -4.05629 0
M  V30 6415 O 624.332 2.62721 -5.41536 0
M  V30 6416 H 628.158 0.350568 -3.0167 0
M  V30 6417 H 625.743 0.107013 -1.49016 0
M  V30 6418 H 627.625 2.79978 -3.14945 0
M  V30 6419 H 626.3 2.56294 -1.97725 0
M  V30 6420 H 625.207 0.931663 -3.62313 0
M  V30 6421 H 626.54 1.24484 -4.76198 0
M  V30 6422 N 628.193 1.56834 0.155195 0
M  V30 6423 C 629.439 1.83169 0.870467 0
M  V30 6424 C 629.772 0.698929 1.81187 0
M  V30 6425 O 629.047 -0.298035 1.92203 0
M  V30 6426 C 629.33 3.19965 1.65211 0
M  V30 6427 C 629.183 4.43792 0.732744 0
M  V30 6428 C 630.502 3.53885 2.61636 0
M  V30 6429 H 627.621 0.666288 0.315006 0
M  V30 6430 H 630.263 1.89513 0.135988 0
M  V30 6431 H 628.413 3.14687 2.27825 0
M  V30 6432 H 630.085 4.61148 0.118236 0
M  V30 6433 H 628.328 4.3378 0.0417906 0
M  V30 6434 H 628.999 5.36095 1.31552 0
M  V30 6435 H 631.475 3.5972 2.09143 0
M  V30 6436 H 630.351 4.50648 3.13381 0
M  V30 6437 H 630.612 2.79418 3.42605 0
M  V30 6438 N 629.671 -0.424282 1.51781 0
M  V30 6439 C 630.901 -1.19297 1.68677 0
M  V30 6440 C 631.309 -1.85152 0.389258 0
M  V30 6441 O 630.652 -1.72067 -0.643311 0
M  V30 6442 C 630.714 -2.30929 2.75521 0
M  V30 6443 C 630.378 -1.85335 4.17732 0
M  V30 6444 C 631.375 -1.34951 5.0208 0
M  V30 6445 C 629.06 -1.92629 4.63896 0
M  V30 6446 C 631.054 -0.924636 6.30658 0
M  V30 6447 C 628.741 -1.49754 5.92467 0
M  V30 6448 C 629.739 -0.997543 6.75676 0
M  V30 6449 O 629.427 -0.57492 8.01842 0
M  V30 6450 H 629.159 -0.36512 0.568914 0
M  V30 6451 H 631.713 -0.507327 1.99036 0
M  V30 6452 H 629.943 -3.02811 2.40505 0
M  V30 6453 H 631.632 -2.92748 2.81165 0
M  V30 6454 H 632.398 -1.287 4.67612 0
M  V30 6455 H 628.277 -2.30491 3.99243 0
M  V30 6456 H 631.821 -0.533682 6.95556 0
M  V30 6457 H 627.718 -1.55679 6.26446 0
M  V30 6458 H 628.486 -0.699597 8.15505 0
M  V30 6459 N 631.149 -1.42148 -0.680565 0
M  V30 6460 C 632.099 -1.41634 -1.78672 0
M  V30 6461 C 633.083 -0.288494 -1.58293 0
M  V30 6462 O 634.275 -0.530295 -1.68869 0
M  V30 6463 C 631.404 -1.31558 -3.17092 0
M  V30 6464 C 630.49 -2.49265 -3.43115 0
M  V30 6465 N 630.881 -3.74702 -3.39753 0
M  V30 6466 C 629.179 -2.43401 -3.73727 0
M  V30 6467 C 629.88 -4.52854 -3.651 0
M  V30 6468 N 628.856 -3.83181 -3.85582 0
M  V30 6469 H 632.658 -2.3652 -1.74458 0
M  V30 6470 H 630.172 -1.36415 -0.881171 0
M  V30 6471 H 632.169 -1.29272 -3.96351 0
M  V30 6472 H 630.829 -0.376696 -3.22508 0
M  V30 6473 H 631.84 -4.07378 -3.19787 0
M  V30 6474 H 628.517 -1.58062 -3.86423 0
M  V30 6475 H 629.907 -5.61827 -3.6851 0
M  V30 6476 N 632.627 0.916307 -1.28225 0
M  V30 6477 C 633.59 1.99996 -1.11957 0
M  V30 6478 C 634.59 1.60688 -0.0600152 0
M  V30 6479 O 635.78 1.71499 -0.30558 0
M  V30 6480 C 632.912 3.33458 -0.708411 0
M  V30 6481 H 634.105 2.15858 -2.08196 0
M  V30 6482 H 631.658 1.09863 -1.11175 0
M  V30 6483 H 632.393 3.23297 0.254859 0
M  V30 6484 H 632.178 3.63349 -1.47377 0
M  V30 6485 H 633.668 4.13014 -0.617164 0
M  V30 6486 N 634.105 1.10431 1.1244 0
M  V30 6487 C 635.055 0.722378 2.16254 0
M  V30 6488 C 636.039 -0.268427 1.58645 0
M  V30 6489 O 637.231 -0.077169 1.76832 0
M  V30 6490 C 634.36 0.155763 3.42946 0
M  V30 6491 C 633.446 1.17361 4.07538 0
M  V30 6492 N 633.837 2.36429 4.47141 0
M  V30 6493 C 632.135 1.01412 4.34317 0
M  V30 6494 C 632.836 3.01259 4.97612 0
M  V30 6495 N 631.812 2.28777 4.93115 0
M  V30 6496 H 635.614 1.62876 2.4464 0
M  V30 6497 H 633.128 0.982031 1.29344 0
M  V30 6498 H 635.125 -0.135936 4.16678 0
M  V30 6499 H 633.785 -0.745339 3.1603 0
M  V30 6500 H 634.796 2.73954 4.39511 0
M  V30 6501 H 631.473 0.168574 4.1716 0
M  V30 6502 H 632.863 4.02541 5.37968 0
M  V30 6503 N 635.583 -1.29855 0.893053 0
M  V30 6504 C 636.813 -1.99686 0.530019 0
M  V30 6505 C 637.221 -1.67066 -0.888012 0
M  V30 6506 O 636.564 -0.908366 -1.5967 0
M  V30 6507 C 636.626 -3.53855 0.63457 0
M  V30 6508 C 636.29 -4.10013 2.01837 0
M  V30 6509 C 637.287 -4.25406 2.98874 0
M  V30 6510 C 634.972 -4.45202 2.32595 0
M  V30 6511 C 636.966 -4.7521 4.24799 0
M  V30 6512 C 634.653 -4.94704 3.58763 0
M  V30 6513 C 635.651 -5.09662 4.5468 0
M  V30 6514 O 635.339 -5.58093 5.78608 0
M  V30 6515 H 635.071 -0.644913 0.20264 0
M  V30 6516 H 637.625 -1.66518 1.20253 0
M  V30 6517 H 635.855 -3.86583 -0.0949477 0
M  V30 6518 H 637.544 -4.04922 0.281648 0
M  V30 6519 H 638.31 -3.98515 2.76425 0
M  V30 6520 H 634.189 -4.32822 1.58701 0
M  V30 6521 H 637.733 -4.86801 4.99671 0
M  V30 6522 H 633.63 -5.21032 3.81046 0
M  V30 6523 H 634.398 -5.7642 5.81104 0
M  V30 6524 N 637.061 -0.65484 -1.43351 0
M  V30 6525 C 638.008 0.0357713 -2.30772 0
M  V30 6526 C 638.978 0.813035 -1.44841 0
M  V30 6527 O 640.163 0.789314 -1.73708 0
M  V30 6528 C 637.303 0.995084 -3.30442 0
M  V30 6529 C 636.416 0.21375 -4.31471 0
M  V30 6530 C 635.551 1.16701 -5.18222 0
M  V30 6531 C 634.59 0.376201 -6.10943 0
M  V30 6532 N 633.727 1.28113 -6.90313 0
M  V30 6533 H 638.567 -0.71559 -2.89281 0
M  V30 6534 H 636.104 -0.364645 -1.42509 0
M  V30 6535 H 638.062 1.5649 -3.86739 0
M  V30 6536 H 636.692 1.7133 -2.7358 0
M  V30 6537 H 635.744 -0.472377 -3.77456 0
M  V30 6538 H 637.056 -0.401103 -4.97185 0
M  V30 6539 H 636.21 1.8074 -5.79153 0
M  V30 6540 H 634.949 1.81577 -4.52638 0
M  V30 6541 H 633.954 -0.277534 -5.49099 0
M  V30 6542 H 635.179 -0.268178 -6.7857 0
M  V30 6543 H 633.125 1.91666 -6.27376 0
M  V30 6544 H 633.042 0.720879 -7.52555 0
M  V30 6545 H 634.31 1.90962 -7.55747 0
M  V30 6546 N 638.539 1.52521 -0.396863 0
M  V30 6547 C 639.95 1.86547 0.0754868 0
M  V30 6548 C 640.301 1.31621 1.45501 0
M  V30 6549 O 639.426 0.650563 2.0639 0
M  V30 6550 C 640.021 3.38495 0.143754 0
M  V30 6551 C 638.58 3.72205 0.560413 0
M  V30 6552 C 637.727 2.75954 -0.272856 0
M  V30 6553 H 640.678 1.46323 -0.614434 0
M  V30 6554 H 640.699 3.68153 0.961425 0
M  V30 6555 H 640.211 3.78442 -0.860415 0
M  V30 6556 H 638.312 3.3783 1.57167 0
M  V30 6557 H 638.425 4.78074 0.313314 0
M  V30 6558 H 636.789 2.53339 0.263 0
M  V30 6559 H 637.572 3.1874 -1.27515 0
M  V30 6560 N 640.017 0.126909 1.57088 0
M  V30 6561 C 640.947 -0.816847 2.18746 0
M  V30 6562 C 641.928 -1.27161 1.12979 0
M  V30 6563 O 643.113 -1.33279 1.41246 0
M  V30 6564 C 640.243 -2.06398 2.79315 0
M  V30 6565 C 639.197 -1.74673 3.90735 0
M  V30 6566 C 638.523 -3.06482 4.38147 0
M  V30 6567 C 639.823 -1.0089 5.12463 0
M  V30 6568 H 641.517 -0.303032 2.97863 0
M  V30 6569 H 639.063 -0.144314 1.43275 0
M  V30 6570 H 641.016 -2.72885 3.2111 0
M  V30 6571 H 639.74 -2.60118 1.975 0
M  V30 6572 H 638.399 -1.10572 3.49527 0
M  V30 6573 H 638.047 -3.58152 3.5318 0
M  V30 6574 H 637.747 -2.86025 5.13287 0
M  V30 6575 H 639.271 -3.74073 4.82599 0
M  V30 6576 H 640.685 -1.57546 5.51228 0
M  V30 6577 H 639.082 -0.905006 5.93237 0
M  V30 6578 H 640.152 0.00297335 4.849 0
M  V30 6579 N 641.495 -1.56914 -0.146875 0
M  V30 6580 C 642.405 -2.0154 -1.20079 0
M  V30 6581 C 643.421 -0.930838 -1.47008 0
M  V30 6582 O 644.597 -1.24032 -1.58676 0
M  V30 6583 C 641.662 -2.38715 -2.51428 0
M  V30 6584 C 640.723 -3.6112 -2.32145 0
M  V30 6585 C 639.956 -3.96512 -3.57231 0
M  V30 6586 O 640.179 -3.32566 -4.63418 0
M  V30 6587 O 639.113 -4.89758 -3.49887 0
M  V30 6588 H 642.939 -2.91506 -0.851924 0
M  V30 6589 H 640.524 -1.45106 -0.355607 0
M  V30 6590 H 642.406 -2.63485 -3.28867 0
M  V30 6591 H 641.081 -1.51903 -2.85845 0
M  V30 6592 H 639.988 -3.41536 -1.52656 0
M  V30 6593 H 641.321 -4.48549 -2.02644 0
M  V30 6594 N 642.974 0.416227 -1.52004 0
M  V30 6595 C 644.221 1.16383 -1.65714 0
M  V30 6596 C 644.549 1.9068 -0.383594 0
M  V30 6597 O 643.804 1.85174 0.633185 0
M  V30 6598 C 644.103 2.18923 -2.82502 0
M  V30 6599 C 643.769 1.61485 -4.20991 0
M  V30 6600 C 642.431 1.45545 -4.58661 0
M  V30 6601 C 644.783 1.19468 -5.07323 0
M  V30 6602 C 642.111 0.860937 -5.80349 0
M  V30 6603 C 644.463 0.614386 -6.29609 0
M  V30 6604 C 643.127 0.442056 -6.66035 0
M  V30 6605 H 642.397 0.425875 -0.606392 0
M  V30 6606 H 645.044 0.45199 -1.8609 0
M  V30 6607 H 643.349 2.96225 -2.56433 0
M  V30 6608 H 645.046 2.76628 -2.90307 0
M  V30 6609 H 641.636 1.74873 -3.91302 0
M  V30 6610 H 645.82 1.30596 -4.78809 0
M  V30 6611 H 641.076 0.715372 -6.072 0
M  V30 6612 H 645.25 0.280393 -6.95835 0
M  V30 6613 H 642.877 -0.0207218 -7.60197 0
M  V30 6614 N 644.452 1.42507 0.673017 0
M  V30 6615 C 645.68 1.46473 1.46128 0
M  V30 6616 C 646.095 0.0765912 1.88645 0
M  V30 6617 O 645.452 -0.909057 1.58248 0
M  V30 6618 C 645.503 2.39339 2.70923 0
M  V30 6619 O 645.224 3.72752 2.3019 0
M  V30 6620 C 646.725 2.52343 3.64469 0
M  V30 6621 H 643.945 0.49812 0.449575 0
M  V30 6622 H 646.489 1.87041 0.826802 0
M  V30 6623 H 644.644 2.02019 3.30556 0
M  V30 6624 H 645.058 4.22503 3.10791 0
M  V30 6625 H 646.532 3.2144 4.48754 0
M  V30 6626 H 647.009 1.56189 4.1049 0
M  V30 6627 H 647.615 2.90392 3.10729 0
M  V30 6628 N 645.93 -0.909495 1.28709 0
M  V30 6629 C 647.176 -1.66151 1.16283 0
M  V30 6630 C 647.509 -1.92067 -0.287069 0
M  V30 6631 O 646.784 -1.52409 -1.20837 0
M  V30 6632 C 647.067 -3.01676 1.9663 0
M  V30 6633 C 646.92 -2.82888 3.49707 0
M  V30 6634 C 648.239 -4.02274 1.78504 0
M  V30 6635 H 645.358 -0.602966 0.423793 0
M  V30 6636 H 648 -1.05418 1.58073 0
M  V30 6637 H 646.15 -3.53515 1.61119 0
M  V30 6638 H 647.822 -2.38026 3.95147 0
M  V30 6639 H 646.065 -2.17862 3.75125 0
M  V30 6640 H 646.736 -3.79147 4.01187 0
M  V30 6641 H 649.212 -3.59511 2.09503 0
M  V30 6642 H 648.088 -4.95056 2.37088 0
M  V30 6643 H 648.349 -4.35903 0.737647 0
M  V30 6644 N 647.408 -1.11026 -1.11852 0
M  V30 6645 C 648.371 -0.768006 -2.1595 0
M  V30 6646 C 649.371 0.210538 -1.59416 0
M  V30 6647 O 650.561 -0.0133978 -1.74195 0
M  V30 6648 C 647.693 -0.138678 -3.40618 0
M  V30 6649 H 648.886 -1.69012 -2.4774 0
M  V30 6650 H 646.439 -0.911578 -1.26964 0
M  V30 6651 H 647.174 0.793872 -3.14433 0
M  V30 6652 H 646.959 -0.843012 -3.8293 0
M  V30 6653 H 648.449 0.0848039 -4.17514 0
M  V30 6654 N 648.886 1.2938 -0.899927 0
M  V30 6655 C 650.134 1.95164 -0.524924 0
M  V30 6656 C 650.455 1.71292 0.931888 0
M  V30 6657 O 649.725 1.04481 1.65712 0
M  V30 6658 H 648.305 0.722133 -0.191135 0
M  V30 6659 H 650.967 1.57628 -1.14627 0
M  V30 6660 H 650.063 3.0397 -0.707711 0
M  V30 6661 N 650.364 0.662433 1.43002 0
M  V30 6662 C 651.78 0.330835 1.56133 0
M  V30 6663 C 651.98 -1.16454 1.64441 0
M  V30 6664 O 651.036 -1.94964 1.60453 0
M  V30 6665 C 652.349 1.05029 2.81761 0
M  V30 6666 C 653.897 1.03142 2.95518 0
M  V30 6667 C 654.372 1.73196 4.2399 0
M  V30 6668 N 655.863 1.70004 4.30875 0
M  V30 6669 C 656.598 2.21074 5.29069 0
M  V30 6670 N 656.094 2.80473 6.33488 0
M  V30 6671 N 657.887 2.1152 5.20784 0
M  V30 6672 H 650.038 1.63272 1.35853 0
M  V30 6673 H 652.301 0.687149 0.653092 0
M  V30 6674 H 652.007 2.10542 2.81718 0
M  V30 6675 H 651.881 0.607664 3.72273 0
M  V30 6676 H 654.268 -0.0153339 2.95096 0
M  V30 6677 H 654.349 1.51282 2.0627 0
M  V30 6678 H 653.993 2.77833 4.25172 0
M  V30 6679 H 653.923 1.22515 5.1215 0
M  V30 6680 H 656.414 1.26667 3.56039 0
M  V30 6681 H 656.727 3.17094 7.04749 0
M  V30 6682 H 655.072 2.84538 6.34085 0
M  V30 6683 H 658.263 1.64814 4.38126 0
M  V30 6684 H 658.436 2.51629 5.97149 0
M  V30 6685 N 651.842 -1.52309 0.404946 0
M  V30 6686 C 653.119 -1.94237 -0.230544 0
M  V30 6687 C 653.499 -1.34154 -1.6299 0
M  V30 6688 O 652.847 -0.515713 -2.22604 0
M  V30 6689 C 653.057 -3.48166 -0.241106 0
M  V30 6690 C 654.405 -4.22074 -0.462488 0
M  V30 6691 O 655.429 -3.54754 -0.320644 0
M  V30 6692 O 654.288 -5.41443 -0.741708 0
M  V30 6693 H 651.382 -0.813766 -0.147358 0
M  V30 6694 H 653.928 -1.6333 0.460587 0
M  V30 6695 H 652.7 -3.84269 0.738467 0
M  V30 6696 H 652.323 -3.85422 -0.97651 0
M  V30 6697 N 653.32 -0.135238 -1.57019 0
M  V30 6698 C 654.283 0.794707 -2.14981 0
M  V30 6699 C 655.283 1.18342 -1.08866 0
M  V30 6700 O 656.473 1.10627 -1.34563 0
M  V30 6701 C 653.605 2.07685 -2.70333 0
M  V30 6702 H 654.798 0.290696 -2.98488 0
M  V30 6703 H 652.351 0.114128 -1.55883 0
M  V30 6704 H 653.086 2.6248 -1.9046 0
M  V30 6705 H 652.871 1.80745 -3.47957 0
M  V30 6706 H 654.361 2.74127 -3.1503 0
M  V30 6707 N 654.798 1.5699 0.138552 0
M  V30 6708 C 656.023 1.88344 0.86841 0
M  V30 6709 C 656.448 0.725159 1.7356 0
M  V30 6710 O 655.806 -0.324992 1.78363 0
M  V30 6711 C 655.854 3.18334 1.69398 0
M  V30 6712 O 654.958 3.02863 2.79907 0
M  V30 6713 H 654.299 0.618577 0.241367 0
M  V30 6714 H 656.829 2.04207 0.126826 0
M  V30 6715 H 656.839 3.50567 2.08726 0
M  V30 6716 H 655.514 4.02238 1.05725 0
M  V30 6717 H 654.091 2.82056 2.43924 0
M  V30 6718 N 656.276 -0.40816 1.52223 0
M  V30 6719 C 657.208 -1.51642 1.71864 0
M  V30 6720 C 658.221 -1.51378 0.599056 0
M  V30 6721 O 659.41 -1.55626 0.874239 0
M  V30 6722 C 656.51 -2.90534 1.74481 0
M  V30 6723 C 655.683 -3.14979 3.03491 0
M  V30 6724 C 654.742 -4.33749 2.97907 0
M  V30 6725 O 653.768 -4.30982 3.71811 0
M  V30 6726 N 654.97 -5.38912 2.15764 0
M  V30 6727 H 657.735 -1.35188 2.67478 0
M  V30 6728 H 655.296 -0.597468 1.50472 0
M  V30 6729 H 657.288 -3.68056 1.68275 0
M  V30 6730 H 655.858 -3.00441 0.863363 0
M  V30 6731 H 655.078 -2.25492 3.23337 0
M  V30 6732 H 656.366 -3.28156 3.88833 0
M  V30 6733 H 655.764 -5.44008 1.55152 0
M  V30 6734 H 654.321 -6.15174 2.15415 0
M  V30 6735 N 657.755 -1.42862 -0.66545 0
M  V30 6736 C 658.995 -1.45323 -1.43738 0
M  V30 6737 C 659.359 -0.0707969 -1.91869 0
M  V30 6738 O 660.56 0.0298852 -2.68783 0
M  V30 6739 C 658.831 -2.45671 -2.59577 0
M  V30 6740 S 660.39 -2.6691 -3.48288 0
M  V30 6741 H 657.208 -0.51442 -0.490809 0
M  V30 6742 H 659.81 -1.79537 -0.773745 0
M  V30 6743 H 658.514 -3.44869 -2.22471 0
M  V30 6744 H 658.045 -2.12914 -3.30804 0
M  V30 6745 H 660.06 -1.95914 -4.55886 0
M  V30 6746 N 659.233 0.902656 -1.29189 0
M  V30 6747 C 660.463 1.68394 -1.19695 0
M  V30 6748 C 660.871 1.87602 0.245384 0
M  V30 6749 O 660.214 1.41084 1.17648 0
M  V30 6750 C 660.276 3.09094 -1.83578 0
M  V30 6751 C 659.94 3.1313 -3.32864 0
M  V30 6752 C 660.937 2.93497 -4.29134 0
M  V30 6753 C 658.622 3.3529 -3.74013 0
M  V30 6754 C 660.616 2.95953 -5.64527 0
M  V30 6755 C 658.303 3.37377 -5.09529 0
M  V30 6756 C 659.301 3.1773 -6.04596 0
M  V30 6757 O 658.989 3.196 -7.37639 0
M  V30 6758 H 658.721 0.532815 -0.416034 0
M  V30 6759 H 661.275 1.1374 -1.71033 0
M  V30 6760 H 659.505 3.65338 -1.26747 0
M  V30 6761 H 661.194 3.69297 -1.68447 0
M  V30 6762 H 661.96 2.76192 -3.98677 0
M  V30 6763 H 657.839 3.49623 -3.00474 0
M  V30 6764 H 661.383 2.80536 -6.38706 0
M  V30 6765 H 657.28 3.54213 -5.39633 0
M  V30 6766 H 658.048 3.35887 -7.46406 0
M  V30 6767 N 660.711 1.11618 1.11262 0
M  V30 6768 C 661.957 0.867463 1.83311 0
M  V30 6769 C 662.29 -0.605366 1.84524 0
M  V30 6770 O 661.565 -1.44704 1.29965 0
M  V30 6771 C 661.848 1.43207 3.30399 0
M  V30 6772 C 661.701 2.97265 3.3757 0
M  V30 6773 C 663.02 1.08454 4.26528 0
M  V30 6774 H 660.139 0.316578 0.665543 0
M  V30 6775 H 662.781 1.38137 1.30454 0
M  V30 6776 H 660.931 0.994982 3.75543 0
M  V30 6777 H 662.603 3.49591 3.00971 0
M  V30 6778 H 660.846 3.33237 2.77733 0
M  V30 6779 H 661.517 3.31859 4.41105 0
M  V30 6780 H 663.993 1.4619 3.89574 0
M  V30 6781 H 662.869 1.50633 5.27826 0
M  V30 6782 H 663.13 -0.00444568 4.421 0
M  V30 6783 N 662.189 -1.289 0.906776 0
M  V30 6784 C 663.136 -2.2751 0.388313 0
M  V30 6785 C 664.106 -1.57301 -0.533439 0
M  V30 6786 O 665.291 -1.85243 -0.457148 0
M  V30 6787 C 662.431 -3.43091 -0.37181 0
M  V30 6788 C 661.544 -4.28066 0.581647 0
M  V30 6789 C 660.679 -5.30837 -0.19623 0
M  V30 6790 C 659.718 -6.07472 0.751294 0
M  V30 6791 N 658.855 -7.021 0.00737727 0
M  V30 6792 H 663.695 -2.71237 1.23428 0
M  V30 6793 H 661.232 -1.33397 0.619962 0
M  V30 6794 H 663.19 -4.08888 -0.828641 0
M  V30 6795 H 661.82 -3.00374 -1.18218 0
M  V30 6796 H 660.872 -3.62378 1.157 0
M  V30 6797 H 662.184 -4.81382 1.30665 0
M  V30 6798 H 661.338 -6.02485 -0.71394 0
M  V30 6799 H 660.077 -4.78272 -0.954324 0
M  V30 6800 H 659.082 -5.34682 1.28044 0
M  V30 6801 H 660.307 -6.62126 1.50883 0
M  V30 6802 H 658.253 -6.51894 -0.732854 0
M  V30 6803 H 658.17 -7.53004 0.672334 0
M  V30 6804 H 659.438 -7.77956 -0.490365 0
M  V30 6805 N 663.667 -0.670007 -1.42649 0
M  V30 6806 C 664.6 0.0613623 -2.28117 0
M  V30 6807 C 665.578 0.813414 -1.40792 0
M  V30 6808 O 666.762 0.809529 -1.70232 0
M  V30 6809 C 663.889 1.09399 -3.20546 0
M  V30 6810 C 662.935 0.438064 -4.24244 0
M  V30 6811 S 663.768 -0.800808 -5.29478 0
M  V30 6812 C 664.924 0.23086 -6.25474 0
M  V30 6813 H 665.157 -0.663606 -2.89799 0
M  V30 6814 H 662.69 -0.45939 -1.47407 0
M  V30 6815 H 664.648 1.68469 -3.74337 0
M  V30 6816 H 663.309 1.79137 -2.58009 0
M  V30 6817 H 662.502 1.21707 -4.89084 0
M  V30 6818 H 662.104 -0.0789346 -3.73917 0
M  V30 6819 H 664.396 1.09204 -6.68641 0
M  V30 6820 H 665.339 -0.382945 -7.07064 0
M  V30 6821 H 665.747 0.574191 -5.61572 0
M  V30 6822 N 665.145 1.52092 -0.413018 0
M  V30 6823 C 666.391 2.02154 0.161737 0
M  V30 6824 C 666.724 1.29789 1.44459 0
M  V30 6825 O 665.999 0.405378 1.90229 0
M  V30 6826 C 666.282 3.5781 0.405463 0
M  V30 6827 C 666.135 4.40819 -0.894335 0
M  V30 6828 C 667.454 4.23821 1.18591 0
M  V30 6829 H 664.573 0.734769 0.0573077 0
M  V30 6830 H 667.215 1.81948 -0.547247 0
M  V30 6831 H 665.365 3.75158 1.0094 0
M  V30 6832 H 667.037 4.35175 -1.53039 0
M  V30 6833 H 665.28 4.06877 -1.50444 0
M  V30 6834 H 665.951 5.47819 -0.678144 0
M  V30 6835 H 668.427 4.10596 0.674573 0
M  V30 6836 H 667.303 5.32663 1.3252 0
M  V30 6837 H 667.564 3.83038 2.20758 0
M  V30 6838 N 666.623 0.143563 1.56945 0
M  V30 6839 C 667.863 -0.511198 1.97904 0
M  V30 6840 C 668.227 -1.62262 1.0264 0
M  V30 6841 O 669.428 -2.338 1.32631 0
M  V30 6842 C 667.699 -1.00753 3.42905 0
M  V30 6843 S 669.258 -1.66737 4.05887 0
M  V30 6844 H 666.076 -0.165399 0.691494 0
M  V30 6845 H 668.678 0.234464 1.94089 0
M  V30 6846 H 667.382 -0.187817 4.0997 0
M  V30 6847 H 666.913 -1.7879 3.50425 0
M  V30 6848 H 668.928 -2.95444 3.98657 0
M  V30 6849 N 668.101 -1.57061 -0.130224 0
M  V30 6850 C 669.031 -2.02552 -1.16168 0
M  V30 6851 C 670.012 -0.907971 -1.4384 0
M  V30 6852 O 671.197 -1.17693 -1.54473 0
M  V30 6853 C 668.327 -2.42035 -2.49071 0
M  V30 6854 C 667.281 -3.5713 -2.35886 0
M  V30 6855 C 666.607 -3.82478 -3.7365 0
M  V30 6856 C 667.907 -4.89236 -1.8288 0
M  V30 6857 H 669.601 -2.8897 -0.783359 0
M  V30 6858 H 667.147 -1.39021 -0.375376 0
M  V30 6859 H 669.1 -2.72462 -3.21469 0
M  V30 6860 H 667.824 -1.52573 -2.88771 0
M  V30 6861 H 666.483 -3.26895 -1.65938 0
M  V30 6862 H 666.131 -2.9024 -4.10816 0
M  V30 6863 H 665.831 -4.59944 -3.65685 0
M  V30 6864 H 667.355 -4.15347 -4.47571 0
M  V30 6865 H 668.769 -5.18272 -2.45085 0
M  V30 6866 H 667.166 -5.70624 -1.85763 0
M  V30 6867 H 668.236 -4.78494 -0.785571 0
M  V30 6868 N 669.579 0.400081 -1.52437 0
M  V30 6869 C 670.995 0.739359 -1.41441 0
M  V30 6870 C 671.195 1.94512 -0.526053 0
M  V30 6871 O 670.251 2.525 0.00472502 0
M  V30 6872 C 671.564 0.984824 -2.84116 0
M  V30 6873 C 673.112 1.08698 -2.93519 0
M  V30 6874 C 673.587 1.36515 -4.37181 0
M  V30 6875 N 675.078 1.43361 -4.40457 0
M  V30 6876 C 675.813 1.66528 -5.48686 0
M  V30 6877 N 675.309 1.87239 -6.67018 0
M  V30 6878 N 677.102 1.68617 -5.36213 0
M  V30 6879 H 669.253 -0.393484 -2.08723 0
M  V30 6880 H 671.516 -0.1138 -0.941145 0
M  V30 6881 H 671.222 0.171096 -3.51284 0
M  V30 6882 H 671.096 1.90253 -3.25705 0
M  V30 6883 H 673.483 1.89129 -2.26526 0
M  V30 6884 H 673.564 0.147432 -2.55375 0
M  V30 6885 H 673.208 0.565982 -5.04737 0
M  V30 6886 H 673.138 2.31737 -4.7287 0
M  V30 6887 H 675.629 1.29108 -3.55161 0
M  V30 6888 H 675.942 2.04392 -7.45281 0
M  V30 6889 H 674.287 1.84486 -6.70067 0
M  V30 6890 H 677.478 1.5198 -4.42741 0
M  V30 6891 H 677.651 1.86332 -6.20632 0
M  V30 6892 N 671.057 1.43213 0.657864 0
M  V30 6893 C 671.967 1.50448 1.80007 0
M  V30 6894 C 672.983 0.39191 1.69529 0
M  V30 6895 O 674.159 0.645349 1.90781 0
M  V30 6896 C 671.224 1.42062 3.16258 0
M  V30 6897 C 670.285 2.63951 3.38568 0
M  V30 6898 C 669.518 2.55956 4.68318 0
M  V30 6899 O 669.741 1.60473 5.47361 0
M  V30 6900 O 668.675 3.46378 4.92245 0
M  V30 6901 H 672.501 2.4689 1.76858 0
M  V30 6902 H 670.086 1.25163 0.81576 0
M  V30 6903 H 671.968 1.3981 3.97531 0
M  V30 6904 H 670.643 0.487524 3.20008 0
M  V30 6905 H 669.55 2.71776 2.57077 0
M  V30 6906 H 670.883 3.56217 3.39662 0
M  V30 6907 N 672.536 -0.895792 1.29666 0
M  V30 6908 C 673.947 -1.46195 1.1612 0
M  V30 6909 C 674.298 -1.94699 -0.242195 0
M  V30 6910 O 673.423 -1.8406 -1.13802 0
M  V30 6911 C 674.018 -2.65718 2.10189 0
M  V30 6912 C 672.577 -3.18458 2.00653 0
M  V30 6913 C 671.724 -1.91149 2.00891 0
M  V30 6914 H 674.675 -0.706756 1.42094 0
M  V30 6915 H 674.696 -3.4158 1.6764 0
M  V30 6916 H 674.208 -2.30386 3.12321 0
M  V30 6917 H 672.309 -3.58474 1.01623 0
M  V30 6918 H 672.422 -3.82491 2.88509 0
M  V30 6919 H 670.786 -2.09021 1.45542 0
M  V30 6920 H 671.569 -1.58089 3.04734 0
M  V30 6921 N 674.014 -1.12206 -1.10668 0
M  V30 6922 C 675.425 -0.890657 -1.64086 0
M  V30 6923 C 675.776 0.575502 -1.8757 0
M  V30 6924 O 674.901 1.4394 -1.61587 0
M  V30 6925 C 675.496 -1.61029 -2.98085 0
M  V30 6926 C 674.055 -1.4251 -3.48379 0
M  V30 6927 C 673.202 -1.64778 -2.23033 0
M  V30 6928 H 676.153 -1.27718 -0.94201 0
M  V30 6929 H 676.174 -1.05993 -3.65439 0
M  V30 6930 H 675.686 -2.67735 -2.80962 0
M  V30 6931 H 673.787 -0.380497 -3.70652 0
M  V30 6932 H 673.9 -2.17959 -4.26651 0
M  V30 6933 H 672.264 -1.07171 -2.31055 0
M  V30 6934 H 673.047 -2.72776 -2.08443 0
M  V30 6935 N 675.492 1.28418 -0.913599 0
M  V30 6936 C 676.424 2.26368 -0.359169 0
M  V30 6937 C 677.437 1.54858 0.502285 0
M  V30 6938 O 678.626 1.75659 0.31719 0
M  V30 6939 C 675.726 3.35112 0.50526 0
M  V30 6940 C 674.899 4.36126 -0.333648 0
M  V30 6941 C 673.958 5.24134 0.465845 0
M  V30 6942 O 672.984 5.6907 -0.121538 0
M  V30 6943 N 674.186 5.52892 1.76891 0
M  V30 6944 H 676.951 2.74579 -1.2011 0
M  V30 6945 H 674.512 1.41898 -0.779532 0
M  V30 6946 H 676.504 3.90926 1.04684 0
M  V30 6947 H 675.074 2.86611 1.2479 0
M  V30 6948 H 674.294 3.79776 -1.0566 0
M  V30 6949 H 675.582 5.00638 -0.907669 0
M  V30 6950 H 674.98 5.18217 2.26865 0
M  V30 6951 H 673.537 6.11464 2.25732 0
M  V30 6952 N 676.97 0.677563 1.42291 0
M  V30 6953 C 677.9 0.014968 2.33495 0
M  V30 6954 C 678.881 -0.786376 1.50831 0
M  V30 6955 O 680.066 -0.742975 1.79426 0
M  V30 6956 C 677.196 -0.935023 3.34477 0
M  V30 6957 C 676.15 -0.242074 4.27315 0
M  V30 6958 C 675.476 -1.30519 5.18526 0
M  V30 6959 C 676.776 0.880604 5.14823 0
M  V30 6960 H 678.47 0.776671 2.89151 0
M  V30 6961 H 676.016 0.37494 1.39033 0
M  V30 6962 H 677.969 -1.40766 3.97194 0
M  V30 6963 H 676.693 -1.72818 2.77131 0
M  V30 6964 H 675.352 0.210351 3.65996 0
M  V30 6965 H 675 -2.09041 4.57505 0
M  V30 6966 H 674.7 -0.846652 5.81468 0
M  V30 6967 H 676.224 -1.7787 5.84119 0
M  V30 6968 H 677.638 0.489062 5.7121 0
M  V30 6969 H 676.035 1.26511 5.86613 0
M  V30 6970 H 677.105 1.72818 4.53059 0
M  V30 6971 N 678.448 -1.51871 0.421078 0
M  V30 6972 C 679.694 -2.02237 -0.151014 0
M  V30 6973 C 680.027 -1.30554 -1.43768 0
M  V30 6974 O 679.302 -0.41546 -1.90011 0
M  V30 6975 C 679.585 -3.5802 -0.386482 0
M  V30 6976 C 679.438 -4.40339 0.9177 0
M  V30 6977 C 680.757 -4.24444 -1.16342 0
M  V30 6978 H 677.876 -0.735062 -0.0534102 0
M  V30 6979 H 680.518 -1.81656 0.556888 0
M  V30 6980 H 678.668 -3.75688 -0.989494 0
M  V30 6981 H 680.34 -4.34357 1.55344 0
M  V30 6982 H 678.583 -4.06073 1.526 0
M  V30 6983 H 679.254 -5.47451 0.707187 0
M  V30 6984 H 681.73 -4.10948 -0.652788 0
M  V30 6985 H 680.606 -5.33358 -1.29693 0
M  V30 6986 H 680.867 -3.84204 -2.18724 0
M  V30 6987 N 679.926 -0.151884 -1.56866 0
M  V30 6988 C 680.856 0.781943 -2.20018 0
M  V30 6989 C 681.837 1.25347 -1.14987 0
M  V30 6990 O 683.022 1.31015 -1.43348 0
M  V30 6991 C 680.152 2.01928 -2.82564 0
M  V30 6992 C 679.106 1.68434 -3.93464 0
M  V30 6993 C 678.432 2.99472 -4.42968 0
M  V30 6994 C 679.732 0.927244 -5.14003 0
M  V30 6995 H 681.426 0.255607 -2.98307 0
M  V30 6996 H 678.972 0.121502 -1.43486 0
M  V30 6997 H 680.925 2.67741 -3.25411 0
M  V30 6998 H 679.649 2.56943 -2.01614 0
M  V30 6999 H 678.308 1.04998 -3.51242 0
M  V30 7000 H 677.956 3.52488 -3.58834 0
M  V30 7001 H 677.656 2.77823 -5.17772 0
M  V30 7002 H 679.18 3.66348 -4.88489 0
M  V30 7003 H 680.594 1.48756 -5.53665 0
M  V30 7004 H 678.991 0.810513 -5.94601 0
M  V30 7005 H 680.061 -0.0801163 -4.84834 0
M  V30 7006 N 681.404 1.57128 0.121893 0
M  V30 7007 C 682.652 1.84335 0.828548 0
M  V30 7008 C 682.973 0.736632 1.80551 0
M  V30 7009 O 682.243 -0.23962 1.94429 0
M  V30 7010 H 680.823 0.680108 0.30897 0
M  V30 7011 H 683.485 1.9459 0.109906 0
M  V30 7012 H 682.581 2.80152 1.37554 0
M  V30 7013 N 682.882 -0.391992 1.52647 0
M  V30 7014 C 683.812 -1.48517 1.8018 0
M  V30 7015 C 684.793 -1.57039 0.653667 0
M  V30 7016 O 685.978 -1.72036 0.900962 0
M  V30 7017 C 683.108 -2.86161 1.96797 0
M  V30 7018 C 682.062 -2.92481 3.12472 0
M  V30 7019 C 681.388 -4.32546 3.14338 0
M  V30 7020 C 682.688 -2.624 4.51601 0
M  V30 7021 H 684.382 -1.25726 2.71723 0
M  V30 7022 H 681.928 -0.603387 1.30749 0
M  V30 7023 H 683.881 -3.62639 2.14641 0
M  V30 7024 H 682.605 -3.10283 1.01941 0
M  V30 7025 H 681.264 -2.18451 2.94406 0
M  V30 7026 H 680.912 -4.53703 2.1717 0
M  V30 7027 H 680.612 -4.37695 3.92042 0
M  V30 7028 H 682.136 -5.10934 3.34333 0
M  V30 7029 H 683.55 -3.28596 4.69785 0
M  V30 7030 H 681.947 -2.78903 5.3135 0
M  V30 7031 H 683.017 -1.57754 4.58521 0
M  V30 7032 N 684.36 -1.4356 -0.65026 0
M  V30 7033 C 685.31 -1.45392 -1.75628 0
M  V30 7034 C 686.294 -0.322006 -1.57645 0
M  V30 7035 O 687.486 -0.565996 -1.67707 0
M  V30 7036 C 684.615 -1.38254 -3.1423 0
M  V30 7037 C 683.701 -2.56487 -3.3775 0
M  V30 7038 N 684.092 -3.81824 -3.31729 0
M  V30 7039 C 682.39 -2.51274 -3.6848 0
M  V30 7040 C 683.091 -4.60497 -3.55412 0
M  V30 7041 N 682.067 -3.91274 -3.77367 0
M  V30 7042 H 685.869 -2.40167 -1.69402 0
M  V30 7043 H 683.383 -1.38254 -0.852037 0
M  V30 7044 H 685.38 -1.3765 -3.9352 0
M  V30 7045 H 684.04 -0.445019 -3.21636 0
M  V30 7046 H 685.051 -4.14069 -3.11074 0
M  V30 7047 H 681.728 -1.66223 -3.82983 0
M  V30 7048 H 683.118 -5.69518 -3.5651 0
M  V30 7049 N 685.838 0.888903 -1.30139 0
M  V30 7050 C 687.085 1.64037 -1.18736 0
M  V30 7051 C 687.413 1.92771 0.258801 0
M  V30 7052 O 686.668 1.54427 1.20212 0
M  V30 7053 C 686.967 2.99041 -1.95728 0
M  V30 7054 C 686.633 2.89874 -3.45375 0
M  V30 7055 C 685.295 2.87082 -3.86183 0
M  V30 7056 C 687.647 2.78289 -4.40687 0
M  V30 7057 C 684.975 2.70536 -5.20603 0
M  V30 7058 C 687.327 2.63282 -5.75209 0
M  V30 7059 C 685.991 2.58861 -6.15262 0
M  V30 7060 H 685.261 0.600253 -0.434485 0
M  V30 7061 H 687.908 1.0338 -1.61198 0
M  V30 7062 H 686.213 3.63626 -1.45888 0
M  V30 7063 H 687.91 3.56139 -1.843 0
M  V30 7064 H 684.5 2.92856 -3.12943 0
M  V30 7065 H 688.684 2.79516 -4.10103 0
M  V30 7066 H 683.94 2.65526 -5.50732 0
M  V30 7067 H 688.114 2.5329 -6.48704 0
M  V30 7068 H 685.741 2.45799 -7.19366 0
M  V30 7069 N 687.317 1.12792 1.10072 0
M  V30 7070 C 688.247 0.821688 2.18565 0
M  V30 7071 C 689.228 -0.21612 1.68721 0
M  V30 7072 O 690.413 -0.0764932 1.94049 0
M  V30 7073 C 687.543 0.279624 3.46172 0
M  V30 7074 C 686.497 1.25092 4.09312 0
M  V30 7075 C 685.823 0.568916 5.31665 0
M  V30 7076 C 687.123 2.60699 4.52585 0
M  V30 7077 H 688.817 1.72888 2.44438 0
M  V30 7078 H 686.363 0.832702 1.17482 0
M  V30 7079 H 688.316 0.053099 4.21367 0
M  V30 7080 H 687.04 -0.662929 3.19801 0
M  V30 7081 H 685.699 1.46332 3.36129 0
M  V30 7082 H 685.347 -0.378898 5.01571 0
M  V30 7083 H 685.047 1.21687 5.74862 0
M  V30 7084 H 686.571 0.351517 6.09587 0
M  V30 7085 H 687.985 2.43465 5.19035 0
M  V30 7086 H 686.382 3.21608 5.06644 0
M  V30 7087 H 687.452 3.1886 3.65317 0
M  V30 7088 N 688.795 -1.27931 0.920396 0
M  V30 7089 C 690.043 -1.94304 0.555906 0
M  V30 7090 C 690.364 -1.72753 -0.904519 0
M  V30 7091 O 689.634 -1.07104 -1.64029 0
M  V30 7092 H 688.214 -0.719001 0.202599 0
M  V30 7093 H 690.876 -1.55785 1.1712 0
M  V30 7094 H 689.972 -3.02806 0.755981 0
M  V30 7095 N 690.273 -0.685099 -1.4193 0
M  V30 7096 C 691.684 -0.287699 -1.8447 0
M  V30 7097 C 692.035 1.17215 -1.57338 0
M  V30 7098 O 691.16 1.89856 -1.03845 0
M  V30 7099 C 691.755 -0.515385 -3.34857 0
M  V30 7100 C 690.314 -0.172006 -3.76007 0
M  V30 7101 C 689.461 -0.802808 -2.65425 0
M  V30 7102 H 692.412 -0.88652 -1.3163 0
M  V30 7103 H 692.433 0.229251 -3.79809 0
M  V30 7104 H 691.945 -1.57796 -3.54573 0
M  V30 7105 H 690.046 0.886716 -3.61895 0
M  V30 7106 H 690.159 -0.619717 -4.75075 0
M  V30 7107 H 688.523 -0.233267 -2.5363 0
M  V30 7108 H 689.306 -1.86904 -2.87961 0
M  V30 7109 N 691.751 1.51645 -0.429126 0
M  V30 7110 C 692.699 2.29119 0.400921 0
M  V30 7111 C 693.693 1.34628 1.02819 0
M  V30 7112 O 694.899 1.52004 0.964098 0
M  V30 7113 H 691.274 0.737273 0.148095 0
M  V30 7114 H 693.245 2.97144 -0.273457 0
M  V30 7115 C 691.994 3.13953 1.49429 0
M  V30 7116 H 691.317 3.86544 1.02097 0
M  V30 7117 H 692.757 3.71232 2.04849 0
M  V30 7118 C 691.216 2.28796 2.47293 0
M  V30 7119 O 691.746 1.94193 3.51642 0
M  V30 7120 N 689.952 1.92177 2.17982 0
M  V30 7121 H 689.499 2.20517 1.33154 0
M  V30 7122 H 689.457 1.35497 2.83704 0
M  V30 7123 N 693.229 0.160201 1.56784 0
M  V30 7124 C 694.192 -0.760405 2.16219 0
M  V30 7125 C 695.192 -1.16595 1.10735 0
M  V30 7126 O 696.382 -1.08472 1.36306 0
M  V30 7127 C 693.514 -2.03358 2.73603 0
M  V30 7128 H 694.707 -0.243173 2.98912 0
M  V30 7129 H 692.26 -0.0893139 1.56045 0
M  V30 7130 H 692.995 -2.59416 1.94612 0
M  V30 7131 H 692.78 -1.75186 3.50788 0
M  V30 7132 H 694.27 -2.69081 3.19351 0
M  V30 7133 N 694.707 -1.5719 -0.113559 0
M  V30 7134 C 695.955 -1.84772 -0.818761 0
M  V30 7135 C 696.276 -0.746196 -1.80158 0
M  V30 7136 O 695.546 0.229305 -1.94553 0
M  V30 7137 H 694.126 -0.681737 -0.305359 0
M  V30 7138 H 696.788 -1.94645 -0.0995845 0
M  V30 7139 H 695.884 -2.80878 -1.36067 0
M  V30 7140 N 696.185 0.383891 -1.52853 0
M  V30 7141 C 697.095 1.49343 -1.80925 0
M  V30 7142 C 698.111 1.59458 -0.696348 0
M  V30 7143 O 699.287 1.75698 -0.984481 0
M  V30 7144 C 696.352 2.84819 -1.97684 0
M  V30 7145 C 695.413 2.84382 -3.21598 0
M  V30 7146 C 694.646 4.13397 -3.37548 0
M  V30 7147 O 694.869 5.08619 -2.58192 0
M  V30 7148 O 693.803 4.20325 -4.30826 0
M  V30 7149 H 697.629 1.2855 -2.75152 0
M  V30 7150 H 695.214 0.572229 -1.38007 0
M  V30 7151 H 697.096 3.65125 -2.10385 0
M  V30 7152 H 695.771 3.05627 -1.06647 0
M  V30 7153 H 694.678 2.0284 -3.14336 0
M  V30 7154 H 696.011 2.68526 -4.12498 0
M  V30 7155 N 697.663 1.43903 0.642637 0
M  V30 7156 C 698.909 1.46296 1.40447 0
M  V30 7157 C 699.242 0.0908361 1.93987 0
M  V30 7158 O 698.517 -0.889884 1.72949 0
M  V30 7159 C 698.8 2.51399 2.57819 0
M  V30 7160 C 698.653 3.97926 2.09702 0
M  V30 7161 C 699.972 2.53125 3.60022 0
M  V30 7162 H 697.091 0.532676 0.509338 0
M  V30 7163 H 699.733 1.75515 0.727635 0
M  V30 7164 H 697.883 2.26614 3.1556 0
M  V30 7165 H 699.555 4.33804 1.5688 0
M  V30 7166 H 697.798 4.10252 1.40982 0
M  V30 7167 H 698.469 4.67096 2.94152 0
M  V30 7168 H 700.945 2.75242 3.12059 0
M  V30 7169 H 699.821 3.28589 4.39682 0
M  V30 7170 H 700.082 1.56895 4.13324 0
M  V30 7171 N 699.141 -0.881989 1.30609 0
M  V30 7172 C 700.369 -1.66711 1.22536 0
M  V30 7173 C 700.784 -1.87614 -0.2113 0
M  V30 7174 O 700.141 -1.42576 -1.13923 0
M  V30 7175 C 700.192 -3.04182 1.95335 0
M  V30 7176 O 699.913 -2.8422 3.33393 0
M  V30 7177 C 701.414 -3.98617 1.93956 0
M  V30 7178 H 698.634 -0.520124 0.423925 0
M  V30 7179 H 701.178 -1.10174 1.72285 0
M  V30 7180 H 699.333 -3.57442 1.49378 0
M  V30 7181 H 699.747 -3.71452 3.70302 0
M  V30 7182 H 701.221 -4.92433 2.49426 0
M  V30 7183 H 701.698 -4.29473 0.919198 0
M  V30 7184 H 702.304 -3.51292 2.39738 0
M  V30 7185 N 700.619 -1.13374 -1.09472 0
M  V30 7186 C 701.551 -0.768466 -2.15933 0
M  V30 7187 C 702.564 0.209585 -1.61445 0
M  V30 7188 O 703.753 -0.010539 -1.78497 0
M  V30 7189 C 700.853 -0.118266 -3.38694 0
M  V30 7190 C 700.026 -1.12829 -4.22597 0
M  V30 7191 C 699.085 -0.503875 -5.23782 0
M  V30 7192 O 698.111 -1.16374 -5.57177 0
M  V30 7193 N 699.313 0.724288 -5.75964 0
M  V30 7194 H 702.078 -1.68457 -2.47876 0
M  V30 7195 H 699.639 -1.02668 -1.25183 0
M  V30 7196 H 701.631 0.311698 -4.03498 0
M  V30 7197 H 700.201 0.700769 -3.04644 0
M  V30 7198 H 699.421 -1.73556 -3.53938 0
M  V30 7199 H 700.709 -1.81095 -4.75481 0
M  V30 7200 H 700.107 1.27918 -5.51048 0
M  V30 7201 H 698.664 1.09692 -6.42504 0
M  V30 7202 N 702.098 1.27442 -0.927168 0
M  V30 7203 C 703.346 1.94007 -0.566203 0
M  V30 7204 C 703.667 1.7323 0.895345 0
M  V30 7205 O 702.937 1.07973 1.63459 0
M  V30 7206 H 701.517 0.717917 -0.206409 0
M  V30 7207 H 704.179 1.55161 -1.17945 0
M  V30 7208 H 703.275 3.02401 -0.772028 0
M  V30 7209 N 703.576 0.692616 1.41565 0
M  V30 7210 C 704.823 0.222335 2.01276 0
M  V30 7211 C 705.151 -1.17706 1.5484 0
M  V30 7212 O 704.406 -1.80795 0.749118 0
M  V30 7213 C 704.705 0.225073 3.56691 0
M  V30 7214 C 704.371 1.57158 4.22625 0
M  V30 7215 C 703.033 1.94022 4.40351 0
M  V30 7216 C 705.385 2.45758 4.59622 0
M  V30 7217 C 702.713 3.19076 4.92349 0
M  V30 7218 C 705.065 3.70141 5.13009 0
M  V30 7219 C 703.729 4.07152 5.28946 0
M  V30 7220 H 702.999 0.0813581 0.73652 0
M  V30 7221 H 705.646 0.891123 1.69503 0
M  V30 7222 H 703.951 -0.527259 3.88236 0
M  V30 7223 H 705.648 -0.156283 4.00695 0
M  V30 7224 H 702.238 1.27486 4.09201 0
M  V30 7225 H 706.422 2.18558 4.45585 0
M  V30 7226 H 701.678 3.4775 5.02872 0
M  V30 7227 H 705.852 4.38983 5.40617 0
M  V30 7228 H 703.479 5.04125 5.69001 0
M  V30 7229 N 705.054 -1.51416 0.437162 0
M  V30 7230 C 706.017 -2.26312 -0.362729 0
M  V30 7231 C 707.017 -1.29748 -0.949847 0
M  V30 7232 O 708.207 -1.53462 -0.824325 0
M  V30 7233 C 705.339 -3.05475 -1.5132 0
M  V30 7234 H 706.532 -2.98459 0.29365 0
M  V30 7235 H 704.085 -1.55137 0.190327 0
M  V30 7236 H 704.82 -2.37744 -2.20563 0
M  V30 7237 H 704.605 -3.76401 -1.09838 0
M  V30 7238 H 706.095 -3.62209 -2.07833 0
M  V30 7239 N 706.532 -0.168513 -1.56696 0
M  V30 7240 C 707.462 0.758563 -2.20835 0
M  V30 7241 C 708.443 1.24121 -1.1631 0
M  V30 7242 O 709.628 1.29487 -1.4473 0
M  V30 7243 C 706.758 1.9892 -2.8469 0
M  V30 7244 C 705.712 1.64252 -3.95228 0
M  V30 7245 C 705.038 2.94757 -4.46119 0
M  V30 7246 C 706.338 0.872675 -5.14958 0
M  V30 7247 H 708.032 0.223953 -2.98561 0
M  V30 7248 H 705.578 0.106277 -1.43607 0
M  V30 7249 H 707.531 2.64275 -3.28233 0
M  V30 7250 H 706.255 2.5479 -2.04327 0
M  V30 7251 H 704.914 1.01266 -3.52336 0
M  V30 7252 H 704.562 3.48662 -3.62552 0
M  V30 7253 H 704.262 2.72316 -5.2069 0
M  V30 7254 H 705.786 3.61147 -4.92347 0
M  V30 7255 H 707.2 1.42875 -5.55211 0
M  V30 7256 H 705.597 0.747402 -5.95428 0
M  V30 7257 H 706.667 -0.131535 -4.84722 0
M  V30 7258 N 708.01 1.57248 0.105221 0
M  V30 7259 C 709.258 1.85204 0.808951 0
M  V30 7260 C 709.579 0.75574 1.7976 0
M  V30 7261 O 708.849 -0.218984 1.94672 0
M  V30 7262 H 707.429 0.683346 0.301739 0
M  V30 7263 H 710.091 1.94695 0.0892605 0
M  V30 7264 H 709.187 2.81595 1.34575 0
M  V30 7265 N 709.488 -0.375779 1.53054 0
M  V30 7266 C 710.737 -1.11674 1.67964 0
M  V30 7267 C 711.05 -1.90755 0.432655 0
M  V30 7268 O 712.256 -2.67538 0.462109 0
M  V30 7269 C 710.712 -2.0344 2.96884 0
M  V30 7270 C 710.32 -1.29719 4.28809 0
M  V30 7271 C 712.064 -2.7759 3.2116 0
M  V30 7272 C 709.971 -2.20327 5.48826 0
M  V30 7273 H 708.901 -0.420597 0.625791 0
M  V30 7274 H 711.552 -0.378499 1.79554 0
M  V30 7275 H 709.934 -2.80953 2.79072 0
M  V30 7276 H 711.108 -0.573394 4.57219 0
M  V30 7277 H 709.423 -0.674735 4.10897 0
M  V30 7278 H 712.02 -3.4559 4.0801 0
M  V30 7279 H 712.363 -3.42399 2.36789 0
M  V30 7280 H 712.896 -2.07164 3.396 0
M  V30 7281 H 709.635 -1.60113 6.35645 0
M  V30 7282 H 709.155 -2.90585 5.2471 0
M  V30 7283 H 710.834 -2.80116 5.83219 0
M  V30 7284 N 710.966 -1.44241 -0.634997 0
M  V30 7285 C 711.913 -1.5081 -1.74714 0
M  V30 7286 C 712.883 -0.356147 -1.62237 0
M  V30 7287 O 714.068 -0.565848 -1.82216 0
M  V30 7288 C 711.208 -1.45458 -3.12947 0
M  V30 7289 C 710.321 -2.70998 -3.36428 0
M  V30 7290 C 709.456 -2.57507 -4.64611 0
M  V30 7291 C 708.495 -3.78229 -4.81258 0
M  V30 7292 N 707.632 -3.63438 -6.00714 0
M  V30 7293 H 712.472 -2.45832 -1.68436 0
M  V30 7294 H 710.009 -1.2201 -0.821706 0
M  V30 7295 H 711.967 -1.40347 -3.92885 0
M  V30 7296 H 710.597 -0.540058 -3.1825 0
M  V30 7297 H 709.649 -2.86312 -2.50458 0
M  V30 7298 H 710.961 -3.60619 -3.44609 0
M  V30 7299 H 710.115 -2.50207 -5.52703 0
M  V30 7300 H 708.854 -1.65441 -4.58782 0
M  V30 7301 H 707.859 -3.85918 -3.91596 0
M  V30 7302 H 709.084 -4.71327 -4.88904 0
M  V30 7303 H 707.03 -2.7412 -5.95982 0
M  V30 7304 H 706.947 -4.46672 -6.09934 0
M  V30 7305 H 708.215 -3.60022 -6.91378 0
M  V30 7306 N 712.444 0.87505 -1.31075 0
M  V30 7307 C 713.684 1.64174 -1.21763 0
M  V30 7308 C 714.048 1.90713 0.221933 0
M  V30 7309 O 715.249 2.652 0.438458 0
M  V30 7310 C 713.52 2.93932 -2.0332 0
M  V30 7311 S 715.079 3.84841 -2.10815 0
M  V30 7312 H 711.897 0.563358 -0.433761 0
M  V30 7313 H 714.499 1.03788 -1.65675 0
M  V30 7314 H 713.203 2.72349 -3.07009 0
M  V30 7315 H 712.734 3.59345 -1.60108 0
M  V30 7316 H 714.749 4.80385 -1.24276 0
M  V30 7317 N 713.922 1.13953 1.08869 0
M  V30 7318 C 715.17 0.903023 1.80803 0
M  V30 7319 C 715.491 -0.572151 1.86417 0
M  V30 7320 O 714.761 -1.41589 1.35386 0
M  V30 7321 H 713.341 0.331099 0.669614 0
M  V30 7322 H 716.003 1.43719 1.31647 0
M  V30 7323 H 715.099 1.29881 2.83791 0
M  V30 7324 N 715.4 -1.26948 0.933913 0
M  V30 7325 C 716.363 -2.24889 0.442457 0
M  V30 7326 C 717.363 -1.54594 -0.442426 0
M  V30 7327 O 718.553 -1.72502 -0.242629 0
M  V30 7328 C 715.685 -3.3896 -0.363173 0
M  V30 7329 H 716.878 -2.69879 1.30787 0
M  V30 7330 H 714.431 -1.38978 0.715187 0
M  V30 7331 H 715.166 -2.99361 -1.24714 0
M  V30 7332 H 714.951 -3.9116 0.271366 0
M  V30 7333 H 716.441 -4.11739 -0.697186 0
M  V30 7334 N 716.879 -0.700114 -1.41195 0
M  V30 7335 C 718.104 -0.240704 -2.05998 0
M  V30 7336 C 718.529 1.10313 -1.52357 0
M  V30 7337 O 717.887 1.69154 -0.652424 0
M  V30 7338 C 717.935 -0.213783 -3.59966 0
M  V30 7339 O 717.039 0.809933 -4.04368 0
M  V30 7340 H 716.38 -0.116471 -0.653705 0
M  V30 7341 H 718.91 -0.956251 -1.80878 0
M  V30 7342 H 718.92 -0.0461852 -4.07974 0
M  V30 7343 H 717.595 -1.19454 -3.98376 0
M  V30 7344 H 716.172 0.611319 -3.67855 0
M  V30 7345 N 718.357 1.51182 -0.445186 0
M  V30 7346 C 719.587 2.06269 0.116922 0
M  V30 7347 C 719.995 1.31188 1.36332 0
M  V30 7348 O 719.338 0.367067 1.79995 0
M  V30 7349 C 719.4 3.56051 0.496757 0
M  V30 7350 C 719.064 4.52441 -0.64394 0
M  V30 7351 C 720.061 4.97233 -1.5184 0
M  V30 7352 C 717.746 4.95447 -0.826905 0
M  V30 7353 C 719.74 5.83712 -2.56046 0
M  V30 7354 C 717.427 5.81714 -1.87222 0
M  V30 7355 C 718.425 6.25745 -2.73738 0
M  V30 7356 O 718.113 7.10298 -3.76474 0
M  V30 7357 H 717.845 0.675954 0.00785733 0
M  V30 7358 H 720.399 1.95648 -0.625371 0
M  V30 7359 H 718.629 3.64483 1.29187 0
M  V30 7360 H 720.318 3.93618 0.990928 0
M  V30 7361 H 721.084 4.64696 -1.38862 0
M  V30 7362 H 716.963 4.60712 -0.163052 0
M  V30 7363 H 720.507 6.18 -3.23607 0
M  V30 7364 H 716.404 6.13664 -2.00218 0
M  V30 7365 H 717.172 7.28493 -3.73149 0
M  V30 7366 N 719.835 0.176821 1.56605 0
M  V30 7367 C 720.798 -0.737429 2.17013 0
M  V30 7368 C 721.798 -1.15414 1.11965 0
M  V30 7369 O 722.988 -1.0702 1.37449 0
M  V30 7370 C 720.12 -2.00445 2.75744 0
M  V30 7371 H 721.313 -0.211455 2.99154 0
M  V30 7372 H 718.866 -0.0727582 1.56131 0
M  V30 7373 H 719.601 -2.57338 1.97352 0
M  V30 7374 H 719.386 -1.71456 3.52626 0
M  V30 7375 H 720.876 -2.65679 3.22187 0
M  V30 7376 N 721.313 -1.57302 -0.09688 0
M  V30 7377 C 722.245 -1.98618 -1.14384 0
M  V30 7378 C 723.258 -0.888483 -1.36418 0
M  V30 7379 O 724.447 -1.16661 -1.35101 0
M  V30 7380 C 721.547 -2.28838 -2.49973 0
M  V30 7381 C 720.72 -3.60132 -2.48241 0
M  V30 7382 C 719.779 -3.7831 -3.65743 0
M  V30 7383 O 718.805 -4.50183 -3.48316 0
M  V30 7384 N 720.007 -3.18752 -4.85157 0
M  V30 7385 H 722.772 -2.8904 -0.792202 0
M  V30 7386 H 720.333 -1.59356 -0.285883 0
M  V30 7387 H 722.325 -2.38193 -3.27179 0
M  V30 7388 H 720.895 -1.44431 -2.77233 0
M  V30 7389 H 720.115 -3.61763 -1.56593 0
M  V30 7390 H 721.403 -4.46389 -2.4416 0
M  V30 7391 H 720.801 -2.60368 -5.0222 0
M  V30 7392 H 719.358 -3.33595 -5.59962 0
M  V30 7393 N 722.791 0.367657 -1.53252 0
M  V30 7394 C 724.037 1.11216 -1.69584 0
M  V30 7395 C 724.37 1.89026 -0.445269 0
M  V30 7396 O 723.645 1.86342 0.557404 0
M  V30 7397 C 723.928 2.07308 -2.94441 0
M  V30 7398 C 723.781 1.3312 -4.2965 0
M  V30 7399 C 725.1 3.07459 -3.14892 0
M  V30 7400 H 722.219 0.40294 -0.617096 0
M  V30 7401 H 724.861 0.393201 -1.85887 0
M  V30 7402 H 723.011 2.68617 -2.80673 0
M  V30 7403 H 724.683 0.746111 -4.55226 0
M  V30 7404 H 722.926 0.633051 -4.29156 0
M  V30 7405 H 723.597 2.03443 -5.13142 0
M  V30 7406 H 726.073 2.56252 -3.27832 0
M  V30 7407 H 724.949 3.71919 -4.03693 0
M  V30 7408 H 725.21 3.77514 -2.30077 0
M  V30 7409 N 724.269 1.44576 0.627338 0
M  V30 7410 C 725.202 1.46206 1.75212 0
M  V30 7411 C 726.18 0.320483 1.5941 0
M  V30 7412 O 727.364 0.518028 1.81242 0
M  V30 7413 C 724.491 1.29834 3.12827 0
M  V30 7414 C 723.537 2.47603 3.47268 0
M  V30 7415 S 724.37 4.10125 3.44322 0
M  V30 7416 C 725.526 3.96183 4.84551 0
M  V30 7417 H 725.759 2.41378 1.73563 0
M  V30 7418 H 723.292 1.3192 0.802283 0
M  V30 7419 H 725.25 1.21075 3.92239 0
M  V30 7420 H 723.911 0.361662 3.12011 0
M  V30 7421 H 723.104 2.3202 4.47418 0
M  V30 7422 H 722.706 2.53121 2.75329 0
M  V30 7423 H 724.998 3.60107 5.73872 0
M  V30 7424 H 725.941 4.96176 5.05188 0
M  V30 7425 H 726.349 3.28177 4.59304 0
M  V30 7426 N 725.747 -0.868086 1.31537 0
M  V30 7427 C 727.163 -1.15414 1.10235 0
M  V30 7428 C 727.363 -2.01106 -0.125947 0
M  V30 7429 O 726.419 -2.38994 -0.814734 0
M  V30 7430 C 727.732 -1.84445 2.37488 0
M  V30 7431 C 729.28 -1.97139 2.43116 0
M  V30 7432 C 729.755 -2.69585 3.70254 0
M  V30 7433 N 731.246 -2.77119 3.71159 0
M  V30 7434 C 731.981 -3.33791 4.6623 0
M  V30 7435 N 731.477 -3.9138 5.71659 0
M  V30 7436 N 733.27 -3.31767 4.53747 0
M  V30 7437 H 725.421 -0.297109 2.10312 0
M  V30 7438 H 727.684 -0.194227 0.92789 0
M  V30 7439 H 727.39 -1.2893 3.27215 0
M  V30 7440 H 727.264 -2.84709 2.47428 0
M  V30 7441 H 729.651 -2.51818 1.53856 0
M  V30 7442 H 729.732 -0.95912 2.37138 0
M  V30 7443 H 729.376 -2.15572 4.59881 0
M  V30 7444 H 729.306 -3.71223 3.73499 0
M  V30 7445 H 731.797 -2.3625 2.94948 0
M  V30 7446 H 732.11 -4.3274 6.40278 0
M  V30 7447 H 730.455 -3.8975 5.7543 0
M  V30 7448 H 733.646 -2.86016 3.70557 0
M  V30 7449 H 733.819 -3.75636 5.28017 0
M  V30 7450 N 727.225 -1.14528 -1.08264 0
M  V30 7451 C 728.453 -0.937964 -1.84418 0
M  V30 7452 C 728.868 0.51357 -1.81681 0
M  V30 7453 O 728.225 1.35591 -1.22153 0
M  V30 7454 C 728.276 -1.43272 -3.31897 0
M  V30 7455 O 727.997 -2.82738 -3.34651 0
M  V30 7456 C 729.498 -1.26555 -4.24851 0
M  V30 7457 H 726.718 -0.333704 -0.582136 0
M  V30 7458 H 729.262 -1.52076 -1.36723 0
M  V30 7459 H 727.417 -0.892653 -3.76975 0
M  V30 7460 H 727.831 -3.04971 -4.26724 0
M  V30 7461 H 729.305 -1.66031 -5.26439 0
M  V30 7462 H 729.782 -0.208589 -4.38704 0
M  V30 7463 H 730.388 -1.79423 -3.856 0
M  V30 7464 N 728.703 1.26451 -0.940633 0
M  V30 7465 C 729.949 1.94065 -0.58878 0
M  V30 7466 C 730.282 1.7363 0.869853 0
M  V30 7467 O 729.557 1.073 1.62225 0
M  V30 7468 C 729.84 3.47852 -0.931199 0
M  V30 7469 C 729.693 3.77575 -2.44453 0
M  V30 7470 C 731.012 4.37832 -0.446229 0
M  V30 7471 H 728.131 0.704827 -0.21538 0
M  V30 7472 H 730.773 1.4933 -1.17475 0
M  V30 7473 H 728.923 3.86085 -0.432539 0
M  V30 7474 H 730.595 3.49059 -3.01588 0
M  V30 7475 H 728.838 3.23671 -2.88825 0
M  V30 7476 H 729.509 4.85068 -2.63464 0
M  V30 7477 H 731.985 4.06822 -0.873778 0
M  V30 7478 H 730.861 5.44228 -0.714648 0
M  V30 7479 H 731.122 4.37239 0.653815 0
M  V30 7480 N 730.181 0.707592 1.40822 0
M  V30 7481 C 731.429 0.243189 2.00632 0
M  V30 7482 C 731.75 -1.16512 1.56365 0
M  V30 7483 O 731.02 -1.78841 0.799553 0
M  V30 7484 H 729.6 0.0869203 0.741926 0
M  V30 7485 H 732.262 0.911438 1.72275 0
M  V30 7486 H 731.358 0.270014 3.1093 0
M  V30 7487 N 731.66 -1.50943 0.453197 0
M  V30 7488 C 732.909 -2.01402 -0.10951 0
M  V30 7489 C 733.222 -1.3411 -1.42386 0
M  V30 7490 O 734.428 -1.75626 -2.07045 0
M  V30 7491 C 732.884 -3.5906 -0.245693 0
M  V30 7492 C 732.492 -4.353 1.05916 0
M  V30 7493 C 734.236 -4.17617 -0.761318 0
M  V30 7494 C 732.143 -5.84699 0.887752 0
M  V30 7495 H 731.073 -0.752674 -0.0447013 0
M  V30 7496 H 733.724 -1.73913 0.585375 0
M  V30 7497 H 732.106 -3.83062 -1.00395 0
M  V30 7498 H 733.28 -4.23034 1.82698 0
M  V30 7499 H 731.595 -3.88269 1.50452 0
M  V30 7500 H 734.192 -5.26963 -0.906306 0
M  V30 7501 H 734.535 -3.77824 -1.74799 0
M  V30 7502 H 735.068 -3.97753 -0.0609416 0
M  V30 7503 H 731.807 -6.28933 1.84726 0
M  V30 7504 H 731.327 -5.99587 0.160006 0
M  V30 7505 H 733.006 -6.44682 0.547223 0
M  V30 7506 N 733.138 -0.185124 -1.56509 0
M  V30 7507 C 734.088 0.752315 -2.15231 0
M  V30 7508 C 735.072 1.18327 -1.0903 0
M  V30 7509 O 736.264 1.14333 -1.35119 0
M  V30 7510 C 733.393 1.97583 -2.80742 0
M  V30 7511 C 732.479 1.56623 -3.94119 0
M  V30 7512 N 732.87 0.867008 -4.98314 0
M  V30 7513 C 731.168 1.85626 -4.05535 0
M  V30 7514 C 731.869 0.663228 -5.77907 0
M  V30 7515 N 730.845 1.20891 -5.29987 0
M  V30 7516 H 734.647 0.209267 -2.93154 0
M  V30 7517 H 732.161 0.0150444 -1.62393 0
M  V30 7518 H 734.158 2.65779 -3.21197 0
M  V30 7519 H 732.818 2.52369 -2.04303 0
M  V30 7520 H 733.829 0.52355 -5.15247 0
M  V30 7521 H 730.506 2.41992 -3.40215 0
M  V30 7522 H 731.896 0.109273 -6.71811 0
M  V30 7523 N 734.616 1.57351 0.0885366 0
M  V30 7524 C 736.027 1.75303 0.642308 0
M  V30 7525 C 736.378 0.808238 1.78779 0
M  V30 7526 O 735.503 -0.01171 2.16397 0
M  V30 7527 C 736.098 3.17885 1.17194 0
M  V30 7528 C 734.657 3.37239 1.67172 0
M  V30 7529 C 733.804 2.7108 0.584045 0
M  V30 7530 H 736.755 1.58103 -0.137567 0
M  V30 7531 H 736.776 3.2112 2.04114 0
M  V30 7532 H 736.288 3.86625 0.338024 0
M  V30 7533 H 734.389 2.73588 2.52943 0
M  V30 7534 H 734.502 4.45594 1.76019 0
M  V30 7535 H 732.866 2.33161 1.02508 0
M  V30 7536 H 733.649 3.42464 -0.239403 0
M  V30 7537 N 736.094 -0.359525 1.53444 0
M  V30 7538 C 737.322 -1.12198 1.73837 0
M  V30 7539 C 737.737 -1.82854 0.470107 0
M  V30 7540 O 737.094 -1.73781 -0.557349 0
M  V30 7541 C 737.145 -2.14769 2.90786 0
M  V30 7542 O 736.866 -1.46989 4.12706 0
M  V30 7543 C 738.367 -3.03514 3.231 0
M  V30 7544 H 735.587 -0.33524 0.581253 0
M  V30 7545 H 738.131 -0.416598 2.00212 0
M  V30 7546 H 736.286 -2.80896 2.66788 0
M  V30 7547 H 736.7 -2.15378 4.78239 0
M  V30 7548 H 738.174 -3.71453 4.08322 0
M  V30 7549 H 738.651 -3.68658 2.38721 0
M  V30 7550 H 739.257 -2.42996 3.49046 0
M  V30 7551 N 737.572 -1.44907 -0.619662 0
M  V30 7552 C 738.812 -1.49822 -1.39042 0
M  V30 7553 C 739.176 -0.131803 -1.91547 0
M  V30 7554 O 740.377 -0.0556413 -2.68742 0
M  V30 7555 C 738.648 -2.53805 -2.5163 0
M  V30 7556 S 740.207 -2.77855 -3.3962 0
M  V30 7557 H 737.025 -0.529774 -0.474195 0
M  V30 7558 H 739.627 -1.81907 -0.716236 0
M  V30 7559 H 738.331 -3.51772 -2.11387 0
M  V30 7560 H 737.862 -2.23331 -3.23863 0
M  V30 7561 H 739.877 -2.10319 -4.49422 0
M  V30 7562 N 739.05 0.861098 -1.31996 0
M  V30 7563 C 740.275 1.65264 -1.2531 0
M  V30 7564 C 740.7 1.87265 0.177007 0
M  V30 7565 O 740.058 1.4208 1.12619 0
M  V30 7566 C 740.106 2.99284 -2.0115 0
M  V30 7567 O 739.21 3.89508 -1.3549 0
M  V30 7568 H 738.551 0.50409 -0.432192 0
M  V30 7569 H 741.081 1.07297 -1.74208 0
M  V30 7570 H 741.091 3.49154 -2.11081 0
M  V30 7571 H 739.766 2.82591 -3.05148 0
M  V30 7572 H 738.343 3.47966 -1.34066 0
M  V30 7573 N 740.528 1.15101 1.07655 0
M  V30 7574 C 741.438 0.858869 2.18313 0
M  V30 7575 C 742.454 -0.163641 1.73229 0
M  V30 7576 O 743.63 0.00969541 2.01398 0
M  V30 7577 C 740.695 0.34893 3.4494 0
M  V30 7578 C 739.756 1.43495 4.04608 0
M  V30 7579 C 738.989 0.949253 5.2519 0
M  V30 7580 O 739.212 -0.20636 5.70027 0
M  V30 7581 O 738.146 1.73161 5.76454 0
M  V30 7582 H 741.972 1.78386 2.45788 0
M  V30 7583 H 739.557 0.929876 1.16934 0
M  V30 7584 H 741.439 0.070851 4.2134 0
M  V30 7585 H 740.114 -0.548237 3.19024 0
M  V30 7586 H 739.021 1.7666 3.29761 0
M  V30 7587 H 740.354 2.30692 4.3479 0
M  V30 7588 N 742.006 -1.2595 0.947325 0
M  V30 7589 C 742.916 -2.29883 0.468079 0
M  V30 7590 C 743.932 -1.67783 -0.460975 0
M  V30 7591 O 745.108 -1.98526 -0.339006 0
M  V30 7592 C 742.173 -3.45773 -0.253315 0
M  V30 7593 C 741.234 -4.23337 0.713054 0
M  V30 7594 C 740.467 -5.33694 0.025993 0
M  V30 7595 O 740.69 -5.57853 -1.18978 0
M  V30 7596 O 739.624 -5.97724 0.70782 0
M  V30 7597 H 743.45 -2.72952 1.33156 0
M  V30 7598 H 741.035 -1.31263 0.713468 0
M  V30 7599 H 742.917 -4.16209 -0.659423 0
M  V30 7600 H 741.592 -3.04721 -1.09209 0
M  V30 7601 H 740.499 -3.55359 1.16923 0
M  V30 7602 H 741.832 -4.68154 1.51963 0
M  V30 7603 N 743.484 -0.715051 -1.40445 0
M  V30 7604 C 744.73 -0.254705 -2.01194 0
M  V30 7605 C 745.063 1.14894 -1.56567 0
M  V30 7606 O 744.338 1.77933 -0.785491 0
M  V30 7607 C 744.621 -0.334148 -3.58546 0
M  V30 7608 C 744.474 -1.77613 -4.13248 0
M  V30 7609 C 745.793 0.294968 -4.3911 0
M  V30 7610 H 742.912 -0.094025 -0.730978 0
M  V30 7611 H 745.554 -0.907449 -1.66929 0
M  V30 7612 H 743.704 0.221609 -3.87867 0
M  V30 7613 H 745.376 -2.38723 -3.94727 0
M  V30 7614 H 743.619 -2.30402 -3.67556 0
M  V30 7615 H 744.29 -1.78311 -5.22407 0
M  V30 7616 H 746.766 -0.178563 -4.15717 0
M  V30 7617 H 745.642 0.208934 -5.48502 0
M  V30 7618 H 745.903 1.37841 -4.20062 0
M  V30 7619 N 744.962 1.50701 -0.461195 0
M  V30 7620 C 746.208 2.02566 0.0973411 0
M  V30 7621 C 746.541 1.3432 1.40257 0
M  V30 7622 O 745.816 0.465692 1.88843 0
M  V30 7623 C 746.099 3.58919 0.291423 0
M  V30 7624 C 745.952 4.37751 -1.03413 0
M  V30 7625 C 747.271 4.27379 1.05048 0
M  V30 7626 H 744.39 0.73622 0.0339026 0
M  V30 7627 H 747.032 1.80115 -0.604855 0
M  V30 7628 H 745.182 3.78179 0.889539 0
M  V30 7629 H 746.854 4.30085 -1.66806 0
M  V30 7630 H 745.097 4.01885 -1.63313 0
M  V30 7631 H 745.768 5.45384 -0.852085 0
M  V30 7632 H 748.244 4.12534 0.543603 0
M  V30 7633 H 747.12 5.36609 1.15506 0
M  V30 7634 H 747.381 3.89868 2.0846 0
M  V30 7635 N 746.441 0.193421 1.56409 0
M  V30 7636 C 747.388 -0.728124 2.19014 0
M  V30 7637 C 748.358 -1.21098 1.13686 0
M  V30 7638 O 749.543 -1.27517 1.4193 0
M  V30 7639 C 746.683 -1.94277 2.8522 0
M  V30 7640 C 745.796 -1.50143 4.05069 0
M  V30 7641 C 744.931 -2.67145 4.59137 0
M  V30 7642 C 743.97 -2.19609 5.71348 0
M  V30 7643 N 743.107 -3.29782 6.19829 0
M  V30 7644 H 747.947 -0.187499 2.9741 0
M  V30 7645 H 745.484 -0.0808064 1.46878 0
M  V30 7646 H 747.442 -2.65551 3.21774 0
M  V30 7647 H 746.072 -2.45673 2.09391 0
M  V30 7648 H 745.124 -0.684624 3.74189 0
M  V30 7649 H 746.436 -1.11266 4.86232 0
M  V30 7650 H 745.59 -3.46544 4.97988 0
M  V30 7651 H 744.329 -3.09295 3.77078 0
M  V30 7652 H 743.334 -1.38664 5.32027 0
M  V30 7653 H 744.559 -1.78492 6.55223 0
M  V30 7654 H 742.505 -3.71466 5.40693 0
M  V30 7655 H 742.422 -2.95069 6.96039 0
M  V30 7656 H 743.69 -4.094 6.63334 0
M  V30 7657 N 747.919 -1.57396 -0.0801906 0
M  V30 7658 C 748.849 -2.06145 -1.09665 0
M  V30 7659 C 749.83 -0.953273 -1.40878 0
M  V30 7660 O 751.015 -1.22548 -1.50651 0
M  V30 7661 C 748.145 -2.49836 -2.41245 0
M  V30 7662 C 747.099 -3.64454 -2.24405 0
M  V30 7663 C 746.425 -3.94172 -3.61293 0
M  V30 7664 C 747.725 -4.94807 -1.67223 0
M  V30 7665 H 749.419 -2.91316 -0.691028 0
M  V30 7666 H 746.965 -1.40145 -0.330957 0
M  V30 7667 H 748.918 -2.82552 -3.12638 0
M  V30 7668 H 747.642 -1.61683 -2.83771 0
M  V30 7669 H 746.301 -3.32008 -1.55454 0
M  V30 7670 H 745.949 -3.03163 -4.01374 0
M  V30 7671 H 745.649 -4.71345 -3.50867 0
M  V30 7672 H 747.173 -4.29376 -4.3413 0
M  V30 7673 H 748.587 -5.25807 -2.28472 0
M  V30 7674 H 746.984 -5.76245 -1.67515 0
M  V30 7675 H 748.054 -4.80751 -0.632944 0
M  V30 7676 N 749.397 0.351382 -1.53633 0
M  V30 7677 C 750.813 0.693987 -1.43722 0
M  V30 7678 C 751.013 1.9274 -0.587669 0
M  V30 7679 O 750.069 2.52387 -0.0756082 0
M  V30 7680 C 751.382 0.893937 -2.87105 0
M  V30 7681 C 752.93 0.993051 -2.96829 0
M  V30 7682 C 753.405 1.22537 -4.41303 0
M  V30 7683 N 754.896 1.29275 -4.44795 0
M  V30 7684 C 755.631 1.48988 -5.53706 0
M  V30 7685 N 755.127 1.65924 -6.72637 0
M  V30 7686 N 756.92 1.51472 -5.41306 0
M  V30 7687 H 749.071 -0.459688 -2.07366 0
M  V30 7688 H 751.334 -0.143684 -0.937048 0
M  V30 7689 H 751.04 0.0592517 -3.5165 0
M  V30 7690 H 750.914 1.79795 -3.31592 0
M  V30 7691 H 753.301 1.81827 -2.32429 0
M  V30 7692 H 753.382 0.0661119 -2.55715 0
M  V30 7693 H 753.026 0.405117 -5.06282 0
M  V30 7694 H 752.956 2.16575 -4.80003 0
M  V30 7695 H 755.447 1.17743 -3.59089 0
M  V30 7696 H 755.76 1.80578 -7.51406 0
M  V30 7697 H 754.105 1.63075 -6.75597 0
M  V30 7698 H 757.296 1.37818 -4.47352 0
M  V30 7699 H 757.469 1.66493 -6.26246 0
M  V30 7700 N 750.875 1.45233 0.611969 0
M  V30 7701 C 752.124 1.48296 1.36716 0
M  V30 7702 C 752.437 0.12706 1.95187 0
M  V30 7703 O 753.643 0.0353066 2.71477 0
M  V30 7704 C 752.099 2.61168 2.47627 0
M  V30 7705 C 751.707 4.03051 1.95587 0
M  V30 7706 C 753.451 2.73472 3.24674 0
M  V30 7707 C 751.358 5.07312 3.03954 0
M  V30 7708 H 750.288 0.5518 0.513841 0
M  V30 7709 H 752.939 1.7136 0.656359 0
M  V30 7710 H 751.321 2.31379 3.21372 0
M  V30 7711 H 752.495 4.42497 1.2858 0
M  V30 7712 H 750.81 3.95158 1.31298 0
M  V30 7713 H 753.407 3.48537 4.05494 0
M  V30 7714 H 753.75 1.79953 3.75397 0
M  V30 7715 H 754.283 3.02765 2.58028 0
M  V30 7716 H 751.022 6.02525 2.58154 0
M  V30 7717 H 750.542 4.7244 3.69541 0
M  V30 7718 H 752.221 5.31867 3.6841 0
M  V30 7719 N 752.353 -0.854086 1.3245 0
M  V30 7720 C 753.578 -1.64597 1.26185 0
M  V30 7721 C 754.003 -1.87357 -0.167074 0
M  V30 7722 O 753.361 -1.42675 -1.11864 0
M  V30 7723 C 753.409 -2.98213 2.02734 0
M  V30 7724 O 752.513 -3.88784 1.37554 0
M  V30 7725 H 751.854 -0.50179 0.434859 0
M  V30 7726 H 754.384 -1.06372 1.74775 0
M  V30 7727 H 754.394 -3.4803 2.1293 0
M  V30 7728 H 753.069 -2.80969 3.06642 0
M  V30 7729 H 751.646 -3.4725 1.3591 0
M  V30 7730 N 753.831 -1.1567 -1.07043 0
M  V30 7731 C 754.778 -0.856336 -2.14326 0
M  V30 7732 C 755.748 0.192051 -1.64986 0
M  V30 7733 O 756.933 0.0589148 -1.90709 0
M  V30 7734 C 754.073 -0.355227 -3.43267 0
M  V30 7735 C 753.186 -1.46555 -4.06381 0
M  V30 7736 C 752.321 -0.920245 -5.23168 0
M  V30 7737 C 751.36 -2.00729 -5.78251 0
M  V30 7738 N 750.497 -1.47813 -6.86364 0
M  V30 7739 H 755.337 -1.77514 -2.39359 0
M  V30 7740 H 752.874 -0.885676 -1.17449 0
M  V30 7741 H 754.832 -0.0463804 -4.17174 0
M  V30 7742 H 753.462 0.526649 -3.18475 0
M  V30 7743 H 752.514 -1.89052 -3.30096 0
M  V30 7744 H 753.826 -2.28616 -4.43324 0
M  V30 7745 H 752.98 -0.564127 -6.04072 0
M  V30 7746 H 751.719 -0.0688477 -4.87651 0
M  V30 7747 H 750.724 -2.3722 -4.95991 0
M  V30 7748 H 751.949 -2.86252 -6.15822 0
M  V30 7749 H 749.895 -0.649145 -6.5278 0
M  V30 7750 H 749.812 -2.23498 -7.22208 0
M  V30 7751 H 751.08 -1.15036 -7.70965 0
M  V30 7752 N 755.309 1.25446 -0.953992 0
M  V30 7753 C 756.725 1.4539 -0.658316 0
M  V30 7754 C 756.925 1.85607 0.784356 0
M  V30 7755 O 755.981 1.98568 1.55972 0
M  V30 7756 C 757.294 2.52643 -1.6307 0
M  V30 7757 C 758.842 2.66484 -1.64181 0
M  V30 7758 C 759.317 3.76921 -2.60182 0
M  V30 7759 N 760.808 3.84331 -2.58542 0
M  V30 7760 C 761.543 4.69271 -3.29503 0
M  V30 7761 N 761.039 5.58503 -4.09934 0
M  V30 7762 N 762.832 4.6323 -3.18393 0
M  V30 7763 H 754.983 0.976337 -1.8863 0
M  V30 7764 H 757.246 0.490343 -0.811337 0
M  V30 7765 H 756.952 2.29949 -2.66114 0
M  V30 7766 H 756.826 3.50547 -1.39271 0
M  V30 7767 H 759.213 2.88545 -0.618552 0
M  V30 7768 H 759.294 1.68982 -1.92038 0
M  V30 7769 H 758.938 3.55612 -3.62633 0
M  V30 7770 H 758.868 4.73906 -2.29609 0
M  V30 7771 H 761.359 3.20544 -2.0015 0
M  V30 7772 H 761.672 6.20241 -4.61 0
M  V30 7773 H 760.017 5.58214 -4.14032 0
M  V30 7774 H 763.208 3.92527 -2.5503 0
M  V30 7775 H 763.381 5.29204 -3.73961 0
M  V30 7776 N 756.787 0.722489 1.40064 0
M  V30 7777 C 758.012 0.273446 2.05589 0
M  V30 7778 C 758.437 -1.07875 1.54093 0
M  V30 7779 O 757.795 -1.68095 0.679252 0
M  V30 7780 C 757.843 0.271023 3.5958 0
M  V30 7781 O 756.947 -0.745499 4.05606 0
M  V30 7782 H 756.288 0.126856 0.65177 0
M  V30 7783 H 758.818 0.984906 1.79334 0
M  V30 7784 H 758.828 0.111084 4.07849 0
M  V30 7785 H 757.503 1.25776 3.96425 0
M  V30 7786 H 756.08 -0.552719 3.68781 0
M  V30 7787 N 758.265 -1.50454 0.469181 0
M  V30 7788 C 759.513 -2.01916 -0.0862982 0
M  V30 7789 C 759.834 -1.35337 -1.40388 0
M  V30 7790 O 759.104 -0.498096 -1.89462 0
M  V30 7791 H 757.684 -0.746185 -0.0348825 0
M  V30 7792 H 760.346 -1.84804 0.619167 0
M  V30 7793 H 759.442 -3.11182 -0.239189 0
M  V30 7794 N 759.743 -0.201713 -1.56304 0
M  V30 7795 C 760.673 0.71155 -2.22394 0
M  V30 7796 C 761.654 1.21625 -1.18917 0
M  V30 7797 O 762.839 1.26388 -1.47444 0
M  V30 7798 C 759.969 1.92837 -2.88845 0
M  V30 7799 C 758.923 1.55831 -3.98623 0
M  V30 7800 C 758.249 2.85228 -4.52271 0
M  V30 7801 C 759.549 0.763249 -5.16693 0
M  V30 7802 H 761.243 0.160573 -2.98969 0
M  V30 7803 H 758.789 0.0757916 -1.438 0
M  V30 7804 H 760.742 2.57253 -3.33764 0
M  V30 7805 H 759.466 2.50398 -2.09686 0
M  V30 7806 H 758.125 0.9377 -3.54405 0
M  V30 7807 H 757.773 3.40893 -3.69866 0
M  V30 7808 H 757.473 2.6121 -5.26349 0
M  V30 7809 H 758.997 3.50622 -4.99897 0
M  V30 7810 H 760.411 1.31066 -5.58117 0
M  V30 7811 H 758.808 0.620935 -5.96879 0
M  V30 7812 H 759.878 -0.234322 -4.84334 0
M  V30 7813 N 761.222 1.57436 0.0718424 0
M  V30 7814 C 762.499 1.78312 0.804006 0
M  V30 7815 C 762.879 0.789273 1.9579 0
M  V30 7816 O 762.227 -0.177605 2.27809 0
M  V30 7817 C 762.437 3.24798 1.277 0
M  V30 7818 C 763.785 3.88627 1.71039 0
M  V30 7819 O 764.809 3.28689 1.37266 0
M  V30 7820 O 763.668 4.94073 2.33567 0
M  V30 7821 H 760.762 0.73178 0.385262 0
M  V30 7822 H 763.308 1.69621 0.0519219 0
M  V30 7823 H 762.08 3.88688 0.45134 0
M  V30 7824 H 761.703 3.38213 2.0904 0
M  V30 7825 N 762.7 -0.34323 1.53817 0
M  V30 7826 C 764.111 -0.918823 1.62525 0
M  V30 7827 C 764.462 -1.89542 0.506765 0
M  V30 7828 O 763.587 -2.13326 -0.363441 0
M  V30 7829 C 764.182 -1.67326 2.94597 0
M  V30 7830 C 762.741 -2.19786 3.05567 0
M  V30 7831 C 761.888 -1.01708 2.57974 0
M  V30 7832 H 764.839 -0.121358 1.58235 0
M  V30 7833 H 764.86 -2.53615 2.83654 0
M  V30 7834 H 764.372 -0.962223 3.75983 0
M  V30 7835 H 762.473 -2.94065 2.28816 0
M  V30 7836 H 762.586 -2.46135 4.1104 0
M  V30 7837 H 760.95 -1.39058 2.13389 0
M  V30 7838 H 761.733 -0.320671 3.41799 0
M  V30 7839 N 764.178 -1.45556 -0.604258 0
M  V30 7840 C 765.406 -1.53278 -1.38973 0
M  V30 7841 C 765.821 -0.166509 -1.88064 0
M  V30 7842 O 765.178 0.832519 -1.62405 0
M  V30 7843 C 765.229 -2.51992 -2.59195 0
M  V30 7844 O 764.95 -3.8331 -2.12143 0
M  V30 7845 C 766.451 -2.69445 -3.52015 0
M  V30 7846 H 763.671 -0.519003 -0.425297 0
M  V30 7847 H 766.215 -1.90773 -0.736621 0
M  V30 7848 H 764.37 -2.17561 -3.2054 0
M  V30 7849 H 764.784 -4.3685 -2.90279 0
M  V30 7850 H 766.258 -3.42485 -4.32907 0
M  V30 7851 H 766.735 -1.75596 -4.0257 0
M  V30 7852 H 767.341 -3.04886 -2.9652 0
M  V30 7853 N 765.656 0.84705 -1.32902 0
M  V30 7854 C 766.902 1.60414 -1.24078 0
M  V30 7855 C 767.235 1.93217 0.195105 0
M  V30 7856 O 766.51 1.58001 1.13428 0
M  V30 7857 C 766.793 2.91951 -2.108 0
M  V30 7858 C 766.646 2.6588 -3.62805 0
M  V30 7859 C 767.965 3.93299 -1.97494 0
M  V30 7860 H 765.084 0.58206 -0.452079 0
M  V30 7861 H 767.726 0.977562 -1.62922 0
M  V30 7862 H 765.876 3.45425 -1.77802 0
M  V30 7863 H 767.548 2.18902 -4.06054 0
M  V30 7864 H 765.791 1.99716 -3.85092 0
M  V30 7865 H 766.462 3.59574 -4.1882 0
M  V30 7866 H 768.938 3.49105 -2.26417 0
M  V30 7867 H 767.814 4.8318 -2.60438 0
M  V30 7868 H 768.075 4.31887 -0.944782 0
M  V30 7869 N 767.134 1.16236 1.06428 0
M  V30 7870 C 768.362 0.967184 1.82902 0
M  V30 7871 C 768.777 -0.484601 1.82475 0
M  V30 7872 O 768.134 -1.33631 1.24294 0
M  V30 7873 C 768.185 1.48534 3.29576 0
M  V30 7874 O 767.906 2.88026 3.3011 0
M  V30 7875 C 769.407 1.33298 4.22784 0
M  V30 7876 H 766.627 0.342923 0.576754 0
M  V30 7877 H 769.171 1.54232 1.34286 0
M  V30 7878 H 767.326 0.952513 3.75508 0
M  V30 7879 H 767.74 3.11721 4.21818 0
M  V30 7880 H 769.214 1.74385 5.23731 0
M  V30 7881 H 769.691 0.278356 4.38317 0
M  V30 7882 H 770.297 1.85535 3.82697 0
M  V30 7883 N 768.612 -1.24939 0.960631 0
M  V30 7884 C 769.86 -1.92437 0.617441 0
M  V30 7885 C 770.181 -1.75543 -0.849101 0
M  V30 7886 O 769.451 -1.12269 -1.60538 0
M  V30 7887 H 768.031 -0.712192 0.225371 0
M  V30 7888 H 770.693 -1.5198 1.22017 0
M  V30 7889 H 769.789 -3.00247 0.851933 0
M  V30 7890 N 770.09 -0.729906 -1.39679 0
M  V30 7891 C 771.33 -0.280232 -2.0247 0
M  V30 7892 C 771.694 1.11006 -1.56658 0
M  V30 7893 O 772.895 1.65753 -2.11612 0
M  V30 7894 C 771.166 -0.372922 -3.55449 0
M  V30 7895 S 772.725 -0.00233974 -4.388 0
M  V30 7896 H 769.543 -0.110139 -0.702418 0
M  V30 7897 H 772.145 -0.955296 -1.70571 0
M  V30 7898 H 770.849 -1.38616 -3.86282 0
M  V30 7899 H 770.38 0.320136 -3.92095 0
M  V30 7900 H 772.395 1.21544 -4.81084 0
M  V30 7901 N 771.568 1.50203 -0.477153 0
M  V30 7902 C 772.808 2.04265 0.0744065 0
M  V30 7903 C 773.172 1.35082 1.36443 0
M  V30 7904 O 774.373 1.79732 1.99875 0
M  V30 7905 C 772.644 3.56539 0.247874 0
M  V30 7906 Se 774.203 4.32219 0.757117 0
M  V30 7907 H 771.021 0.71088 0.0130891 0
M  V30 7908 H 773.623 1.8453 -0.645678 0
M  V30 7909 H 772.327 4.04443 -0.696709 0
M  V30 7910 H 771.858 3.80638 0.993896 0
M  V30 7911 H 773.873 4.52789 2.0297 0
M  V30 7912 N 773.046 0.209999 1.56195 0
M  V30 7913 C 774.294 -0.423974 1.97603 0
M  V30 7914 C 774.615 -1.61112 1.09854 0
M  V30 7915 O 773.885 -1.95134 0.173032 0
M  V30 7916 H 772.465 -0.159629 0.729745 0
M  V30 7917 H 775.127 0.300205 1.92574 0
M  V30 7918 H 774.223 -0.75809 3.02753 0
M  V30 7919 O 774.563 -1.61333 0.0733639 0
M  V30 7920 H 775.254 -1.86233 -0.532616 0
M  V30 END ATOM
M  V30 BEGIN BOND
M  V30 END BOND
M  V30 END CTAB
M  END
$$$$
