drugbank_target|Q9NPB1 5'(3')-deoxyribonucleotidase, mitochondrial (DB02217; DB04672)
 OpenBabel12092119553D

  0  0  0     0  0            999 V3000
M  V30 BEGIN CTAB
M  V30 COUNTS 3631 3682 0 0 0
M  V30 BEGIN ATOM
M  V30 1 H -0.908 1.98254 -0.117106 0
M  V30 2 N 0 1.576 0 0
M  V30 3 C 0.933 2.03868 1.02534 0
M  V30 4 C 1.911 0.928543 1.3348 0
M  V30 5 O 3.095 1.19667 1.45644 0
M  V30 6 C 0.222 2.43627 2.35294 0
M  V30 7 C -0.732 3.65373 2.2001 0
M  V30 8 S 0.101 5.13292 1.52614 0
M  V30 9 C 1.257 5.56322 2.86805 0
M  V30 10 H 1.49 2.90518 0.631377 0
M  V30 11 H -0.977 1.52953 0.210867 0
M  V30 12 H 0.981 2.67203 3.11629 0
M  V30 13 H -0.358 1.57376 2.7183 0
M  V30 14 H -1.165 3.90944 3.18086 0
M  V30 15 H -1.563 3.418 1.51819 0
M  V30 16 H 0.729 5.58782 3.83104 0
M  V30 17 H 1.672 6.56266 2.65933 0
M  V30 18 H 2.08 4.83886 2.90714 0
M  V30 19 N 1.4781 -0.272755 1.55222 0
M  V30 20 C 2.7271 -1.00211 1.75045 0
M  V30 21 C 3.0401 -1.87441 0.559046 0
M  V30 22 O 4.2461 -2.63856 0.639698 0
M  V30 23 C 2.7021 -1.83165 3.09804 0
M  V30 24 C 2.3101 -1.008 4.36513 0
M  V30 25 C 4.0541 -2.55529 3.38977 0
M  V30 26 C 1.9611 -1.83194 5.62311 0
M  V30 27 H 0.8911 -0.377878 0.652476 0
M  V30 28 H 3.5421 -0.257776 1.8168 0
M  V30 29 H 1.9241 -2.61694 2.97207 0
M  V30 30 H 3.0981 -0.266855 4.60027 0
M  V30 31 H 1.4131 -0.398897 4.14485 0
M  V30 32 H 4.0101 -3.17578 4.30172 0
M  V30 33 H 4.3531 -3.25825 2.59121 0
M  V30 34 H 4.8861 -1.84029 3.52673 0
M  V30 35 H 1.6251 -1.17318 6.44916 0
M  V30 36 H 1.1451 -2.54905 5.4294 0
M  V30 37 H 2.8241 -2.40552 6.00619 0
M  V30 38 N 2.9562 -1.48159 -0.537278 0
M  V30 39 C 4.3722 -1.34118 -0.865129 0
M  V30 40 C 4.5722 -0.346678 -1.98495 0
M  V30 41 O 3.6282 0.234715 -2.51407 0
M  V30 42 C 4.9412 -2.73963 -1.23954 0
M  V30 43 C 6.4892 -2.82397 -1.34984 0
M  V30 44 C 6.9642 -4.22928 -1.75772 0
M  V30 45 N 8.4552 -4.25566 -1.82887 0
M  V30 46 C 9.1902 -5.31235 -2.15817 0
M  V30 47 N 8.6862 -6.47189 -2.47222 0
M  V30 48 N 10.4792 -5.18624 -2.16761 0
M  V30 49 H 2.6302 -2.1144 0.201715 0
M  V30 50 H 4.8932 -0.947598 0.0275949 0
M  V30 51 H 4.5992 -3.48264 -0.490381 0
M  V30 52 H 4.4732 -3.0702 -2.19132 0
M  V30 53 H 6.8602 -2.08356 -2.08978 0
M  V30 54 H 6.9412 -2.5297 -0.379448 0
M  V30 55 H 6.5852 -4.97482 -1.02341 0
M  V30 56 H 6.5152 -4.49794 -2.73848 0
M  V30 57 H 9.0062 -3.41924 -1.60924 0
M  V30 58 H 9.3192 -7.23564 -2.71433 0
M  V30 59 H 7.6642 -6.50476 -2.44757 0
M  V30 60 H 10.8552 -4.27056 -1.91679 0
M  V30 61 H 11.0282 -6.01078 -2.42093 0
M  V30 62 N 4.4343 0.785586 -1.36625 0
M  V30 63 C 5.3643 1.91259 -1.33949 0
M  V30 64 C 6.3453 1.68795 -0.210325 0
M  V30 65 O 7.5303 1.89854 -0.408561 0
M  V30 66 C 4.6603 3.28339 -1.13186 0
M  V30 67 C 3.6143 3.65335 -2.22967 0
M  V30 68 C 2.9403 5.00806 -1.87342 0
M  V30 69 C 4.2403 3.7352 -3.65075 0
M  V30 70 H 5.9343 1.93755 -2.28253 0
M  V30 71 H 3.4803 0.930788 -1.09874 0
M  V30 72 H 5.4333 4.06804 -1.09948 0
M  V30 73 H 4.1573 3.2624 -0.153332 0
M  V30 74 H 2.8163 2.89169 -2.25337 0
M  V30 75 H 2.4643 4.95233 -0.880545 0
M  V30 76 H 2.1643 5.26529 -2.60846 0
M  V30 77 H 3.6883 5.81687 -1.85667 0
M  V30 78 H 5.1023 4.42168 -3.64911 0
M  V30 79 H 3.4993 4.10731 -4.37516 0
M  V30 80 H 4.5693 2.74527 -3.99703 0
M  V30 81 N 5.9124 1.20967 1.01018 0
M  V30 82 C 7.1604 1.02172 1.74371 0
M  V30 83 C 7.4814 -0.446414 1.89821 0
M  V30 84 O 6.7514 -1.32234 1.44537 0
M  V30 85 H 5.3314 0.375066 0.646014 0
M  V30 86 H 7.9934 1.52187 1.21758 0
M  V30 87 H 7.0894 1.48538 2.74487 0
M  V30 88 N 7.3905 -1.2043 1.01659 0
M  V30 89 C 8.6385 -1.89423 0.704522 0
M  V30 90 C 8.9595 -1.79231 -0.768197 0
M  V30 91 O 8.2295 -1.1947 -1.55254 0
M  V30 92 H 6.8095 -0.701178 0.257602 0
M  V30 93 H 9.4715 -1.4626 1.28818 0
M  V30 94 H 8.5675 -2.96052 0.987916 0
M  V30 95 N 8.8686 -0.792821 -1.36206 0
M  V30 96 C 10.1146 -0.376415 -1.99887 0
M  V30 97 C 10.4696 1.04127 -1.61788 0
M  V30 98 O 9.7626 1.71004 -0.864193 0
M  V30 99 C 9.9566 -0.481501 -3.54142 0
M  V30 100 C 9.7856 -1.90786 -4.07223 0
M  V30 101 C 8.5556 -2.53322 -4.37214 0
M  V30 102 C 10.7536 -2.87048 -4.26741 0
M  V30 103 N 8.7356 -3.8751 -4.7614 0
M  V30 104 C 10.1066 -4.06077 -4.6851 0
M  V30 105 C 12.1616 -2.8406 -4.08918 0
M  V30 106 C 10.8646 -5.22532 -4.94321 0
M  V30 107 C 12.8906 -3.99705 -4.35878 0
M  V30 108 C 12.2526 -5.1748 -4.77906 0
M  V30 109 H 8.3516 -0.185226 -0.759747 0
M  V30 110 H 10.9356 -1.03114 -1.65153 0
M  V30 111 H 9.1066 0.143154 -3.88136 0
M  V30 112 H 10.8386 -0.0410128 -4.04679 0
M  V30 113 H 7.5936 -2.04777 -4.2704 0
M  V30 114 H 8.0176 -4.5656 -4.99882 0
M  V30 115 H 12.6596 -1.94165 -3.75579 0
M  V30 116 H 10.3776 -6.1301 -5.2654 0
M  V30 117 H 13.9636 -3.98758 -4.23655 0
M  V30 118 H 12.8436 -6.05478 -4.98363 0
M  V30 119 N 10.3467 1.47872 -0.545128 0
M  V30 120 C 11.5867 2.04391 -0.0187854 0
M  V30 121 C 11.9507 1.41162 1.30144 0
M  V30 122 O 13.1517 1.88656 1.91474 0
M  V30 123 C 11.4227 3.57299 0.0850867 0
M  V30 124 S 12.9817 4.35221 0.559302 0
M  V30 125 H 9.7997 0.710737 -0.0193301 0
M  V30 126 H 12.4017 1.81395 -0.729125 0
M  V30 127 H 11.1057 4.00847 -0.880351 0
M  V30 128 H 10.6367 3.84773 0.819348 0
M  V30 129 H 12.6517 4.61571 1.82118 0
M  V30 130 N 11.8248 0.280983 1.55075 0
M  V30 131 C 12.7878 -0.590896 2.21452 0
M  V30 132 C 13.7878 -1.07682 1.19421 0
M  V30 133 O 14.9778 -0.97605 1.44288 0
M  V30 134 C 12.1098 -1.81587 2.88511 0
M  V30 135 H 13.3028 -0.0112554 2.99898 0
M  V30 136 H 10.8558 0.0316438 1.56268 0
M  V30 137 H 11.5908 -2.43587 2.14093 0
M  V30 138 H 11.3758 -1.4753 3.63287 0
M  V30 139 H 12.8658 -2.43575 3.39206 0
M  V30 140 N 13.3029 -1.57598 0.00835791 0
M  V30 141 C 14.7189 -1.55764 -0.347822 0
M  V30 142 C 14.9189 -1.01186 -1.74252 0
M  V30 143 O 13.9749 -0.649371 -2.44007 0
M  V30 144 C 15.2879 -2.99927 -0.215407 0
M  V30 145 C 16.8359 -3.11656 -0.289725 0
M  V30 146 C 17.3109 -4.57621 -0.18634 0
M  V30 147 N 18.8019 -4.62557 -0.243978 0
M  V30 148 C 19.5369 -5.73094 -0.18745 0
M  V30 149 N 19.0329 -6.92753 -0.0810331 0
M  V30 150 N 20.8259 -5.61588 -0.239925 0
M  V30 151 H 12.9769 -1.91411 0.92062 0
M  V30 152 H 15.2399 -0.879562 0.353659 0
M  V30 153 H 14.9459 -3.43729 0.744512 0
M  V30 154 H 14.8199 -3.63865 -0.994097 0
M  V30 155 H 17.2069 -2.67779 -1.24009 0
M  V30 156 H 17.2879 -2.5048 0.51898 0
M  V30 157 H 16.9319 -5.02174 0.760519 0
M  V30 158 H 16.8619 -5.16752 -1.01364 0
M  V30 159 H 19.3529 -3.76481 -0.327217 0
M  V30 160 H 19.6659 -7.72787 -0.0440241 0
M  V30 161 H 18.0109 -6.94984 -0.0465419 0
M  V30 162 H 21.2019 -4.66996 -0.321317 0
M  V30 163 H 21.3749 -6.47714 -0.192407 0
M  V30 164 N 14.781 0.264519 -1.55364 0
M  V30 165 C 16.197 0.61215 -1.47394 0
M  V30 166 C 16.397 1.89134 -0.695018 0
M  V30 167 O 15.453 2.51563 -0.217275 0
M  V30 168 C 16.766 0.731235 -2.91674 0
M  V30 169 C 18.314 0.82473 -3.01939 0
M  V30 170 C 18.789 0.975522 -4.4749 0
M  V30 171 N 20.28 1.04083 -4.51354 0
M  V30 172 C 21.015 1.17646 -5.61201 0
M  V30 173 N 20.511 1.27874 -6.80896 0
M  V30 174 N 22.304 1.20823 -5.48961 0
M  V30 175 H 14.455 -0.575456 -2.04456 0
M  V30 176 H 16.718 -0.196099 -0.927496 0
M  V30 177 H 16.424 -0.138392 -3.51428 0
M  V30 178 H 16.298 1.60883 -3.41169 0
M  V30 179 H 18.685 1.68482 -2.42276 0
M  V30 180 H 18.766 -0.0776479 -2.55682 0
M  V30 181 H 18.41 0.120058 -5.07758 0
M  V30 182 H 18.34 1.89268 -4.91412 0
M  V30 183 H 20.831 0.973846 -3.65136 0
M  V30 184 H 21.144 1.38081 -7.60364 0
M  V30 185 H 19.489 1.24863 -6.83692 0
M  V30 186 H 22.68 1.12469 -4.54388 0
M  V30 187 H 22.853 1.31049 -6.3461 0
M  V30 188 N 16.2591 1.48442 0.529413 0
M  V30 189 C 17.1891 1.65902 1.64313 0
M  V30 190 C 18.1701 0.507897 1.6234 0
M  V30 191 O 19.3551 0.740503 1.79528 0
M  V30 192 C 16.4851 1.69911 3.02898 0
M  V30 193 C 15.4391 2.8453 3.19729 0
M  V30 194 C 14.7651 2.73629 4.59381 0
M  V30 195 C 16.0651 4.25821 3.02447 0
M  V30 196 H 17.7591 2.5914 1.49955 0
M  V30 197 H 15.3051 1.24709 0.719982 0
M  V30 198 H 17.2581 1.80715 3.80684 0
M  V30 199 H 15.9821 0.732524 3.18279 0
M  V30 200 H 14.6411 2.73283 2.44361 0
M  V30 201 H 14.2891 1.74938 4.71599 0
M  V30 202 H 13.9891 3.50541 4.71588 0
M  V30 203 H 15.5131 2.86401 5.39265 0
M  V30 204 H 16.9271 4.37898 3.70024 0
M  V30 205 H 15.3241 5.03735 3.26146 0
M  V30 206 H 16.3941 4.42244 1.98867 0
M  V30 207 N 17.7372 -0.778329 1.37039 0
M  V30 208 C 18.9772 -1.54973 1.33276 0
M  V30 209 C 19.3412 -1.91816 -0.0839376 0
M  V30 210 O 20.5422 -2.6767 -0.246228 0
M  V30 211 C 18.8132 -2.78517 2.23971 0
M  V30 212 S 20.3722 -3.6865 2.37997 0
M  V30 213 H 17.1902 -0.530639 0.473226 0
M  V30 214 H 19.7922 -0.915806 1.72723 0
M  V30 215 H 18.4962 -2.4952 3.25835 0
M  V30 216 H 18.0272 -3.46875 1.85584 0
M  V30 217 H 20.0422 -4.70182 1.58567 0
M  V30 218 N 19.2153 -1.21501 -1.00376 0
M  V30 219 C 20.4403 -1.05977 -1.78279 0
M  V30 220 C 20.8653 0.385994 -1.84097 0
M  V30 221 O 20.2233 1.27849 -1.28547 0
M  V30 222 C 20.2713 -1.66302 -3.19963 0
M  V30 223 O 19.3753 -0.909333 -4.0225 0
M  V30 224 H 18.7163 -0.372906 -0.549397 0
M  V30 225 H 21.2463 -1.6107 -1.26165 0
M  V30 226 H 21.2563 -1.70574 -3.70632 0
M  V30 227 H 19.9313 -2.71515 -3.15043 0
M  V30 228 H 18.5083 -0.941795 -3.60811 0
M  V30 229 N 20.6934 1.19889 -1.02296 0
M  V30 230 C 21.6564 2.21116 -0.603351 0
M  V30 231 C 22.6564 1.5738 0.329884 0
M  V30 232 O 23.8464 1.73802 0.117702 0
M  V30 233 C 20.9784 3.40696 0.117992 0
M  V30 234 H 22.1714 2.59754 -1.49893 0
M  V30 235 H 19.7244 1.33463 -0.813468 0
M  V30 236 H 20.4594 3.07569 1.0282 0
M  V30 237 H 20.2444 3.88188 -0.552511 0
M  V30 238 H 21.7344 4.15692 0.398696 0
M  V30 239 N 22.1715 0.800033 1.35784 0
M  V30 240 C 23.1345 0.211565 2.28221 0
M  V30 241 C 24.1345 -0.59728 1.49296 0
M  V30 242 O 25.3245 -0.416721 1.69142 0
M  V30 243 C 22.4565 -0.705846 3.33513 0
M  V30 244 H 23.6495 1.02677 2.81776 0
M  V30 245 H 21.2025 0.570211 1.45528 0
M  V30 246 H 21.9375 -1.54498 2.85133 0
M  V30 247 H 21.7225 -0.127655 3.91892 0
M  V30 248 H 23.2125 -1.11211 4.02519 0
M  V30 249 N 23.6496 -1.47581 0.552962 0
M  V30 250 C 24.8956 -2.02782 0.0273648 0
M  V30 251 C 25.2286 -1.42687 -1.31734 0
M  V30 252 O 24.5036 -0.580897 -1.85623 0
M  V30 253 C 24.7866 -3.60031 -0.0702371 0
M  V30 254 C 24.6396 -4.30566 1.30126 0
M  V30 255 C 25.9586 -4.33028 -0.785771 0
M  V30 256 H 23.0776 -0.736912 0.0114185 0
M  V30 257 H 25.7196 -1.76056 0.714432 0
M  V30 258 H 23.8696 -3.82932 -0.655382 0
M  V30 259 H 25.5416 -4.19018 1.92929 0
M  V30 260 H 23.7846 -3.91086 1.87709 0
M  V30 261 H 24.4556 -5.39114 1.18573 0
M  V30 262 H 26.9316 -4.15095 -0.288982 0
M  V30 263 H 25.8076 -5.42695 -0.823013 0
M  V30 264 H 26.0686 -4.01945 -1.841 0
M  V30 265 N 25.1277 -0.289203 -1.54924 0
M  V30 266 C 26.5387 0.205791 -1.85562 0
M  V30 267 C 26.8897 1.54351 -1.2112 0
M  V30 268 O 26.0147 2.10435 -0.504601 0
M  V30 269 C 26.6097 0.380177 -3.3666 0
M  V30 270 C 25.1687 0.819395 -3.67373 0
M  V30 271 C 24.3157 -0.079159 -2.77187 0
M  V30 272 H 27.2667 -0.510577 -1.50262 0
M  V30 273 H 27.2877 1.21659 -3.60526 0
M  V30 274 H 26.7997 -0.593589 -3.83534 0
M  V30 275 H 24.9007 1.80413 -3.26009 0
M  V30 276 H 25.0137 0.646957 -4.74712 0
M  V30 277 H 23.3777 0.439565 -2.50878 0
M  V30 278 H 24.1607 -1.04906 -3.26878 0
M  V30 279 N 26.6058 1.57591 -0.0167156 0
M  V30 280 C 27.5688 2.08393 0.954204 0
M  V30 281 C 28.5688 0.996531 1.26198 0
M  V30 282 O 29.7588 1.25858 1.20438 0
M  V30 283 C 26.8908 2.5394 2.27436 0
M  V30 284 H 28.0838 2.95455 0.514451 0
M  V30 285 H 25.6368 1.54582 0.231089 0
M  V30 286 H 26.3718 1.70171 2.76066 0
M  V30 287 H 26.1568 3.33371 2.06412 0
M  V30 288 H 27.6468 2.93512 2.97053 0
M  V30 289 N 28.0839 -0.256276 1.55502 0
M  V30 290 C 29.3319 -0.983672 1.76545 0
M  V30 291 C 29.6529 -1.86206 0.578982 0
M  V30 292 O 28.9229 -1.91656 -0.405577 0
M  V30 293 H 27.5029 -0.366191 0.651086 0
M  V30 294 H 30.1649 -0.276479 1.92929 0
M  V30 295 H 29.2609 -1.61087 2.67315 0
M  V30 296 N 29.562 -1.4872 -0.521534 0
M  V30 297 C 30.978 -1.35028 -0.850855 0
M  V30 298 C 31.178 -0.367712 -1.98116 0
M  V30 299 O 30.234 0.208037 -2.51642 0
M  V30 300 C 31.547 -2.75263 -1.21041 0
M  V30 301 C 33.095 -2.83813 -1.31981 0
M  V30 302 C 33.57 -4.24769 -1.71276 0
M  V30 303 N 35.061 -4.27482 -1.78363 0
M  V30 304 C 35.796 -5.33494 -2.1017 0
M  V30 305 N 35.292 -6.49775 -2.40343 0
M  V30 306 N 37.085 -5.20894 -2.11248 0
M  V30 307 H 29.236 -2.11214 0.22413 0
M  V30 308 H 31.499 -0.947252 0.0376439 0
M  V30 309 H 31.205 -3.48765 -0.453415 0
M  V30 310 H 31.079 -3.09327 -2.15863 0
M  V30 311 H 33.466 -2.10561 -2.06756 0
M  V30 312 H 33.547 -2.53358 -0.352596 0
M  V30 313 H 33.191 -4.9854 -0.970588 0
M  V30 314 H 33.121 -4.52673 -2.69062 0
M  V30 315 H 35.612 -3.43611 -1.57288 0
M  V30 316 H 35.925 -7.26402 -2.63743 0
M  V30 317 H 34.27 -6.53035 -2.37844 0
M  V30 318 H 37.461 -4.29065 -1.87139 0
M  V30 319 H 37.634 -6.03612 -2.35704 0
M  V30 320 N 31.0401 0.771051 -1.3745 0
M  V30 321 C 32.4561 1.07171 -1.18265 0
M  V30 322 C 32.6561 2.01491 -0.019287 0
M  V30 323 O 31.7121 2.44244 0.640408 0
M  V30 324 C 33.0251 1.66854 -2.50161 0
M  V30 325 C 34.5731 1.79109 -2.56689 0
M  V30 326 C 35.0481 2.42205 -3.88717 0
M  V30 327 N 36.5391 2.49655 -3.90162 0
M  V30 328 C 37.2741 2.9933 -4.8907 0
M  V30 329 N 36.7701 3.49172 -5.98374 0
M  V30 330 N 38.5631 2.9821 -4.76474 0
M  V30 331 H 30.7141 0.144796 -2.11906 0
M  V30 332 H 32.9771 0.126863 -0.939473 0
M  V30 333 H 32.6831 1.05017 -3.35655 0
M  V30 334 H 32.5571 2.6614 -2.673 0
M  V30 335 H 34.9441 2.40077 -1.71601 0
M  V30 336 H 35.0251 0.785757 -2.43433 0
M  V30 337 H 34.6691 1.81875 -4.74219 0
M  V30 338 H 34.5991 3.43345 -3.99276 0
M  V30 339 H 37.0901 2.14383 -3.11205 0
M  V30 340 H 37.4031 3.8548 -6.69795 0
M  V30 341 H 35.7481 3.47275 -6.02018 0
M  V30 342 H 38.9391 2.58572 -3.90203 0
M  V30 343 H 39.1121 3.36613 -5.53711 0
M  V30 344 N 32.5182 1.22032 0.997298 0
M  V30 345 C 33.7662 1.04016 1.73278 0
M  V30 346 C 34.0872 -0.426255 1.90284 0
M  V30 347 O 33.3572 -1.30694 1.45931 0
M  V30 348 H 31.9372 0.381897 0.642 0
M  V30 349 H 34.5992 1.5347 1.20137 0
M  V30 350 H 33.6952 1.51441 2.72896 0
M  V30 351 N 33.9963 -1.19345 1.0293 0
M  V30 352 C 34.9593 -2.20793 0.615069 0
M  V30 353 C 35.9593 -1.57553 -0.321533 0
M  V30 354 O 37.1493 -1.73862 -0.108483 0
M  V30 355 C 34.2813 -3.40754 -0.0999222 0
M  V30 356 H 35.4743 -2.58955 1.51269 0
M  V30 357 H 33.0273 -1.3303 0.820534 0
M  V30 358 H 33.7623 -3.0811 -1.01187 0
M  V30 359 H 33.5473 -3.87889 0.57309 0
M  V30 360 H 35.0373 -4.15898 -0.376645 0
M  V30 361 N 35.4744 -0.807222 -1.35358 0
M  V30 362 C 36.4374 -0.223665 -2.28106 0
M  V30 363 C 37.4374 0.589354 -1.4961 0
M  V30 364 O 38.6274 0.407745 -1.69361 0
M  V30 365 C 35.7594 0.688149 -3.33882 0
M  V30 366 H 36.9524 -1.04169 -2.81227 0
M  V30 367 H 34.5054 -0.577921 -1.45223 0
M  V30 368 H 35.2404 1.52984 -2.85948 0
M  V30 369 H 35.0254 0.10687 -3.91954 0
M  V30 370 H 36.5154 1.09075 -4.03104 0
M  V30 371 N 36.9525 1.47285 -0.560781 0
M  V30 372 C 38.2005 2.02064 -0.0379868 0
M  V30 373 C 38.5215 1.43711 1.31803 0
M  V30 374 O 37.7915 0.61362 1.86042 0
M  V30 375 H 36.3715 0.746918 -0.0110531 0
M  V30 376 H 39.0335 1.80648 -0.731598 0
M  V30 377 H 38.1295 3.12064 0.0474463 0
M  V30 378 N 38.4306 0.297415 1.54768 0
M  V30 379 C 39.6786 -0.312295 1.99673 0
M  V30 380 C 39.9996 -1.54686 1.18732 0
M  V30 381 O 39.2696 -1.93854 0.282382 0
M  V30 382 H 37.8496 -0.118381 0.73756 0
M  V30 383 H 40.5116 0.407915 1.90583 0
M  V30 384 H 39.6076 -0.586813 3.06534 0
M  V30 385 N 39.9087 -1.5758 0.0250728 0
M  V30 386 C 40.8387 -2.13007 -0.956575 0
M  V30 387 C 41.8197 -1.0452 -1.342 0
M  V30 388 O 43.0047 -1.32332 -1.42133 0
M  V30 389 C 40.1347 -2.65386 -2.24026 0
M  V30 390 C 39.0887 -3.78623 -1.99571 0
M  V30 391 C 38.4147 -4.17414 -3.3417 0
M  V30 392 C 39.7147 -5.04867 -1.33814 0
M  V30 393 H 41.4087 -2.9528 -0.494991 0
M  V30 394 H 38.9547 -1.42042 -0.236651 0
M  V30 395 H 40.9077 -3.02794 -2.93076 0
M  V30 396 H 39.6317 -1.80268 -2.72343 0
M  V30 397 H 38.2907 -3.41646 -1.32941 0
M  V30 398 H 37.9387 -3.29284 -3.80238 0
M  V30 399 H 37.6387 -4.93719 -3.18615 0
M  V30 400 H 39.1627 -4.57402 -4.04495 0
M  V30 401 H 40.5767 -5.39888 -1.92857 0
M  V30 402 H 38.9737 -5.86144 -1.28669 0
M  V30 403 H 40.0437 -4.83904 -0.310561 0
M  V30 404 N 41.3868 0.248026 -1.55636 0
M  V30 405 C 42.6348 0.974295 -1.77065 0
M  V30 406 C 42.9558 1.85897 -0.588849 0
M  V30 407 O 42.2258 1.91868 0.395407 0
M  V30 408 H 40.8058 0.362733 -0.653019 0
M  V30 409 H 43.4678 0.266244 -1.93073 0
M  V30 410 H 42.5638 1.59667 -2.68166 0
M  V30 411 N 42.8649 1.48995 0.513639 0
M  V30 412 C 43.7949 1.67636 1.62544 0
M  V30 413 C 44.7759 0.525087 1.61793 0
M  V30 414 O 45.9609 0.759502 1.78732 0
M  V30 415 C 43.0909 1.73114 3.01079 0
M  V30 416 C 42.0449 2.87905 3.16693 0
M  V30 417 C 41.3709 2.78486 4.56453 0
M  V30 418 C 42.6709 4.29005 2.97913 0
M  V30 419 H 44.3649 2.60716 1.47198 0
M  V30 420 H 41.9109 1.25465 0.706714 0
M  V30 421 H 43.8639 1.84742 3.78746 0
M  V30 422 H 42.5879 0.766241 3.17484 0
M  V30 423 H 41.2469 2.75859 2.41448 0
M  V30 424 H 40.8949 1.7993 4.69717 0
M  V30 425 H 40.5949 3.55523 4.67843 0
M  V30 426 H 42.1189 2.92104 5.36197 0
M  V30 427 H 43.5329 4.41798 3.65359 0
M  V30 428 H 41.9299 5.07166 3.20785 0
M  V30 429 H 42.9999 4.44329 1.94165 0
M  V30 430 N 44.343 -0.763751 1.37857 0
M  V30 431 C 45.306 -1.85889 1.34081 0
M  V30 432 C 46.306 -1.58949 0.243277 0
M  V30 433 O 47.496 -1.66882 0.499589 0
M  V30 434 C 44.628 -3.23176 1.08489 0
M  V30 435 H 45.821 -1.90648 2.31502 0
M  V30 436 H 43.374 -0.964367 1.23003 0
M  V30 437 H 44.109 -3.24091 0.116318 0
M  V30 438 H 43.894 -3.44124 1.8794 0
M  V30 439 H 45.384 -4.03254 1.08517 0
M  V30 440 N 45.8211 -1.22559 -0.990812 0
M  V30 441 C 47.0691 -1.04933 -1.72724 0
M  V30 442 C 47.3901 0.416158 -1.90508 0
M  V30 443 O 46.6601 1.29918 -1.46622 0
M  V30 444 H 45.2401 -0.385296 -0.639965 0
M  V30 445 H 47.9021 -1.54105 -1.19322 0
M  V30 446 H 46.9981 -1.52886 -2.72089 0
M  V30 447 N 47.2992 1.18797 -1.03562 0
M  V30 448 C 48.5472 1.88278 -0.734569 0
M  V30 449 C 48.8682 1.8043 0.739586 0
M  V30 450 O 48.1382 1.21925 1.53333 0
M  V30 451 H 46.7182 0.696991 -0.268725 0
M  V30 452 H 49.3802 1.44192 -1.31129 0
M  V30 453 H 48.4762 2.94443 -1.03489 0
M  V30 454 N 48.7773 0.814389 1.34928 0
M  V30 455 C 50.1933 0.499084 1.51596 0
M  V30 456 C 50.3933 -0.978319 1.76157 0
M  V30 457 O 49.4493 -1.76309 1.80752 0
M  V30 458 C 50.7623 1.35121 2.68631 0
M  V30 459 C 52.3103 1.34746 2.82511 0
M  V30 460 C 52.7853 2.18388 4.0258 0
M  V30 461 N 54.2763 2.15966 4.09772 0
M  V30 462 C 55.0113 2.77437 5.01813 0
M  V30 463 N 54.5073 3.47866 5.99134 0
M  V30 464 N 56.3003 2.67037 4.94619 0
M  V30 465 H 48.4513 1.7711 1.17243 0
M  V30 466 H 50.7143 0.754256 0.574284 0
M  V30 467 H 50.4203 2.40001 2.57085 0
M  V30 468 H 50.2943 1.00991 3.63429 0
M  V30 469 H 52.6813 0.30648 2.93504 0
M  V30 470 H 52.7623 1.72869 1.88547 0
M  V30 471 H 52.4063 3.2253 3.92347 0
M  V30 472 H 52.3363 1.77621 4.9574 0
M  V30 473 H 54.8273 1.64729 3.40107 0
M  V30 474 H 55.1403 3.92038 6.65977 0
M  V30 475 H 53.4853 3.51972 5.99284 0
M  V30 476 H 56.6763 2.11597 4.17546 0
M  V30 477 H 56.8493 3.15232 5.66156 0
M  V30 478 N 50.2554 -1.46986 0.568584 0
M  V30 479 C 51.2184 -2.28624 -0.162366 0
M  V30 480 C 52.2184 -1.37596 -0.832103 0
M  V30 481 O 53.4084 -1.60115 -0.68622 0
M  V30 482 C 50.5404 -3.17596 -1.23878 0
M  V30 483 H 51.7334 -2.94722 0.554899 0
M  V30 484 H 49.2864 -1.52863 0.325976 0
M  V30 485 H 50.0214 -2.56214 -1.98808 0
M  V30 486 H 49.8064 -3.846 -0.763219 0
M  V30 487 H 51.2964 -3.79078 -1.75185 0
M  V30 488 N 51.7335 -0.305618 -1.54608 0
M  V30 489 C 52.6635 0.561482 -2.26649 0
M  V30 490 C 53.6445 1.13415 -1.26772 0
M  V30 491 O 54.8295 1.16262 -1.55553 0
M  V30 492 C 51.9595 1.73122 -3.01075 0
M  V30 493 C 50.9135 1.2887 -4.08138 0
M  V30 494 C 50.2395 2.54396 -4.70305 0
M  V30 495 C 51.5395 0.416578 -5.20636 0
M  V30 496 H 53.2335 -0.0393902 -2.99374 0
M  V30 497 H 50.7795 -0.020385 -1.43986 0
M  V30 498 H 52.7325 2.34396 -3.50195 0
M  V30 499 H 51.4565 2.3584 -2.25936 0
M  V30 500 H 50.1155 0.698991 -3.59875 0
M  V30 501 H 49.7635 3.15439 -3.918 0
M  V30 502 H 49.4635 2.25486 -5.42614 0
M  V30 503 H 50.9875 3.16464 -5.2219 0
M  V30 504 H 52.4015 0.935116 -5.65622 0
M  V30 505 H 50.7985 0.221046 -5.99693 0
M  V30 506 H 51.8685 -0.557162 -4.81688 0
M  V30 507 N 53.2116 1.57565 -0.0334293 0
M  V30 508 C 54.6276 1.56297 0.322997 0
M  V30 509 C 54.8276 1.03945 1.7262 0
M  V30 510 O 53.8836 0.688109 2.42943 0
M  V30 511 C 55.1966 3.00232 0.167664 0
M  V30 512 C 56.7446 3.12078 0.240107 0
M  V30 513 C 57.2196 4.57859 0.113513 0
M  V30 514 N 58.7106 4.62887 0.170359 0
M  V30 515 C 59.4456 5.73319 0.0962517 0
M  V30 516 N 58.9416 6.92794 -0.0291881 0
M  V30 517 N 60.7346 5.61898 0.150551 0
M  V30 518 H 52.8856 1.89923 -0.950956 0
M  V30 519 H 55.1486 0.873824 -0.367608 0
M  V30 520 H 54.8546 3.42501 -0.799102 0
M  V30 521 H 54.7286 3.654 0.936083 0
M  V30 522 H 57.1156 2.69718 1.19733 0
M  V30 523 H 57.1966 2.49623 -0.558763 0
M  V30 524 H 56.8406 5.009 -0.840314 0
M  V30 525 H 56.7706 5.18299 0.931302 0
M  V30 526 H 59.2616 3.76954 0.26728 0
M  V30 527 H 59.5746 7.7276 -0.0789252 0
M  V30 528 H 57.9196 6.94971 -0.0640299 0
M  V30 529 H 61.1106 4.67448 0.246981 0
M  V30 530 H 61.2836 6.47938 0.0893365 0
M  V30 531 N 54.6897 -0.239769 1.55765 0
M  V30 532 C 55.9357 -0.968234 1.78194 0
M  V30 533 C 56.2687 -1.84701 0.599938 0
M  V30 534 O 55.5437 -1.9031 -0.401524 0
M  V30 535 C 55.8267 -1.8227 3.10564 0
M  V30 536 C 55.6797 -0.971633 4.3918 0
M  V30 537 C 56.9987 -2.80388 3.39221 0
M  V30 538 H 54.1177 -0.350572 0.648281 0
M  V30 539 H 56.7597 -0.238259 1.885 0
M  V30 540 H 54.9097 -2.44507 3.01908 0
M  V30 541 H 56.5817 -0.367408 4.59835 0
M  V30 542 H 54.8247 -0.276276 4.32919 0
M  V30 543 H 55.4957 -1.60346 5.28198 0
M  V30 544 H 57.9717 -2.28287 3.47885 0
M  V30 545 H 56.8477 -3.3729 4.33044 0
M  V30 546 H 57.1087 -3.57212 2.60484 0
M  V30 547 N 56.1678 -1.49265 -0.50573 0
M  V30 548 C 57.0978 -1.68495 -1.61653 0
M  V30 549 C 58.0788 -0.53366 -1.61512 0
M  V30 550 O 59.2638 -0.76897 -1.78327 0
M  V30 551 C 56.3938 -1.74709 -3.00157 0
M  V30 552 C 55.3478 -2.89581 -3.15162 0
M  V30 553 C 54.6738 -2.80903 -4.5497 0
M  V30 554 C 55.9738 -4.30578 -2.95634 0
M  V30 555 H 57.6678 -2.61493 -1.45814 0
M  V30 556 H 55.2138 -1.25838 -0.70005 0
M  V30 557 H 57.1668 -1.86748 -3.77761 0
M  V30 558 H 55.8908 -0.783067 -3.17074 0
M  V30 559 H 54.5498 -2.77136 -2.39982 0
M  V30 560 H 54.1978 -1.82419 -4.68756 0
M  V30 561 H 53.8978 -3.57999 -4.65951 0
M  V30 562 H 55.4218 -2.94944 -5.34641 0
M  V30 563 H 56.8358 -4.4373 -3.63011 0
M  V30 564 H 55.2328 -5.0886 -3.18091 0
M  V30 565 H 56.3028 -4.45352 -1.91806 0
M  V30 566 N 57.6459 0.756429 -1.3826 0
M  V30 567 C 58.8919 1.51772 -1.34511 0
M  V30 568 C 59.2249 1.94089 0.0656691 0
M  V30 569 O 58.4999 1.65221 1.02626 0
M  V30 570 C 58.7829 2.77226 -2.29821 0
M  V30 571 C 58.6359 2.41065 -3.79747 0
M  V30 572 C 59.9549 3.79236 -2.23312 0
M  V30 573 H 57.0739 0.550578 -0.489931 0
M  V30 574 H 59.7159 0.866607 -1.69086 0
M  V30 575 H 57.8659 3.32784 -2.00467 0
M  V30 576 H 59.5379 1.91303 -4.19763 0
M  V30 577 H 57.7809 1.7356 -3.97567 0
M  V30 578 H 58.4519 3.3081 -4.41892 0
M  V30 579 H 60.9279 3.3321 -2.49219 0
M  V30 580 H 59.8039 4.64714 -2.92116 0
M  V30 581 H 60.0649 4.24615 -1.23102 0
M  V30 582 N 59.124 1.23083 0.984299 0
M  V30 583 C 60.401 0.9689 1.69917 0
M  V30 584 C 60.781 -0.513604 2.04757 0
M  V30 585 O 60.129 -1.48383 1.73767 0
M  V30 586 C 60.339 1.87518 2.94343 0
M  V30 587 C 61.687 2.13636 3.6694 0
M  V30 588 O 62.711 1.85036 3.04368 0
M  V30 589 O 61.57 2.62119 4.79537 0
M  V30 590 H 58.664 0.365095 0.742048 0
M  V30 591 H 61.21 1.34107 1.03987 0
M  V30 592 H 59.982 2.87756 2.65164 0
M  V30 593 H 59.605 1.50514 3.6801 0
M  V30 594 N 60.6021 -1.18246 1.0419 0
M  V30 595 C 61.5351 -2.20746 0.578474 0
M  V30 596 C 62.5131 -1.57912 -0.387624 0
M  V30 597 O 63.6971 -1.86071 -0.301634 0
M  V30 598 C 60.8241 -3.38346 -0.154762 0
M  V30 599 C 59.8701 -4.19587 0.764782 0
M  V30 600 S 60.7031 -4.86014 2.24835 0
M  V30 601 C 61.8591 -6.07012 1.526 0
M  V30 602 H 62.0921 -2.59715 1.44691 0
M  V30 603 H 59.6251 -1.287 0.85297 0
M  V30 604 H 61.5831 -4.065 -0.571641 0
M  V30 605 H 60.2441 -2.97786 -0.999105 0
M  V30 606 H 59.4371 -5.03611 0.197976 0
M  V30 607 H 59.0391 -3.56818 1.12057 0
M  V30 608 H 61.3311 -6.72523 0.819733 0
M  V30 609 H 62.2741 -6.68202 2.34333 0
M  V30 610 H 62.6821 -5.55249 1.01779 0
M  V30 611 N 62.0802 -0.821533 -1.34494 0
M  V30 612 C 63.3572 -0.33159 -1.92769 0
M  V30 613 C 63.7372 1.18088 -1.74981 0
M  V30 614 O 63.0852 1.98733 -1.12772 0
M  V30 615 C 63.2952 -0.759398 -3.40638 0
M  V30 616 C 64.6432 -0.757433 -4.1779 0
M  V30 617 O 65.6672 -0.70189 -3.49216 0
M  V30 618 O 64.5262 -0.829361 -5.4017 0
M  V30 619 H 61.6202 -0.0902502 -0.822061 0
M  V30 620 H 64.1662 -0.906231 -1.43477 0
M  V30 621 H 62.9382 -1.8012 -3.47379 0
M  V30 622 H 62.5612 -0.160378 -3.97276 0
M  V30 623 N 63.5583 1.46682 -0.576371 0
M  V30 624 C 64.8063 2.02013 -0.0594163 0
M  V30 625 C 65.1273 1.45101 1.30271 0
M  V30 626 O 64.3973 0.633317 1.8538 0
M  V30 627 H 62.9773 0.746759 -0.0189745 0
M  V30 628 H 65.6393 1.79862 -0.750717 0
M  V30 629 H 64.7353 3.12097 0.014345 0
M  V30 630 N 65.0364 0.313813 1.54444 0
M  V30 631 C 66.2824 -0.292108 2.00685 0
M  V30 632 C 66.6154 -1.52548 1.20177 0
M  V30 633 O 65.8904 -1.92452 0.281531 0
M  V30 634 C 66.1734 -0.635968 3.5444 0
M  V30 635 C 66.0264 0.607437 4.4568 0
M  V30 636 C 67.3454 -1.45747 4.15266 0
M  V30 637 H 64.4644 -0.104697 0.729526 0
M  V30 638 H 67.1064 0.428457 1.85106 0
M  V30 639 H 65.2564 -1.24986 3.67846 0
M  V30 640 H 66.9284 1.24581 4.44159 0
M  V30 641 H 65.1714 1.23822 4.15753 0
M  V30 642 H 65.8424 0.322515 5.51057 0
M  V30 643 H 68.3184 -0.938645 4.05375 0
M  V30 644 H 67.1944 -1.66683 5.2298 0
M  V30 645 H 67.4554 -2.45063 3.67963 0
M  V30 646 N 66.5145 -1.57545 0.0417849 0
M  V30 647 C 67.4445 -2.14009 -0.933929 0
M  V30 648 C 68.4255 -1.05938 -1.33083 0
M  V30 649 O 69.6105 -1.33833 -1.40721 0
M  V30 650 C 66.7405 -2.67747 -2.21199 0
M  V30 651 C 65.6945 -3.80718 -1.95544 0
M  V30 652 C 65.0205 -4.20935 -3.29724 0
M  V30 653 C 66.3205 -5.06258 -1.28452 0
M  V30 654 H 68.0145 -2.95788 -0.463645 0
M  V30 655 H 65.5605 -1.42285 -0.221573 0
M  V30 656 H 67.5135 -3.05886 -2.89848 0
M  V30 657 H 66.2375 -1.83147 -2.70416 0
M  V30 658 H 64.8965 -3.43037 -1.2931 0
M  V30 659 H 64.5445 -3.33298 -3.76724 0
M  V30 660 H 64.2445 -4.9707 -3.13361 0
M  V30 661 H 65.7685 -4.61666 -3.9962 0
M  V30 662 H 67.1825 -5.41903 -1.8712 0
M  V30 663 H 65.5795 -5.87475 -1.22445 0
M  V30 664 H 66.6495 -4.84207 -0.259219 0
M  V30 665 N 67.9926 0.231505 -1.5589 0
M  V30 666 C 68.9556 1.27028 -1.90779 0
M  V30 667 C 69.9556 1.40308 -0.785507 0
M  V30 668 O 71.1456 1.38744 -1.05336 0
M  V30 669 C 68.2776 2.64566 -2.14983 0
M  V30 670 H 69.4706 0.973017 -2.83677 0
M  V30 671 H 67.0236 0.471486 -1.49019 0
M  V30 672 H 67.7586 2.99406 -1.24604 0
M  V30 673 H 67.5436 2.56305 -2.96732 0
M  V30 674 H 69.0336 3.39543 -2.43105 0
M  V30 675 N 69.4707 1.49531 0.497807 0
M  V30 676 C 70.7477 1.49682 1.25915 0
M  V30 677 C 71.1277 0.226339 2.09883 0
M  V30 678 O 70.4757 -0.791189 2.14365 0
M  V30 679 C 70.6857 2.77755 2.11313 0
M  V30 680 C 72.0337 3.27371 2.70395 0
M  V30 681 O 73.0577 2.78894 2.21578 0
M  V30 682 O 71.9167 4.11808 3.59272 0
M  V30 683 H 69.0107 0.599228 0.56996 0
M  V30 684 H 71.5567 1.61798 0.511816 0
M  V30 685 H 70.3287 3.61713 1.49264 0
M  V30 686 H 69.9517 2.68515 2.93233 0
M  V30 687 N 70.9488 -0.749086 1.3866 0
M  V30 688 C 72.1958 -1.50833 1.35114 0
M  V30 689 C 72.5238 -1.94415 -0.0574049 0
M  V30 690 O 71.7788 -1.66065 -1.03541 0
M  V30 691 C 72.0778 -2.7712 2.25697 0
M  V30 692 C 71.7438 -2.52477 3.73585 0
M  V30 693 C 70.4058 -2.45466 4.13884 0
M  V30 694 C 72.7578 -2.31066 4.67181 0
M  V30 695 C 70.0858 -2.15064 5.45861 0
M  V30 696 C 72.4378 -2.02183 5.9942 0
M  V30 697 C 71.1018 -1.93631 6.38798 0
M  V30 698 H 70.3718 -0.551936 0.494416 0
M  V30 699 H 73.0188 -0.860979 1.71054 0
M  V30 700 H 71.3238 -3.46528 1.82827 0
M  V30 701 H 73.0208 -3.35096 2.20254 0
M  V30 702 H 69.6108 -2.58807 3.41638 0
M  V30 703 H 73.7948 -2.35459 4.3689 0
M  V30 704 H 69.0508 -2.06954 5.75308 0
M  V30 705 H 73.2248 -1.8462 6.71482 0
M  V30 706 H 70.8518 -1.69839 7.40985 0
M  V30 707 N 72.4269 -1.23603 -0.977757 0
M  V30 708 C 73.3369 -1.03632 -2.1047 0
M  V30 709 C 74.3529 0.0199435 -1.73989 0
M  V30 710 O 75.5289 -0.176076 -2.00629 0
M  V30 711 C 72.5939 -0.63276 -3.40877 0
M  V30 712 C 71.6549 -1.76437 -3.91367 0
M  V30 713 C 70.8879 -1.37997 -5.15551 0
M  V30 714 O 71.1109 -0.265357 -5.69782 0
M  V30 715 O 70.0449 -2.20201 -5.60174 0
M  V30 716 H 73.8709 -1.98086 -2.30208 0
M  V30 717 H 71.4559 -1.02332 -1.08851 0
M  V30 718 H 73.3379 -0.418761 -4.19314 0
M  V30 719 H 72.0129 0.282754 -3.22463 0
M  V30 720 H 70.9199 -2.03304 -3.14036 0
M  V30 721 H 72.2529 -2.6583 -4.14241 0
M  V30 722 N 73.905 1.17692 -1.04816 0
M  V30 723 C 75.153 1.87488 -0.754497 0
M  V30 724 C 75.474 1.81205 0.720407 0
M  V30 725 O 74.744 1.23544 1.52032 0
M  V30 726 H 73.324 0.694101 -0.276102 0
M  V30 727 H 75.986 1.42793 -1.32651 0
M  V30 728 H 75.082 2.93328 -1.06606 0
M  V30 729 N 75.3831 0.828654 1.34056 0
M  V30 730 C 76.6311 0.41863 1.97717 0
M  V30 731 C 76.9521 -1.02314 1.66002 0
M  V30 732 O 76.2221 -1.71119 0.953683 0
M  V30 733 H 74.8021 0.151809 0.731412 0
M  V30 734 H 77.4641 1.05936 1.63596 0
M  V30 735 H 76.5601 0.542318 3.07352 0
M  V30 736 N 76.8612 -1.46375 0.584142 0
M  V30 737 C 78.1082 -2.02378 0.0702675 0
M  V30 738 C 78.4362 -1.45545 -1.29023 0
M  V30 739 O 77.6912 -0.610967 -1.85918 0
M  V30 740 C 77.9902 -3.57373 -0.0439342 0
M  V30 741 C 77.6562 -4.33252 1.24915 0
M  V30 742 C 76.3182 -4.53701 1.60341 0
M  V30 743 C 78.6702 -4.7681 2.1048 0
M  V30 744 C 75.9982 -5.1496 2.81128 0
M  V30 745 C 78.3502 -5.39404 3.30494 0
M  V30 746 C 77.0142 -5.5808 3.66201 0
M  V30 747 H 76.2842 -0.740554 0.0257127 0
M  V30 748 H 78.9312 -1.75727 0.761065 0
M  V30 749 H 77.2362 -3.83169 -0.817869 0
M  V30 750 H 78.9332 -3.98384 -0.457318 0
M  V30 751 H 75.5232 -4.17633 0.963364 0
M  V30 752 H 79.7072 -4.60766 1.84414 0
M  V30 753 H 74.9632 -5.27611 3.08928 0
M  V30 754 H 79.1372 -5.72114 3.97063 0
M  V30 755 H 76.7642 -6.05318 4.59885 0
M  V30 756 N 78.3393 -0.321999 -1.54275 0
M  V30 757 C 79.2693 0.537411 -2.27231 0
M  V30 758 C 80.2503 1.12064 -1.27968 0
M  V30 759 O 81.4353 1.14606 -1.56777 0
M  V30 760 C 78.5653 1.69919 -3.02894 0
M  V30 761 C 77.5193 1.24534 -4.09482 0
M  V30 762 C 76.8453 2.49394 -4.72977 0
M  V30 763 C 78.1453 0.361335 -5.21049 0
M  V30 764 H 79.8393 -0.0711406 -2.99315 0
M  V30 765 H 77.3853 -0.0356555 -1.43956 0
M  V30 766 H 79.3383 2.30668 -3.52662 0
M  V30 767 H 78.0623 2.33431 -2.28424 0
M  V30 768 H 76.7213 0.660782 -3.60596 0
M  V30 769 H 76.3693 3.11265 -3.95124 0
M  V30 770 H 76.0693 2.19718 -5.44975 0
M  V30 771 H 77.5933 3.10908 -5.25517 0
M  V30 772 H 79.0073 0.875072 -5.66582 0
M  V30 773 H 77.4043 0.157428 -5.99893 0
M  V30 774 H 78.4743 -0.60822 -4.8107 0
M  V30 775 N 79.8174 1.5752 -0.0501392 0
M  V30 776 C 81.2334 1.56631 0.306402 0
M  V30 777 C 81.4334 1.0577 1.71508 0
M  V30 778 O 80.4894 0.713837 2.422 0
M  V30 779 C 81.8024 3.00393 0.135811 0
M  V30 780 C 83.3504 3.12315 0.206993 0
M  V30 781 C 83.8254 4.57954 0.064944 0
M  V30 782 N 85.3164 4.63041 0.121254 0
M  V30 783 C 86.0514 5.73389 0.0354381 0
M  V30 784 N 85.5474 6.92724 -0.102666 0
M  V30 785 N 87.3404 5.62026 0.090946 0
M  V30 786 H 79.4914 1.88903 -0.971046 0
M  V30 787 H 81.7544 0.869876 -0.376855 0
M  V30 788 H 81.4604 3.41635 -0.835384 0
M  V30 789 H 81.3344 3.66373 0.897275 0
M  V30 790 H 83.7214 2.70973 1.16866 0
M  V30 791 H 83.8024 2.49016 -0.585208 0
M  V30 792 H 83.4464 4.99981 -0.893394 0
M  V30 793 H 83.3764 5.19258 0.876277 0
M  V30 794 H 85.8674 3.77216 0.227284 0
M  V30 795 H 86.1804 7.72633 -0.160882 0
M  V30 796 H 84.5254 6.94864 -0.137737 0
M  V30 797 H 87.7164 4.67684 0.197388 0
M  V30 798 H 87.8894 6.47997 0.0206089 0
M  V30 799 N 81.2955 -0.223234 1.56011 0
M  V30 800 C 82.2425 -1.27664 1.92277 0
M  V30 801 C 83.2125 -1.46659 0.779763 0
M  V30 802 O 84.3975 -1.60256 1.03551 0
M  V30 803 C 81.5375 -2.62234 2.24338 0
M  V30 804 C 80.6505 -2.51051 3.51564 0
M  V30 805 C 79.7855 -3.78133 3.7308 0
M  V30 806 C 78.8245 -3.61665 4.93827 0
M  V30 807 N 77.9615 -4.80693 5.11741 0
M  V30 808 H 82.8015 -0.960358 2.82101 0
M  V30 809 H 80.3385 -0.462901 1.39627 0
M  V30 810 H 82.2965 -3.40596 2.40936 0
M  V30 811 H 80.9265 -2.91961 1.3769 0
M  V30 812 H 79.9785 -1.64132 3.43169 0
M  V30 813 H 81.2905 -2.34803 4.40079 0
M  V30 814 H 80.4445 -4.64938 3.89766 0
M  V30 815 H 79.1835 -3.97304 2.82844 0
M  V30 816 H 78.1885 -2.73244 4.77093 0
M  V30 817 H 79.4135 -3.43966 5.85546 0
M  V30 818 H 77.3595 -5.00181 4.24446 0
M  V30 819 H 77.2765 -4.67165 5.94384 0
M  V30 820 H 78.5445 -5.6893 5.3286 0
M  V30 821 N 82.7736 -1.49793 -0.48987 0
M  V30 822 C 84.0206 -1.59841 -1.24327 0
M  V30 823 C 84.3486 -0.290135 -1.92324 0
M  V30 824 O 83.6036 0.722749 -1.81865 0
M  V30 825 C 83.9026 -2.71488 -2.32441 0
M  V30 826 C 83.5686 -4.12614 -1.81826 0
M  V30 827 C 82.2306 -4.51017 -1.67742 0
M  V30 828 C 84.5826 -5.00892 -1.4407 0
M  V30 829 C 81.9106 -5.75459 -1.14297 0
M  V30 830 C 84.2626 -6.25863 -0.920742 0
M  V30 831 C 82.9266 -6.63086 -0.766383 0
M  V30 832 H 82.1966 -0.584899 -0.454944 0
M  V30 833 H 84.8436 -1.83663 -0.542215 0
M  V30 834 H 83.1486 -2.4168 -3.0838 0
M  V30 835 H 84.8456 -2.76469 -2.90458 0
M  V30 836 H 81.4356 -3.82307 -1.93751 0
M  V30 837 H 85.6196 -4.7187 -1.53794 0
M  V30 838 H 80.8756 -6.02989 -1.01068 0
M  V30 839 H 85.0496 -6.9364 -0.619448 0
M  V30 840 H 82.6766 -7.59393 -0.350083 0
M  V30 841 N 84.2517 0.741722 -1.39055 0
M  V30 842 C 85.6677 1.04638 -1.20512 0
M  V30 843 C 85.8677 2.01405 -0.0620218 0
M  V30 844 O 84.9237 2.45547 0.588457 0
M  V30 845 C 86.2367 1.6151 -2.53643 0
M  V30 846 C 87.7847 1.73623 -2.6043 0
M  V30 847 C 88.2597 2.33906 -3.93767 0
M  V30 848 N 89.7507 2.41323 -3.9537 0
M  V30 849 C 90.4857 2.88888 -4.95309 0
M  V30 850 N 89.9817 3.36401 -6.05645 0
M  V30 851 N 91.7747 2.88037 -4.82692 0
M  V30 852 H 83.9257 0.0998155 -2.12165 0
M  V30 853 H 86.1887 0.106907 -0.941953 0
M  V30 854 H 85.8947 0.978739 -3.37807 0
M  V30 855 H 85.7687 2.60411 -2.72885 0
M  V30 856 H 88.1557 2.36384 -1.76655 0
M  V30 857 H 88.2367 0.733945 -2.45045 0
M  V30 858 H 87.8807 1.71776 -4.7797 0
M  V30 859 H 87.8107 3.34799 -4.06469 0
M  V30 860 H 90.3017 2.07734 -3.15682 0
M  V30 861 H 90.6147 3.71186 -6.77821 0
M  V30 862 H 88.9597 3.34427 -6.09248 0
M  V30 863 H 92.1507 2.50237 -3.95599 0
M  V30 864 H 92.3237 3.24792 -5.60726 0
M  V30 865 N 85.7298 1.2412 0.971189 0
M  V30 866 C 86.6928 1.03156 2.04674 0
M  V30 867 C 87.6928 -0.00990322 1.60797 0
M  V30 868 O 88.8828 0.230729 1.72665 0
M  V30 869 C 86.0148 0.562765 3.36223 0
M  V30 870 H 87.2078 1.98614 2.24705 0
M  V30 871 H 84.7608 1.06293 1.14593 0
M  V30 872 H 85.4958 -0.395176 3.21883 0
M  V30 873 H 85.2808 1.31441 3.69413 0
M  V30 874 H 86.7708 0.437015 4.15307 0
M  V30 875 N 87.2079 -1.17134 1.05439 0
M  V30 876 C 88.6239 -1.39454 0.776201 0
M  V30 877 C 88.8239 -1.91454 -0.628307 0
M  V30 878 O 87.8799 -2.10777 -1.39031 0
M  V30 879 C 89.1929 -2.38305 1.83388 0
M  V30 880 C 90.7409 -2.52006 1.85639 0
M  V30 881 C 91.2159 -3.54133 2.90437 0
M  V30 882 N 92.7069 -3.61653 2.89415 0
M  V30 883 C 93.4419 -4.4044 3.67152 0
M  V30 884 N 92.9379 -5.22721 4.54681 0
M  V30 885 N 94.7309 -4.35337 3.55581 0
M  V30 886 H 86.8819 -0.817134 1.96053 0
M  V30 887 H 89.1449 -0.421626 0.849079 0
M  V30 888 H 88.8509 -2.07173 2.84204 0
M  V30 889 H 88.7249 -3.37841 1.67761 0
M  V30 890 H 91.1119 -2.82447 0.85486 0
M  V30 891 H 91.1929 -1.52537 2.05344 0
M  V30 892 H 90.8369 -3.24431 3.90777 0
M  V30 893 H 90.7669 -4.53313 2.67983 0
M  V30 894 H 93.2579 -3.02909 2.25952 0
M  V30 895 H 93.5709 -5.80027 5.10674 0
M  V30 896 H 91.9159 -5.22093 4.58741 0
M  V30 897 H 95.1069 -3.70112 2.86592 0
M  V30 898 H 95.2799 -4.96494 4.1641 0
M  V30 899 N 88.686 -0.835752 -1.33615 0
M  V30 900 C 89.933 -0.429959 -1.97883 0
M  V30 901 C 90.261 1.01006 -1.66217 0
M  V30 902 O 89.516 1.72047 -0.93265 0
M  V30 903 C 89.815 -0.593925 -3.52431 0
M  V30 904 C 89.481 -2.00158 -4.04039 0
M  V30 905 C 88.143 -2.38662 -4.17844 0
M  V30 906 C 90.495 -2.92117 -4.31644 0
M  V30 907 C 87.823 -3.68435 -4.56588 0
M  V30 908 C 90.175 -4.21368 -4.71838 0
M  V30 909 C 88.839 -4.59833 -4.83849 0
M  V30 910 H 88.109 -0.157333 -0.724104 0
M  V30 911 H 90.756 -1.06217 -1.59343 0
M  V30 912 H 89.061 0.121619 -3.91611 0
M  V30 913 H 90.758 -0.260282 -4.00154 0
M  V30 914 H 87.348 -1.69252 -3.93766 0
M  V30 915 H 91.532 -2.63608 -4.20505 0
M  V30 916 H 86.788 -3.98046 -4.64079 0
M  V30 917 H 90.962 -4.92703 -4.92155 0
M  V30 918 H 88.589 -5.60438 -5.13627 0
M  V30 919 N 90.1641 1.46063 -0.591896 0
M  V30 920 C 91.5751 1.85944 -0.167822 0
M  V30 921 C 91.9261 1.49429 1.27143 0
M  V30 922 O 91.0511 0.913515 1.96173 0
M  V30 923 C 91.6461 3.37489 -0.297794 0
M  V30 924 C 90.2051 3.76332 0.0714732 0
M  V30 925 C 89.3521 2.7006 -0.629509 0
M  V30 926 H 92.3031 1.37087 -0.799555 0
M  V30 927 H 92.3241 3.77532 0.474349 0
M  V30 928 H 91.8361 3.64034 -1.3454 0
M  V30 929 H 89.9371 3.55405 1.11886 0
M  V30 930 H 90.0501 4.78088 -0.311245 0
M  V30 931 H 88.4141 2.54607 -0.0687867 0
M  V30 932 H 89.1971 2.99444 -1.67894 0
M  V30 933 N 91.6422 0.330177 1.54103 0
M  V30 934 C 92.9192 -0.325007 1.92881 0
M  V30 935 C 93.2992 -1.6934 1.26045 0
M  V30 936 O 92.6472 -2.24855 0.406526 0
M  V30 937 C 92.8572 -0.410634 3.46576 0
M  V30 938 C 94.2052 -0.667801 4.19316 0
M  V30 939 O 95.2292 -0.49329 3.52768 0
M  V30 940 O 94.0882 -1.00491 5.37181 0
M  V30 941 H 91.1822 -0.186873 0.80561 0
M  V30 942 H 93.7282 0.380376 1.65382 0
M  V30 943 H 92.5002 0.550164 3.87413 0
M  V30 944 H 92.1232 -1.16333 3.802 0
M  V30 945 N 93.1203 -1.57491 0.0584922 0
M  V30 946 C 94.0523 -2.08916 -0.942694 0
M  V30 947 C 95.0653 -1.0185 -1.27006 0
M  V30 948 O 96.2543 -1.29398 -1.22957 0
M  V30 949 C 93.3543 -2.52341 -2.26224 0
M  V30 950 C 92.5273 -3.82827 -2.1157 0
M  V30 951 C 91.5863 -4.12487 -3.26712 0
M  V30 952 O 90.6123 -4.82295 -3.02292 0
M  V30 953 N 91.8143 -3.64978 -4.5141 0
M  V30 954 H 94.5793 -2.95437 -0.503722 0
M  V30 955 H 92.1403 -1.61397 -0.12757 0
M  V30 956 H 94.1323 -2.69254 -3.02133 0
M  V30 957 H 92.7023 -1.7103 -2.61663 0
M  V30 958 H 91.9223 -3.75425 -1.20208 0
M  V30 959 H 93.2103 -4.68263 -1.99015 0
M  V30 960 H 92.6083 -3.08558 -4.7414 0
M  V30 961 H 91.1653 -3.87115 -5.2439 0
M  V30 962 N 94.5984 0.214957 -1.56127 0
M  V30 963 C 96.0094 0.781386 -1.69562 0
M  V30 964 C 96.3604 1.84707 -0.66165 0
M  V30 965 O 95.4854 2.156 0.185927 0
M  V30 966 C 96.0804 1.42411 -3.07416 0
M  V30 967 C 94.6394 1.93786 -3.22683 0
M  V30 968 C 93.7864 0.800438 -2.65496 0
M  V30 969 H 96.7374 -0.00980633 -1.58697 0
M  V30 970 H 96.7584 2.29309 -3.0364 0
M  V30 971 H 96.2704 0.64826 -3.82648 0
M  V30 972 H 94.3714 2.74152 -2.52332 0
M  V30 973 H 94.4844 2.1133 -4.29973 0
M  V30 974 H 92.8484 1.2095 -2.2415 0
M  V30 975 H 93.6314 0.0371471 -3.4328 0
M  V30 976 N 96.0765 1.50051 0.48192 0
M  V30 977 C 97.3235 1.60498 1.23477 0
M  V30 978 C 97.6515 0.300331 1.92167 0
M  V30 979 O 96.9065 -0.713094 1.82246 0
M  V30 980 C 97.2055 2.72717 2.30998 0
M  V30 981 C 96.8715 4.13572 1.79636 0
M  V30 982 C 95.5335 4.519 1.65348 0
M  V30 983 C 97.8855 5.01649 1.41412 0
M  V30 984 C 95.2135 5.76057 1.11244 0
M  V30 985 C 97.5655 6.26343 0.887538 0
M  V30 986 C 96.2295 6.63483 0.731207 0
M  V30 987 H 95.4995 0.587303 0.451836 0
M  V30 988 H 98.1465 1.83948 0.532468 0
M  V30 989 H 96.4515 2.43312 3.07094 0
M  V30 990 H 98.1485 2.78006 2.88988 0
M  V30 991 H 94.7385 3.83329 1.91721 0
M  V30 992 H 98.9225 4.72679 1.51289 0
M  V30 993 H 94.1785 6.03516 0.978686 0
M  V30 994 H 98.3525 6.93958 0.582654 0
M  V30 995 H 95.9795 7.59568 0.309806 0
M  V30 996 N 97.5546 -0.734337 1.39446 0
M  V30 997 C 98.8036 -1.48937 1.36017 0
M  V30 998 C 99.1166 -1.95557 -0.0409005 0
M  V30 999 O 100.323 -2.70779 -0.19778 0
M  V30 1000 C 98.7786 -2.69125 2.38955 0
M  V30 1001 C 98.3866 -2.29452 3.8478 0
M  V30 1002 C 100.131 -3.46944 2.44603 0
M  V30 1003 C 98.0376 -3.46366 4.79358 0
M  V30 1004 H 96.9676 -0.559296 0.505672 0
M  V30 1005 H 99.6186 -0.800983 1.65095 0
M  V30 1006 H 98.0006 -3.40041 2.02948 0
M  V30 1007 H 99.1746 -1.66077 4.29831 0
M  V30 1008 H 97.4896 -1.64723 3.82433 0
M  V30 1009 H 100.087 -4.33907 3.12456 0
M  V30 1010 H 100.43 -3.89454 1.47076 0
M  V30 1011 H 100.963 -2.83056 2.79507 0
M  V30 1012 H 97.7016 -3.08905 5.78151 0
M  V30 1013 H 97.2216 -4.08719 4.38986 0
M  V30 1014 H 98.9006 -4.12691 4.98292 0
M  V30 1015 N 99.0327 -1.24633 -0.964593 0
M  V30 1016 C 99.9957 -1.0424 -2.04124 0
M  V30 1017 C 100.996 0.00137563 -1.608 0
M  V30 1018 O 102.186 -0.239883 -1.7254 0
M  V30 1019 C 99.3177 -0.580588 -3.3592 0
M  V30 1020 H 100.511 -1.99803 -2.23649 0
M  V30 1021 H 98.0637 -1.06899 -1.14027 0
M  V30 1022 H 98.7987 0.3781 -3.22088 0
M  V30 1023 H 98.5837 -1.33398 -3.6871 0
M  V30 1024 H 100.074 -0.459034 -4.15069 0
M  V30 1025 N 100.511 1.16574 -1.06058 0
M  V30 1026 C 101.441 2.23057 -0.690488 0
M  V30 1027 C 102.422 1.67141 0.315901 0
M  V30 1028 O 103.607 1.93253 0.191556 0
M  V30 1029 C 100.737 3.47222 -0.073625 0
M  V30 1030 C 99.6908 4.16016 -1.00573 0
M  V30 1031 C 99.0168 5.34104 -0.252289 0
M  V30 1032 C 100.317 4.67264 -2.33371 0
M  V30 1033 H 102.011 2.54271 -1.58072 0
M  V30 1034 H 99.5568 1.22218 -0.76149 0
M  V30 1035 H 101.51 4.20939 0.19714 0
M  V30 1036 H 100.234 3.15302 0.85161 0
M  V30 1037 H 98.8928 3.44223 -1.2612 0
M  V30 1038 H 98.5408 4.98437 0.675988 0
M  V30 1039 H 98.2408 5.81072 -0.873455 0
M  V30 1040 H 99.7648 6.10599 0.0109857 0
M  V30 1041 H 101.179 5.32573 -2.12223 0
M  V30 1042 H 99.5758 5.24843 -2.90963 0
M  V30 1043 H 100.646 3.83602 -2.96611 0
M  V30 1044 N 101.989 0.842826 1.3317 0
M  V30 1045 C 102.899 0.281444 2.32906 0
M  V30 1046 C 103.915 -0.594587 1.63526 0
M  V30 1047 O 105.091 -0.49777 1.95152 0
M  V30 1048 C 102.156 -0.530929 3.42611 0
M  V30 1049 C 101.217 0.369843 4.27704 0
M  V30 1050 C 100.45 -0.403853 5.3217 0
M  V30 1051 O 100.673 -1.63513 5.46461 0
M  V30 1052 O 99.6069 0.224199 6.01482 0
M  V30 1053 H 103.433 1.10744 2.82789 0
M  V30 1054 H 101.018 0.60545 1.36582 0
M  V30 1055 H 102.9 -0.992437 4.09547 0
M  V30 1056 H 101.575 -1.33392 2.94938 0
M  V30 1057 H 100.482 0.879275 3.6362 0
M  V30 1058 H 101.815 1.13771 4.78871 0
M  V30 1059 N 103.467 -1.45747 0.599634 0
M  V30 1060 C 104.744 -1.95585 0.0240846 0
M  V30 1061 C 105.124 -1.54217 -1.44154 0
M  V30 1062 O 104.472 -0.800903 -2.14004 0
M  V30 1063 C 104.682 -3.48344 0.21385 0
M  V30 1064 C 106.03 -4.24504 0.0904902 0
M  V30 1065 O 107.054 -3.55911 0.143558 0
M  V30 1066 O 105.913 -5.46491 -0.0310766 0
M  V30 1067 H 103.007 -0.82602 -0.0402478 0
M  V30 1068 H 105.553 -1.55951 0.669139 0
M  V30 1069 H 104.325 -3.71397 1.23206 0
M  V30 1070 H 103.948 -3.9485 -0.466842 0
M  V30 1071 N 104.945 -0.338344 -1.53925 0
M  V30 1072 C 106.361 0.0137736 -1.59594 0
M  V30 1073 C 106.561 1.49186 -1.35447 0
M  V30 1074 O 105.617 2.24987 -1.14616 0
M  V30 1075 C 106.93 -0.41773 -2.97784 0
M  V30 1076 C 108.478 -0.369633 -3.1081 0
M  V30 1077 C 108.953 -0.776524 -4.51369 0
M  V30 1078 N 110.444 -0.730506 -4.57403 0
M  V30 1079 C 111.179 -1.01736 -5.64303 0
M  V30 1080 N 110.675 -1.3721 -6.79077 0
M  V30 1081 N 112.468 -0.941942 -5.54151 0
M  V30 1082 H 104.619 -1.3012 -1.67876 0
M  V30 1083 H 106.882 -0.530082 -0.78595 0
M  V30 1084 H 106.588 -1.44811 -3.20504 0
M  V30 1085 H 106.462 0.209729 -3.76616 0
M  V30 1086 H 108.849 0.651568 -2.87817 0
M  V30 1087 H 108.93 -1.03223 -2.34049 0
M  V30 1088 H 108.574 -1.79571 -4.75096 0
M  V30 1089 H 108.504 -0.0914649 -5.26521 0
M  V30 1090 H 110.995 -0.468783 -3.74981 0
M  V30 1091 H 111.308 -1.57597 -7.5656 0
M  V30 1092 H 109.653 -1.4105 -6.80536 0
M  V30 1093 H 112.844 -0.664184 -4.63364 0
M  V30 1094 H 113.017 -1.16884 -6.37371 0
M  V30 1095 N 106.423 1.57458 -0.0668435 0
M  V30 1096 C 107.839 1.56947 0.289772 0
M  V30 1097 C 108.039 1.07584 1.70376 0
M  V30 1098 O 107.095 0.739486 2.41429 0
M  V30 1099 C 108.408 3.0052 0.103943 0
M  V30 1100 C 109.956 3.12517 0.173857 0
M  V30 1101 C 110.431 4.57997 0.0163682 0
M  V30 1102 N 111.922 4.63144 0.0721352 0
M  V30 1103 C 112.657 5.73394 -0.0253794 0
M  V30 1104 N 112.153 6.92576 -0.176133 0
M  V30 1105 N 113.946 5.62091 0.0313305 0
M  V30 1106 H 106.097 1.87863 -0.991027 0
M  V30 1107 H 108.36 0.86583 -0.38606 0
M  V30 1108 H 108.066 3.40729 -0.871572 0
M  V30 1109 H 107.94 3.67304 0.858366 0
M  V30 1110 H 110.327 2.72197 1.13985 0
M  V30 1111 H 110.408 2.48381 -0.611586 0
M  V30 1112 H 110.052 4.99005 -0.946374 0
M  V30 1113 H 109.982 5.20158 0.821153 0
M  V30 1114 H 112.473 3.77436 0.187263 0
M  V30 1115 H 112.786 7.72418 -0.242821 0
M  V30 1116 H 111.131 6.94678 -0.211429 0
M  V30 1117 H 114.322 4.67867 0.147773 0
M  V30 1118 H 114.495 6.47982 -0.048121 0
M  V30 1119 N 107.901 -0.206675 1.56239 0
M  V30 1120 C 109.149 -0.927007 1.79586 0
M  V30 1121 C 109.47 -1.8427 0.637929 0
M  V30 1122 O 108.74 -1.92849 -0.344398 0
M  V30 1123 H 107.32 -0.345292 0.662407 0
M  V30 1124 H 109.982 -0.21496 1.93711 0
M  V30 1125 H 109.078 -1.52501 2.72305 0
M  V30 1126 N 109.379 -1.50304 -0.473955 0
M  V30 1127 C 110.626 -1.6115 -1.22625 0
M  V30 1128 C 110.954 -0.310517 -1.92005 0
M  V30 1129 O 110.209 0.703419 -1.82621 0
M  V30 1130 C 110.508 -2.73938 -2.29549 0
M  V30 1131 C 110.174 -4.14519 -1.7744 0
M  V30 1132 C 108.836 -4.5277 -1.62949 0
M  V30 1133 C 111.188 -5.02392 -1.3875 0
M  V30 1134 C 108.516 -5.76639 -1.08187 0
M  V30 1135 C 110.868 -6.26805 -0.854309 0
M  V30 1136 C 109.532 -6.63861 -0.696011 0
M  V30 1137 H 108.802 -0.589691 -0.448715 0
M  V30 1138 H 111.449 -1.84228 -0.522705 0
M  V30 1139 H 109.754 -2.44937 -3.05799 0
M  V30 1140 H 111.451 -2.79534 -2.87509 0
M  V30 1141 H 108.041 -3.8434 -1.89685 0
M  V30 1142 H 112.225 -4.73474 -1.4878 0
M  V30 1143 H 107.481 -6.04027 -0.946666 0
M  V30 1144 H 111.655 -6.94258 -0.545843 0
M  V30 1145 H 109.282 -7.59722 -0.26952 0
M  V30 1146 N 110.857 0.726932 -1.39834 0
M  V30 1147 C 112.103 1.48771 -1.38704 0
M  V30 1148 C 112.458 1.92394 0.0146387 0
M  V30 1149 O 111.751 1.64474 0.982797 0
M  V30 1150 C 111.945 2.73495 -2.30077 0
M  V30 1151 C 111.774 2.42068 -3.78989 0
M  V30 1152 C 110.544 2.33966 -4.4787 0
M  V30 1153 C 112.742 2.0708 -4.70768 0
M  V30 1154 N 110.724 1.95095 -5.82075 0
M  V30 1155 C 112.095 1.78719 -5.93683 0
M  V30 1156 C 114.15 1.93618 -4.58712 0
M  V30 1157 C 112.853 1.3825 -7.05889 0
M  V30 1158 C 114.879 1.54553 -5.70848 0
M  V30 1159 C 114.241 1.27082 -6.92842 0
M  V30 1160 H 110.34 0.542919 -0.562817 0
M  V30 1161 H 112.924 0.84408 -1.75452 0
M  V30 1162 H 111.095 3.35625 -1.95474 0
M  V30 1163 H 112.827 3.39755 -2.19883 0
M  V30 1164 H 109.582 2.51331 -4.0141 0
M  V30 1165 H 110.006 1.7823 -6.53118 0
M  V30 1166 H 114.648 2.13522 -3.64922 0
M  V30 1167 H 112.366 1.17088 -7.99572 0
M  V30 1168 H 115.952 1.44731 -5.6351 0
M  V30 1169 H 114.832 0.973069 -7.78139 0
M  V30 1170 N 112.336 1.25143 0.95797 0
M  V30 1171 C 113.582 1.09855 1.70469 0
M  V30 1172 C 113.915 -0.360187 1.90831 0
M  V30 1173 O 113.19 -1.26568 1.47685 0
M  V30 1174 C 113.473 1.8497 3.08963 0
M  V30 1175 C 113.326 3.38652 2.96032 0
M  V30 1176 C 114.645 1.63016 4.08795 0
M  V30 1177 H 111.764 0.400465 0.618706 0
M  V30 1178 H 114.406 1.53933 1.11376 0
M  V30 1179 H 112.556 1.47505 3.59409 0
M  V30 1180 H 114.228 3.85772 2.52938 0
M  V30 1181 H 112.471 3.66534 2.32025 0
M  V30 1182 H 113.142 3.8642 3.94187 0
M  V30 1183 H 115.618 1.95625 3.67247 0
M  V30 1184 H 114.494 2.18015 5.03747 0
M  V30 1185 H 114.755 0.570692 4.38401 0
M  V30 1186 N 113.814 -1.1601 1.06675 0
M  V30 1187 C 115.039 -1.91068 0.806706 0
M  V30 1188 C 115.464 -1.77112 -0.633485 0
M  V30 1189 O 114.822 -1.09908 -1.44187 0
M  V30 1190 C 114.87 -3.39655 1.21106 0
M  V30 1191 O 113.974 -4.10893 0.352189 0
M  V30 1192 H 113.315 -0.595125 0.294486 0
M  V30 1193 H 115.845 -1.46955 1.42356 0
M  V30 1194 H 115.855 -3.90434 1.18428 0
M  V30 1195 H 114.53 -3.49132 2.26008 0
M  V30 1196 H 113.107 -3.70285 0.440868 0
M  V30 1197 N 115.292 -0.849877 -1.32721 0
M  V30 1198 C 116.202 -0.293791 -2.32753 0
M  V30 1199 C 117.218 0.585906 -1.63839 0
M  V30 1200 O 118.394 0.487413 -1.95413 0
M  V30 1201 C 115.459 0.512752 -3.42887 0
M  V30 1202 C 114.52 -0.39252 -4.27502 0
M  V30 1203 C 113.753 0.375625 -5.32377 0
M  V30 1204 O 113.976 1.60613 -5.4732 0
M  V30 1205 O 112.91 -0.256094 -6.01355 0
M  V30 1206 H 116.736 -1.12242 -2.82197 0
M  V30 1207 H 114.321 -0.612685 -1.36259 0
M  V30 1208 H 116.203 0.970704 -4.10067 0
M  V30 1209 H 114.878 1.31826 -2.95641 0
M  V30 1210 H 113.785 -0.898547 -3.63149 0
M  V30 1211 H 115.118 -1.16309 -4.7826 0
M  V30 1212 N 116.77 1.45427 -0.607355 0
M  V30 1213 C 117.702 2.2871 0.149752 0
M  V30 1214 C 118.715 1.39937 0.831958 0
M  V30 1215 O 119.904 1.64313 0.697385 0
M  V30 1216 C 117.004 3.15673 1.23304 0
M  V30 1217 C 116.177 4.32722 0.637996 0
M  V30 1218 C 115.236 5.00895 1.61215 0
M  V30 1219 O 114.262 5.57697 1.13854 0
M  V30 1220 N 115.464 5.00159 2.94655 0
M  V30 1221 H 118.229 2.94328 -0.564882 0
M  V30 1222 H 115.79 1.55612 -0.446823 0
M  V30 1223 H 117.782 3.58144 1.88454 0
M  V30 1224 H 116.352 2.51965 1.8502 0
M  V30 1225 H 115.572 3.93734 -0.191572 0
M  V30 1226 H 116.86 5.08321 0.220665 0
M  V30 1227 H 116.258 4.553 3.35735 0
M  V30 1228 H 114.815 5.46495 3.55228 0
M  V30 1229 N 118.248 0.346503 1.53744 0
M  V30 1230 C 119.478 -0.250047 2.05081 0
M  V30 1231 C 119.886 -1.44529 1.22098 0
M  V30 1232 O 119.229 -1.81992 0.249917 0
M  V30 1233 C 119.291 -0.725934 3.52094 0
M  V30 1234 C 118.955 0.350053 4.55657 0
M  V30 1235 C 119.952 1.19372 5.0601 0
M  V30 1236 C 117.637 0.504827 4.99757 0
M  V30 1237 C 119.631 2.17768 5.99046 0
M  V30 1238 C 117.318 1.49218 5.92602 0
M  V30 1239 C 118.316 2.32706 6.42135 0
M  V30 1240 O 118.004 3.2976 7.33153 0
M  V30 1241 H 117.736 -0.0515469 0.674032 0
M  V30 1242 H 120.29 0.497559 1.99282 0
M  V30 1243 H 118.52 -1.52483 3.55367 0
M  V30 1244 H 120.209 -1.24336 3.86388 0
M  V30 1245 H 120.975 1.08525 4.72702 0
M  V30 1246 H 116.854 -0.135178 4.60802 0
M  V30 1247 H 120.398 2.82971 6.37631 0
M  V30 1248 H 116.295 1.6012 6.25325 0
M  V30 1249 H 117.063 3.25265 7.51096 0
M  V30 1250 N 119.726 -1.57421 0.075193 0
M  V30 1251 C 120.974 -1.93236 -0.591974 0
M  V30 1252 C 121.295 -0.956241 -1.69944 0
M  V30 1253 O 120.565 -0.00494792 -1.95899 0
M  V30 1254 H 119.145 -0.713355 -0.22166 0
M  V30 1255 H 121.807 -1.9444 0.133848 0
M  V30 1256 H 120.903 -2.95131 -1.01509 0
M  V30 1257 N 121.204 0.198386 -1.56346 0
M  V30 1258 C 122.62 0.549085 -1.49857 0
M  V30 1259 C 122.82 1.86016 -0.774611 0
M  V30 1260 O 121.876 2.50416 -0.323776 0
M  V30 1261 C 123.189 0.606868 -2.94512 0
M  V30 1262 C 124.737 0.695925 -3.05165 0
M  V30 1263 C 125.212 0.784848 -4.51225 0
M  V30 1264 N 126.703 0.848463 -4.55363 0
M  V30 1265 C 127.438 0.937378 -5.65686 0
M  V30 1266 N 126.934 0.9888 -6.85707 0
M  V30 1267 N 128.727 0.974312 -5.53592 0
M  V30 1268 H 120.878 -0.661655 -2.01831 0
M  V30 1269 H 123.141 -0.235261 -0.918344 0
M  V30 1270 H 122.847 -0.28732 -3.50524 0
M  V30 1271 H 122.721 1.46268 -3.47686 0
M  V30 1272 H 125.108 1.58055 -2.49204 0
M  V30 1273 H 125.189 -0.186022 -2.55123 0
M  V30 1274 H 124.833 -0.0954072 -5.0781 0
M  V30 1275 H 124.763 1.68255 -4.98997 0
M  V30 1276 H 127.254 0.818103 -3.68938 0
M  V30 1277 H 127.567 1.05707 -7.65536 0
M  V30 1278 H 125.912 0.957534 -6.88372 0
M  V30 1279 H 129.103 0.930954 -4.58749 0
M  V30 1280 H 129.276 1.04015 -6.39597 0
M  V30 1281 N 122.682 1.50554 0.465978 0
M  V30 1282 C 123.612 1.72722 1.57128 0
M  V30 1283 C 124.593 0.576294 1.6004 0
M  V30 1284 O 125.778 0.81598 1.76225 0
M  V30 1285 C 122.908 1.82605 2.95419 0
M  V30 1286 C 121.862 2.97835 3.07373 0
M  V30 1287 C 121.188 2.92867 4.47363 0
M  V30 1288 C 122.488 4.38265 2.84114 0
M  V30 1289 H 124.182 2.65267 1.38829 0
M  V30 1290 H 121.728 1.2765 0.666441 0
M  V30 1291 H 123.681 1.96698 3.72677 0
M  V30 1292 H 122.405 0.866858 3.14886 0
M  V30 1293 H 121.064 2.83401 2.3255 0
M  V30 1294 H 120.712 1.94783 4.63755 0
M  V30 1295 H 120.412 3.70227 4.56296 0
M  V30 1296 H 121.936 3.09015 5.26633 0
M  V30 1297 H 123.35 4.53198 3.51118 0
M  V30 1298 H 121.747 5.17115 3.04487 0
M  V30 1299 H 122.817 4.50281 1.7993 0
M  V30 1300 N 124.16 -0.719506 1.40217 0
M  V30 1301 C 125.576 -1.02707 1.22161 0
M  V30 1302 C 125.776 -2.0128 0.0940557 0
M  V30 1303 O 124.832 -2.46452 -0.549318 0
M  V30 1304 C 126.145 -1.57454 2.56181 0
M  V30 1305 C 127.693 -1.69458 2.63159 0
M  V30 1306 C 128.168 -2.27611 3.97438 0
M  V30 1307 N 129.659 -2.35002 3.99159 0
M  V30 1308 C 130.394 -2.80972 4.99842 0
M  V30 1309 N 129.89 -3.26723 6.10921 0
M  V30 1310 N 131.683 -2.80321 4.87213 0
M  V30 1311 H 123.834 -0.0660492 2.12297 0
M  V30 1312 H 126.097 -0.0919077 0.943534 0
M  V30 1313 H 125.803 -0.924873 3.39321 0
M  V30 1314 H 125.677 -2.56036 2.76993 0
M  V30 1315 H 128.064 -2.33543 1.80393 0
M  V30 1316 H 128.145 -0.694867 2.46181 0
M  V30 1317 H 127.789 -1.6415 4.80643 0
M  V30 1318 H 127.719 -3.2829 4.11744 0
M  V30 1319 H 130.21 -2.02685 3.18947 0
M  V30 1320 H 130.523 -3.60355 6.8364 0
M  V30 1321 H 128.868 -3.24692 6.14492 0
M  V30 1322 H 132.059 -2.43912 3.9953 0
M  V30 1323 H 132.232 -3.15831 5.65822 0
M  V30 1324 N 125.638 -1.25649 -0.95132 0
M  V30 1325 C 127.049 -1.09654 -1.51106 0
M  V30 1326 C 127.4 0.326615 -1.93462 0
M  V30 1327 O 126.525 1.21697 -1.78938 0
M  V30 1328 C 127.12 -1.98437 -2.74605 0
M  V30 1329 C 125.679 -1.86618 -3.2688 0
M  V30 1330 C 124.826 -1.9239 -1.99703 0
M  V30 1331 H 127.777 -1.38887 -0.767865 0
M  V30 1332 H 127.798 -1.5263 -3.48546 0
M  V30 1333 H 127.31 -3.02009 -2.43746 0
M  V30 1334 H 125.411 -0.859421 -3.62553 0
M  V30 1335 H 125.524 -2.71607 -3.94673 0
M  V30 1336 H 123.888 -1.36317 -2.15151 0
M  V30 1337 H 124.671 -2.97573 -1.71188 0
M  V30 1338 N 127.117 1.15442 -1.07289 0
M  V30 1339 C 128.365 1.85845 -0.794096 0
M  V30 1340 C 128.686 1.82692 0.681809 0
M  V30 1341 O 127.956 1.26741 1.49377 0
M  V30 1342 H 126.536 0.688089 -0.290763 0
M  V30 1343 H 129.198 1.39947 -1.3565 0
M  V30 1344 H 128.294 2.91001 -1.12804 0
M  V30 1345 N 128.595 0.856903 1.32268 0
M  V30 1346 C 129.525 0.31858 2.31316 0
M  V30 1347 C 130.506 -0.583487 1.59779 0
M  V30 1348 O 131.691 -0.503259 1.87566 0
M  V30 1349 C 128.821 -0.491979 3.43798 0
M  V30 1350 C 127.775 0.315849 4.26833 0
M  V30 1351 C 127.101 -0.619586 5.31098 0
M  V30 1352 C 128.401 1.54282 4.98993 0
M  V30 1353 H 130.095 1.14621 2.76591 0
M  V30 1354 H 127.641 0.552613 1.32974 0
M  V30 1355 H 129.594 -0.879012 4.1213 0
M  V30 1356 H 128.318 -1.35299 2.97257 0
M  V30 1357 H 126.977 0.684664 3.6015 0
M  V30 1358 H 126.625 -1.47751 4.8081 0
M  V30 1359 H 126.325 -0.0830621 5.87541 0
M  V30 1360 H 127.849 -1.00375 6.02293 0
M  V30 1361 H 129.263 1.22796 5.59995 0
M  V30 1362 H 127.66 2.01745 5.65172 0
M  V30 1363 H 128.73 2.30285 4.26728 0
M  V30 1364 N 130.073 -1.45103 0.615059 0
M  V30 1365 C 131.298 -2.07064 0.117988 0
M  V30 1366 C 131.723 -1.4554 -1.19163 0
M  V30 1367 O 131.081 -0.550855 -1.72729 0
M  V30 1368 C 131.129 -3.606 -0.000288387 0
M  V30 1369 O 130.233 -3.98847 -1.04856 0
M  V30 1370 H 129.574 -0.659467 0.0774581 0
M  V30 1371 H 132.104 -1.86236 0.847186 0
M  V30 1372 H 132.114 -4.07529 -0.196091 0
M  V30 1373 H 130.789 -4.04765 0.955932 0
M  V30 1374 H 129.366 -3.63577 -0.828619 0
M  V30 1375 N 131.551 -0.354651 -1.53558 0
M  V30 1376 C 132.461 0.50515 -2.29097 0
M  V30 1377 C 133.477 1.10223 -1.34636 0
M  V30 1378 O 134.653 1.11553 -1.67684 0
M  V30 1379 C 131.718 1.63479 -3.05738 0
M  V30 1380 C 130.779 1.06636 -4.15845 0
M  V30 1381 C 130.012 2.14217 -4.88822 0
M  V30 1382 O 130.235 3.35137 -4.61562 0
M  V30 1383 O 129.169 1.77887 -5.75013 0
M  V30 1384 H 132.995 -0.109237 -3.03503 0
M  V30 1385 H 130.58 -0.119357 -1.48922 0
M  V30 1386 H 132.462 2.2918 -3.5363 0
M  V30 1387 H 131.137 2.23478 -2.34178 0
M  V30 1388 H 130.044 0.373565 -3.7223 0
M  V30 1389 H 131.377 0.511081 -4.89539 0
M  V30 1390 N 133.029 1.57378 -0.0835403 0
M  V30 1391 C 133.976 2.13384 0.879539 0
M  V30 1392 C 134.946 1.04936 1.28754 0
M  V30 1393 O 136.131 1.32662 1.37133 0
M  V30 1394 C 133.271 2.70932 2.13752 0
M  V30 1395 C 132.384 3.93575 1.7811 0
M  V30 1396 C 131.519 4.39326 2.98607 0
M  V30 1397 C 130.558 5.54587 2.59037 0
M  V30 1398 N 129.695 5.95243 3.72331 0
M  V30 1399 H 134.535 2.9537 0.395076 0
M  V30 1400 H 132.072 1.45953 0.183349 0
M  V30 1401 H 134.03 3.02411 2.87408 0
M  V30 1402 H 132.66 1.91693 2.59718 0
M  V30 1403 H 131.712 3.68483 0.94469 0
M  V30 1404 H 133.024 4.77258 1.45005 0
M  V30 1405 H 132.178 4.72528 3.80529 0
M  V30 1406 H 130.917 3.5452 3.34913 0
M  V30 1407 H 129.922 5.21024 1.75539 0
M  V30 1408 H 131.147 6.41133 2.23887 0
M  V30 1409 H 129.093 5.13385 4.08378 0
M  V30 1410 H 129.01 6.73694 3.43034 0
M  V30 1411 H 130.278 6.33072 4.54797 0
M  V30 1412 N 134.507 -0.190092 1.56449 0
M  V30 1413 C 135.47 -1.21925 1.9408 0
M  V30 1414 C 136.47 -1.38176 0.822431 0
M  V30 1415 O 137.66 -1.35903 1.08977 0
M  V30 1416 C 134.792 -2.58773 2.21922 0
M  V30 1417 H 135.985 -0.897464 2.86157 0
M  V30 1418 H 133.538 -0.43181 1.50217 0
M  V30 1419 H 134.273 -2.95998 1.32499 0
M  V30 1420 H 134.058 -2.48348 3.03424 0
M  V30 1421 H 135.548 -3.32978 2.52022 0
M  V30 1422 N 135.985 -1.50799 -0.457987 0
M  V30 1423 C 137.234 -1.6168 -1.20593 0
M  V30 1424 C 137.547 -0.32888 -1.92815 0
M  V30 1425 O 138.753 -0.316773 -2.69646 0
M  V30 1426 C 137.209 -2.8545 -2.19195 0
M  V30 1427 C 136.817 -4.21168 -1.52715 0
M  V30 1428 C 138.561 -3.05681 -2.94549 0
M  V30 1429 C 136.468 -5.3611 -2.4968 0
M  V30 1430 H 135.398 -0.602134 -0.453818 0
M  V30 1431 H 138.049 -1.77245 -0.475031 0
M  V30 1432 H 136.431 -2.63472 -2.95632 0
M  V30 1433 H 137.605 -4.53449 -0.819775 0
M  V30 1434 H 135.92 -4.06648 -0.895922 0
M  V30 1435 H 138.517 -3.88727 -3.67145 0
M  V30 1436 H 138.86 -2.17929 -3.54701 0
M  V30 1437 H 139.393 -3.27901 -2.25223 0
M  V30 1438 H 136.132 -6.26057 -1.94249 0
M  V30 1439 H 135.652 -5.0823 -3.18532 0
M  V30 1440 H 137.331 -5.6722 -3.11241 0
M  V30 1441 N 137.463 0.71206 -1.40597 0
M  V30 1442 C 138.688 1.50617 -1.42581 0
M  V30 1443 C 139.113 1.88079 -0.0282102 0
M  V30 1444 O 138.471 1.53511 0.964579 0
M  V30 1445 C 138.519 2.7557 -2.3258 0
M  V30 1446 O 137.623 3.72414 -1.77148 0
M  V30 1447 H 136.964 0.453966 -0.484573 0
M  V30 1448 H 139.494 0.876649 -1.84868 0
M  V30 1449 H 139.504 3.2406 -2.47889 0
M  V30 1450 H 138.179 2.47639 -3.34138 0
M  V30 1451 H 136.756 3.31276 -1.71204 0
M  V30 1452 N 138.941 1.26152 0.944643 0
M  V30 1453 C 140.19 1.10883 1.68487 0
M  V30 1454 C 140.503 -0.348153 1.92477 0
M  V30 1455 O 141.709 -0.621459 2.64292 0
M  V30 1456 C 140.165 1.93624 3.03377 0
M  V30 1457 C 139.773 3.43875 2.87148 0
M  V30 1458 C 141.517 1.86954 3.81115 0
M  V30 1459 C 139.424 4.18875 4.1749 0
M  V30 1460 H 138.354 0.41135 0.631907 0
M  V30 1461 H 141.005 1.50433 1.05082 0
M  V30 1462 H 139.387 1.46904 3.67743 0
M  V30 1463 H 140.561 3.98338 2.31653 0
M  V30 1464 H 138.876 3.51744 2.22856 0
M  V30 1465 H 141.473 2.40275 4.77673 0
M  V30 1466 H 141.816 0.839518 4.07747 0
M  V30 1467 H 142.349 2.31477 3.23517 0
M  V30 1468 H 139.088 5.22332 3.96043 0
M  V30 1469 H 138.608 3.69193 4.72712 0
M  V30 1470 H 140.287 4.27134 4.85968 0
M  V30 1471 N 140.419 -1.14872 1.07899 0
M  V30 1472 C 141.665 -1.86289 0.81657 0
M  V30 1473 C 142.02 -1.8107 -0.65049 0
M  V30 1474 O 141.313 -1.22684 -1.47171 0
M  V30 1475 C 141.507 -3.34223 1.26609 0
M  V30 1476 C 141.336 -3.53846 2.77531 0
M  V30 1477 C 140.106 -3.68995 3.45212 0
M  V30 1478 C 142.304 -3.51201 3.75716 0
M  V30 1479 N 140.286 -3.76725 4.84718 0
M  V30 1480 C 141.657 -3.65112 5.01092 0
M  V30 1481 C 143.712 -3.34507 3.68794 0
M  V30 1482 C 142.415 -3.64056 6.20368 0
M  V30 1483 C 144.441 -3.34752 4.8754 0
M  V30 1484 C 143.803 -3.49199 6.11751 0
M  V30 1485 H 139.902 -0.698579 0.351443 0
M  V30 1486 H 142.486 -1.37713 1.37634 0
M  V30 1487 H 140.657 -3.81402 0.73395 0
M  V30 1488 H 142.389 -3.93377 0.95062 0
M  V30 1489 H 139.144 -3.70006 2.95622 0
M  V30 1490 H 139.568 -3.8432 5.5734 0
M  V30 1491 H 144.21 -3.22253 2.73702 0
M  V30 1492 H 141.928 -3.75087 7.15776 0
M  V30 1493 H 145.514 -3.23055 4.83866 0
M  V30 1494 H 144.394 -3.49328 7.02097 0
M  V30 1495 N 141.898 -0.863906 -1.31812 0
M  V30 1496 C 142.808 -0.318461 -2.32428 0
M  V30 1497 C 143.824 0.568496 -1.64451 0
M  V30 1498 O 145 0.46666 -1.95919 0
M  V30 1499 C 142.065 0.476355 -3.43412 0
M  V30 1500 C 141.126 -0.43784 -4.27061 0
M  V30 1501 C 140.359 0.319138 -5.32745 0
M  V30 1502 O 140.582 1.54799 -5.48993 0
M  V30 1503 O 139.516 -0.319861 -6.01049 0
M  V30 1504 H 143.342 -1.15229 -2.80991 0
M  V30 1505 H 140.927 -0.627103 -1.35602 0
M  V30 1506 H 142.809 0.927156 -4.11074 0
M  V30 1507 H 141.484 1.28683 -2.97022 0
M  V30 1508 H 140.391 -0.937013 -3.62175 0
M  V30 1509 H 141.724 -1.21375 -4.77 0
M  V30 1510 N 143.376 1.44774 -0.622745 0
M  V30 1511 C 144.601 2.06999 -0.128968 0
M  V30 1512 C 145.026 1.4617 1.1839 0
M  V30 1513 O 144.384 0.560007 1.72434 0
M  V30 1514 C 144.432 3.60595 -0.0188351 0
M  V30 1515 O 143.536 3.99398 1.02739 0
M  V30 1516 H 142.877 0.659047 -0.0809544 0
M  V30 1517 H 145.407 1.85784 -0.85705 0
M  V30 1518 H 145.417 4.07627 0.174476 0
M  V30 1519 H 144.092 4.04252 -0.977384 0
M  V30 1520 H 142.669 3.64011 0.809326 0
M  V30 1521 N 144.854 0.36279 1.53368 0
M  V30 1522 C 145.801 -0.485008 2.25646 0
M  V30 1523 C 146.771 -1.07982 1.2621 0
M  V30 1524 O 147.956 -1.11284 1.54986 0
M  V30 1525 C 145.096 -1.62023 3.04701 0
M  V30 1526 C 144.209 -1.05086 4.19024 0
M  V30 1527 C 143.344 -2.15496 4.85525 0
M  V30 1528 C 142.383 -1.5601 5.91884 0
M  V30 1529 N 141.52 -2.60241 6.52088 0
M  V30 1530 H 146.36 0.137864 2.97681 0
M  V30 1531 H 143.897 0.0798061 1.46883 0
M  V30 1532 H 145.855 -2.28887 3.48807 0
M  V30 1533 H 144.485 -2.2138 2.34927 0
M  V30 1534 H 143.537 -0.27259 3.79422 0
M  V30 1535 H 144.849 -0.575926 4.95464 0
M  V30 1536 H 144.003 -2.90186 5.32801 0
M  V30 1537 H 142.742 -2.66341 4.08551 0
M  V30 1538 H 141.747 -0.798338 5.43973 0
M  V30 1539 H 142.972 -1.05994 6.70777 0
M  V30 1540 H 140.918 -3.10304 5.77968 0
M  V30 1541 H 140.835 -2.17426 7.24059 0
M  V30 1542 H 142.103 -3.34641 7.04014 0
M  V30 1543 N 146.332 -1.57332 0.0918853 0
M  V30 1544 C 147.28 -2.15075 -0.885747 0
M  V30 1545 C 148.274 -1.09277 -1.29441 0
M  V30 1546 O 149.48 -1.27627 -1.26931 0
M  V30 1547 H 145.855 -0.687966 -0.303656 0
M  V30 1548 H 147.826 -2.96047 -0.373995 0
M  V30 1549 C 146.575 -2.74325 -2.13638 0
M  V30 1550 H 145.898 -3.55418 -1.8308 0
M  V30 1551 H 147.338 -3.183 -2.80109 0
M  V30 1552 C 145.797 -1.70062 -2.90827 0
M  V30 1553 O 146.327 -1.13763 -3.85254 0
M  V30 1554 N 144.533 -1.40628 -2.54307 0
M  V30 1555 H 144.08 -1.866 -1.7759 0
M  V30 1556 H 144.038 -0.711043 -3.06254 0
M  V30 1557 N 147.81 0.181792 -1.56548 0
M  V30 1558 C 149.057 0.900097 -1.81396 0
M  V30 1559 C 149.385 1.82695 -0.667281 0
M  V30 1560 O 148.64 1.92614 0.346146 0
M  V30 1561 C 148.939 1.73728 -3.12335 0
M  V30 1562 C 148.605 0.960255 -4.40556 0
M  V30 1563 C 147.267 0.745766 -4.75386 0
M  V30 1564 C 149.619 0.414477 -5.19549 0
M  V30 1565 C 146.947 -0.0257694 -5.86694 0
M  V30 1566 C 149.299 -0.343916 -6.31664 0
M  V30 1567 C 147.963 -0.569301 -6.65068 0
M  V30 1568 H 147.233 0.329369 -0.663775 0
M  V30 1569 H 149.88 0.165647 -1.90782 0
M  V30 1570 H 148.185 2.54081 -2.98245 0
M  V30 1571 H 149.882 2.29591 -3.28769 0
M  V30 1572 H 146.472 1.13746 -4.13231 0
M  V30 1573 H 150.656 0.567554 -4.93044 0
M  V30 1574 H 145.912 -0.210233 -6.11038 0
M  V30 1575 H 150.086 -0.774133 -6.92084 0
M  V30 1576 H 147.713 -1.16903 -7.51158 0
M  V30 1577 N 149.288 1.51039 0.449983 0
M  V30 1578 C 150.535 1.63081 1.20045 0
M  V30 1579 C 150.863 0.341024 1.91487 0
M  V30 1580 O 150.118 -0.674276 1.83717 0
M  V30 1581 C 150.417 2.77556 2.25161 0
M  V30 1582 C 150.083 4.17289 1.70823 0
M  V30 1583 C 148.745 4.55305 1.55725 0
M  V30 1584 C 151.097 5.04536 1.3074 0
M  V30 1585 C 148.425 5.78287 0.989999 0
M  V30 1586 C 150.777 6.28085 0.754482 0
M  V30 1587 C 149.441 6.64885 0.590308 0
M  V30 1588 H 148.711 0.596755 0.439277 0
M  V30 1589 H 151.358 1.85037 0.49333 0
M  V30 1590 H 149.663 2.49771 3.01863 0
M  V30 1591 H 151.36 2.84073 2.83026 0
M  V30 1592 H 147.95 3.8731 1.83546 0
M  V30 1593 H 152.134 4.75782 1.41229 0
M  V30 1594 H 147.39 6.05456 0.850451 0
M  V30 1595 H 151.564 6.95038 0.435324 0
M  V30 1596 H 149.191 7.60055 0.14862 0
M  V30 1597 N 150.766 -0.704594 1.40972 0
M  V30 1598 C 152.013 -1.46458 1.39844 0
M  V30 1599 C 152.341 -1.94499 0.00447594 0
M  V30 1600 O 151.596 -1.69275 -0.982057 0
M  V30 1601 C 151.895 -2.698 2.34399 0
M  V30 1602 C 151.561 -2.40464 3.81429 0
M  V30 1603 C 150.223 -2.32174 4.21484 0
M  V30 1604 C 152.575 -2.16086 4.74296 0
M  V30 1605 C 149.903 -1.97589 5.52427 0
M  V30 1606 C 152.255 -1.83011 6.05549 0
M  V30 1607 C 150.919 -1.7321 6.44635 0
M  V30 1608 H 150.189 -0.535927 0.511725 0
M  V30 1609 H 152.836 -0.806124 1.73706 0
M  V30 1610 H 151.141 -3.40536 1.93759 0
M  V30 1611 H 152.838 -3.27919 2.30804 0
M  V30 1612 H 149.428 -2.47808 3.49699 0
M  V30 1613 H 153.612 -2.2144 4.4416 0
M  V30 1614 H 148.868 -1.88547 5.81601 0
M  V30 1615 H 153.042 -1.63164 6.77016 0
M  V30 1616 H 150.669 -1.46179 7.46013 0
M  V30 1617 N 152.244 -1.26651 -0.937939 0
M  V30 1618 C 153.154 -1.10276 -2.07066 0
M  V30 1619 C 154.17 -0.0354197 -1.73964 0
M  V30 1620 O 155.346 -0.239816 -1.99967 0
M  V30 1621 C 152.411 -0.740887 -3.38691 0
M  V30 1622 C 151.472 -1.88799 -3.85556 0
M  V30 1623 C 150.705 -1.54329 -5.10899 0
M  V30 1624 O 150.928 -0.446494 -5.6865 0
M  V30 1625 O 149.862 -2.37911 -5.52885 0
M  V30 1626 H 153.688 -2.05309 -2.23789 0
M  V30 1627 H 151.273 -1.05743 -1.0554 0
M  V30 1628 H 153.155 -0.55195 -4.1777 0
M  V30 1629 H 151.83 0.180022 -3.23199 0
M  V30 1630 H 150.737 -2.13191 -3.07409 0
M  V30 1631 H 152.07 -2.78874 -4.05574 0
M  V30 1632 N 153.722 1.14298 -1.08507 0
M  V30 1633 C 154.652 2.21542 -0.737646 0
M  V30 1634 C 155.633 1.67773 0.280377 0
M  V30 1635 O 156.818 1.93616 0.150521 0
M  V30 1636 C 153.948 3.46988 -0.147259 0
M  V30 1637 C 152.902 4.13789 -1.09374 0
M  V30 1638 C 152.228 5.33449 -0.365524 0
M  V30 1639 C 153.528 4.62208 -2.4323 0
M  V30 1640 H 155.222 2.5086 -1.6343 0
M  V30 1641 H 152.768 1.20576 -0.787243 0
M  V30 1642 H 154.721 4.21262 0.107808 0
M  V30 1643 H 153.445 3.17037 0.784538 0
M  V30 1644 H 152.104 3.4147 -1.33393 0
M  V30 1645 H 151.752 4.99759 0.57011 0
M  V30 1646 H 151.452 5.79088 -0.996512 0
M  V30 1647 H 152.976 6.10485 -0.118534 0
M  V30 1648 H 154.39 5.27952 -2.23472 0
M  V30 1649 H 152.787 5.18553 -3.02031 0
M  V30 1650 H 153.857 3.77224 -3.04681 0
M  V30 1651 N 155.201 0.870884 1.31352 0
M  V30 1652 C 156.111 0.330783 2.32256 0
M  V30 1653 C 157.127 -0.559767 1.6475 0
M  V30 1654 O 158.303 -0.456263 1.96164 0
M  V30 1655 C 155.368 -0.458137 3.4366 0
M  V30 1656 C 154.429 0.460482 4.26823 0
M  V30 1657 C 153.662 -0.290881 5.32907 0
M  V30 1658 O 153.885 -1.51885 5.49806 0
M  V30 1659 O 152.819 0.351732 6.00871 0
M  V30 1660 H 156.645 1.16718 2.80376 0
M  V30 1661 H 154.23 0.634285 1.35267 0
M  V30 1662 H 156.112 -0.905343 4.1156 0
M  V30 1663 H 154.787 -1.27106 2.97701 0
M  V30 1664 H 153.694 0.956207 3.61673 0
M  V30 1665 H 155.027 1.23903 4.7635 0
M  V30 1666 N 156.679 -1.44442 0.630414 0
M  V30 1667 C 158.09 -1.85434 0.217063 0
M  V30 1668 C 158.441 -1.52748 -1.23136 0
M  V30 1669 O 157.566 -0.965205 -1.93682 0
M  V30 1670 C 158.161 -3.36581 0.387168 0
M  V30 1671 C 156.72 -3.76389 0.0283297 0
M  V30 1672 C 155.867 -2.68296 0.700889 0
M  V30 1673 H 158.818 -1.34919 0.83562 0
M  V30 1674 H 158.839 -3.78657 -0.374086 0
M  V30 1675 H 158.351 -3.60339 1.44144 0
M  V30 1676 H 156.452 -3.58246 -1.02423 0
M  V30 1677 H 156.565 -4.77095 0.437892 0
M  V30 1678 H 154.929 -2.54335 0.136267 0
M  V30 1679 H 155.712 -2.94887 1.75774 0
M  V30 1680 N 158.157 -0.370918 -1.53173 0
M  V30 1681 C 159.087 0.464847 -2.28826 0
M  V30 1682 C 160.068 1.07936 -1.31468 0
M  V30 1683 O 161.253 1.0956 -1.60344 0
M  V30 1684 C 158.383 1.60196 -3.08147 0
M  V30 1685 C 157.337 1.11443 -4.13237 0
M  V30 1686 C 156.663 2.3422 -4.80672 0
M  V30 1687 C 157.963 0.195384 -5.21934 0
M  V30 1688 H 159.657 -0.166329 -2.98938 0
M  V30 1689 H 157.203 -0.0814359 -1.4377 0
M  V30 1690 H 159.156 2.19332 -3.59822 0
M  V30 1691 H 157.88 2.26045 -2.35735 0
M  V30 1692 H 156.539 0.545727 -3.62515 0
M  V30 1693 H 156.187 2.98537 -4.04827 0
M  V30 1694 H 155.887 2.02269 -5.51689 0
M  V30 1695 H 157.411 2.94032 -5.35143 0
M  V30 1696 H 158.825 0.694375 -5.69079 0
M  V30 1697 H 157.222 -0.0335027 -6.00091 0
M  V30 1698 H 158.292 -0.760961 -4.78892 0
M  V30 1699 N 159.635 1.57281 -0.100228 0
M  V30 1700 C 161.046 1.81725 0.428107 0
M  V30 1701 C 161.397 1.01619 1.67833 0
M  V30 1702 O 160.522 0.247098 2.14985 0
M  V30 1703 C 161.117 3.29617 0.78347 0
M  V30 1704 C 159.676 3.54808 1.25653 0
M  V30 1705 C 158.823 2.76118 0.255752 0
M  V30 1706 H 161.774 1.55324 -0.325608 0
M  V30 1707 H 161.795 3.4322 1.64256 0
M  V30 1708 H 161.307 3.87893 -0.12665 0
M  V30 1709 H 159.408 3.01868 2.18418 0
M  V30 1710 H 159.521 4.63443 1.21482 0
M  V30 1711 H 157.885 2.43745 0.738956 0
M  V30 1712 H 158.668 3.37145 -0.647136 0
M  V30 1713 N 161.113 -0.173488 1.56642 0
M  V30 1714 C 162.361 -0.888706 1.81512 0
M  V30 1715 C 162.682 -1.82875 0.676872 0
M  V30 1716 O 161.952 -1.93536 -0.303414 0
M  V30 1717 H 160.532 -0.331164 0.669582 0
M  V30 1718 H 163.194 -0.173823 1.94123 0
M  V30 1719 H 162.29 -1.46691 2.75478 0
M  V30 1720 N 162.591 -1.51276 -0.441967 0
M  V30 1721 C 163.554 -1.7167 -1.51862 0
M  V30 1722 C 164.554 -0.586793 -1.49711 0
M  V30 1723 O 165.744 -0.854276 -1.51815 0
M  V30 1724 C 162.876 -1.76889 -2.91416 0
M  V30 1725 H 164.069 -2.67754 -1.35084 0
M  V30 1726 H 161.622 -1.41196 -0.670333 0
M  V30 1727 H 162.357 -0.826026 -3.13604 0
M  V30 1728 H 162.142 -2.59001 -2.94382 0
M  V30 1729 H 163.632 -1.94522 -3.69528 0
M  V30 1730 N 164.069 0.697108 -1.41344 0
M  V30 1731 C 165.315 1.4593 -1.40827 0
M  V30 1732 C 165.648 1.94193 -0.0167098 0
M  V30 1733 O 164.923 1.69425 0.955263 0
M  V30 1734 C 165.206 2.67229 -2.41373 0
M  V30 1735 C 165.059 2.24741 -3.8963 0
M  V30 1736 C 166.378 3.69423 -2.39196 0
M  V30 1737 H 163.497 0.529303 -0.512842 0
M  V30 1738 H 166.139 0.794112 -1.72609 0
M  V30 1739 H 164.289 3.23982 -2.14401 0
M  V30 1740 H 165.961 1.73327 -4.27499 0
M  V30 1741 H 164.204 1.56542 -4.0457 0
M  V30 1742 H 164.875 3.1177 -4.55525 0
M  V30 1743 H 167.351 3.2234 -2.63128 0
M  V30 1744 H 166.227 4.51907 -3.11563 0
M  V30 1745 H 166.488 4.19012 -1.41001 0
M  V30 1746 N 165.547 1.27147 0.931209 0
M  V30 1747 C 166.457 1.11372 2.06478 0
M  V30 1748 C 167.473 0.044645 1.73943 0
M  V30 1749 O 168.649 0.250417 1.99837 0
M  V30 1750 C 165.714 0.758838 3.38294 0
M  V30 1751 C 164.775 1.90841 3.84549 0
M  V30 1752 C 164.008 1.57036 5.10074 0
M  V30 1753 O 164.231 0.476645 5.68405 0
M  V30 1754 O 163.165 2.40839 5.51616 0
M  V30 1755 H 166.991 2.06493 2.22698 0
M  V30 1756 H 164.576 1.06301 1.04978 0
M  V30 1757 H 166.458 0.574098 4.17471 0
M  V30 1758 H 165.133 -0.162879 3.2329 0
M  V30 1759 H 164.04 2.14819 3.06274 0
M  V30 1760 H 165.373 2.81021 4.04089 0
M  V30 1761 N 167.025 -1.13721 1.09112 0
M  V30 1762 C 167.988 -2.17222 0.731241 0
M  V30 1763 C 168.988 -1.59035 -0.237566 0
M  V30 1764 O 170.178 -1.74192 -0.0161704 0
M  V30 1765 C 167.31 -3.40804 0.0808443 0
M  V30 1766 H 168.503 -2.50573 1.64783 0
M  V30 1767 H 166.056 -1.28493 0.889897 0
M  V30 1768 H 166.791 -3.1304 -0.847127 0
M  V30 1769 H 166.576 -3.84306 0.777896 0
M  V30 1770 H 168.066 -4.1731 -0.155657 0
M  V30 1771 N 168.503 -0.877838 -1.30888 0
M  V30 1772 C 169.749 -0.493426 -1.96706 0
M  V30 1773 C 170.082 0.953504 -1.6918 0
M  V30 1774 O 169.357 1.67266 -0.992594 0
M  V30 1775 C 169.64 -0.760429 -3.51979 0
M  V30 1776 C 169.493 -2.25747 -3.89048 0
M  V30 1777 C 170.812 -0.232148 -4.39487 0
M  V30 1778 H 167.931 -0.180746 -0.714493 0
M  V30 1779 H 170.573 -1.10052 -1.54882 0
M  V30 1780 H 168.723 -0.243715 -3.87735 0
M  V30 1781 H 170.395 -2.84204 -3.63354 0
M  V30 1782 H 168.638 -2.72694 -3.37373 0
M  V30 1783 H 169.309 -2.39491 -4.97341 0
M  V30 1784 H 171.785 -0.674314 -4.106 0
M  V30 1785 H 170.661 -0.448355 -5.47066 0
M  V30 1786 H 170.922 0.866297 -4.33529 0
M  V30 1787 N 169.982 1.44106 -0.638065 0
M  V30 1788 C 170.929 2.30715 0.062701 0
M  V30 1789 C 171.899 1.43882 0.829883 0
M  V30 1790 O 173.084 1.72775 0.809532 0
M  V30 1791 C 170.224 3.29258 1.03358 0
M  V30 1792 C 169.337 4.31192 0.26409 0
M  V30 1793 C 168.472 5.16825 1.22741 0
M  V30 1794 C 167.511 6.10462 0.447475 0
M  V30 1795 N 166.648 6.8877 1.36161 0
M  V30 1796 H 171.488 2.90096 -0.681781 0
M  V30 1797 H 169.025 1.42925 -0.347988 0
M  V30 1798 H 170.983 3.84886 1.60992 0
M  V30 1799 H 169.613 2.71562 1.74511 0
M  V30 1800 H 168.665 3.77981 -0.428295 0
M  V30 1801 H 169.977 4.97619 -0.343052 0
M  V30 1802 H 169.131 5.77004 1.87487 0
M  V30 1803 H 167.87 4.50488 1.86847 0
M  V30 1804 H 166.875 5.49386 -0.213433 0
M  V30 1805 H 168.1 6.78837 -0.188968 0
M  V30 1806 H 166.046 6.25096 1.98975 0
M  V30 1807 H 165.963 7.51663 0.808656 0
M  V30 1808 H 167.231 7.53467 1.99769 0
M  V30 1809 N 171.46 0.379036 1.52974 0
M  V30 1810 C 172.37 -0.468639 2.29872 0
M  V30 1811 C 173.386 -1.08067 1.36373 0
M  V30 1812 O 174.562 -1.08871 1.69438 0
M  V30 1813 C 171.627 -1.58594 3.083 0
M  V30 1814 C 170.688 -1.00007 4.17489 0
M  V30 1815 C 169.921 -2.06413 4.92168 0
M  V30 1816 O 170.144 -3.27751 4.66835 0
M  V30 1817 O 169.078 -1.68717 5.7777 0
M  V30 1818 H 172.904 0.157508 3.03291 0
M  V30 1819 H 170.489 0.143035 1.48714 0
M  V30 1820 H 172.371 -2.23525 3.57232 0
M  V30 1821 H 171.046 -2.19724 2.37703 0
M  V30 1822 H 169.953 -0.314299 3.72777 0
M  V30 1823 H 171.286 -0.433135 4.90291 0
M  V30 1824 N 172.938 -1.57226 0.108567 0
M  V30 1825 C 173.871 -2.10447 -0.882464 0
M  V30 1826 C 174.849 -1.01829 -1.26766 0
M  V30 1827 O 176.033 -1.29415 -1.37054 0
M  V30 1828 C 173.16 -2.59258 -2.17952 0
M  V30 1829 C 172.206 -3.79662 -1.94318 0
M  V30 1830 S 173.039 -5.22586 -1.16892 0
M  V30 1831 C 174.195 -5.74758 -2.47799 0
M  V30 1832 H 174.428 -2.94178 -0.429745 0
M  V30 1833 H 171.961 -1.54043 -0.105 0
M  V30 1834 H 173.919 -2.88036 -2.92482 0
M  V30 1835 H 172.58 -1.75728 -2.60343 0
M  V30 1836 H 171.773 -4.11928 -2.90399 0
M  V30 1837 H 171.375 -3.51446 -1.27913 0
M  V30 1838 H 173.667 -5.83846 -3.43701 0
M  V30 1839 H 174.61 -6.73027 -2.20093 0
M  V30 1840 H 175.018 -5.02763 -2.56689 0
M  V30 1841 N 174.416 0.165178 -1.56732 0
M  V30 1842 C 175.379 1.18822 -1.95995 0
M  V30 1843 C 176.379 1.3685 -0.84431 0
M  V30 1844 O 177.569 1.34152 -1.11126 0
M  V30 1845 C 174.701 2.5521 -2.26011 0
M  V30 1846 H 175.894 0.851825 -2.87548 0
M  V30 1847 H 173.447 0.407857 -1.50885 0
M  V30 1848 H 174.182 2.93852 -1.37191 0
M  V30 1849 H 173.967 2.43489 -3.07336 0
M  V30 1850 H 175.457 3.28927 -2.57288 0
M  V30 1851 N 175.894 1.51508 0.433938 0
M  V30 1852 C 177.119 1.68443 1.21003 0
M  V30 1853 C 177.544 0.382636 1.84167 0
M  V30 1854 O 176.902 -0.65755 1.68956 0
M  V30 1855 C 176.95 2.80405 2.26727 0
M  V30 1856 O 176.054 2.44245 3.32292 0
M  V30 1857 H 175.395 0.561536 0.354363 0
M  V30 1858 H 177.925 1.9809 0.512024 0
M  V30 1859 H 177.935 3.0459 2.71457 0
M  V30 1860 H 176.61 3.74867 1.80132 0
M  V30 1861 H 175.187 2.30644 2.93015 0
M  V30 1862 N 177.372 -0.689602 1.41712 0
M  V30 1863 C 178.302 -1.81577 1.46806 0
M  V30 1864 C 179.283 -1.66945 0.326105 0
M  V30 1865 O 180.468 -1.86588 0.538377 0
M  V30 1866 C 177.598 -3.19762 1.35535 0
M  V30 1867 C 176.552 -3.49107 2.47605 0
M  V30 1868 C 175.878 -4.86711 2.21397 0
M  V30 1869 C 177.178 -3.47483 3.89939 0
M  V30 1870 H 178.872 -1.7757 2.41058 0
M  V30 1871 H 176.418 -0.852887 1.16025 0
M  V30 1872 H 178.371 -3.98263 1.3771 0
M  V30 1873 H 177.095 -3.24409 0.377708 0
M  V30 1874 H 175.754 -2.72959 2.44722 0
M  V30 1875 H 175.402 -4.8799 1.21961 0
M  V30 1876 H 175.102 -5.0731 2.96497 0
M  V30 1877 H 176.626 -5.67515 2.25297 0
M  V30 1878 H 178.04 -4.1598 3.94505 0
M  V30 1879 H 176.437 -3.79615 4.64771 0
M  V30 1880 H 177.507 -2.46341 4.17665 0
M  V30 1881 N 178.85 -1.27639 -0.924453 0
M  V30 1882 C 179.782 -1.06442 -2.02985 0
M  V30 1883 C 180.795 -0.0194771 -1.62788 0
M  V30 1884 O 181.984 -0.261388 -1.76576 0
M  V30 1885 C 179.084 -0.59327 -3.33667 0
M  V30 1886 C 178.257 -1.71123 -4.02537 0
M  V30 1887 C 177.316 -1.23527 -5.11495 0
M  V30 1888 O 176.342 -1.93553 -5.35281 0
M  V30 1889 N 177.544 -0.0926678 -5.80426 0
M  V30 1890 H 180.309 -2.01633 -2.2173 0
M  V30 1891 H 177.87 -1.19248 -1.09505 0
M  V30 1892 H 179.862 -0.258686 -4.03872 0
M  V30 1893 H 178.432 0.265502 -3.1147 0
M  V30 1894 H 177.652 -2.21593 -3.26022 0
M  V30 1895 H 178.94 -2.46145 -4.45298 0
M  V30 1896 H 178.338 0.491741 -5.63559 0
M  V30 1897 H 176.895 0.182714 -6.51544 0
M  V30 1898 N 180.328 1.1314 -1.09713 0
M  V30 1899 C 181.276 2.20717 -0.733934 0
M  V30 1900 C 182.27 1.6729 0.266506 0
M  V30 1901 O 183.476 1.79547 0.127656 0
M  V30 1902 H 179.851 0.719292 -0.21937 0
M  V30 1903 H 181.822 2.48611 -1.6503 0
M  V30 1904 C 180.571 3.47265 -0.173849 0
M  V30 1905 H 179.894 3.88716 -0.934873 0
M  V30 1906 H 181.334 4.23979 0.0423126 0
M  V30 1907 C 179.793 3.18724 1.09164 0
M  V30 1908 O 180.323 3.37762 2.17439 0
M  V30 1909 N 178.529 2.72583 1.00732 0
M  V30 1910 H 178.076 2.57291 0.126121 0
M  V30 1911 H 178.034 2.53862 1.85476 0
M  V30 1912 N 181.806 0.884767 1.30421 0
M  V30 1913 C 183.034 0.518044 2.0031 0
M  V30 1914 C 183.449 -0.893408 1.66324 0
M  V30 1915 O 182.806 -1.5875 0.900262 0
M  V30 1916 C 182.857 0.682997 3.54989 0
M  V30 1917 O 182.578 2.03888 3.87764 0
M  V30 1918 C 184.079 0.31924 4.42149 0
M  V30 1919 H 181.299 0.200265 0.640418 0
M  V30 1920 H 183.843 1.19001 1.6631 0
M  V30 1921 H 181.998 0.0584052 3.87356 0
M  V30 1922 H 182.412 2.05735 4.82466 0
M  V30 1923 H 183.886 0.485555 5.4986 0
M  V30 1924 H 184.363 -0.742717 4.32875 0
M  V30 1925 H 184.969 0.920147 4.15227 0
M  V30 1926 N 183.284 -1.43765 0.645699 0
M  V30 1927 C 184.561 -1.9541 0.0862963 0
M  V30 1928 C 184.941 -1.58725 -1.39175 0
M  V30 1929 O 184.289 -0.868581 -2.11348 0
M  V30 1930 C 184.499 -3.47488 0.324565 0
M  V30 1931 C 185.847 -4.24001 0.225497 0
M  V30 1932 O 186.871 -3.55274 0.256715 0
M  V30 1933 O 185.73 -5.46313 0.142801 0
M  V30 1934 H 182.824 -0.826882 -0.0139483 0
M  V30 1935 H 185.37 -1.53743 0.718415 0
M  V30 1936 H 184.142 -3.67289 1.3496 0
M  V30 1937 H 183.765 -3.96135 -0.340987 0
M  V30 1938 N 184.763 -0.387143 -1.52771 0
M  V30 1939 C 186.009 0.196025 -2.0185 0
M  V30 1940 C 186.342 1.46641 -1.27319 0
M  V30 1941 O 185.617 1.90889 -0.373032 0
M  V30 1942 C 185.9 0.466136 -3.5707 0
M  V30 1943 C 185.753 -0.819385 -4.42274 0
M  V30 1944 C 187.072 1.25768 -4.21747 0
M  V30 1945 H 184.191 0.0697708 -0.73369 0
M  V30 1946 H 186.833 -0.516286 -1.82851 0
M  V30 1947 H 184.983 1.07293 -3.7339 0
M  V30 1948 H 186.655 -1.4563 -4.37709 0
M  V30 1949 H 184.898 -1.43517 -4.09372 0
M  V30 1950 H 185.569 -0.585065 -5.48891 0
M  V30 1951 H 188.045 0.744167 -4.09391 0
M  V30 1952 H 186.921 1.41541 -5.30337 0
M  V30 1953 H 187.182 2.27228 -3.79236 0
M  V30 1954 N 186.241 1.57166 -0.116904 0
M  V30 1955 C 187.488 1.95123 0.541603 0
M  V30 1956 C 187.816 1.00006 1.6682 0
M  V30 1957 O 187.071 0.0235658 1.95686 0
M  V30 1958 C 187.37 3.39508 1.11664 0
M  V30 1959 C 187.036 4.50762 0.111606 0
M  V30 1960 C 185.698 4.80918 -0.164758 0
M  V30 1961 C 188.05 5.18036 -0.573438 0
M  V30 1962 C 185.378 5.75666 -1.13249 0
M  V30 1963 C 187.73 6.13824 -1.52978 0
M  V30 1964 C 186.394 6.42374 -1.81415 0
M  V30 1965 H 185.664 0.714005 0.198187 0
M  V30 1966 H 188.311 1.9048 -0.197365 0
M  V30 1967 H 186.616 3.40835 1.93232 0
M  V30 1968 H 188.313 3.66189 1.63422 0
M  V30 1969 H 184.903 4.27272 0.337192 0
M  V30 1970 H 189.087 4.94896 -0.373092 0
M  V30 1971 H 184.343 5.96092 -1.35958 0
M  V30 1972 H 188.517 6.65039 -2.06629 0
M  V30 1973 H 186.144 7.15599 -2.56557 0
M  V30 1974 N 187.719 -0.156864 1.56817 0
M  V30 1975 C 188.968 -0.869504 1.81996 0
M  V30 1976 C 189.281 -1.82777 0.696545 0
M  V30 1977 O 190.487 -2.58384 0.833658 0
M  V30 1978 C 188.943 -1.59679 3.22538 0
M  V30 1979 C 188.551 -0.681431 4.42787 0
M  V30 1980 C 190.295 -2.2968 3.56997 0
M  V30 1981 C 188.202 -1.40978 5.74351 0
M  V30 1982 H 187.132 -0.328438 0.678708 0
M  V30 1983 H 189.783 -0.1223 1.83092 0
M  V30 1984 H 188.165 -2.38927 3.158 0
M  V30 1985 H 189.339 0.0751166 4.60739 0
M  V30 1986 H 187.654 -0.0903431 4.16302 0
M  V30 1987 H 190.251 -2.84794 4.52544 0
M  V30 1988 H 190.594 -3.05707 2.82576 0
M  V30 1989 H 191.127 -1.57361 3.65352 0
M  V30 1990 H 187.866 -0.691561 6.51842 0
M  V30 1991 H 187.386 -2.13929 5.60352 0
M  V30 1992 H 189.065 -1.95337 6.16808 0
M  V30 1993 N 189.197 -1.51736 -0.425897 0
M  V30 1994 C 190.437 -1.66636 -1.18371 0
M  V30 1995 C 190.801 -0.379854 -1.88205 0
M  V30 1996 O 192.002 -0.404758 -2.65735 0
M  V30 1997 C 190.273 -2.84382 -2.16476 0
M  V30 1998 S 191.832 -3.19673 -3.0059 0
M  V30 1999 H 188.65 -0.586957 -0.40125 0
M  V30 2000 H 191.252 -1.89679 -0.473518 0
M  V30 2001 H 189.956 -3.76281 -1.63831 0
M  V30 2002 H 189.487 -2.63562 -2.92059 0
M  V30 2003 H 191.502 -2.66994 -4.18245 0
M  V30 2004 N 190.675 0.682077 -1.42076 0
M  V30 2005 C 191.903 1.47057 -1.4554 0
M  V30 2006 C 192.318 1.8869 -0.0645779 0
M  V30 2007 O 191.675 1.57666 0.919115 0
M  V30 2008 C 191.726 2.72442 -2.37609 0
M  V30 2009 O 191.447 2.32559 -3.71279 0
M  V30 2010 C 192.948 3.66069 -2.50017 0
M  V30 2011 H 190.168 0.452737 -0.495248 0
M  V30 2012 H 192.712 0.838695 -1.8651 0
M  V30 2013 H 190.867 3.31835 -1.9991 0
M  V30 2014 H 191.281 3.13475 -4.20516 0
M  V30 2015 H 192.755 4.50792 -3.18576 0
M  V30 2016 H 193.232 4.11476 -1.53572 0
M  V30 2017 H 193.838 3.12572 -2.88407 0
M  V30 2018 N 192.153 1.28127 0.917671 0
M  V30 2019 C 193.378 1.18007 1.70555 0
M  V30 2020 C 193.803 -0.258257 1.86319 0
M  V30 2021 O 193.161 -1.1869 1.37049 0
M  V30 2022 C 193.209 1.87948 3.07746 0
M  V30 2023 O 192.313 1.18427 3.9503 0
M  V30 2024 H 191.654 0.409867 0.522403 0
M  V30 2025 H 194.184 1.69379 1.1477 0
M  V30 2026 H 194.194 1.95701 3.58001 0
M  V30 2027 H 192.869 2.92573 2.95591 0
M  V30 2028 H 191.446 1.18811 3.53466 0
M  V30 2029 N 193.631 -1.12557 1.10312 0
M  V30 2030 C 195.042 -1.65574 0.862678 0
M  V30 2031 C 195.393 -1.86566 -0.607256 0
M  V30 2032 O 194.518 -1.59121 -1.46662 0
M  V30 2033 C 195.113 -3.00776 1.55947 0
M  V30 2034 C 193.672 -3.50748 1.36576 0
M  V30 2035 C 192.819 -2.25797 1.60968 0
M  V30 2036 H 195.77 -0.963552 1.26101 0
M  V30 2037 H 195.791 -3.67185 0.997753 0
M  V30 2038 H 195.303 -2.85465 2.62928 0
M  V30 2039 H 193.404 -3.71245 0.317531 0
M  V30 2040 H 193.517 -4.30289 2.10686 0
M  V30 2041 H 191.881 -2.32841 1.03234 0
M  V30 2042 H 192.664 -2.13043 2.69198 0
M  V30 2043 N 195.109 -0.891671 -1.2995 0
M  V30 2044 C 196.358 -0.509521 -1.95158 0
M  V30 2045 C 196.671 0.947388 -1.71125 0
M  V30 2046 O 197.877 1.43669 -2.30372 0
M  V30 2047 C 196.333 -0.860315 -3.49466 0
M  V30 2048 C 195.941 -2.33545 -3.8231 0
M  V30 2049 C 197.685 -0.547687 -4.20952 0
M  V30 2050 C 195.592 -2.62752 -5.29826 0
M  V30 2051 H 194.522 -0.18682 -0.730489 0
M  V30 2052 H 197.173 -1.08756 -1.47798 0
M  V30 2053 H 195.555 -0.211285 -3.95436 0
M  V30 2054 H 196.729 -3.02936 -3.47227 0
M  V30 2055 H 195.044 -2.61629 -3.23944 0
M  V30 2056 H 197.641 -0.742854 -5.29515 0
M  V30 2057 H 197.984 0.51332 -4.13123 0
M  V30 2058 H 198.517 -1.1542 -3.80688 0
M  V30 2059 H 195.256 -3.6762 -5.42712 0
M  V30 2060 H 194.776 -1.97977 -5.66185 0
M  V30 2061 H 196.455 -2.48601 -5.97333 0
M  V30 2062 N 196.587 1.43421 -0.653314 0
M  V30 2063 C 197.534 2.30768 0.0382271 0
M  V30 2064 C 198.504 1.44755 0.814576 0
M  V30 2065 O 199.689 1.73624 0.791162 0
M  V30 2066 C 196.829 3.30336 0.998599 0
M  V30 2067 C 195.942 4.31448 0.218342 0
M  V30 2068 C 195.077 5.18098 1.17252 0
M  V30 2069 C 194.116 6.10902 0.382702 0
M  V30 2070 N 193.253 6.90176 1.28848 0
M  V30 2071 H 198.093 2.89357 -0.712511 0
M  V30 2072 H 195.63 1.42548 -0.363128 0
M  V30 2073 H 197.588 3.86572 1.56901 0
M  V30 2074 H 196.218 2.73397 1.71621 0
M  V30 2075 H 195.27 3.77506 -0.46836 0
M  V30 2076 H 196.582 4.97227 -0.395812 0
M  V30 2077 H 195.736 5.7896 1.81356 0
M  V30 2078 H 194.475 4.52444 1.82058 0
M  V30 2079 H 193.48 5.49128 -0.27169 0
M  V30 2080 H 194.705 6.78598 -0.260957 0
M  V30 2081 H 192.651 6.27171 1.92334 0
M  V30 2082 H 192.568 7.52478 0.728887 0
M  V30 2083 H 193.836 7.55543 1.91766 0
M  V30 2084 N 198.065 0.39524 1.52563 0
M  V30 2085 C 198.998 -0.4813 2.23067 0
M  V30 2086 C 199.976 -1.05927 1.23362 0
M  V30 2087 O 201.16 -1.10979 1.52368 0
M  V30 2088 C 198.287 -1.66676 2.9485 0
M  V30 2089 C 197.333 -1.21348 4.08873 0
M  V30 2090 S 198.166 -0.190102 5.35162 0
M  V30 2091 C 199.322 -1.38121 6.1047 0
M  V30 2092 H 199.555 0.117381 2.97068 0
M  V30 2093 H 197.088 0.179458 1.53354 0
M  V30 2094 H 199.046 -2.3466 3.36816 0
M  V30 2095 H 197.707 -2.23676 2.20518 0
M  V30 2096 H 196.9 -2.09877 4.58222 0
M  V30 2097 H 196.502 -0.612486 3.68951 0
M  V30 2098 H 198.794 -2.30726 6.37002 0
M  V30 2099 H 199.737 -0.928521 7.01986 0
M  V30 2100 H 200.145 -1.60071 5.41329 0
M  V30 2101 N 199.544 -1.57102 0.125237 0
M  V30 2102 C 200.791 -1.95407 -0.531248 0
M  V30 2103 C 201.119 -1.0089 -1.66287 0
M  V30 2104 O 200.374 -0.0339431 -1.95671 0
M  V30 2105 C 200.673 -3.40096 -1.09862 0
M  V30 2106 C 200.339 -4.50815 -0.0876989 0
M  V30 2107 C 199.001 -4.80824 0.19026 0
M  V30 2108 C 201.353 -5.17724 0.600902 0
M  V30 2109 C 198.681 -5.75058 1.163 0
M  V30 2110 C 201.033 -6.13005 1.56231 0
M  V30 2111 C 199.697 -6.41403 1.8482 0
M  V30 2112 H 198.967 -0.715046 -0.194397 0
M  V30 2113 H 201.614 -1.90373 0.207463 0
M  V30 2114 H 199.919 -3.41855 -1.91422 0
M  V30 2115 H 201.616 -3.6705 -1.61478 0
M  V30 2116 H 198.206 -4.27444 -0.314528 0
M  V30 2117 H 202.39 -4.94691 0.399333 0
M  V30 2118 H 197.646 -5.95362 1.39117 0
M  V30 2119 H 201.82 -6.63934 2.10153 0
M  V30 2120 H 199.447 -7.14229 2.60349 0
M  V30 2121 N 201.022 0.148545 -1.56898 0
M  V30 2122 C 201.969 1.18345 -1.98149 0
M  V30 2123 C 202.939 1.42772 -0.848848 0
M  V30 2124 O 204.124 1.55132 -1.11079 0
M  V30 2125 C 201.264 2.51231 -2.36594 0
M  V30 2126 C 200.377 2.33991 -3.63142 0
M  V30 2127 C 199.512 3.59902 -3.90697 0
M  V30 2128 C 198.551 3.37692 -5.1052 0
M  V30 2129 N 197.688 4.5573 -5.34092 0
M  V30 2130 H 202.528 0.82467 -2.86362 0
M  V30 2131 H 200.065 0.395756 -1.41676 0
M  V30 2132 H 202.023 3.28713 -2.56912 0
M  V30 2133 H 200.653 2.85059 -1.51463 0
M  V30 2134 H 199.705 1.47572 -3.50609 0
M  V30 2135 H 201.017 2.13539 -4.5078 0
M  V30 2136 H 200.171 4.45813 -4.11505 0
M  V30 2137 H 198.91 3.83357 -3.01477 0
M  V30 2138 H 197.915 2.5017 -4.89587 0
M  V30 2139 H 199.14 3.15637 -6.0129 0
M  V30 2140 H 197.086 4.79361 -4.47827 0
M  V30 2141 H 197.003 4.38274 -6.15996 0
M  V30 2142 H 198.271 5.42858 -5.59397 0
M  V30 2143 N 202.5 1.5196 0.417844 0
M  V30 2144 C 203.73 1.69181 1.18581 0
M  V30 2145 C 204.138 0.397104 1.84986 0
M  V30 2146 O 203.481 -0.636011 1.72339 0
M  V30 2147 C 203.543 2.76497 2.29759 0
M  V30 2148 C 203.207 4.18514 1.83563 0
M  V30 2149 C 204.204 5.02648 1.32821 0
M  V30 2150 C 201.889 4.64708 1.90661 0
M  V30 2151 C 203.883 6.31044 0.897894 0
M  V30 2152 C 201.57 5.93096 1.47241 0
M  V30 2153 C 202.568 6.76093 0.968891 0
M  V30 2154 O 202.256 8.02078 0.540924 0
M  V30 2155 H 201.988 0.570457 0.362705 0
M  V30 2156 H 204.542 1.99249 0.498885 0
M  V30 2157 H 202.772 2.41786 3.01789 0
M  V30 2158 H 204.461 2.82403 2.91553 0
M  V30 2159 H 205.227 4.68154 1.26716 0
M  V30 2160 H 201.106 4.00216 2.28797 0
M  V30 2161 H 204.65 6.95776 0.504192 0
M  V30 2162 H 200.547 6.271 1.53022 0
M  V30 2163 H 201.315 8.15794 0.66502 0
M  V30 2164 N 203.978 -0.674533 1.42435 0
M  V30 2165 C 205.218 -1.4466 1.44405 0
M  V30 2166 C 205.582 -1.91911 0.0585784 0
M  V30 2167 O 206.783 -2.68759 -0.0469991 0
M  V30 2168 C 205.054 -2.61136 2.44013 0
M  V30 2169 S 206.613 -3.49981 2.64687 0
M  V30 2170 H 203.431 -0.494074 0.511284 0
M  V30 2171 H 206.033 -0.785162 1.7904 0
M  V30 2172 H 204.737 -2.24662 3.43446 0
M  V30 2173 H 204.268 -3.32153 2.10803 0
M  V30 2174 H 206.283 -4.57124 1.93007 0
M  V30 2175 N 205.456 -1.28612 -0.910864 0
M  V30 2176 C 206.867 -1.14406 -1.47541 0
M  V30 2177 C 207.218 0.264901 -1.94403 0
M  V30 2178 O 206.343 1.15942 -1.82719 0
M  V30 2179 C 206.938 -2.07073 -2.68153 0
M  V30 2180 C 205.497 -1.96923 -3.20778 0
M  V30 2181 C 204.644 -1.98646 -1.93481 0
M  V30 2182 H 207.595 -1.41259 -0.723291 0
M  V30 2183 H 207.616 -1.63642 -3.43514 0
M  V30 2184 H 207.128 -3.09611 -2.34015 0
M  V30 2185 H 205.229 -0.97433 -3.59635 0
M  V30 2186 H 205.342 -2.84026 -3.85832 0
M  V30 2187 H 203.706 -1.43093 -2.10705 0
M  V30 2188 H 204.489 -3.02868 -1.61634 0
M  V30 2189 N 206.934 1.1197 -1.10907 0
M  V30 2190 C 208.164 1.8713 -0.875553 0
M  V30 2191 C 208.572 1.8016 0.577843 0
M  V30 2192 O 207.915 1.17699 1.41042 0
M  V30 2193 C 207.977 3.37005 -1.2517 0
M  V30 2194 C 207.641 3.67748 -2.71313 0
M  V30 2195 C 208.638 3.65698 -3.69542 0
M  V30 2196 C 206.323 3.96928 -3.07821 0
M  V30 2197 C 208.317 3.92395 -5.023 0
M  V30 2198 C 206.004 4.23284 -4.40765 0
M  V30 2199 C 207.002 4.21005 -5.37814 0
M  V30 2200 O 206.69 4.46704 -6.68364 0
M  V30 2201 H 206.422 0.598786 -0.313737 0
M  V30 2202 H 208.976 1.42568 -1.47863 0
M  V30 2203 H 207.206 3.82146 -0.591741 0
M  V30 2204 H 208.895 3.93519 -0.994877 0
M  V30 2205 H 209.661 3.43211 -3.42682 0
M  V30 2206 H 205.54 3.97841 -2.32902 0
M  V30 2207 H 209.084 3.90531 -5.78041 0
M  V30 2208 H 204.981 4.45246 -4.67361 0
M  V30 2209 H 205.749 4.64299 -6.74069 0
M  V30 2210 N 208.412 0.89855 1.29475 0
M  V30 2211 C 209.322 0.379974 2.31502 0
M  V30 2212 C 210.338 -0.524695 1.659 0
M  V30 2213 O 211.514 -0.414551 1.97087 0
M  V30 2214 C 208.579 -0.385138 3.44554 0
M  V30 2215 C 207.64 0.550914 4.2575 0
M  V30 2216 C 206.873 -0.177778 5.33404 0
M  V30 2217 O 207.096 -1.40189 5.52904 0
M  V30 2218 O 206.03 0.479106 5.9999 0
M  V30 2219 H 209.856 1.22639 2.77837 0
M  V30 2220 H 207.441 0.662834 1.33891 0
M  V30 2221 H 209.323 -0.817841 4.13388 0
M  V30 2222 H 207.998 -1.20763 3.0033 0
M  V30 2223 H 206.905 1.03271 3.59564 0
M  V30 2224 H 208.238 1.33979 4.73614 0
M  V30 2225 N 209.89 -1.43072 0.660911 0
M  V30 2226 C 210.837 -2.30785 -0.0259884 0
M  V30 2227 C 211.807 -1.45184 -0.806888 0
M  V30 2228 O 212.992 -1.74041 -0.781943 0
M  V30 2229 C 210.132 -3.30861 -0.981067 0
M  V30 2230 C 209.245 -4.31558 -0.195458 0
M  V30 2231 C 208.38 -5.18712 -1.14503 0
M  V30 2232 C 207.419 -6.11097 -0.350299 0
M  V30 2233 N 206.556 -6.90849 -1.25186 0
M  V30 2234 H 211.396 -2.88975 0.727846 0
M  V30 2235 H 208.933 -1.42353 0.370682 0
M  V30 2236 H 210.891 -3.87399 -1.54849 0
M  V30 2237 H 209.521 -2.74304 -1.70169 0
M  V30 2238 H 208.573 -3.77252 0.488374 0
M  V30 2239 H 209.885 -4.9701 0.422176 0
M  V30 2240 H 209.039 -5.79914 -1.78284 0
M  V30 2241 H 207.778 -4.53404 -1.79656 0
M  V30 2242 H 206.783 -5.48976 0.300808 0
M  V30 2243 H 208.008 -6.7845 0.296941 0
M  V30 2244 H 205.954 -6.28182 -1.89005 0
M  V30 2245 H 205.871 -7.52854 -0.688971 0
M  V30 2246 H 207.139 -7.5655 -1.87757 0
M  V30 2247 N 211.368 -0.403325 -1.52352 0
M  V30 2248 C 212.598 0.17376 -2.05868 0
M  V30 2249 C 213.006 1.39898 -1.27378 0
M  V30 2250 O 212.349 1.80939 -0.31729 0
M  V30 2251 C 212.411 0.594756 -3.54546 0
M  V30 2252 C 212.075 -0.518926 -4.54044 0
M  V30 2253 C 213.072 -1.3807 -5.01231 0
M  V30 2254 C 210.757 -0.689961 -4.97539 0
M  V30 2255 C 212.751 -2.39852 -5.90551 0
M  V30 2256 C 210.438 -1.71109 -5.86656 0
M  V30 2257 C 211.436 -2.56378 -6.33056 0
M  V30 2258 O 211.124 -3.56743 -7.20409 0
M  V30 2259 H 210.856 0.0264951 -0.675481 0
M  V30 2260 H 213.41 -0.571179 -1.97299 0
M  V30 2261 H 211.64 1.39189 -3.60782 0
M  V30 2262 H 213.329 1.0991 -3.90736 0
M  V30 2263 H 214.095 -1.25994 -4.68349 0
M  V30 2264 H 209.974 -0.035939 -4.60986 0
M  V30 2265 H 213.518 -3.06441 -6.26689 0
M  V30 2266 H 209.415 -1.83218 -6.18952 0
M  V30 2267 H 210.183 -3.52918 -7.38506 0
M  V30 2268 N 212.846 1.57033 -0.133567 0
M  V30 2269 C 213.809 2.14897 0.796995 0
M  V30 2270 C 214.809 1.0874 1.18458 0
M  V30 2271 O 215.999 1.34446 1.1077 0
M  V30 2272 C 213.131 2.70112 2.07973 0
M  V30 2273 H 214.324 2.98457 0.293873 0
M  V30 2274 H 211.877 1.55871 0.115787 0
M  V30 2275 H 212.612 1.9018 2.62682 0
M  V30 2276 H 212.397 3.47764 1.81115 0
M  V30 2277 H 213.887 3.14738 2.74462 0
M  V30 2278 N 214.325 -0.140222 1.56975 0
M  V30 2279 C 215.571 -0.848084 1.84876 0
M  V30 2280 C 215.926 -1.78481 0.718481 0
M  V30 2281 O 215.219 -1.89497 -0.283093 0
M  V30 2282 C 215.413 -1.65386 3.16832 0
M  V30 2283 C 215.242 -0.79665 4.42587 0
M  V30 2284 C 214.012 -0.459648 5.03205 0
M  V30 2285 C 216.21 -0.12389 5.14151 0
M  V30 2286 N 214.192 0.410446 6.12526 0
M  V30 2287 C 215.563 0.606064 6.17031 0
M  V30 2288 C 217.618 -0.0452654 4.97879 0
M  V30 2289 C 216.321 1.40723 7.054 0
M  V30 2290 C 218.347 0.742658 5.86718 0
M  V30 2291 C 217.709 1.46087 6.89085 0
M  V30 2292 H 213.808 -0.287946 0.727056 0
M  V30 2293 H 216.392 -0.11304 1.94372 0
M  V30 2294 H 214.563 -2.36009 3.08471 0
M  V30 2295 H 216.295 -2.30541 3.32615 0
M  V30 2296 H 213.05 -0.797006 4.66846 0
M  V30 2297 H 213.474 0.836716 6.7181 0
M  V30 2298 H 218.116 -0.586184 4.18717 0
M  V30 2299 H 215.834 1.95938 7.83986 0
M  V30 2300 H 219.42 0.805574 5.76196 0
M  V30 2301 H 218.3 2.06077 7.56639 0
M  V30 2302 N 215.803 -1.52179 -0.40978 0
M  V30 2303 C 217.049 -1.66453 -1.15851 0
M  V30 2304 C 217.382 -0.392972 -1.90182 0
M  V30 2305 O 216.657 0.608579 -1.84734 0
M  V30 2306 C 216.94 -2.88612 -2.15349 0
M  V30 2307 C 216.793 -4.25815 -1.44918 0
M  V30 2308 C 218.112 -3.06294 -3.16026 0
M  V30 2309 H 215.231 -0.60575 -0.419805 0
M  V30 2310 H 217.873 -1.84732 -0.444314 0
M  V30 2311 H 216.023 -2.73158 -2.76255 0
M  V30 2312 H 217.695 -4.52995 -0.871365 0
M  V30 2313 H 215.938 -4.27247 -0.751159 0
M  V30 2314 H 216.609 -5.07337 -2.17516 0
M  V30 2315 H 219.085 -3.20641 -2.65195 0
M  V30 2316 H 217.961 -3.93283 -3.8291 0
M  V30 2317 H 218.222 -2.19579 -3.83715 0
M  V30 2318 N 217.281 0.66697 -1.42791 0
M  V30 2319 C 218.191 1.80962 -1.49299 0
M  V30 2320 C 219.207 1.69775 -0.381108 0
M  V30 2321 O 220.383 1.91188 -0.633188 0
M  V30 2322 C 217.448 3.17156 -1.40045 0
M  V30 2323 C 216.509 3.40242 -2.6179 0
M  V30 2324 C 215.742 4.69939 -2.52969 0
M  V30 2325 O 215.965 5.48372 -1.56985 0
M  V30 2326 O 214.899 4.94441 -3.43237 0
M  V30 2327 H 218.725 1.78427 -2.45759 0
M  V30 2328 H 216.31 0.823713 -1.24641 0
M  V30 2329 H 218.192 3.98413 -1.37276 0
M  V30 2330 H 216.867 3.20312 -0.467138 0
M  V30 2331 H 215.774 2.58802 -2.70134 0
M  V30 2332 H 217.107 3.41923 -3.54047 0
M  V30 2333 N 218.759 1.29093 0.90403 0
M  V30 2334 C 219.706 1.13853 2.00764 0
M  V30 2335 C 220.676 0.0330084 1.66067 0
M  V30 2336 O 221.861 0.199733 1.89752 0
M  V30 2337 C 219.001 0.816537 3.35301 0
M  V30 2338 C 218.114 2.00206 3.82807 0
M  V30 2339 C 217.249 1.61983 5.059 0
M  V30 2340 C 216.288 2.77143 5.45764 0
M  V30 2341 N 215.425 2.39346 6.60044 0
M  V30 2342 H 220.265 2.08276 2.13132 0
M  V30 2343 H 217.802 1.03648 1.04381 0
M  V30 2344 H 219.76 0.610557 4.12708 0
M  V30 2345 H 218.39 -0.090779 3.22672 0
M  V30 2346 H 217.442 2.31988 3.01473 0
M  V30 2347 H 218.754 2.86512 4.08304 0
M  V30 2348 H 217.908 1.37649 5.90879 0
M  V30 2349 H 216.647 0.728202 4.82233 0
M  V30 2350 H 215.652 3.02165 4.59322 0
M  V30 2351 H 216.877 3.66964 5.71414 0
M  V30 2352 H 214.823 1.52665 6.37989 0
M  V30 2353 H 214.74 3.19185 6.85315 0
M  V30 2354 H 216.008 2.1832 7.48303 0
M  V30 2355 N 220.237 -1.11381 1.11499 0
M  V30 2356 C 221.467 -1.86663 0.885464 0
M  V30 2357 C 221.875 -1.80464 -0.568281 0
M  V30 2358 O 221.218 -1.18445 -1.40415 0
M  V30 2359 C 221.28 -3.36337 1.26956 0
M  V30 2360 C 220.944 -3.66304 2.73259 0
M  V30 2361 C 221.941 -3.63733 3.71476 0
M  V30 2362 C 219.626 -3.9529 3.09921 0
M  V30 2363 C 221.62 -3.89725 5.04374 0
M  V30 2364 C 219.307 -4.20941 4.43004 0
M  V30 2365 C 220.305 -4.18147 5.40039 0
M  V30 2366 O 219.993 -4.43153 6.70724 0
M  V30 2367 H 219.725 -0.597114 0.316908 0
M  V30 2368 H 222.279 -1.41782 1.48617 0
M  V30 2369 H 220.509 -3.81826 0.611999 0
M  V30 2370 H 222.198 -3.92986 1.01573 0
M  V30 2371 H 222.964 -3.41389 3.44498 0
M  V30 2372 H 218.843 -3.966 2.35009 0
M  V30 2373 H 222.387 -3.8746 5.80104 0
M  V30 2374 H 218.284 -4.42761 4.69716 0
M  V30 2375 H 219.052 -4.60717 6.76522 0
M  V30 2376 N 221.715 -0.905404 -1.28997 0
M  V30 2377 C 222.962 -0.534248 -1.95325 0
M  V30 2378 C 223.29 0.920535 -1.71337 0
M  V30 2379 O 222.545 1.66861 -1.02254 0
M  V30 2380 C 222.844 -0.779906 -3.48787 0
M  V30 2381 C 222.51 -2.21293 -3.92861 0
M  V30 2382 C 221.172 -2.60475 -4.04606 0
M  V30 2383 C 223.524 -3.14587 -4.15553 0
M  V30 2384 C 220.852 -3.9212 -4.36416 0
M  V30 2385 C 223.204 -4.45787 -4.48839 0
M  V30 2386 C 221.868 -4.84834 -4.58794 0
M  V30 2387 H 221.138 -0.195495 -0.714747 0
M  V30 2388 H 223.785 -1.14514 -1.53488 0
M  V30 2389 H 222.09 -0.0861365 -3.91705 0
M  V30 2390 H 223.787 -0.472029 -3.98212 0
M  V30 2391 H 220.377 -1.89887 -3.84241 0
M  V30 2392 H 224.561 -2.85528 -4.0594 0
M  V30 2393 H 219.817 -4.22086 -4.42327 0
M  V30 2394 H 223.991 -5.18098 -4.65346 0
M  V30 2395 H 221.618 -5.86877 -4.83197 0
M  V30 2396 N 223.193 1.4272 -0.668489 0
M  V30 2397 C 224.441 2.01226 -0.187769 0
M  V30 2398 C 224.762 1.53092 1.2078 0
M  V30 2399 O 224.032 0.74993 1.80977 0
M  V30 2400 H 222.612 0.744041 -0.0664272 0
M  V30 2401 H 225.274 1.74723 -0.863583 0
M  V30 2402 H 224.37 3.11556 -0.184166 0
M  V30 2403 N 224.671 0.411399 1.52136 0
M  V30 2404 C 226.082 -0.0576826 1.86611 0
M  V30 2405 C 226.433 -1.44238 1.33003 0
M  V30 2406 O 225.558 -2.05759 0.670228 0
M  V30 2407 C 226.153 -0.111448 3.38617 0
M  V30 2408 C 224.712 -0.52487 3.72723 0
M  V30 2409 C 223.859 0.299176 2.75681 0
M  V30 2410 H 226.81 0.628368 1.4573 0
M  V30 2411 H 226.831 -0.926252 3.69054 0
M  V30 2412 H 226.343 0.896488 3.77604 0
M  V30 2413 H 224.444 -1.53936 3.39315 0
M  V30 2414 H 224.557 -0.267681 4.78352 0
M  V30 2415 H 222.921 -0.238814 2.53578 0
M  V30 2416 H 223.704 1.3055 3.17508 0
M  V30 2417 N 226.149 -1.5696 0.141893 0
M  V30 2418 C 227.426 -1.87553 -0.555281 0
M  V30 2419 C 227.806 -1.04699 -1.83306 0
M  V30 2420 O 227.154 -0.132346 -2.28116 0
M  V30 2421 C 227.364 -3.39093 -0.825664 0
M  V30 2422 C 228.712 -4.08199 -1.16869 0
M  V30 2423 O 229.736 -3.44242 -0.915185 0
M  V30 2424 O 228.595 -5.21139 -1.6455 0
M  V30 2425 H 225.689 -0.777188 -0.282679 0
M  V30 2426 H 228.235 -1.68763 0.17812 0
M  V30 2427 H 227.007 -3.91221 0.0788633 0
M  V30 2428 H 226.63 -3.63393 -1.61343 0
M  V30 2429 N 227.627 0.131896 -1.57047 0
M  V30 2430 C 228.874 0.841932 -1.84168 0
M  V30 2431 C 229.202 1.8048 -0.725066 0
M  V30 2432 O 228.457 1.93618 0.284692 0
M  V30 2433 C 228.756 1.63703 -3.17704 0
M  V30 2434 C 228.422 0.81961 -4.43388 0
M  V30 2435 C 227.084 0.594148 -4.77518 0
M  V30 2436 C 229.436 0.248977 -5.20605 0
M  V30 2437 C 226.764 -0.212409 -5.86315 0
M  V30 2438 C 229.116 -0.544701 -6.30251 0
M  V30 2439 C 227.78 -0.780599 -6.6292 0
M  V30 2440 H 227.05 0.308085 -0.673917 0
M  V30 2441 H 229.697 0.104867 -1.91213 0
M  V30 2442 H 228.002 2.44464 -3.06177 0
M  V30 2443 H 229.699 2.19015 -3.35907 0
M  V30 2444 H 226.289 1.00542 -4.16641 0
M  V30 2445 H 230.473 0.410408 -4.946 0
M  V30 2446 H 225.729 -0.404524 -6.1006 0
M  V30 2447 H 229.903 -0.993922 -6.89271 0
M  V30 2448 H 227.53 -1.40742 -7.47058 0
M  V30 2449 N 229.106 1.52395 0.401703 0
M  V30 2450 C 230.036 1.79231 1.49661 0
M  V30 2451 C 231.017 0.643654 1.57452 0
M  V30 2452 O 232.202 0.889989 1.72606 0
M  V30 2453 C 229.332 1.94971 2.87409 0
M  V30 2454 C 228.286 3.10604 2.94465 0
M  V30 2455 C 227.612 3.11577 4.34538 0
M  V30 2456 C 228.912 4.49921 2.6527 0
M  V30 2457 H 230.606 2.70917 1.27454 0
M  V30 2458 H 228.152 1.30362 0.6117 0
M  V30 2459 H 230.105 2.12328 3.63999 0
M  V30 2460 H 228.829 0.999632 3.10926 0
M  V30 2461 H 227.488 2.93009 2.20321 0
M  V30 2462 H 227.136 2.14277 4.55076 0
M  V30 2463 H 226.836 3.89247 4.40183 0
M  V30 2464 H 228.36 3.31073 5.13053 0
M  V30 2465 H 229.774 4.67683 3.31581 0
M  V30 2466 H 228.171 5.29564 2.82281 0
M  V30 2467 H 229.241 4.57507 1.60671 0
M  V30 2468 N 230.584 -0.659388 1.43143 0
M  V30 2469 C 231.494 -1.80167 1.50256 0
M  V30 2470 C 232.51 -1.69571 0.390106 0
M  V30 2471 O 233.686 -1.90849 0.643319 0
M  V30 2472 C 230.751 -3.16409 1.41725 0
M  V30 2473 C 229.812 -3.38848 2.63591 0
M  V30 2474 C 229.045 -4.68591 2.55458 0
M  V30 2475 O 229.268 -5.47532 1.59891 0
M  V30 2476 O 228.202 -4.92614 3.45854 0
M  V30 2477 H 232.028 -1.77121 2.46702 0
M  V30 2478 H 229.613 -0.817092 1.25076 0
M  V30 2479 H 231.495 -3.9768 1.39387 0
M  V30 2480 H 230.17 -3.20059 0.484118 0
M  V30 2481 H 229.077 -2.57366 2.71502 0
M  V30 2482 H 230.41 -3.4004 3.55856 0
M  V30 2483 N 232.062 -1.29571 -0.897171 0
M  V30 2484 C 232.994 -1.10724 -2.00681 0
M  V30 2485 C 234.007 -0.0540026 -1.6271 0
M  V30 2486 O 235.196 -0.298783 -1.75982 0
M  V30 2487 C 232.296 -0.663912 -3.32333 0
M  V30 2488 C 231.469 -1.79622 -3.98816 0
M  V30 2489 C 230.528 -1.34349 -5.0876 0
M  V30 2490 O 229.554 -2.04864 -5.31055 0
M  V30 2491 N 230.756 -0.215764 -5.80099 0
M  V30 2492 H 233.521 -2.06291 -2.17403 0
M  V30 2493 H 231.082 -1.21544 -1.06951 0
M  V30 2494 H 233.074 -0.344295 -4.03233 0
M  V30 2495 H 231.644 0.199375 -3.11964 0
M  V30 2496 H 230.864 -2.28459 -3.21248 0
M  V30 2497 H 232.152 -2.55535 -4.39976 0
M  V30 2498 H 231.55 0.372091 -5.64475 0
M  V30 2499 H 230.107 0.0444707 -6.51785 0
M  V30 2500 N 233.54 1.10788 -1.12088 0
M  V30 2501 C 234.789 1.82036 -0.868659 0
M  V30 2502 C 235.102 1.85929 0.607426 0
M  V30 2503 O 236.308 2.53346 0.97613 0
M  V30 2504 C 234.764 3.26951 -1.50435 0
M  V30 2505 C 234.372 3.31367 -3.01496 0
M  V30 2506 C 236.116 4.03053 -1.33225 0
M  V30 2507 C 234.023 4.7072 -3.58017 0
M  V30 2508 H 232.953 0.682108 -0.321318 0
M  V30 2509 H 235.604 1.24618 -1.34694 0
M  V30 2510 H 233.986 3.84343 -0.953735 0
M  V30 2511 H 235.16 2.83819 -3.6302 0
M  V30 2512 H 233.475 2.6875 -3.18061 0
M  V30 2513 H 236.072 5.05981 -1.72878 0
M  V30 2514 H 236.415 4.15387 -0.275529 0
M  V30 2515 H 236.948 3.52066 -1.85188 0
M  V30 2516 H 233.687 4.63585 -4.63432 0
M  V30 2517 H 233.207 5.1865 -3.01268 0
M  V30 2518 H 234.886 5.39685 -3.56859 0
M  V30 2519 N 235.018 0.912232 1.28515 0
M  V30 2520 C 236.264 0.545405 1.95328 0
M  V30 2521 C 236.597 -0.908313 1.71649 0
M  V30 2522 O 235.872 -1.64575 1.03659 0
M  V30 2523 C 236.155 0.853483 3.4984 0
M  V30 2524 C 236.008 2.35982 3.82926 0
M  V30 2525 C 237.327 0.348589 4.38717 0
M  V30 2526 H 234.446 0.199626 0.709449 0
M  V30 2527 H 237.088 1.1412 1.5191 0
M  V30 2528 H 235.238 0.34643 3.86952 0
M  V30 2529 H 236.91 2.93738 3.55691 0
M  V30 2530 H 235.153 2.81543 3.30024 0
M  V30 2531 H 235.824 2.52593 4.90816 0
M  V30 2532 H 238.3 0.78294 4.08668 0
M  V30 2533 H 237.176 0.593242 5.45685 0
M  V30 2534 H 237.437 -0.751049 4.35674 0
M  V30 2535 N 236.496 -1.42363 0.676048 0
M  V30 2536 C 237.426 -2.33497 0.0124832 0
M  V30 2537 C 238.407 -1.50748 -0.787981 0
M  V30 2538 O 239.592 -1.79346 -0.744884 0
M  V30 2539 C 236.722 -3.34377 -0.938582 0
M  V30 2540 C 235.676 -4.27289 -0.246622 0
M  V30 2541 C 235.002 -5.18386 -1.31071 0
M  V30 2542 C 236.302 -5.14916 0.875125 0
M  V30 2543 H 237.996 -2.89233 0.773593 0
M  V30 2544 H 235.542 -1.39073 0.37346 0
M  V30 2545 H 237.495 -3.97044 -1.41188 0
M  V30 2546 H 236.219 -2.76947 -1.73113 0
M  V30 2547 H 234.878 -3.66018 0.206456 0
M  V30 2548 H 234.526 -4.57282 -2.09528 0
M  V30 2549 H 234.226 -5.81378 -0.852839 0
M  V30 2550 H 235.75 -5.83929 -1.78492 0
M  V30 2551 H 237.164 -5.71262 0.482983 0
M  V30 2552 H 235.561 -5.86747 1.25887 0
M  V30 2553 H 236.631 -4.53242 1.72335 0
M  V30 2554 N 237.974 -0.419461 -1.51915 0
M  V30 2555 C 239.202 0.152136 -2.0634 0
M  V30 2556 C 239.617 1.37988 -1.28859 0
M  V30 2557 O 238.974 1.79243 -0.343232 0
M  V30 2558 C 239.025 0.492266 -3.58133 0
M  V30 2559 O 238.746 -0.686736 -4.32684 0
M  V30 2560 C 240.247 1.11648 -4.2901 0
M  V30 2561 H 237.467 0.0158325 -0.670813 0
M  V30 2562 H 240.011 -0.593394 -1.95702 0
M  V30 2563 H 238.166 1.18769 -3.68745 0
M  V30 2564 H 238.58 -0.400341 -5.2297 0
M  V30 2565 H 240.054 1.3046 -5.36362 0
M  V30 2566 H 240.531 2.09251 -3.86148 0
M  V30 2567 H 241.137 0.460958 -4.22795 0
M  V30 2568 N 239.452 1.56882 -0.150215 0
M  V30 2569 C 240.868 1.58263 0.20617 0
M  V30 2570 C 241.068 1.16464 1.64434 0
M  V30 2571 O 240.124 0.866422 2.3717 0
M  V30 2572 C 241.437 3.00649 -0.0555025 0
M  V30 2573 C 242.985 3.12999 0.00795388 0
M  V30 2574 C 243.46 4.5744 -0.226429 0
M  V30 2575 N 244.951 4.62875 -0.173469 0
M  V30 2576 C 245.686 5.72454 -0.329288 0
M  V30 2577 N 245.182 6.90669 -0.543005 0
M  V30 2578 N 246.975 5.61467 -0.266666 0
M  V30 2579 H 239.126 1.82345 -1.08922 0
M  V30 2580 H 241.389 0.844149 -0.431413 0
M  V30 2581 H 241.095 3.3563 -1.05096 0
M  V30 2582 H 240.969 3.71337 0.66246 0
M  V30 2583 H 243.356 2.77857 0.993966 0
M  V30 2584 H 243.437 2.4479 -0.742388 0
M  V30 2585 H 243.081 4.93287 -1.20956 0
M  V30 2586 H 243.011 5.2378 0.544274 0
M  V30 2587 H 245.502 3.77898 -0.0130709 0
M  V30 2588 H 245.815 7.70045 -0.651922 0
M  V30 2589 H 244.16 6.92581 -0.579366 0
M  V30 2590 H 247.351 4.67992 -0.100441 0
M  V30 2591 H 247.524 6.46816 -0.391535 0
M  V30 2592 N 240.93 -0.123565 1.57115 0
M  V30 2593 C 242.207 -0.862196 1.75572 0
M  V30 2594 C 242.587 -1.98279 0.724475 0
M  V30 2595 O 241.935 -2.27102 -0.252407 0
M  V30 2596 C 242.145 -1.38309 3.20424 0
M  V30 2597 C 243.493 -1.83724 3.82793 0
M  V30 2598 O 244.517 -1.47999 3.23998 0
M  V30 2599 O 243.376 -2.49685 4.86127 0
M  V30 2600 H 240.47 -0.409113 0.718718 0
M  V30 2601 H 243.016 -0.107661 1.69358 0
M  V30 2602 H 241.788 -0.578889 3.86994 0
M  V30 2603 H 241.411 -2.20046 3.31158 0
M  V30 2604 N 242.408 -1.52605 -0.393616 0
M  V30 2605 C 243.355 -1.77055 -1.48054 0
M  V30 2606 C 244.325 -0.61358 -1.54352 0
M  V30 2607 O 245.51 -0.852806 -1.70681 0
M  V30 2608 C 242.65 -1.94108 -2.85335 0
M  V30 2609 C 241.763 -3.21792 -2.88226 0
M  V30 2610 C 240.898 -3.29188 -4.16904 0
M  V30 2611 C 239.937 -4.51013 -4.13828 0
M  V30 2612 N 239.074 -4.55716 -5.34105 0
M  V30 2613 H 243.914 -2.69815 -1.26506 0
M  V30 2614 H 241.451 -1.33683 -0.61379 0
M  V30 2615 H 243.409 -2.01979 -3.65049 0
M  V30 2616 H 242.039 -1.04713 -3.05344 0
M  V30 2617 H 241.091 -3.23015 -2.00911 0
M  V30 2618 H 242.403 -4.11557 -2.8182 0
M  V30 2619 H 241.557 -3.36216 -5.05018 0
M  V30 2620 H 240.296 -2.37389 -4.26026 0
M  V30 2621 H 239.301 -4.44115 -3.24102 0
M  V30 2622 H 240.526 -5.44123 -4.06333 0
M  V30 2623 H 238.472 -3.66807 -5.43865 0
M  V30 2624 H 238.389 -5.39346 -5.29756 0
M  V30 2625 H 239.657 -4.66993 -6.2413 0
M  V30 2626 N 243.887 0.651787 -1.4349 0
M  V30 2627 C 245.115 1.43937 -1.48626 0
M  V30 2628 C 245.53 1.8851 -0.104587 0
M  V30 2629 O 244.887 1.5958 0.885464 0
M  V30 2630 C 244.938 2.6734 -2.43334 0
M  V30 2631 O 244.659 2.24631 -3.76128 0
M  V30 2632 C 246.16 3.60683 -2.57726 0
M  V30 2633 H 243.38 0.44213 -0.504739 0
M  V30 2634 H 245.924 0.798944 -1.88248 0
M  V30 2635 H 244.079 3.2752 -2.06904 0
M  V30 2636 H 244.493 3.04485 -4.2707 0
M  V30 2637 H 245.967 4.43933 -3.28067 0
M  V30 2638 H 246.444 4.08126 -1.62265 0
M  V30 2639 H 247.05 3.06384 -2.94973 0
M  V30 2640 N 245.365 1.30045 0.890287 0
M  V30 2641 C 246.611 1.18737 1.64406 0
M  V30 2642 C 246.944 -0.258525 1.92472 0
M  V30 2643 O 246.219 -1.18562 1.54186 0
M  V30 2644 C 246.502 2.01087 2.98724 0
M  V30 2645 C 246.355 3.53867 2.77665 0
M  V30 2646 C 247.674 1.84457 3.9958 0
M  V30 2647 H 244.793 0.432698 0.596608 0
M  V30 2648 H 247.435 1.5962 1.0306 0
M  V30 2649 H 245.585 1.66349 3.51084 0
M  V30 2650 H 247.257 3.98637 2.32133 0
M  V30 2651 H 245.5 3.78318 2.12269 0
M  V30 2652 H 246.171 4.06772 3.7315 0
M  V30 2653 H 248.647 2.14817 3.56361 0
M  V30 2654 H 247.523 2.44411 4.91482 0
M  V30 2655 H 247.784 0.802276 4.3476 0
M  V30 2656 N 246.843 -1.10192 1.12674 0
M  V30 2657 C 248.089 -1.82475 0.884915 0
M  V30 2658 C 248.422 -1.85093 -0.58773 0
M  V30 2659 O 247.697 -1.3134 -1.43457 0
M  V30 2660 C 247.98 -3.29018 1.46353 0
M  V30 2661 C 247.833 -3.34718 3.00473 0
M  V30 2662 C 249.152 -4.25473 1.12519 0
M  V30 2663 H 246.271 -0.662492 0.322915 0
M  V30 2664 H 248.913 -1.2913 1.39375 0
M  V30 2665 H 247.063 -3.74576 1.03077 0
M  V30 2666 H 248.735 -2.97622 3.52447 0
M  V30 2667 H 246.978 -2.74541 3.35872 0
M  V30 2668 H 247.649 -4.37918 3.36053 0
M  V30 2669 H 250.125 -3.88161 1.499 0
M  V30 2670 H 249.001 -5.26365 1.55663 0
M  V30 2671 H 249.262 -4.42084 0.0377407 0
M  V30 2672 N 248.321 -0.919034 -1.28029 0
M  V30 2673 C 249.546 -0.570357 -1.99403 0
M  V30 2674 C 249.971 0.842486 -1.68178 0
M  V30 2675 O 249.329 1.56391 -0.917141 0
M  V30 2676 C 249.377 -0.792541 -3.51783 0
M  V30 2677 O 248.481 0.145988 -4.12142 0
M  V30 2678 H 247.822 -0.220555 -0.6263 0
M  V30 2679 H 250.352 -1.23592 -1.63053 0
M  V30 2680 H 250.362 -0.704708 -4.01868 0
M  V30 2681 H 249.037 -1.82247 -3.73844 0
M  V30 2682 H 247.614 0.00897528 -3.72899 0
M  V30 2683 N 249.799 1.42003 -0.683588 0
M  V30 2684 C 250.762 2.29191 -0.0198243 0
M  V30 2685 C 251.762 1.43773 0.72013 0
M  V30 2686 O 252.952 1.65061 0.556815 0
M  V30 2687 C 250.084 3.26435 0.982487 0
M  V30 2688 H 251.277 2.8938 -0.787345 0
M  V30 2689 H 248.83 1.49789 -0.446418 0
M  V30 2690 H 249.565 2.71203 1.77819 0
M  V30 2691 H 249.35 3.89449 0.455182 0
M  V30 2692 H 250.84 3.918 1.44508 0
M  V30 2693 N 251.277 0.427512 1.51691 0
M  V30 2694 C 252.554 -0.201684 1.94557 0
M  V30 2695 C 252.934 -1.60981 1.36559 0
M  V30 2696 O 252.282 -2.21814 0.548702 0
M  V30 2697 C 252.492 -0.189394 3.48486 0
M  V30 2698 C 253.84 -0.39978 4.22714 0
M  V30 2699 O 254.864 -0.267945 3.55191 0
M  V30 2700 O 253.723 -0.661249 5.42485 0
M  V30 2701 H 250.817 -0.135261 0.815864 0
M  V30 2702 H 253.363 0.484782 1.62628 0
M  V30 2703 H 252.135 0.795431 3.8313 0
M  V30 2704 H 251.758 -0.919187 3.86829 0
M  V30 2705 N 252.755 -1.56801 0.158532 0
M  V30 2706 C 253.685 -2.20347 -0.772609 0
M  V30 2707 C 254.666 -1.15518 -1.24859 0
M  V30 2708 O 255.851 -1.43902 -1.30406 0
M  V30 2709 C 252.981 -2.83417 -2.00729 0
M  V30 2710 C 251.935 -3.94174 -1.66765 0
M  V30 2711 C 251.261 -4.44233 -2.97592 0
M  V30 2712 C 252.561 -5.14392 -0.905447 0
M  V30 2713 H 254.255 -2.98413 -0.242959 0
M  V30 2714 H 251.801 -1.43537 -0.115419 0
M  V30 2715 H 253.754 -3.26543 -2.6636 0
M  V30 2716 H 252.478 -2.02701 -2.56086 0
M  V30 2717 H 251.137 -3.51684 -1.03508 0
M  V30 2718 H 250.785 -3.60325 -3.50963 0
M  V30 2719 H 250.485 -5.18945 -2.75626 0
M  V30 2720 H 252.009 -4.90037 -3.64274 0
M  V30 2721 H 253.423 -5.5429 -1.46408 0
M  V30 2722 H 251.82 -5.9494 -0.7853 0
M  V30 2723 H 252.89 -4.84795 0.100668 0
M  V30 2724 N 254.233 0.115231 -1.57178 0
M  V30 2725 C 255.163 1.1423 -2.03651 0
M  V30 2726 C 256.144 1.42967 -0.921655 0
M  V30 2727 O 257.329 1.53343 -1.19162 0
M  V30 2728 C 254.459 2.4675 -2.44401 0
M  V30 2729 C 253.413 2.32467 -3.59365 0
M  V30 2730 C 252.739 3.69984 -3.86026 0
M  V30 2731 C 254.039 1.78203 -4.90959 0
M  V30 2732 H 255.733 0.755749 -2.89705 0
M  V30 2733 H 253.279 0.362093 -1.39373 0
M  V30 2734 H 255.232 3.18854 -2.75517 0
M  V30 2735 H 253.956 2.87302 -1.55322 0
M  V30 2736 H 252.615 1.62811 -3.28463 0
M  V30 2737 H 252.263 4.08028 -2.94147 0
M  V30 2738 H 251.963 3.61279 -4.63412 0
M  V30 2739 H 253.487 4.43587 -4.19599 0
M  V30 2740 H 254.901 2.40128 -5.20587 0
M  V30 2741 H 253.298 1.8031 -5.72371 0
M  V30 2742 H 254.368 0.739876 -4.79222 0
M  V30 2743 N 255.711 1.52812 0.385517 0
M  V30 2744 C 256.96 1.67249 1.12741 0
M  V30 2745 C 257.273 0.4205 1.91027 0
M  V30 2746 O 258.479 0.445064 2.67827 0
M  V30 2747 C 256.935 2.95583 2.05326 0
M  V30 2748 C 256.543 4.27974 1.32447 0
M  V30 2749 C 258.287 3.19386 2.7963 0
M  V30 2750 C 256.194 5.47412 2.23818 0
M  V30 2751 H 255.124 0.6231 0.424573 0
M  V30 2752 H 257.775 1.79309 0.389924 0
M  V30 2753 H 256.157 2.77277 2.82725 0
M  V30 2754 H 257.331 4.56844 0.602495 0
M  V30 2755 H 255.646 4.10459 0.700885 0
M  V30 2756 H 258.243 4.05801 3.48181 0
M  V30 2757 H 258.586 2.34604 3.43899 0
M  V30 2758 H 259.119 3.38274 2.09322 0
M  V30 2759 H 255.858 6.34612 1.64157 0
M  V30 2760 H 255.378 5.22849 2.93921 0
M  V30 2761 H 257.057 5.81423 2.83824 0
M  V30 2762 N 257.189 -0.644168 1.43834 0
M  V30 2763 C 258.466 -1.40188 1.36406 0
M  V30 2764 C 258.846 -2.11094 0.0163124 0
M  V30 2765 O 258.194 -2.05426 -1.00062 0
M  V30 2766 C 258.404 -2.3791 2.55343 0
M  V30 2767 C 259.752 -3.01637 2.98832 0
M  V30 2768 O 260.776 -2.48237 2.55455 0
M  V30 2769 O 259.635 -3.98477 3.74003 0
M  V30 2770 H 256.729 -0.626773 0.539523 0
M  V30 2771 H 259.275 -0.670317 1.559 0
M  V30 2772 H 258.047 -1.84525 3.4506 0
M  V30 2773 H 257.67 -3.18503 2.37995 0
M  V30 2774 N 258.668 -1.30515 -0.883378 0
M  V30 2775 C 259.945 -1.10086 -1.6168 0
M  V30 2776 C 260.325 0.349269 -2.08191 0
M  V30 2777 O 259.673 1.34105 -1.85008 0
M  V30 2778 C 259.883 -2.10315 -2.78511 0
M  V30 2779 C 261.231 -2.42119 -3.48803 0
M  V30 2780 O 262.255 -2.08638 -2.88702 0
M  V30 2781 O 261.114 -2.99396 -4.57192 0
M  V30 2782 H 258.208 -0.422907 -0.710689 0
M  V30 2783 H 260.754 -1.41947 -0.930015 0
M  V30 2784 H 259.526 -3.07917 -2.41459 0
M  V30 2785 H 259.149 -1.79282 -3.54886 0
M  V30 2786 N 260.146 1.09593 -1.13257 0
M  V30 2787 C 261.562 1.33775 -0.870423 0
M  V30 2788 C 261.762 1.95327 0.494926 0
M  V30 2789 O 260.818 2.19853 1.2418 0
M  V30 2790 C 262.131 2.25106 -1.99369 0
M  V30 2791 C 263.679 2.3862 -2.02558 0
M  V30 2792 C 264.154 3.33285 -3.14142 0
M  V30 2793 N 265.645 3.40857 -3.13641 0
M  V30 2794 C 266.38 4.14101 -3.96621 0
M  V30 2795 N 265.876 4.90157 -4.8961 0
M  V30 2796 N 267.669 4.09808 -3.84726 0
M  V30 2797 H 259.82 0.680136 -2.01216 0
M  V30 2798 H 262.083 0.362133 -0.876107 0
M  V30 2799 H 261.789 1.87103 -2.97801 0
M  V30 2800 H 261.663 3.25481 -1.90635 0
M  V30 2801 H 264.05 2.75887 -1.0474 0
M  V30 2802 H 264.131 1.38028 -2.15364 0
M  V30 2803 H 263.775 2.96741 -4.12198 0
M  V30 2804 H 263.705 4.33776 -2.98574 0
M  V30 2805 H 266.196 2.86624 -2.46282 0
M  V30 2806 H 266.509 5.4347 -5.49418 0
M  V30 2807 H 264.854 4.89251 -4.93617 0
M  V30 2808 H 268.045 3.4949 -3.11408 0
M  V30 2809 H 268.218 4.66629 -4.49623 0
M  V30 2810 N 261.624 0.925811 1.2754 0
M  V30 2811 C 263.035 0.610102 1.7645 0
M  V30 2812 C 263.386 -0.874723 1.75622 0
M  V30 2813 O 262.511 -1.68444 1.35851 0
M  V30 2814 C 263.106 1.10073 3.20421 0
M  V30 2815 C 261.665 0.835723 3.67005 0
M  V30 2816 C 260.812 1.26054 2.46993 0
M  V30 2817 H 263.763 1.10579 1.13833 0
M  V30 2818 H 263.784 0.447557 3.77859 0
M  V30 2819 H 263.296 2.18143 3.20991 0
M  V30 2820 H 261.397 -0.231249 3.71882 0
M  V30 2821 H 261.51 1.45193 4.56569 0
M  V30 2822 H 259.874 0.679111 2.45479 0
M  V30 2823 H 260.657 2.34984 2.50275 0
M  V30 2824 N 263.102 -1.41638 0.69111 0
M  V30 2825 C 264.379 -1.95036 0.148421 0
M  V30 2826 C 264.759 -1.63072 -1.34055 0
M  V30 2827 O 264.107 -0.93538 -2.08478 0
M  V30 2828 C 264.317 -3.46279 0.434951 0
M  V30 2829 C 265.665 -4.23069 0.360275 0
M  V30 2830 O 266.689 -3.54277 0.369613 0
M  V30 2831 O 265.548 -5.45583 0.316534 0
M  V30 2832 H 262.642 -0.826908 0.0123654 0
M  V30 2833 H 265.188 -1.5138 0.766963 0
M  V30 2834 H 263.96 -3.6281 1.46576 0
M  V30 2835 H 263.583 -3.97019 -0.214787 0
M  V30 2836 N 264.58 -0.43555 -1.51462 0
M  V30 2837 C 265.829 0.133007 -2.01261 0
M  V30 2838 C 266.142 1.43942 -1.32439 0
M  V30 2839 O 267.348 2.09081 -1.73198 0
M  V30 2840 C 265.804 0.287581 -3.58749 0
M  V30 2841 C 265.412 -1.00829 -4.36506 0
M  V30 2842 C 267.156 0.810004 -4.167 0
M  V30 2843 C 265.063 -0.819454 -5.85695 0
M  V30 2844 H 263.993 0.0534822 -0.752101 0
M  V30 2845 H 266.644 -0.565038 -1.74584 0
M  V30 2846 H 265.026 1.04859 -3.81865 0
M  V30 2847 H 266.2 -1.77749 -4.25138 0
M  V30 2848 H 264.515 -1.45911 -3.89999 0
M  V30 2849 H 267.112 0.967743 -5.2587 0
M  V30 2850 H 267.455 1.79196 -3.75758 0
M  V30 2851 H 267.988 0.107357 -3.97655 0
M  V30 2852 H 264.727 -1.77374 -6.31046 0
M  V30 2853 H 264.247 -0.0900208 -5.99732 0
M  V30 2854 H 265.926 -0.471949 -6.45276 0
M  V30 2855 N 266.058 1.56714 -0.166846 0
M  V30 2856 C 267.286 2.0112 0.485644 0
M  V30 2857 C 267.701 1.04705 1.57106 0
M  V30 2858 O 267.058 0.0471923 1.82439 0
M  V30 2859 C 267.109 3.45361 1.06808 0
M  V30 2860 O 266.83 4.38092 0.0259995 0
M  V30 2861 C 268.331 4.05145 1.79924 0
M  V30 2862 H 265.551 0.65931 0.124704 0
M  V30 2863 H 268.095 2.02746 -0.267262 0
M  V30 2864 H 266.25 3.44524 1.7715 0
M  V30 2865 H 266.664 5.22519 0.455398 0
M  V30 2866 H 268.138 5.08009 2.15942 0
M  V30 2867 H 268.615 3.46982 2.69258 0
M  V30 2868 H 269.221 4.09672 1.14234 0
M  V30 2869 N 267.536 -0.106894 1.57237 0
M  V30 2870 C 268.784 -0.810921 1.85117 0
M  V30 2871 C 269.105 -1.7984 0.753827 0
M  V30 2872 O 268.375 -1.94649 -0.221056 0
M  V30 2873 H 266.955 -0.302466 0.683025 0
M  V30 2874 H 269.617 -0.0913324 1.94686 0
M  V30 2875 H 268.713 -1.34875 2.81452 0
M  V30 2876 N 269.014 -1.53014 -0.377408 0
M  V30 2877 C 269.977 -1.77957 -1.44444 0
M  V30 2878 C 270.977 -0.649763 -1.47087 0
M  V30 2879 O 272.167 -0.917897 -1.48055 0
M  V30 2880 C 269.299 -1.89089 -2.83651 0
M  V30 2881 H 270.492 -2.73243 -1.23606 0
M  V30 2882 H 268.045 -1.43912 -0.609844 0
M  V30 2883 H 268.78 -0.958293 -3.09818 0
M  V30 2884 H 268.565 -2.71254 -2.83132 0
M  V30 2885 H 270.055 -2.1002 -3.60945 0
M  V30 2886 N 270.492 0.636531 -1.44174 0
M  V30 2887 C 271.402 1.77754 -1.53103 0
M  V30 2888 C 272.418 1.68928 -0.417034 0
M  V30 2889 O 273.594 1.89801 -0.6736 0
M  V30 2890 C 270.659 3.14115 -1.46741 0
M  V30 2891 C 269.72 3.34612 -2.68948 0
M  V30 2892 C 268.953 4.64467 -2.6288 0
M  V30 2893 O 269.176 5.44919 -1.68581 0
M  V30 2894 O 268.11 4.87049 -3.53648 0
M  V30 2895 H 271.936 1.73174 -2.49489 0
M  V30 2896 H 269.521 0.79709 -1.2636 0
M  V30 2897 H 271.403 3.95412 -1.45696 0
M  V30 2898 H 270.078 3.19249 -0.534975 0
M  V30 2899 H 268.985 2.53014 -2.75562 0
M  V30 2900 H 270.318 3.34336 -3.61221 0
M  V30 2901 N 271.97 1.30982 0.876444 0
M  V30 2902 C 273.381 1.18277 1.44456 0
M  V30 2903 C 273.732 -0.213265 1.95037 0
M  V30 2904 O 272.857 -1.11057 1.85729 0
M  V30 2905 C 273.452 2.1411 2.62569 0
M  V30 2906 C 272.011 2.05358 3.15444 0
M  V30 2907 C 271.158 2.03706 1.88146 0
M  V30 2908 H 274.109 1.43127 0.685584 0
M  V30 2909 H 274.13 1.72692 3.39054 0
M  V30 2910 H 273.642 3.15706 2.25724 0
M  V30 2911 H 271.743 1.06934 3.56926 0
M  V30 2912 H 271.856 2.94156 3.78166 0
M  V30 2913 H 270.22 1.48629 2.06837 0
M  V30 2914 H 271.003 3.07047 1.53547 0
M  V30 2915 N 273.449 -1.08991 1.13837 0
M  V30 2916 C 274.677 -1.85011 0.926202 0
M  V30 2917 C 275.092 -1.8135 -0.525127 0
M  V30 2918 O 274.449 -1.21287 -1.36366 0
M  V30 2919 C 274.5 -3.32802 1.41155 0
M  V30 2920 O 274.221 -3.36444 2.80601 0
M  V30 2921 C 275.722 -4.25649 1.23847 0
M  V30 2922 H 272.942 -0.584249 0.32999 0
M  V30 2923 H 275.486 -1.37688 1.51202 0
M  V30 2924 H 273.641 -3.77536 0.868631 0
M  V30 2925 H 274.055 -4.28657 3.02248 0
M  V30 2926 H 275.529 -5.27485 1.62675 0
M  V30 2927 H 276.006 -4.38828 0.18065 0
M  V30 2928 H 276.612 -3.86735 1.76964 0
M  V30 2929 N 274.927 -0.932562 -1.27047 0
M  V30 2930 C 276.338 -0.619451 -1.76124 0
M  V30 2931 C 276.689 0.865397 -1.76083 0
M  V30 2932 O 275.814 1.67722 -1.36742 0
M  V30 2933 C 276.409 -1.11771 -3.19832 0
M  V30 2934 C 274.968 -0.855174 -3.66557 0
M  V30 2935 C 274.115 -1.27362 -2.46321 0
M  V30 2936 H 277.066 -1.11181 -1.13245 0
M  V30 2937 H 277.087 -0.46759 -3.77616 0
M  V30 2938 H 276.599 -2.19842 -3.1983 0
M  V30 2939 H 274.7 0.211524 -3.71999 0
M  V30 2940 H 274.813 -1.47613 -4.55793 0
M  V30 2941 H 273.177 -0.692119 -2.45116 0
M  V30 2942 H 273.96 -2.36307 -2.49025 0
M  V30 2943 N 276.405 1.4127 -0.698611 0
M  V30 2944 C 277.63 2.06024 -0.238512 0
M  V30 2945 C 278.055 1.5224 1.10475 0
M  V30 2946 O 277.413 0.650623 1.69223 0
M  V30 2947 C 277.461 3.59988 -0.209952 0
M  V30 2948 O 276.565 4.04282 0.814235 0
M  V30 2949 H 275.906 0.653829 -0.115775 0
M  V30 2950 H 278.436 1.8098 -0.954326 0
M  V30 2951 H 278.446 4.07979 -0.0418436 0
M  V30 2952 H 277.121 3.98503 -1.1903 0
M  V30 2953 H 275.698 3.6779 0.615234 0
M  V30 2954 N 277.883 0.443576 1.51229 0
M  V30 2955 C 279.129 -0.11321 2.03085 0
M  V30 2956 C 279.484 -1.39841 1.32145 0
M  V30 2957 O 278.777 -1.86723 0.429542 0
M  V30 2958 C 278.971 -0.380579 3.55368 0
M  V30 2959 C 278.8 0.877157 4.41062 0
M  V30 2960 C 277.57 1.4125 4.85156 0
M  V30 2961 C 279.768 1.76503 4.83064 0
M  V30 2962 N 277.75 2.62213 5.55083 0
M  V30 2963 C 279.121 2.82067 5.52122 0
M  V30 2964 C 281.176 1.7787 4.65045 0
M  V30 2965 C 279.879 3.88952 6.05069 0
M  V30 2966 C 281.905 2.83694 5.18914 0
M  V30 2967 C 281.267 3.87978 5.87922 0
M  V30 2968 H 277.366 -0.00210178 0.781997 0
M  V30 2969 H 279.95 0.605641 1.85041 0
M  V30 2970 H 278.121 -1.06847 3.73414 0
M  V30 2971 H 279.853 -0.929274 3.93887 0
M  V30 2972 H 276.608 0.965542 4.63653 0
M  V30 2973 H 277.032 3.23568 5.9467 0
M  V30 2974 H 281.674 0.985744 4.11148 0
M  V30 2975 H 279.392 4.69082 6.58018 0
M  V30 2976 H 282.978 2.85702 5.06819 0
M  V30 2977 H 281.858 4.68517 6.28857 0
M  V30 2978 N 279.361 -1.56624 0.175154 0
M  V30 2979 C 280.271 -2.21741 -0.766042 0
M  V30 2980 C 281.287 -1.21023 -1.25018 0
M  V30 2981 O 282.463 -1.53697 -1.3015 0
M  V30 2982 C 279.528 -2.84839 -1.97655 0
M  V30 2983 C 278.589 -4.00769 -1.53892 0
M  V30 2984 C 277.822 -4.60849 -2.69173 0
M  V30 2985 O 278.045 -4.19823 -3.86141 0
M  V30 2986 O 276.979 -5.50655 -2.43028 0
M  V30 2987 H 280.805 -3.02738 -0.241585 0
M  V30 2988 H 278.39 -1.49305 -0.053222 0
M  V30 2989 H 280.272 -3.24834 -2.68442 0
M  V30 2990 H 278.947 -2.06836 -2.48999 0
M  V30 2991 H 277.854 -3.65436 -0.80044 0
M  V30 2992 H 279.187 -4.80376 -1.07236 0
M  V30 2993 N 280.839 0.0985539 -1.57292 0
M  V30 2994 C 281.789 1.1261 -1.9825 0
M  V30 2995 C 282.773 1.35961 -0.860426 0
M  V30 2996 O 283.965 1.36711 -1.12424 0
M  V30 2997 C 281.094 2.44727 -2.40757 0
M  V30 2998 C 280.18 2.24764 -3.59642 0
M  V30 2999 N 280.571 1.74661 -4.74687 0
M  V30 3000 C 278.869 2.55344 -3.65672 0
M  V30 3001 C 279.57 1.68887 -5.56644 0
M  V30 3002 N 278.546 2.13976 -4.99715 0
M  V30 3003 H 282.348 0.731604 -2.84648 0
M  V30 3004 H 279.862 0.306029 -1.59491 0
M  V30 3005 H 281.859 3.19072 -2.68326 0
M  V30 3006 H 280.519 2.84917 -1.55733 0
M  V30 3007 H 281.53 1.43908 -4.97505 0
M  V30 3008 H 278.207 2.99081 -2.91302 0
M  V30 3009 H 279.597 1.3123 -6.5896 0
M  V30 3010 N 282.317 1.53212 0.369288 0
M  V30 3011 C 283.563 1.69466 1.11397 0
M  V30 3012 C 283.896 0.443257 1.89074 0
M  V30 3013 O 283.171 -0.559386 1.86282 0
M  V30 3014 C 283.454 2.9422 2.07621 0
M  V30 3015 C 283.307 4.29508 1.33577 0
M  V30 3016 C 284.626 3.14565 3.07794 0
M  V30 3017 H 281.745 0.616667 0.403597 0
M  V30 3018 H 284.387 1.85845 0.395179 0
M  V30 3019 H 282.537 2.80387 2.68916 0
M  V30 3020 H 284.209 4.55147 0.750955 0
M  V30 3021 H 282.452 4.29088 0.637618 0
M  V30 3022 H 283.123 5.12926 2.03989 0
M  V30 3023 H 285.599 3.2756 2.56601 0
M  V30 3024 H 284.475 4.03297 3.72348 0
M  V30 3025 H 284.736 2.29675 3.77759 0
M  V30 3026 N 283.795 -0.628877 1.44509 0
M  V30 3027 C 284.725 -1.75187 1.54376 0
M  V30 3028 C 285.706 -1.65411 0.396618 0
M  V30 3029 O 286.891 -1.84137 0.617031 0
M  V30 3030 C 284.021 -3.13725 1.48976 0
M  V30 3031 C 282.975 -3.38291 2.62189 0
M  V30 3032 C 282.301 -4.76883 2.41841 0
M  V30 3033 C 283.601 -3.30632 4.04326 0
M  V30 3034 H 285.295 -1.67187 2.48373 0
M  V30 3035 H 282.841 -0.802909 1.19538 0
M  V30 3036 H 284.794 -3.92064 1.54478 0
M  V30 3037 H 283.518 -3.22515 0.514961 0
M  V30 3038 H 282.177 -2.62334 2.56079 0
M  V30 3039 H 281.825 -4.82378 1.42548 0
M  V30 3040 H 281.525 -4.94278 3.17747 0
M  V30 3041 H 283.049 -5.57449 2.49165 0
M  V30 3042 H 284.463 -3.98873 4.11793 0
M  V30 3043 H 282.86 -3.59561 4.80454 0
M  V30 3044 H 283.93 -2.28404 4.27738 0
M  V30 3045 N 285.273 -1.31445 -0.869486 0
M  V30 3046 C 286.52 -1.21158 -1.62256 0
M  V30 3047 C 286.848 0.230155 -1.93133 0
M  V30 3048 O 286.103 1.17906 -1.56194 0
M  V30 3049 C 286.402 -2.00145 -2.96102 0
M  V30 3050 C 286.068 -3.4964 -2.84715 0
M  V30 3051 C 284.73 -3.90403 -2.81317 0
M  V30 3052 C 287.082 -4.44769 -2.71716 0
M  V30 3053 C 284.41 -5.24561 -2.62778 0
M  V30 3054 C 286.762 -5.79054 -2.54714 0
M  V30 3055 C 285.426 -6.19037 -2.49699 0
M  V30 3056 H 284.696 -0.443348 -0.593737 0
M  V30 3057 H 287.343 -1.62715 -1.00976 0
M  V30 3058 H 285.648 -1.5127 -3.6142 0
M  V30 3059 H 287.345 -1.89566 -3.53363 0
M  V30 3060 H 283.935 -3.17256 -2.88178 0
M  V30 3061 H 288.119 -4.14208 -2.73397 0
M  V30 3062 H 283.375 -5.54613 -2.57321 0
M  V30 3063 H 287.549 -6.52393 -2.43632 0
M  V30 3064 H 285.176 -7.22935 -2.35093 0
M  V30 3065 N 286.751 1.08385 -1.14413 0
M  V30 3066 C 287.979 1.84517 -0.936001 0
M  V30 3067 C 288.394 1.81626 0.515503 0
M  V30 3068 O 287.751 1.22008 1.35721 0
M  V30 3069 C 287.802 3.32049 -1.42918 0
M  V30 3070 O 287.523 3.34951 -2.82381 0
M  V30 3071 C 289.024 4.24986 -1.26103 0
M  V30 3072 H 286.244 0.582491 -0.333084 0
M  V30 3073 H 288.788 1.36885 -1.5193 0
M  V30 3074 H 286.943 3.7707 -0.888641 0
M  V30 3075 H 287.357 4.27048 -3.04517 0
M  V30 3076 H 288.831 5.26615 -1.6547 0
M  V30 3077 H 289.308 4.38726 -0.20392 0
M  V30 3078 H 289.914 3.85791 -1.79012 0
M  V30 3079 N 288.23 0.939286 1.26551 0
M  V30 3080 C 289.193 0.451987 2.24699 0
M  V30 3081 C 290.193 -0.435869 1.5478 0
M  V30 3082 O 291.383 -0.235314 1.72603 0
M  V30 3083 C 288.515 -0.348801 3.39111 0
M  V30 3084 H 289.708 1.3193 2.69322 0
M  V30 3085 H 287.261 0.721072 1.38673 0
M  V30 3086 H 287.996 -1.23444 2.99887 0
M  V30 3087 H 287.781 0.287945 3.91041 0
M  V30 3088 H 289.271 -0.679726 4.12031 0
M  V30 3089 N 289.708 -1.40897 0.706093 0
M  V30 3090 C 290.948 -2.02916 0.245827 0
M  V30 3091 C 291.312 -1.54751 -1.13649 0
M  V30 3092 O 292.513 -2.08768 -1.69321 0
M  V30 3093 C 290.784 -3.56031 0.312537 0
M  V30 3094 S 292.343 -4.38741 -0.0721388 0
M  V30 3095 H 289.161 -0.704186 0.0982007 0
M  V30 3096 H 291.763 -1.72168 0.926207 0
M  V30 3097 H 290.467 -3.88579 1.32039 0
M  V30 3098 H 289.998 -3.91495 -0.386641 0
M  V30 3099 H 292.013 -4.78952 -1.29692 0
M  V30 3100 N 291.186 -0.45159 -1.50991 0
M  V30 3101 C 292.136 0.370861 -2.24964 0
M  V30 3102 C 293.12 0.978074 -1.2776 0
M  V30 3103 O 294.312 0.893854 -1.52772 0
M  V30 3104 C 291.441 1.46344 -3.10545 0
M  V30 3105 C 290.527 0.864924 -4.15187 0
M  V30 3106 N 290.918 -0.00311354 -5.058 0
M  V30 3107 C 289.216 1.13099 -4.31422 0
M  V30 3108 C 289.917 -0.340772 -5.80701 0
M  V30 3109 N 288.893 0.279203 -5.42883 0
M  V30 3110 H 292.695 -0.298134 -2.92384 0
M  V30 3111 H 290.209 -0.264528 -1.60231 0
M  V30 3112 H 292.206 2.06565 -3.62128 0
M  V30 3113 H 290.866 2.13463 -2.4467 0
M  V30 3114 H 291.877 -0.37058 -5.16572 0
M  V30 3115 H 288.554 1.79861 -3.76771 0
M  V30 3116 H 289.944 -1.048 -6.63677 0
M  V30 3117 N 292.664 1.56529 -0.183458 0
M  V30 3118 C 293.612 2.19873 0.758845 0
M  V30 3119 C 294.606 1.16638 1.22849 0
M  V30 3120 O 295.812 1.3481 1.19274 0
M  V30 3121 H 292.187 0.7045 0.263029 0
M  V30 3122 H 294.158 2.97724 0.200755 0
M  V30 3123 C 292.907 2.86314 1.9728 0
M  V30 3124 H 292.23 3.65487 1.62047 0
M  V30 3125 H 293.67 3.3409 2.61075 0
M  V30 3126 C 292.129 1.86729 2.80418 0
M  V30 3127 O 292.659 1.36031 3.77966 0
M  V30 3128 N 290.865 1.55216 2.45675 0
M  V30 3129 H 290.412 1.96636 1.66409 0
M  V30 3130 H 290.37 0.888388 3.01588 0
M  V30 3131 N 294.142 -0.090211 1.57342 0
M  V30 3132 C 295.074 -1.13541 1.99101 0
M  V30 3133 C 296.087 -1.3604 0.894258 0
M  V30 3134 O 297.276 -1.34606 1.17233 0
M  V30 3135 C 294.376 -2.49001 2.29895 0
M  V30 3136 C 293.549 -2.46712 3.61182 0
M  V30 3137 C 292.608 -3.64136 3.79857 0
M  V30 3138 O 291.634 -3.46405 4.51655 0
M  V30 3139 N 292.836 -4.83802 3.20806 0
M  V30 3140 H 295.601 -0.779942 2.89373 0
M  V30 3141 H 293.162 -0.279125 1.59476 0
M  V30 3142 H 295.154 -3.26166 2.39578 0
M  V30 3143 H 293.724 -2.76619 1.45605 0
M  V30 3144 H 292.944 -1.55058 3.62423 0
M  V30 3145 H 294.232 -2.42265 4.4742 0
M  V30 3146 H 293.63 -5.01112 2.62494 0
M  V30 3147 H 292.187 -5.58543 3.35966 0
M  V30 3148 N 295.62 -1.53406 -0.361157 0
M  V30 3149 C 296.57 -1.76536 -1.44287 0
M  V30 3150 C 297.554 -0.620019 -1.48474 0
M  V30 3151 O 298.746 -0.878834 -1.53641 0
M  V30 3152 C 295.875 -1.96266 -2.81664 0
M  V30 3153 C 294.961 -3.16815 -2.81938 0
M  V30 3154 N 295.352 -4.38637 -2.51855 0
M  V30 3155 C 293.65 -3.17627 -3.13096 0
M  V30 3156 C 294.351 -5.20401 -2.59919 0
M  V30 3157 N 293.327 -4.56712 -2.94814 0
M  V30 3158 H 297.129 -2.68331 -1.19899 0
M  V30 3159 H 294.643 -1.52091 -0.56938 0
M  V30 3160 H 296.64 -2.10966 -3.59582 0
M  V30 3161 H 295.3 -1.05702 -3.07013 0
M  V30 3162 H 296.311 -4.66293 -2.25369 0
M  V30 3163 H 292.988 -2.36971 -3.43731 0
M  V30 3164 H 294.378 -6.27586 -2.39969 0
M  V30 3165 N 297.098 0.621204 -1.44841 0
M  V30 3166 C 298.028 1.74366 -1.55303 0
M  V30 3167 C 299.009 1.65199 -0.405385 0
M  V30 3168 O 300.194 1.83807 -0.626787 0
M  V30 3169 C 297.324 3.12931 -1.50637 0
M  V30 3170 C 296.278 3.36896 -2.63979 0
M  V30 3171 C 295.604 4.75594 -2.44366 0
M  V30 3172 C 296.904 3.28483 -4.06074 0
M  V30 3173 H 298.598 1.65867 -2.49256 0
M  V30 3174 H 296.144 0.796558 -1.19962 0
M  V30 3175 H 298.097 3.9124 -1.56555 0
M  V30 3176 H 296.821 3.22237 -0.532057 0
M  V30 3177 H 295.48 2.60972 -2.57467 0
M  V30 3178 H 295.128 4.81616 -1.45105 0
M  V30 3179 H 294.828 4.92586 -3.20364 0
M  V30 3180 H 296.352 5.5612 -2.52117 0
M  V30 3181 H 297.766 3.96684 -4.13902 0
M  V30 3182 H 296.163 3.57008 -4.82354 0
M  V30 3183 H 297.233 2.26133 -4.28943 0
M  V30 3184 N 298.576 1.31904 0.862503 0
M  V30 3185 C 299.508 1.16005 1.97675 0
M  V30 3186 C 300.521 0.0971234 1.6251 0
M  V30 3187 O 301.71 0.345337 1.75128 0
M  V30 3188 C 298.81 0.751791 3.30456 0
M  V30 3189 C 297.983 1.90133 3.93914 0
M  V30 3190 C 297.042 1.4779 5.05019 0
M  V30 3191 O 296.068 2.18872 5.25437 0
M  V30 3192 N 297.27 0.369491 5.79323 0
M  V30 3193 H 300.035 2.11982 2.11857 0
M  V30 3194 H 297.596 1.24337 1.03691 0
M  V30 3195 H 299.588 0.451084 4.02178 0
M  V30 3196 H 298.158 -0.116593 3.12382 0
M  V30 3197 H 297.378 2.36896 3.15078 0
M  V30 3198 H 298.666 2.67111 4.33047 0
M  V30 3199 H 298.064 -0.222299 5.65263 0
M  V30 3200 H 296.621 0.128354 6.51674 0
M  V30 3201 N 300.054 -1.07777 1.14986 0
M  V30 3202 C 300.984 -2.16865 0.865557 0
M  V30 3203 C 301.965 -1.69123 -0.182083 0
M  V30 3204 O 303.15 -1.94164 -0.0373815 0
M  V30 3205 C 300.28 -3.45539 0.349313 0
M  V30 3206 C 299.234 -4.06708 1.33313 0
M  V30 3207 C 298.56 -5.30411 0.675918 0
M  V30 3208 C 299.86 -4.47241 2.69764 0
M  V30 3209 H 301.554 -2.40905 1.77778 0
M  V30 3210 H 299.1 -1.15781 0.856203 0
M  V30 3211 H 301.053 -4.21174 0.137983 0
M  V30 3212 H 299.777 -3.21072 -0.598362 0
M  V30 3213 H 298.436 -3.33112 1.53075 0
M  V30 3214 H 298.084 -5.02232 -0.277767 0
M  V30 3215 H 297.784 -5.72293 1.33244 0
M  V30 3216 H 299.308 -6.08755 0.474262 0
M  V30 3217 H 300.722 -5.14025 2.53873 0
M  V30 3218 H 299.119 -5.00062 3.3175 0
M  V30 3219 H 300.189 -3.58818 3.26156 0
M  V30 3220 N 301.532 -0.945985 -1.26051 0
M  V30 3221 C 302.464 -0.416662 -2.25381 0
M  V30 3222 C 303.477 0.462712 -1.56086 0
M  V30 3223 O 304.666 0.272383 -1.7641 0
M  V30 3224 C 301.766 0.419812 -3.3629 0
M  V30 3225 C 300.939 -0.444531 -4.35135 0
M  V30 3226 C 299.998 0.332305 -5.2515 0
M  V30 3227 O 299.024 -0.266324 -5.68577 0
M  V30 3228 N 300.226 1.62763 -5.57215 0
M  V30 3229 H 302.991 -1.27059 -2.71433 0
M  V30 3230 H 300.552 -0.815392 -1.39868 0
M  V30 3231 H 302.544 0.947013 -3.93464 0
M  V30 3232 H 301.114 1.17456 -2.89694 0
M  V30 3233 H 300.334 -1.15291 -3.76964 0
M  V30 3234 H 301.622 -1.03478 -4.98166 0
M  V30 3235 H 301.02 2.13603 -5.23823 0
M  V30 3236 H 299.577 2.10097 -6.17011 0
M  V30 3237 N 303.011 1.40521 -0.713556 0
M  V30 3238 C 304.422 1.83853 -0.324807 0
M  V30 3239 C 304.773 1.59667 1.14021 0
M  V30 3240 O 303.898 1.07649 1.87725 0
M  V30 3241 C 304.493 3.33751 -0.582746 0
M  V30 3242 C 303.052 3.75584 -0.247727 0
M  V30 3243 C 302.199 2.63753 -0.856121 0
M  V30 3244 H 305.15 1.29817 -0.91286 0
M  V30 3245 H 305.171 3.80194 0.152682 0
M  V30 3246 H 304.683 3.51322 -1.64908 0
M  V30 3247 H 302.784 3.63608 0.813624 0
M  V30 3248 H 302.897 4.7373 -0.715307 0
M  V30 3249 H 301.261 2.53108 -0.28432 0
M  V30 3250 H 302.044 2.84137 -1.92668 0
M  V30 3251 N 304.489 0.459591 1.5075 0
M  V30 3252 C 305.9 0.00171547 1.867 0
M  V30 3253 C 306.251 -1.39934 1.37525 0
M  V30 3254 O 305.376 -2.03523 0.735349 0
M  V30 3255 C 305.971 -0.00366298 3.388 0
M  V30 3256 C 304.53 -0.406026 3.74204 0
M  V30 3257 C 303.677 0.38673 2.7459 0
M  V30 3258 H 306.628 0.674413 1.43657 0
M  V30 3259 H 306.649 -0.808371 3.71814 0
M  V30 3260 H 306.161 1.01617 3.74561 0
M  V30 3261 H 304.262 -1.43063 3.4404 0
M  V30 3262 H 304.375 -0.115362 4.78961 0
M  V30 3263 H 302.739 -0.158019 2.54209 0
M  V30 3264 H 303.522 1.40585 3.13194 0
M  V30 3265 N 305.967 -1.56429 0.191757 0
M  V30 3266 C 307.383 -1.58754 -0.164137 0
M  V30 3267 C 307.583 -1.20782 -1.61288 0
M  V30 3268 O 306.639 -0.928999 -2.34789 0
M  V30 3269 C 307.952 -3.00396 0.135195 0
M  V30 3270 C 309.5 -3.1291 0.0750351 0
M  V30 3271 C 309.975 -4.56679 0.347632 0
M  V30 3272 N 311.466 -4.62252 0.296131 0
M  V30 3273 C 312.201 -5.71379 0.480948 0
M  V30 3274 N 311.697 -6.88986 0.725933 0
M  V30 3275 N 313.49 -5.60563 0.415435 0
M  V30 3276 H 305.641 -1.79393 1.13718 0
M  V30 3277 H 307.904 -0.832414 0.453643 0
M  V30 3278 H 307.61 -3.32726 1.13958 0
M  V30 3279 H 307.484 -3.72963 -0.563773 0
M  V30 3280 H 309.871 -2.80394 -0.919948 0
M  V30 3281 H 309.952 -2.42736 0.807029 0
M  V30 3282 H 309.596 -4.89907 1.33992 0
M  V30 3283 H 309.526 -5.25039 -0.405212 0
M  V30 3284 H 312.017 -3.7773 0.113259 0
M  V30 3285 H 312.33 -7.68046 0.855857 0
M  V30 3286 H 310.675 -6.90801 0.762788 0
M  V30 3287 H 313.866 -4.67561 0.224486 0
M  V30 3288 H 314.039 -6.45551 0.562889 0
M  V30 3289 N 307.445 0.0818655 -1.57387 0
M  V30 3290 C 308.861 0.436412 -1.53517 0
M  V30 3291 C 309.061 1.79758 -0.910459 0
M  V30 3292 O 308.117 2.47324 -0.508636 0
M  V30 3293 C 309.43 0.386734 -2.98203 0
M  V30 3294 C 310.978 0.467644 -3.09487 0
M  V30 3295 C 311.453 0.447978 -4.55804 0
M  V30 3296 N 312.944 0.508348 -4.60402 0
M  V30 3297 C 313.679 0.515184 -5.71081 0
M  V30 3298 N 313.175 0.477435 -6.91153 0
M  V30 3299 N 314.968 0.560988 -5.59294 0
M  V30 3300 H 307.119 -0.809546 -1.96367 0
M  V30 3301 H 309.382 -0.302733 -0.898363 0
M  V30 3302 H 309.088 -0.546539 -3.47427 0
M  V30 3303 H 308.962 1.20075 -3.57578 0
M  V30 3304 H 311.349 1.39134 -2.60242 0
M  V30 3305 H 311.43 -0.374753 -2.5304 0
M  V30 3306 H 311.074 -0.471826 -5.05704 0
M  V30 3307 H 311.004 1.30777 -5.10103 0
M  V30 3308 H 313.495 0.54218 -3.7399 0
M  V30 3309 H 313.808 0.486299 -7.71268 0
M  V30 3310 H 312.153 0.444278 -6.93579 0
M  V30 3311 H 315.344 0.5881 -4.64391 0
M  V30 3312 H 315.517 0.562846 -6.45551 0
M  V30 3313 N 308.923 1.53595 0.353017 0
M  V30 3314 C 310.339 1.43648 0.695516 0
M  V30 3315 C 310.539 0.585617 1.92802 0
M  V30 3316 O 309.595 0.0729223 2.52395 0
M  V30 3317 C 310.908 2.8701 0.896991 0
M  V30 3318 C 312.456 2.96723 0.996209 0
M  V30 3319 C 312.931 4.41173 1.23007 0
M  V30 3320 N 314.422 4.44657 1.29749 0
M  V30 3321 C 315.157 5.53547 1.49577 0
M  V30 3322 N 314.653 6.72461 1.66639 0
M  V30 3323 N 316.446 5.41145 1.52048 0
M  V30 3324 H 308.597 2.07415 -0.457481 0
M  V30 3325 H 310.86 0.9372 -0.142687 0
M  V30 3326 H 310.566 3.51644 0.0629938 0
M  V30 3327 H 310.44 3.31401 1.80148 0
M  V30 3328 H 312.827 2.32235 1.82074 0
M  V30 3329 H 312.908 2.55707 0.0688331 0
M  V30 3330 H 312.552 5.06238 0.410505 0
M  V30 3331 H 312.482 4.79772 2.17086 0
M  V30 3332 H 314.973 3.58963 1.18126 0
M  V30 3333 H 315.286 7.51214 1.81378 0
M  V30 3334 H 313.631 6.75423 1.63794 0
M  V30 3335 H 316.822 4.47205 1.38294 0
M  V30 3336 H 316.995 6.26068 1.67159 0
M  V30 3337 N 310.401 -0.613514 1.45168 0
M  V30 3338 C 311.331 -1.7354 1.56225 0
M  V30 3339 C 312.312 -1.64981 0.41414 0
M  V30 3340 O 313.497 -1.83472 0.636526 0
M  V30 3341 C 310.627 -3.12128 1.52295 0
M  V30 3342 C 309.581 -3.35491 2.65762 0
M  V30 3343 C 308.907 -4.74291 2.46885 0
M  V30 3344 C 310.207 -3.26325 4.0781 0
M  V30 3345 H 311.901 -1.64543 2.50132 0
M  V30 3346 H 309.447 -0.790185 1.20383 0
M  V30 3347 H 311.4 -3.90404 1.58628 0
M  V30 3348 H 310.124 -3.2195 0.549139 0
M  V30 3349 H 308.783 -2.59603 2.58847 0
M  V30 3350 H 308.431 -4.80839 1.47657 0
M  V30 3351 H 308.131 -4.9088 3.22972 0
M  V30 3352 H 309.655 -5.54775 2.55063 0
M  V30 3353 H 311.069 -3.94483 4.16 0
M  V30 3354 H 309.466 -3.54445 4.8424 0
M  V30 3355 H 310.536 -2.23855 4.30136 0
M  V30 3356 N 311.879 -1.3236 -0.855495 0
M  V30 3357 C 312.829 -1.17809 -1.95205 0
M  V30 3358 C 313.813 -0.0852319 -1.60674 0
M  V30 3359 O 315.005 -0.311651 -1.74235 0
M  V30 3360 C 312.134 -0.902437 -3.31226 0
M  V30 3361 C 311.22 -2.03695 -3.7198 0
M  V30 3362 N 311.611 -3.28544 -3.84568 0
M  V30 3363 C 309.909 -1.93993 -4.016 0
M  V30 3364 C 310.61 -4.02847 -4.19629 0
M  V30 3365 N 309.586 -3.31138 -4.31102 0
M  V30 3366 H 313.388 -2.12462 -2.0307 0
M  V30 3367 H 310.902 -1.24127 -1.0472 0
M  V30 3368 H 312.899 -0.77915 -4.09554 0
M  V30 3369 H 311.559 0.0357267 -3.2468 0
M  V30 3370 H 312.57 -3.6349 -3.68911 0
M  V30 3371 H 309.247 -1.07733 -4.03361 0
M  V30 3372 H 310.637 -5.10506 -4.36845 0
M  V30 3373 N 313.357 1.07166 -1.15556 0
M  V30 3374 C 314.582 1.84053 -0.955988 0
M  V30 3375 C 315.007 1.81586 0.490739 0
M  V30 3376 O 314.365 1.21018 1.34997 0
M  V30 3377 C 314.413 3.28957 -1.47714 0
M  V30 3378 O 313.517 4.06795 -0.677593 0
M  V30 3379 H 312.858 0.569842 -0.340847 0
M  V30 3380 H 315.388 1.35178 -1.53584 0
M  V30 3381 H 315.398 3.79788 -1.4908 0
M  V30 3382 H 314.073 3.30068 -2.53037 0
M  V30 3383 H 312.65 3.6561 -0.733721 0
M  V30 3384 N 314.835 0.952656 1.25548 0
M  V30 3385 C 316.081 0.616826 1.93822 0
M  V30 3386 C 316.436 -0.836684 1.73255 0
M  V30 3387 O 315.729 -1.59218 1.06584 0
M  V30 3388 C 315.923 0.908818 3.45652 0
M  V30 3389 C 315.752 2.38916 3.80984 0
M  V30 3390 C 314.522 3.04637 4.03143 0
M  V30 3391 C 316.72 3.36838 3.88645 0
M  V30 3392 N 314.702 4.42565 4.25453 0
M  V30 3393 C 316.073 4.60065 4.1562 0
M  V30 3394 C 318.128 3.31704 3.71318 0
M  V30 3395 C 316.831 5.78795 4.2707 0
M  V30 3396 C 318.857 4.4977 3.84006 0
M  V30 3397 C 318.219 5.71783 4.11392 0
M  V30 3398 H 314.318 0.27629 0.731565 0
M  V30 3399 H 316.902 1.22443 1.5138 0
M  V30 3400 H 315.073 0.330166 3.86994 0
M  V30 3401 H 316.805 0.533093 4.01174 0
M  V30 3402 H 313.56 2.55215 3.98952 0
M  V30 3403 H 313.984 5.1399 4.40617 0
M  V30 3404 H 318.626 2.3842 3.49164 0
M  V30 3405 H 316.344 6.72521 4.48041 0
M  V30 3406 H 319.93 4.47342 3.71989 0
M  V30 3407 H 318.81 6.61617 4.2099 0
M  V30 3408 N 316.313 -1.40141 0.720998 0
M  V30 3409 C 317.276 -2.29058 0.0805834 0
M  V30 3410 C 318.276 -1.45632 -0.681758 0
M  V30 3411 O 319.466 -1.6648 -0.512856 0
M  V30 3412 C 316.598 -3.28925 -0.895593 0
M  V30 3413 H 317.791 -2.87191 0.863793 0
M  V30 3414 H 315.344 -1.48553 0.485975 0
M  V30 3415 H 316.079 -2.75822 -1.70566 0
M  V30 3416 H 315.864 -3.90519 -0.351766 0
M  V30 3417 H 317.354 -3.95494 -1.34069 0
M  V30 3418 N 317.792 -0.46758 -1.50504 0
M  V30 3419 C 319.069 0.15003 -1.95024 0
M  V30 3420 C 319.449 1.57304 -1.40779 0
M  V30 3421 O 318.797 2.20281 -0.607319 0
M  V30 3422 C 319.007 0.0969324 -3.48865 0
M  V30 3423 C 320.355 0.287565 -4.23625 0
M  V30 3424 O 321.379 0.173678 -3.55776 0
M  V30 3425 O 320.238 0.517186 -5.44047 0
M  V30 3426 H 317.332 0.113582 -0.819163 0
M  V30 3427 H 319.878 -0.52773 -1.61286 0
M  V30 3428 H 318.65 -0.896732 -3.80886 0
M  V30 3429 H 318.273 0.816303 -3.8913 0
M  V30 3430 N 319.27 1.56325 -0.20005 0
M  V30 3431 C 320.547 1.89484 0.48529 0
M  V30 3432 C 320.927 1.1143 1.79294 0
M  V30 3433 O 320.275 0.216919 2.27468 0
M  V30 3434 C 320.485 3.41923 0.699243 0
M  V30 3435 C 321.833 4.12256 1.01638 0
M  V30 3436 O 322.857 3.47402 0.786792 0
M  V30 3437 O 321.716 5.26887 1.45095 0
M  V30 3438 H 318.81 0.787144 0.253639 0
M  V30 3439 H 321.356 1.67985 -0.240633 0
M  V30 3440 H 320.128 3.90658 -0.224008 0
M  V30 3441 H 319.751 3.69131 1.47744 0
M  V30 3442 N 320.748 -0.0735177 1.57428 0
M  V30 3443 C 321.994 -0.768909 1.88307 0
M  V30 3444 C 322.349 -1.75273 0.793535 0
M  V30 3445 O 321.642 -1.90527 -0.202466 0
M  V30 3446 C 321.836 -1.51799 3.23561 0
M  V30 3447 C 321.665 -0.608217 4.45568 0
M  V30 3448 C 320.435 -0.245808 5.04702 0
M  V30 3449 C 322.633 0.0942904 5.14214 0
M  V30 3450 N 320.615 0.66987 6.10234 0
M  V30 3451 C 321.986 0.867222 6.13905 0
M  V30 3452 C 324.041 0.165943 4.97623 0
M  V30 3453 C 322.744 1.70515 6.98797 0
M  V30 3454 C 324.77 0.990837 5.83041 0
M  V30 3455 C 324.132 1.75182 6.82269 0
M  V30 3456 H 320.231 -0.25685 0.738615 0
M  V30 3457 H 322.815 -0.030499 1.94676 0
M  V30 3458 H 320.986 -2.22713 3.18203 0
M  V30 3459 H 322.718 -2.16226 3.42094 0
M  V30 3460 H 319.473 -0.598284 4.69806 0
M  V30 3461 H 319.897 1.1209 6.67656 0
M  V30 3462 H 324.539 -0.408064 4.20826 0
M  V30 3463 H 322.257 2.29013 7.7497 0
M  V30 3464 H 325.843 1.04923 5.72261 0
M  V30 3465 H 324.723 2.37983 7.47217 0
M  V30 3466 N 322.226 -1.5378 -0.344866 0
M  V30 3467 C 323.173 -1.81676 -1.42346 0
M  V30 3468 C 324.143 -0.662376 -1.52321 0
M  V30 3469 O 325.328 -0.906675 -1.67881 0
M  V30 3470 C 322.468 -2.03087 -2.79015 0
M  V30 3471 C 321.581 -3.30799 -2.77842 0
M  V30 3472 C 320.716 -3.42285 -4.0622 0
M  V30 3473 C 319.755 -4.6395 -3.9927 0
M  V30 3474 N 318.892 -4.72477 -5.19336 0
M  V30 3475 H 323.732 -2.73703 -1.17858 0
M  V30 3476 H 321.269 -1.35568 -0.570949 0
M  V30 3477 H 323.227 -2.1349 -3.58438 0
M  V30 3478 H 321.857 -1.14375 -3.01858 0
M  V30 3479 H 320.909 -3.29244 -1.90533 0
M  V30 3480 H 322.221 -4.20314 -2.68584 0
M  V30 3481 H 321.375 -3.52113 -4.94066 0
M  V30 3482 H 320.114 -2.50823 -4.18258 0
M  V30 3483 H 319.119 -4.54201 -3.09809 0
M  V30 3484 H 320.344 -5.56775 -3.88817 0
M  V30 3485 H 318.29 -3.83924 -5.3192 0
M  V30 3486 H 318.207 -5.55927 -5.12329 0
M  V30 3487 H 319.475 -4.86613 -6.08957 0
M  V30 3488 N 323.704 0.605807 -1.45491 0
M  V30 3489 C 324.667 1.69836 -1.5391 0
M  V30 3490 C 325.667 1.55261 -0.418424 0
M  V30 3491 O 326.857 1.60296 -0.681965 0
M  V30 3492 C 323.989 3.09117 -1.43734 0
M  V30 3493 H 325.182 1.63738 -2.51257 0
M  V30 3494 H 322.735 0.821689 -1.32959 0
M  V30 3495 H 323.47 3.20791 -0.475788 0
M  V30 3496 H 323.255 3.21104 -2.25021 0
M  V30 3497 H 324.745 3.88696 -1.52661 0
M  V30 3498 N 325.182 1.32811 0.848464 0
M  V30 3499 C 326.431 1.23075 1.59798 0
M  V30 3500 C 326.744 -0.204419 1.94529 0
M  V30 3501 O 327.95 -0.423701 2.68173 0
M  V30 3502 C 326.406 2.15594 2.88179 0
M  V30 3503 C 326.014 3.64228 2.60849 0
M  V30 3504 C 327.758 2.14709 3.66197 0
M  V30 3505 C 325.665 4.48689 3.85269 0
M  V30 3506 H 324.595 0.457091 0.599653 0
M  V30 3507 H 327.246 1.57813 0.936342 0
M  V30 3508 H 325.628 1.73778 3.55833 0
M  V30 3509 H 326.802 4.14424 2.01467 0
M  V30 3510 H 325.117 3.67306 1.96151 0
M  V30 3511 H 327.714 2.75046 4.58534 0
M  V30 3512 H 328.057 1.13966 4.00397 0
M  V30 3513 H 328.59 2.54837 3.05455 0
M  V30 3514 H 325.329 5.5027 3.56207 0
M  V30 3515 H 324.849 4.03241 4.44024 0
M  V30 3516 H 326.528 4.62006 4.52946 0
M  V30 3517 N 326.66 -1.06551 1.16123 0
M  V30 3518 C 327.59 -2.15935 0.88851 0
M  V30 3519 C 328.571 -1.69306 -0.164135 0
M  V30 3520 O 329.756 -1.94193 -0.0167857 0
M  V30 3521 C 326.886 -3.45149 0.385942 0
M  V30 3522 C 325.84 -4.05271 1.3762 0
M  V30 3523 C 325.166 -5.29664 0.732137 0
M  V30 3524 C 326.466 -4.44355 2.74493 0
M  V30 3525 H 328.16 -2.39006 1.80323 0
M  V30 3526 H 325.706 -1.14866 0.868435 0
M  V30 3527 H 327.659 -4.21004 0.182647 0
M  V30 3528 H 326.383 -3.21689 -0.564274 0
M  V30 3529 H 325.042 -3.3147 1.56599 0
M  V30 3530 H 324.69 -5.02499 -0.224483 0
M  V30 3531 H 324.39 -5.70848 1.39307 0
M  V30 3532 H 325.914 -6.08218 0.538802 0
M  V30 3533 H 327.328 -5.11303 2.59311 0
M  V30 3534 H 325.725 -4.96515 3.37035 0
M  V30 3535 H 326.795 -3.55339 3.29943 0
M  V30 3536 N 328.138 -0.959301 -1.25041 0
M  V30 3537 C 329.415 -0.533805 -1.88175 0
M  V30 3538 C 329.795 0.988994 -1.865 0
M  V30 3539 O 329.143 1.85677 -1.33177 0
M  V30 3540 C 329.353 -1.11575 -3.30684 0
M  V30 3541 C 330.701 -1.19548 -4.07423 0
M  V30 3542 O 331.725 -1.06765 -3.39823 0
M  V30 3543 O 330.584 -1.39656 -5.28354 0
M  V30 3544 H 327.678 -0.176772 -0.807887 0
M  V30 3545 H 330.224 -1.05303 -1.33076 0
M  V30 3546 H 328.996 -2.15884 -3.26358 0
M  V30 3547 H 328.619 -0.580059 -3.93346 0
M  V30 3548 N 329.616 1.39756 -0.72842 0
M  V30 3549 C 330.841 2.05472 -0.282159 0
M  V30 3550 C 331.266 1.54549 1.07221 0
M  V30 3551 O 330.624 0.686372 1.67805 0
M  V30 3552 C 330.672 3.59462 -0.286264 0
M  V30 3553 O 329.776 4.05918 0.728298 0
M  V30 3554 H 329.117 0.651226 -0.129618 0
M  V30 3555 H 331.647 1.78915 -0.992499 0
M  V30 3556 H 331.657 4.07798 -0.128373 0
M  V30 3557 H 330.332 3.95889 -1.27456 0
M  V30 3558 H 328.909 3.69012 0.537081 0
M  V30 3559 N 331.094 0.475555 1.50254 0
M  V30 3560 C 332.041 -0.316293 2.28622 0
M  V30 3561 C 333.011 -0.983227 1.33873 0
M  V30 3562 O 334.196 -0.994805 1.62814 0
M  V30 3563 C 331.336 -1.38975 3.1588 0
M  V30 3564 C 330.449 -0.737146 4.25664 0
M  V30 3565 C 329.584 -1.78887 5.00173 0
M  V30 3566 C 328.623 -1.11676 6.01826 0
M  V30 3567 N 327.76 -2.11154 6.69596 0
M  V30 3568 H 332.6 0.358297 2.95838 0
M  V30 3569 H 330.137 0.188541 1.45887 0
M  V30 3570 H 332.095 -2.02383 3.64825 0
M  V30 3571 H 330.725 -2.03344 2.50701 0
M  V30 3572 H 329.777 0.0096065 3.80399 0
M  V30 3573 H 331.089 -0.206816 4.98371 0
M  V30 3574 H 330.243 -2.49865 5.52859 0
M  V30 3575 H 328.982 -2.35302 4.27182 0
M  V30 3576 H 327.987 -0.392633 5.48396 0
M  V30 3577 H 329.212 -0.55945 6.76792 0
M  V30 3578 H 327.158 -2.66577 5.99394 0
M  V30 3579 H 327.075 -1.63118 7.38193 0
M  V30 3580 H 328.343 -2.81497 7.26897 0
M  V30 3581 N 332.573 -1.56217 0.208337 0
M  V30 3582 C 333.989 -1.58919 -0.14729 0
M  V30 3583 C 334.189 -1.22486 -1.59998 0
M  V30 3584 O 333.245 -0.953849 -2.3379 0
M  V30 3585 C 334.558 -3.00236 0.167048 0
M  V30 3586 C 336.106 -3.12813 0.108219 0
M  V30 3587 C 336.581 -4.56284 0.396049 0
M  V30 3588 N 338.072 -4.61912 0.345142 0
M  V30 3589 C 338.807 -5.70837 0.541523 0
M  V30 3590 N 338.303 -6.88178 0.798968 0
M  V30 3591 N 340.096 -5.60091 0.474867 0
M  V30 3592 H 332.247 -1.78177 1.15614 0
M  V30 3593 H 334.51 -0.827555 0.462446 0
M  V30 3594 H 334.216 -3.31499 1.1748 0
M  V30 3595 H 334.09 -3.7354 -0.524184 0
M  V30 3596 H 336.477 -2.81354 -0.890157 0
M  V30 3597 H 336.558 -2.41866 0.832729 0
M  V30 3598 H 336.202 -4.88458 1.3918 0
M  V30 3599 H 336.132 -5.25439 -0.349502 0
M  V30 3600 H 338.623 -3.77589 0.153316 0
M  V30 3601 H 338.936 -7.67095 0.93727 0
M  V30 3602 H 337.281 -6.89953 0.836013 0
M  V30 3603 H 340.472 -4.67297 0.274064 0
M  V30 3604 H 340.645 -6.44917 0.631326 0
M  V30 3605 N 334.051 0.0651679 -1.57465 0
M  V30 3606 C 335.462 0.616213 -1.76238 0
M  V30 3607 C 335.813 1.7756 -0.834689 0
M  V30 3608 O 334.938 2.1639 -0.0204156 0
M  V30 3609 C 335.533 1.12462 -3.1959 0
M  V30 3610 C 334.092 1.62147 -3.39684 0
M  V30 3611 C 333.239 0.543739 -2.71917 0
M  V30 3612 H 336.19 -0.161022 -1.57881 0
M  V30 3613 H 336.211 1.99324 -3.24114 0
M  V30 3614 H 335.723 0.280592 -3.87084 0
M  V30 3615 H 333.824 2.48854 -2.77313 0
M  V30 3616 H 333.937 1.69385 -4.48158 0
M  V30 3617 H 332.301 0.990352 -2.34657 0
M  V30 3618 H 333.084 -0.290216 -3.42071 0
M  V30 3619 N 335.529 1.53961 0.336706 0
M  V30 3620 C 336.769 1.73254 1.08454 0
M  V30 3621 C 337.133 0.488937 1.8567 0
M  V30 3622 O 338.334 0.559001 2.62923 0
M  V30 3623 C 336.605 2.96519 1.99528 0
M  V30 3624 S 338.164 3.36655 2.81441 0
M  V30 3625 H 334.982 0.609353 0.366347 0
M  V30 3626 H 337.584 1.92117 0.362124 0
M  V30 3627 H 336.288 3.85193 1.41614 0
M  V30 3628 H 335.819 2.80142 2.76196 0
M  V30 3629 H 337.834 2.90925 4.01967 0
M  V30 3630 O 337.046 -0.482677 1.54118 0
M  V30 3631 H 337.737 -1.13727 1.56799 0
M  V30 END ATOM
M  V30 BEGIN BOND
M  V30 END BOND
M  V30 END CTAB
M  END
$$$$
